1,2
q = -1.0

 56 58  0  0  0  0  0  0  0  0999 V2000
   -0.5200   -0.4327   -0.0574 N   0  0  0  0  0  2  0  0  0  0  0  0
    1.2965    0.6776    0.5176 N   0  0  0  0  0  2  0  0  0  0  0  0
   -0.0463    0.7243    0.4202 C   0  0  0  0  0  3  0  0  0  0  0  0
   -0.8027    1.8159    0.7823 N   0  0  0  0  0  0  0  0  0  0  0  0
   -0.2845    2.5408    1.2857 H   0  0  0  0  0  0  0  0  0  0  0  0
   -2.3173    1.8694   -1.1514 C   0  0  0  0  0  0  0  0  0  0  0  0
   -1.5545    1.3511   -1.7518 H   0  0  0  0  0  0  0  0  0  0  0  0
   -2.0346    2.1881    0.1916 C   0  0  0  0  0  0  0  0  0  0  0  0
    2.1074    1.8283    0.4635 C   0  0  0  0  0  0  0  0  0  0  0  0
   -2.9818    2.8933    0.9725 C   0  0  0  0  0  0  0  0  0  0  0  0
   -1.8052   -0.9563    0.1250 C   0  0  0  0  0  0  0  0  0  0  0  0
    3.7578    4.1501    0.3613 C   0  0  0  0  0  0  0  0  0  0  0  0
   -2.6799    3.2347    2.4077 C   0  0  0  0  0  0  0  0  0  0  0  0
   -1.8627    3.9846    2.4987 H   0  0  0  0  0  0  0  0  0  0  0  0
   -2.3497    2.3362    2.9709 H   0  0  0  0  0  0  0  0  0  0  0  0
   -3.5673    3.6575    2.9159 H   0  0  0  0  0  0  0  0  0  0  0  0
    3.2070    1.9556    1.3539 C   0  0  0  0  0  0  0  0  0  0  0  0
   -4.2034    3.2478    0.3723 C   0  0  0  0  0  0  0  0  0  0  0  0
   -4.9448    3.7944    0.9782 H   0  0  0  0  0  0  0  0  0  0  0  0
    4.0037    3.1137    1.2801 C   0  0  0  0  0  0  0  0  0  0  0  0
    4.8499    3.2130    1.9806 H   0  0  0  0  0  0  0  0  0  0  0  0
   -4.5198    2.9140   -0.9577 C   0  0  0  0  0  0  0  0  0  0  0  0
    1.8579    2.8611   -0.4737 C   0  0  0  0  0  0  0  0  0  0  0  0
    1.0360    2.7304   -1.1908 H   0  0  0  0  0  0  0  0  0  0  0  0
    2.6639    4.0012   -0.5166 C   0  0  0  0  0  0  0  0  0  0  0  0
    2.4496    4.7864   -1.2594 H   0  0  0  0  0  0  0  0  0  0  0  0
   -4.4088   -2.0313    0.5711 C   0  0  0  0  0  0  0  0  0  0  0  0
    3.5153    0.8784    2.3589 C   0  0  0  0  0  0  0  0  0  0  0  0
    2.5871    0.4273    2.7608 H   0  0  0  0  0  0  0  0  0  0  0  0
    4.1220    1.2710    3.1978 H   0  0  0  0  0  0  0  0  0  0  0  0
    4.0947    0.0529    1.8927 H   0  0  0  0  0  0  0  0  0  0  0  0
   -2.4453   -0.8337    1.3831 C   0  0  0  0  0  0  0  0  0  0  0  0
   -1.9144   -0.3160    2.1950 H   0  0  0  0  0  0  0  0  0  0  0  0
   -2.4799   -1.6268   -0.9306 C   0  0  0  0  0  0  0  0  0  0  0  0
   -3.5489    2.2212   -1.7096 C   0  0  0  0  0  0  0  0  0  0  0  0
   -3.7562    1.9591   -2.7593 H   0  0  0  0  0  0  0  0  0  0  0  0
   -3.7612   -2.1524   -0.6707 C   0  0  0  0  0  0  0  0  0  0  0  0
   -4.2866   -2.6649   -1.4941 H   0  0  0  0  0  0  0  0  0  0  0  0
   -5.8589    3.2639   -1.5569 C   0  0  0  0  0  0  0  0  0  0  0  0
   -6.4093    3.9947   -0.9327 H   0  0  0  0  0  0  0  0  0  0  0  0
   -6.5012    2.3625   -1.6581 H   0  0  0  0  0  0  0  0  0  0  0  0
   -5.7504    3.6946   -2.5734 H   0  0  0  0  0  0  0  0  0  0  0  0
   -1.8765   -1.7548   -2.3050 C   0  0  0  0  0  0  0  0  0  0  0  0
   -2.6659   -1.7114   -3.0814 H   0  0  0  0  0  0  0  0  0  0  0  0
   -1.3578   -2.7296   -2.4355 H   0  0  0  0  0  0  0  0  0  0  0  0
   -1.1195   -0.9720   -2.5073 H   0  0  0  0  0  0  0  0  0  0  0  0
   -3.7222   -1.3529    1.6000 C   0  0  0  0  0  0  0  0  0  0  0  0
   -4.1947   -1.2355    2.5885 H   0  0  0  0  0  0  0  0  0  0  0  0
    4.6361    5.3748    0.3031 C   0  0  0  0  0  0  0  0  0  0  0  0
    5.3890    5.3780    1.1152 H   0  0  0  0  0  0  0  0  0  0  0  0
    4.0401    6.3074    0.3870 H   0  0  0  0  0  0  0  0  0  0  0  0
    5.1828    5.4328   -0.6621 H   0  0  0  0  0  0  0  0  0  0  0  0
   -5.7966   -2.5778    0.7940 C   0  0  0  0  0  0  0  0  0  0  0  0
   -6.1246   -3.2169   -0.0489 H   0  0  0  0  0  0  0  0  0  0  0  0
   -6.5402   -1.7589    0.9005 H   0  0  0  0  0  0  0  0  0  0  0  0
   -5.8534   -3.1825    1.7229 H   0  0  0  0  0  0  0  0  0  0  0  0
  1 11  1  0  0  0  0
  1  3  1  0  0  0  0
  3  2  1  0  0  0  0
  3  4  1  0  0  0  0
  4  5  1  0  0  0  0
  6  8  1  0  0  0  0
  7  6  1  0  0  0  0
  8  4  1  0  0  0  0
  8 10  2  0  0  0  0
  9  2  1  0  0  0  0
  9 17  1  0  0  0  0
 10 13  1  0  0  0  0
 11 32  1  0  0  0  0
 12 20  1  0  0  0  0
 13 14  1  0  0  0  0
 13 16  1  0  0  0  0
 13 15  1  0  0  0  0
 17 28  1  0  0  0  0
 18 10  1  0  0  0  0
 18 19  1  0  0  0  0
 20 17  2  0  0  0  0
 20 21  1  0  0  0  0
 22 18  2  0  0  0  0
 23  9  2  0  0  0  0
 24 23  1  0  0  0  0
 25 23  1  0  0  0  0
 25 12  2  0  0  0  0
 26 25  1  0  0  0  0
 27 53  1  0  0  0  0
 27 47  1  0  0  0  0
 28 29  1  0  0  0  0
 28 30  1  0  0  0  0
 31 28  1  0  0  0  0
 32 47  2  0  0  0  0
 32 33  1  0  0  0  0
 34 37  1  0  0  0  0
 34 11  2  0  0  0  0
 35  6  2  0  0  0  0
 35 22  1  0  0  0  0
 36 35  1  0  0  0  0
 37 27  2  0  0  0  0
 38 37  1  0  0  0  0
 39 22  1  0  0  0  0
 39 40  1  0  0  0  0
 41 39  1  0  0  0  0
 42 39  1  0  0  0  0
 43 34  1  0  0  0  0
 44 43  1  0  0  0  0
 45 43  1  0  0  0  0
 46 43  1  0  0  0  0
 47 48  1  0  0  0  0
 49 12  1  0  0  0  0
 49 51  1  0  0  0  0
 49 50  1  0  0  0  0
 52 49  1  0  0  0  0
 53 55  1  0  0  0  0
 53 56  1  0  0  0  0
 54 53  1  0  0  0  0
M  END
