1,4
q = -1.0

 47 49  0  0  0  0  0  0  0  0999 V2000
   -0.5890   -0.3313    0.2237 N   0  0  0  0  0  2  0  0  0  0  0  0
   -0.8097    1.9913   -0.4973 N   0  0  0  0  0  0  0  0  0  0  0  0
   -0.2306    2.7666   -0.8307 H   0  0  0  0  0  0  0  0  0  0  0  0
    1.2410    0.7836   -0.1529 N   0  0  0  0  0  2  0  0  0  0  0  0
   -0.1039    0.8618   -0.1689 C   0  0  0  0  0  3  0  0  0  0  0  0
   -1.8412   -0.8968    0.0068 C   0  0  0  0  0  0  0  0  0  0  0  0
   -2.3315   -1.8465    0.9329 C   0  0  0  0  0  0  0  0  0  0  0  0
   -1.7150   -2.0797    1.8142 H   0  0  0  0  0  0  0  0  0  0  0  0
   -3.5749   -2.4573    0.7378 C   0  0  0  0  0  0  0  0  0  0  0  0
   -3.9359   -3.1891    1.4784 H   0  0  0  0  0  0  0  0  0  0  0  0
   -4.3821   -2.1487   -0.3776 C   0  0  0  0  0  0  0  0  0  0  0  0
   -3.8780   -1.2135   -1.3051 C   0  0  0  0  0  0  0  0  0  0  0  0
   -4.4768   -0.9598   -2.1947 H   0  0  0  0  0  0  0  0  0  0  0  0
   -2.6319   -0.6020   -1.1304 C   0  0  0  0  0  0  0  0  0  0  0  0
   -2.2596    0.1128   -1.8775 H   0  0  0  0  0  0  0  0  0  0  0  0
   -5.7443   -2.7702   -0.5561 C   0  0  0  0  0  0  0  0  0  0  0  0
   -5.8041   -3.7705   -0.0829 H   0  0  0  0  0  0  0  0  0  0  0  0
   -6.0071   -2.8805   -1.6273 H   0  0  0  0  0  0  0  0  0  0  0  0
   -6.5369   -2.1433   -0.0917 H   0  0  0  0  0  0  0  0  0  0  0  0
   -2.1445    2.3077   -0.1381 C   0  0  0  0  0  0  0  0  0  0  0  0
   -2.7189    1.8664    1.0705 C   0  0  0  0  0  0  0  0  0  0  0  0
   -2.1083    1.3079    1.7925 H   0  0  0  0  0  0  0  0  0  0  0  0
   -4.0509    2.1787    1.3577 C   0  0  0  0  0  0  0  0  0  0  0  0
   -4.4854    1.8229    2.3053 H   0  0  0  0  0  0  0  0  0  0  0  0
   -4.2393    3.4106   -0.7076 C   0  0  0  0  0  0  0  0  0  0  0  0
   -4.8257    4.0243   -1.4096 H   0  0  0  0  0  0  0  0  0  0  0  0
   -2.9122    3.0891   -1.0215 C   0  0  0  0  0  0  0  0  0  0  0  0
   -2.4659    3.4347   -1.9670 H   0  0  0  0  0  0  0  0  0  0  0  0
    2.1854    1.7826   -0.3579 C   0  0  0  0  0  0  0  0  0  0  0  0
    2.0943    2.7171   -1.4190 C   0  0  0  0  0  0  0  0  0  0  0  0
    1.2738    2.6402   -2.1499 H   0  0  0  0  0  0  0  0  0  0  0  0
    3.0825    3.6982   -1.5927 C   0  0  0  0  0  0  0  0  0  0  0  0
    2.9876    4.4117   -2.4270 H   0  0  0  0  0  0  0  0  0  0  0  0
    4.2025    3.7753   -0.7446 C   0  0  0  0  0  0  0  0  0  0  0  0
    4.3012    2.8183    0.2914 C   0  0  0  0  0  0  0  0  0  0  0  0
    5.1687    2.8488    0.9706 H   0  0  0  0  0  0  0  0  0  0  0  0
    3.3211    1.8437    0.4870 C   0  0  0  0  0  0  0  0  0  0  0  0
    3.3922    1.1140    1.3077 H   0  0  0  0  0  0  0  0  0  0  0  0
    5.2603    4.8349   -0.9234 C   0  0  0  0  0  0  0  0  0  0  0  0
    6.2768    4.3926   -0.9778 H   0  0  0  0  0  0  0  0  0  0  0  0
    5.2674    5.5469   -0.0704 H   0  0  0  0  0  0  0  0  0  0  0  0
    5.0966    5.4236   -1.8470 H   0  0  0  0  0  0  0  0  0  0  0  0
   -6.2812    3.2571    0.8050 C   0  0  0  0  0  0  0  0  0  0  0  0
   -6.7220    3.9694    0.0808 H   0  0  0  0  0  0  0  0  0  0  0  0
   -6.3823    3.6954    1.8195 H   0  0  0  0  0  0  0  0  0  0  0  0
   -6.9027    2.3365    0.7915 H   0  0  0  0  0  0  0  0  0  0  0  0
   -4.8418    2.9484    0.4786 C   0  0  0  0  0  0  0  0  0  0  0  0
  2  5  1  0  0  0  0
  2 20  1  0  0  0  0
  3  2  1  0  0  0  0
  5  4  1  0  0  0  0
  5  1  1  0  0  0  0
  6  1  1  0  0  0  0
  6  7  1  0  0  0  0
  7  8  1  0  0  0  0
  9  7  2  0  0  0  0
  9 10  1  0  0  0  0
 11  9  1  0  0  0  0
 12 14  1  0  0  0  0
 12 11  2  0  0  0  0
 13 12  1  0  0  0  0
 14  6  2  0  0  0  0
 15 14  1  0  0  0  0
 16 11  1  0  0  0  0
 16 19  1  0  0  0  0
 16 17  1  0  0  0  0
 18 16  1  0  0  0  0
 20 21  1  0  0  0  0
 21 23  2  0  0  0  0
 21 22  1  0  0  0  0
 23 24  1  0  0  0  0
 25 47  2  0  0  0  0
 26 25  1  0  0  0  0
 27 25  1  0  0  0  0
 27 20  2  0  0  0  0
 28 27  1  0  0  0  0
 29  4  1  0  0  0  0
 29 37  1  0  0  0  0
 30 29  2  0  0  0  0
 31 30  1  0  0  0  0
 32 30  1  0  0  0  0
 32 34  2  0  0  0  0
 33 32  1  0  0  0  0
 34 35  1  0  0  0  0
 35 37  2  0  0  0  0
 35 36  1  0  0  0  0
 37 38  1  0  0  0  0
 39 34  1  0  0  0  0
 39 41  1  0  0  0  0
 40 39  1  0  0  0  0
 42 39  1  0  0  0  0
 43 45  1  0  0  0  0
 44 43  1  0  0  0  0
 46 43  1  0  0  0  0
 47 43  1  0  0  0  0
 47 23  1  0  0  0  0
M  END
