1,4
q = 0.0, confidence = 0.924

 26 26  0  0  1  0  0  0  0  0999 V2000
    0.2406   -0.7592   -0.1543 N   0  0  0  0  0  2  0  0  0  0  0  0
    0.6111   -2.0436   -0.2640 O   0  0  0  0  0  0  0  0  0  0  0  0
   -0.2938   -2.5172   -0.2781 H   0  0  0  0  0  0  0  0  0  0  0  0
   -0.9351    1.5598    0.0283 N   0  0  0  0  0  2  0  0  0  0  0  0
   -1.4607    2.6416    0.0375 O   0  0  0  0  0  1  0  0  0  0  0  0
    0.6345    1.5908    0.0846 C   0  0  0  0  0  0  0  0  0  0  0  0
    0.9773    2.1063    1.4936 C   0  0  0  0  0  0  0  0  0  0  0  0
    0.5499    1.4426    2.2709 H   0  0  0  0  0  0  0  0  0  0  0  0
    0.5713    3.1274    1.6271 H   0  0  0  0  0  0  0  0  0  0  0  0
    2.0771    2.1330    1.6175 H   0  0  0  0  0  0  0  0  0  0  0  0
    1.1061    2.5528   -1.0101 C   0  0  0  0  0  0  0  0  0  0  0  0
    0.6038    3.5293   -0.8761 H   0  0  0  0  0  0  0  0  0  0  0  0
    0.8675    2.1614   -2.0184 H   0  0  0  0  0  0  0  0  0  0  0  0
    2.1984    2.7059   -0.9313 H   0  0  0  0  0  0  0  0  0  0  0  0
    1.1482    0.1724   -0.0946 C   0  0  1  0  0  3  0  0  0  0  0  0
    2.6007   -0.1368   -0.0577 C   0  0  0  0  0  0  0  0  0  0  0  0
    3.1169   -0.8479    1.0483 C   0  0  0  0  0  0  0  0  0  0  0  0
    2.4348   -1.1756    1.8465 H   0  0  0  0  0  0  0  0  0  0  0  0
    4.4852   -1.1365    1.1251 C   0  0  0  0  0  0  0  0  0  0  0  0
    4.8778   -1.6864    1.9934 H   0  0  0  0  0  0  0  0  0  0  0  0
    5.3508   -0.7307    0.0964 C   0  0  0  0  0  0  0  0  0  0  0  0
    6.4250   -0.9612    0.1568 H   0  0  0  0  0  0  0  0  0  0  0  0
    4.8419   -0.0393   -1.0133 C   0  0  0  0  0  0  0  0  0  0  0  0
    5.5130    0.2657   -1.8301 H   0  0  0  0  0  0  0  0  0  0  0  0
    3.4738    0.2600   -1.0923 C   0  0  0  0  0  0  0  0  0  0  0  0
    3.0786    0.7788   -1.9767 H   0  0  0  0  0  0  0  0  0  0  0  0
  2  1  1  0  0  0  0
  3  2  1  0  0  0  0
  4  5  1  0  0  0  0
  4  6  1  0  0  0  0
  6  7  1  0  0  0  0
  7 10  1  0  0  0  0
  7  9  1  0  0  0  0
  7  8  1  0  0  0  0
 11 14  1  0  0  0  0
 11 12  1  0  0  0  0
 11  6  1  0  0  0  0
 13 11  1  0  0  0  0
 15  1  1  1  0  0  0
 15 16  1  0  0  0  0
 15  6  1  0  0  0  0
 16 17  1  0  0  0  0
 17 19  2  0  0  0  0
 17 18  1  0  0  0  0
 19 20  1  0  0  0  0
 21 22  1  0  0  0  0
 21 19  1  0  0  0  0
 23 21  2  0  0  0  0
 24 23  1  0  0  0  0
 25 23  1  0  0  0  0
 25 16  2  0  0  0  0
 26 25  1  0  0  0  0
M  END
