3,4
q = -1.0

 20 22  0  0  0  0  0  0  0  0999 V2000
    0.6474   -4.3533   -2.3741 S   0  0  0  0  0  0  0  0  0  0  0  0
   -1.8888   -3.3756    1.6962 N   0  0  0  0  0  0  0  0  0  0  0  0
   -1.1527   -1.3387    0.9082 N   0  0  0  0  0  0  0  0  0  0  0  0
   -0.0047   -2.1788   -1.1974 N   0  0  0  0  0  2  0  0  0  0  0  0
   -2.8960   -0.0365    3.9657 C   0  0  0  0  0  0  0  0  0  0  0  0
   -3.1392    0.8689    4.5428 H   0  0  0  0  0  0  0  0  0  0  0  0
   -2.1474    0.0940    2.7923 C   0  0  0  0  0  0  0  0  0  0  0  0
   -1.8042    1.0800    2.4591 H   0  0  0  0  0  0  0  0  0  0  0  0
   -1.8498   -1.0841    2.0735 C   0  0  0  0  0  0  0  0  0  0  0  0
   -2.3013   -2.3731    2.5497 C   0  0  0  0  0  3  0  0  0  0  0  0
   -3.0543   -2.4722    3.7399 C   0  0  0  0  0  0  0  0  0  0  0  0
   -3.3909   -3.4586    4.0922 H   0  0  0  0  0  0  0  0  0  0  0  0
   -3.3463   -1.2982    4.4360 C   0  0  0  0  0  0  0  0  0  0  0  0
   -3.9319   -1.3466    5.3670 H   0  0  0  0  0  0  0  0  0  0  0  0
   -1.2254   -2.7130    0.7541 C   0  0  0  0  0  0  0  0  0  0  0  0
   -0.5430   -3.2053   -0.4204 C   0  0  0  0  0  0  0  0  0  0  0  0
    0.6529   -2.6318   -2.2487 C   0  0  0  0  0  3  0  0  0  0  0  0
    1.1821   -1.9903   -2.9626 H   0  0  0  0  0  0  0  0  0  0  0  0
   -0.2921   -4.4674   -0.9174 C   0  0  0  0  0  0  0  0  0  0  0  0
   -0.6027   -5.4277   -0.4937 H   0  0  0  0  0  0  0  0  0  0  0  0
  1 17  1  0  0  0  0
  1 19  1  0  0  0  0
  2 10  1  0  0  0  0
  3  9  2  0  0  0  0
  4 16  1  0  0  0  0
  5 13  1  0  0  0  0
  5  6  1  0  0  0  0
  7  5  2  0  0  0  0
  8  7  1  0  0  0  0
  9 10  1  0  0  0  0
  9  7  1  0  0  0  0
 10 11  1  0  0  0  0
 11 12  1  0  0  0  0
 11 13  2  0  0  0  0
 13 14  1  0  0  0  0
 15  3  1  0  0  0  0
 15  2  2  0  0  0  0
 16 15  1  0  0  0  0
 17  4  1  0  0  0  0
 18 17  1  0  0  0  0
 19 20  1  0  0  0  0
 19 16  2  0  0  0  0
M  END
