3,4
q = 0.0, confidence = 0.984

 22 24  0  0  0  0  0  0  0  0999 V2000
   -6.6885    0.5338    1.0785 Br  0  0  0  0  0  0  0  0  0  0  0  0
   -5.7366    2.3361   -1.5562 Br  0  0  0  0  0  0  0  0  0  0  0  0
   -1.7397   -1.4580    1.0499 N   0  0  0  0  0  2  0  0  0  0  0  0
   -1.0070   -0.0842   -1.0545 N   0  0  0  0  0  2  0  0  0  0  0  0
   -2.0612   -2.2147    2.1174 C   0  0  0  0  0  0  0  0  0  0  0  0
   -1.2484   -2.8681    2.4770 H   0  0  0  0  0  0  0  0  0  0  0  0
   -3.3431   -2.1665    2.6941 C   0  0  0  0  0  0  0  0  0  0  0  0
   -3.5578   -2.8064    3.5618 H   0  0  0  0  0  0  0  0  0  0  0  0
   -4.3281   -1.3284    2.1708 C   0  0  0  0  0  0  0  0  0  0  0  0
   -5.3325   -1.2812    2.6126 H   0  0  0  0  0  0  0  0  0  0  0  0
   -4.0215   -0.5319    1.0386 C   0  0  0  0  0  0  0  0  0  0  0  0
   -4.9319    0.3824    0.3830 C   0  0  0  0  0  0  0  0  0  0  0  0
   -4.5349    1.1337   -0.7169 C   0  0  0  0  0  0  0  0  0  0  0  0
   -3.1963    1.0282   -1.2597 C   0  0  0  0  0  0  0  0  0  0  0  0
   -2.7002    1.7641   -2.3653 C   0  0  0  0  0  0  0  0  0  0  0  0
   -3.3549    2.4771   -2.8835 H   0  0  0  0  0  0  0  0  0  0  0  0
   -1.3803    1.5602   -2.7738 C   0  0  0  0  0  0  0  0  0  0  0  0
   -0.9684    2.1136   -3.6295 H   0  0  0  0  0  0  0  0  0  0  0  0
   -0.5636    0.6336   -2.1075 C   0  0  0  0  0  0  0  0  0  0  0  0
    0.4711    0.4394   -2.4233 H   0  0  0  0  0  0  0  0  0  0  0  0
   -2.3036    0.1146   -0.6311 C   0  0  0  0  0  0  0  0  0  0  0  0
   -2.7060   -0.6429    0.5057 C   0  0  0  0  0  0  0  0  0  0  0  0
  2 13  1  0  0  0  0
  3  5  1  0  0  0  0
  4 21  1  0  0  0  0
  5  6  1  0  0  0  0
  5  7  2  0  0  0  0
  7  8  1  0  0  0  0
  9 10  1  0  0  0  0
  9  7  1  0  0  0  0
 11  9  2  0  0  0  0
 12 11  1  0  0  0  0
 12  1  1  0  0  0  0
 13 12  2  0  0  0  0
 14 13  1  0  0  0  0
 14 21  1  0  0  0  0
 15 14  2  0  0  0  0
 16 15  1  0  0  0  0
 17 15  1  0  0  0  0
 17 19  2  0  0  0  0
 18 17  1  0  0  0  0
 19  4  1  0  0  0  0
 20 19  1  0  0  0  0
 21 22  2  0  0  0  0
 22 11  1  0  0  0  0
 22  3  1  0  0  0  0
M  END
