1,2
q = -1.0

 21 22  0  0  0  0  0  0  0  0999 V2000
   -1.4513   -0.2771    0.1762 N   0  0  0  0  0  2  0  0  0  0  0  0
   -0.3990   -2.2002   -0.0706 N   0  0  0  0  0  2  0  0  0  0  0  0
   -0.2296   -3.5210   -0.1764 C   0  0  0  0  0  3  0  0  0  0  0  0
    0.8060   -3.8629   -0.3279 H   0  0  0  0  0  0  0  0  0  0  0  0
   -1.3317   -4.3795   -0.1015 C   0  0  0  0  0  0  0  0  0  0  0  0
   -1.1930   -5.4649   -0.1934 H   0  0  0  0  0  0  0  0  0  0  0  0
   -2.6110   -3.8176    0.0941 C   0  0  0  0  0  0  0  0  0  0  0  0
   -3.4906   -4.4764    0.1606 H   0  0  0  0  0  0  0  0  0  0  0  0
   -2.7804   -2.4346    0.2097 C   0  0  0  0  0  0  0  0  0  0  0  0
   -3.7616   -1.9743    0.3812 H   0  0  0  0  0  0  0  0  0  0  0  0
   -1.6197   -1.6356    0.1223 C   0  0  0  0  0  0  0  0  0  0  0  0
   -3.3211    0.7325    1.2046 N   0  0  0  0  0  0  0  0  0  0  0  0
   -4.3895    1.5426    1.1277 C   0  0  0  0  0  0  0  0  0  0  0  0
   -4.9730    1.6669    2.0576 H   0  0  0  0  0  0  0  0  0  0  0  0
   -4.7758    2.2139   -0.0435 C   0  0  0  0  0  0  0  0  0  0  0  0
   -5.6547    2.8752   -0.0433 H   0  0  0  0  0  0  0  0  0  0  0  0
   -4.0215    1.9990   -1.2083 C   0  0  0  0  0  0  0  0  0  0  0  0
   -4.3009    2.4821   -2.1574 H   0  0  0  0  0  0  0  0  0  0  0  0
   -2.9106    1.1497   -1.1471 C   0  0  0  0  0  0  0  0  0  0  0  0
   -2.2903    0.9187   -2.0247 H   0  0  0  0  0  0  0  0  0  0  0  0
   -2.5854    0.5591    0.0937 C   0  0  0  0  0  0  0  0  0  0  0  0
  2 11  1  0  0  0  0
  3  5  1  0  0  0  0
  3  2  1  0  0  0  0
  4  3  1  0  0  0  0
  5  7  2  0  0  0  0
  6  5  1  0  0  0  0
  7  8  1  0  0  0  0
  7  9  1  0  0  0  0
  9 10  1  0  0  0  0
 11  1  1  0  0  0  0
 11  9  2  0  0  0  0
 13 12  1  0  0  0  0
 13 14  1  0  0  0  0
 15 16  1  0  0  0  0
 15 13  2  0  0  0  0
 17 19  2  0  0  0  0
 17 15  1  0  0  0  0
 18 17  1  0  0  0  0
 19 21  1  0  0  0  0
 20 19  1  0  0  0  0
 21  1  1  0  0  0  0
 21 12  2  0  0  0  0
M  END
