1,8
q = 0.0, confidence = 0.978

 22 22  0  0  1  0  0  0  0  0999 V2000
   -0.7927   -0.2598    1.5867 N   0  0  0  0  0  0  0  0  0  0  0  0
   -2.2720   -0.0976    1.4472 C   0  0  2  0  0  0  0  0  0  0  0  0
   -2.9077   -1.2557    0.6693 C   0  0  0  0  0  0  0  0  0  0  0  0
   -2.6308   -1.2749   -0.8499 C   0  0  0  0  0  0  0  0  0  0  0  0
   -2.2713    0.0980   -1.4474 C   0  0  1  0  0  0  0  0  0  0  0  0
   -2.9054    1.2572   -0.6697 C   0  0  0  0  0  0  0  0  0  0  0  0
   -2.6301    1.2756    0.8498 C   0  0  0  0  0  0  0  0  0  0  0  0
   -0.7918    0.2581   -1.5874 N   0  0  0  0  0  0  0  0  0  0  0  0
   -0.4140    0.3750    2.3092 H   0  0  0  0  0  0  0  0  0  0  0  0
   -0.5619   -1.2223    1.8921 H   0  0  0  0  0  0  0  0  0  0  0  0
   -2.6633   -0.1424    2.4867 H   0  0  0  0  0  0  0  0  0  0  0  0
   -2.6025   -2.2243    1.1163 H   0  0  0  0  0  0  0  0  0  0  0  0
   -3.9995   -1.1677    0.8481 H   0  0  0  0  0  0  0  0  0  0  0  0
   -3.5304   -1.6571   -1.3710 H   0  0  0  0  0  0  0  0  0  0  0  0
   -1.8076   -1.9833   -1.0689 H   0  0  0  0  0  0  0  0  0  0  0  0
   -2.6628    0.1432   -2.4869 H   0  0  0  0  0  0  0  0  0  0  0  0
   -2.5976    2.2252   -1.1163 H   0  0  0  0  0  0  0  0  0  0  0  0
   -3.9972    1.1715   -0.8497 H   0  0  0  0  0  0  0  0  0  0  0  0
   -1.8069    1.9836    1.0701 H   0  0  0  0  0  0  0  0  0  0  0  0
   -3.5302    1.6578    1.3701 H   0  0  0  0  0  0  0  0  0  0  0  0
   -0.4141   -0.3788   -2.3086 H   0  0  0  0  0  0  0  0  0  0  0  0
   -0.5599    1.2196   -1.8951 H   0  0  0  0  0  0  0  0  0  0  0  0
  1 10  1  0  0  0  0
  1  9  1  0  0  0  0
  2  1  1  0  0  0  0
  2 11  1  1  0  0  0
  3 13  1  0  0  0  0
  3 12  1  0  0  0  0
  3  2  1  0  0  0  0
  4  3  1  0  0  0  0
  5 16  1  6  0  0  0
  5  4  1  0  0  0  0
  5  6  1  0  0  0  0
  6  7  1  0  0  0  0
  7 19  1  0  0  0  0
  7 20  1  0  0  0  0
  7  2  1  0  0  0  0
  8  5  1  0  0  0  0
 14  4  1  0  0  0  0
 15  4  1  0  0  0  0
 17  6  1  0  0  0  0
 18  6  1  0  0  0  0
 21  8  1  0  0  0  0
 22  8  1  0  0  0  0
M  END
