1,2
q = -1.0

 26 26  0  0  0  0  0  0  0  0999 V2000
    1.9605    1.4913    0.0721 N   0  0  0  0  0  0  0  0  0  0  0  0
    1.0670   -0.2418   -1.9291 N   0  0  0  0  0  2  0  0  0  0  0  0
   -1.5688   -1.3624   -1.5945 N   0  0  0  0  0  0  0  0  0  0  0  0
    2.6927    2.2994    0.8689 C   0  0  0  0  0  3  0  0  0  0  0  0
    4.0141    2.4481    0.3684 C   0  0  0  0  0  0  0  0  0  0  0  0
    4.0763    1.6815   -0.8085 C   0  0  0  0  0  0  0  0  0  0  0  0
    2.7887    1.0978   -0.9681 C   0  0  0  0  0  0  0  0  0  0  0  0
    2.2848    0.2323   -1.9851 C   0  0  0  0  0  3  0  0  0  0  0  0
    0.5099   -1.0776   -2.9612 C   0  0  0  0  0  0  0  0  0  0  0  0
   -0.5388   -2.0367   -2.3828 C   0  0  0  0  0  0  0  0  0  0  0  0
   -2.4110   -0.4785   -2.3946 C   0  0  0  0  0  0  0  0  0  0  0  0
   -2.3800   -2.3098   -0.8440 C   0  0  0  0  0  0  0  0  0  0  0  0
    2.2554    2.7507    1.7708 H   0  0  0  0  0  0  0  0  0  0  0  0
    4.8142    3.0539    0.8113 H   0  0  0  0  0  0  0  0  0  0  0  0
    4.9328    1.5570   -1.4833 H   0  0  0  0  0  0  0  0  0  0  0  0
    2.9590   -0.0309   -2.8301 H   0  0  0  0  0  0  0  0  0  0  0  0
    1.2896   -1.6784   -3.4869 H   0  0  0  0  0  0  0  0  0  0  0  0
    0.0317   -0.4445   -3.7455 H   0  0  0  0  0  0  0  0  0  0  0  0
   -0.0276   -2.7598   -1.7121 H   0  0  0  0  0  0  0  0  0  0  0  0
   -0.9849   -2.6339   -3.2219 H   0  0  0  0  0  0  0  0  0  0  0  0
   -2.9478   -1.0307   -3.2088 H   0  0  0  0  0  0  0  0  0  0  0  0
   -3.1590    0.0121   -1.7436 H   0  0  0  0  0  0  0  0  0  0  0  0
   -1.8078    0.3262   -2.8567 H   0  0  0  0  0  0  0  0  0  0  0  0
   -1.7352   -2.9306   -0.1909 H   0  0  0  0  0  0  0  0  0  0  0  0
   -2.9653   -2.9975   -1.5081 H   0  0  0  0  0  0  0  0  0  0  0  0
   -3.0928   -1.7577   -0.2006 H   0  0  0  0  0  0  0  0  0  0  0  0
  1  4  1  0  0  0  0
  3 12  1  0  0  0  0
  4 13  1  0  0  0  0
  5 14  1  0  0  0  0
  5  4  1  0  0  0  0
  6  5  2  0  0  0  0
  7  6  1  0  0  0  0
  7  1  2  0  0  0  0
  8  2  1  0  0  0  0
  8  7  1  0  0  0  0
  9 10  1  0  0  0  0
  9  2  1  0  0  0  0
 10 19  1  0  0  0  0
 10  3  1  0  0  0  0
 11 22  1  0  0  0  0
 11  3  1  0  0  0  0
 12 26  1  0  0  0  0
 12 24  1  0  0  0  0
 15  6  1  0  0  0  0
 16  8  1  0  0  0  0
 17  9  1  0  0  0  0
 18  9  1  0  0  0  0
 20 10  1  0  0  0  0
 21 11  1  0  0  0  0
 23 11  1  0  0  0  0
 25 12  1  0  0  0  0
M  END
