1,3
q = -1.0, confidence = 0.01

 26 25  0  0  0  0  0  0  0  0999 V2000
   -1.9558   -0.0174    0.0257 N   0  0  0  0  0  2  0  0  0  0  0  0
   -1.8684   -0.9207   -0.9289 N   0  0  0  0  0  2  0  0  0  0  0  0
   -0.6177   -0.8814   -1.3109 N   0  0  0  0  0  2  0  0  0  0  0  0
   -0.2031   -1.8632   -2.3352 C   0  0  0  0  0  0  0  0  0  0  0  0
   -1.3990   -2.2863   -3.2067 C   0  0  0  0  0  0  0  0  0  0  0  0
   -1.0580   -2.9887   -3.9943 H   0  0  0  0  0  0  0  0  0  0  0  0
   -1.8645   -1.4076   -3.6975 H   0  0  0  0  0  0  0  0  0  0  0  0
   -2.1800   -2.7798   -2.5998 H   0  0  0  0  0  0  0  0  0  0  0  0
    0.4073   -3.1083   -1.6614 C   0  0  0  0  0  0  0  0  0  0  0  0
    0.8283   -3.7992   -2.4211 H   0  0  0  0  0  0  0  0  0  0  0  0
    1.2127   -2.8114   -0.9623 H   0  0  0  0  0  0  0  0  0  0  0  0
   -0.3656   -3.6533   -1.0886 H   0  0  0  0  0  0  0  0  0  0  0  0
    0.8715   -1.2168   -3.2238 C   0  0  0  0  0  0  0  0  0  0  0  0
    1.2824   -1.9595   -3.9362 H   0  0  0  0  0  0  0  0  0  0  0  0
    0.4556   -0.3790   -3.8191 H   0  0  0  0  0  0  0  0  0  0  0  0
    1.7015   -0.8356   -2.6007 H   0  0  0  0  0  0  0  0  0  0  0  0
   -3.2834    0.1158    0.6318 C   0  0  0  0  0  0  0  0  0  0  0  0
   -4.0554   -1.2087    0.6955 C   0  0  0  0  0  0  0  0  0  0  0  0
   -5.0152   -1.0704    1.2338 H   0  0  0  0  0  0  0  0  0  0  0  0
   -4.2689   -1.5886   -0.3216 H   0  0  0  0  0  0  0  0  0  0  0  0
   -3.4655   -1.9839    1.2231 H   0  0  0  0  0  0  0  0  0  0  0  0
   -4.1254    1.2051   -0.0569 C   0  0  0  0  0  0  0  0  0  0  0  0
   -5.0923    1.3597    0.4654 H   0  0  0  0  0  0  0  0  0  0  0  0
   -3.5944    2.1792   -0.0763 H   0  0  0  0  0  0  0  0  0  0  0  0
   -4.3428    0.9152   -1.1057 H   0  0  0  0  0  0  0  0  0  0  0  0
   -3.1096    0.4495    1.6782 H   0  0  0  0  0  0  0  0  0  0  0  0
  1 17  1  0  0  0  0
  2  1  1  0  0  0  0
  3  2  1  0  0  0  0
  4  9  1  0  0  0  0
  4  3  1  0  0  0  0
  5  8  1  0  0  0  0
  5  4  1  0  0  0  0
  6  5  1  0  0  0  0
  7  5  1  0  0  0  0
  9 12  1  0  0  0  0
  9 11  1  0  0  0  0
 10  9  1  0  0  0  0
 13 16  1  0  0  0  0
 13  4  1  0  0  0  0
 14 13  1  0  0  0  0
 15 13  1  0  0  0  0
 17 18  1  0  0  0  0
 17 26  1  0  0  0  0
 18 21  1  0  0  0  0
 18 19  1  0  0  0  0
 20 18  1  0  0  0  0
 22 23  1  0  0  0  0
 22 17  1  0  0  0  0
 24 22  1  0  0  0  0
 25 22  1  0  0  0  0
M  END
