1,3
q = -1.0, confidence = 0.014

 29 28  0  0  0  0  0  0  0  0999 V2000
   -0.6040    1.1142   -1.3531 N   0  0  0  0  0  2  0  0  0  0  0  0
   -1.8827    0.9177   -1.1563 N   0  0  0  0  0  2  0  0  0  0  0  0
   -1.9518   -0.0539   -0.2698 N   0  0  0  0  0  2  0  0  0  0  0  0
   -3.3045   -0.3296    0.1713 C   0  0  0  0  0  0  0  0  0  0  0  0
   -3.8584   -1.7078   -0.2225 C   0  0  0  0  0  0  0  0  0  0  0  0
   -5.2444   -2.0086    0.3647 C   0  0  0  0  0  0  0  0  0  0  0  0
   -6.3598   -1.0895   -0.1406 C   0  0  0  0  0  0  0  0  0  0  0  0
   -7.3459   -1.3875    0.2694 H   0  0  0  0  0  0  0  0  0  0  0  0
   -6.4337   -1.1219   -1.2480 H   0  0  0  0  0  0  0  0  0  0  0  0
   -6.1895   -0.0323    0.1465 H   0  0  0  0  0  0  0  0  0  0  0  0
   -5.5086   -3.0638    0.1367 H   0  0  0  0  0  0  0  0  0  0  0  0
   -5.1873   -1.9472    1.4752 H   0  0  0  0  0  0  0  0  0  0  0  0
   -3.8947   -1.7773   -1.3318 H   0  0  0  0  0  0  0  0  0  0  0  0
   -3.1495   -2.4974    0.1133 H   0  0  0  0  0  0  0  0  0  0  0  0
   -3.9551    0.4676   -0.2497 H   0  0  0  0  0  0  0  0  0  0  0  0
   -3.3714   -0.2280    1.2813 H   0  0  0  0  0  0  0  0  0  0  0  0
   -0.2871    2.2339   -2.2690 C   0  0  0  0  0  0  0  0  0  0  0  0
   -1.0931    3.4914   -1.8850 C   0  0  0  0  0  0  0  0  0  0  0  0
   -0.8556    3.7980   -0.8478 H   0  0  0  0  0  0  0  0  0  0  0  0
   -0.8483    4.3349   -2.5625 H   0  0  0  0  0  0  0  0  0  0  0  0
   -2.1789    3.2878   -1.9404 H   0  0  0  0  0  0  0  0  0  0  0  0
    1.2110    2.5354   -2.1604 C   0  0  0  0  0  0  0  0  0  0  0  0
    1.4785    3.3805   -2.8257 H   0  0  0  0  0  0  0  0  0  0  0  0
    1.8196    1.6599   -2.4575 H   0  0  0  0  0  0  0  0  0  0  0  0
    1.4834    2.7975   -1.1203 H   0  0  0  0  0  0  0  0  0  0  0  0
   -0.6508    1.8321   -3.7152 C   0  0  0  0  0  0  0  0  0  0  0  0
   -0.4514    2.6626   -4.4235 H   0  0  0  0  0  0  0  0  0  0  0  0
   -0.0611    0.9540   -4.0496 H   0  0  0  0  0  0  0  0  0  0  0  0
   -1.7254    1.5688   -3.7746 H   0  0  0  0  0  0  0  0  0  0  0  0
  1  2  1  0  0  0  0
  2  3  1  0  0  0  0
  3  4  1  0  0  0  0
  4 16  1  0  0  0  0
  5 14  1  0  0  0  0
  5  4  1  0  0  0  0
  5  6  1  0  0  0  0
  6 12  1  0  0  0  0
  7 10  1  0  0  0  0
  7  8  1  0  0  0  0
  7  6  1  0  0  0  0
  9  7  1  0  0  0  0
 11  6  1  0  0  0  0
 13  5  1  0  0  0  0
 15  4  1  0  0  0  0
 17 22  1  0  0  0  0
 17 18  1  0  0  0  0
 17  1  1  0  0  0  0
 18 19  1  0  0  0  0
 20 18  1  0  0  0  0
 21 18  1  0  0  0  0
 22 25  1  0  0  0  0
 23 22  1  0  0  0  0
 24 22  1  0  0  0  0
 26 17  1  0  0  0  0
 27 26  1  0  0  0  0
 28 26  1  0  0  0  0
 29 26  1  0  0  0  0
M  END
