2,4
q = -1.0

 43 44  0  0  1  0  0  0  0  0999 V2000
    1.8530   -1.4307    2.2231 N   0  0  0  0  0  0  0  0  0  0  0  0
    0.6837   -1.9283    1.7566 N   0  0  0  0  0  2  0  0  0  0  0  0
    2.5424    0.1798    0.3626 N   0  0  0  0  0  0  0  0  0  0  0  0
    1.5645   -0.1919   -0.5250 N   0  0  0  0  0  2  0  0  0  0  0  0
    2.4859   -2.3759    2.9566 C   0  0  0  0  0  3  0  0  0  0  0  0
    1.6966   -3.5341    2.9635 C   0  0  0  0  0  0  0  0  0  0  0  0
    0.5724   -3.2016    2.1842 C   0  0  0  0  0  0  0  0  0  0  0  0
    3.6045    0.6974   -0.3225 C   0  0  1  0  0  3  0  0  0  0  0  0
    3.2868    0.6357   -1.6906 C   0  0  0  0  0  0  0  0  0  0  0  0
    2.0019    0.0685   -1.7790 C   0  0  0  0  0  0  0  0  0  0  0  0
    4.8734    1.2606    0.3053 C   0  0  0  0  0  0  0  0  0  0  0  0
    4.5301    2.4762    1.1984 C   0  0  0  0  0  0  0  0  0  0  0  0
    5.8152    1.7440   -0.8162 C   0  0  0  0  0  0  0  0  0  0  0  0
    5.6146    0.1718    1.1142 C   0  0  0  0  0  0  0  0  0  0  0  0
    1.2001   -0.2772   -3.0245 C   0  0  0  0  0  0  0  0  0  0  0  0
   -0.2072    0.3520   -2.9591 C   0  0  0  0  0  0  0  0  0  0  0  0
    1.0894   -1.8150   -3.1360 C   0  0  0  0  0  0  0  0  0  0  0  0
    1.9261    0.2656   -4.2690 C   0  0  0  0  0  0  0  0  0  0  0  0
    2.2237    0.0407    1.8979 B   0  0  0  0  0  0  0  0  0  0  0  0
    3.4493   -2.1561    3.4294 H   0  0  0  0  0  0  0  0  0  0  0  0
    1.9071   -4.4827    3.4670 H   0  0  0  0  0  0  0  0  0  0  0  0
   -0.3032   -3.7970    1.8983 H   0  0  0  0  0  0  0  0  0  0  0  0
    3.9164    0.9608   -2.5205 H   0  0  0  0  0  0  0  0  0  0  0  0
    5.4589    2.9136    1.6191 H   0  0  0  0  0  0  0  0  0  0  0  0
    3.8680    2.1940    2.0373 H   0  0  0  0  0  0  0  0  0  0  0  0
    4.0194    3.2616    0.6041 H   0  0  0  0  0  0  0  0  0  0  0  0
    6.7423    2.1564   -0.3704 H   0  0  0  0  0  0  0  0  0  0  0  0
    5.3491    2.5439   -1.4256 H   0  0  0  0  0  0  0  0  0  0  0  0
    6.1051    0.9153   -1.4927 H   0  0  0  0  0  0  0  0  0  0  0  0
    6.5531    0.5862    1.5365 H   0  0  0  0  0  0  0  0  0  0  0  0
    5.8786   -0.6857    0.4629 H   0  0  0  0  0  0  0  0  0  0  0  0
    4.9971   -0.2057    1.9492 H   0  0  0  0  0  0  0  0  0  0  0  0
   -0.7822    0.0965   -3.8722 H   0  0  0  0  0  0  0  0  0  0  0  0
   -0.1471    1.4563   -2.8829 H   0  0  0  0  0  0  0  0  0  0  0  0
   -0.7924   -0.0217   -2.0964 H   0  0  0  0  0  0  0  0  0  0  0  0
    0.5194   -2.0959   -4.0453 H   0  0  0  0  0  0  0  0  0  0  0  0
    0.5605   -2.2474   -2.2643 H   0  0  0  0  0  0  0  0  0  0  0  0
    2.0952   -2.2770   -3.1968 H   0  0  0  0  0  0  0  0  0  0  0  0
    1.3422    0.0256   -5.1800 H   0  0  0  0  0  0  0  0  0  0  0  0
    2.9307   -0.1880   -4.3850 H   0  0  0  0  0  0  0  0  0  0  0  0
    2.0467    1.3669   -4.2213 H   0  0  0  0  0  0  0  0  0  0  0  0
    1.2251    0.7174    2.1431 H   0  0  0  0  0  0  0  0  0  0  0  0
    3.1733    0.3617    2.5853 H   0  0  0  0  0  0  0  0  0  0  0  0
  1  5  1  0  0  0  0
  2  7  1  0  0  0  0
  2  1  1  0  0  0  0
  3 19  1  0  0  0  0
  4  3  1  0  0  0  0
  5  6  1  0  0  0  0
  5 20  1  0  0  0  0
  6 21  1  0  0  0  0
  7  6  2  0  0  0  0
  8 11  1  1  0  0  0
  8  3  1  0  0  0  0
  9  8  1  0  0  0  0
 10  9  2  0  0  0  0
 10  4  1  0  0  0  0
 11 14  1  0  0  0  0
 11 12  1  0  0  0  0
 12 24  1  0  0  0  0
 12 25  1  0  0  0  0
 13 27  1  0  0  0  0
 13 11  1  0  0  0  0
 14 30  1  0  0  0  0
 14 32  1  0  0  0  0
 15 16  1  0  0  0  0
 15 10  1  0  0  0  0
 16 34  1  0  0  0  0
 16 35  1  0  0  0  0
 17 15  1  0  0  0  0
 17 37  1  0  0  0  0
 18 41  1  0  0  0  0
 18 15  1  0  0  0  0
 19 42  1  0  0  0  0
 19  1  1  0  0  0  0
 19 43  1  0  0  0  0
 22  7  1  0  0  0  0
 23  9  1  0  0  0  0
 26 12  1  0  0  0  0
 28 13  1  0  0  0  0
 29 13  1  0  0  0  0
 31 14  1  0  0  0  0
 33 16  1  0  0  0  0
 36 17  1  0  0  0  0
 38 17  1  0  0  0  0
 39 18  1  0  0  0  0
 40 18  1  0  0  0  0
M  END
