1,2
q = 0.0, confidence = 1.0

 30 31  0  0  1  0  0  0  0  0999 V2000
    0.0730    1.8286    0.7605 N   0  0  0  0  0  0  0  0  0  0  0  0
    0.8935   -0.6911    0.0239 N   0  0  0  0  0  2  0  0  0  0  0  0
    0.8819   -1.7149    0.1517 H   0  0  0  0  0  0  0  0  0  0  0  0
    2.1005   -0.1844   -0.0383 C   0  0  1  0  0  3  0  0  0  0  0  0
    3.2874   -1.0671    0.0870 C   0  0  0  0  0  0  0  0  0  0  0  0
    3.2644   -2.3641   -0.4767 C   0  0  0  0  0  0  0  0  0  0  0  0
    2.3937   -2.6832   -1.0710 H   0  0  0  0  0  0  0  0  0  0  0  0
    4.3522   -3.2302   -0.3130 C   0  0  0  0  0  0  0  0  0  0  0  0
    4.3248   -4.2313   -0.7688 H   0  0  0  0  0  0  0  0  0  0  0  0
    5.4775   -2.8195    0.4207 C   0  0  0  0  0  0  0  0  0  0  0  0
    6.3314   -3.5014    0.5493 H   0  0  0  0  0  0  0  0  0  0  0  0
    5.5106   -1.5346    0.9865 C   0  0  0  0  0  0  0  0  0  0  0  0
    6.3859   -1.2108    1.5695 H   0  0  0  0  0  0  0  0  0  0  0  0
    4.4283   -0.6611    0.8172 C   0  0  0  0  0  0  0  0  0  0  0  0
    4.4528    0.3403    1.2722 H   0  0  0  0  0  0  0  0  0  0  0  0
    2.2646    1.2659   -0.2946 C   0  0  0  0  0  0  0  0  0  0  0  0
    3.4065    1.7276   -0.9894 C   0  0  0  0  0  0  0  0  0  0  0  0
    4.1879    1.0033   -1.2591 H   0  0  0  0  0  0  0  0  0  0  0  0
    3.5383    3.0651   -1.3827 C   0  0  0  0  0  0  0  0  0  0  0  0
    4.4320    3.3867   -1.9371 H   0  0  0  0  0  0  0  0  0  0  0  0
    2.5198    3.9806   -1.0842 C   0  0  0  0  0  0  0  0  0  0  0  0
    2.6039    5.0325   -1.3949 H   0  0  0  0  0  0  0  0  0  0  0  0
    1.3867    3.5502   -0.3784 C   0  0  0  0  0  0  0  0  0  0  0  0
    0.5886    4.2654   -0.1241 H   0  0  0  0  0  0  0  0  0  0  0  0
    1.2457    2.2109    0.0153 C   0  0  0  0  0  0  0  0  0  0  0  0
    0.3030    1.6914    2.2216 C   0  0  0  0  0  0  0  0  0  0  0  0
    0.7236    2.6254    2.6526 H   0  0  0  0  0  0  0  0  0  0  0  0
    1.0091    0.8608    2.4072 H   0  0  0  0  0  0  0  0  0  0  0  0
   -0.6634    1.4530    2.7022 H   0  0  0  0  0  0  0  0  0  0  0  0
   -0.6586    2.5402    0.6087 H   0  0  0  0  0  0  0  0  0  0  0  0
  1 26  1  0  0  0  0
  2  3  1  0  0  0  0
  4  2  1  6  0  0  0
  4  5  1  0  0  0  0
  5 14  1  0  0  0  0
  6  8  1  0  0  0  0
  6  5  2  0  0  0  0
  7  6  1  0  0  0  0
  8 10  2  0  0  0  0
  9  8  1  0  0  0  0
 10 11  1  0  0  0  0
 10 12  1  0  0  0  0
 12 13  1  0  0  0  0
 14 12  2  0  0  0  0
 14 15  1  0  0  0  0
 16  4  1  0  0  0  0
 16 25  1  0  0  0  0
 17 16  2  0  0  0  0
 18 17  1  0  0  0  0
 19 21  2  0  0  0  0
 19 17  1  0  0  0  0
 20 19  1  0  0  0  0
 21 23  1  0  0  0  0
 22 21  1  0  0  0  0
 23 24  1  0  0  0  0
 23 25  2  0  0  0  0
 25  1  1  0  0  0  0
 26 28  1  0  0  0  0
 26 27  1  0  0  0  0
 26 29  1  0  0  0  0
 30  1  1  0  0  0  0
M  END
