8,11
q = 0.0, confidence = 0.998

 52 56  0  0  1  0  0  0  0  0999 V2000
    1.2630    1.7943   -0.9283 S   0  0  0  0  0  0  0  0  0  0  0  0
    0.6427   -2.1124   -0.7642 S   0  0  0  0  0  0  0  0  0  0  0  0
    4.0490   -4.9059   -0.5733 S   0  0  0  0  0  0  0  0  0  0  0  0
    4.0590    1.3578    0.6928 S   0  0  0  0  0  0  0  0  0  0  0  0
    6.1356    2.7368    0.0093 C   0  0  0  0  0  0  0  0  0  0  0  0
    7.1730    3.0894   -0.0669 H   0  0  0  0  0  0  0  0  0  0  0  0
    2.5048    3.0212   -0.9065 C   0  0  0  0  0  0  0  0  0  0  0  0
   -1.8128    1.4365   -1.2981 N   0  0  0  0  0  2  0  0  0  0  0  0
    1.6267   -3.5595   -0.8552 C   0  0  0  0  0  0  0  0  0  0  0  0
    3.0527   -3.4661   -0.6633 C   0  0  0  0  0  0  0  0  0  0  0  0
   -2.2820   -1.1308   -0.8652 N   0  0  0  0  0  2  0  0  0  0  0  0
    5.7622    1.6495    0.7799 C   0  0  0  0  0  0  0  0  0  0  0  0
    6.3923    1.0109    1.4112 H   0  0  0  0  0  0  0  0  0  0  0  0
   -0.8192   -3.0204   -1.1095 C   0  0  0  0  0  0  0  0  0  0  0  0
    3.8246    2.7008   -0.4147 C   0  0  0  0  0  0  0  0  0  0  0  0
    5.0381    3.3382   -0.6679 C   0  0  0  0  0  0  0  0  0  0  0  0
    5.1275    4.1980   -1.3453 H   0  0  0  0  0  0  0  0  0  0  0  0
    0.6535    4.1883   -1.7471 C   0  0  0  0  0  0  0  0  0  0  0  0
    0.0807    5.0445   -2.1293 H   0  0  0  0  0  0  0  0  0  0  0  0
    3.8406   -2.3192   -0.5320 C   0  0  0  0  0  0  0  0  0  0  0  0
    3.4289   -1.3005   -0.5681 H   0  0  0  0  0  0  0  0  0  0  0  0
    5.4831   -3.9681   -0.3686 C   0  0  0  0  0  0  0  0  0  0  0  0
    6.4501   -4.4754   -0.2622 H   0  0  0  0  0  0  0  0  0  0  0  0
    0.0698    2.9364   -1.5162 C   0  0  0  0  0  0  0  0  0  0  0  0
    2.0157    4.2438   -1.3879 C   0  0  0  0  0  0  0  0  0  0  0  0
    2.6332    5.1500   -1.4406 H   0  0  0  0  0  0  0  0  0  0  0  0
   -1.2752    2.5240   -1.7776 C   0  0  0  0  0  3  0  0  0  0  0  0
   -1.8520    3.1689   -2.4725 H   0  0  0  0  0  0  0  0  0  0  0  0
   -0.5313   -4.3777   -1.2891 C   0  0  0  0  0  0  0  0  0  0  0  0
   -1.3080   -5.1197   -1.5206 H   0  0  0  0  0  0  0  0  0  0  0  0
    0.8358   -4.6848   -1.1318 C   0  0  0  0  0  0  0  0  0  0  0  0
    1.2576   -5.6938   -1.2376 H   0  0  0  0  0  0  0  0  0  0  0  0
   -4.2452    1.9050   -1.9234 C   0  0  0  0  0  0  0  0  0  0  0  0
   -3.9635    2.8240   -2.4768 H   0  0  0  0  0  0  0  0  0  0  0  0
   -4.4893    2.2189   -0.8846 H   0  0  0  0  0  0  0  0  0  0  0  0
   -3.4968   -0.3638   -1.1138 C   0  0  1  0  0  0  0  0  0  0  0  0
   -3.8612   -0.0360   -0.1114 H   0  0  0  0  0  0  0  0  0  0  0  0
   -3.0700    0.9198   -1.8745 C   0  0  2  0  0  0  0  0  0  0  0  0
   -2.8340    0.6000   -2.9168 H   0  0  0  0  0  0  0  0  0  0  0  0
    5.2202   -2.6070   -0.3656 C   0  0  0  0  0  0  0  0  0  0  0  0
    5.9992   -1.8408   -0.2548 H   0  0  0  0  0  0  0  0  0  0  0  0
   -2.0884   -2.3672   -1.2197 C   0  0  0  0  0  3  0  0  0  0  0  0
   -2.9176   -2.9679   -1.6436 H   0  0  0  0  0  0  0  0  0  0  0  0
   -5.4597    1.2439   -2.5933 C   0  0  0  0  0  0  0  0  0  0  0  0
   -6.3194    1.9439   -2.5860 H   0  0  0  0  0  0  0  0  0  0  0  0
   -5.2214    1.0566   -3.6635 H   0  0  0  0  0  0  0  0  0  0  0  0
   -4.6607   -1.0518   -1.8276 C   0  0  0  0  0  0  0  0  0  0  0  0
   -4.9569   -1.9667   -1.2736 H   0  0  0  0  0  0  0  0  0  0  0  0
   -4.3441   -1.3713   -2.8452 H   0  0  0  0  0  0  0  0  0  0  0  0
   -5.8484   -0.0802   -1.9220 C   0  0  0  0  0  0  0  0  0  0  0  0
   -6.6839   -0.5580   -2.4717 H   0  0  0  0  0  0  0  0  0  0  0  0
   -6.2281    0.1238   -0.8967 H   0  0  0  0  0  0  0  0  0  0  0  0
  1  7  1  0  0  0  0
  3 22  1  0  0  0  0
  4 12  1  0  0  0  0
  5 12  2  0  0  0  0
  6  5  1  0  0  0  0
  7 15  1  0  0  0  0
  9  2  1  0  0  0  0
  9 10  1  0  0  0  0
 10  3  1  0  0  0  0
 10 20  2  0  0  0  0
 12 13  1  0  0  0  0
 14  2  1  0  0  0  0
 15  4  1  0  0  0  0
 16 15  2  0  0  0  0
 16  5  1  0  0  0  0
 17 16  1  0  0  0  0
 18 24  2  0  0  0  0
 18 25  1  0  0  0  0
 19 18  1  0  0  0  0
 20 40  1  0  0  0  0
 21 20  1  0  0  0  0
 22 40  2  0  0  0  0
 22 23  1  0  0  0  0
 24  1  1  0  0  0  0
 25  7  2  0  0  0  0
 26 25  1  0  0  0  0
 27 24  1  0  0  0  0
 27  8  1  0  0  0  0
 28 27  1  0  0  0  0
 29 31  1  0  0  0  0
 29 14  2  0  0  0  0
 30 29  1  0  0  0  0
 31  9  2  0  0  0  0
 32 31  1  0  0  0  0
 33 38  1  0  0  0  0
 33 35  1  0  0  0  0
 34 33  1  0  0  0  0
 36 11  1  0  0  0  0
 36 37  1  1  0  0  0
 38 39  1  6  0  0  0
 38  8  1  0  0  0  0
 38 36  1  0  0  0  0
 40 41  1  0  0  0  0
 42 14  1  0  0  0  0
 42 11  1  0  0  0  0
 43 42  1  0  0  0  0
 44 45  1  0  0  0  0
 44 33  1  0  0  0  0
 44 50  1  0  0  0  0
 46 44  1  0  0  0  0
 47 48  1  0  0  0  0
 47 36  1  0  0  0  0
 49 47  1  0  0  0  0
 50 47  1  0  0  0  0
 50 52  1  0  0  0  0
 51 50  1  0  0  0  0
M  END
