1,2
q = 0.0, confidence = 1.0

 31 32  0  0  0  0  0  0  0  0999 V2000
    0.2855   -0.5236    0.2097 N   0  0  0  0  0  2  0  0  0  0  0  0
   -1.9509    1.0826   -0.6257 N   0  0  0  0  0  2  0  0  0  0  0  0
   -0.2592    1.6891    1.0066 C   0  0  0  0  0  0  0  0  0  0  0  0
   -0.9107    1.2458    1.8002 H   0  0  0  0  0  0  0  0  0  0  0  0
    0.1894    2.6275    1.3709 H   0  0  0  0  0  0  0  0  0  0  0  0
    1.0981   -1.5094   -0.1952 C   0  0  0  0  0  3  0  0  0  0  0  0
    0.5895   -2.4295   -0.5349 H   0  0  0  0  0  0  0  0  0  0  0  0
   -2.5342    1.6192   -1.7078 C   0  0  0  0  0  3  0  0  0  0  0  0
   -3.2447    1.0177   -2.2869 H   0  0  0  0  0  0  0  0  0  0  0  0
    0.7871    0.6587    0.6192 C   0  0  0  0  0  0  0  0  0  0  0  0
   -1.1244    2.0222   -0.1250 N   0  0  0  0  0  0  0  0  0  0  0  0
   -2.0768    2.9414   -1.9054 C   0  0  0  0  0  0  0  0  0  0  0  0
   -2.3719    3.6464   -2.6887 H   0  0  0  0  0  0  0  0  0  0  0  0
    3.3786   -2.5302   -0.6146 C   0  0  0  0  0  0  0  0  0  0  0  0
    2.8616   -3.4976   -0.4694 H   0  0  0  0  0  0  0  0  0  0  0  0
    4.3178   -2.5319   -0.0280 H   0  0  0  0  0  0  0  0  0  0  0  0
    3.6567   -2.4689   -1.6884 H   0  0  0  0  0  0  0  0  0  0  0  0
    4.3808    0.0393    0.2929 O   0  0  0  0  0  0  0  0  0  0  0  0
   -1.1641    3.1606   -0.8722 C   0  0  0  0  0  0  0  0  0  0  0  0
   -0.5551    4.0323   -0.6091 H   0  0  0  0  0  0  0  0  0  0  0  0
    2.4952   -1.3859   -0.2026 C   0  0  0  0  0  0  0  0  0  0  0  0
    2.1746    0.9058    0.6568 C   0  0  0  0  0  0  0  0  0  0  0  0
    2.7521    2.2168    1.1235 C   0  0  0  0  0  0  0  0  0  0  0  0
    2.4630    3.0533    0.4535 H   0  0  0  0  0  0  0  0  0  0  0  0
    3.8547    2.1603    1.1505 H   0  0  0  0  0  0  0  0  0  0  0  0
    2.4032    2.4753    2.1437 H   0  0  0  0  0  0  0  0  0  0  0  0
    3.0250   -0.1463    0.2300 C   0  0  0  0  0  0  0  0  0  0  0  0
    5.0343    0.3080   -0.9470 C   0  0  0  0  0  0  0  0  0  0  0  0
    4.8939   -0.5131   -1.6824 H   0  0  0  0  0  0  0  0  0  0  0  0
    6.1125    0.4082   -0.7224 H   0  0  0  0  0  0  0  0  0  0  0  0
    4.6657    1.2560   -1.3979 H   0  0  0  0  0  0  0  0  0  0  0  0
  1 10  1  0  0  0  0
  2 11  1  0  0  0  0
  3  5  1  0  0  0  0
  3  4  1  0  0  0  0
  6  1  1  0  0  0  0
  7  6  1  0  0  0  0
  8  2  1  0  0  0  0
  9  8  1  0  0  0  0
 10 22  2  0  0  0  0
 10  3  1  0  0  0  0
 11  3  1  0  0  0  0
 12  8  1  0  0  0  0
 12 19  2  0  0  0  0
 13 12  1  0  0  0  0
 14 15  1  0  0  0  0
 14 21  1  0  0  0  0
 14 16  1  0  0  0  0
 17 14  1  0  0  0  0
 19 20  1  0  0  0  0
 19 11  1  0  0  0  0
 21  6  1  0  0  0  0
 21 27  2  0  0  0  0
 22 23  1  0  0  0  0
 23 25  1  0  0  0  0
 23 26  1  0  0  0  0
 24 23  1  0  0  0  0
 27 18  1  0  0  0  0
 27 22  1  0  0  0  0
 28 30  1  0  0  0  0
 28 18  1  0  0  0  0
 29 28  1  0  0  0  0
 31 28  1  0  0  0  0
M  END
