1,22
q = 0.0, confidence = 0.998

 30 31  0  0  1  0  0  0  0  0999 V2000
    1.0252    1.6075   -0.0492 N   0  0  0  0  0  2  0  0  0  0  0  0
    1.8079    2.6930   -0.0154 C   0  0  0  0  0  3  0  0  0  0  0  0
    2.8683    2.4872    0.2169 H   0  0  0  0  0  0  0  0  0  0  0  0
    1.3103    3.9753   -0.2944 C   0  0  0  0  0  0  0  0  0  0  0  0
    1.9756    4.8492   -0.2479 H   0  0  0  0  0  0  0  0  0  0  0  0
   -0.0386    4.1010   -0.6537 C   0  0  0  0  0  0  0  0  0  0  0  0
   -0.4600    5.0843   -0.9122 H   0  0  0  0  0  0  0  0  0  0  0  0
   -0.8481    2.9569   -0.7064 C   0  0  0  0  0  0  0  0  0  0  0  0
   -1.8938    3.0284   -1.0363 H   0  0  0  0  0  0  0  0  0  0  0  0
   -0.2826    1.7084   -0.3785 C   0  0  0  0  0  0  0  0  0  0  0  0
   -1.0083    0.4092   -0.4571 C   0  0  2  0  0  3  0  0  0  0  0  0
   -3.0478   -0.8871   -0.5786 N   0  0  0  0  0  0  0  0  0  0  0  0
   -4.3461   -1.0842   -0.3128 C   0  0  0  0  0  0  0  0  0  0  0  0
   -4.7731   -2.0426   -0.6549 H   0  0  0  0  0  0  0  0  0  0  0  0
   -5.1421   -0.1512    0.3668 C   0  0  0  0  0  0  0  0  0  0  0  0
   -6.2055   -0.3576    0.5544 H   0  0  0  0  0  0  0  0  0  0  0  0
   -4.5320    1.0283    0.8192 C   0  0  0  0  0  0  0  0  0  0  0  0
   -5.1055    1.7726    1.3918 H   0  0  0  0  0  0  0  0  0  0  0  0
   -3.1773    1.2441    0.5494 C   0  0  0  0  0  0  0  0  0  0  0  0
   -2.6702    2.1400    0.9299 H   0  0  0  0  0  0  0  0  0  0  0  0
   -2.4539    0.2703   -0.1813 C   0  0  0  0  0  0  0  0  0  0  0  0
   -0.1967   -0.5955   -0.6887 N   0  0  0  0  0  2  0  0  0  0  0  0
   -0.6012   -1.8514   -0.8174 N   0  0  0  0  0  0  0  0  0  0  0  0
   -1.6380   -2.0048   -0.8139 H   0  0  0  0  0  0  0  0  0  0  0  0
    0.3907   -2.8324   -0.7839 C   0  0  0  0  0  0  0  0  0  0  0  0
    1.5769   -2.5291   -0.6824 O   0  0  0  0  0  0  0  0  0  0  0  0
   -0.1150   -4.2476   -0.8199 C   0  0  0  0  0  0  0  0  0  0  0  0
   -1.1060   -4.3398   -1.3041 H   0  0  0  0  0  0  0  0  0  0  0  0
   -0.1969   -4.6031    0.2288 H   0  0  0  0  0  0  0  0  0  0  0  0
    0.6257   -4.8861   -1.3344 H   0  0  0  0  0  0  0  0  0  0  0  0
  1  2  1  0  0  0  0
  2  3  1  0  0  0  0
  4  5  1  0  0  0  0
  4  2  1  0  0  0  0
  6  4  2  0  0  0  0
  7  6  1  0  0  0  0
  8  6  1  0  0  0  0
  8 10  2  0  0  0  0
  9  8  1  0  0  0  0
 10  1  1  0  0  0  0
 11 22  1  1  0  0  0
 11 10  1  0  0  0  0
 11 21  1  0  0  0  0
 12 13  2  0  0  0  0
 12 21  1  0  0  0  0
 13 15  1  0  0  0  0
 14 13  1  0  0  0  0
 15 16  1  0  0  0  0
 15 17  2  0  0  0  0
 17 18  1  0  0  0  0
 19 17  1  0  0  0  0
 19 20  1  0  0  0  0
 21 19  2  0  0  0  0
 23 24  1  0  0  0  0
 23 25  1  0  0  0  0
 23 22  1  0  0  0  0
 25 26  2  0  0  0  0
 27 25  1  0  0  0  0
 27 29  1  0  0  0  0
 28 27  1  0  0  0  0
 30 27  1  0  0  0  0
M  END
