1,3
q = 0.0, confidence = 0.988

 28 29  0  0  1  0  0  0  0  0999 V2000
   -1.2851   -1.3186    0.0908 N   0  0  0  0  0  2  0  0  0  0  0  0
   -3.1949    0.0243    0.1485 N   0  0  0  0  0  0  0  0  0  0  0  0
   -1.2766    1.3244   -0.1342 N   0  0  0  0  0  2  0  0  0  0  0  0
   -5.5952   -3.4344   -0.2627 N   0  0  0  0  0  0  0  0  0  0  0  0
   -5.5729    3.3329   -0.9763 N   0  0  0  0  0  0  0  0  0  0  0  0
   -2.5875   -1.2162    0.1768 C   0  0  1  0  0  3  0  0  0  0  0  0
   -3.4848   -2.3825    0.2985 C   0  0  0  0  0  0  0  0  0  0  0  0
   -4.7508   -2.4042   -0.3371 C   0  0  0  0  0  0  0  0  0  0  0  0
   -5.0763   -1.5550   -0.9678 H   0  0  0  0  0  0  0  0  0  0  0  0
   -5.2200   -4.5103    0.4469 C   0  0  0  0  0  0  0  0  0  0  0  0
   -5.9466   -5.3393    0.5021 H   0  0  0  0  0  0  0  0  0  0  0  0
   -3.9783   -4.6082    1.1034 C   0  0  0  0  0  0  0  0  0  0  0  0
   -3.7205   -5.5103    1.6768 H   0  0  0  0  0  0  0  0  0  0  0  0
   -3.0991   -3.5252    1.0341 C   0  0  0  0  0  0  0  0  0  0  0  0
   -2.1393   -3.5487    1.5744 H   0  0  0  0  0  0  0  0  0  0  0  0
   -2.5811    1.2452   -0.0554 C   0  0  1  0  0  3  0  0  0  0  0  0
   -3.4742    2.4137   -0.1842 C   0  0  0  0  0  0  0  0  0  0  0  0
   -3.0938    3.6817    0.3085 C   0  0  0  0  0  0  0  0  0  0  0  0
   -2.1406    3.8136    0.8447 H   0  0  0  0  0  0  0  0  0  0  0  0
   -3.9688    4.7577    0.1440 C   0  0  0  0  0  0  0  0  0  0  0  0
   -3.7144    5.7574    0.5244 H   0  0  0  0  0  0  0  0  0  0  0  0
   -5.2024    4.5300   -0.4955 C   0  0  0  0  0  0  0  0  0  0  0  0
   -5.9260    5.3541   -0.6200 H   0  0  0  0  0  0  0  0  0  0  0  0
   -4.7318    2.3079   -0.8283 C   0  0  0  0  0  0  0  0  0  0  0  0
   -5.0523    1.3489   -1.2779 H   0  0  0  0  0  0  0  0  0  0  0  0
   -0.9737    2.2779   -0.3729 H   0  0  0  0  0  0  0  0  0  0  0  0
   -4.1943    0.0467    0.3617 H   0  0  0  0  0  0  0  0  0  0  0  0
   -0.9922   -2.3031    0.0416 H   0  0  0  0  0  0  0  0  0  0  0  0
  2  6  1  0  0  0  0
  2 27  1  0  0  0  0
  4 10  1  0  0  0  0
  5 24  2  0  0  0  0
  5 22  1  0  0  0  0
  6  1  1  6  0  0  0
  6  7  1  0  0  0  0
  7 14  2  0  0  0  0
  8  4  2  0  0  0  0
  8  7  1  0  0  0  0
  9  8  1  0  0  0  0
 10 11  1  0  0  0  0
 10 12  2  0  0  0  0
 12 13  1  0  0  0  0
 14 12  1  0  0  0  0
 14 15  1  0  0  0  0
 16  3  1  6  0  0  0
 16  2  1  0  0  0  0
 17 16  1  0  0  0  0
 17 18  2  0  0  0  0
 18 19  1  0  0  0  0
 20 18  1  0  0  0  0
 20 21  1  0  0  0  0
 22 20  2  0  0  0  0
 23 22  1  0  0  0  0
 24 17  1  0  0  0  0
 25 24  1  0  0  0  0
 26  3  1  0  0  0  0
 28  1  1  0  0  0  0
M  END
