1,2
q = -1.0, confidence = 0.0

 23 23  0  0  1  0  0  0  0  0999 V2000
    0.1558   -1.1962   -1.1324 N   0  0  0  0  0  2  0  0  0  0  0  0
    1.7847   -0.2874    0.1070 N   0  0  0  0  0  2  0  0  0  0  0  0
    2.1528   -2.4973   -0.8187 N   0  0  0  0  0  0  0  0  0  0  0  0
    1.4159   -1.3786   -0.6089 C   0  0  2  0  0  3  0  0  0  0  0  0
   -0.4039   -2.1651   -1.8456 C   0  0  0  0  0  0  0  0  0  0  0  0
   -1.4191   -1.9729   -2.2363 H   0  0  0  0  0  0  0  0  0  0  0  0
    0.2778   -3.3723   -2.0837 C   0  0  0  0  0  0  0  0  0  0  0  0
   -0.1686   -4.1867   -2.6686 H   0  0  0  0  0  0  0  0  0  0  0  0
    1.5709   -3.4634   -1.5425 C   0  0  0  0  0  0  0  0  0  0  0  0
    2.1764   -4.3739   -1.7065 H   0  0  0  0  0  0  0  0  0  0  0  0
    3.1353   -0.1468    0.7016 C   0  0  0  0  0  0  0  0  0  0  0  0
    3.1725    1.1816    1.4696 C   0  0  0  0  0  0  0  0  0  0  0  0
    3.0314    2.0372    0.7828 H   0  0  0  0  0  0  0  0  0  0  0  0
    4.1525    1.3006    1.9728 H   0  0  0  0  0  0  0  0  0  0  0  0
    2.3734    1.2218    2.2356 H   0  0  0  0  0  0  0  0  0  0  0  0
    4.1937   -0.1095   -0.4220 C   0  0  0  0  0  0  0  0  0  0  0  0
    4.1772   -1.0493   -1.0065 H   0  0  0  0  0  0  0  0  0  0  0  0
    5.2070    0.0134    0.0112 H   0  0  0  0  0  0  0  0  0  0  0  0
    4.0065    0.7442   -1.1035 H   0  0  0  0  0  0  0  0  0  0  0  0
    3.4527   -1.3030    1.6749 C   0  0  0  0  0  0  0  0  0  0  0  0
    2.7265   -1.3293    2.5104 H   0  0  0  0  0  0  0  0  0  0  0  0
    4.4627   -1.1565    2.1083 H   0  0  0  0  0  0  0  0  0  0  0  0
    3.4277   -2.2757    1.1508 H   0  0  0  0  0  0  0  0  0  0  0  0
  1  4  1  0  0  0  0
  2 11  1  0  0  0  0
  3  4  1  0  0  0  0
  4  2  1  6  0  0  0
  5  1  1  0  0  0  0
  6  5  1  0  0  0  0
  7  5  2  0  0  0  0
  7  9  1  0  0  0  0
  8  7  1  0  0  0  0
  9  3  2  0  0  0  0
 10  9  1  0  0  0  0
 11 12  1  0  0  0  0
 11 20  1  0  0  0  0
 12 14  1  0  0  0  0
 12 15  1  0  0  0  0
 13 12  1  0  0  0  0
 16 18  1  0  0  0  0
 16 11  1  0  0  0  0
 17 16  1  0  0  0  0
 19 16  1  0  0  0  0
 20 22  1  0  0  0  0
 20 21  1  0  0  0  0
 23 20  1  0  0  0  0
M  END
