7,8
q = 0.0, confidence = 0.992

 49 51  0  0  1  0  0  0  0  0999 V2000
    2.3466    1.3637    0.8076 P   0  0  0  0  0  0  0  0  0  0  0  0
    3.0985    0.6683    1.9095 O   0  0  0  0  0  0  0  0  0  0  0  0
    2.7775    0.9868   -0.7128 O   0  0  0  0  0  0  0  0  0  0  0  0
    2.3225    2.9901    0.7502 O   0  0  0  0  0  0  0  0  0  0  0  0
   -4.5781   -0.4811   -0.7533 O   0  0  0  0  0  0  0  0  0  0  0  0
   -5.2989    1.6474   -0.1899 O   0  0  0  0  0  0  0  0  0  0  0  0
   -0.3332    0.1265   -1.0003 N   0  0  0  0  0  2  0  0  0  0  0  0
    0.3439   -0.2556    1.6052 N   0  0  0  0  0  0  0  0  0  0  0  0
    1.2120   -0.4828    2.1314 H   0  0  0  0  0  0  0  0  0  0  0  0
   -0.9434    0.1604   -2.2085 C   0  0  0  0  0  3  0  0  0  0  0  0
   -0.9446   -0.8025   -2.7455 H   0  0  0  0  0  0  0  0  0  0  0  0
   -1.5030    1.3395   -2.7072 C   0  0  0  0  0  0  0  0  0  0  0  0
   -1.9891    1.3269   -3.6931 H   0  0  0  0  0  0  0  0  0  0  0  0
   -1.4363    2.5136   -1.9406 C   0  0  0  0  0  0  0  0  0  0  0  0
   -1.8786    3.4515   -2.3069 H   0  0  0  0  0  0  0  0  0  0  0  0
   -0.7959    2.4722   -0.6937 C   0  0  0  0  0  0  0  0  0  0  0  0
   -0.7133    3.3650   -0.0592 H   0  0  0  0  0  0  0  0  0  0  0  0
   -0.2509    1.2652   -0.2476 C   0  0  0  0  0  0  0  0  0  0  0  0
    0.5104    1.1114    1.0379 C   0  0  2  0  0  0  0  0  0  0  0  0
    0.2136    1.8965    1.7658 H   0  0  0  0  0  0  0  0  0  0  0  0
    3.4552    3.7268    0.2203 C   0  0  0  0  0  0  0  0  0  0  0  0
    4.3655    3.0908    0.2464 H   0  0  0  0  0  0  0  0  0  0  0  0
    3.6175    4.5700    0.9220 H   0  0  0  0  0  0  0  0  0  0  0  0
    3.1602    4.2132   -1.1857 C   0  0  0  0  0  0  0  0  0  0  0  0
    3.0108    3.3530   -1.8663 H   0  0  0  0  0  0  0  0  0  0  0  0
    4.0046    4.8240   -1.5644 H   0  0  0  0  0  0  0  0  0  0  0  0
    2.2460    4.8396   -1.2007 H   0  0  0  0  0  0  0  0  0  0  0  0
    3.4794   -0.2698   -0.9907 C   0  0  0  0  0  0  0  0  0  0  0  0
    3.0990   -1.0585   -0.3092 H   0  0  0  0  0  0  0  0  0  0  0  0
    3.1607   -0.5445   -2.0144 H   0  0  0  0  0  0  0  0  0  0  0  0
    4.9770   -0.0819   -0.8659 C   0  0  0  0  0  0  0  0  0  0  0  0
    5.3415    0.7247   -1.5341 H   0  0  0  0  0  0  0  0  0  0  0  0
    5.4957   -1.0213   -1.1444 H   0  0  0  0  0  0  0  0  0  0  0  0
    5.2474    0.1618    0.1808 H   0  0  0  0  0  0  0  0  0  0  0  0
   -0.8246   -0.3995    2.5458 C   0  0  0  0  0  0  0  0  0  0  0  0
   -0.8721   -1.4813    2.7792 H   0  0  0  0  0  0  0  0  0  0  0  0
   -0.5841    0.1548    3.4783 H   0  0  0  0  0  0  0  0  0  0  0  0
   -2.0994    0.1291    1.9434 C   0  0  0  0  0  0  0  0  0  0  0  0
   -2.5648    1.4091    2.2989 C   0  0  0  0  0  0  0  0  0  0  0  0
   -2.0571    1.9578    3.1076 H   0  0  0  0  0  0  0  0  0  0  0  0
   -3.6567    2.0206    1.6413 C   0  0  0  0  0  0  0  0  0  0  0  0
   -4.0220    3.0176    1.9220 H   0  0  0  0  0  0  0  0  0  0  0  0
   -4.2421    1.3002    0.6068 C   0  0  0  0  0  0  0  0  0  0  0  0
   -3.8020    0.0067    0.2651 C   0  0  0  0  0  0  0  0  0  0  0  0
   -2.7496   -0.6133    0.9208 C   0  0  0  0  0  0  0  0  0  0  0  0
   -2.3939   -1.6119    0.6269 H   0  0  0  0  0  0  0  0  0  0  0  0
   -5.3900    0.6140   -1.1814 C   0  0  0  0  0  0  0  0  0  0  0  0
   -6.4455    0.2837   -1.2790 H   0  0  0  0  0  0  0  0  0  0  0  0
   -5.0091    1.0037   -2.1576 H   0  0  0  0  0  0  0  0  0  0  0  0
  1 19  1  0  0  0  0
  1  2  2  0  0  0  0
  3  1  1  0  0  0  0
  4  1  1  0  0  0  0
  5 44  1  0  0  0  0
  6 43  1  0  0  0  0
  7 18  1  0  0  0  0
  8  9  1  0  0  0  0
  8 35  1  0  0  0  0
 10  7  1  0  0  0  0
 11 10  1  0  0  0  0
 12 10  1  0  0  0  0
 12 14  2  0  0  0  0
 13 12  1  0  0  0  0
 14 16  1  0  0  0  0
 15 14  1  0  0  0  0
 16 18  2  0  0  0  0
 16 17  1  0  0  0  0
 18 19  1  0  0  0  0
 19  8  1  0  0  0  0
 19 20  1  1  0  0  0
 21 22  1  0  0  0  0
 21  4  1  0  0  0  0
 21 23  1  0  0  0  0
 24 21  1  0  0  0  0
 25 24  1  0  0  0  0
 26 24  1  0  0  0  0
 27 24  1  0  0  0  0
 28 31  1  0  0  0  0
 28  3  1  0  0  0  0
 28 29  1  0  0  0  0
 30 28  1  0  0  0  0
 31 34  1  0  0  0  0
 32 31  1  0  0  0  0
 33 31  1  0  0  0  0
 35 36  1  0  0  0  0
 35 37  1  0  0  0  0
 38 39  1  0  0  0  0
 38 35  1  0  0  0  0
 39 40  1  0  0  0  0
 41 42  1  0  0  0  0
 41 39  2  0  0  0  0
 43 41  1  0  0  0  0
 44 43  2  0  0  0  0
 44 45  1  0  0  0  0
 45 38  2  0  0  0  0
 46 45  1  0  0  0  0
 47  5  1  0  0  0  0
 47  6  1  0  0  0  0
 48 47  1  0  0  0  0
 49 47  1  0  0  0  0
M  END
