24,25
q = -1.0, confidence = 0.0

 27 29  0  0  1  0  0  0  0  0999 V2000
    8.7472    1.3590   -0.0943 O   0  0  0  0  0  0  0  0  0  0  0  0
    8.9274    1.4546    0.8593 H   0  0  0  0  0  0  0  0  0  0  0  0
    0.2088    0.0774   -2.7422 C   0  0  1  0  0  3  0  0  0  0  0  0
    0.2802    0.1049   -4.1508 C   0  0  0  0  0  0  0  0  0  0  0  0
    1.2576    0.2995   -4.6133 H   0  0  0  0  0  0  0  0  0  0  0  0
   -0.8816   -0.1029   -4.8937 C   0  0  0  0  0  0  0  0  0  0  0  0
   -0.8494   -0.0843   -5.9935 H   0  0  0  0  0  0  0  0  0  0  0  0
   -2.0965   -0.3286   -4.2182 C   0  0  0  0  0  0  0  0  0  0  0  0
   -3.0372   -0.4885   -4.7633 H   0  0  0  0  0  0  0  0  0  0  0  0
   -2.0909   -0.3577   -2.8208 C   0  0  0  0  0  0  0  0  0  0  0  0
   -3.0111   -0.5481   -2.2458 H   0  0  0  0  0  0  0  0  0  0  0  0
    1.3442    0.3198   -1.8812 C   0  0  0  0  0  0  0  0  0  0  0  0
    3.2020    0.6359   -0.9526 C   0  0  0  0  0  0  0  0  0  0  0  0
    4.6343    0.8312   -0.7125 C   0  0  0  0  0  0  0  0  0  0  0  0
    5.5477    0.8539   -1.7903 C   0  0  0  0  0  0  0  0  0  0  0  0
    5.1540    0.7264   -2.8091 H   0  0  0  0  0  0  0  0  0  0  0  0
    6.9154    1.0305   -1.5715 C   0  0  0  0  0  0  0  0  0  0  0  0
    7.6314    1.0481   -2.4061 H   0  0  0  0  0  0  0  0  0  0  0  0
    7.4048    1.1900   -0.2586 C   0  0  0  0  0  0  0  0  0  0  0  0
    6.5020    1.1704    0.8247 C   0  0  0  0  0  0  0  0  0  0  0  0
    6.8812    1.2970    1.8530 H   0  0  0  0  0  0  0  0  0  0  0  0
    5.1332    0.9933    0.5982 C   0  0  0  0  0  0  0  0  0  0  0  0
    4.4241    0.9819    1.4390 H   0  0  0  0  0  0  0  0  0  0  0  0
   -0.9697   -0.1787   -2.0935 N   0  0  0  0  0  2  0  0  0  0  0  0
    1.1207    0.3962   -0.5393 N   0  0  0  0  0  2  0  0  0  0  0  0
    2.2939    0.5866    0.0685 N   0  0  0  0  0  0  0  0  0  0  0  0
    2.6461    0.4771   -2.1833 N   0  0  0  0  0  0  0  0  0  0  0  0
  1  2  1  0  0  0  0
  3 24  1  0  0  0  0
  3 12  1  1  0  0  0
  4  3  1  0  0  0  0
  5  4  1  0  0  0  0
  6  8  1  0  0  0  0
  6  4  2  0  0  0  0
  7  6  1  0  0  0  0
  8 10  2  0  0  0  0
  9  8  1  0  0  0  0
 10 11  1  0  0  0  0
 10 24  1  0  0  0  0
 12 25  1  0  0  0  0
 13 14  1  0  0  0  0
 13 26  2  0  0  0  0
 14 22  1  0  0  0  0
 15 17  1  0  0  0  0
 15 14  2  0  0  0  0
 16 15  1  0  0  0  0
 17 19  2  0  0  0  0
 18 17  1  0  0  0  0
 19  1  1  0  0  0  0
 19 20  1  0  0  0  0
 20 21  1  0  0  0  0
 22 20  2  0  0  0  0
 22 23  1  0  0  0  0
 25 26  1  0  0  0  0
 27 12  2  0  0  0  0
 27 13  1  0  0  0  0
M  END
