1,2
q = -1.0, confidence = 0.0

 38 40  0  0  0  0  0  0  0  0999 V2000
   -0.1129   -2.0502   -0.0001 N   0  0  0  0  0  2  0  0  0  0  0  0
    1.9516   -0.4874   -0.0000 N   0  0  0  0  0  2  0  0  0  0  0  0
    3.0975    0.1912   -0.0000 N   0  0  0  0  0  0  0  0  0  0  0  0
    3.5572   -2.0445   -0.0001 N   0  0  0  0  0  2  0  0  0  0  0  0
   -1.2687   -2.7496   -0.0001 C   0  0  0  0  0  0  0  0  0  0  0  0
   -2.1939   -2.1418   -0.0000 H   0  0  0  0  0  0  0  0  0  0  0  0
   -1.2698   -4.1484   -0.0001 C   0  0  0  0  0  0  0  0  0  0  0  0
   -2.2299   -4.6825   -0.0001 H   0  0  0  0  0  0  0  0  0  0  0  0
   -0.0449   -4.8383   -0.0001 C   0  0  0  0  0  0  0  0  0  0  0  0
   -0.0244   -5.9384   -0.0001 H   0  0  0  0  0  0  0  0  0  0  0  0
    1.1500   -4.1131   -0.0001 C   0  0  0  0  0  0  0  0  0  0  0  0
    2.1381   -4.5931   -0.0001 H   0  0  0  0  0  0  0  0  0  0  0  0
    1.0951   -2.7098   -0.0001 C   0  0  0  0  0  0  0  0  0  0  0  0
    2.2368   -1.8232   -0.0001 C   0  0  0  0  0  0  0  0  0  0  0  0
    4.0596   -0.7775   -0.0000 C   0  0  0  0  0  0  0  0  0  0  0  0
    5.4940   -0.4723    0.0000 C   0  0  0  0  0  0  0  0  0  0  0  0
    6.4411   -1.5195    0.0002 C   0  0  0  0  0  0  0  0  0  0  0  0
    6.0760   -2.5567    0.0002 H   0  0  0  0  0  0  0  0  0  0  0  0
    7.8093   -1.2382    0.0002 C   0  0  0  0  0  0  0  0  0  0  0  0
    8.5189   -2.0800    0.0003 H   0  0  0  0  0  0  0  0  0  0  0  0
    8.2975    0.0890    0.0001 C   0  0  0  0  0  0  0  0  0  0  0  0
    7.3412    1.1253   -0.0001 C   0  0  0  0  0  0  0  0  0  0  0  0
    7.6668    2.1744   -0.0001 H   0  0  0  0  0  0  0  0  0  0  0  0
    5.9664    0.8549   -0.0001 C   0  0  0  0  0  0  0  0  0  0  0  0
    5.2404    1.6807   -0.0002 H   0  0  0  0  0  0  0  0  0  0  0  0
    9.8137    0.3491    0.0001 C   0  0  0  0  0  0  0  0  0  0  0  0
   10.4387   -0.2879    1.2625 C   0  0  0  0  0  0  0  0  0  0  0  0
   10.2652   -1.3816    1.3003 H   0  0  0  0  0  0  0  0  0  0  0  0
   11.5356   -0.1193    1.2794 H   0  0  0  0  0  0  0  0  0  0  0  0
   10.0071    0.1538    2.1833 H   0  0  0  0  0  0  0  0  0  0  0  0
   10.4387   -0.2880   -1.2623 C   0  0  0  0  0  0  0  0  0  0  0  0
   10.0070    0.1537   -2.1831 H   0  0  0  0  0  0  0  0  0  0  0  0
   11.5356   -0.1193   -1.2792 H   0  0  0  0  0  0  0  0  0  0  0  0
   10.2652   -1.3816   -1.3001 H   0  0  0  0  0  0  0  0  0  0  0  0
   10.1466    1.8511    0.0001 C   0  0  0  0  0  0  0  0  0  0  0  0
    9.7447    2.3625    0.8979 H   0  0  0  0  0  0  0  0  0  0  0  0
   11.2463    1.9919    0.0001 H   0  0  0  0  0  0  0  0  0  0  0  0
    9.7448    2.3624   -0.8978 H   0  0  0  0  0  0  0  0  0  0  0  0
  2  3  1  0  0  0  0
  3 15  2  0  0  0  0
  4 14  1  0  0  0  0
  4 15  1  0  0  0  0
  5  1  1  0  0  0  0
  5  6  1  0  0  0  0
  7  5  2  0  0  0  0
  8  7  1  0  0  0  0
  9  7  1  0  0  0  0
  9 11  2  0  0  0  0
 10  9  1  0  0  0  0
 11 13  1  0  0  0  0
 12 11  1  0  0  0  0
 13  1  1  0  0  0  0
 13 14  2  0  0  0  0
 14  2  1  0  0  0  0
 15 16  1  0  0  0  0
 16 17  1  0  0  0  0
 17 19  2  0  0  0  0
 17 18  1  0  0  0  0
 19 20  1  0  0  0  0
 21 26  1  0  0  0  0
 21 19  1  0  0  0  0
 22 21  2  0  0  0  0
 23 22  1  0  0  0  0
 24 22  1  0  0  0  0
 24 16  2  0  0  0  0
 25 24  1  0  0  0  0
 26 27  1  0  0  0  0
 27 29  1  0  0  0  0
 27 28  1  0  0  0  0
 27 30  1  0  0  0  0
 31 26  1  0  0  0  0
 32 31  1  0  0  0  0
 33 31  1  0  0  0  0
 34 31  1  0  0  0  0
 35 26  1  0  0  0  0
 35 37  1  0  0  0  0
 35 36  1  0  0  0  0
 38 35  1  0  0  0  0
M  END
