1,2
q = 0.0, confidence = 0.942

 36 36  0  0  0  0  0  0  0  0999 V2000
   -0.5285   -0.2778    1.5768 N   0  0  0  0  0  2  0  0  0  0  0  0
    2.2038   -1.0096    1.2397 N   0  0  0  0  0  0  0  0  0  0  0  0
    2.7123   -0.2560    1.7312 H   0  0  0  0  0  0  0  0  0  0  0  0
   -4.4554   -0.9967    1.5314 O   0  0  0  0  0  0  0  0  0  0  0  0
   -2.6934    0.2882    0.6102 C   0  0  0  0  0  0  0  0  0  0  0  0
   -4.0688   -0.1008    0.5867 C   0  0  0  0  0  0  0  0  0  0  0  0
   -4.9300    0.4310   -0.3914 C   0  0  0  0  0  0  0  0  0  0  0  0
   -5.9859    0.1342   -0.4285 H   0  0  0  0  0  0  0  0  0  0  0  0
   -4.4327    1.3420   -1.3359 C   0  0  0  0  0  0  0  0  0  0  0  0
   -5.1170    1.7470   -2.0971 H   0  0  0  0  0  0  0  0  0  0  0  0
   -3.0876    1.7431   -1.3168 C   0  0  0  0  0  0  0  0  0  0  0  0
   -2.7064    2.4667   -2.0508 H   0  0  0  0  0  0  0  0  0  0  0  0
   -2.2300    1.2167   -0.3485 C   0  0  0  0  0  0  0  0  0  0  0  0
   -1.1861    1.5643   -0.2982 H   0  0  0  0  0  0  0  0  0  0  0  0
   -5.8112   -1.4100    1.5714 C   0  0  0  0  0  0  0  0  0  0  0  0
   -6.4984   -0.5526    1.7445 H   0  0  0  0  0  0  0  0  0  0  0  0
   -5.8951   -2.1176    2.4164 H   0  0  0  0  0  0  0  0  0  0  0  0
   -6.1085   -1.9278    0.6334 H   0  0  0  0  0  0  0  0  0  0  0  0
   -1.8226   -0.2746    1.6293 C   0  0  0  0  0  3  0  0  0  0  0  0
   -2.3295   -0.7359    2.5032 H   0  0  0  0  0  0  0  0  0  0  0  0
    0.2328   -0.8093    2.6957 C   0  0  0  0  0  0  0  0  0  0  0  0
   -0.4143   -1.3484    3.4236 H   0  0  0  0  0  0  0  0  0  0  0  0
    0.6943    0.0508    3.2343 H   0  0  0  0  0  0  0  0  0  0  0  0
    1.3438   -1.7335    2.1886 C   0  0  0  0  0  0  0  0  0  0  0  0
    1.9058   -2.1438    3.0566 H   0  0  0  0  0  0  0  0  0  0  0  0
    0.8934   -2.5889    1.6419 H   0  0  0  0  0  0  0  0  0  0  0  0
    3.1815   -1.8345    0.4779 C   0  0  0  0  0  0  0  0  0  0  0  0
    2.5626   -2.5192   -0.1442 H   0  0  0  0  0  0  0  0  0  0  0  0
    3.9705   -0.9217   -0.4582 C   0  0  0  0  0  0  0  0  0  0  0  0
    3.2959   -0.3826   -1.1523 H   0  0  0  0  0  0  0  0  0  0  0  0
    4.6797   -1.5176   -1.0647 H   0  0  0  0  0  0  0  0  0  0  0  0
    4.5534   -0.1671    0.1111 H   0  0  0  0  0  0  0  0  0  0  0  0
    4.1023   -2.6569    1.3849 C   0  0  0  0  0  0  0  0  0  0  0  0
    4.7043   -1.9970    2.0459 H   0  0  0  0  0  0  0  0  0  0  0  0
    4.8101   -3.2480    0.7710 H   0  0  0  0  0  0  0  0  0  0  0  0
    3.5455   -3.3724    2.0221 H   0  0  0  0  0  0  0  0  0  0  0  0
  1 19  1  0  0  0  0
  1 21  1  0  0  0  0
  2  3  1  0  0  0  0
  2 24  1  0  0  0  0
  4 15  1  0  0  0  0
  5 19  1  0  0  0  0
  6  5  1  0  0  0  0
  6  4  1  0  0  0  0
  7  6  2  0  0  0  0
  8  7  1  0  0  0  0
  9 11  2  0  0  0  0
  9  7  1  0  0  0  0
 10  9  1  0  0  0  0
 11 13  1  0  0  0  0
 12 11  1  0  0  0  0
 13 14  1  0  0  0  0
 13  5  2  0  0  0  0
 15 16  1  0  0  0  0
 15 17  1  0  0  0  0
 18 15  1  0  0  0  0
 19 20  1  0  0  0  0
 21 23  1  0  0  0  0
 21 22  1  0  0  0  0
 24 21  1  0  0  0  0
 24 25  1  0  0  0  0
 26 24  1  0  0  0  0
 27  2  1  0  0  0  0
 27 33  1  0  0  0  0
 28 27  1  0  0  0  0
 29 32  1  0  0  0  0
 29 27  1  0  0  0  0
 30 29  1  0  0  0  0
 31 29  1  0  0  0  0
 33 36  1  0  0  0  0
 33 34  1  0  0  0  0
 35 33  1  0  0  0  0
M  END
