1,20
q = 0.0, confidence = 0.97

 42 46  0  0  0  0  0  0  0  0999 V2000
   -1.3644   -0.0607   -0.3663 N   0  0  0  0  0  2  0  0  0  0  0  0
   -0.8507    1.1520   -0.3047 C   0  0  0  0  0  0  0  0  0  0  0  0
   -1.4025    2.5097   -0.1831 C   0  0  0  0  0  0  0  0  0  0  0  0
   -2.6742    3.0711   -0.0814 C   0  0  0  0  0  0  0  0  0  0  0  0
   -3.5791    2.4486   -0.0766 H   0  0  0  0  0  0  0  0  0  0  0  0
   -2.7863    4.4883    0.0180 C   0  0  0  0  0  0  0  0  0  0  0  0
   -3.7914    4.9288    0.0992 H   0  0  0  0  0  0  0  0  0  0  0  0
   -1.6754    5.3317    0.0136 C   0  0  0  0  0  0  0  0  0  0  0  0
   -1.8097    6.4217    0.0888 H   0  0  0  0  0  0  0  0  0  0  0  0
   -0.3572    4.7886   -0.0849 C   0  0  0  0  0  0  0  0  0  0  0  0
    0.8782    5.5067   -0.1003 C   0  0  0  0  0  0  0  0  0  0  0  0
    0.8685    6.6055   -0.0342 H   0  0  0  0  0  0  0  0  0  0  0  0
    2.0902    4.8228   -0.1970 C   0  0  0  0  0  0  0  0  0  0  0  0
    3.0286    5.3974   -0.2086 H   0  0  0  0  0  0  0  0  0  0  0  0
    2.1645    3.4019   -0.2736 C   0  0  0  0  0  0  0  0  0  0  0  0
    3.1420    2.9047   -0.3368 H   0  0  0  0  0  0  0  0  0  0  0  0
    0.9772    2.6731   -0.2605 C   0  0  0  0  0  0  0  0  0  0  0  0
   -0.2648    3.3798   -0.1745 C   0  0  0  0  0  0  0  0  0  0  0  0
    0.6080    1.2523   -0.3239 C   0  0  0  0  0  0  0  0  0  0  0  0
    1.2699    0.1164   -0.3714 N   0  0  0  0  0  2  0  0  0  0  0  0
   -2.7786   -0.1769   -0.2299 C   0  0  0  0  0  0  0  0  0  0  0  0
   -3.3299   -0.4285    1.0416 C   0  0  0  0  0  0  0  0  0  0  0  0
   -2.6471   -0.5400    1.8985 H   0  0  0  0  0  0  0  0  0  0  0  0
   -4.7182   -0.5345    1.1926 C   0  0  0  0  0  0  0  0  0  0  0  0
   -5.1603   -0.7270    2.1802 H   0  0  0  0  0  0  0  0  0  0  0  0
   -5.5529   -0.3918    0.0704 C   0  0  0  0  0  0  0  0  0  0  0  0
   -7.2818   -0.5228    0.2581 Cl  0  0  0  0  0  0  0  0  0  0  0  0
   -3.6199   -0.0408   -1.3497 C   0  0  0  0  0  0  0  0  0  0  0  0
   -3.1786    0.1630   -2.3365 H   0  0  0  0  0  0  0  0  0  0  0  0
   -5.0100   -0.1471   -1.2019 C   0  0  0  0  0  0  0  0  0  0  0  0
   -5.6767   -0.0406   -2.0689 H   0  0  0  0  0  0  0  0  0  0  0  0
    2.6867    0.1151   -0.2266 C   0  0  0  0  0  0  0  0  0  0  0  0
    3.2547    0.4364    1.0222 C   0  0  0  0  0  0  0  0  0  0  0  0
    2.5893    0.6673    1.8662 H   0  0  0  0  0  0  0  0  0  0  0  0
    4.6448    0.4150    1.1845 C   0  0  0  0  0  0  0  0  0  0  0  0
    5.0986    0.6504    2.1572 H   0  0  0  0  0  0  0  0  0  0  0  0
    5.4646    0.0770    0.0943 C   0  0  0  0  0  0  0  0  0  0  0  0
    7.1969    0.0582    0.2914 Cl  0  0  0  0  0  0  0  0  0  0  0  0
    4.9042   -0.2565   -1.1505 C   0  0  0  0  0  0  0  0  0  0  0  0
    5.5598   -0.5277   -1.9894 H   0  0  0  0  0  0  0  0  0  0  0  0
    3.5129   -0.2473   -1.3068 C   0  0  0  0  0  0  0  0  0  0  0  0
    3.0612   -0.5169   -2.2716 H   0  0  0  0  0  0  0  0  0  0  0  0
  1  2  1  0  0  0  0
  1 21  1  0  0  0  0
  2  3  1  0  0  0  0
  3 18  2  0  0  0  0
  3  4  1  0  0  0  0
  4  5  1  0  0  0  0
  4  6  2  0  0  0  0
  6  7  1  0  0  0  0
  8  6  1  0  0  0  0
  8  9  1  0  0  0  0
 10  8  2  0  0  0  0
 11 10  1  0  0  0  0
 11 12  1  0  0  0  0
 13 11  2  0  0  0  0
 14 13  1  0  0  0  0
 15 17  2  0  0  0  0
 15 13  1  0  0  0  0
 16 15  1  0  0  0  0
 17 18  1  0  0  0  0
 18 10  1  0  0  0  0
 19  2  2  0  0  0  0
 19 17  1  0  0  0  0
 20 19  1  0  0  0  0
 20 32  1  0  0  0  0
 21 22  1  0  0  0  0
 22 24  2  0  0  0  0
 22 23  1  0  0  0  0
 24 25  1  0  0  0  0
 26 27  1  0  0  0  0
 26 24  1  0  0  0  0
 28 30  1  0  0  0  0
 28 21  2  0  0  0  0
 29 28  1  0  0  0  0
 30 26  2  0  0  0  0
 31 30  1  0  0  0  0
 32 33  1  0  0  0  0
 33 35  2  0  0  0  0
 33 34  1  0  0  0  0
 35 36  1  0  0  0  0
 37 38  1  0  0  0  0
 37 35  1  0  0  0  0
 39 37  2  0  0  0  0
 40 39  1  0  0  0  0
 41 39  1  0  0  0  0
 41 32  2  0  0  0  0
 42 41  1  0  0  0  0
M  END
