1
q = 0.0, confidence = 1.0

 38 41  0  0  1  0  0  0  0  0999 V2000
   -1.1331   -0.6140   -0.9010 N   0  0  1  0  0  0  0  0  0  0  0  0
   -0.6053   -0.8224   -2.2699 C   0  0  0  0  0  0  0  0  0  0  0  0
    0.9073   -0.8971   -2.2576 C   0  0  0  0  0  0  0  0  0  0  0  0
    1.3999   -1.8339   -1.2437 N   0  0  1  0  0  0  0  0  0  0  0  0
    2.8591   -1.7778   -1.1137 C   0  0  0  0  0  0  0  0  0  0  0  0
    3.2989   -0.5119   -0.3681 C   0  0  0  0  0  0  0  0  0  0  0  0
    2.6133   -0.4452    0.9893 C   0  0  0  0  0  0  0  0  0  0  0  0
    1.1337   -0.6131    0.9011 N   0  0  2  0  0  0  0  0  0  0  0  0
    0.6060   -0.8215    2.2700 C   0  0  0  0  0  0  0  0  0  0  0  0
   -0.9065   -0.8972    2.2578 C   0  0  0  0  0  0  0  0  0  0  0  0
   -1.3986   -1.8344    1.2440 N   0  0  1  0  0  0  0  0  0  0  0  0
   -2.8578   -1.7792    1.1141 C   0  0  0  0  0  0  0  0  0  0  0  0
   -3.2984   -0.5137    0.3681 C   0  0  0  0  0  0  0  0  0  0  0  0
   -2.6129   -0.4472   -0.9893 C   0  0  0  0  0  0  0  0  0  0  0  0
   -0.7632   -1.8135   -0.0469 C   0  0  2  0  0  0  0  0  0  0  0  0
    0.7644   -1.8130    0.0472 C   0  0  1  0  0  0  0  0  0  0  0  0
   -0.9359    0.0338   -2.8888 H   0  0  0  0  0  0  0  0  0  0  0  0
   -1.0489   -1.7590   -2.6825 H   0  0  0  0  0  0  0  0  0  0  0  0
    1.2593   -1.2527   -3.2499 H   0  0  0  0  0  0  0  0  0  0  0  0
    1.3007    0.1385   -2.1160 H   0  0  0  0  0  0  0  0  0  0  0  0
    3.3054   -1.8349   -2.1273 H   0  0  0  0  0  0  0  0  0  0  0  0
    3.1945   -2.6823   -0.5582 H   0  0  0  0  0  0  0  0  0  0  0  0
    4.3973   -0.5007   -0.2148 H   0  0  0  0  0  0  0  0  0  0  0  0
    3.0483    0.4002   -0.9482 H   0  0  0  0  0  0  0  0  0  0  0  0
    3.0005   -1.2600    1.6473 H   0  0  0  0  0  0  0  0  0  0  0  0
    2.7845    0.5327    1.4820 H   0  0  0  0  0  0  0  0  0  0  0  0
    0.9361    0.0351    2.8886 H   0  0  0  0  0  0  0  0  0  0  0  0
    1.0502   -1.7577    2.6828 H   0  0  0  0  0  0  0  0  0  0  0  0
   -1.2583   -1.2529    3.2501 H   0  0  0  0  0  0  0  0  0  0  0  0
   -1.3006    0.1381    2.1161 H   0  0  0  0  0  0  0  0  0  0  0  0
   -3.3040   -1.8362    2.1277 H   0  0  0  0  0  0  0  0  0  0  0  0
   -3.1928   -2.6840    0.5589 H   0  0  0  0  0  0  0  0  0  0  0  0
   -4.3968   -0.5032    0.2149 H   0  0  0  0  0  0  0  0  0  0  0  0
   -3.0482    0.3987    0.9479 H   0  0  0  0  0  0  0  0  0  0  0  0
   -2.9995   -1.2625   -1.6469 H   0  0  0  0  0  0  0  0  0  0  0  0
   -2.7848    0.5304   -1.4825 H   0  0  0  0  0  0  0  0  0  0  0  0
   -1.0880   -2.7253   -0.6027 H   0  0  0  0  0  0  0  0  0  0  0  0
    1.0898   -2.7245    0.6033 H   0  0  0  0  0  0  0  0  0  0  0  0
  1  2  1  6  0  0  0
  1 15  1  0  0  0  0
  2  3  1  0  0  0  0
  3 20  1  0  0  0  0
  4  3  1  6  0  0  0
  4  5  1  0  0  0  0
  4 16  1  0  0  0  0
  5 22  1  0  0  0  0
  5  6  1  0  0  0  0
  6 23  1  0  0  0  0
  6  7  1  0  0  0  0
  7 26  1  0  0  0  0
  7 25  1  0  0  0  0
  8  7  1  1  0  0  0
  8  9  1  0  0  0  0
  9 28  1  0  0  0  0
  9 27  1  0  0  0  0
 10  9  1  0  0  0  0
 10 29  1  0  0  0  0
 11 12  1  6  0  0  0
 11 10  1  0  0  0  0
 12 31  1  0  0  0  0
 13 34  1  0  0  0  0
 13 12  1  0  0  0  0
 14  1  1  0  0  0  0
 14 13  1  0  0  0  0
 15 37  1  6  0  0  0
 15 16  1  0  0  0  0
 15 11  1  0  0  0  0
 16 38  1  1  0  0  0
 16  8  1  0  0  0  0
 17  2  1  0  0  0  0
 18  2  1  0  0  0  0
 19  3  1  0  0  0  0
 21  5  1  0  0  0  0
 24  6  1  0  0  0  0
 30 10  1  0  0  0  0
 32 12  1  0  0  0  0
 33 13  1  0  0  0  0
 35 14  1  0  0  0  0
 36 14  1  0  0  0  0
M  END
