1,2
q = 0.0, confidence = 0.97

 19 20  0  0  0  0  0  0  0  0999 V2000
   -0.9486   -1.2739   -0.3910 N   0  0  0  0  0  2  0  0  0  0  0  0
   -0.7817    1.3563   -0.3832 N   0  0  0  0  0  2  0  0  0  0  0  0
   -0.5523    2.6653   -0.4519 N   0  0  0  0  0  2  0  0  0  0  0  0
   -0.9488   -2.6242   -0.4472 C   0  0  0  0  0  3  0  0  0  0  0  0
    0.0366   -3.1009   -0.5459 H   0  0  0  0  0  0  0  0  0  0  0  0
   -2.1202   -3.3801   -0.3681 C   0  0  0  0  0  0  0  0  0  0  0  0
   -2.0615   -4.4764   -0.4124 H   0  0  0  0  0  0  0  0  0  0  0  0
   -3.3490   -2.7155   -0.2248 C   0  0  0  0  0  0  0  0  0  0  0  0
   -4.2905   -3.2792   -0.1544 H   0  0  0  0  0  0  0  0  0  0  0  0
   -3.3555   -1.3198   -0.1726 C   0  0  0  0  0  0  0  0  0  0  0  0
   -4.3026   -0.7752   -0.0635 H   0  0  0  0  0  0  0  0  0  0  0  0
   -2.1397   -0.6153   -0.2546 C   0  0  0  0  0  0  0  0  0  0  0  0
   -2.0480    0.8507   -0.2424 C   0  0  0  0  0  0  0  0  0  0  0  0
   -3.1498    1.7202   -0.1346 C   0  0  0  0  0  0  0  0  0  0  0  0
   -4.1659    1.3215   -0.0126 H   0  0  0  0  0  0  0  0  0  0  0  0
   -2.9154    3.0897   -0.1778 C   0  0  0  0  0  0  0  0  0  0  0  0
   -3.7316    3.8200   -0.0858 H   0  0  0  0  0  0  0  0  0  0  0  0
   -1.5813    3.5080   -0.3513 C   0  0  0  0  0  0  0  0  0  0  0  0
   -1.3113    4.5744   -0.4124 H   0  0  0  0  0  0  0  0  0  0  0  0
  1 12  1  0  0  0  0
  2 13  1  0  0  0  0
  3  2  1  0  0  0  0
  3 18  1  0  0  0  0
  4  1  1  0  0  0  0
  4  6  1  0  0  0  0
  5  4  1  0  0  0  0
  6  8  2  0  0  0  0
  7  6  1  0  0  0  0
  8 10  1  0  0  0  0
  8  9  1  0  0  0  0
 10 11  1  0  0  0  0
 12 13  1  0  0  0  0
 12 10  2  0  0  0  0
 13 14  2  0  0  0  0
 14 15  1  0  0  0  0
 16 14  1  0  0  0  0
 16 17  1  0  0  0  0
 18 16  2  0  0  0  0
 19 18  1  0  0  0  0
M  END
