1,22
q = 0.0, confidence = 0.99

 74 79  0  0  0  0  0  0  0  0999 V2000
    4.8630    0.8441   -0.0507 N   0  0  0  0  0  2  0  0  0  0  0  0
    6.1628    0.5319   -0.2600 C   0  0  0  0  0  0  0  0  0  0  0  0
    6.3338   -0.5194   -0.5506 H   0  0  0  0  0  0  0  0  0  0  0  0
    7.1992    1.4659   -0.1217 C   0  0  0  0  0  0  0  0  0  0  0  0
    8.6282    1.0675   -0.3658 C   0  0  0  0  0  0  0  0  0  0  0  0
    9.0777    1.6772   -1.1768 H   0  0  0  0  0  0  0  0  0  0  0  0
    8.7096    0.0021   -0.6511 H   0  0  0  0  0  0  0  0  0  0  0  0
    9.2463    1.2299    0.5414 H   0  0  0  0  0  0  0  0  0  0  0  0
    6.8438    2.7804    0.2521 C   0  0  0  0  0  0  0  0  0  0  0  0
    7.6216    3.5498    0.3731 H   0  0  0  0  0  0  0  0  0  0  0  0
    5.5038    3.1038    0.4685 C   0  0  0  0  0  0  0  0  0  0  0  0
    5.2183    4.1234    0.7600 H   0  0  0  0  0  0  0  0  0  0  0  0
    4.5122    2.1200    0.3136 C   0  0  0  0  0  0  0  0  0  0  0  0
    3.0769    2.3289    0.5140 C   0  0  0  0  0  0  0  0  0  0  0  0
    2.4789    3.5428    0.8879 C   0  0  0  0  0  0  0  0  0  0  0  0
    3.1043    4.4314    1.0482 H   0  0  0  0  0  0  0  0  0  0  0  0
    1.0924    3.6149    1.0548 C   0  0  0  0  0  0  0  0  0  0  0  0
    0.6185    4.5640    1.3478 H   0  0  0  0  0  0  0  0  0  0  0  0
    0.3055    2.4640    0.8560 C   0  0  0  0  0  0  0  0  0  0  0  0
    0.9656    1.2812    0.4822 C   0  0  0  0  0  0  0  0  0  0  0  0
    0.4262    0.3351    0.3068 H   0  0  0  0  0  0  0  0  0  0  0  0
    2.3021    1.2113    0.3109 N   0  0  0  0  0  2  0  0  0  0  0  0
   -1.1937    2.4431    0.9747 C   0  0  0  0  0  0  0  0  0  0  0  0
   -1.5505    3.2889    1.5958 H   0  0  0  0  0  0  0  0  0  0  0  0
   -1.4880    1.5089    1.4946 H   0  0  0  0  0  0  0  0  0  0  0  0
   -1.9025    2.4669   -0.4085 C   0  0  0  0  0  0  0  0  0  0  0  0
   -1.8791    3.4911   -0.8327 H   0  0  0  0  0  0  0  0  0  0  0  0
   -1.3240    1.8206   -1.1039 H   0  0  0  0  0  0  0  0  0  0  0  0
   -3.3145    1.9501   -0.3298 C   0  0  0  0  0  0  0  0  0  0  0  0
   -4.4769    2.7441   -0.5019 C   0  0  0  0  0  0  0  0  0  0  0  0
   -4.3274    3.8062   -0.7387 H   0  0  0  0  0  0  0  0  0  0  0  0
   -5.7824    2.2274   -0.3918 C   0  0  0  0  0  0  0  0  0  0  0  0
   -7.0356    3.0998   -0.5964 C   0  0  0  0  0  0  0  0  0  0  0  0
   -7.8931    3.0757    0.6895 C   0  0  0  0  0  0  0  0  0  0  0  0
   -8.8054    3.6944    0.5603 H   0  0  0  0  0  0  0  0  0  0  0  0
   -7.3229    3.4762    1.5520 H   0  0  0  0  0  0  0  0  0  0  0  0
   -8.2184    2.0489    0.9494 H   0  0  0  0  0  0  0  0  0  0  0  0
   -6.6811    4.5635   -0.9105 C   0  0  0  0  0  0  0  0  0  0  0  0
   -7.6099    5.1529   -1.0483 H   0  0  0  0  0  0  0  0  0  0  0  0
   -6.0879    4.6528   -1.8427 H   0  0  0  0  0  0  0  0  0  0  0  0
   -6.1063    5.0338   -0.0873 H   0  0  0  0  0  0  0  0  0  0  0  0
   -7.8608    2.5380   -1.7767 C   0  0  0  0  0  0  0  0  0  0  0  0
   -7.2668    2.5463   -2.7128 H   0  0  0  0  0  0  0  0  0  0  0  0
   -8.7731    3.1489   -1.9397 H   0  0  0  0  0  0  0  0  0  0  0  0
   -8.1832    1.4939   -1.5932 H   0  0  0  0  0  0  0  0  0  0  0  0
   -5.9555    0.8478   -0.0855 C   0  0  0  0  0  0  0  0  0  0  0  0
   -6.9519    0.3972    0.0188 H   0  0  0  0  0  0  0  0  0  0  0  0
   -4.8196    0.0684    0.0837 C   0  0  0  0  0  0  0  0  0  0  0  0
   -3.5340    0.6053   -0.0429 C   0  0  0  0  0  0  0  0  0  0  0  0
   -4.7294   -1.2578    0.4174 O   0  0  0  0  0  0  0  0  0  0  0  0
   -2.5925   -0.3569    0.2033 O   0  0  0  0  0  0  0  0  0  0  0  0
   -3.3253   -1.6170    0.3311 C   0  0  0  0  0  0  0  0  0  0  0  0
   -2.8788   -2.3039    1.6124 C   0  0  0  0  0  0  0  0  0  0  0  0
   -1.5073   -2.5577    1.8137 C   0  0  0  0  0  0  0  0  0  0  0  0
   -0.7617   -2.2701    1.0568 H   0  0  0  0  0  0  0  0  0  0  0  0
   -1.0782   -3.1818    2.9922 C   0  0  0  0  0  0  0  0  0  0  0  0
   -0.0038   -3.3705    3.1385 H   0  0  0  0  0  0  0  0  0  0  0  0
   -2.0099   -3.5682    3.9703 C   0  0  0  0  0  0  0  0  0  0  0  0
   -1.6702   -4.0651    4.8919 H   0  0  0  0  0  0  0  0  0  0  0  0
   -3.3755   -3.3204    3.7660 C   0  0  0  0  0  0  0  0  0  0  0  0
   -4.1117   -3.6197    4.5278 H   0  0  0  0  0  0  0  0  0  0  0  0
   -3.8113   -2.6863    2.5916 C   0  0  0  0  0  0  0  0  0  0  0  0
   -4.8776   -2.4780    2.4282 H   0  0  0  0  0  0  0  0  0  0  0  0
   -3.0921   -2.4697   -0.9115 C   0  0  0  0  0  0  0  0  0  0  0  0
   -1.8805   -2.3830   -1.6197 C   0  0  0  0  0  0  0  0  0  0  0  0
   -1.1048   -1.6692   -1.3091 H   0  0  0  0  0  0  0  0  0  0  0  0
   -1.6509   -3.2197   -2.7217 C   0  0  0  0  0  0  0  0  0  0  0  0
   -0.6913   -3.1505   -3.2557 H   0  0  0  0  0  0  0  0  0  0  0  0
   -2.6312   -4.1376   -3.1284 C   0  0  0  0  0  0  0  0  0  0  0  0
   -2.4498   -4.7935   -3.9936 H   0  0  0  0  0  0  0  0  0  0  0  0
   -3.8450   -4.2185   -2.4259 C   0  0  0  0  0  0  0  0  0  0  0  0
   -4.6197   -4.9335   -2.7426 H   0  0  0  0  0  0  0  0  0  0  0  0
   -4.0748   -3.3914   -1.3175 C   0  0  0  0  0  0  0  0  0  0  0  0
   -5.0231   -3.4493   -0.7639 H   0  0  0  0  0  0  0  0  0  0  0  0
  1 13  1  0  0  0  0
  2  4  2  0  0  0  0
  2  1  1  0  0  0  0
  3  2  1  0  0  0  0
  4  9  1  0  0  0  0
  5  4  1  0  0  0  0
  5  8  1  0  0  0  0
  6  5  1  0  0  0  0
  7  5  1  0  0  0  0
  9 10  1  0  0  0  0
  9 11  2  0  0  0  0
 11 12  1  0  0  0  0
 13 11  1  0  0  0  0
 13 14  2  0  0  0  0
 14 15  1  0  0  0  0
 15 16  1  0  0  0  0
 15 17  2  0  0  0  0
 17 18  1  0  0  0  0
 19 23  1  0  0  0  0
 19 17  1  0  0  0  0
 20 19  2  0  0  0  0
 21 20  1  0  0  0  0
 22 20  1  0  0  0  0
 22 14  1  0  0  0  0
 23 25  1  0  0  0  0
 23 24  1  0  0  0  0
 26 29  1  0  0  0  0
 26 23  1  0  0  0  0
 27 26  1  0  0  0  0
 28 26  1  0  0  0  0
 29 49  1  0  0  0  0
 30 32  1  0  0  0  0
 30 29  2  0  0  0  0
 31 30  1  0  0  0  0
 32 46  2  0  0  0  0
 33 32  1  0  0  0  0
 33 34  1  0  0  0  0
 34 37  1  0  0  0  0
 34 36  1  0  0  0  0
 35 34  1  0  0  0  0
 38 33  1  0  0  0  0
 38 41  1  0  0  0  0
 39 38  1  0  0  0  0
 40 38  1  0  0  0  0
 42 45  1  0  0  0  0
 42 33  1  0  0  0  0
 43 42  1  0  0  0  0
 44 42  1  0  0  0  0
 46 47  1  0  0  0  0
 46 48  1  0  0  0  0
 48 50  1  0  0  0  0
 49 48  2  0  0  0  0
 49 51  1  0  0  0  0
 51 52  1  0  0  0  0
 52 50  1  0  0  0  0
 52 53  1  0  0  0  0
 53 54  2  0  0  0  0
 53 62  1  0  0  0  0
 54 56  1  0  0  0  0
 55 54  1  0  0  0  0
 56 57  1  0  0  0  0
 56 58  2  0  0  0  0
 58 59  1  0  0  0  0
 60 58  1  0  0  0  0
 60 61  1  0  0  0  0
 62 60  2  0  0  0  0
 63 62  1  0  0  0  0
 64 52  1  0  0  0  0
 65 66  1  0  0  0  0
 65 64  2  0  0  0  0
 67 65  1  0  0  0  0
 68 67  1  0  0  0  0
 69 67  2  0  0  0  0
 69 71  1  0  0  0  0
 70 69  1  0  0  0  0
 71 73  2  0  0  0  0
 72 71  1  0  0  0  0
 73 64  1  0  0  0  0
 73 74  1  0  0  0  0
M  END
