3,5
q = 0.0, confidence = 0.994

 48 51  0  0  0  0  0  0  0  0999 V2000
   -3.8735    0.5107   -1.4220 O   0  0  0  0  0  0  0  0  0  0  0  0
   -3.8711   -0.5221    1.4222 O   0  0  0  0  0  0  0  0  0  0  0  0
    0.1424    1.4872   -0.3702 N   0  0  0  0  0  2  0  0  0  0  0  0
   -1.6152    2.3520   -1.4552 N   0  0  0  0  0  0  0  0  0  0  0  0
    0.1470   -1.4870    0.3705 N   0  0  0  0  0  2  0  0  0  0  0  0
   -1.6079   -2.3572    1.4554 N   0  0  0  0  0  0  0  0  0  0  0  0
   -0.0624    2.7805    0.1063 C   0  0  0  0  0  0  0  0  0  0  0  0
   -1.1843    3.3403   -0.5722 C   0  0  0  0  0  0  0  0  0  0  0  0
   -0.7970    1.2682   -1.2800 C   0  0  0  0  0  3  0  0  0  0  0  0
   -0.8946    0.3452   -1.8636 H   0  0  0  0  0  0  0  0  0  0  0  0
    0.6346    3.5363    1.0669 C   0  0  0  0  0  0  0  0  0  0  0  0
    1.4869    3.0950    1.6013 H   0  0  0  0  0  0  0  0  0  0  0  0
    0.1772    4.8341    1.3221 C   0  0  0  0  0  0  0  0  0  0  0  0
    0.6993    5.4486    2.0706 H   0  0  0  0  0  0  0  0  0  0  0  0
   -0.9421    5.3783    0.6466 C   0  0  0  0  0  0  0  0  0  0  0  0
   -1.2678    6.4028    0.8811 H   0  0  0  0  0  0  0  0  0  0  0  0
   -1.6463    4.6406   -0.3142 C   0  0  0  0  0  0  0  0  0  0  0  0
   -2.5160    5.0664   -0.8357 H   0  0  0  0  0  0  0  0  0  0  0  0
   -2.7748    2.4096   -2.3255 C   0  0  0  0  0  0  0  0  0  0  0  0
   -2.5660    1.8008   -3.2277 H   0  0  0  0  0  0  0  0  0  0  0  0
   -2.9199    3.4580   -2.6531 H   0  0  0  0  0  0  0  0  0  0  0  0
   -4.0407    1.8916   -1.6538 C   0  0  0  0  0  0  0  0  0  0  0  0
   -4.2165    2.4603   -0.7085 H   0  0  0  0  0  0  0  0  0  0  0  0
   -4.9164    2.0836   -2.3237 H   0  0  0  0  0  0  0  0  0  0  0  0
   -4.9598   -0.1087   -0.7578 C   0  0  0  0  0  0  0  0  0  0  0  0
   -4.8881   -1.1905   -0.9966 H   0  0  0  0  0  0  0  0  0  0  0  0
   -5.9364    0.2511   -1.1672 H   0  0  0  0  0  0  0  0  0  0  0  0
   -4.9593    0.0949    0.7589 C   0  0  0  0  0  0  0  0  0  0  0  0
   -4.8898    1.1768    0.9976 H   0  0  0  0  0  0  0  0  0  0  0  0
   -5.9348   -0.2671    1.1692 H   0  0  0  0  0  0  0  0  0  0  0  0
   -4.0346   -1.9035    1.6537 C   0  0  0  0  0  0  0  0  0  0  0  0
   -4.2088   -2.4724    0.7082 H   0  0  0  0  0  0  0  0  0  0  0  0
   -4.9100   -2.0979    2.3233 H   0  0  0  0  0  0  0  0  0  0  0  0
   -2.7675   -2.4183    2.3255 C   0  0  0  0  0  0  0  0  0  0  0  0
   -2.5606   -1.8091    3.2280 H   0  0  0  0  0  0  0  0  0  0  0  0
   -2.9099   -3.4671    2.6528 H   0  0  0  0  0  0  0  0  0  0  0  0
   -0.7929   -1.2710    1.2805 C   0  0  0  0  0  3  0  0  0  0  0  0
   -0.8931   -0.3484    1.8643 H   0  0  0  0  0  0  0  0  0  0  0  0
   -1.1742   -3.3440    0.5722 C   0  0  0  0  0  0  0  0  0  0  0  0
   -0.0540   -2.7807   -0.1063 C   0  0  0  0  0  0  0  0  0  0  0  0
   -1.6324   -4.6456    0.3139 C   0  0  0  0  0  0  0  0  0  0  0  0
   -2.5009   -5.0740    0.8354 H   0  0  0  0  0  0  0  0  0  0  0  0
   -0.9262   -5.3810   -0.6471 C   0  0  0  0  0  0  0  0  0  0  0  0
   -1.2489   -6.4064   -0.8818 H   0  0  0  0  0  0  0  0  0  0  0  0
    0.1915   -4.8334   -1.3226 C   0  0  0  0  0  0  0  0  0  0  0  0
    0.7153   -5.4462   -2.0712 H   0  0  0  0  0  0  0  0  0  0  0  0
    0.6451   -3.5343   -1.0671 C   0  0  0  0  0  0  0  0  0  0  0  0
    1.4961   -3.0905   -1.6015 H   0  0  0  0  0  0  0  0  0  0  0  0
  1 25  1  0  0  0  0
  2 31  1  0  0  0  0
  3  7  1  0  0  0  0
  4  9  1  0  0  0  0
  4  8  1  0  0  0  0
  5 37  1  0  0  0  0
  6 34  1  0  0  0  0
  7 11  1  0  0  0  0
  8 17  1  0  0  0  0
  8  7  2  0  0  0  0
  9  3  1  0  0  0  0
 10  9  1  0  0  0  0
 11 13  2  0  0  0  0
 11 12  1  0  0  0  0
 13 14  1  0  0  0  0
 15 16  1  0  0  0  0
 15 13  1  0  0  0  0
 17 15  2  0  0  0  0
 18 17  1  0  0  0  0
 19 22  1  0  0  0  0
 19  4  1  0  0  0  0
 20 19  1  0  0  0  0
 21 19  1  0  0  0  0
 22  1  1  0  0  0  0
 22 23  1  0  0  0  0
 24 22  1  0  0  0  0
 25 28  1  0  0  0  0
 26 25  1  0  0  0  0
 27 25  1  0  0  0  0
 28 29  1  0  0  0  0
 28 30  1  0  0  0  0
 28  2  1  0  0  0  0
 31 33  1  0  0  0  0
 31 34  1  0  0  0  0
 32 31  1  0  0  0  0
 34 36  1  0  0  0  0
 34 35  1  0  0  0  0
 37  6  1  0  0  0  0
 37 38  1  0  0  0  0
 39  6  1  0  0  0  0
 40  5  1  0  0  0  0
 40 39  2  0  0  0  0
 41 39  1  0  0  0  0
 41 42  1  0  0  0  0
 43 41  2  0  0  0  0
 44 43  1  0  0  0  0
 45 47  2  0  0  0  0
 45 43  1  0  0  0  0
 46 45  1  0  0  0  0
 47 40  1  0  0  0  0
 48 47  1  0  0  0  0
M  END
