1,2
q = -1.0, confidence = 0.004

 47 50  0  0  0  0  0  0  0  0999 V2000
   -1.4765    0.0015    0.1617 N   0  0  0  0  0  0  0  0  0  0  0  0
    1.4608    0.0050   -0.1488 N   0  0  0  0  0  0  0  0  0  0  0  0
   -2.8272    1.5595    1.1253 N   0  0  0  0  0  0  0  0  0  0  0  0
    0.0122    2.8830    0.0201 N   0  3  0  0  0  0  0  0  0  0  0  0
    2.7952    1.5236   -1.1968 N   0  0  0  0  0  0  0  0  0  0  0  0
    2.7708   -0.3970    0.0783 C   0  0  0  0  0  0  0  0  0  0  0  0
   -1.5746    1.1521    0.9069 C   0  0  0  0  0  3  0  0  0  0  0  0
   -0.8865    4.8040   -1.4325 C   0  0  0  0  0  0  0  0  0  0  0  0
   -1.8251    5.3653   -1.6082 H   0  0  0  0  0  0  0  0  0  0  0  0
   -0.5963    4.3543   -2.4011 H   0  0  0  0  0  0  0  0  0  0  0  0
   -0.1135    5.5421   -1.1428 H   0  0  0  0  0  0  0  0  0  0  0  0
    1.5473    1.1385   -0.9224 C   0  0  0  0  0  0  0  0  0  0  0  0
    3.5934    0.5613   -0.6001 C   0  0  0  0  0  0  0  0  0  0  0  0
   -0.3933    1.9886    1.2196 C   0  0  0  0  0  0  0  0  0  0  0  0
    0.4818    1.3622    1.4712 H   0  0  0  0  0  0  0  0  0  0  0  0
   -0.6423    2.6752    2.0459 H   0  0  0  0  0  0  0  0  0  0  0  0
    1.2321    3.6961    0.4199 C   0  0  0  0  0  0  0  0  0  0  0  0
    1.6311    4.1406   -0.5111 H   0  0  0  0  0  0  0  0  0  0  0  0
    1.9875    2.9587    0.7455 H   0  0  0  0  0  0  0  0  0  0  0  0
   -2.7817   -0.3871   -0.1097 C   0  0  0  0  0  0  0  0  0  0  0  0
   -5.0189    0.5210    0.4039 C   0  0  0  0  0  0  0  0  0  0  0  0
   -5.6524    1.2882    0.8732 H   0  0  0  0  0  0  0  0  0  0  0  0
   -3.6152    0.5967    0.5169 C   0  0  0  0  0  0  0  0  0  0  0  0
    0.3716    1.9964   -1.1985 C   0  0  0  0  0  0  0  0  0  0  0  0
   -0.5225    1.3930   -1.4382 H   0  0  0  0  0  0  0  0  0  0  0  0
    0.6176    2.6866   -2.0222 H   0  0  0  0  0  0  0  0  0  0  0  0
    5.5519   -0.5783    0.2063 C   0  0  0  0  0  0  0  0  0  0  0  0
    6.6458   -0.6779    0.2748 H   0  0  0  0  0  0  0  0  0  0  0  0
    4.7288   -1.5057    0.8963 C   0  0  0  0  0  0  0  0  0  0  0  0
    5.2025   -2.3011    1.4915 H   0  0  0  0  0  0  0  0  0  0  0  0
    4.9988    0.4691   -0.5363 C   0  0  0  0  0  3  0  0  0  0  0  0
    5.6247    1.2182   -1.0435 H   0  0  0  0  0  0  0  0  0  0  0  0
    3.3331   -1.4308    0.8535 C   0  0  0  0  0  0  0  0  0  0  0  0
    2.6931   -2.1284    1.4060 H   0  0  0  0  0  0  0  0  0  0  0  0
   -1.1635    3.7681   -0.3556 C   0  0  0  0  0  0  0  0  0  0  0  0
   -1.9735    3.0785   -0.6542 H   0  0  0  0  0  0  0  0  0  0  0  0
   -1.5075    4.2412    0.5831 H   0  0  0  0  0  0  0  0  0  0  0  0
   -5.5587   -0.5346   -0.3359 C   0  0  0  0  0  0  0  0  0  0  0  0
   -6.6507   -0.6218   -0.4425 H   0  0  0  0  0  0  0  0  0  0  0  0
   -3.3297   -1.4309   -0.8819 C   0  0  0  0  0  0  0  0  0  0  0  0
   -2.6797   -2.1488   -1.3950 H   0  0  0  0  0  0  0  0  0  0  0  0
    0.9946    4.7497    1.4891 C   0  0  0  0  0  0  0  0  0  0  0  0
    1.9678    5.2308    1.7087 H   0  0  0  0  0  0  0  0  0  0  0  0
    0.6256    4.3235    2.4416 H   0  0  0  0  0  0  0  0  0  0  0  0
    0.2994    5.5500    1.1695 H   0  0  0  0  0  0  0  0  0  0  0  0
   -4.7235   -1.4881   -0.9746 C   0  0  0  0  0  0  0  0  0  0  0  0
   -5.1862   -2.2904   -1.5693 H   0  0  0  0  0  0  0  0  0  0  0  0
  1  7  1  0  0  0  0
  2  6  1  0  0  0  0
  4 17  1  0  0  0  0
  4 14  1  0  0  0  0
  5 12  1  0  0  0  0
  5 13  2  0  0  0  0
  6 33  2  0  0  0  0
  7  3  1  0  0  0  0
  7 14  1  0  0  0  0
  8 11  1  0  0  0  0
  8 35  1  0  0  0  0
  9  8  1  0  0  0  0
 10  8  1  0  0  0  0
 12  2  2  0  0  0  0
 13 31  1  0  0  0  0
 13  6  1  0  0  0  0
 14 15  1  0  0  0  0
 14 16  1  0  0  0  0
 17 19  1  0  0  0  0
 17 42  1  0  0  0  0
 18 17  1  0  0  0  0
 20  1  2  0  0  0  0
 20 23  1  0  0  0  0
 21 23  1  0  0  0  0
 21 22  1  0  0  0  0
 23  3  2  0  0  0  0
 24 12  1  0  0  0  0
 24  4  1  0  0  0  0
 25 24  1  0  0  0  0
 26 24  1  0  0  0  0
 27 28  1  0  0  0  0
 27 29  2  0  0  0  0
 29 30  1  0  0  0  0
 31 27  1  0  0  0  0
 32 31  1  0  0  0  0
 33 29  1  0  0  0  0
 33 34  1  0  0  0  0
 35  4  1  0  0  0  0
 35 37  1  0  0  0  0
 36 35  1  0  0  0  0
 38 21  2  0  0  0  0
 39 38  1  0  0  0  0
 40 20  1  0  0  0  0
 41 40  1  0  0  0  0
 42 43  1  0  0  0  0
 42 44  1  0  0  0  0
 45 42  1  0  0  0  0
 46 40  2  0  0  0  0
 46 38  1  0  0  0  0
 47 46  1  0  0  0  0
M  CHG  1   4   1
M  END
