7,9
q = 0.0, confidence = 1.0

 43 45  0  0  1  0  0  0  0  0999 V2000
    3.1651   -1.9269    0.1819 P   0  0  0  0  0  0  0  0  0  0  0  0
    3.1227   -3.0836    1.1405 O   0  0  0  0  0  0  0  0  0  0  0  0
    3.4581   -2.2868   -1.3791 O   0  0  0  0  0  0  0  0  0  0  0  0
    4.3587   -0.8435    0.4877 O   0  0  0  0  0  0  0  0  0  0  0  0
    3.3807    0.8851   -1.9042 O   0  0  0  0  0  0  0  0  0  0  0  0
    4.1822    1.0226   -2.4421 H   0  0  0  0  0  0  0  0  0  0  0  0
   -0.5942   -0.6202   -0.0373 N   0  0  0  0  0  2  0  0  0  0  0  0
    0.0828    0.5891   -0.0522 N   0  0  0  0  0  0  0  0  0  0  0  0
   -2.0291    1.5389   -0.1544 N   0  0  0  0  0  2  0  0  0  0  0  0
    0.3322   -1.5949    0.0135 C   0  0  2  0  0  3  0  0  0  0  0  0
    1.6338   -0.9954    0.0467 C   0  0  0  0  0  0  0  0  0  0  0  0
    1.4493    0.3890    0.0236 C   0  0  0  0  0  0  0  0  0  0  0  0
   -0.6843    1.7526   -0.2348 C   0  0  2  0  0  3  0  0  0  0  0  0
   -0.1493    3.0185   -0.5212 C   0  0  0  0  0  0  0  0  0  0  0  0
    0.9321    3.1492   -0.6277 H   0  0  0  0  0  0  0  0  0  0  0  0
   -1.0277    4.0962   -0.6709 C   0  0  0  0  0  0  0  0  0  0  0  0
   -0.6281    5.0958   -0.8948 H   0  0  0  0  0  0  0  0  0  0  0  0
   -2.4096    3.8821   -0.5418 C   0  0  0  0  0  0  0  0  0  0  0  0
   -3.1319    4.7034   -0.6467 H   0  0  0  0  0  0  0  0  0  0  0  0
   -2.8749    2.5922   -0.2974 C   0  0  0  0  0  0  0  0  0  0  0  0
   -3.9412    2.3213   -0.2096 H   0  0  0  0  0  0  0  0  0  0  0  0
    0.0198   -3.0466    0.0239 C   0  0  0  0  0  0  0  0  0  0  0  0
   -0.9745   -3.2329    0.4730 H   0  0  0  0  0  0  0  0  0  0  0  0
    0.8232   -3.5885    0.5571 H   0  0  0  0  0  0  0  0  0  0  0  0
   -0.0255   -3.4262   -1.0190 H   0  0  0  0  0  0  0  0  0  0  0  0
    2.4359    1.4727    0.1824 C   0  0  0  0  0  0  0  0  0  0  0  0
    3.4362    1.6690   -0.8039 C   0  0  0  0  0  0  0  0  0  0  0  0
    4.4184    2.6594   -0.6090 C   0  0  0  0  0  0  0  0  0  0  0  0
    5.1953    2.8057   -1.3768 H   0  0  0  0  0  0  0  0  0  0  0  0
    4.4064    3.4515    0.5463 C   0  0  0  0  0  0  0  0  0  0  0  0
    5.1814    4.2210    0.6804 H   0  0  0  0  0  0  0  0  0  0  0  0
    3.4175    3.2670    1.5273 C   0  0  0  0  0  0  0  0  0  0  0  0
    3.4115    3.8835    2.4374 H   0  0  0  0  0  0  0  0  0  0  0  0
    2.4449    2.2759    1.3417 C   0  0  0  0  0  0  0  0  0  0  0  0
    1.6716    2.1064    2.1064 H   0  0  0  0  0  0  0  0  0  0  0  0
    4.4926   -3.2420   -1.6579 C   0  0  0  0  0  0  0  0  0  0  0  0
    4.4637   -4.0797   -0.9309 H   0  0  0  0  0  0  0  0  0  0  0  0
    5.4916   -2.7584   -1.6176 H   0  0  0  0  0  0  0  0  0  0  0  0
    4.3116   -3.6287   -2.6782 H   0  0  0  0  0  0  0  0  0  0  0  0
    4.7518   -0.5988    1.8459 C   0  0  0  0  0  0  0  0  0  0  0  0
    4.2090    0.2835    2.2458 H   0  0  0  0  0  0  0  0  0  0  0  0
    5.8377   -0.3843    1.8441 H   0  0  0  0  0  0  0  0  0  0  0  0
    4.5478   -1.4859    2.4790 H   0  0  0  0  0  0  0  0  0  0  0  0
  1  4  1  0  0  0  0
  1  2  2  0  0  0  0
  3  1  1  0  0  0  0
  4 40  1  0  0  0  0
  5 27  1  0  0  0  0
  6  5  1  0  0  0  0
  7 10  1  0  0  0  0
  8  7  1  0  0  0  0
  8 12  1  0  0  0  0
 10 22  1  6  0  0  0
 10 11  1  0  0  0  0
 11  1  1  0  0  0  0
 12 11  2  0  0  0  0
 12 26  1  0  0  0  0
 13  9  1  0  0  0  0
 13  8  1  6  0  0  0
 14 13  1  0  0  0  0
 15 14  1  0  0  0  0
 16 18  1  0  0  0  0
 16 14  2  0  0  0  0
 17 16  1  0  0  0  0
 18 20  2  0  0  0  0
 19 18  1  0  0  0  0
 20 21  1  0  0  0  0
 20  9  1  0  0  0  0
 22 23  1  0  0  0  0
 22 24  1  0  0  0  0
 25 22  1  0  0  0  0
 26 34  1  0  0  0  0
 27 28  1  0  0  0  0
 27 26  2  0  0  0  0
 28 30  2  0  0  0  0
 29 28  1  0  0  0  0
 30 31  1  0  0  0  0
 30 32  1  0  0  0  0
 32 33  1  0  0  0  0
 34 32  2  0  0  0  0
 34 35  1  0  0  0  0
 36 38  1  0  0  0  0
 36  3  1  0  0  0  0
 36 37  1  0  0  0  0
 39 36  1  0  0  0  0
 40 41  1  0  0  0  0
 40 43  1  0  0  0  0
 42 40  1  0  0  0  0
M  END
