1,2
q = -1.0

 13 14  0  0  1  0  0  0  0  0999 V2000
   -1.2799   -0.0592    1.3895 N   0  0  0  0  0  0  0  0  0  0  0  0
   -0.5739   -1.7499   -0.6130 N   0  0  0  0  0  2  0  0  0  0  0  0
   -2.6278   -1.9158    0.6243 N   0  0  0  0  0  0  0  0  0  0  0  0
    0.0240   -2.4890   -1.5789 N   0  0  0  0  0  0  0  0  0  0  0  0
   -3.1687   -0.4588    2.4653 N   0  0  0  0  0  0  0  0  0  0  0  0
   -1.4198    0.8708    2.3662 N   0  0  0  0  0  2  0  0  0  0  0  0
   -1.8590   -3.3839   -1.1514 N   0  0  0  0  0  0  0  0  0  0  0  0
   -2.6236   -4.0484   -1.2819 H   0  0  0  0  0  0  0  0  0  0  0  0
   -2.5371    0.6203    2.9984 N   0  0  0  0  0  0  0  0  0  0  0  0
   -0.7287   -3.4682   -1.9207 N   0  0  0  0  0  0  0  0  0  0  0  0
   -1.7638   -2.3121   -0.3287 C   0  0  2  0  0  3  0  0  0  0  0  0
   -2.3704   -0.8408    1.4749 C   0  0  0  0  0  0  0  0  0  0  0  0
   -3.5401   -2.3618    0.7298 H   0  0  0  0  0  0  0  0  0  0  0  0
  1 12  2  0  0  0  0
  1  6  1  0  0  0  0
  2 11  1  0  0  0  0
  3 13  1  0  0  0  0
  3 12  1  0  0  0  0
  4  2  1  0  0  0  0
  5  9  2  0  0  0  0
  6  9  1  0  0  0  0
  7 11  1  0  0  0  0
  8  7  1  0  0  0  0
 10  4  2  0  0  0  0
 10  7  1  0  0  0  0
 11  3  1  1  0  0  0
 12  5  1  0  0  0  0
M  END
