1,2
q = 0.0, confidence = 0.986

 62 64  0  0  1  0  0  0  0  0999 V2000
    0.9824    0.8882   -1.0487 N   0  0  0  0  0  0  0  0  0  0  0  0
   -0.9824    0.8877    1.0488 N   0  0  0  0  0  0  0  0  0  0  0  0
    2.1889   -0.2459    1.5325 O   0  0  0  0  0  0  0  0  0  0  0  0
   -2.1888   -0.2442   -1.5336 O   0  0  0  0  0  0  0  0  0  0  0  0
    2.8692   -0.2681    0.2752 C   0  0  1  0  0  0  0  0  0  0  0  0
    2.3979    0.9514   -0.5406 C   0  0  0  0  0  0  0  0  0  0  0  0
   -2.3980    0.9506    0.5411 C   0  0  0  0  0  0  0  0  0  0  0  0
   -2.8689   -0.2681   -0.2763 C   0  0  1  0  0  0  0  0  0  0  0  0
    0.9772    0.6406   -2.5108 C   0  0  0  0  0  0  0  0  0  0  0  0
   -0.9765    0.6396    2.5108 C   0  0  0  0  0  0  0  0  0  0  0  0
    0.1870    2.1339   -0.7435 C   0  0  2  0  0  0  0  0  0  0  0  0
    0.8718    3.4386   -1.1938 C   0  0  0  0  0  0  0  0  0  0  0  0
    0.0927    4.6826   -0.7583 C   0  0  0  0  0  0  0  0  0  0  0  0
   -0.0935    4.6824    0.7593 C   0  0  0  0  0  0  0  0  0  0  0  0
   -0.8724    3.4382    1.1943 C   0  0  0  0  0  0  0  0  0  0  0  0
   -0.1874    2.1337    0.7437 C   0  0  1  0  0  0  0  0  0  0  0  0
    4.3766   -0.2013    0.4492 C   0  0  0  0  0  0  0  0  0  0  0  0
    4.9455    0.4036    1.5840 C   0  0  0  0  0  0  0  0  0  0  0  0
    6.3400    0.5041    1.7065 C   0  0  0  0  0  0  0  0  0  0  0  0
    7.1752    0.0009    0.6965 C   0  0  0  0  0  0  0  0  0  0  0  0
    6.6111   -0.6138   -0.4337 C   0  0  0  0  0  0  0  0  0  0  0  0
    5.2178   -0.7160   -0.5565 C   0  0  0  0  0  0  0  0  0  0  0  0
   -4.3764   -0.2015   -0.4500 C   0  0  0  0  0  0  0  0  0  0  0  0
   -4.9456    0.4039   -1.5844 C   0  0  0  0  0  0  0  0  0  0  0  0
   -6.3402    0.5041   -1.7066 C   0  0  0  0  0  0  0  0  0  0  0  0
   -7.1751   -0.0000   -0.6968 C   0  0  0  0  0  0  0  0  0  0  0  0
   -6.6106   -0.6152    0.4329 C   0  0  0  0  0  0  0  0  0  0  0  0
   -5.2173   -0.7171    0.5555 C   0  0  0  0  0  0  0  0  0  0  0  0
    1.6769   -1.0796    1.6224 H   0  0  0  0  0  0  0  0  0  0  0  0
   -1.6757   -1.0772   -1.6240 H   0  0  0  0  0  0  0  0  0  0  0  0
    2.6263   -1.1927   -0.2860 H   0  0  0  0  0  0  0  0  0  0  0  0
    3.0810    1.1162   -1.3979 H   0  0  0  0  0  0  0  0  0  0  0  0
    2.5136    1.8231    0.1319 H   0  0  0  0  0  0  0  0  0  0  0  0
   -2.5145    1.8232   -0.1302 H   0  0  0  0  0  0  0  0  0  0  0  0
   -3.0811    1.1138    1.3988 H   0  0  0  0  0  0  0  0  0  0  0  0
   -2.6257   -1.1932    0.2838 H   0  0  0  0  0  0  0  0  0  0  0  0
    1.5803   -0.2530   -2.7439 H   0  0  0  0  0  0  0  0  0  0  0  0
    1.4061    1.5078   -3.0564 H   0  0  0  0  0  0  0  0  0  0  0  0
   -0.0616    0.4655   -2.8434 H   0  0  0  0  0  0  0  0  0  0  0  0
    0.0625    0.4644    2.8428 H   0  0  0  0  0  0  0  0  0  0  0  0
   -1.5797   -0.2540    2.7440 H   0  0  0  0  0  0  0  0  0  0  0  0
   -1.4050    1.5067    3.0569 H   0  0  0  0  0  0  0  0  0  0  0  0
   -0.7497    2.0119   -1.3279 H   0  0  0  0  0  0  0  0  0  0  0  0
    1.8899    3.4992   -0.7556 H   0  0  0  0  0  0  0  0  0  0  0  0
    1.0026    3.4289   -2.2941 H   0  0  0  0  0  0  0  0  0  0  0  0
   -0.9033    4.7018   -1.2542 H   0  0  0  0  0  0  0  0  0  0  0  0
    0.6281    5.5940   -1.0942 H   0  0  0  0  0  0  0  0  0  0  0  0
    0.9025    4.7015    1.2552 H   0  0  0  0  0  0  0  0  0  0  0  0
   -0.6289    5.5936    1.0955 H   0  0  0  0  0  0  0  0  0  0  0  0
   -1.8905    3.4988    0.7560 H   0  0  0  0  0  0  0  0  0  0  0  0
   -1.0035    3.4281    2.2946 H   0  0  0  0  0  0  0  0  0  0  0  0
    0.7494    2.0120    1.3281 H   0  0  0  0  0  0  0  0  0  0  0  0
    4.2799    0.7682    2.3801 H   0  0  0  0  0  0  0  0  0  0  0  0
    6.7786    0.9729    2.6009 H   0  0  0  0  0  0  0  0  0  0  0  0
    8.2688    0.0765    0.7953 H   0  0  0  0  0  0  0  0  0  0  0  0
    7.2613   -1.0281   -1.2193 H   0  0  0  0  0  0  0  0  0  0  0  0
    4.7722   -1.2222   -1.4294 H   0  0  0  0  0  0  0  0  0  0  0  0
   -4.2802    0.7693   -2.3803 H   0  0  0  0  0  0  0  0  0  0  0  0
   -6.7790    0.9733   -2.6007 H   0  0  0  0  0  0  0  0  0  0  0  0
   -8.2687    0.0752   -0.7954 H   0  0  0  0  0  0  0  0  0  0  0  0
   -7.2606   -1.0302    1.2184 H   0  0  0  0  0  0  0  0  0  0  0  0
   -4.7714   -1.2237    1.4281 H   0  0  0  0  0  0  0  0  0  0  0  0
  1 11  1  0  0  0  0
  1  6  1  0  0  0  0
  2 10  1  0  0  0  0
  3 29  1  0  0  0  0
  4  8  1  0  0  0  0
  5 31  1  6  0  0  0
  5 17  1  0  0  0  0
  5  3  1  0  0  0  0
  6 33  1  0  0  0  0
  6  5  1  0  0  0  0
  7  2  1  0  0  0  0
  7 35  1  0  0  0  0
  8 36  1  1  0  0  0
  8  7  1  0  0  0  0
  9  1  1  0  0  0  0
 10 41  1  0  0  0  0
 10 40  1  0  0  0  0
 10 42  1  0  0  0  0
 11 43  1  6  0  0  0
 11 16  1  0  0  0  0
 12 13  1  0  0  0  0
 12 44  1  0  0  0  0
 12 11  1  0  0  0  0
 13 14  1  0  0  0  0
 14 49  1  0  0  0  0
 14 15  1  0  0  0  0
 14 48  1  0  0  0  0
 15 51  1  0  0  0  0
 16  2  1  0  0  0  0
 16 15  1  0  0  0  0
 16 52  1  1  0  0  0
 17 18  1  0  0  0  0
 18 19  2  0  0  0  0
 18 53  1  0  0  0  0
 19 54  1  0  0  0  0
 20 55  1  0  0  0  0
 20 19  1  0  0  0  0
 21 20  2  0  0  0  0
 22 21  1  0  0  0  0
 22 17  2  0  0  0  0
 23  8  1  0  0  0  0
 23 28  1  0  0  0  0
 24 23  2  0  0  0  0
 25 24  1  0  0  0  0
 25 26  2  0  0  0  0
 26 27  1  0  0  0  0
 27 28  2  0  0  0  0
 27 61  1  0  0  0  0
 28 62  1  0  0  0  0
 30  4  1  0  0  0  0
 32  6  1  0  0  0  0
 34  7  1  0  0  0  0
 37  9  1  0  0  0  0
 38  9  1  0  0  0  0
 39  9  1  0  0  0  0
 45 12  1  0  0  0  0
 46 13  1  0  0  0  0
 47 13  1  0  0  0  0
 50 15  1  0  0  0  0
 56 21  1  0  0  0  0
 57 22  1  0  0  0  0
 58 24  1  0  0  0  0
 59 25  1  0  0  0  0
 60 26  1  0  0  0  0
M  END
