7,28
q = 0.0, confidence = 1.0

 37 40  0  0  1  0  0  0  0  0999 V2000
    0.9562    2.6465   -1.2404 C   0  0  0  0  0  0  0  0  0  0  0  0
    0.9513    2.6014   -2.3530 H   0  0  0  0  0  0  0  0  0  0  0  0
    1.2535    3.6791   -0.9704 H   0  0  0  0  0  0  0  0  0  0  0  0
    3.3317    2.0796   -0.6729 N   0  0  0  0  0  0  0  0  0  0  0  0
    3.6809    3.0199   -0.8557 H   0  0  0  0  0  0  0  0  0  0  0  0
    2.0137    1.6911   -0.7532 C   0  0  2  0  0  3  0  0  0  0  0  0
    1.8757    0.4050   -0.4568 N   0  0  0  0  0  2  0  0  0  0  0  0
    3.5745   -1.3752    0.1818 C   0  0  0  0  0  0  0  0  0  0  0  0
    2.8458   -2.1995    0.2470 H   0  0  0  0  0  0  0  0  0  0  0  0
    4.9431   -1.5590    0.4089 C   0  0  0  0  0  0  0  0  0  0  0  0
    5.3107   -2.5584    0.6851 H   0  0  0  0  0  0  0  0  0  0  0  0
    5.8704   -0.4951    0.2876 C   0  0  0  0  0  0  0  0  0  0  0  0
    6.9371   -0.6873    0.4770 H   0  0  0  0  0  0  0  0  0  0  0  0
    5.4648    0.7966   -0.0735 C   0  0  0  0  0  0  0  0  0  0  0  0
    6.1875    1.6197   -0.1716 H   0  0  0  0  0  0  0  0  0  0  0  0
    4.0930    0.9788   -0.3036 C   0  0  0  0  0  0  0  0  0  0  0  0
    3.1514   -0.0807   -0.1734 C   0  0  0  0  0  0  0  0  0  0  0  0
   -2.2660    1.3035   -0.4581 N   0  0  0  0  0  0  0  0  0  0  0  0
   -1.0542    1.2456   -1.0719 N   0  0  0  0  0  0  0  0  0  0  0  0
   -0.4341    2.3831   -0.7390 C   0  0  0  0  0  0  0  0  0  0  0  0
   -1.2503    3.1819    0.1022 C   0  0  0  0  0  0  0  0  0  0  0  0
   -1.0057    4.1435    0.5655 H   0  0  0  0  0  0  0  0  0  0  0  0
   -2.4217    2.4532    0.2922 C   0  0  0  0  0  0  0  0  0  0  0  0
   -3.5683    2.7072    1.2104 C   0  0  0  0  0  0  0  0  0  0  0  0
   -4.5177    2.9274    0.6811 H   0  0  0  0  0  0  0  0  0  0  0  0
   -3.3332    3.5759    1.8519 H   0  0  0  0  0  0  0  0  0  0  0  0
   -3.7267    1.8306    1.8714 H   0  0  0  0  0  0  0  0  0  0  0  0
   -2.3812   -1.0177   -0.4815 N   0  0  0  0  0  2  0  0  0  0  0  0
   -3.0677    0.1325   -0.4876 C   0  0  2  0  0  3  0  0  0  0  0  0
   -4.4704    0.1749   -0.5423 C   0  0  0  0  0  0  0  0  0  0  0  0
   -5.0066    1.1309   -0.5882 H   0  0  0  0  0  0  0  0  0  0  0  0
   -5.1562   -1.0477   -0.5745 C   0  0  0  0  0  0  0  0  0  0  0  0
   -6.2557   -1.0553   -0.6167 H   0  0  0  0  0  0  0  0  0  0  0  0
   -4.4345   -2.2511   -0.5756 C   0  0  0  0  0  0  0  0  0  0  0  0
   -4.9449   -3.2240   -0.6070 H   0  0  0  0  0  0  0  0  0  0  0  0
   -3.0338   -2.1870   -0.5361 C   0  0  0  0  0  0  0  0  0  0  0  0
   -2.3839   -3.0804   -0.5300 H   0  0  0  0  0  0  0  0  0  0  0  0
  1  3  1  0  0  0  0
  1 20  1  0  0  0  0
  2  1  1  0  0  0  0
  4 16  1  0  0  0  0
  5  4  1  0  0  0  0
  6  1  1  6  0  0  0
  6  4  1  0  0  0  0
  6  7  1  0  0  0  0
  7 17  1  0  0  0  0
  8  9  1  0  0  0  0
  8 10  1  0  0  0  0
 10 11  1  0  0  0  0
 12 10  2  0  0  0  0
 12 13  1  0  0  0  0
 14 12  1  0  0  0  0
 15 14  1  0  0  0  0
 16 17  1  0  0  0  0
 16 14  2  0  0  0  0
 17  8  2  0  0  0  0
 18 23  1  0  0  0  0
 19 20  2  0  0  0  0
 19 18  1  0  0  0  0
 20 21  1  0  0  0  0
 21 23  2  0  0  0  0
 21 22  1  0  0  0  0
 23 24  1  0  0  0  0
 24 26  1  0  0  0  0
 24 27  1  0  0  0  0
 25 24  1  0  0  0  0
 29 28  1  0  0  0  0
 29 18  1  6  0  0  0
 30 29  1  0  0  0  0
 31 30  1  0  0  0  0
 32 30  2  0  0  0  0
 33 32  1  0  0  0  0
 34 32  1  0  0  0  0
 34 36  2  0  0  0  0
 35 34  1  0  0  0  0
 36 37  1  0  0  0  0
 36 28  1  0  0  0  0
M  END
