1,4
q = 0.0, confidence = 0.996

 54 56  0  0  1  0  0  0  0  0999 V2000
   -2.6548    1.0539    0.0186 N   0  0  0  0  0  2  0  0  0  0  0  0
   -0.5767    2.2054    0.2201 N   0  0  0  0  0  0  0  0  0  0  0  0
   -0.1916    3.1306    0.4117 H   0  0  0  0  0  0  0  0  0  0  0  0
    0.1708   -0.0436    0.0319 N   0  0  0  0  0  2  0  0  0  0  0  0
   -4.0081    1.1008    0.0808 C   0  0  0  0  0  3  0  0  0  0  0  0
   -4.4980    0.1345   -0.1367 H   0  0  0  0  0  0  0  0  0  0  0  0
   -4.7208    2.2675    0.3590 C   0  0  0  0  0  0  0  0  0  0  0  0
   -5.8187    2.2397    0.3923 H   0  0  0  0  0  0  0  0  0  0  0  0
   -4.0058    3.4559    0.5847 C   0  0  0  0  0  0  0  0  0  0  0  0
   -4.5257    4.4007    0.8032 H   0  0  0  0  0  0  0  0  0  0  0  0
   -2.6147    3.4189    0.5320 C   0  0  0  0  0  0  0  0  0  0  0  0
   -2.0142    4.3239    0.7109 H   0  0  0  0  0  0  0  0  0  0  0  0
   -1.9697    2.1889    0.2495 C   0  0  0  0  0  0  0  0  0  0  0  0
    0.4102    1.2358    0.1961 C   0  0  1  0  0  3  0  0  0  0  0  0
    1.7729    1.8562    0.3213 C   0  0  0  0  0  0  0  0  0  0  0  0
    2.0648    2.9892   -0.4752 C   0  0  0  0  0  0  0  0  0  0  0  0
    1.3190    3.3575   -1.1970 H   0  0  0  0  0  0  0  0  0  0  0  0
    3.3151    3.6183   -0.3998 C   0  0  0  0  0  0  0  0  0  0  0  0
    3.5267    4.4869   -1.0411 H   0  0  0  0  0  0  0  0  0  0  0  0
    4.2957    3.1275    0.4750 C   0  0  0  0  0  0  0  0  0  0  0  0
    5.2796    3.6164    0.5343 H   0  0  0  0  0  0  0  0  0  0  0  0
    4.0153    2.0043    1.2693 C   0  0  0  0  0  0  0  0  0  0  0  0
    4.7770    1.6117    1.9591 H   0  0  0  0  0  0  0  0  0  0  0  0
    2.7689    1.3689    1.1948 C   0  0  0  0  0  0  0  0  0  0  0  0
    2.5710    0.4909    1.8203 H   0  0  0  0  0  0  0  0  0  0  0  0
    1.2784   -0.9503    0.1269 C   0  0  0  0  0  0  0  0  0  0  0  0
    2.2274   -1.0478   -0.9222 C   0  0  0  0  0  0  0  0  0  0  0  0
    3.2897   -1.9581   -0.7609 C   0  0  0  0  0  0  0  0  0  0  0  0
    4.0400   -2.0508   -1.5606 H   0  0  0  0  0  0  0  0  0  0  0  0
    3.4070   -2.7454    0.3889 C   0  0  0  0  0  0  0  0  0  0  0  0
    4.2501   -3.4445    0.4956 H   0  0  0  0  0  0  0  0  0  0  0  0
    2.4337   -2.6609    1.3940 C   0  0  0  0  0  0  0  0  0  0  0  0
    2.5158   -3.3049    2.2811 H   0  0  0  0  0  0  0  0  0  0  0  0
    1.3456   -1.7781    1.2825 C   0  0  0  0  0  0  0  0  0  0  0  0
    0.2635   -1.7068    2.3557 C   0  0  0  0  0  0  0  0  0  0  0  0
   -0.6897   -1.5015    1.8142 H   0  0  0  0  0  0  0  0  0  0  0  0
    0.0780   -3.0233    3.1188 C   0  0  0  0  0  0  0  0  0  0  0  0
   -0.0575   -3.8775    2.4259 H   0  0  0  0  0  0  0  0  0  0  0  0
   -0.8216   -2.9635    3.7636 H   0  0  0  0  0  0  0  0  0  0  0  0
    0.9392   -3.2515    3.7815 H   0  0  0  0  0  0  0  0  0  0  0  0
    0.4812   -0.5396    3.3361 C   0  0  0  0  0  0  0  0  0  0  0  0
    1.4440   -0.6462    3.8795 H   0  0  0  0  0  0  0  0  0  0  0  0
   -0.3309   -0.5133    4.0915 H   0  0  0  0  0  0  0  0  0  0  0  0
    0.4848    0.4434    2.8253 H   0  0  0  0  0  0  0  0  0  0  0  0
    2.1141   -0.2419   -2.2126 C   0  0  0  0  0  0  0  0  0  0  0  0
    1.3427    0.5386   -2.0619 H   0  0  0  0  0  0  0  0  0  0  0  0
    3.4303    0.4678   -2.5702 C   0  0  0  0  0  0  0  0  0  0  0  0
    3.8142    1.0713   -1.7248 H   0  0  0  0  0  0  0  0  0  0  0  0
    3.2823    1.1430   -3.4376 H   0  0  0  0  0  0  0  0  0  0  0  0
    4.2198   -0.2583   -2.8543 H   0  0  0  0  0  0  0  0  0  0  0  0
    1.6253   -1.1254   -3.3757 C   0  0  0  0  0  0  0  0  0  0  0  0
    2.3289   -1.9630   -3.5621 H   0  0  0  0  0  0  0  0  0  0  0  0
    1.5493   -0.5305   -4.3091 H   0  0  0  0  0  0  0  0  0  0  0  0
    0.6283   -1.5565   -3.1623 H   0  0  0  0  0  0  0  0  0  0  0  0
  1  5  1  0  0  0  0
  1 13  1  0  0  0  0
  2 13  1  0  0  0  0
  2  3  1  0  0  0  0
  4 26  1  0  0  0  0
  5  7  1  0  0  0  0
  6  5  1  0  0  0  0
  7  8  1  0  0  0  0
  7  9  2  0  0  0  0
  9 10  1  0  0  0  0
 11  9  1  0  0  0  0
 11 12  1  0  0  0  0
 13 11  2  0  0  0  0
 14  4  1  6  0  0  0
 14  2  1  0  0  0  0
 14 15  1  0  0  0  0
 15 24  1  0  0  0  0
 16 18  1  0  0  0  0
 16 15  2  0  0  0  0
 17 16  1  0  0  0  0
 18 20  2  0  0  0  0
 19 18  1  0  0  0  0
 20 21  1  0  0  0  0
 20 22  1  0  0  0  0
 22 23  1  0  0  0  0
 24 22  2  0  0  0  0
 24 25  1  0  0  0  0
 26 34  1  0  0  0  0
 27 28  1  0  0  0  0
 27 26  2  0  0  0  0
 28 30  2  0  0  0  0
 29 28  1  0  0  0  0
 30 31  1  0  0  0  0
 30 32  1  0  0  0  0
 32 33  1  0  0  0  0
 34 32  2  0  0  0  0
 34 35  1  0  0  0  0
 35 37  1  0  0  0  0
 35 41  1  0  0  0  0
 36 35  1  0  0  0  0
 37 39  1  0  0  0  0
 37 40  1  0  0  0  0
 38 37  1  0  0  0  0
 41 42  1  0  0  0  0
 41 43  1  0  0  0  0
 44 41  1  0  0  0  0
 45 46  1  0  0  0  0
 45 27  1  0  0  0  0
 47 45  1  0  0  0  0
 47 48  1  0  0  0  0
 49 47  1  0  0  0  0
 50 47  1  0  0  0  0
 51 54  1  0  0  0  0
 51 45  1  0  0  0  0
 52 51  1  0  0  0  0
 53 51  1  0  0  0  0
M  END
