27,28
q = 0.0, confidence = 0.998

 32 36  0  0  0  0  0  0  0  0999 V2000
    9.0784    0.6821   -0.2141 Br  0  0  0  0  0  0  0  0  0  0  0  0
   -1.9356    2.0518   -1.5211 C   0  0  0  0  0  0  0  0  0  0  0  0
   -2.8863    2.4715   -1.8750 H   0  0  0  0  0  0  0  0  0  0  0  0
   -0.7068    2.6801   -1.8098 C   0  0  0  0  0  0  0  0  0  0  0  0
   -0.7133    3.6212   -2.3771 H   0  0  0  0  0  0  0  0  0  0  0  0
    0.4878    2.1008   -1.3877 C   0  0  0  0  0  0  0  0  0  0  0  0
    1.4657    2.5577   -1.5961 H   0  0  0  0  0  0  0  0  0  0  0  0
    0.4345    0.8718   -0.6922 C   0  0  0  0  0  0  0  0  0  0  0  0
    1.5784    0.1262   -0.2411 C   0  0  0  0  0  0  0  0  0  0  0  0
    1.4204   -1.1314    0.3928 C   0  0  0  0  0  0  0  0  0  0  0  0
    0.1502   -1.7402    0.6313 C   0  0  0  0  0  0  0  0  0  0  0  0
   -0.1007   -3.0119    1.2052 C   0  0  0  0  0  0  0  0  0  0  0  0
    0.7289   -3.6491    1.5448 H   0  0  0  0  0  0  0  0  0  0  0  0
   -1.4145   -3.4598    1.3141 C   0  0  0  0  0  0  0  0  0  0  0  0
   -1.6412   -4.4500    1.7329 H   0  0  0  0  0  0  0  0  0  0  0  0
   -2.4772   -2.6444    0.8771 C   0  0  0  0  0  0  0  0  0  0  0  0
   -3.5191   -2.9860    0.9273 H   0  0  0  0  0  0  0  0  0  0  0  0
   -0.9858   -0.9709    0.2159 C   0  0  0  0  0  0  0  0  0  0  0  0
   -0.8436    0.3007   -0.4313 C   0  0  0  0  0  0  0  0  0  0  0  0
    3.5704   -0.5623    0.1895 C   0  0  0  0  0  0  0  0  0  0  0  0
    5.0045   -0.6413    0.2896 C   0  0  0  0  0  0  0  0  0  0  0  0
    5.8173   -1.6388    0.8298 C   0  0  0  0  0  0  0  0  0  0  0  0
    5.4347   -2.5645    1.2833 H   0  0  0  0  0  0  0  0  0  0  0  0
    7.2012   -1.3445    0.7374 C   0  0  0  0  0  0  0  0  0  0  0  0
    8.0081   -1.9936    1.0999 H   0  0  0  0  0  0  0  0  0  0  0  0
    7.4260   -0.1180    0.1238 C   0  0  0  0  0  0  0  0  0  0  0  0
   -2.0068    0.9070   -0.8225 N   0  0  0  0  0  2  0  0  0  0  0  0
   -2.2675   -1.4198    0.3667 N   0  0  0  0  0  2  0  0  0  0  0  0
    2.8967    0.4565   -0.3564 N   0  0  0  0  0  0  0  0  0  0  0  0
    2.7084   -1.5480    0.6553 N   0  0  0  0  0  0  0  0  0  0  0  0
    2.9882   -2.4197    1.1045 H   0  0  0  0  0  0  0  0  0  0  0  0
    5.9565    0.6829   -0.3440 S   0  0  0  0  0  0  0  0  0  0  0  0
  1 26  1  0  0  0  0
  2 27  1  0  0  0  0
  3  2  1  0  0  0  0
  4  2  2  0  0  0  0
  4  6  1  0  0  0  0
  5  4  1  0  0  0  0
  6  8  2  0  0  0  0
  7  6  1  0  0  0  0
  8 19  1  0  0  0  0
  8  9  1  0  0  0  0
  9 10  2  0  0  0  0
 10 11  1  0  0  0  0
 10 30  1  0  0  0  0
 11 12  2  0  0  0  0
 12 14  1  0  0  0  0
 12 13  1  0  0  0  0
 14 15  1  0  0  0  0
 16 17  1  0  0  0  0
 16 14  2  0  0  0  0
 18 28  1  0  0  0  0
 18 11  1  0  0  0  0
 19 18  2  0  0  0  0
 20 21  1  0  0  0  0
 20 30  1  0  0  0  0
 21 22  2  0  0  0  0
 22 23  1  0  0  0  0
 24 22  1  0  0  0  0
 24 25  1  0  0  0  0
 26 24  2  0  0  0  0
 27 19  1  0  0  0  0
 28 16  1  0  0  0  0
 29  9  1  0  0  0  0
 29 20  2  0  0  0  0
 30 31  1  0  0  0  0
 32 26  1  0  0  0  0
 32 21  1  0  0  0  0
M  END
