4,5
q = -1.0

 31 32  0  0  1  0  0  0  0  0999 V2000
   -0.7042   -3.1707    0.5491 S   0  0  0  0  0  0  0  0  0  0  0  0
   -0.8269   -2.8131    1.9887 O   0  0  0  0  0  0  0  0  0  0  0  0
   -1.3361   -4.4181    0.0423 O   0  0  0  0  0  0  0  0  0  0  0  0
   -2.5444    0.0459   -1.3959 N   0  0  0  0  0  2  0  0  0  0  0  0
   -1.3194   -1.9164   -0.3242 N   0  0  0  0  0  2  0  0  0  0  0  0
   -2.6526   -1.1049   -2.1084 C   0  0  1  0  0  3  0  0  0  0  0  0
   -3.6029   -1.2342   -3.1314 C   0  0  0  0  0  0  0  0  0  0  0  0
   -3.6711   -2.1798   -3.6882 H   0  0  0  0  0  0  0  0  0  0  0  0
   -4.4545   -0.1578   -3.4120 C   0  0  0  0  0  0  0  0  0  0  0  0
   -5.2109   -0.2397   -4.2070 H   0  0  0  0  0  0  0  0  0  0  0  0
   -4.3344    1.0191   -2.6581 C   0  0  0  0  0  0  0  0  0  0  0  0
   -4.9812    1.8882   -2.8423 H   0  0  0  0  0  0  0  0  0  0  0  0
   -3.3632    1.0858   -1.6554 C   0  0  0  0  0  0  0  0  0  0  0  0
   -3.1977    1.9766   -1.0333 H   0  0  0  0  0  0  0  0  0  0  0  0
   -1.6728   -2.1723   -1.7082 C   0  0  0  0  0  0  0  0  0  0  0  0
   -2.1050   -3.1868   -1.8367 H   0  0  0  0  0  0  0  0  0  0  0  0
   -0.7971   -2.0973   -2.4066 H   0  0  0  0  0  0  0  0  0  0  0  0
    1.0606   -3.3121    0.2080 C   0  0  0  0  0  0  0  0  0  0  0  0
    1.5190   -3.4710   -1.1097 C   0  0  0  0  0  0  0  0  0  0  0  0
    0.8055   -3.5763   -1.9390 H   0  0  0  0  0  0  0  0  0  0  0  0
    2.8974   -3.5054   -1.3582 C   0  0  0  0  0  0  0  0  0  0  0  0
    3.2582   -3.6142   -2.3935 H   0  0  0  0  0  0  0  0  0  0  0  0
    3.8368   -3.4098   -0.3093 C   0  0  0  0  0  0  0  0  0  0  0  0
    3.3449   -3.3145    1.0093 C   0  0  0  0  0  0  0  0  0  0  0  0
    4.0603   -3.2652    1.8456 H   0  0  0  0  0  0  0  0  0  0  0  0
    1.9712   -3.2574    1.2723 C   0  0  0  0  0  0  0  0  0  0  0  0
    1.5820   -3.1582    2.2953 H   0  0  0  0  0  0  0  0  0  0  0  0
    5.3144   -3.3503   -0.5819 C   0  0  0  0  0  0  0  0  0  0  0  0
    5.5645   -3.7248   -1.5935 H   0  0  0  0  0  0  0  0  0  0  0  0
    5.8922   -3.9345    0.1621 H   0  0  0  0  0  0  0  0  0  0  0  0
    5.6526   -2.2929   -0.5094 H   0  0  0  0  0  0  0  0  0  0  0  0
  1  2  2  0  0  0  0
  3  1  2  0  0  0  0
  5  1  1  0  0  0  0
  6 15  1  6  0  0  0
  6  4  1  0  0  0  0
  7  6  1  0  0  0  0
  8  7  1  0  0  0  0
  9  7  2  0  0  0  0
  9 11  1  0  0  0  0
 10  9  1  0  0  0  0
 11 13  2  0  0  0  0
 12 11  1  0  0  0  0
 13  4  1  0  0  0  0
 13 14  1  0  0  0  0
 15  5  1  0  0  0  0
 16 15  1  0  0  0  0
 17 15  1  0  0  0  0
 18  1  1  0  0  0  0
 18 26  1  0  0  0  0
 19 18  2  0  0  0  0
 20 19  1  0  0  0  0
 21 19  1  0  0  0  0
 21 23  2  0  0  0  0
 22 21  1  0  0  0  0
 23 24  1  0  0  0  0
 24 26  2  0  0  0  0
 24 25  1  0  0  0  0
 26 27  1  0  0  0  0
 28 31  1  0  0  0  0
 28 23  1  0  0  0  0
 28 30  1  0  0  0  0
 29 28  1  0  0  0  0
M  END
