3,17
q = 0.0, confidence = 0.996

 31 32  0  0  1  0  0  0  0  0999 V2000
    2.8178    1.0985    1.3454 O   0  0  0  0  0  0  0  0  0  0  0  0
    2.6003    1.5979    2.1572 H   0  0  0  0  0  0  0  0  0  0  0  0
   -0.4043    1.5517   -0.3615 N   0  0  0  0  0  2  0  0  0  0  0  0
    0.8295    1.8235    0.1256 C   0  0  1  0  0  3  0  0  0  0  0  0
    1.5733    0.6721    0.8331 C   0  0  1  0  0  0  0  0  0  0  0  0
   -1.1287    2.5354   -0.9415 C   0  0  0  0  0  0  0  0  0  0  0  0
   -2.1436    2.2438   -1.2534 H   0  0  0  0  0  0  0  0  0  0  0  0
    0.9662   -2.0079   -1.6714 C   0  0  0  0  0  3  0  0  0  0  0  0
    0.0410   -2.4721   -2.0439 H   0  0  0  0  0  0  0  0  0  0  0  0
    3.1734   -0.8121   -0.5239 C   0  0  0  0  0  0  0  0  0  0  0  0
    4.0097   -0.3142   -0.0181 H   0  0  0  0  0  0  0  0  0  0  0  0
    1.8668   -0.4275   -0.1976 C   0  0  0  0  0  0  0  0  0  0  0  0
    3.3658   -1.8257   -1.4724 C   0  0  0  0  0  0  0  0  0  0  0  0
    4.3825   -2.1429   -1.7485 H   0  0  0  0  0  0  0  0  0  0  0  0
    2.2430   -2.4329   -2.0517 C   0  0  0  0  0  0  0  0  0  0  0  0
    2.3430   -3.2385   -2.7928 H   0  0  0  0  0  0  0  0  0  0  0  0
    0.7887   -1.0116   -0.7723 N   0  0  0  0  0  2  0  0  0  0  0  0
   -0.6206    3.8304   -1.0903 C   0  0  0  0  0  0  0  0  0  0  0  0
   -1.2402    4.5996   -1.5725 H   0  0  0  0  0  0  0  0  0  0  0  0
    1.4055    3.0920   -0.0090 C   0  0  0  0  0  0  0  0  0  0  0  0
    2.4214    3.2534    0.3745 H   0  0  0  0  0  0  0  0  0  0  0  0
    0.6717    4.1134   -0.6286 C   0  0  0  0  0  0  0  0  0  0  0  0
    1.1042    5.1185   -0.7438 H   0  0  0  0  0  0  0  0  0  0  0  0
    0.7120    0.2655    1.8610 O   0  0  0  0  0  0  0  0  0  0  0  0
    0.9499   -1.0175    2.4779 C   0  0  0  0  0  0  0  0  0  0  0  0
    1.9532   -1.0150    2.9608 H   0  0  0  0  0  0  0  0  0  0  0  0
    0.9359   -1.8135    1.7023 H   0  0  0  0  0  0  0  0  0  0  0  0
   -0.1700   -1.2485    3.4710 C   0  0  0  0  0  0  0  0  0  0  0  0
   -0.0222   -2.2161    3.9899 H   0  0  0  0  0  0  0  0  0  0  0  0
   -1.1414   -1.2800    2.9390 H   0  0  0  0  0  0  0  0  0  0  0  0
   -0.2038   -0.4424    4.2305 H   0  0  0  0  0  0  0  0  0  0  0  0
  1  2  1  0  0  0  0
  3  4  1  0  0  0  0
  4  5  1  6  0  0  0
  5  1  1  1  0  0  0
  5 24  1  0  0  0  0
  6  3  1  0  0  0  0
  7  6  1  0  0  0  0
  8 17  1  0  0  0  0
  9  8  1  0  0  0  0
 10 12  2  0  0  0  0
 10 11  1  0  0  0  0
 12  5  1  0  0  0  0
 13 10  1  0  0  0  0
 14 13  1  0  0  0  0
 15  8  1  0  0  0  0
 15 13  2  0  0  0  0
 16 15  1  0  0  0  0
 17 12  1  0  0  0  0
 18  6  2  0  0  0  0
 18 22  1  0  0  0  0
 19 18  1  0  0  0  0
 20  4  1  0  0  0  0
 20 21  1  0  0  0  0
 22 20  2  0  0  0  0
 23 22  1  0  0  0  0
 24 25  1  0  0  0  0
 25 26  1  0  0  0  0
 25 28  1  0  0  0  0
 27 25  1  0  0  0  0
 28 29  1  0  0  0  0
 28 31  1  0  0  0  0
 30 28  1  0  0  0  0
M  END
