3,4
q = 0.0, confidence = 0.996

 43 46  0  0  1  0  0  0  0  0999 V2000
    1.5475    1.5131   -0.2629 O   0  0  0  0  0  0  0  0  0  0  0  0
   -1.5475    1.5130   -0.2628 O   0  0  0  0  0  0  0  0  0  0  0  0
    2.1064   -1.1590   -0.2650 N   0  0  0  0  0  2  0  0  0  0  0  0
   -2.1063   -1.1591   -0.2647 N   0  0  0  0  0  2  0  0  0  0  0  0
    2.4097   -2.4611   -0.3436 C   0  0  0  0  0  0  0  0  0  0  0  0
    3.6854   -2.9791   -0.0301 C   0  0  0  0  0  0  0  0  0  0  0  0
    4.6709   -2.1052    0.3990 C   0  0  0  0  0  0  0  0  0  0  0  0
    4.3959   -0.7131    0.4888 C   0  0  0  0  0  0  0  0  0  0  0  0
    5.3755    0.2284    0.9135 C   0  0  0  0  0  0  0  0  0  0  0  0
    5.0561    1.5736    0.9650 C   0  0  0  0  0  0  0  0  0  0  0  0
    3.7704    2.0349    0.5835 C   0  0  0  0  0  0  0  0  0  0  0  0
    2.7876    1.1427    0.1556 C   0  0  0  0  0  0  0  0  0  0  0  0
    3.0748   -0.2678    0.1220 C   0  0  1  0  0  3  0  0  0  0  0  0
    1.2986    2.9097   -0.4767 C   0  0  0  0  0  0  0  0  0  0  0  0
   -0.0001    3.1060   -1.2408 C   0  0  0  0  0  0  0  0  0  0  0  0
   -1.2988    2.9096   -0.4768 C   0  0  0  0  0  0  0  0  0  0  0  0
   -2.7876    1.1426    0.1556 C   0  0  0  0  0  0  0  0  0  0  0  0
   -3.7705    2.0348    0.5832 C   0  0  0  0  0  0  0  0  0  0  0  0
   -5.0563    1.5736    0.9646 C   0  0  0  0  0  0  0  0  0  0  0  0
   -5.3755    0.2284    0.9133 C   0  0  0  0  0  0  0  0  0  0  0  0
   -4.3959   -0.7132    0.4888 C   0  0  0  0  0  0  0  0  0  0  0  0
   -4.6708   -2.1053    0.3991 C   0  0  0  0  0  0  0  0  0  0  0  0
   -3.6853   -2.9792   -0.0297 C   0  0  0  0  0  0  0  0  0  0  0  0
   -2.4096   -2.4612   -0.3431 C   0  0  0  0  0  0  0  0  0  0  0  0
   -3.0748   -0.2679    0.1221 C   0  0  1  0  0  3  0  0  0  0  0  0
    1.6038   -3.1379   -0.6655 H   0  0  0  0  0  0  0  0  0  0  0  0
    3.8694   -4.0586   -0.1197 H   0  0  0  0  0  0  0  0  0  0  0  0
    5.6731   -2.4707    0.6703 H   0  0  0  0  0  0  0  0  0  0  0  0
    6.3763   -0.1304    1.1933 H   0  0  0  0  0  0  0  0  0  0  0  0
    5.8042    2.3079    1.2975 H   0  0  0  0  0  0  0  0  0  0  0  0
    3.5619    3.1109    0.6311 H   0  0  0  0  0  0  0  0  0  0  0  0
    2.1409    3.3340   -1.0654 H   0  0  0  0  0  0  0  0  0  0  0  0
    1.2678    3.4374    0.5039 H   0  0  0  0  0  0  0  0  0  0  0  0
   -0.0001    4.1583   -1.5944 H   0  0  0  0  0  0  0  0  0  0  0  0
   -0.0000    2.4753   -2.1547 H   0  0  0  0  0  0  0  0  0  0  0  0
   -1.2681    3.4375    0.5039 H   0  0  0  0  0  0  0  0  0  0  0  0
   -2.1411    3.3338   -1.0655 H   0  0  0  0  0  0  0  0  0  0  0  0
   -3.5620    3.1109    0.6307 H   0  0  0  0  0  0  0  0  0  0  0  0
   -5.8044    2.3079    1.2970 H   0  0  0  0  0  0  0  0  0  0  0  0
   -6.3764   -0.1304    1.1930 H   0  0  0  0  0  0  0  0  0  0  0  0
   -5.6731   -2.4708    0.6704 H   0  0  0  0  0  0  0  0  0  0  0  0
   -3.8692   -4.0587   -0.1191 H   0  0  0  0  0  0  0  0  0  0  0  0
   -1.6036   -3.1380   -0.6648 H   0  0  0  0  0  0  0  0  0  0  0  0
  1 12  1  0  0  0  0
  2 17  1  0  0  0  0
  5  3  1  0  0  0  0
  5  6  2  0  0  0  0
  6  7  1  0  0  0  0
  7  8  2  0  0  0  0
  7 28  1  0  0  0  0
  8  9  1  0  0  0  0
  9 10  2  0  0  0  0
  9 29  1  0  0  0  0
 10 30  1  0  0  0  0
 11 31  1  0  0  0  0
 11 10  1  0  0  0  0
 12 11  2  0  0  0  0
 13  3  1  6  0  0  0
 13 12  1  0  0  0  0
 13  8  1  0  0  0  0
 14  1  1  0  0  0  0
 14 33  1  0  0  0  0
 15 16  1  0  0  0  0
 15 14  1  0  0  0  0
 16  2  1  0  0  0  0
 16 36  1  0  0  0  0
 17 18  2  0  0  0  0
 18 38  1  0  0  0  0
 18 19  1  0  0  0  0
 19 39  1  0  0  0  0
 20 19  2  0  0  0  0
 20 40  1  0  0  0  0
 21 20  1  0  0  0  0
 22 21  2  0  0  0  0
 22 41  1  0  0  0  0
 23 22  1  0  0  0  0
 24  4  1  0  0  0  0
 24 23  2  0  0  0  0
 25  4  1  6  0  0  0
 25 17  1  0  0  0  0
 25 21  1  0  0  0  0
 26  5  1  0  0  0  0
 27  6  1  0  0  0  0
 32 14  1  0  0  0  0
 34 15  1  0  0  0  0
 35 15  1  0  0  0  0
 37 16  1  0  0  0  0
 42 23  1  0  0  0  0
 43 24  1  0  0  0  0
M  END
