1,3
q = -1.0

 41 44  0  0  0  0  0  0  0  0999 V2000
   -0.2489    0.9156   -0.0503 N   0  0  0  0  0  0  0  0  0  0  0  0
    1.1810    2.8394    0.2350 N   0  0  0  0  0  0  0  0  0  0  0  0
    2.3705    0.8817    1.0536 N   0  0  0  0  0  2  0  0  0  0  0  0
   -2.0964   -0.4967   -0.3864 N   0  0  0  0  0  2  0  0  0  0  0  0
   -4.1775   -0.4592    0.7016 N   0  0  0  0  0  0  0  0  0  0  0  0
    0.0272    2.2530    0.0249 C   0  0  0  0  0  0  0  0  0  0  0  0
   -1.2354    2.9941   -0.1601 C   0  0  0  0  0  0  0  0  0  0  0  0
   -2.2714    2.0414   -0.2906 C   0  0  0  0  0  3  0  0  0  0  0  0
   -1.6237    0.6985   -0.2316 C   0  0  0  0  0  0  0  0  0  0  0  0
   -1.4782    4.3689   -0.2074 C   0  0  0  0  0  0  0  0  0  0  0  0
   -0.6490    5.0824   -0.0971 H   0  0  0  0  0  0  0  0  0  0  0  0
   -2.8055    4.7876   -0.4083 C   0  0  0  0  0  0  0  0  0  0  0  0
   -3.0387    5.8617   -0.4557 H   0  0  0  0  0  0  0  0  0  0  0  0
   -3.8426    3.8459   -0.5525 C   0  0  0  0  0  0  0  0  0  0  0  0
   -4.8727    4.1983   -0.7109 H   0  0  0  0  0  0  0  0  0  0  0  0
   -3.5928    2.4613   -0.4922 C   0  0  0  0  0  0  0  0  0  0  0  0
   -4.4167    1.7443   -0.5950 H   0  0  0  0  0  0  0  0  0  0  0  0
    2.2920    2.2259    0.7314 C   0  0  0  0  0  0  0  0  0  0  0  0
    3.4023    3.0732    1.0007 C   0  0  0  0  0  0  0  0  0  0  0  0
    3.3139    4.1175    0.6736 H   0  0  0  0  0  0  0  0  0  0  0  0
    4.4971    2.5936    1.7051 C   0  0  0  0  0  0  0  0  0  0  0  0
    5.3515    3.2493    1.9297 H   0  0  0  0  0  0  0  0  0  0  0  0
    4.4708    1.2678    2.1723 C   0  0  0  0  0  0  0  0  0  0  0  0
    5.2811    0.8720    2.7995 H   0  0  0  0  0  0  0  0  0  0  0  0
    3.4007    0.4284    1.8367 C   0  0  0  0  0  0  0  0  0  0  0  0
   -3.4671   -0.7582   -0.4055 C   0  0  0  0  0  0  0  0  0  0  0  0
   -4.0460   -1.3950   -1.5293 C   0  0  0  0  0  0  0  0  0  0  0  0
   -3.4308   -1.6405   -2.4066 H   0  0  0  0  0  0  0  0  0  0  0  0
   -5.4157   -1.6698   -1.4976 C   0  0  0  0  0  0  0  0  0  0  0  0
   -5.9053   -2.1430   -2.3623 H   0  0  0  0  0  0  0  0  0  0  0  0
   -6.1591   -1.3410   -0.3536 C   0  0  0  0  0  0  0  0  0  0  0  0
   -7.2367   -1.5521   -0.2998 H   0  0  0  0  0  0  0  0  0  0  0  0
   -5.4960   -0.7469    0.7389 C   0  0  0  0  0  0  0  0  0  0  0  0
    3.3609   -0.9732    2.3794 C   0  0  0  0  0  0  0  0  0  0  0  0
    2.5959   -1.0456    3.1795 H   0  0  0  0  0  0  0  0  0  0  0  0
    4.3374   -1.2480    2.8176 H   0  0  0  0  0  0  0  0  0  0  0  0
    3.0854   -1.7167    1.6112 H   0  0  0  0  0  0  0  0  0  0  0  0
   -6.2154   -0.4096    2.0179 C   0  0  0  0  0  0  0  0  0  0  0  0
   -5.9655    0.6207    2.3394 H   0  0  0  0  0  0  0  0  0  0  0  0
   -5.8852   -1.0868    2.8339 H   0  0  0  0  0  0  0  0  0  0  0  0
   -7.3124   -0.5042    1.9160 H   0  0  0  0  0  0  0  0  0  0  0  0
  1  6  1  0  0  0  0
  2 18  2  0  0  0  0
  3 25  1  0  0  0  0
  4  9  1  0  0  0  0
  5 33  1  0  0  0  0
  6  2  1  0  0  0  0
  7  6  2  0  0  0  0
  8  9  1  0  0  0  0
  8  7  1  0  0  0  0
  9  1  2  0  0  0  0
 10  7  1  0  0  0  0
 10 11  1  0  0  0  0
 12 10  2  0  0  0  0
 13 12  1  0  0  0  0
 14 16  2  0  0  0  0
 14 12  1  0  0  0  0
 15 14  1  0  0  0  0
 16  8  1  0  0  0  0
 17 16  1  0  0  0  0
 18 19  1  0  0  0  0
 18  3  1  0  0  0  0
 19 21  2  0  0  0  0
 20 19  1  0  0  0  0
 21 22  1  0  0  0  0
 21 23  1  0  0  0  0
 23 24  1  0  0  0  0
 25 23  2  0  0  0  0
 25 34  1  0  0  0  0
 26  4  1  0  0  0  0
 26  5  2  0  0  0  0
 27 29  2  0  0  0  0
 27 26  1  0  0  0  0
 28 27  1  0  0  0  0
 29 31  1  0  0  0  0
 30 29  1  0  0  0  0
 31 32  1  0  0  0  0
 31 33  2  0  0  0  0
 33 38  1  0  0  0  0
 34 36  1  0  0  0  0
 34 35  1  0  0  0  0
 37 34  1  0  0  0  0
 38 39  1  0  0  0  0
 38 40  1  0  0  0  0
 41 38  1  0  0  0  0
M  END
