1,2
q = -1.0

 33 32  0  0  0  0  0  0  0  0999 V2000
    1.1176    0.9591   -0.3074 N   0  0  0  0  0  2  0  0  0  0  0  0
   -1.1177    0.9591   -0.3074 N   0  0  0  0  0  2  0  0  0  0  0  0
   -0.0001    1.6557    0.0080 C   0  0  0  0  0  3  0  0  0  0  0  0
   -0.0001    3.0195    0.6590 C   0  0  0  0  0  0  0  0  0  0  0  0
    0.8945    3.1685    1.2848 H   0  0  0  0  0  0  0  0  0  0  0  0
   -0.8946    3.1685    1.2848 H   0  0  0  0  0  0  0  0  0  0  0  0
   -0.0001    3.8032   -0.1246 H   0  0  0  0  0  0  0  0  0  0  0  0
    2.5213    1.3793   -0.1108 C   0  0  0  0  0  0  0  0  0  0  0  0
    3.3935    0.3244   -0.8176 C   0  0  0  0  0  0  0  0  0  0  0  0
    3.2741   -0.6659   -0.3404 H   0  0  0  0  0  0  0  0  0  0  0  0
    4.4631    0.6075   -0.7618 H   0  0  0  0  0  0  0  0  0  0  0  0
    3.1076    0.2380   -1.8850 H   0  0  0  0  0  0  0  0  0  0  0  0
    2.7953    2.7376   -0.7938 C   0  0  0  0  0  0  0  0  0  0  0  0
    2.4302    2.7204   -1.8404 H   0  0  0  0  0  0  0  0  0  0  0  0
    3.8859    2.9329   -0.8152 H   0  0  0  0  0  0  0  0  0  0  0  0
    2.3227    3.5913   -0.2749 H   0  0  0  0  0  0  0  0  0  0  0  0
    2.9250    1.4092    1.3794 C   0  0  0  0  0  0  0  0  0  0  0  0
    2.3716    2.1717    1.9613 H   0  0  0  0  0  0  0  0  0  0  0  0
    4.0050    1.6395    1.4787 H   0  0  0  0  0  0  0  0  0  0  0  0
    2.7415    0.4228    1.8474 H   0  0  0  0  0  0  0  0  0  0  0  0
   -2.5214    1.3791   -0.1108 C   0  0  0  0  0  0  0  0  0  0  0  0
   -2.7955    2.7375   -0.7938 C   0  0  0  0  0  0  0  0  0  0  0  0
   -2.3229    3.5911   -0.2750 H   0  0  0  0  0  0  0  0  0  0  0  0
   -3.8861    2.9327   -0.8152 H   0  0  0  0  0  0  0  0  0  0  0  0
   -2.4304    2.7202   -1.8405 H   0  0  0  0  0  0  0  0  0  0  0  0
   -3.3936    0.3242   -0.8176 C   0  0  0  0  0  0  0  0  0  0  0  0
   -3.1076    0.2378   -1.8850 H   0  0  0  0  0  0  0  0  0  0  0  0
   -4.4632    0.6073   -0.7618 H   0  0  0  0  0  0  0  0  0  0  0  0
   -3.2741   -0.6661   -0.3404 H   0  0  0  0  0  0  0  0  0  0  0  0
   -2.9251    1.4091    1.3794 C   0  0  0  0  0  0  0  0  0  0  0  0
   -2.7415    0.4226    1.8474 H   0  0  0  0  0  0  0  0  0  0  0  0
   -4.0051    1.6393    1.4787 H   0  0  0  0  0  0  0  0  0  0  0  0
   -2.3718    2.1716    1.9612 H   0  0  0  0  0  0  0  0  0  0  0  0
  1  8  1  0  0  0  0
  1  3  1  0  0  0  0
  2 21  1  0  0  0  0
  2  3  1  0  0  0  0
  3  4  1  0  0  0  0
  4  6  1  0  0  0  0
  4  5  1  0  0  0  0
  7  4  1  0  0  0  0
  8 17  1  0  0  0  0
  9 11  1  0  0  0  0
  9 10  1  0  0  0  0
  9  8  1  0  0  0  0
 12  9  1  0  0  0  0
 13 16  1  0  0  0  0
 13  8  1  0  0  0  0
 14 13  1  0  0  0  0
 15 13  1  0  0  0  0
 17 19  1  0  0  0  0
 17 20  1  0  0  0  0
 17 18  1  0  0  0  0
 21 30  1  0  0  0  0
 22 23  1  0  0  0  0
 22 21  1  0  0  0  0
 24 22  1  0  0  0  0
 25 22  1  0  0  0  0
 26 28  1  0  0  0  0
 26 29  1  0  0  0  0
 26 21  1  0  0  0  0
 27 26  1  0  0  0  0
 30 32  1  0  0  0  0
 30 31  1  0  0  0  0
 30 33  1  0  0  0  0
M  END
