1,4
q = -1.0

 38 40  0  0  0  0  0  0  0  0999 V2000
    1.3865    1.3614    0.3954 N   0  0  0  0  0  2  0  0  0  0  0  0
    2.6475    1.2971    0.0524 N   0  0  0  0  0  0  0  0  0  0  0  0
    2.7449   -1.1039    0.1935 N   0  0  0  0  0  2  0  0  0  0  0  0
    1.4860   -1.2223    0.5241 N   0  0  0  0  0  2  0  0  0  0  0  0
    3.2561    0.1055   -0.1122 C   0  0  0  0  0  0  0  0  0  0  0  0
    0.9652    2.7098    0.6384 C   0  0  0  0  0  0  0  0  0  0  0  0
    0.1755    2.9833    1.7690 C   0  0  0  0  0  0  0  0  0  0  0  0
   -0.1036    2.1560    2.4365 H   0  0  0  0  0  0  0  0  0  0  0  0
   -0.2241    4.2995    2.0348 C   0  0  0  0  0  0  0  0  0  0  0  0
   -0.8345    4.5125    2.9250 H   0  0  0  0  0  0  0  0  0  0  0  0
    0.1464    5.3398    1.1686 C   0  0  0  0  0  0  0  0  0  0  0  0
   -0.1767    6.3712    1.3750 H   0  0  0  0  0  0  0  0  0  0  0  0
    0.9329    5.0608    0.0370 C   0  0  0  0  0  0  0  0  0  0  0  0
    1.2207    5.8723   -0.6484 H   0  0  0  0  0  0  0  0  0  0  0  0
    1.3525    3.7517   -0.2264 C   0  0  0  0  0  0  0  0  0  0  0  0
    1.9691    3.5117   -1.1034 H   0  0  0  0  0  0  0  0  0  0  0  0
    4.6584    0.1353   -0.5886 C   0  0  0  0  0  0  0  0  0  0  0  0
    5.2855    1.3636   -0.8983 C   0  0  0  0  0  0  0  0  0  0  0  0
    4.7168    2.2940   -0.7628 H   0  0  0  0  0  0  0  0  0  0  0  0
    6.6065    1.3878   -1.3609 C   0  0  0  0  0  0  0  0  0  0  0  0
    7.0827    2.3515   -1.5981 H   0  0  0  0  0  0  0  0  0  0  0  0
    7.3248    0.1907   -1.5199 C   0  0  0  0  0  0  0  0  0  0  0  0
    8.3636    0.2123   -1.8831 H   0  0  0  0  0  0  0  0  0  0  0  0
    6.7098   -1.0340   -1.2092 C   0  0  0  0  0  0  0  0  0  0  0  0
    7.2674   -1.9757   -1.3269 H   0  0  0  0  0  0  0  0  0  0  0  0
    5.3891   -1.0644   -0.7464 C   0  0  0  0  0  0  0  0  0  0  0  0
    4.9014   -2.0157   -0.4925 H   0  0  0  0  0  0  0  0  0  0  0  0
    1.1506   -2.5499    0.9391 C   0  0  0  0  0  0  0  0  0  0  0  0
    1.6769   -3.6729    0.2706 C   0  0  0  0  0  0  0  0  0  0  0  0
    2.3366   -3.5143   -0.5933 H   0  0  0  0  0  0  0  0  0  0  0  0
    1.3376   -4.9584    0.7072 C   0  0  0  0  0  0  0  0  0  0  0  0
    1.7343   -5.8357    0.1741 H   0  0  0  0  0  0  0  0  0  0  0  0
    0.4938   -5.1322    1.8188 C   0  0  0  0  0  0  0  0  0  0  0  0
    0.2360   -6.1452    2.1624 H   0  0  0  0  0  0  0  0  0  0  0  0
   -0.0191   -4.0101    2.4880 C   0  0  0  0  0  0  0  0  0  0  0  0
   -0.6766   -4.1392    3.3605 H   0  0  0  0  0  0  0  0  0  0  0  0
    0.2983   -2.7192    2.0458 C   0  0  0  0  0  0  0  0  0  0  0  0
   -0.0908   -1.8298    2.5615 H   0  0  0  0  0  0  0  0  0  0  0  0
  1  6  1  0  0  0  0
  2  1  1  0  0  0  0
  3  4  1  0  0  0  0
  4 28  1  0  0  0  0
  5  2  2  0  0  0  0
  5  3  1  0  0  0  0
  6  7  1  0  0  0  0
  7  9  2  0  0  0  0
  7  8  1  0  0  0  0
  9 10  1  0  0  0  0
 11 12  1  0  0  0  0
 11  9  1  0  0  0  0
 13 11  2  0  0  0  0
 14 13  1  0  0  0  0
 15 13  1  0  0  0  0
 15  6  2  0  0  0  0
 16 15  1  0  0  0  0
 17  5  1  0  0  0  0
 18 19  1  0  0  0  0
 18 17  2  0  0  0  0
 20 18  1  0  0  0  0
 21 20  1  0  0  0  0
 22 20  2  0  0  0  0
 22 24  1  0  0  0  0
 23 22  1  0  0  0  0
 24 26  2  0  0  0  0
 25 24  1  0  0  0  0
 26 17  1  0  0  0  0
 26 27  1  0  0  0  0
 28 37  1  0  0  0  0
 29 31  1  0  0  0  0
 29 28  2  0  0  0  0
 30 29  1  0  0  0  0
 31 33  2  0  0  0  0
 32 31  1  0  0  0  0
 33 34  1  0  0  0  0
 33 35  1  0  0  0  0
 35 36  1  0  0  0  0
 37 35  2  0  0  0  0
 37 38  1  0  0  0  0
M  END
