63,64
q = 0.0, confidence = 1.0

 68 73  0  0  1  0  0  0  0  0999 V2000
    2.7025    1.0724   -1.7390 C   0  0  0  0  0  0  0  0  0  0  0  0
    2.0146    1.8819   -2.0236 H   0  0  0  0  0  0  0  0  0  0  0  0
    4.0952    1.2289   -1.9152 C   0  0  0  0  0  0  0  0  0  0  0  0
    4.4827    2.1589   -2.3526 H   0  0  0  0  0  0  0  0  0  0  0  0
    4.9351    0.2038   -1.5173 C   0  0  0  0  0  0  0  0  0  0  0  0
    6.0270    0.2882   -1.6295 H   0  0  0  0  0  0  0  0  0  0  0  0
    4.3901   -0.9840   -0.9556 C   0  0  0  0  0  0  0  0  0  0  0  0
    5.2123   -2.0649   -0.5291 C   0  0  0  0  0  0  0  0  0  0  0  0
    6.3038   -1.9783   -0.6296 H   0  0  0  0  0  0  0  0  0  0  0  0
    4.6290   -3.2050   -0.0047 C   0  0  0  0  0  0  0  0  0  0  0  0
    5.2561   -4.0470    0.3234 H   0  0  0  0  0  0  0  0  0  0  0  0
    3.2207   -3.3190    0.1077 C   0  0  0  0  0  0  0  0  0  0  0  0
    2.7967   -4.2486    0.5073 H   0  0  0  0  0  0  0  0  0  0  0  0
    2.3810   -2.2801   -0.2981 C   0  0  0  0  0  0  0  0  0  0  0  0
    2.9564   -1.0699   -0.8324 C   0  0  2  0  0  3  0  0  0  0  0  0
    0.4110   -3.4282    0.4672 C   0  0  0  0  0  0  0  0  0  0  0  0
    0.9221   -3.5375    1.4488 H   0  0  0  0  0  0  0  0  0  0  0  0
    0.5523   -4.3641   -0.1145 H   0  0  0  0  0  0  0  0  0  0  0  0
   -1.0487   -3.1562    0.6800 C   0  0  0  0  0  0  0  0  0  0  0  0
   -2.0428   -3.9540    0.0918 C   0  0  0  0  0  0  0  0  0  0  0  0
   -1.7386   -4.7659   -0.5877 H   0  0  0  0  0  0  0  0  0  0  0  0
   -3.4022   -3.7467    0.3758 C   0  0  0  0  0  0  0  0  0  0  0  0
   -4.1683   -4.3881   -0.0827 H   0  0  0  0  0  0  0  0  0  0  0  0
   -3.7688   -2.7234    1.2612 C   0  0  0  0  0  0  0  0  0  0  0  0
   -4.8297   -2.5527    1.4979 H   0  0  0  0  0  0  0  0  0  0  0  0
   -2.7965   -1.9091    1.8646 C   0  0  0  0  0  0  0  0  0  0  0  0
   -3.1065   -1.1222    2.5647 H   0  0  0  0  0  0  0  0  0  0  0  0
   -1.4375   -2.1196    1.5705 C   0  0  0  0  0  0  0  0  0  0  0  0
   -0.6042   -0.4566    3.1352 C   0  0  0  0  0  0  0  0  0  0  0  0
   -0.7018   -0.9914    4.1061 H   0  0  0  0  0  0  0  0  0  0  0  0
   -1.5151    0.1583    2.9737 H   0  0  0  0  0  0  0  0  0  0  0  0
    0.6041    0.4567    3.1354 C   0  0  0  0  0  0  0  0  0  0  0  0
    0.7017    0.9911    4.1064 H   0  0  0  0  0  0  0  0  0  0  0  0
    1.5150   -0.1581    2.9736 H   0  0  0  0  0  0  0  0  0  0  0  0
    1.4374    2.1198    1.5707 C   0  0  0  0  0  0  0  0  0  0  0  0
    2.7964    1.9092    1.8648 C   0  0  0  0  0  0  0  0  0  0  0  0
    3.1064    1.1224    2.5650 H   0  0  0  0  0  0  0  0  0  0  0  0
    3.7687    2.7232    1.2612 C   0  0  0  0  0  0  0  0  0  0  0  0
    4.8296    2.5525    1.4980 H   0  0  0  0  0  0  0  0  0  0  0  0
    3.4022    3.7464    0.3756 C   0  0  0  0  0  0  0  0  0  0  0  0
    4.1684    4.3877   -0.0829 H   0  0  0  0  0  0  0  0  0  0  0  0
    2.0429    3.9538    0.0916 C   0  0  0  0  0  0  0  0  0  0  0  0
    1.7387    4.7655   -0.5881 H   0  0  0  0  0  0  0  0  0  0  0  0
    1.0487    3.1562    0.6800 C   0  0  0  0  0  0  0  0  0  0  0  0
   -0.4110    3.4282    0.4671 C   0  0  0  0  0  0  0  0  0  0  0  0
   -0.9221    3.5378    1.4487 H   0  0  0  0  0  0  0  0  0  0  0  0
   -0.5522    4.3640   -0.1148 H   0  0  0  0  0  0  0  0  0  0  0  0
   -2.3810    2.2801   -0.2981 C   0  0  0  0  0  0  0  0  0  0  0  0
   -3.2208    3.3190    0.1076 C   0  0  0  0  0  0  0  0  0  0  0  0
   -2.7967    4.2486    0.5072 H   0  0  0  0  0  0  0  0  0  0  0  0
   -4.6291    3.2050   -0.0049 C   0  0  0  0  0  0  0  0  0  0  0  0
   -5.2562    4.0470    0.3231 H   0  0  0  0  0  0  0  0  0  0  0  0
   -5.2124    2.0649   -0.5293 C   0  0  0  0  0  0  0  0  0  0  0  0
   -6.3038    1.9782   -0.6298 H   0  0  0  0  0  0  0  0  0  0  0  0
   -4.3901    0.9840   -0.9557 C   0  0  0  0  0  0  0  0  0  0  0  0
   -4.9351   -0.2039   -1.5173 C   0  0  0  0  0  0  0  0  0  0  0  0
   -6.0269   -0.2884   -1.6295 H   0  0  0  0  0  0  0  0  0  0  0  0
   -4.0951   -1.2290   -1.9151 C   0  0  0  0  0  0  0  0  0  0  0  0
   -4.4825   -2.1590   -2.3524 H   0  0  0  0  0  0  0  0  0  0  0  0
   -2.7023   -1.0724   -1.7390 C   0  0  0  0  0  0  0  0  0  0  0  0
   -2.0144   -1.8819   -2.0236 H   0  0  0  0  0  0  0  0  0  0  0  0
   -2.9564    1.0699   -0.8324 C   0  0  1  0  0  3  0  0  0  0  0  0
    2.1502   -0.0278   -1.2175 N   0  0  0  0  0  2  0  0  0  0  0  0
   -2.1502    0.0279   -1.2175 N   0  0  0  0  0  2  0  0  0  0  0  0
    1.0280   -2.3300   -0.2386 O   0  0  0  0  0  0  0  0  0  0  0  0
   -0.4058   -1.3885    2.0772 O   0  0  0  0  0  0  0  0  0  0  0  0
    0.4057    1.3890    2.0777 O   0  0  0  0  0  0  0  0  0  0  0  0
   -1.0281    2.3299   -0.2384 O   0  0  0  0  0  0  0  0  0  0  0  0
  1 63  1  0  0  0  0
  2  1  1  0  0  0  0
  3  1  2  0  0  0  0
  3  5  1  0  0  0  0
  4  3  1  0  0  0  0
  5  7  2  0  0  0  0
  6  5  1  0  0  0  0
  7 15  1  0  0  0  0
  7  8  1  0  0  0  0
  8 10  2  0  0  0  0
  9  8  1  0  0  0  0
 10 12  1  0  0  0  0
 10 11  1  0  0  0  0
 12 13  1  0  0  0  0
 14 65  1  0  0  0  0
 14 12  2  0  0  0  0
 15 63  1  6  0  0  0
 15 14  1  0  0  0  0
 16 19  1  0  0  0  0
 16 17  1  0  0  0  0
 18 16  1  0  0  0  0
 19 28  1  0  0  0  0
 20 22  1  0  0  0  0
 20 19  2  0  0  0  0
 21 20  1  0  0  0  0
 22 24  2  0  0  0  0
 23 22  1  0  0  0  0
 24 25  1  0  0  0  0
 24 26  1  0  0  0  0
 26 27  1  0  0  0  0
 28 26  2  0  0  0  0
 28 66  1  0  0  0  0
 29 32  1  0  0  0  0
 29 30  1  0  0  0  0
 31 29  1  0  0  0  0
 32 33  1  0  0  0  0
 34 32  1  0  0  0  0
 35 36  1  0  0  0  0
 35 67  1  0  0  0  0
 36 37  1  0  0  0  0
 38 39  1  0  0  0  0
 38 36  2  0  0  0  0
 40 38  1  0  0  0  0
 41 40  1  0  0  0  0
 42 40  2  0  0  0  0
 42 44  1  0  0  0  0
 43 42  1  0  0  0  0
 44 35  2  0  0  0  0
 45 44  1  0  0  0  0
 45 46  1  0  0  0  0
 47 45  1  0  0  0  0
 48 68  1  0  0  0  0
 48 49  2  0  0  0  0
 49 50  1  0  0  0  0
 51 49  1  0  0  0  0
 51 52  1  0  0  0  0
 53 51  2  0  0  0  0
 54 53  1  0  0  0  0
 55 62  1  0  0  0  0
 55 53  1  0  0  0  0
 56 55  2  0  0  0  0
 57 56  1  0  0  0  0
 58 60  2  0  0  0  0
 58 56  1  0  0  0  0
 59 58  1  0  0  0  0
 60 64  1  0  0  0  0
 61 60  1  0  0  0  0
 62 64  1  6  0  0  0
 62 48  1  0  0  0  0
 65 16  1  0  0  0  0
 66 29  1  0  0  0  0
 67 32  1  0  0  0  0
 68 45  1  0  0  0  0
M  END
