1,2
q = 0.0, confidence = 0.974

 25 27  0  0  1  0  0  0  0  0999 V2000
    1.7040    1.0861   -0.0008 N   0  0  0  0  0  2  0  0  0  0  0  0
   -0.9172    0.5379    0.0005 N   0  0  0  0  0  2  0  0  0  0  0  0
   -2.8573    2.6435   -0.0007 N   0  0  0  0  0  0  0  0  0  0  0  0
   -0.5675    1.8477    0.0000 C   0  0  0  0  0  0  0  0  0  0  0  0
    0.8642    2.1645   -0.0001 C   0  0  1  0  0  3  0  0  0  0  0  0
   -1.5619    2.8747   -0.0006 C   0  0  0  0  0  0  0  0  0  0  0  0
    1.3699    3.4830    0.0005 C   0  0  0  0  0  0  0  0  0  0  0  0
    2.7485    3.6979    0.0002 C   0  0  0  0  0  0  0  0  0  0  0  0
   -4.6290    1.0306    0.0001 C   0  0  0  0  0  3  0  0  0  0  0  0
    3.6024    2.5818   -0.0007 C   0  0  0  0  0  0  0  0  0  0  0  0
   -5.0626   -0.2870    0.0008 C   0  0  0  0  0  0  0  0  0  0  0  0
    3.0415    1.3045   -0.0012 C   0  0  0  0  0  0  0  0  0  0  0  0
   -4.1146   -1.3426    0.0016 C   0  0  0  0  0  0  0  0  0  0  0  0
   -2.7514   -1.0787    0.0015 C   0  0  0  0  0  0  0  0  0  0  0  0
   -2.2742    0.2578    0.0007 C   0  0  0  0  0  0  0  0  0  0  0  0
   -3.2399    1.3319    0.0000 C   0  0  0  0  0  0  0  0  0  0  0  0
    0.6829    4.3385    0.0013 H   0  0  0  0  0  0  0  0  0  0  0  0
   -1.2509    3.9324   -0.0012 H   0  0  0  0  0  0  0  0  0  0  0  0
    3.1527    4.7205    0.0007 H   0  0  0  0  0  0  0  0  0  0  0  0
   -5.3251    1.8814   -0.0005 H   0  0  0  0  0  0  0  0  0  0  0  0
   -6.1387   -0.5163    0.0009 H   0  0  0  0  0  0  0  0  0  0  0  0
    4.6957    2.6932   -0.0011 H   0  0  0  0  0  0  0  0  0  0  0  0
    3.6748    0.4063   -0.0019 H   0  0  0  0  0  0  0  0  0  0  0  0
   -4.4590   -2.3874    0.0022 H   0  0  0  0  0  0  0  0  0  0  0  0
   -2.0180   -1.8922    0.0021 H   0  0  0  0  0  0  0  0  0  0  0  0
  1  5  1  0  0  0  0
  2 15  1  0  0  0  0
  3  6  1  0  0  0  0
  3 16  2  0  0  0  0
  4  2  1  0  0  0  0
  5  4  1  1  0  0  0
  5  7  1  0  0  0  0
  6  4  2  0  0  0  0
  7 17  1  0  0  0  0
  8  7  2  0  0  0  0
  8 19  1  0  0  0  0
  9 11  1  0  0  0  0
 10  8  1  0  0  0  0
 11 21  1  0  0  0  0
 11 13  2  0  0  0  0
 12  1  1  0  0  0  0
 12 10  2  0  0  0  0
 13 24  1  0  0  0  0
 14 13  1  0  0  0  0
 14 25  1  0  0  0  0
 15 14  2  0  0  0  0
 16  9  1  0  0  0  0
 16 15  1  0  0  0  0
 18  6  1  0  0  0  0
 20  9  1  0  0  0  0
 22 10  1  0  0  0  0
 23 12  1  0  0  0  0
M  END
