5,8
q = -1.0

 24 24  0  0  1  0  0  0  0  0999 V2000
   -2.8235   -0.4496   -0.5581 S   0  0  0  0  0  0  0  0  0  0  0  0
   -3.7146    0.8894   -2.6681 F   0  0  0  0  0  0  0  0  0  0  0  0
   -2.3170   -0.7188   -3.1572 F   0  0  0  0  0  0  0  0  0  0  0  0
   -2.1820   -1.7741   -0.3924 O   0  0  0  0  0  0  0  0  0  0  0  0
    0.0475    2.1197    1.0047 N   0  0  0  0  0  2  0  0  0  0  0  0
   -4.0656   -0.1046    0.1854 O   0  0  0  0  0  0  0  0  0  0  0  0
   -4.3725   -1.1952   -2.5991 F   0  0  0  0  0  0  0  0  0  0  0  0
   -1.6741    0.6832   -0.4420 N   0  0  0  0  0  2  0  0  0  0  0  0
   -1.0243    2.8118    0.5651 C   0  0  2  0  0  3  0  0  0  0  0  0
   -2.0721    2.0589   -0.2299 C   0  0  0  0  0  0  0  0  0  0  0  0
   -3.0473    2.1248    0.3089 H   0  0  0  0  0  0  0  0  0  0  0  0
   -2.2153    2.6073   -1.1915 H   0  0  0  0  0  0  0  0  0  0  0  0
    1.0504    2.7241    1.6927 C   0  0  0  0  0  0  0  0  0  0  0  0
    0.9769    4.0946    1.9811 C   0  0  0  0  0  0  0  0  0  0  0  0
    1.7919    4.5774    2.5384 H   0  0  0  0  0  0  0  0  0  0  0  0
    2.2098    1.8597    2.0858 C   0  0  0  0  0  0  0  0  0  0  0  0
    1.8668    0.9953    2.6914 H   0  0  0  0  0  0  0  0  0  0  0  0
    2.9657    2.4238    2.6614 H   0  0  0  0  0  0  0  0  0  0  0  0
    2.6827    1.4341    1.1779 H   0  0  0  0  0  0  0  0  0  0  0  0
   -0.1359    4.8302    1.5436 C   0  0  0  0  0  0  0  0  0  0  0  0
   -0.2077    5.9066    1.7615 H   0  0  0  0  0  0  0  0  0  0  0  0
   -1.1462    4.1883    0.8229 C   0  0  0  0  0  0  0  0  0  0  0  0
   -2.0252    4.7366    0.4539 H   0  0  0  0  0  0  0  0  0  0  0  0
   -3.3409   -0.3738   -2.3707 C   0  0  0  0  0  0  0  0  0  0  0  0
  1  8  1  0  0  0  0
  1  4  2  0  0  0  0
  1  6  2  0  0  0  0
  2 24  1  0  0  0  0
  3 24  1  0  0  0  0
  5 13  1  0  0  0  0
  7 24  1  0  0  0  0
  8 10  1  0  0  0  0
  9 10  1  6  0  0  0
  9 22  1  0  0  0  0
  9  5  1  0  0  0  0
 10 11  1  0  0  0  0
 12 10  1  0  0  0  0
 13 14  2  0  0  0  0
 13 16  1  0  0  0  0
 14 15  1  0  0  0  0
 16 18  1  0  0  0  0
 16 17  1  0  0  0  0
 19 16  1  0  0  0  0
 20 21  1  0  0  0  0
 20 14  1  0  0  0  0
 22 20  2  0  0  0  0
 23 22  1  0  0  0  0
 24  1  1  0  0  0  0
M  END
