1,5
q = 0.0, confidence = 0.998

 44 47  0  0  0  0  0  0  0  0999 V2000
    1.7012   -1.0210    1.0152 N   0  0  0  0  0  2  0  0  0  0  0  0
    2.2207    0.1391    1.5098 N   0  0  0  0  0  0  0  0  0  0  0  0
   -1.2441    0.8472    2.5696 N   0  0  0  0  0  0  0  0  0  0  0  0
   -2.4314    0.8742    1.9086 N   0  0  0  0  0  0  0  0  0  0  0  0
   -0.1220    0.9277    0.1585 N   0  0  0  0  0  0  0  0  0  0  0  0
   -0.2624    0.6386    1.1680 H   0  0  0  0  0  0  0  0  0  0  0  0
    1.9074   -1.9607    1.9525 C   0  0  0  0  0  3  0  0  0  0  0  0
    1.5249   -2.9732    1.7837 H   0  0  0  0  0  0  0  0  0  0  0  0
    2.5825   -1.4106    3.0645 C   0  0  0  0  0  0  0  0  0  0  0  0
    2.8843   -1.9224    3.9831 H   0  0  0  0  0  0  0  0  0  0  0  0
    2.7609   -0.0673    2.7511 C   0  0  0  0  0  0  0  0  0  0  0  0
    3.1978    0.7649    3.3116 H   0  0  0  0  0  0  0  0  0  0  0  0
    2.2011    1.3663    0.7856 C   0  0  0  0  0  0  0  0  0  0  0  0
    3.3638    2.1492    0.7630 C   0  0  0  0  0  0  0  0  0  0  0  0
    4.2716    1.7550    1.2436 H   0  0  0  0  0  0  0  0  0  0  0  0
    3.3925    3.4018    0.1245 C   0  0  0  0  0  0  0  0  0  0  0  0
    2.2046    3.8423   -0.4873 C   0  0  0  0  0  0  0  0  0  0  0  0
    2.1839    4.8241   -0.9849 H   0  0  0  0  0  0  0  0  0  0  0  0
    1.0419    3.0605   -0.4850 C   0  0  0  0  0  0  0  0  0  0  0  0
    0.1303    3.4426   -0.9612 H   0  0  0  0  0  0  0  0  0  0  0  0
    1.0165    1.8033    0.1368 C   0  0  0  0  0  0  0  0  0  0  0  0
    4.6616    4.2115    0.0611 C   0  0  0  0  0  0  0  0  0  0  0  0
    4.4481    5.2929   -0.0462 H   0  0  0  0  0  0  0  0  0  0  0  0
    5.2791    3.9103   -0.8122 H   0  0  0  0  0  0  0  0  0  0  0  0
    5.2853    4.0699    0.9657 H   0  0  0  0  0  0  0  0  0  0  0  0
   -1.4944    0.2481    3.7386 C   0  0  0  0  0  0  0  0  0  0  0  0
   -0.6753    0.0906    4.4510 H   0  0  0  0  0  0  0  0  0  0  0  0
   -2.8588   -0.1150    3.8482 C   0  0  0  0  0  0  0  0  0  0  0  0
   -3.3600   -0.6263    4.6757 H   0  0  0  0  0  0  0  0  0  0  0  0
   -3.4283    0.2917    2.6483 C   0  0  0  0  0  0  0  0  0  0  0  0
   -4.4414    0.1732    2.2545 H   0  0  0  0  0  0  0  0  0  0  0  0
   -2.5226    1.3720    0.5798 C   0  0  0  0  0  0  0  0  0  0  0  0
   -3.7762    1.8044    0.1041 C   0  0  0  0  0  0  0  0  0  0  0  0
   -4.6300    1.8182    0.7962 H   0  0  0  0  0  0  0  0  0  0  0  0
   -3.9641    2.2299   -1.2189 C   0  0  0  0  0  0  0  0  0  0  0  0
   -2.8471    2.2181   -2.0806 C   0  0  0  0  0  0  0  0  0  0  0  0
   -2.9625    2.5217   -3.1320 H   0  0  0  0  0  0  0  0  0  0  0  0
   -1.5954    1.8079   -1.6204 C   0  0  0  0  0  0  0  0  0  0  0  0
   -0.7405    1.7609   -2.3096 H   0  0  0  0  0  0  0  0  0  0  0  0
   -1.4019    1.3986   -0.2882 C   0  0  0  0  0  0  0  0  0  0  0  0
   -5.3178    2.6700   -1.7137 C   0  0  0  0  0  0  0  0  0  0  0  0
   -6.0614    2.7128   -0.8951 H   0  0  0  0  0  0  0  0  0  0  0  0
   -5.7040    1.9706   -2.4846 H   0  0  0  0  0  0  0  0  0  0  0  0
   -5.2688    3.6728   -2.1855 H   0  0  0  0  0  0  0  0  0  0  0  0
  1  2  1  0  0  0  0
  1  7  1  0  0  0  0
  2 11  1  0  0  0  0
  3 26  2  0  0  0  0
  4  3  1  0  0  0  0
  4 30  1  0  0  0  0
  5  6  1  0  0  0  0
  7  9  1  0  0  0  0
  8  7  1  0  0  0  0
  9 10  1  0  0  0  0
 11  9  2  0  0  0  0
 11 12  1  0  0  0  0
 13  2  1  0  0  0  0
 14 13  1  0  0  0  0
 14 15  1  0  0  0  0
 16 14  2  0  0  0  0
 17 19  2  0  0  0  0
 17 16  1  0  0  0  0
 18 17  1  0  0  0  0
 19 21  1  0  0  0  0
 20 19  1  0  0  0  0
 21  5  1  0  0  0  0
 21 13  2  0  0  0  0
 22 16  1  0  0  0  0
 22 25  1  0  0  0  0
 23 22  1  0  0  0  0
 24 22  1  0  0  0  0
 26 28  1  0  0  0  0
 26 27  1  0  0  0  0
 28 29  1  0  0  0  0
 30 28  2  0  0  0  0
 31 30  1  0  0  0  0
 32  4  1  0  0  0  0
 33 32  1  0  0  0  0
 33 34  1  0  0  0  0
 35 33  2  0  0  0  0
 36 38  2  0  0  0  0
 36 35  1  0  0  0  0
 37 36  1  0  0  0  0
 38 40  1  0  0  0  0
 39 38  1  0  0  0  0
 40  5  1  0  0  0  0
 40 32  2  0  0  0  0
 41 35  1  0  0  0  0
 41 42  1  0  0  0  0
 43 41  1  0  0  0  0
 44 41  1  0  0  0  0
M  END
