1,2
q = 0.0, confidence = 0.998

 30 31  0  0  1  0  0  0  0  0999 V2000
   -2.1733    1.2425    0.0305 N   0  0  0  0  0  2  0  0  0  0  0  0
    0.4143    0.5076   -0.0512 N   0  0  0  0  0  2  0  0  0  0  0  0
    5.2866    2.2551    0.0765 O   0  0  0  0  0  0  0  0  0  0  0  0
    6.5163    0.3544   -0.0221 O   0  0  0  0  0  0  0  0  0  0  0  0
   -4.4546    0.4191    0.1425 C   0  0  0  0  0  0  0  0  0  0  0  0
   -3.4839    1.5618    0.0740 C   0  0  2  0  0  3  0  0  0  0  0  0
   -3.8974    2.9111    0.0541 C   0  0  0  0  0  0  0  0  0  0  0  0
   -2.9400    3.9321   -0.0130 C   0  0  0  0  0  0  0  0  0  0  0  0
   -1.5832    3.5895   -0.0584 C   0  0  0  0  0  0  0  0  0  0  0  0
   -1.2344    2.2267   -0.0343 C   0  0  0  0  0  0  0  0  0  0  0  0
    0.1576    1.7829   -0.0750 C   0  0  0  0  0  3  0  0  0  0  0  0
    2.8950    0.7587   -0.0236 C   0  0  0  0  0  0  0  0  0  0  0  0
    1.7214   -0.0207   -0.0716 C   0  0  0  0  0  0  0  0  0  0  0  0
    1.8355   -1.4292   -0.1366 C   0  0  0  0  0  0  0  0  0  0  0  0
    3.0930   -2.0431   -0.1639 C   0  0  0  0  0  0  0  0  0  0  0  0
    4.2582   -1.2638   -0.1207 C   0  0  0  0  0  0  0  0  0  0  0  0
    4.1536    0.1412   -0.0482 C   0  0  0  0  0  0  0  0  0  0  0  0
    5.3524    1.0405    0.0093 C   0  0  0  0  0  0  0  0  0  0  0  0
   -5.5026    0.7659    0.1927 H   0  0  0  0  0  0  0  0  0  0  0  0
   -4.2412   -0.2099    1.0311 H   0  0  0  0  0  0  0  0  0  0  0  0
   -4.3366   -0.2354   -0.7456 H   0  0  0  0  0  0  0  0  0  0  0  0
   -4.9701    3.1490    0.0918 H   0  0  0  0  0  0  0  0  0  0  0  0
   -3.2508    4.9870   -0.0294 H   0  0  0  0  0  0  0  0  0  0  0  0
   -0.7982    4.3580   -0.1112 H   0  0  0  0  0  0  0  0  0  0  0  0
    0.9453    2.5585   -0.1270 H   0  0  0  0  0  0  0  0  0  0  0  0
    2.8806    1.8565    0.0407 H   0  0  0  0  0  0  0  0  0  0  0  0
    0.9078   -2.0222   -0.1658 H   0  0  0  0  0  0  0  0  0  0  0  0
    3.1669   -3.1393   -0.2175 H   0  0  0  0  0  0  0  0  0  0  0  0
    5.2524   -1.7309   -0.1389 H   0  0  0  0  0  0  0  0  0  0  0  0
    7.2318    1.0258    0.0189 H   0  0  0  0  0  0  0  0  0  0  0  0
  1  6  1  0  0  0  0
  4 18  1  0  0  0  0
  4 30  1  0  0  0  0
  5 19  1  0  0  0  0
  5 20  1  0  0  0  0
  6  5  1  6  0  0  0
  7  6  1  0  0  0  0
  7 22  1  0  0  0  0
  8  7  2  0  0  0  0
  9 10  2  0  0  0  0
  9  8  1  0  0  0  0
 10  1  1  0  0  0  0
 11  2  1  0  0  0  0
 11 10  1  0  0  0  0
 12 26  1  0  0  0  0
 13  2  1  0  0  0  0
 13 12  2  0  0  0  0
 14 13  1  0  0  0  0
 15 14  2  0  0  0  0
 15 16  1  0  0  0  0
 16 17  2  0  0  0  0
 17 12  1  0  0  0  0
 17 18  1  0  0  0  0
 18  3  2  0  0  0  0
 21  5  1  0  0  0  0
 23  8  1  0  0  0  0
 24  9  1  0  0  0  0
 25 11  1  0  0  0  0
 27 14  1  0  0  0  0
 28 15  1  0  0  0  0
 29 16  1  0  0  0  0
M  END
