1,12
q = 0.0, confidence = 0.986

 46 48  0  0  0  0  0  0  0  0999 V2000
    2.3297   -1.3152   -0.4139 N   0  0  0  0  0  2  0  0  0  0  0  0
    1.2363   -0.4985   -0.4610 C   0  0  0  0  0  0  0  0  0  0  0  0
   -0.0281   -0.9276   -0.9544 C   0  0  0  0  0  0  0  0  0  0  0  0
   -0.1237   -2.2655   -1.4172 C   0  0  0  0  0  0  0  0  0  0  0  0
   -1.0801   -2.6392   -1.8134 H   0  0  0  0  0  0  0  0  0  0  0  0
    1.0003   -3.0847   -1.3650 C   0  0  0  0  0  0  0  0  0  0  0  0
    0.9630   -4.1245   -1.7188 H   0  0  0  0  0  0  0  0  0  0  0  0
    2.2126   -2.5762   -0.8571 C   0  0  0  0  0  0  0  0  0  0  0  0
    3.1201   -3.1952   -0.8120 H   0  0  0  0  0  0  0  0  0  0  0  0
   -1.1264   -0.0060   -0.9691 C   0  0  0  0  0  0  0  0  0  0  0  0
   -2.0794   -0.3706   -1.3758 H   0  0  0  0  0  0  0  0  0  0  0  0
    2.6204    1.1945    0.5028 N   0  0  0  0  0  2  0  0  0  0  0  0
    1.3858    0.8445    0.0272 C   0  0  0  0  0  0  0  0  0  0  0  0
    0.2813    1.7461    0.0250 C   0  0  0  0  0  0  0  0  0  0  0  0
    0.5070    3.0457    0.5426 C   0  0  0  0  0  0  0  0  0  0  0  0
   -0.3137    3.7775    0.5711 H   0  0  0  0  0  0  0  0  0  0  0  0
    1.7711    3.3857    1.0173 C   0  0  0  0  0  0  0  0  0  0  0  0
    1.9748    4.3876    1.4199 H   0  0  0  0  0  0  0  0  0  0  0  0
    2.8062    2.4339    0.9795 C   0  0  0  0  0  0  0  0  0  0  0  0
    3.8183    2.6718    1.3374 H   0  0  0  0  0  0  0  0  0  0  0  0
   -0.9996    1.2904   -0.5009 C   0  0  0  0  0  0  0  0  0  0  0  0
   -2.2984    2.4955   -0.5139 S   0  0  0  0  0  0  0  0  0  0  0  0
   -3.7709    1.5361   -0.9771 C   0  0  0  0  0  0  0  0  0  0  0  0
   -4.5235    2.3040   -1.2430 H   0  0  0  0  0  0  0  0  0  0  0  0
   -3.5702    0.9355   -1.8878 H   0  0  0  0  0  0  0  0  0  0  0  0
   -4.2976    0.6716    0.1693 C   0  0  0  0  0  0  0  0  0  0  0  0
   -3.5215   -0.0228    0.5432 H   0  0  0  0  0  0  0  0  0  0  0  0
   -4.6400    1.3226    0.9983 H   0  0  0  0  0  0  0  0  0  0  0  0
   -5.3786   -0.1665   -0.2757 O   0  0  0  0  0  0  0  0  0  0  0  0
   -6.5984    0.4392   -0.3726 C   0  0  0  0  0  0  0  0  0  0  0  0
   -6.7881    1.6166   -0.1444 O   0  0  0  0  0  0  0  0  0  0  0  0
   -7.6566   -0.5850   -0.7696 C   0  0  0  0  0  0  0  0  0  0  0  0
   -7.2856   -1.1309   -1.6623 H   0  0  0  0  0  0  0  0  0  0  0  0
   -7.7412   -1.3293    0.0556 H   0  0  0  0  0  0  0  0  0  0  0  0
   -8.8867   -0.0002   -1.1010 O   0  0  0  0  0  0  0  0  0  0  0  0
   -9.6755    0.4261    0.0044 C   0  0  0  0  0  0  0  0  0  0  0  0
  -10.3856    1.1764   -0.3994 H   0  0  0  0  0  0  0  0  0  0  0  0
   -9.0530    0.9368    0.7721 H   0  0  0  0  0  0  0  0  0  0  0  0
  -10.4742   -0.6966    0.6464 C   0  0  0  0  0  0  0  0  0  0  0  0
  -11.2523   -0.2526    1.3199 H   0  0  0  0  0  0  0  0  0  0  0  0
  -11.0145   -1.2684   -0.1492 H   0  0  0  0  0  0  0  0  0  0  0  0
   -9.6100   -1.5477    1.3772 O   0  0  0  0  0  0  0  0  0  0  0  0
  -10.2768   -2.6449    1.9553 C   0  0  0  0  0  0  0  0  0  0  0  0
  -11.0699   -2.3196    2.6723 H   0  0  0  0  0  0  0  0  0  0  0  0
   -9.5274   -3.2446    2.5074 H   0  0  0  0  0  0  0  0  0  0  0  0
  -10.7607   -3.2963    1.1871 H   0  0  0  0  0  0  0  0  0  0  0  0
  2  1  1  0  0  0  0
  2 13  2  0  0  0  0
  3  2  1  0  0  0  0
  4  6  1  0  0  0  0
  4  3  2  0  0  0  0
  5  4  1  0  0  0  0
  6  8  2  0  0  0  0
  7  6  1  0  0  0  0
  8  9  1  0  0  0  0
  8  1  1  0  0  0  0
 10  3  1  0  0  0  0
 10 21  2  0  0  0  0
 11 10  1  0  0  0  0
 12 19  1  0  0  0  0
 13 12  1  0  0  0  0
 14 13  1  0  0  0  0
 14 15  2  0  0  0  0
 15 16  1  0  0  0  0
 15 17  1  0  0  0  0
 17 18  1  0  0  0  0
 19 17  2  0  0  0  0
 19 20  1  0  0  0  0
 21 14  1  0  0  0  0
 22 21  1  0  0  0  0
 23 22  1  0  0  0  0
 23 26  1  0  0  0  0
 24 23  1  0  0  0  0
 25 23  1  0  0  0  0
 26 27  1  0  0  0  0
 26 28  1  0  0  0  0
 29 26  1  0  0  0  0
 30 29  1  0  0  0  0
 30 31  2  0  0  0  0
 32 30  1  0  0  0  0
 32 34  1  0  0  0  0
 33 32  1  0  0  0  0
 35 32  1  0  0  0  0
 35 36  1  0  0  0  0
 36 39  1  0  0  0  0
 36 38  1  0  0  0  0
 37 36  1  0  0  0  0
 39 40  1  0  0  0  0
 39 42  1  0  0  0  0
 41 39  1  0  0  0  0
 42 43  1  0  0  0  0
 43 45  1  0  0  0  0
 43 44  1  0  0  0  0
 46 43  1  0  0  0  0
M  END
