1,2
q = 0.0, confidence = 0.998

 45 46  0  0  1  0  0  0  0  0999 V2000
    0.9745   -0.6793    1.6731 N   0  0  0  0  0  2  0  0  0  0  0  0
   -1.2760    0.2758    0.6118 N   0  0  0  0  0  2  0  0  0  0  0  0
    2.0963   -1.2626    2.1222 C   0  0  0  0  0  3  0  0  0  0  0  0
    2.8621   -1.4744    1.3568 H   0  0  0  0  0  0  0  0  0  0  0  0
    2.2805   -1.5518    3.4809 C   0  0  0  0  0  0  0  0  0  0  0  0
    3.2146   -2.0281    3.8097 H   0  0  0  0  0  0  0  0  0  0  0  0
    1.2691   -1.2154    4.3899 C   0  0  0  0  0  0  0  0  0  0  0  0
    1.3879   -1.4192    5.4642 H   0  0  0  0  0  0  0  0  0  0  0  0
    0.0965   -0.6180    3.9115 C   0  0  0  0  0  0  0  0  0  0  0  0
   -0.7159   -0.3528    4.6001 H   0  0  0  0  0  0  0  0  0  0  0  0
   -0.0343   -0.3644    2.5342 C   0  0  0  0  0  0  0  0  0  0  0  0
   -1.2617    0.1724    1.9200 C   0  0  1  0  0  3  0  0  0  0  0  0
   -2.5102    0.4999   -0.1010 C   0  0  0  0  0  0  0  0  0  0  0  0
   -3.4834   -0.5461   -0.1710 C   0  0  0  0  0  0  0  0  0  0  0  0
   -4.6446   -0.3058   -0.9322 C   0  0  0  0  0  0  0  0  0  0  0  0
   -5.3977   -1.1040   -1.0062 H   0  0  0  0  0  0  0  0  0  0  0  0
   -4.8606    0.9025   -1.5972 C   0  0  0  0  0  0  0  0  0  0  0  0
   -5.7760    1.0536   -2.1888 H   0  0  0  0  0  0  0  0  0  0  0  0
   -3.9083    1.9209   -1.4962 C   0  0  0  0  0  0  0  0  0  0  0  0
   -4.0822    2.8830   -1.9984 H   0  0  0  0  0  0  0  0  0  0  0  0
   -2.7302    1.7504   -0.7495 C   0  0  0  0  0  0  0  0  0  0  0  0
   -1.7863    2.9231   -0.5623 C   0  0  0  0  0  0  0  0  0  0  0  0
   -0.7849    2.5160   -0.3241 H   0  0  0  0  0  0  0  0  0  0  0  0
   -2.2026    3.7591    0.6624 C   0  0  0  0  0  0  0  0  0  0  0  0
   -1.4691    4.5720    0.8370 H   0  0  0  0  0  0  0  0  0  0  0  0
   -2.2421    3.1461    1.5842 H   0  0  0  0  0  0  0  0  0  0  0  0
   -3.2041    4.2145    0.5129 H   0  0  0  0  0  0  0  0  0  0  0  0
   -1.6319    3.8114   -1.8025 C   0  0  0  0  0  0  0  0  0  0  0  0
   -0.7954    4.5216   -1.6456 H   0  0  0  0  0  0  0  0  0  0  0  0
   -2.5405    4.4159   -2.0055 H   0  0  0  0  0  0  0  0  0  0  0  0
   -1.4055    3.2156   -2.7082 H   0  0  0  0  0  0  0  0  0  0  0  0
   -3.3744   -1.9029    0.5228 C   0  0  0  0  0  0  0  0  0  0  0  0
   -2.3533   -2.0019    0.9444 H   0  0  0  0  0  0  0  0  0  0  0  0
   -3.5669   -3.0700   -0.4628 C   0  0  0  0  0  0  0  0  0  0  0  0
   -2.8931   -2.9760   -1.3343 H   0  0  0  0  0  0  0  0  0  0  0  0
   -4.6134   -3.1247   -0.8272 H   0  0  0  0  0  0  0  0  0  0  0  0
   -3.3411   -4.0319    0.0403 H   0  0  0  0  0  0  0  0  0  0  0  0
   -4.4043   -2.0365    1.6635 C   0  0  0  0  0  0  0  0  0  0  0  0
   -4.2597   -2.9952    2.2024 H   0  0  0  0  0  0  0  0  0  0  0  0
   -5.4380   -2.0361    1.2604 H   0  0  0  0  0  0  0  0  0  0  0  0
   -4.3453   -1.2156    2.4018 H   0  0  0  0  0  0  0  0  0  0  0  0
   -2.4032    0.5676    2.8060 C   0  0  0  0  0  0  0  0  0  0  0  0
   -3.2544    0.9499    2.2176 H   0  0  0  0  0  0  0  0  0  0  0  0
   -2.0573    1.3655    3.4958 H   0  0  0  0  0  0  0  0  0  0  0  0
   -2.7508   -0.2798    3.4286 H   0  0  0  0  0  0  0  0  0  0  0  0
  1  3  1  0  0  0  0
  1 11  1  0  0  0  0
  3  5  1  0  0  0  0
  4  3  1  0  0  0  0
  5  6  1  0  0  0  0
  5  7  2  0  0  0  0
  7  8  1  0  0  0  0
  9  7  1  0  0  0  0
  9 10  1  0  0  0  0
 11  9  2  0  0  0  0
 12  2  1  1  0  0  0
 12 11  1  0  0  0  0
 12 42  1  0  0  0  0
 13  2  1  0  0  0  0
 14 13  1  0  0  0  0
 14 32  1  0  0  0  0
 15 14  2  0  0  0  0
 16 15  1  0  0  0  0
 17 19  2  0  0  0  0
 17 15  1  0  0  0  0
 18 17  1  0  0  0  0
 19 21  1  0  0  0  0
 20 19  1  0  0  0  0
 21 22  1  0  0  0  0
 21 13  2  0  0  0  0
 22 23  1  0  0  0  0
 22 24  1  0  0  0  0
 24 25  1  0  0  0  0
 24 26  1  0  0  0  0
 27 24  1  0  0  0  0
 28 29  1  0  0  0  0
 28 22  1  0  0  0  0
 30 28  1  0  0  0  0
 31 28  1  0  0  0  0
 32 33  1  0  0  0  0
 32 38  1  0  0  0  0
 34 37  1  0  0  0  0
 34 32  1  0  0  0  0
 35 34  1  0  0  0  0
 36 34  1  0  0  0  0
 38 39  1  0  0  0  0
 38 41  1  0  0  0  0
 40 38  1  0  0  0  0
 42 45  1  0  0  0  0
 42 44  1  0  0  0  0
 43 42  1  0  0  0  0
M  END
