3,6
q = 0.0, confidence = 0.996

 31 32  0  0  0  0  0  0  0  0999 V2000
   -0.4751   -1.2106   -0.4996 N   0  0  0  0  0  0  0  0  0  0  0  0
   -0.9757   -1.9919   -0.0538 H   0  0  0  0  0  0  0  0  0  0  0  0
    0.8516   -1.1410   -0.4539 N   0  0  0  0  0  2  0  0  0  0  0  0
   -3.1902    1.1484    0.1331 N   0  0  0  0  0  0  0  0  0  0  0  0
   -6.0236   -1.1013   -0.0639 N   0  0  0  0  0  0  0  0  0  0  0  0
    3.3444   -0.4734   -0.0108 N   0  0  0  0  0  2  0  0  0  0  0  0
   -0.4952    1.0325   -0.9746 O   0  0  0  0  0  0  0  0  0  0  0  0
   -6.9879   -0.4487    0.3454 O   0  0  0  0  0  0  0  0  0  0  0  0
   -6.0577   -2.2720   -0.4525 O   0  0  0  0  0  0  0  0  0  0  0  0
   -1.1299    0.0249   -0.6598 C   0  0  0  0  0  0  0  0  0  0  0  0
   -2.5613    0.0085   -0.3708 C   0  0  0  0  0  0  0  0  0  0  0  0
   -3.5170   -1.0041   -0.5140 C   0  0  0  0  0  0  0  0  0  0  0  0
   -3.3861   -2.0126   -0.9185 H   0  0  0  0  0  0  0  0  0  0  0  0
   -4.7401   -0.4392   -0.0871 C   0  0  0  0  0  0  0  0  0  0  0  0
   -4.5093    0.8829    0.3159 C   0  0  0  0  0  0  0  0  0  0  0  0
   -5.2094    1.6151    0.7294 H   0  0  0  0  0  0  0  0  0  0  0  0
   -2.5174    2.3922    0.5143 C   0  0  0  0  0  0  0  0  0  0  0  0
   -3.2309    3.0055    1.0928 H   0  0  0  0  0  0  0  0  0  0  0  0
   -2.1824    2.9395   -0.3857 H   0  0  0  0  0  0  0  0  0  0  0  0
   -1.6245    2.1590    1.1307 H   0  0  0  0  0  0  0  0  0  0  0  0
    1.6275   -2.1235   -0.1282 C   0  0  0  0  0  0  0  0  0  0  0  0
    1.2678   -3.1515    0.0754 H   0  0  0  0  0  0  0  0  0  0  0  0
    3.0513   -1.7960    0.0091 C   0  0  0  0  0  0  0  0  0  0  0  0
    4.0579   -2.7695    0.1469 C   0  0  0  0  0  0  0  0  0  0  0  0
    3.7963   -3.8378    0.1682 H   0  0  0  0  0  0  0  0  0  0  0  0
    5.3909   -2.3444    0.2389 C   0  0  0  0  0  0  0  0  0  0  0  0
    6.2000   -3.0824    0.3457 H   0  0  0  0  0  0  0  0  0  0  0  0
    5.6806   -0.9730    0.1827 C   0  0  0  0  0  0  0  0  0  0  0  0
    6.7145   -0.6046    0.2429 H   0  0  0  0  0  0  0  0  0  0  0  0
    4.6163   -0.0646    0.0539 C   0  0  0  0  0  0  0  0  0  0  0  0
    4.7543    1.0293   -0.0135 H   0  0  0  0  0  0  0  0  0  0  0  0
  1  3  1  0  0  0  0
  1  2  1  0  0  0  0
  3 21  1  0  0  0  0
  4 15  1  0  0  0  0
  4 17  1  0  0  0  0
  5  8  2  0  0  0  0
  6 23  1  0  0  0  0
  6 30  1  0  0  0  0
  7 10  2  0  0  0  0
  9  5  2  0  0  0  0
 10  1  1  0  0  0  0
 10 11  1  0  0  0  0
 11  4  1  0  0  0  0
 12 11  2  0  0  0  0
 12 14  1  0  0  0  0
 13 12  1  0  0  0  0
 14  5  1  0  0  0  0
 14 15  2  0  0  0  0
 15 16  1  0  0  0  0
 17 18  1  0  0  0  0
 17 20  1  0  0  0  0
 19 17  1  0  0  0  0
 21 23  2  0  0  0  0
 21 22  1  0  0  0  0
 23 24  1  0  0  0  0
 24 25  1  0  0  0  0
 24 26  2  0  0  0  0
 26 27  1  0  0  0  0
 28 26  1  0  0  0  0
 28 29  1  0  0  0  0
 30 28  2  0  0  0  0
 31 30  1  0  0  0  0
M  END
