3,4
q = -1.0

 19 19  0  0  0  0  0  0  0  0999 V2000
   -2.2476    1.7732    1.7496 O   0  0  0  0  0  1  0  0  0  0  0  0
   -2.4592   -1.3560   -2.3202 O   0  0  0  0  0  0  0  0  0  0  0  0
   -2.4645    1.0195    0.7086 N   0  0  0  0  0  2  0  0  0  0  0  0
   -2.5667   -0.5385   -1.2643 N   0  0  0  0  0  2  0  0  0  0  0  0
   -3.7379   -0.0453   -0.9252 C   0  0  0  0  0  0  0  0  0  0  0  0
   -5.0154   -0.3251   -1.6606 C   0  0  0  0  0  0  0  0  0  0  0  0
   -6.2438    0.0790   -0.8306 C   0  0  0  0  0  0  0  0  0  0  0  0
   -6.0740    1.4761   -0.2176 C   0  0  0  0  0  0  0  0  0  0  0  0
   -4.9061    1.5135    0.7798 C   0  0  0  0  0  0  0  0  0  0  0  0
   -3.6837    0.8554    0.2136 C   0  0  0  0  0  0  0  0  0  0  0  0
   -1.3887   -1.5341   -2.3591 H   0  0  0  0  0  0  0  0  0  0  0  0
   -5.0389   -1.3946   -1.9550 H   0  0  0  0  0  0  0  0  0  0  0  0
   -4.9964    0.2422   -2.6195 H   0  0  0  0  0  0  0  0  0  0  0  0
   -7.1511    0.0384   -1.4666 H   0  0  0  0  0  0  0  0  0  0  0  0
   -6.3991   -0.6606   -0.0139 H   0  0  0  0  0  0  0  0  0  0  0  0
   -7.0082    1.7957    0.2870 H   0  0  0  0  0  0  0  0  0  0  0  0
   -5.8893    2.2107   -1.0325 H   0  0  0  0  0  0  0  0  0  0  0  0
   -4.6455    2.5474    1.0874 H   0  0  0  0  0  0  0  0  0  0  0  0
   -5.1921    0.9922    1.7231 H   0  0  0  0  0  0  0  0  0  0  0  0
  2  4  1  0  0  0  0
  3  1  1  0  0  0  0
  4  5  1  0  0  0  0
  5 10  2  0  0  0  0
  6  5  1  0  0  0  0
  6  7  1  0  0  0  0
  7  8  1  0  0  0  0
  7 15  1  0  0  0  0
  8 16  1  0  0  0  0
  8  9  1  0  0  0  0
  9 18  1  0  0  0  0
  9 19  1  0  0  0  0
 10  3  1  0  0  0  0
 10  9  1  0  0  0  0
 11  2  1  0  0  0  0
 12  6  1  0  0  0  0
 13  6  1  0  0  0  0
 14  7  1  0  0  0  0
 17  8  1  0  0  0  0
M  END
