1,11
q = -1.0

 34 36  0  0  0  0  0  0  0  0999 V2000
   -1.3549    1.1258   -1.0097 N   0  0  0  0  0  0  0  0  0  0  0  0
   -3.3665   -0.0142   -0.0709 C   0  0  0  0  0  3  0  0  0  0  0  0
   -3.3597   -2.1128    1.3909 C   0  0  0  0  0  0  0  0  0  0  0  0
   -4.4371   -2.3069    1.4245 H   0  0  0  0  0  0  0  0  0  0  0  0
   -2.3444   -2.8707    1.9718 C   0  0  0  0  0  3  0  0  0  0  0  0
   -2.4507   -3.7799    2.5745 H   0  0  0  0  0  0  0  0  0  0  0  0
   -5.5753    0.1519    1.1369 C   0  0  0  0  0  0  0  0  0  0  0  0
   -5.0184    0.2994    2.0737 H   0  0  0  0  0  0  0  0  0  0  0  0
   -4.8588   -0.0197   -0.0684 C   0  0  0  0  0  0  0  0  0  0  0  0
   -9.1782   -0.0426   -0.1207 C   0  0  0  0  0  0  0  0  0  0  0  0
   -1.3436   -1.1386    0.8629 N   0  0  0  0  0  0  0  0  0  0  0  0
   -9.8311   -0.1964   -1.1394 O   0  0  0  0  0  0  0  0  0  0  0  0
   -2.7367    0.9983   -0.8404 C   0  0  0  0  0  3  0  0  0  0  0  0
   -3.3802    2.0826   -1.5354 C   0  0  0  0  0  0  0  0  0  0  0  0
   -4.4592    2.2673   -1.5683 H   0  0  0  0  0  0  0  0  0  0  0  0
   -6.9773   -0.2062   -1.2659 C   0  0  0  0  0  0  0  0  0  0  0  0
   -7.5524   -0.3534   -2.1918 H   0  0  0  0  0  0  0  0  0  0  0  0
   -7.6859   -0.0287   -0.0611 C   0  0  0  0  0  0  0  0  0  0  0  0
   -9.7408    0.1378    1.1025 O   0  0  0  0  0  0  0  0  0  0  0  0
   -2.7265   -1.0223    0.6966 C   0  0  0  0  0  0  0  0  0  0  0  0
   -5.5796   -0.1962   -1.2709 C   0  0  0  0  0  0  0  0  0  0  0  0
   -5.0267   -0.3402   -2.2106 H   0  0  0  0  0  0  0  0  0  0  0  0
   -1.1230   -2.2318    1.6160 C   0  0  0  0  0  0  0  0  0  0  0  0
   -0.0984   -2.5333    1.8762 H   0  0  0  0  0  0  0  0  0  0  0  0
   -6.9744    0.1536    1.1419 C   0  0  0  0  0  0  0  0  0  0  0  0
   -7.5294    0.2987    2.0788 H   0  0  0  0  0  0  0  0  0  0  0  0
   -1.1450    2.2194   -1.7651 C   0  0  0  0  0  0  0  0  0  0  0  0
   -0.1235    2.5289   -2.0282 H   0  0  0  0  0  0  0  0  0  0  0  0
  -11.1714    0.1365    1.1198 C   0  0  0  0  0  0  0  0  0  0  0  0
  -11.5752    0.9468    0.4793 H   0  0  0  0  0  0  0  0  0  0  0  0
  -11.4664    0.2933    2.1725 H   0  0  0  0  0  0  0  0  0  0  0  0
  -11.5705   -0.8278    0.7450 H   0  0  0  0  0  0  0  0  0  0  0  0
   -2.3724    2.8476   -2.1196 C   0  0  0  0  0  0  0  0  0  0  0  0
   -2.4875    3.7543   -2.7245 H   0  0  0  0  0  0  0  0  0  0  0  0
  1 13  1  0  0  0  0
  2  9  1  0  0  0  0
  2 20  1  0  0  0  0
  3  4  1  0  0  0  0
  3  5  1  0  0  0  0
  5  6  1  0  0  0  0
  7 25  1  0  0  0  0
  7  8  1  0  0  0  0
  9  7  2  0  0  0  0
 10 18  1  0  0  0  0
 10 19  1  0  0  0  0
 11 23  2  0  0  0  0
 12 10  2  0  0  0  0
 13  2  1  0  0  0  0
 14 13  1  0  0  0  0
 15 14  1  0  0  0  0
 16 18  1  0  0  0  0
 17 16  1  0  0  0  0
 18 25  2  0  0  0  0
 19 29  1  0  0  0  0
 20 11  1  0  0  0  0
 20  3  2  0  0  0  0
 21 16  2  0  0  0  0
 21  9  1  0  0  0  0
 22 21  1  0  0  0  0
 23 24  1  0  0  0  0
 23  5  1  0  0  0  0
 25 26  1  0  0  0  0
 27  1  2  0  0  0  0
 28 27  1  0  0  0  0
 29 31  1  0  0  0  0
 30 29  1  0  0  0  0
 32 29  1  0  0  0  0
 33 27  1  0  0  0  0
 33 14  2  0  0  0  0
 34 33  1  0  0  0  0
M  END
