2,5
q = -1.0, confidence = 0.018

 31 30  0  0  1  0  0  0  0  0999 V2000
   -0.6993    1.0875    3.0600 O   0  0  0  0  0  0  0  0  0  0  0  0
   -1.0585    0.9593    1.7943 N   0  0  0  0  0  2  0  0  0  0  0  0
   -2.0478    1.6680    1.3135 C   0  0  1  0  0  3  0  0  0  0  0  0
   -2.3912    1.3215   -0.1198 C   0  0  0  0  0  0  0  0  0  0  0  0
   -1.3924    0.3422   -0.5645 N   0  0  0  0  0  2  0  0  0  0  0  0
   -2.7747    2.6565    2.1571 C   0  0  0  0  0  0  0  0  0  0  0  0
   -3.1506    2.1626    3.0773 H   0  0  0  0  0  0  0  0  0  0  0  0
   -3.6203    3.1221    1.6213 H   0  0  0  0  0  0  0  0  0  0  0  0
   -2.0820    3.4530    2.5007 H   0  0  0  0  0  0  0  0  0  0  0  0
   -3.8398    0.7784   -0.1555 C   0  0  0  0  0  0  0  0  0  0  0  0
   -4.1388    0.5090   -1.1860 H   0  0  0  0  0  0  0  0  0  0  0  0
   -4.5439    1.5556    0.1971 H   0  0  0  0  0  0  0  0  0  0  0  0
   -3.9456   -0.1091    0.4965 H   0  0  0  0  0  0  0  0  0  0  0  0
   -2.2612    2.5741   -1.0308 C   0  0  0  0  0  0  0  0  0  0  0  0
   -1.2284    2.9713   -0.9993 H   0  0  0  0  0  0  0  0  0  0  0  0
   -2.9618    3.3650   -0.6991 H   0  0  0  0  0  0  0  0  0  0  0  0
   -2.5123    2.3096   -2.0762 H   0  0  0  0  0  0  0  0  0  0  0  0
   -1.6676   -0.5475   -1.6672 C   0  0  0  0  0  0  0  0  0  0  0  0
   -2.4358   -0.1099   -2.3418 H   0  0  0  0  0  0  0  0  0  0  0  0
   -0.7336   -0.6613   -2.2605 H   0  0  0  0  0  0  0  0  0  0  0  0
   -2.1043   -1.9657   -1.2322 C   0  0  0  0  0  0  0  0  0  0  0  0
   -3.0539   -1.9082   -0.6609 H   0  0  0  0  0  0  0  0  0  0  0  0
   -1.3389   -2.3541   -0.5239 H   0  0  0  0  0  0  0  0  0  0  0  0
   -2.2574   -2.9189   -2.4197 C   0  0  0  0  0  0  0  0  0  0  0  0
   -3.0111   -2.5080   -3.1268 H   0  0  0  0  0  0  0  0  0  0  0  0
   -1.3001   -2.9537   -2.9863 H   0  0  0  0  0  0  0  0  0  0  0  0
   -2.6612   -4.3306   -1.9931 C   0  0  0  0  0  0  0  0  0  0  0  0
   -1.9078   -4.7795   -1.3133 H   0  0  0  0  0  0  0  0  0  0  0  0
   -2.7630   -5.0009   -2.8690 H   0  0  0  0  0  0  0  0  0  0  0  0
   -3.6330   -4.3300   -1.4583 H   0  0  0  0  0  0  0  0  0  0  0  0
   -0.1274    0.1738    3.2430 H   0  0  0  0  0  0  0  0  0  0  0  0
  1 31  1  0  0  0  0
  2  1  1  0  0  0  0
  3  2  1  1  0  0  0
  3  6  1  0  0  0  0
  4  3  1  0  0  0  0
  5  4  1  0  0  0  0
  6  9  1  0  0  0  0
  6  7  1  0  0  0  0
  8  6  1  0  0  0  0
 10  4  1  0  0  0  0
 10 12  1  0  0  0  0
 10 13  1  0  0  0  0
 11 10  1  0  0  0  0
 14 15  1  0  0  0  0
 14 16  1  0  0  0  0
 14  4  1  0  0  0  0
 17 14  1  0  0  0  0
 18 21  1  0  0  0  0
 18  5  1  0  0  0  0
 19 18  1  0  0  0  0
 20 18  1  0  0  0  0
 21 22  1  0  0  0  0
 21 23  1  0  0  0  0
 24 27  1  0  0  0  0
 24 21  1  0  0  0  0
 25 24  1  0  0  0  0
 26 24  1  0  0  0  0
 27 30  1  0  0  0  0
 27 28  1  0  0  0  0
 29 27  1  0  0  0  0
M  END
