1,3
q = 0.0, confidence = 0.996

 47 48  0  0  1  0  0  0  0  0999 V2000
   -2.3524   -0.3182    1.0134 N   0  0  0  0  0  0  0  0  0  0  0  0
   -3.0027    0.3314    1.4829 H   0  0  0  0  0  0  0  0  0  0  0  0
    0.4396   -0.1846    0.7514 N   0  0  0  0  0  0  0  0  0  0  0  0
    0.7055    0.4682    1.5018 H   0  0  0  0  0  0  0  0  0  0  0  0
   -3.1641   -1.3502    0.3187 C   0  0  0  0  0  0  0  0  0  0  0  0
   -2.5226   -1.8563   -0.4313 H   0  0  0  0  0  0  0  0  0  0  0  0
   -3.9877   -0.8508   -0.2237 H   0  0  0  0  0  0  0  0  0  0  0  0
   -3.5750   -2.3008    1.4501 C   0  0  0  0  0  0  0  0  0  0  0  0
   -4.4549   -1.8877    1.9857 H   0  0  0  0  0  0  0  0  0  0  0  0
   -3.8601   -3.3045    1.0804 H   0  0  0  0  0  0  0  0  0  0  0  0
   -2.3376   -2.3325    2.3844 C   0  0  0  0  0  0  0  0  0  0  0  0
   -1.7241   -3.2390    2.2063 H   0  0  0  0  0  0  0  0  0  0  0  0
   -2.6249   -2.3459    3.4527 H   0  0  0  0  0  0  0  0  0  0  0  0
   -1.5249   -1.0565    2.0195 C   0  0  1  0  0  0  0  0  0  0  0  0
   -1.3683   -0.3833    2.8871 H   0  0  0  0  0  0  0  0  0  0  0  0
   -0.1772   -1.3883    1.3750 C   0  0  0  0  0  0  0  0  0  0  0  0
    0.5131   -1.8415    2.1202 H   0  0  0  0  0  0  0  0  0  0  0  0
   -0.3184   -2.1396    0.5746 H   0  0  0  0  0  0  0  0  0  0  0  0
    1.6484   -0.4917   -0.0019 C   0  0  0  0  0  0  0  0  0  0  0  0
    2.9010   -0.1716    0.5880 C   0  0  0  0  0  0  0  0  0  0  0  0
    2.9826    0.5924    1.9086 C   0  0  0  0  0  0  0  0  0  0  0  0
    2.1426    0.2477    2.5582 H   0  0  0  0  0  0  0  0  0  0  0  0
    2.8052    2.1051    1.6571 C   0  0  0  0  0  0  0  0  0  0  0  0
    3.6742    2.4891    1.0847 H   0  0  0  0  0  0  0  0  0  0  0  0
    2.7490    2.6632    2.6142 H   0  0  0  0  0  0  0  0  0  0  0  0
    1.9065    2.3349    1.0465 H   0  0  0  0  0  0  0  0  0  0  0  0
    4.2585    0.3124    2.7133 C   0  0  0  0  0  0  0  0  0  0  0  0
    5.1558    0.7260    2.2100 H   0  0  0  0  0  0  0  0  0  0  0  0
    4.4218   -0.7731    2.8672 H   0  0  0  0  0  0  0  0  0  0  0  0
    4.1955    0.7987    3.7072 H   0  0  0  0  0  0  0  0  0  0  0  0
    4.0691   -0.5126   -0.1158 C   0  0  0  0  0  0  0  0  0  0  0  0
    5.0504   -0.2706    0.3154 H   0  0  0  0  0  0  0  0  0  0  0  0
    4.0020   -1.1588   -1.3561 C   0  0  0  0  0  0  0  0  0  0  0  0
    4.9273   -1.4246   -1.8890 H   0  0  0  0  0  0  0  0  0  0  0  0
    2.7576   -1.4515   -1.9213 C   0  0  0  0  0  0  0  0  0  0  0  0
    2.7100   -1.9357   -2.9084 H   0  0  0  0  0  0  0  0  0  0  0  0
    1.5554   -1.1195   -1.2680 C   0  0  0  0  0  0  0  0  0  0  0  0
    0.2326   -1.4002   -1.9715 C   0  0  0  0  0  0  0  0  0  0  0  0
   -0.5811   -0.9722   -1.3419 H   0  0  0  0  0  0  0  0  0  0  0  0
    0.1481   -0.6491   -3.3103 C   0  0  0  0  0  0  0  0  0  0  0  0
    0.9024   -1.0166   -4.0363 H   0  0  0  0  0  0  0  0  0  0  0  0
    0.3056    0.4351   -3.1450 H   0  0  0  0  0  0  0  0  0  0  0  0
   -0.8552   -0.7876   -3.7625 H   0  0  0  0  0  0  0  0  0  0  0  0
   -0.0264   -2.9066   -2.1388 C   0  0  0  0  0  0  0  0  0  0  0  0
    0.7342   -3.3785   -2.7951 H   0  0  0  0  0  0  0  0  0  0  0  0
   -1.0189   -3.0822   -2.6027 H   0  0  0  0  0  0  0  0  0  0  0  0
    0.0023   -3.4482   -1.1696 H   0  0  0  0  0  0  0  0  0  0  0  0
  1  2  1  0  0  0  0
  1 14  1  0  0  0  0
  3 16  1  0  0  0  0
  3  4  1  0  0  0  0
  5  1  1  0  0  0  0
  5  8  1  0  0  0  0
  6  5  1  0  0  0  0
  7  5  1  0  0  0  0
  8  9  1  0  0  0  0
  8 11  1  0  0  0  0
 10  8  1  0  0  0  0
 11 13  1  0  0  0  0
 12 11  1  0  0  0  0
 14 11  1  0  0  0  0
 14 15  1  1  0  0  0
 16 14  1  0  0  0  0
 16 17  1  0  0  0  0
 18 16  1  0  0  0  0
 19 20  1  0  0  0  0
 19  3  1  0  0  0  0
 20 21  1  0  0  0  0
 21 22  1  0  0  0  0
 21 27  1  0  0  0  0
 23 21  1  0  0  0  0
 23 25  1  0  0  0  0
 24 23  1  0  0  0  0
 26 23  1  0  0  0  0
 27 29  1  0  0  0  0
 27 30  1  0  0  0  0
 28 27  1  0  0  0  0
 31 32  1  0  0  0  0
 31 20  2  0  0  0  0
 33 31  1  0  0  0  0
 34 33  1  0  0  0  0
 35 33  2  0  0  0  0
 35 37  1  0  0  0  0
 36 35  1  0  0  0  0
 37 19  2  0  0  0  0
 38 39  1  0  0  0  0
 38 37  1  0  0  0  0
 40 42  1  0  0  0  0
 40 38  1  0  0  0  0
 41 40  1  0  0  0  0
 43 40  1  0  0  0  0
 44 38  1  0  0  0  0
 44 47  1  0  0  0  0
 45 44  1  0  0  0  0
 46 44  1  0  0  0  0
M  END
