1,2
q = 0.0, confidence = 0.998

 42 44  0  0  1  0  0  0  0  0999 V2000
   -1.7256    1.3291   -0.6470 N   0  0  0  0  0  2  0  0  0  0  0  0
    0.7493    0.6137   -0.0642 N   0  0  0  0  0  0  0  0  0  0  0  0
    0.9619    0.8144   -1.0631 H   0  0  0  0  0  0  0  0  0  0  0  0
   -2.8485    1.6413   -1.3343 C   0  0  0  0  0  3  0  0  0  0  0  0
   -3.3681    0.8050   -1.8209 H   0  0  0  0  0  0  0  0  0  0  0  0
   -3.3050    2.9577   -1.4399 C   0  0  0  0  0  0  0  0  0  0  0  0
   -4.2246    3.1673   -2.0036 H   0  0  0  0  0  0  0  0  0  0  0  0
   -2.5650    3.9852   -0.8374 C   0  0  0  0  0  0  0  0  0  0  0  0
   -2.8969    5.0313   -0.9070 H   0  0  0  0  0  0  0  0  0  0  0  0
   -1.3768    3.6600   -0.1689 C   0  0  0  0  0  0  0  0  0  0  0  0
   -0.7492    4.4395    0.2862 H   0  0  0  0  0  0  0  0  0  0  0  0
   -0.9790    2.3197   -0.0911 C   0  0  0  0  0  0  0  0  0  0  0  0
    0.2824    1.8590    0.5798 C   0  0  0  0  0  0  0  0  0  0  0  0
    1.0485    2.6569    0.5310 H   0  0  0  0  0  0  0  0  0  0  0  0
    0.1012    1.6436    1.6554 H   0  0  0  0  0  0  0  0  0  0  0  0
    1.9652    0.0009    0.5506 C   0  0  1  0  0  0  0  0  0  0  0  0
    1.6517   -0.3371    1.5597 H   0  0  0  0  0  0  0  0  0  0  0  0
    2.4849   -1.1733   -0.3327 C   0  0  0  0  0  0  0  0  0  0  0  0
    2.4318   -2.1343    0.2121 H   0  0  0  0  0  0  0  0  0  0  0  0
    1.8811   -1.2845   -1.2543 H   0  0  0  0  0  0  0  0  0  0  0  0
    3.9419   -0.7853   -0.6268 C   0  0  1  0  0  0  0  0  0  0  0  0
    4.5629   -1.6332   -0.9753 H   0  0  0  0  0  0  0  0  0  0  0  0
    3.9170    0.4181   -1.5972 C   0  0  0  0  0  0  0  0  0  0  0  0
    4.9129    0.6068   -2.0412 H   0  0  0  0  0  0  0  0  0  0  0  0
    3.2202    0.2405   -2.4407 H   0  0  0  0  0  0  0  0  0  0  0  0
    3.4659    1.5972   -0.6851 C   0  0  0  0  0  0  0  0  0  0  0  0
    2.5710    2.1271   -1.0737 H   0  0  0  0  0  0  0  0  0  0  0  0
    4.2478    2.3757   -0.5951 H   0  0  0  0  0  0  0  0  0  0  0  0
    3.2271    0.9345    0.6963 C   0  0  2  0  0  0  0  0  0  0  0  0
    4.3851   -0.1489    0.7207 C   0  0  0  0  0  0  0  0  0  0  0  0
    3.2347    1.8821    1.8922 C   0  0  0  0  0  0  0  0  0  0  0  0
    2.9085    1.3731    2.8222 H   0  0  0  0  0  0  0  0  0  0  0  0
    2.5937    2.7746    1.7558 H   0  0  0  0  0  0  0  0  0  0  0  0
    4.2601    2.2649    2.0665 H   0  0  0  0  0  0  0  0  0  0  0  0
    5.8013    0.4449    0.6808 C   0  0  0  0  0  0  0  0  0  0  0  0
    6.5416   -0.3730    0.5712 H   0  0  0  0  0  0  0  0  0  0  0  0
    6.0427    0.9722    1.6258 H   0  0  0  0  0  0  0  0  0  0  0  0
    5.9699    1.1525   -0.1513 H   0  0  0  0  0  0  0  0  0  0  0  0
    4.3314   -1.0993    1.9289 C   0  0  0  0  0  0  0  0  0  0  0  0
    3.3454   -1.5718    2.1004 H   0  0  0  0  0  0  0  0  0  0  0  0
    5.0673   -1.9185    1.8005 H   0  0  0  0  0  0  0  0  0  0  0  0
    4.6046   -0.5623    2.8595 H   0  0  0  0  0  0  0  0  0  0  0  0
  1 12  1  0  0  0  0
  2 16  1  0  0  0  0
  2 13  1  0  0  0  0
  3  2  1  0  0  0  0
  4  1  1  0  0  0  0
  5  4  1  0  0  0  0
  6  4  1  0  0  0  0
  6  8  2  0  0  0  0
  7  6  1  0  0  0  0
  8 10  1  0  0  0  0
  9  8  1  0  0  0  0
 10 12  2  0  0  0  0
 10 11  1  0  0  0  0
 12 13  1  0  0  0  0
 13 15  1  0  0  0  0
 14 13  1  0  0  0  0
 16 29  1  0  0  0  0
 16 17  1  1  0  0  0
 18 19  1  0  0  0  0
 18 16  1  0  0  0  0
 20 18  1  0  0  0  0
 21 22  1  6  0  0  0
 21 18  1  0  0  0  0
 21 30  1  0  0  0  0
 23 26  1  0  0  0  0
 23 21  1  0  0  0  0
 24 23  1  0  0  0  0
 25 23  1  0  0  0  0
 26 28  1  0  0  0  0
 26 29  1  0  0  0  0
 27 26  1  0  0  0  0
 29 30  1  0  0  0  0
 29 31  1  1  0  0  0
 30 39  1  0  0  0  0
 31 34  1  0  0  0  0
 31 32  1  0  0  0  0
 33 31  1  0  0  0  0
 35 30  1  0  0  0  0
 35 37  1  0  0  0  0
 36 35  1  0  0  0  0
 38 35  1  0  0  0  0
 39 40  1  0  0  0  0
 39 42  1  0  0  0  0
 41 39  1  0  0  0  0
M  END
