22,28
q = 0.0, confidence = 0.99

 32 33  0  0  1  0  0  0  0  0999 V2000
    1.8262   -0.0088    1.8996 S   0  0  0  0  0  0  0  0  0  0  0  0
    5.4347   -0.5324    0.5181 O   0  0  0  0  0  0  0  0  0  0  0  0
    3.4454   -0.8435    1.8918 C   0  0  0  0  0  0  0  0  0  0  0  0
    3.9772   -0.7075    2.8517 H   0  0  0  0  0  0  0  0  0  0  0  0
    3.2902   -1.9277    1.7033 H   0  0  0  0  0  0  0  0  0  0  0  0
    3.4586    0.5017   -0.1000 N   0  0  0  0  0  0  0  0  0  0  0  0
    3.9317    0.9532   -1.4099 C   0  0  0  0  0  0  0  0  0  0  0  0
    3.1600    0.6557   -2.1485 H   0  0  0  0  0  0  0  0  0  0  0  0
    4.8546    0.3714   -1.6013 H   0  0  0  0  0  0  0  0  0  0  0  0
   -4.5762    2.2246    0.5491 C   0  0  0  0  0  0  0  0  0  0  0  0
   -5.3956    2.9387    0.7164 H   0  0  0  0  0  0  0  0  0  0  0  0
   -4.8152    0.8398    0.5634 C   0  0  0  0  0  0  0  0  0  0  0  0
   -5.8207    0.4329    0.7400 H   0  0  0  0  0  0  0  0  0  0  0  0
    4.2091    2.4525   -1.4608 C   0  0  0  0  0  0  0  0  0  0  0  0
    4.5737    2.7315   -2.4692 H   0  0  0  0  0  0  0  0  0  0  0  0
    4.9850    2.7396   -0.7238 H   0  0  0  0  0  0  0  0  0  0  0  0
    3.2895    3.0348   -1.2562 H   0  0  0  0  0  0  0  0  0  0  0  0
   -0.3463    3.5242   -0.1542 C   0  0  0  0  0  0  0  0  0  0  0  0
    0.6033    3.5585   -0.7210 H   0  0  0  0  0  0  0  0  0  0  0  0
   -0.1398    3.9170    0.8648 H   0  0  0  0  0  0  0  0  0  0  0  0
   -1.0819    4.1979   -0.6334 H   0  0  0  0  0  0  0  0  0  0  0  0
   -0.0247    1.0719   -0.2121 N   0  0  0  0  0  2  0  0  0  0  0  0
   -2.2357    1.7588    0.1057 C   0  0  0  0  0  0  0  0  0  0  0  0
   -3.2765    2.6845    0.3188 C   0  0  0  0  0  0  0  0  0  0  0  0
   -3.0533    3.7597    0.3054 H   0  0  0  0  0  0  0  0  0  0  0  0
   -0.8448    2.1167   -0.1067 C   0  0  0  0  0  0  0  0  0  0  0  0
    4.2638   -0.2840    0.7327 C   0  0  0  0  0  0  0  0  0  0  0  0
   -2.4945    0.4039    0.1256 N   0  0  0  0  0  2  0  0  0  0  0  0
    1.2886    1.2863   -0.4581 N   0  0  0  0  0  2  0  0  0  0  0  0
    2.1413    0.6380    0.2821 C   0  0  2  0  0  3  0  0  0  0  0  0
   -3.7520   -0.0404    0.3476 C   0  0  0  0  0  0  0  0  0  0  0  0
   -3.8565   -1.1385    0.3314 H   0  0  0  0  0  0  0  0  0  0  0  0
  2 27  2  0  0  0  0
  3  1  1  0  0  0  0
  3  4  1  0  0  0  0
  5  3  1  0  0  0  0
  6 30  1  0  0  0  0
  6 27  1  0  0  0  0
  7  6  1  0  0  0  0
  8  7  1  0  0  0  0
  9  7  1  0  0  0  0
 10 12  1  0  0  0  0
 10 11  1  0  0  0  0
 12 13  1  0  0  0  0
 14  7  1  0  0  0  0
 14 17  1  0  0  0  0
 14 16  1  0  0  0  0
 15 14  1  0  0  0  0
 18 26  1  0  0  0  0
 18 20  1  0  0  0  0
 19 18  1  0  0  0  0
 21 18  1  0  0  0  0
 22 26  1  0  0  0  0
 23 28  1  0  0  0  0
 23 24  1  0  0  0  0
 24 10  2  0  0  0  0
 25 24  1  0  0  0  0
 26 23  2  0  0  0  0
 27  3  1  0  0  0  0
 28 31  1  0  0  0  0
 29 22  1  0  0  0  0
 30 29  1  1  0  0  0
 30  1  1  0  0  0  0
 31 12  2  0  0  0  0
 32 31  1  0  0  0  0
M  END
