2,3
q = 0.0, confidence = 0.95

 34 37  0  0  1  0  0  0  0  0999 V2000
   -1.5483   -4.0490   -0.2962 S   0  0  0  0  0  0  0  0  0  0  0  0
   -0.3030   -1.8098   -0.2429 N   0  0  0  0  0  2  0  0  0  0  0  0
   -0.7197    0.7193   -0.9919 N   0  0  0  0  0  2  0  0  0  0  0  0
   -2.8575    0.4960   -1.6583 N   0  0  0  0  0  0  0  0  0  0  0  0
   -0.1568   -3.0843    0.0598 C   0  0  0  0  0  3  0  0  0  0  0  0
    0.7581   -3.4913    0.5134 H   0  0  0  0  0  0  0  0  0  0  0  0
   -2.3695   -2.6513   -0.8944 C   0  0  0  0  0  0  0  0  0  0  0  0
   -3.4037   -2.7260   -1.2435 H   0  0  0  0  0  0  0  0  0  0  0  0
   -1.5534   -1.5349   -0.8001 C   0  0  0  0  0  0  0  0  0  0  0  0
   -1.7417   -0.1387   -1.1604 C   0  0  2  0  0  3  0  0  0  0  0  0
   -1.1722    1.9685   -1.3791 C   0  0  0  0  0  0  0  0  0  0  0  0
   -0.5191    3.2172   -1.4009 C   0  0  0  0  0  0  0  0  0  0  0  0
    0.5271    3.3074   -1.0787 H   0  0  0  0  0  0  0  0  0  0  0  0
   -1.2615    4.3153   -1.8413 C   0  0  0  0  0  0  0  0  0  0  0  0
   -0.7882    5.3075   -1.8714 H   0  0  0  0  0  0  0  0  0  0  0  0
   -2.6142    4.1859   -2.2487 C   0  0  0  0  0  0  0  0  0  0  0  0
   -3.1605    5.0794   -2.5845 H   0  0  0  0  0  0  0  0  0  0  0  0
   -3.2748    2.9522   -2.2361 C   0  0  0  0  0  0  0  0  0  0  0  0
   -4.3239    2.8677   -2.5534 H   0  0  0  0  0  0  0  0  0  0  0  0
   -2.5306    1.8448   -1.7980 C   0  0  0  0  0  0  0  0  0  0  0  0
   -4.1819   -0.0823   -1.8372 C   0  0  0  0  0  0  0  0  0  0  0  0
   -4.1182   -0.9338   -2.5470 H   0  0  0  0  0  0  0  0  0  0  0  0
   -4.7993    0.6852   -2.3461 H   0  0  0  0  0  0  0  0  0  0  0  0
   -4.8336   -0.5121   -0.5334 C   0  0  0  0  0  0  0  0  0  0  0  0
   -5.8242   -1.5130   -0.5520 C   0  0  0  0  0  0  0  0  0  0  0  0
   -6.1135   -1.9813   -1.5073 H   0  0  0  0  0  0  0  0  0  0  0  0
   -6.4508   -1.9155    0.6369 C   0  0  0  0  0  0  0  0  0  0  0  0
   -7.2243   -2.6974    0.6093 H   0  0  0  0  0  0  0  0  0  0  0  0
   -6.0890   -1.3243    1.8579 C   0  0  0  0  0  0  0  0  0  0  0  0
   -6.5787   -1.6411    2.7906 H   0  0  0  0  0  0  0  0  0  0  0  0
   -5.1028   -0.3260    1.8814 C   0  0  0  0  0  0  0  0  0  0  0  0
   -4.8183    0.1485    2.8327 H   0  0  0  0  0  0  0  0  0  0  0  0
   -4.4777    0.0804    0.6926 C   0  0  0  0  0  0  0  0  0  0  0  0
   -3.7074    0.8664    0.7259 H   0  0  0  0  0  0  0  0  0  0  0  0
  1  5  1  0  0  0  0
  2  5  1  0  0  0  0
  4 10  1  0  0  0  0
  5  6  1  0  0  0  0
  7  9  2  0  0  0  0
  7  1  1  0  0  0  0
  8  7  1  0  0  0  0
  9  2  1  0  0  0  0
 10  3  1  0  0  0  0
 10  9  1  1  0  0  0
 11  3  1  0  0  0  0
 12 11  1  0  0  0  0
 12 13  1  0  0  0  0
 14 12  2  0  0  0  0
 15 14  1  0  0  0  0
 16 18  2  0  0  0  0
 16 14  1  0  0  0  0
 17 16  1  0  0  0  0
 18 20  1  0  0  0  0
 19 18  1  0  0  0  0
 20  4  1  0  0  0  0
 20 11  2  0  0  0  0
 21  4  1  0  0  0  0
 21 24  1  0  0  0  0
 22 21  1  0  0  0  0
 23 21  1  0  0  0  0
 24 33  1  0  0  0  0
 25 24  2  0  0  0  0
 25 27  1  0  0  0  0
 26 25  1  0  0  0  0
 27 29  2  0  0  0  0
 28 27  1  0  0  0  0
 29 31  1  0  0  0  0
 29 30  1  0  0  0  0
 31 32  1  0  0  0  0
 33 34  1  0  0  0  0
 33 31  2  0  0  0  0
M  END
