1,2
q = 0.0, confidence = 0.984

 55 56  0  0  1  0  0  0  0  0999 V2000
   -1.5112   -0.5710    0.4968 N   0  0  0  0  0  2  0  0  0  0  0  0
    1.5112   -0.5713    0.4967 N   0  0  0  0  0  2  0  0  0  0  0  0
   -1.3007   -1.4479    1.4230 C   0  0  2  0  0  3  0  0  0  0  0  0
   -0.0001   -2.2269    1.4113 C   0  0  0  0  0  0  0  0  0  0  0  0
   -0.0002   -2.9676    2.2307 H   0  0  0  0  0  0  0  0  0  0  0  0
   -0.0002   -2.7694    0.4261 H   0  0  0  0  0  0  0  0  0  0  0  0
    1.3006   -1.4482    1.4229 C   0  0  1  0  0  3  0  0  0  0  0  0
   -2.2987   -1.8109    2.4832 C   0  0  0  0  0  0  0  0  0  0  0  0
   -3.2195   -1.2048    2.4068 H   0  0  0  0  0  0  0  0  0  0  0  0
   -1.8430   -1.6743    3.4863 H   0  0  0  0  0  0  0  0  0  0  0  0
   -2.5613   -2.8870    2.4017 H   0  0  0  0  0  0  0  0  0  0  0  0
    2.2986   -1.8115    2.4830 C   0  0  0  0  0  0  0  0  0  0  0  0
    3.2195   -1.2055    2.4065 H   0  0  0  0  0  0  0  0  0  0  0  0
    2.5611   -2.8876    2.4014 H   0  0  0  0  0  0  0  0  0  0  0  0
    1.8431   -1.6748    3.4861 H   0  0  0  0  0  0  0  0  0  0  0  0
   -2.7826    0.0642    0.3283 C   0  0  0  0  0  0  0  0  0  0  0  0
   -3.8019   -0.6443   -0.3541 C   0  0  0  0  0  0  0  0  0  0  0  0
   -5.0286    0.0106   -0.5651 C   0  0  0  0  0  0  0  0  0  0  0  0
   -5.8258   -0.5313   -1.0993 H   0  0  0  0  0  0  0  0  0  0  0  0
   -5.2636    1.3249   -0.1246 C   0  0  0  0  0  0  0  0  0  0  0  0
   -4.2222    1.9923    0.5459 C   0  0  0  0  0  0  0  0  0  0  0  0
   -4.3792    3.0247    0.8983 H   0  0  0  0  0  0  0  0  0  0  0  0
   -2.9722    1.3926    0.7736 C   0  0  0  0  0  0  0  0  0  0  0  0
   -3.5760   -2.0522   -0.8435 C   0  0  0  0  0  0  0  0  0  0  0  0
   -3.5794   -2.7841   -0.0060 H   0  0  0  0  0  0  0  0  0  0  0  0
   -2.5965   -2.1594   -1.3553 H   0  0  0  0  0  0  0  0  0  0  0  0
   -4.3759   -2.3578   -1.5440 H   0  0  0  0  0  0  0  0  0  0  0  0
   -6.5758    2.0159   -0.3987 C   0  0  0  0  0  0  0  0  0  0  0  0
   -6.5151    2.6308   -1.3226 H   0  0  0  0  0  0  0  0  0  0  0  0
   -6.8581    2.6997    0.4265 H   0  0  0  0  0  0  0  0  0  0  0  0
   -7.3992    1.2891   -0.5432 H   0  0  0  0  0  0  0  0  0  0  0  0
   -1.8509    2.1443    1.4345 C   0  0  0  0  0  0  0  0  0  0  0  0
   -1.0612    2.3443    0.6789 H   0  0  0  0  0  0  0  0  0  0  0  0
   -1.3818    1.5676    2.2581 H   0  0  0  0  0  0  0  0  0  0  0  0
   -2.1995    3.1117    1.8422 H   0  0  0  0  0  0  0  0  0  0  0  0
    2.7826    0.0639    0.3283 C   0  0  0  0  0  0  0  0  0  0  0  0
    2.9722    1.3919    0.7745 C   0  0  0  0  0  0  0  0  0  0  0  0
    4.2222    1.9919    0.5468 C   0  0  0  0  0  0  0  0  0  0  0  0
    4.3793    3.0240    0.8999 H   0  0  0  0  0  0  0  0  0  0  0  0
    5.2634    1.3249   -0.1243 C   0  0  0  0  0  0  0  0  0  0  0  0
    5.0284    0.0108   -0.5655 C   0  0  0  0  0  0  0  0  0  0  0  0
    5.8256   -0.5308   -1.1001 H   0  0  0  0  0  0  0  0  0  0  0  0
    3.8017   -0.6442   -0.3547 C   0  0  0  0  0  0  0  0  0  0  0  0
    1.8511    2.1430    1.4364 C   0  0  0  0  0  0  0  0  0  0  0  0
    1.0600    2.3414    0.6819 H   0  0  0  0  0  0  0  0  0  0  0  0
    2.1992    3.1112    1.8426 H   0  0  0  0  0  0  0  0  0  0  0  0
    1.3840    1.5665    2.2613 H   0  0  0  0  0  0  0  0  0  0  0  0
    6.5756    2.0158   -0.3988 C   0  0  0  0  0  0  0  0  0  0  0  0
    6.5185    2.6205   -1.3296 H   0  0  0  0  0  0  0  0  0  0  0  0
    7.4013    1.2894   -0.5312 H   0  0  0  0  0  0  0  0  0  0  0  0
    6.8521    2.7091    0.4205 H   0  0  0  0  0  0  0  0  0  0  0  0
    3.5757   -2.0518   -0.8447 C   0  0  0  0  0  0  0  0  0  0  0  0
    4.3756   -2.3573   -1.5453 H   0  0  0  0  0  0  0  0  0  0  0  0
    2.5962   -2.1588   -1.3565 H   0  0  0  0  0  0  0  0  0  0  0  0
    3.5790   -2.7841   -0.0075 H   0  0  0  0  0  0  0  0  0  0  0  0
  3  1  1  6  0  0  0
  3  8  1  0  0  0  0
  4  7  1  0  0  0  0
  4  3  1  0  0  0  0
  4  5  1  0  0  0  0
  6  4  1  0  0  0  0
  7  2  1  6  0  0  0
  7 12  1  0  0  0  0
  8 10  1  0  0  0  0
  9  8  1  0  0  0  0
 11  8  1  0  0  0  0
 12 15  1  0  0  0  0
 13 12  1  0  0  0  0
 14 12  1  0  0  0  0
 16  1  1  0  0  0  0
 16 23  1  0  0  0  0
 17 16  2  0  0  0  0
 18 17  1  0  0  0  0
 18 20  2  0  0  0  0
 19 18  1  0  0  0  0
 20 21  1  0  0  0  0
 21 23  2  0  0  0  0
 21 22  1  0  0  0  0
 23 32  1  0  0  0  0
 24 17  1  0  0  0  0
 24 25  1  0  0  0  0
 26 24  1  0  0  0  0
 27 24  1  0  0  0  0
 28 20  1  0  0  0  0
 28 30  1  0  0  0  0
 29 28  1  0  0  0  0
 31 28  1  0  0  0  0
 32 35  1  0  0  0  0
 32 34  1  0  0  0  0
 33 32  1  0  0  0  0
 36  2  1  0  0  0  0
 36 37  1  0  0  0  0
 37 44  1  0  0  0  0
 38 37  2  0  0  0  0
 38 39  1  0  0  0  0
 40 38  1  0  0  0  0
 41 43  1  0  0  0  0
 41 40  2  0  0  0  0
 42 41  1  0  0  0  0
 43 36  2  0  0  0  0
 44 46  1  0  0  0  0
 44 47  1  0  0  0  0
 45 44  1  0  0  0  0
 48 40  1  0  0  0  0
 48 51  1  0  0  0  0
 49 48  1  0  0  0  0
 50 48  1  0  0  0  0
 52 43  1  0  0  0  0
 52 55  1  0  0  0  0
 53 52  1  0  0  0  0
 54 52  1  0  0  0  0
M  END
