1,4
q = -1.0

 34 35  0  0  0  0  0  0  0  0999 V2000
    1.3777   -1.5117   -0.3123 N   0  0  0  0  0  0  0  0  0  0  0  0
    1.5718   -1.8614    0.6381 H   0  0  0  0  0  0  0  0  0  0  0  0
    0.7333   -2.2363   -0.7215 H   0  0  0  0  0  0  0  0  0  0  0  0
    1.0120    1.3139   -1.1673 N   0  0  0  0  0  2  0  0  0  0  0  0
    2.6190   -1.3285   -1.0326 C   0  0  0  0  0  0  0  0  0  0  0  0
    3.6909   -2.1873   -0.7312 C   0  0  0  0  0  0  0  0  0  0  0  0
    3.5538   -2.9593    0.0422 H   0  0  0  0  0  0  0  0  0  0  0  0
    4.9138   -2.0759   -1.4044 C   0  0  0  0  0  0  0  0  0  0  0  0
    5.7401   -2.7587   -1.1564 H   0  0  0  0  0  0  0  0  0  0  0  0
    5.0706   -1.0904   -2.3891 C   0  0  0  0  0  0  0  0  0  0  0  0
    6.0255   -0.9860   -2.9255 H   0  0  0  0  0  0  0  0  0  0  0  0
    4.0096   -0.2200   -2.6704 C   0  0  0  0  0  0  0  0  0  0  0  0
    4.1415    0.5798   -3.4159 H   0  0  0  0  0  0  0  0  0  0  0  0
    2.7724   -0.3098   -2.0027 C   0  0  0  0  0  0  0  0  0  0  0  0
    1.6872    0.7116   -2.3165 C   0  0  0  0  0  0  0  0  0  0  0  0
    2.1354    1.5152   -2.9380 H   0  0  0  0  0  0  0  0  0  0  0  0
    0.8888    0.2424   -2.9332 H   0  0  0  0  0  0  0  0  0  0  0  0
    1.8834    2.4269   -0.2913 S   0  0  0  0  0  0  0  0  0  0  0  0
    0.9109    3.0291    0.6770 O   0  0  0  0  0  0  0  0  0  0  0  0
    2.6461    3.3027   -1.2125 O   0  0  0  0  0  0  0  0  0  0  0  0
    3.0823    1.5195    0.7080 C   0  0  0  0  0  0  0  0  0  0  0  0
    4.4082    1.4228    0.2620 C   0  0  0  0  0  0  0  0  0  0  0  0
    4.7209    2.0058   -0.6155 H   0  0  0  0  0  0  0  0  0  0  0  0
    5.2962    0.5759    0.9349 C   0  0  0  0  0  0  0  0  0  0  0  0
    6.3341    0.4890    0.5773 H   0  0  0  0  0  0  0  0  0  0  0  0
    4.8808   -0.1834    2.0494 C   0  0  0  0  0  0  0  0  0  0  0  0
    3.5514   -0.0376    2.4994 C   0  0  0  0  0  0  0  0  0  0  0  0
    3.2163   -0.5974    3.3873 H   0  0  0  0  0  0  0  0  0  0  0  0
    2.6517    0.8114    1.8402 C   0  0  0  0  0  0  0  0  0  0  0  0
    1.6165    0.9267    2.1946 H   0  0  0  0  0  0  0  0  0  0  0  0
    5.8333   -1.1396    2.7192 C   0  0  0  0  0  0  0  0  0  0  0  0
    6.8127   -0.6620    2.9250 H   0  0  0  0  0  0  0  0  0  0  0  0
    6.0355   -2.0141    2.0636 H   0  0  0  0  0  0  0  0  0  0  0  0
    5.4287   -1.5235    3.6754 H   0  0  0  0  0  0  0  0  0  0  0  0
  1  2  1  0  0  0  0
  3  1  1  0  0  0  0
  4 18  1  0  0  0  0
  5  6  1  0  0  0  0
  5  1  1  0  0  0  0
  6  7  1  0  0  0  0
  8  9  1  0  0  0  0
  8  6  2  0  0  0  0
 10  8  1  0  0  0  0
 11 10  1  0  0  0  0
 12 10  2  0  0  0  0
 12 14  1  0  0  0  0
 13 12  1  0  0  0  0
 14  5  2  0  0  0  0
 15 14  1  0  0  0  0
 15  4  1  0  0  0  0
 16 15  1  0  0  0  0
 17 15  1  0  0  0  0
 18 19  2  0  0  0  0
 18 21  1  0  0  0  0
 20 18  2  0  0  0  0
 21 29  1  0  0  0  0
 22 21  2  0  0  0  0
 22 24  1  0  0  0  0
 23 22  1  0  0  0  0
 24 26  2  0  0  0  0
 25 24  1  0  0  0  0
 26 27  1  0  0  0  0
 26 31  1  0  0  0  0
 27 28  1  0  0  0  0
 29 30  1  0  0  0  0
 29 27  2  0  0  0  0
 31 32  1  0  0  0  0
 31 34  1  0  0  0  0
 33 31  1  0  0  0  0
M  END
