20,22
q = 0.0, confidence = 0.966

 23 24  0  0  1  0  0  0  0  0999 V2000
   -0.2940    2.2037    0.3658 N   0  0  0  0  0  2  0  0  0  0  0  0
    1.6460    3.6256    0.2017 C   0  0  0  0  0  0  0  0  0  0  0  0
    2.0650    4.6406    0.2027 H   0  0  0  0  0  0  0  0  0  0  0  0
    3.7648   -0.3349   -0.4492 C   0  0  1  0  0  3  0  0  0  0  0  0
    0.2569    3.4131    0.3580 C   0  0  0  0  0  0  0  0  0  0  0  0
    3.7440   -1.7077   -0.6375 C   0  0  0  0  0  0  0  0  0  0  0  0
    4.6006   -2.3306   -0.9146 H   0  0  0  0  0  0  0  0  0  0  0  0
    2.4473    2.5027    0.0457 C   0  0  0  0  0  0  0  0  0  0  0  0
    3.5296    2.6034   -0.0778 H   0  0  0  0  0  0  0  0  0  0  0  0
    2.4126   -2.1539   -0.4185 C   0  0  0  0  0  0  0  0  0  0  0  0
    1.8735   -3.5330   -0.5837 C   0  0  0  0  0  0  0  0  0  0  0  0
    1.6710   -4.0203    0.3912 H   0  0  0  0  0  0  0  0  0  0  0  0
    2.6051   -4.1615   -1.1228 H   0  0  0  0  0  0  0  0  0  0  0  0
    0.9325   -3.5058   -1.1671 H   0  0  0  0  0  0  0  0  0  0  0  0
    4.9088    0.6101   -0.5833 C   0  0  0  0  0  0  0  0  0  0  0  0
    4.7496    1.3473   -1.3975 H   0  0  0  0  0  0  0  0  0  0  0  0
    5.8166    0.0334   -0.8361 H   0  0  0  0  0  0  0  0  0  0  0  0
    5.1173    1.1620    0.3563 H   0  0  0  0  0  0  0  0  0  0  0  0
    2.4616    0.0137   -0.1112 N   0  0  0  0  0  0  0  0  0  0  0  0
    1.6505   -1.1035   -0.0752 N   0  0  0  0  0  2  0  0  0  0  0  0
    1.8237    1.2389    0.0452 C   0  0  0  0  0  0  0  0  0  0  0  0
    0.4745    1.1365    0.2153 N   0  0  0  0  0  2  0  0  0  0  0  0
   -0.8180    4.7432    0.5477 Cl  0  0  0  0  0  0  0  0  0  0  0  0
  2  3  1  0  0  0  0
  2  5  2  0  0  0  0
  4 15  1  6  0  0  0
  4 19  1  0  0  0  0
  5  1  1  0  0  0  0
  5 23  1  0  0  0  0
  6  4  1  0  0  0  0
  6 10  2  0  0  0  0
  7  6  1  0  0  0  0
  8  2  1  0  0  0  0
  9  8  1  0  0  0  0
 10 20  1  0  0  0  0
 11 10  1  0  0  0  0
 11 12  1  0  0  0  0
 13 11  1  0  0  0  0
 14 11  1  0  0  0  0
 15 18  1  0  0  0  0
 16 15  1  0  0  0  0
 17 15  1  0  0  0  0
 19 20  1  0  0  0  0
 19 21  1  0  0  0  0
 21  8  2  0  0  0  0
 21 22  1  0  0  0  0
 22  1  1  0  0  0  0
M  END
