1,2
q = -1.0

 33 33  0  0  0  0  0  0  0  0999 V2000
   -0.6852   -1.0843   -0.3763 N   0  0  0  0  0  2  0  0  0  0  0  0
   -0.6835    1.0860    0.3359 N   0  0  0  0  0  2  0  0  0  0  0  0
   -1.3175   -2.3533   -0.7001 C   0  0  0  0  0  0  0  0  0  0  0  0
   -2.4014   -2.1838   -0.8992 H   0  0  0  0  0  0  0  0  0  0  0  0
   -1.2045   -3.3433    0.4704 C   0  0  0  0  0  0  0  0  0  0  0  0
   -1.6644   -2.9263    1.3892 H   0  0  0  0  0  0  0  0  0  0  0  0
   -0.1406   -3.5605    0.6983 H   0  0  0  0  0  0  0  0  0  0  0  0
   -1.7098   -4.3026    0.2357 H   0  0  0  0  0  0  0  0  0  0  0  0
   -0.6986   -2.9377   -1.9757 C   0  0  0  0  0  0  0  0  0  0  0  0
   -0.8279   -2.2432   -2.8294 H   0  0  0  0  0  0  0  0  0  0  0  0
   -1.1662   -3.9076   -2.2404 H   0  0  0  0  0  0  0  0  0  0  0  0
    0.3902   -3.1102   -1.8380 H   0  0  0  0  0  0  0  0  0  0  0  0
   -1.3103    2.3716    0.6038 C   0  0  0  0  0  0  0  0  0  0  0  0
   -2.3757    2.2154    0.8945 H   0  0  0  0  0  0  0  0  0  0  0  0
   -0.5985    3.0604    1.7734 C   0  0  0  0  0  0  0  0  0  0  0  0
   -0.6589    2.4449    2.6927 H   0  0  0  0  0  0  0  0  0  0  0  0
   -1.0457    4.0519    1.9875 H   0  0  0  0  0  0  0  0  0  0  0  0
    0.4764    3.2150    1.5384 H   0  0  0  0  0  0  0  0  0  0  0  0
   -1.3122    3.2633   -0.6480 C   0  0  0  0  0  0  0  0  0  0  0  0
   -1.8464    2.7654   -1.4815 H   0  0  0  0  0  0  0  0  0  0  0  0
   -0.2748    3.4707   -0.9815 H   0  0  0  0  0  0  0  0  0  0  0  0
   -1.8120    4.2335   -0.4486 H   0  0  0  0  0  0  0  0  0  0  0  0
   -1.3929    0.0066   -0.0369 C   0  0  0  0  0  3  0  0  0  0  0  0
   -2.8863    0.0166   -0.0428 C   0  0  0  0  0  0  0  0  0  0  0  0
   -3.7266    0.3543   -1.0677 C   0  0  0  0  0  0  0  0  0  0  0  0
   -3.4114    0.6676   -2.0731 H   0  0  0  0  0  0  0  0  0  0  0  0
   -5.1180    0.2285   -0.6232 C   0  0  0  0  0  0  0  0  0  0  0  0
   -5.9937    0.4400   -1.2528 H   0  0  0  0  0  0  0  0  0  0  0  0
   -5.1412   -0.1867    0.6748 C   0  0  0  0  0  0  0  0  0  0  0  0
   -6.0297   -0.3739    1.2922 H   0  0  0  0  0  0  0  0  0  0  0  0
   -3.7285   -0.3606    1.1540 C   0  0  0  0  0  0  0  0  0  0  0  0
   -3.4931    0.2749    2.0385 H   0  0  0  0  0  0  0  0  0  0  0  0
   -3.5197   -1.4044    1.4834 H   0  0  0  0  0  0  0  0  0  0  0  0
  1 23  1  0  0  0  0
  2 13  1  0  0  0  0
  3  1  1  0  0  0  0
  3  5  1  0  0  0  0
  4  3  1  0  0  0  0
  5  7  1  0  0  0  0
  5  6  1  0  0  0  0
  8  5  1  0  0  0  0
  9 12  1  0  0  0  0
  9  3  1  0  0  0  0
 10  9  1  0  0  0  0
 11  9  1  0  0  0  0
 13 14  1  0  0  0  0
 13 15  1  0  0  0  0
 15 17  1  0  0  0  0
 15 16  1  0  0  0  0
 18 15  1  0  0  0  0
 19 22  1  0  0  0  0
 19 13  1  0  0  0  0
 20 19  1  0  0  0  0
 21 19  1  0  0  0  0
 23  2  1  0  0  0  0
 24 23  1  0  0  0  0
 24 31  1  0  0  0  0
 25 27  1  0  0  0  0
 25 24  2  0  0  0  0
 26 25  1  0  0  0  0
 27 29  2  0  0  0  0
 28 27  1  0  0  0  0
 29 31  1  0  0  0  0
 29 30  1  0  0  0  0
 31 33  1  0  0  0  0
 31 32  1  0  0  0  0
M  END
