1,2
q = 0.0, confidence = 0.972

 40 43  0  0  1  0  0  0  0  0999 V2000
   -1.2821   -2.1423    0.1187 N   0  0  0  0  0  2  0  0  0  0  0  0
    0.2295    0.1089   -0.1984 N   0  0  0  0  0  2  0  0  0  0  0  0
    1.0357    3.6123    0.0883 N   0  0  0  0  0  0  0  0  0  0  0  0
    9.9703   -0.4387    0.0350 N   0  0  0  0  0  0  0  0  0  0  0  0
   -2.1574   -3.1593    0.0182 C   0  0  0  0  0  3  0  0  0  0  0  0
   -3.1826   -2.9451    0.3547 H   0  0  0  0  0  0  0  0  0  0  0  0
   -1.7953   -4.4083   -0.4966 C   0  0  0  0  0  0  0  0  0  0  0  0
   -2.5420   -5.2125   -0.5555 H   0  0  0  0  0  0  0  0  0  0  0  0
   -0.4798   -4.5936   -0.9464 C   0  0  0  0  0  0  0  0  0  0  0  0
   -0.1614   -5.5562   -1.3728 H   0  0  0  0  0  0  0  0  0  0  0  0
    0.4188   -3.5249   -0.8700 C   0  0  0  0  0  0  0  0  0  0  0  0
    1.4396   -3.6282   -1.2611 H   0  0  0  0  0  0  0  0  0  0  0  0
   -0.0116   -2.2976   -0.3266 C   0  0  0  0  0  0  0  0  0  0  0  0
    0.8585   -1.0971   -0.2744 C   0  0  2  0  0  3  0  0  0  0  0  0
    2.2568   -1.2122   -0.2992 C   0  0  0  0  0  0  0  0  0  0  0  0
    2.7173   -2.2085   -0.2962 H   0  0  0  0  0  0  0  0  0  0  0  0
    3.0625   -0.0576   -0.2329 C   0  0  0  0  0  0  0  0  0  0  0  0
    2.3944    1.1777   -0.2292 C   0  0  0  0  0  0  0  0  0  0  0  0
    2.9279    2.1375   -0.2355 H   0  0  0  0  0  0  0  0  0  0  0  0
    0.9883    1.2318   -0.2548 C   0  0  0  0  0  0  0  0  0  0  0  0
    0.3440    2.5643   -0.4098 C   0  0  0  0  0  0  0  0  0  0  0  0
   -0.8647    2.7069   -1.1176 C   0  0  0  0  0  0  0  0  0  0  0  0
   -1.3971    1.8271   -1.5133 H   0  0  0  0  0  0  0  0  0  0  0  0
   -1.3917    3.9943   -1.2749 C   0  0  0  0  0  0  0  0  0  0  0  0
   -2.3414    4.1331   -1.8134 H   0  0  0  0  0  0  0  0  0  0  0  0
   -0.6979    5.0838   -0.7313 C   0  0  0  0  0  0  0  0  0  0  0  0
   -1.0791    6.1116   -0.8252 H   0  0  0  0  0  0  0  0  0  0  0  0
    0.5156    4.8359   -0.0644 C   0  0  0  0  0  0  0  0  0  0  0  0
    1.0962    5.6718    0.3648 H   0  0  0  0  0  0  0  0  0  0  0  0
    4.5405   -0.1411   -0.1823 C   0  0  0  0  0  0  0  0  0  0  0  0
    5.2917    0.8396    0.5059 C   0  0  0  0  0  0  0  0  0  0  0  0
    4.7712    1.6583    1.0238 H   0  0  0  0  0  0  0  0  0  0  0  0
    6.6847    0.7682    0.5675 C   0  0  0  0  0  0  0  0  0  0  0  0
    7.2570    1.5302    1.1151 H   0  0  0  0  0  0  0  0  0  0  0  0
    7.3686   -0.2935   -0.0699 C   0  0  0  0  0  0  0  0  0  0  0  0
    6.6281   -1.2773   -0.7659 C   0  0  0  0  0  0  0  0  0  0  0  0
    7.1576   -2.0970   -1.2717 H   0  0  0  0  0  0  0  0  0  0  0  0
    5.2349   -1.1973   -0.8154 C   0  0  0  0  0  0  0  0  0  0  0  0
    4.6760   -1.9555   -1.3831 H   0  0  0  0  0  0  0  0  0  0  0  0
    8.7989   -0.3725   -0.0121 C   0  0  0  0  0  0  0  0  0  0  0  0
  5  1  1  0  0  0  0
  5  6  1  0  0  0  0
  7  5  1  0  0  0  0
  8  7  1  0  0  0  0
  9 11  1  0  0  0  0
  9  7  2  0  0  0  0
 10  9  1  0  0  0  0
 11 13  2  0  0  0  0
 12 11  1  0  0  0  0
 13  1  1  0  0  0  0
 14 13  1  1  0  0  0
 14  2  1  0  0  0  0
 15 16  1  0  0  0  0
 15 14  1  0  0  0  0
 15 17  2  0  0  0  0
 17 18  1  0  0  0  0
 17 30  1  0  0  0  0
 19 18  1  0  0  0  0
 20 18  2  0  0  0  0
 20  2  1  0  0  0  0
 21 20  1  0  0  0  0
 21  3  2  0  0  0  0
 22 21  1  0  0  0  0
 23 22  1  0  0  0  0
 24 22  2  0  0  0  0
 24 26  1  0  0  0  0
 25 24  1  0  0  0  0
 26 28  2  0  0  0  0
 27 26  1  0  0  0  0
 28  3  1  0  0  0  0
 28 29  1  0  0  0  0
 30 31  1  0  0  0  0
 31 33  2  0  0  0  0
 31 32  1  0  0  0  0
 33 34  1  0  0  0  0
 35 40  1  0  0  0  0
 35 33  1  0  0  0  0
 36 35  2  0  0  0  0
 37 36  1  0  0  0  0
 38 36  1  0  0  0  0
 38 30  2  0  0  0  0
 39 38  1  0  0  0  0
 40  4  3  0  0  0  0
M  END
