1,2
q = 0.0, confidence = 0.996

 55 57  0  0  0  0  0  0  0  0999 V2000
   -0.2220    1.2921   -0.2084 N   0  0  0  0  0  2  0  0  0  0  0  0
    2.3705    0.7358    0.0827 N   0  0  0  0  0  2  0  0  0  0  0  0
   -3.7546    0.7416   -0.3996 N   0  0  0  0  0  0  0  0  0  0  0  0
    3.1254    3.0695   -0.2534 C   0  0  0  0  0  0  0  0  0  0  0  0
    2.8104    3.9298    0.3706 H   0  0  0  0  0  0  0  0  0  0  0  0
    4.0981    2.6959    0.1135 H   0  0  0  0  0  0  0  0  0  0  0  0
    3.2640    3.4432   -1.2893 H   0  0  0  0  0  0  0  0  0  0  0  0
    2.1005    1.9760   -0.2366 C   0  0  0  0  0  0  0  0  0  0  0  0
    0.6874    2.2736   -0.5275 C   0  0  0  0  0  0  0  0  0  0  0  0
    0.2944    3.5186   -1.0462 C   0  0  0  0  0  0  0  0  0  0  0  0
    1.0532    4.2750   -1.2832 H   0  0  0  0  0  0  0  0  0  0  0  0
   -1.0600    3.7597   -1.2897 C   0  0  0  0  0  0  0  0  0  0  0  0
   -1.3917    4.7074   -1.7384 H   0  0  0  0  0  0  0  0  0  0  0  0
   -1.9838    2.7821   -0.9202 C   0  0  0  0  0  0  0  0  0  0  0  0
   -3.0667    2.9132   -1.0439 H   0  0  0  0  0  0  0  0  0  0  0  0
   -1.5449    1.5709   -0.3432 C   0  0  0  0  0  0  0  0  0  0  0  0
   -2.6152    0.6643    0.2000 C   0  0  0  0  0  0  0  0  0  0  0  0
   -2.3695   -0.1230    1.4636 C   0  0  0  0  0  0  0  0  0  0  0  0
   -1.4680    0.2162    2.0018 H   0  0  0  0  0  0  0  0  0  0  0  0
   -3.2553   -0.0415    2.1219 H   0  0  0  0  0  0  0  0  0  0  0  0
   -2.2482   -1.2005    1.2413 H   0  0  0  0  0  0  0  0  0  0  0  0
    3.6700    0.3450    0.5579 C   0  0  0  0  0  0  0  0  0  0  0  0
    4.6539   -0.0744   -0.3730 C   0  0  0  0  0  0  0  0  0  0  0  0
    5.8784   -0.5428    0.1381 C   0  0  0  0  0  0  0  0  0  0  0  0
    6.6481   -0.8846   -0.5710 H   0  0  0  0  0  0  0  0  0  0  0  0
    6.1276   -0.5755    1.5161 C   0  0  0  0  0  0  0  0  0  0  0  0
    7.0908   -0.9500    1.8937 H   0  0  0  0  0  0  0  0  0  0  0  0
    5.1521   -0.1219    2.4106 C   0  0  0  0  0  0  0  0  0  0  0  0
    5.3497   -0.1301    3.4940 H   0  0  0  0  0  0  0  0  0  0  0  0
    3.9045    0.3475    1.9553 C   0  0  0  0  0  0  0  0  0  0  0  0
    4.4228    0.0207   -1.8575 C   0  0  0  0  0  0  0  0  0  0  0  0
    5.1134   -0.6468   -2.4068 H   0  0  0  0  0  0  0  0  0  0  0  0
    3.3806   -0.2181   -2.1530 H   0  0  0  0  0  0  0  0  0  0  0  0
    4.6143    1.0560   -2.2172 H   0  0  0  0  0  0  0  0  0  0  0  0
    2.8779    0.8273    2.9520 C   0  0  0  0  0  0  0  0  0  0  0  0
    2.0263    1.3456    2.4748 H   0  0  0  0  0  0  0  0  0  0  0  0
    2.4550   -0.0229    3.5247 H   0  0  0  0  0  0  0  0  0  0  0  0
    3.3399    1.5193    3.6845 H   0  0  0  0  0  0  0  0  0  0  0  0
   -4.9226    0.1277    0.0834 C   0  0  0  0  0  0  0  0  0  0  0  0
   -5.6562    0.7526    1.1311 C   0  0  0  0  0  0  0  0  0  0  0  0
   -6.8621    0.1592    1.5451 C   0  0  0  0  0  0  0  0  0  0  0  0
   -7.4359    0.6389    2.3539 H   0  0  0  0  0  0  0  0  0  0  0  0
   -7.3448   -1.0084    0.9388 C   0  0  0  0  0  0  0  0  0  0  0  0
   -8.2898   -1.4578    1.2781 H   0  0  0  0  0  0  0  0  0  0  0  0
   -6.6303   -1.5829   -0.1211 C   0  0  0  0  0  0  0  0  0  0  0  0
   -7.0180   -2.4827   -0.6244 H   0  0  0  0  0  0  0  0  0  0  0  0
   -5.4221   -1.0260   -0.5768 C   0  0  0  0  0  0  0  0  0  0  0  0
   -5.1779    2.0483    1.7379 C   0  0  0  0  0  0  0  0  0  0  0  0
   -4.9779    2.8082    0.9534 H   0  0  0  0  0  0  0  0  0  0  0  0
   -5.9341    2.4622    2.4317 H   0  0  0  0  0  0  0  0  0  0  0  0
   -4.2321    1.9341    2.3095 H   0  0  0  0  0  0  0  0  0  0  0  0
   -4.6676   -1.6100   -1.7398 C   0  0  0  0  0  0  0  0  0  0  0  0
   -4.3295   -0.8086   -2.4293 H   0  0  0  0  0  0  0  0  0  0  0  0
   -3.7514   -2.1442   -1.4167 H   0  0  0  0  0  0  0  0  0  0  0  0
   -5.2945   -2.3265   -2.3042 H   0  0  0  0  0  0  0  0  0  0  0  0
  2 22  1  0  0  0  0
  3 39  1  0  0  0  0
  3 17  2  0  0  0  0
  4  8  1  0  0  0  0
  4  6  1  0  0  0  0
  4  5  1  0  0  0  0
  7  4  1  0  0  0  0
  8  2  1  0  0  0  0
  9  8  2  0  0  0  0
  9  1  1  0  0  0  0
 10  9  1  0  0  0  0
 11 10  1  0  0  0  0
 12 10  2  0  0  0  0
 12 14  1  0  0  0  0
 13 12  1  0  0  0  0
 14 16  2  0  0  0  0
 15 14  1  0  0  0  0
 16  1  1  0  0  0  0
 16 17  1  0  0  0  0
 17 18  1  0  0  0  0
 18 19  1  0  0  0  0
 18 20  1  0  0  0  0
 21 18  1  0  0  0  0
 22 30  1  0  0  0  0
 23 24  1  0  0  0  0
 23 22  2  0  0  0  0
 24 26  2  0  0  0  0
 25 24  1  0  0  0  0
 26 27  1  0  0  0  0
 26 28  1  0  0  0  0
 28 29  1  0  0  0  0
 30 28  2  0  0  0  0
 30 35  1  0  0  0  0
 31 23  1  0  0  0  0
 32 31  1  0  0  0  0
 33 31  1  0  0  0  0
 34 31  1  0  0  0  0
 35 37  1  0  0  0  0
 35 38  1  0  0  0  0
 36 35  1  0  0  0  0
 39 40  1  0  0  0  0
 40 41  2  0  0  0  0
 40 48  1  0  0  0  0
 41 42  1  0  0  0  0
 43 44  1  0  0  0  0
 43 41  1  0  0  0  0
 45 43  2  0  0  0  0
 46 45  1  0  0  0  0
 47 45  1  0  0  0  0
 47 39  2  0  0  0  0
 48 51  1  0  0  0  0
 48 50  1  0  0  0  0
 49 48  1  0  0  0  0
 52 54  1  0  0  0  0
 52 47  1  0  0  0  0
 53 52  1  0  0  0  0
 55 52  1  0  0  0  0
M  END
