1,2
q = 0.0, confidence = 0.996

 43 45  0  0  0  0  0  0  0  0999 V2000
    0.1452    1.6644   -0.1931 N   0  0  0  0  0  2  0  0  0  0  0  0
   -2.2241    0.5421   -0.4020 N   0  0  0  0  0  2  0  0  0  0  0  0
    3.0453    0.6739   -0.7305 N   0  0  0  0  0  0  0  0  0  0  0  0
   -3.4434    2.6341   -0.9482 C   0  0  0  0  0  0  0  0  0  0  0  0
   -3.3282    3.1478   -1.9247 H   0  0  0  0  0  0  0  0  0  0  0  0
   -4.3385    1.9896   -0.9928 H   0  0  0  0  0  0  0  0  0  0  0  0
   -3.6128    3.4170   -0.1807 H   0  0  0  0  0  0  0  0  0  0  0  0
   -2.2205    1.8337   -0.6137 C   0  0  0  0  0  0  0  0  0  0  0  0
   -0.9074    2.4846   -0.5065 C   0  0  0  0  0  0  0  0  0  0  0  0
   -0.7330    3.8625   -0.7240 C   0  0  0  0  0  0  0  0  0  0  0  0
   -1.5976    4.4900   -0.9751 H   0  0  0  0  0  0  0  0  0  0  0  0
    0.5438    4.4200   -0.6089 C   0  0  0  0  0  0  0  0  0  0  0  0
    0.7030    5.4958   -0.7726 H   0  0  0  0  0  0  0  0  0  0  0  0
    1.6109    3.5786   -0.2795 C   0  0  0  0  0  0  0  0  0  0  0  0
    2.6346    3.9653   -0.1765 H   0  0  0  0  0  0  0  0  0  0  0  0
    1.3783    2.2052   -0.0851 C   0  0  0  0  0  0  0  0  0  0  0  0
    2.5348    1.3064    0.2638 C   0  0  0  0  0  0  0  0  0  0  0  0
    2.9132    1.2913    1.7228 C   0  0  0  0  0  0  0  0  0  0  0  0
    1.9896    1.1992    2.3342 H   0  0  0  0  0  0  0  0  0  0  0  0
    3.6041    0.4617    1.9581 H   0  0  0  0  0  0  0  0  0  0  0  0
    3.3923    2.2534    2.0059 H   0  0  0  0  0  0  0  0  0  0  0  0
   -3.4371   -0.2147   -0.4584 C   0  0  0  0  0  0  0  0  0  0  0  0
   -3.8522   -0.7916   -1.6710 C   0  0  0  0  0  0  0  0  0  0  0  0
   -3.2506   -0.6347   -2.5783 H   0  0  0  0  0  0  0  0  0  0  0  0
   -5.0161   -1.5745   -1.6954 C   0  0  0  0  0  0  0  0  0  0  0  0
   -5.3421   -2.0303   -2.6424 H   0  0  0  0  0  0  0  0  0  0  0  0
   -5.7549   -1.7831   -0.5202 C   0  0  0  0  0  0  0  0  0  0  0  0
   -6.6636   -2.4027   -0.5436 H   0  0  0  0  0  0  0  0  0  0  0  0
   -5.3231   -1.2111    0.6877 C   0  0  0  0  0  0  0  0  0  0  0  0
   -5.8904   -1.3838    1.6146 H   0  0  0  0  0  0  0  0  0  0  0  0
   -4.1618   -0.4275    0.7290 C   0  0  0  0  0  0  0  0  0  0  0  0
   -3.7789    0.0022    1.6669 H   0  0  0  0  0  0  0  0  0  0  0  0
    4.1603   -0.1676   -0.6419 C   0  0  0  0  0  0  0  0  0  0  0  0
    5.3851    0.2389   -0.0627 C   0  0  0  0  0  0  0  0  0  0  0  0
    5.4744    1.2504    0.3605 H   0  0  0  0  0  0  0  0  0  0  0  0
    6.4865   -0.6283   -0.0622 C   0  0  0  0  0  0  0  0  0  0  0  0
    7.4375   -0.2964    0.3821 H   0  0  0  0  0  0  0  0  0  0  0  0
    6.3803   -1.9122   -0.6193 C   0  0  0  0  0  0  0  0  0  0  0  0
    7.2444   -2.5932   -0.6089 H   0  0  0  0  0  0  0  0  0  0  0  0
    5.1673   -2.3159   -1.2040 C   0  0  0  0  0  0  0  0  0  0  0  0
    5.0782   -3.3170   -1.6525 H   0  0  0  0  0  0  0  0  0  0  0  0
    4.0711   -1.4473   -1.2384 C   0  0  0  0  0  0  0  0  0  0  0  0
    3.1247   -1.7397   -1.7157 H   0  0  0  0  0  0  0  0  0  0  0  0
  1 16  1  0  0  0  0
  3 33  1  0  0  0  0
  3 17  2  0  0  0  0
  4  8  1  0  0  0  0
  4  7  1  0  0  0  0
  5  4  1  0  0  0  0
  6  4  1  0  0  0  0
  8  9  2  0  0  0  0
  8  2  1  0  0  0  0
  9  1  1  0  0  0  0
 10 12  2  0  0  0  0
 10  9  1  0  0  0  0
 11 10  1  0  0  0  0
 12 14  1  0  0  0  0
 13 12  1  0  0  0  0
 14 15  1  0  0  0  0
 14 16  2  0  0  0  0
 16 17  1  0  0  0  0
 17 18  1  0  0  0  0
 18 20  1  0  0  0  0
 18 21  1  0  0  0  0
 18 19  1  0  0  0  0
 22  2  1  0  0  0  0
 22 31  1  0  0  0  0
 23 22  2  0  0  0  0
 24 23  1  0  0  0  0
 25 23  1  0  0  0  0
 25 27  2  0  0  0  0
 26 25  1  0  0  0  0
 27 29  1  0  0  0  0
 28 27  1  0  0  0  0
 29 31  2  0  0  0  0
 29 30  1  0  0  0  0
 31 32  1  0  0  0  0
 33 34  1  0  0  0  0
 34 36  2  0  0  0  0
 34 35  1  0  0  0  0
 36 37  1  0  0  0  0
 38 39  1  0  0  0  0
 38 36  1  0  0  0  0
 40 38  2  0  0  0  0
 41 40  1  0  0  0  0
 42 40  1  0  0  0  0
 42 33  2  0  0  0  0
 43 42  1  0  0  0  0
M  END
