4,7
q = -1.0

 42 45  0  0  1  0  0  0  0  0999 V2000
    0.7615    1.9233    1.4145 S   0  0  0  0  0  0  0  0  0  0  0  0
    0.8043    0.4897    1.8408 O   0  0  0  0  0  0  0  0  0  0  0  0
    0.4640    2.9475    2.4473 O   0  0  0  0  0  0  0  0  0  0  0  0
   -2.0728    0.4486   -1.6851 N   0  0  0  0  0  2  0  0  0  0  0  0
   -2.2934    1.4786   -3.6439 N   0  0  0  0  0  0  0  0  0  0  0  0
   -2.1858    2.2010   -4.3534 H   0  0  0  0  0  0  0  0  0  0  0  0
   -0.3217    1.8844    0.1463 N   0  0  0  0  0  2  0  0  0  0  0  0
   -1.9161    1.6190   -2.3228 C   0  0  1  0  0  3  0  0  0  0  0  0
   -2.6878    0.1701   -3.8677 C   0  0  0  0  0  0  0  0  0  0  0  0
   -3.1355   -0.5095   -5.0094 C   0  0  0  0  0  0  0  0  0  0  0  0
   -3.2441   -0.0053   -5.9805 H   0  0  0  0  0  0  0  0  0  0  0  0
   -3.4316   -1.8710   -4.8538 C   0  0  0  0  0  0  0  0  0  0  0  0
   -3.7809   -2.4460   -5.7242 H   0  0  0  0  0  0  0  0  0  0  0  0
   -3.2848   -2.5239   -3.6069 C   0  0  0  0  0  0  0  0  0  0  0  0
   -3.5170   -3.5964   -3.5331 H   0  0  0  0  0  0  0  0  0  0  0  0
   -2.8390   -1.8423   -2.4692 C   0  0  0  0  0  0  0  0  0  0  0  0
   -2.7085   -2.3506   -1.5049 H   0  0  0  0  0  0  0  0  0  0  0  0
   -2.5395   -0.4760   -2.6091 C   0  0  0  0  0  0  0  0  0  0  0  0
   -1.4552    2.8942   -1.7801 C   0  0  0  0  0  0  0  0  0  0  0  0
   -0.6559    3.0113   -0.5831 C   0  0  0  0  0  0  0  0  0  0  0  0
   -0.2363    4.3218   -0.2086 C   0  0  0  0  0  0  0  0  0  0  0  0
    0.3386    4.4396    0.7178 H   0  0  0  0  0  0  0  0  0  0  0  0
   -0.5722    5.4491   -0.9550 C   0  0  0  0  0  0  0  0  0  0  0  0
   -0.2246    6.4370   -0.6156 H   0  0  0  0  0  0  0  0  0  0  0  0
   -1.3659    5.3369   -2.1108 C   0  0  0  0  0  0  0  0  0  0  0  0
   -1.6594    6.2257   -2.6872 H   0  0  0  0  0  0  0  0  0  0  0  0
   -1.7977    4.0702   -2.4970 C   0  0  0  0  0  0  0  0  0  0  0  0
   -2.4603    3.9866   -3.3724 H   0  0  0  0  0  0  0  0  0  0  0  0
    2.3575    2.3267    0.6883 C   0  0  0  0  0  0  0  0  0  0  0  0
    3.1815    3.2527    1.3408 C   0  0  0  0  0  0  0  0  0  0  0  0
    2.8140    3.7558    2.2470 H   0  0  0  0  0  0  0  0  0  0  0  0
    4.4567    3.5127    0.8182 C   0  0  0  0  0  0  0  0  0  0  0  0
    5.1117    4.2390    1.3249 H   0  0  0  0  0  0  0  0  0  0  0  0
    4.9151    2.8602   -0.3438 C   0  0  0  0  0  0  0  0  0  0  0  0
    4.0558    1.9340   -0.9758 C   0  0  0  0  0  0  0  0  0  0  0  0
    4.3948    1.4111   -1.8843 H   0  0  0  0  0  0  0  0  0  0  0  0
    2.7798    1.6581   -0.4732 C   0  0  0  0  0  0  0  0  0  0  0  0
    2.1217    0.9326   -0.9782 H   0  0  0  0  0  0  0  0  0  0  0  0
    6.2808    3.1463   -0.9141 C   0  0  0  0  0  0  0  0  0  0  0  0
    6.8794    3.7923   -0.2434 H   0  0  0  0  0  0  0  0  0  0  0  0
    6.2031    3.6591   -1.8962 H   0  0  0  0  0  0  0  0  0  0  0  0
    6.8488    2.2093   -1.0883 H   0  0  0  0  0  0  0  0  0  0  0  0
  1  2  2  0  0  0  0
  1  3  2  0  0  0  0
  5  8  1  0  0  0  0
  6  5  1  0  0  0  0
  7  1  1  0  0  0  0
  8 19  1  1  0  0  0
  8  4  1  0  0  0  0
  9  5  1  0  0  0  0
  9 18  1  0  0  0  0
 10 12  1  0  0  0  0
 10  9  2  0  0  0  0
 11 10  1  0  0  0  0
 12 14  2  0  0  0  0
 13 12  1  0  0  0  0
 14 15  1  0  0  0  0
 14 16  1  0  0  0  0
 16 17  1  0  0  0  0
 18 16  2  0  0  0  0
 18  4  1  0  0  0  0
 19 20  1  0  0  0  0
 20 21  2  0  0  0  0
 20  7  1  0  0  0  0
 21 22  1  0  0  0  0
 23 24  1  0  0  0  0
 23 21  1  0  0  0  0
 25 23  2  0  0  0  0
 26 25  1  0  0  0  0
 27 25  1  0  0  0  0
 27 19  2  0  0  0  0
 28 27  1  0  0  0  0
 29 30  1  0  0  0  0
 29  1  1  0  0  0  0
 30 31  1  0  0  0  0
 32 33  1  0  0  0  0
 32 30  2  0  0  0  0
 34 32  1  0  0  0  0
 35 37  1  0  0  0  0
 35 34  2  0  0  0  0
 36 35  1  0  0  0  0
 37 29  2  0  0  0  0
 38 37  1  0  0  0  0
 39 34  1  0  0  0  0
 39 40  1  0  0  0  0
 41 39  1  0  0  0  0
 42 39  1  0  0  0  0
M  END
