2,3
q = 0.0, confidence = 0.996

 80 87  0  0  0  0  0  0  0  0999 V2000
    0.1529    1.2710   -0.7664 P   0  0  0  0  0  0  0  0  0  0  0  0
   -3.1880   -0.1217    1.3459 N   0  0  0  0  0  2  0  0  0  0  0  0
   -0.6209   -0.7773    1.3538 N   0  0  0  0  0  0  0  0  0  0  0  0
    2.6172   -1.9848   -0.1384 C   0  0  0  0  0  0  0  0  0  0  0  0
   -3.6488   -1.5365   -1.3372 C   0  0  0  0  0  0  0  0  0  0  0  0
    4.0107   -1.6797   -0.1808 C   0  0  0  0  0  0  0  0  0  0  0  0
   -1.4794   -1.5700    2.2746 C   0  0  0  0  0  0  0  0  0  0  0  0
   -2.3147   -1.4686   -0.8827 C   0  0  0  0  0  0  0  0  0  0  0  0
    0.1290    3.0076   -1.4092 C   0  0  0  0  0  0  0  0  0  0  0  0
    3.3201    1.5684    2.7229 C   0  0  0  0  0  0  0  0  0  0  0  0
   -3.7915   -1.3490    3.3259 C   0  0  0  0  0  0  0  0  0  0  0  0
    3.0923   -3.9715   -1.5363 C   0  0  0  0  0  0  0  0  0  0  0  0
   -0.1048   -0.0386   -3.2100 C   0  0  0  0  0  0  0  0  0  0  0  0
   -0.7637    3.9601   -0.8759 C   0  0  0  0  0  0  0  0  0  0  0  0
    0.8242    0.3612   -2.2249 C   0  0  0  0  0  0  0  0  0  0  0  0
    4.9007   -2.4974   -0.8630 C   0  0  0  0  0  0  0  0  0  0  0  0
    1.6857   -1.0842   -4.4836 C   0  0  0  0  0  0  0  0  0  0  0  0
    1.5407    1.3302    0.4980 C   0  0  0  0  0  0  0  0  0  0  0  0
    2.1889    0.0672   -2.4020 C   0  0  0  0  0  0  0  0  0  0  0  0
    0.7544   -3.3968   -0.9270 C   0  0  0  0  0  0  0  0  0  0  0  0
   -5.3960    0.1037    2.2637 C   0  0  0  0  0  0  0  0  0  0  0  0
    0.3270   -0.7581   -4.3328 C   0  0  0  0  0  0  0  0  0  0  0  0
   -2.2928   -3.9035   -0.6698 C   0  0  0  0  0  0  0  0  0  0  0  0
    2.9121    0.2669    2.2565 C   0  0  0  0  0  0  0  0  0  0  0  0
    2.0419    0.1661    1.1159 C   0  0  0  0  0  0  0  0  0  0  0  0
   -1.6119   -2.6710   -0.5899 C   0  0  0  0  0  0  0  0  0  0  0  0
   -4.4214    0.4242    1.3137 C   0  0  0  0  0  3  0  0  0  0  0  0
   -4.3113   -2.7667   -1.4075 C   0  0  0  0  0  0  0  0  0  0  0  0
    0.3135   -1.5233    0.5532 C   0  0  0  0  0  0  0  0  0  0  0  0
    1.6638   -1.1617    0.5527 C   0  0  0  0  0  0  0  0  0  0  0  0
   -0.1705   -2.5834   -0.2828 C   0  0  0  0  0  0  0  0  0  0  0  0
    1.0296    3.3936   -2.4236 C   0  0  0  0  0  0  0  0  0  0  0  0
    4.1847    1.6617    3.8527 C   0  0  0  0  0  0  0  0  0  0  0  0
   -0.7389    5.2810   -1.3468 C   0  0  0  0  0  0  0  0  0  0  0  0
    3.3722   -0.8857    2.9629 C   0  0  0  0  0  0  0  0  0  0  0  0
   -2.8678   -0.9904    2.3357 C   0  0  0  0  0  0  0  0  0  0  0  0
    2.8318    2.7201    2.0452 C   0  0  0  0  0  0  0  0  0  0  0  0
    2.1520   -3.1522   -0.8465 C   0  0  0  0  0  0  0  0  0  0  0  0
    4.4426   -3.6567   -1.5436 C   0  0  0  0  0  0  0  0  0  0  0  0
    2.6164   -0.6632   -3.5217 C   0  0  0  0  0  0  0  0  0  0  0  0
    4.2056   -0.7606    4.0644 C   0  0  0  0  0  0  0  0  0  0  0  0
   -3.6372   -3.9530   -1.0630 C   0  0  0  0  0  0  0  0  0  0  0  0
    4.6219    0.5226    4.5109 C   0  0  0  0  0  0  0  0  0  0  0  0
    1.0472    4.7168   -2.8904 C   0  0  0  0  0  0  0  0  0  0  0  0
   -5.0798   -0.7983    3.2895 C   0  0  0  0  0  0  0  0  0  0  0  0
    0.1628    5.6640   -2.3523 C   0  0  0  0  0  0  0  0  0  0  0  0
    1.9564    2.6057    0.9801 C   0  0  0  0  0  0  0  0  0  0  0  0
   -4.1393   -0.5911   -1.6155 H   0  0  0  0  0  0  0  0  0  0  0  0
    4.3772   -0.7818    0.3352 H   0  0  0  0  0  0  0  0  0  0  0  0
   -1.0200   -1.6145    3.2842 H   0  0  0  0  0  0  0  0  0  0  0  0
   -1.5383   -2.6109    1.8993 H   0  0  0  0  0  0  0  0  0  0  0  0
   -1.6802   -0.5626   -1.2330 H   0  0  0  0  0  0  0  0  0  0  0  0
   -3.4957   -2.0527    4.1180 H   0  0  0  0  0  0  0  0  0  0  0  0
    2.7203   -4.8555   -2.0773 H   0  0  0  0  0  0  0  0  0  0  0  0
   -1.1668    0.2374   -3.0981 H   0  0  0  0  0  0  0  0  0  0  0  0
   -1.4659    3.6571   -0.0878 H   0  0  0  0  0  0  0  0  0  0  0  0
    5.9713   -2.2428   -0.8782 H   0  0  0  0  0  0  0  0  0  0  0  0
    2.0203   -1.6633   -5.3579 H   0  0  0  0  0  0  0  0  0  0  0  0
    2.9222    0.4047   -1.6560 H   0  0  0  0  0  0  0  0  0  0  0  0
    0.3918   -4.1972   -1.5899 H   0  0  0  0  0  0  0  0  0  0  0  0
   -6.3888    0.5713    2.1986 H   0  0  0  0  0  0  0  0  0  0  0  0
   -0.4046   -1.0681   -5.0944 H   0  0  0  0  0  0  0  0  0  0  0  0
   -1.7566   -4.8288   -0.4075 H   0  0  0  0  0  0  0  0  0  0  0  0
   -4.5849    1.1364    0.4869 H   0  0  0  0  0  0  0  0  0  0  0  0
   -5.3610   -2.8045   -1.7370 H   0  0  0  0  0  0  0  0  0  0  0  0
    1.7207    2.6571   -2.8587 H   0  0  0  0  0  0  0  0  0  0  0  0
    4.4929    2.6611    4.1974 H   0  0  0  0  0  0  0  0  0  0  0  0
   -1.4411    6.0164   -0.9252 H   0  0  0  0  0  0  0  0  0  0  0  0
    3.0515   -1.8801    2.6199 H   0  0  0  0  0  0  0  0  0  0  0  0
    3.1425    3.7161    2.3973 H   0  0  0  0  0  0  0  0  0  0  0  0
    5.1581   -4.2962   -2.0819 H   0  0  0  0  0  0  0  0  0  0  0  0
    3.6828   -0.9118   -3.6320 H   0  0  0  0  0  0  0  0  0  0  0  0
    4.5465   -1.6610    4.5977 H   0  0  0  0  0  0  0  0  0  0  0  0
   -4.1593   -4.9208   -1.1083 H   0  0  0  0  0  0  0  0  0  0  0  0
    5.2867    0.6089    5.3837 H   0  0  0  0  0  0  0  0  0  0  0  0
    1.7543    5.0045   -3.6835 H   0  0  0  0  0  0  0  0  0  0  0  0
   -5.8214   -1.0634    4.0576 H   0  0  0  0  0  0  0  0  0  0  0  0
    0.1732    6.7015   -2.7211 H   0  0  0  0  0  0  0  0  0  0  0  0
    1.5660    3.5114    0.4969 H   0  0  0  0  0  0  0  0  0  0  0  0
   -0.1250   -0.0499    1.9046 H   0  0  0  0  0  0  0  0  0  0  0  0
  1 18  1  0  0  0  0
  2 36  1  0  0  0  0
  3 80  1  0  0  0  0
  3  7  1  0  0  0  0
  4 30  1  0  0  0  0
  5  8  1  0  0  0  0
  6  4  1  0  0  0  0
  6 49  1  0  0  0  0
  7 36  1  0  0  0  0
  7 50  1  0  0  0  0
  8 26  2  0  0  0  0
  9 14  1  0  0  0  0
  9  1  1  0  0  0  0
 10 33  1  0  0  0  0
 11 53  1  0  0  0  0
 12 38  1  0  0  0  0
 13 55  1  0  0  0  0
 13 15  1  0  0  0  0
 14 56  1  0  0  0  0
 15  1  1  0  0  0  0
 16  6  2  0  0  0  0
 17 22  1  0  0  0  0
 17 40  2  0  0  0  0
 18 47  2  0  0  0  0
 18 25  1  0  0  0  0
 19 15  2  0  0  0  0
 19 59  1  0  0  0  0
 20 38  1  0  0  0  0
 20 31  2  0  0  0  0
 21 45  2  0  0  0  0
 22 13  2  0  0  0  0
 23 26  1  0  0  0  0
 23 63  1  0  0  0  0
 24 10  1  0  0  0  0
 24 35  1  0  0  0  0
 25 24  2  0  0  0  0
 26 31  1  0  0  0  0
 27  2  1  0  0  0  0
 27 21  1  0  0  0  0
 28  5  2  0  0  0  0
 28 42  1  0  0  0  0
 29  3  1  0  0  0  0
 30 29  2  0  0  0  0
 30 25  1  0  0  0  0
 31 29  1  0  0  0  0
 32  9  2  0  0  0  0
 33 67  1  0  0  0  0
 33 43  2  0  0  0  0
 34 68  1  0  0  0  0
 34 14  2  0  0  0  0
 35 41  2  0  0  0  0
 36 11  2  0  0  0  0
 37 70  1  0  0  0  0
 37 10  2  0  0  0  0
 38  4  2  0  0  0  0
 39 12  2  0  0  0  0
 39 16  1  0  0  0  0
 40 19  1  0  0  0  0
 41 43  1  0  0  0  0
 41 73  1  0  0  0  0
 42 23  2  0  0  0  0
 43 75  1  0  0  0  0
 44 32  1  0  0  0  0
 44 46  2  0  0  0  0
 45 11  1  0  0  0  0
 45 77  1  0  0  0  0
 46 34  1  0  0  0  0
 47 37  1  0  0  0  0
 48  5  1  0  0  0  0
 51  7  1  0  0  0  0
 52  8  1  0  0  0  0
 54 12  1  0  0  0  0
 57 16  1  0  0  0  0
 58 17  1  0  0  0  0
 60 20  1  0  0  0  0
 61 21  1  0  0  0  0
 62 22  1  0  0  0  0
 64 27  1  0  0  0  0
 65 28  1  0  0  0  0
 66 32  1  0  0  0  0
 69 35  1  0  0  0  0
 71 39  1  0  0  0  0
 72 40  1  0  0  0  0
 74 42  1  0  0  0  0
 76 44  1  0  0  0  0
 78 46  1  0  0  0  0
 79 47  1  0  0  0  0
M  END
