1,2
q = 0.0, confidence = 0.828

  8  7  0  0  0  0  0  0  0  0999 V2000
   -1.4568    0.0001   -1.2519 N   0  0  0  0  0  2  0  0  0  0  0  0
   -1.4568    0.0000    1.2519 N   0  0  0  0  0  2  0  0  0  0  0  0
   -2.6695    0.0001   -0.7163 C   0  0  0  0  0  0  0  0  0  0  0  0
   -2.6695    0.0001    0.7163 C   0  0  0  0  0  0  0  0  0  0  0  0
   -1.3405    0.0002   -2.2755 H   0  0  0  0  0  0  0  0  0  0  0  0
   -3.5861    0.0002   -1.3272 H   0  0  0  0  0  0  0  0  0  0  0  0
   -3.5861    0.0001    1.3272 H   0  0  0  0  0  0  0  0  0  0  0  0
   -1.3405   -0.0000    2.2755 H   0  0  0  0  0  0  0  0  0  0  0  0
  1  3  1  0  0  0  0
  2  8  1  0  0  0  0
  3  4  2  0  0  0  0
  4  2  1  0  0  0  0
  4  7  1  0  0  0  0
  5  1  1  0  0  0  0
  6  3  1  0  0  0  0
M  END
