1,3
q = 0.0, confidence = 0.952

 22 21  0  0  1  0  0  0  0  0999 V2000
   -1.2724    1.3282   -0.1399 N   0  0  0  0  0  2  0  0  0  0  0  0
   -3.1662   -0.0000   -0.3969 N   0  0  0  0  0  0  0  0  0  0  0  0
   -1.2724   -1.3284   -0.1405 N   0  0  0  0  0  2  0  0  0  0  0  0
   -2.5623    1.2372   -0.3060 C   0  0  2  0  0  3  0  0  0  0  0  0
   -2.5623   -1.2372   -0.3067 C   0  0  2  0  0  3  0  0  0  0  0  0
   -3.4800   -2.4295   -0.4235 C   0  0  0  0  0  0  0  0  0  0  0  0
   -3.4800    2.4294   -0.4219 C   0  0  0  0  0  0  0  0  0  0  0  0
   -4.6664   -2.4156    0.5506 C   0  0  0  0  0  0  0  0  0  0  0  0
   -4.6660    2.4151    0.5527 C   0  0  0  0  0  0  0  0  0  0  0  0
   -0.9732    2.3107   -0.0829 H   0  0  0  0  0  0  0  0  0  0  0  0
   -4.1828    0.0000   -0.4983 H   0  0  0  0  0  0  0  0  0  0  0  0
   -0.9731   -2.3109   -0.0842 H   0  0  0  0  0  0  0  0  0  0  0  0
   -2.8704   -3.3425   -0.2735 H   0  0  0  0  0  0  0  0  0  0  0  0
   -3.8478   -2.4754   -1.4734 H   0  0  0  0  0  0  0  0  0  0  0  0
   -2.8704    3.3424   -0.2718 H   0  0  0  0  0  0  0  0  0  0  0  0
   -3.8483    2.4759   -1.4715 H   0  0  0  0  0  0  0  0  0  0  0  0
   -5.2614   -3.3408    0.4312 H   0  0  0  0  0  0  0  0  0  0  0  0
   -5.3619   -1.5698    0.3681 H   0  0  0  0  0  0  0  0  0  0  0  0
   -4.3273   -2.3595    1.6034 H   0  0  0  0  0  0  0  0  0  0  0  0
   -5.2612    3.3404    0.4340 H   0  0  0  0  0  0  0  0  0  0  0  0
   -4.3265    2.3586    1.6054 H   0  0  0  0  0  0  0  0  0  0  0  0
   -5.3615    1.5694    0.3703 H   0  0  0  0  0  0  0  0  0  0  0  0
  1 10  1  0  0  0  0
  2  5  1  0  0  0  0
  2  4  1  0  0  0  0
  3 12  1  0  0  0  0
  4  1  1  6  0  0  0
  5  3  1  6  0  0  0
  6  5  1  0  0  0  0
  6 13  1  0  0  0  0
  6  8  1  0  0  0  0
  7  4  1  0  0  0  0
  7 15  1  0  0  0  0
  7  9  1  0  0  0  0
  8 19  1  0  0  0  0
  9 21  1  0  0  0  0
 11  2  1  0  0  0  0
 14  6  1  0  0  0  0
 16  7  1  0  0  0  0
 17  8  1  0  0  0  0
 18  8  1  0  0  0  0
 20  9  1  0  0  0  0
 22  9  1  0  0  0  0
M  END
