1,2
q = -1.0, confidence = 0.004

 21 20  0  0  1  0  0  0  0  0999 V2000
    1.3407    1.2986    0.1483 N   0  0  0  0  0  2  0  0  0  0  0  0
    1.3406   -1.2989    0.1484 N   0  0  0  0  0  2  0  0  0  0  0  0
    2.6521    1.1631    0.3334 C   0  0  1  0  0  3  0  0  0  0  0  0
    3.3059   -0.0002    0.4343 N   0  0  0  0  0  0  0  0  0  0  0  0
    2.6522   -1.1635    0.3328 C   0  0  0  0  0  0  0  0  0  0  0  0
    3.5069    2.4127    0.4399 C   0  0  0  0  0  0  0  0  0  0  0  0
    3.5067   -2.4133    0.4389 C   0  0  0  0  0  0  0  0  0  0  0  0
    4.6449    2.4381   -0.5852 C   0  0  0  0  0  0  0  0  0  0  0  0
    4.6496   -2.4357   -0.5807 C   0  0  0  0  0  0  0  0  0  0  0  0
    1.0630    2.2862    0.0853 H   0  0  0  0  0  0  0  0  0  0  0  0
    1.0629   -2.2865    0.0845 H   0  0  0  0  0  0  0  0  0  0  0  0
    3.9337    2.4173    1.4661 H   0  0  0  0  0  0  0  0  0  0  0  0
    2.8714    3.3191    0.3531 H   0  0  0  0  0  0  0  0  0  0  0  0
    2.8716   -3.3195    0.3462 H   0  0  0  0  0  0  0  0  0  0  0  0
    3.9286   -2.4215    1.4672 H   0  0  0  0  0  0  0  0  0  0  0  0
    5.2895    3.3250   -0.4309 H   0  0  0  0  0  0  0  0  0  0  0  0
    4.2539    2.4726   -1.6219 H   0  0  0  0  0  0  0  0  0  0  0  0
    5.2660    1.5281   -0.4820 H   0  0  0  0  0  0  0  0  0  0  0  0
    5.2934   -3.3230   -0.4259 H   0  0  0  0  0  0  0  0  0  0  0  0
    5.2702   -1.5259   -0.4718 H   0  0  0  0  0  0  0  0  0  0  0  0
    4.2637   -2.4670   -1.6194 H   0  0  0  0  0  0  0  0  0  0  0  0
  2  5  1  0  0  0  0
  3  1  1  6  0  0  0
  3  4  1  0  0  0  0
  3  6  1  0  0  0  0
  5  4  2  0  0  0  0
  5  7  1  0  0  0  0
  6 12  1  0  0  0  0
  7 15  1  0  0  0  0
  8 18  1  0  0  0  0
  8 16  1  0  0  0  0
  8  6  1  0  0  0  0
  9 20  1  0  0  0  0
  9 19  1  0  0  0  0
  9  7  1  0  0  0  0
 10  1  1  0  0  0  0
 11  2  1  0  0  0  0
 13  6  1  0  0  0  0
 14  7  1  0  0  0  0
 17  8  1  0  0  0  0
 21  9  1  0  0  0  0
M  END
