3,6
q = 0.0, confidence = 0.996

 16 15  0  0  1  0  0  0  0  0999 V2000
   -4.7079   -2.1705   -0.3441 Cl  0  0  0  0  0  0  0  0  0  0  0  0
   -4.7079    2.1705   -0.3444 Cl  0  0  0  0  0  0  0  0  0  0  0  0
   -0.8867   -1.3330    0.1652 N   0  0  0  0  0  2  0  0  0  0  0  0
   -3.0846    2.4349    0.3594 C   0  0  0  0  0  0  0  0  0  0  0  0
   -2.7985    0.0000    0.2777 N   0  0  0  0  0  0  0  0  0  0  0  0
   -0.8867    1.3330    0.1652 N   0  0  0  0  0  2  0  0  0  0  0  0
   -2.1838    1.2239    0.2353 C   0  0  2  0  0  3  0  0  0  0  0  0
   -2.1838   -1.2238    0.2354 C   0  0  2  0  0  3  0  0  0  0  0  0
   -3.0846   -2.4349    0.3597 C   0  0  0  0  0  0  0  0  0  0  0  0
   -0.5779   -2.3146    0.1435 H   0  0  0  0  0  0  0  0  0  0  0  0
   -3.2208    2.6843    1.4328 H   0  0  0  0  0  0  0  0  0  0  0  0
   -2.6188    3.3029   -0.1454 H   0  0  0  0  0  0  0  0  0  0  0  0
   -3.8304    0.0000    0.1952 H   0  0  0  0  0  0  0  0  0  0  0  0
   -0.5779    2.3146    0.1433 H   0  0  0  0  0  0  0  0  0  0  0  0
   -3.2208   -2.6841    1.4331 H   0  0  0  0  0  0  0  0  0  0  0  0
   -2.6189   -3.3029   -0.1449 H   0  0  0  0  0  0  0  0  0  0  0  0
  1  9  1  0  0  0  0
  2  4  1  0  0  0  0
  4 11  1  0  0  0  0
  7  6  1  1  0  0  0
  7  5  1  0  0  0  0
  7  4  1  0  0  0  0
  8  3  1  1  0  0  0
  8  5  1  0  0  0  0
  8  9  1  0  0  0  0
  9 15  1  0  0  0  0
 10  3  1  0  0  0  0
 12  4  1  0  0  0  0
 13  5  1  0  0  0  0
 14  6  1  0  0  0  0
 16  9  1  0  0  0  0
M  END
