1,2
q = -1.0

 27 26  0  0  1  0  0  0  0  0999 V2000
    1.2181   -1.4018   -0.6888 N   0  0  0  0  0  2  0  0  0  0  0  0
    1.4165    1.1834   -0.5353 N   0  0  0  0  0  2  0  0  0  0  0  0
    3.2976   -0.2646   -0.5526 N   0  0  0  0  0  0  0  0  0  0  0  0
    2.5487   -1.3702   -0.6432 C   0  0  1  0  0  3  0  0  0  0  0  0
    3.3099   -2.6801   -0.6410 C   0  0  0  0  0  0  0  0  0  0  0  0
    4.5378    2.0624    0.8730 C   0  0  0  0  0  0  0  0  0  0  0  0
    5.5601    3.1951    0.9452 C   0  0  0  0  0  0  0  0  0  0  0  0
    3.9685   -2.9486    0.7252 C   0  0  0  0  0  0  0  0  0  0  0  0
    2.7265    0.9459   -0.5092 C   0  0  0  0  0  0  0  0  0  0  0  0
    3.6793    2.1181   -0.4016 C   0  0  0  0  0  0  0  0  0  0  0  0
    2.9641   -3.1354    1.8617 C   0  0  0  0  0  0  0  0  0  0  0  0
    0.8609   -2.3626   -0.7632 H   0  0  0  0  0  0  0  0  0  0  0  0
    1.2096    2.1897   -0.5050 H   0  0  0  0  0  0  0  0  0  0  0  0
    2.6371   -3.5201   -0.9176 H   0  0  0  0  0  0  0  0  0  0  0  0
    4.0937   -2.6060   -1.4218 H   0  0  0  0  0  0  0  0  0  0  0  0
    3.8693    2.0898    1.7612 H   0  0  0  0  0  0  0  0  0  0  0  0
    5.0440    1.0753    0.8957 H   0  0  0  0  0  0  0  0  0  0  0  0
    6.1674    3.1273    1.8692 H   0  0  0  0  0  0  0  0  0  0  0  0
    5.0711    4.1915    0.9401 H   0  0  0  0  0  0  0  0  0  0  0  0
    6.2578    3.1632    0.0831 H   0  0  0  0  0  0  0  0  0  0  0  0
    4.6103   -3.8491    0.6295 H   0  0  0  0  0  0  0  0  0  0  0  0
    4.6471   -2.0988    0.9476 H   0  0  0  0  0  0  0  0  0  0  0  0
    3.1236    3.0789   -0.4545 H   0  0  0  0  0  0  0  0  0  0  0  0
    4.3468    2.0796   -1.2894 H   0  0  0  0  0  0  0  0  0  0  0  0
    3.4772   -3.3320    2.8236 H   0  0  0  0  0  0  0  0  0  0  0  0
    2.2857   -3.9939    1.6685 H   0  0  0  0  0  0  0  0  0  0  0  0
    2.3320   -2.2335    2.0029 H   0  0  0  0  0  0  0  0  0  0  0  0
  2  9  1  0  0  0  0
  2 13  1  0  0  0  0
  3  9  2  0  0  0  0
  4  1  1  1  0  0  0
  4  5  1  0  0  0  0
  4  3  1  0  0  0  0
  5  8  1  0  0  0  0
  6 17  1  0  0  0  0
  6  7  1  0  0  0  0
  6 16  1  0  0  0  0
  7 18  1  0  0  0  0
  8 22  1  0  0  0  0
  8 11  1  0  0  0  0
  9 10  1  0  0  0  0
 10  6  1  0  0  0  0
 11 27  1  0  0  0  0
 11 25  1  0  0  0  0
 12  1  1  0  0  0  0
 14  5  1  0  0  0  0
 15  5  1  0  0  0  0
 19  7  1  0  0  0  0
 20  7  1  0  0  0  0
 21  8  1  0  0  0  0
 23 10  1  0  0  0  0
 24 10  1  0  0  0  0
 26 11  1  0  0  0  0
M  END
