3,8
q = -1.0

 15 14  0  0  1  0  0  0  0  0999 V2000
    3.0787   -3.9425   -0.0611 Cl  0  0  0  0  0  0  0  0  0  0  0  0
    3.0787    3.9424   -0.0613 Cl  0  0  0  0  0  0  0  0  0  0  0  0
    1.7307   -1.3014    0.0176 N   0  0  0  0  0  2  0  0  0  0  0  0
    3.0411    1.1519   -0.0659 C   0  0  2  0  0  3  0  0  0  0  0  0
    3.9471    2.3734   -0.1241 C   0  0  0  0  0  0  0  0  0  0  0  0
    3.0410   -1.1519   -0.0662 C   0  0  0  0  0  0  0  0  0  0  0  0
    3.7191   -0.0000   -0.1097 N   0  0  0  0  0  0  0  0  0  0  0  0
    1.7308    1.3014    0.0183 N   0  0  0  0  0  2  0  0  0  0  0  0
    3.9470   -2.3734   -0.1248 C   0  0  0  0  0  0  0  0  0  0  0  0
    1.4772   -2.3034    0.0350 H   0  0  0  0  0  0  0  0  0  0  0  0
    4.6568    2.3317    0.7246 H   0  0  0  0  0  0  0  0  0  0  0  0
    4.5354    2.3364   -1.0613 H   0  0  0  0  0  0  0  0  0  0  0  0
    1.4772    2.3034    0.0359 H   0  0  0  0  0  0  0  0  0  0  0  0
    4.6572   -2.3316    0.7235 H   0  0  0  0  0  0  0  0  0  0  0  0
    4.5348   -2.3367   -1.0623 H   0  0  0  0  0  0  0  0  0  0  0  0
  3 10  1  0  0  0  0
  4  7  1  6  0  0  0
  4  8  1  0  0  0  0
  5  4  1  0  0  0  0
  5  2  1  0  0  0  0
  5 11  1  0  0  0  0
  6  3  1  0  0  0  0
  7  6  2  0  0  0  0
  8 13  1  0  0  0  0
  9  6  1  0  0  0  0
  9  1  1  0  0  0  0
  9 14  1  0  0  0  0
 12  5  1  0  0  0  0
 15  9  1  0  0  0  0
M  END
