3,4
q = -2.0, confidence = 0.624

 28 29  0  0  1  0  0  0  0  0999 V2000
   -0.0882   -2.4292   -0.8599 O   0  0  0  0  0  1  0  0  0  0  0  0
   -0.0728    2.5983   -0.1059 O   0  0  0  0  0  1  0  0  0  0  0  0
    0.1431   -1.1526   -0.7040 N   0  0  0  0  0  2  0  0  0  0  0  0
    0.1473    1.3211   -0.2591 N   0  0  0  0  0  2  0  0  0  0  0  0
    1.3614   -0.6651   -0.4668 C   0  0  2  0  0  3  0  0  0  0  0  0
    2.5422   -1.5340   -0.2873 C   0  0  0  0  0  0  0  0  0  0  0  0
    2.7608   -2.6592   -1.1157 C   0  0  0  0  0  0  0  0  0  0  0  0
    3.8850   -3.4734   -0.9251 C   0  0  0  0  0  0  0  0  0  0  0  0
    4.8029   -3.1920    0.0998 C   0  0  0  0  0  0  0  0  0  0  0  0
    4.5873   -2.0859    0.9376 C   0  0  0  0  0  0  0  0  0  0  0  0
    3.4702   -1.2636    0.7464 C   0  0  0  0  0  0  0  0  0  0  0  0
    1.3713    0.7939   -0.2839 C   0  0  1  0  0  3  0  0  0  0  0  0
    2.5965    1.6175   -0.2417 C   0  0  0  0  0  0  0  0  0  0  0  0
    3.6878    1.3086   -1.0881 C   0  0  0  0  0  0  0  0  0  0  0  0
    4.8532    2.0844   -1.0634 C   0  0  0  0  0  0  0  0  0  0  0  0
    4.9553    3.1805   -0.1918 C   0  0  0  0  0  0  0  0  0  0  0  0
    3.8760    3.5003    0.6476 C   0  0  0  0  0  0  0  0  0  0  0  0
    2.7040    2.7332    0.6208 C   0  0  0  0  0  0  0  0  0  0  0  0
    2.0371   -2.8896   -1.9079 H   0  0  0  0  0  0  0  0  0  0  0  0
    4.0445   -4.3403   -1.5845 H   0  0  0  0  0  0  0  0  0  0  0  0
    5.6833   -3.8358    0.2477 H   0  0  0  0  0  0  0  0  0  0  0  0
    5.2960   -1.8600    1.7490 H   0  0  0  0  0  0  0  0  0  0  0  0
    3.3078   -0.4001    1.4073 H   0  0  0  0  0  0  0  0  0  0  0  0
    3.6146    0.4543   -1.7760 H   0  0  0  0  0  0  0  0  0  0  0  0
    5.6888    1.8306   -1.7333 H   0  0  0  0  0  0  0  0  0  0  0  0
    5.8729    3.7881   -0.1709 H   0  0  0  0  0  0  0  0  0  0  0  0
    3.9454    4.3615    1.3300 H   0  0  0  0  0  0  0  0  0  0  0  0
    1.8553    2.9950    1.2653 H   0  0  0  0  0  0  0  0  0  0  0  0
  1  3  1  0  0  0  0
  4  2  1  0  0  0  0
  5  3  1  1  0  0  0
  5  6  1  0  0  0  0
  5 12  1  0  0  0  0
  6 11  1  0  0  0  0
  7  8  1  0  0  0  0
  7  6  2  0  0  0  0
  8  9  2  0  0  0  0
  9 21  1  0  0  0  0
  9 10  1  0  0  0  0
 10 22  1  0  0  0  0
 11 10  2  0  0  0  0
 11 23  1  0  0  0  0
 12  4  1  6  0  0  0
 12 13  1  0  0  0  0
 13 18  1  0  0  0  0
 14 15  1  0  0  0  0
 14 13  2  0  0  0  0
 15 16  2  0  0  0  0
 16 26  1  0  0  0  0
 16 17  1  0  0  0  0
 17 27  1  0  0  0  0
 18 17  2  0  0  0  0
 18 28  1  0  0  0  0
 19  7  1  0  0  0  0
 20  8  1  0  0  0  0
 24 14  1  0  0  0  0
 25 15  1  0  0  0  0
M  END
