1,2
q = 0.0, confidence = 0.998

 28 29  0  0  0  0  0  0  0  0999 V2000
    0.5604   -3.1753   -0.6751 N   0  0  0  0  0  2  0  0  0  0  0  0
    0.9993   -1.8808    1.6250 N   0  0  0  0  0  2  0  0  0  0  0  0
    2.3918    2.7671    4.3600 O   0  0  0  0  0  0  0  0  0  0  0  0
    0.0991   -3.8666   -1.7274 C   0  0  0  0  0  3  0  0  0  0  0  0
   -0.5816   -3.3012   -2.3857 H   0  0  0  0  0  0  0  0  0  0  0  0
    0.5023   -5.1870   -1.9618 C   0  0  0  0  0  0  0  0  0  0  0  0
    0.1257   -5.7230   -2.8440 H   0  0  0  0  0  0  0  0  0  0  0  0
    1.4071   -5.7892   -1.0666 C   0  0  0  0  0  0  0  0  0  0  0  0
    1.7458   -6.8235   -1.2288 H   0  0  0  0  0  0  0  0  0  0  0  0
    1.8626   -5.0659    0.0387 C   0  0  0  0  0  0  0  0  0  0  0  0
    2.5513   -5.5122    0.7710 H   0  0  0  0  0  0  0  0  0  0  0  0
    1.4054   -3.7458    0.2392 C   0  0  0  0  0  0  0  0  0  0  0  0
    1.7813   -2.8962    1.3582 C   0  0  0  0  0  3  0  0  0  0  0  0
    2.7281   -3.1054    1.8973 H   0  0  0  0  0  0  0  0  0  0  0  0
    1.3887   -0.8023    2.4198 C   0  0  0  0  0  0  0  0  0  0  0  0
    2.7345   -0.3724    2.5574 C   0  0  0  0  0  0  0  0  0  0  0  0
    3.5409   -0.9432    2.0731 H   0  0  0  0  0  0  0  0  0  0  0  0
    3.0367    0.8129    3.2218 C   0  0  0  0  0  0  0  0  0  0  0  0
    4.0713    1.1774    3.2998 H   0  0  0  0  0  0  0  0  0  0  0  0
    2.0022    1.6091    3.7675 C   0  0  0  0  0  0  0  0  0  0  0  0
    0.6591    1.1858    3.6498 C   0  0  0  0  0  0  0  0  0  0  0  0
   -0.1630    1.7909    4.0535 H   0  0  0  0  0  0  0  0  0  0  0  0
    0.3652   -0.0006    2.9739 C   0  0  0  0  0  0  0  0  0  0  0  0
   -0.6769   -0.3197    2.8308 H   0  0  0  0  0  0  0  0  0  0  0  0
    1.3912    3.6479    4.8405 C   0  0  0  0  0  0  0  0  0  0  0  0
    0.7066    3.9754    4.0265 H   0  0  0  0  0  0  0  0  0  0  0  0
    1.9202    4.5297    5.2464 H   0  0  0  0  0  0  0  0  0  0  0  0
    0.7862    3.1849    5.6518 H   0  0  0  0  0  0  0  0  0  0  0  0
  1 12  1  0  0  0  0
  2 15  1  0  0  0  0
  3 25  1  0  0  0  0
  4  1  1  0  0  0  0
  5  4  1  0  0  0  0
  6  4  1  0  0  0  0
  6  8  2  0  0  0  0
  7  6  1  0  0  0  0
  8 10  1  0  0  0  0
  9  8  1  0  0  0  0
 10 12  2  0  0  0  0
 10 11  1  0  0  0  0
 12 13  1  0  0  0  0
 13  2  1  0  0  0  0
 13 14  1  0  0  0  0
 15 16  2  0  0  0  0
 15 23  1  0  0  0  0
 16 18  1  0  0  0  0
 17 16  1  0  0  0  0
 18 19  1  0  0  0  0
 18 20  2  0  0  0  0
 20  3  1  0  0  0  0
 21 20  1  0  0  0  0
 21 22  1  0  0  0  0
 23 21  2  0  0  0  0
 24 23  1  0  0  0  0
 25 27  1  0  0  0  0
 25 28  1  0  0  0  0
 26 25  1  0  0  0  0
M  END
