1,3
q = 0.0, confidence = 0.996

 31 34  0  0  1  0  0  0  0  0999 V2000
    0.2580    0.5208   -0.0437 N   0  0  0  0  0  2  0  0  0  0  0  0
   -3.0775    2.1059    0.0883 N   0  0  0  0  0  0  0  0  0  0  0  0
    2.8646    0.0577   -0.3000 N   0  0  0  0  0  2  0  0  0  0  0  0
    1.0328    1.6034   -0.0972 C   0  0  0  0  0  0  0  0  0  0  0  0
    0.4774    2.9242   -0.0855 C   0  0  0  0  0  0  0  0  0  0  0  0
   -0.8894    3.0872   -0.0120 C   0  0  0  0  0  0  0  0  0  0  0  0
   -5.2773    1.1664    0.1632 C   0  0  0  0  0  0  0  0  0  0  0  0
   -6.1107    0.0644    0.1598 C   0  0  0  0  0  0  0  0  0  0  0  0
   -5.5772   -1.2606    0.0903 C   0  0  0  0  0  0  0  0  0  0  0  0
   -4.2128   -1.4650    0.0296 C   0  0  0  0  0  0  0  0  0  0  0  0
   -1.9194   -0.5079   -0.0123 C   0  0  0  0  0  0  0  0  0  0  0  0
   -1.7468    1.9412    0.0299 C   0  0  0  0  0  0  0  0  0  0  0  0
   -1.1056    0.6402   -0.0059 C   0  0  2  0  0  3  0  0  0  0  0  0
   -3.8558    1.0028    0.0995 C   0  0  0  0  0  0  0  0  0  0  0  0
   -3.3139   -0.3501    0.0381 C   0  0  0  0  0  0  0  0  0  0  0  0
    2.4985    1.3531   -0.1613 C   0  0  1  0  0  3  0  0  0  0  0  0
    3.4697    2.3686   -0.0596 C   0  0  0  0  0  0  0  0  0  0  0  0
    4.8252    2.0193   -0.1010 C   0  0  0  0  0  0  0  0  0  0  0  0
    5.1830    0.6690   -0.2244 C   0  0  0  0  0  0  0  0  0  0  0  0
    4.1596   -0.2845   -0.3083 C   0  0  0  0  0  0  0  0  0  0  0  0
    1.1362    3.8006   -0.1416 H   0  0  0  0  0  0  0  0  0  0  0  0
   -1.3616    4.0801    0.0051 H   0  0  0  0  0  0  0  0  0  0  0  0
   -5.6643    2.1942    0.2109 H   0  0  0  0  0  0  0  0  0  0  0  0
   -7.2016    0.2025    0.2083 H   0  0  0  0  0  0  0  0  0  0  0  0
   -6.2639   -2.1201    0.0850 H   0  0  0  0  0  0  0  0  0  0  0  0
   -3.7905   -2.4798   -0.0255 H   0  0  0  0  0  0  0  0  0  0  0  0
   -1.4552   -1.5038   -0.1092 H   0  0  0  0  0  0  0  0  0  0  0  0
    3.1745    3.4184    0.0670 H   0  0  0  0  0  0  0  0  0  0  0  0
    5.5978    2.7985   -0.0228 H   0  0  0  0  0  0  0  0  0  0  0  0
    6.2355    0.3536   -0.2464 H   0  0  0  0  0  0  0  0  0  0  0  0
    4.3734   -1.3637   -0.3662 H   0  0  0  0  0  0  0  0  0  0  0  0
  2 14  2  0  0  0  0
  3 16  1  0  0  0  0
  4  5  2  0  0  0  0
  4  1  1  0  0  0  0
  5  6  1  0  0  0  0
  6 22  1  0  0  0  0
  6 12  2  0  0  0  0
  7 23  1  0  0  0  0
  8  7  2  0  0  0  0
  8 24  1  0  0  0  0
  9  8  1  0  0  0  0
 10 15  1  0  0  0  0
 10  9  2  0  0  0  0
 11 13  1  0  0  0  0
 11 15  2  0  0  0  0
 12  2  1  0  0  0  0
 13  1  1  6  0  0  0
 13 12  1  0  0  0  0
 14  7  1  0  0  0  0
 15 14  1  0  0  0  0
 16  4  1  1  0  0  0
 16 17  1  0  0  0  0
 17 28  1  0  0  0  0
 18 17  2  0  0  0  0
 18 29  1  0  0  0  0
 19 18  1  0  0  0  0
 20  3  1  0  0  0  0
 20 19  2  0  0  0  0
 21  5  1  0  0  0  0
 25  9  1  0  0  0  0
 26 10  1  0  0  0  0
 27 11  1  0  0  0  0
 30 19  1  0  0  0  0
 31 20  1  0  0  0  0
M  END
