7,8
q = -1.0, confidence = 0.0

 38 40  0  0  1  0  0  0  0  0999 V2000
   -2.1439    2.4511    0.1590 N   0  0  0  0  0  0  0  0  0  0  0  0
   -1.4549   -0.2514    2.3247 C   0  0  0  0  0  0  0  0  0  0  0  0
   -0.3889   -0.0392    2.5544 H   0  0  0  0  0  0  0  0  0  0  0  0
   -1.6846   -1.2600    2.7346 H   0  0  0  0  0  0  0  0  0  0  0  0
   -2.0590    0.4780    2.9074 H   0  0  0  0  0  0  0  0  0  0  0  0
   -1.0891   -2.5410   -0.3547 N   0  0  0  0  0  0  0  0  0  0  0  0
   -0.1266    1.7534   -0.3056 N   0  0  0  0  0  2  0  0  0  0  0  0
    0.4545   -1.0040   -0.5594 N   0  0  0  0  0  2  0  0  0  0  0  0
   -3.6734   -0.3796   -1.0858 C   0  0  0  0  0  0  0  0  0  0  0  0
   -2.9086   -0.1274   -1.8411 H   0  0  0  0  0  0  0  0  0  0  0  0
   -0.7872   -1.2264   -0.0708 C   0  0  2  0  0  3  0  0  0  0  0  0
   -2.2983   -3.2650    0.0141 C   0  0  0  0  0  0  0  0  0  0  0  0
   -2.6064   -2.9957    1.0389 H   0  0  0  0  0  0  0  0  0  0  0  0
   -2.0839   -4.3493   -0.0272 H   0  0  0  0  0  0  0  0  0  0  0  0
   -3.1366   -3.0238   -0.6678 H   0  0  0  0  0  0  0  0  0  0  0  0
   -1.3255    1.3450    0.1768 C   0  0  1  0  0  3  0  0  0  0  0  0
   -3.2924   -0.4398    0.2765 C   0  0  0  0  0  0  0  0  0  0  0  0
   -1.7377   -0.1479    0.7074 B   0  0  2  0  0  0  0  0  0  0  0  0
   -3.5186    2.5369    0.6300 C   0  0  0  0  0  0  0  0  0  0  0  0
   -4.2297    2.1272   -0.1135 H   0  0  0  0  0  0  0  0  0  0  0  0
   -3.7557    3.5998    0.8233 H   0  0  0  0  0  0  0  0  0  0  0  0
   -3.6388    1.9664    1.5670 H   0  0  0  0  0  0  0  0  0  0  0  0
   -4.3088   -0.7619    1.2018 C   0  0  0  0  0  0  0  0  0  0  0  0
   -4.0598   -0.8186    2.2744 H   0  0  0  0  0  0  0  0  0  0  0  0
   -5.9796   -0.9474   -0.5595 C   0  0  0  0  0  0  0  0  0  0  0  0
   -7.0147   -1.1425   -0.8803 H   0  0  0  0  0  0  0  0  0  0  0  0
   -4.9900   -0.6276   -1.5057 C   0  0  0  0  0  0  0  0  0  0  0  0
   -5.2491   -0.5709   -2.5752 H   0  0  0  0  0  0  0  0  0  0  0  0
   -0.1851    3.0911   -0.6481 C   0  0  0  0  0  0  0  0  0  0  0  0
    0.6937    3.6249   -1.0193 H   0  0  0  0  0  0  0  0  0  0  0  0
   -5.6320   -1.0127    0.7992 C   0  0  0  0  0  0  0  0  0  0  0  0
   -6.3989   -1.2605    1.5507 H   0  0  0  0  0  0  0  0  0  0  0  0
   -1.4523    3.5355   -0.3609 C   0  0  0  0  0  0  0  0  0  0  0  0
   -1.9168    4.5204   -0.4674 H   0  0  0  0  0  0  0  0  0  0  0  0
   -0.0408   -3.1208   -1.0506 C   0  0  0  0  0  0  0  0  0  0  0  0
   -0.0776   -4.1585   -1.3961 H   0  0  0  0  0  0  0  0  0  0  0  0
    0.9238   -2.1491   -1.1782 C   0  0  0  0  0  0  0  0  0  0  0  0
    1.9002   -2.1947   -1.6692 H   0  0  0  0  0  0  0  0  0  0  0  0
  1 16  1  0  0  0  0
  1 19  1  0  0  0  0
  2  3  1  0  0  0  0
  2  4  1  0  0  0  0
  2  5  1  0  0  0  0
  6 11  1  0  0  0  0
  6 12  1  0  0  0  0
  7 16  1  0  0  0  0
  8 11  1  0  0  0  0
  9 17  1  0  0  0  0
 10  9  1  0  0  0  0
 11 18  1  1  0  0  0
 12 13  1  0  0  0  0
 14 12  1  0  0  0  0
 15 12  1  0  0  0  0
 16 18  1  1  0  0  0
 17 18  1  0  0  0  0
 17 23  2  0  0  0  0
 18  2  1  1  0  0  0
 19 21  1  0  0  0  0
 19 22  1  0  0  0  0
 20 19  1  0  0  0  0
 23 24  1  0  0  0  0
 25 31  2  0  0  0  0
 26 25  1  0  0  0  0
 27  9  2  0  0  0  0
 27 25  1  0  0  0  0
 28 27  1  0  0  0  0
 29 33  2  0  0  0  0
 29  7  1  0  0  0  0
 30 29  1  0  0  0  0
 31 23  1  0  0  0  0
 31 32  1  0  0  0  0
 33  1  1  0  0  0  0
 34 33  1  0  0  0  0
 35  6  1  0  0  0  0
 36 35  1  0  0  0  0
 37 35  2  0  0  0  0
 37  8  1  0  0  0  0
 38 37  1  0  0  0  0
M  END
