2,4
q = 0.0, confidence = 0.996

 35 38  0  0  1  0  0  0  0  0999 V2000
   -3.8741   -3.9389    0.3209 Cl  0  0  0  0  0  0  0  0  0  0  0  0
    0.7161   -0.2947   -0.2976 N   0  0  0  0  0  2  0  0  0  0  0  0
   -0.6884    1.6246   -0.1395 N   0  0  0  0  0  0  0  0  0  0  0  0
    2.9195    1.2292   -0.3185 N   0  0  0  0  0  2  0  0  0  0  0  0
    0.5175    1.0203   -0.2191 C   0  0  0  0  0  0  0  0  0  0  0  0
   -1.7854    0.8653   -0.1006 C   0  0  0  0  0  0  0  0  0  0  0  0
   -2.7744   -1.4700    0.1107 C   0  0  0  0  0  0  0  0  0  0  0  0
   -3.7853   -1.0896    0.3018 H   0  0  0  0  0  0  0  0  0  0  0  0
   -2.5470   -2.8418    0.0791 C   0  0  0  0  0  0  0  0  0  0  0  0
   -1.2479   -3.3787   -0.1441 C   0  0  0  0  0  0  0  0  0  0  0  0
   -1.1173   -4.4694   -0.1803 H   0  0  0  0  0  0  0  0  0  0  0  0
   -0.1653   -2.5294   -0.2919 C   0  0  0  0  0  0  0  0  0  0  0  0
    0.8569   -2.9066   -0.4659 H   0  0  0  0  0  0  0  0  0  0  0  0
   -1.6862   -0.5767   -0.0783 C   0  0  0  0  0  0  0  0  0  0  0  0
   -0.3629   -1.1212   -0.2303 C   0  0  1  0  0  3  0  0  0  0  0  0
   -3.0811    1.5863   -0.0745 C   0  0  0  0  0  0  0  0  0  0  0  0
   -3.1901    2.7649    0.6977 C   0  0  0  0  0  0  0  0  0  0  0  0
   -2.3170    3.0966    1.2777 H   0  0  0  0  0  0  0  0  0  0  0  0
   -4.3904    3.4833    0.7298 C   0  0  0  0  0  0  0  0  0  0  0  0
   -4.4690    4.3893    1.3494 H   0  0  0  0  0  0  0  0  0  0  0  0
   -5.4917    3.0513   -0.0286 C   0  0  0  0  0  0  0  0  0  0  0  0
   -6.4338    3.6196   -0.0068 H   0  0  0  0  0  0  0  0  0  0  0  0
   -5.3843    1.8991   -0.8231 C   0  0  0  0  0  0  0  0  0  0  0  0
   -6.2351    1.5715   -1.4391 H   0  0  0  0  0  0  0  0  0  0  0  0
   -4.1897    1.1663   -0.8443 C   0  0  0  0  0  0  0  0  0  0  0  0
   -4.1022    0.2863   -1.4979 H   0  0  0  0  0  0  0  0  0  0  0  0
    1.7328    1.8763   -0.2479 C   0  0  1  0  0  3  0  0  0  0  0  0
    4.0580    1.9365   -0.3310 C   0  0  0  0  0  0  0  0  0  0  0  0
    4.9927    1.3547   -0.3725 H   0  0  0  0  0  0  0  0  0  0  0  0
    4.0681    3.3381   -0.2869 C   0  0  0  0  0  0  0  0  0  0  0  0
    5.0239    3.8808   -0.3018 H   0  0  0  0  0  0  0  0  0  0  0  0
    2.8423    4.0175   -0.2219 C   0  0  0  0  0  0  0  0  0  0  0  0
    2.8135    5.1167   -0.1850 H   0  0  0  0  0  0  0  0  0  0  0  0
    1.6531    3.2782   -0.2016 C   0  0  0  0  0  0  0  0  0  0  0  0
    0.6616    3.7478   -0.1519 H   0  0  0  0  0  0  0  0  0  0  0  0
  2  5  1  0  0  0  0
  3  6  1  0  0  0  0
  4 27  1  0  0  0  0
  5  3  2  0  0  0  0
  6 14  2  0  0  0  0
  6 16  1  0  0  0  0
  7  8  1  0  0  0  0
  9  7  2  0  0  0  0
  9  1  1  0  0  0  0
 10  9  1  0  0  0  0
 11 10  1  0  0  0  0
 12 15  1  0  0  0  0
 12 10  2  0  0  0  0
 13 12  1  0  0  0  0
 14  7  1  0  0  0  0
 15  2  1  1  0  0  0
 15 14  1  0  0  0  0
 16 17  1  0  0  0  0
 17 19  2  0  0  0  0
 17 18  1  0  0  0  0
 19 20  1  0  0  0  0
 21 22  1  0  0  0  0
 21 19  1  0  0  0  0
 23 21  2  0  0  0  0
 24 23  1  0  0  0  0
 25 23  1  0  0  0  0
 25 16  2  0  0  0  0
 26 25  1  0  0  0  0
 27  5  1  1  0  0  0
 27 34  1  0  0  0  0
 28  4  1  0  0  0  0
 28 30  2  0  0  0  0
 29 28  1  0  0  0  0
 30 32  1  0  0  0  0
 31 30  1  0  0  0  0
 32 34  2  0  0  0  0
 32 33  1  0  0  0  0
 34 35  1  0  0  0  0
M  END
