1,3
q = 0.0, confidence = 0.998

 31 32  0  0  1  0  0  0  0  0999 V2000
    2.0275    0.2127   -0.1887 N   0  0  0  0  0  2  0  0  0  0  0  0
    0.0000   -1.5882   -0.3530 N   0  0  0  0  0  0  0  0  0  0  0  0
   -2.0275    0.2127   -0.1887 N   0  0  0  0  0  2  0  0  0  0  0  0
    2.9563    1.1410   -0.4723 C   0  0  0  0  0  3  0  0  0  0  0  0
    2.5654    2.1700   -0.5663 H   0  0  0  0  0  0  0  0  0  0  0  0
    4.3056    0.8036   -0.6411 C   0  0  0  0  0  0  0  0  0  0  0  0
    5.0447    1.5840   -0.8721 H   0  0  0  0  0  0  0  0  0  0  0  0
    4.6798   -0.5426   -0.5148 C   0  0  0  0  0  0  0  0  0  0  0  0
    5.7299   -0.8455   -0.6458 H   0  0  0  0  0  0  0  0  0  0  0  0
    3.6985   -1.5034   -0.2303 C   0  0  0  0  0  0  0  0  0  0  0  0
    3.9541   -2.5695   -0.1371 H   0  0  0  0  0  0  0  0  0  0  0  0
    2.3692   -1.0855   -0.0664 C   0  0  0  0  0  0  0  0  0  0  0  0
    1.2339   -2.0220    0.2932 C   0  0  0  0  0  0  0  0  0  0  0  0
    1.5117   -3.0781    0.0582 H   0  0  0  0  0  0  0  0  0  0  0  0
    1.0747   -1.9200    1.3917 H   0  0  0  0  0  0  0  0  0  0  0  0
   -1.2339   -2.0221    0.2932 C   0  0  0  0  0  0  0  0  0  0  0  0
   -1.0747   -1.9200    1.3916 H   0  0  0  0  0  0  0  0  0  0  0  0
   -1.5117   -3.0781    0.0582 H   0  0  0  0  0  0  0  0  0  0  0  0
   -2.3692   -1.0855   -0.0664 C   0  0  1  0  0  3  0  0  0  0  0  0
   -3.6985   -1.5034   -0.2303 C   0  0  0  0  0  0  0  0  0  0  0  0
   -3.9541   -2.5695   -0.1372 H   0  0  0  0  0  0  0  0  0  0  0  0
   -4.6798   -0.5426   -0.5149 C   0  0  0  0  0  0  0  0  0  0  0  0
   -5.7299   -0.8455   -0.6459 H   0  0  0  0  0  0  0  0  0  0  0  0
   -4.3057    0.8036   -0.6411 C   0  0  0  0  0  0  0  0  0  0  0  0
   -5.0447    1.5840   -0.8721 H   0  0  0  0  0  0  0  0  0  0  0  0
   -2.9564    1.1410   -0.4722 C   0  0  0  0  0  0  0  0  0  0  0  0
   -2.5654    2.1700   -0.5662 H   0  0  0  0  0  0  0  0  0  0  0  0
    0.0000   -1.7898   -1.7982 C   0  0  0  0  0  0  0  0  0  0  0  0
    0.8937   -1.3128   -2.2456 H   0  0  0  0  0  0  0  0  0  0  0  0
   -0.8936   -1.3129   -2.2456 H   0  0  0  0  0  0  0  0  0  0  0  0
    0.0001   -2.8725   -2.0760 H   0  0  0  0  0  0  0  0  0  0  0  0
  1 12  1  0  0  0  0
  2 16  1  0  0  0  0
  2 13  1  0  0  0  0
  3 19  1  0  0  0  0
  4  1  1  0  0  0  0
  5  4  1  0  0  0  0
  6  8  2  0  0  0  0
  6  4  1  0  0  0  0
  7  6  1  0  0  0  0
  8 10  1  0  0  0  0
  9  8  1  0  0  0  0
 10 11  1  0  0  0  0
 10 12  2  0  0  0  0
 12 13  1  0  0  0  0
 13 15  1  0  0  0  0
 14 13  1  0  0  0  0
 16 17  1  0  0  0  0
 18 16  1  0  0  0  0
 19 16  1  1  0  0  0
 20 21  1  0  0  0  0
 20 19  1  0  0  0  0
 22 20  2  0  0  0  0
 23 22  1  0  0  0  0
 24 22  1  0  0  0  0
 24 26  2  0  0  0  0
 25 24  1  0  0  0  0
 26  3  1  0  0  0  0
 27 26  1  0  0  0  0
 28  2  1  0  0  0  0
 29 28  1  0  0  0  0
 30 28  1  0  0  0  0
 31 28  1  0  0  0  0
M  END
