4,5
q = -1.0

 27 27  0  0  0  0  0  0  0  0999 V2000
    0.6319   -2.2233   -0.3080 S   0  0  0  0  0  0  0  0  0  0  0  0
    0.0449   -2.2307   -1.6728 O   0  0  0  0  0  0  0  0  0  0  0  0
    0.8307   -3.5013    0.4219 O   0  0  0  0  0  0  0  0  0  0  0  0
   -1.3463    0.6743    2.1935 N   0  0  0  0  0  0  0  0  0  0  0  0
   -0.2756   -1.2210    0.6559 N   0  0  0  0  0  2  0  0  0  0  0  0
   -1.1167   -0.6481    2.8103 C   0  0  0  0  0  0  0  0  0  0  0  0
    0.0548   -1.2805    2.0797 C   0  0  0  0  0  0  0  0  0  0  0  0
    2.2654   -1.4692   -0.4555 C   0  0  0  0  0  0  0  0  0  0  0  0
    3.2132   -1.6784    0.5586 C   0  0  0  0  0  0  0  0  0  0  0  0
    4.4541   -1.0301    0.4841 C   0  0  0  0  0  0  0  0  0  0  0  0
    4.7721   -0.1789   -0.5951 C   0  0  0  0  0  0  0  0  0  0  0  0
    3.8109   -0.0107   -1.6146 C   0  0  0  0  0  0  0  0  0  0  0  0
    2.5659   -0.6466   -1.5509 C   0  0  0  0  0  0  0  0  0  0  0  0
    6.0880    0.5543   -0.6436 C   0  0  0  0  0  0  0  0  0  0  0  0
   -2.2594    1.0615    2.4618 H   0  0  0  0  0  0  0  0  0  0  0  0
   -0.5801    1.3724    2.4755 H   0  0  0  0  0  0  0  0  0  0  0  0
   -2.0227   -1.2738    2.6731 H   0  0  0  0  0  0  0  0  0  0  0  0
   -0.9122   -0.5523    3.8988 H   0  0  0  0  0  0  0  0  0  0  0  0
    0.1983   -2.3326    2.3996 H   0  0  0  0  0  0  0  0  0  0  0  0
    0.9885   -0.7171    2.3281 H   0  0  0  0  0  0  0  0  0  0  0  0
    4.0492    0.6291   -2.4795 H   0  0  0  0  0  0  0  0  0  0  0  0
    1.8250   -0.5298   -2.3531 H   0  0  0  0  0  0  0  0  0  0  0  0
    2.9812   -2.3701    1.3810 H   0  0  0  0  0  0  0  0  0  0  0  0
    5.2002   -1.1981    1.2771 H   0  0  0  0  0  0  0  0  0  0  0  0
    6.4281    0.7183   -1.6852 H   0  0  0  0  0  0  0  0  0  0  0  0
    5.9972    1.5561   -0.1692 H   0  0  0  0  0  0  0  0  0  0  0  0
    6.8834    0.0075   -0.1002 H   0  0  0  0  0  0  0  0  0  0  0  0
  1  3  2  0  0  0  0
  1  5  1  0  0  0  0
  2  1  2  0  0  0  0
  4 15  1  0  0  0  0
  4 16  1  0  0  0  0
  4  6  1  0  0  0  0
  5  7  1  0  0  0  0
  6 18  1  0  0  0  0
  7 20  1  0  0  0  0
  7 19  1  0  0  0  0
  7  6  1  0  0  0  0
  8  1  1  0  0  0  0
  8  9  1  0  0  0  0
  9 23  1  0  0  0  0
 10  9  2  0  0  0  0
 10 24  1  0  0  0  0
 11 10  1  0  0  0  0
 12 13  1  0  0  0  0
 12 11  2  0  0  0  0
 13  8  2  0  0  0  0
 14 11  1  0  0  0  0
 14 26  1  0  0  0  0
 14 27  1  0  0  0  0
 17  6  1  0  0  0  0
 21 12  1  0  0  0  0
 22 13  1  0  0  0  0
 25 14  1  0  0  0  0
M  END
