5,6
q = 0.0, confidence = 1.0

 33 34  0  0  1  0  0  0  0  0999 V2000
    1.4887    1.4881    2.4342 O   0  0  0  0  0  0  0  0  0  0  0  0
   -0.3568    2.7357   -1.7283 O   0  0  0  0  0  0  0  0  0  0  0  0
    2.3660    3.5175    0.1756 O   0  0  0  0  0  0  0  0  0  0  0  0
    2.3986    1.8331   -1.2205 O   0  0  0  0  0  0  0  0  0  0  0  0
    1.3272   -1.1274   -0.0860 N   0  0  0  0  0  2  0  0  0  0  0  0
   -2.0002    0.1074    0.1622 N   0  0  0  0  0  2  0  0  0  0  0  0
    1.9008    2.4994   -0.3153 N   0  0  0  0  0  0  0  0  0  0  0  0
    2.1122   -2.0120   -0.7317 C   0  0  0  0  0  3  0  0  0  0  0  0
    1.5822   -2.7034   -1.4086 H   0  0  0  0  0  0  0  0  0  0  0  0
    3.5009   -2.0275   -0.5635 C   0  0  0  0  0  0  0  0  0  0  0  0
    4.1092   -2.7680   -1.1016 H   0  0  0  0  0  0  0  0  0  0  0  0
    4.0849   -1.0882    0.2989 C   0  0  0  0  0  0  0  0  0  0  0  0
    5.1739   -1.0747    0.4569 H   0  0  0  0  0  0  0  0  0  0  0  0
    3.2668   -0.1493    0.9395 C   0  0  0  0  0  0  0  0  0  0  0  0
    3.6725    0.6348    1.5938 H   0  0  0  0  0  0  0  0  0  0  0  0
    1.8841   -0.1944    0.7102 C   0  0  0  0  0  0  0  0  0  0  0  0
    0.9419    0.8454    1.3014 C   0  0  2  0  0  0  0  0  0  0  0  0
   -0.0107    0.3169    1.5463 H   0  0  0  0  0  0  0  0  0  0  0  0
    0.5996    1.9690    0.2893 C   0  0  2  0  0  0  0  0  0  0  0  0
    0.1940    2.8194    0.8689 H   0  0  0  0  0  0  0  0  0  0  0  0
   -0.3577    1.6123   -0.8672 C   0  0  1  0  0  0  0  0  0  0  0  0
    0.0012    0.6933   -1.3850 H   0  0  0  0  0  0  0  0  0  0  0  0
   -1.7518    1.3433   -0.3154 C   0  0  2  0  0  3  0  0  0  0  0  0
   -2.7185    2.3592   -0.2609 C   0  0  0  0  0  0  0  0  0  0  0  0
   -2.4688    3.3455   -0.6754 H   0  0  0  0  0  0  0  0  0  0  0  0
   -3.9652    2.0743    0.3113 C   0  0  0  0  0  0  0  0  0  0  0  0
   -4.7428    2.8515    0.3630 H   0  0  0  0  0  0  0  0  0  0  0  0
   -4.2049    0.7906    0.8249 C   0  0  0  0  0  0  0  0  0  0  0  0
   -5.1654    0.5288    1.2908 H   0  0  0  0  0  0  0  0  0  0  0  0
   -3.1904   -0.1682    0.7340 C   0  0  0  0  0  0  0  0  0  0  0  0
   -3.2871   -1.1901    1.1394 H   0  0  0  0  0  0  0  0  0  0  0  0
   -0.5545    2.4146   -2.6265 H   0  0  0  0  0  0  0  0  0  0  0  0
    1.5636    0.8175    3.1386 H   0  0  0  0  0  0  0  0  0  0  0  0
  1 33  1  0  0  0  0
  2 21  1  0  0  0  0
  4  7  2  0  0  0  0
  5 16  1  0  0  0  0
  6 30  1  0  0  0  0
  7  3  2  0  0  0  0
  7 19  1  0  0  0  0
  8 10  1  0  0  0  0
  8  5  1  0  0  0  0
  9  8  1  0  0  0  0
 10 12  2  0  0  0  0
 11 10  1  0  0  0  0
 12 13  1  0  0  0  0
 12 14  1  0  0  0  0
 14 15  1  0  0  0  0
 16 14  2  0  0  0  0
 16 17  1  0  0  0  0
 17 18  1  1  0  0  0
 17  1  1  0  0  0  0
 19 20  1  1  0  0  0
 19 17  1  0  0  0  0
 21 22  1  6  0  0  0
 21 19  1  0  0  0  0
 23 21  1  1  0  0  0
 23 24  1  0  0  0  0
 23  6  1  0  0  0  0
 24 26  2  0  0  0  0
 25 24  1  0  0  0  0
 26 27  1  0  0  0  0
 26 28  1  0  0  0  0
 28 29  1  0  0  0  0
 30 28  2  0  0  0  0
 30 31  1  0  0  0  0
 32  2  1  0  0  0  0
M  END
