3,4
q = -1.0

 72 77  0  0  0  0  0  0  0  0999 V2000
   -1.5929   -0.4651   -0.4562 P   0  0  0  0  0  4  0  0  0  0  0  0
    1.4526   -0.6495   -0.2965 P   0  0  0  0  0  4  0  0  0  0  0  0
   -1.6584    1.1852   -0.5207 N   0  0  0  0  0  2  0  0  0  0  0  0
    1.4762    0.9714    0.0066 N   0  0  0  0  0  2  0  0  0  0  0  0
   -0.0526   -0.9283   -1.1344 C   0  0  0  0  0  3  0  0  0  0  0  0
   -0.0499   -1.6394   -1.9716 H   0  0  0  0  0  0  0  0  0  0  0  0
   -2.5588    2.0327    0.1278 C   0  0  0  0  0  0  0  0  0  0  0  0
   -3.7440    1.6000    0.7786 C   0  0  0  0  0  0  0  0  0  0  0  0
   -4.0011    0.5309    0.7962 H   0  0  0  0  0  0  0  0  0  0  0  0
   -4.5936    2.5208    1.4079 C   0  0  0  0  0  0  0  0  0  0  0  0
   -5.5032    2.1531    1.9082 H   0  0  0  0  0  0  0  0  0  0  0  0
   -4.3005    3.8933    1.4047 C   0  0  0  0  0  0  0  0  0  0  0  0
   -4.9722    4.6102    1.8995 H   0  0  0  0  0  0  0  0  0  0  0  0
   -3.1344    4.3357    0.7557 C   0  0  0  0  0  0  0  0  0  0  0  0
   -2.8863    5.4084    0.7361 H   0  0  0  0  0  0  0  0  0  0  0  0
   -2.2776    3.4244    0.1304 C   0  0  0  0  0  0  0  0  0  0  0  0
   -1.3691    3.7762   -0.3854 H   0  0  0  0  0  0  0  0  0  0  0  0
   -1.8262   -1.0129    1.2774 C   0  0  0  0  0  0  0  0  0  0  0  0
   -1.1174   -0.2936    2.2637 C   0  0  0  0  0  0  0  0  0  0  0  0
   -0.5242    0.5868    1.9716 H   0  0  0  0  0  0  0  0  0  0  0  0
   -1.1579   -0.7149    3.5990 C   0  0  0  0  0  0  0  0  0  0  0  0
   -0.5914   -0.1596    4.3613 H   0  0  0  0  0  0  0  0  0  0  0  0
   -1.9164   -1.8394    3.9626 C   0  0  0  0  0  0  0  0  0  0  0  0
   -1.9468   -2.1668    5.0129 H   0  0  0  0  0  0  0  0  0  0  0  0
   -2.6428   -2.5405    2.9870 C   0  0  0  0  0  0  0  0  0  0  0  0
   -3.2509   -3.4128    3.2715 H   0  0  0  0  0  0  0  0  0  0  0  0
   -2.5994   -2.1308    1.6457 C   0  0  0  0  0  0  0  0  0  0  0  0
   -3.1758   -2.6801    0.8865 H   0  0  0  0  0  0  0  0  0  0  0  0
   -2.8703   -1.2824   -1.4773 C   0  0  0  0  0  0  0  0  0  0  0  0
   -2.8319   -2.6705   -1.7254 C   0  0  0  0  0  0  0  0  0  0  0  0
   -2.0282   -3.2855   -1.2914 H   0  0  0  0  0  0  0  0  0  0  0  0
   -3.8098   -3.2638   -2.5371 C   0  0  0  0  0  0  0  0  0  0  0  0
   -3.7769   -4.3465   -2.7321 H   0  0  0  0  0  0  0  0  0  0  0  0
   -4.8243   -2.4755   -3.1057 C   0  0  0  0  0  0  0  0  0  0  0  0
   -5.5901   -2.9428   -3.7433 H   0  0  0  0  0  0  0  0  0  0  0  0
   -4.8553   -1.0920   -2.8706 C   0  0  0  0  0  0  0  0  0  0  0  0
   -5.6421   -0.4717   -3.3258 H   0  0  0  0  0  0  0  0  0  0  0  0
   -3.8784   -0.4916   -2.0616 C   0  0  0  0  0  0  0  0  0  0  0  0
   -3.8839    0.5947   -1.8870 H   0  0  0  0  0  0  0  0  0  0  0  0
    2.5264    1.7499    0.4974 C   0  0  0  0  0  0  0  0  0  0  0  0
    2.2293    3.0818    0.8899 C   0  0  0  0  0  0  0  0  0  0  0  0
    1.1857    3.4266    0.8177 H   0  0  0  0  0  0  0  0  0  0  0  0
    3.2290    3.9355    1.3680 C   0  0  0  0  0  0  0  0  0  0  0  0
    2.9635    4.9619    1.6656 H   0  0  0  0  0  0  0  0  0  0  0  0
    4.5587    3.4925    1.4775 C   0  0  0  0  0  0  0  0  0  0  0  0
    5.3429    4.1638    1.8574 H   0  0  0  0  0  0  0  0  0  0  0  0
    4.8694    2.1797    1.0893 C   0  0  0  0  0  0  0  0  0  0  0  0
    5.9067    1.8158    1.1577 H   0  0  0  0  0  0  0  0  0  0  0  0
    3.8758    1.3192    0.6013 C   0  0  0  0  0  0  0  0  0  0  0  0
    4.1502    0.3030    0.2810 H   0  0  0  0  0  0  0  0  0  0  0  0
    2.7723   -1.2152   -1.4354 C   0  0  0  0  0  0  0  0  0  0  0  0
    3.0135   -0.4169   -2.5733 C   0  0  0  0  0  0  0  0  0  0  0  0
    2.4196    0.4973   -2.7352 H   0  0  0  0  0  0  0  0  0  0  0  0
    4.0162   -0.7843   -3.4805 C   0  0  0  0  0  0  0  0  0  0  0  0
    4.2056   -0.1598   -4.3665 H   0  0  0  0  0  0  0  0  0  0  0  0
    4.7830   -1.9400   -3.2537 C   0  0  0  0  0  0  0  0  0  0  0  0
    5.5734   -2.2232   -3.9654 H   0  0  0  0  0  0  0  0  0  0  0  0
    4.5486   -2.7294   -2.1166 C   0  0  0  0  0  0  0  0  0  0  0  0
    5.1530   -3.6314   -1.9364 H   0  0  0  0  0  0  0  0  0  0  0  0
    3.5450   -2.3686   -1.2036 C   0  0  0  0  0  0  0  0  0  0  0  0
    3.3646   -2.9801   -0.3065 H   0  0  0  0  0  0  0  0  0  0  0  0
    1.6373   -1.6366    1.2435 C   0  0  0  0  0  0  0  0  0  0  0  0
    2.3204   -1.1396    2.3723 C   0  0  0  0  0  0  0  0  0  0  0  0
    2.8031   -0.1528    2.3377 H   0  0  0  0  0  0  0  0  0  0  0  0
    2.3652   -1.8973    3.5520 C   0  0  0  0  0  0  0  0  0  0  0  0
    2.8947   -1.5006    4.4316 H   0  0  0  0  0  0  0  0  0  0  0  0
    1.7289   -3.1470    3.6171 C   0  0  0  0  0  0  0  0  0  0  0  0
    1.7574   -3.7326    4.5486 H   0  0  0  0  0  0  0  0  0  0  0  0
    1.0440   -3.6432    2.4964 C   0  0  0  0  0  0  0  0  0  0  0  0
    0.5278   -4.6136    2.5480 H   0  0  0  0  0  0  0  0  0  0  0  0
    0.9984   -2.8911    1.3145 C   0  0  0  0  0  0  0  0  0  0  0  0
    0.4324   -3.2554    0.4429 H   0  0  0  0  0  0  0  0  0  0  0  0
  1 18  1  0  0  0  0
  2  4  1  0  0  0  0
  2 62  1  0  0  0  0
  3  1  1  0  0  0  0
  3  7  1  0  0  0  0
  4 40  1  0  0  0  0
  5  1  1  0  0  0  0
  5  2  1  0  0  0  0
  6  5  1  0  0  0  0
  7 16  2  0  0  0  0
  7  8  1  0  0  0  0
  8  9  1  0  0  0  0
  8 10  2  0  0  0  0
 10 11  1  0  0  0  0
 12 10  1  0  0  0  0
 12 13  1  0  0  0  0
 14 12  2  0  0  0  0
 15 14  1  0  0  0  0
 16 14  1  0  0  0  0
 17 16  1  0  0  0  0
 18 27  2  0  0  0  0
 18 19  1  0  0  0  0
 19 21  2  0  0  0  0
 20 19  1  0  0  0  0
 21 23  1  0  0  0  0
 21 22  1  0  0  0  0
 23 24  1  0  0  0  0
 25 26  1  0  0  0  0
 25 23  2  0  0  0  0
 27 25  1  0  0  0  0
 28 27  1  0  0  0  0
 29  1  1  0  0  0  0
 30 29  1  0  0  0  0
 30 31  1  0  0  0  0
 32 30  2  0  0  0  0
 33 32  1  0  0  0  0
 34 36  2  0  0  0  0
 34 32  1  0  0  0  0
 35 34  1  0  0  0  0
 36 38  1  0  0  0  0
 37 36  1  0  0  0  0
 38 39  1  0  0  0  0
 38 29  2  0  0  0  0
 40 49  2  0  0  0  0
 40 41  1  0  0  0  0
 41 43  2  0  0  0  0
 42 41  1  0  0  0  0
 43 45  1  0  0  0  0
 43 44  1  0  0  0  0
 45 46  1  0  0  0  0
 47 48  1  0  0  0  0
 47 45  2  0  0  0  0
 49 47  1  0  0  0  0
 50 49  1  0  0  0  0
 51 60  1  0  0  0  0
 51  2  1  0  0  0  0
 52 51  2  0  0  0  0
 53 52  1  0  0  0  0
 54 56  2  0  0  0  0
 54 52  1  0  0  0  0
 55 54  1  0  0  0  0
 56 58  1  0  0  0  0
 57 56  1  0  0  0  0
 58 59  1  0  0  0  0
 58 60  2  0  0  0  0
 60 61  1  0  0  0  0
 62 71  2  0  0  0  0
 62 63  1  0  0  0  0
 63 65  2  0  0  0  0
 64 63  1  0  0  0  0
 65 67  1  0  0  0  0
 65 66  1  0  0  0  0
 67 68  1  0  0  0  0
 69 70  1  0  0  0  0
 69 67  2  0  0  0  0
 71 69  1  0  0  0  0
 72 71  1  0  0  0  0
M  END
