6,7
q = -1.0

 76 79  0  0  0  0  0  0  0  0999 V2000
   -0.1066    0.3119   -2.3678 H   0  0  0  0  0  0  0  0  0  0  0  0
    1.4690    0.3394   -0.5028 P   0  0  0  0  0  4  0  0  0  0  0  0
   -1.5474    0.2829   -0.3960 P   0  0  0  0  0  4  0  0  0  0  0  0
    2.8432   -0.9497    1.9193 Si  0  0  0  0  0  0  0  0  0  0  0  0
   -3.1006   -1.5901    1.5009 Si  0  0  0  0  0  0  0  0  0  0  0  0
    1.4739   -0.4716    0.9157 N   0  0  0  0  0  2  0  0  0  0  0  0
   -1.6815   -0.8378    0.7829 N   0  0  0  0  0  2  0  0  0  0  0  0
   -0.0606    0.0622   -1.2962 C   0  0  0  0  0  3  0  0  0  0  0  0
    2.7767   -0.2196   -1.6634 C   0  0  0  0  0  0  0  0  0  0  0  0
    2.5308   -1.3676   -2.4443 C   0  0  0  0  0  0  0  0  0  0  0  0
    1.5258   -1.8168   -2.4335 H   0  0  0  0  0  0  0  0  0  0  0  0
    3.5611   -1.9344   -3.2077 C   0  0  0  0  0  0  0  0  0  0  0  0
    3.3620   -2.8323   -3.8123 H   0  0  0  0  0  0  0  0  0  0  0  0
    4.8451   -1.3646   -3.1927 C   0  0  0  0  0  0  0  0  0  0  0  0
    5.6549   -1.8143   -3.7873 H   0  0  0  0  0  0  0  0  0  0  0  0
    5.0952   -0.2215   -2.4162 C   0  0  0  0  0  0  0  0  0  0  0  0
    6.0999    0.2278   -2.4025 H   0  0  0  0  0  0  0  0  0  0  0  0
    4.0659    0.3505   -1.6533 C   0  0  0  0  0  0  0  0  0  0  0  0
    4.2666    1.2448   -1.0439 H   0  0  0  0  0  0  0  0  0  0  0  0
    1.8021    2.1248   -0.2197 C   0  0  0  0  0  0  0  0  0  0  0  0
    1.6164    2.6631    1.0676 C   0  0  0  0  0  0  0  0  0  0  0  0
    1.3689    1.9822    1.8949 H   0  0  0  0  0  0  0  0  0  0  0  0
    1.7256    4.0456    1.2767 C   0  0  0  0  0  0  0  0  0  0  0  0
    1.5691    4.4582    2.2848 H   0  0  0  0  0  0  0  0  0  0  0  0
    2.0247    4.8999    0.2043 C   0  0  0  0  0  0  0  0  0  0  0  0
    2.1143    5.9843    0.3705 H   0  0  0  0  0  0  0  0  0  0  0  0
    2.2004    4.3693   -1.0852 C   0  0  0  0  0  0  0  0  0  0  0  0
    2.4296    5.0368   -1.9302 H   0  0  0  0  0  0  0  0  0  0  0  0
    2.0809    2.9890   -1.2994 C   0  0  0  0  0  0  0  0  0  0  0  0
    2.2058    2.5782   -2.3139 H   0  0  0  0  0  0  0  0  0  0  0  0
   -2.8872    0.1823   -1.6442 C   0  0  0  0  0  0  0  0  0  0  0  0
   -2.8605   -0.9123   -2.5347 C   0  0  0  0  0  0  0  0  0  0  0  0
   -2.0172   -1.6192   -2.4932 H   0  0  0  0  0  0  0  0  0  0  0  0
   -3.9032   -1.0977   -3.4528 C   0  0  0  0  0  0  0  0  0  0  0  0
   -3.8759   -1.9518   -4.1465 H   0  0  0  0  0  0  0  0  0  0  0  0
   -4.9842   -0.2003   -3.4817 C   0  0  0  0  0  0  0  0  0  0  0  0
   -5.8050   -0.3497   -4.1997 H   0  0  0  0  0  0  0  0  0  0  0  0
   -5.0188    0.8841   -2.5912 C   0  0  0  0  0  0  0  0  0  0  0  0
   -5.8659    1.5867   -2.6094 H   0  0  0  0  0  0  0  0  0  0  0  0
   -3.9743    1.0771   -1.6731 C   0  0  0  0  0  0  0  0  0  0  0  0
   -4.0037    1.9273   -0.9752 H   0  0  0  0  0  0  0  0  0  0  0  0
   -1.6729    1.9602    0.3457 C   0  0  0  0  0  0  0  0  0  0  0  0
   -1.7754    2.0991    1.7414 C   0  0  0  0  0  0  0  0  0  0  0  0
   -1.8189    1.1878    2.3566 H   0  0  0  0  0  0  0  0  0  0  0  0
   -1.7953    3.3766    2.3237 C   0  0  0  0  0  0  0  0  0  0  0  0
   -1.8764    3.4790    3.4168 H   0  0  0  0  0  0  0  0  0  0  0  0
   -1.7058    4.5189    1.5142 C   0  0  0  0  0  0  0  0  0  0  0  0
   -1.7185    5.5208    1.9700 H   0  0  0  0  0  0  0  0  0  0  0  0
   -1.5811    4.3840    0.1201 C   0  0  0  0  0  0  0  0  0  0  0  0
   -1.4852    5.2782   -0.5140 H   0  0  0  0  0  0  0  0  0  0  0  0
   -1.5576    3.1107   -0.4624 C   0  0  0  0  0  0  0  0  0  0  0  0
   -1.4336    3.0043   -1.5517 H   0  0  0  0  0  0  0  0  0  0  0  0
    3.8250   -2.3427    1.0969 C   0  0  0  0  0  0  0  0  0  0  0  0
    4.6370   -2.7059    1.7610 H   0  0  0  0  0  0  0  0  0  0  0  0
    4.2850   -2.0046    0.1462 H   0  0  0  0  0  0  0  0  0  0  0  0
    3.1592   -3.1986    0.8665 H   0  0  0  0  0  0  0  0  0  0  0  0
    4.0275    0.4821    2.2918 C   0  0  0  0  0  0  0  0  0  0  0  0
    3.5354    1.2957    2.8608 H   0  0  0  0  0  0  0  0  0  0  0  0
    4.4407    0.9246    1.3629 H   0  0  0  0  0  0  0  0  0  0  0  0
    4.8826    0.1117    2.8952 H   0  0  0  0  0  0  0  0  0  0  0  0
    2.0801   -1.5770    3.5315 C   0  0  0  0  0  0  0  0  0  0  0  0
    2.8584   -1.9029    4.2519 H   0  0  0  0  0  0  0  0  0  0  0  0
    1.4149   -2.4444    3.3376 H   0  0  0  0  0  0  0  0  0  0  0  0
    1.4711   -0.7843    4.0123 H   0  0  0  0  0  0  0  0  0  0  0  0
   -2.5276   -2.2714    3.1691 C   0  0  0  0  0  0  0  0  0  0  0  0
   -2.1687   -1.4551    3.8292 H   0  0  0  0  0  0  0  0  0  0  0  0
   -1.6888   -2.9847    3.0275 H   0  0  0  0  0  0  0  0  0  0  0  0
   -3.3439   -2.8082    3.6949 H   0  0  0  0  0  0  0  0  0  0  0  0
   -4.5226   -0.3634    1.7483 C   0  0  0  0  0  0  0  0  0  0  0  0
   -5.3795   -0.8674    2.2423 H   0  0  0  0  0  0  0  0  0  0  0  0
   -4.8814    0.0299    0.7753 H   0  0  0  0  0  0  0  0  0  0  0  0
   -4.2253    0.5001    2.3767 H   0  0  0  0  0  0  0  0  0  0  0  0
   -3.7084   -3.0124    0.4113 C   0  0  0  0  0  0  0  0  0  0  0  0
   -4.5272   -3.5816    0.8987 H   0  0  0  0  0  0  0  0  0  0  0  0
   -2.8757   -3.7145    0.2011 H   0  0  0  0  0  0  0  0  0  0  0  0
   -4.0854   -2.6305   -0.5594 H   0  0  0  0  0  0  0  0  0  0  0  0
  1  8  1  0  0  0  0
  2 20  1  0  0  0  0
  2  6  1  0  0  0  0
  3 42  1  0  0  0  0
  3  7  1  0  0  0  0
  4 57  1  0  0  0  0
  4 61  1  0  0  0  0
  5 69  1  0  0  0  0
  5 65  1  0  0  0  0
  6  4  1  0  0  0  0
  7  5  1  0  0  0  0
  8  2  1  0  0  0  0
  8  3  1  0  0  0  0
  9 18  1  0  0  0  0
  9  2  1  0  0  0  0
 10 11  1  0  0  0  0
 10  9  2  0  0  0  0
 12 14  2  0  0  0  0
 12 10  1  0  0  0  0
 13 12  1  0  0  0  0
 14 16  1  0  0  0  0
 15 14  1  0  0  0  0
 16 17  1  0  0  0  0
 16 18  2  0  0  0  0
 18 19  1  0  0  0  0
 20 21  1  0  0  0  0
 21 23  2  0  0  0  0
 21 22  1  0  0  0  0
 23 24  1  0  0  0  0
 25 26  1  0  0  0  0
 25 23  1  0  0  0  0
 27 25  2  0  0  0  0
 28 27  1  0  0  0  0
 29 27  1  0  0  0  0
 29 20  2  0  0  0  0
 30 29  1  0  0  0  0
 31  3  1  0  0  0  0
 32 33  1  0  0  0  0
 32 31  2  0  0  0  0
 34 32  1  0  0  0  0
 35 34  1  0  0  0  0
 36 34  2  0  0  0  0
 36 38  1  0  0  0  0
 37 36  1  0  0  0  0
 38 40  2  0  0  0  0
 39 38  1  0  0  0  0
 40 31  1  0  0  0  0
 40 41  1  0  0  0  0
 42 43  1  0  0  0  0
 43 45  2  0  0  0  0
 43 44  1  0  0  0  0
 45 46  1  0  0  0  0
 47 48  1  0  0  0  0
 47 45  1  0  0  0  0
 49 47  2  0  0  0  0
 50 49  1  0  0  0  0
 51 49  1  0  0  0  0
 51 42  2  0  0  0  0
 52 51  1  0  0  0  0
 53 54  1  0  0  0  0
 53  4  1  0  0  0  0
 55 53  1  0  0  0  0
 56 53  1  0  0  0  0
 57 58  1  0  0  0  0
 57 60  1  0  0  0  0
 59 57  1  0  0  0  0
 61 64  1  0  0  0  0
 61 62  1  0  0  0  0
 63 61  1  0  0  0  0
 65 68  1  0  0  0  0
 65 66  1  0  0  0  0
 67 65  1  0  0  0  0
 69 70  1  0  0  0  0
 69 72  1  0  0  0  0
 71 69  1  0  0  0  0
 73 74  1  0  0  0  0
 73  5  1  0  0  0  0
 75 73  1  0  0  0  0
 76 73  1  0  0  0  0
M  END
