1,4
q = 0.0, confidence = 0.994

 39 39  0  0  0  0  0  0  0  0999 V2000
    2.0564    0.5004   -0.5281 N   0  0  0  0  0  0  0  0  0  0  0  0
   -2.7311   -0.8685   -0.4296 N   0  0  0  0  0  0  0  0  0  0  0  0
   -2.8298    1.3723   -0.2794 N   0  0  0  0  0  0  0  0  0  0  0  0
   -0.7729    0.2664   -1.0249 N   0  0  0  0  0  2  0  0  0  0  0  0
   -2.0225    0.2972   -0.6127 C   0  0  0  0  0  3  0  0  0  0  0  0
   -0.0356    1.4045   -1.5359 C   0  0  0  0  0  0  0  0  0  0  0  0
   -0.0240    2.2881   -0.8587 H   0  0  0  0  0  0  0  0  0  0  0  0
   -0.4599    1.7611   -2.5025 H   0  0  0  0  0  0  0  0  0  0  0  0
    2.3913    1.6170    0.3946 C   0  0  0  0  0  0  0  0  0  0  0  0
    2.6573    1.1650    1.3693 H   0  0  0  0  0  0  0  0  0  0  0  0
    1.4494    2.1599    0.6055 H   0  0  0  0  0  0  0  0  0  0  0  0
    1.4062    0.9550   -1.7795 C   0  0  0  0  0  0  0  0  0  0  0  0
    1.3866    0.0849   -2.4661 H   0  0  0  0  0  0  0  0  0  0  0  0
    1.9916    1.7631   -2.2737 H   0  0  0  0  0  0  0  0  0  0  0  0
    3.2047   -0.3948   -0.8328 C   0  0  0  0  0  0  0  0  0  0  0  0
    3.9175    0.1247   -1.5165 H   0  0  0  0  0  0  0  0  0  0  0  0
    2.7757   -1.2588   -1.3805 H   0  0  0  0  0  0  0  0  0  0  0  0
    3.9268   -0.9191    0.4000 C   0  0  0  0  0  0  0  0  0  0  0  0
    4.6836   -1.6637    0.0844 H   0  0  0  0  0  0  0  0  0  0  0  0
    3.2151   -1.4414    1.0703 H   0  0  0  0  0  0  0  0  0  0  0  0
    4.4538   -0.1268    0.9675 H   0  0  0  0  0  0  0  0  0  0  0  0
   -4.1141   -0.5790   -0.0933 C   0  0  0  0  0  0  0  0  0  0  0  0
   -4.5081   -1.2816    0.6691 H   0  0  0  0  0  0  0  0  0  0  0  0
   -4.7621   -0.6580   -1.0010 H   0  0  0  0  0  0  0  0  0  0  0  0
   -4.0177    0.8583    0.4159 C   0  0  0  0  0  0  0  0  0  0  0  0
   -4.9161    1.4665    0.1893 H   0  0  0  0  0  0  0  0  0  0  0  0
   -3.8397    0.8759    1.5163 H   0  0  0  0  0  0  0  0  0  0  0  0
    3.4841    2.5746   -0.0768 C   0  0  0  0  0  0  0  0  0  0  0  0
    3.6306    3.3663    0.6844 H   0  0  0  0  0  0  0  0  0  0  0  0
    3.2281    3.0812   -1.0295 H   0  0  0  0  0  0  0  0  0  0  0  0
    4.4593    2.0659   -0.2148 H   0  0  0  0  0  0  0  0  0  0  0  0
   -2.2844    2.6240    0.2362 C   0  0  0  0  0  0  0  0  0  0  0  0
   -1.7969    3.2130   -0.5632 H   0  0  0  0  0  0  0  0  0  0  0  0
   -1.5632    2.4356    1.0629 H   0  0  0  0  0  0  0  0  0  0  0  0
   -3.1262    3.2311    0.6194 H   0  0  0  0  0  0  0  0  0  0  0  0
   -2.3799   -2.1311   -1.0424 C   0  0  0  0  0  0  0  0  0  0  0  0
   -2.6077   -2.9633   -0.3473 H   0  0  0  0  0  0  0  0  0  0  0  0
   -1.2944   -2.1595   -1.2454 H   0  0  0  0  0  0  0  0  0  0  0  0
   -2.9465   -2.2896   -1.9902 H   0  0  0  0  0  0  0  0  0  0  0  0
  1  9  1  0  0  0  0
  2 22  1  0  0  0  0
  3 32  1  0  0  0  0
  3 25  1  0  0  0  0
  4  5  1  0  0  0  0
  5  2  1  0  0  0  0
  5  3  1  0  0  0  0
  6  4  1  0  0  0  0
  6  7  1  0  0  0  0
  8  6  1  0  0  0  0
  9 11  1  0  0  0  0
  9 10  1  0  0  0  0
 12  6  1  0  0  0  0
 12  1  1  0  0  0  0
 13 12  1  0  0  0  0
 14 12  1  0  0  0  0
 15  1  1  0  0  0  0
 15 18  1  0  0  0  0
 16 15  1  0  0  0  0
 17 15  1  0  0  0  0
 18 21  1  0  0  0  0
 18 20  1  0  0  0  0
 19 18  1  0  0  0  0
 22 25  1  0  0  0  0
 22 23  1  0  0  0  0
 24 22  1  0  0  0  0
 25 27  1  0  0  0  0
 26 25  1  0  0  0  0
 28  9  1  0  0  0  0
 28 29  1  0  0  0  0
 30 28  1  0  0  0  0
 31 28  1  0  0  0  0
 32 35  1  0  0  0  0
 32 34  1  0  0  0  0
 33 32  1  0  0  0  0
 36  2  1  0  0  0  0
 36 37  1  0  0  0  0
 38 36  1  0  0  0  0
 39 36  1  0  0  0  0
M  END
