1,2
q = 0.0, confidence = 0.986

 41 40  0  0  0  0  0  0  0  0999 V2000
    0.7834   -0.2707   -0.9060 N   0  0  0  0  0  2  0  0  0  0  0  0
   -1.9618   -0.7232   -0.4325 N   0  0  0  0  0  0  0  0  0  0  0  0
    2.7590   -1.4024   -0.1861 N   0  0  0  0  0  0  0  0  0  0  0  0
    2.6866    0.9382   -0.3529 N   0  0  0  0  0  0  0  0  0  0  0  0
    2.0388   -0.2631   -0.4989 C   0  0  0  0  0  3  0  0  0  0  0  0
   -3.9438    0.4213    0.6149 C   0  0  0  0  0  0  0  0  0  0  0  0
   -4.8635    0.9788    0.3502 H   0  0  0  0  0  0  0  0  0  0  0  0
   -3.2691    1.1281    1.1391 H   0  0  0  0  0  0  0  0  0  0  0  0
   -4.2325   -0.3873    1.3153 H   0  0  0  0  0  0  0  0  0  0  0  0
    0.1581   -1.4060   -1.5597 C   0  0  0  0  0  0  0  0  0  0  0  0
    0.2873   -2.3693   -1.0161 H   0  0  0  0  0  0  0  0  0  0  0  0
    0.5899   -1.5720   -2.5729 H   0  0  0  0  0  0  0  0  0  0  0  0
   -1.9782   -1.8206    0.5662 C   0  0  0  0  0  0  0  0  0  0  0  0
   -2.2177   -1.3670    1.5473 H   0  0  0  0  0  0  0  0  0  0  0  0
   -0.9362   -2.1770    0.6775 H   0  0  0  0  0  0  0  0  0  0  0  0
    2.1864    2.1237   -1.0350 C   0  0  0  0  0  0  0  0  0  0  0  0
    1.6589    1.8269   -1.9585 H   0  0  0  0  0  0  0  0  0  0  0  0
    3.0417    2.7865   -1.2826 H   0  0  0  0  0  0  0  0  0  0  0  0
    1.4581    2.6955   -0.4179 H   0  0  0  0  0  0  0  0  0  0  0  0
   -1.3343   -1.0972   -1.7198 C   0  0  0  0  0  0  0  0  0  0  0  0
   -1.4421   -0.2139   -2.3825 H   0  0  0  0  0  0  0  0  0  0  0  0
   -1.8590   -1.9516   -2.2065 H   0  0  0  0  0  0  0  0  0  0  0  0
    3.5014    1.2049    0.8261 C   0  0  0  0  0  0  0  0  0  0  0  0
    3.6858    0.2705    1.3824 H   0  0  0  0  0  0  0  0  0  0  0  0
    2.9539    1.8891    1.5101 H   0  0  0  0  0  0  0  0  0  0  0  0
    4.4725    1.6664    0.5475 H   0  0  0  0  0  0  0  0  0  0  0  0
   -3.2870   -0.0929   -0.6585 C   0  0  0  0  0  0  0  0  0  0  0  0
   -3.9612   -0.8024   -1.1948 H   0  0  0  0  0  0  0  0  0  0  0  0
   -3.0998    0.7713   -1.3280 H   0  0  0  0  0  0  0  0  0  0  0  0
    4.1697   -1.5382   -0.4952 C   0  0  0  0  0  0  0  0  0  0  0  0
    4.4844   -0.7110   -1.1572 H   0  0  0  0  0  0  0  0  0  0  0  0
    4.3557   -2.5004   -1.0217 H   0  0  0  0  0  0  0  0  0  0  0  0
    4.8126   -1.5224    0.4152 H   0  0  0  0  0  0  0  0  0  0  0  0
    2.1515   -2.4439    0.6243 C   0  0  0  0  0  0  0  0  0  0  0  0
    1.2561   -2.0326    1.1313 H   0  0  0  0  0  0  0  0  0  0  0  0
    2.8652   -2.7500    1.4195 H   0  0  0  0  0  0  0  0  0  0  0  0
    1.8834   -3.3568    0.0432 H   0  0  0  0  0  0  0  0  0  0  0  0
   -2.9079   -2.9931    0.2576 C   0  0  0  0  0  0  0  0  0  0  0  0
   -2.8094   -3.7619    1.0496 H   0  0  0  0  0  0  0  0  0  0  0  0
   -2.6669   -3.4830   -0.7079 H   0  0  0  0  0  0  0  0  0  0  0  0
   -3.9729   -2.6877    0.2262 H   0  0  0  0  0  0  0  0  0  0  0  0
  1  5  1  0  0  0  0
  2 13  1  0  0  0  0
  3 34  1  0  0  0  0
  4 23  1  0  0  0  0
  5  4  1  0  0  0  0
  5  3  1  0  0  0  0
  6  8  1  0  0  0  0
  6  9  1  0  0  0  0
  7  6  1  0  0  0  0
 10 11  1  0  0  0  0
 10  1  1  0  0  0  0
 12 10  1  0  0  0  0
 13 15  1  0  0  0  0
 13 14  1  0  0  0  0
 16 19  1  0  0  0  0
 16  4  1  0  0  0  0
 17 16  1  0  0  0  0
 18 16  1  0  0  0  0
 20 10  1  0  0  0  0
 20  2  1  0  0  0  0
 21 20  1  0  0  0  0
 22 20  1  0  0  0  0
 23 24  1  0  0  0  0
 23 25  1  0  0  0  0
 26 23  1  0  0  0  0
 27  2  1  0  0  0  0
 27  6  1  0  0  0  0
 28 27  1  0  0  0  0
 29 27  1  0  0  0  0
 30  3  1  0  0  0  0
 30 33  1  0  0  0  0
 31 30  1  0  0  0  0
 32 30  1  0  0  0  0
 34 35  1  0  0  0  0
 34 36  1  0  0  0  0
 37 34  1  0  0  0  0
 38 13  1  0  0  0  0
 38 39  1  0  0  0  0
 40 38  1  0  0  0  0
 41 38  1  0  0  0  0
M  END
