1,20
q = 0.0, confidence = 0.976

 56 55  0  0  0  0  0  0  0  0999 V2000
    2.6670   -0.5682    0.5668 N   0  0  0  0  0  0  0  0  0  0  0  0
   -1.8987    1.5011    0.2910 N   0  0  0  0  0  0  0  0  0  0  0  0
    3.8079   -0.9543   -0.3162 C   0  0  0  0  0  0  0  0  0  0  0  0
    3.3855   -1.6936   -1.0287 H   0  0  0  0  0  0  0  0  0  0  0  0
    4.5753   -1.4880    0.2947 H   0  0  0  0  0  0  0  0  0  0  0  0
    2.2548   -1.7836    1.3168 C   0  0  0  0  0  0  0  0  0  0  0  0
    3.1004   -2.1196    1.9623 H   0  0  0  0  0  0  0  0  0  0  0  0
    2.1031   -2.5711    0.5492 H   0  0  0  0  0  0  0  0  0  0  0  0
   -2.7976   -0.6710    0.3101 N   0  0  0  0  0  0  0  0  0  0  0  0
    2.9443    0.6056    1.4346 C   0  0  0  0  0  0  0  0  0  0  0  0
    2.0047    0.8283    1.9799 H   0  0  0  0  0  0  0  0  0  0  0  0
    3.0951    1.4705    0.7587 H   0  0  0  0  0  0  0  0  0  0  0  0
    4.4502    0.1895   -1.0881 C   0  0  0  0  0  0  0  0  0  0  0  0
    5.1685   -0.2320   -1.8186 H   0  0  0  0  0  0  0  0  0  0  0  0
    5.0126    0.8849   -0.4334 H   0  0  0  0  0  0  0  0  0  0  0  0
    3.6945    0.7809   -1.6425 H   0  0  0  0  0  0  0  0  0  0  0  0
   -0.3237   -1.6059    1.3559 C   0  0  0  0  0  0  0  0  0  0  0  0
   -0.3110   -2.4415    0.6195 H   0  0  0  0  0  0  0  0  0  0  0  0
   -1.1917   -1.7821    2.0304 H   0  0  0  0  0  0  0  0  0  0  0  0
   -0.4759   -0.3212    0.6800 N   0  0  0  0  0  2  0  0  0  0  0  0
    0.9801   -1.6744    2.1579 C   0  0  0  0  0  0  0  0  0  0  0  0
    0.9415   -2.5931    2.7803 H   0  0  0  0  0  0  0  0  0  0  0  0
    1.0345   -0.8261    2.8730 H   0  0  0  0  0  0  0  0  0  0  0  0
   -1.6917    0.1498    0.4356 C   0  0  0  0  0  3  0  0  0  0  0  0
    4.1014    0.4608    2.4213 C   0  0  0  0  0  0  0  0  0  0  0  0
    4.2172    1.4025    2.9940 H   0  0  0  0  0  0  0  0  0  0  0  0
    5.0656    0.2656    1.9106 H   0  0  0  0  0  0  0  0  0  0  0  0
    3.9349   -0.3528    3.1560 H   0  0  0  0  0  0  0  0  0  0  0  0
   -4.0912   -0.3047    0.8827 C   0  0  0  0  0  0  0  0  0  0  0  0
   -4.8486   -0.1462    0.0810 H   0  0  0  0  0  0  0  0  0  0  0  0
   -3.9547    0.6722    1.3861 H   0  0  0  0  0  0  0  0  0  0  0  0
   -3.7239   -2.0100   -1.5857 C   0  0  0  0  0  0  0  0  0  0  0  0
   -3.5217   -2.9143   -2.1929 H   0  0  0  0  0  0  0  0  0  0  0  0
   -3.6599   -1.1313   -2.2588 H   0  0  0  0  0  0  0  0  0  0  0  0
   -4.7654   -2.0864   -1.2125 H   0  0  0  0  0  0  0  0  0  0  0  0
   -2.7365    1.9872   -0.8186 C   0  0  0  0  0  0  0  0  0  0  0  0
   -2.8748    3.0758   -0.6651 H   0  0  0  0  0  0  0  0  0  0  0  0
   -3.7515    1.5448   -0.7524 H   0  0  0  0  0  0  0  0  0  0  0  0
   -2.6912   -1.9166   -0.4625 C   0  0  0  0  0  0  0  0  0  0  0  0
   -2.7741   -2.8039    0.2048 H   0  0  0  0  0  0  0  0  0  0  0  0
   -1.6768   -1.9395   -0.9106 H   0  0  0  0  0  0  0  0  0  0  0  0
   -1.0068    2.4714    0.9372 C   0  0  0  0  0  0  0  0  0  0  0  0
   -0.4079    3.0013    0.1671 H   0  0  0  0  0  0  0  0  0  0  0  0
   -0.2753    1.8851    1.5239 H   0  0  0  0  0  0  0  0  0  0  0  0
   -4.6124   -1.3384    1.8828 C   0  0  0  0  0  0  0  0  0  0  0  0
   -5.5681   -0.9922    2.3249 H   0  0  0  0  0  0  0  0  0  0  0  0
   -3.8864   -1.4954    2.7063 H   0  0  0  0  0  0  0  0  0  0  0  0
   -4.8047   -2.3201    1.4056 H   0  0  0  0  0  0  0  0  0  0  0  0
   -1.7630    3.4440    1.8408 C   0  0  0  0  0  0  0  0  0  0  0  0
   -1.0540    4.1554    2.3103 H   0  0  0  0  0  0  0  0  0  0  0  0
   -2.3012    2.9085    2.6499 H   0  0  0  0  0  0  0  0  0  0  0  0
   -2.5064    4.0472    1.2799 H   0  0  0  0  0  0  0  0  0  0  0  0
   -2.1205    1.7138   -2.1909 C   0  0  0  0  0  0  0  0  0  0  0  0
   -2.7805    2.0995   -2.9943 H   0  0  0  0  0  0  0  0  0  0  0  0
   -1.9816    0.6254   -2.3557 H   0  0  0  0  0  0  0  0  0  0  0  0
   -1.1215    2.1834   -2.2854 H   0  0  0  0  0  0  0  0  0  0  0  0
  1  6  1  0  0  0  0
  1 10  1  0  0  0  0
  2 24  1  0  0  0  0
  2 42  1  0  0  0  0
  3  5  1  0  0  0  0
  3  1  1  0  0  0  0
  4  3  1  0  0  0  0
  6  7  1  0  0  0  0
  6 21  1  0  0  0  0
  8  6  1  0  0  0  0
  9 24  1  0  0  0  0
  9 29  1  0  0  0  0
 10 11  1  0  0  0  0
 10 25  1  0  0  0  0
 12 10  1  0  0  0  0
 13 15  1  0  0  0  0
 13  3  1  0  0  0  0
 14 13  1  0  0  0  0
 16 13  1  0  0  0  0
 17 19  1  0  0  0  0
 17 21  1  0  0  0  0
 18 17  1  0  0  0  0
 20 17  1  0  0  0  0
 21 22  1  0  0  0  0
 21 23  1  0  0  0  0
 24 20  1  0  0  0  0
 25 26  1  0  0  0  0
 25 28  1  0  0  0  0
 27 25  1  0  0  0  0
 29 31  1  0  0  0  0
 29 45  1  0  0  0  0
 30 29  1  0  0  0  0
 32 35  1  0  0  0  0
 32 39  1  0  0  0  0
 33 32  1  0  0  0  0
 34 32  1  0  0  0  0
 36 38  1  0  0  0  0
 36 37  1  0  0  0  0
 36  2  1  0  0  0  0
 39 40  1  0  0  0  0
 39  9  1  0  0  0  0
 41 39  1  0  0  0  0
 42 44  1  0  0  0  0
 42 49  1  0  0  0  0
 43 42  1  0  0  0  0
 45 46  1  0  0  0  0
 45 47  1  0  0  0  0
 48 45  1  0  0  0  0
 49 50  1  0  0  0  0
 49 51  1  0  0  0  0
 52 49  1  0  0  0  0
 53 36  1  0  0  0  0
 54 53  1  0  0  0  0
 55 53  1  0  0  0  0
 56 53  1  0  0  0  0
M  END
