1,9
q = 0.0, confidence = 1.0

 39 39  0  0  0  0  0  0  0  0999 V2000
   -0.2458    0.4821   -0.5694 N   0  0  0  0  0  2  0  0  0  0  0  0
   -2.5360    0.3897   -0.9259 N   0  0  0  0  0  0  0  0  0  0  0  0
   -1.6969    2.0821    0.4572 N   0  0  0  0  0  0  0  0  0  0  0  0
   -2.7754    3.0195    0.1970 C   0  0  0  0  0  0  0  0  0  0  0  0
   -3.2177    2.8178   -0.7953 H   0  0  0  0  0  0  0  0  0  0  0  0
   -2.3751    4.0571    0.1994 H   0  0  0  0  0  0  0  0  0  0  0  0
   -3.5799    2.9631    0.9633 H   0  0  0  0  0  0  0  0  0  0  0  0
    2.1282    0.5239   -0.1187 C   0  0  0  0  0  0  0  0  0  0  0  0
    2.0401   -0.8918    0.2293 N   0  0  0  0  0  0  0  0  0  0  0  0
    0.9427    1.2058   -0.5189 C   0  0  0  0  0  0  0  0  0  0  0  0
    1.0564    2.5624   -0.9142 C   0  0  0  0  0  0  0  0  0  0  0  0
    0.1551    3.0907   -1.2582 H   0  0  0  0  0  0  0  0  0  0  0  0
    2.5101   -1.1826    1.5993 C   0  0  0  0  0  0  0  0  0  0  0  0
    3.5865   -0.9349    1.7374 H   0  0  0  0  0  0  0  0  0  0  0  0
    2.3674   -2.2621    1.8012 H   0  0  0  0  0  0  0  0  0  0  0  0
    1.8926   -0.6211    2.3246 H   0  0  0  0  0  0  0  0  0  0  0  0
   -1.4556    1.0047   -0.3564 C   0  0  0  0  0  3  0  0  0  0  0  0
    3.4486    2.5481   -0.4695 C   0  0  0  0  0  0  0  0  0  0  0  0
    4.4190    3.0648   -0.4442 H   0  0  0  0  0  0  0  0  0  0  0  0
   -0.8596    2.3532    1.6167 C   0  0  0  0  0  0  0  0  0  0  0  0
   -0.3574    1.4175    1.9261 H   0  0  0  0  0  0  0  0  0  0  0  0
   -1.5111    2.6748    2.4553 H   0  0  0  0  0  0  0  0  0  0  0  0
   -0.1078    3.1490    1.4197 H   0  0  0  0  0  0  0  0  0  0  0  0
    3.3578    1.1997   -0.0971 C   0  0  0  0  0  0  0  0  0  0  0  0
    4.2637    0.6590    0.2166 H   0  0  0  0  0  0  0  0  0  0  0  0
    2.7235   -1.7338   -0.7773 C   0  0  0  0  0  0  0  0  0  0  0  0
    3.8232   -1.5613   -0.7812 H   0  0  0  0  0  0  0  0  0  0  0  0
    2.3093   -1.5084   -1.7772 H   0  0  0  0  0  0  0  0  0  0  0  0
    2.5052   -2.7981   -0.5660 H   0  0  0  0  0  0  0  0  0  0  0  0
   -2.3640   -0.4262   -2.1238 C   0  0  0  0  0  0  0  0  0  0  0  0
   -1.5051   -0.0480   -2.7062 H   0  0  0  0  0  0  0  0  0  0  0  0
   -3.2848   -0.3601   -2.7391 H   0  0  0  0  0  0  0  0  0  0  0  0
   -2.1564   -1.4923   -1.8797 H   0  0  0  0  0  0  0  0  0  0  0  0
   -3.7504    0.1498   -0.1542 C   0  0  0  0  0  0  0  0  0  0  0  0
   -3.5997    0.4757    0.8900 H   0  0  0  0  0  0  0  0  0  0  0  0
   -3.9525   -0.9415   -0.1308 H   0  0  0  0  0  0  0  0  0  0  0  0
   -4.6358    0.6642   -0.5870 H   0  0  0  0  0  0  0  0  0  0  0  0
    2.2890    3.2227   -0.8861 C   0  0  0  0  0  0  0  0  0  0  0  0
    2.3462    4.2760   -1.2005 H   0  0  0  0  0  0  0  0  0  0  0  0
  1 10  1  0  0  0  0
  1 17  1  0  0  0  0
  2 17  1  0  0  0  0
  2 34  1  0  0  0  0
  3 20  1  0  0  0  0
  4  6  1  0  0  0  0
  4  3  1  0  0  0  0
  4  7  1  0  0  0  0
  5  4  1  0  0  0  0
  8 24  1  0  0  0  0
  8  9  1  0  0  0  0
  9 13  1  0  0  0  0
 10  8  2  0  0  0  0
 11 38  2  0  0  0  0
 11 10  1  0  0  0  0
 12 11  1  0  0  0  0
 13 14  1  0  0  0  0
 13 15  1  0  0  0  0
 13 16  1  0  0  0  0
 17  3  1  0  0  0  0
 18 19  1  0  0  0  0
 18 24  2  0  0  0  0
 20 21  1  0  0  0  0
 20 22  1  0  0  0  0
 23 20  1  0  0  0  0
 24 25  1  0  0  0  0
 26 29  1  0  0  0  0
 26  9  1  0  0  0  0
 27 26  1  0  0  0  0
 28 26  1  0  0  0  0
 30 33  1  0  0  0  0
 30  2  1  0  0  0  0
 31 30  1  0  0  0  0
 32 30  1  0  0  0  0
 34 36  1  0  0  0  0
 34 35  1  0  0  0  0
 37 34  1  0  0  0  0
 38 18  1  0  0  0  0
 39 38  1  0  0  0  0
M  END
