1,2
q = 0.0, confidence = 0.988

 44 43  0  0  0  0  0  0  0  0999 V2000
    0.9660    0.3437   -0.6798 N   0  0  0  0  0  2  0  0  0  0  0  0
   -2.0382    0.7596    0.0219 N   0  0  0  0  0  0  0  0  0  0  0  0
    2.6255   -1.0428    0.2039 N   0  0  0  0  0  0  0  0  0  0  0  0
    3.0441    1.2552    0.0503 N   0  0  0  0  0  0  0  0  0  0  0  0
   -0.5013    2.2828   -1.3532 C   0  0  0  0  0  0  0  0  0  0  0  0
   -0.2583    2.9127   -0.4713 H   0  0  0  0  0  0  0  0  0  0  0  0
   -0.6091    2.9917   -2.2010 H   0  0  0  0  0  0  0  0  0  0  0  0
    2.1687    0.1986   -0.1566 C   0  0  0  0  0  3  0  0  0  0  0  0
    0.6706    1.3493   -1.6917 C   0  0  0  0  0  0  0  0  0  0  0  0
    0.3970    0.7918   -2.6175 H   0  0  0  0  0  0  0  0  0  0  0  0
    1.5706    1.9566   -1.9334 H   0  0  0  0  0  0  0  0  0  0  0  0
   -1.8673    1.6125   -1.1820 C   0  0  0  0  0  0  0  0  0  0  0  0
   -2.6608    2.3972   -1.1953 H   0  0  0  0  0  0  0  0  0  0  0  0
   -2.0541    0.9449   -2.0499 H   0  0  0  0  0  0  0  0  0  0  0  0
    2.5708    2.5604    0.4659 C   0  0  0  0  0  0  0  0  0  0  0  0
    1.5099    2.4899    0.7666 H   0  0  0  0  0  0  0  0  0  0  0  0
    2.6596    3.3291   -0.3349 H   0  0  0  0  0  0  0  0  0  0  0  0
    3.1580    2.9151    1.3419 H   0  0  0  0  0  0  0  0  0  0  0  0
   -3.7555   -0.7267    1.1550 C   0  0  0  0  0  0  0  0  0  0  0  0
   -4.6928   -1.2730    0.9323 H   0  0  0  0  0  0  0  0  0  0  0  0
   -3.9232   -0.1429    2.0823 H   0  0  0  0  0  0  0  0  0  0  0  0
   -2.9597   -1.4702    1.3639 H   0  0  0  0  0  0  0  0  0  0  0  0
   -3.3977    0.1505   -0.0371 C   0  0  0  0  0  0  0  0  0  0  0  0
   -3.4010   -0.4625   -0.9626 H   0  0  0  0  0  0  0  0  0  0  0  0
   -4.1584    0.9571   -0.1712 H   0  0  0  0  0  0  0  0  0  0  0  0
   -1.7405    1.4459    1.3026 C   0  0  0  0  0  0  0  0  0  0  0  0
   -0.6737    1.7470    1.2673 H   0  0  0  0  0  0  0  0  0  0  0  0
   -1.7791    0.6724    2.0943 H   0  0  0  0  0  0  0  0  0  0  0  0
    4.4781    1.1192   -0.1246 C   0  0  0  0  0  0  0  0  0  0  0  0
    4.7052    0.1303   -0.5618 H   0  0  0  0  0  0  0  0  0  0  0  0
    5.0352    1.2163    0.8352 H   0  0  0  0  0  0  0  0  0  0  0  0
    4.8559    1.9054   -0.8156 H   0  0  0  0  0  0  0  0  0  0  0  0
   -2.6227    2.6440    1.6469 C   0  0  0  0  0  0  0  0  0  0  0  0
   -2.3184    3.0599    2.6281 H   0  0  0  0  0  0  0  0  0  0  0  0
   -3.6925    2.3645    1.7259 H   0  0  0  0  0  0  0  0  0  0  0  0
   -2.5410    3.4611    0.9014 H   0  0  0  0  0  0  0  0  0  0  0  0
    2.1601   -2.2497   -0.4676 C   0  0  0  0  0  0  0  0  0  0  0  0
    1.6089   -1.9864   -1.3890 H   0  0  0  0  0  0  0  0  0  0  0  0
    1.4761   -2.8286    0.1889 H   0  0  0  0  0  0  0  0  0  0  0  0
    3.0351   -2.8849   -0.7267 H   0  0  0  0  0  0  0  0  0  0  0  0
    3.3004   -1.2656    1.4742 C   0  0  0  0  0  0  0  0  0  0  0  0
    3.5138   -0.3005    1.9670 H   0  0  0  0  0  0  0  0  0  0  0  0
    4.2543   -1.8193    1.3366 H   0  0  0  0  0  0  0  0  0  0  0  0
    2.6283   -1.8499    2.1398 H   0  0  0  0  0  0  0  0  0  0  0  0
  1  8  1  0  0  0  0
  2 26  1  0  0  0  0
  3 41  1  0  0  0  0
  4 15  1  0  0  0  0
  5 12  1  0  0  0  0
  5  6  1  0  0  0  0
  7  5  1  0  0  0  0
  8  4  1  0  0  0  0
  8  3  1  0  0  0  0
  9  5  1  0  0  0  0
  9  1  1  0  0  0  0
 10  9  1  0  0  0  0
 11  9  1  0  0  0  0
 12  2  1  0  0  0  0
 13 12  1  0  0  0  0
 14 12  1  0  0  0  0
 15 16  1  0  0  0  0
 15 18  1  0  0  0  0
 17 15  1  0  0  0  0
 19 22  1  0  0  0  0
 19 21  1  0  0  0  0
 20 19  1  0  0  0  0
 23  2  1  0  0  0  0
 23 19  1  0  0  0  0
 24 23  1  0  0  0  0
 25 23  1  0  0  0  0
 26 33  1  0  0  0  0
 26 28  1  0  0  0  0
 27 26  1  0  0  0  0
 29  4  1  0  0  0  0
 29 31  1  0  0  0  0
 30 29  1  0  0  0  0
 32 29  1  0  0  0  0
 33 35  1  0  0  0  0
 33 34  1  0  0  0  0
 36 33  1  0  0  0  0
 37 39  1  0  0  0  0
 37  3  1  0  0  0  0
 38 37  1  0  0  0  0
 40 37  1  0  0  0  0
 41 42  1  0  0  0  0
 41 44  1  0  0  0  0
 43 41  1  0  0  0  0
M  END
