1,2
q = 0.0, confidence = 1.0

 45 46  0  0  0  0  0  0  0  0999 V2000
   -0.5388   -0.3831    0.5862 N   0  0  0  0  0  2  0  0  0  0  0  0
    2.0685   -0.7399    0.7221 N   0  0  0  0  0  2  0  0  0  0  0  0
   -1.0308   -1.4883    2.7583 C   0  0  0  0  0  0  0  0  0  0  0  0
   -2.0900   -1.3472    2.4810 H   0  0  0  0  0  0  0  0  0  0  0  0
   -0.8410   -0.9390    3.7039 H   0  0  0  0  0  0  0  0  0  0  0  0
   -0.8523   -2.5639    2.9590 H   0  0  0  0  0  0  0  0  0  0  0  0
   -0.1230   -0.9789    1.6802 C   0  0  0  0  0  0  0  0  0  0  0  0
    1.3311   -1.1651    1.7940 C   0  0  0  0  0  0  0  0  0  0  0  0
    1.9479   -1.7828    2.8989 C   0  0  0  0  0  0  0  0  0  0  0  0
    1.3395   -2.1087    3.7525 H   0  0  0  0  0  0  0  0  0  0  0  0
    3.3338   -1.9666    2.9017 C   0  0  0  0  0  0  0  0  0  0  0  0
    3.8308   -2.4409    3.7605 H   0  0  0  0  0  0  0  0  0  0  0  0
    4.0751   -1.5342    1.7914 C   0  0  0  0  0  0  0  0  0  0  0  0
    5.1661   -1.6566    1.7454 H   0  0  0  0  0  0  0  0  0  0  0  0
    3.4042   -0.9231    0.7273 C   0  0  0  0  0  0  0  0  0  0  0  0
    3.9462   -0.5496   -0.1534 H   0  0  0  0  0  0  0  0  0  0  0  0
   -1.9506   -0.2579    0.3085 C   0  0  0  0  0  0  0  0  0  0  0  0
   -2.5797   -1.2741   -0.4599 C   0  0  0  0  0  0  0  0  0  0  0  0
   -3.9453   -1.1190   -0.7616 C   0  0  0  0  0  0  0  0  0  0  0  0
   -4.4513   -1.8955   -1.3546 H   0  0  0  0  0  0  0  0  0  0  0  0
   -4.6670   -0.0028   -0.3243 C   0  0  0  0  0  0  0  0  0  0  0  0
   -5.7329    0.1000   -0.5773 H   0  0  0  0  0  0  0  0  0  0  0  0
   -4.0263    0.9787    0.4380 C   0  0  0  0  0  0  0  0  0  0  0  0
   -4.5937    1.8545    0.7878 H   0  0  0  0  0  0  0  0  0  0  0  0
   -2.6627    0.8776    0.7743 C   0  0  0  0  0  0  0  0  0  0  0  0
   -1.8437   -2.5274   -0.9191 C   0  0  0  0  0  0  0  0  0  0  0  0
   -0.7598   -2.3536   -0.7702 H   0  0  0  0  0  0  0  0  0  0  0  0
   -2.0601   -2.8161   -2.4127 C   0  0  0  0  0  0  0  0  0  0  0  0
   -3.1083   -3.1113   -2.6246 H   0  0  0  0  0  0  0  0  0  0  0  0
   -1.4055   -3.6468   -2.7436 H   0  0  0  0  0  0  0  0  0  0  0  0
   -1.8197   -1.9319   -3.0332 H   0  0  0  0  0  0  0  0  0  0  0  0
   -2.2399   -3.7436   -0.0612 C   0  0  0  0  0  0  0  0  0  0  0  0
   -2.0456   -3.5712    1.0160 H   0  0  0  0  0  0  0  0  0  0  0  0
   -1.6727   -4.6449   -0.3720 H   0  0  0  0  0  0  0  0  0  0  0  0
   -3.3211   -3.9697   -0.1696 H   0  0  0  0  0  0  0  0  0  0  0  0
   -2.0163    1.9560    1.6323 C   0  0  0  0  0  0  0  0  0  0  0  0
   -0.9353    1.7289    1.7220 H   0  0  0  0  0  0  0  0  0  0  0  0
   -2.1050    3.3418    0.9730 C   0  0  0  0  0  0  0  0  0  0  0  0
   -1.6773    3.3296   -0.0469 H   0  0  0  0  0  0  0  0  0  0  0  0
   -1.5304    4.0802    1.5670 H   0  0  0  0  0  0  0  0  0  0  0  0
   -3.1538    3.6997    0.9030 H   0  0  0  0  0  0  0  0  0  0  0  0
   -2.6189    1.9783    3.0482 C   0  0  0  0  0  0  0  0  0  0  0  0
   -3.6941    2.2550    3.0310 H   0  0  0  0  0  0  0  0  0  0  0  0
   -2.0918    2.7228    3.6790 H   0  0  0  0  0  0  0  0  0  0  0  0
   -2.5400    0.9918    3.5484 H   0  0  0  0  0  0  0  0  0  0  0  0
  1  7  1  0  0  0  0
  2 15  1  0  0  0  0
  2  8  1  0  0  0  0
  3  6  1  0  0  0  0
  3  5  1  0  0  0  0
  4  3  1  0  0  0  0
  7  8  2  0  0  0  0
  7  3  1  0  0  0  0
  8  9  1  0  0  0  0
  9 11  2  0  0  0  0
  9 10  1  0  0  0  0
 11 12  1  0  0  0  0
 13 11  1  0  0  0  0
 14 13  1  0  0  0  0
 15 13  2  0  0  0  0
 16 15  1  0  0  0  0
 17  1  1  0  0  0  0
 17 25  1  0  0  0  0
 18 17  2  0  0  0  0
 19 18  1  0  0  0  0
 19 21  2  0  0  0  0
 20 19  1  0  0  0  0
 21 23  1  0  0  0  0
 22 21  1  0  0  0  0
 23 25  2  0  0  0  0
 23 24  1  0  0  0  0
 25 36  1  0  0  0  0
 26 27  1  0  0  0  0
 26 18  1  0  0  0  0
 26 32  1  0  0  0  0
 28 26  1  0  0  0  0
 29 28  1  0  0  0  0
 30 28  1  0  0  0  0
 31 28  1  0  0  0  0
 32 33  1  0  0  0  0
 34 32  1  0  0  0  0
 35 32  1  0  0  0  0
 36 37  1  0  0  0  0
 36 42  1  0  0  0  0
 38 40  1  0  0  0  0
 38 36  1  0  0  0  0
 39 38  1  0  0  0  0
 41 38  1  0  0  0  0
 42 45  1  0  0  0  0
 42 44  1  0  0  0  0
 43 42  1  0  0  0  0
M  END
