1,2
q = 0.0, confidence = 0.998

 40 42  0  0  1  0  0  0  0  0999 V2000
   -0.8973   -1.3938   -0.7675 N   0  0  0  0  0  2  0  0  0  0  0  0
   -0.8968    1.3932   -0.7685 N   0  0  0  0  0  2  0  0  0  0  0  0
    1.0424   -0.0006   -0.6022 N   0  0  0  0  0  0  0  0  0  0  0  0
    6.5641   -0.0023    0.7091 N   0  0  0  0  0  0  0  0  0  0  0  0
    0.4445   -1.2475   -0.8937 C   0  0  1  0  0  3  0  0  0  0  0  0
    1.2439   -2.3384   -1.3140 C   0  0  0  0  0  0  0  0  0  0  0  0
    2.3334   -2.2314   -1.3572 H   0  0  0  0  0  0  0  0  0  0  0  0
    0.6300   -3.5335   -1.6889 C   0  0  0  0  0  0  0  0  0  0  0  0
    1.2482   -4.3823   -2.0176 H   0  0  0  0  0  0  0  0  0  0  0  0
   -0.7711   -3.6273   -1.6724 C   0  0  0  0  0  0  0  0  0  0  0  0
   -1.2979   -4.5358   -1.9939 H   0  0  0  0  0  0  0  0  0  0  0  0
   -1.4929   -2.5309   -1.2081 C   0  0  0  0  0  0  0  0  0  0  0  0
   -2.5921   -2.5204   -1.1639 H   0  0  0  0  0  0  0  0  0  0  0  0
    0.4449    1.2464   -0.8945 C   0  0  2  0  0  3  0  0  0  0  0  0
    1.2447    2.3368   -1.3153 C   0  0  0  0  0  0  0  0  0  0  0  0
    2.3342    2.2295   -1.3583 H   0  0  0  0  0  0  0  0  0  0  0  0
    0.6312    3.5319   -1.6910 C   0  0  0  0  0  0  0  0  0  0  0  0
    1.2496    4.3804   -2.0201 H   0  0  0  0  0  0  0  0  0  0  0  0
   -0.7699    3.6261   -1.6747 C   0  0  0  0  0  0  0  0  0  0  0  0
   -1.2964    4.5346   -1.9967 H   0  0  0  0  0  0  0  0  0  0  0  0
   -1.4921    2.5302   -1.2098 C   0  0  0  0  0  0  0  0  0  0  0  0
   -2.5912    2.5200   -1.1657 H   0  0  0  0  0  0  0  0  0  0  0  0
    2.4543   -0.0008   -0.2909 C   0  0  0  0  0  0  0  0  0  0  0  0
    3.4351   -0.0014   -1.3002 C   0  0  0  0  0  0  0  0  0  0  0  0
    3.1289   -0.0017   -2.3576 H   0  0  0  0  0  0  0  0  0  0  0  0
    4.7943   -0.0015   -0.9782 C   0  0  0  0  0  0  0  0  0  0  0  0
    5.5278   -0.0017   -1.7940 H   0  0  0  0  0  0  0  0  0  0  0  0
    5.2245   -0.0013    0.3820 C   0  0  0  0  0  0  0  0  0  0  0  0
    4.2149    0.0001    1.3882 C   0  0  0  0  0  0  0  0  0  0  0  0
    4.4893    0.0011    2.4503 H   0  0  0  0  0  0  0  0  0  0  0  0
    2.8588    0.0001    1.0543 C   0  0  0  0  0  0  0  0  0  0  0  0
    2.0935    0.0010    1.8442 H   0  0  0  0  0  0  0  0  0  0  0  0
    7.5665    0.0011   -0.3371 C   0  0  0  0  0  0  0  0  0  0  0  0
    7.4927    0.9021   -0.9878 H   0  0  0  0  0  0  0  0  0  0  0  0
    7.4896   -0.8941   -0.9951 H   0  0  0  0  0  0  0  0  0  0  0  0
    8.5724   -0.0028    0.1193 H   0  0  0  0  0  0  0  0  0  0  0  0
    6.9696    0.0027    2.1012 C   0  0  0  0  0  0  0  0  0  0  0  0
    6.6028    0.9042    2.6419 H   0  0  0  0  0  0  0  0  0  0  0  0
    8.0726   -0.0016    2.1608 H   0  0  0  0  0  0  0  0  0  0  0  0
    6.5960   -0.8915    2.6492 H   0  0  0  0  0  0  0  0  0  0  0  0
  3 23  1  0  0  0  0
  4 37  1  0  0  0  0
  5  1  1  0  0  0  0
  5  3  1  1  0  0  0
  6  5  1  0  0  0  0
  7  6  1  0  0  0  0
  8 10  1  0  0  0  0
  8  6  2  0  0  0  0
  9  8  1  0  0  0  0
 10 12  2  0  0  0  0
 11 10  1  0  0  0  0
 12 13  1  0  0  0  0
 12  1  1  0  0  0  0
 14  2  1  0  0  0  0
 14  3  1  1  0  0  0
 15 14  1  0  0  0  0
 16 15  1  0  0  0  0
 17 19  1  0  0  0  0
 17 15  2  0  0  0  0
 18 17  1  0  0  0  0
 19 21  2  0  0  0  0
 20 19  1  0  0  0  0
 21 22  1  0  0  0  0
 21  2  1  0  0  0  0
 23 31  1  0  0  0  0
 24 26  1  0  0  0  0
 24 23  2  0  0  0  0
 25 24  1  0  0  0  0
 26 28  2  0  0  0  0
 27 26  1  0  0  0  0
 28  4  1  0  0  0  0
 28 29  1  0  0  0  0
 29 30  1  0  0  0  0
 31 29  2  0  0  0  0
 31 32  1  0  0  0  0
 33 36  1  0  0  0  0
 33  4  1  0  0  0  0
 34 33  1  0  0  0  0
 35 33  1  0  0  0  0
 37 39  1  0  0  0  0
 37 38  1  0  0  0  0
 37 40  1  0  0  0  0
M  END
