1,2
q = 0.0, confidence = 0.994

 31 33  0  0  0  0  0  0  0  0999 V2000
   -1.8622   -0.3051   -0.0398 N   0  0  0  0  0  2  0  0  0  0  0  0
    0.6204    0.5333    0.0038 N   0  0  0  0  0  2  0  0  0  0  0  0
   -1.6765    1.0518   -0.0326 C   0  0  0  0  0  0  0  0  0  0  0  0
   -3.1096   -0.8102   -0.0614 C   0  0  0  0  0  0  0  0  0  0  0  0
   -3.1583   -1.9132   -0.0652 H   0  0  0  0  0  0  0  0  0  0  0  0
   -0.2851    1.4910   -0.0140 C   0  0  0  0  0  0  0  0  0  0  0  0
   -2.7613    1.9586   -0.0327 C   0  0  0  0  0  0  0  0  0  0  0  0
   -4.2319    0.0281   -0.0722 C   0  0  0  0  0  0  0  0  0  0  0  0
   -5.2361   -0.4190   -0.0851 H   0  0  0  0  0  0  0  0  0  0  0  0
   -4.0582    1.4195   -0.0537 C   0  0  0  0  0  0  0  0  0  0  0  0
   -4.9293    2.0928   -0.0480 H   0  0  0  0  0  0  0  0  0  0  0  0
    2.5705    1.5071   -1.1258 C   0  0  0  0  0  0  0  0  0  0  0  0
    1.9311    1.7700   -1.9813 H   0  0  0  0  0  0  0  0  0  0  0  0
    2.0090    0.8401   -0.0196 C   0  0  0  0  0  0  0  0  0  0  0  0
    0.0053    2.9696    0.0161 C   0  0  0  0  0  0  0  0  0  0  0  0
    0.1466    3.3295   -1.0280 H   0  0  0  0  0  0  0  0  0  0  0  0
    0.9730    3.1459    0.5264 H   0  0  0  0  0  0  0  0  0  0  0  0
    2.8261    0.4312    1.0525 C   0  0  0  0  0  0  0  0  0  0  0  0
    2.3771   -0.1259    1.8849 H   0  0  0  0  0  0  0  0  0  0  0  0
    3.9426    1.7905   -1.1444 C   0  0  0  0  0  0  0  0  0  0  0  0
    4.3806    2.2995   -2.0161 H   0  0  0  0  0  0  0  0  0  0  0  0
    4.1917    0.7411    1.0335 C   0  0  0  0  0  0  0  0  0  0  0  0
    4.8271    0.4300    1.8760 H   0  0  0  0  0  0  0  0  0  0  0  0
    4.7542    1.4174   -0.0612 C   0  0  0  0  0  0  0  0  0  0  0  0
    5.8313    1.6412   -0.0770 H   0  0  0  0  0  0  0  0  0  0  0  0
   -2.4811    3.4420   -0.0052 C   0  0  0  0  0  0  0  0  0  0  0  0
   -3.3164    3.9695    0.4983 H   0  0  0  0  0  0  0  0  0  0  0  0
   -2.4655    3.8235   -1.0523 H   0  0  0  0  0  0  0  0  0  0  0  0
   -1.1418    3.7509    0.6721 C   0  0  0  0  0  0  0  0  0  0  0  0
   -0.9276    4.8367    0.6243 H   0  0  0  0  0  0  0  0  0  0  0  0
   -1.2035    3.4818    1.7483 H   0  0  0  0  0  0  0  0  0  0  0  0
  1  3  1  0  0  0  0
  3  6  2  0  0  0  0
  4  1  1  0  0  0  0
  5  4  1  0  0  0  0
  6  2  1  0  0  0  0
  6 15  1  0  0  0  0
  7  3  1  0  0  0  0
  7 26  1  0  0  0  0
  8  4  2  0  0  0  0
  8 10  1  0  0  0  0
  9  8  1  0  0  0  0
 10 11  1  0  0  0  0
 10  7  2  0  0  0  0
 12 14  1  0  0  0  0
 13 12  1  0  0  0  0
 14  2  1  0  0  0  0
 14 18  2  0  0  0  0
 15 17  1  0  0  0  0
 15 29  1  0  0  0  0
 16 15  1  0  0  0  0
 18 19  1  0  0  0  0
 20 12  2  0  0  0  0
 20 24  1  0  0  0  0
 21 20  1  0  0  0  0
 22 18  1  0  0  0  0
 22 23  1  0  0  0  0
 24 22  2  0  0  0  0
 25 24  1  0  0  0  0
 26 27  1  0  0  0  0
 26 29  1  0  0  0  0
 28 26  1  0  0  0  0
 29 31  1  0  0  0  0
 30 29  1  0  0  0  0
M  END
