3,4
q = -1.0, confidence = 0.0

 39 42  0  0  0  0  0  0  0  0999 V2000
    1.9242   -0.0696   -0.1637 B   0  0  0  0  0  0  0  0  0  0  0  0
    1.0431   -1.0093   -1.0707 N   0  0  0  0  0  0  0  0  0  0  0  0
    0.2007   -0.4287    1.7297 N   0  0  0  0  0  2  0  0  0  0  0  0
   -0.2987   -1.1390   -0.9370 N   0  0  0  0  0  2  0  0  0  0  0  0
    1.4918   -0.3475    1.3289 N   0  0  0  0  0  0  0  0  0  0  0  0
    0.3444   -2.3708   -2.7079 C   0  0  0  0  0  0  0  0  0  0  0  0
    0.3257   -3.0427   -3.5709 H   0  0  0  0  0  0  0  0  0  0  0  0
   -0.7374   -1.9720   -1.9037 C   0  0  0  0  0  3  0  0  0  0  0  0
   -1.7901   -2.2668   -1.9354 H   0  0  0  0  0  0  0  0  0  0  0  0
    1.4544   -1.7380   -2.1428 C   0  0  0  0  0  0  0  0  0  0  0  0
    2.5133   -1.7568   -2.4162 H   0  0  0  0  0  0  0  0  0  0  0  0
    2.3004   -0.4895    2.4130 C   0  0  0  0  0  3  0  0  0  0  0  0
    3.3870   -0.4558    2.2917 H   0  0  0  0  0  0  0  0  0  0  0  0
    0.1855   -0.6515    3.0608 C   0  0  0  0  0  0  0  0  0  0  0  0
   -0.7681   -0.8116    3.5744 H   0  0  0  0  0  0  0  0  0  0  0  0
    1.5046   -0.6843    3.5455 C   0  0  0  0  0  0  0  0  0  0  0  0
    1.8370   -0.8482    4.5747 H   0  0  0  0  0  0  0  0  0  0  0  0
    3.8914   -1.8318   -0.0323 C   0  0  0  0  0  0  0  0  0  0  0  0
    3.1432   -2.5586    0.3252 H   0  0  0  0  0  0  0  0  0  0  0  0
    4.4743    0.3826   -0.7920 C   0  0  0  0  0  0  0  0  0  0  0  0
    4.1922    1.4181   -1.0391 H   0  0  0  0  0  0  0  0  0  0  0  0
    3.4820   -0.5096   -0.3347 C   0  0  0  0  0  0  0  0  0  0  0  0
    5.8138   -0.0180   -0.9408 C   0  0  0  0  0  0  0  0  0  0  0  0
    6.5651    0.7025   -1.3005 H   0  0  0  0  0  0  0  0  0  0  0  0
    6.1935   -1.3326   -0.6331 C   0  0  0  0  0  0  0  0  0  0  0  0
    7.2416   -1.6501   -0.7484 H   0  0  0  0  0  0  0  0  0  0  0  0
    1.9363    2.5151    0.3783 C   0  0  0  0  0  0  0  0  0  0  0  0
    2.2861    2.2494    1.3900 H   0  0  0  0  0  0  0  0  0  0  0  0
    1.6696    1.4834   -0.5491 C   0  0  0  0  0  0  0  0  0  0  0  0
    1.7607    3.8693    0.0486 C   0  0  0  0  0  0  0  0  0  0  0  0
    1.9701    4.6508    0.7961 H   0  0  0  0  0  0  0  0  0  0  0  0
    5.2245   -2.2428   -0.1768 C   0  0  0  0  0  0  0  0  0  0  0  0
    5.5113   -3.2779    0.0668 H   0  0  0  0  0  0  0  0  0  0  0  0
    1.2482    1.8703   -1.8400 C   0  0  0  0  0  0  0  0  0  0  0  0
    1.0447    1.0922   -2.5943 H   0  0  0  0  0  0  0  0  0  0  0  0
    1.3158    4.2276   -1.2355 C   0  0  0  0  0  0  0  0  0  0  0  0
    1.1714    5.2868   -1.4983 H   0  0  0  0  0  0  0  0  0  0  0  0
    1.0678    3.2208   -2.1837 C   0  0  0  0  0  0  0  0  0  0  0  0
    0.7304    3.4914   -3.1968 H   0  0  0  0  0  0  0  0  0  0  0  0
  1  5  1  0  0  0  0
  2  4  1  0  0  0  0
  2  1  1  0  0  0  0
  3 14  1  0  0  0  0
  5  3  1  0  0  0  0
  5 12  1  0  0  0  0
  6 10  2  0  0  0  0
  6  8  1  0  0  0  0
  7  6  1  0  0  0  0
  8  4  1  0  0  0  0
  9  8  1  0  0  0  0
 10  2  1  0  0  0  0
 11 10  1  0  0  0  0
 12 16  1  0  0  0  0
 13 12  1  0  0  0  0
 14 16  2  0  0  0  0
 14 15  1  0  0  0  0
 16 17  1  0  0  0  0
 18 19  1  0  0  0  0
 20 22  1  0  0  0  0
 21 20  1  0  0  0  0
 22  1  1  0  0  0  0
 22 18  2  0  0  0  0
 23 20  2  0  0  0  0
 23 25  1  0  0  0  0
 24 23  1  0  0  0  0
 25 32  2  0  0  0  0
 26 25  1  0  0  0  0
 27 28  1  0  0  0  0
 29  1  1  0  0  0  0
 29 27  2  0  0  0  0
 30 27  1  0  0  0  0
 30 31  1  0  0  0  0
 32 18  1  0  0  0  0
 32 33  1  0  0  0  0
 34 29  1  0  0  0  0
 35 34  1  0  0  0  0
 36 30  2  0  0  0  0
 37 36  1  0  0  0  0
 38 34  2  0  0  0  0
 38 36  1  0  0  0  0
 39 38  1  0  0  0  0
M  END
