1,3
q = 0.0, confidence = 1.0

 51 51  0  0  0  0  0  0  0  0999 V2000
   -1.6883   -1.3371   -0.3562 N   0  0  0  0  0  0  0  0  0  0  0  0
    0.2880   -0.7551    1.8856 N   0  0  0  0  0  0  0  0  0  0  0  0
   -1.5617    1.2852    0.6036 N   0  0  0  0  0  0  0  0  0  0  0  0
   -1.5760   -2.1328    0.9058 C   0  0  0  0  0  0  0  0  0  0  0  0
   -2.3623   -1.7864    1.6046 H   0  0  0  0  0  0  0  0  0  0  0  0
   -1.8164   -3.1968    0.7069 H   0  0  0  0  0  0  0  0  0  0  0  0
   -0.2156   -2.0916    1.5986 C   0  0  0  0  0  0  0  0  0  0  0  0
   -0.3204   -2.7338    2.5122 H   0  0  0  0  0  0  0  0  0  0  0  0
    0.5384   -2.5787    0.9479 H   0  0  0  0  0  0  0  0  0  0  0  0
   -0.5803    0.1215    2.6631 C   0  0  0  0  0  0  0  0  0  0  0  0
   -0.1126    0.4077    3.6320 H   0  0  0  0  0  0  0  0  0  0  0  0
   -1.5066   -0.4172    2.9572 H   0  0  0  0  0  0  0  0  0  0  0  0
   -0.9356    1.4372    1.9505 C   0  0  0  0  0  0  0  0  0  0  0  0
   -1.6032    2.0251    2.6213 H   0  0  0  0  0  0  0  0  0  0  0  0
   -0.0128    2.0253    1.7876 H   0  0  0  0  0  0  0  0  0  0  0  0
   -2.8701    0.5741    0.6706 C   0  0  0  0  0  0  0  0  0  0  0  0
   -3.7141    1.2769    0.5160 H   0  0  0  0  0  0  0  0  0  0  0  0
   -3.0053    0.1658    1.6903 H   0  0  0  0  0  0  0  0  0  0  0  0
   -2.9367   -0.5374   -0.3644 C   0  0  0  0  0  0  0  0  0  0  0  0
   -3.8327   -1.1736   -0.1770 H   0  0  0  0  0  0  0  0  0  0  0  0
   -3.0460   -0.1019   -1.3728 H   0  0  0  0  0  0  0  0  0  0  0  0
   -1.5869   -2.2246   -1.5822 C   0  0  0  0  0  0  0  0  0  0  0  0
   -0.6275   -2.7581   -1.4322 H   0  0  0  0  0  0  0  0  0  0  0  0
   -1.4517   -1.4092   -2.8687 C   0  0  0  0  0  0  0  0  0  0  0  0
   -2.3977   -0.9034   -3.1519 H   0  0  0  0  0  0  0  0  0  0  0  0
   -1.1886   -2.0916   -3.7006 H   0  0  0  0  0  0  0  0  0  0  0  0
   -0.6446   -0.6584   -2.7733 H   0  0  0  0  0  0  0  0  0  0  0  0
   -2.7360   -3.2337   -1.7053 C   0  0  0  0  0  0  0  0  0  0  0  0
   -3.6996   -2.7383   -1.9433 H   0  0  0  0  0  0  0  0  0  0  0  0
   -2.8824   -3.8544   -0.7992 H   0  0  0  0  0  0  0  0  0  0  0  0
   -2.5149   -3.9283   -2.5390 H   0  0  0  0  0  0  0  0  0  0  0  0
    1.7244   -0.7674    2.2714 C   0  0  0  0  0  0  0  0  0  0  0  0
    2.2283   -1.3371    1.4614 H   0  0  0  0  0  0  0  0  0  0  0  0
    1.9845   -1.4913    3.6037 C   0  0  0  0  0  0  0  0  0  0  0  0
    1.5005   -0.9672    4.4557 H   0  0  0  0  0  0  0  0  0  0  0  0
    3.0719   -1.5202    3.8141 H   0  0  0  0  0  0  0  0  0  0  0  0
    1.6233   -2.5391    3.5952 H   0  0  0  0  0  0  0  0  0  0  0  0
    2.3385    0.6318    2.2775 C   0  0  0  0  0  0  0  0  0  0  0  0
    2.1458    1.1511    1.3218 H   0  0  0  0  0  0  0  0  0  0  0  0
    3.4353    0.5508    2.4037 H   0  0  0  0  0  0  0  0  0  0  0  0
    1.9584    1.2528    3.1163 H   0  0  0  0  0  0  0  0  0  0  0  0
   -1.6812    2.6361   -0.0735 C   0  0  0  0  0  0  0  0  0  0  0  0
   -0.6321    2.9904   -0.1079 H   0  0  0  0  0  0  0  0  0  0  0  0
   -2.1481    2.4871   -1.5192 C   0  0  0  0  0  0  0  0  0  0  0  0
   -3.2145    2.1877   -1.5961 H   0  0  0  0  0  0  0  0  0  0  0  0
   -1.5160    1.7482   -2.0498 H   0  0  0  0  0  0  0  0  0  0  0  0
   -2.0454    3.4597   -2.0387 H   0  0  0  0  0  0  0  0  0  0  0  0
   -2.5368    3.6493    0.6940 C   0  0  0  0  0  0  0  0  0  0  0  0
   -3.6007    3.3412    0.7753 H   0  0  0  0  0  0  0  0  0  0  0  0
   -2.5237    4.6110    0.1447 H   0  0  0  0  0  0  0  0  0  0  0  0
   -2.1558    3.8538    1.7129 H   0  0  0  0  0  0  0  0  0  0  0  0
  1  4  1  0  0  0  0
  2 32  1  0  0  0  0
  2 10  1  0  0  0  0
  3 16  1  0  0  0  0
  3 13  1  0  0  0  0
  4  7  1  0  0  0  0
  4  5  1  0  0  0  0
  6  4  1  0  0  0  0
  7  2  1  0  0  0  0
  7  8  1  0  0  0  0
  9  7  1  0  0  0  0
 10 12  1  0  0  0  0
 10 11  1  0  0  0  0
 13 14  1  0  0  0  0
 13 10  1  0  0  0  0
 15 13  1  0  0  0  0
 16 18  1  0  0  0  0
 17 16  1  0  0  0  0
 19  1  1  0  0  0  0
 19 20  1  0  0  0  0
 19 16  1  0  0  0  0
 21 19  1  0  0  0  0
 22 23  1  0  0  0  0
 22  1  1  0  0  0  0
 24 27  1  0  0  0  0
 24 22  1  0  0  0  0
 25 24  1  0  0  0  0
 26 24  1  0  0  0  0
 28 22  1  0  0  0  0
 28 30  1  0  0  0  0
 29 28  1  0  0  0  0
 31 28  1  0  0  0  0
 32 38  1  0  0  0  0
 32 34  1  0  0  0  0
 33 32  1  0  0  0  0
 34 36  1  0  0  0  0
 34 35  1  0  0  0  0
 37 34  1  0  0  0  0
 38 40  1  0  0  0  0
 38 41  1  0  0  0  0
 39 38  1  0  0  0  0
 42  3  1  0  0  0  0
 42 48  1  0  0  0  0
 43 42  1  0  0  0  0
 44 42  1  0  0  0  0
 45 44  1  0  0  0  0
 46 44  1  0  0  0  0
 47 44  1  0  0  0  0
 48 49  1  0  0  0  0
 48 51  1  0  0  0  0
 50 48  1  0  0  0  0
M  END
