4,5
q = -1.0

 75 76  0  0  0  0  0  0  0  0999 V2000
    2.4957    2.5619    0.3261 S   0  0  0  0  0  1  0  0  0  0  0  0
   -0.3342   -0.4374    0.1070 P   0  0  1  0  0  4  0  0  0  0  0  0
    2.0048    0.6789    0.1035 P   0  0  2  0  0  4  0  0  0  0  0  0
   -1.7987    0.2856    0.2868 N   0  0  0  0  0  2  0  0  0  0  0  0
   -0.8698   -1.9645   -0.0197 N   0  0  0  0  0  2  0  0  0  0  0  0
    0.7661    0.2379   -1.0321 N   0  0  0  0  0  0  0  0  0  0  0  0
    0.9339   -0.0874    1.2328 N   0  0  0  0  0  0  0  0  0  0  0  0
    3.3160   -0.3467   -0.1007 N   0  0  0  0  0  0  0  0  0  0  0  0
    3.0514   -1.3330   -0.0264 H   0  0  0  0  0  0  0  0  0  0  0  0
   -2.1704    1.6263    0.1586 C   0  0  0  0  0  0  0  0  0  0  0  0
   -3.5563    1.9244    0.1048 C   0  0  0  0  0  0  0  0  0  0  0  0
   -4.2741    1.0907    0.1672 H   0  0  0  0  0  0  0  0  0  0  0  0
   -4.0098    3.2390   -0.0272 C   0  0  0  0  0  0  0  0  0  0  0  0
   -5.0951    3.4286   -0.0661 H   0  0  0  0  0  0  0  0  0  0  0  0
   -3.1119    4.3255   -0.1148 C   0  0  0  0  0  0  0  0  0  0  0  0
   -1.7384    4.0253   -0.0590 C   0  0  0  0  0  0  0  0  0  0  0  0
   -1.0016    4.8430   -0.1186 H   0  0  0  0  0  0  0  0  0  0  0  0
   -1.2661    2.7118    0.0779 C   0  0  0  0  0  0  0  0  0  0  0  0
   -0.1811    2.5467    0.1265 H   0  0  0  0  0  0  0  0  0  0  0  0
   -3.6132    5.7412   -0.2567 C   0  0  0  0  0  0  0  0  0  0  0  0
   -2.7758    6.4621   -0.3326 H   0  0  0  0  0  0  0  0  0  0  0  0
   -4.2379    6.0436    0.6107 H   0  0  0  0  0  0  0  0  0  0  0  0
   -4.2453    5.8635   -1.1619 H   0  0  0  0  0  0  0  0  0  0  0  0
   -0.2184   -3.2734   -0.1334 C   0  0  0  0  0  0  0  0  0  0  0  0
    1.3167   -3.1988   -0.0439 C   0  0  0  0  0  0  0  0  0  0  0  0
    1.7247   -2.5963   -0.8798 H   0  0  0  0  0  0  0  0  0  0  0  0
    1.7585   -4.2127   -0.1126 H   0  0  0  0  0  0  0  0  0  0  0  0
    1.6338   -2.7458    0.9164 H   0  0  0  0  0  0  0  0  0  0  0  0
   -0.7535   -4.1674    1.0036 C   0  0  0  0  0  0  0  0  0  0  0  0
   -1.8613   -4.2073    0.9624 H   0  0  0  0  0  0  0  0  0  0  0  0
   -0.4647   -3.7598    1.9918 H   0  0  0  0  0  0  0  0  0  0  0  0
   -0.3657   -5.2033    0.9216 H   0  0  0  0  0  0  0  0  0  0  0  0
   -0.6224   -3.8924   -1.4877 C   0  0  0  0  0  0  0  0  0  0  0  0
   -0.2530   -3.2706   -2.3277 H   0  0  0  0  0  0  0  0  0  0  0  0
   -1.7272   -3.9466   -1.5649 H   0  0  0  0  0  0  0  0  0  0  0  0
   -0.2146   -4.9174   -1.6045 H   0  0  0  0  0  0  0  0  0  0  0  0
    0.6910    0.3643   -2.5069 C   0  0  0  0  0  0  0  0  0  0  0  0
    1.5616   -0.7205   -3.1688 C   0  0  0  0  0  0  0  0  0  0  0  0
    2.6089   -0.6499   -2.8164 H   0  0  0  0  0  0  0  0  0  0  0  0
    1.5551   -0.6090   -4.2716 H   0  0  0  0  0  0  0  0  0  0  0  0
    1.1813   -1.7319   -2.9238 H   0  0  0  0  0  0  0  0  0  0  0  0
    1.1801    1.7621   -2.9213 C   0  0  0  0  0  0  0  0  0  0  0  0
    0.5805    2.5486   -2.4242 H   0  0  0  0  0  0  0  0  0  0  0  0
    1.0848    1.8794   -4.0193 H   0  0  0  0  0  0  0  0  0  0  0  0
    2.2412    1.9210   -2.6470 H   0  0  0  0  0  0  0  0  0  0  0  0
   -0.7778    0.1927   -2.9312 C   0  0  0  0  0  0  0  0  0  0  0  0
   -1.4152    0.9809   -2.4854 H   0  0  0  0  0  0  0  0  0  0  0  0
   -1.1681   -0.7980   -2.6236 H   0  0  0  0  0  0  0  0  0  0  0  0
   -0.8534    0.2629   -4.0341 H   0  0  0  0  0  0  0  0  0  0  0  0
    0.8501    0.0856    2.7060 C   0  0  0  0  0  0  0  0  0  0  0  0
    2.2791    0.0386    3.2698 C   0  0  0  0  0  0  0  0  0  0  0  0
    2.8870    0.8767    2.8756 H   0  0  0  0  0  0  0  0  0  0  0  0
    2.7798   -0.9147    3.0072 H   0  0  0  0  0  0  0  0  0  0  0  0
    2.2502    0.1273    4.3738 H   0  0  0  0  0  0  0  0  0  0  0  0
    0.0288   -1.0818    3.2754 C   0  0  0  0  0  0  0  0  0  0  0  0
   -0.9976   -1.0891    2.8582 H   0  0  0  0  0  0  0  0  0  0  0  0
   -0.0510   -0.9799    4.3757 H   0  0  0  0  0  0  0  0  0  0  0  0
    0.5060   -2.0552    3.0482 H   0  0  0  0  0  0  0  0  0  0  0  0
    0.1772    1.4237    3.0622 C   0  0  0  0  0  0  0  0  0  0  0  0
   -0.8529    1.4614    2.6587 H   0  0  0  0  0  0  0  0  0  0  0  0
    0.7474    2.2705    2.6343 H   0  0  0  0  0  0  0  0  0  0  0  0
    0.1274    1.5490    4.1627 H   0  0  0  0  0  0  0  0  0  0  0  0
    4.7759   -0.1034   -0.2538 C   0  0  0  0  0  0  0  0  0  0  0  0
    5.3737    0.4910    1.0342 C   0  0  0  0  0  0  0  0  0  0  0  0
    4.9086    1.4707    1.2569 H   0  0  0  0  0  0  0  0  0  0  0  0
    6.4670    0.6379    0.9230 H   0  0  0  0  0  0  0  0  0  0  0  0
    5.1983   -0.1858    1.8942 H   0  0  0  0  0  0  0  0  0  0  0  0
    5.3932   -1.4865   -0.5217 C   0  0  0  0  0  0  0  0  0  0  0  0
    5.1986   -2.1799    0.3232 H   0  0  0  0  0  0  0  0  0  0  0  0
    6.4906   -1.3993   -0.6411 H   0  0  0  0  0  0  0  0  0  0  0  0
    4.9805   -1.9345   -1.4489 H   0  0  0  0  0  0  0  0  0  0  0  0
    5.0555    0.8205   -1.4522 C   0  0  0  0  0  0  0  0  0  0  0  0
    4.5866    1.8112   -1.2991 H   0  0  0  0  0  0  0  0  0  0  0  0
    4.6560    0.3809   -2.3883 H   0  0  0  0  0  0  0  0  0  0  0  0
    6.1473    0.9656   -1.5759 H   0  0  0  0  0  0  0  0  0  0  0  0
  2  5  1  6  0  0  0
  2  4  1  0  0  0  0
  2  7  1  0  0  0  0
  3  1  1  1  0  0  0
  3  7  1  0  0  0  0
  6  3  1  0  0  0  0
  6  2  1  0  0  0  0
  7 50  1  0  0  0  0
  8  9  1  0  0  0  0
  8  3  1  0  0  0  0
 10  4  1  0  0  0  0
 11 10  1  0  0  0  0
 11 12  1  0  0  0  0
 13 11  2  0  0  0  0
 14 13  1  0  0  0  0
 15 16  2  0  0  0  0
 15 13  1  0  0  0  0
 16 18  1  0  0  0  0
 17 16  1  0  0  0  0
 18 19  1  0  0  0  0
 18 10  2  0  0  0  0
 20 15  1  0  0  0  0
 20 22  1  0  0  0  0
 21 20  1  0  0  0  0
 23 20  1  0  0  0  0
 24 25  1  0  0  0  0
 24  5  1  0  0  0  0
 24 29  1  0  0  0  0
 25 28  1  0  0  0  0
 26 25  1  0  0  0  0
 27 25  1  0  0  0  0
 29 31  1  0  0  0  0
 30 29  1  0  0  0  0
 32 29  1  0  0  0  0
 33 24  1  0  0  0  0
 34 33  1  0  0  0  0
 35 33  1  0  0  0  0
 36 33  1  0  0  0  0
 37  6  1  0  0  0  0
 38 41  1  0  0  0  0
 38 39  1  0  0  0  0
 38 37  1  0  0  0  0
 40 38  1  0  0  0  0
 42 45  1  0  0  0  0
 42 37  1  0  0  0  0
 42 43  1  0  0  0  0
 44 42  1  0  0  0  0
 46 48  1  0  0  0  0
 46 37  1  0  0  0  0
 46 47  1  0  0  0  0
 49 46  1  0  0  0  0
 50 59  1  0  0  0  0
 50 51  1  0  0  0  0
 50 55  1  0  0  0  0
 51 54  1  0  0  0  0
 52 51  1  0  0  0  0
 53 51  1  0  0  0  0
 55 57  1  0  0  0  0
 56 55  1  0  0  0  0
 58 55  1  0  0  0  0
 59 62  1  0  0  0  0
 60 59  1  0  0  0  0
 61 59  1  0  0  0  0
 63  8  1  0  0  0  0
 63 64  1  0  0  0  0
 64 65  1  0  0  0  0
 64 67  1  0  0  0  0
 66 64  1  0  0  0  0
 68 63  1  0  0  0  0
 68 69  1  0  0  0  0
 70 68  1  0  0  0  0
 71 68  1  0  0  0  0
 72 73  1  0  0  0  0
 72 63  1  0  0  0  0
 74 72  1  0  0  0  0
 75 72  1  0  0  0  0
M  END
