5,6
q = -2.0, confidence = 0.874

 30 31  0  0  0  0  0  0  0  0999 V2000
    2.2130    1.9430    0.5569 S   0  0  0  0  0  0  0  0  0  0  0  0
    2.6619    0.0596   -2.2697 S   0  0  0  0  0  0  0  0  0  0  0  0
   -0.4142    1.0850    1.7276 O   0  0  0  0  0  1  0  0  0  0  0  0
    0.1570   -1.5850   -2.5952 O   0  0  0  0  0  1  0  0  0  0  0  0
    0.1859   -0.8031   -1.5606 N   0  0  0  0  0  2  0  0  0  0  0  0
   -0.0973    0.5150    0.6021 N   0  0  0  0  0  2  0  0  0  0  0  0
    1.2141   -0.0168   -1.2641 C   0  0  0  0  0  0  0  0  0  0  0  0
    1.0370    0.7675   -0.0402 C   0  0  0  0  0  0  0  0  0  0  0  0
    1.1505    3.3917    0.5826 C   0  0  0  0  0  0  0  0  0  0  0  0
    3.8949   -0.3909   -1.0538 C   0  0  0  0  0  0  0  0  0  0  0  0
    0.5305    3.8361   -0.6012 C   0  0  0  0  0  0  0  0  0  0  0  0
    0.6813    3.2754   -1.5358 H   0  0  0  0  0  0  0  0  0  0  0  0
   -0.4440    5.7016    0.6217 C   0  0  0  0  0  0  0  0  0  0  0  0
   -1.0711    6.6058    0.6369 H   0  0  0  0  0  0  0  0  0  0  0  0
    0.9717    4.0982    1.7845 C   0  0  0  0  0  0  0  0  0  0  0  0
    1.4374    3.7198    2.7060 H   0  0  0  0  0  0  0  0  0  0  0  0
    5.1727    0.1948   -1.1499 C   0  0  0  0  0  0  0  0  0  0  0  0
    5.3690    0.9460   -1.9295 H   0  0  0  0  0  0  0  0  0  0  0  0
    0.1821    5.2582    1.7975 C   0  0  0  0  0  0  0  0  0  0  0  0
    0.0407    5.8095    2.7397 H   0  0  0  0  0  0  0  0  0  0  0  0
    3.6301   -1.3327   -0.0383 C   0  0  0  0  0  0  0  0  0  0  0  0
    2.6376   -1.8009    0.0282 H   0  0  0  0  0  0  0  0  0  0  0  0
   -0.2717    4.9851   -0.5751 C   0  0  0  0  0  0  0  0  0  0  0  0
   -0.7605    5.3285   -1.4995 H   0  0  0  0  0  0  0  0  0  0  0  0
    6.1756   -0.1655   -0.2389 C   0  0  0  0  0  0  0  0  0  0  0  0
    7.1709    0.2978   -0.3193 H   0  0  0  0  0  0  0  0  0  0  0  0
    5.9101   -1.0904    0.7842 C   0  0  0  0  0  0  0  0  0  0  0  0
    6.6959   -1.3578    1.5064 H   0  0  0  0  0  0  0  0  0  0  0  0
    4.6332   -1.6670    0.8812 C   0  0  0  0  0  0  0  0  0  0  0  0
    4.4118   -2.3955    1.6767 H   0  0  0  0  0  0  0  0  0  0  0  0
  1  9  1  0  0  0  0
  2  7  1  0  0  0  0
  2 10  1  0  0  0  0
  4  5  1  0  0  0  0
  5  7  1  0  0  0  0
  6  3  1  0  0  0  0
  7  8  2  0  0  0  0
  8  1  1  0  0  0  0
  8  6  1  0  0  0  0
  9 15  1  0  0  0  0
 10 21  1  0  0  0  0
 11 23  1  0  0  0  0
 11  9  2  0  0  0  0
 12 11  1  0  0  0  0
 13 14  1  0  0  0  0
 13 19  1  0  0  0  0
 15 19  2  0  0  0  0
 15 16  1  0  0  0  0
 17 10  2  0  0  0  0
 17 25  1  0  0  0  0
 18 17  1  0  0  0  0
 19 20  1  0  0  0  0
 21 22  1  0  0  0  0
 21 29  2  0  0  0  0
 23 13  2  0  0  0  0
 24 23  1  0  0  0  0
 25 27  2  0  0  0  0
 26 25  1  0  0  0  0
 27 29  1  0  0  0  0
 27 28  1  0  0  0  0
 29 30  1  0  0  0  0
M  END
