2,3
q = -1.0

 24 25  0  0  0  0  0  0  0  0999 V2000
    1.4237    3.6565   -1.1875 O   0  0  0  0  0  0  0  0  0  0  0  0
   -1.2814    1.9110    0.3695 N   0  0  0  0  0  2  0  0  0  0  0  0
    1.0210    1.3580   -0.9273 N   0  0  0  0  0  2  0  0  0  0  0  0
   -2.4760    2.1266    0.9637 C   0  0  0  0  0  3  0  0  0  0  0  0
   -2.9596    1.2408    1.4046 H   0  0  0  0  0  0  0  0  0  0  0  0
   -3.0567    3.3980    1.0175 C   0  0  0  0  0  0  0  0  0  0  0  0
   -4.0293    3.5296    1.5127 H   0  0  0  0  0  0  0  0  0  0  0  0
   -2.3758    4.4823    0.4369 C   0  0  0  0  0  0  0  0  0  0  0  0
   -2.8086    5.4939    0.4657 H   0  0  0  0  0  0  0  0  0  0  0  0
   -1.1392    4.2524   -0.1745 C   0  0  0  0  0  0  0  0  0  0  0  0
   -0.5295    5.0387   -0.6425 H   0  0  0  0  0  0  0  0  0  0  0  0
   -0.6189    2.9492   -0.2002 C   0  0  0  0  0  0  0  0  0  0  0  0
    0.7345    2.6873   -0.8284 C   0  0  0  0  0  0  0  0  0  0  0  0
    2.3230    0.9545   -1.2977 C   0  0  0  0  0  0  0  0  0  0  0  0
    2.4923   -0.1570   -2.1534 C   0  0  0  0  0  0  0  0  0  0  0  0
    1.6019   -0.6497   -2.5666 H   0  0  0  0  0  0  0  0  0  0  0  0
    3.7688   -0.6503   -2.4496 C   0  0  0  0  0  0  0  0  0  0  0  0
    3.8700   -1.5277   -3.1067 H   0  0  0  0  0  0  0  0  0  0  0  0
    4.9091   -0.0403   -1.9024 C   0  0  0  0  0  0  0  0  0  0  0  0
    5.9129   -0.4309   -2.1289 H   0  0  0  0  0  0  0  0  0  0  0  0
    4.7528    1.0762   -1.0638 C   0  0  0  0  0  0  0  0  0  0  0  0
    5.6387    1.5668   -0.6307 H   0  0  0  0  0  0  0  0  0  0  0  0
    3.4782    1.5754   -0.7657 C   0  0  0  0  0  0  0  0  0  0  0  0
    3.3610    2.4526   -0.1159 H   0  0  0  0  0  0  0  0  0  0  0  0
  1 13  2  0  0  0  0
  2  4  1  0  0  0  0
  3 13  1  0  0  0  0
  4  6  1  0  0  0  0
  4  5  1  0  0  0  0
  6  7  1  0  0  0  0
  8  9  1  0  0  0  0
  8  6  2  0  0  0  0
 10  8  1  0  0  0  0
 11 10  1  0  0  0  0
 12 10  2  0  0  0  0
 12  2  1  0  0  0  0
 13 12  1  0  0  0  0
 14  3  1  0  0  0  0
 14 23  1  0  0  0  0
 15 14  2  0  0  0  0
 16 15  1  0  0  0  0
 17 15  1  0  0  0  0
 17 19  2  0  0  0  0
 18 17  1  0  0  0  0
 19 21  1  0  0  0  0
 20 19  1  0  0  0  0
 21 23  2  0  0  0  0
 21 22  1  0  0  0  0
 23 24  1  0  0  0  0
M  END
