5,6
q = -1.0

 38 38  0  0  1  0  0  0  0  0999 V2000
    2.0702   -3.4518   -0.1004 O   0  0  0  0  0  0  0  0  0  0  0  0
   -0.6823   -3.9558    0.6240 O   0  0  0  0  0  0  0  0  0  0  0  0
   -2.3041   -2.5816   -2.3176 O   0  0  0  0  0  0  0  0  0  0  0  0
   -1.4883   -2.0539   -2.4923 H   0  0  0  0  0  0  0  0  0  0  0  0
    1.4755   -1.2956   -0.2933 N   0  0  0  0  0  2  0  0  0  0  0  0
   -1.0644   -1.6989    0.0409 N   0  0  0  0  0  2  0  0  0  0  0  0
    1.1146   -2.5186   -0.0375 C   0  0  1  0  0  3  0  0  0  0  0  0
    3.2454   -2.7837   -0.6406 C   0  0  0  0  0  0  0  0  0  0  0  0
    3.3912   -3.1525   -1.6758 H   0  0  0  0  0  0  0  0  0  0  0  0
    4.1187   -3.0769   -0.0266 H   0  0  0  0  0  0  0  0  0  0  0  0
    2.9142   -1.2664   -0.5888 C   0  0  2  0  0  0  0  0  0  0  0  0
    3.0508   -0.8063   -1.5898 H   0  0  0  0  0  0  0  0  0  0  0  0
    3.7105   -0.4339    0.4441 C   0  0  0  0  0  0  0  0  0  0  0  0
    3.1817    0.5420    0.4935 H   0  0  0  0  0  0  0  0  0  0  0  0
    3.6959   -1.0444    1.8485 C   0  0  0  0  0  0  0  0  0  0  0  0
    4.1540   -0.3492    2.5804 H   0  0  0  0  0  0  0  0  0  0  0  0
    4.2709   -1.9926    1.8963 H   0  0  0  0  0  0  0  0  0  0  0  0
    2.6632   -1.2522    2.1882 H   0  0  0  0  0  0  0  0  0  0  0  0
    5.1366   -0.1823   -0.0562 C   0  0  0  0  0  0  0  0  0  0  0  0
    5.7007    0.4572    0.6521 H   0  0  0  0  0  0  0  0  0  0  0  0
    5.1382    0.3224   -1.0443 H   0  0  0  0  0  0  0  0  0  0  0  0
    5.7031   -1.1323   -0.1617 H   0  0  0  0  0  0  0  0  0  0  0  0
   -0.3241   -2.8288    0.2536 C   0  0  0  0  0  0  0  0  0  0  0  0
   -2.5129   -1.9103    0.0471 C   0  0  2  0  0  0  0  0  0  0  0  0
   -2.6597   -2.9637    0.3732 H   0  0  0  0  0  0  0  0  0  0  0  0
   -3.0588   -1.8359   -1.4038 C   0  0  0  0  0  0  0  0  0  0  0  0
   -4.0896   -2.2506   -1.4064 H   0  0  0  0  0  0  0  0  0  0  0  0
   -3.1527   -0.7683   -1.7123 H   0  0  0  0  0  0  0  0  0  0  0  0
   -3.2312   -0.9885    1.0660 C   0  0  0  0  0  0  0  0  0  0  0  0
   -2.7404    0.0066    0.9955 H   0  0  0  0  0  0  0  0  0  0  0  0
   -4.7266   -0.7942    0.7796 C   0  0  0  0  0  0  0  0  0  0  0  0
   -5.1951   -0.1747    1.5726 H   0  0  0  0  0  0  0  0  0  0  0  0
   -5.2633   -1.7664    0.7627 H   0  0  0  0  0  0  0  0  0  0  0  0
   -4.9128   -0.2884   -0.1883 H   0  0  0  0  0  0  0  0  0  0  0  0
   -3.0341   -1.5229    2.4902 C   0  0  0  0  0  0  0  0  0  0  0  0
   -3.3536   -0.7844    3.2552 H   0  0  0  0  0  0  0  0  0  0  0  0
   -1.9755   -1.7801    2.6804 H   0  0  0  0  0  0  0  0  0  0  0  0
   -3.6260   -2.4499    2.6426 H   0  0  0  0  0  0  0  0  0  0  0  0
  1  7  1  0  0  0  0
  3 26  1  0  0  0  0
  4  3  1  0  0  0  0
  5  7  1  0  0  0  0
  6 24  1  0  0  0  0
  6 23  1  0  0  0  0
  7 23  1  6  0  0  0
  8 11  1  0  0  0  0
  8  1  1  0  0  0  0
  8 10  1  0  0  0  0
  9  8  1  0  0  0  0
 11 12  1  6  0  0  0
 11  5  1  0  0  0  0
 11 13  1  0  0  0  0
 13 14  1  0  0  0  0
 13 15  1  0  0  0  0
 15 17  1  0  0  0  0
 15 18  1  0  0  0  0
 15 16  1  0  0  0  0
 19 13  1  0  0  0  0
 19 20  1  0  0  0  0
 21 19  1  0  0  0  0
 22 19  1  0  0  0  0
 23  2  2  0  0  0  0
 24 25  1  1  0  0  0
 24 29  1  0  0  0  0
 26 24  1  0  0  0  0
 27 26  1  0  0  0  0
 28 26  1  0  0  0  0
 29 35  1  0  0  0  0
 30 29  1  0  0  0  0
 31 29  1  0  0  0  0
 31 32  1  0  0  0  0
 33 31  1  0  0  0  0
 34 31  1  0  0  0  0
 35 38  1  0  0  0  0
 35 37  1  0  0  0  0
 35 36  1  0  0  0  0
M  END
