1,13
q = 0.0, confidence = 0.968

 42 44  0  0  1  0  0  0  0  0999 V2000
    2.1607    0.3510    0.0071 N   0  0  0  0  0  2  0  0  0  0  0  0
    4.3787    2.0954   -0.0646 C   0  0  0  0  0  0  0  0  0  0  0  0
    5.2510    2.7657   -0.0930 H   0  0  0  0  0  0  0  0  0  0  0  0
    1.9906    1.7065    0.0569 C   0  0  0  0  0  0  0  0  0  0  0  0
    3.0969    2.6004    0.0242 C   0  0  0  0  0  0  0  0  0  0  0  0
    2.9124    3.6827    0.0690 H   0  0  0  0  0  0  0  0  0  0  0  0
    0.6081    2.0868    0.1226 C   0  0  2  0  0  3  0  0  0  0  0  0
    4.8883   -2.1256   -0.2021 C   0  0  0  0  0  0  0  0  0  0  0  0
    5.0144   -3.2182   -0.2327 H   0  0  0  0  0  0  0  0  0  0  0  0
   -2.2591    1.3289   -1.1844 C   0  0  0  0  0  0  0  0  0  0  0  0
    3.6113   -1.5876   -0.1151 C   0  0  0  0  0  0  0  0  0  0  0  0
    2.7291   -2.2396   -0.0764 H   0  0  0  0  0  0  0  0  0  0  0  0
   -0.2118    1.0236    0.1258 N   0  0  0  0  0  2  0  0  0  0  0  0
    3.4284   -0.1795   -0.0751 C   0  0  0  0  0  0  0  0  0  0  0  0
    6.0289   -1.2836   -0.2497 C   0  0  0  0  0  0  0  0  0  0  0  0
    7.0343   -1.7254   -0.3177 H   0  0  0  0  0  0  0  0  0  0  0  0
    5.8742    0.0960   -0.2075 C   0  0  0  0  0  3  0  0  0  0  0  0
    6.7513    0.7609   -0.2408 H   0  0  0  0  0  0  0  0  0  0  0  0
   -3.6664    1.3252   -1.2293 C   0  0  0  0  0  0  0  0  0  0  0  0
   -4.1608    1.4378   -2.2081 H   0  0  0  0  0  0  0  0  0  0  0  0
   -1.6308    1.1670    0.0767 C   0  0  0  0  0  0  0  0  0  0  0  0
   -4.4514    1.1871   -0.0707 C   0  0  0  0  0  0  0  0  0  0  0  0
   -3.7900    1.0738    1.1671 C   0  0  0  0  0  0  0  0  0  0  0  0
   -4.3839    0.9900    2.0923 H   0  0  0  0  0  0  0  0  0  0  0  0
   -5.9586    1.1989   -0.1415 C   0  0  0  0  0  0  0  0  0  0  0  0
   -6.3223    1.0091   -1.1704 H   0  0  0  0  0  0  0  0  0  0  0  0
   -6.3683    2.1820    0.1759 H   0  0  0  0  0  0  0  0  0  0  0  0
   -6.4060    0.4376    0.5300 H   0  0  0  0  0  0  0  0  0  0  0  0
    4.5820    0.6825   -0.1185 C   0  0  0  0  0  0  0  0  0  0  0  0
   -1.7064    0.9471    2.6038 C   0  0  0  0  0  0  0  0  0  0  0  0
   -1.0010    1.7871    2.7726 H   0  0  0  0  0  0  0  0  0  0  0  0
   -1.0833    0.0269    2.6561 H   0  0  0  0  0  0  0  0  0  0  0  0
   -2.4421    0.9408    3.4304 H   0  0  0  0  0  0  0  0  0  0  0  0
    0.1375    3.5074    0.1718 C   0  0  0  0  0  0  0  0  0  0  0  0
   -0.9653    3.5557    0.2353 H   0  0  0  0  0  0  0  0  0  0  0  0
    0.4575    4.0739   -0.7288 H   0  0  0  0  0  0  0  0  0  0  0  0
    0.5573    4.0371    1.0530 H   0  0  0  0  0  0  0  0  0  0  0  0
   -2.3881    1.0677    1.2723 C   0  0  0  0  0  0  0  0  0  0  0  0
   -1.4434    1.4988   -2.4373 C   0  0  0  0  0  0  0  0  0  0  0  0
   -0.6861    0.6922   -2.5404 H   0  0  0  0  0  0  0  0  0  0  0  0
   -0.8806    2.4560   -2.4216 H   0  0  0  0  0  0  0  0  0  0  0  0
   -2.0904    1.5051   -3.3351 H   0  0  0  0  0  0  0  0  0  0  0  0
  1  4  1  0  0  0  0
  2  5  1  0  0  0  0
  3  2  1  0  0  0  0
  4  7  1  0  0  0  0
  5  4  2  0  0  0  0
  5  6  1  0  0  0  0
  7 13  1  6  0  0  0
  7 34  1  0  0  0  0
  8 11  1  0  0  0  0
  9  8  1  0  0  0  0
 10 21  1  0  0  0  0
 11 12  1  0  0  0  0
 11 14  2  0  0  0  0
 14  1  1  0  0  0  0
 15 17  1  0  0  0  0
 15  8  2  0  0  0  0
 16 15  1  0  0  0  0
 17 29  1  0  0  0  0
 18 17  1  0  0  0  0
 19 10  2  0  0  0  0
 19 22  1  0  0  0  0
 20 19  1  0  0  0  0
 21 13  1  0  0  0  0
 21 38  2  0  0  0  0
 22 23  2  0  0  0  0
 23 38  1  0  0  0  0
 23 24  1  0  0  0  0
 25 22  1  0  0  0  0
 25 27  1  0  0  0  0
 25 28  1  0  0  0  0
 26 25  1  0  0  0  0
 29 14  1  0  0  0  0
 29  2  2  0  0  0  0
 30 32  1  0  0  0  0
 30 31  1  0  0  0  0
 30 33  1  0  0  0  0
 34 35  1  0  0  0  0
 34 37  1  0  0  0  0
 36 34  1  0  0  0  0
 38 30  1  0  0  0  0
 39 41  1  0  0  0  0
 39 10  1  0  0  0  0
 40 39  1  0  0  0  0
 42 39  1  0  0  0  0
M  END
