1,4
q = 0.0, confidence = 0.992

 46 48  0  0  0  0  0  0  0  0999 V2000
   -1.3611    0.3082   -0.7194 N   0  0  0  0  0  2  0  0  0  0  0  0
   -2.9510    0.9691    1.0067 N   0  0  0  0  0  0  0  0  0  0  0  0
   -3.2797   -0.9231   -0.1587 N   0  0  0  0  0  0  0  0  0  0  0  0
    1.3609    0.3086   -0.7196 N   0  0  0  0  0  2  0  0  0  0  0  0
    3.2798   -0.9223   -0.1594 N   0  0  0  0  0  0  0  0  0  0  0  0
    2.9511    0.9697    1.0063 N   0  0  0  0  0  0  0  0  0  0  0  0
   -0.7166    1.5196   -0.9787 C   0  0  0  0  0  0  0  0  0  0  0  0
    0.7160    1.5199   -0.9788 C   0  0  0  0  0  0  0  0  0  0  0  0
    1.3999    2.7086   -1.3150 C   0  0  0  0  0  0  0  0  0  0  0  0
    2.5005    2.6960   -1.3260 H   0  0  0  0  0  0  0  0  0  0  0  0
    0.7015    3.8846   -1.6253 C   0  0  0  0  0  0  0  0  0  0  0  0
    1.2581    4.7986   -1.8811 H   0  0  0  0  0  0  0  0  0  0  0  0
   -0.7029    3.8843   -1.6252 C   0  0  0  0  0  0  0  0  0  0  0  0
   -1.2599    4.7982   -1.8809 H   0  0  0  0  0  0  0  0  0  0  0  0
   -1.4009    2.7081   -1.3148 C   0  0  0  0  0  0  0  0  0  0  0  0
   -2.5015    2.6951   -1.3256 H   0  0  0  0  0  0  0  0  0  0  0  0
   -2.4689    0.1694   -0.0088 C   0  0  0  0  0  3  0  0  0  0  0  0
   -2.0650    1.8129    1.8008 C   0  0  0  0  0  0  0  0  0  0  0  0
   -1.3023    1.1925    2.3222 H   0  0  0  0  0  0  0  0  0  0  0  0
   -2.6798    2.3597    2.5411 H   0  0  0  0  0  0  0  0  0  0  0  0
   -1.5564    2.5546    1.1590 H   0  0  0  0  0  0  0  0  0  0  0  0
   -3.9663    0.2080    1.7456 C   0  0  0  0  0  0  0  0  0  0  0  0
   -4.7812    0.8638    2.1116 H   0  0  0  0  0  0  0  0  0  0  0  0
   -3.4854   -0.2902    2.6193 H   0  0  0  0  0  0  0  0  0  0  0  0
   -4.4344   -0.8284    0.7198 C   0  0  0  0  0  0  0  0  0  0  0  0
   -4.6815   -1.8076    1.1779 H   0  0  0  0  0  0  0  0  0  0  0  0
   -5.3286   -0.4804    0.1477 H   0  0  0  0  0  0  0  0  0  0  0  0
   -3.2928   -1.7781   -1.3256 C   0  0  0  0  0  0  0  0  0  0  0  0
   -3.3678   -2.8403   -1.0195 H   0  0  0  0  0  0  0  0  0  0  0  0
   -2.3416   -1.6637   -1.8760 H   0  0  0  0  0  0  0  0  0  0  0  0
   -4.1509   -1.5296   -1.9920 H   0  0  0  0  0  0  0  0  0  0  0  0
    2.4689    0.1700   -0.0092 C   0  0  0  0  0  3  0  0  0  0  0  0
    3.2923   -1.7779   -1.3258 C   0  0  0  0  0  0  0  0  0  0  0  0
    2.3433   -1.6588   -1.8790 H   0  0  0  0  0  0  0  0  0  0  0  0
    3.3611   -2.8405   -1.0194 H   0  0  0  0  0  0  0  0  0  0  0  0
    4.1536   -1.5336   -1.9896 H   0  0  0  0  0  0  0  0  0  0  0  0
    4.4343   -0.8281    0.7195 C   0  0  0  0  0  0  0  0  0  0  0  0
    5.3288   -0.4805    0.1476 H   0  0  0  0  0  0  0  0  0  0  0  0
    4.6809   -1.8075    1.1777 H   0  0  0  0  0  0  0  0  0  0  0  0
    3.9662    0.2084    1.7452 C   0  0  0  0  0  0  0  0  0  0  0  0
    3.4852   -0.2898    2.6188 H   0  0  0  0  0  0  0  0  0  0  0  0
    4.7813    0.8640    2.1113 H   0  0  0  0  0  0  0  0  0  0  0  0
    2.0652    1.8134    1.8006 C   0  0  0  0  0  0  0  0  0  0  0  0
    1.3034    1.1927    2.3232 H   0  0  0  0  0  0  0  0  0  0  0  0
    1.5554    2.5541    1.1587 H   0  0  0  0  0  0  0  0  0  0  0  0
    2.6803    2.3612    2.5399 H   0  0  0  0  0  0  0  0  0  0  0  0
  1 17  1  0  0  0  0
  2 22  1  0  0  0  0
  2 18  1  0  0  0  0
  3 17  1  0  0  0  0
  3 25  1  0  0  0  0
  4 32  1  0  0  0  0
  5 32  1  0  0  0  0
  5 37  1  0  0  0  0
  6 40  1  0  0  0  0
  6 43  1  0  0  0  0
  7  1  1  0  0  0  0
  8  7  1  0  0  0  0
  8  4  1  0  0  0  0
  9  8  2  0  0  0  0
 10  9  1  0  0  0  0
 11 13  2  0  0  0  0
 11  9  1  0  0  0  0
 12 11  1  0  0  0  0
 13 15  1  0  0  0  0
 14 13  1  0  0  0  0
 15  7  2  0  0  0  0
 16 15  1  0  0  0  0
 17  2  1  0  0  0  0
 18 19  1  0  0  0  0
 18 20  1  0  0  0  0
 21 18  1  0  0  0  0
 22 23  1  0  0  0  0
 22 24  1  0  0  0  0
 25 26  1  0  0  0  0
 25 22  1  0  0  0  0
 27 25  1  0  0  0  0
 28 29  1  0  0  0  0
 28  3  1  0  0  0  0
 30 28  1  0  0  0  0
 31 28  1  0  0  0  0
 32  6  1  0  0  0  0
 33 35  1  0  0  0  0
 33  5  1  0  0  0  0
 34 33  1  0  0  0  0
 36 33  1  0  0  0  0
 37 39  1  0  0  0  0
 37 40  1  0  0  0  0
 38 37  1  0  0  0  0
 40 42  1  0  0  0  0
 40 41  1  0  0  0  0
 43 44  1  0  0  0  0
 43 46  1  0  0  0  0
 45 43  1  0  0  0  0
M  END
