3,4
q = 0.0, confidence = 1.0

 29 30  0  0  1  0  0  0  0  0999 V2000
    3.4024    0.6845   -1.7996 O   0  0  0  0  0  0  0  0  0  0  0  0
    3.4294   -0.3205   -1.8643 H   0  0  0  0  0  0  0  0  0  0  0  0
    2.5578    0.8540   -0.7495 N   0  0  0  0  0  2  0  0  0  0  0  0
    0.0488   -0.0952    0.2223 N   0  0  0  0  0  2  0  0  0  0  0  0
   -1.1807   -0.5980    0.0406 N   0  0  0  0  0  0  0  0  0  0  0  0
   -1.2978   -1.6035   -0.0916 H   0  0  0  0  0  0  0  0  0  0  0  0
    2.0963    2.0364   -0.4974 C   0  0  1  0  0  3  0  0  0  0  0  0
    2.4435    3.2606   -1.2813 C   0  0  0  0  0  0  0  0  0  0  0  0
    2.9604    4.0004   -0.6336 H   0  0  0  0  0  0  0  0  0  0  0  0
    1.5210    3.7516   -1.6560 H   0  0  0  0  0  0  0  0  0  0  0  0
    3.0993    3.0084   -2.1331 H   0  0  0  0  0  0  0  0  0  0  0  0
    1.1063    2.0951    0.6594 C   0  0  0  0  0  0  0  0  0  0  0  0
    1.6158    1.7227    1.5803 H   0  0  0  0  0  0  0  0  0  0  0  0
    0.7900    3.1391    0.8356 H   0  0  0  0  0  0  0  0  0  0  0  0
   -0.1060    1.2286    0.4338 C   0  0  1  0  0  3  0  0  0  0  0  0
   -1.4801    1.5577    0.3916 C   0  0  0  0  0  0  0  0  0  0  0  0
   -1.9287    2.5496    0.5007 H   0  0  0  0  0  0  0  0  0  0  0  0
   -2.1580    0.3535    0.1347 C   0  0  0  0  0  0  0  0  0  0  0  0
   -3.5823    0.0536   -0.0354 C   0  0  0  0  0  0  0  0  0  0  0  0
   -4.5566    0.8964    0.5458 C   0  0  0  0  0  0  0  0  0  0  0  0
   -4.2358    1.7633    1.1420 H   0  0  0  0  0  0  0  0  0  0  0  0
   -5.9202    0.6198    0.3904 C   0  0  0  0  0  0  0  0  0  0  0  0
   -6.6661    1.2835    0.8529 H   0  0  0  0  0  0  0  0  0  0  0  0
   -6.3360   -0.5047   -0.3412 C   0  0  0  0  0  0  0  0  0  0  0  0
   -7.4080   -0.7225   -0.4591 H   0  0  0  0  0  0  0  0  0  0  0  0
   -5.3772   -1.3483   -0.9240 C   0  0  0  0  0  0  0  0  0  0  0  0
   -5.6943   -2.2251   -1.5081 H   0  0  0  0  0  0  0  0  0  0  0  0
   -4.0121   -1.0701   -0.7786 C   0  0  0  0  0  0  0  0  0  0  0  0
   -3.2754   -1.7198   -1.2762 H   0  0  0  0  0  0  0  0  0  0  0  0
  1  3  1  0  0  0  0
  2  1  1  0  0  0  0
  4 15  1  0  0  0  0
  5 18  1  0  0  0  0
  5  4  1  0  0  0  0
  6  5  1  0  0  0  0
  7  3  1  6  0  0  0
  7 12  1  0  0  0  0
  8  9  1  0  0  0  0
  8  7  1  0  0  0  0
 10  8  1  0  0  0  0
 11  8  1  0  0  0  0
 12 14  1  0  0  0  0
 12 13  1  0  0  0  0
 15 12  1  6  0  0  0
 16 15  1  0  0  0  0
 16 17  1  0  0  0  0
 18 16  2  0  0  0  0
 19 18  1  0  0  0  0
 19 20  1  0  0  0  0
 20 21  1  0  0  0  0
 22 20  2  0  0  0  0
 22 23  1  0  0  0  0
 24 22  1  0  0  0  0
 25 24  1  0  0  0  0
 26 28  1  0  0  0  0
 26 24  2  0  0  0  0
 27 26  1  0  0  0  0
 28 19  2  0  0  0  0
 29 28  1  0  0  0  0
M  END
