4,5
q = 0.0, confidence = 1.0

 33 34  0  0  1  0  0  0  0  0999 V2000
    4.1090    0.7869   -1.7203 O   0  0  0  0  0  0  0  0  0  0  0  0
    4.0533   -0.1915   -1.9538 H   0  0  0  0  0  0  0  0  0  0  0  0
   -7.0495    0.0467   -0.3357 O   0  0  0  0  0  0  0  0  0  0  0  0
    3.2890    0.8413   -0.6387 N   0  0  0  0  0  2  0  0  0  0  0  0
    0.7187   -0.0621    0.2128 N   0  0  0  0  0  2  0  0  0  0  0  0
   -0.5519   -0.4406    0.0017 N   0  0  0  0  0  0  0  0  0  0  0  0
   -0.7397   -1.3583   -0.4036 H   0  0  0  0  0  0  0  0  0  0  0  0
    2.9231    1.9962   -0.1836 C   0  0  1  0  0  3  0  0  0  0  0  0
    3.3575    3.3046   -0.7611 C   0  0  0  0  0  0  0  0  0  0  0  0
    3.9360    3.8850   -0.0111 H   0  0  0  0  0  0  0  0  0  0  0  0
    2.4723    3.9188   -1.0287 H   0  0  0  0  0  0  0  0  0  0  0  0
    3.9839    3.1497   -1.6572 H   0  0  0  0  0  0  0  0  0  0  0  0
    1.9490    1.9354    0.9866 C   0  0  0  0  0  0  0  0  0  0  0  0
    2.4333    1.3754    1.8220 H   0  0  0  0  0  0  0  0  0  0  0  0
    1.7180    2.9562    1.3410 H   0  0  0  0  0  0  0  0  0  0  0  0
    0.6700    1.2163    0.6405 C   0  0  2  0  0  3  0  0  0  0  0  0
   -0.6744    1.6505    0.6887 C   0  0  0  0  0  0  0  0  0  0  0  0
   -1.0451    2.6248    1.0208 H   0  0  0  0  0  0  0  0  0  0  0  0
   -1.4505    0.5550    0.2698 C   0  0  0  0  0  0  0  0  0  0  0  0
   -2.8956    0.3860    0.1186 C   0  0  0  0  0  0  0  0  0  0  0  0
   -3.7328    1.5124   -0.0757 C   0  0  0  0  0  0  0  0  0  0  0  0
   -3.2862    2.5160   -0.1323 H   0  0  0  0  0  0  0  0  0  0  0  0
   -5.1097    1.3684   -0.2208 C   0  0  0  0  0  0  0  0  0  0  0  0
   -5.7625    2.2388   -0.3777 H   0  0  0  0  0  0  0  0  0  0  0  0
   -5.7035    0.0855   -0.1811 C   0  0  0  0  0  0  0  0  0  0  0  0
   -4.8850   -1.0473    0.0148 C   0  0  0  0  0  0  0  0  0  0  0  0
   -5.3164   -2.0554    0.0664 H   0  0  0  0  0  0  0  0  0  0  0  0
   -3.5017   -0.8874    0.1669 C   0  0  0  0  0  0  0  0  0  0  0  0
   -2.8909   -1.7834    0.3589 H   0  0  0  0  0  0  0  0  0  0  0  0
   -7.7001   -1.2124   -0.3098 C   0  0  0  0  0  0  0  0  0  0  0  0
   -7.5603   -1.7292    0.6657 H   0  0  0  0  0  0  0  0  0  0  0  0
   -7.3405   -1.8795   -1.1245 H   0  0  0  0  0  0  0  0  0  0  0  0
   -8.7765   -1.0101   -0.4586 H   0  0  0  0  0  0  0  0  0  0  0  0
  1  4  1  0  0  0  0
  2  1  1  0  0  0  0
  3 30  1  0  0  0  0
  3 25  1  0  0  0  0
  5 16  1  0  0  0  0
  6  5  1  0  0  0  0
  6 19  1  0  0  0  0
  7  6  1  0  0  0  0
  8  4  1  6  0  0  0
  8 13  1  0  0  0  0
  9  8  1  0  0  0  0
  9 10  1  0  0  0  0
 11  9  1  0  0  0  0
 12  9  1  0  0  0  0
 13 15  1  0  0  0  0
 13 14  1  0  0  0  0
 16 17  1  0  0  0  0
 16 13  1  1  0  0  0
 17 18  1  0  0  0  0
 19 17  2  0  0  0  0
 20 28  1  0  0  0  0
 20 19  1  0  0  0  0
 21 20  2  0  0  0  0
 22 21  1  0  0  0  0
 23 25  2  0  0  0  0
 23 21  1  0  0  0  0
 24 23  1  0  0  0  0
 25 26  1  0  0  0  0
 26 27  1  0  0  0  0
 26 28  2  0  0  0  0
 28 29  1  0  0  0  0
 30 31  1  0  0  0  0
 32 30  1  0  0  0  0
 33 30  1  0  0  0  0
M  END
