1,3
q = -1.0

 35 36  0  0  1  0  0  0  0  0999 V2000
    1.4484   -0.0033    0.6774 N   0  0  0  0  0  0  0  0  0  0  0  0
    0.0001   -0.0051    2.5744 N   0  0  0  0  0  0  0  0  0  0  0  0
   -1.4485    0.0006    0.6776 N   0  0  0  0  0  0  0  0  0  0  0  0
    1.1906   -0.0064    1.9698 C   0  0  2  0  0  0  0  0  0  0  0  0
   -1.1906   -0.0013    1.9700 C   0  0  0  0  0  0  0  0  0  0  0  0
    2.3795   -0.0118    2.9657 C   0  0  0  0  0  0  0  0  0  0  0  0
   -2.3793    0.0009    2.9660 C   0  0  0  0  0  0  0  0  0  0  0  0
    2.7355   -0.0028    0.1221 C   0  0  0  0  0  0  0  0  0  0  0  0
    3.3689   -1.2086   -0.2443 C   0  0  0  0  0  0  0  0  0  0  0  0
    4.5767   -1.2164   -0.9556 C   0  0  0  0  0  0  0  0  0  0  0  0
    5.1858    0.0001   -1.3117 C   0  0  0  0  0  0  0  0  0  0  0  0
    4.5780    1.2150   -0.9485 C   0  0  0  0  0  0  0  0  0  0  0  0
    3.3704    1.2044   -0.2371 C   0  0  0  0  0  0  0  0  0  0  0  0
   -2.7355    0.0028    0.1223 C   0  0  0  0  0  0  0  0  0  0  0  0
   -3.3716   -1.2027   -0.2405 C   0  0  0  0  0  0  0  0  0  0  0  0
   -4.5791   -1.2100   -0.9522 C   0  0  0  0  0  0  0  0  0  0  0  0
   -5.1857    0.0066   -1.3117 C   0  0  0  0  0  0  0  0  0  0  0  0
   -4.5753    1.2214   -0.9522 C   0  0  0  0  0  0  0  0  0  0  0  0
   -3.3678    1.2103   -0.2405 C   0  0  0  0  0  0  0  0  0  0  0  0
    1.9878   -0.0154    4.2403 F   0  0  0  0  0  0  0  0  0  0  0  0
    3.1579   -1.1073    2.7647 F   0  0  0  0  0  0  0  0  0  0  0  0
    3.1618    1.0822    2.7719 F   0  0  0  0  0  0  0  0  0  0  0  0
   -1.9874    0.0002    4.2406 F   0  0  0  0  0  0  0  0  0  0  0  0
   -3.1617   -1.0924    2.7688 F   0  0  0  0  0  0  0  0  0  0  0  0
   -3.1577    1.0970    2.7688 F   0  0  0  0  0  0  0  0  0  0  0  0
    2.7978   -2.3810    0.0772 F   0  0  0  0  0  0  0  0  0  0  0  0
    5.1478   -2.3763   -1.2994 F   0  0  0  0  0  0  0  0  0  0  0  0
    6.3355    0.0014   -1.9922 F   0  0  0  0  0  0  0  0  0  0  0  0
    5.1502    2.3764   -1.2858 F   0  0  0  0  0  0  0  0  0  0  0  0
    2.8007    2.3755    0.0913 F   0  0  0  0  0  0  0  0  0  0  0  0
   -2.8030   -2.3753    0.0846 F   0  0  0  0  0  0  0  0  0  0  0  0
   -5.1524   -2.3699   -1.2928 F   0  0  0  0  0  0  0  0  0  0  0  0
   -6.3353    0.0084   -1.9924 F   0  0  0  0  0  0  0  0  0  0  0  0
   -5.1452    2.3829   -1.2927 F   0  0  0  0  0  0  0  0  0  0  0  0
   -2.7957    2.3812    0.0845 F   0  0  0  0  0  0  0  0  0  0  0  0
  3  5  1  0  0  0  0
  4  1  1  1  0  0  0
  4  2  1  0  0  0  0
  4  6  1  0  0  0  0
  5  2  2  0  0  0  0
  5  7  1  0  0  0  0
  6 20  1  0  0  0  0
  7 23  1  0  0  0  0
  8  1  1  0  0  0  0
  9 26  1  0  0  0  0
  9  8  2  0  0  0  0
 10  9  1  0  0  0  0
 11 10  2  0  0  0  0
 11 12  1  0  0  0  0
 12 13  2  0  0  0  0
 13 30  1  0  0  0  0
 13  8  1  0  0  0  0
 14  3  1  0  0  0  0
 15 31  1  0  0  0  0
 15 14  1  0  0  0  0
 16 15  2  0  0  0  0
 17 16  1  0  0  0  0
 17 18  2  0  0  0  0
 18 19  1  0  0  0  0
 19 35  1  0  0  0  0
 19 14  2  0  0  0  0
 21  6  1  0  0  0  0
 22  6  1  0  0  0  0
 24  7  1  0  0  0  0
 25  7  1  0  0  0  0
 27 10  1  0  0  0  0
 28 11  1  0  0  0  0
 29 12  1  0  0  0  0
 32 16  1  0  0  0  0
 33 17  1  0  0  0  0
 34 18  1  0  0  0  0
M  END
