1,2
q = -1.0

 34 35  0  0  0  0  0  0  0  0999 V2000
   -0.1086   -1.9359   -0.7751 N   0  0  0  0  0  0  0  0  0  0  0  0
    1.8190   -0.2881    0.0662 N   0  0  0  0  0  2  0  0  0  0  0  0
    1.2889   -2.3251   -1.0399 C   0  0  0  0  0  0  0  0  0  0  0  0
    1.6250   -3.5294   -1.6660 C   0  0  0  0  0  0  0  0  0  0  0  0
    0.8372   -4.1658   -2.0981 H   0  0  0  0  0  0  0  0  0  0  0  0
    2.9661   -3.9428   -1.7281 C   0  0  0  0  0  0  0  0  0  0  0  0
    3.2367   -4.8778   -2.2388 H   0  0  0  0  0  0  0  0  0  0  0  0
    3.9429   -3.1570   -1.0905 C   0  0  0  0  0  0  0  0  0  0  0  0
    4.9917   -3.4932   -1.0782 H   0  0  0  0  0  0  0  0  0  0  0  0
    3.6125   -1.9523   -0.4620 C   0  0  0  0  0  0  0  0  0  0  0  0
    4.3870   -1.3752    0.0607 H   0  0  0  0  0  0  0  0  0  0  0  0
    2.2707   -1.4695   -0.4758 C   0  0  0  0  0  0  0  0  0  0  0  0
    2.7152    0.5454    0.7567 C   0  0  0  0  0  0  0  0  0  0  0  0
    3.8193    1.1972    0.1198 C   0  0  0  0  0  0  0  0  0  0  0  0
    4.6381    2.0419    0.8972 C   0  0  0  0  0  0  0  0  0  0  0  0
    5.4821    2.5521    0.4050 H   0  0  0  0  0  0  0  0  0  0  0  0
    4.4008    2.2625    2.2608 C   0  0  0  0  0  0  0  0  0  0  0  0
    5.0601    2.9316    2.8340 H   0  0  0  0  0  0  0  0  0  0  0  0
    3.3167    1.6241    2.8852 C   0  0  0  0  0  0  0  0  0  0  0  0
    3.1202    1.7785    3.9572 H   0  0  0  0  0  0  0  0  0  0  0  0
    2.4931    0.7752    2.1378 C   0  0  0  0  0  0  0  0  0  0  0  0
    1.6487    0.2502    2.6093 H   0  0  0  0  0  0  0  0  0  0  0  0
   -0.6761   -2.9049    0.1977 C   0  0  0  0  0  0  0  0  0  0  0  0
   -0.6048   -3.9377   -0.2043 H   0  0  0  0  0  0  0  0  0  0  0  0
   -1.7329   -2.6693    0.4009 H   0  0  0  0  0  0  0  0  0  0  0  0
   -0.0949   -2.8469    1.1359 H   0  0  0  0  0  0  0  0  0  0  0  0
   -0.9170   -1.8998   -2.0170 C   0  0  0  0  0  0  0  0  0  0  0  0
   -0.4416   -1.2116   -2.7395 H   0  0  0  0  0  0  0  0  0  0  0  0
   -1.9336   -1.5419   -1.7799 H   0  0  0  0  0  0  0  0  0  0  0  0
   -0.9872   -2.9110   -2.4744 H   0  0  0  0  0  0  0  0  0  0  0  0
    4.1023    1.0249   -1.3509 C   0  0  0  0  0  0  0  0  0  0  0  0
    4.4796    1.9678   -1.7951 H   0  0  0  0  0  0  0  0  0  0  0  0
    3.1977    0.7022   -1.8999 H   0  0  0  0  0  0  0  0  0  0  0  0
    4.8693    0.2430   -1.5314 H   0  0  0  0  0  0  0  0  0  0  0  0
  1 23  1  0  0  0  0
  2 13  1  0  0  0  0
  3  1  1  0  0  0  0
  3 12  1  0  0  0  0
  4  3  2  0  0  0  0
  5  4  1  0  0  0  0
  6  4  1  0  0  0  0
  6  8  2  0  0  0  0
  7  6  1  0  0  0  0
  8  9  1  0  0  0  0
  8 10  1  0  0  0  0
 10 11  1  0  0  0  0
 12 10  2  0  0  0  0
 12  2  1  0  0  0  0
 13 21  1  0  0  0  0
 14 13  2  0  0  0  0
 14 15  1  0  0  0  0
 15 17  2  0  0  0  0
 16 15  1  0  0  0  0
 17 18  1  0  0  0  0
 17 19  1  0  0  0  0
 19 20  1  0  0  0  0
 21 22  1  0  0  0  0
 21 19  2  0  0  0  0
 23 25  1  0  0  0  0
 23 26  1  0  0  0  0
 24 23  1  0  0  0  0
 27 29  1  0  0  0  0
 27  1  1  0  0  0  0
 28 27  1  0  0  0  0
 30 27  1  0  0  0  0
 31 14  1  0  0  0  0
 32 31  1  0  0  0  0
 33 31  1  0  0  0  0
 34 31  1  0  0  0  0
M  END
