1,2
q = -1.0

 31 32  0  0  0  0  0  0  0  0999 V2000
   -2.5162   -1.9070   -0.9389 N   0  0  0  0  0  0  0  0  0  0  0  0
   -1.7578    0.5826   -0.3793 N   0  0  0  0  0  2  0  0  0  0  0  0
   -3.4704   -1.0650   -0.2087 C   0  0  0  0  0  0  0  0  0  0  0  0
   -4.7575   -1.4969    0.1209 C   0  0  0  0  0  0  0  0  0  0  0  0
   -5.0598   -2.5326   -0.0975 H   0  0  0  0  0  0  0  0  0  0  0  0
   -5.6668   -0.6133    0.7283 C   0  0  0  0  0  0  0  0  0  0  0  0
   -6.6708   -0.9585    1.0140 H   0  0  0  0  0  0  0  0  0  0  0  0
   -5.2695    0.7157    0.9527 C   0  0  0  0  0  0  0  0  0  0  0  0
   -5.9765    1.4281    1.4061 H   0  0  0  0  0  0  0  0  0  0  0  0
   -3.9856    1.1612    0.6164 C   0  0  0  0  0  0  0  0  0  0  0  0
   -3.7095    2.2099    0.7867 H   0  0  0  0  0  0  0  0  0  0  0  0
   -3.0373    0.2692    0.0413 C   0  0  0  0  0  0  0  0  0  0  0  0
   -1.2778    1.9078   -0.3547 C   0  0  0  0  0  0  0  0  0  0  0  0
   -1.2255    2.7005    0.8174 C   0  0  0  0  0  0  0  0  0  0  0  0
   -1.5500    2.2712    1.7749 H   0  0  0  0  0  0  0  0  0  0  0  0
   -0.7554    4.0211    0.7652 C   0  0  0  0  0  0  0  0  0  0  0  0
   -0.7259    4.6215    1.6878 H   0  0  0  0  0  0  0  0  0  0  0  0
   -0.3182    4.5751   -0.4484 C   0  0  0  0  0  0  0  0  0  0  0  0
    0.0497    5.6116   -0.4844 H   0  0  0  0  0  0  0  0  0  0  0  0
   -0.3432    3.7912   -1.6139 C   0  0  0  0  0  0  0  0  0  0  0  0
    0.0110    4.2083   -2.5686 H   0  0  0  0  0  0  0  0  0  0  0  0
   -0.8150    2.4750   -1.5669 C   0  0  0  0  0  0  0  0  0  0  0  0
   -0.8490    1.8527   -2.4734 H   0  0  0  0  0  0  0  0  0  0  0  0
   -2.2968   -3.2210   -0.3001 C   0  0  0  0  0  0  0  0  0  0  0  0
   -2.0056   -3.0680    0.7566 H   0  0  0  0  0  0  0  0  0  0  0  0
   -1.4799   -3.7399   -0.8366 H   0  0  0  0  0  0  0  0  0  0  0  0
   -3.2183   -3.8451   -0.3296 H   0  0  0  0  0  0  0  0  0  0  0  0
   -2.9377   -2.0625   -2.3512 C   0  0  0  0  0  0  0  0  0  0  0  0
   -3.8918   -2.6308   -2.4208 H   0  0  0  0  0  0  0  0  0  0  0  0
   -2.1335   -2.5871   -2.9023 H   0  0  0  0  0  0  0  0  0  0  0  0
   -3.0829   -1.0573   -2.7891 H   0  0  0  0  0  0  0  0  0  0  0  0
  1 24  1  0  0  0  0
  1  3  1  0  0  0  0
  2 13  1  0  0  0  0
  2 12  1  0  0  0  0
  3 12  2  0  0  0  0
  3  4  1  0  0  0  0
  4  6  2  0  0  0  0
  5  4  1  0  0  0  0
  6  8  1  0  0  0  0
  6  7  1  0  0  0  0
  8  9  1  0  0  0  0
 10 11  1  0  0  0  0
 10  8  2  0  0  0  0
 12 10  1  0  0  0  0
 13 14  1  0  0  0  0
 14 15  1  0  0  0  0
 16 14  2  0  0  0  0
 16 17  1  0  0  0  0
 18 16  1  0  0  0  0
 19 18  1  0  0  0  0
 20 22  1  0  0  0  0
 20 18  2  0  0  0  0
 21 20  1  0  0  0  0
 22 13  2  0  0  0  0
 23 22  1  0  0  0  0
 24 25  1  0  0  0  0
 26 24  1  0  0  0  0
 27 24  1  0  0  0  0
 28  1  1  0  0  0  0
 29 28  1  0  0  0  0
 30 28  1  0  0  0  0
 31 28  1  0  0  0  0
M  END
