7,8
q = 0.0, confidence = 0.996

 44 48  0  0  1  0  0  0  0  0999 V2000
   -6.5173   -3.3398    0.1526 Cl  0  0  0  0  0  0  0  0  0  0  0  0
   -4.3643    1.9087   -0.0432 N   0  0  0  0  0  0  0  0  0  0  0  0
   -5.3491    1.7765    0.1843 H   0  0  0  0  0  0  0  0  0  0  0  0
   -1.3279   -0.6916   -0.9805 N   0  0  0  0  0  0  0  0  0  0  0  0
   -0.5212   -1.3274   -1.1666 H   0  0  0  0  0  0  0  0  0  0  0  0
    0.0918    1.2168   -1.1866 N   0  0  0  0  0  2  0  0  0  0  0  0
    1.2070    0.4796   -1.1434 N   0  0  0  0  0  2  0  0  0  0  0  0
    3.4259   -0.7875   -0.6934 N   0  0  0  0  0  2  0  0  0  0  0  0
   -1.9627    5.2922   -0.2775 C   0  0  0  0  0  0  0  0  0  0  0  0
   -1.2917    6.1607   -0.3499 H   0  0  0  0  0  0  0  0  0  0  0  0
   -3.3205    5.4975    0.0650 C   0  0  0  0  0  0  0  0  0  0  0  0
   -3.6805    6.5196    0.2538 H   0  0  0  0  0  0  0  0  0  0  0  0
   -4.2191    4.4283    0.1688 C   0  0  0  0  0  0  0  0  0  0  0  0
   -5.2731    4.5938    0.4350 H   0  0  0  0  0  0  0  0  0  0  0  0
   -3.7173    3.1423   -0.0804 C   0  0  0  0  0  0  0  0  0  0  0  0
   -3.4790    0.9070   -0.3506 C   0  0  0  0  0  0  0  0  0  0  0  0
   -3.6939   -0.5123   -0.3902 C   0  0  0  0  0  0  0  0  0  0  0  0
   -4.9232   -1.1589   -0.1235 C   0  0  0  0  0  0  0  0  0  0  0  0
   -5.8227   -0.5795    0.1270 H   0  0  0  0  0  0  0  0  0  0  0  0
   -5.0063   -2.5513   -0.1764 C   0  0  0  0  0  0  0  0  0  0  0  0
   -3.8696   -3.3309   -0.4956 C   0  0  0  0  0  0  0  0  0  0  0  0
   -3.9588   -4.4253   -0.5329 H   0  0  0  0  0  0  0  0  0  0  0  0
   -2.6518   -2.7100   -0.7628 C   0  0  0  0  0  0  0  0  0  0  0  0
   -1.7604   -3.3059   -1.0081 H   0  0  0  0  0  0  0  0  0  0  0  0
   -2.5450   -1.3006   -0.7164 C   0  0  2  0  0  3  0  0  0  0  0  0
   -1.0936    0.6600   -0.9274 C   0  0  0  0  0  0  0  0  0  0  0  0
    2.1684    0.7296   -2.0338 C   0  0  0  0  0  0  0  0  0  0  0  0
    3.3953   -0.0060   -1.8198 C   0  0  0  0  0  0  0  0  0  0  0  0
    4.4972    0.0177   -2.7019 C   0  0  0  0  0  0  0  0  0  0  0  0
    4.4578    0.6510   -3.5978 H   0  0  0  0  0  0  0  0  0  0  0  0
    5.6128   -0.7777   -2.4346 C   0  0  0  0  0  0  0  0  0  0  0  0
    6.4765   -0.7694   -3.1152 H   0  0  0  0  0  0  0  0  0  0  0  0
    5.6076   -1.6004   -1.2950 C   0  0  0  0  0  0  0  0  0  0  0  0
    6.4542   -2.2581   -1.0553 H   0  0  0  0  0  0  0  0  0  0  0  0
    4.4913   -1.5813   -0.4555 C   0  0  0  0  0  0  0  0  0  0  0  0
    4.4291   -2.2254    0.4323 H   0  0  0  0  0  0  0  0  0  0  0  0
    1.9863    1.6767   -3.1748 C   0  0  0  0  0  0  0  0  0  0  0  0
    1.0351    2.2250   -3.0577 H   0  0  0  0  0  0  0  0  0  0  0  0
    1.9565    1.1309   -4.1417 H   0  0  0  0  0  0  0  0  0  0  0  0
    2.8225    2.4026   -3.2303 H   0  0  0  0  0  0  0  0  0  0  0  0
   -2.2156    1.4885   -0.6073 C   0  0  0  0  0  0  0  0  0  0  0  0
   -2.3476    2.9144   -0.4316 C   0  0  0  0  0  0  0  0  0  0  0  0
   -1.4638    4.0099   -0.5288 C   0  0  0  0  0  0  0  0  0  0  0  0
   -0.4125    3.8419   -0.8004 H   0  0  0  0  0  0  0  0  0  0  0  0
  2  3  1  0  0  0  0
  4 26  1  0  0  0  0
  4 25  1  0  0  0  0
  5  4  1  0  0  0  0
  6  7  1  0  0  0  0
  6 26  1  0  0  0  0
  8 35  1  0  0  0  0
  9 11  1  0  0  0  0
 10  9  1  0  0  0  0
 11 13  2  0  0  0  0
 11 12  1  0  0  0  0
 13 14  1  0  0  0  0
 15  2  1  0  0  0  0
 15 13  1  0  0  0  0
 16  2  1  0  0  0  0
 17 16  2  0  0  0  0
 17 18  1  0  0  0  0
 18 19  1  0  0  0  0
 20 18  2  0  0  0  0
 20  1  1  0  0  0  0
 21 20  1  0  0  0  0
 22 21  1  0  0  0  0
 23 21  2  0  0  0  0
 24 23  1  0  0  0  0
 25 23  1  1  0  0  0
 25 17  1  0  0  0  0
 26 41  2  0  0  0  0
 27 28  2  0  0  0  0
 27  7  1  0  0  0  0
 28  8  1  0  0  0  0
 29 31  2  0  0  0  0
 29 28  1  0  0  0  0
 30 29  1  0  0  0  0
 31 33  1  0  0  0  0
 32 31  1  0  0  0  0
 33 34  1  0  0  0  0
 33 35  2  0  0  0  0
 35 36  1  0  0  0  0
 37 38  1  0  0  0  0
 37 27  1  0  0  0  0
 39 37  1  0  0  0  0
 40 37  1  0  0  0  0
 41 42  1  0  0  0  0
 41 16  1  0  0  0  0
 42 15  2  0  0  0  0
 43 42  1  0  0  0  0
 43  9  2  0  0  0  0
 44 43  1  0  0  0  0
M  END
