2,3
q = -1.0

 36 36  0  0  0  0  0  0  0  0999 V2000
    2.4414    0.7602   -1.1955 Si  0  0  0  0  0  0  0  0  0  0  0  0
    0.7849    1.3755   -1.7257 N   0  0  0  0  0  0  0  0  0  0  0  0
    1.8327   -0.4740   -0.1492 N   0  0  0  0  0  2  0  0  0  0  0  0
    2.4386   -1.5203    0.5231 C   0  0  0  0  0  0  0  0  0  0  0  0
    3.8465   -1.7235    0.5338 C   0  0  0  0  0  0  0  0  0  0  0  0
    4.4947   -1.0238   -0.0181 H   0  0  0  0  0  0  0  0  0  0  0  0
    4.4232   -2.7886    1.2376 C   0  0  0  0  0  0  0  0  0  0  0  0
    5.5178   -2.9125    1.2223 H   0  0  0  0  0  0  0  0  0  0  0  0
    1.6482   -2.4474    1.2594 C   0  0  0  0  0  0  0  0  0  0  0  0
    0.5522   -2.3229    1.2510 H   0  0  0  0  0  0  0  0  0  0  0  0
    3.3400    2.1568   -0.2954 C   0  0  0  0  0  0  0  0  0  0  0  0
    2.7360    2.5498    0.5471 H   0  0  0  0  0  0  0  0  0  0  0  0
    3.6270    3.0017   -0.9537 H   0  0  0  0  0  0  0  0  0  0  0  0
    4.2701    1.7391    0.1431 H   0  0  0  0  0  0  0  0  0  0  0  0
    0.2402    0.6447   -2.9033 C   0  0  0  0  0  0  0  0  0  0  0  0
    0.4432   -0.4337   -2.7305 H   0  0  0  0  0  0  0  0  0  0  0  0
    0.7976    0.9176   -3.8296 H   0  0  0  0  0  0  0  0  0  0  0  0
    0.5582    2.8335   -1.7689 C   0  0  0  0  0  0  0  0  0  0  0  0
    0.9636    3.2633   -0.8321 H   0  0  0  0  0  0  0  0  0  0  0  0
   -0.5366    3.0267   -1.7376 H   0  0  0  0  0  0  0  0  0  0  0  0
    3.4593    0.1888   -2.6768 C   0  0  0  0  0  0  0  0  0  0  0  0
    4.4683   -0.1347   -2.3497 H   0  0  0  0  0  0  0  0  0  0  0  0
    3.5906    1.0060   -3.4157 H   0  0  0  0  0  0  0  0  0  0  0  0
    2.9829   -0.6722   -3.1855 H   0  0  0  0  0  0  0  0  0  0  0  0
    3.6258   -3.6902    1.9619 C   0  0  0  0  0  0  0  0  0  0  0  0
    4.0829   -4.5239    2.5150 H   0  0  0  0  0  0  0  0  0  0  0  0
    1.1664    3.5589   -2.9710 C   0  0  0  0  0  0  0  0  0  0  0  0
    2.2626    3.3982   -3.0295 H   0  0  0  0  0  0  0  0  0  0  0  0
    0.9900    4.6506   -2.8925 H   0  0  0  0  0  0  0  0  0  0  0  0
    0.7247    3.2215   -3.9299 H   0  0  0  0  0  0  0  0  0  0  0  0
   -1.2576    0.8375   -3.1223 C   0  0  0  0  0  0  0  0  0  0  0  0
   -1.8229    0.5906   -2.2011 H   0  0  0  0  0  0  0  0  0  0  0  0
   -1.6090    0.1580   -3.9231 H   0  0  0  0  0  0  0  0  0  0  0  0
   -1.5112    1.8723   -3.4290 H   0  0  0  0  0  0  0  0  0  0  0  0
    2.2318   -3.5062    1.9634 C   0  0  0  0  0  0  0  0  0  0  0  0
    1.5846   -4.2041    2.5179 H   0  0  0  0  0  0  0  0  0  0  0  0
  1 11  1  0  0  0  0
  1  3  1  0  0  0  0
  2  1  1  0  0  0  0
  3  4  1  0  0  0  0
  4  5  2  0  0  0  0
  4  9  1  0  0  0  0
  5  7  1  0  0  0  0
  6  5  1  0  0  0  0
  7 25  2  0  0  0  0
  8  7  1  0  0  0  0
  9 35  2  0  0  0  0
 10  9  1  0  0  0  0
 11 14  1  0  0  0  0
 11 12  1  0  0  0  0
 13 11  1  0  0  0  0
 15 16  1  0  0  0  0
 15  2  1  0  0  0  0
 17 15  1  0  0  0  0
 18 20  1  0  0  0  0
 18  2  1  0  0  0  0
 18 19  1  0  0  0  0
 21 22  1  0  0  0  0
 21  1  1  0  0  0  0
 23 21  1  0  0  0  0
 24 21  1  0  0  0  0
 25 35  1  0  0  0  0
 25 26  1  0  0  0  0
 27 29  1  0  0  0  0
 27 18  1  0  0  0  0
 28 27  1  0  0  0  0
 30 27  1  0  0  0  0
 31 15  1  0  0  0  0
 31 32  1  0  0  0  0
 33 31  1  0  0  0  0
 34 31  1  0  0  0  0
 35 36  1  0  0  0  0
M  END
