2,3
q = -1.0

 27 28  0  0  1  0  0  0  0  0999 V2000
   -2.1530    2.4254   -0.2940 O   0  0  0  0  0  0  0  0  0  0  0  0
   -0.0824    1.7824    0.3998 N   0  0  0  0  0  2  0  0  0  0  0  0
   -1.5371    0.1236    0.1222 N   0  0  0  0  0  2  0  0  0  0  0  0
    0.1291    3.1797    0.0035 C   0  0  0  0  0  0  0  0  0  0  0  0
   -1.3628    3.6370   -0.1792 C   0  0  0  0  0  0  0  0  0  0  0  0
   -1.7298    4.2047    0.7023 H   0  0  0  0  0  0  0  0  0  0  0  0
   -1.5231    4.2370   -1.0955 H   0  0  0  0  0  0  0  0  0  0  0  0
   -1.3243    1.4328    0.0940 C   0  0  2  0  0  3  0  0  0  0  0  0
    0.9233    3.2871   -1.3062 C   0  0  0  0  0  0  0  0  0  0  0  0
    0.4395    2.7022   -2.1109 H   0  0  0  0  0  0  0  0  0  0  0  0
    1.9392    2.8674   -1.1663 H   0  0  0  0  0  0  0  0  0  0  0  0
    1.0223    4.3484   -1.6144 H   0  0  0  0  0  0  0  0  0  0  0  0
    0.8242    3.9613    1.1250 C   0  0  0  0  0  0  0  0  0  0  0  0
    0.2687    3.8595    2.0784 H   0  0  0  0  0  0  0  0  0  0  0  0
    0.9067    5.0385    0.8731 H   0  0  0  0  0  0  0  0  0  0  0  0
    1.8497    3.5693    1.2781 H   0  0  0  0  0  0  0  0  0  0  0  0
   -2.6838   -0.5880   -0.2106 C   0  0  0  0  0  0  0  0  0  0  0  0
   -2.5544   -1.9102   -0.6978 C   0  0  0  0  0  0  0  0  0  0  0  0
   -1.5425   -2.3029   -0.8701 H   0  0  0  0  0  0  0  0  0  0  0  0
   -3.6907   -2.6709   -0.9980 C   0  0  0  0  0  0  0  0  0  0  0  0
   -3.5677   -3.6946   -1.3844 H   0  0  0  0  0  0  0  0  0  0  0  0
   -4.9774   -2.1343   -0.8256 C   0  0  0  0  0  0  0  0  0  0  0  0
   -5.8687   -2.7340   -1.0626 H   0  0  0  0  0  0  0  0  0  0  0  0
   -5.1103   -0.8172   -0.3549 C   0  0  0  0  0  0  0  0  0  0  0  0
   -6.1119   -0.3798   -0.2206 H   0  0  0  0  0  0  0  0  0  0  0  0
   -3.9831   -0.0454   -0.0471 C   0  0  0  0  0  0  0  0  0  0  0  0
   -4.0959    0.9836    0.3209 H   0  0  0  0  0  0  0  0  0  0  0  0
  1  5  1  0  0  0  0
  1  8  1  0  0  0  0
  4  2  1  0  0  0  0
  4 13  1  0  0  0  0
  5  4  1  0  0  0  0
  5  6  1  0  0  0  0
  7  5  1  0  0  0  0
  8  3  1  6  0  0  0
  8  2  1  0  0  0  0
  9 11  1  0  0  0  0
  9  4  1  0  0  0  0
 10  9  1  0  0  0  0
 12  9  1  0  0  0  0
 13 16  1  0  0  0  0
 13 14  1  0  0  0  0
 15 13  1  0  0  0  0
 17 26  1  0  0  0  0
 17  3  1  0  0  0  0
 18 17  2  0  0  0  0
 19 18  1  0  0  0  0
 20 22  2  0  0  0  0
 20 18  1  0  0  0  0
 21 20  1  0  0  0  0
 22 24  1  0  0  0  0
 23 22  1  0  0  0  0
 24 25  1  0  0  0  0
 24 26  2  0  0  0  0
 26 27  1  0  0  0  0
M  END
