3,4
q = 0.0, confidence = 0.998

 28 30  0  0  1  0  0  0  0  0999 V2000
    4.0536    0.3706    0.9656 N   0  0  0  0  0  0  0  0  0  0  0  0
    2.8488   -2.4085   -0.8830 N   0  0  0  0  0  0  0  0  0  0  0  0
    0.4448   -1.0806   -0.5569 N   0  0  0  0  0  2  0  0  0  0  0  0
    0.1400    1.4694   -0.2979 N   0  0  0  0  0  2  0  0  0  0  0  0
    4.1320   -0.5919    0.0229 C   0  0  0  0  0  0  0  0  0  0  0  0
    5.3513   -1.1564   -0.4054 C   0  0  0  0  0  0  0  0  0  0  0  0
    5.3459   -1.9522   -1.1625 H   0  0  0  0  0  0  0  0  0  0  0  0
    6.5384   -0.6807    0.1669 C   0  0  0  0  0  0  0  0  0  0  0  0
    7.5108   -1.0891   -0.1464 H   0  0  0  0  0  0  0  0  0  0  0  0
    6.4632    0.3197    1.1463 C   0  0  0  0  0  0  0  0  0  0  0  0
    7.3694    0.7180    1.6257 H   0  0  0  0  0  0  0  0  0  0  0  0
    5.1944    0.8082    1.5119 C   0  0  0  0  0  0  0  0  0  0  0  0
    5.0998    1.5887    2.2871 H   0  0  0  0  0  0  0  0  0  0  0  0
    2.8427   -1.1218   -0.4948 C   0  0  0  0  0  0  0  0  0  0  0  0
    1.6187   -0.3832   -0.4888 C   0  0  1  0  0  3  0  0  0  0  0  0
    1.6881   -3.0212   -1.1256 C   0  0  0  0  0  0  0  0  0  0  0  0
    1.7196   -4.0571   -1.5022 H   0  0  0  0  0  0  0  0  0  0  0  0
    0.4636   -2.3902   -0.8718 C   0  0  0  0  0  0  0  0  0  0  0  0
   -0.5017   -2.9071   -0.9465 H   0  0  0  0  0  0  0  0  0  0  0  0
    1.4323    1.0739   -0.4981 C   0  0  1  0  0  3  0  0  0  0  0  0
    2.4218    2.0203   -0.8249 C   0  0  0  0  0  0  0  0  0  0  0  0
    3.4430    1.6886   -1.0393 H   0  0  0  0  0  0  0  0  0  0  0  0
    2.0840    3.3732   -0.9006 C   0  0  0  0  0  0  0  0  0  0  0  0
    2.8491    4.1193   -1.1595 H   0  0  0  0  0  0  0  0  0  0  0  0
    0.7568    3.7619   -0.6608 C   0  0  0  0  0  0  0  0  0  0  0  0
    0.4452    4.8141   -0.7160 H   0  0  0  0  0  0  0  0  0  0  0  0
   -0.1910    2.7762   -0.3827 C   0  0  0  0  0  0  0  0  0  0  0  0
   -1.2541    3.0152   -0.2474 H   0  0  0  0  0  0  0  0  0  0  0  0
  1 12  1  0  0  0  0
  2 14  2  0  0  0  0
  5  1  2  0  0  0  0
  6  5  1  0  0  0  0
  6  8  2  0  0  0  0
  7  6  1  0  0  0  0
  8 10  1  0  0  0  0
  9  8  1  0  0  0  0
 10 12  2  0  0  0  0
 10 11  1  0  0  0  0
 12 13  1  0  0  0  0
 14 15  1  0  0  0  0
 14  5  1  0  0  0  0
 15  3  1  6  0  0  0
 16  2  1  0  0  0  0
 16 18  2  0  0  0  0
 17 16  1  0  0  0  0
 18  3  1  0  0  0  0
 19 18  1  0  0  0  0
 20 21  1  6  0  0  0
 20 15  1  0  0  0  0
 20  4  1  0  0  0  0
 22 21  1  0  0  0  0
 23 21  2  0  0  0  0
 23 25  1  0  0  0  0
 24 23  1  0  0  0  0
 25 27  2  0  0  0  0
 26 25  1  0  0  0  0
 27  4  1  0  0  0  0
 27 28  1  0  0  0  0
M  END
