1,3
q = -1.0, confidence = 0.0

 31 32  0  0  0  0  0  0  0  0999 V2000
   -0.2219    1.4582   -0.5510 N   0  0  0  0  0  2  0  0  0  0  0  0
   -1.5567    1.2615   -0.3971 N   0  0  0  0  0  0  0  0  0  0  0  0
   -0.2393   -1.3485   -0.8888 N   0  0  0  0  0  2  0  0  0  0  0  0
   -1.5673   -1.2045   -0.6425 N   0  0  0  0  0  0  0  0  0  0  0  0
   -2.2288    2.2749   -0.9881 C   0  0  0  0  0  3  0  0  0  0  0  0
   -1.3010    3.1684   -1.5434 C   0  0  0  0  0  0  0  0  0  0  0  0
   -0.0497    2.6097   -1.2408 C   0  0  0  0  0  0  0  0  0  0  0  0
   -2.2715   -2.0488   -1.4331 C   0  0  0  0  0  3  0  0  0  0  0  0
   -1.3725   -2.7710   -2.2277 C   0  0  0  0  0  0  0  0  0  0  0  0
   -0.1074   -2.2872   -1.8526 C   0  0  0  0  0  0  0  0  0  0  0  0
   -1.2665   -0.1766    1.7576 C   0  0  0  0  0  0  0  0  0  0  0  0
   -1.4737   -1.5077    2.4800 C   0  0  0  0  0  0  0  0  0  0  0  0
   -3.6649   -0.0854    0.4671 C   0  0  0  0  0  0  0  0  0  0  0  0
   -4.2613    0.8747    1.5054 C   0  0  0  0  0  0  0  0  0  0  0  0
   -2.0476   -0.0544    0.3253 B   0  0  0  0  0  0  0  0  0  0  0  0
   -3.3231    2.3006   -0.9767 H   0  0  0  0  0  0  0  0  0  0  0  0
   -1.5097    4.0947   -2.0869 H   0  0  0  0  0  0  0  0  0  0  0  0
    0.9610    2.9622   -1.4753 H   0  0  0  0  0  0  0  0  0  0  0  0
   -3.3645   -2.0792   -1.3843 H   0  0  0  0  0  0  0  0  0  0  0  0
   -1.6056   -3.5355   -2.9751 H   0  0  0  0  0  0  0  0  0  0  0  0
    0.8846   -2.5526   -2.2338 H   0  0  0  0  0  0  0  0  0  0  0  0
   -0.1572    0.0706    1.7596 H   0  0  0  0  0  0  0  0  0  0  0  0
   -1.6134    0.6641    2.3978 H   0  0  0  0  0  0  0  0  0  0  0  0
   -1.2111   -2.3682    1.8304 H   0  0  0  0  0  0  0  0  0  0  0  0
   -0.8839   -1.5938    3.4160 H   0  0  0  0  0  0  0  0  0  0  0  0
   -2.5409   -1.6344    2.7547 H   0  0  0  0  0  0  0  0  0  0  0  0
   -4.1340    0.1029   -0.5261 H   0  0  0  0  0  0  0  0  0  0  0  0
   -3.9691   -1.1230    0.7300 H   0  0  0  0  0  0  0  0  0  0  0  0
   -3.9623    1.9285    1.3245 H   0  0  0  0  0  0  0  0  0  0  0  0
   -3.9234    0.6255    2.5325 H   0  0  0  0  0  0  0  0  0  0  0  0
   -5.3707    0.8481    1.5171 H   0  0  0  0  0  0  0  0  0  0  0  0
  1  2  1  0  0  0  0
  2 15  1  0  0  0  0
  3  4  1  0  0  0  0
  4 15  1  0  0  0  0
  5 16  1  0  0  0  0
  5  2  1  0  0  0  0
  6  7  2  0  0  0  0
  6  5  1  0  0  0  0
  7  1  1  0  0  0  0
  8 19  1  0  0  0  0
  8  4  1  0  0  0  0
  9 10  2  0  0  0  0
  9  8  1  0  0  0  0
 10  3  1  0  0  0  0
 11 22  1  0  0  0  0
 11 23  1  0  0  0  0
 11 12  1  0  0  0  0
 12 26  1  0  0  0  0
 12 25  1  0  0  0  0
 13 28  1  0  0  0  0
 13 14  1  0  0  0  0
 14 31  1  0  0  0  0
 14 30  1  0  0  0  0
 15 13  1  0  0  0  0
 15 11  1  0  0  0  0
 17  6  1  0  0  0  0
 18  7  1  0  0  0  0
 20  9  1  0  0  0  0
 21 10  1  0  0  0  0
 24 12  1  0  0  0  0
 27 13  1  0  0  0  0
 29 14  1  0  0  0  0
M  END
