1,2
q = 0.0, confidence = 0.992

 62 64  0  0  0  0  0  0  0  0999 V2000
    1.3272    2.8441   -0.1126 N   0  0  0  0  0  2  0  0  0  0  0  0
   -1.3277    2.8443   -0.1119 N   0  0  0  0  0  2  0  0  0  0  0  0
    6.6031   -4.3434   -0.0672 N   0  0  0  0  0  0  0  0  0  0  0  0
   -6.6023   -4.3439   -0.0681 N   0  0  0  0  0  0  0  0  0  0  0  0
    8.0053   -4.5617   -0.3675 C   0  0  0  0  0  0  0  0  0  0  0  0
    8.2563   -5.6230   -0.1930 H   0  0  0  0  0  0  0  0  0  0  0  0
    8.6696   -3.9436    0.2767 H   0  0  0  0  0  0  0  0  0  0  0  0
    8.2474   -4.3230   -1.4274 H   0  0  0  0  0  0  0  0  0  0  0  0
    5.7786   -5.4567    0.3676 C   0  0  0  0  0  0  0  0  0  0  0  0
    6.4005   -6.3671    0.4336 H   0  0  0  0  0  0  0  0  0  0  0  0
    4.9455   -5.6614   -0.3410 H   0  0  0  0  0  0  0  0  0  0  0  0
    5.3313   -5.2747    1.3695 H   0  0  0  0  0  0  0  0  0  0  0  0
    6.0552   -3.0889   -0.2046 C   0  0  0  0  0  0  0  0  0  0  0  0
    6.8410   -1.9774   -0.6334 C   0  0  0  0  0  0  0  0  0  0  0  0
    7.9051   -2.1060   -0.8673 H   0  0  0  0  0  0  0  0  0  0  0  0
    6.2718   -0.7151   -0.7625 C   0  0  0  0  0  0  0  0  0  0  0  0
    6.9041    0.1240   -1.0940 H   0  0  0  0  0  0  0  0  0  0  0  0
    4.9047   -0.4690   -0.4688 C   0  0  0  0  0  0  0  0  0  0  0  0
    4.1202   -1.5850   -0.0588 C   0  0  0  0  0  0  0  0  0  0  0  0
    3.0430   -1.4640    0.1355 H   0  0  0  0  0  0  0  0  0  0  0  0
    4.6721   -2.8516    0.0684 C   0  0  0  0  0  0  0  0  0  0  0  0
    4.0170   -3.6766    0.3746 H   0  0  0  0  0  0  0  0  0  0  0  0
    4.3604    0.8603   -0.6033 C   0  0  0  0  0  3  0  0  0  0  0  0
    5.0253    1.6149   -1.0623 H   0  0  0  0  0  0  0  0  0  0  0  0
    3.1006    1.2543   -0.2165 C   0  0  0  0  0  0  0  0  0  0  0  0
    2.4281    0.5339    0.2756 H   0  0  0  0  0  0  0  0  0  0  0  0
    2.5585    2.5474   -0.4614 C   0  0  0  0  0  0  0  0  0  0  0  0
    3.1843    3.2900   -1.0010 H   0  0  0  0  0  0  0  0  0  0  0  0
    0.7186    4.0779   -0.3458 C   0  0  0  0  0  0  0  0  0  0  0  0
    1.4072    5.2916   -0.5596 C   0  0  0  0  0  0  0  0  0  0  0  0
    2.5061    5.3053   -0.5204 H   0  0  0  0  0  0  0  0  0  0  0  0
    0.7038    6.4800   -0.7801 C   0  0  0  0  0  0  0  0  0  0  0  0
    1.2548    7.4204   -0.9292 H   0  0  0  0  0  0  0  0  0  0  0  0
   -0.7042    6.4800   -0.7797 C   0  0  0  0  0  0  0  0  0  0  0  0
   -1.2553    7.4206   -0.9284 H   0  0  0  0  0  0  0  0  0  0  0  0
   -1.4077    5.2917   -0.5587 C   0  0  0  0  0  0  0  0  0  0  0  0
   -2.5065    5.3055   -0.5189 H   0  0  0  0  0  0  0  0  0  0  0  0
   -0.7190    4.0779   -0.3454 C   0  0  0  0  0  0  0  0  0  0  0  0
   -2.5590    2.5476   -0.4605 C   0  0  0  0  0  0  0  0  0  0  0  0
   -3.1848    3.2902   -1.0000 H   0  0  0  0  0  0  0  0  0  0  0  0
   -3.1011    1.2545   -0.2156 C   0  0  0  0  0  0  0  0  0  0  0  0
   -2.4285    0.5340    0.2763 H   0  0  0  0  0  0  0  0  0  0  0  0
   -4.3609    0.8604   -0.6024 C   0  0  0  0  0  3  0  0  0  0  0  0
   -5.0260    1.6151   -1.0611 H   0  0  0  0  0  0  0  0  0  0  0  0
   -4.9048   -0.4691   -0.4683 C   0  0  0  0  0  0  0  0  0  0  0  0
   -4.1199   -1.5851   -0.0592 C   0  0  0  0  0  0  0  0  0  0  0  0
   -3.0427   -1.4640    0.1346 H   0  0  0  0  0  0  0  0  0  0  0  0
   -4.6715   -2.8518    0.0676 C   0  0  0  0  0  0  0  0  0  0  0  0
   -4.0162   -3.6769    0.3731 H   0  0  0  0  0  0  0  0  0  0  0  0
   -6.0547   -3.0893   -0.2049 C   0  0  0  0  0  0  0  0  0  0  0  0
   -6.8410   -1.9777   -0.6328 C   0  0  0  0  0  0  0  0  0  0  0  0
   -7.9053   -2.1064   -0.8660 H   0  0  0  0  0  0  0  0  0  0  0  0
   -6.2721   -0.7152   -0.7615 C   0  0  0  0  0  0  0  0  0  0  0  0
   -6.9047    0.1239   -1.0922 H   0  0  0  0  0  0  0  0  0  0  0  0
   -5.7776   -5.4572    0.3666 C   0  0  0  0  0  0  0  0  0  0  0  0
   -6.3990   -6.3679    0.4312 H   0  0  0  0  0  0  0  0  0  0  0  0
   -5.3312   -5.2757    1.3689 H   0  0  0  0  0  0  0  0  0  0  0  0
   -4.9438   -5.6608   -0.3415 H   0  0  0  0  0  0  0  0  0  0  0  0
   -8.0049   -4.5622   -0.3669 C   0  0  0  0  0  0  0  0  0  0  0  0
   -8.2553   -5.6239   -0.1937 H   0  0  0  0  0  0  0  0  0  0  0  0
   -8.2483   -4.3220   -1.4261 H   0  0  0  0  0  0  0  0  0  0  0  0
   -8.6685   -3.9452    0.2791 H   0  0  0  0  0  0  0  0  0  0  0  0
  3  9  1  0  0  0  0
  4 55  1  0  0  0  0
  5  6  1  0  0  0  0
  5  3  1  0  0  0  0
  5  7  1  0  0  0  0
  8  5  1  0  0  0  0
  9 10  1  0  0  0  0
  9 12  1  0  0  0  0
 11  9  1  0  0  0  0
 13  3  1  0  0  0  0
 13 21  1  0  0  0  0
 14 13  2  0  0  0  0
 15 14  1  0  0  0  0
 16 14  1  0  0  0  0
 16 18  2  0  0  0  0
 17 16  1  0  0  0  0
 18 19  1  0  0  0  0
 19 21  2  0  0  0  0
 19 20  1  0  0  0  0
 21 22  1  0  0  0  0
 23 18  1  0  0  0  0
 23 25  1  0  0  0  0
 24 23  1  0  0  0  0
 25 26  1  0  0  0  0
 27 25  2  0  0  0  0
 27  1  1  0  0  0  0
 28 27  1  0  0  0  0
 29 38  1  0  0  0  0
 29  1  1  0  0  0  0
 30 31  1  0  0  0  0
 30 29  2  0  0  0  0
 32 34  2  0  0  0  0
 32 30  1  0  0  0  0
 33 32  1  0  0  0  0
 34 36  1  0  0  0  0
 35 34  1  0  0  0  0
 36 37  1  0  0  0  0
 36 38  2  0  0  0  0
 38  2  1  0  0  0  0
 39 41  2  0  0  0  0
 39  2  1  0  0  0  0
 40 39  1  0  0  0  0
 41 42  1  0  0  0  0
 43 45  1  0  0  0  0
 43 41  1  0  0  0  0
 44 43  1  0  0  0  0
 45 46  1  0  0  0  0
 46 48  2  0  0  0  0
 46 47  1  0  0  0  0
 48 49  1  0  0  0  0
 50  4  1  0  0  0  0
 50 48  1  0  0  0  0
 51 50  2  0  0  0  0
 52 51  1  0  0  0  0
 53 51  1  0  0  0  0
 53 45  2  0  0  0  0
 54 53  1  0  0  0  0
 55 56  1  0  0  0  0
 55 57  1  0  0  0  0
 58 55  1  0  0  0  0
 59 60  1  0  0  0  0
 59  4  1  0  0  0  0
 59 62  1  0  0  0  0
 61 59  1  0  0  0  0
M  END
