1,6
q = -1.0

 54 55  0  0  1  0  0  0  0  0999 V2000
    1.2669    1.0838    0.2618 N   0  0  0  0  0  2  0  0  0  0  0  0
    0.9288    2.3082   -0.1447 C   0  0  2  0  0  3  0  0  0  0  0  0
   -0.3873    2.7955   -0.3013 C   0  0  0  0  0  0  0  0  0  0  0  0
   -0.4788    3.8412   -0.6039 H   0  0  0  0  0  0  0  0  0  0  0  0
   -1.5986    2.0738   -0.1859 C   0  0  0  0  0  0  0  0  0  0  0  0
   -1.7074    0.8180    0.2313 N   0  0  0  0  0  2  0  0  0  0  0  0
    2.0496    3.3091   -0.4869 C   0  0  0  0  0  0  0  0  0  0  0  0
    1.5813    4.5513   -0.7395 F   0  0  0  0  0  0  0  0  0  0  0  0
    2.9374    3.4246    0.5303 F   0  0  0  0  0  0  0  0  0  0  0  0
    2.7493    2.9240   -1.5845 F   0  0  0  0  0  0  0  0  0  0  0  0
   -2.8754    2.8357   -0.5885 C   0  0  0  0  0  0  0  0  0  0  0  0
   -2.6419    4.1387   -0.8633 F   0  0  0  0  0  0  0  0  0  0  0  0
   -3.8012    2.8014    0.3999 F   0  0  0  0  0  0  0  0  0  0  0  0
   -3.4505    2.2976   -1.6934 F   0  0  0  0  0  0  0  0  0  0  0  0
    2.5823    0.5558    0.2503 C   0  0  0  0  0  0  0  0  0  0  0  0
    3.0830   -0.0500   -0.9333 C   0  0  0  0  0  0  0  0  0  0  0  0
    4.3628   -0.6337   -0.9016 C   0  0  0  0  0  0  0  0  0  0  0  0
    4.7576   -1.0826   -1.8284 H   0  0  0  0  0  0  0  0  0  0  0  0
    5.1367   -0.6828    0.2715 C   0  0  0  0  0  0  0  0  0  0  0  0
    4.5855   -0.1271    1.4442 C   0  0  0  0  0  0  0  0  0  0  0  0
    5.1609   -0.1705    2.3836 H   0  0  0  0  0  0  0  0  0  0  0  0
    3.3275    0.4976    1.4594 C   0  0  0  0  0  0  0  0  0  0  0  0
    2.2291   -0.1096   -2.1713 C   0  0  0  0  0  0  0  0  0  0  0  0
    2.6852   -0.7567   -2.9446 H   0  0  0  0  0  0  0  0  0  0  0  0
    2.0678    0.8955   -2.6095 H   0  0  0  0  0  0  0  0  0  0  0  0
    1.2195   -0.5060   -1.9276 H   0  0  0  0  0  0  0  0  0  0  0  0
    6.5171   -1.2919    0.2773 C   0  0  0  0  0  0  0  0  0  0  0  0
    6.6724   -1.9654   -0.5890 H   0  0  0  0  0  0  0  0  0  0  0  0
    6.7058   -1.8724    1.2030 H   0  0  0  0  0  0  0  0  0  0  0  0
    7.3029   -0.5075    0.2250 H   0  0  0  0  0  0  0  0  0  0  0  0
    2.7601    1.0958    2.7168 C   0  0  0  0  0  0  0  0  0  0  0  0
    3.3787    0.8471    3.5997 H   0  0  0  0  0  0  0  0  0  0  0  0
    1.7256    0.7316    2.8920 H   0  0  0  0  0  0  0  0  0  0  0  0
    2.6928    2.1997    2.6344 H   0  0  0  0  0  0  0  0  0  0  0  0
   -2.8798    0.0231    0.1811 C   0  0  0  0  0  0  0  0  0  0  0  0
   -3.6410   -0.1796    1.3620 C   0  0  0  0  0  0  0  0  0  0  0  0
   -4.7218   -1.0746    1.3198 C   0  0  0  0  0  0  0  0  0  0  0  0
   -5.3138   -1.2262    2.2375 H   0  0  0  0  0  0  0  0  0  0  0  0
   -5.0635   -1.7868    0.1539 C   0  0  0  0  0  0  0  0  0  0  0  0
   -4.2619   -1.5996   -0.9867 C   0  0  0  0  0  0  0  0  0  0  0  0
   -4.4864   -2.1694   -1.9038 H   0  0  0  0  0  0  0  0  0  0  0  0
   -3.1669   -0.7167   -0.9971 C   0  0  0  0  0  0  0  0  0  0  0  0
   -3.2486    0.5279    2.6295 C   0  0  0  0  0  0  0  0  0  0  0  0
   -3.3207    1.6283    2.5163 H   0  0  0  0  0  0  0  0  0  0  0  0
   -2.1877    0.3080    2.8811 H   0  0  0  0  0  0  0  0  0  0  0  0
   -3.8839    0.2188    3.4809 H   0  0  0  0  0  0  0  0  0  0  0  0
   -6.2572   -2.7088    0.1287 C   0  0  0  0  0  0  0  0  0  0  0  0
   -6.3899   -3.2339    1.0962 H   0  0  0  0  0  0  0  0  0  0  0  0
   -6.1677   -3.4733   -0.6684 H   0  0  0  0  0  0  0  0  0  0  0  0
   -7.1965   -2.1459   -0.0634 H   0  0  0  0  0  0  0  0  0  0  0  0
   -2.2728   -0.5921   -2.2026 C   0  0  0  0  0  0  0  0  0  0  0  0
   -1.2060   -0.7107   -1.9116 H   0  0  0  0  0  0  0  0  0  0  0  0
   -2.3519    0.4100   -2.6700 H   0  0  0  0  0  0  0  0  0  0  0  0
   -2.5194   -1.3517   -2.9688 H   0  0  0  0  0  0  0  0  0  0  0  0
  2  3  1  6  0  0  0
  2  1  1  0  0  0  0
  3  5  2  0  0  0  0
  4  3  1  0  0  0  0
  5  6  1  0  0  0  0
  7  2  1  0  0  0  0
  7  9  1  0  0  0  0
  8  7  1  0  0  0  0
 10  7  1  0  0  0  0
 11  5  1  0  0  0  0
 11 13  1  0  0  0  0
 12 11  1  0  0  0  0
 14 11  1  0  0  0  0
 15  1  1  0  0  0  0
 15 22  1  0  0  0  0
 16 17  1  0  0  0  0
 16 15  2  0  0  0  0
 17 19  2  0  0  0  0
 18 17  1  0  0  0  0
 19 27  1  0  0  0  0
 19 20  1  0  0  0  0
 20 22  2  0  0  0  0
 20 21  1  0  0  0  0
 22 31  1  0  0  0  0
 23 26  1  0  0  0  0
 23 16  1  0  0  0  0
 24 23  1  0  0  0  0
 25 23  1  0  0  0  0
 27 29  1  0  0  0  0
 28 27  1  0  0  0  0
 30 27  1  0  0  0  0
 31 33  1  0  0  0  0
 31 32  1  0  0  0  0
 34 31  1  0  0  0  0
 35  6  1  0  0  0  0
 35 36  1  0  0  0  0
 36 43  1  0  0  0  0
 37 36  2  0  0  0  0
 37 38  1  0  0  0  0
 39 37  1  0  0  0  0
 40 39  2  0  0  0  0
 41 40  1  0  0  0  0
 42 40  1  0  0  0  0
 42 35  2  0  0  0  0
 43 45  1  0  0  0  0
 43 46  1  0  0  0  0
 44 43  1  0  0  0  0
 47 39  1  0  0  0  0
 47 48  1  0  0  0  0
 49 47  1  0  0  0  0
 50 47  1  0  0  0  0
 51 52  1  0  0  0  0
 51 42  1  0  0  0  0
 53 51  1  0  0  0  0
 54 51  1  0  0  0  0
M  END
