1,6
q = -1.0, confidence = 0.008

 36 37  0  0  1  0  0  0  0  0999 V2000
    0.8263    1.5467   -0.5337 N   0  0  0  0  0  2  0  0  0  0  0  0
    0.4223    2.7852   -0.8721 C   0  0  2  0  0  3  0  0  0  0  0  0
   -0.9362    3.1562   -0.9895 C   0  0  0  0  0  0  0  0  0  0  0  0
   -1.1009    4.1924   -1.3134 H   0  0  0  0  0  0  0  0  0  0  0  0
   -2.1242    2.4064   -0.7826 C   0  0  0  0  0  0  0  0  0  0  0  0
   -2.1242    1.1156   -0.4256 N   0  0  0  0  0  2  0  0  0  0  0  0
    1.4601    3.8426   -1.1850 C   0  0  0  0  0  0  0  0  0  0  0  0
    1.9515    4.1955   -0.2554 H   0  0  0  0  0  0  0  0  0  0  0  0
    1.0052    4.7164   -1.6851 H   0  0  0  0  0  0  0  0  0  0  0  0
    2.2564    3.4345   -1.8406 H   0  0  0  0  0  0  0  0  0  0  0  0
   -3.4388    3.1214   -1.0119 C   0  0  0  0  0  0  0  0  0  0  0  0
   -4.1492    2.4753   -1.5661 H   0  0  0  0  0  0  0  0  0  0  0  0
   -3.2931    4.0585   -1.5788 H   0  0  0  0  0  0  0  0  0  0  0  0
   -3.9166    3.3743   -0.0433 H   0  0  0  0  0  0  0  0  0  0  0  0
    2.1673    1.2155   -0.3726 C   0  0  0  0  0  0  0  0  0  0  0  0
    2.7487    0.2010   -1.1778 C   0  0  0  0  0  0  0  0  0  0  0  0
    2.0143   -0.3800   -2.1393 F   0  0  0  0  0  0  0  0  0  0  0  0
    4.0646   -0.2370   -0.9902 C   0  0  0  0  0  0  0  0  0  0  0  0
    4.5639   -1.2244   -1.7489 F   0  0  0  0  0  0  0  0  0  0  0  0
    4.8559    0.3238    0.0263 C   0  0  0  0  0  0  0  0  0  0  0  0
    6.0960   -0.1369    0.2452 F   0  0  0  0  0  0  0  0  0  0  0  0
    4.3132    1.3254    0.8466 C   0  0  0  0  0  0  0  0  0  0  0  0
    5.0453    1.8303    1.8494 F   0  0  0  0  0  0  0  0  0  0  0  0
    2.9893    1.7483    0.6534 C   0  0  0  0  0  0  0  0  0  0  0  0
    2.4915    2.6820    1.4813 F   0  0  0  0  0  0  0  0  0  0  0  0
   -3.2996    0.4118   -0.1545 C   0  0  0  0  0  0  0  0  0  0  0  0
   -4.1502    0.7179    0.9343 C   0  0  0  0  0  0  0  0  0  0  0  0
   -3.8875    1.7896    1.7023 F   0  0  0  0  0  0  0  0  0  0  0  0
   -5.2736   -0.0644    1.2418 C   0  0  0  0  0  0  0  0  0  0  0  0
   -6.0619    0.2620    2.2736 F   0  0  0  0  0  0  0  0  0  0  0  0
   -5.5544   -1.2144    0.4854 C   0  0  0  0  0  0  0  0  0  0  0  0
   -6.6180   -1.9715    0.7780 F   0  0  0  0  0  0  0  0  0  0  0  0
   -4.7215   -1.5515   -0.5964 C   0  0  0  0  0  0  0  0  0  0  0  0
   -4.9917   -2.6396   -1.3276 F   0  0  0  0  0  0  0  0  0  0  0  0
   -3.6082   -0.7551   -0.8968 C   0  0  0  0  0  0  0  0  0  0  0  0
   -2.8220   -1.1085   -1.9227 F   0  0  0  0  0  0  0  0  0  0  0  0
  1 15  1  0  0  0  0
  2  3  1  6  0  0  0
  2  1  1  0  0  0  0
  3  5  2  0  0  0  0
  4  3  1  0  0  0  0
  5  6  1  0  0  0  0
  6 26  1  0  0  0  0
  7  2  1  0  0  0  0
  7  8  1  0  0  0  0
  9  7  1  0  0  0  0
 10  7  1  0  0  0  0
 11  5  1  0  0  0  0
 11 14  1  0  0  0  0
 12 11  1  0  0  0  0
 13 11  1  0  0  0  0
 15 24  1  0  0  0  0
 16 18  1  0  0  0  0
 16 15  2  0  0  0  0
 17 16  1  0  0  0  0
 18 20  2  0  0  0  0
 19 18  1  0  0  0  0
 20 21  1  0  0  0  0
 20 22  1  0  0  0  0
 22 23  1  0  0  0  0
 24 22  2  0  0  0  0
 24 25  1  0  0  0  0
 26 27  1  0  0  0  0
 27 29  2  0  0  0  0
 27 28  1  0  0  0  0
 29 30  1  0  0  0  0
 31 32  1  0  0  0  0
 31 29  1  0  0  0  0
 33 31  2  0  0  0  0
 34 33  1  0  0  0  0
 35 33  1  0  0  0  0
 35 26  2  0  0  0  0
 36 35  1  0  0  0  0
M  END
