3,4
q = -1.0, confidence = 0.0

 16 17  0  0  1  0  0  0  0  0999 V2000
   -0.1084   -3.6366   -1.5635 S   0  0  0  0  0  0  0  0  0  0  0  0
    2.5093   -3.6159   -0.9823 O   0  0  0  0  0  0  0  0  0  0  0  0
    1.5506   -1.6643   -0.5969 N   0  0  0  0  0  2  0  0  0  0  0  0
    2.5588    0.5915    0.4257 N   0  0  0  0  0  2  0  0  0  0  0  0
    3.5092   -2.7784   -0.4742 N   0  0  0  0  0  0  0  0  0  0  0  0
    2.8736   -1.6425   -0.2664 C   0  0  0  0  0  0  0  0  0  0  0  0
    3.4500   -0.4152    0.2919 C   0  0  2  0  0  3  0  0  0  0  0  0
    2.9619    1.7622    0.9387 C   0  0  0  0  0  0  0  0  0  0  0  0
    2.1891    2.5447    1.0186 H   0  0  0  0  0  0  0  0  0  0  0  0
    1.3116   -2.9189   -1.0416 C   0  0  0  0  0  0  0  0  0  0  0  0
    4.2844    1.9847    1.3443 C   0  0  0  0  0  0  0  0  0  0  0  0
    4.5776    2.9587    1.7609 H   0  0  0  0  0  0  0  0  0  0  0  0
    5.2155    0.9409    1.2025 C   0  0  0  0  0  0  0  0  0  0  0  0
    6.2628    1.0832    1.5087 H   0  0  0  0  0  0  0  0  0  0  0  0
    4.7979   -0.2823    0.6681 C   0  0  0  0  0  0  0  0  0  0  0  0
    5.4795   -1.1339    0.5368 H   0  0  0  0  0  0  0  0  0  0  0  0
  1 10  2  0  0  0  0
  2  5  1  0  0  0  0
  3  6  1  0  0  0  0
  4  8  1  0  0  0  0
  5  6  2  0  0  0  0
  7  6  1  1  0  0  0
  7  4  1  0  0  0  0
  7 15  1  0  0  0  0
  8  9  1  0  0  0  0
  8 11  2  0  0  0  0
 10  2  1  0  0  0  0
 10  3  1  0  0  0  0
 11 12  1  0  0  0  0
 13 11  1  0  0  0  0
 13 14  1  0  0  0  0
 15 13  2  0  0  0  0
 16 15  1  0  0  0  0
M  END
