2,5
q = -1.0

 15 15  0  0  0  0  0  0  0  0999 V2000
    2.2475    1.8340   -0.9690 S   0  0  0  0  0  0  0  0  0  0  0  0
    1.8354   -0.5404    0.3031 N   0  0  0  0  0  2  0  0  0  0  0  0
    2.3945    2.9238    0.0470 O   0  0  0  0  0  0  0  0  0  0  0  0
    3.1128    1.9690   -2.1733 O   0  0  0  0  0  0  0  0  0  0  0  0
    0.7120    1.4301   -1.2930 N   0  0  0  0  0  2  0  0  0  0  0  0
    2.2059   -1.6671    0.9368 C   0  0  0  0  0  3  0  0  0  0  0  0
    1.3865   -2.3155    1.2864 H   0  0  0  0  0  0  0  0  0  0  0  0
    2.7781    0.2871   -0.1576 C   0  0  0  0  0  0  0  0  0  0  0  0
    3.5506   -1.9919    1.1416 C   0  0  0  0  0  0  0  0  0  0  0  0
    3.8189   -2.9188    1.6676 H   0  0  0  0  0  0  0  0  0  0  0  0
    4.1506    0.0485   -0.0141 C   0  0  0  0  0  0  0  0  0  0  0  0
    4.8717    0.7600   -0.4396 H   0  0  0  0  0  0  0  0  0  0  0  0
    4.5378   -1.1160    0.6577 C   0  0  0  0  0  0  0  0  0  0  0  0
    5.6046   -1.3479    0.7965 H   0  0  0  0  0  0  0  0  0  0  0  0
    0.2175    2.2651   -1.6345 H   0  0  0  0  0  0  0  0  0  0  0  0
  1  8  1  0  0  0  0
  1  3  2  0  0  0  0
  2  6  1  0  0  0  0
  4  1  2  0  0  0  0
  5  1  1  0  0  0  0
  6  9  1  0  0  0  0
  6  7  1  0  0  0  0
  8 11  2  0  0  0  0
  8  2  1  0  0  0  0
  9 10  1  0  0  0  0
 11 13  1  0  0  0  0
 12 11  1  0  0  0  0
 13 14  1  0  0  0  0
 13  9  2  0  0  0  0
 15  5  1  0  0  0  0
M  END
