3,4
q = -1.0

 16 17  0  0  1  0  0  0  0  0999 V2000
    2.0403    3.4105   -1.4185 O   0  0  0  0  0  0  0  0  0  0  0  0
   -0.1993    3.2495   -1.9634 O   0  0  0  0  0  0  0  0  0  0  0  0
    0.9220    1.6343   -0.6397 N   0  0  0  0  0  2  0  0  0  0  0  0
    1.9341   -0.6530    0.3740 N   0  0  0  0  0  2  0  0  0  0  0  0
    2.9742    2.5875   -0.7960 N   0  0  0  0  0  0  0  0  0  0  0  0
    2.8336    0.3366    0.1869 C   0  0  2  0  0  3  0  0  0  0  0  0
    2.2618    1.5606   -0.3765 C   0  0  0  0  0  0  0  0  0  0  0  0
    0.7570    2.7869   -1.3811 C   0  0  0  0  0  0  0  0  0  0  0  0
    4.2032    0.1708    0.4657 C   0  0  0  0  0  0  0  0  0  0  0  0
    4.8904    1.0093    0.2879 H   0  0  0  0  0  0  0  0  0  0  0  0
    3.6929   -2.0977    1.1381 C   0  0  0  0  0  0  0  0  0  0  0  0
    3.9953   -3.0848    1.5158 H   0  0  0  0  0  0  0  0  0  0  0  0
    2.3507   -1.8406    0.8349 C   0  0  0  0  0  0  0  0  0  0  0  0
    1.5700   -2.6077    0.9686 H   0  0  0  0  0  0  0  0  0  0  0  0
    4.6321   -1.0668    0.9515 C   0  0  0  0  0  0  0  0  0  0  0  0
    5.6951   -1.2338    1.1823 H   0  0  0  0  0  0  0  0  0  0  0  0
  1  8  1  0  0  0  0
  1  5  1  0  0  0  0
  2  8  2  0  0  0  0
  3  7  1  0  0  0  0
  4 13  1  0  0  0  0
  5  7  2  0  0  0  0
  6  7  1  6  0  0  0
  6  4  1  0  0  0  0
  6  9  1  0  0  0  0
  8  3  1  0  0  0  0
  9 15  2  0  0  0  0
 10  9  1  0  0  0  0
 11 12  1  0  0  0  0
 13 14  1  0  0  0  0
 13 11  2  0  0  0  0
 15 11  1  0  0  0  0
 15 16  1  0  0  0  0
M  END
