3,4
q = -1.0

 50 51  0  0  1  0  0  0  0  0999 V2000
   -2.3988    2.3595    0.0002 O   0  0  0  0  0  0  0  0  0  0  0  0
    2.3988    2.3595   -0.0005 O   0  0  0  0  0  0  0  0  0  0  0  0
   -1.4651    0.3045   -0.0002 N   0  0  0  0  0  2  0  0  0  0  0  0
    1.4651    0.3045   -0.0002 N   0  0  0  0  0  2  0  0  0  0  0  0
   -1.2545    1.6267   -0.0000 C   0  0  1  0  0  3  0  0  0  0  0  0
    0.0000    2.2687   -0.0001 C   0  0  0  0  0  0  0  0  0  0  0  0
    0.0000    3.3598   -0.0003 H   0  0  0  0  0  0  0  0  0  0  0  0
    1.2545    1.6267   -0.0003 C   0  0  0  0  0  0  0  0  0  0  0  0
   -2.8335   -0.1323   -0.0001 C   0  0  0  0  0  0  0  0  0  0  0  0
   -3.5042   -0.3757   -1.2119 C   0  0  0  0  0  0  0  0  0  0  0  0
   -2.9764   -0.1862   -2.1582 H   0  0  0  0  0  0  0  0  0  0  0  0
   -4.8153   -0.8686   -1.2065 C   0  0  0  0  0  0  0  0  0  0  0  0
   -5.3229   -1.0614   -2.1653 H   0  0  0  0  0  0  0  0  0  0  0  0
   -5.4959   -1.1295    0.0002 C   0  0  0  0  0  0  0  0  0  0  0  0
   -4.8152   -0.8681    1.2067 C   0  0  0  0  0  0  0  0  0  0  0  0
   -5.3228   -1.0606    2.1656 H   0  0  0  0  0  0  0  0  0  0  0  0
   -3.5041   -0.3753    1.2118 C   0  0  0  0  0  0  0  0  0  0  0  0
   -2.9763   -0.1854    2.1581 H   0  0  0  0  0  0  0  0  0  0  0  0
   -6.8897   -1.7059    0.0003 C   0  0  0  0  0  0  0  0  0  0  0  0
   -7.4609   -1.3959   -0.8973 H   0  0  0  0  0  0  0  0  0  0  0  0
   -7.4611   -1.3948    0.8974 H   0  0  0  0  0  0  0  0  0  0  0  0
   -6.8625   -2.8172    0.0010 H   0  0  0  0  0  0  0  0  0  0  0  0
    2.8335   -0.1323   -0.0001 C   0  0  0  0  0  0  0  0  0  0  0  0
    3.5042   -0.3751    1.2118 C   0  0  0  0  0  0  0  0  0  0  0  0
    2.9764   -0.1851    2.1581 H   0  0  0  0  0  0  0  0  0  0  0  0
    4.8152   -0.8679    1.2068 C   0  0  0  0  0  0  0  0  0  0  0  0
    5.3229   -1.0603    2.1656 H   0  0  0  0  0  0  0  0  0  0  0  0
    5.4959   -1.1295    0.0002 C   0  0  0  0  0  0  0  0  0  0  0  0
    4.8152   -0.8687   -1.2065 C   0  0  0  0  0  0  0  0  0  0  0  0
    5.3228   -1.0617   -2.1652 H   0  0  0  0  0  0  0  0  0  0  0  0
    3.5041   -0.3759   -1.2118 C   0  0  0  0  0  0  0  0  0  0  0  0
    2.9764   -0.1865   -2.1582 H   0  0  0  0  0  0  0  0  0  0  0  0
    6.8897   -1.7059    0.0004 C   0  0  0  0  0  0  0  0  0  0  0  0
    7.4609   -1.3953    0.8977 H   0  0  0  0  0  0  0  0  0  0  0  0
    7.4610   -1.3955   -0.8969 H   0  0  0  0  0  0  0  0  0  0  0  0
    6.8625   -2.8173    0.0005 H   0  0  0  0  0  0  0  0  0  0  0  0
   -2.3737    3.7851    0.0000 C   0  0  0  0  0  0  0  0  0  0  0  0
   -1.8290    4.1543   -0.8989 H   0  0  0  0  0  0  0  0  0  0  0  0
   -1.8288    4.1546    0.8988 H   0  0  0  0  0  0  0  0  0  0  0  0
   -3.8133    4.2633    0.0001 C   0  0  0  0  0  0  0  0  0  0  0  0
   -4.3478    3.8922   -0.8961 H   0  0  0  0  0  0  0  0  0  0  0  0
   -3.8492    5.3705   -0.0000 H   0  0  0  0  0  0  0  0  0  0  0  0
   -4.3477    3.8924    0.8966 H   0  0  0  0  0  0  0  0  0  0  0  0
    2.3737    3.7850   -0.0001 C   0  0  0  0  0  0  0  0  0  0  0  0
    1.8289    4.1542    0.8988 H   0  0  0  0  0  0  0  0  0  0  0  0
    1.8289    4.1547   -0.8988 H   0  0  0  0  0  0  0  0  0  0  0  0
    3.8134    4.2633   -0.0000 C   0  0  0  0  0  0  0  0  0  0  0  0
    4.3478    3.8920    0.8962 H   0  0  0  0  0  0  0  0  0  0  0  0
    3.8492    5.3705    0.0003 H   0  0  0  0  0  0  0  0  0  0  0  0
    4.3477    3.8925   -0.8965 H   0  0  0  0  0  0  0  0  0  0  0  0
  2  8  1  0  0  0  0
  2 44  1  0  0  0  0
  3  9  1  0  0  0  0
  4 23  1  0  0  0  0
  5  3  1  6  0  0  0
  5  1  1  0  0  0  0
  6  5  1  0  0  0  0
  7  6  1  0  0  0  0
  8  4  1  0  0  0  0
  8  6  2  0  0  0  0
  9 17  1  0  0  0  0
 10 12  1  0  0  0  0
 10  9  2  0  0  0  0
 11 10  1  0  0  0  0
 12 14  2  0  0  0  0
 13 12  1  0  0  0  0
 14 19  1  0  0  0  0
 14 15  1  0  0  0  0
 15 17  2  0  0  0  0
 15 16  1  0  0  0  0
 17 18  1  0  0  0  0
 19 22  1  0  0  0  0
 19 21  1  0  0  0  0
 20 19  1  0  0  0  0
 23 24  1  0  0  0  0
 24 25  1  0  0  0  0
 26 24  2  0  0  0  0
 26 27  1  0  0  0  0
 28 33  1  0  0  0  0
 28 26  1  0  0  0  0
 29 28  2  0  0  0  0
 30 29  1  0  0  0  0
 31 29  1  0  0  0  0
 31 23  2  0  0  0  0
 32 31  1  0  0  0  0
 33 36  1  0  0  0  0
 33 34  1  0  0  0  0
 35 33  1  0  0  0  0
 37 40  1  0  0  0  0
 37  1  1  0  0  0  0
 37 39  1  0  0  0  0
 38 37  1  0  0  0  0
 40 43  1  0  0  0  0
 41 40  1  0  0  0  0
 42 40  1  0  0  0  0
 44 47  1  0  0  0  0
 44 45  1  0  0  0  0
 46 44  1  0  0  0  0
 47 49  1  0  0  0  0
 47 48  1  0  0  0  0
 50 47  1  0  0  0  0
M  END
