1,2
q = -1.0

 52 53  0  0  1  0  0  0  0  0999 V2000
    1.3679   -0.6231   -0.1032 N   0  0  0  0  0  2  0  0  0  0  0  0
   -1.3605   -0.5632   -0.0827 N   0  0  0  0  0  2  0  0  0  0  0  0
    2.3318   -1.6081   -2.0139 N   0  0  0  0  0  0  0  0  0  0  0  0
   -2.4307   -1.6462   -1.8832 N   0  0  0  0  0  0  0  0  0  0  0  0
    1.2171   -1.3600   -1.2367 C   0  0  1  0  0  3  0  0  0  0  0  0
   -0.0382   -1.9052   -1.6215 C   0  0  0  0  0  0  0  0  0  0  0  0
   -0.0508   -2.7503   -2.3202 H   0  0  0  0  0  0  0  0  0  0  0  0
   -1.2728   -1.3566   -1.1886 C   0  0  0  0  0  0  0  0  0  0  0  0
    2.1422    0.5526   -0.1009 C   0  0  0  0  0  0  0  0  0  0  0  0
    2.2296    1.3749   -1.2516 C   0  0  0  0  0  0  0  0  0  0  0  0
    1.6776    1.0870   -2.1587 H   0  0  0  0  0  0  0  0  0  0  0  0
    2.9881    2.5509   -1.2411 C   0  0  0  0  0  0  0  0  0  0  0  0
    3.0316    3.1678   -2.1536 H   0  0  0  0  0  0  0  0  0  0  0  0
    3.6771    2.9773   -0.0875 C   0  0  0  0  0  0  0  0  0  0  0  0
    3.5727    2.1649    1.0604 C   0  0  0  0  0  0  0  0  0  0  0  0
    4.0946    2.4652    1.9834 H   0  0  0  0  0  0  0  0  0  0  0  0
    2.8252    0.9823    1.0605 C   0  0  0  0  0  0  0  0  0  0  0  0
    2.7697    0.3738    1.9733 H   0  0  0  0  0  0  0  0  0  0  0  0
    4.4551    4.2688   -0.0652 C   0  0  0  0  0  0  0  0  0  0  0  0
    4.7715    4.5735   -1.0824 H   0  0  0  0  0  0  0  0  0  0  0  0
    5.3627    4.1888    0.5667 H   0  0  0  0  0  0  0  0  0  0  0  0
    3.8460    5.1013    0.3503 H   0  0  0  0  0  0  0  0  0  0  0  0
   -2.1077    0.6254   -0.0897 C   0  0  0  0  0  0  0  0  0  0  0  0
   -2.6031    1.1840    1.1133 C   0  0  0  0  0  0  0  0  0  0  0  0
   -2.4103    0.6663    2.0629 H   0  0  0  0  0  0  0  0  0  0  0  0
   -3.3239    2.3821    1.1116 C   0  0  0  0  0  0  0  0  0  0  0  0
   -3.6946    2.7806    2.0699 H   0  0  0  0  0  0  0  0  0  0  0  0
   -3.5857    3.0911   -0.0794 C   0  0  0  0  0  0  0  0  0  0  0  0
   -3.0788    2.5424   -1.2740 C   0  0  0  0  0  0  0  0  0  0  0  0
   -3.2453    3.0756   -2.2244 H   0  0  0  0  0  0  0  0  0  0  0  0
   -2.3503    1.3472   -1.2864 C   0  0  0  0  0  0  0  0  0  0  0  0
   -1.9471    0.9663   -2.2363 H   0  0  0  0  0  0  0  0  0  0  0  0
   -4.3395    4.3970   -0.0628 C   0  0  0  0  0  0  0  0  0  0  0  0
   -3.7080    5.2265    0.3234 H   0  0  0  0  0  0  0  0  0  0  0  0
   -5.2338    4.3453    0.5918 H   0  0  0  0  0  0  0  0  0  0  0  0
   -4.6769    4.6864   -1.0776 H   0  0  0  0  0  0  0  0  0  0  0  0
    3.6742   -1.5531   -1.4650 C   0  0  0  0  0  0  0  0  0  0  0  0
    4.1960   -0.6018   -1.7146 H   0  0  0  0  0  0  0  0  0  0  0  0
    4.2692   -2.4012   -1.8655 H   0  0  0  0  0  0  0  0  0  0  0  0
    3.6302   -1.6360   -0.3644 H   0  0  0  0  0  0  0  0  0  0  0  0
    2.2380   -1.9366   -3.4214 C   0  0  0  0  0  0  0  0  0  0  0  0
    2.3792   -3.0246   -3.6175 H   0  0  0  0  0  0  0  0  0  0  0  0
    3.0208   -1.3865   -3.9876 H   0  0  0  0  0  0  0  0  0  0  0  0
    1.2501   -1.6340   -3.8154 H   0  0  0  0  0  0  0  0  0  0  0  0
   -2.4161   -2.0808   -3.2649 C   0  0  0  0  0  0  0  0  0  0  0  0
   -1.4776   -1.7595   -3.7542 H   0  0  0  0  0  0  0  0  0  0  0  0
   -3.2666   -1.6186   -3.8100 H   0  0  0  0  0  0  0  0  0  0  0  0
   -2.5068   -3.1870   -3.3689 H   0  0  0  0  0  0  0  0  0  0  0  0
   -3.7376   -1.5614   -1.2574 C   0  0  0  0  0  0  0  0  0  0  0  0
   -3.6247   -1.5608   -0.1585 H   0  0  0  0  0  0  0  0  0  0  0  0
   -4.3465   -2.4410   -1.5555 H   0  0  0  0  0  0  0  0  0  0  0  0
   -4.2835   -0.6342   -1.5438 H   0  0  0  0  0  0  0  0  0  0  0  0
  1  9  1  0  0  0  0
  3 37  1  0  0  0  0
  3  5  1  0  0  0  0
  4 49  1  0  0  0  0
  4  8  1  0  0  0  0
  5  6  1  1  0  0  0
  5  1  1  0  0  0  0
  6  8  2  0  0  0  0
  7  6  1  0  0  0  0
  8  2  1  0  0  0  0
  9 17  1  0  0  0  0
 10 12  1  0  0  0  0
 10  9  2  0  0  0  0
 11 10  1  0  0  0  0
 12 14  2  0  0  0  0
 13 12  1  0  0  0  0
 14 19  1  0  0  0  0
 14 15  1  0  0  0  0
 15 17  2  0  0  0  0
 15 16  1  0  0  0  0
 17 18  1  0  0  0  0
 19 22  1  0  0  0  0
 19 21  1  0  0  0  0
 20 19  1  0  0  0  0
 23  2  1  0  0  0  0
 23 24  1  0  0  0  0
 24 25  1  0  0  0  0
 26 24  2  0  0  0  0
 26 27  1  0  0  0  0
 28 33  1  0  0  0  0
 28 26  1  0  0  0  0
 29 28  2  0  0  0  0
 30 29  1  0  0  0  0
 31 29  1  0  0  0  0
 31 23  2  0  0  0  0
 32 31  1  0  0  0  0
 33 34  1  0  0  0  0
 33 35  1  0  0  0  0
 36 33  1  0  0  0  0
 37 40  1  0  0  0  0
 38 37  1  0  0  0  0
 39 37  1  0  0  0  0
 41  3  1  0  0  0  0
 42 41  1  0  0  0  0
 43 41  1  0  0  0  0
 44 41  1  0  0  0  0
 45  4  1  0  0  0  0
 46 45  1  0  0  0  0
 47 45  1  0  0  0  0
 48 45  1  0  0  0  0
 49 50  1  0  0  0  0
 51 49  1  0  0  0  0
 52 49  1  0  0  0  0
M  END
