2,7
q = 0.0, confidence = 0.988

 34 35  0  0  0  0  0  0  0  0999 V2000
    4.9682    1.4041   -1.3468 F   0  0  0  0  0  0  0  0  0  0  0  0
    1.3722    1.5830    0.0789 N   0  0  0  0  0  2  0  0  0  0  0  0
    3.6330    0.6918    0.4758 C   0  0  0  0  0  0  0  0  0  0  0  0
    7.2161   -0.4553   -0.9840 Cl  0  0  0  0  0  0  0  0  0  0  0  0
   -5.1941    1.3183    1.2699 F   0  0  0  0  0  0  0  0  0  0  0  0
    4.8113    0.5920   -0.2927 C   0  0  0  0  0  0  0  0  0  0  0  0
   -1.4226    1.4967    0.2788 N   0  0  0  0  0  2  0  0  0  0  0  0
   -7.4288   -0.4435    0.5301 Cl  0  0  0  0  0  0  0  0  0  0  0  0
    5.8047   -0.3528    0.0164 C   0  0  0  0  0  0  0  0  0  0  0  0
    5.6312   -1.1949    1.1260 C   0  0  0  0  0  0  0  0  0  0  0  0
    6.4120   -1.9334    1.3558 H   0  0  0  0  0  0  0  0  0  0  0  0
    4.4806   -1.0792    1.9205 C   0  0  0  0  0  0  0  0  0  0  0  0
    4.3580   -1.7307    2.7974 H   0  0  0  0  0  0  0  0  0  0  0  0
    3.4883   -0.1464    1.6035 C   0  0  0  0  0  0  0  0  0  0  0  0
    2.5957   -0.0485    2.2334 H   0  0  0  0  0  0  0  0  0  0  0  0
    2.6580    1.7273    0.1162 C   0  0  0  0  0  3  0  0  0  0  0  0
    3.0806    2.7202   -0.1455 H   0  0  0  0  0  0  0  0  0  0  0  0
    0.5698    2.7784   -0.2030 C   0  0  0  0  0  0  0  0  0  0  0  0
    0.2769    2.7273   -1.2749 H   0  0  0  0  0  0  0  0  0  0  0  0
    1.1399    3.7115   -0.0114 H   0  0  0  0  0  0  0  0  0  0  0  0
   -0.6873    2.7117    0.6585 C   0  0  0  0  0  0  0  0  0  0  0  0
   -0.4028    2.6384    1.7307 H   0  0  0  0  0  0  0  0  0  0  0  0
   -1.3076    3.6219    0.5180 H   0  0  0  0  0  0  0  0  0  0  0  0
   -2.7062    1.6178    0.1367 C   0  0  0  0  0  3  0  0  0  0  0  0
   -3.1681    2.5841    0.4300 H   0  0  0  0  0  0  0  0  0  0  0  0
   -3.6367    0.6107   -0.3758 C   0  0  0  0  0  0  0  0  0  0  0  0
   -3.3582   -0.1979   -1.5015 C   0  0  0  0  0  0  0  0  0  0  0  0
   -2.3770   -0.1000   -1.9967 H   0  0  0  0  0  0  0  0  0  0  0  0
   -4.3294   -1.0827   -1.9820 C   0  0  0  0  0  0  0  0  0  0  0  0
   -4.1056   -1.7117   -2.8555 H   0  0  0  0  0  0  0  0  0  0  0  0
   -5.5845   -1.1782   -1.3625 C   0  0  0  0  0  0  0  0  0  0  0  0
   -6.3505   -1.8775   -1.7265 H   0  0  0  0  0  0  0  0  0  0  0  0
   -5.8856   -0.3644   -0.2580 C   0  0  0  0  0  0  0  0  0  0  0  0
   -4.9151    0.5309    0.2193 C   0  0  0  0  0  0  0  0  0  0  0  0
  1  6  1  0  0  0  0
  2 16  1  0  0  0  0
  3 14  1  0  0  0  0
  4  9  1  0  0  0  0
  6  9  1  0  0  0  0
  6  3  2  0  0  0  0
  7 21  1  0  0  0  0
  9 10  2  0  0  0  0
 10 11  1  0  0  0  0
 10 12  1  0  0  0  0
 12 13  1  0  0  0  0
 14 12  2  0  0  0  0
 14 15  1  0  0  0  0
 16  3  1  0  0  0  0
 17 16  1  0  0  0  0
 18 20  1  0  0  0  0
 18  2  1  0  0  0  0
 18 21  1  0  0  0  0
 19 18  1  0  0  0  0
 21 22  1  0  0  0  0
 23 21  1  0  0  0  0
 24  7  1  0  0  0  0
 24 25  1  0  0  0  0
 26 24  1  0  0  0  0
 26 34  1  0  0  0  0
 27 26  2  0  0  0  0
 28 27  1  0  0  0  0
 29 27  1  0  0  0  0
 29 31  2  0  0  0  0
 30 29  1  0  0  0  0
 31 33  1  0  0  0  0
 32 31  1  0  0  0  0
 33 34  2  0  0  0  0
 33  8  1  0  0  0  0
 34  5  1  0  0  0  0
M  END
