3,16
q = 0.0, confidence = 0.976

 40 41  0  0  0  0  0  0  0  0999 V2000
   -4.8566   -3.1563   -0.0525 Cl  0  0  0  0  0  0  0  0  0  0  0  0
    5.2032   -2.9672   -0.2343 Cl  0  0  0  0  0  0  0  0  0  0  0  0
    1.4481   -1.7860    0.9342 N   0  0  0  0  0  2  0  0  0  0  0  0
   -3.4637    0.5751    0.5708 C   0  0  0  0  0  0  0  0  0  0  0  0
   -2.5922    1.0385    1.0647 H   0  0  0  0  0  0  0  0  0  0  0  0
    4.8734   -1.2562   -0.1220 C   0  0  0  0  0  0  0  0  0  0  0  0
    5.7936   -0.3504   -0.6634 C   0  0  0  0  0  0  0  0  0  0  0  0
    6.7101   -0.7279   -1.1369 H   0  0  0  0  0  0  0  0  0  0  0  0
   -5.6739   -0.6349   -0.6890 C   0  0  0  0  0  0  0  0  0  0  0  0
   -6.5254   -1.1205   -1.1850 H   0  0  0  0  0  0  0  0  0  0  0  0
   -5.5356    0.7599   -0.6907 C   0  0  0  0  0  0  0  0  0  0  0  0
   -6.2898    1.3859   -1.1872 H   0  0  0  0  0  0  0  0  0  0  0  0
   -0.5416   -2.2602    2.2406 C   0  0  0  0  0  0  0  0  0  0  0  0
   -1.1389   -3.0380    2.7627 H   0  0  0  0  0  0  0  0  0  0  0  0
   -0.2524   -1.4787    2.9776 H   0  0  0  0  0  0  0  0  0  0  0  0
   -1.3318   -1.5751    1.2114 N   0  0  0  0  0  2  0  0  0  0  0  0
    0.7194   -2.8540    1.6324 C   0  0  0  0  0  0  0  0  0  0  0  0
    1.3436   -3.3237    2.4216 H   0  0  0  0  0  0  0  0  0  0  0  0
    0.4503   -3.6360    0.8896 H   0  0  0  0  0  0  0  0  0  0  0  0
    3.6667   -0.8110    0.4752 C   0  0  0  0  0  0  0  0  0  0  0  0
   -4.7054   -1.4187   -0.0504 C   0  0  0  0  0  0  0  0  0  0  0  0
    4.3440    1.4839    0.0007 C   0  0  0  0  0  0  0  0  0  0  0  0
   -3.5813   -0.8285    0.5735 C   0  0  0  0  0  0  0  0  0  0  0  0
   -2.6191   -1.6493    1.3206 C   0  0  0  0  0  3  0  0  0  0  0  0
   -3.0499   -2.3496    2.0685 H   0  0  0  0  0  0  0  0  0  0  0  0
    2.7393   -1.7903    1.0520 C   0  0  0  0  0  3  0  0  0  0  0  0
    3.2108   -2.6256    1.6106 H   0  0  0  0  0  0  0  0  0  0  0  0
    4.0142    2.9606    0.0434 C   0  0  0  0  0  0  0  0  0  0  0  0
    3.4267    0.5756    0.5444 C   0  0  0  0  0  0  0  0  0  0  0  0
    2.5016    0.9371    1.0265 H   0  0  0  0  0  0  0  0  0  0  0  0
   -4.4376    1.3636   -0.0577 C   0  0  0  0  0  0  0  0  0  0  0  0
    5.5231    1.0230   -0.6061 C   0  0  0  0  0  0  0  0  0  0  0  0
    6.2355    1.7425   -1.0329 H   0  0  0  0  0  0  0  0  0  0  0  0
   -4.2609    2.8667   -0.0647 C   0  0  0  0  0  0  0  0  0  0  0  0
   -4.0617    3.3385    1.1887 F   0  0  0  0  0  0  0  0  0  0  0  0
   -5.3484    3.4968   -0.5718 F   0  0  0  0  0  0  0  0  0  0  0  0
   -3.1937    3.2342   -0.8063 F   0  0  0  0  0  0  0  0  0  0  0  0
    5.0645    3.7196   -0.3568 F   0  0  0  0  0  0  0  0  0  0  0  0
    3.6782    3.3528    1.2929 F   0  0  0  0  0  0  0  0  0  0  0  0
    2.9717    3.2508   -0.7662 F   0  0  0  0  0  0  0  0  0  0  0  0
  1 21  1  0  0  0  0
  2  6  1  0  0  0  0
  3 26  1  0  0  0  0
  3 17  1  0  0  0  0
  4 23  1  0  0  0  0
  4  5  1  0  0  0  0
  6 20  1  0  0  0  0
  7 32  1  0  0  0  0
  7  6  2  0  0  0  0
  8  7  1  0  0  0  0
  9 21  1  0  0  0  0
 10  9  1  0  0  0  0
 11  9  2  0  0  0  0
 11 31  1  0  0  0  0
 12 11  1  0  0  0  0
 13 14  1  0  0  0  0
 13 15  1  0  0  0  0
 16 24  1  0  0  0  0
 16 13  1  0  0  0  0
 17 13  1  0  0  0  0
 17 18  1  0  0  0  0
 19 17  1  0  0  0  0
 20 29  2  0  0  0  0
 20 26  1  0  0  0  0
 21 23  2  0  0  0  0
 22 28  1  0  0  0  0
 22 29  1  0  0  0  0
 23 24  1  0  0  0  0
 24 25  1  0  0  0  0
 26 27  1  0  0  0  0
 28 39  1  0  0  0  0
 29 30  1  0  0  0  0
 31  4  2  0  0  0  0
 32 22  2  0  0  0  0
 33 32  1  0  0  0  0
 34 31  1  0  0  0  0
 34 35  1  0  0  0  0
 36 34  1  0  0  0  0
 37 34  1  0  0  0  0
 38 28  1  0  0  0  0
 40 28  1  0  0  0  0
M  END
