1,2
q = -1.0, confidence = 0.0

 30 31  0  0  1  0  0  0  0  0999 V2000
    1.5506    0.9544   -0.5204 N   0  0  0  0  0  2  0  0  0  0  0  0
    1.4323   -1.0193    1.3483 N   0  0  0  0  0  2  0  0  0  0  0  0
    1.3138    2.1612   -1.7856 Si  0  0  0  0  0  0  0  0  0  0  0  0
    2.7254    0.4875   -0.0192 C   0  0  0  0  0  0  0  0  0  0  0  0
    1.2860   -1.9891    2.2521 C   0  0  0  0  0  0  0  0  0  0  0  0
    2.6698   -0.5717    0.9896 C   0  0  2  0  0  3  0  0  0  0  0  0
    2.0300    1.5601   -3.4342 C   0  0  0  0  0  0  0  0  0  0  0  0
   -0.5586    2.3577   -1.9523 C   0  0  0  0  0  0  0  0  0  0  0  0
    2.0616    3.8402   -1.3209 C   0  0  0  0  0  0  0  0  0  0  0  0
    4.0291    0.9173   -0.3748 C   0  0  0  0  0  0  0  0  0  0  0  0
    2.3997   -2.5910    2.8822 C   0  0  0  0  0  0  0  0  0  0  0  0
    0.2541   -2.3020    2.4801 H   0  0  0  0  0  0  0  0  0  0  0  0
    3.8618   -1.1282    1.5776 C   0  0  0  0  0  0  0  0  0  0  0  0
    3.1166    1.3522   -3.3631 H   0  0  0  0  0  0  0  0  0  0  0  0
    1.5298    0.6209   -3.7491 H   0  0  0  0  0  0  0  0  0  0  0  0
    1.8785    2.3131   -4.2353 H   0  0  0  0  0  0  0  0  0  0  0  0
   -1.0528    1.3809   -2.1356 H   0  0  0  0  0  0  0  0  0  0  0  0
   -1.0018    2.7875   -1.0305 H   0  0  0  0  0  0  0  0  0  0  0  0
   -0.8107    3.0331   -2.7956 H   0  0  0  0  0  0  0  0  0  0  0  0
    1.6590    4.1807   -0.3447 H   0  0  0  0  0  0  0  0  0  0  0  0
    3.1662    3.8108   -1.2360 H   0  0  0  0  0  0  0  0  0  0  0  0
    1.8015    4.6050   -2.0823 H   0  0  0  0  0  0  0  0  0  0  0  0
    5.1871    0.3654    0.2100 C   0  0  0  0  0  0  0  0  0  0  0  0
    4.1402    1.7072   -1.1308 H   0  0  0  0  0  0  0  0  0  0  0  0
    3.6754   -2.1585    2.5440 C   0  0  0  0  0  0  0  0  0  0  0  0
    2.2434   -3.3875    3.6236 H   0  0  0  0  0  0  0  0  0  0  0  0
    5.1323   -0.6407    1.1738 C   0  0  0  0  0  0  0  0  0  0  0  0
    6.1681    0.7482   -0.1134 H   0  0  0  0  0  0  0  0  0  0  0  0
    4.5624   -2.6093    3.0166 H   0  0  0  0  0  0  0  0  0  0  0  0
    6.0454   -1.0619    1.6184 H   0  0  0  0  0  0  0  0  0  0  0  0
  1  4  1  0  0  0  0
  2  5  1  0  0  0  0
  3  9  1  0  0  0  0
  3  1  1  0  0  0  0
  5 12  1  0  0  0  0
  5 11  2  0  0  0  0
  6  4  1  6  0  0  0
  6  2  1  0  0  0  0
  6 13  1  0  0  0  0
  7 14  1  0  0  0  0
  7  3  1  0  0  0  0
  8  3  1  0  0  0  0
  8 18  1  0  0  0  0
  9 21  1  0  0  0  0
  9 20  1  0  0  0  0
 10  4  2  0  0  0  0
 10 23  1  0  0  0  0
 11 26  1  0  0  0  0
 13 25  2  0  0  0  0
 15  7  1  0  0  0  0
 16  7  1  0  0  0  0
 17  8  1  0  0  0  0
 19  8  1  0  0  0  0
 22  9  1  0  0  0  0
 23 27  2  0  0  0  0
 24 10  1  0  0  0  0
 25 11  1  0  0  0  0
 25 29  1  0  0  0  0
 27 13  1  0  0  0  0
 27 30  1  0  0  0  0
 28 23  1  0  0  0  0
M  END
