1,7
q = 0.0, confidence = 0.996

 28 30  0  0  1  0  0  0  0  0999 V2000
   -2.0303    1.2471    0.1602 N   0  0  0  0  0  2  0  0  0  0  0  0
   -1.1792    2.3025   -0.0857 C   0  0  0  0  0  0  0  0  0  0  0  0
   -1.6000    3.6410    0.0568 C   0  0  0  0  0  0  0  0  0  0  0  0
   -2.9125    3.9115    0.4457 C   0  0  0  0  0  0  0  0  0  0  0  0
   -3.7821    2.8296    0.6832 C   0  0  0  0  0  0  0  0  0  0  0  0
   -3.3031    1.5277    0.5310 C   0  0  0  0  0  0  0  0  0  0  0  0
    0.3842    0.6087   -0.5605 N   0  0  0  0  0  2  0  0  0  0  0  0
    0.1491    1.9055   -0.5061 C   0  0  0  0  0  0  0  0  0  0  0  0
    1.1820    2.7891   -0.8422 N   0  0  0  0  0  0  0  0  0  0  0  0
    2.4681    2.4201   -0.4049 N   0  0  0  0  0  2  0  0  0  0  0  0
    2.6726    1.1453   -0.5156 C   0  0  2  0  0  3  0  0  0  0  0  0
    1.6701    0.2813   -0.9910 N   0  0  0  0  0  0  0  0  0  0  0  0
    3.9519   -0.8346   -0.1785 N   0  0  0  0  0  0  0  0  0  0  0  0
    3.9505    0.5135   -0.1344 C   0  0  0  0  0  0  0  0  0  0  0  0
    5.0750    1.2753    0.2442 C   0  0  0  0  0  0  0  0  0  0  0  0
    6.2414    0.5912    0.5984 C   0  0  0  0  0  0  0  0  0  0  0  0
    6.2475   -0.8140    0.5599 C   0  0  0  0  0  0  0  0  0  0  0  0
    5.0764   -1.4786    0.1619 C   0  0  0  0  0  0  0  0  0  0  0  0
   -0.9005    4.4665   -0.1393 H   0  0  0  0  0  0  0  0  0  0  0  0
   -3.2572    4.9490    0.5621 H   0  0  0  0  0  0  0  0  0  0  0  0
   -4.8256    2.9896    0.9877 H   0  0  0  0  0  0  0  0  0  0  0  0
   -3.9470    0.6551    0.7147 H   0  0  0  0  0  0  0  0  0  0  0  0
    1.0078    3.7727   -0.6308 H   0  0  0  0  0  0  0  0  0  0  0  0
    1.9016   -0.7097   -0.8198 H   0  0  0  0  0  0  0  0  0  0  0  0
    5.0067    2.3719    0.2536 H   0  0  0  0  0  0  0  0  0  0  0  0
    7.1411    1.1467    0.9034 H   0  0  0  0  0  0  0  0  0  0  0  0
    7.1451   -1.3880    0.8325 H   0  0  0  0  0  0  0  0  0  0  0  0
    5.0409   -2.5807    0.1165 H   0  0  0  0  0  0  0  0  0  0  0  0
  1  6  1  0  0  0  0
  2  3  1  0  0  0  0
  2  1  1  0  0  0  0
  3  4  2  0  0  0  0
  4 20  1  0  0  0  0
  4  5  1  0  0  0  0
  5 21  1  0  0  0  0
  6  5  2  0  0  0  0
  6 22  1  0  0  0  0
  7  8  1  0  0  0  0
  8  2  2  0  0  0  0
  9 23  1  0  0  0  0
  9  8  1  0  0  0  0
  9 10  1  0  0  0  0
 11 10  1  0  0  0  0
 11 14  1  1  0  0  0
 12 24  1  0  0  0  0
 12  7  1  0  0  0  0
 12 11  1  0  0  0  0
 13 14  2  0  0  0  0
 13 18  1  0  0  0  0
 14 15  1  0  0  0  0
 15 25  1  0  0  0  0
 15 16  2  0  0  0  0
 16 26  1  0  0  0  0
 17 16  1  0  0  0  0
 17 27  1  0  0  0  0
 18 17  2  0  0  0  0
 19  3  1  0  0  0  0
 28 18  1  0  0  0  0
M  END
