1,2
q = 0.0, confidence = 0.992

 40 41  0  0  0  0  0  0  0  0999 V2000
   -1.2584   -1.7712   -0.7380 N   0  0  0  0  0  2  0  0  0  0  0  0
    1.3103   -1.8223    0.2987 N   0  0  0  0  0  2  0  0  0  0  0  0
   -0.6048   -2.8987   -0.6277 C   0  0  0  0  0  3  0  0  0  0  0  0
   -1.0877   -3.8723   -0.8303 H   0  0  0  0  0  0  0  0  0  0  0  0
    0.7974   -2.8917   -0.2505 C   0  0  0  0  0  3  0  0  0  0  0  0
    1.3844   -3.8206   -0.3766 H   0  0  0  0  0  0  0  0  0  0  0  0
   -2.6511   -1.7030   -0.8876 C   0  0  0  0  0  0  0  0  0  0  0  0
   -3.1533   -0.7243   -1.8011 C   0  0  0  0  0  0  0  0  0  0  0  0
   -4.5409   -0.5824   -1.9369 C   0  0  0  0  0  0  0  0  0  0  0  0
   -4.9343    0.1540   -2.6538 H   0  0  0  0  0  0  0  0  0  0  0  0
   -5.4234   -1.3564   -1.1708 C   0  0  0  0  0  0  0  0  0  0  0  0
   -6.5098   -1.2254   -1.2821 H   0  0  0  0  0  0  0  0  0  0  0  0
   -4.9217   -2.2848   -0.2514 C   0  0  0  0  0  0  0  0  0  0  0  0
   -5.6180   -2.8687    0.3699 H   0  0  0  0  0  0  0  0  0  0  0  0
   -3.5398   -2.4887   -0.0880 C   0  0  0  0  0  0  0  0  0  0  0  0
   -2.2135    0.1115   -2.6249 C   0  0  0  0  0  0  0  0  0  0  0  0
   -1.5348    0.7097   -1.9762 H   0  0  0  0  0  0  0  0  0  0  0  0
   -2.7705    0.8113   -3.2750 H   0  0  0  0  0  0  0  0  0  0  0  0
   -1.5568   -0.5103   -3.2668 H   0  0  0  0  0  0  0  0  0  0  0  0
   -3.0700   -3.4665    0.9617 C   0  0  0  0  0  0  0  0  0  0  0  0
   -2.9084   -4.4834    0.5470 H   0  0  0  0  0  0  0  0  0  0  0  0
   -3.8330   -3.5666    1.7572 H   0  0  0  0  0  0  0  0  0  0  0  0
   -2.1195   -3.1570    1.4401 H   0  0  0  0  0  0  0  0  0  0  0  0
    2.6672   -1.7045    0.6393 C   0  0  0  0  0  0  0  0  0  0  0  0
    2.9501   -1.1594    1.9292 C   0  0  0  0  0  0  0  0  0  0  0  0
    4.2906   -1.0117    2.3137 C   0  0  0  0  0  0  0  0  0  0  0  0
    4.5185   -0.6265    3.3193 H   0  0  0  0  0  0  0  0  0  0  0  0
    5.3317   -1.3422    1.4344 C   0  0  0  0  0  0  0  0  0  0  0  0
    6.3785   -1.2089    1.7453 H   0  0  0  0  0  0  0  0  0  0  0  0
    5.0397   -1.8251    0.1534 C   0  0  0  0  0  0  0  0  0  0  0  0
    5.8595   -2.0480   -0.5464 H   0  0  0  0  0  0  0  0  0  0  0  0
    3.7152   -2.0295   -0.2733 C   0  0  0  0  0  0  0  0  0  0  0  0
    1.8331   -0.7889    2.8664 C   0  0  0  0  0  0  0  0  0  0  0  0
    1.1582   -0.0318    2.4075 H   0  0  0  0  0  0  0  0  0  0  0  0
    2.2283   -0.3719    3.8112 H   0  0  0  0  0  0  0  0  0  0  0  0
    1.1911   -1.6588    3.1140 H   0  0  0  0  0  0  0  0  0  0  0  0
    3.4608   -2.5197   -1.6770 C   0  0  0  0  0  0  0  0  0  0  0  0
    3.3958   -3.6267   -1.7280 H   0  0  0  0  0  0  0  0  0  0  0  0
    4.2920   -2.2165   -2.3418 H   0  0  0  0  0  0  0  0  0  0  0  0
    2.5213   -2.1171   -2.1040 H   0  0  0  0  0  0  0  0  0  0  0  0
  1  3  1  0  0  0  0
  2 24  1  0  0  0  0
  3  5  1  0  0  0  0
  4  3  1  0  0  0  0
  5  2  1  0  0  0  0
  6  5  1  0  0  0  0
  7  1  1  0  0  0  0
  7 15  1  0  0  0  0
  8  7  2  0  0  0  0
  9  8  1  0  0  0  0
  9 11  2  0  0  0  0
 10  9  1  0  0  0  0
 11 13  1  0  0  0  0
 12 11  1  0  0  0  0
 13 15  2  0  0  0  0
 13 14  1  0  0  0  0
 15 20  1  0  0  0  0
 16 17  1  0  0  0  0
 16  8  1  0  0  0  0
 18 16  1  0  0  0  0
 19 16  1  0  0  0  0
 20 23  1  0  0  0  0
 20 22  1  0  0  0  0
 21 20  1  0  0  0  0
 24 25  1  0  0  0  0
 25 26  2  0  0  0  0
 25 33  1  0  0  0  0
 26 27  1  0  0  0  0
 28 29  1  0  0  0  0
 28 26  1  0  0  0  0
 30 28  2  0  0  0  0
 31 30  1  0  0  0  0
 32 30  1  0  0  0  0
 32 24  2  0  0  0  0
 33 36  1  0  0  0  0
 33 35  1  0  0  0  0
 34 33  1  0  0  0  0
 37 32  1  0  0  0  0
 38 37  1  0  0  0  0
 39 37  1  0  0  0  0
 40 37  1  0  0  0  0
M  END
