1,3
q = 0.0, confidence = 0.998

 29 29  0  0  1  0  0  0  0  0999 V2000
   -1.1557    0.5365    0.0703 N   0  0  0  0  0  2  0  0  0  0  0  0
   -1.8625   -0.6205    0.0804 N   0  0  0  0  0  0  0  0  0  0  0  0
    1.1503   -1.4882   -0.4866 N   0  0  0  0  0  0  0  0  0  0  0  0
    1.5702   -1.8610    0.3837 H   0  0  0  0  0  0  0  0  0  0  0  0
   -1.1738   -1.8781    0.3290 C   0  0  0  0  0  0  0  0  0  0  0  0
   -1.9402   -2.6735    0.3485 H   0  0  0  0  0  0  0  0  0  0  0  0
   -0.6927   -1.8186    1.3320 H   0  0  0  0  0  0  0  0  0  0  0  0
   -0.1135   -2.1937   -0.7376 C   0  0  0  0  0  0  0  0  0  0  0  0
    0.0458   -3.2971   -0.7769 H   0  0  0  0  0  0  0  0  0  0  0  0
   -0.4936   -1.8902   -1.7359 H   0  0  0  0  0  0  0  0  0  0  0  0
   -2.0147    1.5272   -0.2436 C   0  0  1  0  0  3  0  0  0  0  0  0
   -3.3031    0.9739   -0.4391 C   0  0  0  0  0  0  0  0  0  0  0  0
   -4.2213    1.5105   -0.6990 H   0  0  0  0  0  0  0  0  0  0  0  0
   -3.1767   -0.4031   -0.2308 C   0  0  0  0  0  0  0  0  0  0  0  0
   -1.5655    2.9497   -0.3151 C   0  0  0  0  0  0  0  0  0  0  0  0
   -1.6307    3.4347    0.6817 H   0  0  0  0  0  0  0  0  0  0  0  0
   -2.2023    3.5268   -1.0117 H   0  0  0  0  0  0  0  0  0  0  0  0
   -0.5079    3.0042   -0.6450 H   0  0  0  0  0  0  0  0  0  0  0  0
   -4.1945   -1.4938   -0.3027 C   0  0  0  0  0  0  0  0  0  0  0  0
   -5.1790   -1.0654   -0.5646 H   0  0  0  0  0  0  0  0  0  0  0  0
   -4.3063   -2.0237    0.6661 H   0  0  0  0  0  0  0  0  0  0  0  0
   -3.9440   -2.2524   -1.0735 H   0  0  0  0  0  0  0  0  0  0  0  0
    2.1203   -1.5775   -1.5948 C   0  0  0  0  0  0  0  0  0  0  0  0
    1.7662   -0.8997   -2.4009 H   0  0  0  0  0  0  0  0  0  0  0  0
    2.1305   -2.6137   -2.0112 H   0  0  0  0  0  0  0  0  0  0  0  0
    3.5162   -1.1686   -1.1456 C   0  0  0  0  0  0  0  0  0  0  0  0
    3.5179   -0.1146   -0.8020 H   0  0  0  0  0  0  0  0  0  0  0  0
    4.2285   -1.2558   -1.9889 H   0  0  0  0  0  0  0  0  0  0  0  0
    3.8821   -1.8171   -0.3224 H   0  0  0  0  0  0  0  0  0  0  0  0
  1  2  1  0  0  0  0
  2  5  1  0  0  0  0
  3  4  1  0  0  0  0
  5  6  1  0  0  0  0
  5  7  1  0  0  0  0
  8  3  1  0  0  0  0
  8  5  1  0  0  0  0
  9  8  1  0  0  0  0
 10  8  1  0  0  0  0
 11 15  1  1  0  0  0
 11  1  1  0  0  0  0
 12 11  1  0  0  0  0
 12 14  2  0  0  0  0
 13 12  1  0  0  0  0
 14  2  1  0  0  0  0
 15 16  1  0  0  0  0
 17 15  1  0  0  0  0
 18 15  1  0  0  0  0
 19 14  1  0  0  0  0
 19 21  1  0  0  0  0
 20 19  1  0  0  0  0
 22 19  1  0  0  0  0
 23 26  1  0  0  0  0
 23  3  1  0  0  0  0
 24 23  1  0  0  0  0
 25 23  1  0  0  0  0
 26 27  1  0  0  0  0
 26 29  1  0  0  0  0
 28 26  1  0  0  0  0
M  END
