13,23
q = -1.0

 43 45  0  0  1  0  0  0  0  0999 V2000
   -1.1847   -0.8039   -0.7827 O   0  0  0  0  0  0  0  0  0  0  0  0
   -1.9370   -2.0041   -1.0398 C   0  0  0  0  0  0  0  0  0  0  0  0
   -2.9627   -1.6690   -1.3107 H   0  0  0  0  0  0  0  0  0  0  0  0
   -1.3370   -2.7148   -2.2476 C   0  0  0  0  0  0  0  0  0  0  0  0
   -1.3057   -2.0360   -3.1216 H   0  0  0  0  0  0  0  0  0  0  0  0
   -1.9523   -3.5972   -2.5137 H   0  0  0  0  0  0  0  0  0  0  0  0
   -0.3057   -3.0623   -2.0429 H   0  0  0  0  0  0  0  0  0  0  0  0
   -2.0532   -2.9040    0.1911 C   0  0  0  0  0  0  0  0  0  0  0  0
   -1.0641   -3.2749    0.5218 H   0  0  0  0  0  0  0  0  0  0  0  0
   -2.6921   -3.7807   -0.0382 H   0  0  0  0  0  0  0  0  0  0  0  0
   -2.5166   -2.3628    1.0370 H   0  0  0  0  0  0  0  0  0  0  0  0
   -1.7481    0.2715    0.1706 B   0  0  1  0  0  0  0  0  0  0  0  0
    0.2383   -0.4456    1.5631 N   0  0  0  0  0  2  0  0  0  0  0  0
   -1.0448    0.0190    1.6336 C   0  0  1  0  0  3  0  0  0  0  0  0
   -1.5762    0.3179    2.9058 C   0  0  0  0  0  0  0  0  0  0  0  0
   -2.5838    0.7516    2.9728 H   0  0  0  0  0  0  0  0  0  0  0  0
   -0.8335    0.0711    4.0673 C   0  0  0  0  0  0  0  0  0  0  0  0
   -1.2571    0.2965    5.0586 H   0  0  0  0  0  0  0  0  0  0  0  0
    0.4572   -0.4678    3.9526 C   0  0  0  0  0  0  0  0  0  0  0  0
    1.0741   -0.6876    4.8354 H   0  0  0  0  0  0  0  0  0  0  0  0
    0.9632   -0.6971    2.6701 C   0  0  0  0  0  0  0  0  0  0  0  0
    1.9867   -1.0699    2.5074 H   0  0  0  0  0  0  0  0  0  0  0  0
    0.2770    1.4881   -0.7346 N   0  0  0  0  0  2  0  0  0  0  0  0
   -1.0165    1.6445   -0.3410 C   0  0  2  0  0  3  0  0  0  0  0  0
   -1.5769    2.9379   -0.3507 C   0  0  0  0  0  0  0  0  0  0  0  0
   -2.6162    3.0662   -0.0151 H   0  0  0  0  0  0  0  0  0  0  0  0
   -0.8247    4.0317   -0.7955 C   0  0  0  0  0  0  0  0  0  0  0  0
   -1.2623    5.0422   -0.8092 H   0  0  0  0  0  0  0  0  0  0  0  0
    0.4937    3.8234   -1.2318 C   0  0  0  0  0  0  0  0  0  0  0  0
    1.1190    4.6499   -1.5981 H   0  0  0  0  0  0  0  0  0  0  0  0
    1.0120    2.5270   -1.1789 C   0  0  0  0  0  0  0  0  0  0  0  0
    2.0472    2.3005   -1.4776 H   0  0  0  0  0  0  0  0  0  0  0  0
   -3.3657    0.3391    0.0915 C   0  0  0  0  0  0  0  0  0  0  0  0
   -3.9679    0.8894   -1.0676 C   0  0  0  0  0  0  0  0  0  0  0  0
   -3.3218    1.2993   -1.8611 H   0  0  0  0  0  0  0  0  0  0  0  0
   -5.3590    0.9163   -1.2486 C   0  0  0  0  0  0  0  0  0  0  0  0
   -5.7866    1.3507   -2.1661 H   0  0  0  0  0  0  0  0  0  0  0  0
   -6.2056    0.3863   -0.2614 C   0  0  0  0  0  0  0  0  0  0  0  0
   -7.2984    0.4070   -0.3948 H   0  0  0  0  0  0  0  0  0  0  0  0
   -5.6421   -0.1781    0.8924 C   0  0  0  0  0  0  0  0  0  0  0  0
   -6.2929   -0.6098    1.6692 H   0  0  0  0  0  0  0  0  0  0  0  0
   -4.2465   -0.2016    1.0561 C   0  0  0  0  0  0  0  0  0  0  0  0
   -3.8388   -0.6759    1.9626 H   0  0  0  0  0  0  0  0  0  0  0  0
  2  1  1  0  0  0  0
  2  8  1  0  0  0  0
  3  2  1  0  0  0  0
  4  7  1  0  0  0  0
  4  2  1  0  0  0  0
  5  4  1  0  0  0  0
  6  4  1  0  0  0  0
  8  9  1  0  0  0  0
  8 11  1  0  0  0  0
 10  8  1  0  0  0  0
 12  1  1  6  0  0  0
 13 14  1  0  0  0  0
 13 21  1  0  0  0  0
 14 12  1  6  0  0  0
 14 15  1  0  0  0  0
 15 16  1  0  0  0  0
 15 17  2  0  0  0  0
 17 18  1  0  0  0  0
 19 17  1  0  0  0  0
 19 20  1  0  0  0  0
 21 19  2  0  0  0  0
 22 21  1  0  0  0  0
 23 24  1  0  0  0  0
 24 12  1  1  0  0  0
 25 24  1  0  0  0  0
 25 26  1  0  0  0  0
 27 25  2  0  0  0  0
 28 27  1  0  0  0  0
 29 31  2  0  0  0  0
 29 27  1  0  0  0  0
 30 29  1  0  0  0  0
 31 23  1  0  0  0  0
 32 31  1  0  0  0  0
 33 12  1  0  0  0  0
 33 42  1  0  0  0  0
 34 33  2  0  0  0  0
 35 34  1  0  0  0  0
 36 34  1  0  0  0  0
 36 38  2  0  0  0  0
 37 36  1  0  0  0  0
 38 40  1  0  0  0  0
 39 38  1  0  0  0  0
 40 42  2  0  0  0  0
 40 41  1  0  0  0  0
 42 43  1  0  0  0  0
M  END
