1,2
q = 0.0, confidence = 1.0

 44 45  0  0  0  0  0  0  0  0999 V2000
   -0.4973   -1.2808    0.0988 N   0  0  0  0  0  2  0  0  0  0  0  0
   -0.0168    1.3179    0.5940 N   0  0  0  0  0  2  0  0  0  0  0  0
    1.8379   -1.7327    0.1069 N   0  0  0  0  0  0  0  0  0  0  0  0
    1.6593   -2.7360    0.0228 H   0  0  0  0  0  0  0  0  0  0  0  0
    2.3175    0.9562    0.2720 N   0  0  0  0  0  0  0  0  0  0  0  0
    2.5044    1.9574    0.3640 H   0  0  0  0  0  0  0  0  0  0  0  0
    0.7396   -0.9071    0.1584 C   0  0  0  0  0  0  0  0  0  0  0  0
    1.0053    0.5575    0.3488 C   0  0  0  0  0  0  0  0  0  0  0  0
    3.1620   -1.2957    0.0596 C   0  0  0  0  0  0  0  0  0  0  0  0
    4.2404   -2.1886   -0.0638 C   0  0  0  0  0  0  0  0  0  0  0  0
    4.0392   -3.2693   -0.1215 H   0  0  0  0  0  0  0  0  0  0  0  0
    5.5535   -1.7037   -0.1161 C   0  0  0  0  0  0  0  0  0  0  0  0
    6.3896   -2.4108   -0.2137 H   0  0  0  0  0  0  0  0  0  0  0  0
    5.7982   -0.3217   -0.0458 C   0  0  0  0  0  0  0  0  0  0  0  0
    6.8274    0.0622   -0.0878 H   0  0  0  0  0  0  0  0  0  0  0  0
    4.7299    0.5755    0.0792 C   0  0  0  0  0  0  0  0  0  0  0  0
    4.9122    1.6596    0.1370 H   0  0  0  0  0  0  0  0  0  0  0  0
    3.4091    0.0982    0.1349 C   0  0  0  0  0  0  0  0  0  0  0  0
    0.0896    2.7476    0.7959 C   0  0  0  0  0  0  0  0  0  0  0  0
    1.1350    3.0748    1.0298 H   0  0  0  0  0  0  0  0  0  0  0  0
   -0.5137    2.9965    1.6952 H   0  0  0  0  0  0  0  0  0  0  0  0
   -0.4392    3.5644   -0.4044 C   0  0  0  0  0  0  0  0  0  0  0  0
   -1.5133    3.2988   -0.5171 H   0  0  0  0  0  0  0  0  0  0  0  0
    0.2499    3.1642   -1.7107 C   0  0  0  0  0  0  0  0  0  0  0  0
    0.0071    2.1147   -1.9696 H   0  0  0  0  0  0  0  0  0  0  0  0
    1.3547    3.2878   -1.6542 H   0  0  0  0  0  0  0  0  0  0  0  0
   -0.1111    3.7936   -2.5483 H   0  0  0  0  0  0  0  0  0  0  0  0
   -0.3093    5.0587   -0.1009 C   0  0  0  0  0  0  0  0  0  0  0  0
   -0.8262    5.3333    0.8415 H   0  0  0  0  0  0  0  0  0  0  0  0
   -0.7536    5.6644   -0.9156 H   0  0  0  0  0  0  0  0  0  0  0  0
    0.7559    5.3628   -0.0030 H   0  0  0  0  0  0  0  0  0  0  0  0
   -0.9083   -2.6691    0.0662 C   0  0  0  0  0  0  0  0  0  0  0  0
   -0.9809   -3.0175    1.1222 H   0  0  0  0  0  0  0  0  0  0  0  0
   -0.1595   -3.3214   -0.4533 H   0  0  0  0  0  0  0  0  0  0  0  0
   -2.2739   -2.8511   -0.6144 C   0  0  0  0  0  0  0  0  0  0  0  0
   -2.9754   -2.1841   -0.0626 H   0  0  0  0  0  0  0  0  0  0  0  0
   -2.7528   -4.2952   -0.4429 C   0  0  0  0  0  0  0  0  0  0  0  0
   -3.7570   -4.4301   -0.8911 H   0  0  0  0  0  0  0  0  0  0  0  0
   -2.8201   -4.5820    0.6266 H   0  0  0  0  0  0  0  0  0  0  0  0
   -2.0670   -5.0107   -0.9471 H   0  0  0  0  0  0  0  0  0  0  0  0
   -2.2275   -2.4249   -2.0838 C   0  0  0  0  0  0  0  0  0  0  0  0
   -1.9520   -1.3563   -2.1863 H   0  0  0  0  0  0  0  0  0  0  0  0
   -3.2220   -2.5463   -2.5575 H   0  0  0  0  0  0  0  0  0  0  0  0
   -1.5026   -3.0462   -2.6546 H   0  0  0  0  0  0  0  0  0  0  0  0
  1  7  1  0  0  0  0
  2 19  1  0  0  0  0
  3  7  1  0  0  0  0
  4  3  1  0  0  0  0
  5  8  1  0  0  0  0
  5  6  1  0  0  0  0
  7  8  2  0  0  0  0
  8  2  1  0  0  0  0
  9  3  1  0  0  0  0
  9 18  1  0  0  0  0
 10  9  2  0  0  0  0
 11 10  1  0  0  0  0
 12 10  1  0  0  0  0
 12 14  2  0  0  0  0
 13 12  1  0  0  0  0
 14 16  1  0  0  0  0
 15 14  1  0  0  0  0
 16 18  2  0  0  0  0
 16 17  1  0  0  0  0
 18  5  1  0  0  0  0
 19 20  1  0  0  0  0
 19 21  1  0  0  0  0
 22 28  1  0  0  0  0
 22 19  1  0  0  0  0
 23 22  1  0  0  0  0
 24 26  1  0  0  0  0
 24 22  1  0  0  0  0
 25 24  1  0  0  0  0
 27 24  1  0  0  0  0
 28 31  1  0  0  0  0
 28 29  1  0  0  0  0
 30 28  1  0  0  0  0
 32  1  1  0  0  0  0
 32 33  1  0  0  0  0
 34 32  1  0  0  0  0
 35 37  1  0  0  0  0
 35 36  1  0  0  0  0
 35 32  1  0  0  0  0
 37 39  1  0  0  0  0
 38 37  1  0  0  0  0
 40 37  1  0  0  0  0
 41 35  1  0  0  0  0
 42 41  1  0  0  0  0
 43 41  1  0  0  0  0
 44 41  1  0  0  0  0
M  END
