1,2
q = 0.0, confidence = 0.946

 52 53  0  0  0  0  0  0  0  0999 V2000
    1.2360   -2.2507   -0.0352 N   0  0  0  0  0  2  0  0  0  0  0  0
   -1.2349   -2.2512    0.0354 N   0  0  0  0  0  2  0  0  0  0  0  0
    0.7220   -3.4838   -0.0183 C   0  0  0  0  0  0  0  0  0  0  0  0
    1.5393   -4.7372   -0.0433 C   0  0  0  0  0  0  0  0  0  0  0  0
    2.6091   -4.5083   -0.2024 H   0  0  0  0  0  0  0  0  0  0  0  0
    1.1959   -5.4188   -0.8487 H   0  0  0  0  0  0  0  0  0  0  0  0
    1.4436   -5.2998    0.9106 H   0  0  0  0  0  0  0  0  0  0  0  0
   -1.5370   -4.7380    0.0421 C   0  0  0  0  0  0  0  0  0  0  0  0
   -2.6070   -4.5095    0.2003 H   0  0  0  0  0  0  0  0  0  0  0  0
   -1.1940   -5.4193    0.8478 H   0  0  0  0  0  0  0  0  0  0  0  0
   -1.4403   -5.3004   -0.9117 H   0  0  0  0  0  0  0  0  0  0  0  0
   -0.7203   -3.4841    0.0178 C   0  0  0  0  0  0  0  0  0  0  0  0
    2.6334   -1.9905   -0.0103 C   0  0  0  0  0  0  0  0  0  0  0  0
    3.3263   -2.0568    1.2218 C   0  0  0  0  0  0  0  0  0  0  0  0
    4.6935   -1.7330    1.2298 C   0  0  0  0  0  0  0  0  0  0  0  0
    5.2403   -1.7745    2.1858 H   0  0  0  0  0  0  0  0  0  0  0  0
    5.3731   -1.3376    0.0635 C   0  0  0  0  0  0  0  0  0  0  0  0
    4.6455   -1.2719   -1.1398 C   0  0  0  0  0  0  0  0  0  0  0  0
    5.1559   -0.9533   -2.0631 H   0  0  0  0  0  0  0  0  0  0  0  0
    3.2778   -1.5795   -1.2021 C   0  0  0  0  0  0  0  0  0  0  0  0
    2.6002   -2.4242    2.4895 C   0  0  0  0  0  0  0  0  0  0  0  0
    1.6618   -1.8400    2.5882 H   0  0  0  0  0  0  0  0  0  0  0  0
    3.2286   -2.2307    3.3790 H   0  0  0  0  0  0  0  0  0  0  0  0
    2.3121   -3.4969    2.5114 H   0  0  0  0  0  0  0  0  0  0  0  0
    6.8275   -0.9435    0.1059 C   0  0  0  0  0  0  0  0  0  0  0  0
    7.3420   -1.3647    0.9915 H   0  0  0  0  0  0  0  0  0  0  0  0
    6.9332    0.1617    0.1573 H   0  0  0  0  0  0  0  0  0  0  0  0
    7.3687   -1.2773   -0.8019 H   0  0  0  0  0  0  0  0  0  0  0  0
    2.4986   -1.4457   -2.4820 C   0  0  0  0  0  0  0  0  0  0  0  0
    1.7695   -0.6137   -2.3896 H   0  0  0  0  0  0  0  0  0  0  0  0
    1.9145   -2.3605   -2.7122 H   0  0  0  0  0  0  0  0  0  0  0  0
    3.1652   -1.2322   -3.3386 H   0  0  0  0  0  0  0  0  0  0  0  0
   -2.6324   -1.9917    0.0103 C   0  0  0  0  0  0  0  0  0  0  0  0
   -3.3249   -2.0576   -1.2220 C   0  0  0  0  0  0  0  0  0  0  0  0
   -4.6922   -1.7345   -1.2302 C   0  0  0  0  0  0  0  0  0  0  0  0
   -5.2388   -1.7757   -2.1863 H   0  0  0  0  0  0  0  0  0  0  0  0
   -5.3724   -1.3401   -0.0638 C   0  0  0  0  0  0  0  0  0  0  0  0
   -4.6451   -1.2748    1.1397 C   0  0  0  0  0  0  0  0  0  0  0  0
   -5.1559   -0.9570    2.0630 H   0  0  0  0  0  0  0  0  0  0  0  0
   -3.2772   -1.5817    1.2021 C   0  0  0  0  0  0  0  0  0  0  0  0
   -2.5983   -2.4238   -2.4898 C   0  0  0  0  0  0  0  0  0  0  0  0
   -3.2267   -2.2303   -3.3794 H   0  0  0  0  0  0  0  0  0  0  0  0
   -2.3093   -3.4963   -2.5122 H   0  0  0  0  0  0  0  0  0  0  0  0
   -1.6604   -1.8388   -2.5879 H   0  0  0  0  0  0  0  0  0  0  0  0
   -6.8270   -0.9467   -0.1064 C   0  0  0  0  0  0  0  0  0  0  0  0
   -7.3415   -1.3693   -0.9914 H   0  0  0  0  0  0  0  0  0  0  0  0
   -6.9331    0.1583   -0.1591 H   0  0  0  0  0  0  0  0  0  0  0  0
   -7.3679   -1.2797    0.8019 H   0  0  0  0  0  0  0  0  0  0  0  0
   -2.4984   -1.4483    2.4823 C   0  0  0  0  0  0  0  0  0  0  0  0
   -3.1651   -1.2343    3.3387 H   0  0  0  0  0  0  0  0  0  0  0  0
   -1.7686   -0.6168    2.3900 H   0  0  0  0  0  0  0  0  0  0  0  0
   -1.9150   -2.3635    2.7127 H   0  0  0  0  0  0  0  0  0  0  0  0
  1  3  1  0  0  0  0
  1 13  1  0  0  0  0
  3 12  2  0  0  0  0
  4  3  1  0  0  0  0
  4  7  1  0  0  0  0
  5  4  1  0  0  0  0
  6  4  1  0  0  0  0
  8  9  1  0  0  0  0
  8 10  1  0  0  0  0
 11  8  1  0  0  0  0
 12  2  1  0  0  0  0
 12  8  1  0  0  0  0
 13 14  1  0  0  0  0
 14 15  2  0  0  0  0
 14 21  1  0  0  0  0
 15 16  1  0  0  0  0
 17 25  1  0  0  0  0
 17 15  1  0  0  0  0
 18 17  2  0  0  0  0
 19 18  1  0  0  0  0
 20 18  1  0  0  0  0
 20 13  2  0  0  0  0
 21 24  1  0  0  0  0
 21 22  1  0  0  0  0
 21 23  1  0  0  0  0
 25 27  1  0  0  0  0
 25 26  1  0  0  0  0
 28 25  1  0  0  0  0
 29 30  1  0  0  0  0
 29 20  1  0  0  0  0
 31 29  1  0  0  0  0
 32 29  1  0  0  0  0
 33  2  1  0  0  0  0
 33 40  1  0  0  0  0
 34 33  2  0  0  0  0
 35 34  1  0  0  0  0
 35 37  2  0  0  0  0
 36 35  1  0  0  0  0
 37 38  1  0  0  0  0
 38 40  2  0  0  0  0
 38 39  1  0  0  0  0
 40 49  1  0  0  0  0
 41 34  1  0  0  0  0
 42 41  1  0  0  0  0
 43 41  1  0  0  0  0
 44 41  1  0  0  0  0
 45 37  1  0  0  0  0
 45 48  1  0  0  0  0
 46 45  1  0  0  0  0
 47 45  1  0  0  0  0
 49 52  1  0  0  0  0
 49 50  1  0  0  0  0
 51 49  1  0  0  0  0
M  END
