1,2
q = 0.0, confidence = 0.968

 44 43  0  0  1  0  0  0  0  0999 V2000
    1.3397   -0.1949   -0.6949 N   0  0  0  0  0  2  0  0  0  0  0  0
   -1.2273   -0.0395   -1.1437 N   0  0  0  0  0  2  0  0  0  0  0  0
    3.5136    1.4448   -1.9660 O   0  0  0  0  0  0  0  0  0  0  0  0
    4.0415    1.6337    0.2311 O   0  0  0  0  0  0  0  0  0  0  0  0
   -4.0295    1.2948    0.2727 O   0  0  0  0  0  0  0  0  0  0  0  0
   -2.5436    2.4042   -1.0320 O   0  0  0  0  0  0  0  0  0  0  0  0
    0.9729   -0.0373   -1.9550 C   0  0  0  0  0  0  0  0  0  0  0  0
    1.7074    0.0666   -2.7696 H   0  0  0  0  0  0  0  0  0  0  0  0
   -0.4327    0.0522   -2.1912 C   0  0  0  0  0  0  0  0  0  0  0  0
   -0.8377    0.2045   -3.2078 H   0  0  0  0  0  0  0  0  0  0  0  0
    2.7746   -0.2733   -0.3910 C   0  0  1  0  0  0  0  0  0  0  0  0
    2.8744   -0.3540    0.7056 H   0  0  0  0  0  0  0  0  0  0  0  0
    3.4755   -1.5009   -1.0366 C   0  0  0  0  0  0  0  0  0  0  0  0
    3.4142   -1.3659   -2.1397 H   0  0  0  0  0  0  0  0  0  0  0  0
    2.7613   -2.7993   -0.6505 C   0  0  0  0  0  0  0  0  0  0  0  0
    1.7058   -2.8064   -0.9830 H   0  0  0  0  0  0  0  0  0  0  0  0
    3.2698   -3.6706   -1.1095 H   0  0  0  0  0  0  0  0  0  0  0  0
    2.7656   -2.9430    0.4498 H   0  0  0  0  0  0  0  0  0  0  0  0
    4.9558   -1.5341   -0.6395 C   0  0  0  0  0  0  0  0  0  0  0  0
    5.5046   -0.6361   -0.9878 H   0  0  0  0  0  0  0  0  0  0  0  0
    5.0700   -1.5978    0.4627 H   0  0  0  0  0  0  0  0  0  0  0  0
    5.4539   -2.4200   -1.0810 H   0  0  0  0  0  0  0  0  0  0  0  0
    3.4696    1.0223   -0.8245 C   0  0  0  0  0  0  0  0  0  0  0  0
    4.7473    2.8491   -0.0650 C   0  0  0  0  0  0  0  0  0  0  0  0
    4.0612    3.5992   -0.5059 H   0  0  0  0  0  0  0  0  0  0  0  0
    5.1494    3.2094    0.8977 H   0  0  0  0  0  0  0  0  0  0  0  0
    5.5684    2.6587   -0.7848 H   0  0  0  0  0  0  0  0  0  0  0  0
   -2.6679    0.0658   -1.3730 C   0  0  1  0  0  0  0  0  0  0  0  0
   -2.8431    0.2940   -2.4518 H   0  0  0  0  0  0  0  0  0  0  0  0
   -3.4241   -1.2382   -1.0313 C   0  0  0  0  0  0  0  0  0  0  0  0
   -3.3486   -1.3809    0.0669 H   0  0  0  0  0  0  0  0  0  0  0  0
   -2.7761   -2.4340   -1.7371 C   0  0  0  0  0  0  0  0  0  0  0  0
   -3.3125   -3.3687   -1.4801 H   0  0  0  0  0  0  0  0  0  0  0  0
   -2.8189   -2.3166   -2.8415 H   0  0  0  0  0  0  0  0  0  0  0  0
   -1.7159   -2.5655   -1.4479 H   0  0  0  0  0  0  0  0  0  0  0  0
   -4.9062   -1.1207   -1.4106 C   0  0  0  0  0  0  0  0  0  0  0  0
   -5.4340   -2.0651   -1.1706 H   0  0  0  0  0  0  0  0  0  0  0  0
   -5.4052   -0.3023   -0.8605 H   0  0  0  0  0  0  0  0  0  0  0  0
   -5.0249   -0.9435   -2.5013 H   0  0  0  0  0  0  0  0  0  0  0  0
   -3.1774    1.2942   -0.5908 C   0  0  0  0  0  0  0  0  0  0  0  0
   -2.9047    3.6288   -0.3732 C   0  0  0  0  0  0  0  0  0  0  0  0
   -2.4179    4.4373   -0.9464 H   0  0  0  0  0  0  0  0  0  0  0  0
   -4.0048    3.7582   -0.3641 H   0  0  0  0  0  0  0  0  0  0  0  0
   -2.5341    3.6280    0.6707 H   0  0  0  0  0  0  0  0  0  0  0  0
  1 11  1  0  0  0  0
  3 23  2  0  0  0  0
  6 40  1  0  0  0  0
  6 41  1  0  0  0  0
  7  1  1  0  0  0  0
  8  7  1  0  0  0  0
  9  7  2  0  0  0  0
  9  2  1  0  0  0  0
 10  9  1  0  0  0  0
 11 12  1  1  0  0  0
 13 15  1  0  0  0  0
 13 19  1  0  0  0  0
 13 11  1  0  0  0  0
 14 13  1  0  0  0  0
 15 18  1  0  0  0  0
 16 15  1  0  0  0  0
 17 15  1  0  0  0  0
 19 21  1  0  0  0  0
 20 19  1  0  0  0  0
 22 19  1  0  0  0  0
 23 11  1  0  0  0  0
 23  4  1  0  0  0  0
 24  4  1  0  0  0  0
 24 26  1  0  0  0  0
 25 24  1  0  0  0  0
 27 24  1  0  0  0  0
 28 29  1  6  0  0  0
 28  2  1  0  0  0  0
 28 30  1  0  0  0  0
 28 40  1  0  0  0  0
 30 31  1  0  0  0  0
 32 33  1  0  0  0  0
 32 35  1  0  0  0  0
 32 30  1  0  0  0  0
 34 32  1  0  0  0  0
 36 37  1  0  0  0  0
 36 30  1  0  0  0  0
 36 38  1  0  0  0  0
 39 36  1  0  0  0  0
 40  5  2  0  0  0  0
 41 43  1  0  0  0  0
 41 44  1  0  0  0  0
 42 41  1  0  0  0  0
M  END
