1,2
q = -1.0

 32 31  0  0  1  0  0  0  0  0999 V2000
    1.8035    0.0895    1.0321 N   0  0  0  0  0  2  0  0  0  0  0  0
    1.8248   -0.0236   -1.1881 N   0  0  0  0  0  2  0  0  0  0  0  0
    3.6574    1.1429   -0.1468 N   0  0  0  0  0  0  0  0  0  0  0  0
    2.4658    0.4294   -0.0828 C   0  0  2  0  0  3  0  0  0  0  0  0
    1.7747    0.7906    2.3353 C   0  0  0  0  0  0  0  0  0  0  0  0
    0.3137    0.7561    2.8355 C   0  0  0  0  0  0  0  0  0  0  0  0
   -0.3546    1.3195    2.1565 H   0  0  0  0  0  0  0  0  0  0  0  0
    0.2444    1.2011    3.8483 H   0  0  0  0  0  0  0  0  0  0  0  0
   -0.0547   -0.2865    2.8823 H   0  0  0  0  0  0  0  0  0  0  0  0
    2.1995    2.2708    2.2434 C   0  0  0  0  0  0  0  0  0  0  0  0
    3.2737    2.4044    2.0216 H   0  0  0  0  0  0  0  0  0  0  0  0
    1.9952    2.7715    3.2113 H   0  0  0  0  0  0  0  0  0  0  0  0
    1.6154    2.7962    1.4625 H   0  0  0  0  0  0  0  0  0  0  0  0
    2.6408    0.0425    3.3716 C   0  0  0  0  0  0  0  0  0  0  0  0
    2.3228   -1.0164    3.4400 H   0  0  0  0  0  0  0  0  0  0  0  0
    2.5293    0.5010    4.3752 H   0  0  0  0  0  0  0  0  0  0  0  0
    3.7165    0.0643    3.1132 H   0  0  0  0  0  0  0  0  0  0  0  0
    2.4761   -0.3081   -2.4566 C   0  0  0  0  0  0  0  0  0  0  0  0
    2.7966    0.6272   -2.9691 H   0  0  0  0  0  0  0  0  0  0  0  0
    1.6998   -0.7501   -3.1125 H   0  0  0  0  0  0  0  0  0  0  0  0
    3.6680   -1.2671   -2.3620 C   0  0  0  0  0  0  0  0  0  0  0  0
    4.4929   -0.8384   -1.7581 H   0  0  0  0  0  0  0  0  0  0  0  0
    4.0711   -1.4982   -3.3692 H   0  0  0  0  0  0  0  0  0  0  0  0
    3.3667   -2.2248   -1.8900 H   0  0  0  0  0  0  0  0  0  0  0  0
    3.8780    2.1385   -1.1735 C   0  0  0  0  0  0  0  0  0  0  0  0
    2.9156    2.4141   -1.6420 H   0  0  0  0  0  0  0  0  0  0  0  0
    4.5822    1.7991   -1.9702 H   0  0  0  0  0  0  0  0  0  0  0  0
    4.3071    3.0577   -0.7153 H   0  0  0  0  0  0  0  0  0  0  0  0
    4.7962    0.8104    0.6802 C   0  0  0  0  0  0  0  0  0  0  0  0
    5.1031    1.6461    1.3512 H   0  0  0  0  0  0  0  0  0  0  0  0
    5.6737    0.5550    0.0415 H   0  0  0  0  0  0  0  0  0  0  0  0
    4.5604   -0.0697    1.3035 H   0  0  0  0  0  0  0  0  0  0  0  0
  1  5  1  0  0  0  0
  3  4  1  0  0  0  0
  3 29  1  0  0  0  0
  4  2  1  1  0  0  0
  4  1  1  0  0  0  0
  5  6  1  0  0  0  0
  5 14  1  0  0  0  0
  6  9  1  0  0  0  0
  6  8  1  0  0  0  0
  7  6  1  0  0  0  0
 10  5  1  0  0  0  0
 10 12  1  0  0  0  0
 11 10  1  0  0  0  0
 13 10  1  0  0  0  0
 14 15  1  0  0  0  0
 14 16  1  0  0  0  0
 17 14  1  0  0  0  0
 18 21  1  0  0  0  0
 18  2  1  0  0  0  0
 19 18  1  0  0  0  0
 20 18  1  0  0  0  0
 21 24  1  0  0  0  0
 21 22  1  0  0  0  0
 23 21  1  0  0  0  0
 25 28  1  0  0  0  0
 25  3  1  0  0  0  0
 26 25  1  0  0  0  0
 27 25  1  0  0  0  0
 29 32  1  0  0  0  0
 29 30  1  0  0  0  0
 31 29  1  0  0  0  0
M  END
