2,4
q = -1.0

 41 43  0  0  1  0  0  0  0  0999 V2000
    1.8424   -2.7631    0.5709 S   0  0  0  0  0  0  0  0  0  0  0  0
    1.7873   -1.3989   -0.6409 N   0  0  0  0  0  2  0  0  0  0  0  0
    2.9590   -0.8570   -0.6684 N   0  0  0  0  0  0  0  0  0  0  0  0
    0.9417    1.0324   -1.5653 N   0  0  0  0  0  2  0  0  0  0  0  0
    0.4695   -3.2977    0.6730 O   0  0  0  0  0  0  0  0  0  0  0  0
    2.9912   -3.6261    0.2389 O   0  0  0  0  0  0  0  0  0  0  0  0
    2.2839    1.2741   -1.6987 C   0  0  1  0  0  3  0  0  0  0  0  0
    2.7099    2.4896   -2.3048 C   0  0  0  0  0  0  0  0  0  0  0  0
    1.7875    3.3945   -2.8180 C   0  0  0  0  0  0  0  0  0  0  0  0
    0.4171    3.0929   -2.7239 C   0  0  0  0  0  0  0  0  0  0  0  0
    0.0479    1.9163   -2.0784 C   0  0  0  0  0  0  0  0  0  0  0  0
    3.2610    0.3213   -1.1778 C   0  0  0  0  0  0  0  0  0  0  0  0
    2.2040   -1.7953    2.0317 C   0  0  0  0  0  0  0  0  0  0  0  0
    3.5173   -1.7344    2.5127 C   0  0  0  0  0  0  0  0  0  0  0  0
    3.7997   -0.8605    3.5732 C   0  0  0  0  0  0  0  0  0  0  0  0
    2.7986   -0.0378    4.1312 C   0  0  0  0  0  0  0  0  0  0  0  0
    1.4864   -0.1255    3.6151 C   0  0  0  0  0  0  0  0  0  0  0  0
    1.1786   -1.0061    2.5748 C   0  0  0  0  0  0  0  0  0  0  0  0
    3.1098    0.9209    5.2512 C   0  0  0  0  0  0  0  0  0  0  0  0
    4.7136    0.6699   -1.0943 C   0  0  0  0  0  0  0  0  0  0  0  0
    5.3384    0.7016    0.1708 C   0  0  0  0  0  0  0  0  0  0  0  0
    6.7073    0.9809    0.2843 C   0  0  0  0  0  0  0  0  0  0  0  0
    7.4752    1.2355   -0.8636 C   0  0  0  0  0  0  0  0  0  0  0  0
    6.8663    1.1969   -2.1279 C   0  0  0  0  0  0  0  0  0  0  0  0
    5.4972    0.9121   -2.2429 C   0  0  0  0  0  0  0  0  0  0  0  0
    3.7848    2.7001   -2.3545 H   0  0  0  0  0  0  0  0  0  0  0  0
    2.1312    4.3280   -3.2882 H   0  0  0  0  0  0  0  0  0  0  0  0
   -0.3602    3.7596   -3.1216 H   0  0  0  0  0  0  0  0  0  0  0  0
   -1.0096    1.6555   -1.9369 H   0  0  0  0  0  0  0  0  0  0  0  0
    4.2955   -2.3552    2.0468 H   0  0  0  0  0  0  0  0  0  0  0  0
    4.8268   -0.8041    3.9671 H   0  0  0  0  0  0  0  0  0  0  0  0
    0.6839    0.5167    4.0081 H   0  0  0  0  0  0  0  0  0  0  0  0
    0.1515   -1.0616    2.1867 H   0  0  0  0  0  0  0  0  0  0  0  0
    2.5518    0.6518    6.1725 H   0  0  0  0  0  0  0  0  0  0  0  0
    4.1888    0.9308    5.4979 H   0  0  0  0  0  0  0  0  0  0  0  0
    2.8060    1.9545    4.9856 H   0  0  0  0  0  0  0  0  0  0  0  0
    4.7317    0.4987    1.0661 H   0  0  0  0  0  0  0  0  0  0  0  0
    7.1785    1.0032    1.2791 H   0  0  0  0  0  0  0  0  0  0  0  0
    8.5495    1.4574   -0.7739 H   0  0  0  0  0  0  0  0  0  0  0  0
    7.4648    1.3762   -3.0343 H   0  0  0  0  0  0  0  0  0  0  0  0
    5.0327    0.8520   -3.2395 H   0  0  0  0  0  0  0  0  0  0  0  0
  1  5  2  0  0  0  0
  1 13  1  0  0  0  0
  2  1  1  0  0  0  0
  3  2  1  0  0  0  0
  6  1  2  0  0  0  0
  7  4  1  0  0  0  0
  7 12  1  1  0  0  0
  8  7  1  0  0  0  0
  9 10  1  0  0  0  0
  9  8  2  0  0  0  0
 10 11  2  0  0  0  0
 11 29  1  0  0  0  0
 11  4  1  0  0  0  0
 12 20  1  0  0  0  0
 12  3  2  0  0  0  0
 13 14  2  0  0  0  0
 13 18  1  0  0  0  0
 14 15  1  0  0  0  0
 15 31  1  0  0  0  0
 15 16  2  0  0  0  0
 16 19  1  0  0  0  0
 17 32  1  0  0  0  0
 17 16  1  0  0  0  0
 18 17  2  0  0  0  0
 19 35  1  0  0  0  0
 19 34  1  0  0  0  0
 20 21  1  0  0  0  0
 21 22  2  0  0  0  0
 21 37  1  0  0  0  0
 22 38  1  0  0  0  0
 23 39  1  0  0  0  0
 23 22  1  0  0  0  0
 24 23  2  0  0  0  0
 25 24  1  0  0  0  0
 25 20  2  0  0  0  0
 26  8  1  0  0  0  0
 27  9  1  0  0  0  0
 28 10  1  0  0  0  0
 30 14  1  0  0  0  0
 33 18  1  0  0  0  0
 36 19  1  0  0  0  0
 40 24  1  0  0  0  0
 41 25  1  0  0  0  0
M  END
