1,2
q = 0.0, confidence = 0.968

 54 57  0  0  0  0  0  0  0  0999 V2000
   -1.2966   -0.3626    0.0377 N   0  0  0  0  0  2  0  0  0  0  0  0
    1.2967   -0.3626   -0.0377 N   0  0  0  0  0  2  0  0  0  0  0  0
   -0.7319    0.8396    0.0148 C   0  0  0  0  0  0  0  0  0  0  0  0
    0.7320    0.8396   -0.0149 C   0  0  0  0  0  0  0  0  0  0  0  0
   -2.7073   -0.5105   -0.0288 C   0  0  0  0  0  0  0  0  0  0  0  0
   -3.3846   -1.2205    0.9817 C   0  0  0  0  0  0  0  0  0  0  0  0
   -2.8091   -1.6596    1.8065 H   0  0  0  0  0  0  0  0  0  0  0  0
   -4.7776   -1.3374    0.9296 C   0  0  0  0  0  0  0  0  0  0  0  0
   -5.2988   -1.8780    1.7349 H   0  0  0  0  0  0  0  0  0  0  0  0
   -5.5234   -0.7999   -0.1396 C   0  0  0  0  0  0  0  0  0  0  0  0
   -4.8222   -0.1208   -1.1587 C   0  0  0  0  0  0  0  0  0  0  0  0
   -5.3775    0.2975   -2.0129 H   0  0  0  0  0  0  0  0  0  0  0  0
   -3.4339    0.0314   -1.1073 C   0  0  0  0  0  0  0  0  0  0  0  0
   -2.9005    0.5612   -1.9088 H   0  0  0  0  0  0  0  0  0  0  0  0
   -7.0167   -0.9842   -0.2149 C   0  0  0  0  0  0  0  0  0  0  0  0
   -7.4735   -1.0394    0.7928 H   0  0  0  0  0  0  0  0  0  0  0  0
   -7.2708   -1.9310   -0.7391 H   0  0  0  0  0  0  0  0  0  0  0  0
   -7.5039   -0.1614   -0.7744 H   0  0  0  0  0  0  0  0  0  0  0  0
   -1.5066    2.1085    0.0446 C   0  0  0  0  0  0  0  0  0  0  0  0
   -2.4431    2.3460    1.0746 C   0  0  0  0  0  0  0  0  0  0  0  0
   -2.6092    1.5790    1.8447 H   0  0  0  0  0  0  0  0  0  0  0  0
   -3.1573    3.5495    1.1155 C   0  0  0  0  0  0  0  0  0  0  0  0
   -3.8794    3.7260    1.9267 H   0  0  0  0  0  0  0  0  0  0  0  0
   -2.9568    4.5248    0.1246 C   0  0  0  0  0  0  0  0  0  0  0  0
   -3.5234    5.4676    0.1559 H   0  0  0  0  0  0  0  0  0  0  0  0
   -2.0320    4.2931   -0.9057 C   0  0  0  0  0  0  0  0  0  0  0  0
   -1.8721    5.0516   -1.6866 H   0  0  0  0  0  0  0  0  0  0  0  0
   -1.3046    3.0961   -0.9431 C   0  0  0  0  0  0  0  0  0  0  0  0
   -0.5763    2.9204   -1.7481 H   0  0  0  0  0  0  0  0  0  0  0  0
    1.5066    2.1085   -0.0446 C   0  0  0  0  0  0  0  0  0  0  0  0
    2.4431    2.3459   -1.0746 C   0  0  0  0  0  0  0  0  0  0  0  0
    2.6093    1.5789   -1.8446 H   0  0  0  0  0  0  0  0  0  0  0  0
    3.1573    3.5494   -1.1155 C   0  0  0  0  0  0  0  0  0  0  0  0
    3.8795    3.7259   -1.9266 H   0  0  0  0  0  0  0  0  0  0  0  0
    2.9567    4.5248   -0.1247 C   0  0  0  0  0  0  0  0  0  0  0  0
    3.5233    5.4677   -0.1560 H   0  0  0  0  0  0  0  0  0  0  0  0
    2.0319    4.2932    0.9056 C   0  0  0  0  0  0  0  0  0  0  0  0
    1.8719    5.0518    1.6863 H   0  0  0  0  0  0  0  0  0  0  0  0
    1.3045    3.0962    0.9430 C   0  0  0  0  0  0  0  0  0  0  0  0
    0.5761    2.9205    1.7479 H   0  0  0  0  0  0  0  0  0  0  0  0
    2.7073   -0.5104    0.0289 C   0  0  0  0  0  0  0  0  0  0  0  0
    3.3847   -1.2205   -0.9816 C   0  0  0  0  0  0  0  0  0  0  0  0
    2.8093   -1.6596   -1.8064 H   0  0  0  0  0  0  0  0  0  0  0  0
    4.7777   -1.3373   -0.9294 C   0  0  0  0  0  0  0  0  0  0  0  0
    5.2990   -1.8780   -1.7346 H   0  0  0  0  0  0  0  0  0  0  0  0
    5.5234   -0.7998    0.1398 C   0  0  0  0  0  0  0  0  0  0  0  0
    4.8222   -0.1206    1.1589 C   0  0  0  0  0  0  0  0  0  0  0  0
    5.3773    0.2977    2.0130 H   0  0  0  0  0  0  0  0  0  0  0  0
    3.4339    0.0315    1.1073 C   0  0  0  0  0  0  0  0  0  0  0  0
    2.9004    0.5614    1.9088 H   0  0  0  0  0  0  0  0  0  0  0  0
    7.0167   -0.9842    0.2153 C   0  0  0  0  0  0  0  0  0  0  0  0
    7.2707   -1.9317    0.7384 H   0  0  0  0  0  0  0  0  0  0  0  0
    7.5039   -0.1621    0.7757 H   0  0  0  0  0  0  0  0  0  0  0  0
    7.4737   -1.0384   -0.7925 H   0  0  0  0  0  0  0  0  0  0  0  0
  2  4  1  0  0  0  0
  2 41  1  0  0  0  0
  3  1  1  0  0  0  0
  3 19  1  0  0  0  0
  4  3  2  0  0  0  0
  5  1  1  0  0  0  0
  5  6  1  0  0  0  0
  6  7  1  0  0  0  0
  8  6  2  0  0  0  0
  8  9  1  0  0  0  0
 10  8  1  0  0  0  0
 11 13  1  0  0  0  0
 11 10  2  0  0  0  0
 12 11  1  0  0  0  0
 13  5  2  0  0  0  0
 14 13  1  0  0  0  0
 15 10  1  0  0  0  0
 15 16  1  0  0  0  0
 17 15  1  0  0  0  0
 18 15  1  0  0  0  0
 19 20  1  0  0  0  0
 20 22  2  0  0  0  0
 20 21  1  0  0  0  0
 22 23  1  0  0  0  0
 24 25  1  0  0  0  0
 24 22  1  0  0  0  0
 26 24  2  0  0  0  0
 27 26  1  0  0  0  0
 28 26  1  0  0  0  0
 28 19  2  0  0  0  0
 29 28  1  0  0  0  0
 30  4  1  0  0  0  0
 30 39  1  0  0  0  0
 31 30  2  0  0  0  0
 32 31  1  0  0  0  0
 33 31  1  0  0  0  0
 33 35  2  0  0  0  0
 34 33  1  0  0  0  0
 35 37  1  0  0  0  0
 36 35  1  0  0  0  0
 37 39  2  0  0  0  0
 37 38  1  0  0  0  0
 39 40  1  0  0  0  0
 41 49  1  0  0  0  0
 42 44  1  0  0  0  0
 42 41  2  0  0  0  0
 43 42  1  0  0  0  0
 44 46  2  0  0  0  0
 45 44  1  0  0  0  0
 46 51  1  0  0  0  0
 46 47  1  0  0  0  0
 47 48  1  0  0  0  0
 49 47  2  0  0  0  0
 49 50  1  0  0  0  0
 51 52  1  0  0  0  0
 51 53  1  0  0  0  0
 54 51  1  0  0  0  0
M  END
