1,20
q = 0.0, confidence = 0.996

 29 30  0  0  0  0  0  0  0  0999 V2000
   -1.1928   -1.3577    0.3829 N   0  0  0  0  0  0  0  0  0  0  0  0
    1.7871   -2.0056   -0.8147 C   0  0  0  0  0  0  0  0  0  0  0  0
    1.1004   -1.9489   -1.6783 H   0  0  0  0  0  0  0  0  0  0  0  0
    1.9805   -3.0825   -0.5872 H   0  0  0  0  0  0  0  0  0  0  0  0
   -2.3502   -1.2672    1.3119 C   0  0  0  0  0  0  0  0  0  0  0  0
   -2.1125   -0.5846    2.1486 H   0  0  0  0  0  0  0  0  0  0  0  0
   -2.5693   -2.2802    1.7281 H   0  0  0  0  0  0  0  0  0  0  0  0
   -3.5013   -0.7855    0.4160 C   0  0  0  0  0  0  0  0  0  0  0  0
   -3.5910    0.3161    0.4610 H   0  0  0  0  0  0  0  0  0  0  0  0
   -4.4665   -1.2148    0.7463 H   0  0  0  0  0  0  0  0  0  0  0  0
   -3.0986   -1.2399   -1.0165 C   0  0  0  0  0  0  0  0  0  0  0  0
   -3.8640   -1.8725   -1.5052 H   0  0  0  0  0  0  0  0  0  0  0  0
   -2.9231   -0.3600   -1.6648 H   0  0  0  0  0  0  0  0  0  0  0  0
   -1.7869   -2.0057   -0.8148 C   0  0  0  0  0  0  0  0  0  0  0  0
   -1.9802   -3.0826   -0.5874 H   0  0  0  0  0  0  0  0  0  0  0  0
   -1.1001   -1.9490   -1.6784 H   0  0  0  0  0  0  0  0  0  0  0  0
    0.0001   -2.0122    0.9428 C   0  0  0  0  0  0  0  0  0  0  0  0
    0.0001   -3.1160    0.7542 H   0  0  0  0  0  0  0  0  0  0  0  0
    0.0000   -1.8444    2.0366 H   0  0  0  0  0  0  0  0  0  0  0  0
    1.1929   -1.3576    0.3829 N   0  0  0  0  0  0  0  0  0  0  0  0
    3.0988   -1.2397   -1.0163 C   0  0  0  0  0  0  0  0  0  0  0  0
    2.9233   -0.3598   -1.6646 H   0  0  0  0  0  0  0  0  0  0  0  0
    3.8643   -1.8723   -1.5049 H   0  0  0  0  0  0  0  0  0  0  0  0
    3.5014   -0.7853    0.4162 C   0  0  0  0  0  0  0  0  0  0  0  0
    4.4666   -1.2146    0.7465 H   0  0  0  0  0  0  0  0  0  0  0  0
    3.5910    0.3163    0.4613 H   0  0  0  0  0  0  0  0  0  0  0  0
    2.3502   -1.2671    1.3120 C   0  0  0  0  0  0  0  0  0  0  0  0
    2.5693   -2.2800    1.7283 H   0  0  0  0  0  0  0  0  0  0  0  0
    2.1125   -0.5844    2.1487 H   0  0  0  0  0  0  0  0  0  0  0  0
  1 17  1  0  0  0  0
  1  5  1  0  0  0  0
  2  4  1  0  0  0  0
  2 20  1  0  0  0  0
  3  2  1  0  0  0  0
  5  7  1  0  0  0  0
  5  6  1  0  0  0  0
  8  9  1  0  0  0  0
  8 10  1  0  0  0  0
  8  5  1  0  0  0  0
 11 14  1  0  0  0  0
 11  8  1  0  0  0  0
 12 11  1  0  0  0  0
 13 11  1  0  0  0  0
 14 15  1  0  0  0  0
 14  1  1  0  0  0  0
 16 14  1  0  0  0  0
 17 19  1  0  0  0  0
 18 17  1  0  0  0  0
 20 17  1  0  0  0  0
 20 27  1  0  0  0  0
 21  2  1  0  0  0  0
 21 24  1  0  0  0  0
 22 21  1  0  0  0  0
 23 21  1  0  0  0  0
 24 26  1  0  0  0  0
 24 25  1  0  0  0  0
 24 27  1  0  0  0  0
 27 28  1  0  0  0  0
 27 29  1  0  0  0  0
M  END
