5,6
q = -1.0

 36 37  0  0  1  0  0  0  0  0999 V2000
    1.9836    3.0436    0.0125 Cl  0  0  0  0  0  0  0  0  0  0  0  0
    3.3999   -2.1279    0.9187 Cl  0  0  0  0  0  0  0  0  0  0  0  0
   -1.9835    3.0436    0.0120 Cl  0  0  0  0  0  0  0  0  0  0  0  0
   -3.4001   -2.1277    0.9191 Cl  0  0  0  0  0  0  0  0  0  0  0  0
    1.4745    0.2082    0.8702 N   0  0  0  0  0  2  0  0  0  0  0  0
   -1.4745    0.2083    0.8702 N   0  0  0  0  0  2  0  0  0  0  0  0
    2.7560    0.4524    0.3234 C   0  0  0  0  0  0  0  0  0  0  0  0
    3.1057    1.7243   -0.1941 C   0  0  0  0  0  0  0  0  0  0  0  0
    4.3285    1.9559   -0.8398 C   0  0  0  0  0  0  0  0  0  0  0  0
    4.5462    2.9580   -1.2335 H   0  0  0  0  0  0  0  0  0  0  0  0
    5.2487    0.9062   -0.9647 C   0  0  0  0  0  0  0  0  0  0  0  0
    6.2068    1.0771   -1.4768 H   0  0  0  0  0  0  0  0  0  0  0  0
    4.9605   -0.3565   -0.4302 C   0  0  0  0  0  0  0  0  0  0  0  0
    5.6769   -1.1859   -0.5023 H   0  0  0  0  0  0  0  0  0  0  0  0
    3.7334   -0.5668    0.2136 C   0  0  0  0  0  0  0  0  0  0  0  0
    1.2697    0.4310    2.1760 C   0  0  2  0  0  3  0  0  0  0  0  0
   -0.0001    0.3919    2.7919 C   0  0  0  0  0  3  0  0  0  0  0  0
   -0.0001    0.5385    3.8791 H   0  0  0  0  0  0  0  0  0  0  0  0
   -1.2698    0.4310    2.1759 C   0  0  1  0  0  3  0  0  0  0  0  0
    2.4562    0.7908    3.0410 C   0  0  0  0  0  0  0  0  0  0  0  0
    3.2618    0.0360    2.9429 H   0  0  0  0  0  0  0  0  0  0  0  0
    2.1648    0.8684    4.1034 H   0  0  0  0  0  0  0  0  0  0  0  0
    2.8782    1.7666    2.7238 H   0  0  0  0  0  0  0  0  0  0  0  0
   -2.4563    0.7908    3.0409 C   0  0  0  0  0  0  0  0  0  0  0  0
   -2.8784    1.7666    2.7237 H   0  0  0  0  0  0  0  0  0  0  0  0
   -2.1649    0.8685    4.1033 H   0  0  0  0  0  0  0  0  0  0  0  0
   -3.2619    0.0360    2.9428 H   0  0  0  0  0  0  0  0  0  0  0  0
   -2.7560    0.4524    0.3233 C   0  0  0  0  0  0  0  0  0  0  0  0
   -3.1057    1.7243   -0.1944 C   0  0  0  0  0  0  0  0  0  0  0  0
   -4.3285    1.9558   -0.8401 C   0  0  0  0  0  0  0  0  0  0  0  0
   -4.5461    2.9579   -1.2339 H   0  0  0  0  0  0  0  0  0  0  0  0
   -5.2487    0.9062   -0.9649 C   0  0  0  0  0  0  0  0  0  0  0  0
   -6.2068    1.0770   -1.4769 H   0  0  0  0  0  0  0  0  0  0  0  0
   -4.9606   -0.3565   -0.4302 C   0  0  0  0  0  0  0  0  0  0  0  0
   -5.6770   -1.1858   -0.5021 H   0  0  0  0  0  0  0  0  0  0  0  0
   -3.7334   -0.5667    0.2136 C   0  0  0  0  0  0  0  0  0  0  0  0
  7  5  1  0  0  0  0
  8  1  1  0  0  0  0
  8  7  2  0  0  0  0
  9  8  1  0  0  0  0
 10  9  1  0  0  0  0
 11  9  2  0  0  0  0
 11 13  1  0  0  0  0
 12 11  1  0  0  0  0
 13 15  2  0  0  0  0
 14 13  1  0  0  0  0
 15  7  1  0  0  0  0
 15  2  1  0  0  0  0
 16  5  1  6  0  0  0
 16 17  1  0  0  0  0
 16 20  1  0  0  0  0
 17 18  1  0  0  0  0
 19  6  1  6  0  0  0
 19 17  1  0  0  0  0
 19 24  1  0  0  0  0
 20 22  1  0  0  0  0
 21 20  1  0  0  0  0
 23 20  1  0  0  0  0
 24 26  1  0  0  0  0
 25 24  1  0  0  0  0
 27 24  1  0  0  0  0
 28  6  1  0  0  0  0
 29  3  1  0  0  0  0
 29 28  2  0  0  0  0
 30 29  1  0  0  0  0
 31 30  1  0  0  0  0
 32 30  2  0  0  0  0
 32 34  1  0  0  0  0
 33 32  1  0  0  0  0
 34 36  2  0  0  0  0
 35 34  1  0  0  0  0
 36 28  1  0  0  0  0
 36  4  1  0  0  0  0
M  END
