7,8
q = 0.0, confidence = 0.994

 26 27  0  0  1  0  0  0  0  0999 V2000
    3.5880    4.8207   -0.8273 F   0  0  0  0  0  0  0  0  0  0  0  0
    3.8162    4.3385    1.2881 F   0  0  0  0  0  0  0  0  0  0  0  0
    4.8148    3.1136   -0.2203 F   0  0  0  0  0  0  0  0  0  0  0  0
    4.8147   -3.1138   -0.2213 F   0  0  0  0  0  0  0  0  0  0  0  0
    3.8167   -4.3375    1.2885 F   0  0  0  0  0  0  0  0  0  0  0  0
    3.5877   -4.8214   -0.8264 F   0  0  0  0  0  0  0  0  0  0  0  0
    0.1833    1.2998   -0.0153 N   0  0  0  0  0  2  0  0  0  0  0  0
    0.1833   -1.2999   -0.0156 N   0  0  0  0  0  2  0  0  0  0  0  0
    0.0697    2.6449   -0.0875 C   0  0  0  0  0  3  0  0  0  0  0  0
   -0.9500    3.0423   -0.1713 H   0  0  0  0  0  0  0  0  0  0  0  0
    1.1804    3.4874   -0.0788 C   0  0  0  0  0  0  0  0  0  0  0  0
    1.0440    4.5759   -0.1421 H   0  0  0  0  0  0  0  0  0  0  0  0
    2.4632    2.9166   -0.0067 C   0  0  0  0  0  0  0  0  0  0  0  0
    2.5840    1.5259    0.0307 C   0  0  0  0  0  0  0  0  0  0  0  0
    3.5798    1.0651    0.0545 H   0  0  0  0  0  0  0  0  0  0  0  0
    1.4247    0.7327    0.0199 C   0  0  0  0  0  0  0  0  0  0  0  0
    1.4247   -0.7328    0.0198 C   0  0  2  0  0  3  0  0  0  0  0  0
    2.5839   -1.5260    0.0307 C   0  0  0  0  0  0  0  0  0  0  0  0
    3.5797   -1.0652    0.0546 H   0  0  0  0  0  0  0  0  0  0  0  0
    2.4631   -2.9167   -0.0069 C   0  0  0  0  0  0  0  0  0  0  0  0
    1.1803   -3.4875   -0.0792 C   0  0  0  0  0  0  0  0  0  0  0  0
    1.0439   -4.5759   -0.1427 H   0  0  0  0  0  0  0  0  0  0  0  0
    0.0696   -2.6449   -0.0880 C   0  0  0  0  0  0  0  0  0  0  0  0
   -0.9500   -3.0423   -0.1720 H   0  0  0  0  0  0  0  0  0  0  0  0
    3.6934    3.8086    0.0535 C   0  0  0  0  0  0  0  0  0  0  0  0
    3.6934   -3.8086    0.0536 C   0  0  0  0  0  0  0  0  0  0  0  0
  1 25  1  0  0  0  0
  3 25  1  0  0  0  0
  4 26  1  0  0  0  0
  6 26  1  0  0  0  0
  7 16  1  0  0  0  0
  8 17  1  0  0  0  0
  9 11  1  0  0  0  0
  9  7  1  0  0  0  0
 10  9  1  0  0  0  0
 11 13  2  0  0  0  0
 12 11  1  0  0  0  0
 13 14  1  0  0  0  0
 13 25  1  0  0  0  0
 14 15  1  0  0  0  0
 16 14  2  0  0  0  0
 17 16  1  6  0  0  0
 17 18  1  0  0  0  0
 18 19  1  0  0  0  0
 20 18  2  0  0  0  0
 20 26  1  0  0  0  0
 21 20  1  0  0  0  0
 22 21  1  0  0  0  0
 23 21  2  0  0  0  0
 23  8  1  0  0  0  0
 24 23  1  0  0  0  0
 25  2  1  0  0  0  0
 26  5  1  0  0  0  0
M  END
