2,3
q = -1.0, confidence = 0.0

 35 35  0  0  0  0  0  0  0  0999 V2000
    2.4308   -3.6077    0.3953 O   0  0  0  0  0  0  0  0  0  0  0  0
    2.0881   -1.2991   -0.0111 N   0  0  0  0  0  2  0  0  0  0  0  0
    0.2470   -2.6381    0.1475 N   0  0  0  0  0  0  0  0  0  0  0  0
    3.3986   -0.8191   -0.0972 C   0  0  0  0  0  0  0  0  0  0  0  0
    3.5967    0.5092   -0.5486 C   0  0  0  0  0  0  0  0  0  0  0  0
    2.7120    1.0995   -0.8225 H   0  0  0  0  0  0  0  0  0  0  0  0
    4.8820    1.0523   -0.6455 C   0  0  0  0  0  0  0  0  0  0  0  0
    5.0011    2.0897   -0.9965 H   0  0  0  0  0  0  0  0  0  0  0  0
    6.0106    0.2882   -0.3014 C   0  0  0  0  0  0  0  0  0  0  0  0
    7.0220    0.7174   -0.3758 H   0  0  0  0  0  0  0  0  0  0  0  0
    5.8248   -1.0333    0.1371 C   0  0  0  0  0  0  0  0  0  0  0  0
    6.6980   -1.6494    0.4079 H   0  0  0  0  0  0  0  0  0  0  0  0
    4.5431   -1.5909    0.2404 C   0  0  0  0  0  0  0  0  0  0  0  0
    4.3983   -2.6261    0.5728 H   0  0  0  0  0  0  0  0  0  0  0  0
    1.7666   -2.5893    0.1957 C   0  0  0  0  0  0  0  0  0  0  0  0
   -0.2874   -3.2101    1.4313 C   0  0  0  0  0  0  0  0  0  0  0  0
    0.1418   -4.2324    1.5279 H   0  0  0  0  0  0  0  0  0  0  0  0
   -1.8142   -3.2933    1.4200 C   0  0  0  0  0  0  0  0  0  0  0  0
   -2.1658   -3.6658    2.4028 H   0  0  0  0  0  0  0  0  0  0  0  0
   -2.2062   -3.9800    0.6453 H   0  0  0  0  0  0  0  0  0  0  0  0
   -2.2554   -2.2913    1.2513 H   0  0  0  0  0  0  0  0  0  0  0  0
    0.2003   -2.3818    2.6230 C   0  0  0  0  0  0  0  0  0  0  0  0
    1.3055   -2.3363    2.6634 H   0  0  0  0  0  0  0  0  0  0  0  0
   -0.1566   -2.8473    3.5641 H   0  0  0  0  0  0  0  0  0  0  0  0
   -0.1821   -1.3423    2.5602 H   0  0  0  0  0  0  0  0  0  0  0  0
   -0.2231   -3.3702   -1.0904 C   0  0  0  0  0  0  0  0  0  0  0  0
   -1.3044   -3.1376   -1.1575 H   0  0  0  0  0  0  0  0  0  0  0  0
    0.4400   -2.7874   -2.3397 C   0  0  0  0  0  0  0  0  0  0  0  0
    0.3143   -1.6866   -2.3628 H   0  0  0  0  0  0  0  0  0  0  0  0
   -0.0351   -3.2215   -3.2417 H   0  0  0  0  0  0  0  0  0  0  0  0
    1.5234   -3.0210   -2.3709 H   0  0  0  0  0  0  0  0  0  0  0  0
   -0.0257   -4.8915   -1.0252 C   0  0  0  0  0  0  0  0  0  0  0  0
    1.0440   -5.1355   -0.8791 H   0  0  0  0  0  0  0  0  0  0  0  0
   -0.3720   -5.3426   -1.9771 H   0  0  0  0  0  0  0  0  0  0  0  0
   -0.6024   -5.3645   -0.2061 H   0  0  0  0  0  0  0  0  0  0  0  0
  2 15  1  0  0  0  0
  3 15  1  0  0  0  0
  3 16  1  0  0  0  0
  4  2  1  0  0  0  0
  4 13  1  0  0  0  0
  5  4  2  0  0  0  0
  6  5  1  0  0  0  0
  7  5  1  0  0  0  0
  7  9  2  0  0  0  0
  8  7  1  0  0  0  0
  9 11  1  0  0  0  0
 10  9  1  0  0  0  0
 11 13  2  0  0  0  0
 11 12  1  0  0  0  0
 13 14  1  0  0  0  0
 15  1  2  0  0  0  0
 16 17  1  0  0  0  0
 16 22  1  0  0  0  0
 18 16  1  0  0  0  0
 18 19  1  0  0  0  0
 20 18  1  0  0  0  0
 21 18  1  0  0  0  0
 22 23  1  0  0  0  0
 22 24  1  0  0  0  0
 25 22  1  0  0  0  0
 26 32  1  0  0  0  0
 26  3  1  0  0  0  0
 27 26  1  0  0  0  0
 28 26  1  0  0  0  0
 29 28  1  0  0  0  0
 30 28  1  0  0  0  0
 31 28  1  0  0  0  0
 32 33  1  0  0  0  0
 32 35  1  0  0  0  0
 34 32  1  0  0  0  0
M  END
