2,4
q = -1.0, confidence = 0.0

 19 20  0  0  1  0  0  0  0  0999 V2000
    0.5363    3.9086   -0.0002 O   0  0  0  0  0  0  0  0  0  0  0  0
    1.3636    0.4226   -0.0002 N   0  0  0  0  0  2  0  0  0  0  0  0
    3.9805    1.5379    0.0006 N   0  0  0  0  0  0  0  0  0  0  0  0
   -0.7557    1.9783   -0.0003 N   0  0  0  0  0  2  0  0  0  0  0  0
   -1.6413    2.5018   -0.0002 H   0  0  0  0  0  0  0  0  0  0  0  0
    1.5810    1.7477   -0.0000 C   0  0  0  0  0  0  0  0  0  0  0  0
    2.8949    2.2875    0.0004 C   0  0  0  0  0  0  0  0  0  0  0  0
    2.9820    3.3876    0.0005 H   0  0  0  0  0  0  0  0  0  0  0  0
    3.7889    0.1878    0.0003 C   0  0  0  0  0  0  0  0  0  0  0  0
    4.9338   -0.6580    0.0004 C   0  0  0  0  0  0  0  0  0  0  0  0
    5.9159   -0.1643    0.0007 H   0  0  0  0  0  0  0  0  0  0  0  0
    4.7901   -2.0358   -0.0000 C   0  0  0  0  0  0  0  0  0  0  0  0
    5.6784   -2.6850    0.0000 H   0  0  0  0  0  0  0  0  0  0  0  0
    3.4924   -2.6127   -0.0005 C   0  0  0  0  0  0  0  0  0  0  0  0
    3.3843   -3.7078   -0.0008 H   0  0  0  0  0  0  0  0  0  0  0  0
    2.3502   -1.8238   -0.0005 C   0  0  0  0  0  0  0  0  0  0  0  0
    1.3476   -2.2759   -0.0008 H   0  0  0  0  0  0  0  0  0  0  0  0
    2.4672   -0.4104   -0.0002 C   0  0  1  0  0  3  0  0  0  0  0  0
    0.3958    2.6802   -0.0002 C   0  0  0  0  0  0  0  0  0  0  0  0
  1 19  2  0  0  0  0
  2 18  1  0  0  0  0
  2  6  1  0  0  0  0
  4 19  1  0  0  0  0
  4  5  1  0  0  0  0
  6  7  2  0  0  0  0
  7  8  1  0  0  0  0
  7  3  1  0  0  0  0
  9 10  1  0  0  0  0
  9  3  2  0  0  0  0
 10 11  1  0  0  0  0
 12 13  1  0  0  0  0
 12 10  2  0  0  0  0
 14 12  1  0  0  0  0
 15 14  1  0  0  0  0
 16 14  2  0  0  0  0
 17 16  1  0  0  0  0
 18 16  1  1  0  0  0
 18  9  1  0  0  0  0
 19  6  1  0  0  0  0
M  END
