1,2
q = 0.0, confidence = 0.996

 41 45  0  0  1  0  0  0  0  0999 V2000
    1.0761    1.3477   -1.8536 N   0  0  0  0  0  2  0  0  0  0  0  0
   -1.0019   -0.4630   -1.8315 N   0  0  0  0  0  2  0  0  0  0  0  0
    0.6619    0.8094   -3.0112 C   0  0  0  0  0  0  0  0  0  0  0  0
    2.1254    2.2217   -1.8456 C   0  0  0  0  0  0  0  0  0  0  0  0
   -0.4705   -0.1265   -2.9646 C   0  0  0  0  0  3  0  0  0  0  0  0
   -0.8312   -0.5180   -3.9360 H   0  0  0  0  0  0  0  0  0  0  0  0
   -2.1171   -1.3476   -1.7074 C   0  0  1  0  0  0  0  0  0  0  0  0
    2.8162    2.5762   -3.0638 C   0  0  0  0  0  0  0  0  0  0  0  0
    1.2837    1.1183   -4.2559 C   0  0  0  0  0  0  0  0  0  0  0  0
    0.9058    0.6545   -5.1789 H   0  0  0  0  0  0  0  0  0  0  0  0
    2.5511    2.7983   -0.6142 C   0  0  0  0  0  0  0  0  0  0  0  0
    2.0052    2.5229    0.3022 H   0  0  0  0  0  0  0  0  0  0  0  0
    2.3560    1.9921   -4.2779 C   0  0  0  0  0  0  0  0  0  0  0  0
    2.8593    2.2440   -5.2238 H   0  0  0  0  0  0  0  0  0  0  0  0
    3.9105    3.4841   -3.0008 C   0  0  0  0  0  3  0  0  0  0  0  0
    4.4349    3.7496   -3.9313 H   0  0  0  0  0  0  0  0  0  0  0  0
    3.6207    3.6801   -0.5887 C   0  0  0  0  0  0  0  0  0  0  0  0
    3.9428    4.1220    0.3660 H   0  0  0  0  0  0  0  0  0  0  0  0
    4.3068    4.0242   -1.7861 C   0  0  0  0  0  0  0  0  0  0  0  0
    5.1536    4.7248   -1.7449 H   0  0  0  0  0  0  0  0  0  0  0  0
   -3.8130   -2.8571   -2.6998 N   0  0  1  0  0  0  0  0  0  0  0  0
   -3.9756   -2.5773    0.1156 C   0  0  0  0  0  0  0  0  0  0  0  0
   -4.8386   -3.2412    0.3228 H   0  0  0  0  0  0  0  0  0  0  0  0
   -3.6193   -2.1491    1.0755 H   0  0  0  0  0  0  0  0  0  0  0  0
   -2.8969   -3.3714   -0.4919 N   0  0  1  0  0  0  0  0  0  0  0  0
   -4.4136   -1.4861   -0.7683 N   0  0  2  0  0  0  0  0  0  0  0  0
   -3.3823   -3.9142   -1.7743 C   0  0  0  0  0  0  0  0  0  0  0  0
   -4.2404   -4.5871   -1.5748 H   0  0  0  0  0  0  0  0  0  0  0  0
   -2.5730   -4.5089   -2.2455 H   0  0  0  0  0  0  0  0  0  0  0  0
   -4.8668   -2.0711   -2.0433 C   0  0  0  0  0  0  0  0  0  0  0  0
   -5.1941   -1.2555   -2.7204 H   0  0  0  0  0  0  0  0  0  0  0  0
   -5.7351   -2.7308   -1.8442 H   0  0  0  0  0  0  0  0  0  0  0  0
   -2.6761   -1.9837   -3.0088 C   0  0  0  0  0  0  0  0  0  0  0  0
   -1.8872   -2.5796   -3.5194 H   0  0  0  0  0  0  0  0  0  0  0  0
   -3.0105   -1.1939   -3.7174 H   0  0  0  0  0  0  0  0  0  0  0  0
   -1.7414   -2.5217   -0.7337 C   0  0  0  0  0  0  0  0  0  0  0  0
   -1.3697   -2.0912    0.2229 H   0  0  0  0  0  0  0  0  0  0  0  0
   -0.9196   -3.1204   -1.1817 H   0  0  0  0  0  0  0  0  0  0  0  0
   -3.3038   -0.5800   -1.0133 C   0  0  0  0  0  0  0  0  0  0  0  0
   -3.6315    0.2541   -1.6701 H   0  0  0  0  0  0  0  0  0  0  0  0
   -2.9441   -0.1427   -0.0568 H   0  0  0  0  0  0  0  0  0  0  0  0
  1  4  1  0  0  0  0
  3  5  1  0  0  0  0
  3  1  1  0  0  0  0
  4 11  2  0  0  0  0
  5  2  1  0  0  0  0
  6  5  1  0  0  0  0
  7  2  1  6  0  0  0
  7 39  1  0  0  0  0
  7 36  1  0  0  0  0
  8 15  1  0  0  0  0
  8  4  1  0  0  0  0
  9  3  2  0  0  0  0
 10  9  1  0  0  0  0
 11 17  1  0  0  0  0
 11 12  1  0  0  0  0
 13  9  1  0  0  0  0
 13  8  2  0  0  0  0
 14 13  1  0  0  0  0
 15 19  1  0  0  0  0
 16 15  1  0  0  0  0
 17 18  1  0  0  0  0
 19 20  1  0  0  0  0
 19 17  2  0  0  0  0
 21 33  1  1  0  0  0
 21 30  1  0  0  0  0
 21 27  1  0  0  0  0
 22 23  1  0  0  0  0
 22 24  1  0  0  0  0
 25 27  1  6  0  0  0
 25 22  1  0  0  0  0
 26 30  1  6  0  0  0
 26 22  1  0  0  0  0
 27 28  1  0  0  0  0
 29 27  1  0  0  0  0
 30 32  1  0  0  0  0
 31 30  1  0  0  0  0
 33  7  1  0  0  0  0
 34 33  1  0  0  0  0
 35 33  1  0  0  0  0
 36 25  1  0  0  0  0
 36 37  1  0  0  0  0
 38 36  1  0  0  0  0
 39 26  1  0  0  0  0
 39 41  1  0  0  0  0
 40 39  1  0  0  0  0
M  END
