1,2
q = 0.0, confidence = 0.976

 48 49  0  0  0  0  0  0  0  0999 V2000
    1.2222    1.0418   -0.0312 N   0  0  0  0  0  2  0  0  0  0  0  0
   -1.2571    0.6060   -0.0894 N   0  0  0  0  0  2  0  0  0  0  0  0
    3.1844   -0.5635    1.6358 O   0  0  0  0  0  0  0  0  0  0  0  0
    4.5334   -0.1007   -0.1244 O   0  0  0  0  0  0  0  0  0  0  0  0
    0.4572    2.1632   -0.2476 C   0  0  0  0  0  0  0  0  0  0  0  0
    1.0384    3.4306   -0.4354 C   0  0  0  0  0  0  0  0  0  0  0  0
    0.3944    4.3017   -0.6163 H   0  0  0  0  0  0  0  0  0  0  0  0
    2.4300    3.5522   -0.4010 C   0  0  0  0  0  0  0  0  0  0  0  0
    2.9126    4.5262   -0.5671 H   0  0  0  0  0  0  0  0  0  0  0  0
    3.2002    2.4114   -0.1309 C   0  0  0  0  0  0  0  0  0  0  0  0
    4.2954    2.4565   -0.0665 H   0  0  0  0  0  0  0  0  0  0  0  0
    2.5668    1.1747    0.0774 C   0  0  0  0  0  0  0  0  0  0  0  0
   -0.9700    1.8864   -0.2548 C   0  0  0  0  0  0  0  0  0  0  0  0
   -1.9842    2.9740   -0.4296 C   0  0  0  0  0  0  0  0  0  0  0  0
   -1.8764    3.4573   -1.4237 H   0  0  0  0  0  0  0  0  0  0  0  0
   -1.8485    3.7662    0.3355 H   0  0  0  0  0  0  0  0  0  0  0  0
   -3.0095    2.5720   -0.3453 H   0  0  0  0  0  0  0  0  0  0  0  0
   -2.6182    0.1764   -0.0476 C   0  0  0  0  0  0  0  0  0  0  0  0
   -3.2434    0.0702    1.2177 C   0  0  0  0  0  0  0  0  0  0  0  0
   -4.5843   -0.3530    1.2405 C   0  0  0  0  0  0  0  0  0  0  0  0
   -5.1044   -0.4485    2.2040 H   0  0  0  0  0  0  0  0  0  0  0  0
   -5.2607   -0.6677    0.0539 C   0  0  0  0  0  0  0  0  0  0  0  0
   -6.3088   -1.0010    0.0943 H   0  0  0  0  0  0  0  0  0  0  0  0
   -4.6055   -0.5805   -1.1822 C   0  0  0  0  0  0  0  0  0  0  0  0
   -5.1402   -0.8578   -2.1015 H   0  0  0  0  0  0  0  0  0  0  0  0
   -3.2661   -0.1613   -1.2596 C   0  0  0  0  0  0  0  0  0  0  0  0
   -2.4490    0.3888    2.4660 C   0  0  0  0  0  0  0  0  0  0  0  0
   -1.4884   -0.1696    2.4136 H   0  0  0  0  0  0  0  0  0  0  0  0
   -2.1462    1.4610    2.4326 H   0  0  0  0  0  0  0  0  0  0  0  0
   -3.1435    0.1010    3.7939 C   0  0  0  0  0  0  0  0  0  0  0  0
   -4.0652    0.7040    3.9293 H   0  0  0  0  0  0  0  0  0  0  0  0
   -2.4668    0.3323    4.6398 H   0  0  0  0  0  0  0  0  0  0  0  0
   -3.4255   -0.9683    3.8781 H   0  0  0  0  0  0  0  0  0  0  0  0
   -2.4824   -0.1132   -2.5534 C   0  0  0  0  0  0  0  0  0  0  0  0
   -2.1539    0.9341   -2.7436 H   0  0  0  0  0  0  0  0  0  0  0  0
   -1.5414   -0.6811   -2.3771 H   0  0  0  0  0  0  0  0  0  0  0  0
   -3.1925   -0.6559   -3.7897 C   0  0  0  0  0  0  0  0  0  0  0  0
   -3.4851   -1.7164   -3.6510 H   0  0  0  0  0  0  0  0  0  0  0  0
   -2.5245   -0.6081   -4.6720 H   0  0  0  0  0  0  0  0  0  0  0  0
   -4.1092   -0.0805   -4.0341 H   0  0  0  0  0  0  0  0  0  0  0  0
    3.3993    0.0180    0.5772 C   0  0  0  0  0  0  0  0  0  0  0  0
    5.3721   -1.2227    0.2440 C   0  0  0  0  0  0  0  0  0  0  0  0
    5.7097   -1.0887    1.2932 H   0  0  0  0  0  0  0  0  0  0  0  0
    4.7361   -2.1325    0.2106 H   0  0  0  0  0  0  0  0  0  0  0  0
    6.5214   -1.2839   -0.7380 C   0  0  0  0  0  0  0  0  0  0  0  0
    6.1470   -1.4179   -1.7718 H   0  0  0  0  0  0  0  0  0  0  0  0
    7.1790   -2.1410   -0.4929 H   0  0  0  0  0  0  0  0  0  0  0  0
    7.1315   -0.3593   -0.7030 H   0  0  0  0  0  0  0  0  0  0  0  0
  1 12  1  0  0  0  0
  2 18  1  0  0  0  0
  4 42  1  0  0  0  0
  4 41  1  0  0  0  0
  5  1  1  0  0  0  0
  6  8  2  0  0  0  0
  6  5  1  0  0  0  0
  7  6  1  0  0  0  0
  8 10  1  0  0  0  0
  9  8  1  0  0  0  0
 10 11  1  0  0  0  0
 10 12  2  0  0  0  0
 12 41  1  0  0  0  0
 13  5  2  0  0  0  0
 13  2  1  0  0  0  0
 14 17  1  0  0  0  0
 14 13  1  0  0  0  0
 14 16  1  0  0  0  0
 15 14  1  0  0  0  0
 18 19  1  0  0  0  0
 19 20  2  0  0  0  0
 19 27  1  0  0  0  0
 20 21  1  0  0  0  0
 22 23  1  0  0  0  0
 22 20  1  0  0  0  0
 24 22  2  0  0  0  0
 25 24  1  0  0  0  0
 26 24  1  0  0  0  0
 26 18  2  0  0  0  0
 27 30  1  0  0  0  0
 28 27  1  0  0  0  0
 29 27  1  0  0  0  0
 30 33  1  0  0  0  0
 30 31  1  0  0  0  0
 30 32  1  0  0  0  0
 34 36  1  0  0  0  0
 34 26  1  0  0  0  0
 35 34  1  0  0  0  0
 37 38  1  0  0  0  0
 37 34  1  0  0  0  0
 39 37  1  0  0  0  0
 40 37  1  0  0  0  0
 41  3  2  0  0  0  0
 42 43  1  0  0  0  0
 44 42  1  0  0  0  0
 45 48  1  0  0  0  0
 45 47  1  0  0  0  0
 45 42  1  0  0  0  0
 46 45  1  0  0  0  0
M  END
