14,24
q = 0.0, confidence = 0.974

 26 26  0  0  1  0  0  0  0  0999 V2000
    3.9170   -2.9643   -1.3735 C   0  0  0  0  0  0  0  0  0  0  0  0
    3.2628   -3.3467   -0.5628 H   0  0  0  0  0  0  0  0  0  0  0  0
    4.5944   -3.7791   -1.6877 H   0  0  0  0  0  0  0  0  0  0  0  0
    3.2593   -2.7218   -2.2338 H   0  0  0  0  0  0  0  0  0  0  0  0
    4.6971   -1.7663   -0.9172 C   0  0  0  0  0  0  0  0  0  0  0  0
    6.1167   -1.7084   -0.8552 C   0  0  0  0  0  0  0  0  0  0  0  0
    6.7708   -2.5365   -1.1602 H   0  0  0  0  0  0  0  0  0  0  0  0
    6.6000   -0.5015   -0.3766 C   0  0  0  0  0  0  0  0  0  0  0  0
    7.6464   -0.1967   -0.2460 H   0  0  0  0  0  0  0  0  0  0  0  0
    5.3396    0.5938    0.0305 S   0  0  0  0  0  0  0  0  0  0  0  0
    4.1072   -0.5678   -0.4528 C   0  0  0  0  0  0  0  0  0  0  0  0
    2.6905   -0.3665   -0.4297 C   0  0  0  0  0  3  0  0  0  0  0  0
    2.1017   -1.1053   -1.0068 H   0  0  0  0  0  0  0  0  0  0  0  0
    1.9419    0.5343    0.1521 N   0  0  0  0  0  2  0  0  0  0  0  0
    2.4606    1.5649    1.0447 C   0  0  0  0  0  0  0  0  0  0  0  0
    2.6066    2.5196    0.4843 H   0  0  0  0  0  0  0  0  0  0  0  0
    3.4496    1.2886    1.4667 H   0  0  0  0  0  0  0  0  0  0  0  0
    1.4564    1.7658    2.1811 C   0  0  1  0  0  0  0  0  0  0  0  0
    1.4192    0.8212    2.7606 H   0  0  0  0  0  0  0  0  0  0  0  0
    1.7854    2.9401    3.0937 C   0  0  0  0  0  0  0  0  0  0  0  0
    1.8203    3.8969    2.5304 H   0  0  0  0  0  0  0  0  0  0  0  0
    2.7740    2.7980    3.5726 H   0  0  0  0  0  0  0  0  0  0  0  0
    1.0364    3.0392    3.9040 H   0  0  0  0  0  0  0  0  0  0  0  0
    0.1145    1.8749    1.5414 N   0  0  0  0  0  0  0  0  0  0  0  0
   -0.0622    2.8513    1.2557 H   0  0  0  0  0  0  0  0  0  0  0  0
   -0.6233    1.6277    2.2180 H   0  0  0  0  0  0  0  0  0  0  0  0
  1  5  1  0  0  0  0
  1  2  1  0  0  0  0
  3  1  1  0  0  0  0
  4  1  1  0  0  0  0
  5  6  1  0  0  0  0
  5 11  2  0  0  0  0
  6  8  2  0  0  0  0
  7  6  1  0  0  0  0
  8  9  1  0  0  0  0
  8 10  1  0  0  0  0
 11 12  1  0  0  0  0
 11 10  1  0  0  0  0
 12 14  1  0  0  0  0
 13 12  1  0  0  0  0
 14 15  1  0  0  0  0
 15 17  1  0  0  0  0
 15 18  1  0  0  0  0
 16 15  1  0  0  0  0
 18 19  1  1  0  0  0
 18 20  1  0  0  0  0
 20 22  1  0  0  0  0
 20 23  1  0  0  0  0
 21 20  1  0  0  0  0
 24 18  1  0  0  0  0
 24 26  1  0  0  0  0
 25 24  1  0  0  0  0
M  END
