1,5
q = -2.0, confidence = 0.63

  7  6  0  0  0  0  0  0  0  0999 V2000
    0.3614   -2.3120    2.0234 N   0  0  0  0  0  2  0  0  0  0  0  0
    2.0698   -2.3681    2.1380 S   0  0  0  0  0  0  0  0  0  0  0  0
    2.6065   -3.6022    1.5231 O   0  0  0  0  0  0  0  0  0  0  0  0
    2.4865   -2.0244    3.5154 O   0  0  0  0  0  0  0  0  0  0  0  0
    2.2905   -1.0480    1.0694 N   0  0  0  0  0  2  0  0  0  0  0  0
    0.0399   -2.0137    2.9600 H   0  0  0  0  0  0  0  0  0  0  0  0
    2.8944   -1.3770    0.2975 H   0  0  0  0  0  0  0  0  0  0  0  0
  1  2  1  0  0  0  0
  1  6  1  0  0  0  0
  2  4  2  0  0  0  0
  3  2  2  0  0  0  0
  5  2  1  0  0  0  0
  7  5  1  0  0  0  0
M  END
