1,2
q = 0.0, confidence = 0.932

  9  8  0  0  0  0  0  0  0  0999 V2000
    1.2690    1.4054   -0.5689 N   0  0  0  0  0  2  0  0  0  0  0  0
    2.2308   -0.7718    0.2555 N   0  0  0  0  0  2  0  0  0  0  0  0
    2.5793    1.3534   -0.5835 C   0  0  0  0  0  0  0  0  0  0  0  0
    3.1413    0.1004   -0.1065 C   0  0  0  0  0  0  0  0  0  0  0  0
    3.3123    2.3936   -1.0180 O   0  0  0  0  0  0  0  0  0  0  0  0
    0.8415    2.2736   -0.9181 H   0  0  0  0  0  0  0  0  0  0  0  0
    4.2229   -0.1041   -0.0553 H   0  0  0  0  0  0  0  0  0  0  0  0
    2.5240   -1.6962    0.6048 H   0  0  0  0  0  0  0  0  0  0  0  0
    4.2621    2.1775   -0.9671 H   0  0  0  0  0  0  0  0  0  0  0  0
  2  8  1  0  0  0  0
  3  1  1  0  0  0  0
  3  4  2  0  0  0  0
  4  7  1  0  0  0  0
  4  2  1  0  0  0  0
  5  9  1  0  0  0  0
  5  3  1  0  0  0  0
  6  1  1  0  0  0  0
M  END
