1,2
q = 0.0, confidence = 0.996

 27 28  0  0  0  0  0  0  0  0999 V2000
   -0.2856    2.0983   -0.7106 N   0  0  0  0  0  2  0  0  0  0  0  0
    2.3309    2.0794   -0.3659 N   0  0  0  0  0  2  0  0  0  0  0  0
   -6.2260   -0.2251   -1.4738 O   0  0  0  0  0  0  0  0  0  0  0  0
   -6.5062    1.0594    0.3666 O   0  0  0  0  0  0  0  0  0  0  0  0
   -7.3862    0.6355    0.2728 H   0  0  0  0  0  0  0  0  0  0  0  0
   -4.3707    1.0790   -0.6761 C   0  0  0  0  0  0  0  0  0  0  0  0
   -3.8321    1.8144    0.4015 C   0  0  0  0  0  0  0  0  0  0  0  0
   -4.4687    2.0525    1.2647 H   0  0  0  0  0  0  0  0  0  0  0  0
   -2.4884    2.1989    0.3895 C   0  0  0  0  0  0  0  0  0  0  0  0
   -2.0481    2.7091    1.2588 H   0  0  0  0  0  0  0  0  0  0  0  0
   -1.6637    1.8482   -0.7063 C   0  0  0  0  0  0  0  0  0  0  0  0
   -2.2045    1.1140   -1.7894 C   0  0  0  0  0  0  0  0  0  0  0  0
   -1.5332    0.8145   -2.6082 H   0  0  0  0  0  0  0  0  0  0  0  0
   -3.5485    0.7454   -1.7750 C   0  0  0  0  0  0  0  0  0  0  0  0
   -3.9832    0.1541   -2.5938 H   0  0  0  0  0  0  0  0  0  0  0  0
   -5.7680    0.5675   -0.6650 C   0  0  0  0  0  0  0  0  0  0  0  0
    0.2400    3.2113   -0.2661 C   0  0  0  0  0  0  0  0  0  0  0  0
   -0.3724    4.0902    0.0156 H   0  0  0  0  0  0  0  0  0  0  0  0
    1.6885    3.2727   -0.1673 C   0  0  0  0  0  0  0  0  0  0  0  0
    2.4008    4.4581    0.1174 C   0  0  0  0  0  0  0  0  0  0  0  0
    1.8512    5.3992    0.2699 H   0  0  0  0  0  0  0  0  0  0  0  0
    3.7950    4.4118    0.1842 C   0  0  0  0  0  0  0  0  0  0  0  0
    4.3744    5.3216    0.4005 H   0  0  0  0  0  0  0  0  0  0  0  0
    4.4472    3.1828   -0.0404 C   0  0  0  0  0  0  0  0  0  0  0  0
    5.5430    3.1034    0.0001 H   0  0  0  0  0  0  0  0  0  0  0  0
    3.6749    2.0484   -0.3160 C   0  0  0  0  0  0  0  0  0  0  0  0
    4.1379    1.0665   -0.5081 H   0  0  0  0  0  0  0  0  0  0  0  0
  1 11  1  0  0  0  0
  1 17  1  0  0  0  0
  2 26  1  0  0  0  0
  2 19  1  0  0  0  0
  3 16  2  0  0  0  0
  5  4  1  0  0  0  0
  6 16  1  0  0  0  0
  6  7  1  0  0  0  0
  7  8  1  0  0  0  0
  9  7  2  0  0  0  0
  9 10  1  0  0  0  0
 11  9  1  0  0  0  0
 12 14  1  0  0  0  0
 12 11  2  0  0  0  0
 13 12  1  0  0  0  0
 14  6  2  0  0  0  0
 15 14  1  0  0  0  0
 16  4  1  0  0  0  0
 17 19  2  0  0  0  0
 17 18  1  0  0  0  0
 19 20  1  0  0  0  0
 20 22  2  0  0  0  0
 20 21  1  0  0  0  0
 22 23  1  0  0  0  0
 24 25  1  0  0  0  0
 24 22  1  0  0  0  0
 26 24  2  0  0  0  0
 27 26  1  0  0  0  0
M  END
