1,2
q = -1.0

 25 26  0  0  0  0  0  0  0  0999 V2000
    1.5468    1.9378   -0.3657 N   0  0  0  0  0  0  0  0  0  0  0  0
   -1.0855    1.2385   -0.3830 N   0  0  0  0  0  2  0  0  0  0  0  0
    2.7447    2.5779   -0.3347 C   0  0  0  0  0  0  0  0  0  0  0  0
    3.6766    2.0350   -0.5358 H   0  0  0  0  0  0  0  0  0  0  0  0
    2.5803    3.9503   -0.0312 C   0  0  0  0  0  0  0  0  0  0  0  0
    3.3815    4.6937    0.0550 H   0  0  0  0  0  0  0  0  0  0  0  0
    1.1982    4.1624    0.1257 C   0  0  0  0  0  0  0  0  0  0  0  0
    0.6847    5.1034    0.3576 H   0  0  0  0  0  0  0  0  0  0  0  0
    0.5830    2.9023   -0.0876 C   0  0  0  0  0  3  0  0  0  0  0  0
   -0.7693    2.4934   -0.0993 C   0  0  0  0  0  3  0  0  0  0  0  0
   -1.5647    3.2341    0.1126 H   0  0  0  0  0  0  0  0  0  0  0  0
   -2.4449    0.8588   -0.2581 C   0  0  0  0  0  0  0  0  0  0  0  0
   -3.0638    0.0634   -1.2464 C   0  0  0  0  0  0  0  0  0  0  0  0
   -2.4877   -0.2298   -2.1319 H   0  0  0  0  0  0  0  0  0  0  0  0
   -4.3986   -0.3302   -1.1086 C   0  0  0  0  0  0  0  0  0  0  0  0
   -4.8578   -0.9445   -1.8997 H   0  0  0  0  0  0  0  0  0  0  0  0
   -5.1716    0.0446    0.0114 C   0  0  0  0  0  0  0  0  0  0  0  0
   -4.5528    0.8517    0.9854 C   0  0  0  0  0  0  0  0  0  0  0  0
   -5.1270    1.1654    1.8718 H   0  0  0  0  0  0  0  0  0  0  0  0
   -3.2167    1.2548    0.8584 C   0  0  0  0  0  0  0  0  0  0  0  0
   -2.7528    1.8639    1.6484 H   0  0  0  0  0  0  0  0  0  0  0  0
   -6.5997   -0.4159    0.1570 C   0  0  0  0  0  0  0  0  0  0  0  0
   -7.1839   -0.2241   -0.7665 H   0  0  0  0  0  0  0  0  0  0  0  0
   -7.1105    0.0941    0.9966 H   0  0  0  0  0  0  0  0  0  0  0  0
   -6.6530   -1.5091    0.3474 H   0  0  0  0  0  0  0  0  0  0  0  0
  1  3  2  0  0  0  0
  1  9  1  0  0  0  0
  2 12  1  0  0  0  0
  2 10  1  0  0  0  0
  3  5  1  0  0  0  0
  4  3  1  0  0  0  0
  5  6  1  0  0  0  0
  5  7  2  0  0  0  0
  7  8  1  0  0  0  0
  9  7  1  0  0  0  0
 10  9  1  0  0  0  0
 10 11  1  0  0  0  0
 12 20  1  0  0  0  0
 13 15  1  0  0  0  0
 13 12  2  0  0  0  0
 14 13  1  0  0  0  0
 15 17  2  0  0  0  0
 16 15  1  0  0  0  0
 17 22  1  0  0  0  0
 17 18  1  0  0  0  0
 18 19  1  0  0  0  0
 20 18  2  0  0  0  0
 20 21  1  0  0  0  0
 22 25  1  0  0  0  0
 22 24  1  0  0  0  0
 23 22  1  0  0  0  0
M  END
