1,3
q = 0.0, confidence = 1.0

 21 22  0  0  1  0  0  0  0  0999 V2000
   -1.9573    0.1921   -0.0272 N   0  0  0  0  0  2  0  0  0  0  0  0
   -2.5866   -1.0538    0.0268 N   0  0  0  0  0  0  0  0  0  0  0  0
   -0.4762   -1.8472    0.1615 N   0  0  0  0  0  2  0  0  0  0  0  0
    0.1670   -2.6396    0.2630 H   0  0  0  0  0  0  0  0  0  0  0  0
   -2.8975    1.1270   -0.1271 C   0  0  0  0  0  0  0  0  0  0  0  0
   -2.5692    2.1767   -0.1758 H   0  0  0  0  0  0  0  0  0  0  0  0
   -4.1917    0.5172   -0.1453 C   0  0  0  0  0  0  0  0  0  0  0  0
   -5.5068    1.0182   -0.2354 C   0  0  0  0  0  3  0  0  0  0  0  0
   -5.6821    2.1010   -0.3121 H   0  0  0  0  0  0  0  0  0  0  0  0
   -6.5695    0.1104   -0.2245 C   0  0  0  0  0  0  0  0  0  0  0  0
   -7.6036    0.4789   -0.2935 H   0  0  0  0  0  0  0  0  0  0  0  0
   -6.3347   -1.2799   -0.1256 C   0  0  0  0  0  0  0  0  0  0  0  0
   -7.1888   -1.9733   -0.1191 H   0  0  0  0  0  0  0  0  0  0  0  0
   -5.0373   -1.8056   -0.0346 C   0  0  0  0  0  0  0  0  0  0  0  0
   -4.8882   -2.8886    0.0410 H   0  0  0  0  0  0  0  0  0  0  0  0
   -3.9697   -0.8924   -0.0451 C   0  0  0  0  0  0  0  0  0  0  0  0
   -2.3126   -3.5269    0.2252 C   0  0  0  0  0  0  0  0  0  0  0  0
   -1.4916   -4.2607    0.3196 H   0  0  0  0  0  0  0  0  0  0  0  0
   -2.9018   -3.7755   -0.6807 H   0  0  0  0  0  0  0  0  0  0  0  0
   -2.9781   -3.6305    1.1061 H   0  0  0  0  0  0  0  0  0  0  0  0
   -1.7435   -2.1490    0.1392 C   0  0  1  0  0  3  0  0  0  0  0  0
  1  2  1  0  0  0  0
  2 21  1  0  0  0  0
  3  4  1  0  0  0  0
  5  1  1  0  0  0  0
  6  5  1  0  0  0  0
  7  5  2  0  0  0  0
  7 16  1  0  0  0  0
  8 10  1  0  0  0  0
  8  7  1  0  0  0  0
  9  8  1  0  0  0  0
 10 12  2  0  0  0  0
 11 10  1  0  0  0  0
 12 13  1  0  0  0  0
 12 14  1  0  0  0  0
 14 15  1  0  0  0  0
 16 14  2  0  0  0  0
 16  2  1  0  0  0  0
 17 18  1  0  0  0  0
 17 20  1  0  0  0  0
 19 17  1  0  0  0  0
 21  3  1  1  0  0  0
 21 17  1  0  0  0  0
M  END
