2,4
q = -1.0

 37 40  0  0  0  0  0  0  0  0999 V2000
   -7.5331   -2.1386    0.0709 Cl  0  0  0  0  0  0  0  0  0  0  0  0
    0.5845   -0.5909   -0.1396 N   0  0  0  0  0  0  0  0  0  0  0  0
   -2.4782    5.5963   -0.1993 Cl  0  0  0  0  0  0  0  0  0  0  0  0
    2.8602   -2.0009   -0.2668 N   0  0  0  0  0  2  0  0  0  0  0  0
   -0.7324   -0.1800   -0.0800 C   0  0  0  0  0  3  0  0  0  0  0  0
    0.5078   -1.9735   -0.1360 C   0  0  0  0  0  0  0  0  0  0  0  0
   -1.5419   -1.3517   -0.0448 C   0  0  0  0  0  0  0  0  0  0  0  0
   -3.0067   -1.5004   -0.0247 C   0  0  0  0  0  0  0  0  0  0  0  0
   -3.5643   -2.6932    0.4933 C   0  0  0  0  0  0  0  0  0  0  0  0
   -2.8789   -3.4667    0.8683 H   0  0  0  0  0  0  0  0  0  0  0  0
    1.7644   -4.1573   -0.3398 C   0  0  0  0  0  0  0  0  0  0  0  0
    0.8162   -4.7117   -0.3142 H   0  0  0  0  0  0  0  0  0  0  0  0
    4.0517   -2.6082   -0.3908 C   0  0  0  0  0  3  0  0  0  0  0  0
    4.9294   -1.9413   -0.3919 H   0  0  0  0  0  0  0  0  0  0  0  0
   -0.7347   -2.4572   -0.0732 N   0  0  0  0  0  0  0  0  0  0  0  0
   -5.8022   -1.8989    0.0278 C   0  0  0  0  0  0  0  0  0  0  0  0
   -2.4610    3.0727    0.8422 C   0  0  0  0  0  0  0  0  0  0  0  0
   -3.1575    3.4615    1.5980 H   0  0  0  0  0  0  0  0  0  0  0  0
    1.7252   -2.7482   -0.2469 C   0  0  0  0  0  0  0  0  0  0  0  0
   -2.0434    1.7366    0.8676 C   0  0  0  0  0  0  0  0  0  0  0  0
   -2.4199    1.0646    1.6527 H   0  0  0  0  0  0  0  0  0  0  0  0
   -1.1421    1.2320   -0.0973 C   0  0  0  0  0  0  0  0  0  0  0  0
   -0.6671    2.1116   -1.0947 C   0  0  0  0  0  0  0  0  0  0  0  0
    0.0245    1.7332   -1.8608 H   0  0  0  0  0  0  0  0  0  0  0  0
    3.0062   -4.7808   -0.4660 C   0  0  0  0  0  0  0  0  0  0  0  0
    3.0696   -5.8770   -0.5425 H   0  0  0  0  0  0  0  0  0  0  0  0
   -5.2768   -0.7144   -0.5131 C   0  0  0  0  0  0  0  0  0  0  0  0
   -5.9564    0.0477   -0.9197 H   0  0  0  0  0  0  0  0  0  0  0  0
   -3.8900   -0.5237   -0.5404 C   0  0  0  0  0  0  0  0  0  0  0  0
   -3.4904    0.3954   -0.9898 H   0  0  0  0  0  0  0  0  0  0  0  0
   -4.9476   -2.8963    0.5260 C   0  0  0  0  0  0  0  0  0  0  0  0
   -5.3733   -3.8229    0.9364 H   0  0  0  0  0  0  0  0  0  0  0  0
   -1.0755    3.4505   -1.1332 C   0  0  0  0  0  0  0  0  0  0  0  0
   -0.7154    4.1293   -1.9188 H   0  0  0  0  0  0  0  0  0  0  0  0
   -1.9710    3.9261   -0.1601 C   0  0  0  0  0  0  0  0  0  0  0  0
    4.1785   -3.9977   -0.4977 C   0  0  0  0  0  0  0  0  0  0  0  0
    5.1720   -4.4564   -0.5990 H   0  0  0  0  0  0  0  0  0  0  0  0
  2  6  2  0  0  0  0
  2  5  1  0  0  0  0
  3 35  1  0  0  0  0
  4 19  1  0  0  0  0
  5  7  1  0  0  0  0
  6 15  1  0  0  0  0
  7  8  1  0  0  0  0
  8  9  1  0  0  0  0
  9 31  2  0  0  0  0
  9 10  1  0  0  0  0
 11 12  1  0  0  0  0
 11 19  2  0  0  0  0
 13  4  1  0  0  0  0
 14 13  1  0  0  0  0
 15  7  2  0  0  0  0
 16  1  1  0  0  0  0
 16 31  1  0  0  0  0
 17 20  1  0  0  0  0
 17 18  1  0  0  0  0
 19  6  1  0  0  0  0
 20 21  1  0  0  0  0
 22  5  1  0  0  0  0
 22 20  2  0  0  0  0
 23 22  1  0  0  0  0
 24 23  1  0  0  0  0
 25 11  1  0  0  0  0
 26 25  1  0  0  0  0
 27 16  2  0  0  0  0
 28 27  1  0  0  0  0
 29 27  1  0  0  0  0
 29  8  2  0  0  0  0
 30 29  1  0  0  0  0
 31 32  1  0  0  0  0
 33 23  2  0  0  0  0
 33 35  1  0  0  0  0
 34 33  1  0  0  0  0
 35 17  2  0  0  0  0
 36 25  2  0  0  0  0
 36 13  1  0  0  0  0
 37 36  1  0  0  0  0
M  END
