1,2
q = -1.0

 50 51  0  0  1  0  0  0  0  0999 V2000
   -1.1908   -2.1943   -0.0224 N   0  0  0  0  0  2  0  0  0  0  0  0
    1.7246   -2.0638   -0.4523 N   0  0  0  0  0  2  0  0  0  0  0  0
    5.8798   -0.6973    0.3626 N   0  0  0  0  0  0  0  0  0  0  0  0
   -2.5081   -1.6958    0.1184 C   0  0  0  0  0  0  0  0  0  0  0  0
   -2.9751   -1.2875    1.3963 C   0  0  0  0  0  0  0  0  0  0  0  0
   -2.0743   -1.4281    2.5942 C   0  0  0  0  0  0  0  0  0  0  0  0
   -1.1028   -0.9205    2.4106 H   0  0  0  0  0  0  0  0  0  0  0  0
   -1.8218   -2.4891    2.8029 H   0  0  0  0  0  0  0  0  0  0  0  0
   -2.5365   -0.9979    3.5033 H   0  0  0  0  0  0  0  0  0  0  0  0
   -4.2619   -0.7319    1.5043 C   0  0  0  0  0  0  0  0  0  0  0  0
   -4.6204   -0.4191    2.4994 H   0  0  0  0  0  0  0  0  0  0  0  0
   -5.0991   -0.5602    0.3849 C   0  0  0  0  0  0  0  0  0  0  0  0
   -6.4584    0.0801    0.5239 C   0  0  0  0  0  0  0  0  0  0  0  0
   -6.9575   -0.2177    1.4679 H   0  0  0  0  0  0  0  0  0  0  0  0
   -7.1265   -0.1911   -0.3173 H   0  0  0  0  0  0  0  0  0  0  0  0
   -6.3834    1.1901    0.5370 H   0  0  0  0  0  0  0  0  0  0  0  0
   -4.6051   -0.9573   -0.8713 C   0  0  0  0  0  0  0  0  0  0  0  0
   -5.2362   -0.8222   -1.7657 H   0  0  0  0  0  0  0  0  0  0  0  0
   -3.3244   -1.5168   -1.0285 C   0  0  0  0  0  0  0  0  0  0  0  0
   -2.7904   -1.8919   -2.3853 C   0  0  0  0  0  0  0  0  0  0  0  0
   -3.4950   -1.6112   -3.1915 H   0  0  0  0  0  0  0  0  0  0  0  0
   -2.5872   -2.9805   -2.4682 H   0  0  0  0  0  0  0  0  0  0  0  0
   -1.8154   -1.3916   -2.5690 H   0  0  0  0  0  0  0  0  0  0  0  0
   -2.0705   -4.4669    0.2967 C   0  0  0  0  0  0  0  0  0  0  0  0
   -2.5986   -4.2234    1.2415 H   0  0  0  0  0  0  0  0  0  0  0  0
   -1.7211   -5.5141    0.3455 H   0  0  0  0  0  0  0  0  0  0  0  0
   -2.8308   -4.3829   -0.5068 H   0  0  0  0  0  0  0  0  0  0  0  0
   -0.9228   -3.5057    0.0574 C   0  0  2  0  0  3  0  0  0  0  0  0
    0.3777   -4.0479   -0.0607 C   0  0  0  0  0  0  0  0  0  0  0  0
    0.4399   -5.1397    0.0389 H   0  0  0  0  0  0  0  0  0  0  0  0
    1.6161   -3.3852   -0.2820 C   0  0  0  0  0  0  0  0  0  0  0  0
    2.8514   -4.2691   -0.3296 C   0  0  0  0  0  0  0  0  0  0  0  0
    2.5882   -5.3224   -0.1257 H   0  0  0  0  0  0  0  0  0  0  0  0
    3.6114   -3.9538    0.4148 H   0  0  0  0  0  0  0  0  0  0  0  0
    3.3426   -4.2270   -1.3242 H   0  0  0  0  0  0  0  0  0  0  0  0
    3.0237   -1.4317   -0.6241 C   0  0  0  0  0  0  0  0  0  0  0  0
    2.9465   -0.6785   -1.4375 H   0  0  0  0  0  0  0  0  0  0  0  0
    3.8291   -2.1363   -0.9181 H   0  0  0  0  0  0  0  0  0  0  0  0
    3.4686   -0.7056    0.6642 C   0  0  0  0  0  0  0  0  0  0  0  0
    2.6530   -0.0196    0.9730 H   0  0  0  0  0  0  0  0  0  0  0  0
    3.6037   -1.4589    1.4678 H   0  0  0  0  0  0  0  0  0  0  0  0
    4.7575    0.0464    0.4655 C   0  0  0  0  0  0  0  0  0  0  0  0
    4.7782    1.4518    0.3375 C   0  0  0  0  0  0  0  0  0  0  0  0
    3.8406    2.0228    0.4206 H   0  0  0  0  0  0  0  0  0  0  0  0
    5.9992    2.0994    0.1085 C   0  0  0  0  0  0  0  0  0  0  0  0
    6.0415    3.1953    0.0099 H   0  0  0  0  0  0  0  0  0  0  0  0
    7.1639    1.3252    0.0085 C   0  0  0  0  0  0  0  0  0  0  0  0
    8.1467    1.7866   -0.1690 H   0  0  0  0  0  0  0  0  0  0  0  0
    7.0427   -0.0681    0.1419 C   0  0  0  0  0  0  0  0  0  0  0  0
    7.9391   -0.7107    0.0672 H   0  0  0  0  0  0  0  0  0  0  0  0
  1 28  1  0  0  0  0
  1  4  1  0  0  0  0
  2 31  1  0  0  0  0
  3 42  1  0  0  0  0
  4  5  1  0  0  0  0
  5 10  2  0  0  0  0
  5  6  1  0  0  0  0
  6  8  1  0  0  0  0
  6  9  1  0  0  0  0
  7  6  1  0  0  0  0
 10 11  1  0  0  0  0
 12 13  1  0  0  0  0
 12 10  1  0  0  0  0
 13 16  1  0  0  0  0
 13 14  1  0  0  0  0
 15 13  1  0  0  0  0
 17 12  2  0  0  0  0
 18 17  1  0  0  0  0
 19 17  1  0  0  0  0
 19  4  2  0  0  0  0
 20 19  1  0  0  0  0
 21 20  1  0  0  0  0
 22 20  1  0  0  0  0
 23 20  1  0  0  0  0
 24 26  1  0  0  0  0
 24 25  1  0  0  0  0
 27 24  1  0  0  0  0
 28 29  1  1  0  0  0
 28 24  1  0  0  0  0
 29 30  1  0  0  0  0
 31 29  2  0  0  0  0
 32 31  1  0  0  0  0
 32 33  1  0  0  0  0
 32 34  1  0  0  0  0
 35 32  1  0  0  0  0
 36  2  1  0  0  0  0
 36 39  1  0  0  0  0
 37 36  1  0  0  0  0
 38 36  1  0  0  0  0
 39 40  1  0  0  0  0
 39 41  1  0  0  0  0
 42 39  1  0  0  0  0
 43 44  1  0  0  0  0
 43 42  2  0  0  0  0
 45 43  1  0  0  0  0
 46 45  1  0  0  0  0
 47 45  2  0  0  0  0
 47 49  1  0  0  0  0
 48 47  1  0  0  0  0
 49  3  2  0  0  0  0
 50 49  1  0  0  0  0
M  END
