6,7
q = -1.0, confidence = 0.036

 30 30  0  0  0  0  0  0  0  0999 V2000
    1.6328    2.2842    0.6231 O   0  0  0  0  0  0  0  0  0  0  0  0
    0.6101    2.5050    0.8558 H   0  0  0  0  0  0  0  0  0  0  0  0
    0.8043   -2.4863   -1.0607 O   0  0  0  0  0  1  0  0  0  0  0  0
    3.8576    1.0795   -0.1935 N   0  0  0  0  0  0  0  0  0  0  0  0
    3.7533    2.0808    0.0086 H   0  0  0  0  0  0  0  0  0  0  0  0
    1.5332    1.0364    0.1048 N   0  0  0  0  0  2  0  0  0  0  0  0
    1.1919   -1.3236   -0.6602 N   0  0  0  0  0  2  0  0  0  0  0  0
    5.1011    0.4583    0.1139 C   0  0  0  0  0  0  0  0  0  0  0  0
    5.2147   -0.4026    1.2370 C   0  0  0  0  0  0  0  0  0  0  0  0
    6.4589   -1.0184    1.4729 C   0  0  0  0  0  0  0  0  0  0  0  0
    6.5632   -1.6902    2.3393 H   0  0  0  0  0  0  0  0  0  0  0  0
    7.5617   -0.7671    0.6460 C   0  0  0  0  0  0  0  0  0  0  0  0
    8.5260   -1.2557    0.8515 H   0  0  0  0  0  0  0  0  0  0  0  0
    7.4404    0.1197   -0.4330 C   0  0  0  0  0  0  0  0  0  0  0  0
    8.3085    0.3268   -1.0781 H   0  0  0  0  0  0  0  0  0  0  0  0
    6.2131    0.7434   -0.7186 C   0  0  0  0  0  0  0  0  0  0  0  0
    6.0604    1.6858   -1.8831 C   0  0  0  0  0  0  0  0  0  0  0  0
    6.9572    1.6729   -2.5313 H   0  0  0  0  0  0  0  0  0  0  0  0
    5.1720    1.4260   -2.4945 H   0  0  0  0  0  0  0  0  0  0  0  0
    5.9078    2.7341   -1.5468 H   0  0  0  0  0  0  0  0  0  0  0  0
    4.0560   -0.6201    2.1770 C   0  0  0  0  0  0  0  0  0  0  0  0
    3.3129   -1.3398    1.7725 H   0  0  0  0  0  0  0  0  0  0  0  0
    4.4089   -1.0170    3.1478 H   0  0  0  0  0  0  0  0  0  0  0  0
    3.5049    0.3242    2.3602 H   0  0  0  0  0  0  0  0  0  0  0  0
    2.6516    0.4280   -0.2521 C   0  0  0  0  0  0  0  0  0  0  0  0
    2.4611   -0.9330   -0.7601 C   0  0  0  0  0  0  0  0  0  0  0  0
    3.5090   -1.7966   -1.3798 C   0  0  0  0  0  0  0  0  0  0  0  0
    3.0078   -2.5350   -2.0343 H   0  0  0  0  0  0  0  0  0  0  0  0
    4.2320   -1.1965   -1.9647 H   0  0  0  0  0  0  0  0  0  0  0  0
    4.0947   -2.3583   -0.6210 H   0  0  0  0  0  0  0  0  0  0  0  0
  1  2  1  0  0  0  0
  3  7  1  0  0  0  0
  4  5  1  0  0  0  0
  4  8  1  0  0  0  0
  6  1  1  0  0  0  0
  8  9  1  0  0  0  0
  9 10  2  0  0  0  0
  9 21  1  0  0  0  0
 10 11  1  0  0  0  0
 12 13  1  0  0  0  0
 12 10  1  0  0  0  0
 14 12  2  0  0  0  0
 15 14  1  0  0  0  0
 16 14  1  0  0  0  0
 16  8  2  0  0  0  0
 17 20  1  0  0  0  0
 17 16  1  0  0  0  0
 18 17  1  0  0  0  0
 19 17  1  0  0  0  0
 21 24  1  0  0  0  0
 21 23  1  0  0  0  0
 22 21  1  0  0  0  0
 25  4  1  0  0  0  0
 25  6  1  0  0  0  0
 26  7  1  0  0  0  0
 26 25  2  0  0  0  0
 27 26  1  0  0  0  0
 27 30  1  0  0  0  0
 28 27  1  0  0  0  0
 29 27  1  0  0  0  0
M  END
