3,4
q = 0.0, confidence = 1.0

 33 36  0  0  1  0  0  0  0  0999 V2000
    2.2199   -2.5186   -1.0255 S   0  0  0  0  0  0  0  0  0  0  0  0
    0.0812   -1.2386   -2.6947 S   0  0  0  0  0  0  0  0  0  0  0  0
    1.0551   -0.3107   -0.2877 N   0  0  0  0  0  2  0  0  0  0  0  0
   -1.5553    0.6354    0.7004 N   0  0  0  0  0  2  0  0  0  0  0  0
    1.0597   -1.2133   -1.2534 C   0  0  2  0  0  3  0  0  0  0  0  0
    2.7608   -1.7571    0.4591 C   0  0  0  0  0  0  0  0  0  0  0  0
    3.7742   -2.1675    1.3389 C   0  0  0  0  0  0  0  0  0  0  0  0
    4.3644   -3.0738    1.1421 H   0  0  0  0  0  0  0  0  0  0  0  0
    4.0108   -1.3831    2.4749 C   0  0  0  0  0  0  0  0  0  0  0  0
    4.7992   -1.6833    3.1808 H   0  0  0  0  0  0  0  0  0  0  0  0
    3.2599   -0.2125    2.7215 C   0  0  0  0  0  0  0  0  0  0  0  0
    3.4776    0.3926    3.6137 H   0  0  0  0  0  0  0  0  0  0  0  0
    2.2534    0.1994    1.8437 C   0  0  0  0  0  0  0  0  0  0  0  0
    1.6772    1.1221    2.0032 H   0  0  0  0  0  0  0  0  0  0  0  0
    1.9971   -0.5834    0.7018 C   0  0  0  0  0  0  0  0  0  0  0  0
   -1.7739    1.1916    1.8986 C   0  0  0  0  0  0  0  0  0  0  0  0
   -1.2848    2.1647    2.0594 H   0  0  0  0  0  0  0  0  0  0  0  0
   -2.5787    0.5911    2.8912 C   0  0  0  0  0  0  0  0  0  0  0  0
   -2.7050    1.0960    3.8588 H   0  0  0  0  0  0  0  0  0  0  0  0
   -3.1667   -0.6306    2.6192 C   0  0  0  0  0  0  0  0  0  0  0  0
   -3.7753   -1.1532    3.3731 H   0  0  0  0  0  0  0  0  0  0  0  0
   -3.0095   -1.2182    1.3333 C   0  0  0  0  0  0  0  0  0  0  0  0
   -3.6456   -2.4477    1.0073 C   0  0  0  0  0  0  0  0  0  0  0  0
   -4.2367   -2.9565    1.7838 H   0  0  0  0  0  0  0  0  0  0  0  0
   -3.5309   -2.9780   -0.2664 C   0  0  0  0  0  0  0  0  0  0  0  0
   -4.0231   -3.9269   -0.5248 H   0  0  0  0  0  0  0  0  0  0  0  0
   -2.7986   -2.2761   -1.2497 C   0  0  0  0  0  0  0  0  0  0  0  0
   -2.7378   -2.6875   -2.2692 H   0  0  0  0  0  0  0  0  0  0  0  0
   -2.1445   -1.0701   -0.9865 C   0  0  0  0  0  0  0  0  0  0  0  0
   -2.2043   -0.5309    0.3460 C   0  0  1  0  0  3  0  0  0  0  0  0
   -1.4546   -0.3813   -2.1338 C   0  0  0  0  0  0  0  0  0  0  0  0
   -1.2167    0.6887   -1.9314 H   0  0  0  0  0  0  0  0  0  0  0  0
   -2.0799   -0.4287   -3.0480 H   0  0  0  0  0  0  0  0  0  0  0  0
  1  6  1  0  0  0  0
  2 31  1  0  0  0  0
  3 15  1  0  0  0  0
  4 16  1  0  0  0  0
  5  2  1  6  0  0  0
  5  1  1  0  0  0  0
  5  3  1  0  0  0  0
  6 15  2  0  0  0  0
  6  7  1  0  0  0  0
  7  9  2  0  0  0  0
  8  7  1  0  0  0  0
  9 11  1  0  0  0  0
  9 10  1  0  0  0  0
 11 12  1  0  0  0  0
 13 14  1  0  0  0  0
 13 11  2  0  0  0  0
 15 13  1  0  0  0  0
 16 17  1  0  0  0  0
 16 18  2  0  0  0  0
 18 19  1  0  0  0  0
 20 18  1  0  0  0  0
 20 21  1  0  0  0  0
 22 20  2  0  0  0  0
 23 22  1  0  0  0  0
 23 24  1  0  0  0  0
 25 23  2  0  0  0  0
 26 25  1  0  0  0  0
 27 29  2  0  0  0  0
 27 25  1  0  0  0  0
 28 27  1  0  0  0  0
 30 29  1  6  0  0  0
 30  4  1  0  0  0  0
 30 22  1  0  0  0  0
 31 32  1  0  0  0  0
 31 29  1  0  0  0  0
 33 31  1  0  0  0  0
M  END
