2,14
q = 0.0, confidence = 0.98

 24 25  0  0  1  0  0  0  0  0999 V2000
    2.1081   -3.1540   -0.8685 S   0  0  0  0  0  0  0  0  0  0  0  0
    0.4698   -1.3419   -0.0218 N   0  0  0  0  0  2  0  0  0  0  0  0
   -0.5448   -3.4589   -0.2149 N   0  0  0  0  0  0  0  0  0  0  0  0
   -0.5201   -4.3857   -0.6321 H   0  0  0  0  0  0  0  0  0  0  0  0
   -1.4427   -3.0283    0.1234 H   0  0  0  0  0  0  0  0  0  0  0  0
    1.7040   -0.7160   -0.1629 C   0  0  0  0  0  0  0  0  0  0  0  0
    2.7214   -1.5095   -0.6612 C   0  0  0  0  0  0  0  0  0  0  0  0
    0.5036   -2.6295   -0.3353 C   0  0  2  0  0  3  0  0  0  0  0  0
    4.0873   -1.1513   -1.1528 C   0  0  0  0  0  0  0  0  0  0  0  0
    4.1386   -0.0631   -1.3467 H   0  0  0  0  0  0  0  0  0  0  0  0
    4.3126   -1.6731   -2.1054 H   0  0  0  0  0  0  0  0  0  0  0  0
    4.8985   -1.4091   -0.4387 H   0  0  0  0  0  0  0  0  0  0  0  0
    2.1082    3.1539    0.8685 S   0  0  0  0  0  0  0  0  0  0  0  0
    0.4698    1.3419    0.0218 N   0  0  0  0  0  2  0  0  0  0  0  0
   -0.5447    3.4589    0.2149 N   0  0  0  0  0  0  0  0  0  0  0  0
   -0.5200    4.3857    0.6320 H   0  0  0  0  0  0  0  0  0  0  0  0
   -1.4426    3.0283   -0.1234 H   0  0  0  0  0  0  0  0  0  0  0  0
    1.7040    0.7160    0.1629 C   0  0  0  0  0  0  0  0  0  0  0  0
    2.7215    1.5095    0.6612 C   0  0  0  0  0  0  0  0  0  0  0  0
    0.5037    2.6295    0.3353 C   0  0  2  0  0  3  0  0  0  0  0  0
    4.0874    1.1512    1.1528 C   0  0  0  0  0  0  0  0  0  0  0  0
    4.1386    0.0630    1.3468 H   0  0  0  0  0  0  0  0  0  0  0  0
    4.3127    1.6730    2.1054 H   0  0  0  0  0  0  0  0  0  0  0  0
    4.8985    1.4089    0.4387 H   0  0  0  0  0  0  0  0  0  0  0  0
  1  7  1  0  0  0  0
  1  8  1  0  0  0  0
  3  5  1  0  0  0  0
  4  3  1  0  0  0  0
  6  2  1  0  0  0  0
  6 18  1  0  0  0  0
  7  6  2  0  0  0  0
  8  3  1  1  0  0  0
  8  2  1  0  0  0  0
  9  7  1  0  0  0  0
  9 12  1  0  0  0  0
 10  9  1  0  0  0  0
 11  9  1  0  0  0  0
 14 18  1  0  0  0  0
 14 20  1  0  0  0  0
 15 16  1  0  0  0  0
 17 15  1  0  0  0  0
 18 19  2  0  0  0  0
 19 13  1  0  0  0  0
 19 21  1  0  0  0  0
 20 15  1  6  0  0  0
 20 13  1  0  0  0  0
 21 22  1  0  0  0  0
 21 23  1  0  0  0  0
 24 21  1  0  0  0  0
M  END
