1,9
q = 0.0, confidence = 1.0

 38 40  0  0  0  0  0  0  0  0999 V2000
   -1.3121    1.5368   -0.3624 N   0  0  0  0  0  2  0  0  0  0  0  0
   -0.3065    1.9368    0.4415 N   0  0  0  0  0  0  0  0  0  0  0  0
   -1.2245    2.2621   -1.4893 C   0  0  0  0  0  3  0  0  0  0  0  0
   -1.9678    2.0846   -2.2783 H   0  0  0  0  0  0  0  0  0  0  0  0
   -0.1295    3.1517   -1.4099 C   0  0  0  0  0  0  0  0  0  0  0  0
    0.2012    3.8795   -2.1572 H   0  0  0  0  0  0  0  0  0  0  0  0
    0.4374    2.9075   -0.1585 C   0  0  0  0  0  0  0  0  0  0  0  0
    1.3079    3.3397    0.3469 H   0  0  0  0  0  0  0  0  0  0  0  0
   -1.3121   -1.5370   -0.3623 N   0  0  0  0  0  2  0  0  0  0  0  0
   -0.3065   -1.9368    0.4416 N   0  0  0  0  0  0  0  0  0  0  0  0
    0.4376   -2.9073   -0.1585 C   0  0  0  0  0  3  0  0  0  0  0  0
    1.3082   -3.3394    0.3470 H   0  0  0  0  0  0  0  0  0  0  0  0
   -0.1294   -3.1516   -1.4098 C   0  0  0  0  0  0  0  0  0  0  0  0
    0.2015   -3.8794   -2.1571 H   0  0  0  0  0  0  0  0  0  0  0  0
   -1.2245   -2.2622   -1.4892 C   0  0  0  0  0  0  0  0  0  0  0  0
   -1.9678   -2.0848   -2.2781 H   0  0  0  0  0  0  0  0  0  0  0  0
   -0.0438    1.2549    1.7245 C   0  0  0  0  0  0  0  0  0  0  0  0
    0.5538    1.9803    2.3141 H   0  0  0  0  0  0  0  0  0  0  0  0
   -1.0309    1.0930    2.2089 H   0  0  0  0  0  0  0  0  0  0  0  0
   -0.0438   -1.2548    1.7245 C   0  0  0  0  0  0  0  0  0  0  0  0
   -1.0309   -1.0929    2.2089 H   0  0  0  0  0  0  0  0  0  0  0  0
    0.5538   -1.9802    2.3142 H   0  0  0  0  0  0  0  0  0  0  0  0
    0.6490    0.0001    1.6212 N   0  0  0  0  0  0  0  0  0  0  0  0
    1.9691    0.0000    1.0691 C   0  0  0  0  0  0  0  0  0  0  0  0
    3.0952   -0.0000    1.9206 C   0  0  0  0  0  0  0  0  0  0  0  0
    2.9375   -0.0000    3.0099 H   0  0  0  0  0  0  0  0  0  0  0  0
    4.3876   -0.0000    1.3943 C   0  0  0  0  0  0  0  0  0  0  0  0
    5.2739   -0.0001    2.0450 H   0  0  0  0  0  0  0  0  0  0  0  0
    4.5852    0.0000   -0.0058 C   0  0  0  0  0  0  0  0  0  0  0  0
    5.8774   -0.0000   -0.4232 O   0  0  0  0  0  0  0  0  0  0  0  0
    3.4666    0.0000   -0.8661 C   0  0  0  0  0  0  0  0  0  0  0  0
    3.5902    0.0001   -1.9570 H   0  0  0  0  0  0  0  0  0  0  0  0
    2.1723    0.0001   -0.3241 C   0  0  0  0  0  0  0  0  0  0  0  0
    1.3013    0.0001   -0.9966 H   0  0  0  0  0  0  0  0  0  0  0  0
    6.1384   -0.0000   -1.8153 C   0  0  0  0  0  0  0  0  0  0  0  0
    5.7239   -0.9043   -2.3145 H   0  0  0  0  0  0  0  0  0  0  0  0
    7.2382   -0.0000   -1.9270 H   0  0  0  0  0  0  0  0  0  0  0  0
    5.7240    0.9044   -2.3145 H   0  0  0  0  0  0  0  0  0  0  0  0
  1  2  1  0  0  0  0
  2 17  1  0  0  0  0
  3  5  1  0  0  0  0
  3  1  1  0  0  0  0
  4  3  1  0  0  0  0
  5  7  2  0  0  0  0
  6  5  1  0  0  0  0
  7  8  1  0  0  0  0
  7  2  1  0  0  0  0
  9 10  1  0  0  0  0
 10 20  1  0  0  0  0
 11 12  1  0  0  0  0
 11 10  1  0  0  0  0
 13 11  1  0  0  0  0
 14 13  1  0  0  0  0
 15 13  2  0  0  0  0
 15  9  1  0  0  0  0
 16 15  1  0  0  0  0
 17 19  1  0  0  0  0
 17 18  1  0  0  0  0
 20 21  1  0  0  0  0
 20 22  1  0  0  0  0
 23 17  1  0  0  0  0
 23 20  1  0  0  0  0
 24 23  1  0  0  0  0
 24 25  1  0  0  0  0
 25 26  1  0  0  0  0
 27 25  2  0  0  0  0
 27 28  1  0  0  0  0
 29 27  1  0  0  0  0
 30 29  1  0  0  0  0
 31 33  1  0  0  0  0
 31 29  2  0  0  0  0
 32 31  1  0  0  0  0
 33 24  2  0  0  0  0
 34 33  1  0  0  0  0
 35 30  1  0  0  0  0
 36 35  1  0  0  0  0
 37 35  1  0  0  0  0
 38 35  1  0  0  0  0
M  END
