3,4
q = 0.0, confidence = 0.996

 20 21  0  0  1  0  0  0  0  0999 V2000
   -3.2192    2.4451    0.4328 S   0  0  0  0  0  0  0  0  0  0  0  0
    3.2258    2.4368   -0.4334 S   0  0  0  0  0  0  0  0  0  0  0  0
   -1.3060    0.7598    0.2723 N   0  0  0  0  0  2  0  0  0  0  0  0
    1.3082    0.7564   -0.2730 N   0  0  0  0  0  2  0  0  0  0  0  0
   -0.7213    2.0023    0.1133 C   0  0  0  0  0  0  0  0  0  0  0  0
   -1.6188    3.0527    0.1783 C   0  0  0  0  0  0  0  0  0  0  0  0
   -1.4270    4.1262    0.0747 H   0  0  0  0  0  0  0  0  0  0  0  0
   -2.6101    0.8061    0.4417 C   0  0  2  0  0  3  0  0  0  0  0  0
   -3.4604   -0.4064    0.5977 C   0  0  0  0  0  0  0  0  0  0  0  0
   -3.2510   -1.0915   -0.2528 H   0  0  0  0  0  0  0  0  0  0  0  0
   -4.5377   -0.1641    0.6290 H   0  0  0  0  0  0  0  0  0  0  0  0
   -3.1800   -0.9447    1.5269 H   0  0  0  0  0  0  0  0  0  0  0  0
    0.7267    2.0004   -0.1142 C   0  0  0  0  0  0  0  0  0  0  0  0
    1.6269    3.0485   -0.1791 C   0  0  0  0  0  0  0  0  0  0  0  0
    1.4377    4.1225   -0.0756 H   0  0  0  0  0  0  0  0  0  0  0  0
    2.6125    0.7994   -0.4422 C   0  0  2  0  0  3  0  0  0  0  0  0
    3.4598   -0.4152   -0.5979 C   0  0  0  0  0  0  0  0  0  0  0  0
    3.1792   -0.9523   -1.5277 H   0  0  0  0  0  0  0  0  0  0  0  0
    3.2477   -1.1002    0.2520 H   0  0  0  0  0  0  0  0  0  0  0  0
    4.5377   -0.1757   -0.6279 H   0  0  0  0  0  0  0  0  0  0  0  0
  1  8  1  0  0  0  0
  2 14  1  0  0  0  0
  3  8  1  0  0  0  0
  4 13  1  0  0  0  0
  5  6  2  0  0  0  0
  5  3  1  0  0  0  0
  6  1  1  0  0  0  0
  7  6  1  0  0  0  0
  8  9  1  6  0  0  0
  9 11  1  0  0  0  0
  9 12  1  0  0  0  0
 10  9  1  0  0  0  0
 13  5  1  0  0  0  0
 14 13  2  0  0  0  0
 14 15  1  0  0  0  0
 16 17  1  1  0  0  0
 16  2  1  0  0  0  0
 16  4  1  0  0  0  0
 17 19  1  0  0  0  0
 18 17  1  0  0  0  0
 20 17  1  0  0  0  0
M  END
