6,12
q = 0.0, confidence = 0.986

 30 31  0  0  0  0  0  0  0  0999 V2000
   -3.8478    0.0132   -0.3742 N   0  0  0  0  0  0  0  0  0  0  0  0
   -4.9413   -0.9675   -0.3694 C   0  0  0  0  0  0  0  0  0  0  0  0
   -6.1121   -0.5652    0.5220 C   0  0  0  0  0  0  0  0  0  0  0  0
   -2.9338   -0.1162   -1.4954 C   0  0  0  0  0  0  0  0  0  0  0  0
   -2.2561    1.1343   -1.7955 N   0  0  0  0  0  0  0  0  0  0  0  0
   -1.0155    1.3794   -1.2955 N   0  0  0  0  0  2  0  0  0  0  0  0
   -0.7190    2.6389   -1.6645 C   0  0  0  0  0  3  0  0  0  0  0  0
   -1.7799    3.2139   -2.4010 C   0  0  0  0  0  0  0  0  0  0  0  0
   -2.7526    2.2203   -2.4562 C   0  0  0  0  0  0  0  0  0  0  0  0
   -3.2161    0.2758    0.8931 C   0  0  0  0  0  0  0  0  0  0  0  0
   -2.4664   -0.8559    1.4679 N   0  0  0  0  0  0  0  0  0  0  0  0
   -1.1910   -1.1046    1.0688 N   0  0  0  0  0  2  0  0  0  0  0  0
   -0.8506   -2.2747    1.6419 C   0  0  0  0  0  3  0  0  0  0  0  0
   -1.9158   -2.7905    2.4122 C   0  0  0  0  0  0  0  0  0  0  0  0
   -2.9386   -1.8553    2.2705 C   0  0  0  0  0  0  0  0  0  0  0  0
   -5.2986   -1.0472   -1.4171 H   0  0  0  0  0  0  0  0  0  0  0  0
   -4.5802   -1.9900   -0.0906 H   0  0  0  0  0  0  0  0  0  0  0  0
   -5.8631   -0.5881    1.6025 H   0  0  0  0  0  0  0  0  0  0  0  0
   -6.4641    0.4555    0.2733 H   0  0  0  0  0  0  0  0  0  0  0  0
   -6.9539   -1.2694    0.3755 H   0  0  0  0  0  0  0  0  0  0  0  0
   -2.1212   -0.8666   -1.3396 H   0  0  0  0  0  0  0  0  0  0  0  0
   -3.5209   -0.4167   -2.3847 H   0  0  0  0  0  0  0  0  0  0  0  0
    0.2434    3.0775   -1.3765 H   0  0  0  0  0  0  0  0  0  0  0  0
   -1.8287    4.2149   -2.8408 H   0  0  0  0  0  0  0  0  0  0  0  0
   -3.7500    2.2002   -2.9085 H   0  0  0  0  0  0  0  0  0  0  0  0
   -3.9767    0.5700    1.6395 H   0  0  0  0  0  0  0  0  0  0  0  0
   -2.4877    1.1029    0.7829 H   0  0  0  0  0  0  0  0  0  0  0  0
    0.1477   -2.6944    1.4704 H   0  0  0  0  0  0  0  0  0  0  0  0
   -1.9378   -3.7140    2.9989 H   0  0  0  0  0  0  0  0  0  0  0  0
   -3.9517   -1.8183    2.6862 H   0  0  0  0  0  0  0  0  0  0  0  0
  1  2  1  0  0  0  0
  1 10  1  0  0  0  0
  2 17  1  0  0  0  0
  2  3  1  0  0  0  0
  3 18  1  0  0  0  0
  4 21  1  0  0  0  0
  4  1  1  0  0  0  0
  5  4  1  0  0  0  0
  5  6  1  0  0  0  0
  7 23  1  0  0  0  0
  7  6  1  0  0  0  0
  8  7  1  0  0  0  0
  9  8  2  0  0  0  0
  9  5  1  0  0  0  0
 10 11  1  0  0  0  0
 10 26  1  0  0  0  0
 11 15  1  0  0  0  0
 12 11  1  0  0  0  0
 12 13  1  0  0  0  0
 13 14  1  0  0  0  0
 14 29  1  0  0  0  0
 15 14  2  0  0  0  0
 15 30  1  0  0  0  0
 16  2  1  0  0  0  0
 19  3  1  0  0  0  0
 20  3  1  0  0  0  0
 22  4  1  0  0  0  0
 24  8  1  0  0  0  0
 25  9  1  0  0  0  0
 27 10  1  0  0  0  0
 28 13  1  0  0  0  0
M  END
