2,4
q = 0.0, confidence = 0.996

 45 47  0  0  1  0  0  0  0  0999 V2000
    5.5305   -1.2953   -0.4026 O   0  0  0  0  0  0  0  0  0  0  0  0
   -2.1278    0.5522   -0.9575 N   0  0  0  0  0  0  0  0  0  0  0  0
    1.2670    1.3414   -0.1528 N   0  0  0  0  0  0  0  0  0  0  0  0
    0.5420   -0.8614    0.0765 N   0  0  0  0  0  2  0  0  0  0  0  0
    2.8612   -0.3798   -0.1364 N   0  0  0  0  0  0  0  0  0  0  0  0
   -2.7522   -0.2171   -2.0632 C   0  0  0  0  0  0  0  0  0  0  0  0
   -2.1329   -1.1108   -2.2795 H   0  0  0  0  0  0  0  0  0  0  0  0
   -2.8086    0.4254   -2.9743 H   0  0  0  0  0  0  0  0  0  0  0  0
   -4.1543   -0.5791   -1.5365 C   0  0  0  0  0  0  0  0  0  0  0  0
   -4.1585   -1.6321   -1.1963 H   0  0  0  0  0  0  0  0  0  0  0  0
   -4.9154   -0.4642   -2.3323 H   0  0  0  0  0  0  0  0  0  0  0  0
   -4.3939    0.3833   -0.3415 C   0  0  0  0  0  0  0  0  0  0  0  0
   -5.3748    0.8948   -0.3771 H   0  0  0  0  0  0  0  0  0  0  0  0
   -4.3335   -0.1626    0.6220 H   0  0  0  0  0  0  0  0  0  0  0  0
   -3.2310    1.3752   -0.4090 C   0  0  0  0  0  0  0  0  0  0  0  0
   -3.4443    2.2201   -1.1092 H   0  0  0  0  0  0  0  0  0  0  0  0
   -2.9509    1.7746    0.5861 H   0  0  0  0  0  0  0  0  0  0  0  0
   -0.9465    1.3230   -1.3697 C   0  0  0  0  0  0  0  0  0  0  0  0
   -1.2611    2.1758   -2.0199 H   0  0  0  0  0  0  0  0  0  0  0  0
   -0.3097    0.6620   -1.9887 H   0  0  0  0  0  0  0  0  0  0  0  0
   -0.1341    1.8325   -0.1621 C   0  0  2  0  0  0  0  0  0  0  0  0
   -0.6330    1.4776    0.7723 H   0  0  0  0  0  0  0  0  0  0  0  0
    0.0451    3.3493   -0.0482 C   0  0  0  0  0  0  0  0  0  0  0  0
   -0.8685    3.8375    0.3423 H   0  0  0  0  0  0  0  0  0  0  0  0
    0.2705    3.7899   -1.0442 H   0  0  0  0  0  0  0  0  0  0  0  0
    1.2555    3.4680    0.8827 C   0  0  0  0  0  0  0  0  0  0  0  0
    1.7289    4.4687    0.8805 H   0  0  0  0  0  0  0  0  0  0  0  0
    0.9517    3.2309    1.9230 H   0  0  0  0  0  0  0  0  0  0  0  0
    2.1898    2.3754    0.3468 C   0  0  0  0  0  0  0  0  0  0  0  0
    2.8232    2.7827   -0.4746 H   0  0  0  0  0  0  0  0  0  0  0  0
    2.8728    1.9474    1.1078 H   0  0  0  0  0  0  0  0  0  0  0  0
    1.5225   -0.0018   -0.0718 C   0  0  2  0  0  3  0  0  0  0  0  0
    3.7231    0.1128   -1.2156 C   0  0  0  0  0  0  0  0  0  0  0  0
    3.4555    1.1523   -1.4766 H   0  0  0  0  0  0  0  0  0  0  0  0
    3.5742   -0.5128   -2.1294 H   0  0  0  0  0  0  0  0  0  0  0  0
    5.1855    0.0240   -0.7849 C   0  0  0  0  0  0  0  0  0  0  0  0
    5.8522    0.3026   -1.6253 H   0  0  0  0  0  0  0  0  0  0  0  0
    5.3632    0.7365    0.0596 H   0  0  0  0  0  0  0  0  0  0  0  0
    4.7148   -1.7407    0.6674 C   0  0  0  0  0  0  0  0  0  0  0  0
    4.8682   -1.0971    1.5692 H   0  0  0  0  0  0  0  0  0  0  0  0
    5.0366   -2.7719    0.9128 H   0  0  0  0  0  0  0  0  0  0  0  0
    3.2301   -1.7256    0.2979 C   0  0  0  0  0  0  0  0  0  0  0  0
    3.0432   -2.4781   -0.5077 H   0  0  0  0  0  0  0  0  0  0  0  0
    2.6177   -2.0032    1.1785 H   0  0  0  0  0  0  0  0  0  0  0  0
    0.8101   -1.8353   -0.1058 H   0  0  0  0  0  0  0  0  0  0  0  0
  1 39  1  0  0  0  0
  2 15  1  0  0  0  0
  3 32  1  0  0  0  0
  3 29  1  0  0  0  0
  5 32  1  0  0  0  0
  5 42  1  0  0  0  0
  6  9  1  0  0  0  0
  6  2  1  0  0  0  0
  7  6  1  0  0  0  0
  8  6  1  0  0  0  0
  9 10  1  0  0  0  0
  9 12  1  0  0  0  0
 11  9  1  0  0  0  0
 12 14  1  0  0  0  0
 13 12  1  0  0  0  0
 15 12  1  0  0  0  0
 15 17  1  0  0  0  0
 16 15  1  0  0  0  0
 18  2  1  0  0  0  0
 18 21  1  0  0  0  0
 19 18  1  0  0  0  0
 20 18  1  0  0  0  0
 21  3  1  0  0  0  0
 21 23  1  0  0  0  0
 21 22  1  1  0  0  0
 23 24  1  0  0  0  0
 23 26  1  0  0  0  0
 25 23  1  0  0  0  0
 26 28  1  0  0  0  0
 27 26  1  0  0  0  0
 29 26  1  0  0  0  0
 29 31  1  0  0  0  0
 30 29  1  0  0  0  0
 32  4  1  1  0  0  0
 33 36  1  0  0  0  0
 33  5  1  0  0  0  0
 34 33  1  0  0  0  0
 35 33  1  0  0  0  0
 36  1  1  0  0  0  0
 36 38  1  0  0  0  0
 37 36  1  0  0  0  0
 39 41  1  0  0  0  0
 39 40  1  0  0  0  0
 42 39  1  0  0  0  0
 42 44  1  0  0  0  0
 43 42  1  0  0  0  0
 45  4  1  0  0  0  0
M  END
