1,2
q = 0.0, confidence = 0.998

 30 32  0  0  1  0  0  0  0  0999 V2000
   -1.9557   -1.0864   -0.5617 N   0  0  0  0  0  2  0  0  0  0  0  0
   -0.1497    0.6253   -1.3707 N   0  0  0  0  0  2  0  0  0  0  0  0
   -2.7322   -2.1575   -0.2656 C   0  0  0  0  0  3  0  0  0  0  0  0
   -3.9935   -2.3390   -0.8331 C   0  0  0  0  0  0  0  0  0  0  0  0
   -4.4851   -1.3913   -1.7450 C   0  0  0  0  0  0  0  0  0  0  0  0
   -3.6748   -0.3006   -2.0705 C   0  0  0  0  0  0  0  0  0  0  0  0
   -2.4063   -0.1787   -1.4764 C   0  0  0  0  0  0  0  0  0  0  0  0
   -1.4430    0.8779   -1.7824 C   0  0  1  0  0  3  0  0  0  0  0  0
   -1.8169    2.0852   -2.3921 C   0  0  0  0  0  0  0  0  0  0  0  0
   -0.8604    3.0816   -2.6003 C   0  0  0  0  0  0  0  0  0  0  0  0
    0.4637    2.8004   -2.2464 C   0  0  0  0  0  0  0  0  0  0  0  0
    0.8081    1.5592   -1.6774 C   0  0  0  0  0  0  0  0  0  0  0  0
    2.2464    1.2458   -1.5048 C   0  0  0  0  0  0  0  0  0  0  0  0
    2.7771    0.0484   -2.0308 C   0  0  0  0  0  0  0  0  0  0  0  0
    4.1560   -0.1900   -1.9711 C   0  0  0  0  0  0  0  0  0  0  0  0
    5.0189    0.7481   -1.3802 C   0  0  0  0  0  0  0  0  0  0  0  0
    4.4963    1.9402   -0.8544 C   0  0  0  0  0  0  0  0  0  0  0  0
    3.1194    2.1921   -0.9251 C   0  0  0  0  0  0  0  0  0  0  0  0
   -2.2907   -2.8544    0.4641 H   0  0  0  0  0  0  0  0  0  0  0  0
   -4.5806   -3.2263   -0.5568 H   0  0  0  0  0  0  0  0  0  0  0  0
   -5.4749   -1.5100   -2.2094 H   0  0  0  0  0  0  0  0  0  0  0  0
   -4.0054    0.4426   -2.8083 H   0  0  0  0  0  0  0  0  0  0  0  0
   -2.8687    2.2457   -2.6628 H   0  0  0  0  0  0  0  0  0  0  0  0
   -1.1341    4.0455   -3.0528 H   0  0  0  0  0  0  0  0  0  0  0  0
    1.2694    3.5168   -2.4575 H   0  0  0  0  0  0  0  0  0  0  0  0
    2.0947   -0.7060   -2.4548 H   0  0  0  0  0  0  0  0  0  0  0  0
    4.5597   -1.1274   -2.3825 H   0  0  0  0  0  0  0  0  0  0  0  0
    6.0998    0.5480   -1.3271 H   0  0  0  0  0  0  0  0  0  0  0  0
    5.1643    2.6767   -0.3822 H   0  0  0  0  0  0  0  0  0  0  0  0
    2.7057    3.1195   -0.5002 H   0  0  0  0  0  0  0  0  0  0  0  0
  1  3  1  0  0  0  0
  3 19  1  0  0  0  0
  4 20  1  0  0  0  0
  4  3  1  0  0  0  0
  5  4  2  0  0  0  0
  6  5  1  0  0  0  0
  6  7  2  0  0  0  0
  7  1  1  0  0  0  0
  8  7  1  1  0  0  0
  8  2  1  0  0  0  0
  9  8  1  0  0  0  0
 10  9  2  0  0  0  0
 10 11  1  0  0  0  0
 11 12  2  0  0  0  0
 12 13  1  0  0  0  0
 12  2  1  0  0  0  0
 13 18  1  0  0  0  0
 14 15  1  0  0  0  0
 14 13  2  0  0  0  0
 15 16  2  0  0  0  0
 16 28  1  0  0  0  0
 16 17  1  0  0  0  0
 17 29  1  0  0  0  0
 18 17  2  0  0  0  0
 18 30  1  0  0  0  0
 21  5  1  0  0  0  0
 22  6  1  0  0  0  0
 23  9  1  0  0  0  0
 24 10  1  0  0  0  0
 25 11  1  0  0  0  0
 26 14  1  0  0  0  0
 27 15  1  0  0  0  0
M  END
