1,18
q = 0.0, confidence = 0.998

 29 31  0  0  1  0  0  0  0  0999 V2000
   -1.9997    0.5229    0.3160 N   0  0  0  0  0  2  0  0  0  0  0  0
   -3.1869    0.4630    0.9480 C   0  0  0  0  0  0  0  0  0  0  0  0
   -3.4868   -0.5535    1.2588 H   0  0  0  0  0  0  0  0  0  0  0  0
   -3.9593    1.6127    1.1658 C   0  0  0  0  0  0  0  0  0  0  0  0
   -4.9215    1.5200    1.6892 H   0  0  0  0  0  0  0  0  0  0  0  0
   -3.4966    2.8581    0.7109 C   0  0  0  0  0  0  0  0  0  0  0  0
   -4.0911    3.7697    0.8693 H   0  0  0  0  0  0  0  0  0  0  0  0
   -2.2640    2.9228    0.0476 C   0  0  0  0  0  0  0  0  0  0  0  0
   -1.8511    3.8668   -0.3342 H   0  0  0  0  0  0  0  0  0  0  0  0
   -1.5396    1.7361   -0.1281 C   0  0  0  0  0  0  0  0  0  0  0  0
   -0.2387    1.6248   -0.7716 C   0  0  0  0  0  0  0  0  0  0  0  0
    0.4411    2.6631   -1.2823 O   0  0  0  0  0  0  0  0  0  0  0  0
    1.5888    2.0522   -1.9670 C   0  0  0  0  0  0  0  0  0  0  0  0
    2.4686    2.6979   -1.7989 H   0  0  0  0  0  0  0  0  0  0  0  0
    1.3442    2.0178   -3.0484 H   0  0  0  0  0  0  0  0  0  0  0  0
    1.7105    0.6404   -1.3466 C   0  0  2  0  0  0  0  0  0  0  0  0
    1.9127   -0.1421   -2.1022 H   0  0  0  0  0  0  0  0  0  0  0  0
    0.3282    0.4516   -0.8420 N   0  0  0  0  0  2  0  0  0  0  0  0
    2.7002    0.5169   -0.1958 C   0  0  0  0  0  0  0  0  0  0  0  0
    3.3360   -0.7142    0.0493 C   0  0  0  0  0  0  0  0  0  0  0  0
    3.0897   -1.5797   -0.5838 H   0  0  0  0  0  0  0  0  0  0  0  0
    4.2258   -0.8476    1.1250 C   0  0  0  0  0  0  0  0  0  0  0  0
    4.7145   -1.8163    1.3081 H   0  0  0  0  0  0  0  0  0  0  0  0
    4.4834    0.2427    1.9704 C   0  0  0  0  0  0  0  0  0  0  0  0
    5.1808    0.1353    2.8150 H   0  0  0  0  0  0  0  0  0  0  0  0
    3.8402    1.4692    1.7410 C   0  0  0  0  0  0  0  0  0  0  0  0
    4.0296    2.3262    2.4050 H   0  0  0  0  0  0  0  0  0  0  0  0
    2.9513    1.6052    0.6649 C   0  0  0  0  0  0  0  0  0  0  0  0
    2.4444    2.5702    0.5066 H   0  0  0  0  0  0  0  0  0  0  0  0
  1  2  1  0  0  0  0
  2  4  2  0  0  0  0
  2  3  1  0  0  0  0
  4  5  1  0  0  0  0
  6  7  1  0  0  0  0
  6  4  1  0  0  0  0
  8  6  2  0  0  0  0
  9  8  1  0  0  0  0
 10  8  1  0  0  0  0
 10  1  1  0  0  0  0
 11 10  2  0  0  0  0
 12 11  1  0  0  0  0
 13 14  1  0  0  0  0
 13 16  1  0  0  0  0
 13 12  1  0  0  0  0
 15 13  1  0  0  0  0
 16 17  1  6  0  0  0
 16 18  1  0  0  0  0
 16 19  1  0  0  0  0
 18 11  1  0  0  0  0
 19 20  2  0  0  0  0
 19 28  1  0  0  0  0
 20 22  1  0  0  0  0
 21 20  1  0  0  0  0
 22 23  1  0  0  0  0
 22 24  2  0  0  0  0
 24 25  1  0  0  0  0
 26 24  1  0  0  0  0
 26 27  1  0  0  0  0
 28 26  2  0  0  0  0
 29 28  1  0  0  0  0
M  END
