3,4
q = 0.0, confidence = 0.992

 63 69  0  0  0  0  0  0  0  0999 V2000
    2.0480    0.4205    0.3278 P   0  0  0  0  0  4  0  0  0  0  0  0
   -0.2853   -0.9929    0.7491 P   0  0  0  0  0  4  0  0  0  0  0  0
   -1.1052    0.1830   -0.1347 N   0  0  0  0  0  2  0  0  0  0  0  0
   -2.5724    1.7825   -1.3627 N   0  0  0  0  0  2  0  0  0  0  0  0
    1.1123   -0.4235    1.3793 N   0  0  0  0  0  2  0  0  0  0  0  0
   -0.3862    1.1649   -0.7640 C   0  0  0  0  0  0  0  0  0  0  0  0
   -1.2252    2.0580   -1.4952 C   0  0  0  0  0  0  0  0  0  0  0  0
   -3.4581    2.5424   -2.0581 C   0  0  0  0  0  0  0  0  0  0  0  0
   -4.5189    2.2737   -1.9555 H   0  0  0  0  0  0  0  0  0  0  0  0
   -3.0236    3.6038   -2.8666 C   0  0  0  0  0  0  0  0  0  0  0  0
   -3.7810    4.1924   -3.4049 H   0  0  0  0  0  0  0  0  0  0  0  0
   -1.6629    3.9096   -2.9942 C   0  0  0  0  0  0  0  0  0  0  0  0
   -1.3263    4.7454   -3.6245 H   0  0  0  0  0  0  0  0  0  0  0  0
   -0.7120    3.1172   -2.2934 C   0  0  0  0  0  0  0  0  0  0  0  0
    0.7115    3.2949   -2.3102 C   0  0  0  0  0  3  0  0  0  0  0  0
    1.1409    4.1119   -2.9081 H   0  0  0  0  0  0  0  0  0  0  0  0
    1.5357    2.4647   -1.5620 C   0  0  0  0  0  0  0  0  0  0  0  0
    2.6218    2.6497   -1.5611 H   0  0  0  0  0  0  0  0  0  0  0  0
    1.0258    1.3846   -0.7824 C   0  0  0  0  0  0  0  0  0  0  0  0
    3.1177    1.5067    1.3097 C   0  0  0  0  0  0  0  0  0  0  0  0
    2.6374    1.9756    2.5489 C   0  0  0  0  0  0  0  0  0  0  0  0
    1.6616    1.6208    2.9134 H   0  0  0  0  0  0  0  0  0  0  0  0
    3.4074    2.8789    3.2931 C   0  0  0  0  0  0  0  0  0  0  0  0
    3.0357    3.2437    4.2625 H   0  0  0  0  0  0  0  0  0  0  0  0
    4.6494    3.3192    2.8037 C   0  0  0  0  0  0  0  0  0  0  0  0
    5.2505    4.0299    3.3908 H   0  0  0  0  0  0  0  0  0  0  0  0
    5.1264    2.8523    1.5683 C   0  0  0  0  0  0  0  0  0  0  0  0
    6.1009    3.1931    1.1876 H   0  0  0  0  0  0  0  0  0  0  0  0
    4.3644    1.9440    0.8182 C   0  0  0  0  0  0  0  0  0  0  0  0
    4.7442    1.5646   -0.1430 H   0  0  0  0  0  0  0  0  0  0  0  0
    3.1427   -0.6709   -0.6475 C   0  0  0  0  0  0  0  0  0  0  0  0
    2.8515   -0.9286   -2.0004 C   0  0  0  0  0  0  0  0  0  0  0  0
    2.0402   -0.3734   -2.4957 H   0  0  0  0  0  0  0  0  0  0  0  0
    3.5818   -1.9026   -2.6973 C   0  0  0  0  0  0  0  0  0  0  0  0
    3.3457   -2.1107   -3.7515 H   0  0  0  0  0  0  0  0  0  0  0  0
    4.6014   -2.6156   -2.0479 C   0  0  0  0  0  0  0  0  0  0  0  0
    5.1714   -3.3812   -2.5959 H   0  0  0  0  0  0  0  0  0  0  0  0
    4.8946   -2.3575   -0.6974 C   0  0  0  0  0  0  0  0  0  0  0  0
    5.6945   -2.9176   -0.1895 H   0  0  0  0  0  0  0  0  0  0  0  0
    4.1642   -1.3908    0.0065 C   0  0  0  0  0  0  0  0  0  0  0  0
    4.3792   -1.1976    1.0692 H   0  0  0  0  0  0  0  0  0  0  0  0
    0.0438   -2.3810   -0.3838 C   0  0  0  0  0  0  0  0  0  0  0  0
    1.0754   -3.2841   -0.0499 C   0  0  0  0  0  0  0  0  0  0  0  0
    1.6216   -3.1622    0.8978 H   0  0  0  0  0  0  0  0  0  0  0  0
    1.4218   -4.3039   -0.9442 C   0  0  0  0  0  0  0  0  0  0  0  0
    2.2354   -5.0004   -0.6915 H   0  0  0  0  0  0  0  0  0  0  0  0
    0.7416   -4.4249   -2.1687 C   0  0  0  0  0  0  0  0  0  0  0  0
    1.0190   -5.2244   -2.8729 H   0  0  0  0  0  0  0  0  0  0  0  0
   -0.2874   -3.5282   -2.4960 C   0  0  0  0  0  0  0  0  0  0  0  0
   -0.8240   -3.6254   -3.4520 H   0  0  0  0  0  0  0  0  0  0  0  0
   -0.6420   -2.4997   -1.6086 C   0  0  0  0  0  0  0  0  0  0  0  0
   -1.4560   -1.7992   -1.8551 H   0  0  0  0  0  0  0  0  0  0  0  0
   -1.4140   -1.4889    2.0551 C   0  0  0  0  0  0  0  0  0  0  0  0
   -2.6058   -2.1574    1.7076 C   0  0  0  0  0  0  0  0  0  0  0  0
   -2.7961   -2.4721    0.6694 H   0  0  0  0  0  0  0  0  0  0  0  0
   -3.5761   -2.3786    2.6952 C   0  0  0  0  0  0  0  0  0  0  0  0
   -4.5177   -2.8801    2.4269 H   0  0  0  0  0  0  0  0  0  0  0  0
   -3.3502   -1.9518    4.0130 C   0  0  0  0  0  0  0  0  0  0  0  0
   -4.1175   -2.1230    4.7832 H   0  0  0  0  0  0  0  0  0  0  0  0
   -2.1526   -1.3012    4.3532 C   0  0  0  0  0  0  0  0  0  0  0  0
   -1.9819   -0.9655    5.3871 H   0  0  0  0  0  0  0  0  0  0  0  0
   -1.1818   -1.0588    3.3730 C   0  0  0  0  0  0  0  0  0  0  0  0
   -0.2480   -0.5278    3.6097 H   0  0  0  0  0  0  0  0  0  0  0  0
  1 20  1  0  0  0  0
  1  5  1  0  0  0  0
  2  5  1  0  0  0  0
  2 53  1  0  0  0  0
  3  2  1  0  0  0  0
  6  3  1  0  0  0  0
  7  4  1  0  0  0  0
  7  6  2  0  0  0  0
  8  9  1  0  0  0  0
  8  4  1  0  0  0  0
 10  8  2  0  0  0  0
 11 10  1  0  0  0  0
 12 10  1  0  0  0  0
 12 14  2  0  0  0  0
 13 12  1  0  0  0  0
 14  7  1  0  0  0  0
 15 14  1  0  0  0  0
 15 17  1  0  0  0  0
 16 15  1  0  0  0  0
 17 18  1  0  0  0  0
 17 19  2  0  0  0  0
 19  6  1  0  0  0  0
 19  1  1  0  0  0  0
 20 21  1  0  0  0  0
 21 22  1  0  0  0  0
 21 23  2  0  0  0  0
 23 24  1  0  0  0  0
 25 23  1  0  0  0  0
 25 26  1  0  0  0  0
 27 25  2  0  0  0  0
 28 27  1  0  0  0  0
 29 20  2  0  0  0  0
 29 27  1  0  0  0  0
 30 29  1  0  0  0  0
 31 40  1  0  0  0  0
 31  1  1  0  0  0  0
 32 31  2  0  0  0  0
 33 32  1  0  0  0  0
 34 36  2  0  0  0  0
 34 32  1  0  0  0  0
 35 34  1  0  0  0  0
 36 38  1  0  0  0  0
 37 36  1  0  0  0  0
 38 39  1  0  0  0  0
 38 40  2  0  0  0  0
 40 41  1  0  0  0  0
 42 43  1  0  0  0  0
 42  2  1  0  0  0  0
 43 44  1  0  0  0  0
 45 46  1  0  0  0  0
 45 43  2  0  0  0  0
 47 45  1  0  0  0  0
 48 47  1  0  0  0  0
 49 47  2  0  0  0  0
 49 51  1  0  0  0  0
 50 49  1  0  0  0  0
 51 42  2  0  0  0  0
 52 51  1  0  0  0  0
 53 62  1  0  0  0  0
 54 53  2  0  0  0  0
 54 56  1  0  0  0  0
 55 54  1  0  0  0  0
 56 58  2  0  0  0  0
 57 56  1  0  0  0  0
 58 60  1  0  0  0  0
 58 59  1  0  0  0  0
 60 61  1  0  0  0  0
 62 63  1  0  0  0  0
 62 60  2  0  0  0  0
M  END
