2,3
q = -1.0

 36 36  0  0  1  0  0  0  0  0999 V2000
    3.4082   -0.5949    0.8311 Si  0  0  0  0  0  0  0  0  0  0  0  0
    1.9663    0.1484    0.0588 N   0  0  0  0  0  2  0  0  0  0  0  0
    0.6204    1.3324   -1.2858 N   0  0  0  0  0  2  0  0  0  0  0  0
    1.8993    1.1901   -0.8324 C   0  0  1  0  0  3  0  0  0  0  0  0
    2.9162    2.0668   -1.2912 C   0  0  0  0  0  0  0  0  0  0  0  0
    3.9515    1.9552   -0.9530 H   0  0  0  0  0  0  0  0  0  0  0  0
    2.5528    3.0681   -2.1940 C   0  0  0  0  0  0  0  0  0  0  0  0
    3.3217    3.7622   -2.5678 H   0  0  0  0  0  0  0  0  0  0  0  0
    1.2230    3.1993   -2.6333 C   0  0  0  0  0  0  0  0  0  0  0  0
    0.9323    3.9882   -3.3404 H   0  0  0  0  0  0  0  0  0  0  0  0
    0.2596    2.2943   -2.1535 C   0  0  0  0  0  0  0  0  0  0  0  0
   -1.1845    2.3569   -2.5612 C   0  0  0  0  0  0  0  0  0  0  0  0
   -1.3485    3.1122   -3.3514 H   0  0  0  0  0  0  0  0  0  0  0  0
   -1.8208    2.6103   -1.6882 H   0  0  0  0  0  0  0  0  0  0  0  0
   -1.5244    1.3676   -2.9249 H   0  0  0  0  0  0  0  0  0  0  0  0
    2.9226   -1.3340    2.4919 C   0  0  0  0  0  0  0  0  0  0  0  0
    2.6369   -0.5396    3.2107 H   0  0  0  0  0  0  0  0  0  0  0  0
    2.0686   -2.0309    2.4047 H   0  0  0  0  0  0  0  0  0  0  0  0
    3.7932   -1.8748    2.9168 H   0  0  0  0  0  0  0  0  0  0  0  0
    4.7398    0.7174    1.1703 C   0  0  0  0  0  0  0  0  0  0  0  0
    5.4324    0.3195    1.9403 H   0  0  0  0  0  0  0  0  0  0  0  0
    4.2969    1.6513    1.5717 H   0  0  0  0  0  0  0  0  0  0  0  0
    5.3495    0.9741    0.2814 H   0  0  0  0  0  0  0  0  0  0  0  0
    4.0926   -1.9454   -0.3560 C   0  0  0  0  0  0  0  0  0  0  0  0
    5.4387   -2.4543    0.1941 C   0  0  0  0  0  0  0  0  0  0  0  0
    6.2008   -1.6493    0.2511 H   0  0  0  0  0  0  0  0  0  0  0  0
    5.8496   -3.2496   -0.4673 H   0  0  0  0  0  0  0  0  0  0  0  0
    5.3354   -2.8955    1.2075 H   0  0  0  0  0  0  0  0  0  0  0  0
    4.2969   -1.3374   -1.7556 C   0  0  0  0  0  0  0  0  0  0  0  0
    5.0152   -0.4905   -1.7464 H   0  0  0  0  0  0  0  0  0  0  0  0
    3.3426   -0.9697   -2.1848 H   0  0  0  0  0  0  0  0  0  0  0  0
    4.7028   -2.1022   -2.4547 H   0  0  0  0  0  0  0  0  0  0  0  0
    3.0913   -3.1132   -0.4448 C   0  0  0  0  0  0  0  0  0  0  0  0
    3.4929   -3.9095   -1.1109 H   0  0  0  0  0  0  0  0  0  0  0  0
    2.1146   -2.7956   -0.8618 H   0  0  0  0  0  0  0  0  0  0  0  0
    2.9016   -3.5758    0.5452 H   0  0  0  0  0  0  0  0  0  0  0  0
  1 20  1  0  0  0  0
  1 16  1  0  0  0  0
  2  1  1  0  0  0  0
  3  4  1  0  0  0  0
  4  2  1  1  0  0  0
  5  6  1  0  0  0  0
  5  4  1  0  0  0  0
  7  5  2  0  0  0  0
  8  7  1  0  0  0  0
  9  7  1  0  0  0  0
  9 11  2  0  0  0  0
 10  9  1  0  0  0  0
 11  3  1  0  0  0  0
 12 11  1  0  0  0  0
 12 14  1  0  0  0  0
 13 12  1  0  0  0  0
 15 12  1  0  0  0  0
 16 19  1  0  0  0  0
 16 17  1  0  0  0  0
 18 16  1  0  0  0  0
 20 22  1  0  0  0  0
 20 21  1  0  0  0  0
 23 20  1  0  0  0  0
 24 25  1  0  0  0  0
 24  1  1  0  0  0  0
 25 26  1  0  0  0  0
 25 28  1  0  0  0  0
 27 25  1  0  0  0  0
 29 30  1  0  0  0  0
 29 24  1  0  0  0  0
 31 29  1  0  0  0  0
 32 29  1  0  0  0  0
 33 24  1  0  0  0  0
 33 36  1  0  0  0  0
 34 33  1  0  0  0  0
 35 33  1  0  0  0  0
M  END
