2,6
q = 0.0, confidence = 1.0

 23 24  0  0  0  0  0  0  0  0999 V2000
    5.0200   -0.9140   -0.0003 S   0  0  0  0  0  0  0  0  0  0  0  0
    1.2610    0.0085    0.0001 N   0  0  0  0  0  2  0  0  0  0  0  0
    2.2514   -0.9346   -0.0001 N   0  0  0  0  0  0  0  0  0  0  0  0
    3.1719    1.0913   -0.0001 N   0  0  0  0  0  0  0  0  0  0  0  0
    4.1907    2.0282    0.0000 N   0  0  0  0  0  0  0  0  0  0  0  0
   -0.4097    1.9997   -0.0003 N   0  0  0  0  0  2  0  0  0  0  0  0
    3.3999   -0.2702   -0.0001 C   0  0  0  0  0  0  0  0  0  0  0  0
    1.7926    1.2359    0.0001 C   0  0  0  0  0  0  0  0  0  0  0  0
    0.9146    2.3761   -0.0000 C   0  0  0  0  0  0  0  0  0  0  0  0
    1.3092    3.7265    0.0002 C   0  0  0  0  0  0  0  0  0  0  0  0
    2.3756    3.9868    0.0004 H   0  0  0  0  0  0  0  0  0  0  0  0
    0.3272    4.7217    0.0002 C   0  0  0  0  0  0  0  0  0  0  0  0
    0.6117    5.7841    0.0004 H   0  0  0  0  0  0  0  0  0  0  0  0
   -1.0193    4.3310   -0.0000 C   0  0  0  0  0  0  0  0  0  0  0  0
   -1.8305    5.0724   -0.0001 H   0  0  0  0  0  0  0  0  0  0  0  0
   -1.3478    2.9684   -0.0003 C   0  0  0  0  0  0  0  0  0  0  0  0
   -2.3961    2.6104   -0.0005 H   0  0  0  0  0  0  0  0  0  0  0  0
    4.5901   -2.6841   -0.0004 C   0  0  0  0  0  0  0  0  0  0  0  0
    4.0111   -2.9454    0.9050 H   0  0  0  0  0  0  0  0  0  0  0  0
    5.5563   -3.2217   -0.0005 H   0  0  0  0  0  0  0  0  0  0  0  0
    4.0110   -2.9453   -0.9057 H   0  0  0  0  0  0  0  0  0  0  0  0
    4.1375    2.6169   -0.8411 H   0  0  0  0  0  0  0  0  0  0  0  0
    4.1376    2.6165    0.8414 H   0  0  0  0  0  0  0  0  0  0  0  0
  1  7  1  0  0  0  0
  3  2  1  0  0  0  0
  4  5  1  0  0  0  0
  4  8  1  0  0  0  0
  5 23  1  0  0  0  0
  6 16  1  0  0  0  0
  6  9  1  0  0  0  0
  7  4  1  0  0  0  0
  7  3  2  0  0  0  0
  8  2  1  0  0  0  0
  9  8  2  0  0  0  0
  9 10  1  0  0  0  0
 10 11  1  0  0  0  0
 12 10  2  0  0  0  0
 12 13  1  0  0  0  0
 14 12  1  0  0  0  0
 15 14  1  0  0  0  0
 16 14  2  0  0  0  0
 17 16  1  0  0  0  0
 18  1  1  0  0  0  0
 18 19  1  0  0  0  0
 20 18  1  0  0  0  0
 21 18  1  0  0  0  0
 22  5  1  0  0  0  0
M  END
