1,3
q = 0.0, confidence = 1.0

 33 34  0  0  1  0  0  0  0  0999 V2000
   -0.0552   -1.1875    1.2641 N   0  0  0  0  0  0  0  0  0  0  0  0
   -1.5077    0.9495   -0.0943 N   0  0  0  0  0  0  0  0  0  0  0  0
   -0.2043    1.3535   -0.0006 N   0  0  0  0  0  2  0  0  0  0  0  0
   -1.1144   -1.4677    0.3075 C   0  0  0  0  0  0  0  0  0  0  0  0
   -1.4622   -2.7901   -0.0287 C   0  0  0  0  0  0  0  0  0  0  0  0
   -0.9347   -3.6251    0.4449 H   0  0  0  0  0  0  0  0  0  0  0  0
   -2.4636   -3.0700   -0.9691 C   0  0  0  0  0  0  0  0  0  0  0  0
   -2.7009   -4.1179   -1.2041 H   0  0  0  0  0  0  0  0  0  0  0  0
   -3.1427   -2.0285   -1.6104 C   0  0  0  0  0  0  0  0  0  0  0  0
   -3.9130   -2.2380   -2.3661 H   0  0  0  0  0  0  0  0  0  0  0  0
   -2.8034   -0.7048   -1.3051 C   0  0  0  0  0  0  0  0  0  0  0  0
   -3.2774    0.1274   -1.8417 H   0  0  0  0  0  0  0  0  0  0  0  0
   -1.8167   -0.4126   -0.3503 C   0  0  0  0  0  0  0  0  0  0  0  0
   -2.3659    1.9954    0.1819 C   0  0  2  0  0  3  0  0  0  0  0  0
   -1.5534    3.0957    0.4465 C   0  0  0  0  0  0  0  0  0  0  0  0
   -1.8923    4.1047    0.7026 H   0  0  0  0  0  0  0  0  0  0  0  0
   -0.2085    2.6591    0.3297 C   0  0  0  0  0  0  0  0  0  0  0  0
    0.6104   -2.3925    1.8055 C   0  0  0  0  0  0  0  0  0  0  0  0
    1.4374   -2.0570    2.4542 H   0  0  0  0  0  0  0  0  0  0  0  0
    1.0683   -2.9756    0.9889 H   0  0  0  0  0  0  0  0  0  0  0  0
   -0.1100   -2.9994    2.3970 H   0  0  0  0  0  0  0  0  0  0  0  0
   -0.5050   -0.3675    2.4235 C   0  0  0  0  0  0  0  0  0  0  0  0
    0.3877   -0.0685    3.0019 H   0  0  0  0  0  0  0  0  0  0  0  0
   -1.1780   -0.9729    3.0691 H   0  0  0  0  0  0  0  0  0  0  0  0
   -1.0373    0.5425    2.1071 H   0  0  0  0  0  0  0  0  0  0  0  0
   -3.8532    1.8740    0.2096 C   0  0  0  0  0  0  0  0  0  0  0  0
   -4.1797    0.9039    0.6335 H   0  0  0  0  0  0  0  0  0  0  0  0
   -4.3028    1.9602   -0.8017 H   0  0  0  0  0  0  0  0  0  0  0  0
   -4.2755    2.6881    0.8278 H   0  0  0  0  0  0  0  0  0  0  0  0
    1.0511    3.4233    0.5586 C   0  0  0  0  0  0  0  0  0  0  0  0
    1.5147    3.1302    1.5238 H   0  0  0  0  0  0  0  0  0  0  0  0
    0.8475    4.5095    0.5829 H   0  0  0  0  0  0  0  0  0  0  0  0
    1.7861    3.1812   -0.2359 H   0  0  0  0  0  0  0  0  0  0  0  0
  1 18  1  0  0  0  0
  1 22  1  0  0  0  0
  2  3  1  0  0  0  0
  2 14  1  0  0  0  0
  3 17  1  0  0  0  0
  4  1  1  0  0  0  0
  5  4  1  0  0  0  0
  5  6  1  0  0  0  0
  7  5  2  0  0  0  0
  8  7  1  0  0  0  0
  9 11  2  0  0  0  0
  9  7  1  0  0  0  0
 10  9  1  0  0  0  0
 11 13  1  0  0  0  0
 12 11  1  0  0  0  0
 13  2  1  0  0  0  0
 13  4  2  0  0  0  0
 14 26  1  1  0  0  0
 14 15  1  0  0  0  0
 15 16  1  0  0  0  0
 17 15  2  0  0  0  0
 17 30  1  0  0  0  0
 18 21  1  0  0  0  0
 18 19  1  0  0  0  0
 20 18  1  0  0  0  0
 22 23  1  0  0  0  0
 22 24  1  0  0  0  0
 25 22  1  0  0  0  0
 26 27  1  0  0  0  0
 26 29  1  0  0  0  0
 28 26  1  0  0  0  0
 30 32  1  0  0  0  0
 30 31  1  0  0  0  0
 33 30  1  0  0  0  0
M  END
