3,4
q = 0, confidence = 1.0

 18 17  0  0  0  0  0  0  0  0999 V2000
    2.7138   -0.0000    0.0300 P   0  0  0  0  0  0  0  0  0  0  0  0
    2.8702    0.0001    1.5419 O   0  0  0  0  0  0  0  0  0  0  0  0
    0.5618    1.5592    0.3764 N   0  0  0  0  0  0  0  0  0  0  0  0
    0.5618   -1.5592    0.3764 N   0  0  0  0  0  0  0  0  0  0  0  0
    1.7399    1.4849   -0.5062 C   0  0  0  0  0  0  0  0  0  0  0  0
    1.7399   -1.4850   -0.5061 C   0  0  0  0  0  0  0  0  0  0  0  0
    4.2294    0.0000   -0.9766 C   0  0  0  0  0  0  0  0  0  0  0  0
    0.8794    1.5911    1.3602 H   0  0  0  0  0  0  0  0  0  0  0  0
   -0.0360    2.3911    0.1873 H   0  0  0  0  0  0  0  0  0  0  0  0
   -0.0360   -2.3911    0.1873 H   0  0  0  0  0  0  0  0  0  0  0  0
    0.8793   -1.5911    1.3603 H   0  0  0  0  0  0  0  0  0  0  0  0
    1.4115    1.4081   -1.5614 H   0  0  0  0  0  0  0  0  0  0  0  0
    2.4036    2.3723   -0.3939 H   0  0  0  0  0  0  0  0  0  0  0  0
    2.4037   -2.3724   -0.3936 H   0  0  0  0  0  0  0  0  0  0  0  0
    1.4116   -1.4083   -1.5614 H   0  0  0  0  0  0  0  0  0  0  0  0
    4.8255   -0.8986   -0.7250 H   0  0  0  0  0  0  0  0  0  0  0  0
    3.9935    0.0010   -2.0595 H   0  0  0  0  0  0  0  0  0  0  0  0
    4.8262    0.8977   -0.7236 H   0  0  0  0  0  0  0  0  0  0  0  0
  1  2  2  0  0  0  0
  3  8  1  0  0  0  0
  4 11  1  0  0  0  0
  5 13  1  0  0  0  0
  5  1  1  0  0  0  0
  5  3  1  0  0  0  0
  6 14  1  0  0  0  0
  6  1  1  0  0  0  0
  6  4  1  0  0  0  0
  7 16  1  0  0  0  0
  7 18  1  0  0  0  0
  7  1  1  0  0  0  0
  9  3  1  0  0  0  0
 10  4  1  0  0  0  0
 12  5  1  0  0  0  0
 15  6  1  0  0  0  0
 17  7  1  0  0  0  0
M  END
