2,3
q = 0.0, confidence = 0.98

 24 25  0  0  0  0  0  0  0  0999 V2000
    6.7621   -0.5207   -0.4465 Br  0  0  0  0  0  0  0  0  0  0  0  0
    0.8670   -1.1243    1.0712 N   0  0  0  0  0  2  0  0  0  0  0  0
   -1.7639   -1.3654    1.6097 N   0  0  0  0  0  2  0  0  0  0  0  0
   -3.0859   -1.4803    1.8414 C   0  0  0  0  0  3  0  0  0  0  0  0
   -3.7335   -0.7935    1.2740 H   0  0  0  0  0  0  0  0  0  0  0  0
   -3.6082   -2.4070    2.7540 C   0  0  0  0  0  0  0  0  0  0  0  0
   -4.6951   -2.4614    2.9082 H   0  0  0  0  0  0  0  0  0  0  0  0
   -2.7292   -3.2473    3.4568 C   0  0  0  0  0  0  0  0  0  0  0  0
   -3.1115   -3.9810    4.1813 H   0  0  0  0  0  0  0  0  0  0  0  0
   -1.3559   -3.1349    3.2159 C   0  0  0  0  0  0  0  0  0  0  0  0
   -0.6301   -3.7736    3.7400 H   0  0  0  0  0  0  0  0  0  0  0  0
   -0.8986   -2.1867    2.2790 C   0  0  0  0  0  0  0  0  0  0  0  0
    0.5071   -2.0036    1.9731 C   0  0  0  0  0  3  0  0  0  0  0  0
    1.2565   -2.5996    2.5251 H   0  0  0  0  0  0  0  0  0  0  0  0
    2.2364   -1.0002    0.7354 C   0  0  0  0  0  0  0  0  0  0  0  0
    3.0827   -2.1323    0.6588 C   0  0  0  0  0  0  0  0  0  0  0  0
    2.6757   -3.1397    0.8294 H   0  0  0  0  0  0  0  0  0  0  0  0
    4.4279   -1.9934    0.3070 C   0  0  0  0  0  0  0  0  0  0  0  0
    5.0750   -2.8778    0.2256 H   0  0  0  0  0  0  0  0  0  0  0  0
    4.9459   -0.7127    0.0375 C   0  0  0  0  0  0  0  0  0  0  0  0
    4.1181    0.4218    0.1134 C   0  0  0  0  0  0  0  0  0  0  0  0
    4.5276    1.4193   -0.0973 H   0  0  0  0  0  0  0  0  0  0  0  0
    2.7703    0.2743    0.4495 C   0  0  0  0  0  0  0  0  0  0  0  0
    2.1270    1.1569    0.5156 H   0  0  0  0  0  0  0  0  0  0  0  0
  1 20  1  0  0  0  0
  2 13  1  0  0  0  0
  3  4  1  0  0  0  0
  3 12  1  0  0  0  0
  4  6  1  0  0  0  0
  5  4  1  0  0  0  0
  6  7  1  0  0  0  0
  6  8  2  0  0  0  0
  8  9  1  0  0  0  0
 10  8  1  0  0  0  0
 10 11  1  0  0  0  0
 12 10  2  0  0  0  0
 13 12  1  0  0  0  0
 13 14  1  0  0  0  0
 15  2  1  0  0  0  0
 16 15  1  0  0  0  0
 16 17  1  0  0  0  0
 18 16  2  0  0  0  0
 19 18  1  0  0  0  0
 20 21  2  0  0  0  0
 20 18  1  0  0  0  0
 21 23  1  0  0  0  0
 22 21  1  0  0  0  0
 23 24  1  0  0  0  0
 23 15  2  0  0  0  0
M  END
