1,4
q = 0.0, confidence = 1.0

 41 45  0  0  1  0  0  0  0  0999 V2000
    1.5082   -0.0249   -0.0328 N   0  0  0  0  0  2  0  0  0  0  0  0
   -2.6600    0.5712   -1.2490 N   0  0  0  0  0  0  0  0  0  0  0  0
    1.4195    1.1717   -0.6104 C   0  0  1  0  0  3  0  0  0  0  0  0
   -1.3231   -0.3902    0.2739 N   0  0  0  0  0  2  0  0  0  0  0  0
   -2.3242   -2.7144    0.1437 C   0  0  0  0  0  0  0  0  0  0  0  0
   -1.6277   -3.1570    0.8735 H   0  0  0  0  0  0  0  0  0  0  0  0
    0.4662    2.2486   -0.2954 C   0  0  0  0  0  0  0  0  0  0  0  0
    4.7821   -1.5119   -2.1030 C   0  0  0  0  0  0  0  0  0  0  0  0
    5.6521   -1.8668   -2.6755 H   0  0  0  0  0  0  0  0  0  0  0  0
   -0.9396    2.0487   -0.1626 C   0  0  0  0  0  0  0  0  0  0  0  0
   -1.6018    0.7443   -0.3681 C   0  0  2  0  0  3  0  0  0  0  0  0
    2.4174    1.3330   -1.5504 N   0  0  0  0  0  0  0  0  0  0  0  0
    2.5204    2.1485   -2.1537 H   0  0  0  0  0  0  0  0  0  0  0  0
   -3.0654   -0.7554   -1.1513 C   0  0  0  0  0  0  0  0  0  0  0  0
    0.9896    3.5480   -0.1235 C   0  0  0  0  0  0  0  0  0  0  0  0
    2.0779    3.6950   -0.1919 H   0  0  0  0  0  0  0  0  0  0  0  0
    2.5807   -0.6826   -0.6157 C   0  0  0  0  0  0  0  0  0  0  0  0
   -1.7534    3.1542    0.1625 C   0  0  0  0  0  0  0  0  0  0  0  0
   -2.8318    2.9928    0.3067 H   0  0  0  0  0  0  0  0  0  0  0  0
    3.0930   -1.9710   -0.3730 C   0  0  0  0  0  0  0  0  0  0  0  0
    2.6114   -2.6100    0.3844 H   0  0  0  0  0  0  0  0  0  0  0  0
    0.1648    4.6316    0.1953 C   0  0  0  0  0  0  0  0  0  0  0  0
    0.6045    5.6278    0.3506 H   0  0  0  0  0  0  0  0  0  0  0  0
   -3.2112    1.5259   -2.1908 C   0  0  0  0  0  0  0  0  0  0  0  0
   -4.2232    1.8589   -1.8801 H   0  0  0  0  0  0  0  0  0  0  0  0
   -3.2862    1.0583   -3.1929 H   0  0  0  0  0  0  0  0  0  0  0  0
   -2.5508    2.4084   -2.2556 H   0  0  0  0  0  0  0  0  0  0  0  0
    4.2825   -0.2274   -2.3537 C   0  0  0  0  0  0  0  0  0  0  0  0
    4.7398    0.4300   -3.1073 H   0  0  0  0  0  0  0  0  0  0  0  0
   -4.0704   -1.4840   -1.8080 C   0  0  0  0  0  0  0  0  0  0  0  0
   -4.7393   -1.0227   -2.5487 H   0  0  0  0  0  0  0  0  0  0  0  0
   -4.1833   -2.8378   -1.4646 C   0  0  0  0  0  0  0  0  0  0  0  0
   -4.9587   -3.4492   -1.9502 H   0  0  0  0  0  0  0  0  0  0  0  0
    4.1987   -2.3658   -1.1324 C   0  0  0  0  0  0  0  0  0  0  0  0
    4.6296   -3.3658   -0.9755 H   0  0  0  0  0  0  0  0  0  0  0  0
    3.1739    0.1712   -1.5906 C   0  0  0  0  0  0  0  0  0  0  0  0
   -2.2049   -1.3520   -0.1892 C   0  0  0  0  0  0  0  0  0  0  0  0
   -3.3254   -3.4403   -0.5098 C   0  0  0  0  0  0  0  0  0  0  0  0
   -3.4511   -4.5089   -0.2804 H   0  0  0  0  0  0  0  0  0  0  0  0
   -1.2143    4.4321    0.3471 C   0  0  0  0  0  0  0  0  0  0  0  0
   -1.8716    5.2690    0.6254 H   0  0  0  0  0  0  0  0  0  0  0  0
  2 14  1  0  0  0  0
  2 11  1  0  0  0  0
  3  7  1  1  0  0  0
  3  1  1  0  0  0  0
  5  6  1  0  0  0  0
  7 10  2  0  0  0  0
  7 15  1  0  0  0  0
  8 34  1  0  0  0  0
  9  8  1  0  0  0  0
 10 18  1  0  0  0  0
 11 10  1  1  0  0  0
 11  4  1  0  0  0  0
 12  3  1  0  0  0  0
 13 12  1  0  0  0  0
 14 37  2  0  0  0  0
 15 22  2  0  0  0  0
 16 15  1  0  0  0  0
 17 20  1  0  0  0  0
 17  1  1  0  0  0  0
 18 19  1  0  0  0  0
 18 40  2  0  0  0  0
 20 21  1  0  0  0  0
 22 40  1  0  0  0  0
 22 23  1  0  0  0  0
 24 25  1  0  0  0  0
 24  2  1  0  0  0  0
 26 24  1  0  0  0  0
 27 24  1  0  0  0  0
 28  8  2  0  0  0  0
 28 36  1  0  0  0  0
 29 28  1  0  0  0  0
 30 32  2  0  0  0  0
 30 14  1  0  0  0  0
 31 30  1  0  0  0  0
 32 38  1  0  0  0  0
 33 32  1  0  0  0  0
 34 35  1  0  0  0  0
 34 20  2  0  0  0  0
 36 12  1  0  0  0  0
 36 17  2  0  0  0  0
 37  5  1  0  0  0  0
 37  4  1  0  0  0  0
 38 39  1  0  0  0  0
 38  5  2  0  0  0  0
 40 41  1  0  0  0  0
M  END
