1,15
q = -1.0

 34 33  0  0  0  0  0  0  0  0999 V2000
    1.2465   -0.1990    0.3330 N   0  0  0  0  0  2  0  0  0  0  0  0
    3.0326   -0.1180    0.5740 Si  0  0  0  0  0  0  0  0  0  0  0  0
    3.8534    0.2754   -1.0719 C   0  0  0  0  0  0  0  0  0  0  0  0
    4.9544    0.3359   -0.9476 H   0  0  0  0  0  0  0  0  0  0  0  0
    3.4934    1.2444   -1.4699 H   0  0  0  0  0  0  0  0  0  0  0  0
    3.6258   -0.5123   -1.8157 H   0  0  0  0  0  0  0  0  0  0  0  0
    3.4012    1.2252    1.8489 C   0  0  0  0  0  0  0  0  0  0  0  0
    4.4986    1.2614    2.0129 H   0  0  0  0  0  0  0  0  0  0  0  0
    2.9190    1.0009    2.8211 H   0  0  0  0  0  0  0  0  0  0  0  0
    3.0709    2.2299    1.5220 H   0  0  0  0  0  0  0  0  0  0  0  0
    3.5706   -1.7750    1.2806 C   0  0  0  0  0  0  0  0  0  0  0  0
    2.9829   -2.0175    2.1888 H   0  0  0  0  0  0  0  0  0  0  0  0
    4.6432   -1.7308    1.5617 H   0  0  0  0  0  0  0  0  0  0  0  0
    3.4309   -2.5960    0.5520 H   0  0  0  0  0  0  0  0  0  0  0  0
   -1.2464   -0.1993    0.3330 N   0  0  0  0  0  2  0  0  0  0  0  0
   -3.0326   -0.1186    0.5740 Si  0  0  0  0  0  0  0  0  0  0  0  0
   -3.8534    0.2746   -1.0719 C   0  0  0  0  0  0  0  0  0  0  0  0
   -3.4937    1.2436   -1.4700 H   0  0  0  0  0  0  0  0  0  0  0  0
   -4.9545    0.3349   -0.9476 H   0  0  0  0  0  0  0  0  0  0  0  0
   -3.6257   -0.5131   -1.8157 H   0  0  0  0  0  0  0  0  0  0  0  0
   -3.5702   -1.7757    1.2807 C   0  0  0  0  0  0  0  0  0  0  0  0
   -4.6428   -1.7317    1.5618 H   0  0  0  0  0  0  0  0  0  0  0  0
   -2.9825   -2.0181    2.1889 H   0  0  0  0  0  0  0  0  0  0  0  0
   -3.4305   -2.5967    0.5521 H   0  0  0  0  0  0  0  0  0  0  0  0
   -3.4014    1.2246    1.8488 C   0  0  0  0  0  0  0  0  0  0  0  0
   -4.4988    1.2606    2.0128 H   0  0  0  0  0  0  0  0  0  0  0  0
   -3.0713    2.2293    1.5219 H   0  0  0  0  0  0  0  0  0  0  0  0
   -2.9191    1.0004    2.8210 H   0  0  0  0  0  0  0  0  0  0  0  0
   -0.0001    0.7972    0.5146 P   0  0  0  0  0  4  0  0  0  0  0  0
   -0.0003    1.9492    2.2263 Cl  0  0  0  0  0  0  0  0  0  0  0  0
   -0.0003    2.1529   -0.8377 C   0  0  0  0  0  0  0  0  0  0  0  0
   -0.0001    1.2735   -2.3905 Cl  0  0  0  0  0  0  0  0  0  0  0  0
    1.4603    3.1748   -0.6932 Cl  0  0  0  0  0  0  0  0  0  0  0  0
   -1.4612    3.1743   -0.6932 Cl  0  0  0  0  0  0  0  0  0  0  0  0
  1 29  1  0  0  0  0
  1  2  1  0  0  0  0
  2 11  1  0  0  0  0
  2  7  1  0  0  0  0
  3  4  1  0  0  0  0
  3  2  1  0  0  0  0
  5  3  1  0  0  0  0
  6  3  1  0  0  0  0
  7  8  1  0  0  0  0
  7  9  1  0  0  0  0
 10  7  1  0  0  0  0
 11 13  1  0  0  0  0
 11 12  1  0  0  0  0
 14 11  1  0  0  0  0
 15 29  1  0  0  0  0
 15 16  1  0  0  0  0
 16 21  1  0  0  0  0
 16 25  1  0  0  0  0
 17 19  1  0  0  0  0
 17 16  1  0  0  0  0
 18 17  1  0  0  0  0
 20 17  1  0  0  0  0
 21 22  1  0  0  0  0
 21 23  1  0  0  0  0
 24 21  1  0  0  0  0
 25 26  1  0  0  0  0
 25 28  1  0  0  0  0
 27 25  1  0  0  0  0
 29 30  1  0  0  0  0
 31 34  1  0  0  0  0
 31 33  1  0  0  0  0
 31 29  1  0  0  0  0
 32 31  1  0  0  0  0
M  END
