1,2
q = 0.0, confidence = 0.996

 26 26  0  0  0  0  0  0  0  0999 V2000
    1.4545    1.1622    0.3856 N   0  0  0  0  0  2  0  0  0  0  0  0
   -0.3968    0.2146   -1.1528 N   0  0  0  0  0  2  0  0  0  0  0  0
    2.4128    1.6064    1.2229 C   0  0  0  0  0  3  0  0  0  0  0  0
    2.6512    0.9622    2.0812 H   0  0  0  0  0  0  0  0  0  0  0  0
    3.0904    2.8142    1.0196 C   0  0  0  0  0  0  0  0  0  0  0  0
    3.8657    3.1229    1.7349 H   0  0  0  0  0  0  0  0  0  0  0  0
    2.7704    3.6050   -0.0963 C   0  0  0  0  0  0  0  0  0  0  0  0
    3.2901    4.5565   -0.2803 H   0  0  0  0  0  0  0  0  0  0  0  0
    1.7779    3.1528   -0.9704 C   0  0  0  0  0  0  0  0  0  0  0  0
    1.4905    3.7293   -1.8616 H   0  0  0  0  0  0  0  0  0  0  0  0
    1.1400    1.9278   -0.7043 C   0  0  0  0  0  0  0  0  0  0  0  0
    0.0980    1.3564   -1.5301 C   0  0  0  0  0  3  0  0  0  0  0  0
   -0.2503    1.8736   -2.4436 H   0  0  0  0  0  0  0  0  0  0  0  0
   -1.4487   -0.4021   -1.9529 C   0  0  0  0  0  0  0  0  0  0  0  0
   -1.0799   -1.4058   -2.2503 H   0  0  0  0  0  0  0  0  0  0  0  0
   -1.6057    0.1899   -2.8827 H   0  0  0  0  0  0  0  0  0  0  0  0
   -2.7686   -0.5387   -1.1864 C   0  0  0  0  0  0  0  0  0  0  0  0
   -3.4971   -1.0504   -1.8480 H   0  0  0  0  0  0  0  0  0  0  0  0
   -2.6428   -1.2086   -0.3141 H   0  0  0  0  0  0  0  0  0  0  0  0
   -3.3379    0.7960   -0.7179 C   0  0  0  0  0  0  0  0  0  0  0  0
   -2.6048    1.3551   -0.0982 H   0  0  0  0  0  0  0  0  0  0  0  0
   -3.5795    1.4711   -1.5679 H   0  0  0  0  0  0  0  0  0  0  0  0
   -4.5860    0.6318    0.1248 C   0  0  0  0  0  0  0  0  0  0  0  0
   -5.0928   -0.4271    0.4398 O   0  0  0  0  0  0  0  0  0  0  0  0
   -5.0871    1.8341    0.5061 O   0  0  0  0  0  0  0  0  0  0  0  0
   -5.8723    1.6261    1.0580 H   0  0  0  0  0  0  0  0  0  0  0  0
  1  3  1  0  0  0  0
  3  4  1  0  0  0  0
  5  3  1  0  0  0  0
  5  6  1  0  0  0  0
  7  5  2  0  0  0  0
  8  7  1  0  0  0  0
  9 11  2  0  0  0  0
  9  7  1  0  0  0  0
 10  9  1  0  0  0  0
 11  1  1  0  0  0  0
 12  2  1  0  0  0  0
 12 11  1  0  0  0  0
 13 12  1  0  0  0  0
 14 17  1  0  0  0  0
 14  2  1  0  0  0  0
 15 14  1  0  0  0  0
 16 14  1  0  0  0  0
 17 20  1  0  0  0  0
 17 19  1  0  0  0  0
 18 17  1  0  0  0  0
 20 21  1  0  0  0  0
 20 23  1  0  0  0  0
 22 20  1  0  0  0  0
 23 24  2  0  0  0  0
 23 25  1  0  0  0  0
 25 26  1  0  0  0  0
M  END
