2,4
q = -1.0, confidence = 0.0

 14 14  0  0  1  0  0  0  0  0999 V2000
   -2.2690   -0.0090    1.7706 N   0  0  0  0  0  0  0  0  0  0  0  0
   -1.8745   -0.0064    0.4749 N   0  0  0  0  0  2  0  0  0  0  0  0
   -2.8448   -0.0054   -1.7594 N   0  0  0  0  0  0  0  0  0  0  0  0
   -0.4837   -0.0005   -1.8484 N   0  0  0  0  0  2  0  0  0  0  0  0
    0.3375    0.0022   -2.4734 H   0  0  0  0  0  0  0  0  0  0  0  0
   -3.5696   -0.0122    1.9034 C   0  0  0  0  0  0  0  0  0  0  0  0
   -4.0645   -0.0146    2.8843 H   0  0  0  0  0  0  0  0  0  0  0  0
   -2.8810   -0.0073   -0.4438 C   0  0  0  0  0  0  0  0  0  0  0  0
   -1.6695   -0.0024   -2.4239 C   0  0  1  0  0  3  0  0  0  0  0  0
   -1.7773   -0.0015   -3.9271 C   0  0  0  0  0  0  0  0  0  0  0  0
   -0.7912    0.0035   -4.4272 H   0  0  0  0  0  0  0  0  0  0  0  0
   -2.3601    0.8835   -4.2517 H   0  0  0  0  0  0  0  0  0  0  0  0
   -2.3515   -0.8916   -4.2533 H   0  0  0  0  0  0  0  0  0  0  0  0
   -4.4462   -0.0121    0.4025 S   0  0  0  0  0  0  0  0  0  0  0  0
  1  6  2  0  0  0  0
  2  1  1  0  0  0  0
  3  8  2  0  0  0  0
  5  4  1  0  0  0  0
  6  7  1  0  0  0  0
  8 14  1  0  0  0  0
  8  2  1  0  0  0  0
  9  4  1  6  0  0  0
  9  3  1  0  0  0  0
 10  9  1  0  0  0  0
 11 10  1  0  0  0  0
 12 10  1  0  0  0  0
 13 10  1  0  0  0  0
 14  6  1  0  0  0  0
M  END
