2,3
q = -1.0

 15 16  0  0  0  0  0  0  0  0999 V2000
    5.7017   -0.3761   -0.0125 Cl  0  0  0  0  0  0  0  0  0  0  0  0
    1.9445    1.0113    0.0244 N   0  0  0  0  0  2  0  0  0  0  0  0
    1.2852   -1.5766   -0.0451 N   0  0  0  0  0  2  0  0  0  0  0  0
    1.2134   -2.9113   -0.0406 N   0  0  0  0  0  2  0  0  0  0  0  0
    2.4496   -3.3937   -0.0323 N   0  0  0  0  0  0  0  0  0  0  0  0
    3.3438   -2.3913   -0.0290 N   0  0  0  0  0  0  0  0  0  0  0  0
    2.1188    2.3405    0.0701 C   0  0  0  0  0  0  0  0  0  0  0  0
    1.1941    2.9473    0.0888 H   0  0  0  0  0  0  0  0  0  0  0  0
    3.4013    2.9068    0.0933 C   0  0  0  0  0  0  0  0  0  0  0  0
    3.5281    3.9978    0.1335 H   0  0  0  0  0  0  0  0  0  0  0  0
    4.5097    2.0522    0.0672 C   0  0  0  0  0  0  0  0  0  0  0  0
    5.5366    2.4450    0.0837 H   0  0  0  0  0  0  0  0  0  0  0  0
    4.3197    0.6601    0.0207 C   0  0  0  0  0  0  0  0  0  0  0  0
    2.9976    0.1477    0.0028 C   0  0  0  0  0  0  0  0  0  0  0  0
    2.6094   -1.2648   -0.0325 C   0  0  0  0  0  0  0  0  0  0  0  0
  1 13  1  0  0  0  0
  2  7  1  0  0  0  0
  3  4  1  0  0  0  0
  3 15  1  0  0  0  0
  4  5  1  0  0  0  0
  5  6  2  0  0  0  0
  7  8  1  0  0  0  0
  7  9  2  0  0  0  0
  9 10  1  0  0  0  0
 11 12  1  0  0  0  0
 11  9  1  0  0  0  0
 13 11  2  0  0  0  0
 14 13  1  0  0  0  0
 14  2  1  0  0  0  0
 15  6  1  0  0  0  0
 15 14  2  0  0  0  0
M  END
