1,3
q = 0.0, confidence = 0.998

 21 22  0  0  1  0  0  0  0  0999 V2000
   -1.4885   -0.1819   -0.7912 N   0  0  0  0  0  2  0  0  0  0  0  0
    0.3150    2.3959    1.5467 N   0  0  0  0  0  0  0  0  0  0  0  0
   -0.2260    1.3845    0.8371 N   0  0  0  0  0  2  0  0  0  0  0  0
   -2.0659   -1.0728   -1.6304 C   0  0  0  0  0  3  0  0  0  0  0  0
   -1.3832   -1.8527   -2.0070 H   0  0  0  0  0  0  0  0  0  0  0  0
   -3.4209   -1.0138   -1.9629 C   0  0  0  0  0  0  0  0  0  0  0  0
   -3.8382   -1.7652   -2.6479 H   0  0  0  0  0  0  0  0  0  0  0  0
   -4.2255   -0.0078   -1.4024 C   0  0  0  0  0  0  0  0  0  0  0  0
   -5.2974    0.0557   -1.6404 H   0  0  0  0  0  0  0  0  0  0  0  0
   -3.6398    0.9058   -0.5220 C   0  0  0  0  0  0  0  0  0  0  0  0
   -4.2312    1.7005   -0.0462 H   0  0  0  0  0  0  0  0  0  0  0  0
   -2.2703    0.7994   -0.2285 C   0  0  0  0  0  0  0  0  0  0  0  0
   -1.5387    1.6987    0.6412 C   0  0  2  0  0  3  0  0  0  0  0  0
   -1.8380    2.9287    1.2764 C   0  0  0  0  0  0  0  0  0  0  0  0
   -2.7978    3.4514    1.3142 H   0  0  0  0  0  0  0  0  0  0  0  0
   -0.6311    3.3438    1.8280 C   0  0  0  0  0  0  0  0  0  0  0  0
   -0.3631    4.2457    2.3873 H   0  0  0  0  0  0  0  0  0  0  0  0
    1.7529    2.5208    1.7151 C   0  0  0  0  0  0  0  0  0  0  0  0
    2.1848    2.9145    0.7721 H   0  0  0  0  0  0  0  0  0  0  0  0
    2.1866    1.5174    1.8963 H   0  0  0  0  0  0  0  0  0  0  0  0
    1.9490    3.2060    2.5592 H   0  0  0  0  0  0  0  0  0  0  0  0
  1 12  1  0  0  0  0
  2 18  1  0  0  0  0
  2 16  1  0  0  0  0
  3  2  1  0  0  0  0
  4  1  1  0  0  0  0
  5  4  1  0  0  0  0
  6  4  1  0  0  0  0
  6  8  2  0  0  0  0
  7  6  1  0  0  0  0
  8 10  1  0  0  0  0
  9  8  1  0  0  0  0
 10 12  2  0  0  0  0
 10 11  1  0  0  0  0
 13 12  1  6  0  0  0
 13  3  1  0  0  0  0
 13 14  1  0  0  0  0
 14 15  1  0  0  0  0
 14 16  2  0  0  0  0
 16 17  1  0  0  0  0
 18 20  1  0  0  0  0
 18 21  1  0  0  0  0
 19 18  1  0  0  0  0
M  END
