1,3
q = 0.0, confidence = 0.996

 41 44  0  0  1  0  0  0  0  0999 V2000
    0.2196   -2.1565    0.4850 N   0  0  0  0  0  2  0  0  0  0  0  0
   -1.4014    0.1754   -0.3322 N   0  0  0  0  0  0  0  0  0  0  0  0
   -0.1239    0.6019   -0.1460 N   0  0  0  0  0  2  0  0  0  0  0  0
    0.7487   -3.0569    1.3519 C   0  0  0  0  0  3  0  0  0  0  0  0
    1.8389   -2.9920    1.4820 H   0  0  0  0  0  0  0  0  0  0  0  0
   -0.0411   -4.0219    1.9828 C   0  0  0  0  0  0  0  0  0  0  0  0
    0.4319   -4.7290    2.6788 H   0  0  0  0  0  0  0  0  0  0  0  0
   -1.4155   -4.0715    1.7127 C   0  0  0  0  0  0  0  0  0  0  0  0
   -2.0596   -4.8222    2.1936 H   0  0  0  0  0  0  0  0  0  0  0  0
   -1.9536   -3.1444    0.8075 C   0  0  0  0  0  0  0  0  0  0  0  0
   -3.0230   -3.1551    0.5511 H   0  0  0  0  0  0  0  0  0  0  0  0
   -1.1147   -2.1997    0.2051 C   0  0  0  0  0  0  0  0  0  0  0  0
   -1.6128   -1.1866   -0.8003 C   0  0  0  0  0  0  0  0  0  0  0  0
   -1.0463   -1.3131   -1.7498 H   0  0  0  0  0  0  0  0  0  0  0  0
   -2.6914   -1.3133   -0.9960 H   0  0  0  0  0  0  0  0  0  0  0  0
   -2.3034    1.1851   -0.0988 C   0  0  1  0  0  3  0  0  0  0  0  0
   -3.7630    1.0188   -0.1673 C   0  0  0  0  0  0  0  0  0  0  0  0
   -4.4181   -0.0468    0.4937 C   0  0  0  0  0  0  0  0  0  0  0  0
   -3.8298   -0.7600    1.0907 H   0  0  0  0  0  0  0  0  0  0  0  0
   -5.8130   -0.1696    0.4346 C   0  0  0  0  0  0  0  0  0  0  0  0
   -6.3102   -0.9993    0.9595 H   0  0  0  0  0  0  0  0  0  0  0  0
   -6.5759    0.7733   -0.2729 C   0  0  0  0  0  0  0  0  0  0  0  0
   -7.6710    0.6763   -0.3168 H   0  0  0  0  0  0  0  0  0  0  0  0
   -5.9364    1.8451   -0.9164 C   0  0  0  0  0  0  0  0  0  0  0  0
   -6.5292    2.5891   -1.4695 H   0  0  0  0  0  0  0  0  0  0  0  0
   -4.5415    1.9682   -0.8665 C   0  0  0  0  0  0  0  0  0  0  0  0
   -4.0364    2.7970   -1.3846 H   0  0  0  0  0  0  0  0  0  0  0  0
   -1.5442    2.3068    0.2410 C   0  0  0  0  0  0  0  0  0  0  0  0
   -1.9359    3.2780    0.5567 H   0  0  0  0  0  0  0  0  0  0  0  0
   -0.1829    1.9057    0.2319 C   0  0  0  0  0  0  0  0  0  0  0  0
    0.9709    2.7137    0.6528 C   0  0  0  0  0  0  0  0  0  0  0  0
    0.9535    4.1069    0.4230 C   0  0  0  0  0  0  0  0  0  0  0  0
    0.1128    4.5555   -0.1276 H   0  0  0  0  0  0  0  0  0  0  0  0
    2.0136    4.9136    0.8559 C   0  0  0  0  0  0  0  0  0  0  0  0
    1.9933    5.9956    0.6559 H   0  0  0  0  0  0  0  0  0  0  0  0
    3.1027    4.3408    1.5314 C   0  0  0  0  0  0  0  0  0  0  0  0
    3.9383    4.9730    1.8682 H   0  0  0  0  0  0  0  0  0  0  0  0
    3.1234    2.9574    1.7718 C   0  0  0  0  0  0  0  0  0  0  0  0
    3.9752    2.5002    2.2970 H   0  0  0  0  0  0  0  0  0  0  0  0
    2.0679    2.1476    1.3386 C   0  0  0  0  0  0  0  0  0  0  0  0
    2.0941    1.0625    1.5179 H   0  0  0  0  0  0  0  0  0  0  0  0
  1  4  1  0  0  0  0
  2  3  1  0  0  0  0
  2 16  1  0  0  0  0
  3 30  1  0  0  0  0
  4  5  1  0  0  0  0
  4  6  1  0  0  0  0
  6  7  1  0  0  0  0
  8  6  2  0  0  0  0
  8  9  1  0  0  0  0
 10  8  1  0  0  0  0
 11 10  1  0  0  0  0
 12  1  1  0  0  0  0
 12 10  2  0  0  0  0
 13  2  1  0  0  0  0
 13 12  1  0  0  0  0
 14 13  1  0  0  0  0
 15 13  1  0  0  0  0
 16 17  1  1  0  0  0
 16 28  1  0  0  0  0
 17 18  1  0  0  0  0
 18 19  1  0  0  0  0
 20 18  2  0  0  0  0
 20 21  1  0  0  0  0
 22 20  1  0  0  0  0
 23 22  1  0  0  0  0
 24 26  1  0  0  0  0
 24 22  2  0  0  0  0
 25 24  1  0  0  0  0
 26 17  2  0  0  0  0
 27 26  1  0  0  0  0
 28 29  1  0  0  0  0
 30 28  2  0  0  0  0
 30 31  1  0  0  0  0
 31 40  1  0  0  0  0
 32 31  2  0  0  0  0
 32 34  1  0  0  0  0
 33 32  1  0  0  0  0
 34 36  2  0  0  0  0
 35 34  1  0  0  0  0
 36 38  1  0  0  0  0
 36 37  1  0  0  0  0
 38 39  1  0  0  0  0
 40 41  1  0  0  0  0
 40 38  2  0  0  0  0
M  END
