6,7
q = 0.0, confidence = 0.816

 23 24  0  0  1  0  0  0  0  0999 V2000
    5.5751    3.3979   -2.8441 Cl  0  0  0  0  0  0  0  0  0  0  0  0
    3.0795   -1.8841    0.3217 N   0  0  0  0  0  2  0  0  0  0  0  0
    3.1995    0.2158   -0.6357 C   0  0  0  0  0  0  0  0  0  0  0  0
    3.4129    2.5080   -1.4540 C   0  0  0  0  0  0  0  0  0  0  0  0
    3.0130    3.5259   -1.5589 H   0  0  0  0  0  0  0  0  0  0  0  0
    2.4599   -0.7575    0.0442 N   0  0  0  0  0  2  0  0  0  0  0  0
    1.0600   -2.4206    1.4086 N   0  0  0  0  0  2  0  0  0  0  0  0
    4.4789   -0.0872   -1.1789 C   0  0  0  0  0  0  0  0  0  0  0  0
    4.8754   -1.1034   -1.0616 H   0  0  0  0  0  0  0  0  0  0  0  0
    2.6869    1.5289   -0.7763 C   0  0  0  0  0  0  0  0  0  0  0  0
    1.7158    1.7800   -0.3398 H   0  0  0  0  0  0  0  0  0  0  0  0
    5.2012    0.8884   -1.8590 C   0  0  0  0  0  0  0  0  0  0  0  0
    6.1833    0.6547   -2.2934 H   0  0  0  0  0  0  0  0  0  0  0  0
    2.3633   -2.7485    1.0805 C   0  0  2  0  0  3  0  0  0  0  0  0
    4.6704    2.1893   -2.0004 C   0  0  0  0  0  0  0  0  0  0  0  0
    2.9321   -3.9520    1.5748 C   0  0  0  0  0  0  0  0  0  0  0  0
    3.9638   -4.1943    1.2871 H   0  0  0  0  0  0  0  0  0  0  0  0
    0.3405   -3.2008    2.2434 C   0  0  0  0  0  0  0  0  0  0  0  0
   -0.6820   -2.8599    2.4644 H   0  0  0  0  0  0  0  0  0  0  0  0
    0.8613   -4.3852    2.7660 C   0  0  0  0  0  0  0  0  0  0  0  0
    0.2414   -5.0067    3.4258 H   0  0  0  0  0  0  0  0  0  0  0  0
    2.1781   -4.7655    2.4145 C   0  0  0  0  0  0  0  0  0  0  0  0
    2.6077   -5.6981    2.8087 H   0  0  0  0  0  0  0  0  0  0  0  0
  1 15  1  0  0  0  0
  3  6  1  0  0  0  0
  4 10  2  0  0  0  0
  5  4  1  0  0  0  0
  6  2  1  0  0  0  0
  7 18  1  0  0  0  0
  8  9  1  0  0  0  0
  8  3  2  0  0  0  0
 10  3  1  0  0  0  0
 10 11  1  0  0  0  0
 12  8  1  0  0  0  0
 13 12  1  0  0  0  0
 14  2  1  1  0  0  0
 14  7  1  0  0  0  0
 14 16  1  0  0  0  0
 15 12  2  0  0  0  0
 15  4  1  0  0  0  0
 16 22  2  0  0  0  0
 17 16  1  0  0  0  0
 18 19  1  0  0  0  0
 18 20  2  0  0  0  0
 20 21  1  0  0  0  0
 22 20  1  0  0  0  0
 22 23  1  0  0  0  0
M  END
