1,2
q = -1.0, confidence = 0.032

 42 44  0  0  1  0  0  0  0  0999 V2000
    1.4429    0.8794    1.6747 N   0  0  0  0  0  2  0  0  0  0  0  0
   -0.3521   -0.3777    0.0412 N   0  0  0  0  0  2  0  0  0  0  0  0
   -3.1945    2.4692   -2.5912 O   0  0  0  0  0  0  0  0  0  0  0  0
   -1.2898   -1.9318   -1.9300 O   0  0  0  0  0  0  0  0  0  0  0  0
   -0.4265   -2.8783    0.2502 O   0  0  0  0  0  0  0  0  0  0  0  0
   -1.1478   -1.7584   -0.4585 S   0  0  0  0  0  0  0  0  0  0  0  0
   -0.8648    0.8873   -0.2799 C   0  0  0  0  0  0  0  0  0  0  0  0
   -1.7990    1.1082   -1.3082 C   0  0  0  0  0  0  0  0  0  0  0  0
   -2.1482    0.2807   -1.9372 H   0  0  0  0  0  0  0  0  0  0  0  0
   -2.3021    2.3969   -1.5823 C   0  0  0  0  0  0  0  0  0  0  0  0
   -1.8399    3.5063   -0.8384 C   0  0  0  0  0  0  0  0  0  0  0  0
   -2.1859    4.5254   -1.0500 H   0  0  0  0  0  0  0  0  0  0  0  0
   -0.9159    3.2868    0.1853 C   0  0  0  0  0  0  0  0  0  0  0  0
   -0.5497    4.1561    0.7511 H   0  0  0  0  0  0  0  0  0  0  0  0
   -0.4143    2.0059    0.5037 C   0  0  0  0  0  0  0  0  0  0  0  0
    0.4750    1.8447    1.6621 C   0  0  1  0  0  3  0  0  0  0  0  0
    0.3385    2.6874    2.7951 C   0  0  0  0  0  0  0  0  0  0  0  0
   -0.4727    3.4268    2.8084 H   0  0  0  0  0  0  0  0  0  0  0  0
    1.1871    2.5547    3.8926 C   0  0  0  0  0  0  0  0  0  0  0  0
    1.0695    3.2118    4.7670 H   0  0  0  0  0  0  0  0  0  0  0  0
    2.1716    1.5530    3.8743 C   0  0  0  0  0  0  0  0  0  0  0  0
    2.8579    1.3953    4.7174 H   0  0  0  0  0  0  0  0  0  0  0  0
    2.2510    0.7342    2.7499 C   0  0  0  0  0  0  0  0  0  0  0  0
    2.9842   -0.0820    2.6929 H   0  0  0  0  0  0  0  0  0  0  0  0
   -2.7755   -1.6064    0.2561 C   0  0  0  0  0  0  0  0  0  0  0  0
   -2.9013   -1.2857    1.6185 C   0  0  0  0  0  0  0  0  0  0  0  0
   -2.0075   -1.0832    2.2265 H   0  0  0  0  0  0  0  0  0  0  0  0
   -4.1813   -1.2140    2.1744 C   0  0  0  0  0  0  0  0  0  0  0  0
   -4.2931   -0.9568    3.2391 H   0  0  0  0  0  0  0  0  0  0  0  0
   -5.3357   -1.4663    1.3972 C   0  0  0  0  0  0  0  0  0  0  0  0
   -5.1687   -1.7872    0.0340 C   0  0  0  0  0  0  0  0  0  0  0  0
   -6.0554   -1.9829   -0.5881 H   0  0  0  0  0  0  0  0  0  0  0  0
   -3.8956   -1.8599   -0.5465 C   0  0  0  0  0  0  0  0  0  0  0  0
   -3.7616   -2.1076   -1.6091 H   0  0  0  0  0  0  0  0  0  0  0  0
   -6.7036   -1.4137    2.0223 C   0  0  0  0  0  0  0  0  0  0  0  0
   -6.8032   -0.5513    2.7111 H   0  0  0  0  0  0  0  0  0  0  0  0
   -6.8920   -2.3286    2.6238 H   0  0  0  0  0  0  0  0  0  0  0  0
   -7.5027   -1.3478    1.2599 H   0  0  0  0  0  0  0  0  0  0  0  0
   -3.7414    3.7354   -2.9390 C   0  0  0  0  0  0  0  0  0  0  0  0
   -4.2951    4.1881   -2.0882 H   0  0  0  0  0  0  0  0  0  0  0  0
   -4.4440    3.5499   -3.7711 H   0  0  0  0  0  0  0  0  0  0  0  0
   -2.9533    4.4419   -3.2792 H   0  0  0  0  0  0  0  0  0  0  0  0
  1 23  1  0  0  0  0
  3 10  1  0  0  0  0
  4  6  2  0  0  0  0
  6  2  1  0  0  0  0
  6  5  2  0  0  0  0
  6 25  1  0  0  0  0
  7  2  1  0  0  0  0
  7 15  1  0  0  0  0
  8  7  2  0  0  0  0
  9  8  1  0  0  0  0
 10  8  1  0  0  0  0
 10 11  2  0  0  0  0
 11 13  1  0  0  0  0
 12 11  1  0  0  0  0
 13 15  2  0  0  0  0
 13 14  1  0  0  0  0
 16 15  1  1  0  0  0
 16  1  1  0  0  0  0
 16 17  1  0  0  0  0
 17 18  1  0  0  0  0
 17 19  2  0  0  0  0
 19 20  1  0  0  0  0
 21 19  1  0  0  0  0
 21 22  1  0  0  0  0
 23 21  2  0  0  0  0
 24 23  1  0  0  0  0
 25 26  1  0  0  0  0
 26 28  2  0  0  0  0
 26 27  1  0  0  0  0
 28 29  1  0  0  0  0
 30 35  1  0  0  0  0
 30 28  1  0  0  0  0
 31 30  2  0  0  0  0
 32 31  1  0  0  0  0
 33 31  1  0  0  0  0
 33 25  2  0  0  0  0
 34 33  1  0  0  0  0
 35 37  1  0  0  0  0
 35 36  1  0  0  0  0
 38 35  1  0  0  0  0
 39  3  1  0  0  0  0
 39 40  1  0  0  0  0
 41 39  1  0  0  0  0
 42 39  1  0  0  0  0
M  END
