1,21
q = -1.0

 38 40  0  0  0  0  0  0  0  0999 V2000
   -1.2876    1.6868   -0.8086 N   0  0  0  0  0  2  0  0  0  0  0  0
   -2.0073    2.1533   -1.8585 C   0  0  0  0  0  3  0  0  0  0  0  0
   -2.6662    1.4227   -2.3513 H   0  0  0  0  0  0  0  0  0  0  0  0
   -1.9348    3.4732   -2.3018 C   0  0  0  0  0  0  0  0  0  0  0  0
   -2.5445    3.7990   -3.1557 H   0  0  0  0  0  0  0  0  0  0  0  0
   -1.0606    4.3469   -1.6352 C   0  0  0  0  0  0  0  0  0  0  0  0
   -0.9513    5.3915   -1.9624 H   0  0  0  0  0  0  0  0  0  0  0  0
   -0.3164    3.8653   -0.5583 C   0  0  0  0  0  0  0  0  0  0  0  0
    0.4021    4.5173   -0.0448 H   0  0  0  0  0  0  0  0  0  0  0  0
   -0.4444    2.5208   -0.1290 C   0  0  0  0  0  0  0  0  0  0  0  0
    0.3196    2.0379    1.0361 C   0  0  0  0  0  0  0  0  0  0  0  0
    0.5794    2.9359    2.0975 C   0  0  0  0  0  0  0  0  0  0  0  0
    0.1315    3.9402    2.0669 H   0  0  0  0  0  0  0  0  0  0  0  0
    1.3623    2.5703    3.1954 C   0  0  0  0  0  0  0  0  0  0  0  0
    1.5374    3.2838    4.0129 H   0  0  0  0  0  0  0  0  0  0  0  0
    1.9120    1.2786    3.2386 C   0  0  0  0  0  0  0  0  0  0  0  0
    2.5334    0.9702    4.0929 H   0  0  0  0  0  0  0  0  0  0  0  0
    1.6568    0.3599    2.2156 C   0  0  0  0  0  0  0  0  0  0  0  0
    2.0623   -0.6571    2.2847 H   0  0  0  0  0  0  0  0  0  0  0  0
    0.8558    0.7089    1.0989 C   0  0  0  0  0  0  0  0  0  0  0  0
    0.5616   -0.1643    0.0427 N   0  0  0  0  0  2  0  0  0  0  0  0
    1.4825   -1.5445   -0.1919 S   0  0  0  0  0  0  0  0  0  0  0  0
    0.9877   -2.1063   -1.5001 O   0  0  0  0  0  0  0  0  0  0  0  0
    1.5078   -2.5083    0.9414 O   0  0  0  0  0  0  0  0  0  0  0  0
    3.1399   -0.9289   -0.4384 C   0  0  0  0  0  0  0  0  0  0  0  0
    3.3626    0.1315   -1.3328 C   0  0  0  0  0  0  0  0  0  0  0  0
    2.5168    0.6162   -1.8413 H   0  0  0  0  0  0  0  0  0  0  0  0
    4.6727    0.5683   -1.5463 C   0  0  0  0  0  0  0  0  0  0  0  0
    4.8571    1.4043   -2.2386 H   0  0  0  0  0  0  0  0  0  0  0  0
    5.7667   -0.0428   -0.8907 C   0  0  0  0  0  0  0  0  0  0  0  0
    7.1733    0.4207   -1.1563 C   0  0  0  0  0  0  0  0  0  0  0  0
    7.8736    0.0828   -0.3692 H   0  0  0  0  0  0  0  0  0  0  0  0
    7.2317    1.5248   -1.2284 H   0  0  0  0  0  0  0  0  0  0  0  0
    7.5399    0.0149   -2.1234 H   0  0  0  0  0  0  0  0  0  0  0  0
    5.5050   -1.1067   -0.0025 C   0  0  0  0  0  0  0  0  0  0  0  0
    6.3427   -1.5932    0.5203 H   0  0  0  0  0  0  0  0  0  0  0  0
    4.1992   -1.5573    0.2307 C   0  0  0  0  0  0  0  0  0  0  0  0
    3.9924   -2.3854    0.9235 H   0  0  0  0  0  0  0  0  0  0  0  0
  1 10  1  0  0  0  0
  2  1  1  0  0  0  0
  3  2  1  0  0  0  0
  4  2  1  0  0  0  0
  4  6  2  0  0  0  0
  5  4  1  0  0  0  0
  6  8  1  0  0  0  0
  7  6  1  0  0  0  0
  8 10  2  0  0  0  0
  8  9  1  0  0  0  0
 10 11  1  0  0  0  0
 11 20  2  0  0  0  0
 11 12  1  0  0  0  0
 12 14  2  0  0  0  0
 13 12  1  0  0  0  0
 14 16  1  0  0  0  0
 14 15  1  0  0  0  0
 16 17  1  0  0  0  0
 18 19  1  0  0  0  0
 18 16  2  0  0  0  0
 20 18  1  0  0  0  0
 21 20  1  0  0  0  0
 22 21  1  0  0  0  0
 22 24  2  0  0  0  0
 23 22  2  0  0  0  0
 25 22  1  0  0  0  0
 25 37  1  0  0  0  0
 26 25  2  0  0  0  0
 27 26  1  0  0  0  0
 28 26  1  0  0  0  0
 28 30  2  0  0  0  0
 29 28  1  0  0  0  0
 30 35  1  0  0  0  0
 31 30  1  0  0  0  0
 31 32  1  0  0  0  0
 33 31  1  0  0  0  0
 34 31  1  0  0  0  0
 35 37  2  0  0  0  0
 35 36  1  0  0  0  0
 37 38  1  0  0  0  0
M  END
