3,5
q = 0.0, confidence = 0.996

 66 68  0  0  1  0  0  0  0  0999 V2000
   -1.6983    2.4645    1.3656 O   0  0  0  0  0  0  0  0  0  0  0  0
   -2.2135    3.1226    0.8644 H   0  0  0  0  0  0  0  0  0  0  0  0
    1.3419   -1.2198    0.7740 N   0  0  0  0  0  2  0  0  0  0  0  0
    0.9222   -0.8104    2.0124 N   0  0  0  0  0  0  0  0  0  0  0  0
    1.2344    1.4715    0.2331 N   0  0  0  0  0  2  0  0  0  0  0  0
    0.8568    1.5029    1.5445 N   0  0  0  0  0  0  0  0  0  0  0  0
   -2.0855    1.2103    0.9805 C   0  0  0  0  0  0  0  0  0  0  0  0
   -3.2695    0.9708    0.2287 C   0  0  0  0  0  0  0  0  0  0  0  0
   -3.6073   -0.3663   -0.0312 C   0  0  0  0  0  0  0  0  0  0  0  0
   -4.5134   -0.5701   -0.6151 H   0  0  0  0  0  0  0  0  0  0  0  0
   -2.8350   -1.4615    0.4008 C   0  0  0  0  0  0  0  0  0  0  0  0
   -1.6545   -1.1771    1.0953 C   0  0  0  0  0  0  0  0  0  0  0  0
   -1.0047   -2.0034    1.4017 H   0  0  0  0  0  0  0  0  0  0  0  0
   -1.2495    0.1411    1.3662 C   0  0  0  0  0  0  0  0  0  0  0  0
    0.0950    0.3854    2.0722 C   0  0  1  0  0  0  0  0  0  0  0  0
   -0.0617    0.6099    3.1456 H   0  0  0  0  0  0  0  0  0  0  0  0
    1.6713   -2.5306    0.8867 C   0  0  1  0  0  3  0  0  0  0  0  0
    1.4313   -2.9543    2.2200 C   0  0  0  0  0  0  0  0  0  0  0  0
    1.6063   -3.9555    2.6264 H   0  0  0  0  0  0  0  0  0  0  0  0
    0.9363   -1.8542    2.9149 C   0  0  0  0  0  0  0  0  0  0  0  0
    2.1757   -3.3017   -0.2855 C   0  0  0  0  0  0  0  0  0  0  0  0
    3.2375   -3.0618   -0.5011 H   0  0  0  0  0  0  0  0  0  0  0  0
    1.5925   -3.0462   -1.1960 H   0  0  0  0  0  0  0  0  0  0  0  0
    2.0834   -4.3889   -0.1018 H   0  0  0  0  0  0  0  0  0  0  0  0
    0.4491   -1.7046    4.3159 C   0  0  0  0  0  0  0  0  0  0  0  0
   -0.6411   -1.4918    4.3575 H   0  0  0  0  0  0  0  0  0  0  0  0
    0.9740   -0.8881    4.8558 H   0  0  0  0  0  0  0  0  0  0  0  0
    0.6262   -2.6425    4.8734 H   0  0  0  0  0  0  0  0  0  0  0  0
    1.6283    2.7268   -0.0915 C   0  0  1  0  0  3  0  0  0  0  0  0
    1.5076    3.5550    1.0540 C   0  0  0  0  0  0  0  0  0  0  0  0
    1.7625    4.6177    1.1190 H   0  0  0  0  0  0  0  0  0  0  0  0
    1.0119    2.7598    2.0818 C   0  0  0  0  0  0  0  0  0  0  0  0
    2.1320    3.0589   -1.4549 C   0  0  0  0  0  0  0  0  0  0  0  0
    1.5329    2.5362   -2.2288 H   0  0  0  0  0  0  0  0  0  0  0  0
    3.1858    2.7339   -1.5828 H   0  0  0  0  0  0  0  0  0  0  0  0
    2.0734    4.1496   -1.6323 H   0  0  0  0  0  0  0  0  0  0  0  0
    0.6116    3.0954    3.4766 C   0  0  0  0  0  0  0  0  0  0  0  0
    1.0761    2.4172    4.2234 H   0  0  0  0  0  0  0  0  0  0  0  0
   -0.4911    3.0448    3.5989 H   0  0  0  0  0  0  0  0  0  0  0  0
    0.9334    4.1253    3.7179 H   0  0  0  0  0  0  0  0  0  0  0  0
   -4.1168    2.1374   -0.3248 C   0  0  0  0  0  0  0  0  0  0  0  0
   -3.2482    3.0094   -1.2700 C   0  0  0  0  0  0  0  0  0  0  0  0
   -2.8167    2.3843   -2.0771 H   0  0  0  0  0  0  0  0  0  0  0  0
   -2.3849    3.5127   -0.7845 H   0  0  0  0  0  0  0  0  0  0  0  0
   -3.8643    3.8099   -1.7279 H   0  0  0  0  0  0  0  0  0  0  0  0
   -4.7139    2.9796    0.8307 C   0  0  0  0  0  0  0  0  0  0  0  0
   -3.9536    3.3939    1.5227 H   0  0  0  0  0  0  0  0  0  0  0  0
   -5.3945    2.3572    1.4455 H   0  0  0  0  0  0  0  0  0  0  0  0
   -5.2985    3.8311    0.4258 H   0  0  0  0  0  0  0  0  0  0  0  0
   -5.3014    1.6297   -1.1686 C   0  0  0  0  0  0  0  0  0  0  0  0
   -5.9951    1.0041   -0.5726 H   0  0  0  0  0  0  0  0  0  0  0  0
   -4.9604    1.0393   -2.0418 H   0  0  0  0  0  0  0  0  0  0  0  0
   -5.8784    2.4947   -1.5523 H   0  0  0  0  0  0  0  0  0  0  0  0
   -3.2634   -2.8965    0.0523 C   0  0  0  0  0  0  0  0  0  0  0  0
   -2.2429   -3.9345    0.5517 C   0  0  0  0  0  0  0  0  0  0  0  0
   -1.2453   -3.7811    0.0928 H   0  0  0  0  0  0  0  0  0  0  0  0
   -2.5834   -4.9548    0.2838 H   0  0  0  0  0  0  0  0  0  0  0  0
   -2.1216   -3.9011    1.6535 H   0  0  0  0  0  0  0  0  0  0  0  0
   -3.3784   -3.0317   -1.4833 C   0  0  0  0  0  0  0  0  0  0  0  0
   -3.6567   -4.0696   -1.7611 H   0  0  0  0  0  0  0  0  0  0  0  0
   -2.4167   -2.7775   -1.9731 H   0  0  0  0  0  0  0  0  0  0  0  0
   -4.1520   -2.3556   -1.8990 H   0  0  0  0  0  0  0  0  0  0  0  0
   -4.6312   -3.1941    0.7060 C   0  0  0  0  0  0  0  0  0  0  0  0
   -5.4109   -2.4845    0.3629 H   0  0  0  0  0  0  0  0  0  0  0  0
   -4.5685   -3.1176    1.8107 H   0  0  0  0  0  0  0  0  0  0  0  0
   -4.9723   -4.2186    0.4492 H   0  0  0  0  0  0  0  0  0  0  0  0
  2  1  1  0  0  0  0
  3 17  1  0  0  0  0
  3  4  1  0  0  0  0
  4 15  1  0  0  0  0
  4 20  1  0  0  0  0
  5  6  1  0  0  0  0
  6 15  1  0  0  0  0
  6 32  1  0  0  0  0
  7  1  1  0  0  0  0
  7 14  1  0  0  0  0
  8  7  2  0  0  0  0
  9  8  1  0  0  0  0
  9 11  2  0  0  0  0
 10  9  1  0  0  0  0
 11 12  1  0  0  0  0
 12 14  2  0  0  0  0
 12 13  1  0  0  0  0
 14 15  1  0  0  0  0
 15 16  1  1  0  0  0
 17 21  1  6  0  0  0
 17 18  1  0  0  0  0
 18 19  1  0  0  0  0
 18 20  2  0  0  0  0
 20 25  1  0  0  0  0
 21 24  1  0  0  0  0
 22 21  1  0  0  0  0
 23 21  1  0  0  0  0
 25 26  1  0  0  0  0
 25 27  1  0  0  0  0
 25 28  1  0  0  0  0
 29 33  1  1  0  0  0
 29  5  1  0  0  0  0
 29 30  1  0  0  0  0
 30 31  1  0  0  0  0
 30 32  2  0  0  0  0
 32 37  1  0  0  0  0
 34 33  1  0  0  0  0
 35 33  1  0  0  0  0
 36 33  1  0  0  0  0
 37 39  1  0  0  0  0
 37 40  1  0  0  0  0
 37 38  1  0  0  0  0
 41  8  1  0  0  0  0
 41 46  1  0  0  0  0
 42 44  1  0  0  0  0
 42 41  1  0  0  0  0
 43 42  1  0  0  0  0
 45 42  1  0  0  0  0
 46 48  1  0  0  0  0
 46 47  1  0  0  0  0
 49 46  1  0  0  0  0
 50 51  1  0  0  0  0
 50 41  1  0  0  0  0
 52 50  1  0  0  0  0
 53 50  1  0  0  0  0
 54 11  1  0  0  0  0
 54 55  1  0  0  0  0
 54 63  1  0  0  0  0
 55 58  1  0  0  0  0
 56 55  1  0  0  0  0
 57 55  1  0  0  0  0
 59 54  1  0  0  0  0
 60 59  1  0  0  0  0
 61 59  1  0  0  0  0
 62 59  1  0  0  0  0
 63 65  1  0  0  0  0
 64 63  1  0  0  0  0
 66 63  1  0  0  0  0
M  END
