1,2
q = 0.0, confidence = 0.992

 57 60  0  0  0  0  0  0  0  0999 V2000
    1.4332   -0.4953    0.8243 N   0  0  0  0  0  2  0  0  0  0  0  0
   -1.4748   -0.5000    0.9873 N   0  0  0  0  0  2  0  0  0  0  0  0
    1.0321    1.5080   -1.3046 C   0  0  0  0  0  0  0  0  0  0  0  0
    0.0969    1.0608   -0.9411 H   0  0  0  0  0  0  0  0  0  0  0  0
    0.9928    2.6560   -2.1040 C   0  0  0  0  0  0  0  0  0  0  0  0
    0.0182    3.0966   -2.3604 H   0  0  0  0  0  0  0  0  0  0  0  0
    2.1869    3.2346   -2.5663 C   0  0  0  0  0  0  0  0  0  0  0  0
    2.1556    4.1443   -3.1853 H   0  0  0  0  0  0  0  0  0  0  0  0
    3.4210    2.6466   -2.2436 C   0  0  0  0  0  0  0  0  0  0  0  0
    4.3588    3.0969   -2.6020 H   0  0  0  0  0  0  0  0  0  0  0  0
    3.4624    1.4851   -1.4609 C   0  0  0  0  0  0  0  0  0  0  0  0
    4.4295    1.0266   -1.2071 H   0  0  0  0  0  0  0  0  0  0  0  0
    2.2685    0.9120   -0.9662 C   0  0  0  0  0  0  0  0  0  0  0  0
    2.3214   -0.3014   -0.1179 C   0  0  0  0  0  3  0  0  0  0  0  0
    3.4402   -1.2563   -0.3847 C   0  0  0  0  0  0  0  0  0  0  0  0
    4.3916   -1.5454    0.6180 C   0  0  0  0  0  0  0  0  0  0  0  0
    4.2935   -1.0709    1.6065 H   0  0  0  0  0  0  0  0  0  0  0  0
    5.4626   -2.4099    0.3506 C   0  0  0  0  0  0  0  0  0  0  0  0
    6.2038   -2.6198    1.1365 H   0  0  0  0  0  0  0  0  0  0  0  0
    5.5918   -3.0012   -0.9166 C   0  0  0  0  0  0  0  0  0  0  0  0
    6.4310   -3.6821   -1.1242 H   0  0  0  0  0  0  0  0  0  0  0  0
    4.6533   -2.7135   -1.9212 C   0  0  0  0  0  0  0  0  0  0  0  0
    4.7547   -3.1696   -2.9176 H   0  0  0  0  0  0  0  0  0  0  0  0
    3.5907   -1.8369   -1.6618 C   0  0  0  0  0  0  0  0  0  0  0  0
    2.8640   -1.5940   -2.4519 H   0  0  0  0  0  0  0  0  0  0  0  0
    1.3395   -1.7645    1.5534 C   0  0  0  0  0  0  0  0  0  0  0  0
    1.4639   -1.5392    2.6334 H   0  0  0  0  0  0  0  0  0  0  0  0
    2.1496   -2.4614    1.2554 H   0  0  0  0  0  0  0  0  0  0  0  0
   -0.0043   -2.4739    1.3257 C   0  0  0  0  0  0  0  0  0  0  0  0
    0.0332   -3.4282    1.8921 H   0  0  0  0  0  0  0  0  0  0  0  0
   -0.0875   -2.7496    0.2534 H   0  0  0  0  0  0  0  0  0  0  0  0
   -1.2782   -1.7270    1.7547 C   0  0  0  0  0  0  0  0  0  0  0  0
   -2.1435   -2.4176    1.6575 H   0  0  0  0  0  0  0  0  0  0  0  0
   -1.1912   -1.4304    2.8216 H   0  0  0  0  0  0  0  0  0  0  0  0
   -2.6756   -2.7143   -1.0842 C   0  0  0  0  0  0  0  0  0  0  0  0
   -1.6185   -2.6995   -1.3905 H   0  0  0  0  0  0  0  0  0  0  0  0
   -3.4961   -3.7955   -1.4409 C   0  0  0  0  0  0  0  0  0  0  0  0
   -3.0758   -4.6324   -2.0191 H   0  0  0  0  0  0  0  0  0  0  0  0
   -4.8477   -3.8084   -1.0632 C   0  0  0  0  0  0  0  0  0  0  0  0
   -5.4897   -4.6584   -1.3394 H   0  0  0  0  0  0  0  0  0  0  0  0
   -5.3800   -2.7299   -0.3381 C   0  0  0  0  0  0  0  0  0  0  0  0
   -6.4403   -2.7327   -0.0434 H   0  0  0  0  0  0  0  0  0  0  0  0
   -4.5658   -1.6417    0.0071 C   0  0  0  0  0  0  0  0  0  0  0  0
   -4.9824   -0.7888    0.5642 H   0  0  0  0  0  0  0  0  0  0  0  0
   -3.2019   -1.6316   -0.3501 C   0  0  0  0  0  0  0  0  0  0  0  0
   -2.3506   -0.4515    0.0264 C   0  0  0  0  0  3  0  0  0  0  0  0
   -2.5664    0.7805   -0.7763 C   0  0  0  0  0  0  0  0  0  0  0  0
   -2.9201    0.6619   -2.1422 C   0  0  0  0  0  0  0  0  0  0  0  0
   -3.0492   -0.3361   -2.5864 H   0  0  0  0  0  0  0  0  0  0  0  0
   -3.0871    1.8037   -2.9361 C   0  0  0  0  0  0  0  0  0  0  0  0
   -3.3443    1.6959   -4.0006 H   0  0  0  0  0  0  0  0  0  0  0  0
   -2.9350    3.0810   -2.3709 C   0  0  0  0  0  0  0  0  0  0  0  0
   -3.0784    3.9790   -2.9917 H   0  0  0  0  0  0  0  0  0  0  0  0
   -2.6131    3.2062   -1.0092 C   0  0  0  0  0  0  0  0  0  0  0  0
   -2.5085    4.2020   -0.5522 H   0  0  0  0  0  0  0  0  0  0  0  0
   -2.4257    2.0689   -0.2118 C   0  0  0  0  0  0  0  0  0  0  0  0
   -2.1833    2.1778    0.8595 H   0  0  0  0  0  0  0  0  0  0  0  0
  1 26  1  0  0  0  0
  2 32  1  0  0  0  0
  3 13  1  0  0  0  0
  3  4  1  0  0  0  0
  5  3  2  0  0  0  0
  6  5  1  0  0  0  0
  7  9  2  0  0  0  0
  7  5  1  0  0  0  0
  8  7  1  0  0  0  0
  9 11  1  0  0  0  0
 10  9  1  0  0  0  0
 11 12  1  0  0  0  0
 11 13  2  0  0  0  0
 13 14  1  0  0  0  0
 14  1  1  0  0  0  0
 15 14  1  0  0  0  0
 15 16  1  0  0  0  0
 16 17  1  0  0  0  0
 18 16  2  0  0  0  0
 18 19  1  0  0  0  0
 20 18  1  0  0  0  0
 21 20  1  0  0  0  0
 22 24  1  0  0  0  0
 22 20  2  0  0  0  0
 23 22  1  0  0  0  0
 24 15  2  0  0  0  0
 25 24  1  0  0  0  0
 26 27  1  0  0  0  0
 28 26  1  0  0  0  0
 29 26  1  0  0  0  0
 29 32  1  0  0  0  0
 29 30  1  0  0  0  0
 31 29  1  0  0  0  0
 32 34  1  0  0  0  0
 33 32  1  0  0  0  0
 35 45  1  0  0  0  0
 36 35  1  0  0  0  0
 37 35  2  0  0  0  0
 37 39  1  0  0  0  0
 38 37  1  0  0  0  0
 39 41  2  0  0  0  0
 40 39  1  0  0  0  0
 41 42  1  0  0  0  0
 41 43  1  0  0  0  0
 43 44  1  0  0  0  0
 45 43  2  0  0  0  0
 45 46  1  0  0  0  0
 46  2  1  0  0  0  0
 47 56  1  0  0  0  0
 47 46  1  0  0  0  0
 48 47  2  0  0  0  0
 49 48  1  0  0  0  0
 50 52  2  0  0  0  0
 50 48  1  0  0  0  0
 51 50  1  0  0  0  0
 52 54  1  0  0  0  0
 53 52  1  0  0  0  0
 54 55  1  0  0  0  0
 54 56  2  0  0  0  0
 56 57  1  0  0  0  0
M  END
