1,2
q = 0.0, confidence = 0.992

 26 27  0  0  1  0  0  0  0  0999 V2000
   -0.4355    1.2559    0.4402 N   0  0  0  0  0  2  0  0  0  0  0  0
   -0.4358   -1.2556   -0.4410 N   0  0  0  0  0  2  0  0  0  0  0  0
   -1.6510    0.7379    0.0722 C   0  0  1  0  0  3  0  0  0  0  0  0
   -2.7395    1.5912   -0.2536 C   0  0  0  0  0  0  0  0  0  0  0  0
   -2.5939    2.9630    0.0369 C   0  0  0  0  0  0  0  0  0  0  0  0
   -1.4020    3.4520    0.5801 C   0  0  0  0  0  0  0  0  0  0  0  0
   -0.3285    2.5698    0.7255 C   0  0  0  0  0  0  0  0  0  0  0  0
   -3.9690    1.1405   -1.0017 C   0  0  0  0  0  0  0  0  0  0  0  0
   -1.6511   -0.7375   -0.0726 C   0  0  2  0  0  3  0  0  0  0  0  0
   -2.7396   -1.5907    0.2533 C   0  0  0  0  0  0  0  0  0  0  0  0
   -2.5944   -2.9624   -0.0376 C   0  0  0  0  0  0  0  0  0  0  0  0
   -1.4027   -3.4515   -0.5813 C   0  0  0  0  0  0  0  0  0  0  0  0
   -0.3291   -2.5695   -0.7267 C   0  0  0  0  0  0  0  0  0  0  0  0
   -3.9687   -1.1400    1.0021 C   0  0  0  0  0  0  0  0  0  0  0  0
   -3.4208    3.6511   -0.1987 H   0  0  0  0  0  0  0  0  0  0  0  0
   -1.2764    4.5155    0.8275 H   0  0  0  0  0  0  0  0  0  0  0  0
    0.6664    2.9143    1.0428 H   0  0  0  0  0  0  0  0  0  0  0  0
   -4.1772    1.8560   -1.8224 H   0  0  0  0  0  0  0  0  0  0  0  0
   -4.8717    1.1210   -0.3586 H   0  0  0  0  0  0  0  0  0  0  0  0
   -3.8446    0.1387   -1.4501 H   0  0  0  0  0  0  0  0  0  0  0  0
   -3.4213   -3.6505    0.1980 H   0  0  0  0  0  0  0  0  0  0  0  0
   -1.2774   -4.5149   -0.8292 H   0  0  0  0  0  0  0  0  0  0  0  0
    0.6657   -2.9141   -1.0442 H   0  0  0  0  0  0  0  0  0  0  0  0
   -4.1762   -1.8553    1.8231 H   0  0  0  0  0  0  0  0  0  0  0  0
   -3.8442   -0.1381    1.4503 H   0  0  0  0  0  0  0  0  0  0  0  0
   -4.8718   -1.1208    0.3596 H   0  0  0  0  0  0  0  0  0  0  0  0
  1  7  1  0  0  0  0
  3  4  1  6  0  0  0
  3  1  1  0  0  0  0
  4  5  2  0  0  0  0
  5  6  1  0  0  0  0
  6  7  2  0  0  0  0
  6 16  1  0  0  0  0
  7 17  1  0  0  0  0
  8 19  1  0  0  0  0
  8  4  1  0  0  0  0
  9  2  1  1  0  0  0
  9  3  1  0  0  0  0
  9 10  1  0  0  0  0
 10 14  1  0  0  0  0
 11 21  1  0  0  0  0
 11 10  2  0  0  0  0
 12 11  1  0  0  0  0
 13 12  2  0  0  0  0
 13  2  1  0  0  0  0
 14 25  1  0  0  0  0
 14 24  1  0  0  0  0
 15  5  1  0  0  0  0
 18  8  1  0  0  0  0
 20  8  1  0  0  0  0
 22 12  1  0  0  0  0
 23 13  1  0  0  0  0
 26 14  1  0  0  0  0
M  END
