1,2
q = -1.0

 14 13  0  0  0  0  0  0  0  0999 V2000
   -2.2685   -0.7829    0.2049 N   0  0  0  0  0  0  0  0  0  0  0  0
   -0.8251    1.2380   -1.3713 N   0  0  0  0  0  2  0  0  0  0  0  0
   -3.3128    0.2622    0.2734 C   0  0  0  0  0  0  0  0  0  0  0  0
   -3.2654    1.1947   -0.9359 C   0  0  0  0  0  0  0  0  0  0  0  0
   -1.9893    2.0395   -1.0257 C   0  0  0  0  0  0  0  0  0  0  0  0
   -2.2381   -1.3924    1.0438 H   0  0  0  0  0  0  0  0  0  0  0  0
   -2.3848   -1.4029   -0.6189 H   0  0  0  0  0  0  0  0  0  0  0  0
   -4.3020   -0.2390    0.3451 H   0  0  0  0  0  0  0  0  0  0  0  0
   -3.1375    0.8288    1.2096 H   0  0  0  0  0  0  0  0  0  0  0  0
   -3.3774    0.6041   -1.8721 H   0  0  0  0  0  0  0  0  0  0  0  0
   -4.1451    1.8678   -0.8696 H   0  0  0  0  0  0  0  0  0  0  0  0
   -2.1259    2.7745   -1.8538 H   0  0  0  0  0  0  0  0  0  0  0  0
   -1.8904    2.6371   -0.0847 H   0  0  0  0  0  0  0  0  0  0  0  0
   -0.0166    1.8768   -1.4325 H   0  0  0  0  0  0  0  0  0  0  0  0
  1  3  1  0  0  0  0
  1  6  1  0  0  0  0
  2  5  1  0  0  0  0
  3  8  1  0  0  0  0
  3  9  1  0  0  0  0
  4 11  1  0  0  0  0
  4  3  1  0  0  0  0
  5  4  1  0  0  0  0
  5 13  1  0  0  0  0
  7  1  1  0  0  0  0
 10  4  1  0  0  0  0
 12  5  1  0  0  0  0
 14  2  1  0  0  0  0
M  END
