2,4
q = -1.0

 27 28  0  0  0  0  0  0  0  0999 V2000
   -1.2449   -2.8608   -0.0067 O   0  0  0  0  0  1  0  0  0  0  0  0
   -1.6880    0.8843   -0.2210 N   0  0  0  0  0  2  0  0  0  0  0  0
   -2.8116    0.2709   -0.1872 N   0  0  0  0  0  0  0  0  0  0  0  0
   -1.5026   -1.6096   -0.0659 N   0  0  0  0  0  2  0  0  0  0  0  0
   -1.7403    2.2960   -0.3717 C   0  0  0  0  0  0  0  0  0  0  0  0
   -2.6357    3.0598    0.4015 C   0  0  0  0  0  0  0  0  0  0  0  0
   -3.2852    2.5488    1.1256 H   0  0  0  0  0  0  0  0  0  0  0  0
   -2.6508    4.4516    0.2489 C   0  0  0  0  0  0  0  0  0  0  0  0
   -3.3326    5.0586    0.8634 H   0  0  0  0  0  0  0  0  0  0  0  0
   -1.7986    5.0718   -0.6817 C   0  0  0  0  0  0  0  0  0  0  0  0
   -1.8170    6.1659   -0.7979 H   0  0  0  0  0  0  0  0  0  0  0  0
   -0.9233    4.2969   -1.4610 C   0  0  0  0  0  0  0  0  0  0  0  0
   -0.2609    4.7791   -2.1948 H   0  0  0  0  0  0  0  0  0  0  0  0
   -0.8768    2.9075   -1.3022 C   0  0  0  0  0  0  0  0  0  0  0  0
   -0.2135    2.2711   -1.9069 H   0  0  0  0  0  0  0  0  0  0  0  0
   -2.7555   -1.0997   -0.0813 C   0  0  0  0  0  0  0  0  0  0  0  0
   -4.0221   -1.8454   -0.0358 C   0  0  0  0  0  0  0  0  0  0  0  0
   -4.0860   -3.2531    0.1089 C   0  0  0  0  0  0  0  0  0  0  0  0
   -3.1573   -3.8290    0.1842 H   0  0  0  0  0  0  0  0  0  0  0  0
   -5.3277   -3.9005    0.1557 C   0  0  0  0  0  0  0  0  0  0  0  0
   -5.3588   -4.9947    0.2700 H   0  0  0  0  0  0  0  0  0  0  0  0
   -6.5218   -3.1705    0.0578 C   0  0  0  0  0  0  0  0  0  0  0  0
   -7.4929   -3.6872    0.0938 H   0  0  0  0  0  0  0  0  0  0  0  0
   -6.4677   -1.7741   -0.0876 C   0  0  0  0  0  0  0  0  0  0  0  0
   -7.3972   -1.1902   -0.1668 H   0  0  0  0  0  0  0  0  0  0  0  0
   -5.2352   -1.1162   -0.1336 C   0  0  0  0  0  0  0  0  0  0  0  0
   -5.1885   -0.0250   -0.2482 H   0  0  0  0  0  0  0  0  0  0  0  0
  2  3  1  0  0  0  0
  3 16  2  0  0  0  0
  4  1  1  0  0  0  0
  5  2  1  0  0  0  0
  5  6  1  0  0  0  0
  6  7  1  0  0  0  0
  8  6  2  0  0  0  0
  8  9  1  0  0  0  0
 10  8  1  0  0  0  0
 11 10  1  0  0  0  0
 12 14  1  0  0  0  0
 12 10  2  0  0  0  0
 13 12  1  0  0  0  0
 14  5  2  0  0  0  0
 15 14  1  0  0  0  0
 16  4  1  0  0  0  0
 16 17  1  0  0  0  0
 17 18  1  0  0  0  0
 18 20  2  0  0  0  0
 18 19  1  0  0  0  0
 20 21  1  0  0  0  0
 22 23  1  0  0  0  0
 22 20  1  0  0  0  0
 24 22  2  0  0  0  0
 25 24  1  0  0  0  0
 26 24  1  0  0  0  0
 26 17  2  0  0  0  0
 27 26  1  0  0  0  0
M  END
