39,40
q = 0.0, confidence = 1.0

 44 48  0  0  1  0  0  0  0  0999 V2000
   -3.0297   -1.4096    0.2391 C   0  0  0  0  0  0  0  0  0  0  0  0
   -2.8092   -2.7643    0.5348 C   0  0  0  0  0  0  0  0  0  0  0  0
   -1.8007   -3.1159    0.7944 H   0  0  0  0  0  0  0  0  0  0  0  0
   -3.9347   -3.5995    0.5051 C   0  0  0  0  0  0  0  0  0  0  0  0
   -3.8120   -4.6691    0.7311 H   0  0  0  0  0  0  0  0  0  0  0  0
   -5.2265   -3.1102    0.1975 C   0  0  0  0  0  0  0  0  0  0  0  0
   -6.0766   -3.8084    0.1876 H   0  0  0  0  0  0  0  0  0  0  0  0
   -5.4570   -1.7546   -0.0907 C   0  0  0  0  0  0  0  0  0  0  0  0
   -6.4552   -1.3612   -0.3250 H   0  0  0  0  0  0  0  0  0  0  0  0
   -4.3268   -0.9402   -0.0563 C   0  0  0  0  0  0  0  0  0  0  0  0
   -2.9197    0.7121   -0.1297 C   0  0  2  0  0  3  0  0  0  0  0  0
   -2.4806    2.1243   -0.3304 C   0  0  0  0  0  0  0  0  0  0  0  0
   -2.3933    2.3432   -1.4210 H   0  0  0  0  0  0  0  0  0  0  0  0
   -3.2517    2.8006    0.1050 H   0  0  0  0  0  0  0  0  0  0  0  0
   -0.5504    3.4298    0.1690 C   0  0  0  0  0  0  0  0  0  0  0  0
   -1.1435    4.6667   -0.1111 C   0  0  0  0  0  0  0  0  0  0  0  0
   -2.2269    4.7320   -0.2808 H   0  0  0  0  0  0  0  0  0  0  0  0
   -0.3569    5.8330   -0.1612 C   0  0  0  0  0  0  0  0  0  0  0  0
   -0.8351    6.7992   -0.3776 H   0  0  0  0  0  0  0  0  0  0  0  0
    1.0193    5.7601    0.0707 C   0  0  0  0  0  0  0  0  0  0  0  0
    1.6373    6.6693    0.0476 H   0  0  0  0  0  0  0  0  0  0  0  0
    1.6288    4.5179    0.3320 C   0  0  0  0  0  0  0  0  0  0  0  0
    2.7120    4.4731    0.5094 H   0  0  0  0  0  0  0  0  0  0  0  0
    0.8567    3.3490    0.3561 C   0  0  0  0  0  0  0  0  0  0  0  0
    2.7278    1.8849    0.6128 C   0  0  0  0  0  0  0  0  0  0  0  0
    3.1360    2.1294    1.6217 H   0  0  0  0  0  0  0  0  0  0  0  0
    3.2751    2.5143   -0.1289 H   0  0  0  0  0  0  0  0  0  0  0  0
    2.9875    0.4515    0.2823 C   0  0  1  0  0  3  0  0  0  0  0  0
    4.2075   -1.3118   -0.0614 C   0  0  0  0  0  0  0  0  0  0  0  0
    5.2424   -2.2380   -0.1753 C   0  0  0  0  0  0  0  0  0  0  0  0
    6.2817   -1.9900    0.0787 H   0  0  0  0  0  0  0  0  0  0  0  0
    4.8592   -3.5079   -0.6388 C   0  0  0  0  0  0  0  0  0  0  0  0
    5.6277   -4.2869   -0.7518 H   0  0  0  0  0  0  0  0  0  0  0  0
    3.5164   -3.8104   -0.9677 C   0  0  0  0  0  0  0  0  0  0  0  0
    3.2738   -4.8191   -1.3332 H   0  0  0  0  0  0  0  0  0  0  0  0
    2.4891   -2.8651   -0.8444 C   0  0  0  0  0  0  0  0  0  0  0  0
    1.4456   -3.0735   -1.1133 H   0  0  0  0  0  0  0  0  0  0  0  0
    2.8626   -1.5964   -0.3748 C   0  0  0  0  0  0  0  0  0  0  0  0
   -2.1644   -0.3111    0.1713 N   0  0  0  0  0  2  0  0  0  0  0  0
    2.1222   -0.4329   -0.1343 N   0  0  0  0  0  2  0  0  0  0  0  0
   -4.2373    0.4232   -0.2823 O   0  0  0  0  0  0  0  0  0  0  0  0
   -1.2256    2.2491    0.2998 O   0  0  0  0  0  0  0  0  0  0  0  0
    1.3391    2.0849    0.5442 O   0  0  0  0  0  0  0  0  0  0  0  0
    4.2687    0.0082    0.3569 O   0  0  0  0  0  0  0  0  0  0  0  0
  1  2  1  0  0  0  0
  2  3  1  0  0  0  0
  4  2  2  0  0  0  0
  4  5  1  0  0  0  0
  6  4  1  0  0  0  0
  7  6  1  0  0  0  0
  8 10  1  0  0  0  0
  8  6  2  0  0  0  0
  9  8  1  0  0  0  0
 10  1  2  0  0  0  0
 11 12  1  6  0  0  0
 11 39  1  0  0  0  0
 12 14  1  0  0  0  0
 12 42  1  0  0  0  0
 13 12  1  0  0  0  0
 15 42  1  0  0  0  0
 15 24  1  0  0  0  0
 16 15  2  0  0  0  0
 17 16  1  0  0  0  0
 18 16  1  0  0  0  0
 18 20  2  0  0  0  0
 19 18  1  0  0  0  0
 20 22  1  0  0  0  0
 21 20  1  0  0  0  0
 22 24  2  0  0  0  0
 22 23  1  0  0  0  0
 24 43  1  0  0  0  0
 25 26  1  0  0  0  0
 27 25  1  0  0  0  0
 28 44  1  0  0  0  0
 28 25  1  6  0  0  0
 29 44  1  0  0  0  0
 30 29  1  0  0  0  0
 30 31  1  0  0  0  0
 32 30  2  0  0  0  0
 33 32  1  0  0  0  0
 34 36  2  0  0  0  0
 34 32  1  0  0  0  0
 35 34  1  0  0  0  0
 36 38  1  0  0  0  0
 37 36  1  0  0  0  0
 38 40  1  0  0  0  0
 38 29  2  0  0  0  0
 39  1  1  0  0  0  0
 40 28  1  0  0  0  0
 41 11  1  0  0  0  0
 41 10  1  0  0  0  0
 43 25  1  0  0  0  0
M  END
