5,6
q = 0.0, confidence = 0.952

 25 26  0  0  0  0  0  0  0  0999 V2000
   -2.2462    5.1724    0.1147 Cl  0  0  0  0  0  0  0  0  0  0  0  0
   -5.6607   -2.3851   -0.0721 Cl  0  0  0  0  0  0  0  0  0  0  0  0
    3.3522    1.6214    0.1480 O   0  0  0  0  0  0  0  0  0  0  0  0
    3.8720    0.7926    0.0815 H   0  0  0  0  0  0  0  0  0  0  0  0
   -0.3753    0.3484    0.2505 N   0  0  0  0  0  2  0  0  0  0  0  0
    2.0599    1.1874    0.1331 N   0  0  0  0  0  2  0  0  0  0  0  0
   -0.2328    1.6768    0.1598 C   0  0  0  0  0  0  0  0  0  0  0  0
    1.1444    2.1637    0.1203 C   0  0  0  0  0  0  0  0  0  0  0  0
    1.4237    3.5662    0.0791 C   0  0  0  0  0  0  0  0  0  0  0  0
    2.4682    3.9000    0.0471 H   0  0  0  0  0  0  0  0  0  0  0  0
    0.3790    4.4617    0.0641 C   0  0  0  0  0  0  0  0  0  0  0  0
    0.5591    5.5443    0.0190 H   0  0  0  0  0  0  0  0  0  0  0  0
   -0.9779    3.9862    0.1092 C   0  0  0  0  0  0  0  0  0  0  0  0
   -1.2915    2.6417    0.1559 C   0  0  0  0  0  0  0  0  0  0  0  0
   -2.3357    2.3091    0.2035 H   0  0  0  0  0  0  0  0  0  0  0  0
   -1.6541   -0.2597    0.1859 C   0  0  0  0  0  0  0  0  0  0  0  0
   -2.0990   -1.0630    1.2549 C   0  0  0  0  0  0  0  0  0  0  0  0
   -1.4632   -1.1712    2.1458 H   0  0  0  0  0  0  0  0  0  0  0  0
   -3.3362   -1.7108    1.1816 C   0  0  0  0  0  0  0  0  0  0  0  0
   -3.6966   -2.3292    2.0152 H   0  0  0  0  0  0  0  0  0  0  0  0
   -4.1235   -1.5719    0.0245 C   0  0  0  0  0  0  0  0  0  0  0  0
   -3.6784   -0.7945   -1.0579 C   0  0  0  0  0  0  0  0  0  0  0  0
   -4.2943   -0.7182   -1.9647 H   0  0  0  0  0  0  0  0  0  0  0  0
   -2.4450   -0.1378   -0.9760 C   0  0  0  0  0  0  0  0  0  0  0  0
   -2.0576    0.4380   -1.8284 H   0  0  0  0  0  0  0  0  0  0  0  0
  2 21  1  0  0  0  0
  4  3  1  0  0  0  0
  6  3  1  0  0  0  0
  7  5  1  0  0  0  0
  8  6  1  0  0  0  0
  8  7  2  0  0  0  0
  9  8  1  0  0  0  0
 10  9  1  0  0  0  0
 11  9  2  0  0  0  0
 11 13  1  0  0  0  0
 12 11  1  0  0  0  0
 13  1  1  0  0  0  0
 13 14  2  0  0  0  0
 14  7  1  0  0  0  0
 14 15  1  0  0  0  0
 16  5  1  0  0  0  0
 16 17  1  0  0  0  0
 17 18  1  0  0  0  0
 19 17  2  0  0  0  0
 19 20  1  0  0  0  0
 21 19  1  0  0  0  0
 22 24  1  0  0  0  0
 22 21  2  0  0  0  0
 23 22  1  0  0  0  0
 24 16  2  0  0  0  0
 25 24  1  0  0  0  0
M  END
