41,42
q = -1.0, confidence = 0.0

 42 43  0  0  1  0  0  0  0  0999 V2000
    0.2097   -1.2138   -2.5659 C   0  0  0  0  0  0  0  0  0  0  0  0
    0.9331   -2.1859   -3.4781 C   0  0  0  0  0  0  0  0  0  0  0  0
    1.4462   -2.9787   -2.9018 H   0  0  0  0  0  0  0  0  0  0  0  0
    1.6991   -1.6738   -4.0960 H   0  0  0  0  0  0  0  0  0  0  0  0
    0.2117   -2.6527   -4.1759 H   0  0  0  0  0  0  0  0  0  0  0  0
   -0.8959   -0.5236   -3.1307 C   0  0  0  0  0  0  0  0  0  0  0  0
   -1.1580   -0.8315   -4.1527 H   0  0  0  0  0  0  0  0  0  0  0  0
   -2.6007    1.2280   -3.6079 C   0  0  0  0  0  0  0  0  0  0  0  0
   -3.4270    1.7408   -3.0804 H   0  0  0  0  0  0  0  0  0  0  0  0
   -3.0229    0.4547   -4.2780 H   0  0  0  0  0  0  0  0  0  0  0  0
   -2.1029    1.9790   -4.2553 H   0  0  0  0  0  0  0  0  0  0  0  0
   -1.6262    0.5853   -2.6373 C   0  0  1  0  0  3  0  0  0  0  0  0
    1.8414   -1.5152   -0.7986 C   0  0  0  0  0  0  0  0  0  0  0  0
    3.0688   -1.1981   -1.4235 C   0  0  0  0  0  0  0  0  0  0  0  0
    3.0620   -0.6166   -2.3563 H   0  0  0  0  0  0  0  0  0  0  0  0
    4.2837   -1.5568   -0.8314 C   0  0  0  0  0  0  0  0  0  0  0  0
    5.2262   -1.2791   -1.3308 H   0  0  0  0  0  0  0  0  0  0  0  0
    4.3294   -2.2359    0.4037 C   0  0  0  0  0  0  0  0  0  0  0  0
    3.1014   -2.5523    1.0190 C   0  0  0  0  0  0  0  0  0  0  0  0
    3.1033   -3.0867    1.9827 H   0  0  0  0  0  0  0  0  0  0  0  0
    1.8781   -2.1976    0.4378 C   0  0  0  0  0  0  0  0  0  0  0  0
    0.9288   -2.4447    0.9367 H   0  0  0  0  0  0  0  0  0  0  0  0
   -2.0333    2.2735   -0.9373 C   0  0  0  0  0  0  0  0  0  0  0  0
   -2.6551    2.3360    0.3333 C   0  0  0  0  0  0  0  0  0  0  0  0
   -2.7737    1.4069    0.9108 H   0  0  0  0  0  0  0  0  0  0  0  0
   -3.1053    3.5517    0.8531 C   0  0  0  0  0  0  0  0  0  0  0  0
   -3.5846    3.5635    1.8453 H   0  0  0  0  0  0  0  0  0  0  0  0
   -2.9515    4.7616    0.1414 C   0  0  0  0  0  0  0  0  0  0  0  0
   -2.3141    4.6982   -1.1125 C   0  0  0  0  0  0  0  0  0  0  0  0
   -2.1553    5.6275   -1.6833 H   0  0  0  0  0  0  0  0  0  0  0  0
   -1.8572    3.4845   -1.6451 C   0  0  0  0  0  0  0  0  0  0  0  0
   -1.3251    3.4776   -2.6071 H   0  0  0  0  0  0  0  0  0  0  0  0
    5.6472   -2.5603    1.0607 C   0  0  0  0  0  0  0  0  0  0  0  0
    6.0961   -1.6548    1.5250 H   0  0  0  0  0  0  0  0  0  0  0  0
    6.3873   -2.9452    0.3298 H   0  0  0  0  0  0  0  0  0  0  0  0
    5.5309   -3.3170    1.8613 H   0  0  0  0  0  0  0  0  0  0  0  0
   -3.4485    6.0658    0.7122 C   0  0  0  0  0  0  0  0  0  0  0  0
   -4.5577    6.0846    0.7748 H   0  0  0  0  0  0  0  0  0  0  0  0
   -3.1352    6.9285    0.0925 H   0  0  0  0  0  0  0  0  0  0  0  0
   -3.0685    6.2313    1.7418 H   0  0  0  0  0  0  0  0  0  0  0  0
    0.6044   -1.0574   -1.2973 N   0  0  0  0  0  2  0  0  0  0  0  0
   -1.5161    1.0400   -1.3776 N   0  0  0  0  0  2  0  0  0  0  0  0
  1 41  1  0  0  0  0
  2  3  1  0  0  0  0
  2  1  1  0  0  0  0
  4  2  1  0  0  0  0
  5  2  1  0  0  0  0
  6  1  2  0  0  0  0
  7  6  1  0  0  0  0
  8  9  1  0  0  0  0
  8 12  1  0  0  0  0
 10  8  1  0  0  0  0
 11  8  1  0  0  0  0
 12  6  1  1  0  0  0
 12 42  1  0  0  0  0
 13 21  1  0  0  0  0
 14 16  1  0  0  0  0
 14 13  2  0  0  0  0
 15 14  1  0  0  0  0
 16 18  2  0  0  0  0
 17 16  1  0  0  0  0
 18 19  1  0  0  0  0
 18 33  1  0  0  0  0
 19 20  1  0  0  0  0
 21 22  1  0  0  0  0
 21 19  2  0  0  0  0
 23 24  1  0  0  0  0
 24 26  2  0  0  0  0
 24 25  1  0  0  0  0
 26 27  1  0  0  0  0
 28 37  1  0  0  0  0
 28 26  1  0  0  0  0
 29 28  2  0  0  0  0
 30 29  1  0  0  0  0
 31 29  1  0  0  0  0
 31 23  2  0  0  0  0
 32 31  1  0  0  0  0
 33 34  1  0  0  0  0
 33 36  1  0  0  0  0
 35 33  1  0  0  0  0
 37 38  1  0  0  0  0
 37 40  1  0  0  0  0
 39 37  1  0  0  0  0
 41 13  1  0  0  0  0
 42 23  1  0  0  0  0
M  END
