9,16
q = 0.0, confidence = 0.996

 42 44  0  0  0  0  0  0  0  0999 V2000
   -3.5093   -0.8893    1.9316 C   0  0  0  0  0  0  0  0  0  0  0  0
   -2.9133   -0.2500    2.6096 H   0  0  0  0  0  0  0  0  0  0  0  0
   -3.9558   -1.7318    2.5075 H   0  0  0  0  0  0  0  0  0  0  0  0
   -4.2975   -0.2665    1.4684 H   0  0  0  0  0  0  0  0  0  0  0  0
   -3.4393   -2.2372   -0.0758 C   0  0  0  0  0  0  0  0  0  0  0  0
   -2.7945   -2.6372   -0.8800 H   0  0  0  0  0  0  0  0  0  0  0  0
   -4.2081   -1.5897   -0.5374 H   0  0  0  0  0  0  0  0  0  0  0  0
   -3.9154   -3.0816    0.4743 H   0  0  0  0  0  0  0  0  0  0  0  0
   -2.6388   -1.4038    0.8516 N   0  0  0  0  0  0  0  0  0  0  0  0
   -1.4892   -2.1623    1.4155 C   0  0  0  0  0  0  0  0  0  0  0  0
   -1.7925   -3.2052    1.6622 H   0  0  0  0  0  0  0  0  0  0  0  0
   -1.1999   -1.6806    2.3694 H   0  0  0  0  0  0  0  0  0  0  0  0
   -0.3177   -2.1646    0.4509 C   0  0  0  0  0  0  0  0  0  0  0  0
   -0.5948   -2.6777   -0.4911 H   0  0  0  0  0  0  0  0  0  0  0  0
    0.5455   -2.7176    0.8881 H   0  0  0  0  0  0  0  0  0  0  0  0
    0.0786   -0.7744    0.0960 N   0  0  0  0  0  0  0  0  0  0  0  0
    0.6955   -0.0887    1.2870 C   0  0  0  0  0  0  0  0  0  0  0  0
   -0.1175    0.1668    1.9910 H   0  0  0  0  0  0  0  0  0  0  0  0
    1.3684   -0.8243    1.7861 H   0  0  0  0  0  0  0  0  0  0  0  0
    1.4852    1.1498    0.9560 C   0  0  0  0  0  0  0  0  0  0  0  0
    0.9747    2.4232    1.2565 C   0  0  0  0  0  0  0  0  0  0  0  0
   -0.0465    2.5092    1.6575 H   0  0  0  0  0  0  0  0  0  0  0  0
    1.7442    3.5725    1.0357 C   0  0  0  0  0  0  0  0  0  0  0  0
    1.3271    4.5641    1.2647 H   0  0  0  0  0  0  0  0  0  0  0  0
    3.0401    3.4528    0.5095 C   0  0  0  0  0  0  0  0  0  0  0  0
    3.6482    4.3520    0.3285 H   0  0  0  0  0  0  0  0  0  0  0  0
    3.5541    2.1893    0.1907 C   0  0  0  0  0  0  0  0  0  0  0  0
    4.5550    2.0979   -0.2577 H   0  0  0  0  0  0  0  0  0  0  0  0
    2.7846    1.0251    0.3962 C   0  0  0  0  0  0  0  0  0  0  0  0
    3.2950   -0.3108    0.0045 C   0  0  0  0  0  0  0  0  0  0  0  0
    4.6214   -0.7034    0.2813 C   0  0  0  0  0  0  0  0  0  0  0  0
    5.2817   -0.0076    0.8210 H   0  0  0  0  0  0  0  0  0  0  0  0
    5.0949   -1.9664   -0.0992 C   0  0  0  0  0  0  0  0  0  0  0  0
    6.1312   -2.2557    0.1324 H   0  0  0  0  0  0  0  0  0  0  0  0
    4.2459   -2.8607   -0.7698 C   0  0  0  0  0  0  0  0  0  0  0  0
    4.6126   -3.8526   -1.0739 H   0  0  0  0  0  0  0  0  0  0  0  0
    2.9272   -2.4798   -1.0583 C   0  0  0  0  0  0  0  0  0  0  0  0
    2.2649   -3.1690   -1.6066 H   0  0  0  0  0  0  0  0  0  0  0  0
    2.4370   -1.2148   -0.6844 C   0  0  0  0  0  0  0  0  0  0  0  0
    1.0403   -0.7778   -1.0559 C   0  0  0  0  0  0  0  0  0  0  0  0
    0.6054   -1.4347   -1.8326 H   0  0  0  0  0  0  0  0  0  0  0  0
    1.0260    0.2565   -1.4584 H   0  0  0  0  0  0  0  0  0  0  0  0
  1  3  1  0  0  0  0
  1  2  1  0  0  0  0
  4  1  1  0  0  0  0
  5  8  1  0  0  0  0
  5  9  1  0  0  0  0
  6  5  1  0  0  0  0
  7  5  1  0  0  0  0
  9 10  1  0  0  0  0
  9  1  1  0  0  0  0
 10 11  1  0  0  0  0
 10 12  1  0  0  0  0
 13 15  1  0  0  0  0
 13 10  1  0  0  0  0
 14 13  1  0  0  0  0
 16 13  1  0  0  0  0
 16 17  1  0  0  0  0
 17 19  1  0  0  0  0
 17 18  1  0  0  0  0
 20 21  1  0  0  0  0
 20 17  1  0  0  0  0
 21 22  1  0  0  0  0
 23 21  2  0  0  0  0
 23 24  1  0  0  0  0
 25 23  1  0  0  0  0
 26 25  1  0  0  0  0
 27 29  1  0  0  0  0
 27 25  2  0  0  0  0
 28 27  1  0  0  0  0
 29 20  2  0  0  0  0
 30 31  1  0  0  0  0
 30 29  1  0  0  0  0
 31 32  1  0  0  0  0
 33 34  1  0  0  0  0
 33 31  2  0  0  0  0
 35 33  1  0  0  0  0
 36 35  1  0  0  0  0
 37 35  2  0  0  0  0
 37 39  1  0  0  0  0
 38 37  1  0  0  0  0
 39 30  2  0  0  0  0
 40 39  1  0  0  0  0
 40 16  1  0  0  0  0
 41 40  1  0  0  0  0
 42 40  1  0  0  0  0
M  END
