1,2
q = 0.0, confidence = 0.996

 30 31  0  0  1  0  0  0  0  0999 V2000
   -0.7191    1.6057    0.0750 N   0  0  0  0  0  2  0  0  0  0  0  0
    0.3119   -0.8434   -0.0525 N   0  0  0  0  0  2  0  0  0  0  0  0
    0.7651    3.9577   -0.2486 C   0  0  0  0  0  0  0  0  0  0  0  0
    1.3508    4.8795   -0.3779 H   0  0  0  0  0  0  0  0  0  0  0  0
    0.7712   -2.1110   -0.0850 C   0  0  0  0  0  3  0  0  0  0  0  0
    0.0258   -2.8988    0.0940 H   0  0  0  0  0  0  0  0  0  0  0  0
    1.1848    0.1819   -0.2834 C   0  0  0  0  0  0  0  0  0  0  0  0
    0.6154    1.5396   -0.2022 C   0  0  2  0  0  3  0  0  0  0  0  0
    2.5391   -0.0640   -0.5533 C   0  0  0  0  0  0  0  0  0  0  0  0
    3.2437    0.7570   -0.7444 H   0  0  0  0  0  0  0  0  0  0  0  0
    3.0253   -1.3813   -0.5834 C   0  0  0  0  0  0  0  0  0  0  0  0
   -1.3110    2.8138    0.1887 C   0  0  0  0  0  0  0  0  0  0  0  0
   -2.3889    2.8034    0.4038 H   0  0  0  0  0  0  0  0  0  0  0  0
    1.3824    2.7092   -0.3624 C   0  0  0  0  0  0  0  0  0  0  0  0
    2.4577    2.6384   -0.5734 H   0  0  0  0  0  0  0  0  0  0  0  0
   -0.6089    4.0113    0.0329 C   0  0  0  0  0  0  0  0  0  0  0  0
   -1.1399    4.9684    0.1294 H   0  0  0  0  0  0  0  0  0  0  0  0
    2.1096   -2.4207   -0.3413 C   0  0  0  0  0  0  0  0  0  0  0  0
    2.4252   -3.4745   -0.3604 H   0  0  0  0  0  0  0  0  0  0  0  0
    5.3609   -1.2043    0.2437 N   0  0  0  0  0  0  0  0  0  0  0  0
    5.5299   -1.8474    1.0174 H   0  0  0  0  0  0  0  0  0  0  0  0
    5.8162    0.0893    0.3318 C   0  0  0  0  0  0  0  0  0  0  0  0
    4.4974   -1.6339   -0.8477 C   0  0  0  0  0  0  0  0  0  0  0  0
    4.6751   -2.7093   -1.0450 H   0  0  0  0  0  0  0  0  0  0  0  0
    4.8079   -1.0589   -1.7439 H   0  0  0  0  0  0  0  0  0  0  0  0
    5.5306    0.9428   -0.5105 O   0  0  0  0  0  0  0  0  0  0  0  0
    6.6957    0.3943    1.5318 C   0  0  0  0  0  0  0  0  0  0  0  0
    6.1874    1.1502    2.1628 H   0  0  0  0  0  0  0  0  0  0  0  0
    7.6343    0.8568    1.1701 H   0  0  0  0  0  0  0  0  0  0  0  0
    6.9406   -0.4890    2.1522 H   0  0  0  0  0  0  0  0  0  0  0  0
  1 12  1  0  0  0  0
  3 16  1  0  0  0  0
  4  3  1  0  0  0  0
  5  2  1  0  0  0  0
  5  6  1  0  0  0  0
  7  2  1  0  0  0  0
  8  7  1  1  0  0  0
  8  1  1  0  0  0  0
  9  7  2  0  0  0  0
 10  9  1  0  0  0  0
 11  9  1  0  0  0  0
 11 18  2  0  0  0  0
 12 13  1  0  0  0  0
 14  3  2  0  0  0  0
 14  8  1  0  0  0  0
 15 14  1  0  0  0  0
 16 17  1  0  0  0  0
 16 12  2  0  0  0  0
 18  5  1  0  0  0  0
 19 18  1  0  0  0  0
 20 22  1  0  0  0  0
 20 21  1  0  0  0  0
 22 27  1  0  0  0  0
 23 11  1  0  0  0  0
 23 20  1  0  0  0  0
 24 23  1  0  0  0  0
 25 23  1  0  0  0  0
 26 22  2  0  0  0  0
 27 30  1  0  0  0  0
 27 28  1  0  0  0  0
 29 27  1  0  0  0  0
M  END
