1,3
q = 0.0, confidence = 1.0

 42 44  0  0  1  0  0  0  0  0999 V2000
   -0.1480   -0.5900    1.1627 N   0  0  0  0  0  2  0  0  0  0  0  0
    1.8921   -0.7201    2.0126 N   0  0  0  0  0  0  0  0  0  0  0  0
   -0.7756    1.5119   -0.6439 N   0  0  0  0  0  2  0  0  0  0  0  0
    0.5549    3.2766   -0.7955 N   0  0  0  0  0  0  0  0  0  0  0  0
    2.6788    1.5518    0.2822 O   0  0  0  0  0  0  0  0  0  0  0  0
   -0.0305   -1.8009    1.8022 C   0  0  0  0  0  0  0  0  0  0  0  0
    1.2384   -1.8983    2.3315 C   0  0  0  0  0  0  0  0  0  0  0  0
    1.0147    0.0506    1.2796 C   0  0  2  0  0  3  0  0  0  0  0  0
    3.2530   -0.4276    2.4420 C   0  0  0  0  0  0  0  0  0  0  0  0
   -1.3291    2.3857   -1.5488 C   0  0  0  0  0  0  0  0  0  0  0  0
   -0.5100    3.4898   -1.6558 C   0  0  0  0  0  0  0  0  0  0  0  0
    0.3562    2.0502   -0.1898 C   0  0  2  0  0  3  0  0  0  0  0  0
    1.6443    4.2302   -0.6213 C   0  0  0  0  0  0  0  0  0  0  0  0
    1.3391    1.4750    0.8275 C   0  0  2  0  0  0  0  0  0  0  0  0
    1.3377    2.3638    2.0920 C   0  0  0  0  0  0  0  0  0  0  0  0
    2.8979    0.9658   -1.0263 C   0  0  0  0  0  0  0  0  0  0  0  0
    2.8932   -0.5431   -1.0618 C   0  0  0  0  0  0  0  0  0  0  0  0
    1.7146   -1.2423   -1.3856 C   0  0  0  0  0  0  0  0  0  0  0  0
    1.6783   -2.6431   -1.3440 C   0  0  0  0  0  0  0  0  0  0  0  0
    2.8352   -3.3628   -1.0055 C   0  0  0  0  0  0  0  0  0  0  0  0
    4.0258   -2.6770   -0.7080 C   0  0  0  0  0  0  0  0  0  0  0  0
    4.0531   -1.2742   -0.7330 C   0  0  0  0  0  0  0  0  0  0  0  0
   -0.8807   -2.4916    1.8294 H   0  0  0  0  0  0  0  0  0  0  0  0
    1.7434   -2.6911    2.8917 H   0  0  0  0  0  0  0  0  0  0  0  0
    3.6384    0.4298    1.8683 H   0  0  0  0  0  0  0  0  0  0  0  0
    3.8940   -1.3058    2.2367 H   0  0  0  0  0  0  0  0  0  0  0  0
    3.2778   -0.2028    3.5281 H   0  0  0  0  0  0  0  0  0  0  0  0
   -2.2662    2.1277   -2.0556 H   0  0  0  0  0  0  0  0  0  0  0  0
   -0.5762    4.3988   -2.2620 H   0  0  0  0  0  0  0  0  0  0  0  0
    2.5268    3.7070   -0.2161 H   0  0  0  0  0  0  0  0  0  0  0  0
    1.3464    5.0490    0.0650 H   0  0  0  0  0  0  0  0  0  0  0  0
    1.9025    4.6690   -1.6038 H   0  0  0  0  0  0  0  0  0  0  0  0
    0.3326    2.3199    2.5531 H   0  0  0  0  0  0  0  0  0  0  0  0
    1.5769    3.4159    1.8534 H   0  0  0  0  0  0  0  0  0  0  0  0
    2.0815    1.9990    2.8247 H   0  0  0  0  0  0  0  0  0  0  0  0
    2.1448    1.3623   -1.7419 H   0  0  0  0  0  0  0  0  0  0  0  0
    3.8917    1.3601   -1.3175 H   0  0  0  0  0  0  0  0  0  0  0  0
    0.7877   -0.7090   -1.6442 H   0  0  0  0  0  0  0  0  0  0  0  0
    0.7237   -3.1397   -1.5729 H   0  0  0  0  0  0  0  0  0  0  0  0
    2.8133   -4.4631   -0.9764 H   0  0  0  0  0  0  0  0  0  0  0  0
    4.9393   -3.2394   -0.4595 H   0  0  0  0  0  0  0  0  0  0  0  0
    4.9863   -0.7369   -0.4972 H   0  0  0  0  0  0  0  0  0  0  0  0
  1  8  1  0  0  0  0
  1  6  1  0  0  0  0
  2  7  1  0  0  0  0
  2  9  1  0  0  0  0
  3 12  1  0  0  0  0
  4 13  1  0  0  0  0
  4 12  1  0  0  0  0
  6 23  1  0  0  0  0
  6  7  2  0  0  0  0
  7 24  1  0  0  0  0
  8 14  1  1  0  0  0
  8  2  1  0  0  0  0
  9 27  1  0  0  0  0
 10  3  1  0  0  0  0
 11 10  2  0  0  0  0
 11  4  1  0  0  0  0
 12 14  1  6  0  0  0
 13 30  1  0  0  0  0
 13 31  1  0  0  0  0
 14  5  1  6  0  0  0
 14 15  1  0  0  0  0
 15 33  1  0  0  0  0
 15 35  1  0  0  0  0
 16  5  1  0  0  0  0
 17 16  1  0  0  0  0
 17 22  1  0  0  0  0
 18 19  1  0  0  0  0
 18 17  2  0  0  0  0
 19 20  2  0  0  0  0
 20 40  1  0  0  0  0
 20 21  1  0  0  0  0
 21 41  1  0  0  0  0
 22 21  2  0  0  0  0
 22 42  1  0  0  0  0
 25  9  1  0  0  0  0
 26  9  1  0  0  0  0
 28 10  1  0  0  0  0
 29 11  1  0  0  0  0
 32 13  1  0  0  0  0
 34 15  1  0  0  0  0
 36 16  1  0  0  0  0
 37 16  1  0  0  0  0
 38 18  1  0  0  0  0
 39 19  1  0  0  0  0
M  END
