1,2
q = 0.0, confidence = 0.984

 77 79  0  0  0  0  0  0  0  0999 V2000
    1.4696    0.2720    0.4484 N   0  0  0  0  0  2  0  0  0  0  0  0
   -1.4368    0.1176    0.3635 N   0  0  0  0  0  2  0  0  0  0  0  0
    1.1983    1.0582    1.4372 C   0  0  0  0  0  3  0  0  0  0  0  0
    2.0061    1.2880    2.1608 H   0  0  0  0  0  0  0  0  0  0  0  0
   -0.1004    1.7897    1.6303 C   0  0  0  0  0  0  0  0  0  0  0  0
   -1.3159    0.9432    1.3501 C   0  0  0  0  0  3  0  0  0  0  0  0
   -2.1835    1.0698    2.0279 H   0  0  0  0  0  0  0  0  0  0  0  0
   -0.2227    2.4276    3.0358 C   0  0  0  0  0  0  0  0  0  0  0  0
    0.7702    2.8371    3.3159 H   0  0  0  0  0  0  0  0  0  0  0  0
   -0.5037    1.6907    3.8158 H   0  0  0  0  0  0  0  0  0  0  0  0
   -1.2450    3.5676    2.8647 C   0  0  0  0  0  0  0  0  0  0  0  0
   -2.2739    3.1972    3.0541 H   0  0  0  0  0  0  0  0  0  0  0  0
   -1.0734    4.3798    3.5975 H   0  0  0  0  0  0  0  0  0  0  0  0
   -1.1080    4.0403    1.3899 C   0  0  0  0  0  0  0  0  0  0  0  0
   -0.7453    5.0840    1.3176 H   0  0  0  0  0  0  0  0  0  0  0  0
   -2.0898    4.0114    0.8796 H   0  0  0  0  0  0  0  0  0  0  0  0
   -0.1129    3.0727    0.7163 C   0  0  0  0  0  0  0  0  0  0  0  0
    0.9133    3.4934    0.7252 H   0  0  0  0  0  0  0  0  0  0  0  0
   -0.3475    2.8103   -0.3345 H   0  0  0  0  0  0  0  0  0  0  0  0
    2.8465   -0.1584    0.3325 C   0  0  0  0  0  0  0  0  0  0  0  0
    3.8032    0.7775   -0.1364 C   0  0  0  0  0  0  0  0  0  0  0  0
    5.1485    0.3683   -0.1711 C   0  0  0  0  0  0  0  0  0  0  0  0
    5.9133    1.0744   -0.5281 H   0  0  0  0  0  0  0  0  0  0  0  0
    5.5260   -0.9221    0.2174 C   0  0  0  0  0  0  0  0  0  0  0  0
    6.5846   -1.2207    0.1833 H   0  0  0  0  0  0  0  0  0  0  0  0
    4.5513   -1.8400    0.6253 C   0  0  0  0  0  0  0  0  0  0  0  0
    4.8481   -2.8633    0.9005 H   0  0  0  0  0  0  0  0  0  0  0  0
    3.1917   -1.4835    0.6826 C   0  0  0  0  0  0  0  0  0  0  0  0
    3.4119    2.1641   -0.6375 C   0  0  0  0  0  0  0  0  0  0  0  0
    2.3081    2.1836   -0.7304 H   0  0  0  0  0  0  0  0  0  0  0  0
    3.8345    3.2646    0.3513 C   0  0  0  0  0  0  0  0  0  0  0  0
    3.4017    3.1079    1.3613 H   0  0  0  0  0  0  0  0  0  0  0  0
    3.5139    4.2641   -0.0090 H   0  0  0  0  0  0  0  0  0  0  0  0
    4.9373    3.2899    0.4726 H   0  0  0  0  0  0  0  0  0  0  0  0
    3.9593    2.4346   -2.0482 C   0  0  0  0  0  0  0  0  0  0  0  0
    3.6150    1.6453   -2.7438 H   0  0  0  0  0  0  0  0  0  0  0  0
    5.0680    2.4696   -2.0650 H   0  0  0  0  0  0  0  0  0  0  0  0
    3.5911    3.4128   -2.4198 H   0  0  0  0  0  0  0  0  0  0  0  0
    2.1388   -2.5219    1.0380 C   0  0  0  0  0  0  0  0  0  0  0  0
    1.1757   -1.9869    1.1623 H   0  0  0  0  0  0  0  0  0  0  0  0
    2.4358   -3.2453    2.3596 C   0  0  0  0  0  0  0  0  0  0  0  0
    1.6259   -3.9651    2.5978 H   0  0  0  0  0  0  0  0  0  0  0  0
    2.5239   -2.5335    3.2054 H   0  0  0  0  0  0  0  0  0  0  0  0
    3.3799   -3.8255    2.3084 H   0  0  0  0  0  0  0  0  0  0  0  0
    1.9711   -3.5057   -0.1349 C   0  0  0  0  0  0  0  0  0  0  0  0
    1.1597   -4.2320    0.0720 H   0  0  0  0  0  0  0  0  0  0  0  0
    2.9061   -4.0790   -0.3035 H   0  0  0  0  0  0  0  0  0  0  0  0
    1.7297   -2.9639   -1.0711 H   0  0  0  0  0  0  0  0  0  0  0  0
   -2.7273   -0.5113    0.2013 C   0  0  0  0  0  0  0  0  0  0  0  0
   -3.8111    0.2619   -0.2826 C   0  0  0  0  0  0  0  0  0  0  0  0
   -5.0638   -0.3725   -0.3870 C   0  0  0  0  0  0  0  0  0  0  0  0
   -5.9229    0.2016   -0.7659 H   0  0  0  0  0  0  0  0  0  0  0  0
   -5.2300   -1.7161   -0.0402 C   0  0  0  0  0  0  0  0  0  0  0  0
   -6.2184   -2.1911   -0.1318 H   0  0  0  0  0  0  0  0  0  0  0  0
   -4.1326   -2.4638    0.4067 C   0  0  0  0  0  0  0  0  0  0  0  0
   -4.2676   -3.5244    0.6608 H   0  0  0  0  0  0  0  0  0  0  0  0
   -2.8594   -1.8834    0.5297 C   0  0  0  0  0  0  0  0  0  0  0  0
   -3.6656    1.7118   -0.7316 C   0  0  0  0  0  0  0  0  0  0  0  0
   -2.5945    1.9854   -0.6609 H   0  0  0  0  0  0  0  0  0  0  0  0
   -4.4610    2.6622    0.1803 C   0  0  0  0  0  0  0  0  0  0  0  0
   -4.1465    2.5792    1.2416 H   0  0  0  0  0  0  0  0  0  0  0  0
   -5.5470    2.4380    0.1443 H   0  0  0  0  0  0  0  0  0  0  0  0
   -4.3299    3.7169   -0.1385 H   0  0  0  0  0  0  0  0  0  0  0  0
   -4.0576    1.8836   -2.2090 C   0  0  0  0  0  0  0  0  0  0  0  0
   -3.4496    1.2087   -2.8419 H   0  0  0  0  0  0  0  0  0  0  0  0
   -3.8811    2.9294   -2.5347 H   0  0  0  0  0  0  0  0  0  0  0  0
   -5.1309    1.6579   -2.3767 H   0  0  0  0  0  0  0  0  0  0  0  0
   -1.6622   -2.6773    1.0303 C   0  0  0  0  0  0  0  0  0  0  0  0
   -0.7773   -2.2748    0.4871 H   0  0  0  0  0  0  0  0  0  0  0  0
   -1.4391   -2.4502    2.5375 C   0  0  0  0  0  0  0  0  0  0  0  0
   -1.2931   -1.3783    2.7800 H   0  0  0  0  0  0  0  0  0  0  0  0
   -0.5429   -2.9987    2.8917 H   0  0  0  0  0  0  0  0  0  0  0  0
   -2.3130   -2.8081    3.1202 H   0  0  0  0  0  0  0  0  0  0  0  0
   -1.7447   -4.1735    0.7106 C   0  0  0  0  0  0  0  0  0  0  0  0
   -0.8020   -4.6775    1.0028 H   0  0  0  0  0  0  0  0  0  0  0  0
   -1.9039   -4.3445   -0.3721 H   0  0  0  0  0  0  0  0  0  0  0  0
   -2.5626   -4.6752    1.2680 H   0  0  0  0  0  0  0  0  0  0  0  0
  1  3  1  0  0  0  0
  2  6  1  0  0  0  0
  3  5  1  0  0  0  0
  3  4  1  0  0  0  0
  5  8  1  0  0  0  0
  6  5  1  0  0  0  0
  6  7  1  0  0  0  0
  8  9  1  0  0  0  0
  8 10  1  0  0  0  0
 11  8  1  0  0  0  0
 11 12  1  0  0  0  0
 11 13  1  0  0  0  0
 14 11  1  0  0  0  0
 15 14  1  0  0  0  0
 16 14  1  0  0  0  0
 17 18  1  0  0  0  0
 17 14  1  0  0  0  0
 17  5  1  0  0  0  0
 19 17  1  0  0  0  0
 20  1  1  0  0  0  0
 20 28  1  0  0  0  0
 21 20  2  0  0  0  0
 22 21  1  0  0  0  0
 22 24  2  0  0  0  0
 23 22  1  0  0  0  0
 24 26  1  0  0  0  0
 25 24  1  0  0  0  0
 26 28  2  0  0  0  0
 26 27  1  0  0  0  0
 28 39  1  0  0  0  0
 29 21  1  0  0  0  0
 29 31  1  0  0  0  0
 30 29  1  0  0  0  0
 31 34  1  0  0  0  0
 31 32  1  0  0  0  0
 33 31  1  0  0  0  0
 35 29  1  0  0  0  0
 36 35  1  0  0  0  0
 37 35  1  0  0  0  0
 38 35  1  0  0  0  0
 39 40  1  0  0  0  0
 39 41  1  0  0  0  0
 41 42  1  0  0  0  0
 41 43  1  0  0  0  0
 44 41  1  0  0  0  0
 45 46  1  0  0  0  0
 45 39  1  0  0  0  0
 47 45  1  0  0  0  0
 48 45  1  0  0  0  0
 49  2  1  0  0  0  0
 49 57  1  0  0  0  0
 50 49  2  0  0  0  0
 51 50  1  0  0  0  0
 51 53  2  0  0  0  0
 52 51  1  0  0  0  0
 53 55  1  0  0  0  0
 54 53  1  0  0  0  0
 55 57  2  0  0  0  0
 55 56  1  0  0  0  0
 57 68  1  0  0  0  0
 58 59  1  0  0  0  0
 58 50  1  0  0  0  0
 58 60  1  0  0  0  0
 60 61  1  0  0  0  0
 62 60  1  0  0  0  0
 63 60  1  0  0  0  0
 64 58  1  0  0  0  0
 65 64  1  0  0  0  0
 66 64  1  0  0  0  0
 67 64  1  0  0  0  0
 68 70  1  0  0  0  0
 69 68  1  0  0  0  0
 70 71  1  0  0  0  0
 70 72  1  0  0  0  0
 70 73  1  0  0  0  0
 74 75  1  0  0  0  0
 74 68  1  0  0  0  0
 74 77  1  0  0  0  0
 76 74  1  0  0  0  0
M  END
