14,17
q = 0.0, confidence = 0.996

 37 38  0  0  1  0  0  0  0  0999 V2000
   -0.6636    2.6140   -0.6896 C   0  0  2  0  0  3  0  0  0  0  0  0
   -2.0046    3.0838   -0.5675 C   0  0  0  0  0  0  0  0  0  0  0  0
   -2.6590    2.1479    0.2406 C   0  0  0  0  0  0  0  0  0  0  0  0
   -1.8703    0.0003    1.3576 C   0  0  0  0  0  0  0  0  0  0  0  0
   -0.6645   -2.6137   -0.6899 C   0  0  1  0  0  3  0  0  0  0  0  0
   -2.0056   -3.0832   -0.5676 C   0  0  0  0  0  0  0  0  0  0  0  0
   -2.6597   -2.1470    0.2404 C   0  0  0  0  0  0  0  0  0  0  0  0
    0.4510    3.2332   -1.4641 C   0  0  0  0  0  0  0  0  0  0  0  0
   -2.5727    4.3254   -1.1820 C   0  0  0  0  0  0  0  0  0  0  0  0
   -4.0682    2.0916    0.7280 C   0  0  0  0  0  0  0  0  0  0  0  0
    0.4498   -3.2331   -1.4647 C   0  0  0  0  0  0  0  0  0  0  0  0
   -2.5741   -4.3246   -1.1822 C   0  0  0  0  0  0  0  0  0  0  0  0
   -4.0688   -2.0905    0.7282 C   0  0  0  0  0  0  0  0  0  0  0  0
   -0.5076    1.4669    0.0053 N   0  0  0  0  0  2  0  0  0  0  0  0
   -1.7195    1.2001    0.5677 N   0  0  0  0  0  0  0  0  0  0  0  0
   -1.7200   -1.1994    0.5673 N   0  0  0  0  0  0  0  0  0  0  0  0
   -0.5082   -1.4666    0.0048 N   0  0  0  0  0  2  0  0  0  0  0  0
   -1.0898   -0.0000    2.1468 H   0  0  0  0  0  0  0  0  0  0  0  0
   -2.8715    0.0004    1.8195 H   0  0  0  0  0  0  0  0  0  0  0  0
    1.3419    3.3990   -0.8280 H   0  0  0  0  0  0  0  0  0  0  0  0
    0.1352    4.2027   -1.8920 H   0  0  0  0  0  0  0  0  0  0  0  0
    0.7737    2.5741   -2.2957 H   0  0  0  0  0  0  0  0  0  0  0  0
   -2.4946    4.3076   -2.2888 H   0  0  0  0  0  0  0  0  0  0  0  0
   -2.0405    5.2350   -0.8338 H   0  0  0  0  0  0  0  0  0  0  0  0
   -3.6430    4.4539   -0.9295 H   0  0  0  0  0  0  0  0  0  0  0  0
   -4.6323    2.9606    0.3426 H   0  0  0  0  0  0  0  0  0  0  0  0
   -4.1355    2.1222    1.8362 H   0  0  0  0  0  0  0  0  0  0  0  0
   -4.5981    1.1780    0.3832 H   0  0  0  0  0  0  0  0  0  0  0  0
    1.3408   -3.3992   -0.8288 H   0  0  0  0  0  0  0  0  0  0  0  0
    0.7726   -2.5739   -2.2961 H   0  0  0  0  0  0  0  0  0  0  0  0
    0.1338   -4.2024   -1.8927 H   0  0  0  0  0  0  0  0  0  0  0  0
   -3.6435   -4.4545   -0.9269 H   0  0  0  0  0  0  0  0  0  0  0  0
   -2.0400   -5.2340   -0.8367 H   0  0  0  0  0  0  0  0  0  0  0  0
   -2.4991   -4.3052   -2.2892 H   0  0  0  0  0  0  0  0  0  0  0  0
   -4.1359   -2.1226    1.8363 H   0  0  0  0  0  0  0  0  0  0  0  0
   -4.6336   -2.9585    0.3416 H   0  0  0  0  0  0  0  0  0  0  0  0
   -4.5981   -1.1760    0.3847 H   0  0  0  0  0  0  0  0  0  0  0  0
  1  8  1  6  0  0  0
  1  2  1  0  0  0  0
  1 14  1  0  0  0  0
  2  3  2  0  0  0  0
  3 15  1  0  0  0  0
  3 10  1  0  0  0  0
  4 19  1  0  0  0  0
  4 18  1  0  0  0  0
  5 11  1  6  0  0  0
  5  6  1  0  0  0  0
  5 17  1  0  0  0  0
  6  7  2  0  0  0  0
  7 16  1  0  0  0  0
  7 13  1  0  0  0  0
  8 20  1  0  0  0  0
  9 25  1  0  0  0  0
  9 24  1  0  0  0  0
  9  2  1  0  0  0  0
 10 27  1  0  0  0  0
 11 29  1  0  0  0  0
 12 32  1  0  0  0  0
 12 33  1  0  0  0  0
 12  6  1  0  0  0  0
 13 35  1  0  0  0  0
 14 15  1  0  0  0  0
 15  4  1  0  0  0  0
 16  4  1  0  0  0  0
 17 16  1  0  0  0  0
 21  8  1  0  0  0  0
 22  8  1  0  0  0  0
 23  9  1  0  0  0  0
 26 10  1  0  0  0  0
 28 10  1  0  0  0  0
 30 11  1  0  0  0  0
 31 11  1  0  0  0  0
 34 12  1  0  0  0  0
 36 13  1  0  0  0  0
 37 13  1  0  0  0  0
M  END
