3,4
q = 0.0, confidence = 1.0

 40 42  0  0  0  0  0  0  0  0999 V2000
   -1.6753    1.5358    0.2550 O   0  0  0  0  0  0  0  0  0  0  0  0
    1.8570   -1.9371   -0.3675 O   0  0  0  0  0  0  0  0  0  0  0  0
    0.8364    0.8236   -1.0147 N   0  0  0  0  0  2  0  0  0  0  0  0
   -0.9830   -1.2194   -0.8060 N   0  0  0  0  0  2  0  0  0  0  0  0
   -0.8873    2.4975   -0.4531 C   0  0  0  0  0  0  0  0  0  0  0  0
   -0.0913    1.8098   -1.5629 C   0  0  0  0  0  0  0  0  0  0  0  0
   -0.3098   -2.4585   -1.1999 C   0  0  0  0  0  0  0  0  0  0  0  0
    1.1495   -2.2405   -1.5684 C   0  0  0  0  0  0  0  0  0  0  0  0
    2.0939    0.9146   -1.3396 C   0  0  0  0  0  3  0  0  0  0  0  0
    3.1856    0.0530   -0.9111 C   0  0  0  0  0  0  0  0  0  0  0  0
    3.0582   -1.2844   -0.4337 C   0  0  0  0  0  0  0  0  0  0  0  0
    4.1818   -1.9668    0.0555 C   0  0  0  0  0  0  0  0  0  0  0  0
    5.4424   -1.3553    0.0591 C   0  0  0  0  0  0  0  0  0  0  0  0
    5.5958   -0.0520   -0.4435 C   0  0  0  0  0  0  0  0  0  0  0  0
    4.4798    0.6337   -0.9256 C   0  0  0  0  0  0  0  0  0  0  0  0
   -2.2370   -1.0877   -1.1247 C   0  0  0  0  0  3  0  0  0  0  0  0
   -3.1895   -0.0219   -0.8318 C   0  0  0  0  0  0  0  0  0  0  0  0
   -2.9213    1.2346   -0.2134 C   0  0  0  0  0  0  0  0  0  0  0  0
   -3.9593    2.1637   -0.0221 C   0  0  0  0  0  0  0  0  0  0  0  0
   -5.2664    1.8754   -0.4308 C   0  0  0  0  0  0  0  0  0  0  0  0
   -5.5549    0.6394   -1.0350 C   0  0  0  0  0  0  0  0  0  0  0  0
   -4.5288   -0.2850   -1.2268 C   0  0  0  0  0  0  0  0  0  0  0  0
   -0.2003    2.9529    0.2870 H   0  0  0  0  0  0  0  0  0  0  0  0
   -1.5325    3.2907   -0.8894 H   0  0  0  0  0  0  0  0  0  0  0  0
    0.4562    2.5763   -2.1547 H   0  0  0  0  0  0  0  0  0  0  0  0
   -0.7971    1.2926   -2.2500 H   0  0  0  0  0  0  0  0  0  0  0  0
   -0.3509   -3.1515   -0.3308 H   0  0  0  0  0  0  0  0  0  0  0  0
   -0.8406   -2.9403   -2.0503 H   0  0  0  0  0  0  0  0  0  0  0  0
    1.2520   -1.4277   -2.3194 H   0  0  0  0  0  0  0  0  0  0  0  0
    1.5596   -3.1751   -2.0136 H   0  0  0  0  0  0  0  0  0  0  0  0
    2.3944    1.7677   -1.9825 H   0  0  0  0  0  0  0  0  0  0  0  0
    4.0352   -2.9878    0.4352 H   0  0  0  0  0  0  0  0  0  0  0  0
    6.3120   -1.9043    0.4503 H   0  0  0  0  0  0  0  0  0  0  0  0
    6.5824    0.4330   -0.4439 H   0  0  0  0  0  0  0  0  0  0  0  0
    4.5818    1.6705   -1.2804 H   0  0  0  0  0  0  0  0  0  0  0  0
   -2.6817   -1.9159   -1.7145 H   0  0  0  0  0  0  0  0  0  0  0  0
   -3.7197    3.1118    0.4813 H   0  0  0  0  0  0  0  0  0  0  0  0
   -6.0660    2.6124   -0.2629 H   0  0  0  0  0  0  0  0  0  0  0  0
   -6.5808    0.3971   -1.3472 H   0  0  0  0  0  0  0  0  0  0  0  0
   -4.7518   -1.2592   -1.6887 H   0  0  0  0  0  0  0  0  0  0  0  0
  5  1  1  0  0  0  0
  5 23  1  0  0  0  0
  6  3  1  0  0  0  0
  6  5  1  0  0  0  0
  7  4  1  0  0  0  0
  7 27  1  0  0  0  0
  8  7  1  0  0  0  0
  8  2  1  0  0  0  0
  9  3  1  0  0  0  0
  9 10  1  0  0  0  0
 10 11  1  0  0  0  0
 11  2  1  0  0  0  0
 11 12  2  0  0  0  0
 12 13  1  0  0  0  0
 12 32  1  0  0  0  0
 13 33  1  0  0  0  0
 14 13  2  0  0  0  0
 15 10  2  0  0  0  0
 15 14  1  0  0  0  0
 16 17  1  0  0  0  0
 16  4  1  0  0  0  0
 17 18  1  0  0  0  0
 18 19  2  0  0  0  0
 18  1  1  0  0  0  0
 19 37  1  0  0  0  0
 20 38  1  0  0  0  0
 20 19  1  0  0  0  0
 21 20  2  0  0  0  0
 22 21  1  0  0  0  0
 22 17  2  0  0  0  0
 24  5  1  0  0  0  0
 25  6  1  0  0  0  0
 26  6  1  0  0  0  0
 28  7  1  0  0  0  0
 29  8  1  0  0  0  0
 30  8  1  0  0  0  0
 31  9  1  0  0  0  0
 34 14  1  0  0  0  0
 35 15  1  0  0  0  0
 36 16  1  0  0  0  0
 39 21  1  0  0  0  0
 40 22  1  0  0  0  0
M  END
