1,5
q = 0.0, confidence = 0.998

 49 53  0  0  0  0  0  0  0  0999 V2000
   -2.1739   -0.4817   -0.3431 N   0  0  0  0  0  2  0  0  0  0  0  0
   -3.6752    1.1223   -0.8358 N   0  0  0  0  0  0  0  0  0  0  0  0
   -3.4279   -1.0609   -0.3264 C   0  0  0  0  0  0  0  0  0  0  0  0
    3.3894    0.8831    0.2223 N   0  0  0  0  0  0  0  0  0  0  0  0
    0.0043    0.8931   -0.6439 N   0  0  0  0  0  2  0  0  0  0  0  0
    2.8368   -0.0683   -1.7689 N   0  0  0  0  0  0  0  0  0  0  0  0
   -3.8437   -2.3866   -0.0897 C   0  0  0  0  0  0  0  0  0  0  0  0
   -3.1189   -3.1762    0.1404 H   0  0  0  0  0  0  0  0  0  0  0  0
   -6.1607   -1.6417   -0.4334 C   0  0  0  0  0  0  0  0  0  0  0  0
   -7.2304   -1.8967   -0.4631 H   0  0  0  0  0  0  0  0  0  0  0  0
   -5.2134   -2.6562   -0.1482 C   0  0  0  0  0  0  0  0  0  0  0  0
   -5.5663   -3.6816    0.0352 H   0  0  0  0  0  0  0  0  0  0  0  0
   -4.3899   -0.0509   -0.6245 C   0  0  0  0  0  0  0  0  0  0  0  0
   -5.7675   -0.3212   -0.6763 C   0  0  0  0  0  0  0  0  0  0  0  0
   -6.5084    0.4614   -0.8931 H   0  0  0  0  0  0  0  0  0  0  0  0
   -2.3396    0.8147   -0.6447 C   0  0  0  0  0  0  0  0  0  0  0  0
   -1.1452    1.6337   -0.7758 C   0  0  0  0  0  0  0  0  0  0  0  0
   -1.1101    3.0225   -1.0037 C   0  0  0  0  0  0  0  0  0  0  0  0
   -2.0355    3.6038   -1.0615 H   0  0  0  0  0  0  0  0  0  0  0  0
    0.1230    3.6666   -1.1259 C   0  0  0  0  0  0  0  0  0  0  0  0
    0.1706    4.7517   -1.2970 H   0  0  0  0  0  0  0  0  0  0  0  0
    1.2891    2.9007   -1.0407 C   0  0  0  0  0  0  0  0  0  0  0  0
    2.2829    3.3498   -1.1711 H   0  0  0  0  0  0  0  0  0  0  0  0
    1.1939    1.5160   -0.8068 C   0  0  0  0  0  0  0  0  0  0  0  0
    2.4456    0.7233   -0.7842 C   0  0  0  0  0  0  0  0  0  0  0  0
    4.4687    0.0936   -0.1459 C   0  0  0  0  0  0  0  0  0  0  0  0
    5.6874   -0.1935    0.4896 C   0  0  0  0  0  0  0  0  0  0  0  0
    5.9540    0.2415    1.4638 H   0  0  0  0  0  0  0  0  0  0  0  0
    6.2136   -1.6418   -1.4295 C   0  0  0  0  0  0  0  0  0  0  0  0
    6.9268   -2.3256   -1.9140 H   0  0  0  0  0  0  0  0  0  0  0  0
    6.5538   -1.0680   -0.1784 C   0  0  0  0  0  0  0  0  0  0  0  0
    7.5219   -1.3183    0.2810 H   0  0  0  0  0  0  0  0  0  0  0  0
    3.8928    2.8519    1.6793 C   0  0  0  0  0  0  0  0  0  0  0  0
    4.9838    2.7615    1.5064 H   0  0  0  0  0  0  0  0  0  0  0  0
    3.7391    3.2471    2.7030 H   0  0  0  0  0  0  0  0  0  0  0  0
    3.4954    3.5995    0.9640 H   0  0  0  0  0  0  0  0  0  0  0  0
    4.9924   -1.3652   -2.0523 C   0  0  0  0  0  0  0  0  0  0  0  0
    4.7131   -1.8164   -3.0151 H   0  0  0  0  0  0  0  0  0  0  0  0
   -4.3007    2.4140   -1.0964 C   0  0  0  0  0  0  0  0  0  0  0  0
   -5.2664    2.2040   -1.5969 H   0  0  0  0  0  0  0  0  0  0  0  0
   -3.6913    2.9567   -1.8450 H   0  0  0  0  0  0  0  0  0  0  0  0
    4.1029   -0.4883   -1.3999 C   0  0  0  0  0  0  0  0  0  0  0  0
   -4.5179    3.2353    0.1741 C   0  0  0  0  0  0  0  0  0  0  0  0
   -3.5609    3.4352    0.6962 H   0  0  0  0  0  0  0  0  0  0  0  0
   -5.1755    2.6929    0.8812 H   0  0  0  0  0  0  0  0  0  0  0  0
   -4.9937    4.2057   -0.0701 H   0  0  0  0  0  0  0  0  0  0  0  0
    3.1873    1.5063    1.5286 C   0  0  0  0  0  0  0  0  0  0  0  0
    3.5445    0.7841    2.2917 H   0  0  0  0  0  0  0  0  0  0  0  0
    2.0928    1.5941    1.6944 H   0  0  0  0  0  0  0  0  0  0  0  0
  1  3  1  0  0  0  0
  2 16  1  0  0  0  0
  2 13  1  0  0  0  0
  3  7  1  0  0  0  0
  4 47  1  0  0  0  0
  6 42  1  0  0  0  0
  6 25  2  0  0  0  0
  7  8  1  0  0  0  0
  9 11  1  0  0  0  0
 10  9  1  0  0  0  0
 11  7  2  0  0  0  0
 11 12  1  0  0  0  0
 13  3  2  0  0  0  0
 14 13  1  0  0  0  0
 14  9  2  0  0  0  0
 15 14  1  0  0  0  0
 16  1  1  0  0  0  0
 17 16  2  0  0  0  0
 17  5  1  0  0  0  0
 18 17  1  0  0  0  0
 19 18  1  0  0  0  0
 20 22  1  0  0  0  0
 20 18  2  0  0  0  0
 21 20  1  0  0  0  0
 22 24  2  0  0  0  0
 23 22  1  0  0  0  0
 24 25  1  0  0  0  0
 24  5  1  0  0  0  0
 25  4  1  0  0  0  0
 26  4  1  0  0  0  0
 26 27  1  0  0  0  0
 27 28  1  0  0  0  0
 29 31  1  0  0  0  0
 30 29  1  0  0  0  0
 31 32  1  0  0  0  0
 31 27  2  0  0  0  0
 33 35  1  0  0  0  0
 34 33  1  0  0  0  0
 36 33  1  0  0  0  0
 37 29  2  0  0  0  0
 37 42  1  0  0  0  0
 38 37  1  0  0  0  0
 39  2  1  0  0  0  0
 39 43  1  0  0  0  0
 40 39  1  0  0  0  0
 41 39  1  0  0  0  0
 42 26  2  0  0  0  0
 43 44  1  0  0  0  0
 43 45  1  0  0  0  0
 46 43  1  0  0  0  0
 47 33  1  0  0  0  0
 47 49  1  0  0  0  0
 47 48  1  0  0  0  0
M  END
