13,16
q = -1.0

 28 29  0  0  0  0  0  0  0  0999 V2000
    1.8528   -0.5290   -2.1344 S   0  0  0  0  0  0  0  0  0  0  0  0
    3.0333   -0.6844   -0.8114 C   0  0  0  0  0  0  0  0  0  0  0  0
    2.7415   -0.0407    0.4321 C   0  0  0  0  0  0  0  0  0  0  0  0
   -1.5689    3.5748    2.8753 C   0  0  0  0  0  0  0  0  0  0  0  0
   -1.8202    4.5252    3.3703 H   0  0  0  0  0  0  0  0  0  0  0  0
   -2.2113    1.4379    1.9503 C   0  0  0  0  0  3  0  0  0  0  0  0
   -2.9627    0.6708    1.6967 H   0  0  0  0  0  0  0  0  0  0  0  0
   -2.5734    2.6367    2.5802 C   0  0  0  0  0  0  0  0  0  0  0  0
   -3.6256    2.8252    2.8393 H   0  0  0  0  0  0  0  0  0  0  0  0
    0.0265    2.0625    1.8838 C   0  0  0  0  0  0  0  0  0  0  0  0
   -0.2448    3.2808    2.5260 C   0  0  0  0  0  0  0  0  0  0  0  0
    0.5982    3.9566    2.7294 H   0  0  0  0  0  0  0  0  0  0  0  0
   -0.9391    1.1560    1.6171 N   0  0  0  0  0  2  0  0  0  0  0  0
    2.3887    2.3427    1.9792 O   0  0  0  0  0  0  0  0  0  0  0  0
    1.4428    1.6991    1.5028 C   0  0  0  0  0  0  0  0  0  0  0  0
    1.5225    0.6416    0.6223 N   0  0  0  0  0  2  0  0  0  0  0  0
    2.7676   -1.2177   -3.5536 C   0  0  0  0  0  0  0  0  0  0  0  0
    3.7245   -0.6852   -3.7244 H   0  0  0  0  0  0  0  0  0  0  0  0
    2.1024   -1.0569   -4.4233 H   0  0  0  0  0  0  0  0  0  0  0  0
    2.9509   -2.3050   -3.4450 H   0  0  0  0  0  0  0  0  0  0  0  0
    4.2286   -1.4184   -0.9508 C   0  0  0  0  0  0  0  0  0  0  0  0
    4.4546   -1.9225   -1.8992 H   0  0  0  0  0  0  0  0  0  0  0  0
    5.1447   -1.5222    0.1040 C   0  0  0  0  0  0  0  0  0  0  0  0
    6.0724   -2.0972   -0.0361 H   0  0  0  0  0  0  0  0  0  0  0  0
    4.8695   -0.8914    1.3256 C   0  0  0  0  0  0  0  0  0  0  0  0
    5.5798   -0.9601    2.1633 H   0  0  0  0  0  0  0  0  0  0  0  0
    3.6846   -0.1656    1.4831 C   0  0  0  0  0  0  0  0  0  0  0  0
    3.4815    0.3558    2.4267 H   0  0  0  0  0  0  0  0  0  0  0  0
  1  2  1  0  0  0  0
  2  3  1  0  0  0  0
  3 16  1  0  0  0  0
  3 27  2  0  0  0  0
  4  5  1  0  0  0  0
  6  8  1  0  0  0  0
  7  6  1  0  0  0  0
  8  9  1  0  0  0  0
  8  4  2  0  0  0  0
 10 11  2  0  0  0  0
 11 12  1  0  0  0  0
 11  4  1  0  0  0  0
 13 10  1  0  0  0  0
 13  6  1  0  0  0  0
 15 10  1  0  0  0  0
 15 14  2  0  0  0  0
 16 15  1  0  0  0  0
 17 20  1  0  0  0  0
 17  1  1  0  0  0  0
 18 17  1  0  0  0  0
 19 17  1  0  0  0  0
 21  2  2  0  0  0  0
 21 23  1  0  0  0  0
 22 21  1  0  0  0  0
 23 25  2  0  0  0  0
 24 23  1  0  0  0  0
 25 27  1  0  0  0  0
 25 26  1  0  0  0  0
 27 28  1  0  0  0  0
M  END
