2,3
q = 0.0, confidence = 0.97

 47 49  0  0  0  0  0  0  0  0999 V2000
    5.4707   -0.3345    1.5611 S   0  0  0  0  0  0  0  0  0  0  0  0
   -1.5762   -0.4206    0.2655 N   0  0  0  0  0  2  0  0  0  0  0  0
   -3.9307   -1.5894    0.5539 N   0  0  0  0  0  2  0  0  0  0  0  0
    4.3486    0.5706    0.5942 N   0  0  0  0  0  0  0  0  0  0  0  0
    3.4435    0.0990    0.4785 H   0  0  0  0  0  0  0  0  0  0  0  0
    3.3270    2.4461   -0.6257 C   0  0  0  0  0  0  0  0  0  0  0  0
    3.6196    2.4585   -1.6968 H   0  0  0  0  0  0  0  0  0  0  0  0
    3.2693    3.5051   -0.3065 H   0  0  0  0  0  0  0  0  0  0  0  0
    4.5394    1.8578    0.1282 C   0  0  0  0  0  0  0  0  0  0  0  0
    5.5844    2.4768    0.2534 O   0  0  0  0  0  0  0  0  0  0  0  0
    5.9241    0.5117    2.6718 O   0  0  0  0  0  0  0  0  0  0  0  0
    4.7410   -1.6013    1.7696 O   0  0  0  0  0  0  0  0  0  0  0  0
   -5.1449   -2.1453    0.7433 C   0  0  0  0  0  3  0  0  0  0  0  0
   -5.9970   -1.4508    0.7674 H   0  0  0  0  0  0  0  0  0  0  0  0
   -5.3253   -3.5252    0.8885 C   0  0  0  0  0  0  0  0  0  0  0  0
   -6.3387   -3.9239    1.0354 H   0  0  0  0  0  0  0  0  0  0  0  0
   -4.2060   -4.3736    0.8371 C   0  0  0  0  0  0  0  0  0  0  0  0
   -4.3202   -5.4619    0.9457 H   0  0  0  0  0  0  0  0  0  0  0  0
   -2.9439   -3.8065    0.6446 C   0  0  0  0  0  0  0  0  0  0  0  0
   -2.0371   -4.4264    0.5986 H   0  0  0  0  0  0  0  0  0  0  0  0
   -2.8329   -2.4099    0.5013 C   0  0  0  0  0  0  0  0  0  0  0  0
   -1.5685   -1.7285    0.3248 C   0  0  0  0  0  3  0  0  0  0  0  0
   -0.6247   -2.3008    0.2877 H   0  0  0  0  0  0  0  0  0  0  0  0
   -0.3672    0.2836    0.0369 C   0  0  0  0  0  0  0  0  0  0  0  0
    0.4809   -0.0828   -1.0271 C   0  0  0  0  0  0  0  0  0  0  0  0
    0.1764   -0.8947   -1.7032 H   0  0  0  0  0  0  0  0  0  0  0  0
    1.6570    0.6424   -1.2565 C   0  0  0  0  0  0  0  0  0  0  0  0
    2.3024    0.3680   -2.1058 H   0  0  0  0  0  0  0  0  0  0  0  0
    2.0173    1.7294   -0.4317 C   0  0  0  0  0  0  0  0  0  0  0  0
    1.1486    2.0859    0.6234 C   0  0  0  0  0  0  0  0  0  0  0  0
    1.4096    2.9326    1.2765 H   0  0  0  0  0  0  0  0  0  0  0  0
   -0.0403    1.3882    0.8489 C   0  0  0  0  0  0  0  0  0  0  0  0
   -0.7209    1.6769    1.6623 H   0  0  0  0  0  0  0  0  0  0  0  0
    6.8366   -0.6150    0.4427 C   0  0  0  0  0  0  0  0  0  0  0  0
    7.8428    0.3568    0.3239 C   0  0  0  0  0  0  0  0  0  0  0  0
    7.7674    1.2907    0.8967 H   0  0  0  0  0  0  0  0  0  0  0  0
    8.9064    0.1092   -0.5501 C   0  0  0  0  0  0  0  0  0  0  0  0
    9.7003    0.8649   -0.6576 H   0  0  0  0  0  0  0  0  0  0  0  0
    8.9840   -1.0887   -1.2954 C   0  0  0  0  0  0  0  0  0  0  0  0
    7.9568   -2.0433   -1.1432 C   0  0  0  0  0  0  0  0  0  0  0  0
    8.0057   -2.9851   -1.7116 H   0  0  0  0  0  0  0  0  0  0  0  0
    6.8790   -1.8169   -0.2771 C   0  0  0  0  0  0  0  0  0  0  0  0
    6.0807   -2.5606   -0.1413 H   0  0  0  0  0  0  0  0  0  0  0  0
   10.1492   -1.3375   -2.2175 C   0  0  0  0  0  0  0  0  0  0  0  0
   10.2981   -0.4881   -2.9152 H   0  0  0  0  0  0  0  0  0  0  0  0
   10.0102   -2.2569   -2.8176 H   0  0  0  0  0  0  0  0  0  0  0  0
   11.0927   -1.4478   -1.6426 H   0  0  0  0  0  0  0  0  0  0  0  0
  1 12  2  0  0  0  0
  1 11  2  0  0  0  0
  2 22  1  0  0  0  0
  3 13  1  0  0  0  0
  4  1  1  0  0  0  0
  5  4  1  0  0  0  0
  6 29  1  0  0  0  0
  6  8  1  0  0  0  0
  6  9  1  0  0  0  0
  7  6  1  0  0  0  0
  9 10  2  0  0  0  0
  9  4  1  0  0  0  0
 13 14  1  0  0  0  0
 13 15  1  0  0  0  0
 15 16  1  0  0  0  0
 17 15  2  0  0  0  0
 17 18  1  0  0  0  0
 19 17  1  0  0  0  0
 20 19  1  0  0  0  0
 21  3  1  0  0  0  0
 21 19  2  0  0  0  0
 22 21  1  0  0  0  0
 23 22  1  0  0  0  0
 24  2  1  0  0  0  0
 24 32  1  0  0  0  0
 25 24  2  0  0  0  0
 26 25  1  0  0  0  0
 27 25  1  0  0  0  0
 27 29  2  0  0  0  0
 28 27  1  0  0  0  0
 29 30  1  0  0  0  0
 30 32  2  0  0  0  0
 30 31  1  0  0  0  0
 32 33  1  0  0  0  0
 34  1  1  0  0  0  0
 35 34  1  0  0  0  0
 35 36  1  0  0  0  0
 37 35  2  0  0  0  0
 38 37  1  0  0  0  0
 39 40  2  0  0  0  0
 39 37  1  0  0  0  0
 40 42  1  0  0  0  0
 41 40  1  0  0  0  0
 42 43  1  0  0  0  0
 42 34  2  0  0  0  0
 44 47  1  0  0  0  0
 44 39  1  0  0  0  0
 45 44  1  0  0  0  0
 46 44  1  0  0  0  0
M  END
