6,20
q = 0.0, confidence = 0.998

 30 33  0  0  0  0  0  0  0  0999 V2000
   -2.5559    3.1041    0.1793 N   0  0  0  0  0  0  0  0  0  0  0  0
   -3.0594    3.9824    0.3470 H   0  0  0  0  0  0  0  0  0  0  0  0
   -1.1760    3.1821    0.1947 C   0  0  0  0  0  0  0  0  0  0  0  0
   -0.5494    4.2243    0.3971 O   0  0  0  0  0  0  0  0  0  0  0  0
   -0.5260    1.8772   -0.0223 C   0  0  0  0  0  0  0  0  0  0  0  0
   -1.1628    0.7161   -0.2268 N   0  0  0  0  0  2  0  0  0  0  0  0
   -2.5453    0.7422   -0.3759 C   0  0  0  0  0  0  0  0  0  0  0  0
   -3.2672   -0.3971   -0.8020 C   0  0  0  0  0  0  0  0  0  0  0  0
   -2.6909   -1.2848   -1.0836 H   0  0  0  0  0  0  0  0  0  0  0  0
   -4.6530   -0.3590   -0.9214 C   0  0  0  0  0  0  0  0  0  0  0  0
   -5.1974   -1.2484   -1.2690 H   0  0  0  0  0  0  0  0  0  0  0  0
   -5.3582    0.8260   -0.6159 C   0  0  0  0  0  0  0  0  0  0  0  0
   -6.4543    0.8526   -0.7006 H   0  0  0  0  0  0  0  0  0  0  0  0
   -4.6713    1.9783   -0.2349 C   0  0  0  0  0  0  0  0  0  0  0  0
   -5.2131    2.9136   -0.0292 H   0  0  0  0  0  0  0  0  0  0  0  0
   -3.2653    1.9592   -0.1349 C   0  0  0  0  0  0  0  0  0  0  0  0
    1.8332    2.7703    0.0807 N   0  0  0  0  0  0  0  0  0  0  0  0
    1.5676    3.7520    0.2287 H   0  0  0  0  0  0  0  0  0  0  0  0
    0.8951    1.7888   -0.0268 C   0  0  0  0  0  0  0  0  0  0  0  0
    1.4548    0.5815   -0.2283 N   0  0  0  0  0  2  0  0  0  0  0  0
    2.8218    0.7805   -0.2873 C   0  0  0  0  0  0  0  0  0  0  0  0
    3.8902   -0.1090   -0.5153 C   0  0  0  0  0  0  0  0  0  0  0  0
    3.7051   -1.1719   -0.7150 H   0  0  0  0  0  0  0  0  0  0  0  0
    5.1811    0.4210   -0.5125 C   0  0  0  0  0  0  0  0  0  0  0  0
    6.0374   -0.2441   -0.6953 H   0  0  0  0  0  0  0  0  0  0  0  0
    5.4192    1.8039   -0.2927 C   0  0  0  0  0  0  0  0  0  0  0  0
    6.4543    2.1751   -0.3011 H   0  0  0  0  0  0  0  0  0  0  0  0
    4.3745    2.7069   -0.0788 C   0  0  0  0  0  0  0  0  0  0  0  0
    4.5610    3.7784    0.0778 H   0  0  0  0  0  0  0  0  0  0  0  0
    3.0727    2.1802   -0.0825 C   0  0  0  0  0  0  0  0  0  0  0  0
  1  3  1  0  0  0  0
  1  2  1  0  0  0  0
  3  4  2  0  0  0  0
  5  3  1  0  0  0  0
  6  5  1  0  0  0  0
  7  6  1  0  0  0  0
  7 16  1  0  0  0  0
  8  7  2  0  0  0  0
  9  8  1  0  0  0  0
 10  8  1  0  0  0  0
 10 12  2  0  0  0  0
 11 10  1  0  0  0  0
 12 14  1  0  0  0  0
 13 12  1  0  0  0  0
 14 16  2  0  0  0  0
 14 15  1  0  0  0  0
 16  1  1  0  0  0  0
 17 18  1  0  0  0  0
 19  5  2  0  0  0  0
 19 17  1  0  0  0  0
 20 19  1  0  0  0  0
 21 20  1  0  0  0  0
 21 30  1  0  0  0  0
 22 24  1  0  0  0  0
 22 21  2  0  0  0  0
 23 22  1  0  0  0  0
 24 26  2  0  0  0  0
 25 24  1  0  0  0  0
 26 28  1  0  0  0  0
 27 26  1  0  0  0  0
 28 29  1  0  0  0  0
 30 28  2  0  0  0  0
 30 17  1  0  0  0  0
M  END
