6,19
q = 0.0, confidence = 0.996

 29 32  0  0  0  0  0  0  0  0999 V2000
    2.5966    3.0774    0.4838 N   0  0  0  0  0  0  0  0  0  0  0  0
    3.0570    3.9603    0.7318 H   0  0  0  0  0  0  0  0  0  0  0  0
    1.2119    3.1144    0.4161 C   0  0  0  0  0  0  0  0  0  0  0  0
    0.5377    4.1167    0.6388 O   0  0  0  0  0  0  0  0  0  0  0  0
    0.6180    1.8077    0.0796 C   0  0  0  0  0  0  0  0  0  0  0  0
    1.3159    0.6793   -0.1107 N   0  0  0  0  0  2  0  0  0  0  0  0
    2.7014    0.7522   -0.1904 C   0  0  0  0  0  0  0  0  0  0  0  0
    3.4734   -0.3394   -0.6572 C   0  0  0  0  0  0  0  0  0  0  0  0
    2.9384   -1.2220   -1.0276 H   0  0  0  0  0  0  0  0  0  0  0  0
    4.8603   -0.2468   -0.7169 C   0  0  0  0  0  0  0  0  0  0  0  0
    5.4499   -1.0917   -1.1001 H   0  0  0  0  0  0  0  0  0  0  0  0
    5.5102    0.9395   -0.3072 C   0  0  0  0  0  0  0  0  0  0  0  0
    6.6074    1.0053   -0.3427 H   0  0  0  0  0  0  0  0  0  0  0  0
    4.7717    2.0462    0.1111 C   0  0  0  0  0  0  0  0  0  0  0  0
    5.2741    2.9833    0.3938 H   0  0  0  0  0  0  0  0  0  0  0  0
    3.3636    1.9788    0.1461 C   0  0  0  0  0  0  0  0  0  0  0  0
   -1.9802    2.9534   -0.0720 S   0  0  0  0  0  0  0  0  0  0  0  0
   -0.7941    1.6846   -0.1011 C   0  0  0  0  0  0  0  0  0  0  0  0
   -1.2508    0.4693   -0.4381 N   0  0  0  0  0  2  0  0  0  0  0  0
   -2.5874    0.4928   -0.7898 C   0  0  0  0  0  0  0  0  0  0  0  0
   -3.3542   -0.5711   -1.3131 C   0  0  0  0  0  0  0  0  0  0  0  0
   -2.8756   -1.5357   -1.5256 H   0  0  0  0  0  0  0  0  0  0  0  0
   -4.6969   -0.3365   -1.6072 C   0  0  0  0  0  0  0  0  0  0  0  0
   -5.3083   -1.1473   -2.0290 H   0  0  0  0  0  0  0  0  0  0  0  0
   -5.2835    0.9349   -1.3924 C   0  0  0  0  0  0  0  0  0  0  0  0
   -6.3461    1.0875   -1.6310 H   0  0  0  0  0  0  0  0  0  0  0  0
   -4.5305    2.0091   -0.9079 C   0  0  0  0  0  0  0  0  0  0  0  0
   -4.9828    3.0017   -0.7713 H   0  0  0  0  0  0  0  0  0  0  0  0
   -3.1739    1.7852   -0.6199 C   0  0  0  0  0  0  0  0  0  0  0  0
  1  2  1  0  0  0  0
  3  1  1  0  0  0  0
  3  4  2  0  0  0  0
  5  3  1  0  0  0  0
  6  5  1  0  0  0  0
  7  6  1  0  0  0  0
  7 16  1  0  0  0  0
  8  7  2  0  0  0  0
  9  8  1  0  0  0  0
 10  8  1  0  0  0  0
 10 12  2  0  0  0  0
 11 10  1  0  0  0  0
 12 14  1  0  0  0  0
 13 12  1  0  0  0  0
 14 16  2  0  0  0  0
 14 15  1  0  0  0  0
 16  1  1  0  0  0  0
 18 17  1  0  0  0  0
 18  5  2  0  0  0  0
 19 18  1  0  0  0  0
 20 29  1  0  0  0  0
 20 19  1  0  0  0  0
 21 20  2  0  0  0  0
 22 21  1  0  0  0  0
 23 25  2  0  0  0  0
 23 21  1  0  0  0  0
 24 23  1  0  0  0  0
 25 27  1  0  0  0  0
 26 25  1  0  0  0  0
 27 28  1  0  0  0  0
 27 29  2  0  0  0  0
 29 17  1  0  0  0  0
M  END
