6,19
q = 0.0, confidence = 0.998

 29 32  0  0  0  0  0  0  0  0999 V2000
    2.5446    3.0930    0.6878 N   0  0  0  0  0  0  0  0  0  0  0  0
    3.0087    3.9560    0.9923 H   0  0  0  0  0  0  0  0  0  0  0  0
    1.1561    3.1733    0.5760 C   0  0  0  0  0  0  0  0  0  0  0  0
    0.5188    4.1833    0.8316 O   0  0  0  0  0  0  0  0  0  0  0  0
    0.5562    1.8853    0.1582 C   0  0  0  0  0  0  0  0  0  0  0  0
    1.2452    0.7472   -0.0367 N   0  0  0  0  0  2  0  0  0  0  0  0
    2.6323    0.7974   -0.0678 C   0  0  0  0  0  0  0  0  0  0  0  0
    3.4028   -0.2877   -0.5544 C   0  0  0  0  0  0  0  0  0  0  0  0
    2.8680   -1.1433   -0.9815 H   0  0  0  0  0  0  0  0  0  0  0  0
    4.7918   -0.2176   -0.5665 C   0  0  0  0  0  0  0  0  0  0  0  0
    5.3793   -1.0558   -0.9672 H   0  0  0  0  0  0  0  0  0  0  0  0
    5.4474    0.9396   -0.0870 C   0  0  0  0  0  0  0  0  0  0  0  0
    6.5462    0.9870   -0.0840 H   0  0  0  0  0  0  0  0  0  0  0  0
    4.7140    2.0417    0.3500 C   0  0  0  0  0  0  0  0  0  0  0  0
    5.2215    2.9583    0.6858 H   0  0  0  0  0  0  0  0  0  0  0  0
    3.3037    1.9991    0.3350 C   0  0  0  0  0  0  0  0  0  0  0  0
   -1.7822    2.6997   -0.1208 O   0  0  0  0  0  0  0  0  0  0  0  0
   -0.8437    1.7359   -0.0896 C   0  0  0  0  0  0  0  0  0  0  0  0
   -1.2985    0.5283   -0.4366 N   0  0  0  0  0  2  0  0  0  0  0  0
   -2.6348    0.6972   -0.7719 C   0  0  0  0  0  0  0  0  0  0  0  0
   -3.6220   -0.1732   -1.2673 C   0  0  0  0  0  0  0  0  0  0  0  0
   -3.3941   -1.2213   -1.5003 H   0  0  0  0  0  0  0  0  0  0  0  0
   -4.8885    0.3769   -1.4935 C   0  0  0  0  0  0  0  0  0  0  0  0
   -5.6893   -0.2642   -1.8895 H   0  0  0  0  0  0  0  0  0  0  0  0
   -5.1674    1.7443   -1.2432 C   0  0  0  0  0  0  0  0  0  0  0  0
   -6.1796    2.1272   -1.4385 H   0  0  0  0  0  0  0  0  0  0  0  0
   -4.1858    2.6290   -0.7708 C   0  0  0  0  0  0  0  0  0  0  0  0
   -4.3835    3.6943   -0.5920 H   0  0  0  0  0  0  0  0  0  0  0  0
   -2.9293    2.0676   -0.5535 C   0  0  0  0  0  0  0  0  0  0  0  0
  1  2  1  0  0  0  0
  3  1  1  0  0  0  0
  3  4  2  0  0  0  0
  5  3  1  0  0  0  0
  6  5  1  0  0  0  0
  7  6  1  0  0  0  0
  7 16  1  0  0  0  0
  8  7  2  0  0  0  0
  9  8  1  0  0  0  0
 10  8  1  0  0  0  0
 10 12  2  0  0  0  0
 11 10  1  0  0  0  0
 12 13  1  0  0  0  0
 12 14  1  0  0  0  0
 14 15  1  0  0  0  0
 16 14  2  0  0  0  0
 16  1  1  0  0  0  0
 17 18  1  0  0  0  0
 18  5  2  0  0  0  0
 19 18  1  0  0  0  0
 20 29  1  0  0  0  0
 20 19  1  0  0  0  0
 21 20  2  0  0  0  0
 22 21  1  0  0  0  0
 23 21  1  0  0  0  0
 23 25  2  0  0  0  0
 24 23  1  0  0  0  0
 25 27  1  0  0  0  0
 26 25  1  0  0  0  0
 27 28  1  0  0  0  0
 27 29  2  0  0  0  0
 29 17  1  0  0  0  0
M  END
