1,2
q = -1.0

 38 42  0  0  0  0  0  0  0  0999 V2000
   -1.0710   -1.3124   -0.0077 N   0  0  0  0  0  2  0  0  0  0  0  0
   -1.1106    1.3388    0.0199 N   0  0  0  0  0  2  0  0  0  0  0  0
    3.8744   -1.0752   -0.0132 N   0  0  0  0  0  0  0  0  0  0  0  0
    3.8388    1.2509    0.0190 N   0  0  0  0  0  2  0  0  0  0  0  0
   10.2218    0.2960   -0.0050 O   0  0  0  0  0  0  0  0  0  0  0  0
   -1.1278   -2.6554   -0.0328 C   0  0  0  0  0  0  0  0  0  0  0  0
   -2.1214   -3.1244   -0.0493 H   0  0  0  0  0  0  0  0  0  0  0  0
    0.0438   -3.4448   -0.0466 C   0  0  0  0  0  0  0  0  0  0  0  0
   -0.0564   -4.5387   -0.0669 H   0  0  0  0  0  0  0  0  0  0  0  0
    1.2945   -2.8318   -0.0355 C   0  0  0  0  0  0  0  0  0  0  0  0
    2.2268   -3.4155   -0.0449 H   0  0  0  0  0  0  0  0  0  0  0  0
    1.3882   -1.4178   -0.0143 C   0  0  0  0  0  0  0  0  0  0  0  0
    0.1502   -0.6778   -0.0024 C   0  0  0  0  0  0  0  0  0  0  0  0
    2.5945   -0.6585   -0.0058 C   0  0  0  0  0  0  0  0  0  0  0  0
    2.5722    0.7953    0.0140 C   0  0  0  0  0  0  0  0  0  0  0  0
    1.3440    1.5178    0.0246 C   0  0  0  0  0  0  0  0  0  0  0  0
    0.1289    0.7411    0.0135 C   0  0  0  0  0  0  0  0  0  0  0  0
    1.2083    2.9286    0.0468 C   0  0  0  0  0  0  0  0  0  0  0  0
    2.1228    3.5398    0.0555 H   0  0  0  0  0  0  0  0  0  0  0  0
   -0.0601    3.5037    0.0599 C   0  0  0  0  0  0  0  0  0  0  0  0
   -0.1930    4.5941    0.0814 H   0  0  0  0  0  0  0  0  0  0  0  0
   -1.2076    2.6795    0.0464 C   0  0  0  0  0  0  0  0  0  0  0  0
   -2.2147    3.1187    0.0644 H   0  0  0  0  0  0  0  0  0  0  0  0
    4.5863    0.0993    0.0022 C   0  0  0  0  0  0  0  0  0  0  0  0
    6.0446    0.1234    0.0002 C   0  0  0  0  0  0  0  0  0  0  0  0
    6.7859   -1.0782   -0.0184 C   0  0  0  0  0  0  0  0  0  0  0  0
    6.2355   -2.0299   -0.0311 H   0  0  0  0  0  0  0  0  0  0  0  0
    8.1842   -1.0659   -0.0208 C   0  0  0  0  0  0  0  0  0  0  0  0
    8.7326   -2.0170   -0.0355 H   0  0  0  0  0  0  0  0  0  0  0  0
    8.8726    0.1689   -0.0043 C   0  0  0  0  0  0  0  0  0  0  0  0
    8.1378    1.3792    0.0146 C   0  0  0  0  0  0  0  0  0  0  0  0
    8.6982    2.3250    0.0272 H   0  0  0  0  0  0  0  0  0  0  0  0
    6.7474    1.3547    0.0167 C   0  0  0  0  0  0  0  0  0  0  0  0
    6.1663    2.2877    0.0312 H   0  0  0  0  0  0  0  0  0  0  0  0
   11.0186   -0.8763   -0.0233 C   0  0  0  0  0  0  0  0  0  0  0  0
   10.8359   -1.4848   -0.9366 H   0  0  0  0  0  0  0  0  0  0  0  0
   10.8390   -1.5109    0.8727 H   0  0  0  0  0  0  0  0  0  0  0  0
   12.0708   -0.5379   -0.0202 H   0  0  0  0  0  0  0  0  0  0  0  0
  1 13  1  0  0  0  0
  2 22  1  0  0  0  0
  3 14  1  0  0  0  0
  3 24  2  0  0  0  0
  5 30  1  0  0  0  0
  6  1  1  0  0  0  0
  7  6  1  0  0  0  0
  8 10  1  0  0  0  0
  8  6  2  0  0  0  0
  9  8  1  0  0  0  0
 10 12  2  0  0  0  0
 11 10  1  0  0  0  0
 12 14  1  0  0  0  0
 12 13  1  0  0  0  0
 13 17  2  0  0  0  0
 14 15  2  0  0  0  0
 15  4  1  0  0  0  0
 15 16  1  0  0  0  0
 16 18  2  0  0  0  0
 17  2  1  0  0  0  0
 17 16  1  0  0  0  0
 18 19  1  0  0  0  0
 18 20  1  0  0  0  0
 20 21  1  0  0  0  0
 22 20  2  0  0  0  0
 22 23  1  0  0  0  0
 24  4  1  0  0  0  0
 25 24  1  0  0  0  0
 25 33  1  0  0  0  0
 26 25  2  0  0  0  0
 27 26  1  0  0  0  0
 28 26  1  0  0  0  0
 28 30  2  0  0  0  0
 29 28  1  0  0  0  0
 30 31  1  0  0  0  0
 31 33  2  0  0  0  0
 31 32  1  0  0  0  0
 33 34  1  0  0  0  0
 35 38  1  0  0  0  0
 35  5  1  0  0  0  0
 35 37  1  0  0  0  0
 36 35  1  0  0  0  0
M  END
