1,11
q = -1.0

 31 32  0  0  0  0  0  0  0  0999 V2000
   -1.0117   -1.7687    0.0005 N   0  0  0  0  0  2  0  0  0  0  0  0
   -2.2821   -2.2284    0.0011 C   0  0  0  0  0  3  0  0  0  0  0  0
   -3.1415   -1.5497    0.0012 H   0  0  0  0  0  0  0  0  0  0  0  0
   -2.2855   -3.6497    0.0016 C   0  0  0  0  0  0  0  0  0  0  0  0
   -3.1797   -4.2840    0.0021 H   0  0  0  0  0  0  0  0  0  0  0  0
   -0.9452   -4.0663    0.0013 C   0  0  0  0  0  0  0  0  0  0  0  0
   -0.5604   -5.0930    0.0015 H   0  0  0  0  0  0  0  0  0  0  0  0
   -0.1680   -2.8785    0.0006 C   0  0  0  0  0  0  0  0  0  0  0  0
    1.2113   -2.5871    0.0003 C   0  0  0  0  0  0  0  0  0  0  0  0
    1.9804   -3.3805    0.0003 H   0  0  0  0  0  0  0  0  0  0  0  0
    1.5816   -1.3157   -0.0000 N   0  0  0  0  0  2  0  0  0  0  0  0
    2.9532   -0.9565   -0.0003 C   0  0  0  0  0  0  0  0  0  0  0  0
    3.6117   -0.7398   -1.2356 C   0  0  0  0  0  0  0  0  0  0  0  0
    4.9565   -0.3309   -1.2088 C   0  0  0  0  0  0  0  0  0  0  0  0
    5.4740   -0.1535   -2.1656 H   0  0  0  0  0  0  0  0  0  0  0  0
    5.6505   -0.1265   -0.0008 C   0  0  0  0  0  0  0  0  0  0  0  0
    4.9573   -0.3323    1.2075 C   0  0  0  0  0  0  0  0  0  0  0  0
    5.4754   -0.1558    2.1642 H   0  0  0  0  0  0  0  0  0  0  0  0
    3.6126   -0.7412    1.2348 C   0  0  0  0  0  0  0  0  0  0  0  0
    2.8580   -0.8980   -2.5285 C   0  0  0  0  0  0  0  0  0  0  0  0
    3.4949   -0.6504   -3.3984 H   0  0  0  0  0  0  0  0  0  0  0  0
    1.9664   -0.2348   -2.5406 H   0  0  0  0  0  0  0  0  0  0  0  0
    2.4753   -1.9309   -2.6610 H   0  0  0  0  0  0  0  0  0  0  0  0
    7.1018    0.2838   -0.0009 C   0  0  0  0  0  0  0  0  0  0  0  0
    7.3576    0.8816    0.8960 H   0  0  0  0  0  0  0  0  0  0  0  0
    7.3578    0.8799   -0.8990 H   0  0  0  0  0  0  0  0  0  0  0  0
    7.7674   -0.6065    0.0000 H   0  0  0  0  0  0  0  0  0  0  0  0
    2.8597   -0.9008    2.5281 C   0  0  0  0  0  0  0  0  0  0  0  0
    2.4782   -1.9342    2.6603 H   0  0  0  0  0  0  0  0  0  0  0  0
    1.9675   -0.2385    2.5410 H   0  0  0  0  0  0  0  0  0  0  0  0
    3.4969   -0.6530    3.3977 H   0  0  0  0  0  0  0  0  0  0  0  0
  1  8  1  0  0  0  0
  1  2  1  0  0  0  0
  2  3  1  0  0  0  0
  2  4  1  0  0  0  0
  4  5  1  0  0  0  0
  6  7  1  0  0  0  0
  6  4  2  0  0  0  0
  8  6  1  0  0  0  0
  9  8  2  0  0  0  0
 10  9  1  0  0  0  0
 11  9  1  0  0  0  0
 12 11  1  0  0  0  0
 12 19  1  0  0  0  0
 13 14  1  0  0  0  0
 13 12  2  0  0  0  0
 14 16  2  0  0  0  0
 15 14  1  0  0  0  0
 16 17  1  0  0  0  0
 17 19  2  0  0  0  0
 17 18  1  0  0  0  0
 19 28  1  0  0  0  0
 20 13  1  0  0  0  0
 21 20  1  0  0  0  0
 22 20  1  0  0  0  0
 23 20  1  0  0  0  0
 24 16  1  0  0  0  0
 24 27  1  0  0  0  0
 24 25  1  0  0  0  0
 26 24  1  0  0  0  0
 28 30  1  0  0  0  0
 28 29  1  0  0  0  0
 28 31  1  0  0  0  0
M  END
