1,2
q = 0.0, confidence = 0.994

 21 23  0  0  0  0  0  0  0  0999 V2000
   -0.2845    1.3995    0.0003 N   0  0  0  0  0  2  0  0  0  0  0  0
   -0.2840   -1.3993    0.0002 N   0  0  0  0  0  2  0  0  0  0  0  0
   -0.4043    2.7446    0.0002 C   0  0  0  0  0  0  0  0  0  0  0  0
   -1.6751    3.3554   -0.0000 C   0  0  0  0  0  0  0  0  0  0  0  0
   -2.8733    2.6010   -0.0002 C   0  0  0  0  0  0  0  0  0  0  0  0
   -2.7511    1.2045   -0.0001 C   0  0  0  0  0  0  0  0  0  0  0  0
   -1.4395    0.7123    0.0002 C   0  0  0  0  0  0  0  0  0  0  0  0
   -1.4392   -0.7126    0.0001 C   0  0  0  0  0  0  0  0  0  0  0  0
   -2.7506   -1.2053   -0.0001 C   0  0  0  0  0  0  0  0  0  0  0  0
   -2.8722   -2.6019   -0.0003 C   0  0  0  0  0  0  0  0  0  0  0  0
   -1.6738   -3.3557   -0.0002 C   0  0  0  0  0  0  0  0  0  0  0  0
   -0.4032   -2.7445    0.0001 C   0  0  0  0  0  0  0  0  0  0  0  0
   -3.6981   -0.0006   -0.0002 C   0  0  0  0  0  0  0  0  0  0  0  0
    0.5450    3.3039    0.0002 H   0  0  0  0  0  0  0  0  0  0  0  0
   -1.7230    4.4538   -0.0001 H   0  0  0  0  0  0  0  0  0  0  0  0
   -3.8488    3.1100   -0.0004 H   0  0  0  0  0  0  0  0  0  0  0  0
   -3.8476   -3.1112   -0.0005 H   0  0  0  0  0  0  0  0  0  0  0  0
   -1.7212   -4.4542   -0.0003 H   0  0  0  0  0  0  0  0  0  0  0  0
    0.5463   -3.3035   -0.0000 H   0  0  0  0  0  0  0  0  0  0  0  0
   -4.3649   -0.0007   -0.8894 H   0  0  0  0  0  0  0  0  0  0  0  0
   -4.3651   -0.0008    0.8888 H   0  0  0  0  0  0  0  0  0  0  0  0
  3 14  1  0  0  0  0
  3  1  1  0  0  0  0
  4  3  2  0  0  0  0
  5  6  2  0  0  0  0
  5  4  1  0  0  0  0
  6  7  1  0  0  0  0
  7  1  1  0  0  0  0
  8  7  2  0  0  0  0
  8  2  1  0  0  0  0
  9  8  1  0  0  0  0
 10 11  1  0  0  0  0
 10  9  2  0  0  0  0
 11 12  2  0  0  0  0
 12  2  1  0  0  0  0
 13  9  1  0  0  0  0
 13  6  1  0  0  0  0
 13 21  1  0  0  0  0
 15  4  1  0  0  0  0
 16  5  1  0  0  0  0
 17 10  1  0  0  0  0
 18 11  1  0  0  0  0
 19 12  1  0  0  0  0
 20 13  1  0  0  0  0
M  END
