3,4
q = 0.0, confidence = 0.998

 32 33  0  0  0  0  0  0  0  0999 V2000
    2.9842    2.7864    0.1530 O   0  0  0  0  0  0  0  0  0  0  0  0
    5.2265   -0.5402   -0.7621 O   0  0  0  0  0  0  0  0  0  0  0  0
   -1.5574   -2.0550   -0.2419 N   0  0  0  0  0  2  0  0  0  0  0  0
    0.3208   -0.3105    0.1440 N   0  0  0  0  0  2  0  0  0  0  0  0
    4.9648   -2.1376    0.8460 O   0  0  0  0  0  0  0  0  0  0  0  0
    4.6241    1.4968    1.0591 O   0  0  0  0  0  0  0  0  0  0  0  0
    2.1350   -1.8904    0.0359 C   0  0  0  0  0  0  0  0  0  0  0  0
    2.4906   -2.9261   -0.0463 H   0  0  0  0  0  0  0  0  0  0  0  0
    0.7639   -1.5992    0.0186 C   0  0  0  0  0  0  0  0  0  0  0  0
    3.5368    1.6162    0.5302 C   0  0  0  0  0  0  0  0  0  0  0  0
   -0.2974   -2.5857   -0.1867 C   0  0  0  0  0  0  0  0  0  0  0  0
    1.2212    0.6863    0.2455 C   0  0  0  0  0  0  0  0  0  0  0  0
    0.8307    1.7086    0.3062 H   0  0  0  0  0  0  0  0  0  0  0  0
   -2.4463   -4.2373   -0.7373 C   0  0  0  0  0  0  0  0  0  0  0  0
   -3.3273   -4.8496   -0.9748 H   0  0  0  0  0  0  0  0  0  0  0  0
    2.6052    0.4662    0.2657 C   0  0  0  0  0  0  0  0  0  0  0  0
   -2.5989   -2.8620   -0.5430 C   0  0  0  0  0  0  0  0  0  0  0  0
   -3.5772   -2.3755   -0.6446 H   0  0  0  0  0  0  0  0  0  0  0  0
    3.0775   -0.8606    0.1398 C   0  0  0  0  0  0  0  0  0  0  0  0
    4.5374   -1.2449    0.1408 C   0  0  0  0  0  0  0  0  0  0  0  0
    3.7839    3.9585    0.4044 C   0  0  0  0  0  0  0  0  0  0  0  0
    3.1926    4.8133    0.0344 H   0  0  0  0  0  0  0  0  0  0  0  0
    4.7480    3.8882   -0.1357 H   0  0  0  0  0  0  0  0  0  0  0  0
    3.9917    4.0611    1.4877 H   0  0  0  0  0  0  0  0  0  0  0  0
   -1.1660   -4.8024   -0.6346 C   0  0  0  0  0  0  0  0  0  0  0  0
   -1.0128   -5.8815   -0.7785 H   0  0  0  0  0  0  0  0  0  0  0  0
   -0.0811   -3.9627   -0.3678 C   0  0  0  0  0  0  0  0  0  0  0  0
    0.9372   -4.3693   -0.3108 H   0  0  0  0  0  0  0  0  0  0  0  0
    6.6520   -0.7520   -0.7757 C   0  0  0  0  0  0  0  0  0  0  0  0
    7.0218   -0.2779   -1.7007 H   0  0  0  0  0  0  0  0  0  0  0  0
    6.8870   -1.8335   -0.7603 H   0  0  0  0  0  0  0  0  0  0  0  0
    7.1001   -0.2667    0.1138 H   0  0  0  0  0  0  0  0  0  0  0  0
  1 21  1  0  0  0  0
  1 10  1  0  0  0  0
  2 20  1  0  0  0  0
  3 11  1  0  0  0  0
  4 12  1  0  0  0  0
  7 19  2  0  0  0  0
  8  7  1  0  0  0  0
  9  7  1  0  0  0  0
  9  4  1  0  0  0  0
 10  6  2  0  0  0  0
 11  9  2  0  0  0  0
 12 16  2  0  0  0  0
 12 13  1  0  0  0  0
 14 25  1  0  0  0  0
 14 17  2  0  0  0  0
 15 14  1  0  0  0  0
 16 10  1  0  0  0  0
 17  3  1  0  0  0  0
 18 17  1  0  0  0  0
 19 20  1  0  0  0  0
 19 16  1  0  0  0  0
 20  5  2  0  0  0  0
 21 24  1  0  0  0  0
 22 21  1  0  0  0  0
 23 21  1  0  0  0  0
 25 27  2  0  0  0  0
 26 25  1  0  0  0  0
 27 28  1  0  0  0  0
 27 11  1  0  0  0  0
 29  2  1  0  0  0  0
 29 31  1  0  0  0  0
 29 32  1  0  0  0  0
 30 29  1  0  0  0  0
M  END
