5,6
q = 0.0, confidence = 1.0

 22 23  0  0  1  0  0  0  0  0999 V2000
    5.9705    0.7473    1.7384 O   0  0  0  0  0  0  0  0  0  0  0  0
    6.1311    1.3756    2.4696 H   0  0  0  0  0  0  0  0  0  0  0  0
    3.4851   -3.5037   -3.5306 O   0  0  0  0  0  0  0  0  0  0  0  0
    2.9998   -3.9543   -4.2492 H   0  0  0  0  0  0  0  0  0  0  0  0
    1.9538    0.3791    0.8166 N   0  0  0  0  0  2  0  0  0  0  0  0
    1.0673   -0.9990   -1.2929 N   0  0  0  0  0  2  0  0  0  0  0  0
    2.3309    1.1980    1.8157 C   0  0  0  0  0  3  0  0  0  0  0  0
    1.5205    1.7533    2.3124 H   0  0  0  0  0  0  0  0  0  0  0  0
    3.6646    1.3678    2.1880 C   0  0  0  0  0  0  0  0  0  0  0  0
    3.9240    2.0552    3.0071 H   0  0  0  0  0  0  0  0  0  0  0  0
    4.6590    0.6614    1.4790 C   0  0  0  0  0  0  0  0  0  0  0  0
    4.2588   -0.1833    0.4203 C   0  0  0  0  0  0  0  0  0  0  0  0
    5.0347   -0.7109   -0.1485 H   0  0  0  0  0  0  0  0  0  0  0  0
    2.8999   -0.2938    0.1130 C   0  0  0  0  0  0  0  0  0  0  0  0
    2.3921   -1.1244   -1.0180 C   0  0  2  0  0  3  0  0  0  0  0  0
    3.2146   -1.9718   -1.7669 C   0  0  0  0  0  0  0  0  0  0  0  0
    4.2837   -2.0894   -1.5498 H   0  0  0  0  0  0  0  0  0  0  0  0
    2.6619   -2.7059   -2.8378 C   0  0  0  0  0  0  0  0  0  0  0  0
    1.2843   -2.5600   -3.1132 C   0  0  0  0  0  0  0  0  0  0  0  0
    0.8039   -3.1071   -3.9383 H   0  0  0  0  0  0  0  0  0  0  0  0
    0.5375   -1.6980   -2.3102 C   0  0  0  0  0  0  0  0  0  0  0  0
   -0.5402   -1.5540   -2.4895 H   0  0  0  0  0  0  0  0  0  0  0  0
  1  2  1  0  0  0  0
  3 18  1  0  0  0  0
  4  3  1  0  0  0  0
  5  7  1  0  0  0  0
  6 15  1  0  0  0  0
  7  9  1  0  0  0  0
  7  8  1  0  0  0  0
  9 10  1  0  0  0  0
 11  1  1  0  0  0  0
 11  9  2  0  0  0  0
 12 11  1  0  0  0  0
 13 12  1  0  0  0  0
 14 12  2  0  0  0  0
 14  5  1  0  0  0  0
 15 14  1  6  0  0  0
 16 17  1  0  0  0  0
 16 15  1  0  0  0  0
 18 16  2  0  0  0  0
 19 18  1  0  0  0  0
 19 21  2  0  0  0  0
 20 19  1  0  0  0  0
 21  6  1  0  0  0  0
 22 21  1  0  0  0  0
M  END
