10,11
q = 0.0, confidence = 1.0

 24 24  0  0  0  0  0  0  0  0999 V2000
   -2.3258    1.4274   -0.4184 C   0  0  0  0  0  0  0  0  0  0  0  0
   -1.1279    2.9088    0.9849 C   0  0  0  0  0  0  0  0  0  0  0  0
    0.0851    3.3419    0.1469 C   0  0  0  0  0  0  0  0  0  0  0  0
    0.7000    3.2879   -2.1416 C   0  0  0  0  0  0  0  0  0  0  0  0
   -2.5582    0.0880   -0.9423 C   0  0  0  0  0  0  0  0  0  0  0  0
   -3.4010   -0.1737   -2.0348 C   0  0  0  0  0  0  0  0  0  0  0  0
   -3.5300   -1.4913   -2.4918 C   0  0  0  0  0  0  0  0  0  0  0  0
   -2.8102   -2.5037   -1.8434 C   0  0  0  0  0  0  0  0  0  0  0  0
   -1.9854   -2.1718   -0.7587 C   0  0  0  0  0  0  0  0  0  0  0  0
   -1.5215    1.5651    0.5914 N   0  0  0  0  0  2  0  0  0  0  0  0
   -1.8680   -0.9091   -0.3121 N   0  0  0  0  0  2  0  0  0  0  0  0
   -0.3388    3.4683   -1.1872 O   0  0  0  0  0  0  0  0  0  0  0  0
   -2.8049    2.2994   -0.8980 H   0  0  0  0  0  0  0  0  0  0  0  0
   -3.9334    0.6571   -2.5192 H   0  0  0  0  0  0  0  0  0  0  0  0
   -4.1783   -1.7240   -3.3492 H   0  0  0  0  0  0  0  0  0  0  0  0
   -2.8688   -3.5499   -2.1741 H   0  0  0  0  0  0  0  0  0  0  0  0
   -1.3844   -2.9335   -0.2443 H   0  0  0  0  0  0  0  0  0  0  0  0
   -1.9563    3.6279    0.8063 H   0  0  0  0  0  0  0  0  0  0  0  0
   -0.8691    2.9179    2.0604 H   0  0  0  0  0  0  0  0  0  0  0  0
    0.4584    4.3134    0.5562 H   0  0  0  0  0  0  0  0  0  0  0  0
    0.8947    2.5839    0.2441 H   0  0  0  0  0  0  0  0  0  0  0  0
    1.4940    4.0635   -2.0327 H   0  0  0  0  0  0  0  0  0  0  0  0
    1.1575    2.2780   -2.0647 H   0  0  0  0  0  0  0  0  0  0  0  0
    0.2404    3.3972   -3.1427 H   0  0  0  0  0  0  0  0  0  0  0  0
  1 10  1  0  0  0  0
  2 19  1  0  0  0  0
  3 21  1  0  0  0  0
  3 20  1  0  0  0  0
  3  2  1  0  0  0  0
  4 23  1  0  0  0  0
  4 22  1  0  0  0  0
  4 12  1  0  0  0  0
  5  1  2  0  0  0  0
  5 11  1  0  0  0  0
  6  5  1  0  0  0  0
  7  6  2  0  0  0  0
  7  8  1  0  0  0  0
  8  9  2  0  0  0  0
  9 11  1  0  0  0  0
  9 17  1  0  0  0  0
 10  2  1  0  0  0  0
 12  3  1  0  0  0  0
 13  1  1  0  0  0  0
 14  6  1  0  0  0  0
 15  7  1  0  0  0  0
 16  8  1  0  0  0  0
 18  2  1  0  0  0  0
 24  4  1  0  0  0  0
M  END
