35,37
q = 0.0, confidence = 0.994

 39 42  0  0  1  0  0  0  0  0999 V2000
    0.0746   -2.9208   -0.6332 C   0  0  0  0  0  3  0  0  0  0  0  0
   -1.0227   -2.8736   -0.5359 H   0  0  0  0  0  0  0  0  0  0  0  0
    0.7710   -4.1112   -0.8786 C   0  0  0  0  0  0  0  0  0  0  0  0
    0.2261   -5.0554   -1.0167 H   0  0  0  0  0  0  0  0  0  0  0  0
    2.1722   -4.0532   -0.9290 C   0  0  0  0  0  0  0  0  0  0  0  0
    2.7798   -4.9576   -1.1039 H   0  0  0  0  0  0  0  0  0  0  0  0
    2.1053   -1.8109   -0.5493 C   0  0  0  0  0  0  0  0  0  0  0  0
    2.6744   -0.4890   -0.4175 C   0  0  2  0  0  3  0  0  0  0  0  0
    3.8323    1.3623   -0.2808 C   0  0  0  0  0  0  0  0  0  0  0  0
    4.9204    2.3422   -0.2016 C   0  0  0  0  0  0  0  0  0  0  0  0
    4.6927    3.6309   -0.7383 C   0  0  0  0  0  0  0  0  0  0  0  0
    3.7268    3.8408   -1.2198 H   0  0  0  0  0  0  0  0  0  0  0  0
    5.6861    4.6133   -0.6618 C   0  0  0  0  0  0  0  0  0  0  0  0
    5.5004    5.6104   -1.0888 H   0  0  0  0  0  0  0  0  0  0  0  0
    6.9168    4.3268   -0.0480 C   0  0  0  0  0  0  0  0  0  0  0  0
    7.6986    5.0992    0.0095 H   0  0  0  0  0  0  0  0  0  0  0  0
    7.1438    3.0535    0.4978 C   0  0  0  0  0  0  0  0  0  0  0  0
    8.0993    2.8282    0.9947 H   0  0  0  0  0  0  0  0  0  0  0  0
    6.1555    2.0631    0.4266 C   0  0  0  0  0  0  0  0  0  0  0  0
    6.3363    1.0800    0.8806 H   0  0  0  0  0  0  0  0  0  0  0  0
    5.1548   -0.8111   -0.3472 C   0  0  0  0  0  0  0  0  0  0  0  0
    5.4108   -1.6028    0.7841 C   0  0  0  0  0  0  0  0  0  0  0  0
    4.6893   -1.6052    1.6197 H   0  0  0  0  0  0  0  0  0  0  0  0
    6.5897   -2.3540    0.8269 C   0  0  0  0  0  0  0  0  0  0  0  0
    6.7966   -2.9733    1.7138 H   0  0  0  0  0  0  0  0  0  0  0  0
    7.5184   -2.3307   -0.2371 C   0  0  0  0  0  0  0  0  0  0  0  0
    7.2289   -1.5255   -1.3570 C   0  0  0  0  0  0  0  0  0  0  0  0
    7.9388   -1.4914   -2.1978 H   0  0  0  0  0  0  0  0  0  0  0  0
    6.0512   -0.7686   -1.4223 C   0  0  0  0  0  0  0  0  0  0  0  0
    5.8288   -0.1415   -2.2975 H   0  0  0  0  0  0  0  0  0  0  0  0
    8.7740   -3.1627   -0.1766 C   0  0  0  0  0  0  0  0  0  0  0  0
    9.2855   -3.0533    0.8011 H   0  0  0  0  0  0  0  0  0  0  0  0
    8.5402   -4.2420   -0.2967 H   0  0  0  0  0  0  0  0  0  0  0  0
    9.4897   -2.8854   -0.9742 H   0  0  0  0  0  0  0  0  0  0  0  0
    0.7334   -1.7581   -0.4563 N   0  0  0  0  0  2  0  0  0  0  0  0
    2.8407   -2.9008   -0.7698 N   0  0  0  0  0  0  0  0  0  0  0  0
    1.8292    0.5466   -0.3410 N   0  0  0  0  0  2  0  0  0  0  0  0
    2.5366    1.6911   -0.2702 N   0  0  0  0  0  0  0  0  0  0  0  0
    3.9599   -0.0168   -0.3784 N   0  0  0  0  0  0  0  0  0  0  0  0
  1  2  1  0  0  0  0
  1 35  1  0  0  0  0
  3  1  1  0  0  0  0
  4  3  1  0  0  0  0
  5  3  2  0  0  0  0
  5 36  1  0  0  0  0
  6  5  1  0  0  0  0
  7 35  1  0  0  0  0
  8  7  1  6  0  0  0
  8 39  1  0  0  0  0
  8 37  1  0  0  0  0
  9 38  2  0  0  0  0
  9 10  1  0  0  0  0
 10 19  1  0  0  0  0
 11 13  1  0  0  0  0
 11 10  2  0  0  0  0
 12 11  1  0  0  0  0
 13 15  2  0  0  0  0
 14 13  1  0  0  0  0
 15 16  1  0  0  0  0
 15 17  1  0  0  0  0
 17 18  1  0  0  0  0
 19 17  2  0  0  0  0
 19 20  1  0  0  0  0
 21 22  1  0  0  0  0
 22 24  2  0  0  0  0
 22 23  1  0  0  0  0
 24 25  1  0  0  0  0
 26 31  1  0  0  0  0
 26 24  1  0  0  0  0
 27 26  2  0  0  0  0
 28 27  1  0  0  0  0
 29 27  1  0  0  0  0
 29 21  2  0  0  0  0
 30 29  1  0  0  0  0
 31 32  1  0  0  0  0
 33 31  1  0  0  0  0
 34 31  1  0  0  0  0
 36  7  2  0  0  0  0
 37 38  1  0  0  0  0
 39 21  1  0  0  0  0
 39  9  1  0  0  0  0
M  END
