1,6
q = 0.0, confidence = 0.938

 60 66  0  0  0  0  0  0  0  0999 V2000
    1.3136    1.3333   -0.1005 N   0  0  0  0  0  2  0  0  0  0  0  0
   -1.1202    2.7921   -0.1852 N   0  0  0  0  0  0  0  0  0  0  0  0
   -3.5283    1.4209    0.0520 N   0  0  0  0  0  0  0  0  0  0  0  0
   -3.5283   -1.4209    0.0521 N   0  0  0  0  0  0  0  0  0  0  0  0
   -1.1202   -2.7921   -0.1851 N   0  0  0  0  0  0  0  0  0  0  0  0
    1.3136   -1.3333   -0.1003 N   0  0  0  0  0  2  0  0  0  0  0  0
    1.3350    2.6847   -0.3214 C   0  0  0  0  0  0  0  0  0  0  0  0
    2.5392    3.3891   -0.5710 C   0  0  0  0  0  0  0  0  0  0  0  0
    2.5399    4.7662   -0.7677 C   0  0  0  0  0  0  0  0  0  0  0  0
    1.2994    5.5043   -0.7221 C   0  0  0  0  0  0  0  0  0  0  0  0
    0.1095    4.8190   -0.5143 C   0  0  0  0  0  0  0  0  0  0  0  0
    0.0766    3.4084   -0.3307 C   0  0  0  0  0  0  0  0  0  0  0  0
   -1.1190    1.4657   -0.0895 C   0  0  0  0  0  0  0  0  0  0  0  0
   -2.3957    0.7246   -0.0066 C   0  0  0  0  0  0  0  0  0  0  0  0
   -4.6863    0.7229    0.1193 C   0  0  0  0  0  0  0  0  0  0  0  0
   -5.9307    1.4108    0.1919 C   0  0  0  0  0  0  0  0  0  0  0  0
   -7.1361    0.7240    0.2628 C   0  0  0  0  0  0  0  0  0  0  0  0
   -7.1361   -0.7240    0.2628 C   0  0  0  0  0  0  0  0  0  0  0  0
   -5.9307   -1.4109    0.1920 C   0  0  0  0  0  0  0  0  0  0  0  0
   -4.6863   -0.7229    0.1194 C   0  0  0  0  0  0  0  0  0  0  0  0
   -2.3957   -0.7246   -0.0065 C   0  0  0  0  0  0  0  0  0  0  0  0
   -1.1190   -1.4657   -0.0894 C   0  0  0  0  0  0  0  0  0  0  0  0
    0.0767   -3.4084   -0.3307 C   0  0  0  0  0  0  0  0  0  0  0  0
    0.1095   -4.8189   -0.5143 C   0  0  0  0  0  0  0  0  0  0  0  0
    1.2994   -5.5043   -0.7221 C   0  0  0  0  0  0  0  0  0  0  0  0
    2.5399   -4.7661   -0.7678 C   0  0  0  0  0  0  0  0  0  0  0  0
    2.5392   -3.3891   -0.5710 C   0  0  0  0  0  0  0  0  0  0  0  0
    1.3350   -2.6847   -0.3214 C   0  0  0  0  0  0  0  0  0  0  0  0
    0.1059   -0.7219   -0.0553 C   0  0  0  0  0  0  0  0  0  0  0  0
    0.1059    0.7219   -0.0554 C   0  0  0  0  0  0  0  0  0  0  0  0
    3.8354    5.4854   -1.0240 C   0  0  0  0  0  0  0  0  0  0  0  0
    1.3037    6.9952   -0.9178 C   0  0  0  0  0  0  0  0  0  0  0  0
   -8.4399    1.4713    0.3401 C   0  0  0  0  0  0  0  0  0  0  0  0
   -8.4399   -1.4713    0.3402 C   0  0  0  0  0  0  0  0  0  0  0  0
    1.3037   -6.9951   -0.9179 C   0  0  0  0  0  0  0  0  0  0  0  0
    3.8353   -5.4853   -1.0242 C   0  0  0  0  0  0  0  0  0  0  0  0
    3.4779    2.8208   -0.5793 H   0  0  0  0  0  0  0  0  0  0  0  0
   -0.8591    5.3398   -0.5026 H   0  0  0  0  0  0  0  0  0  0  0  0
   -5.8987    2.5107    0.1904 H   0  0  0  0  0  0  0  0  0  0  0  0
   -5.8986   -2.5107    0.1905 H   0  0  0  0  0  0  0  0  0  0  0  0
   -0.8591   -5.3398   -0.5025 H   0  0  0  0  0  0  0  0  0  0  0  0
    3.4779   -2.8207   -0.5794 H   0  0  0  0  0  0  0  0  0  0  0  0
    4.6919    4.7867   -1.0099 H   0  0  0  0  0  0  0  0  0  0  0  0
    3.8254    6.0081   -2.0040 H   0  0  0  0  0  0  0  0  0  0  0  0
    4.0186    6.2667   -0.2564 H   0  0  0  0  0  0  0  0  0  0  0  0
    0.2815    7.4141   -0.8658 H   0  0  0  0  0  0  0  0  0  0  0  0
    1.9234    7.5000   -0.1469 H   0  0  0  0  0  0  0  0  0  0  0  0
    1.7427    7.2741   -1.8988 H   0  0  0  0  0  0  0  0  0  0  0  0
   -8.2795    2.5655    0.3304 H   0  0  0  0  0  0  0  0  0  0  0  0
   -9.1068    1.2138   -0.5098 H   0  0  0  0  0  0  0  0  0  0  0  0
   -9.0012    1.2142    1.2632 H   0  0  0  0  0  0  0  0  0  0  0  0
   -8.2795   -2.5655    0.3302 H   0  0  0  0  0  0  0  0  0  0  0  0
   -9.0009   -1.2144    1.2635 H   0  0  0  0  0  0  0  0  0  0  0  0
   -9.1070   -1.2135   -0.5094 H   0  0  0  0  0  0  0  0  0  0  0  0
    0.2816   -7.4141   -0.8657 H   0  0  0  0  0  0  0  0  0  0  0  0
    1.7425   -7.2739   -1.8991 H   0  0  0  0  0  0  0  0  0  0  0  0
    1.9236   -7.5000   -0.1472 H   0  0  0  0  0  0  0  0  0  0  0  0
    4.6919   -4.7866   -1.0104 H   0  0  0  0  0  0  0  0  0  0  0  0
    4.0188   -6.2664   -0.2564 H   0  0  0  0  0  0  0  0  0  0  0  0
    3.8253   -6.0083   -2.0041 H   0  0  0  0  0  0  0  0  0  0  0  0
  1 30  1  0  0  0  0
  2 13  2  0  0  0  0
  3 15  1  0  0  0  0
  4 20  1  0  0  0  0
  5 22  2  0  0  0  0
  6 29  1  0  0  0  0
  7  1  1  0  0  0  0
  8  7  2  0  0  0  0
  9 10  2  0  0  0  0
  9  8  1  0  0  0  0
 10 11  1  0  0  0  0
 11 38  1  0  0  0  0
 11 12  2  0  0  0  0
 12  7  1  0  0  0  0
 12  2  1  0  0  0  0
 13 30  1  0  0  0  0
 13 14  1  0  0  0  0
 14 21  1  0  0  0  0
 14  3  2  0  0  0  0
 15 20  2  0  0  0  0
 15 16  1  0  0  0  0
 16 17  2  0  0  0  0
 17 18  1  0  0  0  0
 17 33  1  0  0  0  0
 18 34  1  0  0  0  0
 19 18  2  0  0  0  0
 20 19  1  0  0  0  0
 21  4  2  0  0  0  0
 22 29  1  0  0  0  0
 22 21  1  0  0  0  0
 23 28  1  0  0  0  0
 23  5  1  0  0  0  0
 24 41  1  0  0  0  0
 24 23  2  0  0  0  0
 25 24  1  0  0  0  0
 26 25  2  0  0  0  0
 26 27  1  0  0  0  0
 27 28  2  0  0  0  0
 28  6  1  0  0  0  0
 30 29  2  0  0  0  0
 31 43  1  0  0  0  0
 31  9  1  0  0  0  0
 31 45  1  0  0  0  0
 32 46  1  0  0  0  0
 32 10  1  0  0  0  0
 32 47  1  0  0  0  0
 33 51  1  0  0  0  0
 34 53  1  0  0  0  0
 35 55  1  0  0  0  0
 35 25  1  0  0  0  0
 35 57  1  0  0  0  0
 36 58  1  0  0  0  0
 36 26  1  0  0  0  0
 36 59  1  0  0  0  0
 37  8  1  0  0  0  0
 39 16  1  0  0  0  0
 40 19  1  0  0  0  0
 42 27  1  0  0  0  0
 44 31  1  0  0  0  0
 48 32  1  0  0  0  0
 49 33  1  0  0  0  0
 50 33  1  0  0  0  0
 52 34  1  0  0  0  0
 54 34  1  0  0  0  0
 56 35  1  0  0  0  0
 60 36  1  0  0  0  0
M  END
