2,16
q = 0.0, confidence = 1.0

 29 30  0  0  0  0  0  0  0  0999 V2000
   -0.0019    3.2554    0.0007 S   0  0  0  0  0  0  0  0  0  0  0  0
    1.7009    0.0408    0.0782 N   0  0  0  0  0  2  0  0  0  0  0  0
    3.8303    0.5701   -0.0639 N   0  0  0  0  0  0  0  0  0  0  0  0
    4.8263    0.4920   -0.2732 H   0  0  0  0  0  0  0  0  0  0  0  0
    2.8935   -0.3761   -0.3395 C   0  0  0  0  0  3  0  0  0  0  0  0
    3.0855   -1.3487   -0.8089 H   0  0  0  0  0  0  0  0  0  0  0  0
    3.2194    1.6452    0.5646 C   0  0  0  0  0  0  0  0  0  0  0  0
    3.9483    2.8756    0.9809 C   0  0  0  0  0  0  0  0  0  0  0  0
    3.2499    3.5819    1.4657 H   0  0  0  0  0  0  0  0  0  0  0  0
    4.7649    2.6570    1.7010 H   0  0  0  0  0  0  0  0  0  0  0  0
    4.3953    3.4039    0.1122 H   0  0  0  0  0  0  0  0  0  0  0  0
    1.8770    1.2897    0.6549 C   0  0  0  0  0  0  0  0  0  0  0  0
    0.7334    2.0678    1.2076 C   0  0  0  0  0  0  0  0  0  0  0  0
   -0.0476    1.3784    1.5877 H   0  0  0  0  0  0  0  0  0  0  0  0
    1.0532    2.7050    2.0550 H   0  0  0  0  0  0  0  0  0  0  0  0
   -1.7010    0.0394   -0.0777 N   0  0  0  0  0  2  0  0  0  0  0  0
   -3.8311    0.5661    0.0641 N   0  0  0  0  0  0  0  0  0  0  0  0
   -4.8271    0.4868    0.2732 H   0  0  0  0  0  0  0  0  0  0  0  0
   -2.8932   -0.3789    0.3399 C   0  0  0  0  0  3  0  0  0  0  0  0
   -3.0841   -1.3518    0.8092 H   0  0  0  0  0  0  0  0  0  0  0  0
   -3.2214    1.6418   -0.5645 C   0  0  0  0  0  0  0  0  0  0  0  0
   -3.9518    2.8714   -0.9809 C   0  0  0  0  0  0  0  0  0  0  0  0
   -3.2550    3.5769   -1.4693 H   0  0  0  0  0  0  0  0  0  0  0  0
   -4.7706    2.6512   -1.6980 H   0  0  0  0  0  0  0  0  0  0  0  0
   -4.3962    3.4013   -0.1118 H   0  0  0  0  0  0  0  0  0  0  0  0
   -1.8786    1.2880   -0.6545 C   0  0  0  0  0  0  0  0  0  0  0  0
   -0.7358    2.0675   -1.2069 C   0  0  0  0  0  0  0  0  0  0  0  0
    0.0460    1.3791   -1.5872 H   0  0  0  0  0  0  0  0  0  0  0  0
   -1.0562    2.7047   -2.0541 H   0  0  0  0  0  0  0  0  0  0  0  0
  1 13  1  0  0  0  0
  2 12  1  0  0  0  0
  3  7  1  0  0  0  0
  4  3  1  0  0  0  0
  5  3  1  0  0  0  0
  5  2  1  0  0  0  0
  6  5  1  0  0  0  0
  7 12  2  0  0  0  0
  7  8  1  0  0  0  0
  8  9  1  0  0  0  0
  8 10  1  0  0  0  0
 11  8  1  0  0  0  0
 12 13  1  0  0  0  0
 13 14  1  0  0  0  0
 13 15  1  0  0  0  0
 16 19  1  0  0  0  0
 17 18  1  0  0  0  0
 17 19  1  0  0  0  0
 19 20  1  0  0  0  0
 21 17  1  0  0  0  0
 22 21  1  0  0  0  0
 22 25  1  0  0  0  0
 23 22  1  0  0  0  0
 24 22  1  0  0  0  0
 26 21  2  0  0  0  0
 26 16  1  0  0  0  0
 27 26  1  0  0  0  0
 27  1  1  0  0  0  0
 28 27  1  0  0  0  0
 29 27  1  0  0  0  0
M  END
