2,19
q = 0.0, confidence = 0.994

 35 38  0  0  1  0  0  0  0  0999 V2000
    0.2259    3.6009   -0.2242 S   0  0  0  0  0  0  0  0  0  0  0  0
   -1.5092    0.4459   -0.5990 N   0  0  0  0  0  2  0  0  0  0  0  0
   -2.7533    2.0798   -1.4672 N   0  0  0  0  0  0  0  0  0  0  0  0
   -2.9822    2.9735   -1.9015 H   0  0  0  0  0  0  0  0  0  0  0  0
   -2.8495    0.1021   -0.4461 C   0  0  0  0  0  0  0  0  0  0  0  0
   -3.4383   -1.0418    0.1232 C   0  0  0  0  0  0  0  0  0  0  0  0
   -2.8125   -1.8391    0.5469 H   0  0  0  0  0  0  0  0  0  0  0  0
   -4.8348   -1.1052    0.1256 C   0  0  0  0  0  0  0  0  0  0  0  0
   -5.3309   -1.9836    0.5638 H   0  0  0  0  0  0  0  0  0  0  0  0
   -5.6304   -0.0674   -0.4209 C   0  0  0  0  0  0  0  0  0  0  0  0
   -6.7263   -0.1614   -0.3952 H   0  0  0  0  0  0  0  0  0  0  0  0
   -5.0588    1.0754   -0.9938 C   0  0  0  0  0  0  0  0  0  0  0  0
   -5.6785    1.8780   -1.4188 H   0  0  0  0  0  0  0  0  0  0  0  0
   -3.6568    1.1381   -0.9939 C   0  0  0  0  0  0  0  0  0  0  0  0
   -1.4824    1.6260   -1.2141 C   0  0  1  0  0  3  0  0  0  0  0  0
   -0.2537    2.3980   -1.5398 C   0  0  0  0  0  0  0  0  0  0  0  0
   -0.3946    3.0171   -2.4476 H   0  0  0  0  0  0  0  0  0  0  0  0
    0.5824    1.6965   -1.7284 H   0  0  0  0  0  0  0  0  0  0  0  0
    1.7352    0.3498    0.1236 N   0  0  0  0  0  2  0  0  0  0  0  0
    3.1832    1.9657    0.6324 N   0  0  0  0  0  0  0  0  0  0  0  0
    3.5214    2.8746    0.9479 H   0  0  0  0  0  0  0  0  0  0  0  0
    3.0081   -0.0721   -0.2570 C   0  0  0  0  0  0  0  0  0  0  0  0
    3.4348   -1.2731   -0.8525 C   0  0  0  0  0  0  0  0  0  0  0  0
    2.7011   -2.0600   -1.0890 H   0  0  0  0  0  0  0  0  0  0  0  0
    4.8026   -1.4014   -1.1169 C   0  0  0  0  0  0  0  0  0  0  0  0
    5.1736   -2.3267   -1.5819 H   0  0  0  0  0  0  0  0  0  0  0  0
    5.7253   -0.3740   -0.7994 C   0  0  0  0  0  0  0  0  0  0  0  0
    6.7921   -0.5212   -1.0248 H   0  0  0  0  0  0  0  0  0  0  0  0
    5.3152    0.8247   -0.2020 C   0  0  0  0  0  0  0  0  0  0  0  0
    6.0334    1.6191    0.0472 H   0  0  0  0  0  0  0  0  0  0  0  0
    3.9431    0.9548    0.0602 C   0  0  0  0  0  0  0  0  0  0  0  0
    1.8723    1.5662    0.6567 C   0  0  1  0  0  3  0  0  0  0  0  0
    0.7428    2.4221    1.1028 C   0  0  0  0  0  0  0  0  0  0  0  0
    1.0299    3.0685    1.9554 H   0  0  0  0  0  0  0  0  0  0  0  0
   -0.0974    1.7752    1.4385 H   0  0  0  0  0  0  0  0  0  0  0  0
  1 33  1  0  0  0  0
  2  5  1  0  0  0  0
  3 15  1  0  0  0  0
  3 14  1  0  0  0  0
  4  3  1  0  0  0  0
  5  6  1  0  0  0  0
  6  8  2  0  0  0  0
  6  7  1  0  0  0  0
  8  9  1  0  0  0  0
 10 11  1  0  0  0  0
 10  8  1  0  0  0  0
 12 10  2  0  0  0  0
 13 12  1  0  0  0  0
 14 12  1  0  0  0  0
 14  5  2  0  0  0  0
 15 16  1  1  0  0  0
 15  2  1  0  0  0  0
 16  1  1  0  0  0  0
 17 16  1  0  0  0  0
 18 16  1  0  0  0  0
 19 32  1  0  0  0  0
 20 32  1  0  0  0  0
 20 21  1  0  0  0  0
 22 31  1  0  0  0  0
 22 19  1  0  0  0  0
 23 22  2  0  0  0  0
 24 23  1  0  0  0  0
 25 23  1  0  0  0  0
 25 27  2  0  0  0  0
 26 25  1  0  0  0  0
 27 29  1  0  0  0  0
 28 27  1  0  0  0  0
 29 30  1  0  0  0  0
 29 31  2  0  0  0  0
 31 20  1  0  0  0  0
 32 33  1  6  0  0  0
 33 35  1  0  0  0  0
 33 34  1  0  0  0  0
M  END
