1,2
q = 0.0, confidence = 1.0

 36 40  0  0  0  0  0  0  0  0999 V2000
    0.6795   -0.8370    0.0991 N   0  0  0  0  0  2  0  0  0  0  0  0
   -0.6187    1.3981   -0.1217 N   0  0  0  0  0  2  0  0  0  0  0  0
    3.8712    1.0812    0.0430 N   0  0  0  0  0  0  0  0  0  0  0  0
    3.7456    2.0832   -0.0848 H   0  0  0  0  0  0  0  0  0  0  0  0
    1.2275   -2.0688   -0.0165 C   0  0  0  0  0  0  0  0  0  0  0  0
    0.5206   -2.9025   -0.1095 H   0  0  0  0  0  0  0  0  0  0  0  0
    2.6083   -2.2780   -0.0411 C   0  0  0  0  0  0  0  0  0  0  0  0
    3.0036   -3.2991   -0.1309 H   0  0  0  0  0  0  0  0  0  0  0  0
    3.4522   -1.1613    0.0127 C   0  0  0  0  0  0  0  0  0  0  0  0
    4.8832   -0.9739   -0.0615 C   0  0  0  0  0  0  0  0  0  0  0  0
    5.9807   -1.8541   -0.1509 C   0  0  0  0  0  3  0  0  0  0  0  0
    5.8287   -2.9435   -0.1535 H   0  0  0  0  0  0  0  0  0  0  0  0
    7.2656   -1.3115   -0.2380 C   0  0  0  0  0  0  0  0  0  0  0  0
    8.1364   -1.9789   -0.3080 H   0  0  0  0  0  0  0  0  0  0  0  0
    7.4647    0.0896   -0.2398 C   0  0  0  0  0  0  0  0  0  0  0  0
    8.4879    0.4869   -0.3123 H   0  0  0  0  0  0  0  0  0  0  0  0
    6.3918    0.9862   -0.1509 C   0  0  0  0  0  0  0  0  0  0  0  0
    6.5569    2.0733   -0.1532 H   0  0  0  0  0  0  0  0  0  0  0  0
    5.1054    0.4361   -0.0591 C   0  0  0  0  0  0  0  0  0  0  0  0
    2.8588    0.1483    0.0872 C   0  0  0  0  0  0  0  0  0  0  0  0
    1.4543    0.2899    0.1580 C   0  0  0  0  0  0  0  0  0  0  0  0
    0.6984    1.5399    0.1696 C   0  0  0  0  0  0  0  0  0  0  0  0
    1.2509    2.8204    0.4506 C   0  0  0  0  0  0  0  0  0  0  0  0
    2.2751    2.9015    0.8351 H   0  0  0  0  0  0  0  0  0  0  0  0
    0.4634    3.9502    0.3266 C   0  0  0  0  0  0  0  0  0  0  0  0
    0.8610    4.9433    0.5840 H   0  0  0  0  0  0  0  0  0  0  0  0
   -0.8641    3.8324   -0.1677 C   0  0  0  0  0  0  0  0  0  0  0  0
   -1.6910    4.9604   -0.4330 C   0  0  0  0  0  3  0  0  0  0  0  0
   -1.2980    5.9654   -0.2174 H   0  0  0  0  0  0  0  0  0  0  0  0
   -2.9557    4.7944   -0.9769 C   0  0  0  0  0  0  0  0  0  0  0  0
   -3.5846    5.6709   -1.1907 H   0  0  0  0  0  0  0  0  0  0  0  0
   -3.4279    3.4926   -1.2928 C   0  0  0  0  0  0  0  0  0  0  0  0
   -4.4060    3.3745   -1.7824 H   0  0  0  0  0  0  0  0  0  0  0  0
   -2.6641    2.3675   -1.0139 C   0  0  0  0  0  0  0  0  0  0  0  0
   -2.9897    1.3611   -1.3072 H   0  0  0  0  0  0  0  0  0  0  0  0
   -1.3801    2.5087   -0.4186 C   0  0  0  0  0  0  0  0  0  0  0  0
  1 21  1  0  0  0  0
  2 22  1  0  0  0  0
  3 20  1  0  0  0  0
  4  3  1  0  0  0  0
  5  1  1  0  0  0  0
  6  5  1  0  0  0  0
  7  5  2  0  0  0  0
  7  9  1  0  0  0  0
  8  7  1  0  0  0  0
  9 20  1  0  0  0  0
 10 19  1  0  0  0  0
 10  9  2  0  0  0  0
 11 10  1  0  0  0  0
 12 11  1  0  0  0  0
 13 11  1  0  0  0  0
 14 13  1  0  0  0  0
 15 13  2  0  0  0  0
 15 17  1  0  0  0  0
 16 15  1  0  0  0  0
 17 19  2  0  0  0  0
 18 17  1  0  0  0  0
 19  3  1  0  0  0  0
 20 21  2  0  0  0  0
 21 22  1  0  0  0  0
 22 23  2  0  0  0  0
 23 24  1  0  0  0  0
 25 23  1  0  0  0  0
 25 26  1  0  0  0  0
 27 25  2  0  0  0  0
 28 29  1  0  0  0  0
 28 27  1  0  0  0  0
 30 28  1  0  0  0  0
 31 30  1  0  0  0  0
 32 34  1  0  0  0  0
 32 30  2  0  0  0  0
 33 32  1  0  0  0  0
 34 36  2  0  0  0  0
 35 34  1  0  0  0  0
 36 27  1  0  0  0  0
 36  2  1  0  0  0  0
M  END
