3,4
q = 0.0, confidence = 0.986

 29 29  0  0  0  0  0  0  0  0999 V2000
   -3.0697    1.3090   -0.9545 O   0  0  0  0  0  0  0  0  0  0  0  0
   -3.6194   -0.3807    0.4658 O   0  0  0  0  0  0  0  0  0  0  0  0
    1.5898    1.3246    0.1648 N   0  0  0  0  0  2  0  0  0  0  0  0
   -0.2017    0.2227   -1.4379 N   0  0  0  0  0  2  0  0  0  0  0  0
    2.5154    1.8633    0.9914 C   0  0  0  0  0  3  0  0  0  0  0  0
    3.0242    1.1591    1.6661 H   0  0  0  0  0  0  0  0  0  0  0  0
    2.8180    3.2278    1.0027 C   0  0  0  0  0  0  0  0  0  0  0  0
    3.5808    3.6051    1.6984 H   0  0  0  0  0  0  0  0  0  0  0  0
    2.1386    4.0921    0.1238 C   0  0  0  0  0  0  0  0  0  0  0  0
    2.3553    5.1702    0.1142 H   0  0  0  0  0  0  0  0  0  0  0  0
    1.1822    3.5486   -0.7360 C   0  0  0  0  0  0  0  0  0  0  0  0
    0.6207    4.1778   -1.4418 H   0  0  0  0  0  0  0  0  0  0  0  0
    0.9278    2.1628   -0.6983 C   0  0  0  0  0  0  0  0  0  0  0  0
   -0.0428    1.5141   -1.5519 C   0  0  0  0  0  3  0  0  0  0  0  0
   -0.6440    2.1101   -2.2617 H   0  0  0  0  0  0  0  0  0  0  0  0
   -1.2100   -0.4163   -2.2822 C   0  0  0  0  0  0  0  0  0  0  0  0
   -0.7244   -1.2575   -2.8170 H   0  0  0  0  0  0  0  0  0  0  0  0
   -1.5967    0.3083   -3.0306 H   0  0  0  0  0  0  0  0  0  0  0  0
   -2.3736   -0.9640   -1.4522 C   0  0  0  0  0  0  0  0  0  0  0  0
   -3.1269   -1.4047   -2.1403 H   0  0  0  0  0  0  0  0  0  0  0  0
   -2.0485   -1.7756   -0.7756 H   0  0  0  0  0  0  0  0  0  0  0  0
   -3.0514    0.1279   -0.6461 C   0  0  0  0  0  0  0  0  0  0  0  0
   -4.2673    0.5557    1.3586 C   0  0  0  0  0  0  0  0  0  0  0  0
   -3.6969    1.5063    1.3446 H   0  0  0  0  0  0  0  0  0  0  0  0
   -4.1723    0.0910    2.3586 H   0  0  0  0  0  0  0  0  0  0  0  0
   -5.7177    0.7820    0.9679 C   0  0  0  0  0  0  0  0  0  0  0  0
   -6.2135    1.4354    1.7140 H   0  0  0  0  0  0  0  0  0  0  0  0
   -6.2731   -0.1760    0.9258 H   0  0  0  0  0  0  0  0  0  0  0  0
   -5.7845    1.2781   -0.0201 H   0  0  0  0  0  0  0  0  0  0  0  0
  1 22  2  0  0  0  0
  2 23  1  0  0  0  0
  3  5  1  0  0  0  0
  5  7  1  0  0  0  0
  5  6  1  0  0  0  0
  7  8  1  0  0  0  0
  9  7  2  0  0  0  0
 10  9  1  0  0  0  0
 11 13  2  0  0  0  0
 11  9  1  0  0  0  0
 12 11  1  0  0  0  0
 13  3  1  0  0  0  0
 14  4  1  0  0  0  0
 14 13  1  0  0  0  0
 15 14  1  0  0  0  0
 16 19  1  0  0  0  0
 16  4  1  0  0  0  0
 17 16  1  0  0  0  0
 18 16  1  0  0  0  0
 19 21  1  0  0  0  0
 19 22  1  0  0  0  0
 20 19  1  0  0  0  0
 22  2  1  0  0  0  0
 23 25  1  0  0  0  0
 24 23  1  0  0  0  0
 26 23  1  0  0  0  0
 26 27  1  0  0  0  0
 28 26  1  0  0  0  0
 29 26  1  0  0  0  0
M  END
