1,2
q = -1.0

 28 29  0  0  0  0  0  0  0  0999 V2000
   -1.6890    0.3638    1.7358 N   0  0  0  0  0  0  0  0  0  0  0  0
    0.3917    1.5396    0.6699 N   0  0  0  0  0  2  0  0  0  0  0  0
   -2.8979   -0.0450    2.2091 C   0  0  0  0  0  3  0  0  0  0  0  0
   -3.0553   -1.0931    2.4930 H   0  0  0  0  0  0  0  0  0  0  0  0
   -3.7947    1.0438    2.2603 C   0  0  0  0  0  0  0  0  0  0  0  0
   -4.8327    1.0071    2.6114 H   0  0  0  0  0  0  0  0  0  0  0  0
   -3.0923    2.1782    1.7929 C   0  0  0  0  0  0  0  0  0  0  0  0
   -3.4686    3.2031    1.6912 H   0  0  0  0  0  0  0  0  0  0  0  0
   -1.7930    1.7270    1.4721 C   0  0  0  0  0  0  0  0  0  0  0  0
   -0.6343    2.3220    0.9127 C   0  0  0  0  0  3  0  0  0  0  0  0
   -0.6091    3.4047    0.6875 H   0  0  0  0  0  0  0  0  0  0  0  0
    1.4919    2.6353   -1.2923 C   0  0  0  0  0  0  0  0  0  0  0  0
    0.7833    3.4936   -1.2818 H   0  0  0  0  0  0  0  0  0  0  0  0
    1.0401    1.8601   -1.9433 H   0  0  0  0  0  0  0  0  0  0  0  0
    2.8513    3.0882   -1.8383 C   0  0  0  0  0  0  0  0  0  0  0  0
    3.5129    2.1976   -1.9349 H   0  0  0  0  0  0  0  0  0  0  0  0
    2.7337    3.5006   -2.8620 H   0  0  0  0  0  0  0  0  0  0  0  0
    3.5134    4.1185   -0.9131 C   0  0  0  0  0  0  0  0  0  0  0  0
    2.9006    5.0483   -0.9090 H   0  0  0  0  0  0  0  0  0  0  0  0
    4.5113    4.4057   -1.3053 H   0  0  0  0  0  0  0  0  0  0  0  0
    3.6349    3.5905    0.5229 C   0  0  0  0  0  0  0  0  0  0  0  0
    4.0718    4.3640    1.1882 H   0  0  0  0  0  0  0  0  0  0  0  0
    4.3430    2.7320    0.5393 H   0  0  0  0  0  0  0  0  0  0  0  0
    2.2803    3.1271    1.0732 C   0  0  0  0  0  0  0  0  0  0  0  0
    2.3824    2.6830    2.0845 H   0  0  0  0  0  0  0  0  0  0  0  0
    1.5986    4.0018    1.1685 H   0  0  0  0  0  0  0  0  0  0  0  0
    1.6432    2.0842    0.1370 C   0  0  0  0  0  0  0  0  0  0  0  0
    2.3499    1.2326    0.0874 H   0  0  0  0  0  0  0  0  0  0  0  0
  1  3  1  0  0  0  0
  2 10  1  0  0  0  0
  3  5  1  0  0  0  0
  3  4  1  0  0  0  0
  5  6  1  0  0  0  0
  7  5  2  0  0  0  0
  8  7  1  0  0  0  0
  9  1  2  0  0  0  0
  9  7  1  0  0  0  0
 10  9  1  0  0  0  0
 11 10  1  0  0  0  0
 12 13  1  0  0  0  0
 12 27  1  0  0  0  0
 14 12  1  0  0  0  0
 15 12  1  0  0  0  0
 15 18  1  0  0  0  0
 16 15  1  0  0  0  0
 17 15  1  0  0  0  0
 18 19  1  0  0  0  0
 18 21  1  0  0  0  0
 20 18  1  0  0  0  0
 21 23  1  0  0  0  0
 21 24  1  0  0  0  0
 21 22  1  0  0  0  0
 24 26  1  0  0  0  0
 24 25  1  0  0  0  0
 27  2  1  0  0  0  0
 27 24  1  0  0  0  0
 28 27  1  0  0  0  0
M  END
