3,8
q = 0.0, confidence = 0.862

 38 38  0  0  1  0  0  0  0  0999 V2000
   -7.0856   -1.3246    0.8087 O   0  0  0  0  0  0  0  0  0  0  0  0
   -7.2335   -0.0311   -0.9504 O   0  0  0  0  0  0  0  0  0  0  0  0
    0.0254   -0.5899    0.1105 N   0  0  0  0  0  2  0  0  0  0  0  0
   -0.5378   -1.8943    0.0273 N   0  0  0  0  0  0  0  0  0  0  0  0
   -0.6665    1.7004    0.1051 N   0  0  0  0  0  0  0  0  0  0  0  0
   -1.5165    2.2528    0.2136 H   0  0  0  0  0  0  0  0  0  0  0  0
    0.4050    3.7876    0.2085 N   0  0  0  0  0  0  0  0  0  0  0  0
    1.6629    1.7765    0.1423 N   0  0  0  0  0  2  0  0  0  0  0  0
    2.5357    2.3206    0.1128 H   0  0  0  0  0  0  0  0  0  0  0  0
   -0.3643   -2.4704   -1.3037 C   0  0  0  0  0  0  0  0  0  0  0  0
   -0.8358   -1.8041   -2.0542 H   0  0  0  0  0  0  0  0  0  0  0  0
   -0.8965   -3.4415   -1.3222 H   0  0  0  0  0  0  0  0  0  0  0  0
    0.7074   -2.6262   -1.5587 H   0  0  0  0  0  0  0  0  0  0  0  0
   -0.1319   -2.7429    1.1436 C   0  0  0  0  0  0  0  0  0  0  0  0
    0.9546   -2.9792    1.1277 H   0  0  0  0  0  0  0  0  0  0  0  0
   -0.7245   -3.6775    1.0824 H   0  0  0  0  0  0  0  0  0  0  0  0
   -0.3781   -2.2348    2.0980 H   0  0  0  0  0  0  0  0  0  0  0  0
   -0.9155    0.3357    0.1039 C   0  0  1  0  0  3  0  0  0  0  0  0
   -2.3741    0.0282    0.0572 C   0  0  0  0  0  0  0  0  0  0  0  0
   -3.0009   -0.7833    1.0316 C   0  0  0  0  0  0  0  0  0  0  0  0
   -2.3994   -1.2451    1.8250 H   0  0  0  0  0  0  0  0  0  0  0  0
   -4.3809   -0.9859    0.9984 C   0  0  0  0  0  0  0  0  0  0  0  0
   -4.8966   -1.6055    1.7436 H   0  0  0  0  0  0  0  0  0  0  0  0
   -5.1351   -0.3783   -0.0189 C   0  0  0  0  0  0  0  0  0  0  0  0
   -6.6021   -0.5960   -0.0571 N   0  0  0  0  0  0  0  0  0  0  0  0
   -4.5460    0.4302   -0.9948 C   0  0  0  0  0  0  0  0  0  0  0  0
   -5.1793    0.8730   -1.7749 H   0  0  0  0  0  0  0  0  0  0  0  0
   -3.1612    0.6381   -0.9470 C   0  0  0  0  0  0  0  0  0  0  0  0
   -2.6782    1.2513   -1.7232 H   0  0  0  0  0  0  0  0  0  0  0  0
    0.5268    2.4150    0.1452 C   0  0  1  0  0  3  0  0  0  0  0  0
   -0.8366    4.4447   -0.1708 C   0  0  0  0  0  0  0  0  0  0  0  0
   -1.1317    4.2501   -1.2273 H   0  0  0  0  0  0  0  0  0  0  0  0
   -0.7104    5.5352   -0.0506 H   0  0  0  0  0  0  0  0  0  0  0  0
   -1.6826    4.1601    0.4944 H   0  0  0  0  0  0  0  0  0  0  0  0
    1.6324    4.5691    0.2563 C   0  0  0  0  0  0  0  0  0  0  0  0
    2.3026    4.1860    1.0527 H   0  0  0  0  0  0  0  0  0  0  0  0
    1.3836    5.6164    0.5051 H   0  0  0  0  0  0  0  0  0  0  0  0
    2.1915    4.5579   -0.7078 H   0  0  0  0  0  0  0  0  0  0  0  0
  2 25  2  0  0  0  0
  4  3  1  0  0  0  0
  4 14  1  0  0  0  0
  5 30  1  0  0  0  0
  5  6  1  0  0  0  0
  7 35  1  0  0  0  0
  9  8  1  0  0  0  0
 10  4  1  0  0  0  0
 11 10  1  0  0  0  0
 12 10  1  0  0  0  0
 13 10  1  0  0  0  0
 14 17  1  0  0  0  0
 15 14  1  0  0  0  0
 16 14  1  0  0  0  0
 18  5  1  0  0  0  0
 18  3  1  6  0  0  0
 19 18  1  0  0  0  0
 19 20  1  0  0  0  0
 20 21  1  0  0  0  0
 22 20  2  0  0  0  0
 22 23  1  0  0  0  0
 24 22  1  0  0  0  0
 25 24  1  0  0  0  0
 25  1  2  0  0  0  0
 26 28  1  0  0  0  0
 26 24  2  0  0  0  0
 27 26  1  0  0  0  0
 28 19  2  0  0  0  0
 29 28  1  0  0  0  0
 30  8  1  1  0  0  0
 30  7  1  0  0  0  0
 31 33  1  0  0  0  0
 31  7  1  0  0  0  0
 31 34  1  0  0  0  0
 32 31  1  0  0  0  0
 35 37  1  0  0  0  0
 35 36  1  0  0  0  0
 38 35  1  0  0  0  0
M  END
