1,17
q = 0.0, confidence = 0.996

 31 34  0  0  1  0  0  0  0  0999 V2000
   -1.2012    0.8300   -0.0149 N   0  0  0  0  0  2  0  0  0  0  0  0
    5.3824   -1.7226   -0.7136 F   0  0  0  0  0  0  0  0  0  0  0  0
   -0.0470    1.5319    0.0670 C   0  0  2  0  0  3  0  0  0  0  0  0
    2.8815   -0.7634   -0.4250 O   0  0  0  0  0  0  0  0  0  0  0  0
   -0.3124    2.8842    0.0341 N   0  0  0  0  0  0  0  0  0  0  0  0
    1.5837   -0.3540   -0.2648 C   0  0  0  0  0  0  0  0  0  0  0  0
    1.3142    1.0270    0.1146 C   0  0  0  0  0  0  0  0  0  0  0  0
    3.9347    0.0495   -0.1180 C   0  0  1  0  0  3  0  0  0  0  0  0
    3.7430    1.3747    0.3445 C   0  0  0  0  0  0  0  0  0  0  0  0
    4.8801    2.1573    0.6637 C   0  0  0  0  0  0  0  0  0  0  0  0
    4.7341    3.1851    1.0272 H   0  0  0  0  0  0  0  0  0  0  0  0
   -3.8240    4.0504   -0.4068 C   0  0  0  0  0  0  0  0  0  0  0  0
   -4.4737    4.9324   -0.5093 H   0  0  0  0  0  0  0  0  0  0  0  0
   -2.4481    4.2328   -0.2346 C   0  0  0  0  0  0  0  0  0  0  0  0
   -1.9961    5.2346   -0.2058 H   0  0  0  0  0  0  0  0  0  0  0  0
   -1.6726    3.0697   -0.1102 C   0  0  0  0  0  0  0  0  0  0  0  0
    0.6640   -1.2496   -0.4639 N   0  0  0  0  0  2  0  0  0  0  0  0
    0.9969   -2.2028   -0.6924 H   0  0  0  0  0  0  0  0  0  0  0  0
   -2.2372    1.7622   -0.1470 C   0  0  0  0  0  0  0  0  0  0  0  0
    2.3876    1.8418    0.4390 C   0  0  0  0  0  0  0  0  0  0  0  0
    2.2256    2.8721    0.7886 H   0  0  0  0  0  0  0  0  0  0  0  0
    6.1650    1.6286    0.5157 C   0  0  0  0  0  0  0  0  0  0  0  0
    7.0448    2.2385    0.7654 H   0  0  0  0  0  0  0  0  0  0  0  0
    5.2313   -0.4707   -0.2697 C   0  0  0  0  0  0  0  0  0  0  0  0
    6.3453    0.3137    0.0469 C   0  0  0  0  0  0  0  0  0  0  0  0
    7.3452   -0.1254   -0.0779 H   0  0  0  0  0  0  0  0  0  0  0  0
   -4.3960    2.7552   -0.4636 C   0  0  0  0  0  0  0  0  0  0  0  0
   -5.4812    2.6568   -0.6138 H   0  0  0  0  0  0  0  0  0  0  0  0
   -3.6230    1.5977   -0.3422 C   0  0  0  0  0  0  0  0  0  0  0  0
   -4.0533    0.5876   -0.3686 H   0  0  0  0  0  0  0  0  0  0  0  0
    0.3956    3.6129   -0.0330 H   0  0  0  0  0  0  0  0  0  0  0  0
  1  3  1  0  0  0  0
  2 24  1  0  0  0  0
  3  7  1  6  0  0  0
  4  6  1  0  0  0  0
  5  3  1  0  0  0  0
  6  7  2  0  0  0  0
  7 20  1  0  0  0  0
  8  4  1  1  0  0  0
  8  9  1  0  0  0  0
  9 20  2  0  0  0  0
  9 10  1  0  0  0  0
 10 11  1  0  0  0  0
 12 14  1  0  0  0  0
 13 12  1  0  0  0  0
 14 15  1  0  0  0  0
 14 16  2  0  0  0  0
 16  5  1  0  0  0  0
 17  6  1  0  0  0  0
 18 17  1  0  0  0  0
 19 16  1  0  0  0  0
 19  1  1  0  0  0  0
 20 21  1  0  0  0  0
 22 10  2  0  0  0  0
 22 23  1  0  0  0  0
 24  8  1  0  0  0  0
 24 25  2  0  0  0  0
 25 22  1  0  0  0  0
 26 25  1  0  0  0  0
 27 12  2  0  0  0  0
 27 29  1  0  0  0  0
 28 27  1  0  0  0  0
 29 19  2  0  0  0  0
 30 29  1  0  0  0  0
 31  5  1  0  0  0  0
M  END
