1,2
q = -1.0

 50 51  0  0  1  0  0  0  0  0999 V2000
   -1.1847   -0.5311    0.5626 N   0  0  0  0  0  2  0  0  0  0  0  0
    0.4413   -0.9999   -0.8823 N   0  0  0  0  0  2  0  0  0  0  0  0
   -2.2997   -0.5978    1.4851 C   0  0  2  0  0  0  0  0  0  0  0  0
   -2.2934   -1.5415    2.0690 H   0  0  0  0  0  0  0  0  0  0  0  0
   -3.6735   -0.5043    0.8115 C   0  0  0  0  0  0  0  0  0  0  0  0
   -4.8449   -0.7223    1.5656 C   0  0  0  0  0  0  0  0  0  0  0  0
   -4.7635   -0.9762    2.6352 H   0  0  0  0  0  0  0  0  0  0  0  0
   -6.1120   -0.6349    0.9717 C   0  0  0  0  0  0  0  0  0  0  0  0
   -7.0138   -0.8140    1.5774 H   0  0  0  0  0  0  0  0  0  0  0  0
   -6.2314   -0.3239   -0.3932 C   0  0  0  0  0  0  0  0  0  0  0  0
   -7.2252   -0.2541   -0.8611 H   0  0  0  0  0  0  0  0  0  0  0  0
   -5.0725   -0.1115   -1.1546 C   0  0  0  0  0  0  0  0  0  0  0  0
   -5.1521    0.1281   -2.2264 H   0  0  0  0  0  0  0  0  0  0  0  0
   -3.8052   -0.2052   -0.5567 C   0  0  0  0  0  0  0  0  0  0  0  0
   -2.8958   -0.0447   -1.1533 H   0  0  0  0  0  0  0  0  0  0  0  0
   -2.1375    0.5359    2.5180 C   0  0  0  0  0  0  0  0  0  0  0  0
   -2.1216    1.5208    2.0109 H   0  0  0  0  0  0  0  0  0  0  0  0
   -1.1835    0.4169    3.0705 H   0  0  0  0  0  0  0  0  0  0  0  0
   -2.9676    0.5376    3.2508 H   0  0  0  0  0  0  0  0  0  0  0  0
   -0.5934   -1.4962   -0.1679 C   0  0  1  0  0  3  0  0  0  0  0  0
   -0.9913   -3.0109   -0.2297 C   0  0  0  0  0  0  0  0  0  0  0  0
    0.1499   -3.8604    0.3803 C   0  0  0  0  0  0  0  0  0  0  0  0
    1.1318   -3.7122   -0.0997 H   0  0  0  0  0  0  0  0  0  0  0  0
   -0.1047   -4.9379    0.3050 H   0  0  0  0  0  0  0  0  0  0  0  0
    0.2693   -3.6214    1.4568 H   0  0  0  0  0  0  0  0  0  0  0  0
   -1.2800   -3.3804   -1.7069 C   0  0  0  0  0  0  0  0  0  0  0  0
   -1.5581   -4.4523   -1.7732 H   0  0  0  0  0  0  0  0  0  0  0  0
   -0.4342   -3.2124   -2.3941 H   0  0  0  0  0  0  0  0  0  0  0  0
   -2.1385   -2.7865   -2.0808 H   0  0  0  0  0  0  0  0  0  0  0  0
   -2.2679   -3.4183    0.5380 C   0  0  0  0  0  0  0  0  0  0  0  0
   -2.1452   -3.3609    1.6356 H   0  0  0  0  0  0  0  0  0  0  0  0
   -2.4845   -4.4795    0.2982 H   0  0  0  0  0  0  0  0  0  0  0  0
   -3.1533   -2.8259    0.2456 H   0  0  0  0  0  0  0  0  0  0  0  0
    1.4186   -1.6951   -1.7070 C   0  0  2  0  0  0  0  0  0  0  0  0
    1.2602   -2.7911   -1.7163 H   0  0  0  0  0  0  0  0  0  0  0  0
    2.8256   -1.4842   -1.1365 C   0  0  0  0  0  0  0  0  0  0  0  0
    3.3710   -0.1890   -1.0204 C   0  0  0  0  0  0  0  0  0  0  0  0
    2.7876    0.6812   -1.3603 H   0  0  0  0  0  0  0  0  0  0  0  0
    4.6540    0.0123   -0.4927 C   0  0  0  0  0  0  0  0  0  0  0  0
    5.0599    1.0340   -0.4247 H   0  0  0  0  0  0  0  0  0  0  0  0
    5.4236   -1.0838   -0.0654 C   0  0  0  0  0  0  0  0  0  0  0  0
    6.4322   -0.9287    0.3468 H   0  0  0  0  0  0  0  0  0  0  0  0
    4.8971   -2.3794   -0.1800 C   0  0  0  0  0  0  0  0  0  0  0  0
    5.4919   -3.2479    0.1422 H   0  0  0  0  0  0  0  0  0  0  0  0
    3.6115   -2.5738   -0.7143 C   0  0  0  0  0  0  0  0  0  0  0  0
    3.2161   -3.5976   -0.8142 H   0  0  0  0  0  0  0  0  0  0  0  0
    1.3427   -1.2194   -3.1685 C   0  0  0  0  0  0  0  0  0  0  0  0
    0.3407   -1.4354   -3.5903 H   0  0  0  0  0  0  0  0  0  0  0  0
    2.1103   -1.7231   -3.7899 H   0  0  0  0  0  0  0  0  0  0  0  0
    1.5023   -0.1259   -3.2303 H   0  0  0  0  0  0  0  0  0  0  0  0
  1  3  1  0  0  0  0
  3  4  1  1  0  0  0
  3 16  1  0  0  0  0
  5  3  1  0  0  0  0
  5  6  1  0  0  0  0
  6  7  1  0  0  0  0
  8  6  2  0  0  0  0
  8  9  1  0  0  0  0
 10  8  1  0  0  0  0
 11 10  1  0  0  0  0
 12 14  1  0  0  0  0
 12 10  2  0  0  0  0
 13 12  1  0  0  0  0
 14  5  2  0  0  0  0
 15 14  1  0  0  0  0
 16 18  1  0  0  0  0
 16 19  1  0  0  0  0
 17 16  1  0  0  0  0
 20  2  1  1  0  0  0
 20  1  1  0  0  0  0
 21 20  1  0  0  0  0
 21 22  1  0  0  0  0
 21 30  1  0  0  0  0
 22 25  1  0  0  0  0
 23 22  1  0  0  0  0
 24 22  1  0  0  0  0
 26 21  1  0  0  0  0
 27 26  1  0  0  0  0
 28 26  1  0  0  0  0
 29 26  1  0  0  0  0
 30 31  1  0  0  0  0
 32 30  1  0  0  0  0
 33 30  1  0  0  0  0
 34 35  1  1  0  0  0
 34 36  1  0  0  0  0
 34  2  1  0  0  0  0
 36 37  2  0  0  0  0
 36 45  1  0  0  0  0
 37 39  1  0  0  0  0
 38 37  1  0  0  0  0
 39 40  1  0  0  0  0
 39 41  2  0  0  0  0
 41 42  1  0  0  0  0
 43 41  1  0  0  0  0
 43 44  1  0  0  0  0
 45 43  2  0  0  0  0
 46 45  1  0  0  0  0
 47 34  1  0  0  0  0
 48 47  1  0  0  0  0
 49 47  1  0  0  0  0
 50 47  1  0  0  0  0
M  END
