1,4
q = -1.0, confidence = 0.0

 40 41  0  0  0  0  0  0  0  0999 V2000
    1.6688    0.9627    0.5689 N   0  0  0  0  0  2  0  0  0  0  0  0
    2.8664    0.6094    0.1865 N   0  0  0  0  0  0  0  0  0  0  0  0
    2.2691   -0.9609   -1.5856 N   0  0  0  0  0  2  0  0  0  0  0  0
    0.9735   -0.8812   -1.5108 N   0  0  0  0  0  2  0  0  0  0  0  0
    1.6039    2.1568    1.3197 C   0  0  0  0  0  0  0  0  0  0  0  0
    0.4032    2.4436    2.0070 C   0  0  0  0  0  0  0  0  0  0  0  0
   -0.4294    1.7252    1.9646 H   0  0  0  0  0  0  0  0  0  0  0  0
    0.2776    3.6260    2.7441 C   0  0  0  0  0  0  0  0  0  0  0  0
   -0.6636    3.8371    3.2734 H   0  0  0  0  0  0  0  0  0  0  0  0
    1.3449    4.5368    2.8079 C   0  0  0  0  0  0  0  0  0  0  0  0
    1.2435    5.4694    3.3827 H   0  0  0  0  0  0  0  0  0  0  0  0
    2.5435    4.2501    2.1288 C   0  0  0  0  0  0  0  0  0  0  0  0
    3.3821    4.9620    2.1727 H   0  0  0  0  0  0  0  0  0  0  0  0
    2.6792    3.0724    1.3877 C   0  0  0  0  0  0  0  0  0  0  0  0
    3.6033    2.8345    0.8442 H   0  0  0  0  0  0  0  0  0  0  0  0
    3.1041   -0.3798   -0.6948 C   0  0  0  0  0  0  0  0  0  0  0  0
    4.5735   -0.8183   -0.8473 C   0  0  0  0  0  0  0  0  0  0  0  0
    5.0846   -0.4325   -2.2515 C   0  0  0  0  0  0  0  0  0  0  0  0
    5.0517    0.6669   -2.3943 H   0  0  0  0  0  0  0  0  0  0  0  0
    4.4627   -0.9018   -3.0384 H   0  0  0  0  0  0  0  0  0  0  0  0
    6.1338   -0.7661   -2.3898 H   0  0  0  0  0  0  0  0  0  0  0  0
    5.4592   -0.1588    0.2204 C   0  0  0  0  0  0  0  0  0  0  0  0
    6.4940   -0.5495    0.1380 H   0  0  0  0  0  0  0  0  0  0  0  0
    5.0876   -0.3691    1.2431 H   0  0  0  0  0  0  0  0  0  0  0  0
    5.4902    0.9411    0.1027 H   0  0  0  0  0  0  0  0  0  0  0  0
    4.6280   -2.3528   -0.6820 C   0  0  0  0  0  0  0  0  0  0  0  0
    5.6645   -2.7231   -0.8209 H   0  0  0  0  0  0  0  0  0  0  0  0
    3.9743   -2.8500   -1.4256 H   0  0  0  0  0  0  0  0  0  0  0  0
    4.2866   -2.6579    0.3291 H   0  0  0  0  0  0  0  0  0  0  0  0
    0.2649   -1.3723   -2.6306 C   0  0  0  0  0  0  0  0  0  0  0  0
   -1.1291   -1.5640   -2.4991 C   0  0  0  0  0  0  0  0  0  0  0  0
   -1.6232   -1.3528   -1.5399 H   0  0  0  0  0  0  0  0  0  0  0  0
   -1.8810   -2.0404   -3.5785 C   0  0  0  0  0  0  0  0  0  0  0  0
   -2.9656   -2.1839   -3.4587 H   0  0  0  0  0  0  0  0  0  0  0  0
   -1.2558   -2.3326   -4.8017 C   0  0  0  0  0  0  0  0  0  0  0  0
   -1.8480   -2.7024   -5.6521 H   0  0  0  0  0  0  0  0  0  0  0  0
    0.1328   -2.1456   -4.9338 C   0  0  0  0  0  0  0  0  0  0  0  0
    0.6271   -2.3693   -5.8917 H   0  0  0  0  0  0  0  0  0  0  0  0
    0.8937   -1.6690   -3.8622 C   0  0  0  0  0  0  0  0  0  0  0  0
    1.9768   -1.5103   -3.9484 H   0  0  0  0  0  0  0  0  0  0  0  0
  1  5  1  0  0  0  0
  2  1  1  0  0  0  0
  3  4  1  0  0  0  0
  3 16  1  0  0  0  0
  5 14  2  0  0  0  0
  5  6  1  0  0  0  0
  6  8  2  0  0  0  0
  7  6  1  0  0  0  0
  8 10  1  0  0  0  0
  8  9  1  0  0  0  0
 10 11  1  0  0  0  0
 12 13  1  0  0  0  0
 12 10  2  0  0  0  0
 14 12  1  0  0  0  0
 15 14  1  0  0  0  0
 16  2  2  0  0  0  0
 17 16  1  0  0  0  0
 17 26  1  0  0  0  0
 17 22  1  0  0  0  0
 18 17  1  0  0  0  0
 19 18  1  0  0  0  0
 20 18  1  0  0  0  0
 21 18  1  0  0  0  0
 22 24  1  0  0  0  0
 23 22  1  0  0  0  0
 25 22  1  0  0  0  0
 26 29  1  0  0  0  0
 27 26  1  0  0  0  0
 28 26  1  0  0  0  0
 30 31  1  0  0  0  0
 30  4  1  0  0  0  0
 31 32  1  0  0  0  0
 33 34  1  0  0  0  0
 33 31  2  0  0  0  0
 35 33  1  0  0  0  0
 36 35  1  0  0  0  0
 37 35  2  0  0  0  0
 37 39  1  0  0  0  0
 38 37  1  0  0  0  0
 39 30  2  0  0  0  0
 40 39  1  0  0  0  0
M  END
