3,5
q = 0.0, confidence = 0.524

 35 36  0  0  0  0  0  0  0  0999 V2000
    1.1974    4.0152   -1.1077 S   0  0  0  0  0  0  0  0  0  0  0  0
    1.0578   -0.6854   -2.4212 O   0  0  0  0  0  0  0  0  0  0  0  0
   -1.3650    1.5011    0.3476 N   0  0  0  0  0  2  0  0  0  0  0  0
   -0.8839    2.6915   -0.0281 N   0  0  0  0  0  0  0  0  0  0  0  0
    0.8628    1.3242   -0.6720 N   0  0  0  0  0  2  0  0  0  0  0  0
    0.3407    2.5615   -0.5531 C   0  0  0  0  0  0  0  0  0  0  0  0
   -2.6437    1.5152    0.9330 C   0  0  0  0  0  0  0  0  0  0  0  0
   -3.0599    0.3892    1.6803 C   0  0  0  0  0  0  0  0  0  0  0  0
   -2.3616   -0.4504    1.8022 H   0  0  0  0  0  0  0  0  0  0  0  0
   -4.3359    0.3583    2.2510 C   0  0  0  0  0  0  0  0  0  0  0  0
   -4.6500   -0.5271    2.8241 H   0  0  0  0  0  0  0  0  0  0  0  0
   -5.2104    1.4483    2.1009 C   0  0  0  0  0  0  0  0  0  0  0  0
   -6.2147    1.4198    2.5496 H   0  0  0  0  0  0  0  0  0  0  0  0
   -4.7899    2.5778    1.3761 C   0  0  0  0  0  0  0  0  0  0  0  0
   -5.4688    3.4363    1.2548 H   0  0  0  0  0  0  0  0  0  0  0  0
   -3.5178    2.6201    0.7966 C   0  0  0  0  0  0  0  0  0  0  0  0
   -3.1737    3.4882    0.2194 H   0  0  0  0  0  0  0  0  0  0  0  0
    2.1273    1.0240   -1.1955 C   0  0  0  0  0  0  0  0  0  0  0  0
    3.3070    1.6830   -0.7995 C   0  0  0  0  0  0  0  0  0  0  0  0
    3.2342    2.4951   -0.0624 H   0  0  0  0  0  0  0  0  0  0  0  0
    4.5574    1.2922   -1.2988 C   0  0  0  0  0  0  0  0  0  0  0  0
    5.4655    1.8158   -0.9667 H   0  0  0  0  0  0  0  0  0  0  0  0
    4.6426    0.2204   -2.1970 C   0  0  0  0  0  0  0  0  0  0  0  0
    5.6201   -0.0978   -2.5897 H   0  0  0  0  0  0  0  0  0  0  0  0
    3.4846   -0.4684   -2.5945 C   0  0  0  0  0  0  0  0  0  0  0  0
    3.5635   -1.3114   -3.2941 H   0  0  0  0  0  0  0  0  0  0  0  0
    2.2275   -0.0782   -2.1017 C   0  0  0  0  0  0  0  0  0  0  0  0
    1.0840   -1.9518   -3.0526 C   0  0  0  0  0  0  0  0  0  0  0  0
    0.0378   -2.3094   -3.0633 H   0  0  0  0  0  0  0  0  0  0  0  0
    1.7061   -2.6765   -2.4817 H   0  0  0  0  0  0  0  0  0  0  0  0
    1.4623   -1.8896   -4.0974 H   0  0  0  0  0  0  0  0  0  0  0  0
   -0.1327    5.2480   -0.9632 C   0  0  0  0  0  0  0  0  0  0  0  0
    0.3201    6.2072   -1.2797 H   0  0  0  0  0  0  0  0  0  0  0  0
   -0.4904    5.3166    0.0802 H   0  0  0  0  0  0  0  0  0  0  0  0
   -0.9807    4.9916   -1.6252 H   0  0  0  0  0  0  0  0  0  0  0  0
  1 32  1  0  0  0  0
  1  6  1  0  0  0  0
  2 27  1  0  0  0  0
  3  7  1  0  0  0  0
  4  3  1  0  0  0  0
  5  6  1  0  0  0  0
  6  4  2  0  0  0  0
  7  8  1  0  0  0  0
  8  9  1  0  0  0  0
  8 10  2  0  0  0  0
 10 11  1  0  0  0  0
 12 10  1  0  0  0  0
 12 13  1  0  0  0  0
 14 12  2  0  0  0  0
 15 14  1  0  0  0  0
 16  7  2  0  0  0  0
 16 14  1  0  0  0  0
 17 16  1  0  0  0  0
 18 19  1  0  0  0  0
 18  5  1  0  0  0  0
 19 20  1  0  0  0  0
 21 22  1  0  0  0  0
 21 19  2  0  0  0  0
 23 21  1  0  0  0  0
 24 23  1  0  0  0  0
 25 23  2  0  0  0  0
 25 27  1  0  0  0  0
 26 25  1  0  0  0  0
 27 18  2  0  0  0  0
 28 30  1  0  0  0  0
 28  2  1  0  0  0  0
 29 28  1  0  0  0  0
 31 28  1  0  0  0  0
 32 34  1  0  0  0  0
 33 32  1  0  0  0  0
 35 32  1  0  0  0  0
M  END
