4,5
q = 0.0, confidence = 0.986

 33 35  0  0  1  0  0  0  0  0999 V2000
    6.8597   -0.7464    0.4522 O   0  0  0  0  0  0  0  0  0  0  0  0
    7.8327   -0.6686    0.3509 H   0  0  0  0  0  0  0  0  0  0  0  0
    7.0453    1.2079   -0.6733 O   0  0  0  0  0  0  0  0  0  0  0  0
   -2.0439    0.4879   -0.0259 N   0  0  0  0  0  2  0  0  0  0  0  0
    0.6508    0.6340   -0.0039 N   0  0  0  0  0  2  0  0  0  0  0  0
   -1.4853    1.6920    0.1489 C   0  0  0  0  0  0  0  0  0  0  0  0
   -2.2637    2.8694    0.3285 C   0  0  0  0  0  0  0  0  0  0  0  0
   -1.7630    3.8377    0.4729 H   0  0  0  0  0  0  0  0  0  0  0  0
   -3.6449    2.7628    0.3240 C   0  0  0  0  0  0  0  0  0  0  0  0
   -4.2777    3.6514    0.4722 H   0  0  0  0  0  0  0  0  0  0  0  0
   -4.2604    1.4968    0.1189 C   0  0  0  0  0  0  0  0  0  0  0  0
   -5.6702    1.3054    0.0862 C   0  0  0  0  0  0  0  0  0  0  0  0
   -6.3301    2.1731    0.2380 H   0  0  0  0  0  0  0  0  0  0  0  0
   -6.1968    0.0419   -0.1385 C   0  0  0  0  0  0  0  0  0  0  0  0
   -7.2875   -0.1007   -0.1635 H   0  0  0  0  0  0  0  0  0  0  0  0
   -5.3394   -1.0748   -0.3505 C   0  0  0  0  0  0  0  0  0  0  0  0
   -5.7780   -2.0640   -0.5490 H   0  0  0  0  0  0  0  0  0  0  0  0
   -3.9619   -0.9322   -0.3197 C   0  0  0  0  0  0  0  0  0  0  0  0
   -3.2792   -1.7719   -0.5281 H   0  0  0  0  0  0  0  0  0  0  0  0
   -3.3970    0.3530   -0.0709 C   0  0  1  0  0  3  0  0  0  0  0  0
   -0.0172    1.7317    0.1511 C   0  0  0  0  0  3  0  0  0  0  0  0
    0.4821    2.7081    0.3163 H   0  0  0  0  0  0  0  0  0  0  0  0
    2.0538    0.5920   -0.0440 C   0  0  0  0  0  0  0  0  0  0  0  0
    2.6940   -0.5247    0.5410 C   0  0  0  0  0  0  0  0  0  0  0  0
    2.0707   -1.2861    1.0390 H   0  0  0  0  0  0  0  0  0  0  0  0
    4.0879   -0.6072    0.5248 C   0  0  0  0  0  0  0  0  0  0  0  0
    4.5946   -1.4639    0.9897 H   0  0  0  0  0  0  0  0  0  0  0  0
    4.8553    0.4036   -0.0916 C   0  0  0  0  0  0  0  0  0  0  0  0
    4.2106    1.5043   -0.6927 C   0  0  0  0  0  0  0  0  0  0  0  0
    4.8318    2.2665   -1.1853 H   0  0  0  0  0  0  0  0  0  0  0  0
    2.8195    1.6048   -0.6693 C   0  0  0  0  0  0  0  0  0  0  0  0
    2.3154    2.4419   -1.1749 H   0  0  0  0  0  0  0  0  0  0  0  0
    6.3463    0.3565   -0.1492 C   0  0  0  0  0  0  0  0  0  0  0  0
  2  1  1  0  0  0  0
  3 33  2  0  0  0  0
  4  6  1  0  0  0  0
  5 21  1  0  0  0  0
  6 21  1  0  0  0  0
  6  7  2  0  0  0  0
  7  8  1  0  0  0  0
  9  7  1  0  0  0  0
  9 10  1  0  0  0  0
 11  9  2  0  0  0  0
 12 11  1  0  0  0  0
 12 13  1  0  0  0  0
 14 12  2  0  0  0  0
 15 14  1  0  0  0  0
 16 18  2  0  0  0  0
 16 14  1  0  0  0  0
 17 16  1  0  0  0  0
 19 18  1  0  0  0  0
 20 18  1  6  0  0  0
 20  4  1  0  0  0  0
 20 11  1  0  0  0  0
 21 22  1  0  0  0  0
 23  5  1  0  0  0  0
 23 24  1  0  0  0  0
 24 25  1  0  0  0  0
 26 24  2  0  0  0  0
 26 27  1  0  0  0  0
 28 26  1  0  0  0  0
 29 31  1  0  0  0  0
 29 28  2  0  0  0  0
 30 29  1  0  0  0  0
 31 23  2  0  0  0  0
 32 31  1  0  0  0  0
 33 28  1  0  0  0  0
 33  1  1  0  0  0  0
M  END
