5,6
q = 0.0, confidence = 1.0

 31 32  0  0  0  0  0  0  0  0999 V2000
   -6.4698   -0.9907   -0.3710 O   0  0  0  0  0  0  0  0  0  0  0  0
   -7.4444   -0.9352   -0.2711 H   0  0  0  0  0  0  0  0  0  0  0  0
   -6.7282    1.1079    0.4342 O   0  0  0  0  0  0  0  0  0  0  0  0
    4.1045   -0.8316   -0.1426 O   0  0  0  0  0  0  0  0  0  0  0  0
   -0.3197    0.6795   -0.2339 N   0  0  0  0  0  2  0  0  0  0  0  0
    2.3629    0.5542   -0.3344 N   0  0  0  0  0  2  0  0  0  0  0  0
   -1.7180    0.5993   -0.1507 C   0  0  0  0  0  0  0  0  0  0  0  0
   -2.5220    1.6639    0.3244 C   0  0  0  0  0  0  0  0  0  0  0  0
   -2.0545    2.5897    0.6910 H   0  0  0  0  0  0  0  0  0  0  0  0
   -3.9068    1.5137    0.3785 C   0  0  0  0  0  0  0  0  0  0  0  0
   -4.5562    2.3173    0.7555 H   0  0  0  0  0  0  0  0  0  0  0  0
   -4.5101    0.3079   -0.0380 C   0  0  0  0  0  0  0  0  0  0  0  0
   -3.7060   -0.7569   -0.4940 C   0  0  0  0  0  0  0  0  0  0  0  0
   -4.1789   -1.6986   -0.8046 H   0  0  0  0  0  0  0  0  0  0  0  0
   -2.3163   -0.6212   -0.5407 C   0  0  0  0  0  0  0  0  0  0  0  0
   -1.6636   -1.4402   -0.8897 H   0  0  0  0  0  0  0  0  0  0  0  0
   -5.9976    0.2125    0.0432 C   0  0  0  0  0  0  0  0  0  0  0  0
    0.3213    1.7860   -0.4294 C   0  0  0  0  0  0  0  0  0  0  0  0
   -0.1916    2.7558   -0.5918 H   0  0  0  0  0  0  0  0  0  0  0  0
    1.7887    1.7727   -0.4367 C   0  0  0  0  0  0  0  0  0  0  0  0
    2.5525    2.9503   -0.5056 C   0  0  0  0  0  0  0  0  0  0  0  0
    2.0610    3.9292   -0.5940 H   0  0  0  0  0  0  0  0  0  0  0  0
    3.9495    2.8311   -0.4367 C   0  0  0  0  0  0  0  0  0  0  0  0
    4.5850    3.7281   -0.4805 H   0  0  0  0  0  0  0  0  0  0  0  0
    4.5412    1.5711   -0.3051 C   0  0  0  0  0  0  0  0  0  0  0  0
    5.6320    1.4687   -0.2462 H   0  0  0  0  0  0  0  0  0  0  0  0
    3.6935    0.4347   -0.2568 C   0  0  0  0  0  0  0  0  0  0  0  0
    5.4880   -1.1086    0.0416 C   0  0  0  0  0  0  0  0  0  0  0  0
    5.5638   -2.2044    0.1534 H   0  0  0  0  0  0  0  0  0  0  0  0
    5.8770   -0.6193    0.9597 H   0  0  0  0  0  0  0  0  0  0  0  0
    6.0871   -0.7878   -0.8377 H   0  0  0  0  0  0  0  0  0  0  0  0
  1  2  1  0  0  0  0
  1 17  1  0  0  0  0
  4 28  1  0  0  0  0
  5  7  1  0  0  0  0
  6 27  1  0  0  0  0
  7  8  1  0  0  0  0
  8 10  2  0  0  0  0
  8  9  1  0  0  0  0
 10 11  1  0  0  0  0
 12 17  1  0  0  0  0
 12 10  1  0  0  0  0
 13 12  2  0  0  0  0
 14 13  1  0  0  0  0
 15 13  1  0  0  0  0
 15  7  2  0  0  0  0
 16 15  1  0  0  0  0
 17  3  2  0  0  0  0
 18  5  1  0  0  0  0
 19 18  1  0  0  0  0
 20 18  2  0  0  0  0
 20  6  1  0  0  0  0
 21 20  1  0  0  0  0
 21 23  2  0  0  0  0
 22 21  1  0  0  0  0
 23 25  1  0  0  0  0
 24 23  1  0  0  0  0
 25 27  2  0  0  0  0
 25 26  1  0  0  0  0
 27  4  1  0  0  0  0
 28 29  1  0  0  0  0
 28 30  1  0  0  0  0
 31 28  1  0  0  0  0
M  END
