1,24
q = 0.0, confidence = 0.994

 44 45  0  0  1  0  0  0  0  0999 V2000
   -1.4202    0.3338   -0.3231 N   0  0  0  0  0  0  0  0  0  0  0  0
   -3.3453    1.8410   -0.4426 C   0  0  0  0  0  0  0  0  0  0  0  0
   -2.7671    0.5870    0.2189 C   0  0  1  0  0  0  0  0  0  0  0  0
   -0.7346   -0.8455    0.2067 C   0  0  0  0  0  0  0  0  0  0  0  0
   -3.7072   -0.6091    0.1033 C   0  0  0  0  0  0  0  0  0  0  0  0
   -4.3440   -1.1360    1.2419 C   0  0  0  0  0  0  0  0  0  0  0  0
   -5.2136   -2.2336    1.1399 C   0  0  0  0  0  0  0  0  0  0  0  0
   -5.4538   -2.8257   -0.1091 C   0  0  0  0  0  0  0  0  0  0  0  0
   -4.8208   -2.3124   -1.2535 C   0  0  0  0  0  0  0  0  0  0  0  0
   -3.9573   -1.2131   -1.1459 C   0  0  0  0  0  0  0  0  0  0  0  0
   -1.4555    0.2897   -1.3512 H   0  0  0  0  0  0  0  0  0  0  0  0
   -2.6631    2.7007   -0.2891 H   0  0  0  0  0  0  0  0  0  0  0  0
   -4.3354    2.0855   -0.0127 H   0  0  0  0  0  0  0  0  0  0  0  0
   -3.4784    1.6920   -1.5346 H   0  0  0  0  0  0  0  0  0  0  0  0
   -2.6215    0.8035    1.2997 H   0  0  0  0  0  0  0  0  0  0  0  0
   -1.2124   -1.8046   -0.1024 H   0  0  0  0  0  0  0  0  0  0  0  0
   -0.8102   -0.8049    1.3156 H   0  0  0  0  0  0  0  0  0  0  0  0
   -4.1522   -0.6753    2.2247 H   0  0  0  0  0  0  0  0  0  0  0  0
   -5.7031   -2.6307    2.0424 H   0  0  0  0  0  0  0  0  0  0  0  0
   -6.1320   -3.6884   -0.1924 H   0  0  0  0  0  0  0  0  0  0  0  0
   -5.0037   -2.7714   -2.2372 H   0  0  0  0  0  0  0  0  0  0  0  0
   -3.4686   -0.8192   -2.0526 H   0  0  0  0  0  0  0  0  0  0  0  0
    0.7346   -0.8455   -0.2067 C   0  0  0  0  0  0  0  0  0  0  0  0
    1.4202    0.3338    0.3231 N   0  0  0  0  0  0  0  0  0  0  0  0
    2.7671    0.5870   -0.2189 C   0  0  1  0  0  0  0  0  0  0  0  0
    3.3453    1.8410    0.4426 C   0  0  0  0  0  0  0  0  0  0  0  0
    2.6631    2.7007    0.2891 H   0  0  0  0  0  0  0  0  0  0  0  0
    4.3354    2.0855    0.0127 H   0  0  0  0  0  0  0  0  0  0  0  0
    3.4784    1.6920    1.5346 H   0  0  0  0  0  0  0  0  0  0  0  0
    3.7072   -0.6091   -0.1033 C   0  0  0  0  0  0  0  0  0  0  0  0
    4.3440   -1.1360   -1.2419 C   0  0  0  0  0  0  0  0  0  0  0  0
    5.2136   -2.2336   -1.1399 C   0  0  0  0  0  0  0  0  0  0  0  0
    5.4537   -2.8257    0.1091 C   0  0  0  0  0  0  0  0  0  0  0  0
    4.8208   -2.3124    1.2535 C   0  0  0  0  0  0  0  0  0  0  0  0
    3.9573   -1.2131    1.1459 C   0  0  0  0  0  0  0  0  0  0  0  0
    3.4687   -0.8192    2.0526 H   0  0  0  0  0  0  0  0  0  0  0  0
    5.0037   -2.7714    2.2372 H   0  0  0  0  0  0  0  0  0  0  0  0
    6.1320   -3.6884    0.1924 H   0  0  0  0  0  0  0  0  0  0  0  0
    5.7030   -2.6307   -2.0424 H   0  0  0  0  0  0  0  0  0  0  0  0
    4.1521   -0.6753   -2.2247 H   0  0  0  0  0  0  0  0  0  0  0  0
    2.6215    0.8035   -1.2997 H   0  0  0  0  0  0  0  0  0  0  0  0
    1.4555    0.2897    1.3512 H   0  0  0  0  0  0  0  0  0  0  0  0
    1.2124   -1.8046    0.1024 H   0  0  0  0  0  0  0  0  0  0  0  0
    0.8102   -0.8049   -1.3156 H   0  0  0  0  0  0  0  0  0  0  0  0
  1  4  1  0  0  0  0
  1  3  1  0  0  0  0
  2 12  1  0  0  0  0
  2 13  1  0  0  0  0
  2  3  1  0  0  0  0
  3 15  1  1  0  0  0
  4 17  1  0  0  0  0
  5  3  1  0  0  0  0
  5  6  1  0  0  0  0
  6 18  1  0  0  0  0
  7  6  2  0  0  0  0
  7 19  1  0  0  0  0
  8  7  1  0  0  0  0
  9 10  1  0  0  0  0
  9  8  2  0  0  0  0
 10  5  2  0  0  0  0
 11  1  1  0  0  0  0
 14  2  1  0  0  0  0
 16  4  1  0  0  0  0
 20  8  1  0  0  0  0
 21  9  1  0  0  0  0
 22 10  1  0  0  0  0
 23 43  1  0  0  0  0
 23  4  1  0  0  0  0
 23 24  1  0  0  0  0
 24 42  1  0  0  0  0
 25 41  1  6  0  0  0
 25 30  1  0  0  0  0
 25 24  1  0  0  0  0
 25 26  1  0  0  0  0
 26 29  1  0  0  0  0
 27 26  1  0  0  0  0
 28 26  1  0  0  0  0
 30 35  1  0  0  0  0
 31 32  1  0  0  0  0
 31 30  2  0  0  0  0
 32 33  2  0  0  0  0
 33 38  1  0  0  0  0
 33 34  1  0  0  0  0
 34 37  1  0  0  0  0
 35 34  2  0  0  0  0
 35 36  1  0  0  0  0
 39 32  1  0  0  0  0
 40 31  1  0  0  0  0
 44 23  1  0  0  0  0
M  END
