1,2
q = 0.0, confidence = 0.778

 34 35  0  0  0  0  0  0  0  0999 V2000
    1.1831   -0.8870   -0.0636 N   0  0  0  0  0  2  0  0  0  0  0  0
   -1.4347   -0.6857   -0.8311 N   0  0  0  0  0  2  0  0  0  0  0  0
    4.7175   -2.6940    1.4211 C   0  0  0  0  0  0  0  0  0  0  0  0
    3.8098   -3.4381    0.6539 C   0  0  0  0  0  0  0  0  0  0  0  0
    2.6271   -2.8751    0.1364 C   0  0  0  0  0  0  0  0  0  0  0  0
    2.3647   -1.5008    0.4045 C   0  0  0  0  0  0  0  0  0  0  0  0
    3.2801   -0.7590    1.1787 C   0  0  0  0  0  0  0  0  0  0  0  0
    4.4454   -1.3441    1.6874 C   0  0  0  0  0  0  0  0  0  0  0  0
    1.6494   -3.7322   -0.6233 C   0  0  0  0  0  0  0  0  0  0  0  0
    0.8686   -0.9140   -1.4145 C   0  0  0  0  0  0  0  0  0  0  0  0
   -0.4687   -0.8113   -1.8024 C   0  0  0  0  0  0  0  0  0  0  0  0
   -2.7805   -1.0362   -1.0899 C   0  0  0  0  0  0  0  0  0  0  0  0
   -3.1244   -2.4009   -1.3030 C   0  0  0  0  0  0  0  0  0  0  0  0
   -4.4794   -2.7192   -1.5119 C   0  0  0  0  0  0  0  0  0  0  0  0
   -5.4785   -1.7341   -1.5138 C   0  0  0  0  0  0  0  0  0  0  0  0
   -5.1248   -0.3924   -1.3097 C   0  0  0  0  0  0  0  0  0  0  0  0
   -3.7828   -0.0458   -1.1016 C   0  0  0  0  0  0  0  0  0  0  0  0
   -2.0770   -3.4805   -1.2527 C   0  0  0  0  0  0  0  0  0  0  0  0
    5.6301   -3.1688    1.8110 H   0  0  0  0  0  0  0  0  0  0  0  0
    4.0104   -4.5032    0.4564 H   0  0  0  0  0  0  0  0  0  0  0  0
    3.0668    0.3000    1.3558 H   0  0  0  0  0  0  0  0  0  0  0  0
    5.1455   -0.7384    2.2826 H   0  0  0  0  0  0  0  0  0  0  0  0
    1.9072   -4.8041   -0.5264 H   0  0  0  0  0  0  0  0  0  0  0  0
    0.6178   -3.5830   -0.2481 H   0  0  0  0  0  0  0  0  0  0  0  0
    1.6209   -3.4884   -1.7049 H   0  0  0  0  0  0  0  0  0  0  0  0
    1.6731   -0.8683   -2.1673 H   0  0  0  0  0  0  0  0  0  0  0  0
   -0.7258   -0.6976   -2.8703 H   0  0  0  0  0  0  0  0  0  0  0  0
   -4.7538   -3.7752   -1.6655 H   0  0  0  0  0  0  0  0  0  0  0  0
   -5.8941    0.3949   -1.3216 H   0  0  0  0  0  0  0  0  0  0  0  0
   -3.4736    1.0001   -0.9763 H   0  0  0  0  0  0  0  0  0  0  0  0
   -1.4935   -3.4162   -0.3104 H   0  0  0  0  0  0  0  0  0  0  0  0
   -2.5351   -4.4859   -1.3121 H   0  0  0  0  0  0  0  0  0  0  0  0
   -1.3380   -3.3916   -2.0753 H   0  0  0  0  0  0  0  0  0  0  0  0
   -6.5296   -2.0166   -1.6764 H   0  0  0  0  0  0  0  0  0  0  0  0
  1  6  1  0  0  0  0
  3  8  1  0  0  0  0
  3 19  1  0  0  0  0
  4  3  2  0  0  0  0
  5  6  2  0  0  0  0
  5  4  1  0  0  0  0
  6  7  1  0  0  0  0
  7 21  1  0  0  0  0
  7  8  2  0  0  0  0
  8 22  1  0  0  0  0
  9 23  1  0  0  0  0
  9 24  1  0  0  0  0
  9  5  1  0  0  0  0
 10  1  1  0  0  0  0
 11 10  2  0  0  0  0
 11  2  1  0  0  0  0
 12  2  1  0  0  0  0
 13 18  1  0  0  0  0
 13 12  2  0  0  0  0
 14 13  1  0  0  0  0
 15 14  2  0  0  0  0
 15 16  1  0  0  0  0
 16 17  2  0  0  0  0
 17 12  1  0  0  0  0
 17 30  1  0  0  0  0
 18 31  1  0  0  0  0
 20  4  1  0  0  0  0
 25  9  1  0  0  0  0
 26 10  1  0  0  0  0
 27 11  1  0  0  0  0
 28 14  1  0  0  0  0
 29 16  1  0  0  0  0
 32 18  1  0  0  0  0
 33 18  1  0  0  0  0
 34 15  1  0  0  0  0
M  END
