5,6
q = 0.0, confidence = 0.998

 35 37  0  0  1  0  0  0  0  0999 V2000
   -2.9594    1.5241   -0.1807 S   0  0  0  0  0  0  0  0  0  0  0  0
   -1.1253   -0.4592    1.0090 S   0  0  0  0  0  0  0  0  0  0  0  0
   -0.4912    0.7508   -1.8046 S   0  0  0  0  0  0  0  0  0  0  0  0
   -4.3766   -0.7783   -0.3382 N   0  0  0  0  0  0  0  0  0  0  0  0
    0.8677   -1.8638   -0.1275 N   0  0  0  0  0  2  0  0  0  0  0  0
    1.1687    1.7638    0.0541 N   0  0  0  0  0  2  0  0  0  0  0  0
   -1.7568    0.2150   -0.5950 C   0  0  2  0  0  0  0  0  0  0  0  0
   -2.3470   -0.5855   -1.0950 H   0  0  0  0  0  0  0  0  0  0  0  0
   -4.4259    0.5141   -0.0031 C   0  0  0  0  0  0  0  0  0  0  0  0
   -5.5962    1.1461    0.4743 C   0  0  0  0  0  0  0  0  0  0  0  0
   -5.5862    2.2116    0.7481 H   0  0  0  0  0  0  0  0  0  0  0  0
   -6.7545    0.3738    0.5896 C   0  0  0  0  0  0  0  0  0  0  0  0
   -7.6859    0.8299    0.9583 H   0  0  0  0  0  0  0  0  0  0  0  0
   -6.7127   -0.9875    0.2377 C   0  0  0  0  0  0  0  0  0  0  0  0
   -7.6020   -1.6284    0.3196 H   0  0  0  0  0  0  0  0  0  0  0  0
   -5.4972   -1.5113   -0.2197 C   0  0  0  0  0  0  0  0  0  0  0  0
   -5.4147   -2.5741   -0.5068 H   0  0  0  0  0  0  0  0  0  0  0  0
   -0.3921   -1.9502    0.3435 C   0  0  2  0  0  3  0  0  0  0  0  0
   -1.1312   -3.1428    0.2788 C   0  0  0  0  0  0  0  0  0  0  0  0
   -2.1617   -3.1563    0.6600 H   0  0  0  0  0  0  0  0  0  0  0  0
   -0.5277   -4.2741   -0.2894 C   0  0  0  0  0  0  0  0  0  0  0  0
   -1.0776   -5.2257   -0.3490 H   0  0  0  0  0  0  0  0  0  0  0  0
    0.7787   -4.1705   -0.7884 C   0  0  0  0  0  0  0  0  0  0  0  0
    1.2847   -5.0306   -1.2496 H   0  0  0  0  0  0  0  0  0  0  0  0
    1.4436   -2.9413   -0.6941 C   0  0  0  0  0  0  0  0  0  0  0  0
    2.4607   -2.7746   -1.0905 H   0  0  0  0  0  0  0  0  0  0  0  0
    0.2321    2.0886   -0.8586 C   0  0  2  0  0  3  0  0  0  0  0  0
   -0.1953    3.4122   -1.0516 C   0  0  0  0  0  0  0  0  0  0  0  0
   -0.9626    3.6283   -1.8075 H   0  0  0  0  0  0  0  0  0  0  0  0
    0.3665    4.4194   -0.2532 C   0  0  0  0  0  0  0  0  0  0  0  0
    0.0551    5.4671   -0.3824 H   0  0  0  0  0  0  0  0  0  0  0  0
    1.3185    4.0687    0.7139 C   0  0  0  0  0  0  0  0  0  0  0  0
    1.7761    4.8253    1.3671 H   0  0  0  0  0  0  0  0  0  0  0  0
    1.6940    2.7251    0.8381 C   0  0  0  0  0  0  0  0  0  0  0  0
    2.4263    2.3693    1.5849 H   0  0  0  0  0  0  0  0  0  0  0  0
  1  9  1  0  0  0  0
  3  7  1  0  0  0  0
  4 16  2  0  0  0  0
  4  9  1  0  0  0  0
  5 18  1  0  0  0  0
  6 34  1  0  0  0  0
  7  8  1  6  0  0  0
  7  1  1  0  0  0  0
  7  2  1  0  0  0  0
  9 10  2  0  0  0  0
 10 12  1  0  0  0  0
 10 11  1  0  0  0  0
 12 13  1  0  0  0  0
 14 15  1  0  0  0  0
 14 12  2  0  0  0  0
 16 14  1  0  0  0  0
 17 16  1  0  0  0  0
 18  2  1  6  0  0  0
 19 18  1  0  0  0  0
 19 20  1  0  0  0  0
 21 19  2  0  0  0  0
 22 21  1  0  0  0  0
 23 25  2  0  0  0  0
 23 21  1  0  0  0  0
 24 23  1  0  0  0  0
 25  5  1  0  0  0  0
 26 25  1  0  0  0  0
 27  3  1  1  0  0  0
 27  6  1  0  0  0  0
 28 27  1  0  0  0  0
 28 30  2  0  0  0  0
 29 28  1  0  0  0  0
 30 32  1  0  0  0  0
 31 30  1  0  0  0  0
 32 34  2  0  0  0  0
 32 33  1  0  0  0  0
 34 35  1  0  0  0  0
M  END
