1,16
q = -1.0

 23 24  0  0  0  0  0  0  0  0999 V2000
   -0.2369   -1.6856    1.6087 N   0  0  0  0  0  2  0  0  0  0  0  0
    0.5059   -2.7747    1.8991 C   0  0  0  0  0  3  0  0  0  0  0  0
    1.5151   -2.7955    1.4595 H   0  0  0  0  0  0  0  0  0  0  0  0
    0.0288   -3.8154    2.7015 C   0  0  0  0  0  0  0  0  0  0  0  0
    0.6709   -4.6829    2.9073 H   0  0  0  0  0  0  0  0  0  0  0  0
   -1.2738   -3.7253    3.2213 C   0  0  0  0  0  0  0  0  0  0  0  0
   -1.6818   -4.5283    3.8526 H   0  0  0  0  0  0  0  0  0  0  0  0
   -2.0489   -2.6010    2.9246 C   0  0  0  0  0  0  0  0  0  0  0  0
   -3.0724   -2.4942    3.3100 H   0  0  0  0  0  0  0  0  0  0  0  0
   -1.5070   -1.5872    2.1111 C   0  0  0  0  0  0  0  0  0  0  0  0
   -2.2248   -0.3927    1.7030 C   0  0  0  0  0  0  0  0  0  0  0  0
   -3.5611    0.0047    1.7156 C   0  0  0  0  0  0  0  0  0  0  0  0
   -4.4900   -0.4710    2.0407 H   0  0  0  0  0  0  0  0  0  0  0  0
   -3.5847    1.1601    0.9977 N   0  0  0  0  0  0  0  0  0  0  0  0
   -2.3574    1.5025    0.5666 N   0  0  0  0  0  2  0  0  0  0  0  0
   -1.5415    0.5599    0.9850 N   0  0  0  0  0  2  0  0  0  0  0  0
   -4.7680    1.7940    0.4427 C   0  0  0  0  0  0  0  0  0  0  0  0
   -4.4244    2.6891   -0.1056 H   0  0  0  0  0  0  0  0  0  0  0  0
   -5.4397    2.0954    1.2702 H   0  0  0  0  0  0  0  0  0  0  0  0
   -5.5140    0.6709   -0.5521 B   0  0  0  0  0  0  0  0  0  0  0  0
   -5.9328   -0.4146    0.2661 F   0  0  0  0  0  0  0  0  0  0  0  0
   -4.5359    0.1895   -1.4801 F   0  0  0  0  0  0  0  0  0  0  0  0
   -6.5840    1.2684   -1.2038 F   0  0  0  0  0  0  0  0  0  0  0  0
  1  2  1  0  0  0  0
  1 10  1  0  0  0  0
  2  4  1  0  0  0  0
  3  2  1  0  0  0  0
  4  5  1  0  0  0  0
  4  6  2  0  0  0  0
  6  7  1  0  0  0  0
  8  6  1  0  0  0  0
  8  9  1  0  0  0  0
 10  8  2  0  0  0  0
 11 12  2  0  0  0  0
 11 10  1  0  0  0  0
 12 13  1  0  0  0  0
 14 12  1  0  0  0  0
 15 16  1  0  0  0  0
 15 14  1  0  0  0  0
 16 11  1  0  0  0  0
 17 14  1  0  0  0  0
 17 19  1  0  0  0  0
 18 17  1  0  0  0  0
 20 21  1  0  0  0  0
 20 17  1  0  0  0  0
 22 20  1  0  0  0  0
 23 20  1  0  0  0  0
M  END
