1,2
q = -1.0

 22 22  0  0  0  0  0  0  0  0999 V2000
    0.5576    1.3062    1.0015 N   0  0  0  0  0  2  0  0  0  0  0  0
   -0.5188    1.1139   -1.2793 N   0  0  0  0  0  2  0  0  0  0  0  0
    0.1630    2.4922    0.4989 C   0  0  0  0  0  0  0  0  0  0  0  0
    0.4634    3.7224    1.1457 C   0  0  0  0  0  3  0  0  0  0  0  0
    1.0698    3.6185    2.0553 H   0  0  0  0  0  0  0  0  0  0  0  0
    0.1137    5.0459    0.8428 C   0  0  0  0  0  0  0  0  0  0  0  0
    0.4880    5.7921    1.5641 H   0  0  0  0  0  0  0  0  0  0  0  0
   -0.6404    5.5580   -0.2185 C   0  0  0  0  0  0  0  0  0  0  0  0
   -0.8090    6.6458   -0.2340 H   0  0  0  0  0  0  0  0  0  0  0  0
   -1.1955    4.8120   -1.2729 C   0  0  0  0  0  0  0  0  0  0  0  0
   -1.7653    5.3929   -2.0179 H   0  0  0  0  0  0  0  0  0  0  0  0
   -1.1280    3.4433   -1.5323 C   0  0  0  0  0  0  0  0  0  0  0  0
   -1.6509    3.1304   -2.4471 H   0  0  0  0  0  0  0  0  0  0  0  0
   -0.5236    2.3657   -0.8127 C   0  0  0  0  0  0  0  0  0  0  0  0
   -0.9183    0.8308   -2.6412 C   0  0  0  0  0  0  0  0  0  0  0  0
   -0.5756    1.6170   -3.3488 H   0  0  0  0  0  0  0  0  0  0  0  0
   -0.4527   -0.1214   -2.9552 H   0  0  0  0  0  0  0  0  0  0  0  0
   -2.0222    0.7264   -2.7492 H   0  0  0  0  0  0  0  0  0  0  0  0
    1.3654    1.2830    2.2103 C   0  0  0  0  0  0  0  0  0  0  0  0
    1.5627    0.2311    2.4804 H   0  0  0  0  0  0  0  0  0  0  0  0
    0.8645    1.7848    3.0686 H   0  0  0  0  0  0  0  0  0  0  0  0
    2.3441    1.7894    2.0508 H   0  0  0  0  0  0  0  0  0  0  0  0
  1 19  1  0  0  0  0
  2 14  1  0  0  0  0
  3  1  1  0  0  0  0
  3  4  1  0  0  0  0
  4  5  1  0  0  0  0
  6  4  1  0  0  0  0
  6  7  1  0  0  0  0
  8  6  2  0  0  0  0
  9  8  1  0  0  0  0
 10  8  1  0  0  0  0
 11 10  1  0  0  0  0
 12 10  2  0  0  0  0
 12 14  1  0  0  0  0
 13 12  1  0  0  0  0
 14  3  2  0  0  0  0
 15  2  1  0  0  0  0
 16 15  1  0  0  0  0
 17 15  1  0  0  0  0
 18 15  1  0  0  0  0
 19 20  1  0  0  0  0
 19 21  1  0  0  0  0
 22 19  1  0  0  0  0
M  END
