5,7
q = 0.0, confidence = 0.994

 26 25  0  0  0  0  0  0  0  0999 V2000
   -0.5485   -2.6660   -0.1029 O   0  0  0  0  0  0  0  0  0  0  0  0
    0.4574   -2.7218   -0.0882 H   0  0  0  0  0  0  0  0  0  0  0  0
   -0.5485    2.6660    0.1029 O   0  0  0  0  0  0  0  0  0  0  0  0
    0.4574    2.7219    0.0883 H   0  0  0  0  0  0  0  0  0  0  0  0
   -0.7418   -1.3340    0.3430 N   0  0  0  0  0  0  0  0  0  0  0  0
   -0.8665   -1.4023    1.3691 H   0  0  0  0  0  0  0  0  0  0  0  0
   -0.7418    1.3340   -0.3430 N   0  0  0  0  0  0  0  0  0  0  0  0
   -0.8665    1.4023   -1.3691 H   0  0  0  0  0  0  0  0  0  0  0  0
   -2.0253   -0.7572   -0.2304 C   0  0  0  0  0  0  0  0  0  0  0  0
   -1.9729   -0.9221   -1.7560 C   0  0  0  0  0  0  0  0  0  0  0  0
   -1.9004   -1.9975   -1.9982 H   0  0  0  0  0  0  0  0  0  0  0  0
   -1.0803   -0.4397   -2.2020 H   0  0  0  0  0  0  0  0  0  0  0  0
   -2.8895   -0.5180   -2.2233 H   0  0  0  0  0  0  0  0  0  0  0  0
   -3.2160   -1.5426    0.3316 C   0  0  0  0  0  0  0  0  0  0  0  0
   -3.1037   -2.6093    0.0602 H   0  0  0  0  0  0  0  0  0  0  0  0
   -4.1685   -1.1762   -0.0959 H   0  0  0  0  0  0  0  0  0  0  0  0
   -3.2821   -1.4728    1.4349 H   0  0  0  0  0  0  0  0  0  0  0  0
   -2.0254    0.7572    0.2304 C   0  0  0  0  0  0  0  0  0  0  0  0
   -3.2161    1.5426   -0.3316 C   0  0  0  0  0  0  0  0  0  0  0  0
   -3.1039    2.6092   -0.0600 H   0  0  0  0  0  0  0  0  0  0  0  0
   -4.1686    1.1760    0.0958 H   0  0  0  0  0  0  0  0  0  0  0  0
   -3.2821    1.4730   -1.4349 H   0  0  0  0  0  0  0  0  0  0  0  0
   -1.9729    0.9220    1.7559 C   0  0  0  0  0  0  0  0  0  0  0  0
   -1.0805    0.4395    2.2021 H   0  0  0  0  0  0  0  0  0  0  0  0
   -2.8897    0.5181    2.2232 H   0  0  0  0  0  0  0  0  0  0  0  0
   -1.9002    1.9975    1.9981 H   0  0  0  0  0  0  0  0  0  0  0  0
  1  2  1  0  0  0  0
  1  5  1  0  0  0  0
  4  3  1  0  0  0  0
  5  6  1  0  0  0  0
  7  3  1  0  0  0  0
  7 18  1  0  0  0  0
  8  7  1  0  0  0  0
  9 18  1  0  0  0  0
  9 14  1  0  0  0  0
  9  5  1  0  0  0  0
 10  9  1  0  0  0  0
 11 10  1  0  0  0  0
 12 10  1  0  0  0  0
 13 10  1  0  0  0  0
 14 17  1  0  0  0  0
 15 14  1  0  0  0  0
 16 14  1  0  0  0  0
 18 23  1  0  0  0  0
 19 20  1  0  0  0  0
 19 21  1  0  0  0  0
 19 18  1  0  0  0  0
 22 19  1  0  0  0  0
 23 26  1  0  0  0  0
 23 24  1  0  0  0  0
 23 25  1  0  0  0  0
M  END
