1,3
q = 0.0, confidence = 0.942

 26 27  0  0  0  0  0  0  0  0999 V2000
   -0.5313    1.2233   -1.1722 N   0  0  0  0  0  2  0  0  0  0  0  0
    1.8019    1.0578   -1.3888 N   0  0  0  0  0  2  0  0  0  0  0  0
    1.5731   -0.1152   -0.8584 N   0  0  0  0  0  2  0  0  0  0  0  0
   -1.6863    1.8918   -1.3679 C   0  0  0  0  0  3  0  0  0  0  0  0
   -1.7356    3.1866   -1.9045 C   0  0  0  0  0  0  0  0  0  0  0  0
   -3.0472    3.8955   -2.1010 C   0  0  0  0  0  0  0  0  0  0  0  0
   -0.5023    3.7920   -2.2536 C   0  0  0  0  0  0  0  0  0  0  0  0
    0.6933    3.1024   -2.0763 C   0  0  0  0  0  0  0  0  0  0  0  0
    0.6614    1.7992   -1.5332 C   0  0  0  0  0  0  0  0  0  0  0  0
    2.7277   -0.9464   -0.8039 C   0  0  0  0  0  0  0  0  0  0  0  0
    2.5953   -2.3295   -1.0424 C   0  0  0  0  0  0  0  0  0  0  0  0
    3.7394   -3.1380   -0.9988 C   0  0  0  0  0  0  0  0  0  0  0  0
    4.9945   -2.5855   -0.7004 C   0  0  0  0  0  0  0  0  0  0  0  0
    5.1182   -1.2026   -0.4693 C   0  0  0  0  0  0  0  0  0  0  0  0
    3.9921   -0.3773   -0.5344 C   0  0  0  0  0  0  0  0  0  0  0  0
   -2.6029    1.3596   -1.0714 H   0  0  0  0  0  0  0  0  0  0  0  0
   -0.4939    4.8100   -2.6729 H   0  0  0  0  0  0  0  0  0  0  0  0
    1.6690    3.5290   -2.3440 H   0  0  0  0  0  0  0  0  0  0  0  0
    1.6086   -2.7368   -1.2947 H   0  0  0  0  0  0  0  0  0  0  0  0
    3.6427   -4.2156   -1.1978 H   0  0  0  0  0  0  0  0  0  0  0  0
    5.8838   -3.2323   -0.6514 H   0  0  0  0  0  0  0  0  0  0  0  0
    6.1018   -0.7665   -0.2373 H   0  0  0  0  0  0  0  0  0  0  0  0
    4.0575    0.7055   -0.3651 H   0  0  0  0  0  0  0  0  0  0  0  0
   -3.2240    4.1174   -3.1743 H   0  0  0  0  0  0  0  0  0  0  0  0
   -3.0640    4.8670   -1.5648 H   0  0  0  0  0  0  0  0  0  0  0  0
   -3.8980    3.2889   -1.7364 H   0  0  0  0  0  0  0  0  0  0  0  0
  2  3  1  0  0  0  0
  3 10  1  0  0  0  0
  4  1  1  0  0  0  0
  4 16  1  0  0  0  0
  5  4  1  0  0  0  0
  6  5  1  0  0  0  0
  6 26  1  0  0  0  0
  6 25  1  0  0  0  0
  7  8  1  0  0  0  0
  7  5  2  0  0  0  0
  8  9  2  0  0  0  0
  9  2  1  0  0  0  0
  9  1  1  0  0  0  0
 10 15  1  0  0  0  0
 11 12  1  0  0  0  0
 11 10  2  0  0  0  0
 12 13  2  0  0  0  0
 13 21  1  0  0  0  0
 13 14  1  0  0  0  0
 14 22  1  0  0  0  0
 15 14  2  0  0  0  0
 15 23  1  0  0  0  0
 17  7  1  0  0  0  0
 18  8  1  0  0  0  0
 19 11  1  0  0  0  0
 20 12  1  0  0  0  0
 24  6  1  0  0  0  0
M  END
