1,13
q = -1.0

 20 19  0  0  0  0  0  0  0  0999 V2000
    1.1799   -2.0342    0.7966 N   0  0  0  0  0  2  0  0  0  0  0  0
    2.3710   -1.5725    1.5234 C   0  0  0  0  0  0  0  0  0  0  0  0
    2.0864   -0.7641    2.2288 H   0  0  0  0  0  0  0  0  0  0  0  0
    2.7601   -2.4091    2.1472 H   0  0  0  0  0  0  0  0  0  0  0  0
    3.4451   -1.1229    0.6327 C   0  0  0  0  0  0  0  0  0  0  0  0
    4.3345   -0.7916   -0.1394 C   0  0  0  0  0  0  0  0  0  0  0  0
    1.0276   -3.3484    0.6870 C   0  0  0  0  0  0  0  0  0  0  0  0
    0.0011   -4.0140   -0.0002 C   0  0  0  0  0  0  0  0  0  0  0  0
    5.1183   -0.4952   -0.8223 H   0  0  0  0  0  0  0  0  0  0  0  0
    1.7896   -3.9772    1.1894 H   0  0  0  0  0  0  0  0  0  0  0  0
    0.0015   -5.1105   -0.0002 H   0  0  0  0  0  0  0  0  0  0  0  0
   -1.0257   -3.3489   -0.6873 C   0  0  0  0  0  3  0  0  0  0  0  0
   -1.1788   -2.0348   -0.7967 N   0  0  0  0  0  2  0  0  0  0  0  0
   -2.3700   -1.5737   -1.5234 C   0  0  0  0  0  0  0  0  0  0  0  0
   -2.0859   -0.7651   -2.2289 H   0  0  0  0  0  0  0  0  0  0  0  0
   -2.7588   -2.4104   -2.1473 H   0  0  0  0  0  0  0  0  0  0  0  0
   -3.4443   -1.1245   -0.6327 C   0  0  0  0  0  0  0  0  0  0  0  0
   -4.3337   -0.7935    0.1394 C   0  0  0  0  0  0  0  0  0  0  0  0
   -5.1177   -0.4974    0.8224 H   0  0  0  0  0  0  0  0  0  0  0  0
   -1.7873   -3.9781   -1.1897 H   0  0  0  0  0  0  0  0  0  0  0  0
  1  2  1  0  0  0  0
  2  4  1  0  0  0  0
  2  3  1  0  0  0  0
  5  2  1  0  0  0  0
  6  5  3  0  0  0  0
  7  1  1  0  0  0  0
  7 10  1  0  0  0  0
  8  7  2  0  0  0  0
  9  6  1  0  0  0  0
 11  8  1  0  0  0  0
 12  8  1  0  0  0  0
 13 12  1  0  0  0  0
 14 13  1  0  0  0  0
 14 17  1  0  0  0  0
 15 14  1  0  0  0  0
 16 14  1  0  0  0  0
 17 18  3  0  0  0  0
 18 19  1  0  0  0  0
 20 12  1  0  0  0  0
M  END
