1,21
q = -1.0

 21 22  0  0  1  0  0  0  0  0999 V2000
    0.2344   -1.2653   -0.8870 N   0  0  0  0  0  2  0  0  0  0  0  0
    0.4782   -2.5844   -1.0227 C   0  0  0  0  0  3  0  0  0  0  0  0
    1.5120   -2.9110   -0.8591 H   0  0  0  0  0  0  0  0  0  0  0  0
   -0.5455   -3.4677   -1.3871 C   0  0  0  0  0  0  0  0  0  0  0  0
   -0.3222   -4.5385   -1.4978 H   0  0  0  0  0  0  0  0  0  0  0  0
   -1.8274   -2.9714   -1.5933 C   0  0  0  0  0  0  0  0  0  0  0  0
   -2.6709   -3.6243   -1.8597 H   0  0  0  0  0  0  0  0  0  0  0  0
   -2.1086   -1.5744   -1.4949 C   0  0  0  0  0  0  0  0  0  0  0  0
   -3.3192   -1.1621   -1.6952 O   0  5  0  0  0  0  0  0  0  0  0  0
   -3.3790    0.0353   -1.6509 H   0  0  0  0  0  0  0  0  0  0  0  0
   -0.9886   -0.7112   -1.1615 C   0  0  0  0  0  0  0  0  0  0  0  0
   -0.9848    0.7540   -1.1405 C   0  0  2  0  0  3  0  0  0  0  0  0
   -2.1015    1.6322   -1.4444 C   0  0  0  0  0  0  0  0  0  0  0  0
   -3.3153    1.2319   -1.6508 O   0  0  0  0  0  0  0  0  0  0  0  0
   -1.8137    3.0300   -1.5032 C   0  0  0  0  0  0  0  0  0  0  0  0
   -2.6548    3.6946   -1.7473 H   0  0  0  0  0  0  0  0  0  0  0  0
   -0.5285    3.5138   -1.2869 C   0  0  0  0  0  0  0  0  0  0  0  0
   -0.3003    4.5863   -1.3671 H   0  0  0  0  0  0  0  0  0  0  0  0
    0.4918    2.6151   -0.9517 C   0  0  0  0  0  0  0  0  0  0  0  0
    1.5277    2.9317   -0.7813 H   0  0  0  0  0  0  0  0  0  0  0  0
    0.2416    1.2939   -0.8536 N   0  0  0  0  0  2  0  0  0  0  0  0
  2  1  1  0  0  0  0
  2  3  1  0  0  0  0
  4  2  1  0  0  0  0
  5  4  1  0  0  0  0
  6  8  1  0  0  0  0
  6  4  2  0  0  0  0
  7  6  1  0  0  0  0
  8 11  2  0  0  0  0
  9  8  1  0  0  0  0
 10 14  1  0  0  0  0
 11  1  1  0  0  0  0
 12 11  1  6  0  0  0
 12 21  1  0  0  0  0
 13 12  1  0  0  0  0
 14 13  1  0  0  0  0
 15 13  2  0  0  0  0
 15 17  1  0  0  0  0
 16 15  1  0  0  0  0
 17 19  2  0  0  0  0
 18 17  1  0  0  0  0
 19 21  1  0  0  0  0
 19 20  1  0  0  0  0
M  CHG  1   9  -1
M  END
