16,21
q = 0.0, confidence = 1.0

 49 54  0  0  1  0  0  0  0  0999 V2000
    3.7704    0.6654    3.5273 C   0  0  0  0  0  0  0  0  0  0  0  0
    4.3252    0.6036    4.4684 H   0  0  0  0  0  0  0  0  0  0  0  0
   -1.6489    1.5310   -0.6656 C   0  0  0  0  0  0  0  0  0  0  0  0
   -2.1839    1.7269   -1.6050 H   0  0  0  0  0  0  0  0  0  0  0  0
    1.7869    2.1937    0.8771 C   0  0  2  0  0  0  0  0  0  0  0  0
    1.7682    3.2174    1.3047 H   0  0  0  0  0  0  0  0  0  0  0  0
   -0.2596    0.9284    1.6957 C   0  0  0  0  0  0  0  0  0  0  0  0
    0.2808    0.6752    2.6191 H   0  0  0  0  0  0  0  0  0  0  0  0
   -4.8231    2.4257   -0.3897 C   0  0  0  0  0  0  0  0  0  0  0  0
   -3.9450    3.0847   -0.3390 H   0  0  0  0  0  0  0  0  0  0  0  0
    2.5149    2.3125   -0.3840 N   0  0  0  0  0  0  0  0  0  0  0  0
    3.5773   -0.3531    2.5638 C   0  0  0  0  0  3  0  0  0  0  0  0
    3.9594   -1.3806    2.5314 H   0  0  0  0  0  0  0  0  0  0  0  0
    2.5579    1.3909    1.8218 N   0  0  0  0  0  0  0  0  0  0  0  0
   -3.5841    0.2784    0.1605 N   0  0  0  0  0  0  0  0  0  0  0  0
    2.7703    1.2132   -1.1252 N   0  0  0  0  0  2  0  0  0  0  0  0
   -6.0960    2.9403   -0.6745 C   0  0  0  0  0  0  0  0  0  0  0  0
   -6.2081    4.0198   -0.8578 H   0  0  0  0  0  0  0  0  0  0  0  0
    0.3706    1.6723    0.6836 C   0  0  0  0  0  0  0  0  0  0  0  0
   -4.7125    1.0435   -0.1649 C   0  0  0  0  0  0  0  0  0  0  0  0
    2.8332    0.0980    1.5456 N   0  0  0  0  0  2  0  0  0  0  0  0
   -3.9778   -1.0601    0.3268 C   0  0  0  0  0  0  0  0  0  0  0  0
   -2.2735    0.7704    0.3421 C   0  0  0  0  0  0  0  0  0  0  0  0
   -1.5733    0.4843    1.5300 C   0  0  0  0  0  0  0  0  0  0  0  0
   -2.0648   -0.1025    2.3181 H   0  0  0  0  0  0  0  0  0  0  0  0
   -7.2333    2.1042   -0.7279 C   0  0  0  0  0  0  0  0  0  0  0  0
   -8.2169    2.5405   -0.9570 H   0  0  0  0  0  0  0  0  0  0  0  0
   -5.2429   -3.5371    0.4970 C   0  0  0  0  0  0  0  0  0  0  0  0
   -5.7226   -4.5244    0.5717 H   0  0  0  0  0  0  0  0  0  0  0  0
   -5.3869   -1.1528    0.1149 C   0  0  0  0  0  0  0  0  0  0  0  0
    3.0386    3.4363   -0.9590 C   0  0  0  0  0  3  0  0  0  0  0  0
    2.9228    4.4208   -0.4922 H   0  0  0  0  0  0  0  0  0  0  0  0
   -0.3384    1.9826   -0.4904 C   0  0  0  0  0  0  0  0  0  0  0  0
    0.1493    2.5450   -1.3003 H   0  0  0  0  0  0  0  0  0  0  0  0
   -5.8555    0.1849   -0.1976 C   0  0  0  0  0  0  0  0  0  0  0  0
    3.1081    1.7762    3.0118 C   0  0  0  0  0  0  0  0  0  0  0  0
    2.9814    2.7953    3.3938 H   0  0  0  0  0  0  0  0  0  0  0  0
   -7.1205    0.7291   -0.4856 C   0  0  0  0  0  0  0  0  0  0  0  0
   -8.0087    0.0800   -0.5156 H   0  0  0  0  0  0  0  0  0  0  0  0
    3.6613    3.0327   -2.1369 C   0  0  0  0  0  0  0  0  0  0  0  0
    4.1863    3.6659   -2.8585 H   0  0  0  0  0  0  0  0  0  0  0  0
    3.4742    1.6308   -2.1854 C   0  0  0  0  0  0  0  0  0  0  0  0
    3.8348    0.8923   -2.9117 H   0  0  0  0  0  0  0  0  0  0  0  0
   -3.1882   -2.1918    0.5890 C   0  0  0  0  0  0  0  0  0  0  0  0
   -2.0941   -2.1211    0.6832 H   0  0  0  0  0  0  0  0  0  0  0  0
   -6.0181   -2.4076    0.2078 C   0  0  0  0  0  0  0  0  0  0  0  0
   -7.1032   -2.4969    0.0467 H   0  0  0  0  0  0  0  0  0  0  0  0
   -3.8449   -3.4271    0.6749 C   0  0  0  0  0  0  0  0  0  0  0  0
   -3.2503   -4.3318    0.8724 H   0  0  0  0  0  0  0  0  0  0  0  0
  1  2  1  0  0  0  0
  3 33  2  0  0  0  0
  3 23  1  0  0  0  0
  4  3  1  0  0  0  0
  5  6  1  1  0  0  0
  5 14  1  0  0  0  0
  7  8  1  0  0  0  0
  9 10  1  0  0  0  0
  9 20  1  0  0  0  0
 11  5  1  0  0  0  0
 12  1  1  0  0  0  0
 13 12  1  0  0  0  0
 14 36  1  0  0  0  0
 15 22  1  0  0  0  0
 15 23  1  0  0  0  0
 16 11  1  0  0  0  0
 17  9  2  0  0  0  0
 18 17  1  0  0  0  0
 19  5  1  0  0  0  0
 19  7  2  0  0  0  0
 20 15  1  0  0  0  0
 21 14  1  0  0  0  0
 21 12  1  0  0  0  0
 22 44  1  0  0  0  0
 23 24  2  0  0  0  0
 24  7  1  0  0  0  0
 24 25  1  0  0  0  0
 26 17  1  0  0  0  0
 26 38  2  0  0  0  0
 27 26  1  0  0  0  0
 28 29  1  0  0  0  0
 28 48  1  0  0  0  0
 30 46  1  0  0  0  0
 30 22  2  0  0  0  0
 31 32  1  0  0  0  0
 31 11  1  0  0  0  0
 33 19  1  0  0  0  0
 34 33  1  0  0  0  0
 35 20  2  0  0  0  0
 35 30  1  0  0  0  0
 36 37  1  0  0  0  0
 36  1  2  0  0  0  0
 38 35  1  0  0  0  0
 39 38  1  0  0  0  0
 40 31  1  0  0  0  0
 41 40  1  0  0  0  0
 42 40  2  0  0  0  0
 42 16  1  0  0  0  0
 43 42  1  0  0  0  0
 44 48  2  0  0  0  0
 44 45  1  0  0  0  0
 46 28  2  0  0  0  0
 47 46  1  0  0  0  0
 48 49  1  0  0  0  0
M  END
