1,2
q = 0.0, confidence = 0.998

 25 26  0  0  0  0  0  0  0  0999 V2000
    2.0024    0.6323    0.0729 N   0  0  0  0  0  2  0  0  0  0  0  0
   -0.6474    0.7415   -0.0127 N   0  0  0  0  0  2  0  0  0  0  0  0
   -2.3893   -0.8225    1.7088 O   0  0  0  0  0  0  0  0  0  0  0  0
   -1.7301   -1.4220    1.2443 H   0  0  0  0  0  0  0  0  0  0  0  0
    3.3396    0.4992    0.1370 C   0  0  0  0  0  0  0  0  0  0  0  0
    3.6995   -0.5438    0.1040 H   0  0  0  0  0  0  0  0  0  0  0  0
    4.1829    1.6152    0.2303 C   0  0  0  0  0  0  0  0  0  0  0  0
    5.2701    1.4630    0.2843 H   0  0  0  0  0  0  0  0  0  0  0  0
    3.6241    2.9031    0.2523 C   0  0  0  0  0  0  0  0  0  0  0  0
    4.2670    3.7927    0.3230 H   0  0  0  0  0  0  0  0  0  0  0  0
    2.2331    3.0388    0.1836 C   0  0  0  0  0  0  0  0  0  0  0  0
    1.7506    4.0265    0.1969 H   0  0  0  0  0  0  0  0  0  0  0  0
    1.4373    1.8810    0.0961 C   0  0  0  0  0  0  0  0  0  0  0  0
   -0.0066    1.8896    0.0424 C   0  0  0  0  0  0  0  0  0  0  0  0
   -0.5625    2.8420    0.0819 H   0  0  0  0  0  0  0  0  0  0  0  0
   -2.0603    0.7776   -0.1112 C   0  0  0  0  0  0  0  0  0  0  0  0
   -2.6628    1.6559   -1.0423 C   0  0  0  0  0  0  0  0  0  0  0  0
   -2.0157    2.1700   -1.7694 H   0  0  0  0  0  0  0  0  0  0  0  0
   -4.0460    1.8402   -1.0691 C   0  0  0  0  0  0  0  0  0  0  0  0
   -4.4989    2.5057   -1.8181 H   0  0  0  0  0  0  0  0  0  0  0  0
   -4.8478    1.1574   -0.1352 C   0  0  0  0  0  0  0  0  0  0  0  0
   -5.9390    1.2994   -0.1367 H   0  0  0  0  0  0  0  0  0  0  0  0
   -4.2697    0.2700    0.7759 C   0  0  0  0  0  0  0  0  0  0  0  0
   -4.8792   -0.2918    1.4982 H   0  0  0  0  0  0  0  0  0  0  0  0
   -2.8784    0.0286    0.7949 C   0  0  0  0  0  0  0  0  0  0  0  0
  1 13  1  0  0  0  0
  1  5  1  0  0  0  0
  2 14  1  0  0  0  0
  4  3  1  0  0  0  0
  5  7  2  0  0  0  0
  6  5  1  0  0  0  0
  7  9  1  0  0  0  0
  7  8  1  0  0  0  0
  9 10  1  0  0  0  0
 11 12  1  0  0  0  0
 11  9  2  0  0  0  0
 13 11  1  0  0  0  0
 14 15  1  0  0  0  0
 14 13  2  0  0  0  0
 16  2  1  0  0  0  0
 16 25  1  0  0  0  0
 17 16  2  0  0  0  0
 18 17  1  0  0  0  0
 19 17  1  0  0  0  0
 19 21  2  0  0  0  0
 20 19  1  0  0  0  0
 21 23  1  0  0  0  0
 22 21  1  0  0  0  0
 23 25  2  0  0  0  0
 23 24  1  0  0  0  0
 25  3  1  0  0  0  0
M  END
