2,4
q = -1.0, confidence = 0.0

 14 14  0  0  1  0  0  0  0  0999 V2000
    0.1661    3.1618   -3.1612 O   0  0  0  0  0  0  0  0  0  0  0  0
    0.0827    1.0780   -2.1064 N   0  0  0  0  0  2  0  0  0  0  0  0
    0.0962    0.6360   -3.0324 H   0  0  0  0  0  0  0  0  0  0  0  0
   -0.0185    2.2151    0.2964 N   0  0  0  0  0  2  0  0  0  0  0  0
    0.1040    2.4266   -2.1633 C   0  0  0  0  0  0  0  0  0  0  0  0
    0.0431    3.0474   -0.7748 C   0  0  1  0  0  3  0  0  0  0  0  0
    0.0435    4.4399   -0.6184 C   0  0  0  0  0  0  0  0  0  0  0  0
    0.0961    5.0405   -1.5384 H   0  0  0  0  0  0  0  0  0  0  0  0
   -0.0218    4.9824    0.6699 C   0  0  0  0  0  0  0  0  0  0  0  0
   -0.0227    6.0726    0.8209 H   0  0  0  0  0  0  0  0  0  0  0  0
   -0.0850    4.1110    1.7708 C   0  0  0  0  0  0  0  0  0  0  0  0
   -0.1355    4.4908    2.8012 H   0  0  0  0  0  0  0  0  0  0  0  0
   -0.0794    2.7304    1.5438 C   0  0  0  0  0  0  0  0  0  0  0  0
   -0.1241    1.9987    2.3658 H   0  0  0  0  0  0  0  0  0  0  0  0
  1  5  2  0  0  0  0
  3  2  1  0  0  0  0
  4 13  1  0  0  0  0
  5  2  1  0  0  0  0
  6  5  1  6  0  0  0
  6  7  1  0  0  0  0
  6  4  1  0  0  0  0
  7  9  2  0  0  0  0
  8  7  1  0  0  0  0
  9 10  1  0  0  0  0
  9 11  1  0  0  0  0
 11 12  1  0  0  0  0
 13 11  2  0  0  0  0
 13 14  1  0  0  0  0
M  END
