38,39
q = 0.0, confidence = 1.0

 41 45  0  0  1  0  0  0  0  0999 V2000
   -4.8136   -2.1025    0.3100 C   0  0  0  0  0  0  0  0  0  0  0  0
   -5.2524   -2.9233    0.8965 H   0  0  0  0  0  0  0  0  0  0  0  0
   -2.9247   -0.8039   -0.3753 C   0  0  0  0  0  0  0  0  0  0  0  0
    4.0918   -3.0171   -0.7843 C   0  0  0  0  0  0  0  0  0  0  0  0
    4.2081   -4.1108   -0.8124 H   0  0  0  0  0  0  0  0  0  0  0  0
   -0.2233    4.5316    0.5078 C   0  0  0  0  0  0  0  0  0  0  0  0
   -0.8294    5.4182    0.7465 H   0  0  0  0  0  0  0  0  0  0  0  0
    3.8829   -0.2557   -0.7085 C   0  0  0  0  0  0  0  0  0  0  0  0
   -3.7810   -0.0237   -1.2022 C   0  0  0  0  0  0  0  0  0  0  0  0
   -1.6579    0.6791   -1.3622 C   0  0  2  0  0  3  0  0  0  0  0  0
    0.0517    2.4478   -0.7456 C   0  0  0  0  0  0  0  0  0  0  0  0
   -0.4812    1.4950   -1.8061 C   0  0  0  0  0  0  0  0  0  0  0  0
   -0.7785    2.0813   -2.6995 H   0  0  0  0  0  0  0  0  0  0  0  0
    0.3127    0.7932   -2.1253 H   0  0  0  0  0  0  0  0  0  0  0  0
   -5.1606   -0.2634   -1.2884 C   0  0  0  0  0  0  0  0  0  0  0  0
   -5.8195    0.3416   -1.9281 H   0  0  0  0  0  0  0  0  0  0  0  0
    2.0799    1.0139   -0.2958 C   0  0  2  0  0  3  0  0  0  0  0  0
   -0.6885    3.5994   -0.4271 C   0  0  0  0  0  0  0  0  0  0  0  0
   -1.6553    3.7689   -0.9275 H   0  0  0  0  0  0  0  0  0  0  0  0
    2.7389   -1.0692   -0.4645 C   0  0  0  0  0  0  0  0  0  0  0  0
   -3.4375   -1.8645    0.3932 C   0  0  0  0  0  0  0  0  0  0  0  0
   -2.7555   -2.4729    1.0073 H   0  0  0  0  0  0  0  0  0  0  0  0
    1.2856    2.2330   -0.0831 C   0  0  0  0  0  0  0  0  0  0  0  0
   -5.6596   -1.3178   -0.5124 C   0  0  0  0  0  0  0  0  0  0  0  0
   -6.7362   -1.5425   -0.5453 H   0  0  0  0  0  0  0  0  0  0  0  0
    1.0149    4.3314    1.1367 C   0  0  0  0  0  0  0  0  0  0  0  0
    1.3848    5.0528    1.8799 H   0  0  0  0  0  0  0  0  0  0  0  0
    1.7622    3.1892    0.8402 C   0  0  0  0  0  0  0  0  0  0  0  0
    2.7030    2.9929    1.3756 H   0  0  0  0  0  0  0  0  0  0  0  0
    2.8365   -2.4728   -0.4934 C   0  0  0  0  0  0  0  0  0  0  0  0
    1.9502   -3.0843   -0.2619 H   0  0  0  0  0  0  0  0  0  0  0  0
    5.1417   -0.8019   -1.0020 C   0  0  0  0  0  0  0  0  0  0  0  0
    6.0214   -0.1699   -1.1912 H   0  0  0  0  0  0  0  0  0  0  0  0
    5.2217   -2.2000   -1.0372 C   0  0  0  0  0  0  0  0  0  0  0  0
    6.1890   -2.6745   -1.2609 H   0  0  0  0  0  0  0  0  0  0  0  0
   -2.9394    0.9022   -1.8069 N   0  0  0  0  0  0  0  0  0  0  0  0
   -3.2108    1.6120   -2.4865 H   0  0  0  0  0  0  0  0  0  0  0  0
   -1.6215   -0.3328   -0.5043 N   0  0  0  0  0  2  0  0  0  0  0  0
    1.6435   -0.2462   -0.2131 N   0  0  0  0  0  2  0  0  0  0  0  0
    3.4239    1.0479   -0.5841 N   0  0  0  0  0  0  0  0  0  0  0  0
    3.9586    1.9028   -0.7375 H   0  0  0  0  0  0  0  0  0  0  0  0
  1 21  1  0  0  0  0
  1  2  1  0  0  0  0
  3 21  2  0  0  0  0
  4 30  1  0  0  0  0
  5  4  1  0  0  0  0
  6  7  1  0  0  0  0
  6 26  1  0  0  0  0
  8 40  1  0  0  0  0
  8 20  1  0  0  0  0
  9  3  1  0  0  0  0
 10 12  1  1  0  0  0
 10 38  1  0  0  0  0
 11 18  1  0  0  0  0
 11 23  2  0  0  0  0
 12 11  1  0  0  0  0
 13 12  1  0  0  0  0
 14 12  1  0  0  0  0
 15  9  2  0  0  0  0
 15 24  1  0  0  0  0
 16 15  1  0  0  0  0
 17 39  1  0  0  0  0
 17 23  1  1  0  0  0
 18  6  2  0  0  0  0
 19 18  1  0  0  0  0
 20 39  1  0  0  0  0
 21 22  1  0  0  0  0
 23 28  1  0  0  0  0
 24  1  2  0  0  0  0
 25 24  1  0  0  0  0
 26 27  1  0  0  0  0
 28 26  2  0  0  0  0
 28 29  1  0  0  0  0
 30 20  2  0  0  0  0
 30 31  1  0  0  0  0
 32  8  2  0  0  0  0
 33 32  1  0  0  0  0
 34 32  1  0  0  0  0
 34  4  2  0  0  0  0
 35 34  1  0  0  0  0
 36 10  1  0  0  0  0
 36  9  1  0  0  0  0
 37 36  1  0  0  0  0
 38  3  1  0  0  0  0
 40 17  1  0  0  0  0
 41 40  1  0  0  0  0
M  END
