1,6
q = -1.0

 21 22  0  0  1  0  0  0  0  0999 V2000
   -0.5520    1.6807   -0.5913 N   0  0  0  0  0  2  0  0  0  0  0  0
   -1.4951    1.7471   -0.9859 H   0  0  0  0  0  0  0  0  0  0  0  0
   -0.0009    2.8473   -0.2682 C   0  0  2  0  0  3  0  0  0  0  0  0
    1.2545    3.0071    0.2003 N   0  0  0  0  0  0  0  0  0  0  0  0
    2.0553    1.9475    0.1967 C   0  0  0  0  0  0  0  0  0  0  0  0
    1.7889    0.6281   -0.0544 N   0  0  0  0  0  2  0  0  0  0  0  0
    3.0159   -0.0362   -0.1225 C   0  0  0  0  0  0  0  0  0  0  0  0
    4.0556    0.8934    0.1943 C   0  0  0  0  0  0  0  0  0  0  0  0
    3.4164    2.1010    0.4041 N   0  0  0  0  0  0  0  0  0  0  0  0
    3.8434    3.0146    0.5456 H   0  0  0  0  0  0  0  0  0  0  0  0
    5.4072    0.5332    0.2123 C   0  0  0  0  0  0  0  0  0  0  0  0
    6.1887    1.2666    0.4604 H   0  0  0  0  0  0  0  0  0  0  0  0
    5.7300   -0.7938   -0.1212 C   0  0  0  0  0  0  0  0  0  0  0  0
    6.7835   -1.1104   -0.1208 H   0  0  0  0  0  0  0  0  0  0  0  0
    4.7235   -1.7111   -0.4828 C   0  0  0  0  0  0  0  0  0  0  0  0
    5.0054   -2.7328   -0.7792 H   0  0  0  0  0  0  0  0  0  0  0  0
    3.3649   -1.3485   -0.4980 C   0  0  0  0  0  0  0  0  0  0  0  0
    2.5988   -2.0614   -0.8295 H   0  0  0  0  0  0  0  0  0  0  0  0
   -0.7274    4.0165   -0.3827 N   0  0  0  0  0  0  0  0  0  0  0  0
   -1.5795    4.0134   -0.9412 H   0  0  0  0  0  0  0  0  0  0  0  0
   -0.1742    4.8730   -0.3963 H   0  0  0  0  0  0  0  0  0  0  0  0
  2  1  1  0  0  0  0
  3  1  1  1  0  0  0
  3  4  1  0  0  0  0
  5  4  2  0  0  0  0
  5  9  1  0  0  0  0
  6  5  1  0  0  0  0
  7  6  1  0  0  0  0
  7  8  1  0  0  0  0
  8 11  2  0  0  0  0
  8  9  1  0  0  0  0
  9 10  1  0  0  0  0
 11 12  1  0  0  0  0
 13 14  1  0  0  0  0
 13 11  1  0  0  0  0
 15 13  2  0  0  0  0
 16 15  1  0  0  0  0
 17 15  1  0  0  0  0
 17  7  2  0  0  0  0
 18 17  1  0  0  0  0
 19  3  1  0  0  0  0
 20 19  1  0  0  0  0
 21 19  1  0  0  0  0
M  END
