1,2
q = 0.0, confidence = 0.994

 64 67  0  0  1  0  0  0  0  0999 V2000
   -1.8068   -0.3623   -0.1997 N   0  0  0  0  0  2  0  0  0  0  0  0
    0.8696   -0.1557   -0.0092 N   0  0  0  0  0  2  0  0  0  0  0  0
   -3.1668   -0.5250   -0.2321 C   0  0  0  0  0  0  0  0  0  0  0  0
    2.2710   -0.2646   -0.0653 C   0  0  0  0  0  0  0  0  0  0  0  0
   -5.4354    0.4289   -0.3106 C   0  0  0  0  0  3  0  0  0  0  0  0
   -6.0926    1.3093   -0.3782 H   0  0  0  0  0  0  0  0  0  0  0  0
   -2.0361    2.0361   -0.4947 C   0  0  0  0  0  0  0  0  0  0  0  0
    0.2267    0.9172   -0.3633 C   0  0  1  0  0  3  0  0  0  0  0  0
   -1.2437    0.8563   -0.3392 C   0  0  0  0  0  0  0  0  0  0  0  0
    2.9476   -0.4034    1.1856 C   0  0  0  0  0  0  0  0  0  0  0  0
   -3.7308   -1.8279   -0.1621 C   0  0  0  0  0  0  0  0  0  0  0  0
   -3.0443   -2.6863   -0.1453 H   0  0  0  0  0  0  0  0  0  0  0  0
   -5.1095   -1.9796   -0.1397 C   0  0  0  0  0  0  0  0  0  0  0  0
   -5.5432   -2.9891   -0.0838 H   0  0  0  0  0  0  0  0  0  0  0  0
   -4.0259    0.6250   -0.3353 C   0  0  0  0  0  0  0  0  0  0  0  0
    0.8529    2.2291   -0.7570 C   0  0  0  0  0  0  0  0  0  0  0  0
    0.8570    2.3207   -1.8670 H   0  0  0  0  0  0  0  0  0  0  0  0
    1.9148    2.2361   -0.4382 H   0  0  0  0  0  0  0  0  0  0  0  0
   -3.4175    1.9033   -0.4587 C   0  0  0  0  0  0  0  0  0  0  0  0
   -4.0581    2.7964   -0.5338 H   0  0  0  0  0  0  0  0  0  0  0  0
   -5.9669   -0.8491   -0.2055 C   0  0  0  0  0  0  0  0  0  0  0  0
   -7.0579   -0.9910   -0.1886 H   0  0  0  0  0  0  0  0  0  0  0  0
    2.1342   -0.3224    2.4662 C   0  0  0  0  0  0  0  0  0  0  0  0
    1.1195   -0.6980    2.2138 H   0  0  0  0  0  0  0  0  0  0  0  0
    4.3712   -0.5626   -1.2405 C   0  0  0  0  0  0  0  0  0  0  0  0
    4.9347   -0.6467   -2.1828 H   0  0  0  0  0  0  0  0  0  0  0  0
   -1.3647    3.3761   -0.6864 C   0  0  0  0  0  0  0  0  0  0  0  0
   -1.9864    4.1626   -0.2122 H   0  0  0  0  0  0  0  0  0  0  0  0
   -1.3500    3.6158   -1.7760 H   0  0  0  0  0  0  0  0  0  0  0  0
    2.2851   -0.3102   -2.6565 C   0  0  0  0  0  0  0  0  0  0  0  0
    1.1991   -0.1678   -2.4852 H   0  0  0  0  0  0  0  0  0  0  0  0
    2.6763   -1.1943    3.6035 C   0  0  0  0  0  0  0  0  0  0  0  0
    2.8532   -2.2371    3.2683 H   0  0  0  0  0  0  0  0  0  0  0  0
    1.9434   -1.2261    4.4346 H   0  0  0  0  0  0  0  0  0  0  0  0
    3.6314   -0.8082    4.0179 H   0  0  0  0  0  0  0  0  0  0  0  0
    4.3381   -0.5886    1.1828 C   0  0  0  0  0  0  0  0  0  0  0  0
    4.8712   -0.6833    2.1404 H   0  0  0  0  0  0  0  0  0  0  0  0
    2.9781   -0.3594   -1.2988 C   0  0  0  0  0  0  0  0  0  0  0  0
    0.7887    4.7438   -0.4650 C   0  0  0  0  0  0  0  0  0  0  0  0
    0.8781    4.8540   -1.5691 H   0  0  0  0  0  0  0  0  0  0  0  0
    1.8307    4.6686   -0.0827 H   0  0  0  0  0  0  0  0  0  0  0  0
    2.8075    0.8541   -3.5174 C   0  0  0  0  0  0  0  0  0  0  0  0
    2.7432    1.8263   -2.9892 H   0  0  0  0  0  0  0  0  0  0  0  0
    2.2273    0.9338   -4.4595 H   0  0  0  0  0  0  0  0  0  0  0  0
    3.8709    0.7022   -3.7964 H   0  0  0  0  0  0  0  0  0  0  0  0
    5.0525   -0.6662   -0.0227 C   0  0  0  0  0  0  0  0  0  0  0  0
    6.1424   -0.8178   -0.0111 H   0  0  0  0  0  0  0  0  0  0  0  0
    2.4260   -1.6476   -3.4040 C   0  0  0  0  0  0  0  0  0  0  0  0
    3.4903   -1.8990   -3.5930 H   0  0  0  0  0  0  0  0  0  0  0  0
    1.9089   -1.5965   -4.3840 H   0  0  0  0  0  0  0  0  0  0  0  0
    1.9559   -2.4666   -2.8275 H   0  0  0  0  0  0  0  0  0  0  0  0
    1.9545    1.1361    2.9244 C   0  0  0  0  0  0  0  0  0  0  0  0
    2.9281    1.5902    3.2050 H   0  0  0  0  0  0  0  0  0  0  0  0
    1.2784    1.1871    3.8022 H   0  0  0  0  0  0  0  0  0  0  0  0
    1.5094    1.7613    2.1247 H   0  0  0  0  0  0  0  0  0  0  0  0
    0.1319    6.0029    0.1197 C   0  0  0  0  0  0  0  0  0  0  0  0
    0.7384    6.8814   -0.1876 H   0  0  0  0  0  0  0  0  0  0  0  0
   -0.8653    6.1606   -0.3470 H   0  0  0  0  0  0  0  0  0  0  0  0
   -0.0089    5.9920    1.6436 C   0  0  0  0  0  0  0  0  0  0  0  0
    0.9709    5.8210    2.1370 H   0  0  0  0  0  0  0  0  0  0  0  0
   -0.6958    5.1945    1.9947 H   0  0  0  0  0  0  0  0  0  0  0  0
   -0.4084    6.9552    2.0190 H   0  0  0  0  0  0  0  0  0  0  0  0
    0.0766    3.4165   -0.1639 C   0  0  2  0  0  0  0  0  0  0  0  0
    0.0446    3.2740    0.9401 H   0  0  0  0  0  0  0  0  0  0  0  0
  3  1  1  0  0  0  0
  3 11  2  0  0  0  0
  4  2  1  0  0  0  0
  4 10  1  0  0  0  0
  5 21  1  0  0  0  0
  6  5  1  0  0  0  0
  7 19  1  0  0  0  0
  7  9  2  0  0  0  0
  8  9  1  0  0  0  0
  8  2  1  1  0  0  0
  9  1  1  0  0  0  0
 10 23  1  0  0  0  0
 11 12  1  0  0  0  0
 11 13  1  0  0  0  0
 13 14  1  0  0  0  0
 15  5  1  0  0  0  0
 15  3  1  0  0  0  0
 16 18  1  0  0  0  0
 16  8  1  0  0  0  0
 16 63  1  0  0  0  0
 17 16  1  0  0  0  0
 19 15  2  0  0  0  0
 20 19  1  0  0  0  0
 21 22  1  0  0  0  0
 21 13  2  0  0  0  0
 23 52  1  0  0  0  0
 23 32  1  0  0  0  0
 24 23  1  0  0  0  0
 25 46  2  0  0  0  0
 26 25  1  0  0  0  0
 27  7  1  0  0  0  0
 27 28  1  0  0  0  0
 27 63  1  0  0  0  0
 29 27  1  0  0  0  0
 30 31  1  0  0  0  0
 30 38  1  0  0  0  0
 32 35  1  0  0  0  0
 32 34  1  0  0  0  0
 33 32  1  0  0  0  0
 36 10  2  0  0  0  0
 36 37  1  0  0  0  0
 38 25  1  0  0  0  0
 38  4  2  0  0  0  0
 39 63  1  0  0  0  0
 39 41  1  0  0  0  0
 39 56  1  0  0  0  0
 40 39  1  0  0  0  0
 42 43  1  0  0  0  0
 42 30  1  0  0  0  0
 44 42  1  0  0  0  0
 45 42  1  0  0  0  0
 46 47  1  0  0  0  0
 46 36  1  0  0  0  0
 48 51  1  0  0  0  0
 48 30  1  0  0  0  0
 49 48  1  0  0  0  0
 50 48  1  0  0  0  0
 52 53  1  0  0  0  0
 52 54  1  0  0  0  0
 55 52  1  0  0  0  0
 56 59  1  0  0  0  0
 57 56  1  0  0  0  0
 58 56  1  0  0  0  0
 59 61  1  0  0  0  0
 59 62  1  0  0  0  0
 59 60  1  0  0  0  0
 63 64  1  1  0  0  0
M  END
