1,2
q = 0.0, confidence = 1.0

 28 28  0  0  1  0  0  0  0  0999 V2000
   -0.2118    1.2965    0.0142 N   0  0  0  0  0  2  0  0  0  0  0  0
   -1.1772   -1.2475    0.3099 N   0  0  0  0  0  0  0  0  0  0  0  0
    0.2826    2.4679   -0.4349 C   0  0  0  0  0  3  0  0  0  0  0  0
    1.3540    2.4781   -0.6869 H   0  0  0  0  0  0  0  0  0  0  0  0
   -0.5150    3.6081   -0.5776 C   0  0  0  0  0  0  0  0  0  0  0  0
   -0.0734    4.5447   -0.9459 H   0  0  0  0  0  0  0  0  0  0  0  0
   -1.8758    3.5218   -0.2482 C   0  0  0  0  0  0  0  0  0  0  0  0
   -2.5343    4.3967   -0.3538 H   0  0  0  0  0  0  0  0  0  0  0  0
   -2.3876    2.3013    0.2133 C   0  0  0  0  0  0  0  0  0  0  0  0
   -3.4504    2.1970    0.4766 H   0  0  0  0  0  0  0  0  0  0  0  0
   -1.5252    1.2025    0.3360 C   0  0  0  0  0  0  0  0  0  0  0  0
   -1.9771   -0.1268    0.9085 C   0  0  2  0  0  0  0  0  0  0  0  0
   -3.0500   -0.2747    0.6652 H   0  0  0  0  0  0  0  0  0  0  0  0
   -1.8137   -0.1377    2.4343 C   0  0  0  0  0  0  0  0  0  0  0  0
   -2.1894   -1.0892    2.8627 H   0  0  0  0  0  0  0  0  0  0  0  0
   -2.3901    0.6895    2.8898 H   0  0  0  0  0  0  0  0  0  0  0  0
   -0.7473   -0.0130    2.7127 H   0  0  0  0  0  0  0  0  0  0  0  0
   -1.7423   -1.8652   -0.9517 C   0  0  0  0  0  0  0  0  0  0  0  0
   -0.9885   -2.6325   -1.2240 H   0  0  0  0  0  0  0  0  0  0  0  0
   -3.0709   -2.5751   -0.6798 C   0  0  0  0  0  0  0  0  0  0  0  0
   -3.3730   -3.1503   -1.5765 H   0  0  0  0  0  0  0  0  0  0  0  0
   -3.8953   -1.8673   -0.4578 H   0  0  0  0  0  0  0  0  0  0  0  0
   -2.9899   -3.2947    0.1606 H   0  0  0  0  0  0  0  0  0  0  0  0
   -1.8302   -0.8548   -2.0911 C   0  0  0  0  0  0  0  0  0  0  0  0
   -0.8491   -0.3781   -2.2843 H   0  0  0  0  0  0  0  0  0  0  0  0
   -2.5751   -0.0590   -1.8882 H   0  0  0  0  0  0  0  0  0  0  0  0
   -2.1478   -1.3733   -3.0161 H   0  0  0  0  0  0  0  0  0  0  0  0
   -1.1594   -2.0037    1.0106 H   0  0  0  0  0  0  0  0  0  0  0  0
  1 11  1  0  0  0  0
  2 12  1  0  0  0  0
  2 28  1  0  0  0  0
  3  1  1  0  0  0  0
  4  3  1  0  0  0  0
  5  3  1  0  0  0  0
  5  7  2  0  0  0  0
  6  5  1  0  0  0  0
  7  9  1  0  0  0  0
  8  7  1  0  0  0  0
  9 11  2  0  0  0  0
  9 10  1  0  0  0  0
 11 12  1  0  0  0  0
 12 13  1  6  0  0  0
 12 14  1  0  0  0  0
 14 17  1  0  0  0  0
 14 15  1  0  0  0  0
 14 16  1  0  0  0  0
 18 20  1  0  0  0  0
 18  2  1  0  0  0  0
 19 18  1  0  0  0  0
 20 22  1  0  0  0  0
 20 23  1  0  0  0  0
 21 20  1  0  0  0  0
 24 26  1  0  0  0  0
 24 18  1  0  0  0  0
 25 24  1  0  0  0  0
 27 24  1  0  0  0  0
M  END
