1,7
q = -1.0, confidence = 0.0

 37 37  0  0  1  0  0  0  0  0999 V2000
   -0.5439   -1.7753   -0.0774 N   0  0  0  0  0  2  0  0  0  0  0  0
    0.1958   -2.4731   -0.2147 H   0  0  0  0  0  0  0  0  0  0  0  0
   -1.7597   -2.3144    0.0457 C   0  0  2  0  0  3  0  0  0  0  0  0
   -2.9218   -1.5295    0.1225 C   0  0  0  0  0  0  0  0  0  0  0  0
   -3.8797   -2.0093    0.3367 H   0  0  0  0  0  0  0  0  0  0  0  0
   -2.9063   -0.1141   -0.0260 C   0  0  0  0  0  0  0  0  0  0  0  0
   -1.7673    0.5772   -0.1077 N   0  0  0  0  0  2  0  0  0  0  0  0
   -1.9017    1.5479   -0.4090 H   0  0  0  0  0  0  0  0  0  0  0  0
   -4.1312    0.5726   -0.0557 N   0  0  0  0  0  0  0  0  0  0  0  0
   -5.2622    0.0376   -0.8108 C   0  0  0  0  0  0  0  0  0  0  0  0
   -5.2416    0.4465   -1.8553 H   0  0  0  0  0  0  0  0  0  0  0  0
   -5.1475   -1.0569   -0.9015 H   0  0  0  0  0  0  0  0  0  0  0  0
   -6.5966    0.4064   -0.1598 C   0  0  0  0  0  0  0  0  0  0  0  0
   -6.6631   -0.0938    0.8307 H   0  0  0  0  0  0  0  0  0  0  0  0
   -7.4309    0.0192   -0.7814 H   0  0  0  0  0  0  0  0  0  0  0  0
   -6.7042    1.9249    0.0178 C   0  0  0  0  0  0  0  0  0  0  0  0
   -6.7502    2.4064   -0.9855 H   0  0  0  0  0  0  0  0  0  0  0  0
   -7.6428    2.1994    0.5424 H   0  0  0  0  0  0  0  0  0  0  0  0
   -5.4844    2.4550    0.7778 C   0  0  0  0  0  0  0  0  0  0  0  0
   -5.5070    3.5628    0.8442 H   0  0  0  0  0  0  0  0  0  0  0  0
   -5.4964    2.0642    1.8181 H   0  0  0  0  0  0  0  0  0  0  0  0
   -4.1712    2.0170    0.1145 C   0  0  0  0  0  0  0  0  0  0  0  0
   -3.3157    2.3186    0.7507 H   0  0  0  0  0  0  0  0  0  0  0  0
   -4.0595    2.5496   -0.8679 H   0  0  0  0  0  0  0  0  0  0  0  0
   -1.8366   -3.8619    0.1011 C   0  0  0  0  0  0  0  0  0  0  0  0
   -0.9940   -4.3653    1.2940 C   0  0  0  0  0  0  0  0  0  0  0  0
    0.0646   -4.0458    1.2154 H   0  0  0  0  0  0  0  0  0  0  0  0
   -1.3904   -3.9682    2.2501 H   0  0  0  0  0  0  0  0  0  0  0  0
   -1.0096   -5.4737    1.3437 H   0  0  0  0  0  0  0  0  0  0  0  0
   -3.2740   -4.3799    0.2701 C   0  0  0  0  0  0  0  0  0  0  0  0
   -3.7288   -4.0251    1.2162 H   0  0  0  0  0  0  0  0  0  0  0  0
   -3.9245   -4.0626   -0.5688 H   0  0  0  0  0  0  0  0  0  0  0  0
   -3.2714   -5.4887    0.2943 H   0  0  0  0  0  0  0  0  0  0  0  0
   -1.2698   -4.4325   -1.2187 C   0  0  0  0  0  0  0  0  0  0  0  0
   -0.2145   -4.1342   -1.3840 H   0  0  0  0  0  0  0  0  0  0  0  0
   -1.3046   -5.5416   -1.2090 H   0  0  0  0  0  0  0  0  0  0  0  0
   -1.8581   -4.0730   -2.0867 H   0  0  0  0  0  0  0  0  0  0  0  0
  2  1  1  0  0  0  0
  3  1  1  1  0  0  0
  3 25  1  0  0  0  0
  3  4  1  0  0  0  0
  4  5  1  0  0  0  0
  6  4  2  0  0  0  0
  7  6  1  0  0  0  0
  8  7  1  0  0  0  0
  9  6  1  0  0  0  0
  9 22  1  0  0  0  0
 10 13  1  0  0  0  0
 10  9  1  0  0  0  0
 11 10  1  0  0  0  0
 12 10  1  0  0  0  0
 13 16  1  0  0  0  0
 13 14  1  0  0  0  0
 15 13  1  0  0  0  0
 16 18  1  0  0  0  0
 16 19  1  0  0  0  0
 17 16  1  0  0  0  0
 19 20  1  0  0  0  0
 19 21  1  0  0  0  0
 22 23  1  0  0  0  0
 22 19  1  0  0  0  0
 24 22  1  0  0  0  0
 25 30  1  0  0  0  0
 25 26  1  0  0  0  0
 26 29  1  0  0  0  0
 26 28  1  0  0  0  0
 27 26  1  0  0  0  0
 30 33  1  0  0  0  0
 30 31  1  0  0  0  0
 32 30  1  0  0  0  0
 34 36  1  0  0  0  0
 34 25  1  0  0  0  0
 35 34  1  0  0  0  0
 37 34  1  0  0  0  0
M  END
