1,4
q = 0.0, confidence = 0.994

 15 14  0  0  1  0  0  0  0  0999 V2000
   -1.5949   -2.0570    1.3234 N   0  0  0  0  0  0  0  0  0  0  0  0
   -2.4568   -2.0562    0.7574 H   0  0  0  0  0  0  0  0  0  0  0  0
   -1.2133   -3.0143    1.3139 H   0  0  0  0  0  0  0  0  0  0  0  0
   -0.2205    0.1694    2.1881 N   0  0  0  0  0  0  0  0  0  0  0  0
    0.5117   -0.3291    2.7365 H   0  0  0  0  0  0  0  0  0  0  0  0
    0.0031    1.1729    2.1963 H   0  0  0  0  0  0  0  0  0  0  0  0
   -1.8406   -1.5923    2.7126 C   0  0  1  0  0  0  0  0  0  0  0  0
   -1.0669   -2.0955    3.3305 H   0  0  0  0  0  0  0  0  0  0  0  0
   -1.5529   -0.0871    2.7741 C   0  0  0  0  0  0  0  0  0  0  0  0
   -2.3072    0.4756    2.1854 H   0  0  0  0  0  0  0  0  0  0  0  0
   -1.6132    0.2648    3.8283 H   0  0  0  0  0  0  0  0  0  0  0  0
   -3.2353   -1.9497    3.2202 C   0  0  0  0  0  0  0  0  0  0  0  0
   -4.0176   -1.4725    2.5930 H   0  0  0  0  0  0  0  0  0  0  0  0
   -3.3817   -1.6166    4.2672 H   0  0  0  0  0  0  0  0  0  0  0  0
   -3.3941   -3.0460    3.1889 H   0  0  0  0  0  0  0  0  0  0  0  0
  1  7  1  0  0  0  0
  2  1  1  0  0  0  0
  3  1  1  0  0  0  0
  4  6  1  0  0  0  0
  4  5  1  0  0  0  0
  4  9  1  0  0  0  0
  7  9  1  0  0  0  0
  7 12  1  0  0  0  0
  7  8  1  1  0  0  0
  9 11  1  0  0  0  0
 10  9  1  0  0  0  0
 12 14  1  0  0  0  0
 13 12  1  0  0  0  0
 15 12  1  0  0  0  0
M  END
