1,2
q = 0.0, confidence = 0.992

 45 47  0  0  1  0  0  0  0  0999 V2000
   -1.5352   -0.2062   -0.5887 N   0  0  1  0  0  0  0  0  0  0  0  0
    0.9455   -1.0615   -0.2029 N   0  0  0  0  0  2  0  0  0  0  0  0
    3.0949   -0.7208   -1.1428 N   0  0  0  0  0  0  0  0  0  0  0  0
    2.8937   -2.3646    0.3771 N   0  0  0  0  0  0  0  0  0  0  0  0
   -1.2424   -1.6623   -0.8379 C   0  0  2  0  0  0  0  0  0  0  0  0
   -0.8607   -1.6955   -1.8788 H   0  0  0  0  0  0  0  0  0  0  0  0
   -2.5383   -2.4906   -0.7261 C   0  0  0  0  0  0  0  0  0  0  0  0
   -2.5565   -3.2731   -1.5110 H   0  0  0  0  0  0  0  0  0  0  0  0
   -2.5884   -3.0177    0.2499 H   0  0  0  0  0  0  0  0  0  0  0  0
   -3.7352   -1.5316   -0.8815 C   0  0  2  0  0  0  0  0  0  0  0  0
   -4.6768   -2.1008   -1.0135 H   0  0  0  0  0  0  0  0  0  0  0  0
   -3.4834   -0.6064   -2.0889 C   0  0  0  0  0  0  0  0  0  0  0  0
   -3.2991   -1.2173   -2.9973 H   0  0  0  0  0  0  0  0  0  0  0  0
   -4.3851    0.0060   -2.2920 H   0  0  0  0  0  0  0  0  0  0  0  0
   -2.2692    0.3107   -1.7781 C   0  0  0  0  0  0  0  0  0  0  0  0
   -1.5513    0.3551   -2.6198 H   0  0  0  0  0  0  0  0  0  0  0  0
   -2.5489    1.3558   -1.5454 H   0  0  0  0  0  0  0  0  0  0  0  0
   -2.4059   -0.0528    0.6178 C   0  0  0  0  0  0  0  0  0  0  0  0
   -2.4309    1.0256    0.8629 H   0  0  0  0  0  0  0  0  0  0  0  0
   -1.9039   -0.5668    1.4614 H   0  0  0  0  0  0  0  0  0  0  0  0
   -3.8327   -0.6312    0.3777 C   0  0  2  0  0  0  0  0  0  0  0  0
   -4.5245    0.2048    0.1390 H   0  0  0  0  0  0  0  0  0  0  0  0
   -4.3632   -1.3299    1.5964 C   0  0  0  0  0  0  0  0  0  0  0  0
   -3.7809   -2.2003    1.9542 H   0  0  0  0  0  0  0  0  0  0  0  0
   -5.4636   -0.9654    2.2769 C   0  0  0  0  0  0  0  0  0  0  0  0
   -6.0667   -0.0957    1.9662 H   0  0  0  0  0  0  0  0  0  0  0  0
   -5.7996   -1.5153    3.1695 H   0  0  0  0  0  0  0  0  0  0  0  0
   -0.0714   -2.0631    0.0551 C   0  0  0  0  0  0  0  0  0  0  0  0
   -0.3996   -2.0814    1.1227 H   0  0  0  0  0  0  0  0  0  0  0  0
    0.2704   -3.0908   -0.2010 H   0  0  0  0  0  0  0  0  0  0  0  0
    2.2278   -1.3596   -0.3043 C   0  0  0  0  0  3  0  0  0  0  0  0
    4.4671   -0.9865   -0.7373 C   0  0  0  0  0  0  0  0  0  0  0  0
    4.8285   -0.1803   -0.0564 H   0  0  0  0  0  0  0  0  0  0  0  0
    5.1386   -1.0390   -1.6171 H   0  0  0  0  0  0  0  0  0  0  0  0
    4.3120   -2.3425   -0.0236 C   0  0  0  0  0  0  0  0  0  0  0  0
    4.5385   -3.1928   -0.7041 H   0  0  0  0  0  0  0  0  0  0  0  0
    4.9663   -2.4292    0.8647 H   0  0  0  0  0  0  0  0  0  0  0  0
    2.7489    0.3663   -2.0256 C   0  0  0  0  0  0  0  0  0  0  0  0
    1.6682    0.3017   -2.2595 H   0  0  0  0  0  0  0  0  0  0  0  0
    3.3404    0.2882   -2.9616 H   0  0  0  0  0  0  0  0  0  0  0  0
    2.9248    1.3506   -1.5386 H   0  0  0  0  0  0  0  0  0  0  0  0
    2.5636   -2.6487    1.7683 C   0  0  0  0  0  0  0  0  0  0  0  0
    2.8235   -1.7987    2.4380 H   0  0  0  0  0  0  0  0  0  0  0  0
    3.1074   -3.5569    2.0911 H   0  0  0  0  0  0  0  0  0  0  0  0
    1.4838   -2.8529    1.8801 H   0  0  0  0  0  0  0  0  0  0  0  0
  1 15  1  6  0  0  0
  1 18  1  0  0  0  0
  2 28  1  0  0  0  0
  3 32  1  0  0  0  0
  3 31  1  0  0  0  0
  4 42  1  0  0  0  0
  5  6  1  6  0  0  0
  5  7  1  0  0  0  0
  5  1  1  0  0  0  0
  5 28  1  0  0  0  0
  7  9  1  0  0  0  0
  8  7  1  0  0  0  0
 10 11  1  6  0  0  0
 10  7  1  0  0  0  0
 10 21  1  0  0  0  0
 12 15  1  0  0  0  0
 12 10  1  0  0  0  0
 13 12  1  0  0  0  0
 14 12  1  0  0  0  0
 15 17  1  0  0  0  0
 16 15  1  0  0  0  0
 18 19  1  0  0  0  0
 18 20  1  0  0  0  0
 21 22  1  6  0  0  0
 21 18  1  0  0  0  0
 21 23  1  0  0  0  0
 23 24  1  0  0  0  0
 23 25  2  0  0  0  0
 25 27  1  0  0  0  0
 26 25  1  0  0  0  0
 28 29  1  0  0  0  0
 30 28  1  0  0  0  0
 31  2  1  0  0  0  0
 31  4  1  0  0  0  0
 32 33  1  0  0  0  0
 32 35  1  0  0  0  0
 34 32  1  0  0  0  0
 35  4  1  0  0  0  0
 35 37  1  0  0  0  0
 36 35  1  0  0  0  0
 38 41  1  0  0  0  0
 38  3  1  0  0  0  0
 39 38  1  0  0  0  0
 40 38  1  0  0  0  0
 42 45  1  0  0  0  0
 42 44  1  0  0  0  0
 42 43  1  0  0  0  0
M  END
