1,2
q = 0.0, confidence = 1.0

 36 39  0  0  1  0  0  0  0  0999 V2000
    1.7060   -1.6305   -0.4916 N   0  0  0  0  0  2  0  0  0  0  0  0
    0.7476    0.7336    0.3029 N   0  0  0  0  0  2  0  0  0  0  0  0
   -1.2967    0.4438   -0.5836 N   0  0  0  0  0  0  0  0  0  0  0  0
   -3.4238   -1.5362    0.3692 N   0  0  0  0  0  0  0  0  0  0  0  0
   -0.0977   -0.1489   -0.2310 C   0  0  1  0  0  3  0  0  0  0  0  0
    0.1146    1.9571    0.2966 C   0  0  0  0  0  0  0  0  0  0  0  0
    0.3534   -1.5351   -0.4321 C   0  0  2  0  0  3  0  0  0  0  0  0
   -1.1932    1.7924   -0.2412 C   0  0  0  0  0  0  0  0  0  0  0  0
    0.5853    3.2263    0.6800 C   0  0  0  0  0  0  0  0  0  0  0  0
    1.6201    3.3452    1.0286 H   0  0  0  0  0  0  0  0  0  0  0  0
   -2.0784    2.8732   -0.3844 C   0  0  0  0  0  0  0  0  0  0  0  0
   -3.0924    2.7532   -0.7895 H   0  0  0  0  0  0  0  0  0  0  0  0
    1.5358   -4.0131   -0.7066 C   0  0  0  0  0  0  0  0  0  0  0  0
    2.0455   -4.9811   -0.8145 H   0  0  0  0  0  0  0  0  0  0  0  0
   -0.2942    4.3022    0.5365 C   0  0  0  0  0  0  0  0  0  0  0  0
    0.0373    5.3126    0.8176 H   0  0  0  0  0  0  0  0  0  0  0  0
    2.2857   -2.8325   -0.5943 C   0  0  0  0  0  0  0  0  0  0  0  0
    3.3868   -2.8342   -0.5493 H   0  0  0  0  0  0  0  0  0  0  0  0
    0.1380   -3.9260   -0.6370 C   0  0  0  0  0  0  0  0  0  0  0  0
   -0.4796   -4.8362   -0.6747 H   0  0  0  0  0  0  0  0  0  0  0  0
   -1.6040    4.1274    0.0212 C   0  0  0  0  0  0  0  0  0  0  0  0
   -2.2638    5.0029   -0.0718 H   0  0  0  0  0  0  0  0  0  0  0  0
   -0.4734   -2.6744   -0.4744 C   0  0  0  0  0  0  0  0  0  0  0  0
   -1.5571   -2.5743   -0.2991 H   0  0  0  0  0  0  0  0  0  0  0  0
   -3.6003   -0.4864   -0.4538 C   0  0  0  0  0  0  0  0  0  0  0  0
   -4.8013    0.2437   -0.4979 C   0  0  0  0  0  0  0  0  0  0  0  0
   -4.9150    1.0886   -1.1939 H   0  0  0  0  0  0  0  0  0  0  0  0
   -2.4142   -0.1220   -1.3317 C   0  0  0  0  0  0  0  0  0  0  0  0
   -2.0506   -1.0209   -1.8647 H   0  0  0  0  0  0  0  0  0  0  0  0
   -2.7156    0.6205   -2.0968 H   0  0  0  0  0  0  0  0  0  0  0  0
   -5.6584   -1.2119    1.2248 C   0  0  0  0  0  0  0  0  0  0  0  0
   -6.4489   -1.5366    1.9170 H   0  0  0  0  0  0  0  0  0  0  0  0
   -4.4262   -1.8856    1.1874 C   0  0  0  0  0  0  0  0  0  0  0  0
   -4.2406   -2.7507    1.8476 H   0  0  0  0  0  0  0  0  0  0  0  0
   -5.8487   -0.1283    0.3577 C   0  0  0  0  0  0  0  0  0  0  0  0
   -6.8000    0.4248    0.3481 H   0  0  0  0  0  0  0  0  0  0  0  0
  3  8  1  0  0  0  0
  3  5  1  0  0  0  0
  4 33  1  0  0  0  0
  5  2  1  6  0  0  0
  6  2  1  0  0  0  0
  6  9  1  0  0  0  0
  7  1  1  1  0  0  0
  7  5  1  0  0  0  0
  8  6  2  0  0  0  0
  9 10  1  0  0  0  0
 11  8  1  0  0  0  0
 11 21  2  0  0  0  0
 12 11  1  0  0  0  0
 13 19  1  0  0  0  0
 13 17  2  0  0  0  0
 14 13  1  0  0  0  0
 15  9  2  0  0  0  0
 15 16  1  0  0  0  0
 17 18  1  0  0  0  0
 17  1  1  0  0  0  0
 19 23  2  0  0  0  0
 20 19  1  0  0  0  0
 21 15  1  0  0  0  0
 22 21  1  0  0  0  0
 23  7  1  0  0  0  0
 23 24  1  0  0  0  0
 25  4  2  0  0  0  0
 26 25  1  0  0  0  0
 26 35  2  0  0  0  0
 27 26  1  0  0  0  0
 28  3  1  0  0  0  0
 28 25  1  0  0  0  0
 29 28  1  0  0  0  0
 30 28  1  0  0  0  0
 31 32  1  0  0  0  0
 33 31  2  0  0  0  0
 33 34  1  0  0  0  0
 35 31  1  0  0  0  0
 36 35  1  0  0  0  0
M  END
