1,3
q = 0.0, confidence = 0.996

 20 21  0  0  0  0  0  0  0  0999 V2000
    1.2944    1.2702    0.2735 N   0  0  0  0  0  2  0  0  0  0  0  0
    3.5308    1.5906    0.1751 N   0  0  0  0  0  0  0  0  0  0  0  0
    1.2888   -1.2777    0.3168 N   0  0  0  0  0  2  0  0  0  0  0  0
    3.5256   -1.6148    0.2958 N   0  0  0  0  0  0  0  0  0  0  0  0
    1.4724    2.6947   -0.0393 C   0  0  0  0  0  0  0  0  0  0  0  0
    0.7923    3.3321    0.5549 H   0  0  0  0  0  0  0  0  0  0  0  0
    1.2303    2.8254   -1.1174 H   0  0  0  0  0  0  0  0  0  0  0  0
    2.9721    2.9553    0.2557 C   0  0  0  0  0  0  0  0  0  0  0  0
    3.4457    3.6279   -0.4843 H   0  0  0  0  0  0  0  0  0  0  0  0
    3.1273    3.3809    1.2717 H   0  0  0  0  0  0  0  0  0  0  0  0
    2.4939    0.7197    0.3067 C   0  0  0  0  0  0  0  0  0  0  0  0
    2.4892   -0.7353    0.3170 C   0  0  0  0  0  0  0  0  0  0  0  0
    2.9700   -2.9526    0.0029 C   0  0  0  0  0  0  0  0  0  0  0  0
    3.3957   -3.7174    0.6807 H   0  0  0  0  0  0  0  0  0  0  0  0
    3.1980   -3.2442   -1.0442 H   0  0  0  0  0  0  0  0  0  0  0  0
    1.4431   -2.7349    0.2254 C   0  0  0  0  0  0  0  0  0  0  0  0
    0.8280   -3.1235   -0.6099 H   0  0  0  0  0  0  0  0  0  0  0  0
    1.0839   -3.2074    1.1636 H   0  0  0  0  0  0  0  0  0  0  0  0
    4.4417   -1.3451   -0.0655 H   0  0  0  0  0  0  0  0  0  0  0  0
    4.4583    1.3839    0.5496 H   0  0  0  0  0  0  0  0  0  0  0  0
  1 11  1  0  0  0  0
  2  8  1  0  0  0  0
  2 11  1  0  0  0  0
  2 20  1  0  0  0  0
  3 12  1  0  0  0  0
  4 12  1  0  0  0  0
  5  8  1  0  0  0  0
  5  1  1  0  0  0  0
  5  6  1  0  0  0  0
  7  5  1  0  0  0  0
  8 10  1  0  0  0  0
  9  8  1  0  0  0  0
 11 12  2  0  0  0  0
 13 16  1  0  0  0  0
 13  4  1  0  0  0  0
 13 14  1  0  0  0  0
 15 13  1  0  0  0  0
 16  3  1  0  0  0  0
 16 18  1  0  0  0  0
 17 16  1  0  0  0  0
 19  4  1  0  0  0  0
M  END
