2,3
q = -1.0

 22 23  0  0  0  0  0  0  0  0999 V2000
   -4.5374    4.6692   -0.3944 Cl  0  0  0  0  0  0  0  0  0  0  0  0
   -0.3511    0.4774   -1.2562 N   0  0  0  0  0  2  0  0  0  0  0  0
    1.1739   -1.6569   -1.0579 N   0  0  0  0  0  0  0  0  0  0  0  0
    1.8292   -2.8383   -1.1671 C   0  0  0  0  0  3  0  0  0  0  0  0
    2.6348   -3.1200   -0.4790 H   0  0  0  0  0  0  0  0  0  0  0  0
   -0.6012   -0.5033   -2.1162 C   0  0  0  0  0  3  0  0  0  0  0  0
   -1.4413   -0.4311   -2.8302 H   0  0  0  0  0  0  0  0  0  0  0  0
   -0.9826    2.7948   -0.7254 C   0  0  0  0  0  0  0  0  0  0  0  0
    0.0723    3.0544   -0.5983 H   0  0  0  0  0  0  0  0  0  0  0  0
   -1.9574    3.7751   -0.5208 C   0  0  0  0  0  0  0  0  0  0  0  0
   -1.6648    4.7976   -0.2448 H   0  0  0  0  0  0  0  0  0  0  0  0
    0.2223   -1.6446   -2.0761 C   0  0  0  0  0  0  0  0  0  0  0  0
   -3.3162    3.4487   -0.6596 C   0  0  0  0  0  0  0  0  0  0  0  0
   -1.3353    1.4705   -1.0708 C   0  0  0  0  0  0  0  0  0  0  0  0
   -2.7152    1.1629   -1.1886 C   0  0  0  0  0  0  0  0  0  0  0  0
   -3.0249    0.1288   -1.3940 H   0  0  0  0  0  0  0  0  0  0  0  0
    1.3137   -3.6079   -2.2469 C   0  0  0  0  0  0  0  0  0  0  0  0
    1.6577   -4.6050   -2.5472 H   0  0  0  0  0  0  0  0  0  0  0  0
    0.2901   -2.8483   -2.8318 C   0  0  0  0  0  0  0  0  0  0  0  0
   -0.3444   -3.1167   -3.6846 H   0  0  0  0  0  0  0  0  0  0  0  0
   -3.6981    2.1400   -0.9946 C   0  0  0  0  0  0  0  0  0  0  0  0
   -4.7642    1.8861   -1.0801 H   0  0  0  0  0  0  0  0  0  0  0  0
  2 14  1  0  0  0  0
  4  3  1  0  0  0  0
  4  5  1  0  0  0  0
  6 12  1  0  0  0  0
  6  2  1  0  0  0  0
  7  6  1  0  0  0  0
  8  9  1  0  0  0  0
  8 10  1  0  0  0  0
 10 11  1  0  0  0  0
 12  3  2  0  0  0  0
 13 10  2  0  0  0  0
 13  1  1  0  0  0  0
 14  8  2  0  0  0  0
 15 14  1  0  0  0  0
 15 21  2  0  0  0  0
 16 15  1  0  0  0  0
 17  4  1  0  0  0  0
 18 17  1  0  0  0  0
 19 17  2  0  0  0  0
 19 12  1  0  0  0  0
 20 19  1  0  0  0  0
 21 13  1  0  0  0  0
 22 21  1  0  0  0  0
M  END
