2,3
q = 0.0, confidence = 0.996

 27 28  0  0  0  0  0  0  0  0999 V2000
   -2.1669    2.5623    0.0007 O   0  0  0  0  0  0  0  0  0  0  0  0
    2.6099    0.6317    0.0001 N   0  0  0  0  0  2  0  0  0  0  0  0
   -0.0080    0.6261   -0.0013 N   0  0  0  0  0  2  0  0  0  0  0  0
   -1.3291    0.3996   -0.0018 N   0  0  0  0  0  0  0  0  0  0  0  0
   -3.7643   -0.6340   -0.0010 N   0  0  0  0  0  0  0  0  0  0  0  0
    3.9538    0.5578    0.0008 C   0  0  0  0  0  0  0  0  0  0  0  0
    4.3556   -0.4703    0.0013 H   0  0  0  0  0  0  0  0  0  0  0  0
    4.7520    1.7086    0.0008 C   0  0  0  0  0  0  0  0  0  0  0  0
    5.8461    1.6049    0.0014 H   0  0  0  0  0  0  0  0  0  0  0  0
    4.1366    2.9712    0.0002 C   0  0  0  0  0  0  0  0  0  0  0  0
    4.7416    3.8898    0.0002 H   0  0  0  0  0  0  0  0  0  0  0  0
    2.7397    3.0466   -0.0005 C   0  0  0  0  0  0  0  0  0  0  0  0
    2.2159    4.0130   -0.0010 H   0  0  0  0  0  0  0  0  0  0  0  0
    1.9865    1.8564   -0.0006 C   0  0  0  0  0  0  0  0  0  0  0  0
    0.5405    1.8274   -0.0013 C   0  0  0  0  0  0  0  0  0  0  0  0
   -0.0840    2.7315   -0.0016 H   0  0  0  0  0  0  0  0  0  0  0  0
   -2.3417    1.3431   -0.0001 C   0  0  0  0  0  0  0  0  0  0  0  0
   -3.7080    0.7090    0.0001 C   0  0  0  0  0  0  0  0  0  0  0  0
   -4.8442    1.5371    0.0014 C   0  0  0  0  0  0  0  0  0  0  0  0
   -4.7136    2.6285    0.0022 H   0  0  0  0  0  0  0  0  0  0  0  0
   -6.1024    0.9209    0.0017 C   0  0  0  0  0  0  0  0  0  0  0  0
   -7.0214    1.5263    0.0027 H   0  0  0  0  0  0  0  0  0  0  0  0
   -6.1696   -0.4806    0.0006 C   0  0  0  0  0  0  0  0  0  0  0  0
   -7.1372   -1.0038    0.0008 H   0  0  0  0  0  0  0  0  0  0  0  0
   -4.9693   -1.2149   -0.0007 C   0  0  0  0  0  0  0  0  0  0  0  0
   -4.9817   -2.3185   -0.0016 H   0  0  0  0  0  0  0  0  0  0  0  0
   -1.5675   -0.6248   -0.0017 H   0  0  0  0  0  0  0  0  0  0  0  0
  2  6  1  0  0  0  0
  3 15  1  0  0  0  0
  4 27  1  0  0  0  0
  4  3  1  0  0  0  0
  4 17  1  0  0  0  0
  5 25  2  0  0  0  0
  5 18  1  0  0  0  0
  6  8  2  0  0  0  0
  6  7  1  0  0  0  0
  8  9  1  0  0  0  0
 10 11  1  0  0  0  0
 10  8  1  0  0  0  0
 12 10  2  0  0  0  0
 13 12  1  0  0  0  0
 14 12  1  0  0  0  0
 14  2  1  0  0  0  0
 15 14  2  0  0  0  0
 16 15  1  0  0  0  0
 17 18  1  0  0  0  0
 17  1  2  0  0  0  0
 18 19  2  0  0  0  0
 19 21  1  0  0  0  0
 19 20  1  0  0  0  0
 21 22  1  0  0  0  0
 23 24  1  0  0  0  0
 23 21  2  0  0  0  0
 25 23  1  0  0  0  0
 26 25  1  0  0  0  0
M  END
