1,2
q = -1.0

 33 32  0  0  1  0  0  0  0  0999 V2000
    0.4492   -1.8551   -0.0339 N   0  0  0  0  0  2  0  0  0  0  0  0
    1.7673   -0.1077   -0.4785 N   0  0  0  0  0  2  0  0  0  0  0  0
    1.7015   -1.4341   -0.2911 C   0  0  2  0  0  3  0  0  0  0  0  0
    2.9437   -2.2961   -0.4008 C   0  0  0  0  0  0  0  0  0  0  0  0
    2.7717   -3.3408   -0.1057 H   0  0  0  0  0  0  0  0  0  0  0  0
    3.7441   -1.8799    0.2418 H   0  0  0  0  0  0  0  0  0  0  0  0
    3.3242   -2.2886   -1.4422 H   0  0  0  0  0  0  0  0  0  0  0  0
    2.9651    0.6070   -0.8542 C   0  0  0  0  0  0  0  0  0  0  0  0
    2.7779    1.1448   -1.8090 H   0  0  0  0  0  0  0  0  0  0  0  0
    3.8201   -0.0786   -1.0516 H   0  0  0  0  0  0  0  0  0  0  0  0
    3.4075    1.6420    0.1996 C   0  0  0  0  0  0  0  0  0  0  0  0
    2.5199    2.2846    0.3956 H   0  0  0  0  0  0  0  0  0  0  0  0
    3.8109    0.9650    1.5121 C   0  0  0  0  0  0  0  0  0  0  0  0
    3.0149    0.2801    1.8675 H   0  0  0  0  0  0  0  0  0  0  0  0
    4.0046    1.7061    2.3141 H   0  0  0  0  0  0  0  0  0  0  0  0
    4.7396    0.3688    1.3778 H   0  0  0  0  0  0  0  0  0  0  0  0
    4.5290    2.5265   -0.3522 C   0  0  0  0  0  0  0  0  0  0  0  0
    4.8380    3.2955    0.3846 H   0  0  0  0  0  0  0  0  0  0  0  0
    4.2154    3.0504   -1.2785 H   0  0  0  0  0  0  0  0  0  0  0  0
    5.4288    1.9219   -0.5972 H   0  0  0  0  0  0  0  0  0  0  0  0
    0.0221   -3.2624    0.0862 C   0  0  0  0  0  0  0  0  0  0  0  0
    0.6165   -3.9346    1.3456 C   0  0  0  0  0  0  0  0  0  0  0  0
    1.7188   -4.0237    1.3160 H   0  0  0  0  0  0  0  0  0  0  0  0
    0.2044   -4.9570    1.4676 H   0  0  0  0  0  0  0  0  0  0  0  0
    0.3512   -3.3482    2.2479 H   0  0  0  0  0  0  0  0  0  0  0  0
    0.3430   -4.0724   -1.1918 C   0  0  0  0  0  0  0  0  0  0  0  0
   -0.1029   -3.5713   -2.0744 H   0  0  0  0  0  0  0  0  0  0  0  0
   -0.0883   -5.0919   -1.1227 H   0  0  0  0  0  0  0  0  0  0  0  0
    1.4279   -4.1838   -1.3748 H   0  0  0  0  0  0  0  0  0  0  0  0
   -1.5085   -3.2634    0.2502 C   0  0  0  0  0  0  0  0  0  0  0  0
   -1.8011   -2.7172    1.1644 H   0  0  0  0  0  0  0  0  0  0  0  0
   -1.8890   -4.3008    0.3315 H   0  0  0  0  0  0  0  0  0  0  0  0
   -1.9961   -2.7793   -0.6158 H   0  0  0  0  0  0  0  0  0  0  0  0
  1 21  1  0  0  0  0
  3  2  1  6  0  0  0
  3  1  1  0  0  0  0
  4  3  1  0  0  0  0
  4  5  1  0  0  0  0
  4  6  1  0  0  0  0
  7  4  1  0  0  0  0
  8  2  1  0  0  0  0
  8 11  1  0  0  0  0
  9  8  1  0  0  0  0
 10  8  1  0  0  0  0
 11 12  1  0  0  0  0
 11 13  1  0  0  0  0
 13 14  1  0  0  0  0
 13 15  1  0  0  0  0
 16 13  1  0  0  0  0
 17 11  1  0  0  0  0
 17 18  1  0  0  0  0
 19 17  1  0  0  0  0
 20 17  1  0  0  0  0
 21 30  1  0  0  0  0
 21 22  1  0  0  0  0
 22 24  1  0  0  0  0
 22 25  1  0  0  0  0
 23 22  1  0  0  0  0
 26 28  1  0  0  0  0
 26 21  1  0  0  0  0
 27 26  1  0  0  0  0
 29 26  1  0  0  0  0
 30 32  1  0  0  0  0
 30 31  1  0  0  0  0
 33 30  1  0  0  0  0
M  END
