1,2
q = -1.0, confidence = 0.0

 34 34  0  0  1  0  0  0  0  0999 V2000
   -1.1016    0.0442   -0.6815 N   0  0  0  0  0  2  0  0  0  0  0  0
    0.0844    1.8526   -0.1489 N   0  0  0  0  0  2  0  0  0  0  0  0
   -1.0763    1.3900   -0.6377 C   0  0  1  0  0  3  0  0  0  0  0  0
   -2.2447    2.2095   -1.1361 C   0  0  0  0  0  0  0  0  0  0  0  0
   -3.0301    2.2610   -0.3552 H   0  0  0  0  0  0  0  0  0  0  0  0
   -2.7058    1.7161   -2.0135 H   0  0  0  0  0  0  0  0  0  0  0  0
   -1.9569    3.2345   -1.4190 H   0  0  0  0  0  0  0  0  0  0  0  0
   -2.1886   -0.6957   -1.2683 C   0  0  0  0  0  0  0  0  0  0  0  0
   -1.8466   -1.7458   -1.3919 H   0  0  0  0  0  0  0  0  0  0  0  0
   -2.4330   -0.3563   -2.3057 H   0  0  0  0  0  0  0  0  0  0  0  0
   -3.4770   -0.7179   -0.4547 C   0  0  0  0  0  0  0  0  0  0  0  0
   -3.5078   -0.3252    0.8966 C   0  0  0  0  0  0  0  0  0  0  0  0
   -2.5805    0.0386    1.3642 H   0  0  0  0  0  0  0  0  0  0  0  0
   -4.7000   -0.3864    1.6363 C   0  0  0  0  0  0  0  0  0  0  0  0
   -4.7033   -0.0737    2.6920 H   0  0  0  0  0  0  0  0  0  0  0  0
   -5.8824   -0.8422    1.0345 C   0  0  0  0  0  0  0  0  0  0  0  0
   -6.8179   -0.8886    1.6123 H   0  0  0  0  0  0  0  0  0  0  0  0
   -5.8635   -1.2340   -0.3145 C   0  0  0  0  0  0  0  0  0  0  0  0
   -6.7867   -1.5884   -0.7985 H   0  0  0  0  0  0  0  0  0  0  0  0
   -4.6718   -1.1693   -1.0502 C   0  0  0  0  0  0  0  0  0  0  0  0
   -4.6657   -1.4728   -2.1101 H   0  0  0  0  0  0  0  0  0  0  0  0
    0.4083    3.2584    0.1526 C   0  0  0  0  0  0  0  0  0  0  0  0
    0.6678    4.0774   -1.1312 C   0  0  0  0  0  0  0  0  0  0  0  0
    1.4888    3.6191   -1.7157 H   0  0  0  0  0  0  0  0  0  0  0  0
    0.9604    5.1171   -0.8788 H   0  0  0  0  0  0  0  0  0  0  0  0
   -0.2257    4.1311   -1.7835 H   0  0  0  0  0  0  0  0  0  0  0  0
   -0.6850    3.9221    1.0201 C   0  0  0  0  0  0  0  0  0  0  0  0
   -1.6249    4.1117    0.4703 H   0  0  0  0  0  0  0  0  0  0  0  0
   -0.3245    4.8993    1.3999 H   0  0  0  0  0  0  0  0  0  0  0  0
   -0.9187    3.2799    1.8934 H   0  0  0  0  0  0  0  0  0  0  0  0
    1.7019    3.2413    0.9867 C   0  0  0  0  0  0  0  0  0  0  0  0
    1.5312    2.7182    1.9479 H   0  0  0  0  0  0  0  0  0  0  0  0
    2.0404    4.2729    1.2086 H   0  0  0  0  0  0  0  0  0  0  0  0
    2.5081    2.7150    0.4439 H   0  0  0  0  0  0  0  0  0  0  0  0
  2 22  1  0  0  0  0
  3  1  1  6  0  0  0
  3  2  1  0  0  0  0
  4  3  1  0  0  0  0
  4  5  1  0  0  0  0
  6  4  1  0  0  0  0
  7  4  1  0  0  0  0
  8  1  1  0  0  0  0
  8 11  1  0  0  0  0
  9  8  1  0  0  0  0
 10  8  1  0  0  0  0
 11 12  1  0  0  0  0
 12 13  1  0  0  0  0
 12 14  2  0  0  0  0
 14 15  1  0  0  0  0
 16 17  1  0  0  0  0
 16 14  1  0  0  0  0
 18 16  2  0  0  0  0
 19 18  1  0  0  0  0
 20 11  2  0  0  0  0
 20 18  1  0  0  0  0
 21 20  1  0  0  0  0
 22 31  1  0  0  0  0
 22 27  1  0  0  0  0
 23 25  1  0  0  0  0
 23 22  1  0  0  0  0
 24 23  1  0  0  0  0
 26 23  1  0  0  0  0
 27 29  1  0  0  0  0
 27 30  1  0  0  0  0
 28 27  1  0  0  0  0
 31 33  1  0  0  0  0
 31 32  1  0  0  0  0
 34 31  1  0  0  0  0
M  END
