1,2
q = -2.0, confidence = 0.84

 30 31  0  0  1  0  0  0  0  0999 V2000
   -0.8195    1.1415   -0.6446 N   0  0  0  0  0  2  0  0  0  0  0  0
   -1.0353   -1.1618    0.4695 N   0  0  0  0  0  2  0  0  0  0  0  0
   -0.8696    2.5765   -0.8554 C   0  0  0  0  0  0  0  0  0  0  0  0
   -0.9195    2.8139   -1.9482 H   0  0  0  0  0  0  0  0  0  0  0  0
    0.0394    3.0744   -0.4716 H   0  0  0  0  0  0  0  0  0  0  0  0
   -2.1620    3.0355   -0.1664 C   0  0  0  0  0  0  0  0  0  0  0  0
   -2.5173    4.0236   -0.5219 H   0  0  0  0  0  0  0  0  0  0  0  0
   -1.9959    3.1113    0.9279 H   0  0  0  0  0  0  0  0  0  0  0  0
   -3.1278    1.8898   -0.5015 C   0  0  0  0  0  0  0  0  0  0  0  0
   -3.6289    2.0947   -1.4691 H   0  0  0  0  0  0  0  0  0  0  0  0
   -3.9300    1.7551    0.2494 H   0  0  0  0  0  0  0  0  0  0  0  0
   -2.2322    0.6193   -0.6489 C   0  0  1  0  0  0  0  0  0  0  0  0
   -2.5314   -0.0785   -1.9860 C   0  0  0  0  0  0  0  0  0  0  0  0
   -1.8924   -0.9697   -2.1286 H   0  0  0  0  0  0  0  0  0  0  0  0
   -2.3109    0.6210   -2.8171 H   0  0  0  0  0  0  0  0  0  0  0  0
   -3.5988   -0.3682   -2.0674 H   0  0  0  0  0  0  0  0  0  0  0  0
   -1.3017   -2.5797    0.6361 C   0  0  0  0  0  0  0  0  0  0  0  0
   -1.2709   -2.8807    1.7137 H   0  0  0  0  0  0  0  0  0  0  0  0
   -0.5393   -3.1825    0.0983 H   0  0  0  0  0  0  0  0  0  0  0  0
   -2.7211   -2.7549    0.0693 C   0  0  0  0  0  0  0  0  0  0  0  0
   -2.6663   -2.8202   -1.0354 H   0  0  0  0  0  0  0  0  0  0  0  0
   -3.2259   -3.6698    0.4390 H   0  0  0  0  0  0  0  0  0  0  0  0
   -3.4219   -1.4579    0.5082 C   0  0  0  0  0  0  0  0  0  0  0  0
   -3.8604   -1.5893    1.5188 H   0  0  0  0  0  0  0  0  0  0  0  0
   -4.2505   -1.1595   -0.1627 H   0  0  0  0  0  0  0  0  0  0  0  0
   -2.2936   -0.3827    0.5757 C   0  0  1  0  0  0  0  0  0  0  0  0
   -2.3418    0.3570    1.9233 C   0  0  0  0  0  0  0  0  0  0  0  0
   -1.5439    1.1208    1.9743 H   0  0  0  0  0  0  0  0  0  0  0  0
   -2.1802   -0.3675    2.7462 H   0  0  0  0  0  0  0  0  0  0  0  0
   -3.3201    0.8490    2.0967 H   0  0  0  0  0  0  0  0  0  0  0  0
  2 26  1  0  0  0  0
  2 17  1  0  0  0  0
  3  1  1  0  0  0  0
  3  5  1  0  0  0  0
  3  6  1  0  0  0  0
  4  3  1  0  0  0  0
  6  8  1  0  0  0  0
  7  6  1  0  0  0  0
  9  6  1  0  0  0  0
  9 11  1  0  0  0  0
 10  9  1  0  0  0  0
 12 13  1  6  0  0  0
 12  1  1  0  0  0  0
 12  9  1  0  0  0  0
 12 26  1  0  0  0  0
 14 13  1  0  0  0  0
 15 13  1  0  0  0  0
 16 13  1  0  0  0  0
 17 18  1  0  0  0  0
 19 17  1  0  0  0  0
 20 22  1  0  0  0  0
 20 23  1  0  0  0  0
 20 17  1  0  0  0  0
 21 20  1  0  0  0  0
 23 26  1  0  0  0  0
 23 24  1  0  0  0  0
 25 23  1  0  0  0  0
 26 27  1  1  0  0  0
 27 28  1  0  0  0  0
 27 30  1  0  0  0  0
 27 29  1  0  0  0  0
M  END
