1,4
q = 0.0, confidence = 0.996

 30 30  0  0  0  0  0  0  0  0999 V2000
   -1.1867   -1.0392   -0.4122 N   0  0  0  0  0  0  0  0  0  0  0  0
   -3.9749   -1.1099    1.1076 O   0  0  0  0  0  0  0  0  0  0  0  0
    3.9749   -1.1099   -1.1076 O   0  0  0  0  0  0  0  0  0  0  0  0
    1.1867   -1.0392    0.4122 N   0  0  0  0  0  0  0  0  0  0  0  0
    1.1026   -1.8329   -0.8462 C   0  0  0  0  0  0  0  0  0  0  0  0
   -0.3209   -1.6928   -1.4253 C   0  0  0  0  0  0  0  0  0  0  0  0
   -1.1026   -1.8329    0.8463 C   0  0  0  0  0  0  0  0  0  0  0  0
    2.5635   -0.8454    0.9241 C   0  0  0  0  0  0  0  0  0  0  0  0
   -2.5635   -0.8454   -0.9241 C   0  0  0  0  0  0  0  0  0  0  0  0
   -3.5527   -0.2351    0.0689 C   0  0  0  0  0  0  0  0  0  0  0  0
    0.3209   -1.6927    1.4253 C   0  0  0  0  0  0  0  0  0  0  0  0
    3.5527   -0.2351   -0.0689 C   0  0  0  0  0  0  0  0  0  0  0  0
    1.8736   -1.4730   -1.5480 H   0  0  0  0  0  0  0  0  0  0  0  0
    1.3470   -2.8968   -0.6141 H   0  0  0  0  0  0  0  0  0  0  0  0
   -0.7452   -2.6899   -1.6941 H   0  0  0  0  0  0  0  0  0  0  0  0
   -0.3234   -1.0583   -2.3315 H   0  0  0  0  0  0  0  0  0  0  0  0
   -1.8736   -1.4729    1.5480 H   0  0  0  0  0  0  0  0  0  0  0  0
   -1.3470   -2.8968    0.6142 H   0  0  0  0  0  0  0  0  0  0  0  0
    2.4758   -0.1565    1.7875 H   0  0  0  0  0  0  0  0  0  0  0  0
    2.9497   -1.8286    1.2923 H   0  0  0  0  0  0  0  0  0  0  0  0
   -2.4758   -0.1565   -1.7875 H   0  0  0  0  0  0  0  0  0  0  0  0
   -2.9497   -1.8286   -1.2923 H   0  0  0  0  0  0  0  0  0  0  0  0
   -3.0812    0.6500    0.5406 H   0  0  0  0  0  0  0  0  0  0  0  0
   -4.4156    0.1492   -0.5235 H   0  0  0  0  0  0  0  0  0  0  0  0
    0.7452   -2.6899    1.6942 H   0  0  0  0  0  0  0  0  0  0  0  0
    0.3234   -1.0582    2.3315 H   0  0  0  0  0  0  0  0  0  0  0  0
    3.0812    0.6500   -0.5406 H   0  0  0  0  0  0  0  0  0  0  0  0
    4.4156    0.1492    0.5235 H   0  0  0  0  0  0  0  0  0  0  0  0
   -4.4946   -1.8278    0.7012 H   0  0  0  0  0  0  0  0  0  0  0  0
    4.4947   -1.8277   -0.7013 H   0  0  0  0  0  0  0  0  0  0  0  0
  1  7  1  0  0  0  0
  3 30  1  0  0  0  0
  3 12  1  0  0  0  0
  4  8  1  0  0  0  0
  4 11  1  0  0  0  0
  5 14  1  0  0  0  0
  5  4  1  0  0  0  0
  6  5  1  0  0  0  0
  6  1  1  0  0  0  0
  7 11  1  0  0  0  0
  7 17  1  0  0  0  0
  8 20  1  0  0  0  0
  8 19  1  0  0  0  0
  9  1  1  0  0  0  0
  9 10  1  0  0  0  0
 10 23  1  0  0  0  0
 10  2  1  0  0  0  0
 11 25  1  0  0  0  0
 11 26  1  0  0  0  0
 12 28  1  0  0  0  0
 12  8  1  0  0  0  0
 13  5  1  0  0  0  0
 15  6  1  0  0  0  0
 16  6  1  0  0  0  0
 18  7  1  0  0  0  0
 21  9  1  0  0  0  0
 22  9  1  0  0  0  0
 24 10  1  0  0  0  0
 27 12  1  0  0  0  0
 29  2  1  0  0  0  0
M  END
