8,9
q = -1.0

 31 32  0  0  1  0  0  0  0  0999 V2000
    1.2434    1.7807   -0.8706 Si  0  0  1  0  0  0  0  0  0  0  0  0
    2.8525    3.0075   -1.4502 Cl  0  0  0  0  0  0  0  0  0  0  0  0
   -0.0545    2.7804   -0.5829 O   0  0  0  0  0  0  0  0  0  0  0  0
    0.8079    0.6602   -2.3360 C   0  0  0  0  0  0  0  0  0  0  0  0
    1.7137    0.5250   -2.9593 H   0  0  0  0  0  0  0  0  0  0  0  0
   -0.0121    1.1162   -2.9253 H   0  0  0  0  0  0  0  0  0  0  0  0
    0.4179   -0.4277   -2.2270 H   0  0  0  0  0  0  0  0  0  0  0  0
    2.5453   -1.6122   -0.5967 N   0  0  0  0  0  2  0  0  0  0  0  0
    1.6549    0.7208    0.4130 N   0  0  0  0  0  2  0  0  0  0  0  0
    2.9369   -2.7629   -1.1542 C   0  0  0  0  0  0  0  0  0  0  0  0
    2.1808   -3.3240   -1.7214 H   0  0  0  0  0  0  0  0  0  0  0  0
    4.2532   -3.2592   -1.0125 C   0  0  0  0  0  0  0  0  0  0  0  0
    4.5164   -4.2147   -1.4875 H   0  0  0  0  0  0  0  0  0  0  0  0
    5.1796   -2.5398   -0.2717 C   0  0  0  0  0  0  0  0  0  0  0  0
    6.2075   -2.9111   -0.1380 H   0  0  0  0  0  0  0  0  0  0  0  0
    4.8011   -1.3059    0.3268 C   0  0  0  0  0  0  0  0  0  0  0  0
    5.6777   -0.4809    1.0849 C   0  0  0  0  0  0  0  0  0  0  0  0
    6.7156   -0.8063    1.2482 H   0  0  0  0  0  0  0  0  0  0  0  0
    5.2080    0.7201    1.6076 C   0  0  0  0  0  0  0  0  0  0  0  0
    5.8879    1.3592    2.1919 H   0  0  0  0  0  0  0  0  0  0  0  0
    3.8735    1.1462    1.4121 C   0  0  0  0  0  0  0  0  0  0  0  0
    3.5260    2.1025    1.8278 H   0  0  0  0  0  0  0  0  0  0  0  0
    2.9642    0.3623    0.6859 C   0  0  0  0  0  0  0  0  0  0  0  0
    3.4432   -0.8776    0.1402 C   0  0  1  0  0  3  0  0  0  0  0  0
   -0.0421    4.1560   -0.2121 C   0  0  0  0  0  0  0  0  0  0  0  0
   -1.0929    4.5075   -0.3025 H   0  0  0  0  0  0  0  0  0  0  0  0
    0.5622    4.7327   -0.9484 H   0  0  0  0  0  0  0  0  0  0  0  0
    0.4806    4.3937    1.1968 C   0  0  0  0  0  0  0  0  0  0  0  0
    0.4122    5.4706    1.4542 H   0  0  0  0  0  0  0  0  0  0  0  0
    1.5452    4.0928    1.2774 H   0  0  0  0  0  0  0  0  0  0  0  0
   -0.1029    3.8159    1.9395 H   0  0  0  0  0  0  0  0  0  0  0  0
  1  2  1  6  0  0  0
  1  3  1  0  0  0  0
  1  9  1  0  0  0  0
  3 25  1  0  0  0  0
  4  7  1  0  0  0  0
  4  1  1  0  0  0  0
  5  4  1  0  0  0  0
  6  4  1  0  0  0  0
  9 23  1  0  0  0  0
 10 12  2  0  0  0  0
 10  8  1  0  0  0  0
 11 10  1  0  0  0  0
 12 14  1  0  0  0  0
 13 12  1  0  0  0  0
 14 15  1  0  0  0  0
 14 16  2  0  0  0  0
 16 17  1  0  0  0  0
 17 18  1  0  0  0  0
 17 19  2  0  0  0  0
 19 20  1  0  0  0  0
 21 19  1  0  0  0  0
 21 22  1  0  0  0  0
 23 21  2  0  0  0  0
 24  8  1  6  0  0  0
 24 16  1  0  0  0  0
 24 23  1  0  0  0  0
 25 28  1  0  0  0  0
 26 25  1  0  0  0  0
 27 25  1  0  0  0  0
 28 30  1  0  0  0  0
 28 29  1  0  0  0  0
 28 31  1  0  0  0  0
M  END
