1,2
q = -1.0

 34 33  0  0  1  0  0  0  0  0999 V2000
    2.3544    1.6917   -0.3834 N   0  0  0  0  0  2  0  0  0  0  0  0
    2.4974   -1.3251   -0.0245 N   0  0  0  0  0  2  0  0  0  0  0  0
    4.5563    2.7845   -0.0143 C   0  0  0  0  0  0  0  0  0  0  0  0
    4.7013    3.2047   -1.0320 H   0  0  0  0  0  0  0  0  0  0  0  0
    5.5526    2.5146    0.3798 H   0  0  0  0  0  0  0  0  0  0  0  0
    4.1477    3.6007    0.6160 H   0  0  0  0  0  0  0  0  0  0  0  0
    3.6401    1.5683   -0.0387 C   0  0  2  0  0  3  0  0  0  0  0  0
    4.2593    0.3363    0.3013 C   0  0  0  0  0  0  0  0  0  0  0  0
    5.3191    0.4204    0.5761 H   0  0  0  0  0  0  0  0  0  0  0  0
    3.7702   -0.9940    0.2376 C   0  0  0  0  0  0  0  0  0  0  0  0
    4.8215   -2.0715    0.4788 C   0  0  0  0  0  0  0  0  0  0  0  0
    5.0299   -2.6574   -0.4411 H   0  0  0  0  0  0  0  0  0  0  0  0
    4.5058   -2.7940    1.2594 H   0  0  0  0  0  0  0  0  0  0  0  0
    5.7739   -1.6146    0.8025 H   0  0  0  0  0  0  0  0  0  0  0  0
    1.8109    2.9996   -0.7612 C   0  0  0  0  0  0  0  0  0  0  0  0
    2.6307    3.6845   -1.0703 H   0  0  0  0  0  0  0  0  0  0  0  0
    0.8771    2.8484   -1.9670 C   0  0  0  0  0  0  0  0  0  0  0  0
    1.4178    2.3998   -2.8244 H   0  0  0  0  0  0  0  0  0  0  0  0
    0.4657    3.8294   -2.2815 H   0  0  0  0  0  0  0  0  0  0  0  0
    0.0265    2.1853   -1.7106 H   0  0  0  0  0  0  0  0  0  0  0  0
    1.0932    3.6340    0.4374 C   0  0  0  0  0  0  0  0  0  0  0  0
    1.7970    3.8116    1.2755 H   0  0  0  0  0  0  0  0  0  0  0  0
    0.3070    2.9416    0.7964 H   0  0  0  0  0  0  0  0  0  0  0  0
    0.6128    4.5969    0.1680 H   0  0  0  0  0  0  0  0  0  0  0  0
    2.1428   -2.7284   -0.2710 C   0  0  0  0  0  0  0  0  0  0  0  0
    3.0303   -3.3786   -0.1239 H   0  0  0  0  0  0  0  0  0  0  0  0
    1.6982   -2.8950   -1.7301 C   0  0  0  0  0  0  0  0  0  0  0  0
    2.5020   -2.5766   -2.4238 H   0  0  0  0  0  0  0  0  0  0  0  0
    0.8072   -2.2664   -1.9268 H   0  0  0  0  0  0  0  0  0  0  0  0
    1.4323   -3.9487   -1.9551 H   0  0  0  0  0  0  0  0  0  0  0  0
    1.0670   -3.2198    0.7009 C   0  0  0  0  0  0  0  0  0  0  0  0
    1.4020   -3.1216    1.7526 H   0  0  0  0  0  0  0  0  0  0  0  0
    0.8201   -4.2840    0.5099 H   0  0  0  0  0  0  0  0  0  0  0  0
    0.1370   -2.6308    0.5837 H   0  0  0  0  0  0  0  0  0  0  0  0
  2 10  1  0  0  0  0
  3  5  1  0  0  0  0
  3  6  1  0  0  0  0
  4  3  1  0  0  0  0
  7  1  1  6  0  0  0
  7  3  1  0  0  0  0
  7  8  1  0  0  0  0
  8  9  1  0  0  0  0
 10  8  2  0  0  0  0
 10 11  1  0  0  0  0
 11 14  1  0  0  0  0
 11 13  1  0  0  0  0
 12 11  1  0  0  0  0
 15  1  1  0  0  0  0
 15 21  1  0  0  0  0
 16 15  1  0  0  0  0
 17 20  1  0  0  0  0
 17 15  1  0  0  0  0
 18 17  1  0  0  0  0
 19 17  1  0  0  0  0
 21 23  1  0  0  0  0
 21 22  1  0  0  0  0
 24 21  1  0  0  0  0
 25 26  1  0  0  0  0
 25  2  1  0  0  0  0
 25 31  1  0  0  0  0
 27 25  1  0  0  0  0
 28 27  1  0  0  0  0
 29 27  1  0  0  0  0
 30 27  1  0  0  0  0
 31 32  1  0  0  0  0
 33 31  1  0  0  0  0
 34 31  1  0  0  0  0
M  END
