2,8
q = -1.0, confidence = 0.0

  9  8  0  0  0  0  0  0  0  0999 V2000
    0.0002   -0.9910   -2.6047 O   0  0  0  0  0  1  0  0  0  0  0  0
   -0.0009   -1.3145   -1.4140 N   0  0  0  0  0  2  0  0  0  0  0  0
   -0.0028   -2.5750   -1.0732 N   0  0  0  0  0  0  0  0  0  0  0  0
   -0.0056   -3.9547    0.7699 N   0  0  0  0  0  0  0  0  0  0  0  0
   -0.0051   -4.1745    1.7636 H   0  0  0  0  0  0  0  0  0  0  0  0
   -0.0061   -4.7143    0.0895 H   0  0  0  0  0  0  0  0  0  0  0  0
   -0.0032   -2.6856    0.3122 C   0  0  0  0  0  0  0  0  0  0  0  0
   -0.0011   -1.5909    1.0506 N   0  0  0  0  0  2  0  0  0  0  0  0
   -0.0017   -1.6503    2.0741 H   0  0  0  0  0  0  0  0  0  0  0  0
  1  2  1  0  0  0  0
  2  3  1  0  0  0  0
  3  7  2  0  0  0  0
  4  5  1  0  0  0  0
  6  4  1  0  0  0  0
  7  4  1  0  0  0  0
  7  8  1  0  0  0  0
  8  9  1  0  0  0  0
M  END
