1,2
q = 0.0, confidence = 0.996

 30 31  0  0  0  0  0  0  0  0999 V2000
   -2.2007    0.8917   -0.1024 N   0  0  0  0  0  2  0  0  0  0  0  0
    0.3740    0.7781    0.0898 N   0  0  0  0  0  2  0  0  0  0  0  0
   -3.5487    0.8605   -0.0904 C   0  0  0  0  0  3  0  0  0  0  0  0
   -4.0170   -0.1328   -0.1206 H   0  0  0  0  0  0  0  0  0  0  0  0
   -4.3172    2.0285   -0.0296 C   0  0  0  0  0  0  0  0  0  0  0  0
   -5.4134    1.9512   -0.0323 H   0  0  0  0  0  0  0  0  0  0  0  0
   -3.6729    3.2749    0.0402 C   0  0  0  0  0  0  0  0  0  0  0  0
   -4.2563    4.2055    0.0907 H   0  0  0  0  0  0  0  0  0  0  0  0
   -2.2757    3.3099    0.0620 C   0  0  0  0  0  0  0  0  0  0  0  0
   -1.7263    4.2585    0.1439 H   0  0  0  0  0  0  0  0  0  0  0  0
   -1.5595    2.1004   -0.0031 C   0  0  0  0  0  0  0  0  0  0  0  0
   -0.1249    1.9899    0.0842 C   0  0  0  0  0  3  0  0  0  0  0  0
    0.5220    2.8755    0.1973 H   0  0  0  0  0  0  0  0  0  0  0  0
    1.7757    0.5703    0.1928 C   0  0  0  0  0  0  0  0  0  0  0  0
    2.6655    1.2809   -0.6385 C   0  0  0  0  0  0  0  0  0  0  0  0
    2.2642    1.9689   -1.3991 H   0  0  0  0  0  0  0  0  0  0  0  0
    4.0540    1.0885   -0.5441 C   0  0  0  0  0  0  0  0  0  0  0  0
    4.5611    0.1723    0.4216 C   0  0  0  0  0  0  0  0  0  0  0  0
    3.6521   -0.5194    1.2499 C   0  0  0  0  0  0  0  0  0  0  0  0
    4.0460   -1.2112    2.0103 H   0  0  0  0  0  0  0  0  0  0  0  0
    2.2695   -0.3443    1.1425 C   0  0  0  0  0  0  0  0  0  0  0  0
    1.5633   -0.8526    1.8151 H   0  0  0  0  0  0  0  0  0  0  0  0
    4.9901    1.8367   -1.4543 C   0  0  0  0  0  0  0  0  0  0  0  0
    4.4449    2.5024   -2.1492 H   0  0  0  0  0  0  0  0  0  0  0  0
    5.6093    1.1420   -2.0595 H   0  0  0  0  0  0  0  0  0  0  0  0
    5.7022    2.4594   -0.8734 H   0  0  0  0  0  0  0  0  0  0  0  0
    6.0409   -0.0527    0.5541 C   0  0  0  0  0  0  0  0  0  0  0  0
    6.2740   -0.7910    1.3434 H   0  0  0  0  0  0  0  0  0  0  0  0
    6.5717    0.8912    0.8001 H   0  0  0  0  0  0  0  0  0  0  0  0
    6.4834   -0.4153   -0.3976 H   0  0  0  0  0  0  0  0  0  0  0  0
  1  3  1  0  0  0  0
  1 11  1  0  0  0  0
  2 14  1  0  0  0  0
  3  5  1  0  0  0  0
  4  3  1  0  0  0  0
  5  7  2  0  0  0  0
  6  5  1  0  0  0  0
  7  9  1  0  0  0  0
  7  8  1  0  0  0  0
  9 10  1  0  0  0  0
 11  9  2  0  0  0  0
 11 12  1  0  0  0  0
 12  2  1  0  0  0  0
 12 13  1  0  0  0  0
 14 21  1  0  0  0  0
 15 17  1  0  0  0  0
 15 14  2  0  0  0  0
 16 15  1  0  0  0  0
 17 18  2  0  0  0  0
 18 27  1  0  0  0  0
 18 19  1  0  0  0  0
 19 20  1  0  0  0  0
 21 19  2  0  0  0  0
 21 22  1  0  0  0  0
 23 26  1  0  0  0  0
 23 17  1  0  0  0  0
 24 23  1  0  0  0  0
 25 23  1  0  0  0  0
 27 29  1  0  0  0  0
 27 28  1  0  0  0  0
 30 27  1  0  0  0  0
M  END
