1,10
q = 0.0, confidence = 1.0

 34 35  0  0  1  0  0  0  0  0999 V2000
    0.1003    1.1108    1.0372 N   0  0  0  0  0  0  0  0  0  0  0  0
    0.1046    2.0469    0.5972 H   0  0  0  0  0  0  0  0  0  0  0  0
   -0.7534    1.1566    2.2353 C   0  0  0  0  0  0  0  0  0  0  0  0
   -0.3964    1.9462    2.9354 H   0  0  0  0  0  0  0  0  0  0  0  0
   -0.6427    0.1886    2.7680 H   0  0  0  0  0  0  0  0  0  0  0  0
   -2.2357    1.4065    1.8885 C   0  0  0  0  0  0  0  0  0  0  0  0
   -2.7386    1.8814    2.7523 H   0  0  0  0  0  0  0  0  0  0  0  0
   -2.2895    2.1254    1.0373 H   0  0  0  0  0  0  0  0  0  0  0  0
   -2.9903    0.1580    1.5095 C   0  0  1  0  0  3  0  0  0  0  0  0
   -2.4793   -0.5995    0.5094 N   0  0  0  0  0  2  0  0  0  0  0  0
   -3.0776   -1.7514    0.1485 C   0  0  0  0  0  0  0  0  0  0  0  0
   -2.5691   -2.3190   -0.6496 H   0  0  0  0  0  0  0  0  0  0  0  0
   -4.2520   -2.2016    0.7592 C   0  0  0  0  0  0  0  0  0  0  0  0
   -4.7164   -3.1428    0.4329 H   0  0  0  0  0  0  0  0  0  0  0  0
   -4.8074   -1.4258    1.7870 C   0  0  0  0  0  0  0  0  0  0  0  0
   -5.7310   -1.7451    2.2932 H   0  0  0  0  0  0  0  0  0  0  0  0
   -4.1657   -0.2413    2.1712 C   0  0  0  0  0  0  0  0  0  0  0  0
   -4.5676    0.3804    2.9844 H   0  0  0  0  0  0  0  0  0  0  0  0
    1.4857    0.6787    1.2991 C   0  0  0  0  0  0  0  0  0  0  0  0
    1.4638   -0.4146    1.4942 H   0  0  0  0  0  0  0  0  0  0  0  0
    1.9037    1.1801    2.2023 H   0  0  0  0  0  0  0  0  0  0  0  0
    2.3887    0.9690    0.0977 C   0  0  0  0  0  0  0  0  0  0  0  0
    1.9324    0.5347   -0.8145 H   0  0  0  0  0  0  0  0  0  0  0  0
    2.4763    2.0673   -0.0412 H   0  0  0  0  0  0  0  0  0  0  0  0
    3.7675    0.3932    0.3135 C   0  0  0  0  0  0  0  0  0  0  0  0
    4.5788    1.0718    1.1499 N   0  0  0  0  0  0  0  0  0  0  0  0
    5.8005    0.5717    1.3886 C   0  0  0  0  0  0  0  0  0  0  0  0
    6.4418    1.1544    2.0749 H   0  0  0  0  0  0  0  0  0  0  0  0
    6.2789   -0.6190    0.8181 C   0  0  0  0  0  0  0  0  0  0  0  0
    7.2934   -0.9786    1.0464 H   0  0  0  0  0  0  0  0  0  0  0  0
    5.4283   -1.3286   -0.0423 C   0  0  0  0  0  0  0  0  0  0  0  0
    5.7572   -2.2698   -0.5093 H   0  0  0  0  0  0  0  0  0  0  0  0
    4.1488   -0.8185   -0.2989 C   0  0  0  0  0  0  0  0  0  0  0  0
    3.4379   -1.3447   -0.9547 H   0  0  0  0  0  0  0  0  0  0  0  0
  1 19  1  0  0  0  0
  1  3  1  0  0  0  0
  2  1  1  0  0  0  0
  3  5  1  0  0  0  0
  3  4  1  0  0  0  0
  6  3  1  0  0  0  0
  6  7  1  0  0  0  0
  8  6  1  0  0  0  0
  9  6  1  1  0  0  0
  9 17  1  0  0  0  0
 10  9  1  0  0  0  0
 11 10  1  0  0  0  0
 11 13  2  0  0  0  0
 12 11  1  0  0  0  0
 13 15  1  0  0  0  0
 14 13  1  0  0  0  0
 15 17  2  0  0  0  0
 15 16  1  0  0  0  0
 17 18  1  0  0  0  0
 19 20  1  0  0  0  0
 19 21  1  0  0  0  0
 22 25  1  0  0  0  0
 22 19  1  0  0  0  0
 23 22  1  0  0  0  0
 24 22  1  0  0  0  0
 25 26  1  0  0  0  0
 26 27  2  0  0  0  0
 27 28  1  0  0  0  0
 29 30  1  0  0  0  0
 29 27  1  0  0  0  0
 31 29  2  0  0  0  0
 32 31  1  0  0  0  0
 33 31  1  0  0  0  0
 33 25  2  0  0  0  0
 34 33  1  0  0  0  0
M  END
