3,6
q = 0.0, confidence = 0.998

 31 32  0  0  1  0  0  0  0  0999 V2000
   -4.1233   -2.2228   -0.1540 O   0  0  0  0  0  0  0  0  0  0  0  0
   -2.9212    2.1525   -0.2540 O   0  0  0  0  0  0  0  0  0  0  0  0
   -0.2042   -1.1647    0.2539 N   0  0  0  0  0  2  0  0  0  0  0  0
   -2.5091   -0.5774   -0.0800 N   0  0  0  0  0  0  0  0  0  0  0  0
   -0.8491    1.0594    0.0384 N   0  0  1  0  0  0  0  0  0  0  0  0
    0.4728    1.3735    0.2906 N   0  0  0  0  0  2  0  0  0  0  0  0
   -0.5644   -2.4714    0.4894 C   0  0  0  0  0  0  0  0  0  0  0  0
   -1.9023   -2.8562    0.3592 C   0  0  0  0  0  0  0  0  0  0  0  0
   -2.2124   -3.8951    0.5261 H   0  0  0  0  0  0  0  0  0  0  0  0
   -2.8483   -1.8662    0.0256 C   0  0  0  0  0  0  0  0  0  0  0  0
   -1.2221   -0.2910    0.0569 C   0  0  1  0  0  3  0  0  0  0  0  0
   -1.6111    2.2172   -0.0240 C   0  0  2  0  0  3  0  0  0  0  0  0
   -0.7452    3.2807    0.1994 C   0  0  0  0  0  0  0  0  0  0  0  0
   -0.9915    4.3451    0.2303 H   0  0  0  0  0  0  0  0  0  0  0  0
    0.5476    2.7092    0.3904 C   0  0  0  0  0  0  0  0  0  0  0  0
    0.4783   -3.4378    0.9242 C   0  0  0  0  0  0  0  0  0  0  0  0
    0.9670   -3.0666    1.8487 H   0  0  0  0  0  0  0  0  0  0  0  0
    1.2996   -3.4785    0.1736 H   0  0  0  0  0  0  0  0  0  0  0  0
    0.0429   -4.4364    1.1063 H   0  0  0  0  0  0  0  0  0  0  0  0
   -5.0572   -1.1816   -0.4679 C   0  0  0  0  0  0  0  0  0  0  0  0
   -6.0382   -1.6801   -0.5598 H   0  0  0  0  0  0  0  0  0  0  0  0
   -4.7854   -0.6795   -1.4181 H   0  0  0  0  0  0  0  0  0  0  0  0
   -5.0801   -0.4154    0.3327 H   0  0  0  0  0  0  0  0  0  0  0  0
   -3.5935    3.4100   -0.3006 C   0  0  0  0  0  0  0  0  0  0  0  0
   -4.6556    3.1857   -0.5034 H   0  0  0  0  0  0  0  0  0  0  0  0
   -3.1860    4.0497   -1.1125 H   0  0  0  0  0  0  0  0  0  0  0  0
   -3.5042    3.9463    0.6685 H   0  0  0  0  0  0  0  0  0  0  0  0
    1.8117    3.4474    0.6593 C   0  0  0  0  0  0  0  0  0  0  0  0
    2.4296    3.5052   -0.2592 H   0  0  0  0  0  0  0  0  0  0  0  0
    2.4369    2.9098    1.3956 H   0  0  0  0  0  0  0  0  0  0  0  0
    1.5833    4.4688    1.0180 H   0  0  0  0  0  0  0  0  0  0  0  0
  1 10  1  0  0  0  0
  3  7  1  0  0  0  0
  4 10  2  0  0  0  0
  5 11  1  0  0  0  0
  5  6  1  1  0  0  0
  6 15  1  0  0  0  0
  7 16  1  0  0  0  0
  8  7  2  0  0  0  0
  8  9  1  0  0  0  0
 10  8  1  0  0  0  0
 11  4  1  1  0  0  0
 11  3  1  0  0  0  0
 12  2  1  1  0  0  0
 12  5  1  0  0  0  0
 12 13  1  0  0  0  0
 13 14  1  0  0  0  0
 13 15  2  0  0  0  0
 15 28  1  0  0  0  0
 16 19  1  0  0  0  0
 16 17  1  0  0  0  0
 18 16  1  0  0  0  0
 20  1  1  0  0  0  0
 20 23  1  0  0  0  0
 21 20  1  0  0  0  0
 22 20  1  0  0  0  0
 24  2  1  0  0  0  0
 24 27  1  0  0  0  0
 25 24  1  0  0  0  0
 26 24  1  0  0  0  0
 28 31  1  0  0  0  0
 28 30  1  0  0  0  0
 29 28  1  0  0  0  0
M  END
