10,16
q = 0.0, confidence = 0.986

 37 40  0  0  1  0  0  0  0  0999 V2000
    3.3704    0.2927    0.3370 N   0  0  0  0  0  0  0  0  0  0  0  0
    1.9688    0.0672    0.1244 C   0  0  2  0  0  0  0  0  0  0  0  0
    1.5365   -0.3072    1.0925 H   0  0  0  0  0  0  0  0  0  0  0  0
    4.1645    0.8361   -0.6182 N   0  0  0  0  0  0  0  0  0  0  0  0
    5.3826    0.3248    1.2498 C   0  0  0  0  0  0  0  0  0  0  0  0
    6.2255    0.2188    1.9400 H   0  0  0  0  0  0  0  0  0  0  0  0
    1.7181   -0.9975   -0.8543 N   0  0  0  0  0  0  0  0  0  0  0  0
    5.3859    0.8567   -0.0677 C   0  0  0  0  0  0  0  0  0  0  0  0
    6.2314    1.2580   -0.6413 H   0  0  0  0  0  0  0  0  0  0  0  0
    0.5559   -1.6776   -0.7620 N   0  0  0  0  0  2  0  0  0  0  0  0
    2.4488   -1.3927   -1.9360 C   0  0  0  0  0  3  0  0  0  0  0  0
    3.4122   -0.9211   -2.1564 H   0  0  0  0  0  0  0  0  0  0  0  0
   -0.1803    1.0350   -0.1824 N   0  0  0  0  0  0  0  0  0  0  0  0
    1.7161   -2.4036   -2.5602 C   0  0  0  0  0  0  0  0  0  0  0  0
    2.0052   -2.9688   -3.4517 H   0  0  0  0  0  0  0  0  0  0  0  0
   -2.7129    0.2852    0.0352 N   0  0  0  0  0  2  0  0  0  0  0  0
    0.5378   -2.5391   -1.7904 C   0  0  0  0  0  0  0  0  0  0  0  0
   -0.3335   -3.1991   -1.8911 H   0  0  0  0  0  0  0  0  0  0  0  0
    1.1325    1.3021   -0.1866 C   0  0  0  0  0  0  0  0  0  0  0  0
    1.6327    2.5994   -0.3751 C   0  0  0  0  0  0  0  0  0  0  0  0
    2.7160    2.7739   -0.4046 H   0  0  0  0  0  0  0  0  0  0  0  0
    0.7028    3.6376   -0.5389 C   0  0  0  0  0  0  0  0  0  0  0  0
    1.0505    4.6711   -0.6852 H   0  0  0  0  0  0  0  0  0  0  0  0
   -0.6684    3.3571   -0.5070 C   0  0  0  0  0  0  0  0  0  0  0  0
   -1.4010    4.1688   -0.6095 H   0  0  0  0  0  0  0  0  0  0  0  0
   -1.0808    2.0200   -0.3306 C   0  0  0  0  0  0  0  0  0  0  0  0
   -2.5038    1.5866   -0.2708 C   0  0  1  0  0  3  0  0  0  0  0  0
   -3.5827    2.4564   -0.5192 C   0  0  0  0  0  0  0  0  0  0  0  0
   -3.4047    3.5078   -0.7819 H   0  0  0  0  0  0  0  0  0  0  0  0
   -4.8902    1.9612   -0.4395 C   0  0  0  0  0  0  0  0  0  0  0  0
   -5.7456    2.6267   -0.6301 H   0  0  0  0  0  0  0  0  0  0  0  0
   -5.0884    0.6108   -0.1226 C   0  0  0  0  0  0  0  0  0  0  0  0
   -6.0970    0.1791   -0.0529 H   0  0  0  0  0  0  0  0  0  0  0  0
   -3.9645   -0.1968    0.1032 C   0  0  0  0  0  0  0  0  0  0  0  0
   -4.0248   -1.2792    0.3230 H   0  0  0  0  0  0  0  0  0  0  0  0
    4.0601   -0.0338    1.4771 C   0  0  0  0  0  0  0  0  0  0  0  0
    3.5450   -0.4798    2.3361 H   0  0  0  0  0  0  0  0  0  0  0  0
  1 36  1  0  0  0  0
  2  1  1  0  0  0  0
  2  3  1  1  0  0  0
  4  8  2  0  0  0  0
  4  1  1  0  0  0  0
  5 36  2  0  0  0  0
  5  6  1  0  0  0  0
  7 10  1  0  0  0  0
  7  2  1  0  0  0  0
  8  5  1  0  0  0  0
  9  8  1  0  0  0  0
 11  7  1  0  0  0  0
 12 11  1  0  0  0  0
 14 11  1  0  0  0  0
 14 17  2  0  0  0  0
 15 14  1  0  0  0  0
 16 34  1  0  0  0  0
 17 10  1  0  0  0  0
 18 17  1  0  0  0  0
 19 13  1  0  0  0  0
 19  2  1  0  0  0  0
 20 19  2  0  0  0  0
 21 20  1  0  0  0  0
 22 24  2  0  0  0  0
 22 20  1  0  0  0  0
 23 22  1  0  0  0  0
 24 26  1  0  0  0  0
 25 24  1  0  0  0  0
 26 13  2  0  0  0  0
 27 26  1  6  0  0  0
 27 16  1  0  0  0  0
 28 30  2  0  0  0  0
 28 27  1  0  0  0  0
 29 28  1  0  0  0  0
 30 32  1  0  0  0  0
 31 30  1  0  0  0  0
 32 33  1  0  0  0  0
 32 34  2  0  0  0  0
 34 35  1  0  0  0  0
 36 37  1  0  0  0  0
M  END
