2,5
q = 0.0, confidence = 0.99

 22 22  0  0  0  0  0  0  0  0999 V2000
   -0.9553    2.2287   -0.6746 H   0  0  0  0  0  0  0  0  0  0  0  0
   -1.6537   -0.5735   -1.7916 N   0  0  0  0  0  0  0  0  0  0  0  0
   -1.0921   -1.3036   -2.2580 H   0  0  0  0  0  0  0  0  0  0  0  0
   -2.5765   -0.9755   -1.5687 H   0  0  0  0  0  0  0  0  0  0  0  0
   -0.1964    1.6192   -1.0143 N   0  0  0  0  0  0  0  0  0  0  0  0
    2.2695    1.9065   -1.2154 C   0  0  0  0  0  0  0  0  0  0  0  0
    2.3128    1.2032   -2.0560 H   0  0  0  0  0  0  0  0  0  0  0  0
    3.4568    2.4634   -0.7183 C   0  0  0  0  0  0  0  0  0  0  0  0
    4.4121    2.1932   -1.1916 H   0  0  0  0  0  0  0  0  0  0  0  0
    3.4350    3.3478    0.3708 C   0  0  0  0  0  0  0  0  0  0  0  0
    4.3712    3.7805    0.7524 H   0  0  0  0  0  0  0  0  0  0  0  0
    2.2068    3.6932    0.9575 C   0  0  0  0  0  0  0  0  0  0  0  0
    2.1717    4.4059    1.7948 H   0  0  0  0  0  0  0  0  0  0  0  0
    1.0166    3.1423    0.4648 C   0  0  0  0  0  0  0  0  0  0  0  0
    0.0518    3.4321    0.9152 H   0  0  0  0  0  0  0  0  0  0  0  0
    1.0442    2.2351   -0.6116 C   0  0  0  0  0  0  0  0  0  0  0  0
   -0.4278    1.4053   -2.4658 C   0  0  0  0  0  0  0  0  0  0  0  0
    0.4008    0.7813   -2.8476 H   0  0  0  0  0  0  0  0  0  0  0  0
   -0.4345    2.3675   -3.0199 H   0  0  0  0  0  0  0  0  0  0  0  0
   -1.7424    0.6513   -2.6103 C   0  0  0  0  0  0  0  0  0  0  0  0
   -2.5901    1.2591   -2.2288 H   0  0  0  0  0  0  0  0  0  0  0  0
   -1.9547    0.4334   -3.6778 H   0  0  0  0  0  0  0  0  0  0  0  0
  2  4  1  0  0  0  0
  3  2  1  0  0  0  0
  5  1  1  0  0  0  0
  5 16  1  0  0  0  0
  6  8  2  0  0  0  0
  6 16  1  0  0  0  0
  7  6  1  0  0  0  0
  8 10  1  0  0  0  0
  9  8  1  0  0  0  0
 10 11  1  0  0  0  0
 10 12  2  0  0  0  0
 12 13  1  0  0  0  0
 14 15  1  0  0  0  0
 14 12  1  0  0  0  0
 16 14  2  0  0  0  0
 17  5  1  0  0  0  0
 18 17  1  0  0  0  0
 19 17  1  0  0  0  0
 20 17  1  0  0  0  0
 20 21  1  0  0  0  0
 20  2  1  0  0  0  0
 22 20  1  0  0  0  0
M  END
