3,5
q = 0.0, confidence = 0.748

 31 32  0  0  0  0  0  0  0  0999 V2000
    6.1583    0.7730    3.3557 Cl  0  0  0  0  0  0  0  0  0  0  0  0
   -2.9700    3.6436   -2.8618 O   0  0  0  0  0  1  0  0  0  0  0  0
    1.0969    1.4433    0.2933 N   0  0  0  0  0  2  0  0  0  0  0  0
    0.8000    2.6604   -0.1545 N   0  0  0  0  0  2  0  0  0  0  0  0
   -0.9885    1.4115   -0.9788 N   0  0  0  0  0  2  0  0  0  0  0  0
   -2.0956    3.1119   -2.1422 N   0  0  0  0  0  0  0  0  0  0  0  0
   -0.3547    2.6008   -0.8357 C   0  0  0  0  0  0  0  0  0  0  0  0
   -2.1380    1.5953   -1.8411 C   0  0  0  0  0  0  0  0  0  0  0  0
   -1.0392    3.6668   -1.5288 C   0  0  0  0  0  0  0  0  0  0  0  0
    2.3010    1.3214    1.0066 C   0  0  0  0  0  0  0  0  0  0  0  0
    2.5248    0.1390    1.7486 C   0  0  0  0  0  0  0  0  0  0  0  0
    1.7507   -0.6429    1.7444 H   0  0  0  0  0  0  0  0  0  0  0  0
    3.7063   -0.0325    2.4721 C   0  0  0  0  0  0  0  0  0  0  0  0
    3.8827   -0.9485    3.0531 H   0  0  0  0  0  0  0  0  0  0  0  0
    4.6794    0.9838    2.4596 C   0  0  0  0  0  0  0  0  0  0  0  0
    4.4675    2.1710    1.7339 C   0  0  0  0  0  0  0  0  0  0  0  0
    5.2392    2.9538    1.7381 H   0  0  0  0  0  0  0  0  0  0  0  0
    3.2821    2.3410    1.0147 C   0  0  0  0  0  0  0  0  0  0  0  0
    3.0862    3.2576    0.4427 H   0  0  0  0  0  0  0  0  0  0  0  0
   -0.7125    5.1102   -1.6280 C   0  0  0  0  0  0  0  0  0  0  0  0
   -1.3791    5.5761   -2.3785 H   0  0  0  0  0  0  0  0  0  0  0  0
    0.3461    5.2587   -1.9217 H   0  0  0  0  0  0  0  0  0  0  0  0
   -0.8561    5.6261   -0.6555 H   0  0  0  0  0  0  0  0  0  0  0  0
   -1.9696    0.8588   -3.1696 C   0  0  0  0  0  0  0  0  0  0  0  0
   -0.9795    1.0838   -3.6109 H   0  0  0  0  0  0  0  0  0  0  0  0
   -2.7635    1.1840   -3.8693 H   0  0  0  0  0  0  0  0  0  0  0  0
   -2.0426   -0.2323   -2.9980 H   0  0  0  0  0  0  0  0  0  0  0  0
   -3.4770    1.3083   -1.1686 C   0  0  0  0  0  0  0  0  0  0  0  0
   -3.6010    0.2216   -1.0067 H   0  0  0  0  0  0  0  0  0  0  0  0
   -4.2838    1.6861   -1.8261 H   0  0  0  0  0  0  0  0  0  0  0  0
   -3.5395    1.8181   -0.1893 H   0  0  0  0  0  0  0  0  0  0  0  0
  2  6  1  0  0  0  0
  3 10  1  0  0  0  0
  4  3  1  0  0  0  0
  5  7  1  0  0  0  0
  6  8  1  0  0  0  0
  6  9  1  0  0  0  0
  7  4  1  0  0  0  0
  8 28  1  0  0  0  0
  8  5  1  0  0  0  0
  9  7  2  0  0  0  0
 10 18  2  0  0  0  0
 10 11  1  0  0  0  0
 11 13  2  0  0  0  0
 12 11  1  0  0  0  0
 13 14  1  0  0  0  0
 15 13  1  0  0  0  0
 15  1  1  0  0  0  0
 16 17  1  0  0  0  0
 16 15  2  0  0  0  0
 18 16  1  0  0  0  0
 19 18  1  0  0  0  0
 20  9  1  0  0  0  0
 20 23  1  0  0  0  0
 21 20  1  0  0  0  0
 22 20  1  0  0  0  0
 24 27  1  0  0  0  0
 24  8  1  0  0  0  0
 25 24  1  0  0  0  0
 26 24  1  0  0  0  0
 28 29  1  0  0  0  0
 28 31  1  0  0  0  0
 30 28  1  0  0  0  0
M  END
