5,6
q = 0.0, confidence = 0.996

 56 57  0  0  1  0  0  0  0  0999 V2000
    3.5441    1.0757    1.4779 O   0  0  0  0  0  0  0  0  0  0  0  0
    4.6612    0.1608   -0.2822 O   0  0  0  0  0  0  0  0  0  0  0  0
   -3.5439    1.0756   -1.4781 O   0  0  0  0  0  0  0  0  0  0  0  0
   -4.6611    0.1610    0.2821 O   0  0  0  0  0  0  0  0  0  0  0  0
    1.4269    1.6628   -0.0055 N   0  0  0  0  0  0  0  0  0  0  0  0
   -1.4268    1.6629    0.0053 N   0  0  0  0  0  0  0  0  0  0  0  0
    0.6590    2.8737   -0.3797 C   0  0  0  0  0  0  0  0  0  0  0  0
    0.4724    2.8303   -1.4715 H   0  0  0  0  0  0  0  0  0  0  0  0
    1.2329    3.7934   -0.1482 H   0  0  0  0  0  0  0  0  0  0  0  0
   -0.6588    2.8738    0.3793 C   0  0  0  0  0  0  0  0  0  0  0  0
   -0.4722    2.8305    1.4711 H   0  0  0  0  0  0  0  0  0  0  0  0
   -1.2326    3.7935    0.1477 H   0  0  0  0  0  0  0  0  0  0  0  0
    2.6902    1.3870   -0.7599 C   0  0  1  0  0  0  0  0  0  0  0  0
    2.4775    0.6073   -1.5163 H   0  0  0  0  0  0  0  0  0  0  0  0
    3.3129    2.6087   -1.4439 C   0  0  0  0  0  0  0  0  0  0  0  0
    2.6594    3.0037   -2.2443 H   0  0  0  0  0  0  0  0  0  0  0  0
    4.2620    2.2887   -1.9142 H   0  0  0  0  0  0  0  0  0  0  0  0
    3.5450    3.4188   -0.7239 H   0  0  0  0  0  0  0  0  0  0  0  0
    3.6630    0.8324    0.2859 C   0  0  0  0  0  0  0  0  0  0  0  0
   -2.6901    1.3873    0.7597 C   0  0  1  0  0  0  0  0  0  0  0  0
   -2.4775    0.6077    1.5162 H   0  0  0  0  0  0  0  0  0  0  0  0
   -3.3129    2.6091    1.4434 C   0  0  0  0  0  0  0  0  0  0  0  0
   -3.5449    3.4191    0.7232 H   0  0  0  0  0  0  0  0  0  0  0  0
   -2.6593    3.0043    2.2438 H   0  0  0  0  0  0  0  0  0  0  0  0
   -4.2620    2.2892    1.9137 H   0  0  0  0  0  0  0  0  0  0  0  0
   -3.6629    0.8324   -0.2861 C   0  0  0  0  0  0  0  0  0  0  0  0
    5.6477   -0.4505    0.6193 C   0  0  0  0  0  0  0  0  0  0  0  0
    5.8779    0.2925    1.4075 H   0  0  0  0  0  0  0  0  0  0  0  0
    6.8418   -0.8575   -0.2557 C   0  0  0  0  0  0  0  0  0  0  0  0
    7.7763   -0.7472    0.3294 H   0  0  0  0  0  0  0  0  0  0  0  0
    6.9239   -0.1744   -1.1238 H   0  0  0  0  0  0  0  0  0  0  0  0
    6.5925   -2.3408   -0.6599 C   0  0  0  0  0  0  0  0  0  0  0  0
    6.6086   -2.4858   -1.7578 H   0  0  0  0  0  0  0  0  0  0  0  0
    7.3939   -2.9858   -0.2447 H   0  0  0  0  0  0  0  0  0  0  0  0
    5.2259   -2.7148   -0.0415 C   0  0  0  0  0  0  0  0  0  0  0  0
    5.1501   -3.7842    0.2360 H   0  0  0  0  0  0  0  0  0  0  0  0
    4.4036   -2.5024   -0.7553 H   0  0  0  0  0  0  0  0  0  0  0  0
    5.0886   -1.7692    1.1599 C   0  0  0  0  0  0  0  0  0  0  0  0
    4.0567   -1.6690    1.5479 H   0  0  0  0  0  0  0  0  0  0  0  0
    5.7396   -2.0946    2.0004 H   0  0  0  0  0  0  0  0  0  0  0  0
   -5.6475   -0.4505   -0.6194 C   0  0  0  0  0  0  0  0  0  0  0  0
   -5.8776    0.2923   -1.4077 H   0  0  0  0  0  0  0  0  0  0  0  0
   -5.0884   -1.7693   -1.1597 C   0  0  0  0  0  0  0  0  0  0  0  0
   -5.7391   -2.0947   -2.0003 H   0  0  0  0  0  0  0  0  0  0  0  0
   -4.0563   -1.6692   -1.5473 H   0  0  0  0  0  0  0  0  0  0  0  0
   -5.2263   -2.7148    0.0417 C   0  0  0  0  0  0  0  0  0  0  0  0
   -5.1501   -3.7842   -0.2356 H   0  0  0  0  0  0  0  0  0  0  0  0
   -4.4045   -2.5022    0.7561 H   0  0  0  0  0  0  0  0  0  0  0  0
   -6.5933   -2.3409    0.6590 C   0  0  0  0  0  0  0  0  0  0  0  0
   -6.6106   -2.4866    1.7569 H   0  0  0  0  0  0  0  0  0  0  0  0
   -7.3944   -2.9854    0.2425 H   0  0  0  0  0  0  0  0  0  0  0  0
   -6.8418   -0.8573    0.2557 C   0  0  0  0  0  0  0  0  0  0  0  0
   -6.9232   -0.1746    1.1241 H   0  0  0  0  0  0  0  0  0  0  0  0
   -7.7764   -0.7461   -0.3291 H   0  0  0  0  0  0  0  0  0  0  0  0
    1.7214    1.7091    1.0002 H   0  0  0  0  0  0  0  0  0  0  0  0
   -1.7212    1.7090   -1.0004 H   0  0  0  0  0  0  0  0  0  0  0  0
  2 19  1  0  0  0  0
  2 27  1  0  0  0  0
  3 26  2  0  0  0  0
  5 55  1  0  0  0  0
  6 10  1  0  0  0  0
  6 20  1  0  0  0  0
  7  9  1  0  0  0  0
  7  5  1  0  0  0  0
  7 10  1  0  0  0  0
  8  7  1  0  0  0  0
 10 11  1  0  0  0  0
 12 10  1  0  0  0  0
 13 14  1  6  0  0  0
 13  5  1  0  0  0  0
 13 19  1  0  0  0  0
 15 13  1  0  0  0  0
 15 18  1  0  0  0  0
 16 15  1  0  0  0  0
 17 15  1  0  0  0  0
 19  1  2  0  0  0  0
 20 22  1  0  0  0  0
 20 21  1  1  0  0  0
 22 25  1  0  0  0  0
 22 24  1  0  0  0  0
 23 22  1  0  0  0  0
 26  4  1  0  0  0  0
 26 20  1  0  0  0  0
 27 38  1  0  0  0  0
 27 28  1  0  0  0  0
 29 30  1  0  0  0  0
 29 27  1  0  0  0  0
 31 29  1  0  0  0  0
 32 29  1  0  0  0  0
 32 34  1  0  0  0  0
 32 35  1  0  0  0  0
 33 32  1  0  0  0  0
 35 36  1  0  0  0  0
 35 38  1  0  0  0  0
 37 35  1  0  0  0  0
 38 39  1  0  0  0  0
 38 40  1  0  0  0  0
 41 52  1  0  0  0  0
 41  4  1  0  0  0  0
 42 41  1  0  0  0  0
 43 41  1  0  0  0  0
 43 46  1  0  0  0  0
 44 43  1  0  0  0  0
 45 43  1  0  0  0  0
 46 49  1  0  0  0  0
 46 48  1  0  0  0  0
 47 46  1  0  0  0  0
 49 50  1  0  0  0  0
 51 49  1  0  0  0  0
 52 49  1  0  0  0  0
 52 53  1  0  0  0  0
 54 52  1  0  0  0  0
 56  6  1  0  0  0  0
M  END
