3,4
q = 0.0, confidence = 1.0

 23 24  0  0  0  0  0  0  0  0999 V2000
    5.1186    0.8767    0.2363 O   0  0  0  0  0  0  0  0  0  0  0  0
    6.2808   -0.9230   -0.5070 O   0  0  0  0  0  0  0  0  0  0  0  0
   -1.2875    1.3060    0.1487 N   0  0  0  0  0  2  0  0  0  0  0  0
    0.6830   -0.4101   -0.5433 N   0  0  0  0  0  2  0  0  0  0  0  0
    1.7385   -1.1028   -0.8528 N   0  0  0  0  0  2  0  0  0  0  0  0
    2.7587   -0.2236   -0.9231 N   0  0  0  0  0  0  0  0  0  0  0  0
   -2.3337    2.0671    0.4969 C   0  0  0  0  0  3  0  0  0  0  0  0
   -2.2097    3.4489    0.7015 C   0  0  0  0  0  0  0  0  0  0  0  0
   -0.9497    4.0409    0.5302 C   0  0  0  0  0  0  0  0  0  0  0  0
    0.1401    3.2428    0.1591 C   0  0  0  0  0  0  0  0  0  0  0  0
   -0.0680    1.8651   -0.0219 C   0  0  0  0  0  0  0  0  0  0  0  0
    0.9865    0.9207   -0.4033 C   0  0  0  0  0  0  0  0  0  0  0  0
    2.3473    1.0514   -0.6564 C   0  0  0  0  0  0  0  0  0  0  0  0
    4.0722   -0.7155   -1.2857 C   0  0  0  0  0  0  0  0  0  0  0  0
    5.1859   -0.1474   -0.4104 C   0  0  0  0  0  0  0  0  0  0  0  0
   -3.2938    1.5355    0.6017 H   0  0  0  0  0  0  0  0  0  0  0  0
   -3.0874    4.0442    0.9896 H   0  0  0  0  0  0  0  0  0  0  0  0
    6.9816   -0.4898    0.0294 H   0  0  0  0  0  0  0  0  0  0  0  0
   -0.8145    5.1218    0.6847 H   0  0  0  0  0  0  0  0  0  0  0  0
    1.1393    3.6785    0.0169 H   0  0  0  0  0  0  0  0  0  0  0  0
    3.0430    1.8924   -0.6244 H   0  0  0  0  0  0  0  0  0  0  0  0
    4.3062   -0.4598   -2.3424 H   0  0  0  0  0  0  0  0  0  0  0  0
    4.0380   -1.8184   -1.2150 H   0  0  0  0  0  0  0  0  0  0  0  0
  2 15  1  0  0  0  0
  2 18  1  0  0  0  0
  3  7  1  0  0  0  0
  4 12  1  0  0  0  0
  5  4  1  0  0  0  0
  6  5  1  0  0  0  0
  6 13  1  0  0  0  0
  7 16  1  0  0  0  0
  7  8  1  0  0  0  0
  8 17  1  0  0  0  0
  9 19  1  0  0  0  0
  9  8  2  0  0  0  0
 10  9  1  0  0  0  0
 11  3  1  0  0  0  0
 11 10  2  0  0  0  0
 12 11  1  0  0  0  0
 13 21  1  0  0  0  0
 13 12  2  0  0  0  0
 14 23  1  0  0  0  0
 14  6  1  0  0  0  0
 14 15  1  0  0  0  0
 15  1  2  0  0  0  0
 20 10  1  0  0  0  0
 22 14  1  0  0  0  0
M  END
