2,3
q = 0.0, confidence = 1.0

 21 21  0  0  1  0  0  0  0  0999 V2000
    0.2440    2.9076    0.3244 O   0  0  0  0  0  0  0  0  0  0  0  0
    0.7989    1.6571    0.1938 N   0  0  0  0  0  2  0  0  0  0  0  0
    1.6622   -0.7257   -0.0048 N   0  0  0  0  0  2  0  0  0  0  0  0
    2.1061    1.5920    0.3425 C   0  0  1  0  0  3  0  0  0  0  0  0
    2.0410   -1.9944   -0.2644 C   0  0  0  0  0  3  0  0  0  0  0  0
    3.3832   -2.3852   -0.2533 C   0  0  0  0  0  0  0  0  0  0  0  0
    4.3724   -1.4260    0.0149 C   0  0  0  0  0  0  0  0  0  0  0  0
    3.9846   -0.1012    0.2397 C   0  0  0  0  0  0  0  0  0  0  0  0
    2.6184    0.2311    0.2121 C   0  0  0  0  0  0  0  0  0  0  0  0
    2.9900    2.7703    0.5779 C   0  0  0  0  0  0  0  0  0  0  0  0
   -0.5101    3.2871   -0.8440 C   0  0  0  0  0  0  0  0  0  0  0  0
    1.2351   -2.7035   -0.4935 H   0  0  0  0  0  0  0  0  0  0  0  0
    3.6416   -3.4329   -0.4602 H   0  0  0  0  0  0  0  0  0  0  0  0
    5.4357   -1.7052    0.0320 H   0  0  0  0  0  0  0  0  0  0  0  0
    4.7323    0.6822    0.4217 H   0  0  0  0  0  0  0  0  0  0  0  0
    3.7642    2.8373   -0.2133 H   0  0  0  0  0  0  0  0  0  0  0  0
    3.5182    2.6718    1.5488 H   0  0  0  0  0  0  0  0  0  0  0  0
    2.4025    3.7028    0.5898 H   0  0  0  0  0  0  0  0  0  0  0  0
   -1.2689    2.5198   -1.0923 H   0  0  0  0  0  0  0  0  0  0  0  0
   -0.9890    4.2429   -0.5673 H   0  0  0  0  0  0  0  0  0  0  0  0
    0.1650    3.4198   -1.7132 H   0  0  0  0  0  0  0  0  0  0  0  0
  2  1  1  0  0  0  0
  3  9  1  0  0  0  0
  4  2  1  6  0  0  0
  4 10  1  0  0  0  0
  5  6  1  0  0  0  0
  5  3  1  0  0  0  0
  6  7  2  0  0  0  0
  7 14  1  0  0  0  0
  7  8  1  0  0  0  0
  8 15  1  0  0  0  0
  9  8  2  0  0  0  0
  9  4  1  0  0  0  0
 10 18  1  0  0  0  0
 10 17  1  0  0  0  0
 11 20  1  0  0  0  0
 11  1  1  0  0  0  0
 12  5  1  0  0  0  0
 13  6  1  0  0  0  0
 16 10  1  0  0  0  0
 19 11  1  0  0  0  0
 21 11  1  0  0  0  0
M  END
