1,11
q = -1.0

 30 31  0  0  0  0  0  0  0  0999 V2000
   -3.0384    0.3208   -0.2024 N   0  0  0  0  0  0  0  0  0  0  0  0
   -3.9371    1.2917   -0.5310 C   0  0  0  0  0  0  0  0  0  0  0  0
   -3.6128    2.3356   -0.6134 H   0  0  0  0  0  0  0  0  0  0  0  0
   -5.2244    0.7443   -0.7159 C   0  0  0  0  0  0  0  0  0  0  0  0
   -6.1286    1.3048   -0.9803 H   0  0  0  0  0  0  0  0  0  0  0  0
   -5.1142   -0.6417   -0.4885 C   0  0  0  0  0  0  0  0  0  0  0  0
   -5.9082   -1.3969   -0.5362 H   0  0  0  0  0  0  0  0  0  0  0  0
   -3.7562   -0.8766   -0.1751 C   0  0  0  0  0  3  0  0  0  0  0  0
   -3.0178   -2.0324    0.1475 C   0  0  0  0  0  3  0  0  0  0  0  0
   -3.5104   -3.0224    0.2159 H   0  0  0  0  0  0  0  0  0  0  0  0
   -1.7276   -1.9006    0.3685 N   0  0  0  0  0  2  0  0  0  0  0  0
   -0.9378   -3.0480    0.7653 C   0  0  0  0  0  0  0  0  0  0  0  0
   -1.4271   -4.0057    0.4817 H   0  0  0  0  0  0  0  0  0  0  0  0
   -0.8243   -3.0531    1.8762 H   0  0  0  0  0  0  0  0  0  0  0  0
    0.4357   -2.9464    0.1239 C   0  0  0  0  0  0  0  0  0  0  0  0
    1.0937   -3.7810    0.4538 H   0  0  0  0  0  0  0  0  0  0  0  0
    0.3386   -2.9904   -0.9785 H   0  0  0  0  0  0  0  0  0  0  0  0
    1.0116   -1.6366    0.4924 N   0  0  0  0  0  0  0  0  0  0  0  0
    0.9419   -1.5198    1.5163 H   0  0  0  0  0  0  0  0  0  0  0  0
    2.3758   -1.4442    0.1034 C   0  0  0  0  0  0  0  0  0  0  0  0
    2.7701   -1.5664   -1.2432 C   0  0  0  0  0  0  0  0  0  0  0  0
    2.0159   -1.7827   -2.0123 H   0  0  0  0  0  0  0  0  0  0  0  0
    4.1111   -1.3637   -1.5989 C   0  0  0  0  0  0  0  0  0  0  0  0
    4.4067   -1.4544   -2.6552 H   0  0  0  0  0  0  0  0  0  0  0  0
    5.0715   -1.0404   -0.6259 C   0  0  0  0  0  0  0  0  0  0  0  0
    6.1216   -0.8828   -0.9130 H   0  0  0  0  0  0  0  0  0  0  0  0
    4.6803   -0.9316    0.7179 C   0  0  0  0  0  0  0  0  0  0  0  0
    5.4227   -0.6916    1.4941 H   0  0  0  0  0  0  0  0  0  0  0  0
    3.3425   -1.1403    1.0819 C   0  0  0  0  0  0  0  0  0  0  0  0
    3.0370   -1.0713    2.1382 H   0  0  0  0  0  0  0  0  0  0  0  0
  1  8  1  0  0  0  0
  2  1  2  0  0  0  0
  3  2  1  0  0  0  0
  4  2  1  0  0  0  0
  4  6  2  0  0  0  0
  5  4  1  0  0  0  0
  6  8  1  0  0  0  0
  7  6  1  0  0  0  0
  8  9  1  0  0  0  0
  9 10  1  0  0  0  0
  9 11  1  0  0  0  0
 11 12  1  0  0  0  0
 12 14  1  0  0  0  0
 13 12  1  0  0  0  0
 15 16  1  0  0  0  0
 15 18  1  0  0  0  0
 15 12  1  0  0  0  0
 17 15  1  0  0  0  0
 18 19  1  0  0  0  0
 20 18  1  0  0  0  0
 20 29  1  0  0  0  0
 21 20  2  0  0  0  0
 22 21  1  0  0  0  0
 23 21  1  0  0  0  0
 23 25  2  0  0  0  0
 24 23  1  0  0  0  0
 25 27  1  0  0  0  0
 26 25  1  0  0  0  0
 27 29  2  0  0  0  0
 27 28  1  0  0  0  0
 29 30  1  0  0  0  0
M  END
