3,4
q = 0.0, confidence = 0.956

 30 31  0  0  0  0  0  0  0  0999 V2000
    1.2438    2.5581   -0.0995 O   0  0  0  0  0  0  0  0  0  0  0  0
    1.2406   -2.5583   -0.3283 O   0  0  0  0  0  0  0  0  0  0  0  0
    1.4395    1.2539   -0.1814 N   0  0  0  0  0  2  0  0  0  0  0  0
    1.4367   -1.2528   -0.2367 N   0  0  0  0  0  2  0  0  0  0  0  0
    2.6547    0.7363   -0.2127 C   0  0  0  0  0  0  0  0  0  0  0  0
    2.6507   -0.7364   -0.2956 C   0  0  0  0  0  0  0  0  0  0  0  0
    3.8649   -1.5495   -0.5204 C   0  0  0  0  0  0  0  0  0  0  0  0
    3.8837    1.5537   -0.1372 C   0  0  0  0  0  0  0  0  0  0  0  0
    4.9440    1.1645    0.7124 C   0  0  0  0  0  0  0  0  0  0  0  0
    4.8489    0.2517    1.3181 H   0  0  0  0  0  0  0  0  0  0  0  0
    6.1113    1.9347    0.7884 C   0  0  0  0  0  0  0  0  0  0  0  0
    6.9270    1.6223    1.4576 H   0  0  0  0  0  0  0  0  0  0  0  0
    6.2409    3.0972    0.0119 C   0  0  0  0  0  0  0  0  0  0  0  0
    7.1609    3.6987    0.0676 H   0  0  0  0  0  0  0  0  0  0  0  0
    5.1916    3.4907   -0.8348 C   0  0  0  0  0  0  0  0  0  0  0  0
    5.2881    4.4007   -1.4462 H   0  0  0  0  0  0  0  0  0  0  0  0
    4.0166    2.7316   -0.9064 C   0  0  0  0  0  0  0  0  0  0  0  0
    3.1927    3.0417   -1.5627 H   0  0  0  0  0  0  0  0  0  0  0  0
    4.0909   -2.7358    0.2123 C   0  0  0  0  0  0  0  0  0  0  0  0
    3.3487   -3.0630    0.9528 H   0  0  0  0  0  0  0  0  0  0  0  0
    5.2509   -3.4903   -0.0048 C   0  0  0  0  0  0  0  0  0  0  0  0
    5.4197   -4.4087    0.5777 H   0  0  0  0  0  0  0  0  0  0  0  0
    6.1917   -3.0823   -0.9643 C   0  0  0  0  0  0  0  0  0  0  0  0
    7.1000   -3.6796   -1.1358 H   0  0  0  0  0  0  0  0  0  0  0  0
    5.9658   -1.9137   -1.7090 C   0  0  0  0  0  0  0  0  0  0  0  0
    6.6926   -1.5940   -2.4708 H   0  0  0  0  0  0  0  0  0  0  0  0
    4.8138   -1.1488   -1.4879 C   0  0  0  0  0  0  0  0  0  0  0  0
    4.6378   -0.2367   -2.0756 H   0  0  0  0  0  0  0  0  0  0  0  0
    0.1097    2.6540   -0.1698 H   0  0  0  0  0  0  0  0  0  0  0  0
    0.1393   -2.6473   -0.3454 H   0  0  0  0  0  0  0  0  0  0  0  0
  2  4  1  0  0  0  0
  3  1  1  0  0  0  0
  5  3  1  0  0  0  0
  5  8  1  0  0  0  0
  6  4  1  0  0  0  0
  6  5  2  0  0  0  0
  7  6  1  0  0  0  0
  7 19  1  0  0  0  0
  8  9  1  0  0  0  0
  9 11  2  0  0  0  0
  9 10  1  0  0  0  0
 11 12  1  0  0  0  0
 13 14  1  0  0  0  0
 13 11  1  0  0  0  0
 15 13  2  0  0  0  0
 16 15  1  0  0  0  0
 17 15  1  0  0  0  0
 17  8  2  0  0  0  0
 18 17  1  0  0  0  0
 19 20  1  0  0  0  0
 21 19  2  0  0  0  0
 21 22  1  0  0  0  0
 23 21  1  0  0  0  0
 24 23  1  0  0  0  0
 25 27  1  0  0  0  0
 25 23  2  0  0  0  0
 26 25  1  0  0  0  0
 27  7  2  0  0  0  0
 28 27  1  0  0  0  0
 29  1  1  0  0  0  0
 30  2  1  0  0  0  0
M  END
