3,4
q = 0.0, confidence = 0.994

 27 28  0  0  0  0  0  0  0  0999 V2000
   -1.5447   -1.1042    1.9862 O   0  0  0  0  0  0  0  0  0  0  0  0
   -2.0438   -1.1185    2.8260 H   0  0  0  0  0  0  0  0  0  0  0  0
    2.1449   -0.6299   -0.0174 N   0  0  0  0  0  2  0  0  0  0  0  0
   -0.4096   -1.3202   -0.5594 N   0  0  0  0  0  0  0  0  0  0  0  0
   -0.2515   -1.4087   -1.5761 H   0  0  0  0  0  0  0  0  0  0  0  0
    3.4193   -0.1756   -0.0539 C   0  0  0  0  0  3  0  0  0  0  0  0
    3.5298    0.9196   -0.0782 H   0  0  0  0  0  0  0  0  0  0  0  0
    4.5035   -1.0572   -0.0419 C   0  0  0  0  0  0  0  0  0  0  0  0
    5.5253   -0.6538   -0.0666 H   0  0  0  0  0  0  0  0  0  0  0  0
    4.2621   -2.4375   -0.0051 C   0  0  0  0  0  0  0  0  0  0  0  0
    5.0974   -3.1531   -0.0041 H   0  0  0  0  0  0  0  0  0  0  0  0
    2.9375   -2.8981    0.0238 C   0  0  0  0  0  0  0  0  0  0  0  0
    2.7106   -3.9735    0.0487 H   0  0  0  0  0  0  0  0  0  0  0  0
    1.8916   -1.9686    0.0263 C   0  0  0  0  0  0  0  0  0  0  0  0
    0.4407   -2.3508    0.1248 C   0  0  0  0  0  0  0  0  0  0  0  0
    0.1337   -2.3593    1.1902 H   0  0  0  0  0  0  0  0  0  0  0  0
    0.2471   -3.3562   -0.3008 H   0  0  0  0  0  0  0  0  0  0  0  0
   -1.8367   -1.4849   -0.3478 C   0  0  0  0  0  0  0  0  0  0  0  0
   -2.3919   -1.3659    0.9487 C   0  0  0  0  0  0  0  0  0  0  0  0
   -3.7811   -1.5012    1.1112 C   0  0  0  0  0  0  0  0  0  0  0  0
   -4.2124   -1.4160    2.1217 H   0  0  0  0  0  0  0  0  0  0  0  0
   -4.6099   -1.7334    0.0056 C   0  0  0  0  0  0  0  0  0  0  0  0
   -5.6946   -1.8340    0.1550 H   0  0  0  0  0  0  0  0  0  0  0  0
   -4.0607   -1.8343   -1.2818 C   0  0  0  0  0  0  0  0  0  0  0  0
   -4.7058   -2.0130   -2.1532 H   0  0  0  0  0  0  0  0  0  0  0  0
   -2.6757   -1.7104   -1.4491 C   0  0  0  0  0  0  0  0  0  0  0  0
   -2.2311   -1.7887   -2.4546 H   0  0  0  0  0  0  0  0  0  0  0  0
  1  2  1  0  0  0  0
  3 14  1  0  0  0  0
  4 18  1  0  0  0  0
  4 15  1  0  0  0  0
  5  4  1  0  0  0  0
  6  8  1  0  0  0  0
  6  3  1  0  0  0  0
  7  6  1  0  0  0  0
  8 10  2  0  0  0  0
  9  8  1  0  0  0  0
 10 11  1  0  0  0  0
 10 12  1  0  0  0  0
 12 14  2  0  0  0  0
 12 13  1  0  0  0  0
 14 15  1  0  0  0  0
 15 16  1  0  0  0  0
 17 15  1  0  0  0  0
 18 19  1  0  0  0  0
 19 20  2  0  0  0  0
 19  1  1  0  0  0  0
 20 21  1  0  0  0  0
 22 23  1  0  0  0  0
 22 20  1  0  0  0  0
 24 22  2  0  0  0  0
 25 24  1  0  0  0  0
 26 24  1  0  0  0  0
 26 18  2  0  0  0  0
 27 26  1  0  0  0  0
M  END
