1,11
q = -1.0

 32 33  0  0  0  0  0  0  0  0999 V2000
    2.7474   -1.0383   -0.3844 N   0  0  0  0  0  0  0  0  0  0  0  0
    3.9927   -0.9746   -0.9065 C   0  0  0  0  0  0  0  0  0  0  0  0
    4.4374   -0.0198   -1.2129 H   0  0  0  0  0  0  0  0  0  0  0  0
    4.5389   -2.2819   -0.9993 C   0  0  0  0  0  0  0  0  0  0  0  0
    5.5359   -2.5334   -1.3799 H   0  0  0  0  0  0  0  0  0  0  0  0
    1.1422   -2.5962    0.3370 C   0  0  0  0  0  3  0  0  0  0  0  0
    0.7497   -3.6084    0.5453 H   0  0  0  0  0  0  0  0  0  0  0  0
    3.5634   -3.1736   -0.5180 C   0  0  0  0  0  0  0  0  0  0  0  0
    3.6307   -4.2657   -0.4506 H   0  0  0  0  0  0  0  0  0  0  0  0
    2.4514   -2.3755   -0.1483 C   0  0  0  0  0  3  0  0  0  0  0  0
    0.3835   -1.5361    0.5334 N   0  0  0  0  0  2  0  0  0  0  0  0
   -1.0042   -1.6807    0.9444 C   0  0  0  0  0  0  0  0  0  0  0  0
   -1.2379   -0.8688    1.6630 H   0  0  0  0  0  0  0  0  0  0  0  0
   -1.1360   -2.6400    1.4942 H   0  0  0  0  0  0  0  0  0  0  0  0
   -1.9619   -1.6058   -0.2497 C   0  0  0  0  0  0  0  0  0  0  0  0
   -1.8867   -2.5528   -0.8312 H   0  0  0  0  0  0  0  0  0  0  0  0
   -1.5679   -0.8401   -0.9577 H   0  0  0  0  0  0  0  0  0  0  0  0
   -3.4082   -1.3103    0.0493 C   0  0  0  0  0  0  0  0  0  0  0  0
   -3.9198   -1.1778    1.2968 C   0  0  0  0  0  0  0  0  0  0  0  0
   -3.2706   -1.3457    2.1728 H   0  0  0  0  0  0  0  0  0  0  0  0
   -4.2773   -1.1271   -1.1793 C   0  0  0  0  0  0  0  0  0  0  0  0
   -4.0303   -1.9189   -1.9202 H   0  0  0  0  0  0  0  0  0  0  0  0
   -3.9839   -0.1735   -1.6777 H   0  0  0  0  0  0  0  0  0  0  0  0
   -5.7785   -1.1268   -0.8712 C   0  0  0  0  0  0  0  0  0  0  0  0
   -6.3510   -0.7776   -1.7552 H   0  0  0  0  0  0  0  0  0  0  0  0
   -6.1142   -2.1683   -0.6700 H   0  0  0  0  0  0  0  0  0  0  0  0
   -6.0786   -0.2600    0.3551 C   0  0  0  0  0  0  0  0  0  0  0  0
   -5.7311    0.7789    0.1582 H   0  0  0  0  0  0  0  0  0  0  0  0
   -7.1704   -0.1987    0.5432 H   0  0  0  0  0  0  0  0  0  0  0  0
   -5.3526   -0.8093    1.5891 C   0  0  0  0  0  0  0  0  0  0  0  0
   -5.8926   -1.7041    1.9806 H   0  0  0  0  0  0  0  0  0  0  0  0
   -5.3862   -0.0707    2.4200 H   0  0  0  0  0  0  0  0  0  0  0  0
  1 10  1  0  0  0  0
  2  1  2  0  0  0  0
  3  2  1  0  0  0  0
  4  2  1  0  0  0  0
  4  8  2  0  0  0  0
  5  4  1  0  0  0  0
  6 11  1  0  0  0  0
  6  7  1  0  0  0  0
  8  9  1  0  0  0  0
  8 10  1  0  0  0  0
 10  6  1  0  0  0  0
 11 12  1  0  0  0  0
 12 14  1  0  0  0  0
 12 13  1  0  0  0  0
 15 18  1  0  0  0  0
 15 12  1  0  0  0  0
 16 15  1  0  0  0  0
 17 15  1  0  0  0  0
 18 19  2  0  0  0  0
 19 30  1  0  0  0  0
 19 20  1  0  0  0  0
 21 24  1  0  0  0  0
 21 18  1  0  0  0  0
 22 21  1  0  0  0  0
 23 21  1  0  0  0  0
 24 26  1  0  0  0  0
 24 27  1  0  0  0  0
 25 24  1  0  0  0  0
 27 29  1  0  0  0  0
 27 30  1  0  0  0  0
 28 27  1  0  0  0  0
 30 31  1  0  0  0  0
 30 32  1  0  0  0  0
M  END
