1,20
q = -1.0, confidence = 0.028

 35 36  0  0  0  0  0  0  0  0999 V2000
   -1.4079   -1.2461    0.0118 N   0  0  0  0  0  2  0  0  0  0  0  0
   -1.2179   -2.5528    0.1282 O   0  0  0  0  0  0  0  0  0  0  0  0
   -0.1181   -2.6603    0.0302 H   0  0  0  0  0  0  0  0  0  0  0  0
   -2.6306   -0.7342    0.0544 C   0  0  0  0  0  0  0  0  0  0  0  0
   -3.8399   -1.5482    0.2794 C   0  0  0  0  0  0  0  0  0  0  0  0
   -4.8523   -1.0872    1.1527 C   0  0  0  0  0  0  0  0  0  0  0  0
   -4.7314   -0.1220    1.6644 H   0  0  0  0  0  0  0  0  0  0  0  0
   -4.0225   -2.7975   -0.3573 C   0  0  0  0  0  0  0  0  0  0  0  0
   -3.2443   -3.1786   -1.0308 H   0  0  0  0  0  0  0  0  0  0  0  0
   -6.0037   -1.8488    1.3761 C   0  0  0  0  0  0  0  0  0  0  0  0
   -6.7750   -1.4695    2.0649 H   0  0  0  0  0  0  0  0  0  0  0  0
   -5.1862   -3.5416   -0.1394 C   0  0  0  0  0  0  0  0  0  0  0  0
   -5.3135   -4.5049   -0.6585 H   0  0  0  0  0  0  0  0  0  0  0  0
   -6.1981   -3.0882    0.7329 C   0  0  0  0  0  0  0  0  0  0  0  0
   -7.4285   -3.9181    0.9931 C   0  0  0  0  0  0  0  0  0  0  0  0
   -7.2433   -4.6577    1.8021 H   0  0  0  0  0  0  0  0  0  0  0  0
   -7.7322   -4.4917    0.0949 H   0  0  0  0  0  0  0  0  0  0  0  0
   -8.2847   -3.2924    1.3130 H   0  0  0  0  0  0  0  0  0  0  0  0
   -1.2037    2.5361   -0.0930 O   0  0  0  0  0  1  0  0  0  0  0  0
   -1.4127    1.2601   -0.0119 N   0  0  0  0  0  2  0  0  0  0  0  0
   -3.8508    1.5440   -0.2833 C   0  0  0  0  0  0  0  0  0  0  0  0
   -2.6394    0.7362   -0.0564 C   0  0  0  0  0  0  0  0  0  0  0  0
   -4.8793    1.0697   -1.1308 C   0  0  0  0  0  0  0  0  0  0  0  0
   -4.7716    0.0942   -1.6256 H   0  0  0  0  0  0  0  0  0  0  0  0
   -4.0185    2.8124    0.3219 C   0  0  0  0  0  0  0  0  0  0  0  0
   -3.2260    3.2072    0.9699 H   0  0  0  0  0  0  0  0  0  0  0  0
   -6.0318    1.8309   -1.3542 C   0  0  0  0  0  0  0  0  0  0  0  0
   -6.8149    1.4389   -2.0223 H   0  0  0  0  0  0  0  0  0  0  0  0
   -5.1805    3.5577    0.1011 C   0  0  0  0  0  0  0  0  0  0  0  0
   -5.2925    4.5365    0.5945 H   0  0  0  0  0  0  0  0  0  0  0  0
   -6.2101    3.0873   -0.7416 C   0  0  0  0  0  0  0  0  0  0  0  0
   -7.4415    3.9179   -0.9964 C   0  0  0  0  0  0  0  0  0  0  0  0
   -7.8217    4.3796   -0.0627 H   0  0  0  0  0  0  0  0  0  0  0  0
   -8.2572    3.3159   -1.4419 H   0  0  0  0  0  0  0  0  0  0  0  0
   -7.2218    4.7505   -1.6990 H   0  0  0  0  0  0  0  0  0  0  0  0
  1  4  1  0  0  0  0
  1  2  1  0  0  0  0
  3  2  1  0  0  0  0
  4  5  1  0  0  0  0
  5  6  1  0  0  0  0
  6 10  2  0  0  0  0
  6  7  1  0  0  0  0
  8 12  1  0  0  0  0
  8  5  2  0  0  0  0
  9  8  1  0  0  0  0
 10 11  1  0  0  0  0
 12 14  2  0  0  0  0
 13 12  1  0  0  0  0
 14 15  1  0  0  0  0
 14 10  1  0  0  0  0
 15 18  1  0  0  0  0
 15 16  1  0  0  0  0
 17 15  1  0  0  0  0
 19 20  1  0  0  0  0
 21 22  1  0  0  0  0
 21 25  1  0  0  0  0
 22 20  1  0  0  0  0
 22  4  2  0  0  0  0
 23 21  2  0  0  0  0
 24 23  1  0  0  0  0
 25 26  1  0  0  0  0
 27 23  1  0  0  0  0
 27 31  2  0  0  0  0
 28 27  1  0  0  0  0
 29 25  2  0  0  0  0
 29 30  1  0  0  0  0
 31 29  1  0  0  0  0
 32 31  1  0  0  0  0
 32 33  1  0  0  0  0
 34 32  1  0  0  0  0
 35 32  1  0  0  0  0
M  END
