4,5
q = 0.0, confidence = 0.998

 23 26  0  0  0  0  0  0  0  0999 V2000
    7.2093   -0.0000   -0.0001 Se  0  0  0  0  0  0  0  0  0  0  0  0
    5.9763    1.3228   -0.0190 N   0  0  0  0  0  0  0  0  0  0  0  0
    5.9762   -1.3229    0.0183 N   0  0  0  0  0  0  0  0  0  0  0  0
    1.1000    1.3480   -0.0441 N   0  0  0  0  0  2  0  0  0  0  0  0
    1.1000   -1.3480    0.0430 N   0  0  0  0  0  2  0  0  0  0  0  0
    4.7862    0.7299   -0.0108 C   0  0  0  0  0  0  0  0  0  0  0  0
    3.5284    1.4690   -0.0252 C   0  0  0  0  0  0  0  0  0  0  0  0
    3.4555    2.8783   -0.0487 C   0  0  0  0  0  0  0  0  0  0  0  0
    4.3884    3.4602   -0.0551 H   0  0  0  0  0  0  0  0  0  0  0  0
    2.2012    3.4897   -0.0616 C   0  0  0  0  0  0  0  0  0  0  0  0
    2.1022    4.5842   -0.0764 H   0  0  0  0  0  0  0  0  0  0  0  0
    1.0425    2.6922   -0.0584 C   0  0  0  0  0  0  0  0  0  0  0  0
    0.0316    3.1283   -0.0671 H   0  0  0  0  0  0  0  0  0  0  0  0
    2.3170    0.7295   -0.0168 C   0  0  0  0  0  0  0  0  0  0  0  0
    2.3170   -0.7295    0.0159 C   0  0  0  0  0  0  0  0  0  0  0  0
    1.0425   -2.6922    0.0573 C   0  0  0  0  0  0  0  0  0  0  0  0
    0.0315   -3.1283    0.0658 H   0  0  0  0  0  0  0  0  0  0  0  0
    2.2012   -3.4898    0.0605 C   0  0  0  0  0  0  0  0  0  0  0  0
    2.1022   -4.5842    0.0752 H   0  0  0  0  0  0  0  0  0  0  0  0
    3.4555   -2.8783    0.0478 C   0  0  0  0  0  0  0  0  0  0  0  0
    4.3884   -3.4603    0.0542 H   0  0  0  0  0  0  0  0  0  0  0  0
    3.5283   -1.4691    0.0243 C   0  0  0  0  0  0  0  0  0  0  0  0
    4.7862   -0.7299    0.0100 C   0  0  0  0  0  0  0  0  0  0  0  0
  1  3  1  0  0  0  0
  2  6  2  0  0  0  0
  2  1  1  0  0  0  0
  4 14  1  0  0  0  0
  5 16  1  0  0  0  0
  6 23  1  0  0  0  0
  7 14  1  0  0  0  0
  7  6  1  0  0  0  0
  8  7  2  0  0  0  0
  9  8  1  0  0  0  0
 10 12  2  0  0  0  0
 10  8  1  0  0  0  0
 11 10  1  0  0  0  0
 12  4  1  0  0  0  0
 13 12  1  0  0  0  0
 14 15  2  0  0  0  0
 15 22  1  0  0  0  0
 15  5  1  0  0  0  0
 16 18  2  0  0  0  0
 16 17  1  0  0  0  0
 18 19  1  0  0  0  0
 20 21  1  0  0  0  0
 20 18  1  0  0  0  0
 22 20  2  0  0  0  0
 23  3  2  0  0  0  0
 23 22  1  0  0  0  0
M  END
