3,4
q = -1.0, confidence = 0.002

 59 58  0  0  0  0  0  0  0  0999 V2000
   -0.3246    0.4976   -0.0390 P   0  0  0  0  0  4  0  0  0  0  0  0
    2.5789   -0.9547   -0.0532 Si  0  0  0  0  0  0  0  0  0  0  0  0
   -1.6053   -0.5132   -0.2747 N   0  0  0  0  0  2  0  0  0  0  0  0
    0.8851   -0.5721   -0.1420 N   0  0  0  0  0  2  0  0  0  0  0  0
   -0.2743    1.4255    1.3725 N   0  0  0  0  0  0  0  0  0  0  0  0
   -0.7460    2.3247    1.2627 H   0  0  0  0  0  0  0  0  0  0  0  0
   -0.4959    1.7674   -1.1780 N   0  0  0  0  0  0  0  0  0  0  0  0
   -1.0718    1.3937   -1.9416 H   0  0  0  0  0  0  0  0  0  0  0  0
   -3.0456   -0.2492   -0.3602 C   0  0  0  0  0  0  0  0  0  0  0  0
   -3.4677    1.0011    0.4351 C   0  0  0  0  0  0  0  0  0  0  0  0
   -2.9652    1.9071    0.0398 H   0  0  0  0  0  0  0  0  0  0  0  0
   -3.2046    0.8961    1.5060 H   0  0  0  0  0  0  0  0  0  0  0  0
   -4.5630    1.1577    0.3624 H   0  0  0  0  0  0  0  0  0  0  0  0
   -3.4640   -0.0763   -1.8382 C   0  0  0  0  0  0  0  0  0  0  0  0
   -3.0208    0.8439   -2.2734 H   0  0  0  0  0  0  0  0  0  0  0  0
   -4.5653    0.0058   -1.9486 H   0  0  0  0  0  0  0  0  0  0  0  0
   -3.1150   -0.9436   -2.4344 H   0  0  0  0  0  0  0  0  0  0  0  0
   -3.7614   -1.4854    0.2168 C   0  0  0  0  0  0  0  0  0  0  0  0
   -3.4919   -1.6222    1.2834 H   0  0  0  0  0  0  0  0  0  0  0  0
   -3.4472   -2.3980   -0.3310 H   0  0  0  0  0  0  0  0  0  0  0  0
   -4.8641   -1.3942    0.1388 H   0  0  0  0  0  0  0  0  0  0  0  0
   -0.0976    0.9825    2.7754 C   0  0  0  0  0  0  0  0  0  0  0  0
   -0.9883    1.8843    3.6471 C   0  0  0  0  0  0  0  0  0  0  0  0
   -2.0584    1.7580    3.3857 H   0  0  0  0  0  0  0  0  0  0  0  0
   -0.7187    2.9534    3.5145 H   0  0  0  0  0  0  0  0  0  0  0  0
   -0.8631    1.6370    4.7197 H   0  0  0  0  0  0  0  0  0  0  0  0
    1.3755    1.1606    3.1901 C   0  0  0  0  0  0  0  0  0  0  0  0
    1.6956    2.2126    3.0496 H   0  0  0  0  0  0  0  0  0  0  0  0
    2.0263    0.5181    2.5691 H   0  0  0  0  0  0  0  0  0  0  0  0
    1.5305    0.8849    4.2532 H   0  0  0  0  0  0  0  0  0  0  0  0
   -0.5165   -0.4863    2.9677 C   0  0  0  0  0  0  0  0  0  0  0  0
   -1.5790   -0.6379    2.6971 H   0  0  0  0  0  0  0  0  0  0  0  0
   -0.3722   -0.7841    4.0253 H   0  0  0  0  0  0  0  0  0  0  0  0
    0.0948   -1.1548    2.3321 H   0  0  0  0  0  0  0  0  0  0  0  0
    0.5423    2.6813   -1.7198 C   0  0  0  0  0  0  0  0  0  0  0  0
   -0.2075    3.7811   -2.4915 C   0  0  0  0  0  0  0  0  0  0  0  0
   -0.8161    3.3450   -3.3114 H   0  0  0  0  0  0  0  0  0  0  0  0
    0.5046    4.4985   -2.9468 H   0  0  0  0  0  0  0  0  0  0  0  0
   -0.8885    4.3363   -1.8163 H   0  0  0  0  0  0  0  0  0  0  0  0
    1.3486    3.3195   -0.5805 C   0  0  0  0  0  0  0  0  0  0  0  0
    1.8665    2.5600    0.0326 H   0  0  0  0  0  0  0  0  0  0  0  0
    0.6914    3.9082    0.0899 H   0  0  0  0  0  0  0  0  0  0  0  0
    2.1107    4.0042   -1.0026 H   0  0  0  0  0  0  0  0  0  0  0  0
    1.4769    1.9179   -2.6798 C   0  0  0  0  0  0  0  0  0  0  0  0
    1.9545    1.0677   -2.1587 H   0  0  0  0  0  0  0  0  0  0  0  0
    2.2696    2.5777   -3.0875 H   0  0  0  0  0  0  0  0  0  0  0  0
    0.9025    1.5063   -3.5355 H   0  0  0  0  0  0  0  0  0  0  0  0
    3.7543    0.5186    0.1748 C   0  0  0  0  0  0  0  0  0  0  0  0
    3.7432    1.1973   -0.7008 H   0  0  0  0  0  0  0  0  0  0  0  0
    4.7905    0.1356    0.2860 H   0  0  0  0  0  0  0  0  0  0  0  0
    3.5213    1.1194    1.0761 H   0  0  0  0  0  0  0  0  0  0  0  0
    3.0478   -1.8349   -1.6638 C   0  0  0  0  0  0  0  0  0  0  0  0
    2.9223   -1.1647   -2.5390 H   0  0  0  0  0  0  0  0  0  0  0  0
    2.3953   -2.7188   -1.8204 H   0  0  0  0  0  0  0  0  0  0  0  0
    4.1011   -2.1842   -1.6486 H   0  0  0  0  0  0  0  0  0  0  0  0
    2.8457   -2.1762    1.3717 C   0  0  0  0  0  0  0  0  0  0  0  0
    2.1578   -3.0401    1.2604 H   0  0  0  0  0  0  0  0  0  0  0  0
    2.6469   -1.7134    2.3597 H   0  0  0  0  0  0  0  0  0  0  0  0
    3.8845   -2.5667    1.3814 H   0  0  0  0  0  0  0  0  0  0  0  0
  1  5  1  0  0  0  0
  2 48  1  0  0  0  0
  2 56  1  0  0  0  0
  3  1  1  0  0  0  0
  4  2  1  0  0  0  0
  4  1  1  0  0  0  0
  5 22  1  0  0  0  0
  6  5  1  0  0  0  0
  7  1  1  0  0  0  0
  8  7  1  0  0  0  0
  9  3  1  0  0  0  0
  9 18  1  0  0  0  0
  9 10  1  0  0  0  0
 10 12  1  0  0  0  0
 11 10  1  0  0  0  0
 13 10  1  0  0  0  0
 14  9  1  0  0  0  0
 15 14  1  0  0  0  0
 16 14  1  0  0  0  0
 17 14  1  0  0  0  0
 18 19  1  0  0  0  0
 20 18  1  0  0  0  0
 21 18  1  0  0  0  0
 22 31  1  0  0  0  0
 22 27  1  0  0  0  0
 22 23  1  0  0  0  0
 23 26  1  0  0  0  0
 24 23  1  0  0  0  0
 25 23  1  0  0  0  0
 27 30  1  0  0  0  0
 28 27  1  0  0  0  0
 29 27  1  0  0  0  0
 31 33  1  0  0  0  0
 32 31  1  0  0  0  0
 34 31  1  0  0  0  0
 35  7  1  0  0  0  0
 35 40  1  0  0  0  0
 36 39  1  0  0  0  0
 36 35  1  0  0  0  0
 37 36  1  0  0  0  0
 38 36  1  0  0  0  0
 40 41  1  0  0  0  0
 40 42  1  0  0  0  0
 43 40  1  0  0  0  0
 44 45  1  0  0  0  0
 44 35  1  0  0  0  0
 46 44  1  0  0  0  0
 47 44  1  0  0  0  0
 48 50  1  0  0  0  0
 48 51  1  0  0  0  0
 49 48  1  0  0  0  0
 52 55  1  0  0  0  0
 52  2  1  0  0  0  0
 53 52  1  0  0  0  0
 54 52  1  0  0  0  0
 56 59  1  0  0  0  0
 56 58  1  0  0  0  0
 57 56  1  0  0  0  0
M  END
