1,16
q = 0.0, confidence = 0.996

 26 27  0  0  1  0  0  0  0  0999 V2000
   -2.1144    0.5204   -0.6264 N   0  0  0  0  0  2  0  0  0  0  0  0
   -2.5986   -0.7367   -0.6805 C   0  0  2  0  0  3  0  0  0  0  0  0
   -3.9787   -1.0201   -0.6319 C   0  0  0  0  0  0  0  0  0  0  0  0
   -4.3640   -2.0483   -0.6529 H   0  0  0  0  0  0  0  0  0  0  0  0
   -4.8650    0.0549   -0.4979 C   0  0  0  0  0  0  0  0  0  0  0  0
   -5.9471   -0.1357   -0.4432 H   0  0  0  0  0  0  0  0  0  0  0  0
   -4.3599    1.3636   -0.3973 C   0  0  0  0  0  0  0  0  0  0  0  0
   -5.0281    2.2278   -0.2752 H   0  0  0  0  0  0  0  0  0  0  0  0
   -2.9741    1.5389   -0.4546 C   0  0  0  0  0  0  0  0  0  0  0  0
   -2.5074    2.5333   -0.3521 H   0  0  0  0  0  0  0  0  0  0  0  0
   -1.6099   -1.7355   -0.7637 N   0  0  0  0  0  0  0  0  0  0  0  0
   -1.8744   -3.0901   -1.1877 C   0  0  0  0  0  0  0  0  0  0  0  0
   -1.5386   -3.8107   -0.4114 H   0  0  0  0  0  0  0  0  0  0  0  0
   -1.3604   -3.3304   -2.1448 H   0  0  0  0  0  0  0  0  0  0  0  0
   -2.9557   -3.2172   -1.3526 H   0  0  0  0  0  0  0  0  0  0  0  0
   -0.3645   -1.3894   -0.3395 N   0  0  0  0  0  2  0  0  0  0  0  0
    0.6594   -2.1804   -0.5924 C   0  0  0  0  0  3  0  0  0  0  0  0
    0.5529   -3.0533   -1.2558 H   0  0  0  0  0  0  0  0  0  0  0  0
    2.2241   -0.9985    0.8536 O   0  0  0  0  0  0  0  0  0  0  0  0
    1.9762   -1.9881   -0.0593 C   0  0  0  0  0  0  0  0  0  0  0  0
    3.1551   -2.6920   -0.2987 C   0  0  0  0  0  0  0  0  0  0  0  0
    3.2672   -3.5483   -0.9727 H   0  0  0  0  0  0  0  0  0  0  0  0
    4.1624   -2.0898    0.5188 C   0  0  0  0  0  0  0  0  0  0  0  0
    5.2149   -2.3823    0.6006 H   0  0  0  0  0  0  0  0  0  0  0  0
    3.5401   -1.0675    1.2023 C   0  0  0  0  0  0  0  0  0  0  0  0
    3.8691   -0.3313    1.9421 H   0  0  0  0  0  0  0  0  0  0  0  0
  1  9  1  0  0  0  0
  2 11  1  1  0  0  0
  2  3  1  0  0  0  0
  2  1  1  0  0  0  0
  3  5  2  0  0  0  0
  4  3  1  0  0  0  0
  5  6  1  0  0  0  0
  5  7  1  0  0  0  0
  7  8  1  0  0  0  0
  9  7  2  0  0  0  0
  9 10  1  0  0  0  0
 11 16  1  0  0  0  0
 12 11  1  0  0  0  0
 12 13  1  0  0  0  0
 14 12  1  0  0  0  0
 15 12  1  0  0  0  0
 17 16  1  0  0  0  0
 17 20  1  0  0  0  0
 18 17  1  0  0  0  0
 19 25  1  0  0  0  0
 20 19  1  0  0  0  0
 21 20  2  0  0  0  0
 21 23  1  0  0  0  0
 22 21  1  0  0  0  0
 23 24  1  0  0  0  0
 23 25  2  0  0  0  0
 25 26  1  0  0  0  0
M  END
