3,6
q = 0.0, confidence = 0.992

 68 70  0  0  1  0  0  0  0  0999 V2000
    3.8903    0.4663    1.1521 O   0  0  0  0  0  0  0  0  0  0  0  0
   -3.8904    0.4667   -1.1519 O   0  0  0  0  0  0  0  0  0  0  0  0
    2.1250   -0.3076   -0.0210 N   0  0  0  0  0  2  0  0  0  0  0  0
    0.3860    1.3273    1.4162 N   0  0  0  0  0  0  0  0  0  0  0  0
   -0.3860    1.3273   -1.4162 N   0  0  0  0  0  0  0  0  0  0  0  0
   -2.1251   -0.3074    0.0210 N   0  0  0  0  0  2  0  0  0  0  0  0
    3.2856   -0.8767   -0.7277 C   0  0  2  0  0  0  0  0  0  0  0  0
    3.2919   -2.4225   -0.6762 C   0  0  0  0  0  0  0  0  0  0  0  0
    3.3499   -2.9718    0.7515 C   0  0  0  0  0  0  0  0  0  0  0  0
    4.4181   -2.9707   -1.5593 C   0  0  0  0  0  0  0  0  0  0  0  0
    4.4827   -0.1884   -0.0110 C   0  0  0  0  0  0  0  0  0  0  0  0
    2.5605    0.3517    0.9956 C   0  0  1  0  0  3  0  0  0  0  0  0
    1.6539    0.9412    2.0310 C   0  0  0  0  0  0  0  0  0  0  0  0
   -0.7055    1.3405    2.3930 C   0  0  0  0  0  0  0  0  0  0  0  0
    0.5109    2.5446    0.5816 C   0  0  2  0  0  0  0  0  0  0  0  0
    0.4342    3.8508    1.3993 C   0  0  0  0  0  0  0  0  0  0  0  0
    0.5471    5.1084    0.5354 C   0  0  0  0  0  0  0  0  0  0  0  0
   -0.5463    5.1085   -0.5354 C   0  0  0  0  0  0  0  0  0  0  0  0
   -0.4336    3.8509   -1.3993 C   0  0  0  0  0  0  0  0  0  0  0  0
   -0.5106    2.5447   -0.5816 C   0  0  1  0  0  0  0  0  0  0  0  0
    0.7055    1.3403   -2.3930 C   0  0  0  0  0  0  0  0  0  0  0  0
   -1.6540    0.9414   -2.0309 C   0  0  0  0  0  0  0  0  0  0  0  0
   -2.5606    0.3520   -0.9955 C   0  0  1  0  0  3  0  0  0  0  0  0
   -4.4828   -0.1880    0.0111 C   0  0  0  0  0  0  0  0  0  0  0  0
   -3.2857   -0.8765    0.7277 C   0  0  1  0  0  0  0  0  0  0  0  0
   -3.2921   -2.4222    0.6762 C   0  0  0  0  0  0  0  0  0  0  0  0
   -3.3500   -2.9715   -0.7515 C   0  0  0  0  0  0  0  0  0  0  0  0
   -4.4185   -2.9703    1.5591 C   0  0  0  0  0  0  0  0  0  0  0  0
    3.2315   -0.5770   -1.7954 H   0  0  0  0  0  0  0  0  0  0  0  0
    2.3187   -2.7178   -1.1253 H   0  0  0  0  0  0  0  0  0  0  0  0
    3.3158   -4.0797    0.7320 H   0  0  0  0  0  0  0  0  0  0  0  0
    4.2892   -2.6884    1.2752 H   0  0  0  0  0  0  0  0  0  0  0  0
    2.4823   -2.6306    1.3525 H   0  0  0  0  0  0  0  0  0  0  0  0
    4.3816   -4.0778   -1.5924 H   0  0  0  0  0  0  0  0  0  0  0  0
    5.4240   -2.6914   -1.1750 H   0  0  0  0  0  0  0  0  0  0  0  0
    4.3386   -2.6011   -2.6028 H   0  0  0  0  0  0  0  0  0  0  0  0
    4.9739    0.5977   -0.6199 H   0  0  0  0  0  0  0  0  0  0  0  0
    5.2525   -0.8959    0.3533 H   0  0  0  0  0  0  0  0  0  0  0  0
    2.1745    1.7632    2.5770 H   0  0  0  0  0  0  0  0  0  0  0  0
    1.4387    0.1156    2.7463 H   0  0  0  0  0  0  0  0  0  0  0  0
   -1.6434    1.6579    1.8992 H   0  0  0  0  0  0  0  0  0  0  0  0
   -0.5168    2.0134    3.2618 H   0  0  0  0  0  0  0  0  0  0  0  0
   -0.8426    0.3000    2.7519 H   0  0  0  0  0  0  0  0  0  0  0  0
    1.5203    2.4982    0.1163 H   0  0  0  0  0  0  0  0  0  0  0  0
    1.2198    3.8390    2.1839 H   0  0  0  0  0  0  0  0  0  0  0  0
   -0.5389    3.8831    1.9340 H   0  0  0  0  0  0  0  0  0  0  0  0
    1.5451    5.1429    0.0435 H   0  0  0  0  0  0  0  0  0  0  0  0
    0.4803    6.0148    1.1721 H   0  0  0  0  0  0  0  0  0  0  0  0
   -0.4792    6.0149   -1.1721 H   0  0  0  0  0  0  0  0  0  0  0  0
   -1.5442    5.1433   -0.0435 H   0  0  0  0  0  0  0  0  0  0  0  0
    0.5395    3.8829   -1.9341 H   0  0  0  0  0  0  0  0  0  0  0  0
   -1.2192    3.8393   -2.1839 H   0  0  0  0  0  0  0  0  0  0  0  0
   -1.5201    2.4986   -0.1163 H   0  0  0  0  0  0  0  0  0  0  0  0
    0.8423    0.2997   -2.7519 H   0  0  0  0  0  0  0  0  0  0  0  0
    0.5168    2.0132   -3.2619 H   0  0  0  0  0  0  0  0  0  0  0  0
    1.6435    1.6575   -1.8993 H   0  0  0  0  0  0  0  0  0  0  0  0
   -2.1745    1.7636   -2.5769 H   0  0  0  0  0  0  0  0  0  0  0  0
   -1.4390    0.1158   -2.7463 H   0  0  0  0  0  0  0  0  0  0  0  0
   -4.9739    0.5981    0.6201 H   0  0  0  0  0  0  0  0  0  0  0  0
   -5.2526   -0.8955   -0.3531 H   0  0  0  0  0  0  0  0  0  0  0  0
   -3.2315   -0.5767    1.7954 H   0  0  0  0  0  0  0  0  0  0  0  0
   -2.3189   -2.7176    1.1255 H   0  0  0  0  0  0  0  0  0  0  0  0
   -3.3159   -4.0794   -0.7320 H   0  0  0  0  0  0  0  0  0  0  0  0
   -2.4823   -2.6303   -1.3523 H   0  0  0  0  0  0  0  0  0  0  0  0
   -4.2892   -2.6881   -1.2753 H   0  0  0  0  0  0  0  0  0  0  0  0
   -4.3821   -4.0774    1.5922 H   0  0  0  0  0  0  0  0  0  0  0  0
   -4.3390   -2.6008    2.6027 H   0  0  0  0  0  0  0  0  0  0  0  0
   -5.4242   -2.6909    1.1748 H   0  0  0  0  0  0  0  0  0  0  0  0
  2 23  1  0  0  0  0
  2 24  1  0  0  0  0
  3 12  1  0  0  0  0
  4 13  1  0  0  0  0
  4 14  1  0  0  0  0
  5 20  1  0  0  0  0
  6 25  1  0  0  0  0
  7 29  1  6  0  0  0
  7  8  1  0  0  0  0
  7  3  1  0  0  0  0
  7 11  1  0  0  0  0
  8  9  1  0  0  0  0
  9 32  1  0  0  0  0
  9 33  1  0  0  0  0
 10 35  1  0  0  0  0
 10  8  1  0  0  0  0
 11 38  1  0  0  0  0
 11  1  1  0  0  0  0
 12  1  1  0  0  0  0
 12 13  1  1  0  0  0
 13 39  1  0  0  0  0
 13 40  1  0  0  0  0
 14 43  1  0  0  0  0
 14 42  1  0  0  0  0
 15 44  1  6  0  0  0
 15 16  1  0  0  0  0
 15  4  1  0  0  0  0
 16 46  1  0  0  0  0
 16 45  1  0  0  0  0
 17 48  1  0  0  0  0
 17 16  1  0  0  0  0
 18 50  1  0  0  0  0
 18 17  1  0  0  0  0
 19 20  1  0  0  0  0
 19 18  1  0  0  0  0
 20 53  1  1  0  0  0
 20 15  1  0  0  0  0
 21 56  1  0  0  0  0
 21  5  1  0  0  0  0
 22  5  1  0  0  0  0
 23 22  1  6  0  0  0
 23  6  1  0  0  0  0
 24 59  1  0  0  0  0
 24 25  1  0  0  0  0
 25 61  1  1  0  0  0
 26 25  1  0  0  0  0
 26 62  1  0  0  0  0
 26 28  1  0  0  0  0
 27 63  1  0  0  0  0
 27 26  1  0  0  0  0
 28 66  1  0  0  0  0
 28 67  1  0  0  0  0
 30  8  1  0  0  0  0
 31  9  1  0  0  0  0
 34 10  1  0  0  0  0
 36 10  1  0  0  0  0
 37 11  1  0  0  0  0
 41 14  1  0  0  0  0
 47 17  1  0  0  0  0
 49 18  1  0  0  0  0
 51 19  1  0  0  0  0
 52 19  1  0  0  0  0
 54 21  1  0  0  0  0
 55 21  1  0  0  0  0
 57 22  1  0  0  0  0
 58 22  1  0  0  0  0
 60 24  1  0  0  0  0
 64 27  1  0  0  0  0
 65 27  1  0  0  0  0
 68 28  1  0  0  0  0
M  END
