2,3
q = -1.0

 31 32  0  0  1  0  0  0  0  0999 V2000
   -0.5686    3.5265   -0.7164 O   0  0  0  0  0  0  0  0  0  0  0  0
   -0.9008    1.2297   -0.2819 N   0  0  0  0  0  2  0  0  0  0  0  0
    1.6788    0.8589   -0.2241 N   0  0  0  0  0  2  0  0  0  0  0  0
    2.2315    3.2559   -0.6538 C   0  0  0  0  0  0  0  0  0  0  0  0
    1.3134    2.0967   -0.4397 C   0  0  1  0  0  3  0  0  0  0  0  0
   -0.1706    2.3685   -0.4877 C   0  0  0  0  0  0  0  0  0  0  0  0
   -2.2960    1.1927   -0.4038 C   0  0  0  0  0  0  0  0  0  0  0  0
   -2.9207   -0.0818   -0.3673 C   0  0  0  0  0  0  0  0  0  0  0  0
   -4.3089   -0.2189   -0.4560 C   0  0  0  0  0  0  0  0  0  0  0  0
   -5.1287    0.9155   -0.5834 C   0  0  0  0  0  0  0  0  0  0  0  0
   -4.5241    2.1820   -0.6318 C   0  0  0  0  0  0  0  0  0  0  0  0
   -3.1325    2.3339   -0.5501 C   0  0  0  0  0  0  0  0  0  0  0  0
    3.0446    0.4895   -0.2552 C   0  0  0  0  0  0  0  0  0  0  0  0
    3.7504    0.4685   -1.4770 C   0  0  0  0  0  0  0  0  0  0  0  0
    5.0859    0.0426   -1.5114 C   0  0  0  0  0  0  0  0  0  0  0  0
    5.7337   -0.3611   -0.3333 C   0  0  0  0  0  0  0  0  0  0  0  0
    5.0308   -0.3444    0.8831 C   0  0  0  0  0  0  0  0  0  0  0  0
    3.6919    0.0664    0.9245 C   0  0  0  0  0  0  0  0  0  0  0  0
    1.7141    4.1778   -0.3270 H   0  0  0  0  0  0  0  0  0  0  0  0
    2.4434    3.3876   -1.7367 H   0  0  0  0  0  0  0  0  0  0  0  0
    3.2008    3.1215   -0.1375 H   0  0  0  0  0  0  0  0  0  0  0  0
   -2.2781   -0.9690   -0.2788 H   0  0  0  0  0  0  0  0  0  0  0  0
   -4.7519   -1.2274   -0.4337 H   0  0  0  0  0  0  0  0  0  0  0  0
   -6.2224    0.8131   -0.6496 H   0  0  0  0  0  0  0  0  0  0  0  0
   -5.1498    3.0826   -0.7364 H   0  0  0  0  0  0  0  0  0  0  0  0
   -2.6623    3.3223   -0.5974 H   0  0  0  0  0  0  0  0  0  0  0  0
    3.2383    0.7855   -2.3979 H   0  0  0  0  0  0  0  0  0  0  0  0
    5.6246    0.0273   -2.4711 H   0  0  0  0  0  0  0  0  0  0  0  0
    6.7818   -0.6935   -0.3630 H   0  0  0  0  0  0  0  0  0  0  0  0
    5.5291   -0.6614    1.8119 H   0  0  0  0  0  0  0  0  0  0  0  0
    3.1268    0.0658    1.8673 H   0  0  0  0  0  0  0  0  0  0  0  0
  1  6  2  0  0  0  0
  4  5  1  0  0  0  0
  4 19  1  0  0  0  0
  4 21  1  0  0  0  0
  5  6  1  6  0  0  0
  5  3  1  0  0  0  0
  6  2  1  0  0  0  0
  7  8  1  0  0  0  0
  7  2  1  0  0  0  0
  8 22  1  0  0  0  0
  9 23  1  0  0  0  0
  9  8  2  0  0  0  0
 10  9  1  0  0  0  0
 11 10  2  0  0  0  0
 11 12  1  0  0  0  0
 12  7  2  0  0  0  0
 13  3  1  0  0  0  0
 13 18  1  0  0  0  0
 14 13  2  0  0  0  0
 15 14  1  0  0  0  0
 15 16  2  0  0  0  0
 16 17  1  0  0  0  0
 17 18  2  0  0  0  0
 17 30  1  0  0  0  0
 18 31  1  0  0  0  0
 20  4  1  0  0  0  0
 24 10  1  0  0  0  0
 25 11  1  0  0  0  0
 26 12  1  0  0  0  0
 27 14  1  0  0  0  0
 28 15  1  0  0  0  0
 29 16  1  0  0  0  0
M  END
