6,9
q = -1.0, confidence = 0.0

 25 26  0  0  1  0  0  0  0  0999 V2000
    5.5036   -2.4836   -0.1801 F   0  0  0  0  0  0  0  0  0  0  0  0
    7.7908   -1.0306   -0.0918 F   0  0  0  0  0  0  0  0  0  0  0  0
    7.7350    1.6730    0.0695 F   0  0  0  0  0  0  0  0  0  0  0  0
    5.3688    3.0213    0.1494 F   0  0  0  0  0  0  0  0  0  0  0  0
    2.3613    2.5152    0.1217 O   0  0  0  0  0  0  0  0  0  0  0  0
    0.1940   -1.8375   -0.1211 N   0  0  0  0  0  2  0  0  0  0  0  0
   -0.7215   -2.3413   -0.1367 H   0  0  0  0  0  0  0  0  0  0  0  0
    2.5300   -2.1903   -0.1845 N   0  0  0  0  0  0  0  0  0  0  0  0
    1.9519    0.1785   -0.0174 N   0  0  0  0  0  2  0  0  0  0  0  0
    1.2346   -2.6222   -0.1998 C   0  0  1  0  0  3  0  0  0  0  0  0
    1.0641   -4.1227   -0.3127 C   0  0  0  0  0  0  0  0  0  0  0  0
    1.4559   -4.4132   -1.3124 H   0  0  0  0  0  0  0  0  0  0  0  0
   -0.0148   -4.3763   -0.2990 H   0  0  0  0  0  0  0  0  0  0  0  0
    1.8359   -4.8833    0.7712 C   0  0  0  0  0  0  0  0  0  0  0  0
    2.9036   -4.5900    0.7527 H   0  0  0  0  0  0  0  0  0  0  0  0
    1.7652   -5.9769    0.6099 H   0  0  0  0  0  0  0  0  0  0  0  0
    1.4351   -4.6591    1.7803 H   0  0  0  0  0  0  0  0  0  0  0  0
    2.8013   -0.9141   -0.0938 C   0  0  0  0  0  0  0  0  0  0  0  0
    4.2091   -0.4610   -0.0663 C   0  0  0  0  0  0  0  0  0  0  0  0
    5.4168   -1.1584   -0.1047 C   0  0  0  0  0  0  0  0  0  0  0  0
    6.6143   -0.4062   -0.0575 C   0  0  0  0  0  0  0  0  0  0  0  0
    6.5859    0.9991    0.0268 C   0  0  0  0  0  0  0  0  0  0  0  0
    5.3549    1.6935    0.0675 C   0  0  0  0  0  0  0  0  0  0  0  0
    4.1828    0.9413    0.0203 C   0  0  0  0  0  0  0  0  0  0  0  0
    2.7475    1.3462    0.0499 C   0  0  0  0  0  0  0  0  0  0  0  0
  1 20  1  0  0  0  0
  2 21  1  0  0  0  0
  7  6  1  0  0  0  0
  8 18  2  0  0  0  0
  9 25  1  0  0  0  0
 10  8  1  1  0  0  0
 10  6  1  0  0  0  0
 11 13  1  0  0  0  0
 11 10  1  0  0  0  0
 11 14  1  0  0  0  0
 12 11  1  0  0  0  0
 14 17  1  0  0  0  0
 15 14  1  0  0  0  0
 16 14  1  0  0  0  0
 18 19  1  0  0  0  0
 18  9  1  0  0  0  0
 19 24  1  0  0  0  0
 20 19  2  0  0  0  0
 20 21  1  0  0  0  0
 21 22  2  0  0  0  0
 22 23  1  0  0  0  0
 22  3  1  0  0  0  0
 23  4  1  0  0  0  0
 24 25  1  0  0  0  0
 24 23  2  0  0  0  0
 25  5  2  0  0  0  0
M  END
