15,35
q = 0.0, confidence = 0.98

 53 56  0  0  1  0  0  0  0  0999 V2000
   -2.4044    1.9756   -2.0564 C   0  0  0  0  0  0  0  0  0  0  0  0
   -3.2722    2.5062   -1.6348 H   0  0  0  0  0  0  0  0  0  0  0  0
   -1.2845   -0.0700   -2.7156 C   0  0  0  0  0  0  0  0  0  0  0  0
   -1.2696   -1.1686   -2.7984 H   0  0  0  0  0  0  0  0  0  0  0  0
   -0.8030    1.3966    3.1015 C   0  0  0  0  0  0  0  0  0  0  0  0
   -1.6745    1.6313    3.7422 H   0  0  0  0  0  0  0  0  0  0  0  0
    0.0907    1.8846    3.5353 H   0  0  0  0  0  0  0  0  0  0  0  0
   -0.6456    0.3007    3.0950 H   0  0  0  0  0  0  0  0  0  0  0  0
    4.3295    0.0099    0.4710 C   0  0  0  0  0  0  0  0  0  0  0  0
    1.9315    0.5115   -0.0913 C   0  0  1  0  0  0  0  0  0  0  0  0
    2.0301   -0.0575   -1.0343 H   0  0  0  0  0  0  0  0  0  0  0  0
    1.0317    2.5844    0.5885 O   0  0  0  0  0  0  0  0  0  0  0  0
    0.1677    1.6121    0.8242 C   0  0  1  0  0  3  0  0  0  0  0  0
   -2.2616    1.2524    1.0911 C   0  0  1  0  0  3  0  0  0  0  0  0
    0.5197    0.4331    0.3858 N   0  0  0  0  0  2  0  0  0  0  0  0
   -0.2221    2.0785   -3.1326 C   0  0  0  0  0  0  0  0  0  0  0  0
    0.6062    2.6698   -3.5524 H   0  0  0  0  0  0  0  0  0  0  0  0
   -1.0495    1.9536    1.6651 C   0  0  0  0  0  0  0  0  0  0  0  0
   -4.4344    1.0114    0.5714 C   0  0  0  0  0  0  0  0  0  0  0  0
   -5.0346    1.5618   -0.1756 H   0  0  0  0  0  0  0  0  0  0  0  0
   -5.0712    0.7449    1.4376 H   0  0  0  0  0  0  0  0  0  0  0  0
   -3.5172   -0.2719   -1.5433 C   0  0  0  0  0  0  0  0  0  0  0  0
   -3.3518   -1.3341   -1.8072 H   0  0  0  0  0  0  0  0  0  0  0  0
   -4.5007    0.0121   -1.9747 H   0  0  0  0  0  0  0  0  0  0  0  0
    6.5412    1.0495    0.4136 C   0  0  0  0  0  0  0  0  0  0  0  0
    7.2390    1.8161    0.7824 H   0  0  0  0  0  0  0  0  0  0  0  0
   -0.2071    0.6775   -3.2191 C   0  0  0  0  0  0  0  0  0  0  0  0
    0.6382    0.1592   -3.6971 H   0  0  0  0  0  0  0  0  0  0  0  0
   -1.2742    3.4761    1.7024 C   0  0  0  0  0  0  0  0  0  0  0  0
   -1.4447    3.8836    0.6885 H   0  0  0  0  0  0  0  0  0  0  0  0
   -0.3858    3.9704    2.1338 H   0  0  0  0  0  0  0  0  0  0  0  0
   -2.1527    3.7096    2.3297 H   0  0  0  0  0  0  0  0  0  0  0  0
    5.2332    0.9929    0.9213 C   0  0  0  0  0  0  0  0  0  0  0  0
    4.9176    1.7100    1.6969 H   0  0  0  0  0  0  0  0  0  0  0  0
   -2.3225    0.0319    0.6363 N   0  0  0  0  0  2  0  0  0  0  0  0
   -3.6486   -0.1904    0.0026 C   0  0  1  0  0  0  0  0  0  0  0  0
   -4.0610   -1.1472    0.3743 H   0  0  0  0  0  0  0  0  0  0  0  0
   -1.3238    2.7260   -2.5470 C   0  0  0  0  0  0  0  0  0  0  0  0
   -1.3562    3.8252   -2.5000 H   0  0  0  0  0  0  0  0  0  0  0  0
    4.7614   -0.9181   -0.5004 C   0  0  0  0  0  0  0  0  0  0  0  0
    4.0696   -1.7022   -0.8483 H   0  0  0  0  0  0  0  0  0  0  0  0
    6.0663   -0.8613   -1.0088 C   0  0  0  0  0  0  0  0  0  0  0  0
    6.3935   -1.5971   -1.7587 H   0  0  0  0  0  0  0  0  0  0  0  0
    6.9586    0.1243   -0.5547 C   0  0  0  0  0  0  0  0  0  0  0  0
    7.9840    0.1651   -0.9511 H   0  0  0  0  0  0  0  0  0  0  0  0
    2.0658    2.0257   -0.3022 C   0  0  0  0  0  0  0  0  0  0  0  0
    1.8066    2.3600   -1.3252 H   0  0  0  0  0  0  0  0  0  0  0  0
    3.0439    2.4345    0.0078 H   0  0  0  0  0  0  0  0  0  0  0  0
   -2.3988    0.5658   -2.1277 C   0  0  0  0  0  0  0  0  0  0  0  0
    2.9053   -0.0341    0.9755 C   0  0  0  0  0  0  0  0  0  0  0  0
    2.7994    0.5731    1.8993 H   0  0  0  0  0  0  0  0  0  0  0  0
    2.6058   -1.0722    1.2163 H   0  0  0  0  0  0  0  0  0  0  0  0
   -3.4002    1.9250    1.0708 O   0  0  0  0  0  0  0  0  0  0  0  0
  1  2  1  0  0  0  0
  3 49  2  0  0  0  0
  4  3  1  0  0  0  0
  5  7  1  0  0  0  0
  5  6  1  0  0  0  0
  8  5  1  0  0  0  0
  9 33  1  0  0  0  0
  9 50  1  0  0  0  0
 10 11  1  6  0  0  0
 10 15  1  0  0  0  0
 10 50  1  0  0  0  0
 12 13  1  0  0  0  0
 13 18  1  1  0  0  0
 14 18  1  1  0  0  0
 15 13  1  0  0  0  0
 16 38  1  0  0  0  0
 17 16  1  0  0  0  0
 18 29  1  0  0  0  0
 18  5  1  0  0  0  0
 19 53  1  0  0  0  0
 19 21  1  0  0  0  0
 20 19  1  0  0  0  0
 22 36  1  0  0  0  0
 23 22  1  0  0  0  0
 24 22  1  0  0  0  0
 25 26  1  0  0  0  0
 25 33  2  0  0  0  0
 27 16  2  0  0  0  0
 27  3  1  0  0  0  0
 28 27  1  0  0  0  0
 29 31  1  0  0  0  0
 29 32  1  0  0  0  0
 30 29  1  0  0  0  0
 33 34  1  0  0  0  0
 35 14  1  0  0  0  0
 36 37  1  1  0  0  0
 36 19  1  0  0  0  0
 36 35  1  0  0  0  0
 38 39  1  0  0  0  0
 38  1  2  0  0  0  0
 40  9  2  0  0  0  0
 41 40  1  0  0  0  0
 42 44  2  0  0  0  0
 42 40  1  0  0  0  0
 43 42  1  0  0  0  0
 44 25  1  0  0  0  0
 45 44  1  0  0  0  0
 46 10  1  0  0  0  0
 46 48  1  0  0  0  0
 46 12  1  0  0  0  0
 47 46  1  0  0  0  0
 49  1  1  0  0  0  0
 49 22  1  0  0  0  0
 50 52  1  0  0  0  0
 50 51  1  0  0  0  0
 53 14  1  0  0  0  0
M  END
