1,2
q = 0.0, confidence = 0.996

 33 35  0  0  1  0  0  0  0  0999 V2000
    1.2629   -1.2189   -0.8762 N   0  0  0  0  0  2  0  0  0  0  0  0
    1.3466    1.2331    0.6103 N   0  0  0  0  0  2  0  0  0  0  0  0
    1.5350    2.3588    1.3346 C   0  0  0  0  0  3  0  0  0  0  0  0
    0.6291    2.8869    1.6698 H   0  0  0  0  0  0  0  0  0  0  0  0
    2.8278    2.8149    1.6559 C   0  0  0  0  0  0  0  0  0  0  0  0
    2.9278    3.7287    2.2590 H   0  0  0  0  0  0  0  0  0  0  0  0
    3.9829    2.1197    1.2306 C   0  0  0  0  0  0  0  0  0  0  0  0
    4.9802    2.4823    1.5185 H   0  0  0  0  0  0  0  0  0  0  0  0
    3.7980    0.9647    0.4573 C   0  0  0  0  0  0  0  0  0  0  0  0
    2.4642    0.6020    0.2088 C   0  0  0  0  0  0  0  0  0  0  0  0
    2.4205   -0.6295   -0.5286 C   0  0  1  0  0  3  0  0  0  0  0  0
    3.7241   -1.0845   -0.7718 C   0  0  0  0  0  0  0  0  0  0  0  0
    3.8362   -2.2922   -1.4725 C   0  0  0  0  0  0  0  0  0  0  0  0
    4.8098   -2.7436   -1.7162 H   0  0  0  0  0  0  0  0  0  0  0  0
    2.6377   -2.9345   -1.8582 C   0  0  0  0  0  0  0  0  0  0  0  0
    2.6753   -3.8867   -2.4064 H   0  0  0  0  0  0  0  0  0  0  0  0
    1.3774   -2.3859   -1.5484 C   0  0  0  0  0  0  0  0  0  0  0  0
    0.4383   -2.8831   -1.8359 H   0  0  0  0  0  0  0  0  0  0  0  0
    4.7347   -0.0844   -0.1772 C   0  0  0  0  0  0  0  0  0  0  0  0
    5.5776    0.5151   -1.3459 C   0  0  0  0  0  0  0  0  0  0  0  0
    6.1203   -0.3323   -1.8175 H   0  0  0  0  0  0  0  0  0  0  0  0
    4.8721    0.8925   -2.1162 H   0  0  0  0  0  0  0  0  0  0  0  0
    6.5688    1.6167   -0.9761 C   0  0  0  0  0  0  0  0  0  0  0  0
    7.1396    1.9260   -1.8735 H   0  0  0  0  0  0  0  0  0  0  0  0
    7.3079    1.2873   -0.2195 H   0  0  0  0  0  0  0  0  0  0  0  0
    6.0596    2.5228   -0.5917 H   0  0  0  0  0  0  0  0  0  0  0  0
    5.6352   -0.7614    0.8914 C   0  0  0  0  0  0  0  0  0  0  0  0
    6.2801   -1.4992    0.3671 H   0  0  0  0  0  0  0  0  0  0  0  0
    6.3253    0.0065    1.2977 H   0  0  0  0  0  0  0  0  0  0  0  0
    4.8813   -1.4377    2.0363 C   0  0  0  0  0  0  0  0  0  0  0  0
    5.5903   -1.8969    2.7521 H   0  0  0  0  0  0  0  0  0  0  0  0
    4.2094   -2.2418    1.6731 H   0  0  0  0  0  0  0  0  0  0  0  0
    4.2625   -0.7131    2.6047 H   0  0  0  0  0  0  0  0  0  0  0  0
  2  3  1  0  0  0  0
  3  5  1  0  0  0  0
  3  4  1  0  0  0  0
  5  6  1  0  0  0  0
  7  8  1  0  0  0  0
  7  5  2  0  0  0  0
  9  7  1  0  0  0  0
 10  9  2  0  0  0  0
 10  2  1  0  0  0  0
 11  1  1  1  0  0  0
 11 10  1  0  0  0  0
 12 11  1  0  0  0  0
 12 19  1  0  0  0  0
 13 12  2  0  0  0  0
 14 13  1  0  0  0  0
 15 17  2  0  0  0  0
 15 13  1  0  0  0  0
 16 15  1  0  0  0  0
 17  1  1  0  0  0  0
 18 17  1  0  0  0  0
 19  9  1  0  0  0  0
 19 27  1  0  0  0  0
 20 23  1  0  0  0  0
 20 19  1  0  0  0  0
 21 20  1  0  0  0  0
 22 20  1  0  0  0  0
 23 26  1  0  0  0  0
 23 25  1  0  0  0  0
 24 23  1  0  0  0  0
 27 29  1  0  0  0  0
 27 30  1  0  0  0  0
 28 27  1  0  0  0  0
 30 33  1  0  0  0  0
 30 31  1  0  0  0  0
 32 30  1  0  0  0  0
M  END
