1,2
q = 0.0, confidence = 0.996

 38 41  0  0  0  0  0  0  0  0999 V2000
    2.6520    1.2812    0.1243 N   0  0  0  0  0  2  0  0  0  0  0  0
    0.2070    0.2225    0.0257 N   0  0  0  0  0  2  0  0  0  0  0  0
   -0.9092    2.1358   -0.0211 N   0  0  0  0  0  0  0  0  0  0  0  0
    3.9243    1.7196    0.2083 C   0  0  0  0  0  0  0  0  0  0  0  0
    4.6792    0.9130    0.2196 H   0  0  0  0  0  0  0  0  0  0  0  0
    4.2354    3.0832    0.2586 C   0  0  0  0  0  0  0  0  0  0  0  0
    5.2875    3.3931    0.3286 H   0  0  0  0  0  0  0  0  0  0  0  0
    3.1969    4.0282    0.2142 C   0  0  0  0  0  0  0  0  0  0  0  0
    3.4141    5.1059    0.2469 H   0  0  0  0  0  0  0  0  0  0  0  0
    1.8757    3.5776    0.1269 C   0  0  0  0  0  0  0  0  0  0  0  0
    1.0406    4.2925    0.0893 H   0  0  0  0  0  0  0  0  0  0  0  0
    1.6288    2.1929    0.0879 C   0  0  0  0  0  0  0  0  0  0  0  0
    0.3285    1.5672    0.0215 C   0  0  0  0  0  0  0  0  0  0  0  0
   -1.1405   -0.0789    0.0090 C   0  0  0  0  0  0  0  0  0  0  0  0
   -1.8624    1.1321   -0.0156 C   0  0  0  0  0  0  0  0  0  0  0  0
   -1.7111   -1.4373    0.0439 C   0  0  0  0  0  0  0  0  0  0  0  0
   -2.6463   -1.8355   -0.9336 C   0  0  0  0  0  0  0  0  0  0  0  0
   -2.8999   -1.1459   -1.7526 H   0  0  0  0  0  0  0  0  0  0  0  0
   -3.2383   -3.1039   -0.8690 C   0  0  0  0  0  0  0  0  0  0  0  0
   -3.9578   -3.4114   -1.6428 H   0  0  0  0  0  0  0  0  0  0  0  0
   -2.9070   -3.9807    0.1762 C   0  0  0  0  0  0  0  0  0  0  0  0
   -3.3713   -4.9774    0.2269 H   0  0  0  0  0  0  0  0  0  0  0  0
   -1.9754   -3.5894    1.1510 C   0  0  0  0  0  0  0  0  0  0  0  0
   -1.7009   -4.2798    1.9622 H   0  0  0  0  0  0  0  0  0  0  0  0
   -1.3730   -2.3271    1.0844 C   0  0  0  0  0  0  0  0  0  0  0  0
   -0.6291   -2.0254    1.8345 H   0  0  0  0  0  0  0  0  0  0  0  0
   -3.2968    1.4306   -0.0052 C   0  0  0  0  0  0  0  0  0  0  0  0
   -4.2077    0.5969    0.6862 C   0  0  0  0  0  0  0  0  0  0  0  0
   -3.8345   -0.2913    1.2144 H   0  0  0  0  0  0  0  0  0  0  0  0
   -5.5719    0.9083    0.7084 C   0  0  0  0  0  0  0  0  0  0  0  0
   -6.2671    0.2519    1.2530 H   0  0  0  0  0  0  0  0  0  0  0  0
   -6.0541    2.0523    0.0504 C   0  0  0  0  0  0  0  0  0  0  0  0
   -7.1279    2.2914    0.0711 H   0  0  0  0  0  0  0  0  0  0  0  0
   -5.1592    2.8875   -0.6363 C   0  0  0  0  0  0  0  0  0  0  0  0
   -5.5287    3.7797   -1.1639 H   0  0  0  0  0  0  0  0  0  0  0  0
   -3.7931    2.5782   -0.6683 C   0  0  0  0  0  0  0  0  0  0  0  0
   -3.1078    3.2187   -1.2462 H   0  0  0  0  0  0  0  0  0  0  0  0
   -1.1184    3.1322    0.0386 H   0  0  0  0  0  0  0  0  0  0  0  0
  1  4  1  0  0  0  0
  3 15  1  0  0  0  0
  3 13  1  0  0  0  0
  3 38  1  0  0  0  0
  4  5  1  0  0  0  0
  4  6  2  0  0  0  0
  6  7  1  0  0  0  0
  8  9  1  0  0  0  0
  8  6  1  0  0  0  0
 10  8  2  0  0  0  0
 11 10  1  0  0  0  0
 12  1  1  0  0  0  0
 12 10  1  0  0  0  0
 13  2  1  0  0  0  0
 13 12  2  0  0  0  0
 14  2  1  0  0  0  0
 14 16  1  0  0  0  0
 15 27  1  0  0  0  0
 15 14  2  0  0  0  0
 16 25  1  0  0  0  0
 17 19  1  0  0  0  0
 17 16  2  0  0  0  0
 18 17  1  0  0  0  0
 19 21  2  0  0  0  0
 20 19  1  0  0  0  0
 21 22  1  0  0  0  0
 21 23  1  0  0  0  0
 23 24  1  0  0  0  0
 25 23  2  0  0  0  0
 25 26  1  0  0  0  0
 27 28  1  0  0  0  0
 28 30  2  0  0  0  0
 28 29  1  0  0  0  0
 30 31  1  0  0  0  0
 32 33  1  0  0  0  0
 32 30  1  0  0  0  0
 34 32  2  0  0  0  0
 35 34  1  0  0  0  0
 36 34  1  0  0  0  0
 36 27  2  0  0  0  0
 37 36  1  0  0  0  0
M  END
