1,2
q = 0.0, confidence = 1.0

 42 45  0  0  1  0  0  0  0  0999 V2000
    0.8888   -1.9236    0.2708 N   0  0  0  0  0  2  0  0  0  0  0  0
   -0.2499    0.4547    0.0138 N   0  0  0  0  0  2  0  0  0  0  0  0
   -2.9822    0.9179    0.0690 N   0  0  0  0  0  0  0  0  0  0  0  0
   -4.5789   -1.4807    0.5812 N   0  0  0  0  0  0  0  0  0  0  0  0
    1.4712    2.3932   -0.6669 O   0  0  0  0  0  0  0  0  0  0  0  0
   -3.9022    3.4865    0.3469 O   0  0  0  0  0  0  0  0  0  0  0  0
    1.5799   -3.0450    0.5218 C   0  0  0  0  0  3  0  0  0  0  0  0
    2.6586   -2.9964    0.3072 H   0  0  0  0  0  0  0  0  0  0  0  0
    0.9600   -4.1952    1.0310 C   0  0  0  0  0  0  0  0  0  0  0  0
    1.5532   -5.1009    1.2196 H   0  0  0  0  0  0  0  0  0  0  0  0
   -0.4109   -4.1435    1.3181 C   0  0  0  0  0  0  0  0  0  0  0  0
   -0.9242   -5.0109    1.7594 H   0  0  0  0  0  0  0  0  0  0  0  0
   -1.1289   -2.9711    1.0480 C   0  0  0  0  0  0  0  0  0  0  0  0
   -2.1970   -2.9017    1.2887 H   0  0  0  0  0  0  0  0  0  0  0  0
   -0.4469   -1.8715    0.4905 C   0  0  0  0  0  0  0  0  0  0  0  0
   -3.4928   -1.4162   -0.2108 C   0  0  0  0  0  0  0  0  0  0  0  0
   -3.2714   -2.2958   -1.2932 C   0  0  0  0  0  0  0  0  0  0  0  0
   -2.3701   -2.1919   -1.9164 H   0  0  0  0  0  0  0  0  0  0  0  0
   -4.2280   -3.2836   -1.5569 C   0  0  0  0  0  0  0  0  0  0  0  0
   -4.0940   -3.9800   -2.3985 H   0  0  0  0  0  0  0  0  0  0  0  0
   -5.3588   -3.3620   -0.7308 C   0  0  0  0  0  0  0  0  0  0  0  0
   -6.1355   -4.1232   -0.8967 H   0  0  0  0  0  0  0  0  0  0  0  0
   -5.4820   -2.4371    0.3207 C   0  0  0  0  0  0  0  0  0  0  0  0
   -6.3597   -2.4727    0.9906 H   0  0  0  0  0  0  0  0  0  0  0  0
   -1.0894   -0.5679    0.1660 C   0  0  0  0  0  0  0  0  0  0  0  0
   -2.5078   -0.3219    0.0508 C   0  0  0  0  0  0  0  0  0  0  0  0
   -0.7127    1.7132   -0.1211 C   0  0  2  0  0  3  0  0  0  0  0  0
    0.2105    2.7823   -0.3629 C   0  0  0  0  0  0  0  0  0  0  0  0
   -0.2653    4.0852   -0.2648 C   0  0  0  0  0  0  0  0  0  0  0  0
    0.4177    4.9360   -0.3912 H   0  0  0  0  0  0  0  0  0  0  0  0
   -1.6405    4.3460   -0.0079 C   0  0  0  0  0  0  0  0  0  0  0  0
   -1.9586    5.3946    0.0574 H   0  0  0  0  0  0  0  0  0  0  0  0
   -2.5803    3.3211    0.1360 C   0  0  0  0  0  0  0  0  0  0  0  0
   -2.1201    1.9592    0.0467 C   0  0  0  0  0  0  0  0  0  0  0  0
    2.5539    3.3101   -0.4752 C   0  0  0  0  0  0  0  0  0  0  0  0
    2.5652    3.6703    0.5736 H   0  0  0  0  0  0  0  0  0  0  0  0
    2.4762    4.1643   -1.1811 H   0  0  0  0  0  0  0  0  0  0  0  0
    3.4675    2.7256   -0.6830 H   0  0  0  0  0  0  0  0  0  0  0  0
   -4.4081    4.8073    0.4185 C   0  0  0  0  0  0  0  0  0  0  0  0
   -5.4970    4.7147    0.5833 H   0  0  0  0  0  0  0  0  0  0  0  0
   -4.2282    5.3688   -0.5258 H   0  0  0  0  0  0  0  0  0  0  0  0
   -3.9588    5.3743    1.2644 H   0  0  0  0  0  0  0  0  0  0  0  0
  1 15  1  0  0  0  0
  1  7  1  0  0  0  0
  2 25  1  0  0  0  0
  5 35  1  0  0  0  0
  5 28  1  0  0  0  0
  6 39  1  0  0  0  0
  7  9  1  0  0  0  0
  8  7  1  0  0  0  0
  9 10  1  0  0  0  0
  9 11  2  0  0  0  0
 11 12  1  0  0  0  0
 13 14  1  0  0  0  0
 13 11  1  0  0  0  0
 15 13  2  0  0  0  0
 16 26  1  0  0  0  0
 16  4  2  0  0  0  0
 17 16  1  0  0  0  0
 18 17  1  0  0  0  0
 19 17  2  0  0  0  0
 19 21  1  0  0  0  0
 20 19  1  0  0  0  0
 21 23  2  0  0  0  0
 22 21  1  0  0  0  0
 23  4  1  0  0  0  0
 23 24  1  0  0  0  0
 25 15  1  0  0  0  0
 26  3  1  0  0  0  0
 26 25  2  0  0  0  0
 27 28  1  1  0  0  0
 27  2  1  0  0  0  0
 27 34  1  0  0  0  0
 28 29  2  0  0  0  0
 29 31  1  0  0  0  0
 30 29  1  0  0  0  0
 31 32  1  0  0  0  0
 31 33  2  0  0  0  0
 33  6  1  0  0  0  0
 34  3  2  0  0  0  0
 34 33  1  0  0  0  0
 35 36  1  0  0  0  0
 37 35  1  0  0  0  0
 38 35  1  0  0  0  0
 39 40  1  0  0  0  0
 39 42  1  0  0  0  0
 41 39  1  0  0  0  0
M  END
