6,9
q = 0.0, confidence = 0.974

 43 45  0  0  0  0  0  0  0  0999 V2000
   -6.7689    1.0050   -0.1685 N   0  0  0  0  0  0  0  0  0  0  0  0
   -8.2263   -0.7790   -0.0508 O   0  0  0  0  0  0  0  0  0  0  0  0
   -5.3347    2.7947   -0.2796 O   0  0  0  0  0  0  0  0  0  0  0  0
    0.1113    0.0792    1.2582 N   0  0  0  0  0  0  0  0  0  0  0  0
   -3.7389   -1.6208    0.7398 N   0  0  0  0  0  0  0  0  0  0  0  0
    1.4202    0.3558    1.1267 N   0  0  0  0  0  2  0  0  0  0  0  0
   -5.9991   -1.1978    0.3448 N   0  0  0  0  0  0  0  0  0  0  0  0
   -3.1548    1.0725    0.3354 N   0  0  0  0  0  0  0  0  0  0  0  0
    4.0390    0.3638    0.7307 N   0  0  0  0  0  2  0  0  0  0  0  0
    5.3656    0.3725    0.4895 C   0  0  0  0  0  3  0  0  0  0  0  0
   -4.4076    0.6372    0.2384 C   0  0  0  0  0  0  0  0  0  0  0  0
   -4.7041   -0.7353    0.4460 C   0  0  0  0  0  0  0  0  0  0  0  0
    4.4927    0.9222    3.0464 C   0  0  0  0  0  0  0  0  0  0  0  0
   -5.4888    1.5984   -0.0896 C   0  0  0  0  0  0  0  0  0  0  0  0
   -7.8687    1.9135   -0.4938 C   0  0  0  0  0  0  0  0  0  0  0  0
   -8.7990    1.3243   -0.5323 H   0  0  0  0  0  0  0  0  0  0  0  0
   -7.6719    2.4042   -1.4663 H   0  0  0  0  0  0  0  0  0  0  0  0
   -7.9378    2.7079    0.2743 H   0  0  0  0  0  0  0  0  0  0  0  0
    3.5939    0.6294    2.0004 C   0  0  0  0  0  0  0  0  0  0  0  0
    6.3097    0.6521    1.4830 C   0  0  0  0  0  0  0  0  0  0  0  0
   -2.1777    0.2057    0.6428 C   0  0  0  0  0  0  0  0  0  0  0  0
   -2.4720   -1.1933    0.8469 C   0  0  0  0  0  0  0  0  0  0  0  0
   -0.5901    2.1115    0.0188 C   0  0  0  0  0  0  0  0  0  0  0  0
    0.3400    2.5913    0.3705 H   0  0  0  0  0  0  0  0  0  0  0  0
   -1.4712    2.7587    0.1855 H   0  0  0  0  0  0  0  0  0  0  0  0
   -0.5090    1.9688   -1.0797 H   0  0  0  0  0  0  0  0  0  0  0  0
    5.8648    0.9336    2.7859 C   0  0  0  0  0  0  0  0  0  0  0  0
   -1.4511   -2.2424    1.1629 C   0  0  0  0  0  0  0  0  0  0  0  0
   -1.9436   -3.2313    1.1488 H   0  0  0  0  0  0  0  0  0  0  0  0
   -0.9964   -2.0641    2.1578 H   0  0  0  0  0  0  0  0  0  0  0  0
   -0.5956   -2.2279    0.4576 H   0  0  0  0  0  0  0  0  0  0  0  0
    2.1617    0.5819    2.1874 C   0  0  0  0  0  3  0  0  0  0  0  0
   -7.0840   -0.3507    0.0342 C   0  0  0  0  0  0  0  0  0  0  0  0
   -0.8130    0.7819    0.6737 C   0  0  0  0  0  0  0  0  0  0  0  0
   -6.2717   -2.6197    0.5589 C   0  0  0  0  0  0  0  0  0  0  0  0
   -7.3556   -2.7688    0.4232 H   0  0  0  0  0  0  0  0  0  0  0  0
   -5.9600   -2.9175    1.5780 H   0  0  0  0  0  0  0  0  0  0  0  0
   -5.6977   -3.2288   -0.1649 H   0  0  0  0  0  0  0  0  0  0  0  0
    5.6702    0.1397   -0.5411 H   0  0  0  0  0  0  0  0  0  0  0  0
    4.0991    1.1318    4.0512 H   0  0  0  0  0  0  0  0  0  0  0  0
    6.5831    1.1559    3.5886 H   0  0  0  0  0  0  0  0  0  0  0  0
    7.3793    0.6432    1.2314 H   0  0  0  0  0  0  0  0  0  0  0  0
    1.7046    0.7065    3.1824 H   0  0  0  0  0  0  0  0  0  0  0  0
  1 14  1  0  0  0  0
  1 33  1  0  0  0  0
  2 33  2  0  0  0  0
  3 14  2  0  0  0  0
  5 22  1  0  0  0  0
  6  4  1  0  0  0  0
  6 32  1  0  0  0  0
  7 12  1  0  0  0  0
  7 35  1  0  0  0  0
  8 21  1  0  0  0  0
  9 19  1  0  0  0  0
 10  9  1  0  0  0  0
 10 20  1  0  0  0  0
 11  8  2  0  0  0  0
 11 12  1  0  0  0  0
 12  5  2  0  0  0  0
 13 40  1  0  0  0  0
 14 11  1  0  0  0  0
 15  1  1  0  0  0  0
 15 18  1  0  0  0  0
 16 15  1  0  0  0  0
 17 15  1  0  0  0  0
 19 32  1  0  0  0  0
 19 13  2  0  0  0  0
 20 27  2  0  0  0  0
 21 34  1  0  0  0  0
 21 22  2  0  0  0  0
 22 28  1  0  0  0  0
 23 25  1  0  0  0  0
 23 24  1  0  0  0  0
 23 34  1  0  0  0  0
 26 23  1  0  0  0  0
 27 13  1  0  0  0  0
 27 41  1  0  0  0  0
 28 30  1  0  0  0  0
 29 28  1  0  0  0  0
 31 28  1  0  0  0  0
 32 43  1  0  0  0  0
 33  7  1  0  0  0  0
 34  4  2  0  0  0  0
 35 37  1  0  0  0  0
 36 35  1  0  0  0  0
 38 35  1  0  0  0  0
 39 10  1  0  0  0  0
 42 20  1  0  0  0  0
M  END
