1,5
q = 0.0, confidence = 0.97

 45 47  0  0  1  0  0  0  0  0999 V2000
   -1.1952    0.8542    0.3283 N   0  0  0  0  0  2  0  0  0  0  0  0
   -3.3135    0.5340   -0.4165 C   0  0  0  0  0  0  0  0  0  0  0  0
    2.7444   -1.7819    1.3254 O   0  0  0  0  0  0  0  0  0  0  0  0
    2.7564    0.4280    0.3821 C   0  0  1  0  0  3  0  0  0  0  0  0
    1.4160    0.6009    0.3606 N   0  0  0  0  0  2  0  0  0  0  0  0
   -7.3651    0.9349    2.2554 O   0  0  0  0  0  0  0  0  0  0  0  0
   -8.3278    0.7952    2.1884 H   0  0  0  0  0  0  0  0  0  0  0  0
    4.7440   -0.9433    0.6015 N   0  0  0  0  0  0  0  0  0  0  0  0
   -2.5424    0.8823    0.5632 N   0  0  0  0  0  0  0  0  0  0  0  0
   -5.4012    0.7436    0.9501 C   0  0  0  0  0  0  0  0  0  0  0  0
   -4.8087    1.0649    1.8179 H   0  0  0  0  0  0  0  0  0  0  0  0
    4.9766    1.3538    0.0382 N   0  0  0  0  0  0  0  0  0  0  0  0
    3.6072    1.5208    0.0915 C   0  0  0  0  0  0  0  0  0  0  0  0
    6.8120   -0.0334    0.1391 O   0  0  0  0  0  0  0  0  0  0  0  0
    1.8055    2.9437   -0.1099 C   0  0  0  0  0  0  0  0  0  0  0  0
    3.3554   -0.8560    0.8076 C   0  0  0  0  0  0  0  0  0  0  0  0
    3.1229    2.7418   -0.1908 N   0  0  0  0  0  0  0  0  0  0  0  0
   -1.2528    3.2728    0.7001 C   0  0  0  0  0  0  0  0  0  0  0  0
   -2.1533    3.0222    1.2956 H   0  0  0  0  0  0  0  0  0  0  0  0
   -1.6117    3.7786   -0.2202 H   0  0  0  0  0  0  0  0  0  0  0  0
   -0.6230    3.9819    1.2639 H   0  0  0  0  0  0  0  0  0  0  0  0
   -0.5318    1.9952    0.3958 C   0  0  1  0  0  3  0  0  0  0  0  0
   -4.7644    0.4380   -0.2702 C   0  0  0  0  0  0  0  0  0  0  0  0
    0.9159    1.8704    0.2255 C   0  0  0  0  0  0  0  0  0  0  0  0
    1.3454    4.3204   -0.5060 C   0  0  0  0  0  0  0  0  0  0  0  0
    2.1864    4.8252   -1.0141 H   0  0  0  0  0  0  0  0  0  0  0  0
    1.0606    4.9354    0.3712 H   0  0  0  0  0  0  0  0  0  0  0  0
    0.4759    4.2788   -1.1882 H   0  0  0  0  0  0  0  0  0  0  0  0
   -6.7955    0.6283    1.0603 C   0  0  0  0  0  0  0  0  0  0  0  0
   -7.5523    0.2046   -0.0562 C   0  0  0  0  0  0  0  0  0  0  0  0
   -8.6478    0.1133    0.0317 H   0  0  0  0  0  0  0  0  0  0  0  0
    5.6025    0.1092    0.2446 C   0  0  0  0  0  0  0  0  0  0  0  0
    5.8214    2.4983   -0.3053 C   0  0  0  0  0  0  0  0  0  0  0  0
    6.8649    2.1424   -0.3048 H   0  0  0  0  0  0  0  0  0  0  0  0
    5.6830    3.3089    0.4348 H   0  0  0  0  0  0  0  0  0  0  0  0
    5.5437    2.8915   -1.3016 H   0  0  0  0  0  0  0  0  0  0  0  0
    5.3487   -2.2418    0.9043 C   0  0  0  0  0  0  0  0  0  0  0  0
    4.7778   -3.0331    0.3834 H   0  0  0  0  0  0  0  0  0  0  0  0
    5.2993   -2.4446    1.9922 H   0  0  0  0  0  0  0  0  0  0  0  0
    6.3979   -2.2144    0.5681 H   0  0  0  0  0  0  0  0  0  0  0  0
   -5.5245    0.0124   -1.3838 C   0  0  0  0  0  0  0  0  0  0  0  0
   -5.0163   -0.2392   -2.3261 H   0  0  0  0  0  0  0  0  0  0  0  0
   -6.9151   -0.1019   -1.2665 C   0  0  0  0  0  0  0  0  0  0  0  0
   -7.5160   -0.4369   -2.1249 H   0  0  0  0  0  0  0  0  0  0  0  0
   -2.8751    0.3014   -1.4092 H   0  0  0  0  0  0  0  0  0  0  0  0
  1  9  1  0  0  0  0
  2 23  1  0  0  0  0
  2  9  2  0  0  0  0
  4 13  1  1  0  0  0
  4 16  1  0  0  0  0
  5  4  1  0  0  0  0
  7  6  1  0  0  0  0
  8 16  1  0  0  0  0
  8 37  1  0  0  0  0
 10 29  1  0  0  0  0
 10 11  1  0  0  0  0
 12 13  1  0  0  0  0
 12 32  1  0  0  0  0
 14 32  2  0  0  0  0
 15 24  2  0  0  0  0
 16  3  2  0  0  0  0
 17 15  1  0  0  0  0
 17 13  2  0  0  0  0
 18 21  1  0  0  0  0
 18 19  1  0  0  0  0
 20 18  1  0  0  0  0
 22  1  1  1  0  0  0
 22 18  1  0  0  0  0
 23 10  2  0  0  0  0
 24  5  1  0  0  0  0
 24 22  1  0  0  0  0
 25 15  1  0  0  0  0
 25 27  1  0  0  0  0
 26 25  1  0  0  0  0
 28 25  1  0  0  0  0
 29  6  1  0  0  0  0
 30 31  1  0  0  0  0
 30 29  2  0  0  0  0
 32  8  1  0  0  0  0
 33 34  1  0  0  0  0
 33 12  1  0  0  0  0
 33 35  1  0  0  0  0
 36 33  1  0  0  0  0
 37 39  1  0  0  0  0
 38 37  1  0  0  0  0
 40 37  1  0  0  0  0
 41 43  2  0  0  0  0
 41 23  1  0  0  0  0
 42 41  1  0  0  0  0
 43 30  1  0  0  0  0
 44 43  1  0  0  0  0
 45  2  1  0  0  0  0
M  END
