2,4
q = -1.0

 58 62  0  0  0  0  0  0  0  0999 V2000
   -0.2649   -0.0171   -1.2137 O   0  0  0  0  0  0  0  0  0  0  0  0
    2.9108   -1.6609   -1.2305 N   0  0  0  0  0  2  0  0  0  0  0  0
   -1.1511   -0.2065    0.0824 B   0  0  0  0  0  0  0  0  0  0  0  0
    1.9186    0.7407   -1.4070 N   0  0  0  0  0  2  0  0  0  0  0  0
    1.4916    2.1034   -1.4021 C   0  0  0  0  0  0  0  0  0  0  0  0
    1.7622    2.9238   -0.2901 C   0  0  0  0  0  0  0  0  0  0  0  0
    1.3470    4.2616   -0.2926 C   0  0  0  0  0  0  0  0  0  0  0  0
    0.6705    4.7927   -1.4029 C   0  0  0  0  0  0  0  0  0  0  0  0
    0.4012    3.9725   -2.5086 C   0  0  0  0  0  0  0  0  0  0  0  0
    0.8084    2.6312   -2.5125 C   0  0  0  0  0  0  0  0  0  0  0  0
    3.5135   -2.8675   -1.2633 C   0  0  0  0  0  0  0  0  0  0  0  0
    2.7902   -4.0537   -1.4450 C   0  0  0  0  0  0  0  0  0  0  0  0
    1.3992   -3.9878   -1.6104 C   0  0  0  0  0  0  0  0  0  0  0  0
    0.7702   -2.7348   -1.5788 C   0  0  0  0  0  0  0  0  0  0  0  0
    1.5581   -1.5962   -1.3756 C   0  0  0  0  0  0  0  0  0  0  0  0
    1.0035   -0.2141   -1.3214 C   0  0  0  0  0  0  0  0  0  0  0  0
   -2.5996   -0.8030   -0.3752 C   0  0  0  0  0  0  0  0  0  0  0  0
   -2.0203   -1.3921   -2.6324 F   0  0  0  0  0  0  0  0  0  0  0  0
   -2.9427   -1.2854   -1.6458 C   0  0  0  0  0  0  0  0  0  0  0  0
   -4.5110   -2.1699   -3.2133 F   0  0  0  0  0  0  0  0  0  0  0  0
   -4.2376   -1.7196   -1.9806 C   0  0  0  0  0  0  0  0  0  0  0  0
   -6.4836   -2.1064   -1.3061 F   0  0  0  0  0  0  0  0  0  0  0  0
   -5.2472   -1.6927   -1.0075 C   0  0  0  0  0  0  0  0  0  0  0  0
   -5.8961   -1.2279    1.2294 F   0  0  0  0  0  0  0  0  0  0  0  0
   -4.9453   -1.2396    0.2871 C   0  0  0  0  0  0  0  0  0  0  0  0
   -3.3899   -0.4222    1.8370 F   0  0  0  0  0  0  0  0  0  0  0  0
   -3.6392   -0.8132    0.5704 C   0  0  0  0  0  0  0  0  0  0  0  0
   -0.2821   -1.2143    1.0587 C   0  0  0  0  0  0  0  0  0  0  0  0
   -1.6842   -3.1300    0.6953 F   0  0  0  0  0  0  0  0  0  0  0  0
   -0.5703   -2.5813    1.2149 C   0  0  0  0  0  0  0  0  0  0  0  0
   -0.0175   -4.7933    1.9172 F   0  0  0  0  0  0  0  0  0  0  0  0
    0.2995   -3.4951    1.8404 C   0  0  0  0  0  0  0  0  0  0  0  0
    2.3767   -3.9023    2.9244 F   0  0  0  0  0  0  0  0  0  0  0  0
    1.5263   -3.0475    2.3488 C   0  0  0  0  0  0  0  0  0  0  0  0
    3.0360   -1.2471    2.6980 F   0  0  0  0  0  0  0  0  0  0  0  0
    1.8542   -1.6884    2.2331 C   0  0  0  0  0  0  0  0  0  0  0  0
    1.3645    0.4673    1.5098 F   0  0  0  0  0  0  0  0  0  0  0  0
    0.9507   -0.8155    1.6103 C   0  0  0  0  0  0  0  0  0  0  0  0
   -1.3876    1.3157    0.6408 C   0  0  0  0  0  0  0  0  0  0  0  0
   -0.9036    0.8828    2.9447 F   0  0  0  0  0  0  0  0  0  0  0  0
   -1.2322    1.7493    1.9662 C   0  0  0  0  0  0  0  0  0  0  0  0
   -1.2151    3.4570    3.6360 F   0  0  0  0  0  0  0  0  0  0  0  0
   -1.4029    3.0874    2.3609 C   0  0  0  0  0  0  0  0  0  0  0  0
   -1.9417    5.3249    1.7607 F   0  0  0  0  0  0  0  0  0  0  0  0
   -1.7872    4.0427    1.4079 C   0  0  0  0  0  0  0  0  0  0  0  0
   -2.3789    4.5505   -0.8348 F   0  0  0  0  0  0  0  0  0  0  0  0
   -2.0040    3.6449    0.0810 C   0  0  0  0  0  0  0  0  0  0  0  0
   -2.0620    1.9781   -1.5544 F   0  0  0  0  0  0  0  0  0  0  0  0
   -1.8153    2.2993   -0.2696 C   0  0  0  0  0  0  0  0  0  0  0  0
    2.2638    2.4903    0.5848 H   0  0  0  0  0  0  0  0  0  0  0  0
    1.5394    4.8908    0.5896 H   0  0  0  0  0  0  0  0  0  0  0  0
    0.3311    5.8385   -1.3947 H   0  0  0  0  0  0  0  0  0  0  0  0
   -0.1489    4.3739   -3.3724 H   0  0  0  0  0  0  0  0  0  0  0  0
    0.5858    1.9780   -3.3680 H   0  0  0  0  0  0  0  0  0  0  0  0
    4.6043   -2.8752   -1.1312 H   0  0  0  0  0  0  0  0  0  0  0  0
    3.3231   -5.0148   -1.4562 H   0  0  0  0  0  0  0  0  0  0  0  0
    0.8060   -4.9022   -1.7564 H   0  0  0  0  0  0  0  0  0  0  0  0
   -0.3107   -2.6126   -1.7272 H   0  0  0  0  0  0  0  0  0  0  0  0
  1  3  1  0  0  0  0
  3 39  1  0  0  0  0
  3 28  1  0  0  0  0
  4  5  1  0  0  0  0
  4 16  1  0  0  0  0
  5  6  1  0  0  0  0
  6 50  1  0  0  0  0
  7  6  2  0  0  0  0
  7 51  1  0  0  0  0
  8 52  1  0  0  0  0
  8  7  1  0  0  0  0
  9  8  2  0  0  0  0
 10  9  1  0  0  0  0
 10  5  2  0  0  0  0
 11  2  1  0  0  0  0
 11 55  1  0  0  0  0
 12 11  2  0  0  0  0
 13 14  2  0  0  0  0
 13 12  1  0  0  0  0
 14 15  1  0  0  0  0
 15 16  2  0  0  0  0
 15  2  1  0  0  0  0
 16  1  1  0  0  0  0
 17  3  1  0  0  0  0
 17 27  1  0  0  0  0
 18 19  1  0  0  0  0
 19 17  2  0  0  0  0
 20 21  1  0  0  0  0
 21 19  1  0  0  0  0
 21 23  2  0  0  0  0
 22 23  1  0  0  0  0
 23 25  1  0  0  0  0
 25 27  2  0  0  0  0
 25 24  1  0  0  0  0
 27 26  1  0  0  0  0
 28 30  2  0  0  0  0
 28 38  1  0  0  0  0
 29 30  1  0  0  0  0
 30 32  1  0  0  0  0
 32 31  1  0  0  0  0
 32 34  2  0  0  0  0
 34 33  1  0  0  0  0
 36 34  1  0  0  0  0
 36 35  1  0  0  0  0
 37 38  1  0  0  0  0
 38 36  2  0  0  0  0
 39 41  1  0  0  0  0
 41 43  2  0  0  0  0
 41 40  1  0  0  0  0
 43 42  1  0  0  0  0
 45 44  1  0  0  0  0
 45 43  1  0  0  0  0
 46 47  1  0  0  0  0
 47 45  2  0  0  0  0
 48 49  1  0  0  0  0
 49 47  1  0  0  0  0
 49 39  2  0  0  0  0
 53  9  1  0  0  0  0
 54 10  1  0  0  0  0
 56 12  1  0  0  0  0
 57 13  1  0  0  0  0
 58 14  1  0  0  0  0
M  END
