1,2
q = 0.0, confidence = 0.986

 43 46  0  0  1  0  0  0  0  0999 V2000
   -1.4838   -0.3773   -0.3270 N   0  0  1  0  0  0  0  0  0  0  0  0
    1.4840   -0.3770    0.3268 N   0  0  1  0  0  0  0  0  0  0  0  0
   -2.8102    0.2253   -0.6707 C   0  0  0  0  0  0  0  0  0  0  0  0
   -2.6862    0.7473   -1.6372 H   0  0  0  0  0  0  0  0  0  0  0  0
   -2.9957    1.0297    0.0660 H   0  0  0  0  0  0  0  0  0  0  0  0
   -3.9816   -0.7540   -0.6771 C   0  0  0  0  0  0  0  0  0  0  0  0
   -4.8938   -0.1844   -0.9492 H   0  0  0  0  0  0  0  0  0  0  0  0
   -3.8642   -1.5395   -1.4567 H   0  0  0  0  0  0  0  0  0  0  0  0
   -4.1160   -1.3974    0.7013 C   0  0  0  0  0  0  0  0  0  0  0  0
   -4.9573   -2.1196    0.7374 H   0  0  0  0  0  0  0  0  0  0  0  0
   -4.3369   -0.6086    1.4537 H   0  0  0  0  0  0  0  0  0  0  0  0
   -2.8025   -2.0948    1.0486 C   0  0  0  0  0  0  0  0  0  0  0  0
   -2.6755   -2.9684    0.3748 H   0  0  0  0  0  0  0  0  0  0  0  0
   -2.8265   -2.5031    2.0805 H   0  0  0  0  0  0  0  0  0  0  0  0
   -1.5689   -1.1674    0.9544 C   0  0  1  0  0  0  0  0  0  0  0  0
   -1.6647   -0.3955    1.7483 H   0  0  0  0  0  0  0  0  0  0  0  0
   -0.2811   -1.9835    1.1954 C   0  0  2  0  0  0  0  0  0  0  0  0
   -0.4681   -2.5895    2.1066 H   0  0  0  0  0  0  0  0  0  0  0  0
    0.9791   -1.1622    1.4861 C   0  0  0  0  0  0  0  0  0  0  0  0
    0.8014   -0.4373    2.3055 H   0  0  0  0  0  0  0  0  0  0  0  0
    1.7672   -1.8683    1.8348 H   0  0  0  0  0  0  0  0  0  0  0  0
    2.8102    0.2260    0.6701 C   0  0  0  0  0  0  0  0  0  0  0  0
    2.6863    0.7485    1.6364 H   0  0  0  0  0  0  0  0  0  0  0  0
    2.9956    1.0302   -0.0670 H   0  0  0  0  0  0  0  0  0  0  0  0
    3.9819   -0.7530    0.6769 C   0  0  0  0  0  0  0  0  0  0  0  0
    4.8940   -0.1831    0.9487 H   0  0  0  0  0  0  0  0  0  0  0  0
    3.8647   -1.5381    1.4568 H   0  0  0  0  0  0  0  0  0  0  0  0
    4.1163   -1.3971   -0.7013 C   0  0  0  0  0  0  0  0  0  0  0  0
    4.3371   -0.6085   -1.4540 H   0  0  0  0  0  0  0  0  0  0  0  0
    4.9578   -2.1191   -0.7370 H   0  0  0  0  0  0  0  0  0  0  0  0
    2.8030   -2.0948   -1.0481 C   0  0  0  0  0  0  0  0  0  0  0  0
    2.6761   -2.9681   -0.3739 H   0  0  0  0  0  0  0  0  0  0  0  0
    2.8269   -2.5035   -2.0799 H   0  0  0  0  0  0  0  0  0  0  0  0
    1.5692   -1.1675   -0.9543 C   0  0  1  0  0  0  0  0  0  0  0  0
    1.6648   -0.3960   -1.7486 H   0  0  0  0  0  0  0  0  0  0  0  0
    0.2815   -1.9840   -1.1950 C   0  0  2  0  0  0  0  0  0  0  0  0
    0.4686   -2.5902   -2.1059 H   0  0  0  0  0  0  0  0  0  0  0  0
   -0.9788   -1.1629   -1.4860 C   0  0  0  0  0  0  0  0  0  0  0  0
   -0.8011   -0.4383   -2.3057 H   0  0  0  0  0  0  0  0  0  0  0  0
   -1.7667   -1.8692   -1.8345 H   0  0  0  0  0  0  0  0  0  0  0  0
    0.0003   -2.9028    0.0004 C   0  0  0  0  0  0  0  0  0  0  0  0
   -0.8586   -3.5671   -0.2180 H   0  0  0  0  0  0  0  0  0  0  0  0
    0.8592   -3.5669    0.2191 H   0  0  0  0  0  0  0  0  0  0  0  0
  1 38  1  6  0  0  0
  1 15  1  0  0  0  0
  2 22  1  1  0  0  0
  2 19  1  0  0  0  0
  3  1  1  0  0  0  0
  3  5  1  0  0  0  0
  4  3  1  0  0  0  0
  6  3  1  0  0  0  0
  6  9  1  0  0  0  0
  7  6  1  0  0  0  0
  8  6  1  0  0  0  0
  9 10  1  0  0  0  0
  9 12  1  0  0  0  0
  9 11  1  0  0  0  0
 12 14  1  0  0  0  0
 13 12  1  0  0  0  0
 15 12  1  0  0  0  0
 15 17  1  0  0  0  0
 15 16  1  1  0  0  0
 17 19  1  0  0  0  0
 17 18  1  1  0  0  0
 19 21  1  0  0  0  0
 19 20  1  0  0  0  0
 22 25  1  0  0  0  0
 22 23  1  0  0  0  0
 24 22  1  0  0  0  0
 25 26  1  0  0  0  0
 25 27  1  0  0  0  0
 28 25  1  0  0  0  0
 29 28  1  0  0  0  0
 30 28  1  0  0  0  0
 31 34  1  0  0  0  0
 31 28  1  0  0  0  0
 31 32  1  0  0  0  0
 33 31  1  0  0  0  0
 34 35  1  6  0  0  0
 34  2  1  0  0  0  0
 36 37  1  6  0  0  0
 36 34  1  0  0  0  0
 36 41  1  0  0  0  0
 38 36  1  0  0  0  0
 39 38  1  0  0  0  0
 40 38  1  0  0  0  0
 41 43  1  0  0  0  0
 41 17  1  0  0  0  0
 42 41  1  0  0  0  0
M  END
