1,23
q = 0.0, confidence = 1.0

 23 24  0  0  0  0  0  0  0  0999 V2000
   -1.4449   -0.1418    1.2687 N   0  0  0  0  0  2  0  0  0  0  0  0
   -1.7449   -1.0312    2.3919 C   0  0  0  0  0  0  0  0  0  0  0  0
   -1.4107   -0.5567    3.3420 H   0  0  0  0  0  0  0  0  0  0  0  0
   -1.1832   -1.9774    2.2761 H   0  0  0  0  0  0  0  0  0  0  0  0
   -3.2779   -1.1951    2.3218 C   0  0  0  0  0  0  0  0  0  0  0  0
   -3.5635   -2.1284    1.7825 H   0  0  0  0  0  0  0  0  0  0  0  0
   -3.7692   -1.1829    3.3152 H   0  0  0  0  0  0  0  0  0  0  0  0
   -3.7005   -0.0283    1.5119 N   0  0  0  0  0  0  0  0  0  0  0  0
   -5.0395   -0.0575    0.9460 C   0  0  0  0  0  0  0  0  0  0  0  0
   -5.4101    0.9631    0.7310 H   0  0  0  0  0  0  0  0  0  0  0  0
   -5.7236   -0.4916    1.6995 H   0  0  0  0  0  0  0  0  0  0  0  0
   -5.0828   -0.6826    0.0241 H   0  0  0  0  0  0  0  0  0  0  0  0
   -2.5795    0.3715    0.8237 C   0  0  0  0  0  0  0  0  0  0  0  0
   -2.4261    1.2568   -0.3289 C   0  0  0  0  0  0  0  0  0  0  0  0
   -3.3762    2.1251   -0.8919 C   0  0  0  0  0  0  0  0  0  0  0  0
   -4.3952    2.1578   -0.4887 H   0  0  0  0  0  0  0  0  0  0  0  0
   -3.0088    2.9523   -1.9585 C   0  0  0  0  0  0  0  0  0  0  0  0
   -3.7422    3.6359   -2.4095 H   0  0  0  0  0  0  0  0  0  0  0  0
   -1.6868    2.8937   -2.4372 C   0  0  0  0  0  0  0  0  0  0  0  0
   -1.3525    3.5254   -3.2723 H   0  0  0  0  0  0  0  0  0  0  0  0
   -0.7874    2.0070   -1.8430 C   0  0  0  0  0  0  0  0  0  0  0  0
    0.2528    1.9074   -2.1869 H   0  0  0  0  0  0  0  0  0  0  0  0
   -1.1363    1.1957   -0.8204 N   0  0  0  0  0  2  0  0  0  0  0  0
  1  2  1  0  0  0  0
  2  3  1  0  0  0  0
  4  2  1  0  0  0  0
  5  2  1  0  0  0  0
  5  7  1  0  0  0  0
  6  5  1  0  0  0  0
  8  5  1  0  0  0  0
  9  8  1  0  0  0  0
  9 11  1  0  0  0  0
 10  9  1  0  0  0  0
 12  9  1  0  0  0  0
 13  1  1  0  0  0  0
 13  8  1  0  0  0  0
 14 13  2  0  0  0  0
 15 16  1  0  0  0  0
 15 14  1  0  0  0  0
 17 15  2  0  0  0  0
 18 17  1  0  0  0  0
 19 17  1  0  0  0  0
 19 21  2  0  0  0  0
 20 19  1  0  0  0  0
 21 23  1  0  0  0  0
 22 21  1  0  0  0  0
 23 14  1  0  0  0  0
M  END
