1,2
q = 0.0, confidence = 1.0

 23 24  0  0  1  0  0  0  0  0999 V2000
    1.4448   -0.1419   -1.2688 N   0  0  0  0  0  2  0  0  0  0  0  0
    1.1364    1.1955    0.8205 N   0  0  0  0  0  2  0  0  0  0  0  0
    0.7877    2.0065    1.8433 C   0  0  0  0  0  3  0  0  0  0  0  0
   -0.2525    1.9071    2.1871 H   0  0  0  0  0  0  0  0  0  0  0  0
    2.5794    0.3713   -0.8238 C   0  0  1  0  0  3  0  0  0  0  0  0
    2.4262    1.2563    0.3290 C   0  0  0  0  0  0  0  0  0  0  0  0
    3.7003   -0.0285   -1.5122 N   0  0  0  0  0  0  0  0  0  0  0  0
    1.6873    2.8928    2.4377 C   0  0  0  0  0  0  0  0  0  0  0  0
    1.3532    3.5244    3.2730 H   0  0  0  0  0  0  0  0  0  0  0  0
    3.2776   -1.1952   -2.3221 C   0  0  0  0  0  0  0  0  0  0  0  0
    3.7689   -1.1830   -3.3156 H   0  0  0  0  0  0  0  0  0  0  0  0
    3.5631   -2.1285   -1.7829 H   0  0  0  0  0  0  0  0  0  0  0  0
    1.7446   -1.0312   -2.3922 C   0  0  0  0  0  0  0  0  0  0  0  0
    1.1828   -1.9772   -2.2765 H   0  0  0  0  0  0  0  0  0  0  0  0
    1.4104   -0.5564   -3.3421 H   0  0  0  0  0  0  0  0  0  0  0  0
    5.0395   -0.0574   -0.9466 C   0  0  0  0  0  0  0  0  0  0  0  0
    5.0828   -0.6817   -0.0242 H   0  0  0  0  0  0  0  0  0  0  0  0
    5.4103    0.9633   -0.7327 H   0  0  0  0  0  0  0  0  0  0  0  0
    5.7232   -0.4924   -1.6999 H   0  0  0  0  0  0  0  0  0  0  0  0
    3.3766    2.1242    0.8922 C   0  0  0  0  0  0  0  0  0  0  0  0
    4.3956    2.1567    0.4891 H   0  0  0  0  0  0  0  0  0  0  0  0
    3.0093    2.9513    1.9591 C   0  0  0  0  0  0  0  0  0  0  0  0
    3.7429    3.6345    2.4103 H   0  0  0  0  0  0  0  0  0  0  0  0
  1  5  1  0  0  0  0
  2  3  1  0  0  0  0
  3  4  1  0  0  0  0
  3  8  1  0  0  0  0
  5  6  1  1  0  0  0
  6  2  1  0  0  0  0
  6 20  2  0  0  0  0
  7 16  1  0  0  0  0
  7  5  1  0  0  0  0
  8  9  1  0  0  0  0
 10 12  1  0  0  0  0
 10  7  1  0  0  0  0
 11 10  1  0  0  0  0
 13 10  1  0  0  0  0
 13 14  1  0  0  0  0
 13  1  1  0  0  0  0
 15 13  1  0  0  0  0
 16 18  1  0  0  0  0
 16 17  1  0  0  0  0
 19 16  1  0  0  0  0
 20 22  1  0  0  0  0
 21 20  1  0  0  0  0
 22 23  1  0  0  0  0
 22  8  2  0  0  0  0
M  END
