3,4
q = 0.0, confidence = 0.992

 42 46  0  0  0  0  0  0  0  0999 V2000
    6.6405   -1.9276   -0.3747 F   0  0  0  0  0  0  0  0  0  0  0  0
   -6.3699    2.4199    0.3796 F   0  0  0  0  0  0  0  0  0  0  0  0
   -1.0222    0.9936    0.0041 N   0  0  0  0  0  2  0  0  0  0  0  0
    1.5291    0.2004   -0.0342 N   0  0  0  0  0  2  0  0  0  0  0  0
   -0.0998    1.9323    0.0309 C   0  0  0  0  0  0  0  0  0  0  0  0
    1.3176    1.4903   -0.0649 C   0  0  0  0  0  0  0  0  0  0  0  0
   -0.1124    3.3931    0.1399 C   0  0  0  0  0  0  0  0  0  0  0  0
   -1.0789    4.3808    0.3388 C   0  0  0  0  0  0  0  0  0  0  0  0
   -0.6637    5.7400    0.3852 C   0  0  0  0  0  0  0  0  0  0  0  0
    0.6693    6.1225    0.2258 C   0  0  0  0  0  0  0  0  0  0  0  0
    1.6857    5.1395    0.0283 C   0  0  0  0  0  0  0  0  0  0  0  0
    3.0848    5.3665   -0.1455 C   0  0  0  0  0  0  0  0  0  0  0  0
    3.9617    4.2943   -0.3191 C   0  0  0  0  0  0  0  0  0  0  0  0
    3.5213    2.9420   -0.3143 C   0  0  0  0  0  0  0  0  0  0  0  0
    2.1602    2.6865   -0.1457 C   0  0  0  0  0  0  0  0  0  0  0  0
    1.2595    3.7887    0.0057 C   0  0  0  0  0  0  0  0  0  0  0  0
    2.8554   -0.3066   -0.1284 C   0  0  0  0  0  0  0  0  0  0  0  0
    3.2448   -1.0083   -1.2870 C   0  0  0  0  0  0  0  0  0  0  0  0
    4.5329   -1.5492   -1.3766 C   0  0  0  0  0  0  0  0  0  0  0  0
    5.4145   -1.4005   -0.2956 C   0  0  0  0  0  0  0  0  0  0  0  0
    5.0361   -0.7184    0.8703 C   0  0  0  0  0  0  0  0  0  0  0  0
    3.7511   -0.1664    0.9515 C   0  0  0  0  0  0  0  0  0  0  0  0
   -2.3949    1.3803    0.1063 C   0  0  0  0  0  0  0  0  0  0  0  0
   -3.0053    2.0870   -0.9475 C   0  0  0  0  0  0  0  0  0  0  0  0
   -4.3579    2.4389   -0.8585 C   0  0  0  0  0  0  0  0  0  0  0  0
   -5.0794    2.0847    0.2916 C   0  0  0  0  0  0  0  0  0  0  0  0
   -4.4814    1.3788    1.3462 C   0  0  0  0  0  0  0  0  0  0  0  0
   -3.1347    1.0136    1.2454 C   0  0  0  0  0  0  0  0  0  0  0  0
   -2.1411    4.1317    0.4584 H   0  0  0  0  0  0  0  0  0  0  0  0
   -1.4268    6.5157    0.5453 H   0  0  0  0  0  0  0  0  0  0  0  0
    0.9431    7.1881    0.2551 H   0  0  0  0  0  0  0  0  0  0  0  0
    3.4710    6.3971   -0.1419 H   0  0  0  0  0  0  0  0  0  0  0  0
    5.0338    4.4975   -0.4568 H   0  0  0  0  0  0  0  0  0  0  0  0
    4.2482    2.1287   -0.4411 H   0  0  0  0  0  0  0  0  0  0  0  0
    2.5299   -1.1238   -2.1144 H   0  0  0  0  0  0  0  0  0  0  0  0
    4.8652   -2.0912   -2.2732 H   0  0  0  0  0  0  0  0  0  0  0  0
    5.7510   -0.6309    1.7008 H   0  0  0  0  0  0  0  0  0  0  0  0
    3.4312    0.3656    1.8592 H   0  0  0  0  0  0  0  0  0  0  0  0
   -2.4224    2.3426   -1.8441 H   0  0  0  0  0  0  0  0  0  0  0  0
   -4.8660    2.9766   -1.6713 H   0  0  0  0  0  0  0  0  0  0  0  0
   -5.0829    1.1123    2.2266 H   0  0  0  0  0  0  0  0  0  0  0  0
   -2.6482    0.4364    2.0441 H   0  0  0  0  0  0  0  0  0  0  0  0
  1 20  1  0  0  0  0
  3  5  1  0  0  0  0
  3 23  1  0  0  0  0
  5  7  1  0  0  0  0
  6  4  1  0  0  0  0
  6  5  2  0  0  0  0
  7  8  1  0  0  0  0
  8  9  2  0  0  0  0
  8 29  1  0  0  0  0
  9 30  1  0  0  0  0
 10 31  1  0  0  0  0
 10  9  1  0  0  0  0
 11 10  2  0  0  0  0
 12 32  1  0  0  0  0
 12 11  1  0  0  0  0
 13 14  1  0  0  0  0
 13 12  2  0  0  0  0
 14 15  2  0  0  0  0
 15  6  1  0  0  0  0
 15 16  1  0  0  0  0
 16 11  1  0  0  0  0
 16  7  2  0  0  0  0
 17  4  1  0  0  0  0
 17 22  1  0  0  0  0
 18 17  2  0  0  0  0
 19 18  1  0  0  0  0
 19 20  2  0  0  0  0
 20 21  1  0  0  0  0
 21 22  2  0  0  0  0
 21 37  1  0  0  0  0
 22 38  1  0  0  0  0
 23 28  1  0  0  0  0
 24 25  1  0  0  0  0
 24 23  2  0  0  0  0
 25 26  2  0  0  0  0
 26  2  1  0  0  0  0
 26 27  1  0  0  0  0
 27 41  1  0  0  0  0
 28 27  2  0  0  0  0
 28 42  1  0  0  0  0
 33 13  1  0  0  0  0
 34 14  1  0  0  0  0
 35 18  1  0  0  0  0
 36 19  1  0  0  0  0
 39 24  1  0  0  0  0
 40 25  1  0  0  0  0
M  END
