7,8
q = 0.0, confidence = 0.988

 40 41  0  0  0  0  0  0  0  0999 V2000
    3.5277   -1.5718    0.4585 F   0  0  0  0  0  0  0  0  0  0  0  0
    5.0694   -0.6001    1.6467 F   0  0  0  0  0  0  0  0  0  0  0  0
    2.9893   -0.4922    2.2819 F   0  0  0  0  0  0  0  0  0  0  0  0
   -2.7955    2.7624    1.1886 F   0  0  0  0  0  0  0  0  0  0  0  0
   -4.5030    2.9176   -0.1557 F   0  0  0  0  0  0  0  0  0  0  0  0
   -2.5580    2.3240   -0.9326 F   0  0  0  0  0  0  0  0  0  0  0  0
    1.1206    0.7635    0.4718 N   0  0  0  0  0  2  0  0  0  0  0  0
   -1.3661    0.1263    0.7078 N   0  0  0  0  0  2  0  0  0  0  0  0
    0.5689    1.0846    1.6279 C   0  0  0  0  0  0  0  0  0  0  0  0
   -0.8190    0.6454    1.7919 C   0  0  0  0  0  0  0  0  0  0  0  0
    1.2276    1.9180    2.6814 C   0  0  0  0  0  0  0  0  0  0  0  0
    2.2155    2.2843    2.3521 H   0  0  0  0  0  0  0  0  0  0  0  0
    1.3735    1.3160    3.6018 H   0  0  0  0  0  0  0  0  0  0  0  0
    0.5946    2.7867    2.9543 H   0  0  0  0  0  0  0  0  0  0  0  0
   -1.5320    0.8433    3.0920 C   0  0  0  0  0  0  0  0  0  0  0  0
   -2.5439    0.4023    3.0679 H   0  0  0  0  0  0  0  0  0  0  0  0
   -1.6281    1.9199    3.3378 H   0  0  0  0  0  0  0  0  0  0  0  0
   -0.9548    0.3653    3.9095 H   0  0  0  0  0  0  0  0  0  0  0  0
    2.3642    1.3379    0.0586 C   0  0  0  0  0  0  0  0  0  0  0  0
    3.6317    0.7936    0.3759 C   0  0  0  0  0  0  0  0  0  0  0  0
    4.7879    1.4166   -0.1311 C   0  0  0  0  0  0  0  0  0  0  0  0
    5.7666    0.9856    0.1196 H   0  0  0  0  0  0  0  0  0  0  0  0
    4.7047    2.5608   -0.9323 C   0  0  0  0  0  0  0  0  0  0  0  0
    5.6223    3.0280   -1.3180 H   0  0  0  0  0  0  0  0  0  0  0  0
    3.4470    3.1010   -1.2374 C   0  0  0  0  0  0  0  0  0  0  0  0
    3.3621    4.0001   -1.8657 H   0  0  0  0  0  0  0  0  0  0  0  0
    2.2871    2.4933   -0.7447 C   0  0  0  0  0  0  0  0  0  0  0  0
    1.2938    2.8963   -0.9867 H   0  0  0  0  0  0  0  0  0  0  0  0
    3.7981   -0.4745    1.1906 C   0  0  0  0  0  0  0  0  0  0  0  0
   -2.7496   -0.2293    0.6778 C   0  0  0  0  0  0  0  0  0  0  0  0
   -3.7491    0.7292    0.3764 C   0  0  0  0  0  0  0  0  0  0  0  0
   -5.0919    0.3175    0.3006 C   0  0  0  0  0  0  0  0  0  0  0  0
   -5.8602    1.0641    0.0584 H   0  0  0  0  0  0  0  0  0  0  0  0
   -5.4473   -1.0183    0.5248 C   0  0  0  0  0  0  0  0  0  0  0  0
   -6.5022   -1.3219    0.4589 H   0  0  0  0  0  0  0  0  0  0  0  0
   -4.4524   -1.9606    0.8244 C   0  0  0  0  0  0  0  0  0  0  0  0
   -4.7182   -3.0142    0.9967 H   0  0  0  0  0  0  0  0  0  0  0  0
   -3.1094   -1.5716    0.8985 C   0  0  0  0  0  0  0  0  0  0  0  0
   -2.3024   -2.2915    1.1082 H   0  0  0  0  0  0  0  0  0  0  0  0
   -3.4046    2.1788    0.1127 C   0  0  0  0  0  0  0  0  0  0  0  0
  1 29  1  0  0  0  0
  5 40  1  0  0  0  0
  6 40  1  0  0  0  0
  7  9  1  0  0  0  0
  8 10  1  0  0  0  0
  9 10  2  0  0  0  0
  9 11  1  0  0  0  0
 10 15  1  0  0  0  0
 11 14  1  0  0  0  0
 11 13  1  0  0  0  0
 12 11  1  0  0  0  0
 15 17  1  0  0  0  0
 15 18  1  0  0  0  0
 16 15  1  0  0  0  0
 19 20  1  0  0  0  0
 19  7  1  0  0  0  0
 20 29  1  0  0  0  0
 21 22  1  0  0  0  0
 21 20  2  0  0  0  0
 23 21  1  0  0  0  0
 24 23  1  0  0  0  0
 25 23  2  0  0  0  0
 25 27  1  0  0  0  0
 26 25  1  0  0  0  0
 27 19  2  0  0  0  0
 28 27  1  0  0  0  0
 29  2  1  0  0  0  0
 29  3  1  0  0  0  0
 30  8  1  0  0  0  0
 30 38  1  0  0  0  0
 31 30  2  0  0  0  0
 32 31  1  0  0  0  0
 32 34  2  0  0  0  0
 33 32  1  0  0  0  0
 34 36  1  0  0  0  0
 35 34  1  0  0  0  0
 36 38  2  0  0  0  0
 36 37  1  0  0  0  0
 38 39  1  0  0  0  0
 40 31  1  0  0  0  0
 40  4  1  0  0  0  0
M  END
