3,4
q = -2.0, confidence = 0.868

 44 45  0  0  0  0  0  0  0  0999 V2000
   -3.8391    0.8912    0.5515 O   0  0  0  0  0  0  0  0  0  0  0  0
   -2.8781   -1.6159    0.7520 O   0  0  0  0  0  0  0  0  0  0  0  0
   -1.3087    1.4239    0.5766 N   0  0  0  0  0  2  0  0  0  0  0  0
   -0.6780   -1.7452   -0.7978 N   0  0  0  0  0  2  0  0  0  0  0  0
    1.3095   -3.5422    0.5638 F   0  0  0  0  0  0  0  0  0  0  0  0
    3.9114   -2.9914    0.3755 F   0  0  0  0  0  0  0  0  0  0  0  0
    4.8286   -0.7595   -0.9398 F   0  0  0  0  0  0  0  0  0  0  0  0
    2.9993    0.9307   -2.1396 F   0  0  0  0  0  0  0  0  0  0  0  0
    0.3148    0.3463   -1.9937 F   0  0  0  0  0  0  0  0  0  0  0  0
    0.0129   -0.5231    2.0828 F   0  0  0  0  0  0  0  0  0  0  0  0
    2.7049   -0.5248    2.3920 F   0  0  0  0  0  0  0  0  0  0  0  0
    4.2209    1.5094    1.3535 F   0  0  0  0  0  0  0  0  0  0  0  0
    3.0066    3.5611   -0.0032 F   0  0  0  0  0  0  0  0  0  0  0  0
    0.3093    3.5399   -0.3895 F   0  0  0  0  0  0  0  0  0  0  0  0
   -2.1732    2.5472    0.9078 C   0  0  0  0  0  0  0  0  0  0  0  0
   -2.4055    3.1821    0.0211 H   0  0  0  0  0  0  0  0  0  0  0  0
   -1.7263    3.2145    1.6769 H   0  0  0  0  0  0  0  0  0  0  0  0
   -3.4485    1.9397    1.4661 C   0  0  0  0  0  0  0  0  0  0  0  0
   -3.2454    1.5013    2.4678 H   0  0  0  0  0  0  0  0  0  0  0  0
   -4.2801    2.6740    1.5477 H   0  0  0  0  0  0  0  0  0  0  0  0
   -4.6457   -0.1301    1.1497 C   0  0  0  0  0  0  0  0  0  0  0  0
   -5.2429   -0.5708    0.3297 H   0  0  0  0  0  0  0  0  0  0  0  0
   -5.3351    0.3102    1.9013 H   0  0  0  0  0  0  0  0  0  0  0  0
   -3.7609   -1.2000    1.7801 C   0  0  0  0  0  0  0  0  0  0  0  0
   -3.1833   -0.8084    2.6504 H   0  0  0  0  0  0  0  0  0  0  0  0
   -4.3880   -2.0511    2.1323 H   0  0  0  0  0  0  0  0  0  0  0  0
   -2.0421   -2.7601    0.9746 C   0  0  0  0  0  0  0  0  0  0  0  0
   -2.6721   -3.6351    1.2538 H   0  0  0  0  0  0  0  0  0  0  0  0
   -1.3133   -2.5521    1.7881 H   0  0  0  0  0  0  0  0  0  0  0  0
   -1.3358   -2.9792   -0.3576 C   0  0  0  0  0  0  0  0  0  0  0  0
   -0.6366   -3.8303   -0.2725 H   0  0  0  0  0  0  0  0  0  0  0  0
   -2.1054   -3.2657   -1.1086 H   0  0  0  0  0  0  0  0  0  0  0  0
    0.6966   -1.6479   -0.8089 C   0  0  0  0  0  0  0  0  0  0  0  0
    1.6702   -2.4671   -0.1729 C   0  0  0  0  0  0  0  0  0  0  0  0
    3.0460   -2.1829   -0.2445 C   0  0  0  0  0  0  0  0  0  0  0  0
    3.5215   -1.0424   -0.9112 C   0  0  0  0  0  0  0  0  0  0  0  0
    2.5917   -0.1907   -1.5350 C   0  0  0  0  0  0  0  0  0  0  0  0
    1.2398   -0.5130   -1.4625 C   0  0  0  0  0  0  0  0  0  0  0  0
    0.0580    1.5110    0.8273 C   0  0  0  0  0  0  0  0  0  0  0  0
    0.7253    0.4891    1.5500 C   0  0  0  0  0  0  0  0  0  0  0  0
    2.1151    0.4799    1.7311 C   0  0  0  0  0  0  0  0  0  0  0  0
    2.8932    1.5240    1.2076 C   0  0  0  0  0  0  0  0  0  0  0  0
    2.2673    2.5733    0.5095 C   0  0  0  0  0  0  0  0  0  0  0  0
    0.8776    2.5537    0.3221 C   0  0  0  0  0  0  0  0  0  0  0  0
  1 21  1  0  0  0  0
  1 18  1  0  0  0  0
  2 27  1  0  0  0  0
  2 24  1  0  0  0  0
  3 39  1  0  0  0  0
  3 15  1  0  0  0  0
  4 30  1  0  0  0  0
  7 36  1  0  0  0  0
  8 37  1  0  0  0  0
  9 38  1  0  0  0  0
 13 43  1  0  0  0  0
 14 44  1  0  0  0  0
 15 18  1  0  0  0  0
 15 17  1  0  0  0  0
 16 15  1  0  0  0  0
 18 20  1  0  0  0  0
 18 19  1  0  0  0  0
 21 24  1  0  0  0  0
 21 23  1  0  0  0  0
 22 21  1  0  0  0  0
 24 26  1  0  0  0  0
 24 25  1  0  0  0  0
 27 28  1  0  0  0  0
 27 29  1  0  0  0  0
 30 31  1  0  0  0  0
 30 27  1  0  0  0  0
 32 30  1  0  0  0  0
 33  4  1  0  0  0  0
 33 34  1  0  0  0  0
 34  5  1  0  0  0  0
 35 34  2  0  0  0  0
 35  6  1  0  0  0  0
 36 35  1  0  0  0  0
 37 38  1  0  0  0  0
 37 36  2  0  0  0  0
 38 33  2  0  0  0  0
 39 40  1  0  0  0  0
 40 41  2  0  0  0  0
 40 10  1  0  0  0  0
 41 11  1  0  0  0  0
 42 12  1  0  0  0  0
 42 41  1  0  0  0  0
 43 42  2  0  0  0  0
 44 43  1  0  0  0  0
 44 39  2  0  0  0  0
M  END
