3,5
q = 0.0, confidence = 0.864

 24 25  0  0  0  0  0  0  0  0999 V2000
   -5.9273    1.4445    0.9280 Cl  0  0  0  0  0  0  0  0  0  0  0  0
    1.6228    5.5572    0.5548 Cl  0  0  0  0  0  0  0  0  0  0  0  0
   -1.5158   -2.1784   -0.5104 N   0  0  0  0  0  2  0  0  0  0  0  0
   -1.6612   -3.1659   -0.7647 H   0  0  0  0  0  0  0  0  0  0  0  0
   -0.9564    0.2111    0.0642 N   0  0  0  0  0  2  0  0  0  0  0  0
   -2.5952   -1.4451   -0.2134 C   0  0  0  0  0  0  0  0  0  0  0  0
   -3.9545   -1.8812   -0.1649 C   0  0  0  0  0  0  0  0  0  0  0  0
   -4.1955   -2.9253   -0.4144 H   0  0  0  0  0  0  0  0  0  0  0  0
   -4.9518   -0.9875    0.1778 C   0  0  0  0  0  0  0  0  0  0  0  0
   -6.0051   -1.2982    0.2087 H   0  0  0  0  0  0  0  0  0  0  0  0
   -4.6241    0.3706    0.4953 C   0  0  0  0  0  0  0  0  0  0  0  0
   -3.3212    0.8433    0.4697 C   0  0  0  0  0  0  0  0  0  0  0  0
   -3.0927    1.8872    0.7203 H   0  0  0  0  0  0  0  0  0  0  0  0
   -2.2786   -0.0580    0.1096 C   0  0  0  0  0  0  0  0  0  0  0  0
   -0.4336    1.5133    0.2362 C   0  0  0  0  0  0  0  0  0  0  0  0
    0.4219    1.7906    1.3217 C   0  0  0  0  0  0  0  0  0  0  0  0
    0.5964    1.0107    2.0770 H   0  0  0  0  0  0  0  0  0  0  0  0
    1.0494    3.0367    1.4268 C   0  0  0  0  0  0  0  0  0  0  0  0
    1.7175    3.2615    2.2697 H   0  0  0  0  0  0  0  0  0  0  0  0
    0.8249    4.0090    0.4367 C   0  0  0  0  0  0  0  0  0  0  0  0
   -0.0250    3.7453   -0.6500 C   0  0  0  0  0  0  0  0  0  0  0  0
   -0.1792    4.5135   -1.4208 H   0  0  0  0  0  0  0  0  0  0  0  0
   -0.6534    2.4975   -0.7503 C   0  0  0  0  0  0  0  0  0  0  0  0
   -1.2781    2.2466   -1.6191 H   0  0  0  0  0  0  0  0  0  0  0  0
  3  6  1  0  0  0  0
  4  3  1  0  0  0  0
  5 14  1  0  0  0  0
  5 15  1  0  0  0  0
  6  7  2  0  0  0  0
  6 14  1  0  0  0  0
  7  9  1  0  0  0  0
  8  7  1  0  0  0  0
  9 10  1  0  0  0  0
  9 11  2  0  0  0  0
 11  1  1  0  0  0  0
 12 11  1  0  0  0  0
 12 13  1  0  0  0  0
 14 12  2  0  0  0  0
 15 16  1  0  0  0  0
 16 18  2  0  0  0  0
 16 17  1  0  0  0  0
 18 19  1  0  0  0  0
 20  2  1  0  0  0  0
 20 18  1  0  0  0  0
 21 20  2  0  0  0  0
 22 21  1  0  0  0  0
 23 21  1  0  0  0  0
 23 15  2  0  0  0  0
 24 23  1  0  0  0  0
M  END
