2,5
q = 0.0, confidence = 0.998

 30 32  0  0  1  0  0  0  0  0999 V2000
   -5.2316    0.7084    0.0568 N   0  0  0  0  0  0  0  0  0  0  0  0
   -0.5640    0.6992    0.0757 N   0  0  0  0  0  2  0  0  0  0  0  0
   -1.7154    0.0574    0.0371 N   0  0  0  0  0  2  0  0  0  0  0  0
    0.7862    2.5699    0.1972 N   0  0  0  0  0  0  0  0  0  0  0  0
    1.8417    1.7001    0.1754 N   0  0  0  0  0  2  0  0  0  0  0  0
   -4.0438    0.0366    0.0149 N   0  0  0  0  0  0  0  0  0  0  0  0
   -0.5017    2.0463    0.1440 C   0  0  0  0  0  0  0  0  0  0  0  0
   -4.2160   -1.3351   -0.0620 C   0  0  0  0  0  0  0  0  0  0  0  0
   -3.3618   -2.0154   -0.1117 H   0  0  0  0  0  0  0  0  0  0  0  0
   -5.5778   -1.5460   -0.0692 C   0  0  0  0  0  0  0  0  0  0  0  0
   -6.0954   -2.5095   -0.1252 H   0  0  0  0  0  0  0  0  0  0  0  0
   -2.8565    0.7592    0.0518 C   0  0  0  0  0  0  0  0  0  0  0  0
   -6.1713   -0.2360    0.0062 C   0  0  0  0  0  0  0  0  0  0  0  0
    2.9557    2.4487    0.1068 C   0  0  2  0  0  3  0  0  0  0  0  0
   -1.6722    2.8348    0.1599 C   0  0  0  0  0  0  0  0  0  0  0  0
   -1.6197    3.9303    0.2089 H   0  0  0  0  0  0  0  0  0  0  0  0
    1.2194    3.8734    0.1664 C   0  0  0  0  0  0  0  0  0  0  0  0
    0.5216    4.7158    0.1735 H   0  0  0  0  0  0  0  0  0  0  0  0
   -2.8868    2.1791    0.1064 C   0  0  0  0  0  0  0  0  0  0  0  0
   -3.8570    2.6920    0.1072 H   0  0  0  0  0  0  0  0  0  0  0  0
    2.5996    3.8293    0.1153 C   0  0  0  0  0  0  0  0  0  0  0  0
    3.2856    4.6813    0.0788 H   0  0  0  0  0  0  0  0  0  0  0  0
    4.3153    1.8545   -0.0027 C   0  0  0  0  0  0  0  0  0  0  0  0
    4.3327    1.0910   -0.8036 H   0  0  0  0  0  0  0  0  0  0  0  0
    4.6263    1.3701    0.9442 H   0  0  0  0  0  0  0  0  0  0  0  0
    5.0573    2.6370   -0.2417 H   0  0  0  0  0  0  0  0  0  0  0  0
   -7.6220    0.1135    0.0277 C   0  0  0  0  0  0  0  0  0  0  0  0
   -7.7524    1.2087    0.0952 H   0  0  0  0  0  0  0  0  0  0  0  0
   -8.1319   -0.3604    0.8911 H   0  0  0  0  0  0  0  0  0  0  0  0
   -8.1301   -0.2493   -0.8890 H   0  0  0  0  0  0  0  0  0  0  0  0
  2  7  1  0  0  0  0
  3 12  1  0  0  0  0
  3  2  1  0  0  0  0
  5  4  1  0  0  0  0
  6 12  1  0  0  0  0
  6  1  1  0  0  0  0
  7 15  2  0  0  0  0
  7  4  1  0  0  0  0
  8  6  1  0  0  0  0
  9  8  1  0  0  0  0
 10  8  2  0  0  0  0
 10 13  1  0  0  0  0
 11 10  1  0  0  0  0
 12 19  2  0  0  0  0
 13 27  1  0  0  0  0
 13  1  2  0  0  0  0
 14 23  1  6  0  0  0
 14 21  1  0  0  0  0
 14  5  1  0  0  0  0
 15 16  1  0  0  0  0
 17 18  1  0  0  0  0
 17  4  1  0  0  0  0
 19 20  1  0  0  0  0
 19 15  1  0  0  0  0
 21 17  2  0  0  0  0
 22 21  1  0  0  0  0
 23 25  1  0  0  0  0
 24 23  1  0  0  0  0
 26 23  1  0  0  0  0
 27 28  1  0  0  0  0
 27 29  1  0  0  0  0
 30 27  1  0  0  0  0
M  END
