6,7
q = 0.0, confidence = 1.0

 43 44  0  0  1  0  0  0  0  0999 V2000
   -1.3136   -0.0002    2.1128 Si  0  0  0  0  0  0  0  0  0  0  0  0
   -1.2521   -1.1909   -0.5535 N   0  0  0  0  0  0  0  0  0  0  0  0
   -1.2519    1.1913   -0.5532 N   0  0  0  0  0  0  0  0  0  0  0  0
   -0.4613    1.5966    2.6099 C   0  0  0  0  0  0  0  0  0  0  0  0
   -2.0143    2.1882   -1.1047 C   0  0  1  0  0  3  0  0  0  0  0  0
    0.0738    1.4061   -0.7710 N   0  0  0  0  0  2  0  0  0  0  0  0
    0.0736   -1.4060   -0.7712 N   0  0  0  0  0  2  0  0  0  0  0  0
    1.4950   -3.0647   -1.9689 C   0  0  0  0  0  0  0  0  0  0  0  0
   -3.5041   -2.2174   -1.0123 C   0  0  0  0  0  0  0  0  0  0  0  0
    0.1838    2.5440   -1.4879 C   0  0  0  0  0  0  0  0  0  0  0  0
   -2.0146   -2.1877   -1.1050 C   0  0  2  0  0  3  0  0  0  0  0  0
    0.1835   -2.5439   -1.4881 C   0  0  0  0  0  0  0  0  0  0  0  0
    1.4954    3.0646   -1.9687 C   0  0  0  0  0  0  0  0  0  0  0  0
   -1.6839    0.0001    0.1622 C   0  0  2  0  0  0  0  0  0  0  0  0
   -1.1152   -3.0715   -1.7020 C   0  0  0  0  0  0  0  0  0  0  0  0
   -3.5038    2.2182   -1.0118 C   0  0  0  0  0  0  0  0  0  0  0  0
   -1.1147    3.0718   -1.7017 C   0  0  0  0  0  0  0  0  0  0  0  0
   -3.0806    0.0002    2.8165 C   0  0  0  0  0  0  0  0  0  0  0  0
   -0.4620   -1.5976    2.6094 C   0  0  0  0  0  0  0  0  0  0  0  0
   -1.3644    3.9932   -2.2375 H   0  0  0  0  0  0  0  0  0  0  0  0
   -3.8590   -2.2588    0.0388 H   0  0  0  0  0  0  0  0  0  0  0  0
   -0.4509   -1.6694    3.7170 H   0  0  0  0  0  0  0  0  0  0  0  0
   -0.4511    1.6685    3.7176 H   0  0  0  0  0  0  0  0  0  0  0  0
   -1.0191   -2.4749    2.2199 H   0  0  0  0  0  0  0  0  0  0  0  0
    0.5830   -1.6559    2.2404 H   0  0  0  0  0  0  0  0  0  0  0  0
   -1.3650   -3.9928   -2.2379 H   0  0  0  0  0  0  0  0  0  0  0  0
   -3.9712   -1.3295   -1.4896 H   0  0  0  0  0  0  0  0  0  0  0  0
    1.3704   -4.0657   -2.4208 H   0  0  0  0  0  0  0  0  0  0  0  0
    0.5841    1.6542    2.2418 H   0  0  0  0  0  0  0  0  0  0  0  0
   -3.6508   -0.8988    2.5004 H   0  0  0  0  0  0  0  0  0  0  0  0
   -3.8902   -3.1138   -1.5308 H   0  0  0  0  0  0  0  0  0  0  0  0
   -3.0558    0.0003    3.9258 H   0  0  0  0  0  0  0  0  0  0  0  0
   -1.0175    2.4742    2.2198 H   0  0  0  0  0  0  0  0  0  0  0  0
   -2.7872    0.0002    0.1001 H   0  0  0  0  0  0  0  0  0  0  0  0
   -3.8586    2.2598    0.0393 H   0  0  0  0  0  0  0  0  0  0  0  0
    1.3707    4.0650   -2.4220 H   0  0  0  0  0  0  0  0  0  0  0  0
    1.9310    2.3837   -2.7289 H   0  0  0  0  0  0  0  0  0  0  0  0
    2.2163   -3.1053   -1.1280 H   0  0  0  0  0  0  0  0  0  0  0  0
   -3.9711    1.3304   -1.4890 H   0  0  0  0  0  0  0  0  0  0  0  0
   -3.6503    0.8996    2.5004 H   0  0  0  0  0  0  0  0  0  0  0  0
    1.9298   -2.3847   -2.7303 H   0  0  0  0  0  0  0  0  0  0  0  0
    2.2162    3.1065   -1.1274 H   0  0  0  0  0  0  0  0  0  0  0  0
   -3.8897    3.1146   -1.5303 H   0  0  0  0  0  0  0  0  0  0  0  0
  1 19  1  0  0  0  0
  1  4  1  0  0  0  0
  1 18  1  0  0  0  0
  2 14  1  0  0  0  0
  3 14  1  0  0  0  0
  4 23  1  0  0  0  0
  5 16  1  1  0  0  0
  5  3  1  0  0  0  0
  6  3  1  0  0  0  0
  7  2  1  0  0  0  0
  8 12  1  0  0  0  0
  8 38  1  0  0  0  0
  9 21  1  0  0  0  0
 10  6  1  0  0  0  0
 11  9  1  1  0  0  0
 11  2  1  0  0  0  0
 12  7  1  0  0  0  0
 13 10  1  0  0  0  0
 13 42  1  0  0  0  0
 14 34  1  6  0  0  0
 14  1  1  0  0  0  0
 15 12  2  0  0  0  0
 15 11  1  0  0  0  0
 16 35  1  0  0  0  0
 17 10  2  0  0  0  0
 17  5  1  0  0  0  0
 18 32  1  0  0  0  0
 19 22  1  0  0  0  0
 20 17  1  0  0  0  0
 24 19  1  0  0  0  0
 25 19  1  0  0  0  0
 26 15  1  0  0  0  0
 27  9  1  0  0  0  0
 28  8  1  0  0  0  0
 29  4  1  0  0  0  0
 30 18  1  0  0  0  0
 31  9  1  0  0  0  0
 33  4  1  0  0  0  0
 36 13  1  0  0  0  0
 37 13  1  0  0  0  0
 39 16  1  0  0  0  0
 40 18  1  0  0  0  0
 41  8  1  0  0  0  0
 43 16  1  0  0  0  0
M  END
