6,7
q = 0.0, confidence = 0.996

 39 41  0  0  1  0  0  0  0  0999 V2000
    6.2643    1.7721    0.0759 O   0  0  0  0  0  0  0  0  0  0  0  0
    5.3235    2.0995    0.0589 H   0  0  0  0  0  0  0  0  0  0  0  0
   -4.1790    1.2633    1.5615 O   0  0  0  0  0  0  0  0  0  0  0  0
   -3.2062    1.1231    1.7573 H   0  0  0  0  0  0  0  0  0  0  0  0
    3.8102    0.8907   -0.1653 N   0  0  0  0  0  0  0  0  0  0  0  0
    0.2387    1.3972   -0.3384 N   0  0  0  0  0  2  0  0  0  0  0  0
   -2.3258    0.6953   -0.5402 N   0  0  0  0  0  2  0  0  0  0  0  0
    2.5484    0.6551   -0.3441 C   0  0  0  0  0  0  0  0  0  0  0  0
    2.1440   -0.3562   -0.5402 H   0  0  0  0  0  0  0  0  0  0  0  0
   -2.0700    1.9742   -0.5650 C   0  0  0  0  0  3  0  0  0  0  0  0
   -2.8747    2.7200   -0.6907 H   0  0  0  0  0  0  0  0  0  0  0  0
    4.7900   -0.0889   -0.1644 C   0  0  0  0  0  0  0  0  0  0  0  0
    6.1158    0.4455   -0.0330 C   0  0  0  0  0  0  0  0  0  0  0  0
    7.2280   -0.4184   -0.0210 C   0  0  0  0  0  0  0  0  0  0  0  0
    8.2345    0.0120    0.0767 H   0  0  0  0  0  0  0  0  0  0  0  0
    7.0221   -1.7963   -0.1265 C   0  0  0  0  0  0  0  0  0  0  0  0
    7.8907   -2.4721   -0.1133 H   0  0  0  0  0  0  0  0  0  0  0  0
    5.7202   -2.3373   -0.2388 C   0  0  0  0  0  0  0  0  0  0  0  0
    5.5810   -3.4260   -0.3031 H   0  0  0  0  0  0  0  0  0  0  0  0
    4.6122   -1.4917   -0.2574 C   0  0  0  0  0  0  0  0  0  0  0  0
    3.6001   -1.9158   -0.3189 H   0  0  0  0  0  0  0  0  0  0  0  0
    1.5598    1.7330   -0.3392 C   0  0  1  0  0  3  0  0  0  0  0  0
    1.9698    3.0870   -0.3718 C   0  0  0  0  0  0  0  0  0  0  0  0
    3.0478    3.2929   -0.3478 H   0  0  0  0  0  0  0  0  0  0  0  0
    1.0237    4.1075   -0.4547 C   0  0  0  0  0  0  0  0  0  0  0  0
    1.3354    5.1616   -0.4838 H   0  0  0  0  0  0  0  0  0  0  0  0
   -0.3315    3.7585   -0.5221 C   0  0  0  0  0  0  0  0  0  0  0  0
   -1.1199    4.5183   -0.6168 H   0  0  0  0  0  0  0  0  0  0  0  0
   -0.6873    2.4010   -0.4588 C   0  0  0  0  0  0  0  0  0  0  0  0
   -3.6818    0.2516   -0.6008 C   0  0  0  0  0  0  0  0  0  0  0  0
   -4.5648    0.5782    0.4668 C   0  0  0  0  0  0  0  0  0  0  0  0
   -5.9080    0.1588    0.3587 C   0  0  0  0  0  0  0  0  0  0  0  0
   -6.5876    0.4175    1.1835 H   0  0  0  0  0  0  0  0  0  0  0  0
   -6.3428   -0.5855   -0.7431 C   0  0  0  0  0  0  0  0  0  0  0  0
   -7.3942   -0.9059   -0.7963 H   0  0  0  0  0  0  0  0  0  0  0  0
   -5.4449   -0.9503   -1.7628 C   0  0  0  0  0  0  0  0  0  0  0  0
   -5.7824   -1.5540   -2.6173 H   0  0  0  0  0  0  0  0  0  0  0  0
   -4.1096   -0.5395   -1.6804 C   0  0  0  0  0  0  0  0  0  0  0  0
   -3.3789   -0.8060   -2.4584 H   0  0  0  0  0  0  0  0  0  0  0  0
  2  1  1  0  0  0  0
  3  4  1  0  0  0  0
  5 12  1  0  0  0  0
  8  5  2  0  0  0  0
  9  8  1  0  0  0  0
 10  7  1  0  0  0  0
 10 29  1  0  0  0  0
 11 10  1  0  0  0  0
 12 13  1  0  0  0  0
 13 14  2  0  0  0  0
 13  1  1  0  0  0  0
 14 15  1  0  0  0  0
 16 17  1  0  0  0  0
 16 14  1  0  0  0  0
 18 16  2  0  0  0  0
 19 18  1  0  0  0  0
 20 18  1  0  0  0  0
 20 12  2  0  0  0  0
 21 20  1  0  0  0  0
 22  8  1  6  0  0  0
 22  6  1  0  0  0  0
 23 24  1  0  0  0  0
 23 22  1  0  0  0  0
 25 23  2  0  0  0  0
 26 25  1  0  0  0  0
 27 29  2  0  0  0  0
 27 25  1  0  0  0  0
 28 27  1  0  0  0  0
 29  6  1  0  0  0  0
 30  7  1  0  0  0  0
 30 31  1  0  0  0  0
 31  3  1  0  0  0  0
 32 31  2  0  0  0  0
 32 33  1  0  0  0  0
 34 32  1  0  0  0  0
 35 34  1  0  0  0  0
 36 38  1  0  0  0  0
 36 34  2  0  0  0  0
 37 36  1  0  0  0  0
 38 30  2  0  0  0  0
 39 38  1  0  0  0  0
M  END
