2,3
q = 0.0, confidence = 0.996

 27 28  0  0  0  0  0  0  0  0999 V2000
   -1.3670    1.0139   -0.6218 O   0  0  0  0  0  0  0  0  0  0  0  0
    2.6935   -0.2754   -0.1228 N   0  0  0  0  0  2  0  0  0  0  0  0
    0.2106   -1.0708   -0.3646 N   0  0  0  0  0  2  0  0  0  0  0  0
   -1.1089   -1.2438   -0.3503 N   0  0  0  0  0  0  0  0  0  0  0  0
   -1.5233   -2.1150    0.0082 H   0  0  0  0  0  0  0  0  0  0  0  0
   -6.1452   -0.5109    0.0437 N   0  0  0  0  0  0  0  0  0  0  0  0
    3.9416    0.2028   -0.1316 C   0  0  0  0  0  3  0  0  0  0  0  0
    4.0148    1.3032   -0.1936 H   0  0  0  0  0  0  0  0  0  0  0  0
    5.0606   -0.6461   -0.0785 C   0  0  0  0  0  0  0  0  0  0  0  0
    6.0748   -0.2218   -0.0802 H   0  0  0  0  0  0  0  0  0  0  0  0
    4.8509   -2.0318   -0.0179 C   0  0  0  0  0  0  0  0  0  0  0  0
    5.7044   -2.7244    0.0313 H   0  0  0  0  0  0  0  0  0  0  0  0
    3.5398   -2.5293   -0.0290 C   0  0  0  0  0  0  0  0  0  0  0  0
    3.3393   -3.6106    0.0016 H   0  0  0  0  0  0  0  0  0  0  0  0
    2.4755   -1.6111   -0.0936 C   0  0  0  0  0  0  0  0  0  0  0  0
    1.0661   -2.0144   -0.1387 C   0  0  0  0  0  3  0  0  0  0  0  0
    0.7815   -3.0686    0.0512 H   0  0  0  0  0  0  0  0  0  0  0  0
   -1.8873   -0.0824   -0.4414 C   0  0  0  0  0  0  0  0  0  0  0  0
   -3.3562   -0.2789   -0.2867 C   0  0  0  0  0  0  0  0  0  0  0  0
   -4.0261   -1.4716   -0.6216 C   0  0  0  0  0  0  0  0  0  0  0  0
   -3.4954   -2.3345   -1.0533 H   0  0  0  0  0  0  0  0  0  0  0  0
   -5.4173   -1.5286   -0.4390 C   0  0  0  0  0  0  0  0  0  0  0  0
   -5.9699   -2.4477   -0.7040 H   0  0  0  0  0  0  0  0  0  0  0  0
   -5.4984    0.6257    0.3541 C   0  0  0  0  0  0  0  0  0  0  0  0
   -6.1180    1.4505    0.7479 H   0  0  0  0  0  0  0  0  0  0  0  0
   -4.1154    0.7998    0.2029 C   0  0  0  0  0  0  0  0  0  0  0  0
   -3.6130    1.7426    0.4632 H   0  0  0  0  0  0  0  0  0  0  0  0
  1 18  2  0  0  0  0
  2 15  1  0  0  0  0
  3  4  1  0  0  0  0
  3 16  1  0  0  0  0
  4  5  1  0  0  0  0
  6 24  1  0  0  0  0
  7  2  1  0  0  0  0
  7  9  1  0  0  0  0
  8  7  1  0  0  0  0
  9 11  2  0  0  0  0
 10  9  1  0  0  0  0
 11 12  1  0  0  0  0
 13 11  1  0  0  0  0
 13 14  1  0  0  0  0
 15 13  2  0  0  0  0
 16 15  1  0  0  0  0
 16 17  1  0  0  0  0
 18  4  1  0  0  0  0
 18 19  1  0  0  0  0
 19 26  1  0  0  0  0
 20 22  1  0  0  0  0
 20 19  2  0  0  0  0
 21 20  1  0  0  0  0
 22  6  2  0  0  0  0
 23 22  1  0  0  0  0
 24 25  1  0  0  0  0
 26 24  2  0  0  0  0
 26 27  1  0  0  0  0
M  END
