2,3
q = 0.0, confidence = 0.978

 37 39  0  0  0  0  0  0  0  0999 V2000
   -8.7998   -0.1545    0.7663 Cl  0  0  0  0  0  0  0  0  0  0  0  0
    3.4624    1.0149   -0.1170 N   0  0  0  0  0  2  0  0  0  0  0  0
    1.0760    1.5423    0.7371 N   0  0  0  0  0  2  0  0  0  0  0  0
   -2.4538    2.1882   -0.2487 N   0  0  0  0  0  0  0  0  0  0  0  0
   -2.9902    2.7959    0.3697 H   0  0  0  0  0  0  0  0  0  0  0  0
   -4.4444   -1.3068   -1.6214 N   0  0  0  0  0  0  0  0  0  0  0  0
    4.6427    0.6856   -0.6807 C   0  0  0  0  0  3  0  0  0  0  0  0
    4.7442   -0.3521   -1.0263 H   0  0  0  0  0  0  0  0  0  0  0  0
    5.6763    1.6156   -0.8326 C   0  0  0  0  0  0  0  0  0  0  0  0
    6.6242    1.2967   -1.2881 H   0  0  0  0  0  0  0  0  0  0  0  0
    5.4790    2.9409   -0.4080 C   0  0  0  0  0  0  0  0  0  0  0  0
    6.2772    3.6891   -0.5173 H   0  0  0  0  0  0  0  0  0  0  0  0
    4.2420    3.2961    0.1366 C   0  0  0  0  0  0  0  0  0  0  0  0
    4.0294    4.3274    0.4527 H   0  0  0  0  0  0  0  0  0  0  0  0
    3.2417    2.3142    0.2635 C   0  0  0  0  0  0  0  0  0  0  0  0
    1.9009    2.5588    0.7367 C   0  0  0  0  0  3  0  0  0  0  0  0
    1.5817    3.5672    1.0532 H   0  0  0  0  0  0  0  0  0  0  0  0
   -0.3356    1.7618    0.9924 C   0  0  0  0  0  0  0  0  0  0  0  0
   -0.4701    2.4337    1.8673 H   0  0  0  0  0  0  0  0  0  0  0  0
   -0.8105    0.7913    1.2148 H   0  0  0  0  0  0  0  0  0  0  0  0
   -1.0352    2.3726   -0.2712 C   0  0  0  0  0  0  0  0  0  0  0  0
   -0.7953    3.4543   -0.3303 H   0  0  0  0  0  0  0  0  0  0  0  0
   -0.5917    1.8991   -1.1685 H   0  0  0  0  0  0  0  0  0  0  0  0
   -3.0901    1.0438   -0.6870 C   0  0  0  0  0  0  0  0  0  0  0  0
   -2.4550    0.0938   -1.5022 C   0  0  0  0  0  0  0  0  0  0  0  0
   -1.4130    0.2142   -1.8328 H   0  0  0  0  0  0  0  0  0  0  0  0
   -3.1883   -1.0356   -1.9407 C   0  0  0  0  0  0  0  0  0  0  0  0
   -2.6869   -1.7590   -2.6111 H   0  0  0  0  0  0  0  0  0  0  0  0
   -5.0861   -0.4056   -0.8188 C   0  0  0  0  0  0  0  0  0  0  0  0
   -6.4383   -0.6859   -0.4684 C   0  0  0  0  0  0  0  0  0  0  0  0
   -6.8888   -1.6062   -0.8627 H   0  0  0  0  0  0  0  0  0  0  0  0
   -7.1501    0.1882    0.3402 C   0  0  0  0  0  0  0  0  0  0  0  0
   -6.5502    1.3772    0.8351 C   0  0  0  0  0  0  0  0  0  0  0  0
   -7.1375    2.0536    1.4711 H   0  0  0  0  0  0  0  0  0  0  0  0
   -5.2344    1.6666    0.5056 C   0  0  0  0  0  0  0  0  0  0  0  0
   -4.8063    2.6000    0.9050 H   0  0  0  0  0  0  0  0  0  0  0  0
   -4.4658    0.7991   -0.3196 C   0  0  0  0  0  0  0  0  0  0  0  0
  2 15  1  0  0  0  0
  3 18  1  0  0  0  0
  4  5  1  0  0  0  0
  6 29  1  0  0  0  0
  7  2  1  0  0  0  0
  8  7  1  0  0  0  0
  9  7  1  0  0  0  0
  9 11  2  0  0  0  0
 10  9  1  0  0  0  0
 11 13  1  0  0  0  0
 12 11  1  0  0  0  0
 13 15  2  0  0  0  0
 13 14  1  0  0  0  0
 15 16  1  0  0  0  0
 16  3  1  0  0  0  0
 16 17  1  0  0  0  0
 18 20  1  0  0  0  0
 18 19  1  0  0  0  0
 21  4  1  0  0  0  0
 21 18  1  0  0  0  0
 22 21  1  0  0  0  0
 23 21  1  0  0  0  0
 24 37  1  0  0  0  0
 24  4  1  0  0  0  0
 25 24  2  0  0  0  0
 26 25  1  0  0  0  0
 27  6  2  0  0  0  0
 27 25  1  0  0  0  0
 28 27  1  0  0  0  0
 29 30  2  0  0  0  0
 29 37  1  0  0  0  0
 30 32  1  0  0  0  0
 31 30  1  0  0  0  0
 32  1  1  0  0  0  0
 32 33  2  0  0  0  0
 33 34  1  0  0  0  0
 35 33  1  0  0  0  0
 35 36  1  0  0  0  0
 37 35  2  0  0  0  0
M  END
