2,3
q = -1.0, confidence = 0.0

 46 48  0  0  1  0  0  0  0  0999 V2000
    3.7494    1.5823    0.0042 O   0  0  0  0  0  0  0  0  0  0  0  0
    2.2227   -0.0549   -0.1218 N   0  0  0  0  0  2  0  0  0  0  0  0
   -0.4746    0.7626    0.0444 N   0  0  0  0  0  2  0  0  0  0  0  0
    0.0435    2.0144    0.0689 C   0  0  1  0  0  3  0  0  0  0  0  0
   -0.8294    3.1572    0.1142 C   0  0  0  0  0  0  0  0  0  0  0  0
   -1.9128    2.9767    0.1147 H   0  0  0  0  0  0  0  0  0  0  0  0
   -0.3367    4.4521    0.1677 C   0  0  0  0  0  0  0  0  0  0  0  0
   -1.0505    5.2901    0.2074 H   0  0  0  0  0  0  0  0  0  0  0  0
    1.0558    4.7120    0.1731 C   0  0  0  0  0  0  0  0  0  0  0  0
    1.4361    5.7423    0.2151 H   0  0  0  0  0  0  0  0  0  0  0  0
    1.9295    3.6360    0.1180 C   0  0  0  0  0  0  0  0  0  0  0  0
    3.0161    3.7983    0.1110 H   0  0  0  0  0  0  0  0  0  0  0  0
    1.4626    2.2927    0.0628 C   0  0  0  0  0  0  0  0  0  0  0  0
   -1.8765    0.5542   -0.0089 C   0  0  0  0  0  0  0  0  0  0  0  0
   -2.6003    0.3598    1.1957 C   0  0  0  0  0  0  0  0  0  0  0  0
   -3.9865    0.1503    1.1182 C   0  0  0  0  0  0  0  0  0  0  0  0
   -4.5540    0.0064    2.0523 H   0  0  0  0  0  0  0  0  0  0  0  0
   -4.6672    0.1161   -0.1137 C   0  0  0  0  0  0  0  0  0  0  0  0
   -3.9198    0.2993   -1.2929 C   0  0  0  0  0  0  0  0  0  0  0  0
   -4.4343    0.2727   -2.2675 H   0  0  0  0  0  0  0  0  0  0  0  0
   -2.5323    0.5137   -1.2668 C   0  0  0  0  0  0  0  0  0  0  0  0
   -1.7389    0.6919   -2.5327 C   0  0  0  0  0  0  0  0  0  0  0  0
   -2.3857    0.6198   -3.4276 H   0  0  0  0  0  0  0  0  0  0  0  0
   -0.9435   -0.0801   -2.6066 H   0  0  0  0  0  0  0  0  0  0  0  0
   -1.2218    1.6740   -2.5533 H   0  0  0  0  0  0  0  0  0  0  0  0
   -6.1505   -0.1503   -0.1709 C   0  0  0  0  0  0  0  0  0  0  0  0
   -6.6166    0.3166   -1.0611 H   0  0  0  0  0  0  0  0  0  0  0  0
   -6.6698    0.2293    0.7314 H   0  0  0  0  0  0  0  0  0  0  0  0
   -6.3568   -1.2412   -0.2298 H   0  0  0  0  0  0  0  0  0  0  0  0
   -1.8783    0.3733    2.5152 C   0  0  0  0  0  0  0  0  0  0  0  0
   -1.1304   -0.4472    2.5560 H   0  0  0  0  0  0  0  0  0  0  0  0
   -2.5813    0.2500    3.3608 H   0  0  0  0  0  0  0  0  0  0  0  0
   -1.3145    1.3179    2.6607 H   0  0  0  0  0  0  0  0  0  0  0  0
    2.4358    1.2402   -0.0196 C   0  0  0  0  0  0  0  0  0  0  0  0
    4.5104    0.3934   -0.2806 C   0  0  0  0  0  0  0  0  0  0  0  0
    5.3703    0.3537    0.4159 H   0  0  0  0  0  0  0  0  0  0  0  0
    4.8888    0.4636   -1.3234 H   0  0  0  0  0  0  0  0  0  0  0  0
    3.5195   -0.7881   -0.1032 C   0  0  0  0  0  0  0  0  0  0  0  0
    3.6154   -1.7838   -1.2632 C   0  0  0  0  0  0  0  0  0  0  0  0
    2.8793   -2.5991   -1.1351 H   0  0  0  0  0  0  0  0  0  0  0  0
    4.6309   -2.2291   -1.2964 H   0  0  0  0  0  0  0  0  0  0  0  0
    3.4222   -1.2762   -2.2288 H   0  0  0  0  0  0  0  0  0  0  0  0
    3.6889   -1.4887    1.2540 C   0  0  0  0  0  0  0  0  0  0  0  0
    2.8889   -2.2411    1.3931 H   0  0  0  0  0  0  0  0  0  0  0  0
    3.6361   -0.7548    2.0829 H   0  0  0  0  0  0  0  0  0  0  0  0
    4.6697   -2.0046    1.3006 H   0  0  0  0  0  0  0  0  0  0  0  0
  2 38  1  0  0  0  0
  2 34  1  0  0  0  0
  4  3  1  1  0  0  0
  4  5  1  0  0  0  0
  5  6  1  0  0  0  0
  5  7  2  0  0  0  0
  7  9  1  0  0  0  0
  7  8  1  0  0  0  0
  9 10  1  0  0  0  0
 11  9  2  0  0  0  0
 12 11  1  0  0  0  0
 13  4  1  0  0  0  0
 13 11  1  0  0  0  0
 14  3  1  0  0  0  0
 14 15  1  0  0  0  0
 15 30  1  0  0  0  0
 16 15  2  0  0  0  0
 16 17  1  0  0  0  0
 18 16  1  0  0  0  0
 19 21  1  0  0  0  0
 19 18  2  0  0  0  0
 20 19  1  0  0  0  0
 21 14  2  0  0  0  0
 22 21  1  0  0  0  0
 23 22  1  0  0  0  0
 24 22  1  0  0  0  0
 25 22  1  0  0  0  0
 26 18  1  0  0  0  0
 26 28  1  0  0  0  0
 27 26  1  0  0  0  0
 29 26  1  0  0  0  0
 30 31  1  0  0  0  0
 30 33  1  0  0  0  0
 30 32  1  0  0  0  0
 34  1  1  0  0  0  0
 34 13  2  0  0  0  0
 35 38  1  0  0  0  0
 35  1  1  0  0  0  0
 35 36  1  0  0  0  0
 37 35  1  0  0  0  0
 38 43  1  0  0  0  0
 39 40  1  0  0  0  0
 39 38  1  0  0  0  0
 41 39  1  0  0  0  0
 42 39  1  0  0  0  0
 43 46  1  0  0  0  0
 43 44  1  0  0  0  0
 43 45  1  0  0  0  0
M  END
