2,3
q = -1.0

 55 57  0  0  0  0  0  0  0  0999 V2000
    3.5518    2.0629   -0.1069 O   0  0  0  0  0  0  0  0  0  0  0  0
    2.2811    0.2252    0.0820 N   0  0  0  0  0  2  0  0  0  0  0  0
   -0.5042    0.6443   -0.0207 N   0  0  0  0  0  2  0  0  0  0  0  0
   -0.1762    1.9583   -0.0819 C   0  0  0  0  0  0  0  0  0  0  0  0
   -1.2062    2.9613   -0.1218 C   0  0  0  0  0  0  0  0  0  0  0  0
   -2.2519    2.6281   -0.0892 H   0  0  0  0  0  0  0  0  0  0  0  0
   -0.9069    4.3128   -0.2067 C   0  0  0  0  0  0  0  0  0  0  0  0
   -1.7348    5.0386   -0.2396 H   0  0  0  0  0  0  0  0  0  0  0  0
    0.4328    4.7699   -0.2506 C   0  0  0  0  0  0  0  0  0  0  0  0
    0.6594    5.8432   -0.3173 H   0  0  0  0  0  0  0  0  0  0  0  0
    1.4540    3.8322   -0.2010 C   0  0  0  0  0  3  0  0  0  0  0  0
    2.5057    4.1496   -0.2232 H   0  0  0  0  0  0  0  0  0  0  0  0
    1.1871    2.4371   -0.1147 C   0  0  0  0  0  0  0  0  0  0  0  0
   -1.8640    0.2369    0.0344 C   0  0  0  0  0  0  0  0  0  0  0  0
   -2.5553   -0.0519   -1.1747 C   0  0  0  0  0  0  0  0  0  0  0  0
   -3.8982   -0.4601   -1.0944 C   0  0  0  0  0  0  0  0  0  0  0  0
   -4.4499   -0.6857   -2.0204 H   0  0  0  0  0  0  0  0  0  0  0  0
   -4.5417   -0.5896    0.1431 C   0  0  0  0  0  0  0  0  0  0  0  0
   -5.5933   -0.9124    0.1858 H   0  0  0  0  0  0  0  0  0  0  0  0
   -3.8443   -0.3163    1.3273 C   0  0  0  0  0  0  0  0  0  0  0  0
   -4.3538   -0.4307    2.2968 H   0  0  0  0  0  0  0  0  0  0  0  0
   -2.5015    0.0987    1.2988 C   0  0  0  0  0  0  0  0  0  0  0  0
   -1.8621    0.0622   -2.5245 C   0  0  0  0  0  0  0  0  0  0  0  0
   -0.8222    0.3904   -2.3242 H   0  0  0  0  0  0  0  0  0  0  0  0
   -2.5236    1.1244   -3.4174 C   0  0  0  0  0  0  0  0  0  0  0  0
   -1.9725    1.2292   -4.3748 H   0  0  0  0  0  0  0  0  0  0  0  0
   -2.5347    2.1147   -2.9195 H   0  0  0  0  0  0  0  0  0  0  0  0
   -3.5723    0.8552   -3.6635 H   0  0  0  0  0  0  0  0  0  0  0  0
   -1.7816   -1.3069   -3.2209 C   0  0  0  0  0  0  0  0  0  0  0  0
   -1.2078   -1.2319   -4.1677 H   0  0  0  0  0  0  0  0  0  0  0  0
   -2.7908   -1.6969   -3.4696 H   0  0  0  0  0  0  0  0  0  0  0  0
   -1.2853   -2.0485   -2.5641 H   0  0  0  0  0  0  0  0  0  0  0  0
   -1.7435    0.3576    2.5928 C   0  0  0  0  0  0  0  0  0  0  0  0
   -0.7554    0.7733    2.3109 H   0  0  0  0  0  0  0  0  0  0  0  0
   -1.4839   -0.9640    3.3373 C   0  0  0  0  0  0  0  0  0  0  0  0
   -0.9424   -1.6790    2.6857 H   0  0  0  0  0  0  0  0  0  0  0  0
   -2.4349   -1.4445    3.6486 H   0  0  0  0  0  0  0  0  0  0  0  0
   -0.8758   -0.7903    4.2492 H   0  0  0  0  0  0  0  0  0  0  0  0
   -2.4469    1.3921    3.4843 C   0  0  0  0  0  0  0  0  0  0  0  0
   -1.8389    1.6053    4.3874 H   0  0  0  0  0  0  0  0  0  0  0  0
   -3.4385    1.0327    3.8308 H   0  0  0  0  0  0  0  0  0  0  0  0
   -2.6015    2.3470    2.9430 H   0  0  0  0  0  0  0  0  0  0  0  0
    2.3030    1.5358   -0.0437 C   0  0  0  0  0  0  0  0  0  0  0  0
    4.4840    1.0016    0.1740 C   0  0  0  0  0  0  0  0  0  0  0  0
    4.8752    1.1458    1.2042 H   0  0  0  0  0  0  0  0  0  0  0  0
    5.3220    1.0731   -0.5463 H   0  0  0  0  0  0  0  0  0  0  0  0
    3.6699   -0.3136    0.0428 C   0  0  0  0  0  0  0  0  0  0  0  0
    3.9076   -1.0102   -1.3060 C   0  0  0  0  0  0  0  0  0  0  0  0
    3.2234   -1.8739   -1.4113 H   0  0  0  0  0  0  0  0  0  0  0  0
    4.9518   -1.3784   -1.3696 H   0  0  0  0  0  0  0  0  0  0  0  0
    3.7282   -0.3092   -2.1456 H   0  0  0  0  0  0  0  0  0  0  0  0
    3.9367   -1.2592    1.2179 C   0  0  0  0  0  0  0  0  0  0  0  0
    3.3275   -2.1771    1.1235 H   0  0  0  0  0  0  0  0  0  0  0  0
    3.6913   -0.7648    2.1785 H   0  0  0  0  0  0  0  0  0  0  0  0
    5.0076   -1.5483    1.2342 H   0  0  0  0  0  0  0  0  0  0  0  0
  1 43  1  0  0  0  0
  1 44  1  0  0  0  0
  3 14  1  0  0  0  0
  4  3  1  0  0  0  0
  5  6  1  0  0  0  0
  5  4  2  0  0  0  0
  7  5  1  0  0  0  0
  8  7  1  0  0  0  0
  9  7  2  0  0  0  0
  9 11  1  0  0  0  0
 10  9  1  0  0  0  0
 11 13  1  0  0  0  0
 12 11  1  0  0  0  0
 13  4  1  0  0  0  0
 13 43  2  0  0  0  0
 14 22  1  0  0  0  0
 15 16  1  0  0  0  0
 15 14  2  0  0  0  0
 16 18  2  0  0  0  0
 17 16  1  0  0  0  0
 18 19  1  0  0  0  0
 18 20  1  0  0  0  0
 20 21  1  0  0  0  0
 22 20  2  0  0  0  0
 22 33  1  0  0  0  0
 23 24  1  0  0  0  0
 23 15  1  0  0  0  0
 25 27  1  0  0  0  0
 25 23  1  0  0  0  0
 26 25  1  0  0  0  0
 28 25  1  0  0  0  0
 29 32  1  0  0  0  0
 29 23  1  0  0  0  0
 30 29  1  0  0  0  0
 31 29  1  0  0  0  0
 33 35  1  0  0  0  0
 33 39  1  0  0  0  0
 34 33  1  0  0  0  0
 35 37  1  0  0  0  0
 35 38  1  0  0  0  0
 36 35  1  0  0  0  0
 39 41  1  0  0  0  0
 39 40  1  0  0  0  0
 42 39  1  0  0  0  0
 43  2  1  0  0  0  0
 44 45  1  0  0  0  0
 46 44  1  0  0  0  0
 47  2  1  0  0  0  0
 47 44  1  0  0  0  0
 47 52  1  0  0  0  0
 48 47  1  0  0  0  0
 49 48  1  0  0  0  0
 50 48  1  0  0  0  0
 51 48  1  0  0  0  0
 52 55  1  0  0  0  0
 52 54  1  0  0  0  0
 53 52  1  0  0  0  0
M  END
