3,4
q = -1.0, confidence = 0.0

 41 43  0  0  0  0  0  0  0  0999 V2000
   -3.1651    1.7223    0.6047 O   0  0  0  0  0  0  0  0  0  0  0  0
    1.8412   -1.7174   -0.5042 O   0  0  0  0  0  0  0  0  0  0  0  0
   -1.8300   -0.0458    0.2501 N   0  0  0  0  0  2  0  0  0  0  0  0
    0.9152    0.7111    0.0416 N   0  0  0  0  0  2  0  0  0  0  0  0
    0.4330    1.9567   -0.2608 C   0  0  0  0  0  0  0  0  0  0  0  0
    1.2815    3.0103   -0.7257 C   0  0  0  0  0  0  0  0  0  0  0  0
    2.3447    2.7929   -0.8901 H   0  0  0  0  0  0  0  0  0  0  0  0
    0.7891    4.2792   -1.0070 C   0  0  0  0  0  0  0  0  0  0  0  0
    1.4818    5.0480   -1.3836 H   0  0  0  0  0  0  0  0  0  0  0  0
   -0.5797    4.5850   -0.8367 C   0  0  0  0  0  0  0  0  0  0  0  0
   -0.9629    5.5927   -1.0505 H   0  0  0  0  0  0  0  0  0  0  0  0
   -1.4394    3.5750   -0.4215 C   0  0  0  0  0  3  0  0  0  0  0  0
   -2.5144    3.7699   -0.3066 H   0  0  0  0  0  0  0  0  0  0  0  0
   -0.9711    2.2608   -0.1565 C   0  0  0  0  0  0  0  0  0  0  0  0
    2.2512    0.4483    0.3537 C   0  0  0  0  0  0  0  0  0  0  0  0
    3.1220    1.3439    1.0199 C   0  0  0  0  0  0  0  0  0  0  0  0
    2.7333    2.3200    1.3399 H   0  0  0  0  0  0  0  0  0  0  0  0
    4.4549    0.9994    1.2839 C   0  0  0  0  0  0  0  0  0  0  0  0
    5.1034    1.7201    1.8040 H   0  0  0  0  0  0  0  0  0  0  0  0
    4.9561   -0.2536    0.9054 C   0  0  0  0  0  0  0  0  0  0  0  0
    6.0016   -0.5261    1.1091 H   0  0  0  0  0  0  0  0  0  0  0  0
    4.1038   -1.1857    0.2852 C   0  0  0  0  0  0  0  0  0  0  0  0
    4.4812   -2.1797    0.0135 H   0  0  0  0  0  0  0  0  0  0  0  0
    2.7730   -0.8390    0.0404 C   0  0  0  0  0  0  0  0  0  0  0  0
    2.2534   -3.0238   -0.9255 C   0  0  0  0  0  0  0  0  0  0  0  0
    2.6677   -3.5890   -0.0657 H   0  0  0  0  0  0  0  0  0  0  0  0
    3.0102   -2.9342   -1.7311 H   0  0  0  0  0  0  0  0  0  0  0  0
    1.3334   -3.5176   -1.2871 H   0  0  0  0  0  0  0  0  0  0  0  0
   -1.9456    1.2665    0.2339 C   0  0  0  0  0  0  0  0  0  0  0  0
   -3.8825    0.5997    1.1547 C   0  0  0  0  0  0  0  0  0  0  0  0
   -4.9402    0.6700    0.8382 H   0  0  0  0  0  0  0  0  0  0  0  0
   -3.8219    0.6636    2.2631 H   0  0  0  0  0  0  0  0  0  0  0  0
   -3.1591   -0.6505    0.6029 C   0  0  0  0  0  0  0  0  0  0  0  0
   -3.0386   -1.7361    1.6716 C   0  0  0  0  0  0  0  0  0  0  0  0
   -2.5124   -2.6190    1.2623 H   0  0  0  0  0  0  0  0  0  0  0  0
   -4.0512   -2.0448    2.0029 H   0  0  0  0  0  0  0  0  0  0  0  0
   -2.4791   -1.3592    2.5506 H   0  0  0  0  0  0  0  0  0  0  0  0
   -3.8391   -1.1597   -0.6766 C   0  0  0  0  0  0  0  0  0  0  0  0
   -3.2299   -1.9618   -1.1336 H   0  0  0  0  0  0  0  0  0  0  0  0
   -3.9610   -0.3351   -1.4076 H   0  0  0  0  0  0  0  0  0  0  0  0
   -4.8420   -1.5645   -0.4312 H   0  0  0  0  0  0  0  0  0  0  0  0
  1 30  1  0  0  0  0
  2 24  1  0  0  0  0
  3 33  1  0  0  0  0
  4 15  1  0  0  0  0
  5 14  1  0  0  0  0
  5  4  1  0  0  0  0
  6  5  2  0  0  0  0
  7  6  1  0  0  0  0
  8 10  2  0  0  0  0
  8  6  1  0  0  0  0
  9  8  1  0  0  0  0
 10 12  1  0  0  0  0
 11 10  1  0  0  0  0
 12 13  1  0  0  0  0
 12 14  1  0  0  0  0
 14 29  2  0  0  0  0
 15 16  1  0  0  0  0
 16 18  2  0  0  0  0
 16 17  1  0  0  0  0
 18 19  1  0  0  0  0
 20 21  1  0  0  0  0
 20 18  1  0  0  0  0
 22 20  2  0  0  0  0
 23 22  1  0  0  0  0
 24 22  1  0  0  0  0
 24 15  2  0  0  0  0
 25  2  1  0  0  0  0
 25 26  1  0  0  0  0
 27 25  1  0  0  0  0
 28 25  1  0  0  0  0
 29  3  1  0  0  0  0
 29  1  1  0  0  0  0
 30 32  1  0  0  0  0
 31 30  1  0  0  0  0
 33 30  1  0  0  0  0
 33 34  1  0  0  0  0
 34 36  1  0  0  0  0
 34 37  1  0  0  0  0
 35 34  1  0  0  0  0
 38 41  1  0  0  0  0
 38 33  1  0  0  0  0
 39 38  1  0  0  0  0
 40 38  1  0  0  0  0
M  END
