2,3
q = 0.0, confidence = 0.998

 24 24  0  0  1  0  0  0  0  0999 V2000
   -1.8114    0.9615   -1.6741 O   0  0  0  0  0  0  0  0  0  0  0  0
    1.8356   -0.8918    0.4083 N   0  0  0  0  0  2  0  0  0  0  0  0
    0.8884    0.9018   -1.2628 N   0  0  0  0  0  2  0  0  0  0  0  0
    0.2756    1.8831   -1.9321 N   0  0  0  0  0  0  0  0  0  0  0  0
    0.8182    2.6685   -2.3149 H   0  0  0  0  0  0  0  0  0  0  0  0
    2.2245   -1.9469    1.1501 C   0  0  0  0  0  3  0  0  0  0  0  0
    1.4433   -2.4262    1.7600 H   0  0  0  0  0  0  0  0  0  0  0  0
    3.5477   -2.3994    1.1674 C   0  0  0  0  0  0  0  0  0  0  0  0
    3.8256   -3.2577    1.7943 H   0  0  0  0  0  0  0  0  0  0  0  0
    4.4943   -1.7216    0.3837 C   0  0  0  0  0  0  0  0  0  0  0  0
    5.5461   -2.0430    0.3737 H   0  0  0  0  0  0  0  0  0  0  0  0
    4.0860   -0.6318   -0.3928 C   0  0  0  0  0  0  0  0  0  0  0  0
    4.8112   -0.1047   -1.0266 H   0  0  0  0  0  0  0  0  0  0  0  0
    2.7355   -0.2279   -0.3756 C   0  0  0  0  0  0  0  0  0  0  0  0
    2.1966    0.8807   -1.1840 C   0  0  2  0  0  3  0  0  0  0  0  0
   -1.1254    1.8802   -2.0866 C   0  0  0  0  0  0  0  0  0  0  0  0
    3.0753    1.9040   -1.8425 C   0  0  0  0  0  0  0  0  0  0  0  0
    2.9103    1.9349   -2.9411 H   0  0  0  0  0  0  0  0  0  0  0  0
    4.1491    1.7224   -1.6701 H   0  0  0  0  0  0  0  0  0  0  0  0
    2.8563    2.9171   -1.4388 H   0  0  0  0  0  0  0  0  0  0  0  0
   -1.6662    3.1120   -2.7749 C   0  0  0  0  0  0  0  0  0  0  0  0
   -2.4244    2.8000   -3.5175 H   0  0  0  0  0  0  0  0  0  0  0  0
   -0.8938    3.7277   -3.2744 H   0  0  0  0  0  0  0  0  0  0  0  0
   -2.1864    3.7393   -2.0222 H   0  0  0  0  0  0  0  0  0  0  0  0
  2  6  1  0  0  0  0
  4  3  1  0  0  0  0
  5  4  1  0  0  0  0
  6  8  1  0  0  0  0
  6  7  1  0  0  0  0
  8  9  1  0  0  0  0
 10  8  2  0  0  0  0
 11 10  1  0  0  0  0
 12 14  2  0  0  0  0
 12 10  1  0  0  0  0
 13 12  1  0  0  0  0
 14  2  1  0  0  0  0
 15  3  1  1  0  0  0
 15 14  1  0  0  0  0
 16  4  1  0  0  0  0
 16  1  2  0  0  0  0
 17 19  1  0  0  0  0
 17 20  1  0  0  0  0
 17 15  1  0  0  0  0
 18 17  1  0  0  0  0
 21 16  1  0  0  0  0
 21 24  1  0  0  0  0
 22 21  1  0  0  0  0
 23 21  1  0  0  0  0
M  END
