1,2
q = -1.0

 37 39  0  0  1  0  0  0  0  0999 V2000
    0.8228    1.2937   -0.0582 N   0  0  0  0  0  2  0  0  0  0  0  0
    3.4096    1.1349   -0.3153 N   0  0  0  0  0  2  0  0  0  0  0  0
    0.9138    3.6176    0.2630 O   0  0  0  0  0  0  0  0  0  0  0  0
    2.9130    2.3881   -0.1657 C   0  0  2  0  0  3  0  0  0  0  0  0
    1.4356    2.5106    0.0656 C   0  0  0  0  0  0  0  0  0  0  0  0
   -0.5816    1.1888   -0.0603 C   0  0  0  0  0  0  0  0  0  0  0  0
    4.7035    0.9652   -0.6633 C   0  0  0  0  0  0  0  0  0  0  0  0
    5.0277   -0.0706   -0.8322 H   0  0  0  0  0  0  0  0  0  0  0  0
   -5.2535   -1.0685   -1.4657 O   0  0  0  0  0  0  0  0  0  0  0  0
   -4.7837    0.6440    0.0405 N   0  0  0  0  0  0  0  0  0  0  0  0
   -5.3125    1.2433    0.6917 H   0  0  0  0  0  0  0  0  0  0  0  0
    3.7288    3.5202   -0.2938 C   0  0  0  0  0  0  0  0  0  0  0  0
    3.2477    4.4984   -0.1503 H   0  0  0  0  0  0  0  0  0  0  0  0
   -1.4033    1.9508    0.8047 C   0  0  0  0  0  0  0  0  0  0  0  0
   -0.9447    2.7023    1.4585 H   0  0  0  0  0  0  0  0  0  0  0  0
   -7.3446    0.8764    0.6955 N   0  0  0  0  0  0  0  0  0  0  0  0
    5.0800    3.3528   -0.6112 C   0  0  0  0  0  0  0  0  0  0  0  0
    5.7444    4.2232   -0.7197 H   0  0  0  0  0  0  0  0  0  0  0  0
    5.5713    2.0507   -0.8123 C   0  0  0  0  0  0  0  0  0  0  0  0
    6.6185    1.8690   -1.0921 H   0  0  0  0  0  0  0  0  0  0  0  0
   -2.7860    1.7527    0.8166 C   0  0  0  0  0  0  0  0  0  0  0  0
   -3.4138    2.3439    1.5029 H   0  0  0  0  0  0  0  0  0  0  0  0
   -3.3957    0.8022   -0.0336 C   0  0  0  0  0  0  0  0  0  0  0  0
   -1.2005    0.2664   -0.9355 C   0  0  0  0  0  0  0  0  0  0  0  0
   -0.5608   -0.2809   -1.6440 H   0  0  0  0  0  0  0  0  0  0  0  0
   -2.5827    0.0643   -0.9269 C   0  0  0  0  0  0  0  0  0  0  0  0
   -3.0578   -0.6547   -1.6056 H   0  0  0  0  0  0  0  0  0  0  0  0
   -5.5990   -0.2279   -0.6312 C   0  0  0  0  0  0  0  0  0  0  0  0
   -7.0504   -0.0572   -0.2309 C   0  0  0  0  0  0  0  0  0  0  0  0
   -9.6721    0.2687    0.5071 C   0  0  0  0  0  0  0  0  0  0  0  0
  -10.7087    0.4363    0.8343 H   0  0  0  0  0  0  0  0  0  0  0  0
   -8.6263    1.0328    1.0531 C   0  0  0  0  0  0  0  0  0  0  0  0
   -8.8353    1.8057    1.8134 H   0  0  0  0  0  0  0  0  0  0  0  0
   -8.0228   -0.8724   -0.8367 C   0  0  0  0  0  0  0  0  0  0  0  0
   -7.6966   -1.6093   -1.5841 H   0  0  0  0  0  0  0  0  0  0  0  0
   -9.3596   -0.7025   -0.4570 C   0  0  0  0  0  0  0  0  0  0  0  0
  -10.1523   -1.3194   -0.9073 H   0  0  0  0  0  0  0  0  0  0  0  0
  1  5  1  0  0  0  0
  2  4  1  0  0  0  0
  4  5  1  6  0  0  0
  5  3  2  0  0  0  0
  6  1  1  0  0  0  0
  6 14  1  0  0  0  0
  7  2  1  0  0  0  0
  8  7  1  0  0  0  0
  9 28  2  0  0  0  0
 10 11  1  0  0  0  0
 12  4  1  0  0  0  0
 12 13  1  0  0  0  0
 14 21  2  0  0  0  0
 14 15  1  0  0  0  0
 16 32  1  0  0  0  0
 17 12  2  0  0  0  0
 18 17  1  0  0  0  0
 19  7  2  0  0  0  0
 19 17  1  0  0  0  0
 20 19  1  0  0  0  0
 21 22  1  0  0  0  0
 23 10  1  0  0  0  0
 23 21  1  0  0  0  0
 24 26  1  0  0  0  0
 24  6  2  0  0  0  0
 25 24  1  0  0  0  0
 26 23  2  0  0  0  0
 27 26  1  0  0  0  0
 28 29  1  0  0  0  0
 28 10  1  0  0  0  0
 29 16  2  0  0  0  0
 30 31  1  0  0  0  0
 30 32  2  0  0  0  0
 32 33  1  0  0  0  0
 34 36  2  0  0  0  0
 34 29  1  0  0  0  0
 35 34  1  0  0  0  0
 36 30  1  0  0  0  0
 37 36  1  0  0  0  0
M  END
