1,2
q = 0.0, confidence = 0.996

 24 25  0  0  0  0  0  0  0  0999 V2000
    2.2885    0.5156   -0.0394 N   0  0  0  0  0  2  0  0  0  0  0  0
   -0.2721    0.8304   -0.4590 N   0  0  0  0  0  2  0  0  0  0  0  0
    1.8495    1.8120   -0.1507 C   0  0  0  0  0  0  0  0  0  0  0  0
    2.7344    2.8981   -0.0245 C   0  0  0  0  0  0  0  0  0  0  0  0
    2.3501    3.9238   -0.1203 H   0  0  0  0  0  0  0  0  0  0  0  0
    4.0885    2.6447    0.2221 C   0  0  0  0  0  0  0  0  0  0  0  0
    4.8011    3.4760    0.3256 H   0  0  0  0  0  0  0  0  0  0  0  0
    4.5193    1.3122    0.3349 C   0  0  0  0  0  0  0  0  0  0  0  0
    5.5735    1.0688    0.5293 H   0  0  0  0  0  0  0  0  0  0  0  0
    3.5914    0.2715    0.1969 C   0  0  0  0  0  0  0  0  0  0  0  0
    3.8506   -0.8001    0.2628 H   0  0  0  0  0  0  0  0  0  0  0  0
    0.4254    1.9367   -0.3836 C   0  0  0  0  0  0  0  0  0  0  0  0
   -0.0602    2.9248   -0.4649 H   0  0  0  0  0  0  0  0  0  0  0  0
   -1.6727    0.8835   -0.6880 C   0  0  0  0  0  0  0  0  0  0  0  0
   -2.5799    0.5183    0.3308 C   0  0  0  0  0  0  0  0  0  0  0  0
   -3.9589    0.5324    0.0793 C   0  0  0  0  0  0  0  0  0  0  0  0
   -4.6530    0.2495    0.8830 H   0  0  0  0  0  0  0  0  0  0  0  0
   -4.4360    0.9023   -1.1867 C   0  0  0  0  0  0  0  0  0  0  0  0
   -5.5193    0.8990   -1.3776 H   0  0  0  0  0  0  0  0  0  0  0  0
   -3.5393    1.2695   -2.2018 C   0  0  0  0  0  0  0  0  0  0  0  0
   -3.9107    1.5531   -3.1973 H   0  0  0  0  0  0  0  0  0  0  0  0
   -2.1615    1.2603   -1.9520 C   0  0  0  0  0  0  0  0  0  0  0  0
   -1.4380    1.5087   -2.7422 H   0  0  0  0  0  0  0  0  0  0  0  0
   -1.9402    0.0701    2.0557 Br  0  0  0  0  0  0  0  0  0  0  0  0
  1 10  1  0  0  0  0
  2 12  1  0  0  0  0
  3  1  1  0  0  0  0
  3  4  1  0  0  0  0
  4  6  2  0  0  0  0
  5  4  1  0  0  0  0
  6  7  1  0  0  0  0
  6  8  1  0  0  0  0
  8  9  1  0  0  0  0
 10 11  1  0  0  0  0
 10  8  2  0  0  0  0
 12  3  2  0  0  0  0
 13 12  1  0  0  0  0
 14  2  1  0  0  0  0
 14 15  1  0  0  0  0
 15 24  1  0  0  0  0
 16 15  2  0  0  0  0
 16 17  1  0  0  0  0
 18 16  1  0  0  0  0
 19 18  1  0  0  0  0
 20 22  1  0  0  0  0
 20 18  2  0  0  0  0
 21 20  1  0  0  0  0
 22 14  2  0  0  0  0
 23 22  1  0  0  0  0
M  END
