2,3
q = -1.0, confidence = 0.0

 31 31  0  0  0  0  0  0  0  0999 V2000
   -0.2086   -2.4431    0.2209 O   0  0  0  0  0  0  0  0  0  0  0  0
   -0.8137   -0.3158   -1.3730 N   0  0  0  0  0  2  0  0  0  0  0  0
   -1.6616   -0.3835    1.4392 N   0  0  0  0  0  0  0  0  0  0  0  0
   -1.3184   -0.0115    2.3375 H   0  0  0  0  0  0  0  0  0  0  0  0
   -0.9077   -2.7740   -0.9976 C   0  0  0  0  0  0  0  0  0  0  0  0
   -1.9816   -2.9320   -0.7666 H   0  0  0  0  0  0  0  0  0  0  0  0
   -0.5022   -3.7314   -1.3962 H   0  0  0  0  0  0  0  0  0  0  0  0
   -0.7206   -1.6184   -2.0008 C   0  0  0  0  0  0  0  0  0  0  0  0
    0.2887   -1.7398   -2.4565 H   0  0  0  0  0  0  0  0  0  0  0  0
   -1.4660   -1.7490   -2.8223 H   0  0  0  0  0  0  0  0  0  0  0  0
   -1.9998    0.4893   -1.5686 C   0  0  0  0  0  0  0  0  0  0  0  0
   -2.4395    0.2974   -2.5792 H   0  0  0  0  0  0  0  0  0  0  0  0
   -1.6926    1.5569   -1.5736 H   0  0  0  0  0  0  0  0  0  0  0  0
   -3.1862    0.3909   -0.5469 C   0  0  0  0  0  0  0  0  0  0  0  0
   -2.7219    0.5194    0.9328 C   0  0  0  0  0  0  0  0  0  0  0  0
   -2.3192    1.5450    1.0623 H   0  0  0  0  0  0  0  0  0  0  0  0
   -3.6314    0.4463    1.5779 H   0  0  0  0  0  0  0  0  0  0  0  0
   -2.0669   -1.7886    1.6644 C   0  0  0  0  0  0  0  0  0  0  0  0
   -2.8930   -2.0234    0.9725 H   0  0  0  0  0  0  0  0  0  0  0  0
   -2.4699   -1.9435    2.6906 H   0  0  0  0  0  0  0  0  0  0  0  0
   -0.9023   -2.7581    1.4335 C   0  0  0  0  0  0  0  0  0  0  0  0
   -0.1444   -2.6543    2.2335 H   0  0  0  0  0  0  0  0  0  0  0  0
   -1.2675   -3.8090    1.4169 H   0  0  0  0  0  0  0  0  0  0  0  0
   -4.0446   -0.8588   -0.8228 C   0  0  0  0  0  0  0  0  0  0  0  0
   -4.5595   -0.7487   -1.7993 H   0  0  0  0  0  0  0  0  0  0  0  0
   -4.8276   -1.0011   -0.0484 H   0  0  0  0  0  0  0  0  0  0  0  0
   -3.4521   -1.7896   -0.8876 H   0  0  0  0  0  0  0  0  0  0  0  0
   -4.0938    1.6158   -0.7889 C   0  0  0  0  0  0  0  0  0  0  0  0
   -4.4454    1.6358   -1.8405 H   0  0  0  0  0  0  0  0  0  0  0  0
   -3.5541    2.5657   -0.5959 H   0  0  0  0  0  0  0  0  0  0  0  0
   -4.9909    1.5933   -0.1360 H   0  0  0  0  0  0  0  0  0  0  0  0
  1 21  1  0  0  0  0
  3 18  1  0  0  0  0
  3  4  1  0  0  0  0
  5  6  1  0  0  0  0
  5  1  1  0  0  0  0
  7  5  1  0  0  0  0
  8  2  1  0  0  0  0
  8  5  1  0  0  0  0
  9  8  1  0  0  0  0
 10  8  1  0  0  0  0
 11  2  1  0  0  0  0
 11 14  1  0  0  0  0
 12 11  1  0  0  0  0
 13 11  1  0  0  0  0
 14 15  1  0  0  0  0
 15 16  1  0  0  0  0
 15  3  1  0  0  0  0
 15 17  1  0  0  0  0
 18 20  1  0  0  0  0
 19 18  1  0  0  0  0
 21 18  1  0  0  0  0
 21 22  1  0  0  0  0
 23 21  1  0  0  0  0
 24 14  1  0  0  0  0
 24 26  1  0  0  0  0
 25 24  1  0  0  0  0
 27 24  1  0  0  0  0
 28 30  1  0  0  0  0
 28 14  1  0  0  0  0
 28 31  1  0  0  0  0
 29 28  1  0  0  0  0
M  END
