1,16
q = 0.0, confidence = 0.996

 48 49  0  0  1  0  0  0  0  0999 V2000
    2.0903    0.9621    0.0072 N   0  0  0  0  0  2  0  0  0  0  0  0
    1.2323    1.9598    0.3592 N   0  0  0  0  0  0  0  0  0  0  0  0
    4.3649    0.7790   -0.9900 C   0  0  0  0  0  0  0  0  0  0  0  0
    5.0794    0.6348   -0.1523 H   0  0  0  0  0  0  0  0  0  0  0  0
    4.8958    1.3214   -1.7951 H   0  0  0  0  0  0  0  0  0  0  0  0
    4.0680   -0.2313   -1.3378 H   0  0  0  0  0  0  0  0  0  0  0  0
    3.1753    1.5557   -0.5333 C   0  0  2  0  0  3  0  0  0  0  0  0
    2.9821    2.9616   -0.5407 C   0  0  0  0  0  0  0  0  0  0  0  0
    3.6812    3.7189   -0.9102 H   0  0  0  0  0  0  0  0  0  0  0  0
    1.7293    3.1903    0.0278 C   0  0  0  0  0  0  0  0  0  0  0  0
    0.9635    4.4455    0.2767 C   0  0  0  0  0  0  0  0  0  0  0  0
   -0.0289    4.4049   -0.2176 H   0  0  0  0  0  0  0  0  0  0  0  0
    1.5198    5.3171   -0.1127 H   0  0  0  0  0  0  0  0  0  0  0  0
    0.7880    4.6105    1.3607 H   0  0  0  0  0  0  0  0  0  0  0  0
   -1.2050   -0.4629   -1.2468 N   0  0  0  0  0  0  0  0  0  0  0  0
   -0.3542   -1.2916   -0.5808 N   0  0  0  0  0  2  0  0  0  0  0  0
   -0.2178   -3.7026   -0.0018 C   0  0  0  0  0  0  0  0  0  0  0  0
    0.7424   -3.9172   -0.5166 H   0  0  0  0  0  0  0  0  0  0  0  0
   -0.8696   -4.5944   -0.0444 H   0  0  0  0  0  0  0  0  0  0  0  0
    0.0400   -3.4762    1.0538 H   0  0  0  0  0  0  0  0  0  0  0  0
   -0.8892   -2.5290   -0.6336 C   0  0  2  0  0  3  0  0  0  0  0  0
   -2.1022   -2.4825   -1.3609 C   0  0  0  0  0  0  0  0  0  0  0  0
   -2.7667   -3.3215   -1.5908 H   0  0  0  0  0  0  0  0  0  0  0  0
   -2.2827   -1.1538   -1.7467 C   0  0  0  0  0  0  0  0  0  0  0  0
   -3.4018   -0.5376   -2.5189 C   0  0  0  0  0  0  0  0  0  0  0  0
   -3.9584   -1.3320   -3.0492 H   0  0  0  0  0  0  0  0  0  0  0  0
   -3.0492    0.1879   -3.2795 H   0  0  0  0  0  0  0  0  0  0  0  0
   -4.1139   -0.0248   -1.8390 H   0  0  0  0  0  0  0  0  0  0  0  0
   -1.1046    1.7734   -0.1442 N   0  0  0  0  0  0  0  0  0  0  0  0
   -0.0772    1.6442    0.8890 C   0  0  0  0  0  0  0  0  0  0  0  0
   -0.3205    2.3673    1.6929 H   0  0  0  0  0  0  0  0  0  0  0  0
   -0.0041    0.6438    1.3731 H   0  0  0  0  0  0  0  0  0  0  0  0
   -0.9208    0.9793   -1.3337 C   0  0  0  0  0  0  0  0  0  0  0  0
    0.1318    1.0794   -1.6636 H   0  0  0  0  0  0  0  0  0  0  0  0
   -1.5665    1.3710   -2.1404 H   0  0  0  0  0  0  0  0  0  0  0  0
   -2.4681    1.9824    0.3560 C   0  0  1  0  0  0  0  0  0  0  0  0
   -2.3503    2.6147    1.2641 H   0  0  0  0  0  0  0  0  0  0  0  0
   -3.3640    2.7278   -0.6294 C   0  0  0  0  0  0  0  0  0  0  0  0
   -2.8962    3.6891   -0.9155 H   0  0  0  0  0  0  0  0  0  0  0  0
   -4.3486    2.9272   -0.1667 H   0  0  0  0  0  0  0  0  0  0  0  0
   -3.5607    2.1406   -1.5460 H   0  0  0  0  0  0  0  0  0  0  0  0
   -3.1307    0.6784    0.8587 C   0  0  0  0  0  0  0  0  0  0  0  0
   -4.2194    0.2556    0.5116 O   0  0  0  0  0  0  0  0  0  0  0  0
   -2.3102    0.0719    1.7322 O   0  0  0  0  0  0  0  0  0  0  0  0
   -2.6734   -1.2322    2.2193 C   0  0  0  0  0  0  0  0  0  0  0  0
   -3.4487   -1.1416    3.0066 H   0  0  0  0  0  0  0  0  0  0  0  0
   -1.7361   -1.6553    2.6244 H   0  0  0  0  0  0  0  0  0  0  0  0
   -3.0656   -1.8509    1.3894 H   0  0  0  0  0  0  0  0  0  0  0  0
  1  2  1  0  0  0  0
  2 30  1  0  0  0  0
  3  4  1  0  0  0  0
  5  3  1  0  0  0  0
  6  3  1  0  0  0  0
  7  3  1  1  0  0  0
  7  1  1  0  0  0  0
  8  7  1  0  0  0  0
  8 10  2  0  0  0  0
  9  8  1  0  0  0  0
 10 11  1  0  0  0  0
 10  2  1  0  0  0  0
 11 14  1  0  0  0  0
 12 11  1  0  0  0  0
 13 11  1  0  0  0  0
 15 16  1  0  0  0  0
 17 20  1  0  0  0  0
 18 17  1  0  0  0  0
 19 17  1  0  0  0  0
 21 16  1  0  0  0  0
 21 17  1  6  0  0  0
 22 21  1  0  0  0  0
 23 22  1  0  0  0  0
 24 22  2  0  0  0  0
 24 15  1  0  0  0  0
 25 28  1  0  0  0  0
 25 24  1  0  0  0  0
 26 25  1  0  0  0  0
 27 25  1  0  0  0  0
 29 36  1  0  0  0  0
 29 30  1  0  0  0  0
 30 32  1  0  0  0  0
 30 31  1  0  0  0  0
 33 15  1  0  0  0  0
 33 29  1  0  0  0  0
 34 33  1  0  0  0  0
 35 33  1  0  0  0  0
 36 42  1  0  0  0  0
 36 37  1  1  0  0  0
 38 40  1  0  0  0  0
 38 36  1  0  0  0  0
 39 38  1  0  0  0  0
 41 38  1  0  0  0  0
 42 44  1  0  0  0  0
 43 42  2  0  0  0  0
 44 45  1  0  0  0  0
 45 47  1  0  0  0  0
 45 46  1  0  0  0  0
 48 45  1  0  0  0  0
M  END
