1,21
q = 0.0, confidence = 0.998

 40 41  0  0  0  0  0  0  0  0999 V2000
   -1.3159    1.1212   -0.0923 N   0  0  0  0  0  2  0  0  0  0  0  0
   -0.7302    2.3612   -0.0553 C   0  0  0  0  0  0  0  0  0  0  0  0
   -2.6601    1.0240   -0.1881 C   0  0  0  0  0  0  0  0  0  0  0  0
   -3.0687    0.0001   -0.1950 H   0  0  0  0  0  0  0  0  0  0  0  0
   -2.9064    3.4210   -0.2226 C   0  0  0  0  0  0  0  0  0  0  0  0
   -3.5284    4.3283   -0.2638 H   0  0  0  0  0  0  0  0  0  0  0  0
   -1.5188    3.5241   -0.1196 C   0  0  0  0  0  0  0  0  0  0  0  0
   -1.0404    4.5115   -0.0818 H   0  0  0  0  0  0  0  0  0  0  0  0
   -3.4968    2.1441   -0.2646 C   0  0  0  0  0  0  0  0  0  0  0  0
   -4.9871    1.9654   -0.4164 C   0  0  0  0  0  0  0  0  0  0  0  0
   -5.5228    2.7977    0.0960 H   0  0  0  0  0  0  0  0  0  0  0  0
   -5.2564    2.0418   -1.5002 H   0  0  0  0  0  0  0  0  0  0  0  0
   -5.3634    0.7022    0.0971 O   0  0  0  0  0  0  0  0  0  0  0  0
   -7.8410    0.6777    1.4980 F   0  0  0  0  0  0  0  0  0  0  0  0
   -7.8128    0.7513    0.1549 C   0  0  0  0  0  0  0  0  0  0  0  0
   -7.9340    2.0642   -0.1845 F   0  0  0  0  0  0  0  0  0  0  0  0
   -6.5360    0.1407   -0.4242 C   0  0  0  0  0  0  0  0  0  0  0  0
   -6.5305   -0.9348   -0.1572 H   0  0  0  0  0  0  0  0  0  0  0  0
   -6.5968    0.2275   -1.5353 H   0  0  0  0  0  0  0  0  0  0  0  0
   -8.8938    0.1021   -0.3321 F   0  0  0  0  0  0  0  0  0  0  0  0
    1.3159    1.1212    0.0924 N   0  0  0  0  0  2  0  0  0  0  0  0
    0.7302    2.3612    0.0557 C   0  0  0  0  0  0  0  0  0  0  0  0
    2.6601    1.0240    0.1882 C   0  0  0  0  0  0  0  0  0  0  0  0
    3.0687    0.0001    0.1948 H   0  0  0  0  0  0  0  0  0  0  0  0
    2.9064    3.4210    0.2231 C   0  0  0  0  0  0  0  0  0  0  0  0
    3.5285    4.3283    0.2644 H   0  0  0  0  0  0  0  0  0  0  0  0
    1.5188    3.5241    0.1202 C   0  0  0  0  0  0  0  0  0  0  0  0
    1.0405    4.5115    0.0826 H   0  0  0  0  0  0  0  0  0  0  0  0
    3.4968    2.1441    0.2647 C   0  0  0  0  0  0  0  0  0  0  0  0
    4.9871    1.9653    0.4164 C   0  0  0  0  0  0  0  0  0  0  0  0
    5.5228    2.7977   -0.0958 H   0  0  0  0  0  0  0  0  0  0  0  0
    5.2565    2.0414    1.5002 H   0  0  0  0  0  0  0  0  0  0  0  0
    5.3634    0.7022   -0.0974 O   0  0  0  0  0  0  0  0  0  0  0  0
    7.8408    0.6780   -1.4985 F   0  0  0  0  0  0  0  0  0  0  0  0
    7.8128    0.7513   -0.1554 C   0  0  0  0  0  0  0  0  0  0  0  0
    7.9340    2.0642    0.1843 F   0  0  0  0  0  0  0  0  0  0  0  0
    6.5360    0.1406    0.4237 C   0  0  0  0  0  0  0  0  0  0  0  0
    6.5305   -0.9349    0.1565 H   0  0  0  0  0  0  0  0  0  0  0  0
    6.5969    0.2272    1.5348 H   0  0  0  0  0  0  0  0  0  0  0  0
    8.8938    0.1020    0.3314 F   0  0  0  0  0  0  0  0  0  0  0  0
  1  2  1  0  0  0  0
  2 22  2  0  0  0  0
  3  1  1  0  0  0  0
  4  3  1  0  0  0  0
  5  7  2  0  0  0  0
  6  5  1  0  0  0  0
  7  8  1  0  0  0  0
  7  2  1  0  0  0  0
  9  5  1  0  0  0  0
  9  3  2  0  0  0  0
 10  9  1  0  0  0  0
 10 11  1  0  0  0  0
 10 13  1  0  0  0  0
 12 10  1  0  0  0  0
 15 14  1  0  0  0  0
 16 15  1  0  0  0  0
 17 18  1  0  0  0  0
 17 13  1  0  0  0  0
 17 15  1  0  0  0  0
 19 17  1  0  0  0  0
 20 15  1  0  0  0  0
 21 23  1  0  0  0  0
 22 21  1  0  0  0  0
 22 27  1  0  0  0  0
 23 24  1  0  0  0  0
 23 29  2  0  0  0  0
 25 26  1  0  0  0  0
 25 29  1  0  0  0  0
 27 25  2  0  0  0  0
 28 27  1  0  0  0  0
 29 30  1  0  0  0  0
 30 32  1  0  0  0  0
 31 30  1  0  0  0  0
 33 30  1  0  0  0  0
 33 37  1  0  0  0  0
 34 35  1  0  0  0  0
 35 36  1  0  0  0  0
 35 40  1  0  0  0  0
 35 37  1  0  0  0  0
 37 39  1  0  0  0  0
 38 37  1  0  0  0  0
M  END
