1,2
q = 0.0, confidence = 0.994

 39 40  0  0  0  0  0  0  0  0999 V2000
   -1.4325    0.9585   -0.0154 N   0  0  0  0  0  2  0  0  0  0  0  0
    1.1579    0.6684    0.0919 N   0  0  0  0  0  2  0  0  0  0  0  0
   -4.7547   -0.3204    0.0352 O   0  0  0  0  0  0  0  0  0  0  0  0
   -2.9943   -0.9026    1.3713 O   0  0  0  0  0  0  0  0  0  0  0  0
   -3.6172   -2.1523    1.7018 C   0  0  0  0  0  0  0  0  0  0  0  0
   -3.1196   -2.5101    2.6198 H   0  0  0  0  0  0  0  0  0  0  0  0
   -3.4395   -2.8580    0.8647 H   0  0  0  0  0  0  0  0  0  0  0  0
   -4.7053   -2.0190    1.8589 H   0  0  0  0  0  0  0  0  0  0  0  0
   -3.6131   -0.1725    0.4271 C   0  0  0  0  0  0  0  0  0  0  0  0
   -2.7792    1.0371    0.0697 C   0  0  0  0  0  0  0  0  0  0  0  0
   -3.4507    2.2621   -0.0838 C   0  0  0  0  0  0  0  0  0  0  0  0
   -4.5492    2.2495   -0.0564 H   0  0  0  0  0  0  0  0  0  0  0  0
   -2.7118    3.4405   -0.2395 C   0  0  0  0  0  0  0  0  0  0  0  0
   -3.2182    4.4087   -0.3625 H   0  0  0  0  0  0  0  0  0  0  0  0
   -1.3137    3.3693   -0.1963 C   0  0  0  0  0  0  0  0  0  0  0  0
   -0.7006    4.2778   -0.2629 H   0  0  0  0  0  0  0  0  0  0  0  0
   -0.6934    2.1131   -0.0797 C   0  0  0  0  0  0  0  0  0  0  0  0
    0.7585    1.9210    0.0347 C   0  0  0  0  0  0  0  0  0  0  0  0
    1.6795    3.0991    0.1313 C   0  0  0  0  0  0  0  0  0  0  0  0
    2.7161    2.7728    0.3277 H   0  0  0  0  0  0  0  0  0  0  0  0
    1.3575    3.7847    0.9413 H   0  0  0  0  0  0  0  0  0  0  0  0
    1.6687    3.6810   -0.8143 H   0  0  0  0  0  0  0  0  0  0  0  0
    2.5329    0.3258    0.2603 C   0  0  0  0  0  0  0  0  0  0  0  0
    2.9566   -0.0766    1.5485 C   0  0  0  0  0  0  0  0  0  0  0  0
    4.3119   -0.4127    1.7127 C   0  0  0  0  0  0  0  0  0  0  0  0
    4.6653   -0.7204    2.7089 H   0  0  0  0  0  0  0  0  0  0  0  0
    5.2003   -0.3765    0.6296 C   0  0  0  0  0  0  0  0  0  0  0  0
    6.2564   -0.6482    0.7761 H   0  0  0  0  0  0  0  0  0  0  0  0
    4.7406   -0.0193   -0.6452 C   0  0  0  0  0  0  0  0  0  0  0  0
    5.4300   -0.0268   -1.5034 H   0  0  0  0  0  0  0  0  0  0  0  0
    3.3960    0.3311   -0.8614 C   0  0  0  0  0  0  0  0  0  0  0  0
    2.8635    0.6174   -2.2388 C   0  0  0  0  0  0  0  0  0  0  0  0
    2.1014   -0.1472   -2.5034 H   0  0  0  0  0  0  0  0  0  0  0  0
    3.6715    0.5818   -2.9930 H   0  0  0  0  0  0  0  0  0  0  0  0
    2.3718    1.6093   -2.3145 H   0  0  0  0  0  0  0  0  0  0  0  0
    1.9673   -0.1748    2.6772 C   0  0  0  0  0  0  0  0  0  0  0  0
    2.4629   -0.4742    3.6196 H   0  0  0  0  0  0  0  0  0  0  0  0
    1.1898   -0.9308    2.4322 H   0  0  0  0  0  0  0  0  0  0  0  0
    1.4328    0.7814    2.8557 H   0  0  0  0  0  0  0  0  0  0  0  0
  1 10  1  0  0  0  0
  2 23  1  0  0  0  0
  3  9  2  0  0  0  0
  4  5  1  0  0  0  0
  5  8  1  0  0  0  0
  5  6  1  0  0  0  0
  7  5  1  0  0  0  0
  9  4  1  0  0  0  0
 10  9  1  0  0  0  0
 11 12  1  0  0  0  0
 11 10  2  0  0  0  0
 13 15  2  0  0  0  0
 13 11  1  0  0  0  0
 14 13  1  0  0  0  0
 15 17  1  0  0  0  0
 16 15  1  0  0  0  0
 17  1  1  0  0  0  0
 17 18  2  0  0  0  0
 18  2  1  0  0  0  0
 18 19  1  0  0  0  0
 19 20  1  0  0  0  0
 19 21  1  0  0  0  0
 22 19  1  0  0  0  0
 23 24  1  0  0  0  0
 24 25  2  0  0  0  0
 24 36  1  0  0  0  0
 25 26  1  0  0  0  0
 27 28  1  0  0  0  0
 27 25  1  0  0  0  0
 29 27  2  0  0  0  0
 30 29  1  0  0  0  0
 31 29  1  0  0  0  0
 31 23  2  0  0  0  0
 32 31  1  0  0  0  0
 33 32  1  0  0  0  0
 34 32  1  0  0  0  0
 35 32  1  0  0  0  0
 36 39  1  0  0  0  0
 36 37  1  0  0  0  0
 38 36  1  0  0  0  0
M  END
