1,2
q = 0.0, confidence = 0.994

 45 46  0  0  0  0  0  0  0  0999 V2000
   -1.0096    0.4944    0.1429 N   0  0  0  0  0  2  0  0  0  0  0  0
    1.5476    0.9632   -0.0304 N   0  0  0  0  0  2  0  0  0  0  0  0
    3.2532   -0.8736    1.1958 O   0  0  0  0  0  0  0  0  0  0  0  0
    4.9456   -0.0963   -0.1287 O   0  0  0  0  0  0  0  0  0  0  0  0
    3.9565   -2.1019    1.4308 C   0  0  0  0  0  0  0  0  0  0  0  0
    3.4979   -2.5510    2.3288 H   0  0  0  0  0  0  0  0  0  0  0  0
    5.0372   -1.9131    1.5816 H   0  0  0  0  0  0  0  0  0  0  0  0
    3.8064   -2.7590    0.5499 H   0  0  0  0  0  0  0  0  0  0  0  0
    3.8053   -0.0467    0.2907 C   0  0  0  0  0  0  0  0  0  0  0  0
    2.8883    1.1253    0.0239 C   0  0  0  0  0  0  0  0  0  0  0  0
    3.4749    2.3980   -0.0798 C   0  0  0  0  0  0  0  0  0  0  0  0
    4.5722    2.4566   -0.0802 H   0  0  0  0  0  0  0  0  0  0  0  0
    2.6569    3.5314   -0.1552 C   0  0  0  0  0  0  0  0  0  0  0  0
    3.0959    4.5359   -0.2402 H   0  0  0  0  0  0  0  0  0  0  0  0
    1.2680    3.3664   -0.0805 C   0  0  0  0  0  0  0  0  0  0  0  0
    0.5959    4.2348   -0.0853 H   0  0  0  0  0  0  0  0  0  0  0  0
    0.7336    2.0678   -0.0130 C   0  0  0  0  0  0  0  0  0  0  0  0
   -1.6907    2.8802    0.3177 C   0  0  0  0  0  0  0  0  0  0  0  0
   -2.6835    2.4785    0.5862 H   0  0  0  0  0  0  0  0  0  0  0  0
   -1.7953    3.4635   -0.6214 H   0  0  0  0  0  0  0  0  0  0  0  0
   -1.3586    3.5830    1.1079 H   0  0  0  0  0  0  0  0  0  0  0  0
   -0.6980    1.7728    0.1358 C   0  0  0  0  0  0  0  0  0  0  0  0
   -2.3490    0.0430    0.3445 C   0  0  0  0  0  0  0  0  0  0  0  0
   -2.6694   -0.5025    1.6130 C   0  0  0  0  0  0  0  0  0  0  0  0
   -3.9858   -0.9475    1.8194 C   0  0  0  0  0  0  0  0  0  0  0  0
   -4.2552   -1.3663    2.8017 H   0  0  0  0  0  0  0  0  0  0  0  0
   -4.9378   -0.8906    0.7924 C   0  0  0  0  0  0  0  0  0  0  0  0
   -5.9607   -1.2558    0.9684 H   0  0  0  0  0  0  0  0  0  0  0  0
   -4.5761   -0.4022   -0.4685 C   0  0  0  0  0  0  0  0  0  0  0  0
   -5.3125   -0.4050   -1.2871 H   0  0  0  0  0  0  0  0  0  0  0  0
   -3.2739    0.0657   -0.7270 C   0  0  0  0  0  0  0  0  0  0  0  0
   -2.8824    0.4997   -2.1241 C   0  0  0  0  0  0  0  0  0  0  0  0
   -1.8055    0.7550   -2.1569 H   0  0  0  0  0  0  0  0  0  0  0  0
   -2.9796   -0.3893   -2.7838 H   0  0  0  0  0  0  0  0  0  0  0  0
   -3.7168    1.6562   -2.6895 C   0  0  0  0  0  0  0  0  0  0  0  0
   -3.3921    1.9110   -3.7182 H   0  0  0  0  0  0  0  0  0  0  0  0
   -3.6249    2.5705   -2.0679 H   0  0  0  0  0  0  0  0  0  0  0  0
   -4.7951    1.4023   -2.7360 H   0  0  0  0  0  0  0  0  0  0  0  0
   -1.6313   -0.6018    2.7068 C   0  0  0  0  0  0  0  0  0  0  0  0
   -0.6706   -0.9358    2.2578 H   0  0  0  0  0  0  0  0  0  0  0  0
   -1.9427   -1.4023    3.4085 H   0  0  0  0  0  0  0  0  0  0  0  0
   -1.4098    0.6987    3.4931 C   0  0  0  0  0  0  0  0  0  0  0  0
   -0.6686    0.5485    4.3038 H   0  0  0  0  0  0  0  0  0  0  0  0
   -2.3532    1.0563    3.9537 H   0  0  0  0  0  0  0  0  0  0  0  0
   -1.0263    1.5118    2.8442 H   0  0  0  0  0  0  0  0  0  0  0  0
  1 23  1  0  0  0  0
  2 17  1  0  0  0  0
  2 10  1  0  0  0  0
  3  5  1  0  0  0  0
  4  9  2  0  0  0  0
  5  7  1  0  0  0  0
  5  6  1  0  0  0  0
  8  5  1  0  0  0  0
  9  3  1  0  0  0  0
 10  9  1  0  0  0  0
 11 10  2  0  0  0  0
 12 11  1  0  0  0  0
 13 15  2  0  0  0  0
 13 11  1  0  0  0  0
 14 13  1  0  0  0  0
 15 17  1  0  0  0  0
 16 15  1  0  0  0  0
 17 22  2  0  0  0  0
 18 19  1  0  0  0  0
 18 21  1  0  0  0  0
 20 18  1  0  0  0  0
 22  1  1  0  0  0  0
 22 18  1  0  0  0  0
 23 24  1  0  0  0  0
 24 25  2  0  0  0  0
 24 39  1  0  0  0  0
 25 26  1  0  0  0  0
 27 28  1  0  0  0  0
 27 25  1  0  0  0  0
 29 27  2  0  0  0  0
 30 29  1  0  0  0  0
 31 29  1  0  0  0  0
 31 23  2  0  0  0  0
 32 31  1  0  0  0  0
 33 32  1  0  0  0  0
 34 32  1  0  0  0  0
 35 32  1  0  0  0  0
 35 37  1  0  0  0  0
 36 35  1  0  0  0  0
 38 35  1  0  0  0  0
 39 41  1  0  0  0  0
 39 42  1  0  0  0  0
 40 39  1  0  0  0  0
 42 44  1  0  0  0  0
 42 43  1  0  0  0  0
 45 42  1  0  0  0  0
M  END
