11,21
q = 0.0, confidence = 0.996

 30 32  0  0  1  0  0  0  0  0999 V2000
   -4.5026   -1.2012   -0.2608 N   0  0  0  0  0  0  0  0  0  0  0  0
   -3.9901   -0.0003   -0.5731 C   0  0  0  0  0  0  0  0  0  0  0  0
   -4.5025    1.2011   -0.2619 N   0  0  0  0  0  0  0  0  0  0  0  0
   -5.6085    1.1885    0.4915 C   0  0  0  0  0  0  0  0  0  0  0  0
   -6.0255    2.1734    0.7661 H   0  0  0  0  0  0  0  0  0  0  0  0
   -6.2145    0.0005    0.9225 C   0  0  0  0  0  0  0  0  0  0  0  0
   -7.1070    0.0008    1.5620 H   0  0  0  0  0  0  0  0  0  0  0  0
   -5.6086   -1.1879    0.4926 C   0  0  0  0  0  0  0  0  0  0  0  0
   -6.0256   -2.1726    0.7682 H   0  0  0  0  0  0  0  0  0  0  0  0
   -2.7720   -0.0006   -1.2761 N   0  0  0  0  0  0  0  0  0  0  0  0
   -0.8227   -1.3442   -1.1492 N   0  0  0  0  0  2  0  0  0  0  0  0
   -2.1014   -1.2123   -1.5804 C   0  0  2  0  0  3  0  0  0  0  0  0
   -2.7280   -2.1966   -2.3640 C   0  0  0  0  0  0  0  0  0  0  0  0
   -3.7667   -2.0410   -2.6785 H   0  0  0  0  0  0  0  0  0  0  0  0
   -2.0118   -3.3404   -2.7232 C   0  0  0  0  0  0  0  0  0  0  0  0
   -2.4853   -4.1229   -3.3341 H   0  0  0  0  0  0  0  0  0  0  0  0
   -0.6707   -3.4504   -2.3190 C   0  0  0  0  0  0  0  0  0  0  0  0
   -0.0522   -4.3132   -2.6029 H   0  0  0  0  0  0  0  0  0  0  0  0
   -0.1119   -2.4322   -1.5501 C   0  0  0  0  0  0  0  0  0  0  0  0
    0.9389   -2.4516   -1.2331 H   0  0  0  0  0  0  0  0  0  0  0  0
   -0.8228    1.3432   -1.1503 N   0  0  0  0  0  2  0  0  0  0  0  0
   -2.1014    1.2108   -1.5815 C   0  0  1  0  0  3  0  0  0  0  0  0
   -2.7280    2.1943   -2.3662 C   0  0  0  0  0  0  0  0  0  0  0  0
   -3.7667    2.0384   -2.6806 H   0  0  0  0  0  0  0  0  0  0  0  0
   -2.0118    3.3378   -2.7264 C   0  0  0  0  0  0  0  0  0  0  0  0
   -2.4853    4.1197   -3.3381 H   0  0  0  0  0  0  0  0  0  0  0  0
   -0.6707    3.4483   -2.3221 C   0  0  0  0  0  0  0  0  0  0  0  0
   -0.0523    4.3109   -2.6067 H   0  0  0  0  0  0  0  0  0  0  0  0
   -0.1120    2.4308   -1.5521 C   0  0  0  0  0  0  0  0  0  0  0  0
    0.9388    2.4507   -1.2351 H   0  0  0  0  0  0  0  0  0  0  0  0
  1  8  1  0  0  0  0
  2  3  1  0  0  0  0
  2  1  2  0  0  0  0
  3  4  2  0  0  0  0
  4  5  1  0  0  0  0
  4  6  1  0  0  0  0
  6  7  1  0  0  0  0
  8  9  1  0  0  0  0
  8  6  2  0  0  0  0
 10  2  1  0  0  0  0
 12 10  1  6  0  0  0
 12 11  1  0  0  0  0
 13 12  1  0  0  0  0
 14 13  1  0  0  0  0
 15 13  2  0  0  0  0
 15 17  1  0  0  0  0
 16 15  1  0  0  0  0
 17 19  2  0  0  0  0
 18 17  1  0  0  0  0
 19 20  1  0  0  0  0
 19 11  1  0  0  0  0
 22 10  1  6  0  0  0
 22 21  1  0  0  0  0
 23 22  1  0  0  0  0
 24 23  1  0  0  0  0
 25 23  2  0  0  0  0
 25 27  1  0  0  0  0
 26 25  1  0  0  0  0
 27 29  2  0  0  0  0
 28 27  1  0  0  0  0
 29 30  1  0  0  0  0
 29 21  1  0  0  0  0
M  END
