1,2
q = -1.0

 54 55  0  0  1  0  0  0  0  0999 V2000
    1.5495   -1.1405   -0.4018 N   0  0  0  0  0  2  0  0  0  0  0  0
   -1.3369   -1.8400   -0.4873 N   0  0  0  0  0  2  0  0  0  0  0  0
   -4.7217   -0.3800    2.5493 F   0  0  0  0  0  0  0  0  0  0  0  0
    1.6437   -2.3741   -0.9285 C   0  0  2  0  0  3  0  0  0  0  0  0
    0.5326   -3.2067   -1.2039 C   0  0  0  0  0  0  0  0  0  0  0  0
    0.7861   -4.1942   -1.6107 H   0  0  0  0  0  0  0  0  0  0  0  0
   -0.8442   -3.0019   -0.9450 C   0  0  0  0  0  0  0  0  0  0  0  0
    3.0179   -2.9209   -1.2505 C   0  0  0  0  0  0  0  0  0  0  0  0
    3.7029   -2.8295   -0.3850 H   0  0  0  0  0  0  0  0  0  0  0  0
    3.4794   -2.3309   -2.0694 H   0  0  0  0  0  0  0  0  0  0  0  0
    2.9687   -3.9789   -1.5639 H   0  0  0  0  0  0  0  0  0  0  0  0
   -1.7619   -4.1857   -1.1728 C   0  0  0  0  0  0  0  0  0  0  0  0
   -2.5608   -4.2267   -0.4073 H   0  0  0  0  0  0  0  0  0  0  0  0
   -1.1898   -5.1310   -1.1509 H   0  0  0  0  0  0  0  0  0  0  0  0
   -2.2667   -4.1220   -2.1585 H   0  0  0  0  0  0  0  0  0  0  0  0
   -2.7115   -1.6298   -0.2264 C   0  0  0  0  0  0  0  0  0  0  0  0
   -3.7137   -1.7610   -1.2149 C   0  0  0  0  0  0  0  0  0  0  0  0
   -3.4392   -2.0821   -2.2289 H   0  0  0  0  0  0  0  0  0  0  0  0
   -5.0462   -1.4450   -0.9129 C   0  0  0  0  0  0  0  0  0  0  0  0
   -5.8160   -1.5432   -1.6929 H   0  0  0  0  0  0  0  0  0  0  0  0
   -5.4120   -0.9813    0.3604 C   0  0  0  0  0  0  0  0  0  0  0  0
   -6.4475   -0.7125    0.6105 H   0  0  0  0  0  0  0  0  0  0  0  0
   -4.4051   -0.8425    1.3237 C   0  0  0  0  0  0  0  0  0  0  0  0
   -3.0728   -1.1610    1.0546 C   0  0  0  0  0  0  0  0  0  0  0  0
   -2.3149   -1.0391    1.8391 H   0  0  0  0  0  0  0  0  0  0  0  0
    2.7249   -0.4594    0.0408 C   0  0  0  0  0  0  0  0  0  0  0  0
    3.4617    0.3591   -0.8542 C   0  0  0  0  0  0  0  0  0  0  0  0
    4.6115    1.0112   -0.3712 C   0  0  0  0  0  0  0  0  0  0  0  0
    5.1940    1.6501   -1.0521 H   0  0  0  0  0  0  0  0  0  0  0  0
    5.0207    0.8683    0.9594 C   0  0  0  0  0  0  0  0  0  0  0  0
    5.9265    1.3808    1.3168 H   0  0  0  0  0  0  0  0  0  0  0  0
    4.2574    0.0951    1.8434 C   0  0  0  0  0  0  0  0  0  0  0  0
    4.5634    0.0193    2.8968 H   0  0  0  0  0  0  0  0  0  0  0  0
    3.0941   -0.5683    1.4117 C   0  0  0  0  0  0  0  0  0  0  0  0
    2.9750    0.6054   -2.2762 C   0  0  0  0  0  0  0  0  0  0  0  0
    2.2204   -0.1745   -2.5083 H   0  0  0  0  0  0  0  0  0  0  0  0
    2.2573    1.9670   -2.3388 C   0  0  0  0  0  0  0  0  0  0  0  0
    1.4269    2.0103   -1.6054 H   0  0  0  0  0  0  0  0  0  0  0  0
    1.8399    2.1524   -3.3503 H   0  0  0  0  0  0  0  0  0  0  0  0
    2.9599    2.7928   -2.1018 H   0  0  0  0  0  0  0  0  0  0  0  0
    4.0883    0.5015   -3.3280 C   0  0  0  0  0  0  0  0  0  0  0  0
    4.6177   -0.4716   -3.2708 H   0  0  0  0  0  0  0  0  0  0  0  0
    4.8469    1.3022   -3.2074 H   0  0  0  0  0  0  0  0  0  0  0  0
    3.6672    0.6036   -4.3488 H   0  0  0  0  0  0  0  0  0  0  0  0
    2.2298   -1.3577    2.3908 C   0  0  0  0  0  0  0  0  0  0  0  0
    1.1922   -1.3162    1.9909 H   0  0  0  0  0  0  0  0  0  0  0  0
    2.2117   -0.7466    3.7989 C   0  0  0  0  0  0  0  0  0  0  0  0
    1.9873    0.3378    3.7707 H   0  0  0  0  0  0  0  0  0  0  0  0
    3.1819   -0.8823    4.3198 H   0  0  0  0  0  0  0  0  0  0  0  0
    1.4382   -1.2404    4.4209 H   0  0  0  0  0  0  0  0  0  0  0  0
    2.6223   -2.8453    2.4495 C   0  0  0  0  0  0  0  0  0  0  0  0
    1.9903   -3.3868    3.1831 H   0  0  0  0  0  0  0  0  0  0  0  0
    3.6812   -2.9580    2.7625 H   0  0  0  0  0  0  0  0  0  0  0  0
    2.4986   -3.3458    1.4706 H   0  0  0  0  0  0  0  0  0  0  0  0
  1 26  1  0  0  0  0
  2 16  1  0  0  0  0
  4  5  1  1  0  0  0
  4  1  1  0  0  0  0
  5  7  2  0  0  0  0
  6  5  1  0  0  0  0
  7  2  1  0  0  0  0
  8  4  1  0  0  0  0
  8  9  1  0  0  0  0
 10  8  1  0  0  0  0
 11  8  1  0  0  0  0
 12 14  1  0  0  0  0
 12  7  1  0  0  0  0
 12 13  1  0  0  0  0
 15 12  1  0  0  0  0
 16 24  1  0  0  0  0
 17 19  1  0  0  0  0
 17 16  2  0  0  0  0
 18 17  1  0  0  0  0
 19 21  2  0  0  0  0
 20 19  1  0  0  0  0
 21 22  1  0  0  0  0
 21 23  1  0  0  0  0
 23  3  1  0  0  0  0
 24 23  2  0  0  0  0
 24 25  1  0  0  0  0
 26 34  1  0  0  0  0
 27 28  1  0  0  0  0
 27 26  2  0  0  0  0
 28 30  2  0  0  0  0
 29 28  1  0  0  0  0
 30 31  1  0  0  0  0
 30 32  1  0  0  0  0
 32 33  1  0  0  0  0
 34 32  2  0  0  0  0
 34 45  1  0  0  0  0
 35 27  1  0  0  0  0
 36 35  1  0  0  0  0
 37 35  1  0  0  0  0
 37 40  1  0  0  0  0
 37 38  1  0  0  0  0
 39 37  1  0  0  0  0
 41 42  1  0  0  0  0
 41 43  1  0  0  0  0
 41 35  1  0  0  0  0
 44 41  1  0  0  0  0
 45 51  1  0  0  0  0
 45 47  1  0  0  0  0
 46 45  1  0  0  0  0
 47 49  1  0  0  0  0
 47 50  1  0  0  0  0
 48 47  1  0  0  0  0
 51 53  1  0  0  0  0
 51 52  1  0  0  0  0
 54 51  1  0  0  0  0
M  END
