3,6
q = 0.0, confidence = 0.998

 23 23  0  0  1  0  0  0  0  0999 V2000
   -3.6148    2.1191   -0.1355 O   0  0  0  0  0  0  0  0  0  0  0  0
   -3.0580    0.7323    1.5781 O   0  0  0  0  0  0  0  0  0  0  0  0
    1.3408    1.8615   -0.4871 N   0  0  0  0  0  2  0  0  0  0  0  0
    2.6686    3.5722   -0.8382 N   0  0  0  0  0  0  0  0  0  0  0  0
    3.5241    4.1171   -0.9608 H   0  0  0  0  0  0  0  0  0  0  0  0
   -0.4714    1.2237    1.3784 N   0  0  0  0  0  0  0  0  0  0  0  0
   -1.0416    0.5791    1.9505 H   0  0  0  0  0  0  0  0  0  0  0  0
    0.2297    1.6418    2.0106 H   0  0  0  0  0  0  0  0  0  0  0  0
    2.6160    2.2372   -0.6045 C   0  0  0  0  0  3  0  0  0  0  0  0
    3.4884    1.5901   -0.4714 H   0  0  0  0  0  0  0  0  0  0  0  0
    1.3804    4.0743   -0.8485 C   0  0  0  0  0  0  0  0  0  0  0  0
    1.1614    5.1325   -1.0188 H   0  0  0  0  0  0  0  0  0  0  0  0
    0.5474    2.9911   -0.6239 C   0  0  0  0  0  0  0  0  0  0  0  0
   -0.9341    2.8922   -0.5069 C   0  0  0  0  0  0  0  0  0  0  0  0
   -1.3207    2.2701   -1.3355 H   0  0  0  0  0  0  0  0  0  0  0  0
   -1.3963    3.8909   -0.6026 H   0  0  0  0  0  0  0  0  0  0  0  0
   -1.3931    2.2569    0.8275 C   0  0  1  0  0  0  0  0  0  0  0  0
   -1.4742    3.0622    1.5923 H   0  0  0  0  0  0  0  0  0  0  0  0
   -2.8145    1.7035    0.6725 C   0  0  0  0  0  0  0  0  0  0  0  0
   -4.3782    0.1483    1.5354 C   0  0  0  0  0  0  0  0  0  0  0  0
   -4.5474   -0.3290    0.5517 H   0  0  0  0  0  0  0  0  0  0  0  0
   -5.1442    0.9295    1.7030 H   0  0  0  0  0  0  0  0  0  0  0  0
   -4.4014   -0.6041    2.3417 H   0  0  0  0  0  0  0  0  0  0  0  0
  1 19  2  0  0  0  0
  4  9  1  0  0  0  0
  5  4  1  0  0  0  0
  6  7  1  0  0  0  0
  6  8  1  0  0  0  0
  9  3  1  0  0  0  0
  9 10  1  0  0  0  0
 11  4  1  0  0  0  0
 11 13  2  0  0  0  0
 12 11  1  0  0  0  0
 13 14  1  0  0  0  0
 13  3  1  0  0  0  0
 14 17  1  0  0  0  0
 15 14  1  0  0  0  0
 16 14  1  0  0  0  0
 17  6  1  0  0  0  0
 17 18  1  1  0  0  0
 19 17  1  0  0  0  0
 19  2  1  0  0  0  0
 20  2  1  0  0  0  0
 20 22  1  0  0  0  0
 20 23  1  0  0  0  0
 21 20  1  0  0  0  0
M  END
