31,32
q = 0.0, confidence = 0.998

 34 36  0  0  0  0  0  0  0  0999 V2000
    2.5220    2.7405    0.3385 C   0  0  0  0  0  3  0  0  0  0  0  0
    3.5675    2.5081    0.5864 H   0  0  0  0  0  0  0  0  0  0  0  0
    2.0761    4.0601    0.2186 C   0  0  0  0  0  0  0  0  0  0  0  0
    2.7819    4.8869    0.3789 H   0  0  0  0  0  0  0  0  0  0  0  0
    0.7320    4.2973   -0.1107 C   0  0  0  0  0  0  0  0  0  0  0  0
    0.3505    5.3235   -0.2147 H   0  0  0  0  0  0  0  0  0  0  0  0
   -0.1159    3.2032   -0.3067 C   0  0  0  0  0  0  0  0  0  0  0  0
   -1.1746    3.3442   -0.5662 H   0  0  0  0  0  0  0  0  0  0  0  0
    0.4016    1.9033   -0.1744 C   0  0  0  0  0  0  0  0  0  0  0  0
   -0.3868    0.6917   -0.3439 C   0  0  0  0  0  0  0  0  0  0  0  0
   -1.7162    0.4062   -0.6404 C   0  0  0  0  0  0  0  0  0  0  0  0
   -2.5911    1.0275   -0.8489 H   0  0  0  0  0  0  0  0  0  0  0  0
   -2.9333   -1.8172   -0.9145 C   0  0  0  0  0  0  0  0  0  0  0  0
   -2.6998   -2.7859   -0.4319 H   0  0  0  0  0  0  0  0  0  0  0  0
   -2.9657   -1.9861   -2.0104 H   0  0  0  0  0  0  0  0  0  0  0  0
   -4.2266   -1.2216   -0.4222 C   0  0  0  0  0  0  0  0  0  0  0  0
   -5.1725   -0.7030   -1.3215 C   0  0  0  0  0  0  0  0  0  0  0  0
   -4.9778   -0.7552   -2.4047 H   0  0  0  0  0  0  0  0  0  0  0  0
   -6.3709   -0.1247   -0.8721 C   0  0  0  0  0  0  0  0  0  0  0  0
   -7.0899    0.2629   -1.6056 H   0  0  0  0  0  0  0  0  0  0  0  0
   -6.6330   -0.0546    0.5118 C   0  0  0  0  0  0  0  0  0  0  0  0
   -5.6841   -0.5713    1.4260 C   0  0  0  0  0  0  0  0  0  0  0  0
   -5.9109   -0.5116    2.5001 H   0  0  0  0  0  0  0  0  0  0  0  0
   -4.5026   -1.1455    0.9624 C   0  0  0  0  0  0  0  0  0  0  0  0
   -3.7752   -1.5453    1.6866 H   0  0  0  0  0  0  0  0  0  0  0  0
   -7.7523    0.4804    1.0583 O   0  0  0  0  0  0  0  0  0  0  0  0
   -8.7467    1.0026    0.1939 C   0  0  0  0  0  0  0  0  0  0  0  0
   -8.3586    1.8452   -0.4209 H   0  0  0  0  0  0  0  0  0  0  0  0
   -9.5595    1.3759    0.8433 H   0  0  0  0  0  0  0  0  0  0  0  0
   -9.1549    0.2213   -0.4851 H   0  0  0  0  0  0  0  0  0  0  0  0
    1.7108    1.6786    0.1494 N   0  0  0  0  0  2  0  0  0  0  0  0
    0.2425   -0.5188   -0.1604 N   0  0  0  0  0  2  0  0  0  0  0  0
   -0.5931   -1.5120   -0.3248 N   0  0  0  0  0  2  0  0  0  0  0  0
   -1.7799   -0.9547   -0.6168 N   0  0  0  0  0  0  0  0  0  0  0  0
  1  2  1  0  0  0  0
  3  1  1  0  0  0  0
  3  4  1  0  0  0  0
  5  3  2  0  0  0  0
  6  5  1  0  0  0  0
  7  9  2  0  0  0  0
  7  5  1  0  0  0  0
  8  7  1  0  0  0  0
  9 31  1  0  0  0  0
 10  9  1  0  0  0  0
 10 32  1  0  0  0  0
 11 34  1  0  0  0  0
 11 10  2  0  0  0  0
 12 11  1  0  0  0  0
 13 34  1  0  0  0  0
 13 14  1  0  0  0  0
 13 16  1  0  0  0  0
 15 13  1  0  0  0  0
 16 24  1  0  0  0  0
 17 19  1  0  0  0  0
 17 16  2  0  0  0  0
 18 17  1  0  0  0  0
 19 21  2  0  0  0  0
 20 19  1  0  0  0  0
 21 26  1  0  0  0  0
 21 22  1  0  0  0  0
 22 23  1  0  0  0  0
 24 22  2  0  0  0  0
 24 25  1  0  0  0  0
 27 29  1  0  0  0  0
 27 26  1  0  0  0  0
 28 27  1  0  0  0  0
 30 27  1  0  0  0  0
 31  1  1  0  0  0  0
 33 32  1  0  0  0  0
 34 33  1  0  0  0  0
M  END
