4,5
q = -1.0

 37 38  0  0  1  0  0  0  0  0999 V2000
    0.3894    1.8523    1.6133 S   0  0  0  0  0  0  0  0  0  0  0  0
    1.8533    2.0085    1.8277 O   0  0  0  0  0  0  0  0  0  0  0  0
   -0.4937    1.6229    2.7934 O   0  0  0  0  0  0  0  0  0  0  0  0
   -0.2182   -1.9585    0.0134 N   0  0  0  0  0  0  0  0  0  0  0  0
    0.1285    0.6957    0.4177 N   0  0  0  0  0  2  0  0  0  0  0  0
   -1.3180   -1.0628   -0.4355 C   0  0  2  0  0  0  0  0  0  0  0  0
   -1.2564    0.1865    0.4602 C   0  0  2  0  0  0  0  0  0  0  0  0
   -2.6722   -1.7416   -0.4265 C   0  0  0  0  0  0  0  0  0  0  0  0
   -3.4304   -1.8375   -1.6081 C   0  0  0  0  0  0  0  0  0  0  0  0
   -4.6897   -2.4559   -1.6045 C   0  0  0  0  0  0  0  0  0  0  0  0
   -5.2065   -2.9900   -0.4143 C   0  0  0  0  0  0  0  0  0  0  0  0
   -4.4600   -2.8981    0.7718 C   0  0  0  0  0  0  0  0  0  0  0  0
   -3.2041   -2.2753    0.7658 C   0  0  0  0  0  0  0  0  0  0  0  0
   -2.3017    1.2024    0.0241 C   0  0  0  0  0  0  0  0  0  0  0  0
   -3.2742    1.6504    0.9361 C   0  0  0  0  0  0  0  0  0  0  0  0
   -4.2261    2.6082    0.5525 C   0  0  0  0  0  0  0  0  0  0  0  0
   -4.2185    3.1265   -0.7517 C   0  0  0  0  0  0  0  0  0  0  0  0
   -3.2509    2.6839   -1.6700 C   0  0  0  0  0  0  0  0  0  0  0  0
   -2.2993    1.7306   -1.2822 C   0  0  0  0  0  0  0  0  0  0  0  0
   -0.1319    3.4378    0.9014 C   0  0  0  0  0  0  0  0  0  0  0  0
   -0.4407   -2.3309    0.9505 H   0  0  0  0  0  0  0  0  0  0  0  0
   -0.1511   -2.7704   -0.6158 H   0  0  0  0  0  0  0  0  0  0  0  0
   -1.0631   -0.7631   -1.4723 H   0  0  0  0  0  0  0  0  0  0  0  0
   -1.5278   -0.1349    1.4942 H   0  0  0  0  0  0  0  0  0  0  0  0
   -3.0295   -1.4090   -2.5402 H   0  0  0  0  0  0  0  0  0  0  0  0
   -5.2717   -2.5183   -2.5365 H   0  0  0  0  0  0  0  0  0  0  0  0
   -6.1942   -3.4752   -0.4088 H   0  0  0  0  0  0  0  0  0  0  0  0
   -4.8626   -3.3076    1.7106 H   0  0  0  0  0  0  0  0  0  0  0  0
   -2.6385   -2.1928    1.7083 H   0  0  0  0  0  0  0  0  0  0  0  0
   -3.2540    1.2642    1.9661 H   0  0  0  0  0  0  0  0  0  0  0  0
   -4.9751    2.9566    1.2801 H   0  0  0  0  0  0  0  0  0  0  0  0
   -4.9629    3.8792   -1.0529 H   0  0  0  0  0  0  0  0  0  0  0  0
   -3.2356    3.0897   -2.6933 H   0  0  0  0  0  0  0  0  0  0  0  0
   -1.5273    1.4079   -1.9976 H   0  0  0  0  0  0  0  0  0  0  0  0
    0.4375    3.6157   -0.0278 H   0  0  0  0  0  0  0  0  0  0  0  0
   -1.2177    3.4297    0.7070 H   0  0  0  0  0  0  0  0  0  0  0  0
    0.1235    4.1908    1.6698 H   0  0  0  0  0  0  0  0  0  0  0  0
  1  2  2  0  0  0  0
  1  3  2  0  0  0  0
  4 21  1  0  0  0  0
  5  7  1  0  0  0  0
  5  1  1  0  0  0  0
  6 23  1  6  0  0  0
  6  8  1  0  0  0  0
  6  4  1  0  0  0  0
  6  7  1  0  0  0  0
  7 24  1  1  0  0  0
  8 13  1  0  0  0  0
  9 10  1  0  0  0  0
  9  8  2  0  0  0  0
 10 11  2  0  0  0  0
 11 27  1  0  0  0  0
 11 12  1  0  0  0  0
 12 28  1  0  0  0  0
 13 12  2  0  0  0  0
 13 29  1  0  0  0  0
 14  7  1  0  0  0  0
 14 15  1  0  0  0  0
 15 30  1  0  0  0  0
 16 15  2  0  0  0  0
 16 31  1  0  0  0  0
 17 16  1  0  0  0  0
 18 19  1  0  0  0  0
 18 17  2  0  0  0  0
 19 14  2  0  0  0  0
 20  1  1  0  0  0  0
 20 37  1  0  0  0  0
 22  4  1  0  0  0  0
 25  9  1  0  0  0  0
 26 10  1  0  0  0  0
 32 17  1  0  0  0  0
 33 18  1  0  0  0  0
 34 19  1  0  0  0  0
 35 20  1  0  0  0  0
 36 20  1  0  0  0  0
M  END
