1,2
q = -1.0

 25 26  0  0  1  0  0  0  0  0999 V2000
    1.5393    1.1243   -0.0440 N   0  0  0  0  0  2  0  0  0  0  0  0
   -0.8981    1.6417   -0.5441 N   0  0  0  0  0  0  0  0  0  0  0  0
    2.9002   -0.1616    1.5163 C   0  0  0  0  0  0  0  0  0  0  0  0
    1.9831   -0.3826    2.0807 H   0  0  0  0  0  0  0  0  0  0  0  0
    4.1370   -0.6810    1.9156 C   0  0  0  0  0  0  0  0  0  0  0  0
    4.1965   -1.3075    2.8183 H   0  0  0  0  0  0  0  0  0  0  0  0
    5.2953   -0.4162    1.1649 C   0  0  0  0  0  0  0  0  0  0  0  0
    6.2647   -0.8328    1.4766 H   0  0  0  0  0  0  0  0  0  0  0  0
    5.2054    0.3739    0.0083 C   0  0  0  0  0  0  0  0  0  0  0  0
    6.1040    0.5753   -0.5947 H   0  0  0  0  0  0  0  0  0  0  0  0
    3.9688    0.8984   -0.3966 C   0  0  0  0  0  0  0  0  0  0  0  0
    3.8884    1.4866   -1.3221 H   0  0  0  0  0  0  0  0  0  0  0  0
    2.8056    0.6421    0.3607 C   0  0  0  0  0  0  0  0  0  0  0  0
    1.2913    2.4354   -0.1457 C   0  0  1  0  0  3  0  0  0  0  0  0
   -0.0535    2.7439   -0.4727 C   0  0  0  0  0  3  0  0  0  0  0  0
   -0.7652    3.9177   -0.8282 C   0  0  0  0  0  0  0  0  0  0  0  0
   -0.3653    4.9379   -0.8695 H   0  0  0  0  0  0  0  0  0  0  0  0
   -2.0684    3.4954   -1.1449 C   0  0  0  0  0  0  0  0  0  0  0  0
   -2.9093    4.1202   -1.4683 H   0  0  0  0  0  0  0  0  0  0  0  0
   -2.1075    2.0900   -0.9578 C   0  0  0  0  0  0  0  0  0  0  0  0
   -2.9618    1.4168   -1.0878 H   0  0  0  0  0  0  0  0  0  0  0  0
    2.3117    3.5085    0.1047 C   0  0  0  0  0  0  0  0  0  0  0  0
    3.0051    3.2212    0.9187 H   0  0  0  0  0  0  0  0  0  0  0  0
    1.8089    4.4565    0.3705 H   0  0  0  0  0  0  0  0  0  0  0  0
    2.9313    3.6955   -0.7965 H   0  0  0  0  0  0  0  0  0  0  0  0
  1 13  1  0  0  0  0
  2 15  1  0  0  0  0
  3  5  1  0  0  0  0
  3  4  1  0  0  0  0
  5  6  1  0  0  0  0
  7  8  1  0  0  0  0
  7  5  2  0  0  0  0
  9  7  1  0  0  0  0
 10  9  1  0  0  0  0
 11  9  2  0  0  0  0
 11 13  1  0  0  0  0
 12 11  1  0  0  0  0
 13  3  2  0  0  0  0
 14  1  1  1  0  0  0
 14 22  1  0  0  0  0
 15 14  1  0  0  0  0
 16 15  1  0  0  0  0
 17 16  1  0  0  0  0
 18 20  1  0  0  0  0
 18 16  2  0  0  0  0
 19 18  1  0  0  0  0
 20  2  2  0  0  0  0
 21 20  1  0  0  0  0
 22 24  1  0  0  0  0
 22 23  1  0  0  0  0
 25 22  1  0  0  0  0
M  END
