1,8
q = -1.0, confidence = 0.0

 42 44  0  0  0  0  0  0  0  0999 V2000
   -1.2798   -1.6236    1.0262 N   0  0  0  0  0  2  0  0  0  0  0  0
   -2.5438   -1.5782    0.6222 C   0  0  0  0  0  3  0  0  0  0  0  0
   -3.1639   -0.4953   -0.0300 C   0  0  0  0  0  0  0  0  0  0  0  0
   -4.5229   -0.2759   -0.4764 C   0  0  0  0  0  0  0  0  0  0  0  0
   -4.7134    0.9937   -0.8268 N   0  0  0  0  0  0  0  0  0  0  0  0
   -3.5100    1.6365   -0.6364 N   0  0  0  0  0  0  0  0  0  0  0  0
   -2.5331    0.7806   -0.1338 C   0  0  0  0  0  0  0  0  0  0  0  0
   -1.2967    1.0682    0.2492 N   0  0  0  0  0  2  0  0  0  0  0  0
   -5.6259   -1.2441   -0.5802 C   0  0  0  0  0  0  0  0  0  0  0  0
   -6.9646   -0.7993   -0.4778 C   0  0  0  0  0  0  0  0  0  0  0  0
   -8.0272   -1.7040   -0.5790 C   0  0  0  0  0  0  0  0  0  0  0  0
   -7.7779   -3.0724   -0.7836 C   0  0  0  0  0  0  0  0  0  0  0  0
   -6.4545   -3.5243   -0.8995 C   0  0  0  0  0  0  0  0  0  0  0  0
   -5.3873   -2.6195   -0.8032 C   0  0  0  0  0  0  0  0  0  0  0  0
   -3.3996    3.0156   -0.9052 C   0  0  0  0  0  0  0  0  0  0  0  0
   -2.1817    3.5703   -1.3558 C   0  0  0  0  0  0  0  0  0  0  0  0
   -2.0872    4.9515   -1.5818 C   0  0  0  0  0  0  0  0  0  0  0  0
   -3.1996    5.7842   -1.3884 C   0  0  0  0  0  0  0  0  0  0  0  0
   -4.4198    5.2205   -0.9757 C   0  0  0  0  0  0  0  0  0  0  0  0
   -4.5262    3.8470   -0.7308 C   0  0  0  0  0  0  0  0  0  0  0  0
   -0.9510   -2.8612    1.7897 C   0  0  0  0  0  0  0  0  0  0  0  0
   -0.5478   -4.0269    0.8738 C   0  0  0  0  0  0  0  0  0  0  0  0
    0.0293   -2.6005    2.9349 C   0  0  0  0  0  0  0  0  0  0  0  0
   -3.1851   -2.4466    0.8687 H   0  0  0  0  0  0  0  0  0  0  0  0
   -1.0511    2.0594    0.2249 H   0  0  0  0  0  0  0  0  0  0  0  0
   -7.1476    0.2724   -0.3143 H   0  0  0  0  0  0  0  0  0  0  0  0
   -9.0628   -1.3406   -0.4930 H   0  0  0  0  0  0  0  0  0  0  0  0
   -8.6147   -3.7833   -0.8585 H   0  0  0  0  0  0  0  0  0  0  0  0
   -6.2495   -4.5908   -1.0796 H   0  0  0  0  0  0  0  0  0  0  0  0
   -4.3568   -2.9773   -0.9418 H   0  0  0  0  0  0  0  0  0  0  0  0
   -1.3248    2.9177   -1.5753 H   0  0  0  0  0  0  0  0  0  0  0  0
   -1.1342    5.3741   -1.9348 H   0  0  0  0  0  0  0  0  0  0  0  0
   -3.1213    6.8662   -1.5706 H   0  0  0  0  0  0  0  0  0  0  0  0
   -5.3028    5.8625   -0.8356 H   0  0  0  0  0  0  0  0  0  0  0  0
   -5.4707    3.3878   -0.4105 H   0  0  0  0  0  0  0  0  0  0  0  0
   -1.9047   -3.1745    2.2711 H   0  0  0  0  0  0  0  0  0  0  0  0
    0.4100   -3.8702    0.3402 H   0  0  0  0  0  0  0  0  0  0  0  0
   -1.3242   -4.2022    0.1029 H   0  0  0  0  0  0  0  0  0  0  0  0
   -0.4389   -4.9574    1.4673 H   0  0  0  0  0  0  0  0  0  0  0  0
    0.1456   -3.5186    3.5458 H   0  0  0  0  0  0  0  0  0  0  0  0
   -0.3549   -1.7965    3.5933 H   0  0  0  0  0  0  0  0  0  0  0  0
    1.0252   -2.2863    2.5701 H   0  0  0  0  0  0  0  0  0  0  0  0
  1 21  1  0  0  0  0
  2 24  1  0  0  0  0
  2  1  1  0  0  0  0
  3  2  1  0  0  0  0
  4  3  1  0  0  0  0
  5  6  1  0  0  0  0
  5  4  2  0  0  0  0
  6  7  1  0  0  0  0
  7  3  2  0  0  0  0
  7  8  1  0  0  0  0
  9 10  1  0  0  0  0
  9  4  1  0  0  0  0
 10 26  1  0  0  0  0
 11 27  1  0  0  0  0
 11 10  2  0  0  0  0
 12 11  1  0  0  0  0
 13 14  1  0  0  0  0
 13 12  2  0  0  0  0
 14  9  2  0  0  0  0
 15 20  1  0  0  0  0
 15  6  1  0  0  0  0
 16 15  2  0  0  0  0
 17 18  2  0  0  0  0
 17 16  1  0  0  0  0
 18 19  1  0  0  0  0
 19 34  1  0  0  0  0
 19 20  2  0  0  0  0
 20 35  1  0  0  0  0
 21 36  1  0  0  0  0
 21 23  1  0  0  0  0
 22 39  1  0  0  0  0
 22 21  1  0  0  0  0
 23 40  1  0  0  0  0
 23 41  1  0  0  0  0
 25  8  1  0  0  0  0
 28 12  1  0  0  0  0
 29 13  1  0  0  0  0
 30 14  1  0  0  0  0
 31 16  1  0  0  0  0
 32 17  1  0  0  0  0
 33 18  1  0  0  0  0
 37 22  1  0  0  0  0
 38 22  1  0  0  0  0
 42 23  1  0  0  0  0
M  END
