3,5
q = -1.0

 30 32  0  0  0  0  0  0  0  0999 V2000
   -3.5209   -3.5223   -1.2648 O   0  0  0  0  0  0  0  0  0  0  0  0
   -0.3122    2.8223    0.7568 N   0  0  0  0  0  0  0  0  0  0  0  0
   -0.8884    1.6556    0.4945 N   0  0  0  0  0  2  0  0  0  0  0  0
   -2.7778    0.3234    0.1898 N   0  0  0  0  0  0  0  0  0  0  0  0
   -1.8000   -0.6055    0.0433 N   0  0  0  0  0  2  0  0  0  0  0  0
   -1.0264    3.8985    1.0113 C   0  0  0  0  0  0  0  0  0  0  0  0
   -0.4571    4.8208    1.2117 H   0  0  0  0  0  0  0  0  0  0  0  0
   -2.4626    3.8991    1.0294 C   0  0  0  0  0  0  0  0  0  0  0  0
   -3.2448    5.0478    1.3087 C   0  0  0  0  0  0  0  0  0  0  0  0
   -2.7389    6.0010    1.5270 H   0  0  0  0  0  0  0  0  0  0  0  0
   -4.6357    4.9647    1.3060 C   0  0  0  0  0  0  0  0  0  0  0  0
   -5.2400    5.8585    1.5232 H   0  0  0  0  0  0  0  0  0  0  0  0
   -5.2767    3.7336    1.0297 C   0  0  0  0  0  0  0  0  0  0  0  0
   -6.3756    3.6766    1.0378 H   0  0  0  0  0  0  0  0  0  0  0  0
   -4.5247    2.5924    0.7520 C   0  0  0  0  0  0  0  0  0  0  0  0
   -5.0045    1.6254    0.5468 H   0  0  0  0  0  0  0  0  0  0  0  0
   -3.1128    2.6628    0.7446 C   0  0  0  0  0  0  0  0  0  0  0  0
   -2.2708    1.5128    0.4658 C   0  0  0  0  0  0  0  0  0  0  0  0
   -2.1402   -1.7933   -0.4251 C   0  0  0  0  0  3  0  0  0  0  0  0
   -1.3456   -2.5550   -0.4021 H   0  0  0  0  0  0  0  0  0  0  0  0
   -3.4347   -2.1988   -0.8631 C   0  0  0  0  0  0  0  0  0  0  0  0
   -4.6844   -1.5998   -1.0210 C   0  0  0  0  0  0  0  0  0  0  0  0
   -4.9007   -0.5560   -0.7842 H   0  0  0  0  0  0  0  0  0  0  0  0
   -5.5525   -2.6030   -1.5364 C   0  0  0  0  0  0  0  0  0  0  0  0
   -6.6141   -2.4999   -1.7871 H   0  0  0  0  0  0  0  0  0  0  0  0
   -4.7980   -3.7586   -1.6673 C   0  0  0  0  0  0  0  0  0  0  0  0
   -5.1147   -5.1311   -2.1404 C   0  0  0  0  0  0  0  0  0  0  0  0
   -4.9301   -5.8854   -1.3465 H   0  0  0  0  0  0  0  0  0  0  0  0
   -4.4859   -5.4141   -3.0109 H   0  0  0  0  0  0  0  0  0  0  0  0
   -6.1764   -5.1945   -2.4415 H   0  0  0  0  0  0  0  0  0  0  0  0
  1 21  1  0  0  0  0
  2  6  2  0  0  0  0
  3  2  1  0  0  0  0
  4 18  2  0  0  0  0
  5  4  1  0  0  0  0
  6  8  1  0  0  0  0
  6  7  1  0  0  0  0
  8  9  1  0  0  0  0
  9 10  1  0  0  0  0
 11  9  2  0  0  0  0
 11 12  1  0  0  0  0
 13 14  1  0  0  0  0
 13 11  1  0  0  0  0
 15 13  2  0  0  0  0
 16 15  1  0  0  0  0
 17 15  1  0  0  0  0
 17  8  2  0  0  0  0
 18  3  1  0  0  0  0
 18 17  1  0  0  0  0
 19 20  1  0  0  0  0
 19  5  1  0  0  0  0
 21 19  1  0  0  0  0
 22 21  2  0  0  0  0
 22 23  1  0  0  0  0
 24 22  1  0  0  0  0
 25 24  1  0  0  0  0
 26 24  2  0  0  0  0
 26  1  1  0  0  0  0
 27 26  1  0  0  0  0
 27 28  1  0  0  0  0
 29 27  1  0  0  0  0
 30 27  1  0  0  0  0
M  END
