30,31
q = 0.0, confidence = 0.996

 31 33  0  0  0  0  0  0  0  0999 V2000
   -3.3094    0.1306   -0.2282 C   0  0  0  0  0  0  0  0  0  0  0  0
   -4.4179    0.9969   -0.1576 C   0  0  0  0  0  0  0  0  0  0  0  0
   -4.6401    1.6715   -1.0009 H   0  0  0  0  0  0  0  0  0  0  0  0
   -5.2500    0.9985    0.9717 C   0  0  0  0  0  0  0  0  0  0  0  0
   -6.1173    1.6748    1.0143 H   0  0  0  0  0  0  0  0  0  0  0  0
   -4.9779    0.1312    2.0419 C   0  0  0  0  0  0  0  0  0  0  0  0
   -5.6302    0.1297    2.9286 H   0  0  0  0  0  0  0  0  0  0  0  0
   -3.8796   -0.7409    1.9732 C   0  0  0  0  0  0  0  0  0  0  0  0
   -3.6707   -1.4317    2.8042 H   0  0  0  0  0  0  0  0  0  0  0  0
   -3.0469   -0.7455    0.8442 C   0  0  0  0  0  0  0  0  0  0  0  0
   -2.1984   -1.4445    0.7683 H   0  0  0  0  0  0  0  0  0  0  0  0
   -2.3818    0.1633   -1.4258 C   0  0  0  0  0  0  0  0  0  0  0  0
   -1.9202   -0.8310   -1.6037 H   0  0  0  0  0  0  0  0  0  0  0  0
   -2.9156    0.4961   -2.3367 H   0  0  0  0  0  0  0  0  0  0  0  0
   -1.3522    2.4672   -1.3673 C   0  0  0  0  0  0  0  0  0  0  0  0
   -2.2578    2.9326   -1.7688 H   0  0  0  0  0  0  0  0  0  0  0  0
   -0.1594    3.0174   -0.9119 C   0  0  0  0  0  0  0  0  0  0  0  0
    0.1177    4.0751   -0.8912 H   0  0  0  0  0  0  0  0  0  0  0  0
    0.6086    1.9044   -0.4950 C   0  0  0  0  0  0  0  0  0  0  0  0
    1.9346    1.7696    0.0839 C   0  0  0  0  0  0  0  0  0  0  0  0
    2.7790    2.8505    0.3913 C   0  0  0  0  0  0  0  0  0  0  0  0
    2.4447    3.8754    0.1792 H   0  0  0  0  0  0  0  0  0  0  0  0
    4.0295    2.5986    0.9650 C   0  0  0  0  0  0  0  0  0  0  0  0
    4.7039    3.4314    1.2136 H   0  0  0  0  0  0  0  0  0  0  0  0
    4.4053    1.2700    1.2173 C   0  0  0  0  0  0  0  0  0  0  0  0
    5.3770    1.0241    1.6680 H   0  0  0  0  0  0  0  0  0  0  0  0
    3.5235    0.2361    0.8856 C   0  0  0  0  0  0  0  0  0  0  0  0
    3.7456   -0.8338    1.0424 H   0  0  0  0  0  0  0  0  0  0  0  0
   -1.2742    1.1109   -1.2289 N   0  0  0  0  0  0  0  0  0  0  0  0
   -0.0917    0.7548   -0.6971 N   0  0  0  0  0  2  0  0  0  0  0  0
    2.3180    0.4798    0.3316 N   0  0  0  0  0  2  0  0  0  0  0  0
  1  2  2  0  0  0  0
  1 10  1  0  0  0  0
  2  4  1  0  0  0  0
  3  2  1  0  0  0  0
  4  5  1  0  0  0  0
  4  6  2  0  0  0  0
  6  7  1  0  0  0  0
  8  6  1  0  0  0  0
  8  9  1  0  0  0  0
 10  8  2  0  0  0  0
 11 10  1  0  0  0  0
 12 29  1  0  0  0  0
 12  1  1  0  0  0  0
 13 12  1  0  0  0  0
 14 12  1  0  0  0  0
 15 29  1  0  0  0  0
 15 17  2  0  0  0  0
 16 15  1  0  0  0  0
 17 18  1  0  0  0  0
 17 19  1  0  0  0  0
 19 20  2  0  0  0  0
 20 31  1  0  0  0  0
 20 21  1  0  0  0  0
 21 23  2  0  0  0  0
 22 21  1  0  0  0  0
 23 24  1  0  0  0  0
 23 25  1  0  0  0  0
 25 26  1  0  0  0  0
 27 28  1  0  0  0  0
 27 25  2  0  0  0  0
 29 30  1  0  0  0  0
 30 19  1  0  0  0  0
 31 27  1  0  0  0  0
M  END
