1,2
q = 0.0, confidence = 0.932

 16 17  0  0  1  0  0  0  0  0999 V2000
   -1.0484    1.1216    0.1455 N   0  0  0  0  0  2  0  0  0  0  0  0
   -1.0485   -1.1216    0.1456 N   0  0  0  0  0  2  0  0  0  0  0  0
   -1.8225    0.0000    0.1340 C   0  0  2  0  0  3  0  0  0  0  0  0
   -1.6504   -2.3061    0.1069 C   0  0  0  0  0  3  0  0  0  0  0  0
   -3.0676   -2.4205    0.0738 C   0  0  0  0  0  0  0  0  0  0  0  0
   -3.8643   -1.2816    0.0693 C   0  0  0  0  0  0  0  0  0  0  0  0
   -3.2394    0.0000    0.0936 C   0  0  0  0  0  0  0  0  0  0  0  0
   -3.8643    1.2817    0.0692 C   0  0  0  0  0  0  0  0  0  0  0  0
   -3.0675    2.4205    0.0736 C   0  0  0  0  0  0  0  0  0  0  0  0
   -1.6503    2.3061    0.1068 C   0  0  0  0  0  0  0  0  0  0  0  0
   -1.0006   -3.1947    0.0963 H   0  0  0  0  0  0  0  0  0  0  0  0
   -3.5188   -3.4223    0.0450 H   0  0  0  0  0  0  0  0  0  0  0  0
   -4.9618   -1.3574    0.0396 H   0  0  0  0  0  0  0  0  0  0  0  0
   -4.9618    1.3575    0.0395 H   0  0  0  0  0  0  0  0  0  0  0  0
   -3.5187    3.4223    0.0448 H   0  0  0  0  0  0  0  0  0  0  0  0
   -1.0005    3.1947    0.0961 H   0  0  0  0  0  0  0  0  0  0  0  0
  3  7  1  6  0  0  0
  3  1  1  0  0  0  0
  3  2  1  0  0  0  0
  4  2  1  0  0  0  0
  5  4  1  0  0  0  0
  6  5  2  0  0  0  0
  6  7  1  0  0  0  0
  8  9  1  0  0  0  0
  8  7  2  0  0  0  0
  9 10  2  0  0  0  0
 10  1  1  0  0  0  0
 11  4  1  0  0  0  0
 12  5  1  0  0  0  0
 13  6  1  0  0  0  0
 14  8  1  0  0  0  0
 15  9  1  0  0  0  0
 16 10  1  0  0  0  0
M  END
