1,4
q = -1.0, confidence = 0.09

 23 24  0  0  1  0  0  0  0  0999 V2000
   -1.3090   -1.3144    0.0021 N   0  0  0  0  0  2  0  0  0  0  0  0
   -1.0793   -2.3219    0.0021 H   0  0  0  0  0  0  0  0  0  0  0  0
   -3.3082   -0.0000    0.0002 N   0  0  0  0  0  0  0  0  0  0  0  0
   -1.3090    1.3144   -0.0025 N   0  0  0  0  0  2  0  0  0  0  0  0
   -1.0793    2.3219   -0.0032 H   0  0  0  0  0  0  0  0  0  0  0  0
   -3.4156   -2.3228    0.0002 N   0  0  0  0  0  0  0  0  0  0  0  0
   -2.8170   -3.5360    0.0012 N   0  0  0  0  0  0  0  0  0  0  0  0
   -3.4156    2.3228   -0.0004 N   0  0  0  0  0  0  0  0  0  0  0  0
   -2.8170    3.5360   -0.0017 N   0  0  0  0  0  0  0  0  0  0  0  0
   -2.6146   -1.1422    0.0008 C   0  0  2  0  0  3  0  0  0  0  0  0
   -2.6146    1.1422   -0.0008 C   0  0  0  0  0  0  0  0  0  0  0  0
   -4.7865   -2.4070   -0.0017 C   0  0  0  0  0  0  0  0  0  0  0  0
   -5.3961   -1.4999   -0.0028 H   0  0  0  0  0  0  0  0  0  0  0  0
   -5.0893   -3.7611   -0.0019 C   0  0  0  0  0  0  0  0  0  0  0  0
   -6.0849   -4.2165   -0.0033 H   0  0  0  0  0  0  0  0  0  0  0  0
   -3.8229   -4.4135   -0.0001 C   0  0  0  0  0  0  0  0  0  0  0  0
   -3.6054   -5.4893    0.0004 H   0  0  0  0  0  0  0  0  0  0  0  0
   -4.7865    2.4070    0.0017 C   0  0  0  0  0  0  0  0  0  0  0  0
   -5.3961    1.4999    0.0030 H   0  0  0  0  0  0  0  0  0  0  0  0
   -5.0893    3.7611    0.0016 C   0  0  0  0  0  0  0  0  0  0  0  0
   -6.0849    4.2165    0.0029 H   0  0  0  0  0  0  0  0  0  0  0  0
   -3.8229    4.4135   -0.0005 C   0  0  0  0  0  0  0  0  0  0  0  0
   -3.6054    5.4893   -0.0012 H   0  0  0  0  0  0  0  0  0  0  0  0
  1  2  1  0  0  0  0
  4 11  1  0  0  0  0
  5  4  1  0  0  0  0
  6 10  1  0  0  0  0
  6  7  1  0  0  0  0
  8 18  1  0  0  0  0
  9 22  2  0  0  0  0
  9  8  1  0  0  0  0
 10  3  1  1  0  0  0
 10  1  1  0  0  0  0
 11  8  1  0  0  0  0
 11  3  2  0  0  0  0
 12  6  1  0  0  0  0
 13 12  1  0  0  0  0
 14 12  2  0  0  0  0
 14 16  1  0  0  0  0
 15 14  1  0  0  0  0
 16 17  1  0  0  0  0
 16  7  2  0  0  0  0
 18 19  1  0  0  0  0
 20 18  2  0  0  0  0
 20 21  1  0  0  0  0
 22 20  1  0  0  0  0
 23 22  1  0  0  0  0
M  END
