2,4
q = -1.0

 24 25  0  0  0  0  0  0  0  0999 V2000
    0.8752   -3.1606   -0.7619 O   0  0  0  0  0  0  0  0  0  0  0  0
   -1.7580   -0.7475   -0.8005 N   0  0  0  0  0  2  0  0  0  0  0  0
    1.9361   -1.9718    2.1487 Cl  0  0  0  0  0  0  0  0  0  0  0  0
    0.8048   -0.8464   -0.4624 N   0  0  0  0  0  2  0  0  0  0  0  0
   -3.0755   -0.5889   -1.0562 C   0  0  0  0  0  3  0  0  0  0  0  0
   -3.4578    0.4404   -1.0187 H   0  0  0  0  0  0  0  0  0  0  0  0
   -3.9025   -1.6713   -1.3697 C   0  0  0  0  0  0  0  0  0  0  0  0
   -4.9699   -1.4944   -1.5628 H   0  0  0  0  0  0  0  0  0  0  0  0
   -3.3468   -2.9602   -1.4431 C   0  0  0  0  0  0  0  0  0  0  0  0
   -3.9766   -3.8278   -1.6904 H   0  0  0  0  0  0  0  0  0  0  0  0
   -1.9760   -3.1115   -1.2138 C   0  0  0  0  0  0  0  0  0  0  0  0
   -1.4443   -4.0724   -1.2732 H   0  0  0  0  0  0  0  0  0  0  0  0
   -1.2078   -1.9842   -0.9000 C   0  0  0  0  0  0  0  0  0  0  0  0
    0.2760   -2.0828   -0.6930 C   0  0  0  0  0  0  0  0  0  0  0  0
    2.1919   -0.7029   -0.2730 C   0  0  0  0  0  0  0  0  0  0  0  0
    2.9613   -0.0139   -1.2366 C   0  0  0  0  0  0  0  0  0  0  0  0
    2.4293    0.3495   -2.1293 H   0  0  0  0  0  0  0  0  0  0  0  0
    4.3324    0.1973   -1.0508 C   0  0  0  0  0  0  0  0  0  0  0  0
    4.9113    0.7327   -1.8185 H   0  0  0  0  0  0  0  0  0  0  0  0
    4.9689   -0.2842    0.1064 C   0  0  0  0  0  0  0  0  0  0  0  0
    6.0476   -0.1281    0.2575 H   0  0  0  0  0  0  0  0  0  0  0  0
    4.2272   -0.9710    1.0776 C   0  0  0  0  0  0  0  0  0  0  0  0
    4.7025   -1.3519    1.9927 H   0  0  0  0  0  0  0  0  0  0  0  0
    2.8503   -1.1711    0.8899 C   0  0  0  0  0  0  0  0  0  0  0  0
  1 14  2  0  0  0  0
  4 15  1  0  0  0  0
  5  6  1  0  0  0  0
  5  2  1  0  0  0  0
  7  5  1  0  0  0  0
  8  7  1  0  0  0  0
  9  7  2  0  0  0  0
  9 11  1  0  0  0  0
 10  9  1  0  0  0  0
 11 13  2  0  0  0  0
 12 11  1  0  0  0  0
 13  2  1  0  0  0  0
 13 14  1  0  0  0  0
 14  4  1  0  0  0  0
 15 24  1  0  0  0  0
 16 18  1  0  0  0  0
 16 15  2  0  0  0  0
 17 16  1  0  0  0  0
 18 20  2  0  0  0  0
 19 18  1  0  0  0  0
 20 21  1  0  0  0  0
 20 22  1  0  0  0  0
 22 23  1  0  0  0  0
 24 22  2  0  0  0  0
 24  3  1  0  0  0  0
M  END
