1,4
q = -1.0

 30 32  0  0  0  0  0  0  0  0999 V2000
    1.5318   -0.4247   -0.7260 N   0  0  0  0  0  2  0  0  0  0  0  0
   -2.8748    1.6381   -1.9974 Cl  0  0  0  0  0  0  0  0  0  0  0  0
   -1.0208   -2.4628   -2.1437 O   0  0  0  0  0  0  0  0  0  0  0  0
   -1.0904   -0.5344   -0.8344 N   0  0  0  0  0  2  0  0  0  0  0  0
   -1.8974   -2.9222    0.8644 Cl  0  0  0  0  0  0  0  0  0  0  0  0
    2.9016   -0.2462   -0.7165 C   0  0  0  0  0  0  0  0  0  0  0  0
    3.7701   -1.2714   -1.2407 C   0  0  0  0  0  0  0  0  0  0  0  0
    3.1830   -2.4034   -1.8751 C   0  0  0  0  0  0  0  0  0  0  0  0
    3.8342   -3.1942   -2.2785 H   0  0  0  0  0  0  0  0  0  0  0  0
    1.8108   -2.4641   -2.0058 C   0  0  0  0  0  0  0  0  0  0  0  0
    1.2704   -3.2675   -2.5261 H   0  0  0  0  0  0  0  0  0  0  0  0
    1.0162   -1.4536   -1.4134 C   0  0  0  0  0  0  0  0  0  0  0  0
   -0.4756   -1.5489   -1.5170 C   0  0  0  0  0  0  0  0  0  0  0  0
   -2.4678   -0.6670   -0.5976 C   0  0  0  0  0  0  0  0  0  0  0  0
   -3.4187    0.2805   -1.0612 C   0  0  0  0  0  0  0  0  0  0  0  0
   -4.7906    0.1587   -0.7892 C   0  0  0  0  0  0  0  0  0  0  0  0
   -5.4774    0.9210   -1.1815 H   0  0  0  0  0  0  0  0  0  0  0  0
   -5.2592   -0.9299   -0.0435 C   0  0  0  0  0  0  0  0  0  0  0  0
   -6.3344   -1.0331    0.1636 H   0  0  0  0  0  0  0  0  0  0  0  0
   -4.3586   -1.8882    0.4395 C   0  0  0  0  0  0  0  0  0  0  0  0
   -4.7006   -2.7454    1.0354 H   0  0  0  0  0  0  0  0  0  0  0  0
   -2.9907   -1.7457    0.1703 C   0  0  0  0  0  0  0  0  0  0  0  0
    3.4820    0.9569   -0.2321 C   0  0  0  0  0  0  0  0  0  0  0  0
    2.8073    1.7785    0.0293 H   0  0  0  0  0  0  0  0  0  0  0  0
    4.8612    1.1044   -0.1816 C   0  0  0  0  0  0  0  0  0  0  0  0
    5.2915    2.0515    0.1774 H   0  0  0  0  0  0  0  0  0  0  0  0
    5.7209    0.0604   -0.6113 C   0  0  0  0  0  0  0  0  0  0  0  0
    6.8120    0.1871   -0.5512 H   0  0  0  0  0  0  0  0  0  0  0  0
    5.1807   -1.0992   -1.1458 C   0  0  0  0  0  3  0  0  0  0  0  0
    5.8322   -1.8995   -1.5291 H   0  0  0  0  0  0  0  0  0  0  0  0
  1  6  1  0  0  0  0
  2 15  1  0  0  0  0
  3 13  2  0  0  0  0
  4 14  1  0  0  0  0
  6 23  2  0  0  0  0
  7 29  1  0  0  0  0
  7  6  1  0  0  0  0
  8  7  2  0  0  0  0
  9  8  1  0  0  0  0
 10  8  1  0  0  0  0
 10 12  2  0  0  0  0
 11 10  1  0  0  0  0
 12  1  1  0  0  0  0
 13 12  1  0  0  0  0
 13  4  1  0  0  0  0
 14 22  1  0  0  0  0
 15 16  1  0  0  0  0
 15 14  2  0  0  0  0
 16 18  2  0  0  0  0
 17 16  1  0  0  0  0
 18 19  1  0  0  0  0
 18 20  1  0  0  0  0
 20 21  1  0  0  0  0
 22 20  2  0  0  0  0
 22  5  1  0  0  0  0
 23 25  1  0  0  0  0
 23 24  1  0  0  0  0
 25 26  1  0  0  0  0
 27 28  1  0  0  0  0
 27 25  2  0  0  0  0
 29 27  1  0  0  0  0
 30 29  1  0  0  0  0
M  END
