1,4
q = -1.0

 24 25  0  0  0  0  0  0  0  0999 V2000
    2.2108   -0.1710   -0.9115 N   0  0  0  0  0  2  0  0  0  0  0  0
   -4.9102    1.5280   -1.1031 Cl  0  0  0  0  0  0  0  0  0  0  0  0
   -0.1435   -2.5632   -2.1233 O   0  0  0  0  0  0  0  0  0  0  0  0
   -0.3099   -0.7305   -0.6859 N   0  0  0  0  0  2  0  0  0  0  0  0
   -1.3130   -3.2903    0.7164 Cl  0  0  0  0  0  0  0  0  0  0  0  0
    3.5015    0.2183   -0.9997 C   0  0  0  0  0  3  0  0  0  0  0  0
    3.7724    1.1342   -0.4559 H   0  0  0  0  0  0  0  0  0  0  0  0
    4.4369   -0.4952   -1.7538 C   0  0  0  0  0  0  0  0  0  0  0  0
    5.4777   -0.1441   -1.7929 H   0  0  0  0  0  0  0  0  0  0  0  0
    4.0219   -1.6408   -2.4552 C   0  0  0  0  0  0  0  0  0  0  0  0
    4.7386   -2.2163   -3.0599 H   0  0  0  0  0  0  0  0  0  0  0  0
    2.6796   -2.0232   -2.3789 C   0  0  0  0  0  0  0  0  0  0  0  0
    2.2567   -2.8901   -2.9072 H   0  0  0  0  0  0  0  0  0  0  0  0
    1.7983   -1.2652   -1.5984 C   0  0  0  0  0  0  0  0  0  0  0  0
    0.3413   -1.6115   -1.5054 C   0  0  0  0  0  0  0  0  0  0  0  0
   -1.6972   -0.8504   -0.4964 C   0  0  0  0  0  0  0  0  0  0  0  0
   -2.5353    0.2176   -0.8880 C   0  0  0  0  0  0  0  0  0  0  0  0
   -2.0658    1.0768   -1.3900 H   0  0  0  0  0  0  0  0  0  0  0  0
   -3.9106    0.1680   -0.6447 C   0  0  0  0  0  0  0  0  0  0  0  0
   -4.5012   -0.9518   -0.0333 C   0  0  0  0  0  0  0  0  0  0  0  0
   -5.5846   -0.9789    0.1460 H   0  0  0  0  0  0  0  0  0  0  0  0
   -3.6827   -2.0220    0.3462 C   0  0  0  0  0  0  0  0  0  0  0  0
   -4.1144   -2.9072    0.8342 H   0  0  0  0  0  0  0  0  0  0  0  0
   -2.2954   -1.9720    0.1324 C   0  0  0  0  0  0  0  0  0  0  0  0
  2 19  1  0  0  0  0
  3 15  2  0  0  0  0
  4 16  1  0  0  0  0
  6  1  1  0  0  0  0
  6  7  1  0  0  0  0
  8  6  1  0  0  0  0
  9  8  1  0  0  0  0
 10 12  1  0  0  0  0
 10  8  2  0  0  0  0
 11 10  1  0  0  0  0
 12 14  2  0  0  0  0
 13 12  1  0  0  0  0
 14 15  1  0  0  0  0
 14  1  1  0  0  0  0
 15  4  1  0  0  0  0
 16 24  1  0  0  0  0
 17 19  1  0  0  0  0
 17 16  2  0  0  0  0
 18 17  1  0  0  0  0
 19 20  2  0  0  0  0
 20 21  1  0  0  0  0
 20 22  1  0  0  0  0
 22 23  1  0  0  0  0
 24 22  2  0  0  0  0
 24  5  1  0  0  0  0
M  END
