2,3
q = 0.0, confidence = 1.0

 28 29  0  0  0  0  0  0  0  0999 V2000
    1.8180   -0.8786   -1.0388 O   0  0  0  0  0  0  0  0  0  0  0  0
   -2.1034    1.0545   -0.0257 N   0  0  0  0  0  2  0  0  0  0  0  0
    0.6034    1.3947   -0.4548 N   0  0  0  0  0  2  0  0  0  0  0  0
   -3.4221    0.8656    0.0910 C   0  0  0  0  0  3  0  0  0  0  0  0
   -3.7462   -0.1664    0.3069 H   0  0  0  0  0  0  0  0  0  0  0  0
   -4.3492    1.9109   -0.0640 C   0  0  0  0  0  0  0  0  0  0  0  0
   -5.4251    1.7135    0.0448 H   0  0  0  0  0  0  0  0  0  0  0  0
   -3.8669    3.1947   -0.3571 C   0  0  0  0  0  0  0  0  0  0  0  0
   -4.5612    4.0390   -0.4822 H   0  0  0  0  0  0  0  0  0  0  0  0
   -2.4867    3.3864   -0.4978 C   0  0  0  0  0  0  0  0  0  0  0  0
   -2.0703    4.3753   -0.7418 H   0  0  0  0  0  0  0  0  0  0  0  0
   -1.6237    2.2832   -0.3321 C   0  0  0  0  0  0  0  0  0  0  0  0
   -0.1727    2.4266   -0.5126 C   0  0  0  0  0  3  0  0  0  0  0  0
    0.2030    3.4502   -0.7240 H   0  0  0  0  0  0  0  0  0  0  0  0
    1.9893    1.4256   -0.5628 C   0  0  0  0  0  0  0  0  0  0  0  0
    2.7846    2.5753   -0.3593 C   0  0  0  0  0  0  0  0  0  0  0  0
    2.2965    3.5245   -0.0937 H   0  0  0  0  0  0  0  0  0  0  0  0
    4.1775    2.5090   -0.4394 C   0  0  0  0  0  0  0  0  0  0  0  0
    4.7834    3.4091   -0.2623 H   0  0  0  0  0  0  0  0  0  0  0  0
    4.7990    1.2791   -0.7208 C   0  0  0  0  0  0  0  0  0  0  0  0
    5.8963    1.2180   -0.7758 H   0  0  0  0  0  0  0  0  0  0  0  0
    4.0400    0.1177   -0.9171 C   0  0  0  0  0  0  0  0  0  0  0  0
    4.5411   -0.8366   -1.1234 H   0  0  0  0  0  0  0  0  0  0  0  0
    2.6361    0.1775   -0.8434 C   0  0  0  0  0  0  0  0  0  0  0  0
    2.3568   -2.1870   -1.2328 C   0  0  0  0  0  0  0  0  0  0  0  0
    2.9809   -2.2229   -2.1501 H   0  0  0  0  0  0  0  0  0  0  0  0
    1.4754   -2.8449   -1.3519 H   0  0  0  0  0  0  0  0  0  0  0  0
    2.9522   -2.5019   -0.3505 H   0  0  0  0  0  0  0  0  0  0  0  0
  1 24  1  0  0  0  0
  2  4  1  0  0  0  0
  4  5  1  0  0  0  0
  6  7  1  0  0  0  0
  6  4  1  0  0  0  0
  8  6  2  0  0  0  0
  9  8  1  0  0  0  0
 10  8  1  0  0  0  0
 10 12  2  0  0  0  0
 11 10  1  0  0  0  0
 12  2  1  0  0  0  0
 13  3  1  0  0  0  0
 13 12  1  0  0  0  0
 14 13  1  0  0  0  0
 15  3  1  0  0  0  0
 15 16  1  0  0  0  0
 16 17  1  0  0  0  0
 18 16  2  0  0  0  0
 18 19  1  0  0  0  0
 20 18  1  0  0  0  0
 21 20  1  0  0  0  0
 22 24  1  0  0  0  0
 22 20  2  0  0  0  0
 23 22  1  0  0  0  0
 24 15  2  0  0  0  0
 25  1  1  0  0  0  0
 25 28  1  0  0  0  0
 26 25  1  0  0  0  0
 27 25  1  0  0  0  0
M  END
