1,2
q = 0.0, confidence = 0.95

 52 55  0  0  1  0  0  0  0  0999 V2000
    0.6891    0.1991   -0.2054 N   0  0  0  0  0  2  0  0  0  0  0  0
   -1.7651   -0.0240   -0.0089 N   0  0  0  0  0  2  0  0  0  0  0  0
    6.4052   -0.1828    0.2874 C   0  0  0  0  0  0  0  0  0  0  0  0
    6.8562    0.7637    0.6492 H   0  0  0  0  0  0  0  0  0  0  0  0
    6.6624   -0.9651    1.0333 H   0  0  0  0  0  0  0  0  0  0  0  0
    6.8963   -0.4580   -0.6660 H   0  0  0  0  0  0  0  0  0  0  0  0
    2.1082    0.1174   -0.1114 C   0  0  0  0  0  0  0  0  0  0  0  0
   -1.3632    1.1666   -0.5569 C   0  0  0  0  0  0  0  0  0  0  0  0
    0.0515    1.2886   -0.6571 C   0  0  2  0  0  3  0  0  0  0  0  0
   -4.0781    0.7272   -0.1996 C   0  0  0  0  0  0  0  0  0  0  0  0
   -3.6245    1.9593   -0.7735 C   0  0  0  0  0  0  0  0  0  0  0  0
   -4.3673    2.7190   -1.0629 H   0  0  0  0  0  0  0  0  0  0  0  0
   -3.1110   -0.2702    0.1815 C   0  0  0  0  0  0  0  0  0  0  0  0
   -3.5425   -1.4940    0.7506 C   0  0  0  0  0  0  0  0  0  0  0  0
   -2.7897   -2.2378    1.0463 H   0  0  0  0  0  0  0  0  0  0  0  0
   -2.2742    2.1865   -0.9627 C   0  0  0  0  0  0  0  0  0  0  0  0
    0.6853    2.5255   -1.2229 C   0  0  0  0  0  0  0  0  0  0  0  0
    1.6652    2.7140   -0.7390 H   0  0  0  0  0  0  0  0  0  0  0  0
    0.9077    2.3617   -2.3035 H   0  0  0  0  0  0  0  0  0  0  0  0
   -4.8987   -1.7346    0.9407 C   0  0  0  0  0  0  0  0  0  0  0  0
   -5.2234   -2.6870    1.3853 H   0  0  0  0  0  0  0  0  0  0  0  0
    4.1346    0.5355    1.1478 C   0  0  0  0  0  0  0  0  0  0  0  0
    4.6438    0.9299    2.0392 H   0  0  0  0  0  0  0  0  0  0  0  0
    2.7408    0.6477    1.0530 C   0  0  0  0  0  0  0  0  0  0  0  0
   -5.8610   -0.7642    0.5689 C   0  0  0  0  0  0  0  0  0  0  0  0
   -6.9313   -0.9665    0.7235 H   0  0  0  0  0  0  0  0  0  0  0  0
    2.8580   -0.4560   -1.1676 C   0  0  0  0  0  0  0  0  0  0  0  0
   -1.6755    3.4250   -1.5908 C   0  0  0  0  0  0  0  0  0  0  0  0
   -1.6223    3.2731   -2.6936 H   0  0  0  0  0  0  0  0  0  0  0  0
   -2.3491    4.2917   -1.4327 H   0  0  0  0  0  0  0  0  0  0  0  0
   -5.4544    0.4430    0.0109 C   0  0  0  0  0  3  0  0  0  0  0  0
   -6.1963    1.2029   -0.2795 H   0  0  0  0  0  0  0  0  0  0  0  0
    4.2554   -0.5342   -1.0139 C   0  0  0  0  0  0  0  0  0  0  0  0
    4.8527   -0.9746   -1.8282 H   0  0  0  0  0  0  0  0  0  0  0  0
   -0.2643    3.7253   -1.0575 C   0  0  0  0  0  0  0  0  0  0  0  0
   -0.3315    3.9849    0.0210 H   0  0  0  0  0  0  0  0  0  0  0  0
    0.1552    4.6105   -1.5760 H   0  0  0  0  0  0  0  0  0  0  0  0
    4.9110   -0.0595    0.1317 C   0  0  0  0  0  0  0  0  0  0  0  0
    2.2113   -0.9428   -2.4479 C   0  0  0  0  0  0  0  0  0  0  0  0
    1.1136   -0.8204   -2.3839 H   0  0  0  0  0  0  0  0  0  0  0  0
    2.5579   -0.2863   -3.2778 H   0  0  0  0  0  0  0  0  0  0  0  0
    1.9115    1.3211    2.1246 C   0  0  0  0  0  0  0  0  0  0  0  0
    1.3337    2.1489    1.6550 H   0  0  0  0  0  0  0  0  0  0  0  0
    1.1320    0.6021    2.4590 H   0  0  0  0  0  0  0  0  0  0  0  0
    2.6730    1.8558    3.3338 C   0  0  0  0  0  0  0  0  0  0  0  0
    1.9711    2.3232    4.0521 H   0  0  0  0  0  0  0  0  0  0  0  0
    3.2032    1.0448    3.8734 H   0  0  0  0  0  0  0  0  0  0  0  0
    3.4248    2.6229    3.0549 H   0  0  0  0  0  0  0  0  0  0  0  0
    2.5269   -2.4049   -2.7877 C   0  0  0  0  0  0  0  0  0  0  0  0
    2.0366   -2.6974   -3.7374 H   0  0  0  0  0  0  0  0  0  0  0  0
    3.6158   -2.5818   -2.9010 H   0  0  0  0  0  0  0  0  0  0  0  0
    2.1424   -3.0755   -1.9951 H   0  0  0  0  0  0  0  0  0  0  0  0
  1  7  1  0  0  0  0
  2 13  1  0  0  0  0
  3  4  1  0  0  0  0
  3  5  1  0  0  0  0
  6  3  1  0  0  0  0
  7 24  1  0  0  0  0
  8  2  1  0  0  0  0
  9  8  1  0  0  0  0
  9  1  1  6  0  0  0
 10 31  1  0  0  0  0
 10 13  1  0  0  0  0
 11 10  2  0  0  0  0
 12 11  1  0  0  0  0
 13 14  2  0  0  0  0
 14 20  1  0  0  0  0
 14 15  1  0  0  0  0
 16 11  1  0  0  0  0
 16  8  2  0  0  0  0
 17 35  1  0  0  0  0
 17 18  1  0  0  0  0
 17  9  1  0  0  0  0
 19 17  1  0  0  0  0
 20 21  1  0  0  0  0
 22 23  1  0  0  0  0
 24 22  2  0  0  0  0
 24 42  1  0  0  0  0
 25 26  1  0  0  0  0
 25 20  2  0  0  0  0
 27 33  1  0  0  0  0
 27  7  2  0  0  0  0
 28 30  1  0  0  0  0
 28 35  1  0  0  0  0
 28 16  1  0  0  0  0
 29 28  1  0  0  0  0
 31 25  1  0  0  0  0
 32 31  1  0  0  0  0
 33 38  2  0  0  0  0
 34 33  1  0  0  0  0
 35 36  1  0  0  0  0
 37 35  1  0  0  0  0
 38  3  1  0  0  0  0
 38 22  1  0  0  0  0
 39 40  1  0  0  0  0
 39 27  1  0  0  0  0
 41 39  1  0  0  0  0
 42 44  1  0  0  0  0
 42 45  1  0  0  0  0
 43 42  1  0  0  0  0
 45 47  1  0  0  0  0
 45 46  1  0  0  0  0
 48 45  1  0  0  0  0
 49 39  1  0  0  0  0
 49 52  1  0  0  0  0
 50 49  1  0  0  0  0
 51 49  1  0  0  0  0
M  END
