2,5
q = -1.0, confidence = 0.0

 28 29  0  0  0  0  0  0  0  0999 V2000
   -1.6015   -0.6454   -0.0299 N   0  0  0  0  0  2  0  0  0  0  0  0
   -0.7463    0.3033   -0.0031 N   0  0  0  0  0  2  0  0  0  0  0  0
   -1.0512    1.5957    0.0621 N   0  0  0  0  0  0  0  0  0  0  0  0
    0.1358    3.7036    0.0641 N   0  0  0  0  0  0  0  0  0  0  0  0
    1.3311    1.8297    0.0831 N   0  0  0  0  0  2  0  0  0  0  0  0
    2.2079    2.8890    0.0649 C   0  0  0  0  0  0  0  0  0  0  0  0
    3.2929    2.7464    0.0338 H   0  0  0  0  0  0  0  0  0  0  0  0
    1.4814    4.0648    0.0651 C   0  0  0  0  0  0  0  0  0  0  0  0
    1.7952    5.1125    0.0582 H   0  0  0  0  0  0  0  0  0  0  0  0
    0.0794    2.3348    0.0721 C   0  0  0  0  0  0  0  0  0  0  0  0
   -1.0143    4.5842    0.0648 C   0  0  0  0  0  0  0  0  0  0  0  0
   -1.8636    4.0573   -0.4088 H   0  0  0  0  0  0  0  0  0  0  0  0
   -0.7853    5.4976   -0.5161 H   0  0  0  0  0  0  0  0  0  0  0  0
   -1.3070    4.8734    1.0960 H   0  0  0  0  0  0  0  0  0  0  0  0
   -2.9903   -0.4822   -0.0075 C   0  0  0  0  0  0  0  0  0  0  0  0
   -3.7496    0.7160    0.0769 C   0  0  0  0  0  0  0  0  0  0  0  0
   -3.2265    1.6746    0.1286 H   0  0  0  0  0  0  0  0  0  0  0  0
   -5.1503    0.6592    0.0977 C   0  0  0  0  0  0  0  0  0  0  0  0
   -5.7179    1.6019    0.1649 H   0  0  0  0  0  0  0  0  0  0  0  0
   -5.8560   -0.5571    0.0353 C   0  0  0  0  0  0  0  0  0  0  0  0
   -5.0966   -1.7470   -0.0485 C   0  0  0  0  0  0  0  0  0  0  0  0
   -5.6147   -2.7183   -0.1002 H   0  0  0  0  0  0  0  0  0  0  0  0
   -3.7045   -1.7113   -0.0694 C   0  0  0  0  0  0  0  0  0  0  0  0
   -3.1174   -2.6392   -0.1390 H   0  0  0  0  0  0  0  0  0  0  0  0
   -7.3623   -0.6017    0.0474 C   0  0  0  0  0  0  0  0  0  0  0  0
   -7.7435   -1.2554    0.8600 H   0  0  0  0  0  0  0  0  0  0  0  0
   -7.7621   -1.0129   -0.9042 H   0  0  0  0  0  0  0  0  0  0  0  0
   -7.8003    0.4055    0.1878 H   0  0  0  0  0  0  0  0  0  0  0  0
  1 15  1  0  0  0  0
  1  2  1  0  0  0  0
  2  3  1  0  0  0  0
  3 10  2  0  0  0  0
  4 11  1  0  0  0  0
  4  8  1  0  0  0  0
  4 10  1  0  0  0  0
  6  8  2  0  0  0  0
  6  5  1  0  0  0  0
  7  6  1  0  0  0  0
  9  8  1  0  0  0  0
 10  5  1  0  0  0  0
 11 14  1  0  0  0  0
 12 11  1  0  0  0  0
 13 11  1  0  0  0  0
 15 16  1  0  0  0  0
 16 18  2  0  0  0  0
 16 17  1  0  0  0  0
 18 19  1  0  0  0  0
 20 25  1  0  0  0  0
 20 18  1  0  0  0  0
 21 20  2  0  0  0  0
 22 21  1  0  0  0  0
 23 21  1  0  0  0  0
 23 15  2  0  0  0  0
 24 23  1  0  0  0  0
 25 28  1  0  0  0  0
 25 26  1  0  0  0  0
 27 25  1  0  0  0  0
M  END
