4,5
q = -1.0

 16 15  0  0  0  0  0  0  0  0999 V2000
    2.2810    2.7191   -0.2360 O   0  0  0  0  0  0  0  0  0  0  0  0
    2.5823   -0.5241    1.4922 O   0  0  0  0  0  0  0  0  0  0  0  0
    3.7678   -1.7169   -0.0116 O   0  0  0  0  0  0  0  0  0  0  0  0
   -1.2501    1.9256    0.0073 N   0  0  0  0  0  0  0  0  0  0  0  0
    1.0878    0.7211   -0.4078 N   0  0  0  0  0  2  0  0  0  0  0  0
   -0.0460    2.6849    0.4188 C   0  0  0  0  0  0  0  0  0  0  0  0
    1.2450    2.0381   -0.1297 C   0  0  0  0  0  0  0  0  0  0  0  0
    2.2502   -0.0131   -0.8378 C   0  0  0  0  0  0  0  0  0  0  0  0
    2.9336   -0.8587    0.2266 C   0  0  0  0  0  0  0  0  0  0  0  0
   -1.5610    2.2061   -0.9344 H   0  0  0  0  0  0  0  0  0  0  0  0
   -2.0645    2.0235    0.6351 H   0  0  0  0  0  0  0  0  0  0  0  0
   -0.0799    3.7483    0.0997 H   0  0  0  0  0  0  0  0  0  0  0  0
    0.0117    2.6554    1.5256 H   0  0  0  0  0  0  0  0  0  0  0  0
    1.9996   -0.7174   -1.6554 H   0  0  0  0  0  0  0  0  0  0  0  0
    3.0168    0.7124   -1.1952 H   0  0  0  0  0  0  0  0  0  0  0  0
    3.0692   -1.1677    2.0500 H   0  0  0  0  0  0  0  0  0  0  0  0
  1  7  2  0  0  0  0
  2 16  1  0  0  0  0
  3  9  2  0  0  0  0
  4  6  1  0  0  0  0
  4 11  1  0  0  0  0
  5  7  1  0  0  0  0
  6 13  1  0  0  0  0
  7  6  1  0  0  0  0
  8  5  1  0  0  0  0
  8  9  1  0  0  0  0
  9  2  1  0  0  0  0
 10  4  1  0  0  0  0
 12  6  1  0  0  0  0
 14  8  1  0  0  0  0
 15  8  1  0  0  0  0
M  END
