4,5
q = 0.0, confidence = 0.994

 17 16  0  0  1  0  0  0  0  0999 V2000
   -2.6523    2.1130   -0.5094 O   0  0  0  0  0  0  0  0  0  0  0  0
   -3.0179   -0.1786    1.4433 O   0  0  0  0  0  0  0  0  0  0  0  0
   -3.9115   -1.7856    0.1195 O   0  0  0  0  0  0  0  0  0  0  0  0
    0.9911    2.0473    0.0142 N   0  0  0  0  0  0  0  0  0  0  0  0
   -1.0944    0.4181   -0.4602 N   0  0  0  0  0  2  0  0  0  0  0  0
   -0.3552    2.5953    0.2898 C   0  0  0  0  0  0  0  0  0  0  0  0
   -1.4098    1.6627   -0.2678 C   0  0  2  0  0  3  0  0  0  0  0  0
   -2.1264   -0.5465   -0.8000 C   0  0  0  0  0  0  0  0  0  0  0  0
   -3.0448   -0.7880    0.3935 C   0  0  0  0  0  0  0  0  0  0  0  0
    1.6918    2.3081    0.7263 H   0  0  0  0  0  0  0  0  0  0  0  0
    1.3528    2.3688   -0.8967 H   0  0  0  0  0  0  0  0  0  0  0  0
   -0.4949    2.6305    1.3916 H   0  0  0  0  0  0  0  0  0  0  0  0
   -0.4843    3.6284   -0.1048 H   0  0  0  0  0  0  0  0  0  0  0  0
   -2.7402   -0.2135   -1.6633 H   0  0  0  0  0  0  0  0  0  0  0  0
   -1.6217   -1.5036   -1.0538 H   0  0  0  0  0  0  0  0  0  0  0  0
   -2.7378    3.0461   -0.2393 H   0  0  0  0  0  0  0  0  0  0  0  0
   -4.4542   -1.9023    0.9295 H   0  0  0  0  0  0  0  0  0  0  0  0
  1 16  1  0  0  0  0
  3  9  1  0  0  0  0
  3 17  1  0  0  0  0
  4  6  1  0  0  0  0
  4 10  1  0  0  0  0
  5  7  1  0  0  0  0
  6 12  1  0  0  0  0
  7  1  1  1  0  0  0
  7  6  1  0  0  0  0
  8  5  1  0  0  0  0
  8  9  1  0  0  0  0
  9  2  2  0  0  0  0
 11  4  1  0  0  0  0
 13  6  1  0  0  0  0
 14  8  1  0  0  0  0
 15  8  1  0  0  0  0
M  END
