13,23
q = 0.0, confidence = 0.994

 63 66  0  0  1  0  0  0  0  0999 V2000
    2.7793    0.6629    0.6506 N   0  0  0  0  0  0  0  0  0  0  0  0
    2.7971   -1.4554   -0.5241 N   0  0  0  0  0  0  0  0  0  0  0  0
   -0.4992    0.8137    1.0309 N   0  0  0  0  0  0  0  0  0  0  0  0
    2.9503   -2.5860    0.2177 N   0  0  0  0  0  0  0  0  0  0  0  0
   -0.9707    1.7064   -1.1475 N   0  0  0  0  0  0  0  0  0  0  0  0
    0.9213    0.1441   -0.9033 C   0  0  0  0  0  0  0  0  0  0  0  0
    0.2933   -0.7074   -1.2494 H   0  0  0  0  0  0  0  0  0  0  0  0
    1.3932    0.6081   -1.7868 H   0  0  0  0  0  0  0  0  0  0  0  0
    1.9736   -0.4065    0.0558 C   0  0  0  0  0  0  0  0  0  0  0  0
    1.4579   -0.9231    0.8873 H   0  0  0  0  0  0  0  0  0  0  0  0
    3.0855    1.7788   -0.0636 N   0  0  0  0  0  0  0  0  0  0  0  0
    3.5563   -1.4708   -1.6766 C   0  0  0  0  0  0  0  0  0  0  0  0
   -1.2343   -0.3291    1.1023 N   0  0  0  0  0  2  0  0  0  0  0  0
    3.8010   -3.3560   -0.4715 C   0  0  0  0  0  0  0  0  0  0  0  0
    3.3887    0.6348    1.8838 C   0  0  0  0  0  0  0  0  0  0  0  0
    0.0669    1.2346   -0.2406 C   0  0  2  0  0  0  0  0  0  0  0  0
    0.7185    2.1000   -0.0246 H   0  0  0  0  0  0  0  0  0  0  0  0
    3.6107   -0.3669   -2.6840 C   0  0  0  0  0  0  0  0  0  0  0  0
    2.7241   -0.3747   -3.3534 H   0  0  0  0  0  0  0  0  0  0  0  0
    4.5040   -0.4975   -3.3228 H   0  0  0  0  0  0  0  0  0  0  0  0
    3.6675    0.6285   -2.1991 H   0  0  0  0  0  0  0  0  0  0  0  0
   -0.3049    1.3693    2.2714 C   0  0  2  0  0  3  0  0  0  0  0  0
   -1.9719    0.8729   -1.5117 N   0  0  0  0  0  2  0  0  0  0  0  0
    3.9038    2.4940    0.7262 C   0  0  0  0  0  0  0  0  0  0  0  0
   -1.0125    2.8856   -1.8452 C   0  0  2  0  0  3  0  0  0  0  0  0
    4.2123   -2.6991   -1.6664 C   0  0  0  0  0  0  0  0  0  0  0  0
    4.8979   -3.0703   -2.4364 H   0  0  0  0  0  0  0  0  0  0  0  0
    4.1911   -4.7093    0.0349 C   0  0  0  0  0  0  0  0  0  0  0  0
    3.7104   -4.8994    1.0127 H   0  0  0  0  0  0  0  0  0  0  0  0
    5.2902   -4.7963    0.1580 H   0  0  0  0  0  0  0  0  0  0  0  0
    3.8752   -5.5084   -0.6670 H   0  0  0  0  0  0  0  0  0  0  0  0
   -2.3739   -1.6688    2.8441 C   0  0  0  0  0  0  0  0  0  0  0  0
   -3.4275   -1.3482    2.9956 H   0  0  0  0  0  0  0  0  0  0  0  0
   -2.0012   -2.0816    3.8012 H   0  0  0  0  0  0  0  0  0  0  0  0
   -2.3754   -2.4714    2.0827 H   0  0  0  0  0  0  0  0  0  0  0  0
   -1.5289   -0.5219    2.4013 C   0  0  0  0  0  0  0  0  0  0  0  0
   -2.6969    1.5122   -2.4453 C   0  0  0  0  0  0  0  0  0  0  0  0
    4.4464    3.8131    0.2720 C   0  0  0  0  0  0  0  0  0  0  0  0
    4.0735    4.0504   -0.7423 H   0  0  0  0  0  0  0  0  0  0  0  0
    5.5552    3.8027    0.2394 H   0  0  0  0  0  0  0  0  0  0  0  0
    4.1496    4.6345    0.9563 H   0  0  0  0  0  0  0  0  0  0  0  0
    3.1849   -0.4736    2.8632 C   0  0  0  0  0  0  0  0  0  0  0  0
    3.3284   -1.4656    2.3874 H   0  0  0  0  0  0  0  0  0  0  0  0
    2.1532   -0.4566    3.2776 H   0  0  0  0  0  0  0  0  0  0  0  0
    3.8906   -0.3678    3.7073 H   0  0  0  0  0  0  0  0  0  0  0  0
   -0.9519    0.5222    3.1718 C   0  0  0  0  0  0  0  0  0  0  0  0
   -1.0141    0.6540    4.2568 H   0  0  0  0  0  0  0  0  0  0  0  0
    0.4540    2.6353    2.4932 C   0  0  0  0  0  0  0  0  0  0  0  0
    1.5220    2.5438    2.2057 H   0  0  0  0  0  0  0  0  0  0  0  0
    0.4178    2.9031    3.5647 H   0  0  0  0  0  0  0  0  0  0  0  0
    0.0158    3.4797    1.9218 H   0  0  0  0  0  0  0  0  0  0  0  0
   -3.8940    0.8528   -3.0475 C   0  0  0  0  0  0  0  0  0  0  0  0
   -3.6225   -0.1534   -3.4275 H   0  0  0  0  0  0  0  0  0  0  0  0
   -4.3043    1.4531   -3.8795 H   0  0  0  0  0  0  0  0  0  0  0  0
   -4.6841    0.7028   -2.2833 H   0  0  0  0  0  0  0  0  0  0  0  0
   -2.1232    2.7874   -2.6876 C   0  0  0  0  0  0  0  0  0  0  0  0
   -2.4743    3.5478   -3.3925 H   0  0  0  0  0  0  0  0  0  0  0  0
    4.1247    1.8177    1.9602 C   0  0  0  0  0  0  0  0  0  0  0  0
    4.7397    2.1460    2.8053 H   0  0  0  0  0  0  0  0  0  0  0  0
   -0.0053    3.9720   -1.6547 C   0  0  0  0  0  0  0  0  0  0  0  0
   -0.1801    4.7776   -2.3906 H   0  0  0  0  0  0  0  0  0  0  0  0
    1.0342    3.6049   -1.7850 H   0  0  0  0  0  0  0  0  0  0  0  0
   -0.0718    4.4235   -0.6422 H   0  0  0  0  0  0  0  0  0  0  0  0
  1 15  1  0  0  0  0
  2  9  1  0  0  0  0
  2  4  1  0  0  0  0
  3 13  1  0  0  0  0
  3 22  1  0  0  0  0
  5 16  1  0  0  0  0
  6 16  1  0  0  0  0
  6  9  1  0  0  0  0
  7  6  1  0  0  0  0
  8  6  1  0  0  0  0
  9  1  1  0  0  0  0
  9 10  1  0  0  0  0
 11  1  1  0  0  0  0
 11 24  2  0  0  0  0
 12 26  2  0  0  0  0
 12  2  1  0  0  0  0
 13 36  1  0  0  0  0
 14 28  1  0  0  0  0
 14  4  2  0  0  0  0
 15 58  2  0  0  0  0
 15 42  1  0  0  0  0
 16 17  1  1  0  0  0
 16  3  1  0  0  0  0
 18 21  1  0  0  0  0
 18 12  1  0  0  0  0
 19 18  1  0  0  0  0
 20 18  1  0  0  0  0
 22 48  1  6  0  0  0
 22 46  1  0  0  0  0
 23  5  1  0  0  0  0
 24 58  1  0  0  0  0
 25 60  1  6  0  0  0
 25  5  1  0  0  0  0
 26 14  1  0  0  0  0
 27 26  1  0  0  0  0
 28 30  1  0  0  0  0
 28 29  1  0  0  0  0
 31 28  1  0  0  0  0
 32 33  1  0  0  0  0
 32 34  1  0  0  0  0
 35 32  1  0  0  0  0
 36 32  1  0  0  0  0
 36 46  2  0  0  0  0
 37 23  1  0  0  0  0
 38 24  1  0  0  0  0
 38 41  1  0  0  0  0
 39 38  1  0  0  0  0
 40 38  1  0  0  0  0
 42 44  1  0  0  0  0
 42 45  1  0  0  0  0
 43 42  1  0  0  0  0
 46 47  1  0  0  0  0
 48 50  1  0  0  0  0
 49 48  1  0  0  0  0
 51 48  1  0  0  0  0
 52 37  1  0  0  0  0
 52 55  1  0  0  0  0
 53 52  1  0  0  0  0
 54 52  1  0  0  0  0
 56 37  2  0  0  0  0
 56 25  1  0  0  0  0
 57 56  1  0  0  0  0
 58 59  1  0  0  0  0
 60 63  1  0  0  0  0
 61 60  1  0  0  0  0
 62 60  1  0  0  0  0
M  END
