1,10
q = -2.0, confidence = 0.798

 60 61  0  0  0  0  0  0  0  0999 V2000
    1.8115    0.5072   -0.0623 N   0  0  0  0  0  2  0  0  0  0  0  0
    2.3831    2.1828    0.0069 Si  0  0  0  0  0  0  0  0  0  0  0  0
    0.8812    3.3238   -0.2012 C   0  0  0  0  0  0  0  0  0  0  0  0
    0.3305    3.4168    0.7608 H   0  0  0  0  0  0  0  0  0  0  0  0
    1.3247    4.3333   -0.3550 H   0  0  0  0  0  0  0  0  0  0  0  0
   -0.0574    2.9496   -1.3715 C   0  0  0  0  0  0  0  0  0  0  0  0
    0.4484    2.2957   -2.1145 H   0  0  0  0  0  0  0  0  0  0  0  0
   -0.3447    3.8619   -1.9414 H   0  0  0  0  0  0  0  0  0  0  0  0
   -1.7501    2.1947   -0.9491 Si  0  0  0  0  0  0  0  0  0  0  0  0
   -1.6104    0.5406   -0.2938 N   0  0  0  0  0  2  0  0  0  0  0  0
    2.6531   -0.5607   -0.4813 C   0  0  0  0  0  0  0  0  0  0  0  0
    3.4348   -1.2894    0.4704 C   0  0  0  0  0  0  0  0  0  0  0  0
    4.2306   -2.3625    0.0256 C   0  0  0  0  0  0  0  0  0  0  0  0
    4.8258   -2.9231    0.7638 H   0  0  0  0  0  0  0  0  0  0  0  0
    4.2699   -2.7293   -1.3249 C   0  0  0  0  0  0  0  0  0  0  0  0
    4.8961   -3.5730   -1.6519 H   0  0  0  0  0  0  0  0  0  0  0  0
    3.4900   -2.0280   -2.2546 C   0  0  0  0  0  0  0  0  0  0  0  0
    3.5004   -2.3247   -3.3154 H   0  0  0  0  0  0  0  0  0  0  0  0
    2.6742   -0.9534   -1.8578 C   0  0  0  0  0  0  0  0  0  0  0  0
    3.4241   -0.9241    1.9336 C   0  0  0  0  0  0  0  0  0  0  0  0
    3.7609   -1.7760    2.5549 H   0  0  0  0  0  0  0  0  0  0  0  0
    2.4197   -0.6042    2.2813 H   0  0  0  0  0  0  0  0  0  0  0  0
    4.1044   -0.0719    2.1410 H   0  0  0  0  0  0  0  0  0  0  0  0
    1.8273   -0.2338   -2.8744 C   0  0  0  0  0  0  0  0  0  0  0  0
    0.7927   -0.0768   -2.5125 H   0  0  0  0  0  0  0  0  0  0  0  0
    1.7847   -0.7968   -3.8262 H   0  0  0  0  0  0  0  0  0  0  0  0
    2.2305    0.7755   -3.0960 H   0  0  0  0  0  0  0  0  0  0  0  0
    3.6105    2.5119   -1.3968 C   0  0  0  0  0  0  0  0  0  0  0  0
    3.0998    2.6431   -2.3717 H   0  0  0  0  0  0  0  0  0  0  0  0
    4.3354    1.6784   -1.4979 H   0  0  0  0  0  0  0  0  0  0  0  0
    4.1837    3.4384   -1.1877 H   0  0  0  0  0  0  0  0  0  0  0  0
    3.2452    2.6139    1.6394 C   0  0  0  0  0  0  0  0  0  0  0  0
    2.6469    2.2956    2.5158 H   0  0  0  0  0  0  0  0  0  0  0  0
    3.3975    3.7119    1.7066 H   0  0  0  0  0  0  0  0  0  0  0  0
    4.2424    2.1343    1.7103 H   0  0  0  0  0  0  0  0  0  0  0  0
   -2.7848    2.1924   -2.5361 C   0  0  0  0  0  0  0  0  0  0  0  0
   -2.2252    1.7847   -3.4019 H   0  0  0  0  0  0  0  0  0  0  0  0
   -3.0838    3.2312   -2.7861 H   0  0  0  0  0  0  0  0  0  0  0  0
   -3.7081    1.5910   -2.4126 H   0  0  0  0  0  0  0  0  0  0  0  0
   -2.5909    3.3980    0.2573 C   0  0  0  0  0  0  0  0  0  0  0  0
   -3.6717    3.1734    0.3589 H   0  0  0  0  0  0  0  0  0  0  0  0
   -2.4994    4.4343   -0.1307 H   0  0  0  0  0  0  0  0  0  0  0  0
   -2.1395    3.3710    1.2692 H   0  0  0  0  0  0  0  0  0  0  0  0
   -2.7758   -0.2854   -0.3891 C   0  0  0  0  0  0  0  0  0  0  0  0
   -3.7544   -0.3039    0.6509 C   0  0  0  0  0  0  0  0  0  0  0  0
   -4.8905   -1.1250    0.5106 C   0  0  0  0  0  0  0  0  0  0  0  0
   -5.6384   -1.1330    1.3197 H   0  0  0  0  0  0  0  0  0  0  0  0
   -5.0779   -1.9285   -0.6202 C   0  0  0  0  0  0  0  0  0  0  0  0
   -5.9762   -2.5572   -0.7136 H   0  0  0  0  0  0  0  0  0  0  0  0
   -4.0958   -1.9428   -1.6188 C   0  0  0  0  0  0  0  0  0  0  0  0
   -4.2149   -2.5947   -2.4989 H   0  0  0  0  0  0  0  0  0  0  0  0
   -2.9411   -1.1451   -1.5179 C   0  0  0  0  0  0  0  0  0  0  0  0
   -3.5609    0.4867    1.9194 C   0  0  0  0  0  0  0  0  0  0  0  0
   -2.5253    0.3710    2.3005 H   0  0  0  0  0  0  0  0  0  0  0  0
   -4.2699    0.1531    2.7013 H   0  0  0  0  0  0  0  0  0  0  0  0
   -3.7168    1.5727    1.7683 H   0  0  0  0  0  0  0  0  0  0  0  0
   -1.8606   -1.2550   -2.5604 C   0  0  0  0  0  0  0  0  0  0  0  0
   -0.9497   -1.7211   -2.1239 H   0  0  0  0  0  0  0  0  0  0  0  0
   -1.5511   -0.2677   -2.9529 H   0  0  0  0  0  0  0  0  0  0  0  0
   -2.1876   -1.8832   -3.4110 H   0  0  0  0  0  0  0  0  0  0  0  0
  1  2  1  0  0  0  0
  2 32  1  0  0  0  0
  3  2  1  0  0  0  0
  3  4  1  0  0  0  0
  5  3  1  0  0  0  0
  6  9  1  0  0  0  0
  6  3  1  0  0  0  0
  7  6  1  0  0  0  0
  8  6  1  0  0  0  0
  9 10  1  0  0  0  0
  9 40  1  0  0  0  0
 11  1  1  0  0  0  0
 11 12  1  0  0  0  0
 12 20  1  0  0  0  0
 13 12  2  0  0  0  0
 13 14  1  0  0  0  0
 15 13  1  0  0  0  0
 16 15  1  0  0  0  0
 17 19  1  0  0  0  0
 17 15  2  0  0  0  0
 18 17  1  0  0  0  0
 19 11  2  0  0  0  0
 20 23  1  0  0  0  0
 20 22  1  0  0  0  0
 20 21  1  0  0  0  0
 24 25  1  0  0  0  0
 24 19  1  0  0  0  0
 26 24  1  0  0  0  0
 27 24  1  0  0  0  0
 28 31  1  0  0  0  0
 28  2  1  0  0  0  0
 29 28  1  0  0  0  0
 30 28  1  0  0  0  0
 32 34  1  0  0  0  0
 32 35  1  0  0  0  0
 32 33  1  0  0  0  0
 36 39  1  0  0  0  0
 36  9  1  0  0  0  0
 37 36  1  0  0  0  0
 38 36  1  0  0  0  0
 40 41  1  0  0  0  0
 40 43  1  0  0  0  0
 42 40  1  0  0  0  0
 44 10  1  0  0  0  0
 44 45  1  0  0  0  0
 45 53  1  0  0  0  0
 46 45  2  0  0  0  0
 46 47  1  0  0  0  0
 48 46  1  0  0  0  0
 49 48  1  0  0  0  0
 50 52  1  0  0  0  0
 50 48  2  0  0  0  0
 51 50  1  0  0  0  0
 52 44  2  0  0  0  0
 53 54  1  0  0  0  0
 53 55  1  0  0  0  0
 56 53  1  0  0  0  0
 57 58  1  0  0  0  0
 57 52  1  0  0  0  0
 59 57  1  0  0  0  0
 60 57  1  0  0  0  0
M  END
