2,3
q = -1.0, confidence = 0.0

 39 40  0  0  0  0  0  0  0  0999 V2000
    2.4521    1.8229   -0.2595 O   0  0  0  0  0  0  0  0  0  0  0  0
    0.0710    2.6846   -0.4699 N   0  0  0  0  0  2  0  0  0  0  0  0
   -1.7211    1.4054   -0.3678 N   0  0  0  0  0  2  0  0  0  0  0  0
   -1.2591    2.6433   -0.5202 C   0  0  0  0  0  3  0  0  0  0  0  0
   -1.9204    3.5246   -0.6716 H   0  0  0  0  0  0  0  0  0  0  0  0
    1.0119    3.6830   -0.5344 C   0  0  0  0  0  0  0  0  0  0  0  0
    0.7993    5.0663   -0.6968 C   0  0  0  0  0  0  0  0  0  0  0  0
   -0.2270    5.4501   -0.7893 H   0  0  0  0  0  0  0  0  0  0  0  0
    1.8936    5.9432   -0.7446 C   0  0  0  0  0  0  0  0  0  0  0  0
    1.7188    7.0218   -0.8720 H   0  0  0  0  0  0  0  0  0  0  0  0
    3.2036    5.4544   -0.6319 C   0  0  0  0  0  0  0  0  0  0  0  0
    4.0584    6.1451   -0.6688 H   0  0  0  0  0  0  0  0  0  0  0  0
    3.4383    4.0753   -0.4685 C   0  0  0  0  0  0  0  0  0  0  0  0
    4.4657    3.6994   -0.3773 H   0  0  0  0  0  0  0  0  0  0  0  0
    2.3475    3.2054   -0.4163 C   0  0  0  0  0  0  0  0  0  0  0  0
    3.7141    1.2202   -0.5934 C   0  0  0  0  0  0  0  0  0  0  0  0
    3.5542    0.1293   -0.6182 H   0  0  0  0  0  0  0  0  0  0  0  0
    4.4748    1.4614    0.1758 H   0  0  0  0  0  0  0  0  0  0  0  0
    4.0431    1.5725   -1.5911 H   0  0  0  0  0  0  0  0  0  0  0  0
   -3.0962    1.0967   -0.2567 C   0  0  0  0  0  0  0  0  0  0  0  0
   -3.8665    1.6206    0.8138 C   0  0  0  0  0  0  0  0  0  0  0  0
   -5.2133    1.2259    0.9214 C   0  0  0  0  0  0  0  0  0  0  0  0
   -5.8104    1.6172    1.7615 H   0  0  0  0  0  0  0  0  0  0  0  0
   -5.8063    0.3295    0.0177 C   0  0  0  0  0  0  0  0  0  0  0  0
   -5.0151   -0.1661   -1.0354 C   0  0  0  0  0  0  0  0  0  0  0  0
   -5.4570   -0.8727   -1.7565 H   0  0  0  0  0  0  0  0  0  0  0  0
   -3.6701    0.1974   -1.1944 C   0  0  0  0  0  0  0  0  0  0  0  0
   -3.2560    2.5280    1.8549 C   0  0  0  0  0  0  0  0  0  0  0  0
   -2.2361    2.1973    2.1413 H   0  0  0  0  0  0  0  0  0  0  0  0
   -3.8829    2.5512    2.7670 H   0  0  0  0  0  0  0  0  0  0  0  0
   -3.1647    3.5774    1.5029 H   0  0  0  0  0  0  0  0  0  0  0  0
   -7.2281   -0.1389    0.1936 C   0  0  0  0  0  0  0  0  0  0  0  0
   -7.7803    0.4843    0.9237 H   0  0  0  0  0  0  0  0  0  0  0  0
   -7.2521   -1.1877    0.5622 H   0  0  0  0  0  0  0  0  0  0  0  0
   -7.7867   -0.1238   -0.7646 H   0  0  0  0  0  0  0  0  0  0  0  0
   -2.8488   -0.3457   -2.3320 C   0  0  0  0  0  0  0  0  0  0  0  0
   -1.9848   -0.9401   -1.9724 H   0  0  0  0  0  0  0  0  0  0  0  0
   -2.4141    0.4672   -2.9482 H   0  0  0  0  0  0  0  0  0  0  0  0
   -3.4625   -0.9927   -2.9877 H   0  0  0  0  0  0  0  0  0  0  0  0
  3 20  1  0  0  0  0
  4  2  1  0  0  0  0
  4  3  1  0  0  0  0
  5  4  1  0  0  0  0
  6  2  1  0  0  0  0
  6 15  1  0  0  0  0
  7  6  2  0  0  0  0
  8  7  1  0  0  0  0
  9  7  1  0  0  0  0
  9 11  2  0  0  0  0
 10  9  1  0  0  0  0
 11 13  1  0  0  0  0
 12 11  1  0  0  0  0
 13 15  2  0  0  0  0
 13 14  1  0  0  0  0
 15  1  1  0  0  0  0
 16  1  1  0  0  0  0
 16 18  1  0  0  0  0
 17 16  1  0  0  0  0
 19 16  1  0  0  0  0
 20 21  1  0  0  0  0
 21 22  2  0  0  0  0
 21 28  1  0  0  0  0
 22 23  1  0  0  0  0
 24 32  1  0  0  0  0
 24 22  1  0  0  0  0
 25 24  2  0  0  0  0
 26 25  1  0  0  0  0
 27 25  1  0  0  0  0
 27 20  2  0  0  0  0
 28 29  1  0  0  0  0
 28 30  1  0  0  0  0
 31 28  1  0  0  0  0
 32 34  1  0  0  0  0
 32 33  1  0  0  0  0
 35 32  1  0  0  0  0
 36 37  1  0  0  0  0
 36 27  1  0  0  0  0
 38 36  1  0  0  0  0
 39 36  1  0  0  0  0
M  END
