3,6
q = 0.0, confidence = 0.994

 58 60  0  0  1  0  0  0  0  0999 V2000
    2.6765    1.4765   -0.0159 O   0  0  0  0  0  0  0  0  0  0  0  0
    1.6769   -2.3666    0.0003 O   0  0  0  0  0  0  0  0  0  0  0  0
   -0.8663    2.3648    0.0492 N   0  0  0  0  0  2  0  0  0  0  0  0
    0.2531    2.7558    0.7077 N   0  0  0  0  0  0  0  0  0  0  0  0
   -1.9414   -2.4729    0.4598 N   0  0  0  0  0  0  0  0  0  0  0  0
   -2.5035   -1.3239    0.0106 N   0  0  0  0  0  2  0  0  0  0  0  0
   -1.2670    3.3929   -0.7273 C   0  0  1  0  0  3  0  0  0  0  0  0
   -0.3588    4.4627   -0.5621 C   0  0  0  0  0  0  0  0  0  0  0  0
   -0.3992    5.4408   -1.0513 H   0  0  0  0  0  0  0  0  0  0  0  0
    0.6091    4.0230    0.3457 C   0  0  0  0  0  0  0  0  0  0  0  0
   -2.4750    3.2919   -1.5983 C   0  0  0  0  0  0  0  0  0  0  0  0
   -3.3514    2.9391   -1.0178 H   0  0  0  0  0  0  0  0  0  0  0  0
   -2.2967    2.5535   -2.4070 H   0  0  0  0  0  0  0  0  0  0  0  0
   -2.7148    4.2741   -2.0458 H   0  0  0  0  0  0  0  0  0  0  0  0
    1.8374    4.6918    0.8656 C   0  0  0  0  0  0  0  0  0  0  0  0
    2.7328    4.0736    0.6515 H   0  0  0  0  0  0  0  0  0  0  0  0
    1.7920    4.8612    1.9622 H   0  0  0  0  0  0  0  0  0  0  0  0
    1.9618    5.6759    0.3780 H   0  0  0  0  0  0  0  0  0  0  0  0
    0.9611    1.8507    1.6017 C   0  0  0  0  0  0  0  0  0  0  0  0
    0.2061    1.3593    2.2507 H   0  0  0  0  0  0  0  0  0  0  0  0
    1.6214    2.4715    2.2356 H   0  0  0  0  0  0  0  0  0  0  0  0
    1.7660    0.8105    0.8394 C   0  0  0  0  0  0  0  0  0  0  0  0
    2.2828    0.1353    1.5622 H   0  0  0  0  0  0  0  0  0  0  0  0
    1.0709    0.1763    0.2434 H   0  0  0  0  0  0  0  0  0  0  0  0
    3.1532    0.6502   -1.0757 C   0  0  0  0  0  0  0  0  0  0  0  0
    3.6591    1.3439   -1.7779 H   0  0  0  0  0  0  0  0  0  0  0  0
    2.2899    0.1980   -1.6113 H   0  0  0  0  0  0  0  0  0  0  0  0
    4.1496   -0.3924   -0.5945 C   0  0  0  0  0  0  0  0  0  0  0  0
    5.3670    0.0783   -0.0601 C   0  0  0  0  0  0  0  0  0  0  0  0
    5.5472    1.1648   -0.0395 H   0  0  0  0  0  0  0  0  0  0  0  0
    6.3327   -0.7996    0.4457 C   0  0  0  0  0  0  0  0  0  0  0  0
    7.2764   -0.4067    0.8541 H   0  0  0  0  0  0  0  0  0  0  0  0
    6.0929   -2.1828    0.4217 C   0  0  0  0  0  0  0  0  0  0  0  0
    6.8451   -2.8854    0.8114 H   0  0  0  0  0  0  0  0  0  0  0  0
    4.8867   -2.6630   -0.1020 C   0  0  0  0  0  0  0  0  0  0  0  0
    4.6883   -3.7465   -0.1172 H   0  0  0  0  0  0  0  0  0  0  0  0
    3.9053   -1.7880   -0.6115 C   0  0  0  0  0  0  0  0  0  0  0  0
    2.5974   -2.3748   -1.0862 C   0  0  0  0  0  0  0  0  0  0  0  0
    2.1757   -1.8021   -1.9444 H   0  0  0  0  0  0  0  0  0  0  0  0
    2.7612   -3.4205   -1.4450 H   0  0  0  0  0  0  0  0  0  0  0  0
    0.3615   -2.6963   -0.3934 C   0  0  0  0  0  0  0  0  0  0  0  0
    0.2995   -3.7503   -0.7672 H   0  0  0  0  0  0  0  0  0  0  0  0
    0.0052   -2.0201   -1.2073 H   0  0  0  0  0  0  0  0  0  0  0  0
   -0.5393   -2.5036    0.8300 C   0  0  0  0  0  0  0  0  0  0  0  0
   -0.3078   -1.5312    1.3088 H   0  0  0  0  0  0  0  0  0  0  0  0
   -0.3887   -3.2978    1.5859 H   0  0  0  0  0  0  0  0  0  0  0  0
   -2.8172   -3.5172    0.3431 C   0  0  2  0  0  3  0  0  0  0  0  0
   -3.9954   -2.9867   -0.1897 C   0  0  0  0  0  0  0  0  0  0  0  0
   -4.9188   -3.5334   -0.4047 H   0  0  0  0  0  0  0  0  0  0  0  0
   -3.7592   -1.6051   -0.3842 C   0  0  0  0  0  0  0  0  0  0  0  0
   -2.4648   -4.9095    0.7494 C   0  0  0  0  0  0  0  0  0  0  0  0
   -1.5920   -5.3005    0.1863 H   0  0  0  0  0  0  0  0  0  0  0  0
   -3.3202   -5.5825    0.5574 H   0  0  0  0  0  0  0  0  0  0  0  0
   -2.2195   -4.9739    1.8303 H   0  0  0  0  0  0  0  0  0  0  0  0
   -4.6600   -0.5333   -0.9014 C   0  0  0  0  0  0  0  0  0  0  0  0
   -4.8825    0.2045   -0.1032 H   0  0  0  0  0  0  0  0  0  0  0  0
   -5.6118   -0.9625   -1.2651 H   0  0  0  0  0  0  0  0  0  0  0  0
   -4.1690    0.0143   -1.7311 H   0  0  0  0  0  0  0  0  0  0  0  0
  1 22  1  0  0  0  0
  3  4  1  0  0  0  0
  4 19  1  0  0  0  0
  5 44  1  0  0  0  0
  6  5  1  0  0  0  0
  7 11  1  6  0  0  0
  7  8  1  0  0  0  0
  7  3  1  0  0  0  0
  8 10  2  0  0  0  0
  9  8  1  0  0  0  0
 10  4  1  0  0  0  0
 10 15  1  0  0  0  0
 11 12  1  0  0  0  0
 13 11  1  0  0  0  0
 14 11  1  0  0  0  0
 15 17  1  0  0  0  0
 16 15  1  0  0  0  0
 18 15  1  0  0  0  0
 19 21  1  0  0  0  0
 19 20  1  0  0  0  0
 22 23  1  0  0  0  0
 22 19  1  0  0  0  0
 24 22  1  0  0  0  0
 25 28  1  0  0  0  0
 25  1  1  0  0  0  0
 26 25  1  0  0  0  0
 27 25  1  0  0  0  0
 28 29  1  0  0  0  0
 29 30  1  0  0  0  0
 29 31  2  0  0  0  0
 31 32  1  0  0  0  0
 33 31  1  0  0  0  0
 33 34  1  0  0  0  0
 35 33  2  0  0  0  0
 36 35  1  0  0  0  0
 37 28  2  0  0  0  0
 37 35  1  0  0  0  0
 38 37  1  0  0  0  0
 38  2  1  0  0  0  0
 39 38  1  0  0  0  0
 40 38  1  0  0  0  0
 41  2  1  0  0  0  0
 41 44  1  0  0  0  0
 42 41  1  0  0  0  0
 43 41  1  0  0  0  0
 44 45  1  0  0  0  0
 44 46  1  0  0  0  0
 47  5  1  0  0  0  0
 47 51  1  1  0  0  0
 48 47  1  0  0  0  0
 49 48  1  0  0  0  0
 50 48  2  0  0  0  0
 50  6  1  0  0  0  0
 51 54  1  0  0  0  0
 52 51  1  0  0  0  0
 53 51  1  0  0  0  0
 55 50  1  0  0  0  0
 55 56  1  0  0  0  0
 57 55  1  0  0  0  0
 58 55  1  0  0  0  0
M  END
