1,2
q = 0.0, confidence = 1.0

 43 45  0  0  1  0  0  0  0  0999 V2000
   -2.4654    0.4905    0.0652 N   0  0  0  0  0  2  0  0  0  0  0  0
    0.2270    0.7638   -0.1431 N   0  0  0  0  0  2  0  0  0  0  0  0
   -4.1132   -1.2678    0.3171 C   0  0  0  0  0  0  0  0  0  0  0  0
   -3.7060   -1.8409   -0.5461 H   0  0  0  0  0  0  0  0  0  0  0  0
   -5.2009   -1.4399    0.4075 H   0  0  0  0  0  0  0  0  0  0  0  0
   -3.5921   -1.6623    1.2156 H   0  0  0  0  0  0  0  0  0  0  0  0
   -3.7831    0.1804    0.1385 C   0  0  2  0  0  3  0  0  0  0  0  0
   -4.7464    1.1999    0.0392 C   0  0  0  0  0  0  0  0  0  0  0  0
   -5.8141    0.9461    0.1007 H   0  0  0  0  0  0  0  0  0  0  0  0
   -4.3288    2.5260   -0.1400 C   0  0  0  0  0  0  0  0  0  0  0  0
   -5.0715    3.3337   -0.2244 H   0  0  0  0  0  0  0  0  0  0  0  0
   -2.9609    2.8164   -0.2114 C   0  0  0  0  0  0  0  0  0  0  0  0
   -2.6020    3.8470   -0.3497 H   0  0  0  0  0  0  0  0  0  0  0  0
   -2.0484    1.7548   -0.0995 C   0  0  0  0  0  0  0  0  0  0  0  0
   -0.5497    1.9958   -0.1238 C   0  0  0  0  0  0  0  0  0  0  0  0
   -0.2994    2.6246   -1.0088 H   0  0  0  0  0  0  0  0  0  0  0  0
   -0.2884    2.6148    0.7659 H   0  0  0  0  0  0  0  0  0  0  0  0
    1.5081    0.8391   -0.0182 C   0  0  1  0  0  3  0  0  0  0  0  0
    2.3254    2.1063    0.1605 C   0  0  0  0  0  0  0  0  0  0  0  0
    2.2288    2.7569   -0.7346 H   0  0  0  0  0  0  0  0  0  0  0  0
    1.9657    2.7065    1.0240 H   0  0  0  0  0  0  0  0  0  0  0  0
    3.7457    1.5439    0.3494 C   0  0  1  0  0  0  0  0  0  0  0  0
    4.5490    2.2870    0.1784 H   0  0  0  0  0  0  0  0  0  0  0  0
    3.7674    0.8763    1.7451 C   0  0  0  0  0  0  0  0  0  0  0  0
    3.3788    1.5604    2.5258 H   0  0  0  0  0  0  0  0  0  0  0  0
    4.7981    0.6050    2.0449 H   0  0  0  0  0  0  0  0  0  0  0  0
    2.8731   -0.3789    1.5443 C   0  0  0  0  0  0  0  0  0  0  0  0
    3.4258   -1.3215    1.7285 H   0  0  0  0  0  0  0  0  0  0  0  0
    1.9681   -0.4192    2.1817 H   0  0  0  0  0  0  0  0  0  0  0  0
    2.4693   -0.3345    0.0280 C   0  0  1  0  0  0  0  0  0  0  0  0
    1.9836   -1.6579   -0.5321 C   0  0  0  0  0  0  0  0  0  0  0  0
    1.2601   -2.1373    0.1592 H   0  0  0  0  0  0  0  0  0  0  0  0
    2.8346   -2.3609   -0.6343 H   0  0  0  0  0  0  0  0  0  0  0  0
    1.4919   -1.5525   -1.5188 H   0  0  0  0  0  0  0  0  0  0  0  0
    3.7476    0.3245   -0.6265 C   0  0  0  0  0  0  0  0  0  0  0  0
    5.0121   -0.5369   -0.5283 C   0  0  0  0  0  0  0  0  0  0  0  0
    5.8919    0.0440   -0.8738 H   0  0  0  0  0  0  0  0  0  0  0  0
    4.9301   -1.4282   -1.1820 H   0  0  0  0  0  0  0  0  0  0  0  0
    5.2283   -0.8942    0.4954 H   0  0  0  0  0  0  0  0  0  0  0  0
    3.5366    0.6874   -2.1047 C   0  0  0  0  0  0  0  0  0  0  0  0
    2.5920    1.2324   -2.2988 H   0  0  0  0  0  0  0  0  0  0  0  0
    3.5024   -0.2324   -2.7221 H   0  0  0  0  0  0  0  0  0  0  0  0
    4.3736    1.3108   -2.4810 H   0  0  0  0  0  0  0  0  0  0  0  0
  1  7  1  0  0  0  0
  2 15  1  0  0  0  0
  3  5  1  0  0  0  0
  3  6  1  0  0  0  0
  4  3  1  0  0  0  0
  7  3  1  6  0  0  0
  8  9  1  0  0  0  0
  8  7  1  0  0  0  0
 10  8  2  0  0  0  0
 11 10  1  0  0  0  0
 12 10  1  0  0  0  0
 12 14  2  0  0  0  0
 13 12  1  0  0  0  0
 14  1  1  0  0  0  0
 15 14  1  0  0  0  0
 15 17  1  0  0  0  0
 16 15  1  0  0  0  0
 18  2  1  1  0  0  0
 18 30  1  0  0  0  0
 18 19  1  0  0  0  0
 19 22  1  0  0  0  0
 19 21  1  0  0  0  0
 20 19  1  0  0  0  0
 22 23  1  6  0  0  0
 22 24  1  0  0  0  0
 24 26  1  0  0  0  0
 24 25  1  0  0  0  0
 27 28  1  0  0  0  0
 27 24  1  0  0  0  0
 27 29  1  0  0  0  0
 30 31  1  6  0  0  0
 30 27  1  0  0  0  0
 31 32  1  0  0  0  0
 33 31  1  0  0  0  0
 34 31  1  0  0  0  0
 35 36  1  0  0  0  0
 35 30  1  0  0  0  0
 35 22  1  0  0  0  0
 36 39  1  0  0  0  0
 37 36  1  0  0  0  0
 38 36  1  0  0  0  0
 40 35  1  0  0  0  0
 41 40  1  0  0  0  0
 42 40  1  0  0  0  0
 43 40  1  0  0  0  0
M  END
