1,3
q = 0.0, confidence = 0.998

 63 67  0  0  1  0  0  0  0  0999 V2000
   -1.8422   -1.4705   -0.5103 N   0  0  0  0  0  2  0  0  0  0  0  0
   -0.5775   -1.8967   -0.2663 N   0  0  0  0  0  0  0  0  0  0  0  0
   -1.8429    1.4711   -0.5095 N   0  0  0  0  0  2  0  0  0  0  0  0
   -0.5778    1.8968   -0.2662 N   0  0  0  0  0  0  0  0  0  0  0  0
    0.8608    0.0001    0.4314 N   0  0  0  0  0  0  0  0  0  0  0  0
   -2.3837   -2.2888   -1.4305 C   0  0  1  0  0  3  0  0  0  0  0  0
   -1.4223   -3.2642   -1.7914 C   0  0  0  0  0  0  0  0  0  0  0  0
   -1.5506   -4.0809   -2.5090 H   0  0  0  0  0  0  0  0  0  0  0  0
   -0.2839   -3.0016   -1.0277 C   0  0  0  0  0  0  0  0  0  0  0  0
   -3.8039   -2.1381   -1.8624 C   0  0  0  0  0  0  0  0  0  0  0  0
   -4.4622   -2.1954   -0.9706 H   0  0  0  0  0  0  0  0  0  0  0  0
   -4.0816   -2.9304   -2.5815 H   0  0  0  0  0  0  0  0  0  0  0  0
   -3.9800   -1.1517   -2.3378 H   0  0  0  0  0  0  0  0  0  0  0  0
    1.0135   -3.7395   -0.9642 C   0  0  0  0  0  0  0  0  0  0  0  0
    1.8740   -3.1221   -1.2960 H   0  0  0  0  0  0  0  0  0  0  0  0
    0.9632   -4.6233   -1.6260 H   0  0  0  0  0  0  0  0  0  0  0  0
    1.2405   -4.1012    0.0602 H   0  0  0  0  0  0  0  0  0  0  0  0
    0.2372   -1.2467    0.7759 C   0  0  0  0  0  0  0  0  0  0  0  0
   -0.4327   -1.0946    1.6462 H   0  0  0  0  0  0  0  0  0  0  0  0
    1.0046   -1.9979    1.0454 H   0  0  0  0  0  0  0  0  0  0  0  0
   -2.3846    2.2897   -1.4293 C   0  0  2  0  0  3  0  0  0  0  0  0
   -1.4231    3.2648   -1.7906 C   0  0  0  0  0  0  0  0  0  0  0  0
   -1.5515    4.0816   -2.5081 H   0  0  0  0  0  0  0  0  0  0  0  0
   -0.2844    3.0018   -1.0276 C   0  0  0  0  0  0  0  0  0  0  0  0
   -3.8049    2.1392   -1.8609 C   0  0  0  0  0  0  0  0  0  0  0  0
   -3.9807    1.1542   -2.3392 H   0  0  0  0  0  0  0  0  0  0  0  0
   -4.0836    2.9335   -2.5774 H   0  0  0  0  0  0  0  0  0  0  0  0
   -4.4628    2.1935   -0.9685 H   0  0  0  0  0  0  0  0  0  0  0  0
    1.0132    3.7394   -0.9647 C   0  0  0  0  0  0  0  0  0  0  0  0
    1.2405    4.1013    0.0596 H   0  0  0  0  0  0  0  0  0  0  0  0
    0.9629    4.6230   -1.6267 H   0  0  0  0  0  0  0  0  0  0  0  0
    1.8735    3.1217   -1.2964 H   0  0  0  0  0  0  0  0  0  0  0  0
    0.2371    1.2469    0.7759 C   0  0  0  0  0  0  0  0  0  0  0  0
    1.0044    1.9982    1.0453 H   0  0  0  0  0  0  0  0  0  0  0  0
   -0.4327    1.0947    1.6462 H   0  0  0  0  0  0  0  0  0  0  0  0
    1.8707    0.0001   -0.6198 C   0  0  0  0  0  0  0  0  0  0  0  0
    1.7058    0.8786   -1.2811 H   0  0  0  0  0  0  0  0  0  0  0  0
    1.7058   -0.8784   -1.2811 H   0  0  0  0  0  0  0  0  0  0  0  0
    3.3444    0.0001   -0.1554 C   0  0  2  0  0  0  0  0  0  0  0  0
    3.6791   -1.2504    0.6909 C   0  0  0  0  0  0  0  0  0  0  0  0
    3.0432   -1.2578    1.6022 H   0  0  0  0  0  0  0  0  0  0  0  0
    3.4408   -2.1697    0.1122 H   0  0  0  0  0  0  0  0  0  0  0  0
    5.1668   -1.2571    1.0921 C   0  0  2  0  0  0  0  0  0  0  0  0
    5.3793   -2.1665    1.6933 H   0  0  0  0  0  0  0  0  0  0  0  0
    5.4745    0.0001    1.9272 C   0  0  0  0  0  0  0  0  0  0  0  0
    6.5405    0.0001    2.2400 H   0  0  0  0  0  0  0  0  0  0  0  0
    4.8654    0.0001    2.8567 H   0  0  0  0  0  0  0  0  0  0  0  0
    5.1668    1.2573    1.0921 C   0  0  2  0  0  0  0  0  0  0  0  0
    5.3794    2.1668    1.6933 H   0  0  0  0  0  0  0  0  0  0  0  0
    3.6792    1.2506    0.6908 C   0  0  0  0  0  0  0  0  0  0  0  0
    3.0433    1.2580    1.6022 H   0  0  0  0  0  0  0  0  0  0  0  0
    3.4409    2.1699    0.1122 H   0  0  0  0  0  0  0  0  0  0  0  0
    6.0393   -1.2586   -0.1780 C   0  0  0  0  0  0  0  0  0  0  0  0
    5.8394   -2.1726   -0.7782 H   0  0  0  0  0  0  0  0  0  0  0  0
    7.1153   -1.2835    0.0976 H   0  0  0  0  0  0  0  0  0  0  0  0
    5.7352    0.0001   -1.0132 C   0  0  2  0  0  0  0  0  0  0  0  0
    6.3605    0.0001   -1.9311 H   0  0  0  0  0  0  0  0  0  0  0  0
    6.0394    1.2588   -0.1780 C   0  0  0  0  0  0  0  0  0  0  0  0
    5.8395    2.1728   -0.7782 H   0  0  0  0  0  0  0  0  0  0  0  0
    7.1153    1.2836    0.0976 H   0  0  0  0  0  0  0  0  0  0  0  0
    4.2478    0.0001   -1.4103 C   0  0  0  0  0  0  0  0  0  0  0  0
    4.0181   -0.8922   -2.0344 H   0  0  0  0  0  0  0  0  0  0  0  0
    4.0181    0.8924   -2.0344 H   0  0  0  0  0  0  0  0  0  0  0  0
  1  2  1  0  0  0  0
  2 18  1  0  0  0  0
  3  4  1  0  0  0  0
  4 33  1  0  0  0  0
  5 33  1  0  0  0  0
  5 18  1  0  0  0  0
  6 10  1  1  0  0  0
  6  1  1  0  0  0  0
  7  6  1  0  0  0  0
  7  9  2  0  0  0  0
  8  7  1  0  0  0  0
  9 14  1  0  0  0  0
  9  2  1  0  0  0  0
 10 11  1  0  0  0  0
 12 10  1  0  0  0  0
 13 10  1  0  0  0  0
 14 17  1  0  0  0  0
 15 14  1  0  0  0  0
 16 14  1  0  0  0  0
 18 20  1  0  0  0  0
 18 19  1  0  0  0  0
 21 25  1  1  0  0  0
 21  3  1  0  0  0  0
 22 21  1  0  0  0  0
 22 24  2  0  0  0  0
 23 22  1  0  0  0  0
 24 29  1  0  0  0  0
 24  4  1  0  0  0  0
 25 28  1  0  0  0  0
 26 25  1  0  0  0  0
 27 25  1  0  0  0  0
 29 30  1  0  0  0  0
 31 29  1  0  0  0  0
 32 29  1  0  0  0  0
 33 34  1  0  0  0  0
 33 35  1  0  0  0  0
 36  5  1  0  0  0  0
 37 36  1  0  0  0  0
 38 36  1  0  0  0  0
 39 36  1  6  0  0  0
 39 50  1  0  0  0  0
 39 40  1  0  0  0  0
 40 43  1  0  0  0  0
 40 41  1  0  0  0  0
 42 40  1  0  0  0  0
 43 44  1  1  0  0  0
 43 45  1  0  0  0  0
 45 46  1  0  0  0  0
 45 47  1  0  0  0  0
 48 49  1  1  0  0  0
 48 45  1  0  0  0  0
 50 48  1  0  0  0  0
 50 51  1  0  0  0  0
 52 50  1  0  0  0  0
 53 55  1  0  0  0  0
 53 43  1  0  0  0  0
 54 53  1  0  0  0  0
 56 57  1  6  0  0  0
 56 58  1  0  0  0  0
 56 53  1  0  0  0  0
 58 60  1  0  0  0  0
 58 48  1  0  0  0  0
 59 58  1  0  0  0  0
 61 56  1  0  0  0  0
 61 39  1  0  0  0  0
 62 61  1  0  0  0  0
 63 61  1  0  0  0  0
M  END
