21,22
q = 0.0, confidence = 0.998

 26 27  0  0  0  0  0  0  0  0999 V2000
    1.7153    2.8919    0.2316 C   0  0  0  0  0  0  0  0  0  0  0  0
    1.7625    3.9836    0.1849 H   0  0  0  0  0  0  0  0  0  0  0  0
    0.6724    1.9837    0.1014 C   0  0  0  0  0  0  0  0  0  0  0  0
   -0.7548    1.9550   -0.1091 C   0  0  0  0  0  0  0  0  0  0  0  0
   -1.8241    2.8211   -0.2981 C   0  0  0  0  0  0  0  0  0  0  0  0
   -1.8980    3.9105   -0.3603 H   0  0  0  0  0  0  0  0  0  0  0  0
    4.2185    2.5342    0.5636 C   0  0  0  0  0  0  0  0  0  0  0  0
    4.6834    1.8653    1.3134 H   0  0  0  0  0  0  0  0  0  0  0  0
    4.2122    3.5587    0.9841 H   0  0  0  0  0  0  0  0  0  0  0  0
    4.9475    2.4693   -0.7746 C   0  0  0  0  0  0  0  0  0  0  0  0
    4.9313    1.4391   -1.1800 H   0  0  0  0  0  0  0  0  0  0  0  0
    6.0033    2.7727   -0.6366 H   0  0  0  0  0  0  0  0  0  0  0  0
    4.4879    3.1480   -1.5196 H   0  0  0  0  0  0  0  0  0  0  0  0
   -4.3194    2.3717   -0.5715 C   0  0  0  0  0  0  0  0  0  0  0  0
   -4.7663    1.6240   -1.2546 H   0  0  0  0  0  0  0  0  0  0  0  0
   -4.3374    3.3512   -1.0877 H   0  0  0  0  0  0  0  0  0  0  0  0
   -5.0518    2.4201    0.7654 C   0  0  0  0  0  0  0  0  0  0  0  0
   -5.0256    1.4324    1.2657 H   0  0  0  0  0  0  0  0  0  0  0  0
   -6.1119    2.6918    0.5975 H   0  0  0  0  0  0  0  0  0  0  0  0
   -4.6080    3.1740    1.4453 H   0  0  0  0  0  0  0  0  0  0  0  0
    1.2285    0.7291    0.2474 N   0  0  0  0  0  2  0  0  0  0  0  0
   -1.2787    0.6781   -0.1351 N   0  0  0  0  0  2  0  0  0  0  0  0
    2.5158    0.8084    0.4552 N   0  0  0  0  0  2  0  0  0  0  0  0
    2.8166    2.1143    0.4522 N   0  0  0  0  0  0  0  0  0  0  0  0
   -2.5716    0.7062   -0.3209 N   0  0  0  0  0  2  0  0  0  0  0  0
   -2.9078    1.9991   -0.4256 N   0  0  0  0  0  0  0  0  0  0  0  0
  1 24  1  0  0  0  0
  2  1  1  0  0  0  0
  3  1  2  0  0  0  0
  3 21  1  0  0  0  0
  4  3  1  0  0  0  0
  5  4  2  0  0  0  0
  6  5  1  0  0  0  0
  7  9  1  0  0  0  0
  7  8  1  0  0  0  0
 10 12  1  0  0  0  0
 10  7  1  0  0  0  0
 11 10  1  0  0  0  0
 13 10  1  0  0  0  0
 14 26  1  0  0  0  0
 14 17  1  0  0  0  0
 15 14  1  0  0  0  0
 16 14  1  0  0  0  0
 17 18  1  0  0  0  0
 17 20  1  0  0  0  0
 19 17  1  0  0  0  0
 21 23  1  0  0  0  0
 22  4  1  0  0  0  0
 24 23  1  0  0  0  0
 24  7  1  0  0  0  0
 25 22  1  0  0  0  0
 26 25  1  0  0  0  0
 26  5  1  0  0  0  0
M  END
