1,12
q = -1.0, confidence = 0.0

 17 18  0  0  1  0  0  0  0  0999 V2000
    1.9824   -0.7772   -0.3271 N   0  0  0  0  0  2  0  0  0  0  0  0
    2.9544    0.1890   -0.3213 C   0  0  2  0  0  3  0  0  0  0  0  0
    4.3095   -0.1984   -0.3528 C   0  0  0  0  0  0  0  0  0  0  0  0
    5.0878    0.5768   -0.3443 H   0  0  0  0  0  0  0  0  0  0  0  0
    4.6332   -1.5572   -0.3763 C   0  0  0  0  0  0  0  0  0  0  0  0
    5.6881   -1.8694   -0.3976 H   0  0  0  0  0  0  0  0  0  0  0  0
    3.6079   -2.5201   -0.3560 C   0  0  0  0  0  0  0  0  0  0  0  0
    3.8275   -3.5964   -0.3623 H   0  0  0  0  0  0  0  0  0  0  0  0
    2.2789   -2.0878   -0.3224 C   0  0  0  0  0  0  0  0  0  0  0  0
    1.4074   -2.7731   -0.2813 H   0  0  0  0  0  0  0  0  0  0  0  0
    0.7240    2.9466   -0.0869 N   0  0  0  0  0  0  0  0  0  0  0  0
    1.0983    1.6868   -0.1322 N   0  0  0  0  0  2  0  0  0  0  0  0
    2.4593    1.5445   -0.2621 C   0  0  0  0  0  0  0  0  0  0  0  0
    2.9940    2.8478   -0.3020 C   0  0  0  0  0  0  0  0  0  0  0  0
    4.0442    3.1405   -0.4004 H   0  0  0  0  0  0  0  0  0  0  0  0
    1.8629    3.6799   -0.1914 C   0  0  0  0  0  0  0  0  0  0  0  0
    1.8097    4.7752   -0.1831 H   0  0  0  0  0  0  0  0  0  0  0  0
  1  9  1  0  0  0  0
  1  2  1  0  0  0  0
  2 13  1  1  0  0  0
  3  4  1  0  0  0  0
  3  2  1  0  0  0  0
  5  7  1  0  0  0  0
  5  3  2  0  0  0  0
  6  5  1  0  0  0  0
  7  9  2  0  0  0  0
  8  7  1  0  0  0  0
  9 10  1  0  0  0  0
 12 11  1  0  0  0  0
 13 12  1  0  0  0  0
 14 13  2  0  0  0  0
 14 16  1  0  0  0  0
 15 14  1  0  0  0  0
 16 17  1  0  0  0  0
 16 11  2  0  0  0  0
M  END
