1,3
q = 0.0, confidence = 1.0

 36 38  0  0  1  0  0  0  0  0999 V2000
    1.4561   -1.2680    1.8713 N   0  0  0  0  0  2  0  0  0  0  0  0
    0.2328   -2.7673    0.5824 N   0  0  2  0  0  0  0  0  0  0  0  0
   -0.5931   -1.7249    0.3044 N   0  0  0  0  0  2  0  0  0  0  0  0
    1.3880   -2.5125    1.3453 C   0  0  1  0  0  3  0  0  0  0  0  0
    2.3959   -3.4749    1.5207 C   0  0  0  0  0  0  0  0  0  0  0  0
    2.3102   -4.4706    1.0668 H   0  0  0  0  0  0  0  0  0  0  0  0
    3.5223   -3.1177    2.2661 C   0  0  0  0  0  0  0  0  0  0  0  0
    4.3323   -3.8455    2.4198 H   0  0  0  0  0  0  0  0  0  0  0  0
    3.6114   -1.8212    2.8035 C   0  0  0  0  0  0  0  0  0  0  0  0
    4.4848   -1.5030    3.3891 H   0  0  0  0  0  0  0  0  0  0  0  0
    2.5579   -0.9333    2.5797 C   0  0  0  0  0  0  0  0  0  0  0  0
    2.5795    0.0934    2.9756 H   0  0  0  0  0  0  0  0  0  0  0  0
   -0.2437   -3.9349    0.0329 C   0  0  0  0  0  3  0  0  0  0  0  0
    0.2780   -4.8883    0.1577 H   0  0  0  0  0  0  0  0  0  0  0  0
   -1.4267   -3.6234   -0.6138 C   0  0  0  0  0  0  0  0  0  0  0  0
   -2.0865   -4.3012   -1.1593 H   0  0  0  0  0  0  0  0  0  0  0  0
   -1.6117   -2.2157   -0.4328 C   0  0  0  0  0  0  0  0  0  0  0  0
   -2.6540   -1.3060   -0.9231 C   0  0  0  0  0  0  0  0  0  0  0  0
   -3.9744   -1.7563   -1.2240 C   0  0  0  0  0  0  0  0  0  0  0  0
   -4.9443   -0.8154   -1.6137 C   0  0  0  0  0  0  0  0  0  0  0  0
   -5.9673   -1.1397   -1.8434 H   0  0  0  0  0  0  0  0  0  0  0  0
   -4.6367    0.5527   -1.7136 C   0  0  0  0  0  0  0  0  0  0  0  0
   -5.4274    1.2505   -2.0194 H   0  0  0  0  0  0  0  0  0  0  0  0
   -3.3313    0.9997   -1.4375 C   0  0  0  0  0  0  0  0  0  0  0  0
   -2.3578    0.0613   -1.0591 C   0  0  0  0  0  0  0  0  0  0  0  0
   -1.3349    0.4170   -0.8750 H   0  0  0  0  0  0  0  0  0  0  0  0
   -5.5200   -3.5767   -1.3582 C   0  0  0  0  0  0  0  0  0  0  0  0
   -6.2714   -3.1248   -0.6738 H   0  0  0  0  0  0  0  0  0  0  0  0
   -5.4859   -4.6678   -1.1857 H   0  0  0  0  0  0  0  0  0  0  0  0
   -5.8271   -3.3847   -2.4097 H   0  0  0  0  0  0  0  0  0  0  0  0
   -3.8524    3.2817   -1.8979 C   0  0  0  0  0  0  0  0  0  0  0  0
   -3.3123    4.2467   -1.9111 H   0  0  0  0  0  0  0  0  0  0  0  0
   -4.7032    3.3515   -1.1825 H   0  0  0  0  0  0  0  0  0  0  0  0
   -4.2564    3.0851   -2.9156 H   0  0  0  0  0  0  0  0  0  0  0  0
   -4.2133   -3.0897   -1.0954 O   0  0  0  0  0  0  0  0  0  0  0  0
   -2.9120    2.2995   -1.5042 O   0  0  0  0  0  0  0  0  0  0  0  0
  1 11  1  0  0  0  0
  2 13  1  6  0  0  0
  2  4  1  0  0  0  0
  3  2  1  0  0  0  0
  4  5  1  6  0  0  0
  4  1  1  0  0  0  0
  5  7  2  0  0  0  0
  6  5  1  0  0  0  0
  7  8  1  0  0  0  0
  7  9  1  0  0  0  0
  9 10  1  0  0  0  0
 11  9  2  0  0  0  0
 11 12  1  0  0  0  0
 13 14  1  0  0  0  0
 15 17  2  0  0  0  0
 15 13  1  0  0  0  0
 16 15  1  0  0  0  0
 17  3  1  0  0  0  0
 18 17  1  0  0  0  0
 19 35  1  0  0  0  0
 19 18  2  0  0  0  0
 20 19  1  0  0  0  0
 21 20  1  0  0  0  0
 22 20  2  0  0  0  0
 22 24  1  0  0  0  0
 23 22  1  0  0  0  0
 24 25  2  0  0  0  0
 25 18  1  0  0  0  0
 25 26  1  0  0  0  0
 27 29  1  0  0  0  0
 27 35  1  0  0  0  0
 27 28  1  0  0  0  0
 30 27  1  0  0  0  0
 31 36  1  0  0  0  0
 31 33  1  0  0  0  0
 32 31  1  0  0  0  0
 34 31  1  0  0  0  0
 36 24  1  0  0  0  0
M  END
