5,6
q = -1.0

 31 32  0  0  0  0  0  0  0  0999 V2000
   -1.2168   -2.5379   -0.3220 O   0  0  0  0  0  0  0  0  0  0  0  0
   -1.2112    2.5138    0.3415 O   0  0  0  0  0  1  0  0  0  0  0  0
   -7.2734   -3.9598    0.3570 O   0  0  0  0  0  0  0  0  0  0  0  0
   -7.3279    3.8793   -0.4630 O   0  0  0  0  0  0  0  0  0  0  0  0
   -1.4074   -1.2292   -0.2203 N   0  0  0  0  0  2  0  0  0  0  0  0
   -1.4155    1.2379    0.2179 N   0  0  0  0  0  2  0  0  0  0  0  0
   -2.6310   -0.7381   -0.0693 C   0  0  0  0  0  0  0  0  0  0  0  0
   -2.6415    0.7310    0.0684 C   0  0  0  0  0  0  0  0  0  0  0  0
   -3.8343   -1.5790    0.0418 C   0  0  0  0  0  0  0  0  0  0  0  0
   -4.8479   -1.2453    0.9715 C   0  0  0  0  0  0  0  0  0  0  0  0
   -5.9971   -2.0292    1.0984 C   0  0  0  0  0  0  0  0  0  0  0  0
   -6.1722   -3.1677    0.2855 C   0  0  0  0  0  0  0  0  0  0  0  0
   -5.1695   -3.5144   -0.6436 C   0  0  0  0  0  0  0  0  0  0  0  0
   -4.0161   -2.7373   -0.7539 C   0  0  0  0  0  0  0  0  0  0  0  0
   -3.8493    1.5637   -0.0462 C   0  0  0  0  0  0  0  0  0  0  0  0
   -4.0140    2.7438    0.7176 C   0  0  0  0  0  0  0  0  0  0  0  0
   -5.1692    3.5218    0.5976 C   0  0  0  0  0  0  0  0  0  0  0  0
   -6.1886    3.1543   -0.3040 C   0  0  0  0  0  0  0  0  0  0  0  0
   -6.0312    1.9918   -1.0858 C   0  0  0  0  0  0  0  0  0  0  0  0
   -4.8816    1.2128   -0.9536 C   0  0  0  0  0  0  0  0  0  0  0  0
   -0.1094   -2.6371   -0.3451 H   0  0  0  0  0  0  0  0  0  0  0  0
   -7.8684   -3.6018    1.0422 H   0  0  0  0  0  0  0  0  0  0  0  0
   -7.2858    4.6526    0.1300 H   0  0  0  0  0  0  0  0  0  0  0  0
   -4.7295   -0.3604    1.6121 H   0  0  0  0  0  0  0  0  0  0  0  0
   -6.7705   -1.7563    1.8352 H   0  0  0  0  0  0  0  0  0  0  0  0
   -5.3155   -4.4069   -1.2688 H   0  0  0  0  0  0  0  0  0  0  0  0
   -3.2361   -3.0243   -1.4701 H   0  0  0  0  0  0  0  0  0  0  0  0
   -3.2206    3.0510    1.4098 H   0  0  0  0  0  0  0  0  0  0  0  0
   -5.2816    4.4341    1.2071 H   0  0  0  0  0  0  0  0  0  0  0  0
   -6.8236    1.7205   -1.7978 H   0  0  0  0  0  0  0  0  0  0  0  0
   -4.7735    0.3142   -1.5769 H   0  0  0  0  0  0  0  0  0  0  0  0
  1  5  1  0  0  0  0
  3 22  1  0  0  0  0
  4 18  1  0  0  0  0
  4 23  1  0  0  0  0
  5  7  1  0  0  0  0
  6  2  1  0  0  0  0
  7  9  1  0  0  0  0
  7  8  2  0  0  0  0
  8  6  1  0  0  0  0
  9 10  1  0  0  0  0
 10 11  2  0  0  0  0
 10 24  1  0  0  0  0
 11 25  1  0  0  0  0
 12  3  1  0  0  0  0
 12 11  1  0  0  0  0
 13 12  2  0  0  0  0
 14 13  1  0  0  0  0
 14  9  2  0  0  0  0
 15  8  1  0  0  0  0
 15 16  1  0  0  0  0
 16 28  1  0  0  0  0
 17 16  2  0  0  0  0
 17 29  1  0  0  0  0
 18 17  1  0  0  0  0
 19 20  1  0  0  0  0
 19 18  2  0  0  0  0
 20 15  2  0  0  0  0
 21  1  1  0  0  0  0
 26 13  1  0  0  0  0
 27 14  1  0  0  0  0
 30 19  1  0  0  0  0
 31 20  1  0  0  0  0
M  END
