1,16
q = 0.0, confidence = 0.99

 37 38  0  0  0  0  0  0  0  0999 V2000
    1.2483   -1.5628   -0.3915 N   0  0  0  0  0  2  0  0  0  0  0  0
    0.0358   -1.9734    0.0267 N   0  0  0  0  0  0  0  0  0  0  0  0
    1.5969   -2.3508   -1.4209 C   0  0  0  0  0  3  0  0  0  0  0  0
    2.5676   -2.1747   -1.9037 H   0  0  0  0  0  0  0  0  0  0  0  0
    0.5788   -3.2970   -1.6744 C   0  0  0  0  0  0  0  0  0  0  0  0
    0.5640   -4.0812   -2.4375 H   0  0  0  0  0  0  0  0  0  0  0  0
   -0.4075   -3.0196   -0.7266 C   0  0  0  0  0  0  0  0  0  0  0  0
   -1.3759   -3.4902   -0.5216 H   0  0  0  0  0  0  0  0  0  0  0  0
   -0.6744   -1.2486    1.1039 C   0  0  0  0  0  0  0  0  0  0  0  0
   -1.4531   -1.9586    1.4571 H   0  0  0  0  0  0  0  0  0  0  0  0
    0.0682   -1.0795    1.9134 H   0  0  0  0  0  0  0  0  0  0  0  0
   -0.6744    1.2486    1.1039 C   0  0  0  0  0  0  0  0  0  0  0  0
    0.0682    1.0795    1.9134 H   0  0  0  0  0  0  0  0  0  0  0  0
   -1.4531    1.9586    1.4571 H   0  0  0  0  0  0  0  0  0  0  0  0
    0.0359    1.9734    0.0266 N   0  0  0  0  0  0  0  0  0  0  0  0
    1.2483    1.5627   -0.3915 N   0  0  0  0  0  2  0  0  0  0  0  0
   -0.4074    3.0196   -0.7266 C   0  0  0  0  0  3  0  0  0  0  0  0
   -1.3758    3.4902   -0.5216 H   0  0  0  0  0  0  0  0  0  0  0  0
    0.5789    3.2970   -1.6744 C   0  0  0  0  0  0  0  0  0  0  0  0
    0.5641    4.0812   -2.4376 H   0  0  0  0  0  0  0  0  0  0  0  0
    1.5969    2.3508   -1.4210 C   0  0  0  0  0  0  0  0  0  0  0  0
    2.5676    2.1746   -1.9038 H   0  0  0  0  0  0  0  0  0  0  0  0
   -1.2409    0.0000    0.7044 N   0  0  0  0  0  0  0  0  0  0  0  0
   -2.3952    0.0000   -0.1805 C   0  0  0  0  0  0  0  0  0  0  0  0
   -2.3309   -0.8799   -0.8582 H   0  0  0  0  0  0  0  0  0  0  0  0
   -2.3309    0.8799   -0.8582 H   0  0  0  0  0  0  0  0  0  0  0  0
   -3.7381    0.0000    0.5606 C   0  0  0  0  0  0  0  0  0  0  0  0
   -3.8065   -0.8887    1.2235 H   0  0  0  0  0  0  0  0  0  0  0  0
   -3.8065    0.8889    1.2234 H   0  0  0  0  0  0  0  0  0  0  0  0
   -4.9331   -0.0000   -0.3817 C   0  0  0  0  0  0  0  0  0  0  0  0
   -4.8937    0.8954   -1.0570 H   0  0  0  0  0  0  0  0  0  0  0  0
   -4.8938   -0.8956   -1.0568 H   0  0  0  0  0  0  0  0  0  0  0  0
   -6.1164    0.0001    0.3810 O   0  0  0  0  0  0  0  0  0  0  0  0
   -7.2807   -0.0000   -0.4084 C   0  0  0  0  0  0  0  0  0  0  0  0
   -7.3449    0.9018   -1.0664 H   0  0  0  0  0  0  0  0  0  0  0  0
   -8.1520    0.0001    0.2748 H   0  0  0  0  0  0  0  0  0  0  0  0
   -7.3449   -0.9022   -1.0661 H   0  0  0  0  0  0  0  0  0  0  0  0
  1  2  1  0  0  0  0
  2  9  1  0  0  0  0
  3  1  1  0  0  0  0
  4  3  1  0  0  0  0
  5  3  1  0  0  0  0
  5  7  2  0  0  0  0
  6  5  1  0  0  0  0
  7  8  1  0  0  0  0
  7  2  1  0  0  0  0
  9 10  1  0  0  0  0
  9 11  1  0  0  0  0
 12 14  1  0  0  0  0
 12 13  1  0  0  0  0
 15 12  1  0  0  0  0
 16 15  1  0  0  0  0
 17 18  1  0  0  0  0
 17 15  1  0  0  0  0
 19 21  2  0  0  0  0
 19 17  1  0  0  0  0
 20 19  1  0  0  0  0
 21 16  1  0  0  0  0
 22 21  1  0  0  0  0
 23 12  1  0  0  0  0
 23  9  1  0  0  0  0
 24 27  1  0  0  0  0
 24 23  1  0  0  0  0
 25 24  1  0  0  0  0
 26 24  1  0  0  0  0
 27 29  1  0  0  0  0
 27 28  1  0  0  0  0
 30 33  1  0  0  0  0
 30 27  1  0  0  0  0
 31 30  1  0  0  0  0
 32 30  1  0  0  0  0
 34 36  1  0  0  0  0
 34 33  1  0  0  0  0
 35 34  1  0  0  0  0
 37 34  1  0  0  0  0
M  END
