2,3
q = -2.0, confidence = 0.828

 39 39  0  0  0  0  0  0  0  0999 V2000
    0.5778    1.1170    0.0293 Si  0  0  0  0  0  0  0  0  0  0  0  0
    1.0464   -0.6053   -0.0899 N   0  0  0  0  0  2  0  0  0  0  0  0
   -1.1440    0.6582    0.1126 N   0  0  0  0  0  2  0  0  0  0  0  0
    1.3598    2.1080    1.4551 C   0  0  0  0  0  0  0  0  0  0  0  0
    0.6034    2.7721    1.9293 H   0  0  0  0  0  0  0  0  0  0  0  0
    1.7725    1.4788    2.2695 H   0  0  0  0  0  0  0  0  0  0  0  0
    2.4117    2.8952    0.7093 C   0  0  0  0  0  0  0  0  0  0  0  0
    3.2259    3.3974    1.2595 H   0  0  0  0  0  0  0  0  0  0  0  0
    2.3367    2.9717   -0.6436 C   0  0  0  0  0  0  0  0  0  0  0  0
    3.0875    3.5377   -1.2213 H   0  0  0  0  0  0  0  0  0  0  0  0
    1.2047    2.2665   -1.3546 C   0  0  0  0  0  0  0  0  0  0  0  0
    1.5241    1.7327   -2.2728 H   0  0  0  0  0  0  0  0  0  0  0  0
    0.4090    2.9787   -1.6693 H   0  0  0  0  0  0  0  0  0  0  0  0
    2.3488   -1.2879   -0.1332 C   0  0  0  0  0  0  0  0  0  0  0  0
    3.1897   -0.7311   -1.2959 C   0  0  0  0  0  0  0  0  0  0  0  0
    4.1519   -1.2763   -1.3741 H   0  0  0  0  0  0  0  0  0  0  0  0
    3.4196    0.3426   -1.1398 H   0  0  0  0  0  0  0  0  0  0  0  0
    2.6462   -0.8419   -2.2552 H   0  0  0  0  0  0  0  0  0  0  0  0
    3.0829   -1.0836    1.2056 C   0  0  0  0  0  0  0  0  0  0  0  0
    2.4406   -1.4116    2.0468 H   0  0  0  0  0  0  0  0  0  0  0  0
    3.3477   -0.0179    1.3552 H   0  0  0  0  0  0  0  0  0  0  0  0
    4.0223   -1.6721    1.2272 H   0  0  0  0  0  0  0  0  0  0  0  0
    2.0702   -2.7877   -0.3528 C   0  0  0  0  0  0  0  0  0  0  0  0
    3.0157   -3.3633   -0.4056 H   0  0  0  0  0  0  0  0  0  0  0  0
    1.5113   -2.9440   -1.2979 H   0  0  0  0  0  0  0  0  0  0  0  0
    1.4652   -3.1944    0.4843 H   0  0  0  0  0  0  0  0  0  0  0  0
   -2.3832    1.4483    0.0409 C   0  0  0  0  0  0  0  0  0  0  0  0
   -2.6341    1.8566   -1.4240 C   0  0  0  0  0  0  0  0  0  0  0  0
   -1.8313    2.5249   -1.7946 H   0  0  0  0  0  0  0  0  0  0  0  0
   -3.5991    2.3939   -1.5222 H   0  0  0  0  0  0  0  0  0  0  0  0
   -2.6595    0.9563   -2.0694 H   0  0  0  0  0  0  0  0  0  0  0  0
   -2.2656    2.6938    0.9366 C   0  0  0  0  0  0  0  0  0  0  0  0
   -1.4534    3.3638    0.5857 H   0  0  0  0  0  0  0  0  0  0  0  0
   -2.0525    2.4034    1.9847 H   0  0  0  0  0  0  0  0  0  0  0  0
   -3.2090    3.2756    0.9206 H   0  0  0  0  0  0  0  0  0  0  0  0
   -3.5333    0.5489    0.5336 C   0  0  0  0  0  0  0  0  0  0  0  0
   -3.3408    0.1996    1.5673 H   0  0  0  0  0  0  0  0  0  0  0  0
   -3.6326   -0.3412   -0.1227 H   0  0  0  0  0  0  0  0  0  0  0  0
   -4.4981    1.0941    0.5153 H   0  0  0  0  0  0  0  0  0  0  0  0
  1  3  1  0  0  0  0
  1  4  1  0  0  0  0
  2  1  1  0  0  0  0
  4  5  1  0  0  0  0
  4  6  1  0  0  0  0
  7  8  1  0  0  0  0
  7  4  1  0  0  0  0
  9  7  2  0  0  0  0
 10  9  1  0  0  0  0
 11  9  1  0  0  0  0
 11  1  1  0  0  0  0
 12 11  1  0  0  0  0
 13 11  1  0  0  0  0
 14  2  1  0  0  0  0
 14 19  1  0  0  0  0
 15 17  1  0  0  0  0
 15 14  1  0  0  0  0
 16 15  1  0  0  0  0
 18 15  1  0  0  0  0
 19 22  1  0  0  0  0
 19 21  1  0  0  0  0
 19 20  1  0  0  0  0
 23 14  1  0  0  0  0
 23 26  1  0  0  0  0
 24 23  1  0  0  0  0
 25 23  1  0  0  0  0
 27  3  1  0  0  0  0
 27 36  1  0  0  0  0
 27 32  1  0  0  0  0
 28 27  1  0  0  0  0
 29 28  1  0  0  0  0
 30 28  1  0  0  0  0
 31 28  1  0  0  0  0
 32 34  1  0  0  0  0
 33 32  1  0  0  0  0
 35 32  1  0  0  0  0
 36 37  1  0  0  0  0
 38 36  1  0  0  0  0
 39 36  1  0  0  0  0
M  END
