3,4
q = 0.0, confidence = 0.996

 40 42  0  0  1  0  0  0  0  0999 V2000
   -4.7929   -0.9986   -0.2949 Br  0  0  0  0  0  0  0  0  0  0  0  0
    0.9227   -0.2250   -1.5309 N   0  0  0  0  0  0  0  0  0  0  0  0
    3.0293   -0.5877    0.1588 N   0  0  0  0  0  2  0  0  0  0  0  0
   -0.5020    1.4711    0.1221 N   0  0  0  0  0  2  0  0  0  0  0  0
   -2.0637   -1.3867   -0.6603 N   0  0  0  0  0  0  0  0  0  0  0  0
    2.2561   -0.3449   -2.1222 C   0  0  0  0  0  0  0  0  0  0  0  0
    2.6178    0.6927   -2.3101 H   0  0  0  0  0  0  0  0  0  0  0  0
    2.2684   -0.9186   -3.0792 H   0  0  0  0  0  0  0  0  0  0  0  0
    3.2202   -0.9520   -1.1257 C   0  0  1  0  0  3  0  0  0  0  0  0
    4.2791   -1.7979   -1.4896 C   0  0  0  0  0  0  0  0  0  0  0  0
    4.4090   -2.0921   -2.5418 H   0  0  0  0  0  0  0  0  0  0  0  0
    5.1555   -2.2536   -0.4939 C   0  0  0  0  0  0  0  0  0  0  0  0
    5.9943   -2.9166   -0.7553 H   0  0  0  0  0  0  0  0  0  0  0  0
    4.9450   -1.8612    0.8364 C   0  0  0  0  0  0  0  0  0  0  0  0
    5.6071   -2.2014    1.6454 H   0  0  0  0  0  0  0  0  0  0  0  0
    3.8594   -1.0229    1.1217 C   0  0  0  0  0  0  0  0  0  0  0  0
    3.6091   -0.6740    2.1394 H   0  0  0  0  0  0  0  0  0  0  0  0
    0.0801    0.8081   -2.1366 C   0  0  0  0  0  0  0  0  0  0  0  0
   -0.4415    0.4552   -3.0567 H   0  0  0  0  0  0  0  0  0  0  0  0
    0.7563    1.6523   -2.3994 H   0  0  0  0  0  0  0  0  0  0  0  0
   -0.9258    1.3690   -1.1519 C   0  0  2  0  0  3  0  0  0  0  0  0
   -2.2085    1.7925   -1.5273 C   0  0  0  0  0  0  0  0  0  0  0  0
   -2.5426    1.6717   -2.5678 H   0  0  0  0  0  0  0  0  0  0  0  0
   -3.0570    2.3288   -0.5502 C   0  0  0  0  0  0  0  0  0  0  0  0
   -4.0736    2.6533   -0.8172 H   0  0  0  0  0  0  0  0  0  0  0  0
   -2.6034    2.4219    0.7744 C   0  0  0  0  0  0  0  0  0  0  0  0
   -3.2454    2.8213    1.5722 H   0  0  0  0  0  0  0  0  0  0  0  0
   -1.3114    1.9731    1.0711 C   0  0  0  0  0  0  0  0  0  0  0  0
   -0.8835    1.9844    2.0884 H   0  0  0  0  0  0  0  0  0  0  0  0
    0.2622   -1.5388   -1.3825 C   0  0  0  0  0  0  0  0  0  0  0  0
    1.0523   -2.2765   -1.1395 H   0  0  0  0  0  0  0  0  0  0  0  0
   -0.2211   -1.8493   -2.3379 H   0  0  0  0  0  0  0  0  0  0  0  0
   -0.7784   -1.5565   -0.2843 C   0  0  0  0  0  0  0  0  0  0  0  0
   -0.4017   -1.6564    1.0649 C   0  0  0  0  0  0  0  0  0  0  0  0
    0.6534   -1.7549    1.3533 H   0  0  0  0  0  0  0  0  0  0  0  0
   -1.3922   -1.5423    2.0507 C   0  0  0  0  0  0  0  0  0  0  0  0
   -1.1123   -1.5640    3.1139 H   0  0  0  0  0  0  0  0  0  0  0  0
   -2.7246   -1.3554    1.6656 C   0  0  0  0  0  0  0  0  0  0  0  0
   -3.5358   -1.2475    2.3980 H   0  0  0  0  0  0  0  0  0  0  0  0
   -2.9830   -1.2897    0.2834 C   0  0  0  0  0  0  0  0  0  0  0  0
  1 40  1  0  0  0  0
  2 30  1  0  0  0  0
  3 16  1  0  0  0  0
  4 28  1  0  0  0  0
  5 33  2  0  0  0  0
  5 40  1  0  0  0  0
  6  2  1  0  0  0  0
  7  6  1  0  0  0  0
  8  6  1  0  0  0  0
  9  6  1  6  0  0  0
  9  3  1  0  0  0  0
 10  9  1  0  0  0  0
 10 12  2  0  0  0  0
 11 10  1  0  0  0  0
 12 14  1  0  0  0  0
 13 12  1  0  0  0  0
 14 16  2  0  0  0  0
 14 15  1  0  0  0  0
 16 17  1  0  0  0  0
 18  2  1  0  0  0  0
 19 18  1  0  0  0  0
 20 18  1  0  0  0  0
 21 18  1  6  0  0  0
 21  4  1  0  0  0  0
 22 21  1  0  0  0  0
 22 24  2  0  0  0  0
 23 22  1  0  0  0  0
 24 26  1  0  0  0  0
 25 24  1  0  0  0  0
 26 28  2  0  0  0  0
 26 27  1  0  0  0  0
 28 29  1  0  0  0  0
 30 31  1  0  0  0  0
 30 33  1  0  0  0  0
 32 30  1  0  0  0  0
 33 34  1  0  0  0  0
 34 35  1  0  0  0  0
 34 36  2  0  0  0  0
 36 37  1  0  0  0  0
 38 36  1  0  0  0  0
 38 39  1  0  0  0  0
 40 38  2  0  0  0  0
M  END
