1,2
q = 0.0, confidence = 1.0

 40 43  0  0  1  0  0  0  0  0999 V2000
    2.7725    0.4955   -0.0300 N   0  0  0  0  0  2  0  0  0  0  0  0
    0.0771    0.6518    0.0060 N   0  0  0  0  0  2  0  0  0  0  0  0
    2.2174    1.7095    0.0774 C   0  0  0  0  0  0  0  0  0  0  0  0
    3.0032    2.8921    0.1829 C   0  0  0  0  0  0  0  0  0  0  0  0
    2.5071    3.8694    0.2732 H   0  0  0  0  0  0  0  0  0  0  0  0
    4.3834    2.7801    0.1769 C   0  0  0  0  0  0  0  0  0  0  0  0
    5.0203    3.6734    0.2693 H   0  0  0  0  0  0  0  0  0  0  0  0
    4.9938    1.5017    0.0418 C   0  0  0  0  0  0  0  0  0  0  0  0
    4.1250    0.3531   -0.0763 C   0  0  2  0  0  3  0  0  0  0  0  0
    6.4026    1.3034    0.0108 C   0  0  0  0  0  0  0  0  0  0  0  0
    7.0664    2.1761    0.1084 H   0  0  0  0  0  0  0  0  0  0  0  0
    6.9239    0.0273   -0.1451 C   0  0  0  0  0  0  0  0  0  0  0  0
    8.0139   -0.1206   -0.1692 H   0  0  0  0  0  0  0  0  0  0  0  0
    6.0609   -1.0958   -0.2878 C   0  0  0  0  0  0  0  0  0  0  0  0
    6.4942   -2.0965   -0.4334 H   0  0  0  0  0  0  0  0  0  0  0  0
    4.6840   -0.9459   -0.2559 C   0  0  0  0  0  0  0  0  0  0  0  0
    3.9974   -1.7930   -0.4135 H   0  0  0  0  0  0  0  0  0  0  0  0
    0.7510    1.7563    0.0854 C   0  0  0  0  0  3  0  0  0  0  0  0
    0.2589    2.7445    0.1883 H   0  0  0  0  0  0  0  0  0  0  0  0
   -1.3225    0.5982   -0.0256 C   0  0  0  0  0  0  0  0  0  0  0  0
   -2.1189    1.6156   -0.6016 C   0  0  0  0  0  0  0  0  0  0  0  0
   -1.6425    2.4756   -1.0958 H   0  0  0  0  0  0  0  0  0  0  0  0
   -3.5086    1.4924   -0.6130 C   0  0  0  0  0  0  0  0  0  0  0  0
   -4.1116    2.2656   -1.1113 H   0  0  0  0  0  0  0  0  0  0  0  0
   -4.1531    0.3649   -0.0463 C   0  0  0  0  0  0  0  0  0  0  0  0
   -3.3391   -0.6443    0.5227 C   0  0  0  0  0  0  0  0  0  0  0  0
   -3.8102   -1.5180    0.9960 H   0  0  0  0  0  0  0  0  0  0  0  0
   -1.9480   -0.5444    0.5254 C   0  0  0  0  0  0  0  0  0  0  0  0
   -1.3154   -1.3102    1.0048 H   0  0  0  0  0  0  0  0  0  0  0  0
   -5.6295    0.2414   -0.0642 C   0  0  0  0  0  0  0  0  0  0  0  0
   -6.4568    1.3842    0.0385 C   0  0  0  0  0  0  0  0  0  0  0  0
   -5.9971    2.3765    0.1614 H   0  0  0  0  0  0  0  0  0  0  0  0
   -7.8525    1.2667    0.0246 C   0  0  0  0  0  0  0  0  0  0  0  0
   -8.4764    2.1687    0.1175 H   0  0  0  0  0  0  0  0  0  0  0  0
   -8.4544    0.0039   -0.0964 C   0  0  0  0  0  0  0  0  0  0  0  0
   -9.5509   -0.0885   -0.1088 H   0  0  0  0  0  0  0  0  0  0  0  0
   -7.6471   -1.1402   -0.2013 C   0  0  0  0  0  0  0  0  0  0  0  0
   -8.1089   -2.1337   -0.3061 H   0  0  0  0  0  0  0  0  0  0  0  0
   -6.2514   -1.0234   -0.1837 C   0  0  0  0  0  0  0  0  0  0  0  0
   -5.6298   -1.9245   -0.2938 H   0  0  0  0  0  0  0  0  0  0  0  0
  1  3  1  0  0  0  0
  2 18  1  0  0  0  0
  3 18  1  0  0  0  0
  3  4  2  0  0  0  0
  4  5  1  0  0  0  0
  6  4  1  0  0  0  0
  6  7  1  0  0  0  0
  8  6  2  0  0  0  0
  9 16  1  6  0  0  0
  9  1  1  0  0  0  0
  9  8  1  0  0  0  0
 10  8  1  0  0  0  0
 10 11  1  0  0  0  0
 12 10  2  0  0  0  0
 13 12  1  0  0  0  0
 14 16  2  0  0  0  0
 14 12  1  0  0  0  0
 15 14  1  0  0  0  0
 17 16  1  0  0  0  0
 18 19  1  0  0  0  0
 20  2  1  0  0  0  0
 20 28  1  0  0  0  0
 21 20  2  0  0  0  0
 22 21  1  0  0  0  0
 23 21  1  0  0  0  0
 23 25  2  0  0  0  0
 24 23  1  0  0  0  0
 25 26  1  0  0  0  0
 26 28  2  0  0  0  0
 26 27  1  0  0  0  0
 28 29  1  0  0  0  0
 30 25  1  0  0  0  0
 30 31  1  0  0  0  0
 31 32  1  0  0  0  0
 33 31  2  0  0  0  0
 33 34  1  0  0  0  0
 35 33  1  0  0  0  0
 36 35  1  0  0  0  0
 37 39  1  0  0  0  0
 37 35  2  0  0  0  0
 38 37  1  0  0  0  0
 39 30  2  0  0  0  0
 40 39  1  0  0  0  0
M  END
