18,19
q = -1.0

 20 19  0  0  0  0  0  0  0  0999 V2000
   -1.6794   -0.3634   -2.7507 C   0  0  0  0  0  0  0  0  0  0  0  0
   -2.5818   -0.4995   -3.3854 H   0  0  0  0  0  0  0  0  0  0  0  0
   -0.8388   -0.9354   -3.1834 H   0  0  0  0  0  0  0  0  0  0  0  0
   -1.4102    0.7035   -2.7287 H   0  0  0  0  0  0  0  0  0  0  0  0
   -2.4347   -2.2602   -1.4748 C   0  0  0  0  0  0  0  0  0  0  0  0
   -1.6644   -2.8176   -2.0462 H   0  0  0  0  0  0  0  0  0  0  0  0
   -3.3565   -2.2508   -2.0998 H   0  0  0  0  0  0  0  0  0  0  0  0
   -2.6977   -2.9854   -0.1621 C   0  0  0  0  0  0  0  0  0  0  0  0
   -3.5077   -2.4895    0.4167 H   0  0  0  0  0  0  0  0  0  0  0  0
   -3.0764   -3.9941   -0.4336 H   0  0  0  0  0  0  0  0  0  0  0  0
   -1.4454   -3.1193    0.7176 C   0  0  0  0  0  0  0  0  0  0  0  0
   -1.5758   -3.9601    1.4343 H   0  0  0  0  0  0  0  0  0  0  0  0
   -0.5781   -3.4041    0.0792 H   0  0  0  0  0  0  0  0  0  0  0  0
   -1.4881   -1.9945    2.8512 C   0  0  0  0  0  0  0  0  0  0  0  0
   -1.0164   -2.9031    3.2952 H   0  0  0  0  0  0  0  0  0  0  0  0
   -2.5882   -2.0803    3.0351 H   0  0  0  0  0  0  0  0  0  0  0  0
   -1.1181   -1.1291    3.4304 H   0  0  0  0  0  0  0  0  0  0  0  0
   -1.9328   -0.8552   -1.3737 N   0  0  0  0  0  0  0  0  0  0  0  0
   -1.1592   -1.8812    1.4450 N   0  0  0  0  0  2  0  0  0  0  0  0
   -2.6993   -0.2780   -0.9817 H   0  0  0  0  0  0  0  0  0  0  0  0
  1  4  1  0  0  0  0
  1 18  1  0  0  0  0
  2  1  1  0  0  0  0
  3  1  1  0  0  0  0
  5 18  1  0  0  0  0
  5  8  1  0  0  0  0
  6  5  1  0  0  0  0
  7  5  1  0  0  0  0
  8  9  1  0  0  0  0
  8 11  1  0  0  0  0
 10  8  1  0  0  0  0
 11 12  1  0  0  0  0
 11 19  1  0  0  0  0
 13 11  1  0  0  0  0
 14 16  1  0  0  0  0
 14 15  1  0  0  0  0
 14 17  1  0  0  0  0
 18 20  1  0  0  0  0
 19 14  1  0  0  0  0
M  END
