1,2
q = 0.0, confidence = 0.99

 31 34  0  0  0  0  0  0  0  0999 V2000
   -0.0764    0.7530   -0.0669 N   0  0  0  0  0  2  0  0  0  0  0  0
    2.5174    0.6320    0.2635 N   0  0  0  0  0  2  0  0  0  0  0  0
   -1.4471    3.2175   -0.5177 N   0  0  0  0  0  0  0  0  0  0  0  0
   -4.4214   -1.4338    0.6410 C   0  0  0  0  0  0  0  0  0  0  0  0
   -3.8968   -2.3702    0.8833 H   0  0  0  0  0  0  0  0  0  0  0  0
   -5.8023   -1.3735    0.6299 C   0  0  0  0  0  0  0  0  0  0  0  0
   -6.3948   -2.2682    0.8729 H   0  0  0  0  0  0  0  0  0  0  0  0
   -1.4663    0.7926   -0.0228 C   0  0  0  0  0  0  0  0  0  0  0  0
    4.7112    1.5461    0.6028 C   0  0  0  0  0  0  0  0  0  0  0  0
    5.7686    1.3639    0.8399 H   0  0  0  0  0  0  0  0  0  0  0  0
   -3.5459    2.0998   -0.3076 C   0  0  0  0  0  0  0  0  0  0  0  0
   -4.0193    3.0684   -0.5234 H   0  0  0  0  0  0  0  0  0  0  0  0
   -0.1418    3.1537   -0.4030 C   0  0  0  0  0  0  0  0  0  0  0  0
    0.4228    4.0927   -0.5332 H   0  0  0  0  0  0  0  0  0  0  0  0
   -4.3200    0.9582   -0.0184 C   0  0  0  0  0  0  0  0  0  0  0  0
    4.2307    2.8402    0.3407 C   0  0  0  0  0  0  0  0  0  0  0  0
    4.9062    3.7076    0.3633 H   0  0  0  0  0  0  0  0  0  0  0  0
    0.5779    1.9398   -0.1620 C   0  0  0  0  0  0  0  0  0  0  0  0
   -2.1435    2.0566   -0.2958 C   0  0  0  0  0  0  0  0  0  0  0  0
    2.0216    1.8912    0.0287 C   0  0  0  0  0  0  0  0  0  0  0  0
   -2.2294   -0.3343    0.3130 C   0  0  0  0  0  0  0  0  0  0  0  0
   -1.7185   -1.2737    0.5595 H   0  0  0  0  0  0  0  0  0  0  0  0
   -6.4715   -0.1560    0.2992 C   0  0  0  0  0  0  0  0  0  0  0  0
   -7.5716   -0.1277    0.2952 H   0  0  0  0  0  0  0  0  0  0  0  0
    3.8295    0.4651    0.5512 C   0  0  0  0  0  0  0  0  0  0  0  0
    4.1359   -0.5827    0.7042 H   0  0  0  0  0  0  0  0  0  0  0  0
   -3.6391   -0.2798    0.3164 C   0  0  0  0  0  0  0  0  0  0  0  0
   -5.7505    0.9810   -0.0163 C   0  0  0  0  0  0  0  0  0  0  0  0
   -6.2644    1.9204   -0.2712 H   0  0  0  0  0  0  0  0  0  0  0  0
    2.8746    3.0114    0.0518 C   0  0  0  0  0  0  0  0  0  0  0  0
    2.4692    4.0113   -0.1503 H   0  0  0  0  0  0  0  0  0  0  0  0
  1  8  1  0  0  0  0
  2 25  1  0  0  0  0
  3 13  2  0  0  0  0
  3 19  1  0  0  0  0
  4  5  1  0  0  0  0
  6  4  1  0  0  0  0
  6  7  1  0  0  0  0
  8 21  2  0  0  0  0
  9 10  1  0  0  0  0
 11 19  2  0  0  0  0
 11 15  1  0  0  0  0
 12 11  1  0  0  0  0
 13 18  1  0  0  0  0
 14 13  1  0  0  0  0
 15 28  2  0  0  0  0
 15 27  1  0  0  0  0
 16 17  1  0  0  0  0
 16  9  1  0  0  0  0
 18  1  1  0  0  0  0
 18 20  2  0  0  0  0
 19  8  1  0  0  0  0
 20 30  1  0  0  0  0
 20  2  1  0  0  0  0
 21 27  1  0  0  0  0
 21 22  1  0  0  0  0
 23  6  2  0  0  0  0
 24 23  1  0  0  0  0
 25  9  2  0  0  0  0
 25 26  1  0  0  0  0
 27  4  2  0  0  0  0
 28 23  1  0  0  0  0
 29 28  1  0  0  0  0
 30 16  2  0  0  0  0
 31 30  1  0  0  0  0
M  END
