5,8
q = 0.0, confidence = 0.986

 44 47  0  0  0  0  0  0  0  0999 V2000
   -5.4261    3.9356   -0.0012 O   0  0  0  0  0  0  0  0  0  0  0  0
   -3.2518    4.0643    0.0008 O   0  0  0  0  0  0  0  0  0  0  0  0
    3.2518    4.0641    0.0008 O   0  0  0  0  0  0  0  0  0  0  0  0
    5.4261    3.9356   -0.0016 O   0  0  0  0  0  0  0  0  0  0  0  0
   -1.3013   -0.2145    0.0003 N   0  0  0  0  0  2  0  0  0  0  0  0
   -1.6454    2.0092    0.0001 N   0  0  0  0  0  0  0  0  0  0  0  0
   -1.5526    3.0305    0.0007 H   0  0  0  0  0  0  0  0  0  0  0  0
    1.3014   -0.2146    0.0003 N   0  0  0  0  0  2  0  0  0  0  0  0
    1.6456    2.0091    0.0001 N   0  0  0  0  0  0  0  0  0  0  0  0
    1.5528    3.0304    0.0007 H   0  0  0  0  0  0  0  0  0  0  0  0
   -4.3156    3.4117   -0.0001 N   0  0  0  0  0  0  0  0  0  0  0  0
    4.3157    3.4117   -0.0003 N   0  0  0  0  0  0  0  0  0  0  0  0
   -0.7125    1.0059    0.0003 C   0  0  0  0  0  0  0  0  0  0  0  0
   -2.8881    1.4184    0.0001 C   0  0  0  0  0  0  0  0  0  0  0  0
   -4.1959    1.9536    0.0000 C   0  0  0  0  0  0  0  0  0  0  0  0
   -5.3102    1.0704    0.0000 C   0  0  0  0  0  0  0  0  0  0  0  0
   -5.0658   -0.3466   -0.0001 C   0  0  0  0  0  0  0  0  0  0  0  0
   -3.7619   -0.8674   -0.0001 C   0  0  0  0  0  0  0  0  0  0  0  0
   -3.5581   -1.9494   -0.0002 H   0  0  0  0  0  0  0  0  0  0  0  0
   -2.6718    0.0136    0.0001 C   0  0  0  0  0  0  0  0  0  0  0  0
   -6.7268    1.5790    0.0003 C   0  0  0  0  0  0  0  0  0  0  0  0
   -6.9224    2.2256    0.8780 H   0  0  0  0  0  0  0  0  0  0  0  0
   -7.4503    0.7477    0.0017 H   0  0  0  0  0  0  0  0  0  0  0  0
   -6.9234    2.2236   -0.8786 H   0  0  0  0  0  0  0  0  0  0  0  0
   -6.2145   -1.3284   -0.0004 C   0  0  0  0  0  0  0  0  0  0  0  0
   -5.8331   -2.3659   -0.0014 H   0  0  0  0  0  0  0  0  0  0  0  0
   -6.8633   -1.2077   -0.8923 H   0  0  0  0  0  0  0  0  0  0  0  0
   -6.8624   -1.2091    0.8924 H   0  0  0  0  0  0  0  0  0  0  0  0
    0.7127    1.0058    0.0003 C   0  0  0  0  0  0  0  0  0  0  0  0
    2.6719    0.0135    0.0001 C   0  0  0  0  0  0  0  0  0  0  0  0
    3.7620   -0.8674   -0.0000 C   0  0  0  0  0  0  0  0  0  0  0  0
    3.5583   -1.9495   -0.0001 H   0  0  0  0  0  0  0  0  0  0  0  0
    5.0660   -0.3467   -0.0001 C   0  0  0  0  0  0  0  0  0  0  0  0
    5.3103    1.0703    0.0001 C   0  0  0  0  0  0  0  0  0  0  0  0
    4.1960    1.9535   -0.0000 C   0  0  0  0  0  0  0  0  0  0  0  0
    2.8882    1.4183    0.0001 C   0  0  0  0  0  0  0  0  0  0  0  0
    6.2146   -1.3285   -0.0003 C   0  0  0  0  0  0  0  0  0  0  0  0
    5.8332   -2.3660   -0.0013 H   0  0  0  0  0  0  0  0  0  0  0  0
    6.8625   -1.2092    0.8925 H   0  0  0  0  0  0  0  0  0  0  0  0
    6.8634   -1.2078   -0.8922 H   0  0  0  0  0  0  0  0  0  0  0  0
    6.7270    1.5788    0.0004 C   0  0  0  0  0  0  0  0  0  0  0  0
    6.9224    2.2258    0.8779 H   0  0  0  0  0  0  0  0  0  0  0  0
    6.9238    2.2231   -0.8787 H   0  0  0  0  0  0  0  0  0  0  0  0
    7.4504    0.7475    0.0022 H   0  0  0  0  0  0  0  0  0  0  0  0
  1 11  2  0  0  0  0
  4 12  2  0  0  0  0
  5 13  1  0  0  0  0
  6 13  1  0  0  0  0
  6  7  1  0  0  0  0
  8 29  1  0  0  0  0
  9 29  1  0  0  0  0
  9 10  1  0  0  0  0
 11 15  1  0  0  0  0
 11  2  2  0  0  0  0
 12 35  1  0  0  0  0
 12  3  2  0  0  0  0
 14  6  1  0  0  0  0
 14 20  1  0  0  0  0
 15 16  1  0  0  0  0
 15 14  2  0  0  0  0
 16 21  1  0  0  0  0
 17 18  1  0  0  0  0
 17 16  2  0  0  0  0
 18 20  2  0  0  0  0
 19 18  1  0  0  0  0
 20  5  1  0  0  0  0
 21 23  1  0  0  0  0
 21 22  1  0  0  0  0
 24 21  1  0  0  0  0
 25 17  1  0  0  0  0
 25 28  1  0  0  0  0
 26 25  1  0  0  0  0
 27 25  1  0  0  0  0
 29 13  2  0  0  0  0
 30  8  1  0  0  0  0
 31 30  2  0  0  0  0
 32 31  1  0  0  0  0
 33 31  1  0  0  0  0
 33 34  2  0  0  0  0
 34 41  1  0  0  0  0
 35 34  1  0  0  0  0
 35 36  2  0  0  0  0
 36  9  1  0  0  0  0
 36 30  1  0  0  0  0
 37 33  1  0  0  0  0
 37 39  1  0  0  0  0
 38 37  1  0  0  0  0
 40 37  1  0  0  0  0
 41 44  1  0  0  0  0
 41 42  1  0  0  0  0
 43 41  1  0  0  0  0
M  END
