1,2
q = 0.0, confidence = 1.0

 36 38  0  0  0  0  0  0  0  0999 V2000
    3.0368    1.0937   -0.0031 N   0  0  0  0  0  2  0  0  0  0  0  0
    0.7006   -0.1044    0.0173 N   0  0  0  0  0  2  0  0  0  0  0  0
   -0.5073   -0.5943    0.0228 N   0  0  0  0  0  2  0  0  0  0  0  0
   -1.3423    0.4677   -0.0043 N   0  0  0  0  0  0  0  0  0  0  0  0
    4.2910    1.5899   -0.0095 C   0  0  0  0  0  3  0  0  0  0  0  0
    5.0816    0.8180    0.0021 H   0  0  0  0  0  0  0  0  0  0  0  0
    4.5388    2.9668   -0.0309 C   0  0  0  0  0  0  0  0  0  0  0  0
    5.5773    3.3269   -0.0354 H   0  0  0  0  0  0  0  0  0  0  0  0
    3.4561    3.8608   -0.0462 C   0  0  0  0  0  0  0  0  0  0  0  0
    3.6235    4.9477   -0.0631 H   0  0  0  0  0  0  0  0  0  0  0  0
    2.1540    3.3468   -0.0394 C   0  0  0  0  0  0  0  0  0  0  0  0
    1.2794    4.0127   -0.0503 H   0  0  0  0  0  0  0  0  0  0  0  0
    1.9710    1.9548   -0.0177 C   0  0  0  0  0  0  0  0  0  0  0  0
    0.6834    1.2784   -0.0082 C   0  0  0  0  0  0  0  0  0  0  0  0
   -0.6539    1.6520   -0.0258 C   0  0  0  0  0  0  0  0  0  0  0  0
   -1.1457    2.6257   -0.0789 H   0  0  0  0  0  0  0  0  0  0  0  0
   -2.7527    0.2550   -0.0207 C   0  0  0  0  0  0  0  0  0  0  0  0
   -3.6298    1.2889    0.3509 C   0  0  0  0  0  0  0  0  0  0  0  0
   -3.2445    2.2611    0.6897 H   0  0  0  0  0  0  0  0  0  0  0  0
   -5.0101    1.0640    0.3146 C   0  0  0  0  0  0  0  0  0  0  0  0
   -5.6862    1.8807    0.6102 H   0  0  0  0  0  0  0  0  0  0  0  0
   -5.5424   -0.1834   -0.0743 C   0  0  0  0  0  0  0  0  0  0  0  0
   -4.6363   -1.2032   -0.4275 C   0  0  0  0  0  0  0  0  0  0  0  0
   -5.0259   -2.1872   -0.7317 H   0  0  0  0  0  0  0  0  0  0  0  0
   -3.2518   -0.9996   -0.4087 C   0  0  0  0  0  0  0  0  0  0  0  0
   -2.5501   -1.7974   -0.6865 H   0  0  0  0  0  0  0  0  0  0  0  0
   -7.0436   -0.4241   -0.1038 C   0  0  0  0  0  0  0  0  0  0  0  0
   -7.1921   -1.4703   -0.4486 H   0  0  0  0  0  0  0  0  0  0  0  0
   -7.7463    0.5032   -1.1099 C   0  0  0  0  0  0  0  0  0  0  0  0
   -7.6484    1.5682   -0.8134 H   0  0  0  0  0  0  0  0  0  0  0  0
   -8.8296    0.2720   -1.1642 H   0  0  0  0  0  0  0  0  0  0  0  0
   -7.3195    0.3956   -2.1269 H   0  0  0  0  0  0  0  0  0  0  0  0
   -7.6613   -0.3040    1.3001 C   0  0  0  0  0  0  0  0  0  0  0  0
   -7.1730   -0.9927    2.0177 H   0  0  0  0  0  0  0  0  0  0  0  0
   -8.7437   -0.5440    1.2730 H   0  0  0  0  0  0  0  0  0  0  0  0
   -7.5588    0.7269    1.6986 H   0  0  0  0  0  0  0  0  0  0  0  0
  2  3  1  0  0  0  0
  4  3  1  0  0  0  0
  5  1  1  0  0  0  0
  5  6  1  0  0  0  0
  7  5  1  0  0  0  0
  8  7  1  0  0  0  0
  9 11  1  0  0  0  0
  9  7  2  0  0  0  0
 10  9  1  0  0  0  0
 11 13  2  0  0  0  0
 12 11  1  0  0  0  0
 13 14  1  0  0  0  0
 13  1  1  0  0  0  0
 14  2  1  0  0  0  0
 15 14  2  0  0  0  0
 15  4  1  0  0  0  0
 16 15  1  0  0  0  0
 17  4  1  0  0  0  0
 17 18  1  0  0  0  0
 18 19  1  0  0  0  0
 20 18  2  0  0  0  0
 20 21  1  0  0  0  0
 22 20  1  0  0  0  0
 23 25  1  0  0  0  0
 23 22  2  0  0  0  0
 24 23  1  0  0  0  0
 25 17  2  0  0  0  0
 26 25  1  0  0  0  0
 27 22  1  0  0  0  0
 27 33  1  0  0  0  0
 28 27  1  0  0  0  0
 29 30  1  0  0  0  0
 29 27  1  0  0  0  0
 31 29  1  0  0  0  0
 32 29  1  0  0  0  0
 33 36  1  0  0  0  0
 33 34  1  0  0  0  0
 35 33  1  0  0  0  0
M  END
