1,7
q = -1.0, confidence = 0.006

 32 34  0  0  0  0  0  0  0  0999 V2000
    1.8814    0.4099   -0.5366 N   0  0  0  0  0  2  0  0  0  0  0  0
    3.1593   -0.0950   -0.6737 C   0  0  0  0  0  0  0  0  0  0  0  0
    3.4159   -1.4830   -0.5108 C   0  0  0  0  0  0  0  0  0  0  0  0
    2.5548   -2.1452   -0.3615 H   0  0  0  0  0  0  0  0  0  0  0  0
    4.7088   -1.9747   -0.6233 C   0  0  0  0  0  0  0  0  0  0  0  0
    4.8889   -3.0550   -0.5170 H   0  0  0  0  0  0  0  0  0  0  0  0
   -0.6467    1.0871   -0.6057 N   0  0  0  0  0  2  0  0  0  0  0  0
    5.7969   -1.1050   -0.8974 C   0  0  0  0  0  0  0  0  0  0  0  0
    6.8174   -1.5095   -0.9696 H   0  0  0  0  0  0  0  0  0  0  0  0
    5.5658    0.2457   -1.1087 C   0  0  0  0  0  3  0  0  0  0  0  0
    6.3936    0.9260   -1.3614 H   0  0  0  0  0  0  0  0  0  0  0  0
    4.2483    0.7812   -1.0298 C   0  0  0  0  0  0  0  0  0  0  0  0
    3.9571    2.1442   -1.3239 C   0  0  0  0  0  0  0  0  0  0  0  0
    4.7795    2.8253   -1.5918 H   0  0  0  0  0  0  0  0  0  0  0  0
    2.6456    2.5757   -1.3038 C   0  0  0  0  0  0  0  0  0  0  0  0
    2.3253    3.5933   -1.5679 H   0  0  0  0  0  0  0  0  0  0  0  0
    1.6298    1.6736   -0.9067 C   0  0  0  0  0  0  0  0  0  0  0  0
   -0.0939    3.2822   -1.2363 O   0  0  0  0  0  0  0  0  0  0  0  0
    0.1964    2.1178   -0.9198 C   0  0  0  0  0  0  0  0  0  0  0  0
   -2.0402    1.2106   -0.7158 C   0  0  0  0  0  0  0  0  0  0  0  0
   -2.7997    0.0284   -0.8719 C   0  0  0  0  0  0  0  0  0  0  0  0
   -2.2905   -0.9328   -1.0117 H   0  0  0  0  0  0  0  0  0  0  0  0
   -4.9450   -1.1797   -0.9400 N   0  0  0  0  0  0  0  0  0  0  0  0
   -4.1917    0.0927   -0.8759 C   0  0  0  0  0  0  0  0  0  0  0  0
   -4.8969    1.3032   -0.7947 C   0  0  0  0  0  0  0  0  0  0  0  0
   -5.9941    1.2970   -0.8107 H   0  0  0  0  0  0  0  0  0  0  0  0
   -4.1413    2.4773   -0.6867 C   0  0  0  0  0  0  0  0  0  0  0  0
   -4.6554    3.4482   -0.6201 H   0  0  0  0  0  0  0  0  0  0  0  0
   -2.7376    2.4478   -0.6433 C   0  0  0  0  0  0  0  0  0  0  0  0
   -2.1584    3.3747   -0.5668 H   0  0  0  0  0  0  0  0  0  0  0  0
   -6.1463   -1.1208   -1.1984 O   0  0  0  0  0  0  0  0  0  0  0  0
   -4.3249   -2.2241   -0.7114 O   0  0  0  0  0  0  0  0  0  0  0  0
  2  1  1  0  0  0  0
  2  3  2  0  0  0  0
  3  4  1  0  0  0  0
  5  6  1  0  0  0  0
  5  3  1  0  0  0  0
  8  5  2  0  0  0  0
  9  8  1  0  0  0  0
 10 12  1  0  0  0  0
 10  8  1  0  0  0  0
 11 10  1  0  0  0  0
 12  2  1  0  0  0  0
 13 15  1  0  0  0  0
 13 12  2  0  0  0  0
 14 13  1  0  0  0  0
 15 17  2  0  0  0  0
 16 15  1  0  0  0  0
 17  1  1  0  0  0  0
 18 19  2  0  0  0  0
 19 17  1  0  0  0  0
 19  7  1  0  0  0  0
 20 29  1  0  0  0  0
 20  7  1  0  0  0  0
 21 20  2  0  0  0  0
 22 21  1  0  0  0  0
 23 24  1  0  0  0  0
 23 32  2  0  0  0  0
 24 21  1  0  0  0  0
 24 25  2  0  0  0  0
 25 27  1  0  0  0  0
 26 25  1  0  0  0  0
 27 29  2  0  0  0  0
 27 28  1  0  0  0  0
 29 30  1  0  0  0  0
 31 23  2  0  0  0  0
M  END
