1,2
q = 0.0, confidence = 1.0

 25 26  0  0  0  0  0  0  0  0999 V2000
   -1.4229    0.3109   -0.2877 N   0  0  0  0  0  2  0  0  0  0  0  0
    1.4241    0.3109   -0.2848 N   0  0  0  0  0  2  0  0  0  0  0  0
   -2.5942   -0.0255   -0.8829 C   0  0  0  0  0  3  0  0  0  0  0  0
   -2.6702   -1.0819   -1.1811 H   0  0  0  0  0  0  0  0  0  0  0  0
   -3.6457    0.8798   -1.0267 C   0  0  0  0  0  0  0  0  0  0  0  0
   -4.5798    0.5548   -1.5049 H   0  0  0  0  0  0  0  0  0  0  0  0
   -3.4784    2.1834   -0.5387 C   0  0  0  0  0  0  0  0  0  0  0  0
   -4.2819    2.9294   -0.6310 H   0  0  0  0  0  0  0  0  0  0  0  0
   -2.2640    2.5387    0.0534 C   0  0  0  0  0  0  0  0  0  0  0  0
   -2.1009    3.5636    0.4081 H   0  0  0  0  0  0  0  0  0  0  0  0
   -1.2338    1.5772    0.1601 C   0  0  0  0  0  0  0  0  0  0  0  0
   -0.0006    1.9196    0.7496 N   0  0  0  0  0  0  0  0  0  0  0  0
   -0.0005    3.0151    1.7129 C   0  0  0  0  0  0  0  0  0  0  0  0
    0.8952    2.9260    2.3552 H   0  0  0  0  0  0  0  0  0  0  0  0
   -0.8938    2.9237    2.3581 H   0  0  0  0  0  0  0  0  0  0  0  0
   -0.0026    4.0268    1.2471 H   0  0  0  0  0  0  0  0  0  0  0  0
    2.5962   -0.0250   -0.8786 C   0  0  0  0  0  3  0  0  0  0  0  0
    2.6746   -1.0825   -1.1724 H   0  0  0  0  0  0  0  0  0  0  0  0
    3.6456    0.8822   -1.0260 C   0  0  0  0  0  0  0  0  0  0  0  0
    4.5805    0.5575   -1.5028 H   0  0  0  0  0  0  0  0  0  0  0  0
    3.4750    2.1876   -0.5439 C   0  0  0  0  0  0  0  0  0  0  0  0
    4.2764    2.9353   -0.6398 H   0  0  0  0  0  0  0  0  0  0  0  0
    2.2599    2.5420    0.0472 C   0  0  0  0  0  0  0  0  0  0  0  0
    2.0940    3.5680    0.3976 H   0  0  0  0  0  0  0  0  0  0  0  0
    1.2324    1.5783    0.1588 C   0  0  0  0  0  0  0  0  0  0  0  0
  1 11  1  0  0  0  0
  2 25  1  0  0  0  0
  3  1  1  0  0  0  0
  4  3  1  0  0  0  0
  5  3  1  0  0  0  0
  5  7  2  0  0  0  0
  6  5  1  0  0  0  0
  7  9  1  0  0  0  0
  8  7  1  0  0  0  0
  9 11  2  0  0  0  0
  9 10  1  0  0  0  0
 11 12  1  0  0  0  0
 12 13  1  0  0  0  0
 13 14  1  0  0  0  0
 13 15  1  0  0  0  0
 16 13  1  0  0  0  0
 17  2  1  0  0  0  0
 18 17  1  0  0  0  0
 19 17  1  0  0  0  0
 19 21  2  0  0  0  0
 20 19  1  0  0  0  0
 21 23  1  0  0  0  0
 22 21  1  0  0  0  0
 23 25  2  0  0  0  0
 23 24  1  0  0  0  0
 25 12  1  0  0  0  0
M  END
