1,3
q = -1.0

 18 19  0  0  0  0  0  0  0  0999 V2000
   -1.1316   -0.6506   -1.5345 N   0  0  0  0  0  2  0  0  0  0  0  0
   -0.9105   -0.7980   -2.5227 H   0  0  0  0  0  0  0  0  0  0  0  0
   -1.9154   -0.3201    1.0246 N   0  0  0  0  0  2  0  0  0  0  0  0
   -2.4375   -0.8368   -1.2647 C   0  0  0  0  0  0  0  0  0  0  0  0
   -3.4556   -1.1796   -2.1941 C   0  0  0  0  0  0  0  0  0  0  0  0
   -3.1751   -1.3295   -3.2488 H   0  0  0  0  0  0  0  0  0  0  0  0
   -4.8000   -1.3230   -1.8041 C   0  0  0  0  0  0  0  0  0  0  0  0
   -5.5433   -1.5856   -2.5740 H   0  0  0  0  0  0  0  0  0  0  0  0
   -5.2216   -1.1440   -0.4838 C   0  0  0  0  0  3  0  0  0  0  0  0
   -6.2766   -1.2618   -0.1970 H   0  0  0  0  0  0  0  0  0  0  0  0
   -4.2554   -0.8097    0.5006 C   0  0  0  0  0  0  0  0  0  0  0  0
   -2.8730   -0.6525    0.1207 C   0  0  0  0  0  0  0  0  0  0  0  0
   -4.5577   -0.6081    1.8795 C   0  0  0  0  0  0  0  0  0  0  0  0
   -5.6012   -0.7157    2.2161 H   0  0  0  0  0  0  0  0  0  0  0  0
   -3.5535   -0.2861    2.7829 C   0  0  0  0  0  0  0  0  0  0  0  0
   -3.7727   -0.1342    3.8499 H   0  0  0  0  0  0  0  0  0  0  0  0
   -2.2270   -0.1493    2.3074 C   0  0  0  0  0  0  0  0  0  0  0  0
   -1.3999    0.1104    2.9889 H   0  0  0  0  0  0  0  0  0  0  0  0
  1  4  1  0  0  0  0
  2  1  1  0  0  0  0
  3 17  1  0  0  0  0
  4 12  2  0  0  0  0
  5  7  2  0  0  0  0
  5  4  1  0  0  0  0
  6  5  1  0  0  0  0
  7  9  1  0  0  0  0
  8  7  1  0  0  0  0
  9 10  1  0  0  0  0
  9 11  1  0  0  0  0
 11 13  2  0  0  0  0
 12 11  1  0  0  0  0
 12  3  1  0  0  0  0
 13 14  1  0  0  0  0
 13 15  1  0  0  0  0
 15 16  1  0  0  0  0
 17 15  2  0  0  0  0
 17 18  1  0  0  0  0
M  END
