1,3
q = 0.0, confidence = 0.996

 25 24  0  0  1  0  0  0  0  0999 V2000
    0.5289   -1.7860   -0.5778 N   0  0  0  0  0  2  0  0  0  0  0  0
    0.2948   -2.4388   -1.3417 H   0  0  0  0  0  0  0  0  0  0  0  0
    0.6084    0.9502   -0.1246 N   0  0  0  0  0  2  0  0  0  0  0  0
    0.8474    1.3887    0.7828 H   0  0  0  0  0  0  0  0  0  0  0  0
    3.2203    1.0489    0.7384 O   0  0  0  0  0  0  0  0  0  0  0  0
    3.4796   -0.3413    0.9837 C   0  0  2  0  0  0  0  0  0  0  0  0
    3.9897   -0.3001    1.9728 H   0  0  0  0  0  0  0  0  0  0  0  0
    4.2750   -0.9389    0.0146 O   0  0  0  0  0  0  0  0  0  0  0  0
    2.2115   -1.2372    1.1539 C   0  0  0  0  0  0  0  0  0  0  0  0
    1.4064   -0.6799    1.6674 H   0  0  0  0  0  0  0  0  0  0  0  0
    2.5286   -2.0514    1.8425 H   0  0  0  0  0  0  0  0  0  0  0  0
    1.7019   -1.9483   -0.0558 C   0  0  0  0  0  3  0  0  0  0  0  0
    2.3736   -2.7092   -0.4979 H   0  0  0  0  0  0  0  0  0  0  0  0
    1.5619    1.0068   -0.9921 C   0  0  0  0  0  3  0  0  0  0  0  0
    1.3752    0.5981   -2.0017 H   0  0  0  0  0  0  0  0  0  0  0  0
    2.9497    1.4651   -0.6048 C   0  0  1  0  0  0  0  0  0  0  0  0
    3.6529    0.9681   -1.3083 H   0  0  0  0  0  0  0  0  0  0  0  0
    5.6558   -0.5607    0.0556 C   0  0  0  0  0  0  0  0  0  0  0  0
    6.1625   -1.1103   -0.7579 H   0  0  0  0  0  0  0  0  0  0  0  0
    6.1120   -0.8434    1.0292 H   0  0  0  0  0  0  0  0  0  0  0  0
    5.7864    0.5316   -0.0980 H   0  0  0  0  0  0  0  0  0  0  0  0
    3.1255    2.9804   -0.6732 C   0  0  0  0  0  0  0  0  0  0  0  0
    4.1628    3.2429   -0.3916 H   0  0  0  0  0  0  0  0  0  0  0  0
    2.4297    3.4848    0.0258 H   0  0  0  0  0  0  0  0  0  0  0  0
    2.9303    3.3533   -1.6972 H   0  0  0  0  0  0  0  0  0  0  0  0
  1 12  1  0  0  0  0
  2  1  1  0  0  0  0
  3  4  1  0  0  0  0
  5  6  1  0  0  0  0
  6  9  1  0  0  0  0
  6  7  1  1  0  0  0
  8 18  1  0  0  0  0
  8  6  1  0  0  0  0
  9 10  1  0  0  0  0
  9 11  1  0  0  0  0
 12  9  1  0  0  0  0
 13 12  1  0  0  0  0
 14 16  1  0  0  0  0
 14  3  1  0  0  0  0
 15 14  1  0  0  0  0
 16 17  1  6  0  0  0
 16  5  1  0  0  0  0
 18 20  1  0  0  0  0
 19 18  1  0  0  0  0
 21 18  1  0  0  0  0
 22 16  1  0  0  0  0
 22 23  1  0  0  0  0
 22 24  1  0  0  0  0
 25 22  1  0  0  0  0
M  END
