1,2
q = -1.0, confidence = 0.048

 36 37  0  0  0  0  0  0  0  0999 V2000
    1.2803   -1.2628   -0.6171 N   0  0  0  0  0  0  0  0  0  0  0  0
    1.2802    1.2631    0.6170 N   0  0  0  0  0  0  0  0  0  0  0  0
    1.0247   -2.3701   -1.3612 C   0  0  0  0  0  0  0  0  0  0  0  0
    2.2564   -3.0027   -1.7486 C   0  0  0  0  0  0  0  0  0  0  0  0
    3.2974   -2.2240   -1.2262 C   0  0  0  0  0  0  0  0  0  0  0  0
    2.6690   -1.1236   -0.5429 C   0  0  0  0  0  3  0  0  0  0  0  0
    3.2984    0.0001    0.0000 C   0  0  0  0  0  3  0  0  0  0  0  0
    4.3993    0.0001    0.0001 H   0  0  0  0  0  0  0  0  0  0  0  0
    2.6689    1.1237    0.5428 C   0  0  0  0  0  0  0  0  0  0  0  0
    3.2974    2.2241    1.2261 C   0  0  0  0  0  0  0  0  0  0  0  0
    2.2564    3.0030    1.7483 C   0  0  0  0  0  0  0  0  0  0  0  0
    1.0246    2.3705    1.3610 C   0  0  0  0  0  3  0  0  0  0  0  0
   -0.3322   -2.8451   -1.7711 C   0  0  0  0  0  0  0  0  0  0  0  0
   -1.0741   -2.0276   -1.7493 H   0  0  0  0  0  0  0  0  0  0  0  0
   -0.7162   -3.6498   -1.1066 H   0  0  0  0  0  0  0  0  0  0  0  0
   -0.2899   -3.2664   -2.7958 H   0  0  0  0  0  0  0  0  0  0  0  0
    2.3496   -4.2459   -2.5787 C   0  0  0  0  0  0  0  0  0  0  0  0
    1.9676   -4.0865   -3.6109 H   0  0  0  0  0  0  0  0  0  0  0  0
    1.7549   -5.0793   -2.1479 H   0  0  0  0  0  0  0  0  0  0  0  0
    3.3958   -4.5974   -2.6697 H   0  0  0  0  0  0  0  0  0  0  0  0
    4.7726   -2.4178   -1.3875 C   0  0  0  0  0  0  0  0  0  0  0  0
    5.0074   -3.4282   -1.7756 H   0  0  0  0  0  0  0  0  0  0  0  0
    5.3141   -2.2982   -0.4261 H   0  0  0  0  0  0  0  0  0  0  0  0
    5.2138   -1.6858   -2.0986 H   0  0  0  0  0  0  0  0  0  0  0  0
    4.7726    2.4179    1.3875 C   0  0  0  0  0  0  0  0  0  0  0  0
    5.0073    3.4282    1.7758 H   0  0  0  0  0  0  0  0  0  0  0  0
    5.3141    2.2985    0.4261 H   0  0  0  0  0  0  0  0  0  0  0  0
    5.2137    1.6857    2.0984 H   0  0  0  0  0  0  0  0  0  0  0  0
    2.3496    4.2463    2.5783 C   0  0  0  0  0  0  0  0  0  0  0  0
    1.9674    4.0870    3.6105 H   0  0  0  0  0  0  0  0  0  0  0  0
    1.7552    5.0797    2.1473 H   0  0  0  0  0  0  0  0  0  0  0  0
    3.3958    4.5976    2.6695 H   0  0  0  0  0  0  0  0  0  0  0  0
   -0.3322    2.8455    1.7710 C   0  0  0  0  0  0  0  0  0  0  0  0
   -0.7161    3.6504    1.1067 H   0  0  0  0  0  0  0  0  0  0  0  0
   -0.2898    3.2666    2.7957 H   0  0  0  0  0  0  0  0  0  0  0  0
   -1.0741    2.0281    1.7489 H   0  0  0  0  0  0  0  0  0  0  0  0
  1  6  1  0  0  0  0
  2 12  1  0  0  0  0
  3  1  2  0  0  0  0
  4  3  1  0  0  0  0
  4  5  2  0  0  0  0
  5  6  1  0  0  0  0
  6  7  1  0  0  0  0
  7  8  1  0  0  0  0
  7  9  1  0  0  0  0
  9  2  2  0  0  0  0
  9 10  1  0  0  0  0
 10 25  1  0  0  0  0
 10 11  2  0  0  0  0
 11 29  1  0  0  0  0
 12 11  1  0  0  0  0
 12 33  1  0  0  0  0
 13 14  1  0  0  0  0
 13  3  1  0  0  0  0
 13 15  1  0  0  0  0
 16 13  1  0  0  0  0
 17 19  1  0  0  0  0
 17  4  1  0  0  0  0
 18 17  1  0  0  0  0
 20 17  1  0  0  0  0
 21  5  1  0  0  0  0
 21 23  1  0  0  0  0
 22 21  1  0  0  0  0
 24 21  1  0  0  0  0
 25 26  1  0  0  0  0
 25 28  1  0  0  0  0
 27 25  1  0  0  0  0
 29 32  1  0  0  0  0
 29 30  1  0  0  0  0
 31 29  1  0  0  0  0
 33 35  1  0  0  0  0
 34 33  1  0  0  0  0
 36 33  1  0  0  0  0
M  END
