3,5
q = nan, confidence = 0.0

 40 40  0  0  0  0  0  0  0  0999 V2000
    1.0983    1.4266    1.5185 P   0  0  0  0  0  4  0  0  0  0  0  0
    1.1045   -1.4219    1.5184 P   0  0  0  0  0  4  0  0  0  0  0  0
    0.4000    1.5111    0.0001 N   0  0  0  0  0  2  0  0  0  0  0  0
    1.7641    0.0038    1.9544 N   0  0  0  0  0  2  0  0  0  0  0  0
    0.4067   -1.5093   -0.0001 N   0  0  0  0  0  2  0  0  0  0  0  0
   -0.1958    1.9907    2.6670 C   0  0  0  0  0  0  0  0  0  0  0  0
    2.4412    2.6500    1.6825 C   0  0  0  0  0  0  0  0  0  0  0  0
    2.4528   -2.6394    1.6825 C   0  0  0  0  0  0  0  0  0  0  0  0
   -0.1871   -1.9919    2.6667 C   0  0  0  0  0  0  0  0  0  0  0  0
    0.2131    1.9873    3.6958 H   0  0  0  0  0  0  0  0  0  0  0  0
   -0.5411    3.0015    2.3783 H   0  0  0  0  0  0  0  0  0  0  0  0
   -1.0587    1.3028    2.5877 H   0  0  0  0  0  0  0  0  0  0  0  0
    3.3199    2.3139    1.1032 H   0  0  0  0  0  0  0  0  0  0  0  0
    2.1089    3.6482    1.3407 H   0  0  0  0  0  0  0  0  0  0  0  0
    2.7288    2.6973    2.7505 H   0  0  0  0  0  0  0  0  0  0  0  0
    3.3302   -2.2992    1.1036 H   0  0  0  0  0  0  0  0  0  0  0  0
   -1.0538   -1.3090    2.5863 H   0  0  0  0  0  0  0  0  0  0  0  0
   -0.5266   -3.0050    2.3788 H   0  0  0  0  0  0  0  0  0  0  0  0
    0.2213   -1.9854    3.6957 H   0  0  0  0  0  0  0  0  0  0  0  0
    2.7403   -2.6856    2.7506 H   0  0  0  0  0  0  0  0  0  0  0  0
    2.1251   -3.6390    1.3405 H   0  0  0  0  0  0  0  0  0  0  0  0
    1.0983    1.4267   -1.5183 P   0  0  0  0  0  4  0  0  0  0  0  0
    1.1052   -1.4218   -1.5182 P   0  0  0  0  0  4  0  0  0  0  0  0
    1.7645    0.0041   -1.9541 N   0  0  0  0  0  2  0  0  0  0  0  0
   -0.1959    1.9903   -2.6669 C   0  0  0  0  0  0  0  0  0  0  0  0
    2.4408    2.6505   -1.6823 C   0  0  0  0  0  0  0  0  0  0  0  0
    2.4539   -2.6388   -1.6817 C   0  0  0  0  0  0  0  0  0  0  0  0
   -0.1858   -1.9923   -2.6670 C   0  0  0  0  0  0  0  0  0  0  0  0
    0.2134    1.9883   -3.6955 H   0  0  0  0  0  0  0  0  0  0  0  0
   -0.5425    3.0005   -2.3775 H   0  0  0  0  0  0  0  0  0  0  0  0
   -1.0581    1.3014   -2.5885 H   0  0  0  0  0  0  0  0  0  0  0  0
    3.3195    2.3148   -1.1028 H   0  0  0  0  0  0  0  0  0  0  0  0
    2.1081    3.6487   -1.3409 H   0  0  0  0  0  0  0  0  0  0  0  0
    2.7286    2.6977   -2.7503 H   0  0  0  0  0  0  0  0  0  0  0  0
    3.3310   -2.2982   -1.1026 H   0  0  0  0  0  0  0  0  0  0  0  0
    2.7417   -2.6853   -2.7497 H   0  0  0  0  0  0  0  0  0  0  0  0
    2.1265   -3.6385   -1.3395 H   0  0  0  0  0  0  0  0  0  0  0  0
   -1.0534   -1.3104   -2.5860 H   0  0  0  0  0  0  0  0  0  0  0  0
   -0.5241   -3.0060   -2.3802 H   0  0  0  0  0  0  0  0  0  0  0  0
    0.2225   -1.9843   -3.6960 H   0  0  0  0  0  0  0  0  0  0  0  0
  1  7  1  0  0  0  0
  1  4  1  0  0  0  0
  1  6  1  0  0  0  0
  2  8  1  0  0  0  0
  2  4  1  0  0  0  0
  2  9  1  0  0  0  0
  3  1  1  0  0  0  0
  5  2  1  0  0  0  0
  6 10  1  0  0  0  0
  7 15  1  0  0  0  0
  8 20  1  0  0  0  0
  9 19  1  0  0  0  0
 11  6  1  0  0  0  0
 12  6  1  0  0  0  0
 13  7  1  0  0  0  0
 14  7  1  0  0  0  0
 16  8  1  0  0  0  0
 17  9  1  0  0  0  0
 18  9  1  0  0  0  0
 21  8  1  0  0  0  0
 22  3  1  0  0  0  0
 23  5  1  0  0  0  0
 24 22  1  0  0  0  0
 24 23  1  0  0  0  0
 25 31  1  0  0  0  0
 25 30  1  0  0  0  0
 25 22  1  0  0  0  0
 26 22  1  0  0  0  0
 26 33  1  0  0  0  0
 26 32  1  0  0  0  0
 27 23  1  0  0  0  0
 27 37  1  0  0  0  0
 27 35  1  0  0  0  0
 28 38  1  0  0  0  0
 28 39  1  0  0  0  0
 28 23  1  0  0  0  0
 29 25  1  0  0  0  0
 34 26  1  0  0  0  0
 36 27  1  0  0  0  0
 40 28  1  0  0  0  0
M  END
