1,2
q = 0.0, confidence = 1.0

 49 53  0  0  1  0  0  0  0  0999 V2000
   -2.4262   -2.1883   -0.3436 N   0  0  0  0  0  2  0  0  0  0  0  0
   -0.9486    0.0464   -0.4702 N   0  0  0  0  0  2  0  0  0  0  0  0
   -0.4521    3.5188    0.1065 N   0  0  0  0  0  0  0  0  0  0  0  0
   -3.2535   -3.2535   -0.4228 C   0  0  0  0  0  3  0  0  0  0  0  0
   -4.3204   -3.0455   -0.2584 H   0  0  0  0  0  0  0  0  0  0  0  0
   -2.7917   -4.5452   -0.6796 C   0  0  0  0  0  0  0  0  0  0  0  0
   -3.5056   -5.3790   -0.7279 H   0  0  0  0  0  0  0  0  0  0  0  0
   -1.4142   -4.7426   -0.8666 C   0  0  0  0  0  0  0  0  0  0  0  0
   -1.0117   -5.7451   -1.0730 H   0  0  0  0  0  0  0  0  0  0  0  0
   -0.5587   -3.6411   -0.7936 C   0  0  0  0  0  0  0  0  0  0  0  0
    0.5192   -3.7681   -0.9563 H   0  0  0  0  0  0  0  0  0  0  0  0
   -1.0864   -2.3631   -0.5246 C   0  0  0  0  0  0  0  0  0  0  0  0
   -0.2630   -1.1377   -0.4738 C   0  0  1  0  0  3  0  0  0  0  0  0
    1.1369   -1.1852   -0.4389 C   0  0  0  0  0  0  0  0  0  0  0  0
    1.6440   -2.1569   -0.3955 H   0  0  0  0  0  0  0  0  0  0  0  0
    1.8920    0.0008   -0.3584 C   0  0  0  0  0  0  0  0  0  0  0  0
    1.1671    1.2069   -0.3968 C   0  0  0  0  0  0  0  0  0  0  0  0
    1.6653    2.1846   -0.3769 H   0  0  0  0  0  0  0  0  0  0  0  0
   -0.2318    1.2008   -0.4923 C   0  0  0  0  0  0  0  0  0  0  0  0
   -0.9284    2.5084   -0.6464 C   0  0  0  0  0  0  0  0  0  0  0  0
   -1.9675    2.6756   -1.5849 C   0  0  0  0  0  0  0  0  0  0  0  0
   -2.2844    1.8402   -2.2213 H   0  0  0  0  0  0  0  0  0  0  0  0
   -2.5799    3.9302   -1.6841 C   0  0  0  0  0  0  0  0  0  0  0  0
   -3.4024    4.0889   -2.3974 H   0  0  0  0  0  0  0  0  0  0  0  0
   -2.1306    4.9680   -0.8562 C   0  0  0  0  0  0  0  0  0  0  0  0
   -2.5942    5.9650   -0.8864 H   0  0  0  0  0  0  0  0  0  0  0  0
   -1.0523    4.7120    0.0078 C   0  0  0  0  0  0  0  0  0  0  0  0
   -0.6514    5.5149    0.6515 H   0  0  0  0  0  0  0  0  0  0  0  0
    3.3658   -0.0192   -0.2461 C   0  0  0  0  0  0  0  0  0  0  0  0
    4.1335   -1.0596   -0.8165 C   0  0  0  0  0  0  0  0  0  0  0  0
    3.6335   -1.8631   -1.3779 H   0  0  0  0  0  0  0  0  0  0  0  0
    5.5261   -1.0738   -0.7039 C   0  0  0  0  0  0  0  0  0  0  0  0
    6.0940   -1.9054   -1.1468 H   0  0  0  0  0  0  0  0  0  0  0  0
    6.2156   -0.0531   -0.0094 C   0  0  0  0  0  0  0  0  0  0  0  0
    5.4445    0.9855    0.5622 C   0  0  0  0  0  0  0  0  0  0  0  0
    5.9501    1.8046    1.0946 H   0  0  0  0  0  0  0  0  0  0  0  0
    4.0527    1.0060    0.4434 C   0  0  0  0  0  0  0  0  0  0  0  0
    3.4835    1.8213    0.9141 H   0  0  0  0  0  0  0  0  0  0  0  0
    7.6932   -0.0717    0.1153 C   0  0  0  0  0  0  0  0  0  0  0  0
    8.5049   -0.5724   -0.9288 C   0  0  0  0  0  0  0  0  0  0  0  0
    8.0342   -0.9262   -1.8584 H   0  0  0  0  0  0  0  0  0  0  0  0
    9.9009   -0.5893   -0.8108 C   0  0  0  0  0  0  0  0  0  0  0  0
   10.5132   -0.9736   -1.6407 H   0  0  0  0  0  0  0  0  0  0  0  0
   10.5179   -0.1082    0.3550 C   0  0  0  0  0  0  0  0  0  0  0  0
   11.6143   -0.1223    0.4480 H   0  0  0  0  0  0  0  0  0  0  0  0
    9.7258    0.3912    1.4011 C   0  0  0  0  0  0  0  0  0  0  0  0
   10.1989    0.7617    2.3231 H   0  0  0  0  0  0  0  0  0  0  0  0
    8.3299    0.4104    1.2823 C   0  0  0  0  0  0  0  0  0  0  0  0
    7.7185    0.7785    2.1199 H   0  0  0  0  0  0  0  0  0  0  0  0
  4  1  1  0  0  0  0
  4  5  1  0  0  0  0
  6  4  1  0  0  0  0
  7  6  1  0  0  0  0
  8 10  1  0  0  0  0
  8  6  2  0  0  0  0
  9  8  1  0  0  0  0
 10 12  2  0  0  0  0
 11 10  1  0  0  0  0
 12  1  1  0  0  0  0
 13 12  1  6  0  0  0
 13  2  1  0  0  0  0
 13 14  1  0  0  0  0
 14 15  1  0  0  0  0
 14 16  2  0  0  0  0
 16 29  1  0  0  0  0
 17 18  1  0  0  0  0
 17 16  1  0  0  0  0
 19  2  1  0  0  0  0
 19 17  2  0  0  0  0
 20 19  1  0  0  0  0
 20  3  2  0  0  0  0
 21 20  1  0  0  0  0
 22 21  1  0  0  0  0
 23 21  2  0  0  0  0
 23 25  1  0  0  0  0
 24 23  1  0  0  0  0
 25 27  2  0  0  0  0
 26 25  1  0  0  0  0
 27  3  1  0  0  0  0
 27 28  1  0  0  0  0
 29 37  1  0  0  0  0
 30 32  1  0  0  0  0
 30 29  2  0  0  0  0
 31 30  1  0  0  0  0
 32 34  2  0  0  0  0
 33 32  1  0  0  0  0
 34 39  1  0  0  0  0
 34 35  1  0  0  0  0
 35 36  1  0  0  0  0
 37 35  2  0  0  0  0
 37 38  1  0  0  0  0
 39 48  1  0  0  0  0
 40 42  1  0  0  0  0
 40 39  2  0  0  0  0
 41 40  1  0  0  0  0
 42 44  2  0  0  0  0
 43 42  1  0  0  0  0
 44 45  1  0  0  0  0
 44 46  1  0  0  0  0
 46 47  1  0  0  0  0
 48 46  2  0  0  0  0
 48 49  1  0  0  0  0
M  END
