2,3
q = 0.0, confidence = 0.99

 39 42  0  0  1  0  0  0  0  0999 V2000
    8.3484   -0.1173    0.2469 Br  0  0  0  0  0  0  0  0  0  0  0  0
   -2.1505   -2.1753   -0.3917 N   0  0  0  0  0  2  0  0  0  0  0  0
   -0.6595    0.0528   -0.4657 N   0  0  0  0  0  2  0  0  0  0  0  0
   -0.1472    3.5129    0.1716 N   0  0  0  0  0  0  0  0  0  0  0  0
   -1.6571    2.7061   -1.5425 C   0  0  0  0  0  0  0  0  0  0  0  0
   -1.9752    1.8831   -2.1943 H   0  0  0  0  0  0  0  0  0  0  0  0
   -2.9829   -3.2339   -0.4987 C   0  0  0  0  0  3  0  0  0  0  0  0
   -4.0502   -3.0229   -0.3410 H   0  0  0  0  0  0  0  0  0  0  0  0
   -2.5257   -4.5234   -0.7748 C   0  0  0  0  0  0  0  0  0  0  0  0
   -3.2437   -5.3520   -0.8454 H   0  0  0  0  0  0  0  0  0  0  0  0
   -1.1475   -4.7255   -0.9518 C   0  0  0  0  0  0  0  0  0  0  0  0
   -0.7488   -5.7263   -1.1727 H   0  0  0  0  0  0  0  0  0  0  0  0
   -0.2866   -3.6304   -0.8501 C   0  0  0  0  0  0  0  0  0  0  0  0
    0.7920   -3.7610   -1.0049 H   0  0  0  0  0  0  0  0  0  0  0  0
   -0.8099   -2.3547   -0.5627 C   0  0  0  0  0  0  0  0  0  0  0  0
    0.0194   -1.1350   -0.4817 C   0  0  1  0  0  3  0  0  0  0  0  0
    1.4189   -1.1905   -0.4316 C   0  0  0  0  0  0  0  0  0  0  0  0
    1.9206   -2.1655   -0.3974 H   0  0  0  0  0  0  0  0  0  0  0  0
    2.1772   -0.0095   -0.3229 C   0  0  0  0  0  0  0  0  0  0  0  0
    1.4606    1.2011   -0.3499 C   0  0  0  0  0  0  0  0  0  0  0  0
    1.9634    2.1759   -0.3083 H   0  0  0  0  0  0  0  0  0  0  0  0
    0.0626    1.2039   -0.4614 C   0  0  0  0  0  0  0  0  0  0  0  0
   -0.6252    2.5177   -0.6003 C   0  0  0  0  0  0  0  0  0  0  0  0
   -0.7395    4.7113    0.0886 C   0  0  0  0  0  0  0  0  0  0  0  0
   -0.3378    5.5012    0.7475 H   0  0  0  0  0  0  0  0  0  0  0  0
   -1.8108    4.9875   -0.7780 C   0  0  0  0  0  0  0  0  0  0  0  0
   -2.2681    5.9877   -0.7951 H   0  0  0  0  0  0  0  0  0  0  0  0
   -2.2611    3.9660   -1.6253 C   0  0  0  0  0  0  0  0  0  0  0  0
   -3.0779    4.1414   -2.3413 H   0  0  0  0  0  0  0  0  0  0  0  0
    3.6505   -0.0380   -0.1930 C   0  0  0  0  0  0  0  0  0  0  0  0
    4.4190   -1.0628   -0.7898 C   0  0  0  0  0  0  0  0  0  0  0  0
    3.9236   -1.8400   -1.3906 H   0  0  0  0  0  0  0  0  0  0  0  0
    5.8127   -1.0918   -0.6667 C   0  0  0  0  0  0  0  0  0  0  0  0
    6.4004   -1.8868   -1.1467 H   0  0  0  0  0  0  0  0  0  0  0  0
    6.4583   -0.0852    0.0703 C   0  0  0  0  0  0  0  0  0  0  0  0
    5.7202    0.9446    0.6770 C   0  0  0  0  0  0  0  0  0  0  0  0
    6.2336    1.7214    1.2606 H   0  0  0  0  0  0  0  0  0  0  0  0
    4.3280    0.9638    0.5387 C   0  0  0  0  0  0  0  0  0  0  0  0
    3.7533    1.7584    1.0372 H   0  0  0  0  0  0  0  0  0  0  0  0
  3 22  1  0  0  0  0
  5 23  1  0  0  0  0
  6  5  1  0  0  0  0
  7  2  1  0  0  0  0
  7  8  1  0  0  0  0
  9  7  1  0  0  0  0
 10  9  1  0  0  0  0
 11 13  1  0  0  0  0
 11  9  2  0  0  0  0
 12 11  1  0  0  0  0
 13 15  2  0  0  0  0
 14 13  1  0  0  0  0
 15  2  1  0  0  0  0
 16 15  1  6  0  0  0
 16  3  1  0  0  0  0
 16 17  1  0  0  0  0
 17 18  1  0  0  0  0
 17 19  2  0  0  0  0
 19 30  1  0  0  0  0
 20 19  1  0  0  0  0
 20 21  1  0  0  0  0
 22 20  2  0  0  0  0
 23 22  1  0  0  0  0
 23  4  2  0  0  0  0
 24  4  1  0  0  0  0
 24 25  1  0  0  0  0
 26 24  2  0  0  0  0
 27 26  1  0  0  0  0
 28  5  2  0  0  0  0
 28 26  1  0  0  0  0
 29 28  1  0  0  0  0
 30 38  1  0  0  0  0
 31 33  1  0  0  0  0
 31 30  2  0  0  0  0
 32 31  1  0  0  0  0
 33 35  2  0  0  0  0
 34 33  1  0  0  0  0
 35  1  1  0  0  0  0
 35 36  1  0  0  0  0
 36 37  1  0  0  0  0
 38 36  2  0  0  0  0
 38 39  1  0  0  0  0
M  END
