1,2
q = 0.0, confidence = 0.958

 35 39  0  0  1  0  0  0  0  0999 V2000
    0.5794    0.1069   -0.0100 N   0  0  0  0  0  2  0  0  0  0  0  0
   -1.3465    1.8399   -0.2044 N   0  0  0  0  0  2  0  0  0  0  0  0
   -0.9375    4.6225   -0.5036 N   0  0  0  0  0  0  0  0  0  0  0  0
    2.2756    1.7941   -0.1883 N   0  0  0  0  0  0  0  0  0  0  0  0
   -2.1686    4.0775   -0.4501 C   0  0  0  0  0  0  0  0  0  0  0  0
   -3.0299    4.7625   -0.5279 H   0  0  0  0  0  0  0  0  0  0  0  0
    1.0044    1.4208   -0.1506 C   0  0  0  0  0  0  0  0  0  0  0  0
    1.4790   -0.8518    0.0907 N   0  0  0  0  0  0  0  0  0  0  0  0
    3.3226   -2.9512    0.3076 C   0  0  0  0  0  0  0  0  0  0  0  0
    2.2409   -3.1487    0.3283 H   0  0  0  0  0  0  0  0  0  0  0  0
   -2.3885    2.7047   -0.3026 C   0  0  0  0  0  3  0  0  0  0  0  0
   -3.3999    2.2758   -0.2605 H   0  0  0  0  0  0  0  0  0  0  0  0
    4.6240    1.1592   -0.1165 C   0  0  0  0  0  0  0  0  0  0  0  0
   -0.0869    2.3832   -0.2580 C   0  0  0  0  0  0  0  0  0  0  0  0
    3.2127    0.8305   -0.0846 C   0  0  0  0  0  0  0  0  0  0  0  0
    0.0887    3.7719   -0.4074 C   0  0  0  0  0  0  0  0  0  0  0  0
    1.1144    4.1748   -0.4467 H   0  0  0  0  0  0  0  0  0  0  0  0
    3.7582   -1.6097    0.1692 C   0  0  2  0  0  3  0  0  0  0  0  0
    4.2533   -3.9807    0.4135 C   0  0  0  0  0  0  0  0  0  0  0  0
    3.9157   -5.0219    0.5208 H   0  0  0  0  0  0  0  0  0  0  0  0
    2.7878   -0.5346    0.0576 C   0  0  0  0  0  0  0  0  0  0  0  0
    5.0394    2.5068   -0.2549 C   0  0  0  0  0  0  0  0  0  0  0  0
    4.2654    3.2824   -0.3359 H   0  0  0  0  0  0  0  0  0  0  0  0
    5.5898    0.1064   -0.0067 C   0  0  0  0  0  0  0  0  0  0  0  0
    5.6319   -3.6814    0.3824 C   0  0  0  0  0  0  0  0  0  0  0  0
    6.3716   -4.4917    0.4655 H   0  0  0  0  0  0  0  0  0  0  0  0
    6.9578    0.4703   -0.0423 C   0  0  0  0  0  0  0  0  0  0  0  0
    7.7332   -0.3027    0.0385 H   0  0  0  0  0  0  0  0  0  0  0  0
    5.1530   -1.2907    0.1366 C   0  0  0  0  0  0  0  0  0  0  0  0
    6.3922    2.8294   -0.2861 C   0  0  0  0  0  0  0  0  0  0  0  0
    6.7112    3.8764   -0.3935 H   0  0  0  0  0  0  0  0  0  0  0  0
    6.0707   -2.3637    0.2469 C   0  0  0  0  0  0  0  0  0  0  0  0
    7.1508   -2.1680    0.2266 H   0  0  0  0  0  0  0  0  0  0  0  0
    7.3531    1.8016   -0.1788 C   0  0  0  0  0  0  0  0  0  0  0  0
    8.4251    2.0479   -0.2026 H   0  0  0  0  0  0  0  0  0  0  0  0
  1  8  1  0  0  0  0
  3  5  2  0  0  0  0
  3 16  1  0  0  0  0
  4  7  2  0  0  0  0
  4 15  1  0  0  0  0
  5 11  1  0  0  0  0
  6  5  1  0  0  0  0
  7  1  1  0  0  0  0
  9 10  1  0  0  0  0
  9 19  2  0  0  0  0
 11 12  1  0  0  0  0
 11  2  1  0  0  0  0
 13 15  2  0  0  0  0
 13 24  1  0  0  0  0
 14  2  1  0  0  0  0
 14  7  1  0  0  0  0
 15 21  1  0  0  0  0
 16 14  2  0  0  0  0
 17 16  1  0  0  0  0
 18 21  1  6  0  0  0
 18  9  1  0  0  0  0
 19 20  1  0  0  0  0
 21  8  2  0  0  0  0
 22 13  1  0  0  0  0
 23 22  1  0  0  0  0
 24 29  2  0  0  0  0
 25 19  1  0  0  0  0
 25 26  1  0  0  0  0
 27 24  1  0  0  0  0
 27 28  1  0  0  0  0
 29 18  1  0  0  0  0
 29 32  1  0  0  0  0
 30 22  2  0  0  0  0
 30 34  1  0  0  0  0
 31 30  1  0  0  0  0
 32 25  2  0  0  0  0
 33 32  1  0  0  0  0
 34 27  2  0  0  0  0
 35 34  1  0  0  0  0
M  END
