1,5
q = 0.0, confidence = 0.978

 40 39  0  0  0  0  0  0  0  0999 V2000
   -0.5787    0.4772   -0.1454 N   0  0  0  0  0  2  0  0  0  0  0  0
    0.4270    1.4128   -0.2820 N   0  0  0  0  0  2  0  0  0  0  0  0
   -2.8278   -0.0041   -0.5213 N   0  0  0  0  0  0  0  0  0  0  0  0
   -2.2436    2.1447    0.2289 N   0  0  0  0  0  0  0  0  0  0  0  0
    1.7554   -0.1680    0.9435 N   0  0  0  0  0  0  0  0  0  0  0  0
    2.7357    1.6172   -0.3586 N   0  0  0  0  0  0  0  0  0  0  0  0
   -1.8375    0.8806   -0.1409 C   0  0  0  0  0  3  0  0  0  0  0  0
   -2.5209   -1.1062   -1.4223 C   0  0  0  0  0  0  0  0  0  0  0  0
   -1.6544   -0.8533   -2.0621 H   0  0  0  0  0  0  0  0  0  0  0  0
   -3.4012   -1.3041   -2.0704 H   0  0  0  0  0  0  0  0  0  0  0  0
   -2.2893   -2.0444   -0.8659 H   0  0  0  0  0  0  0  0  0  0  0  0
   -3.9466   -0.2535    0.3808 C   0  0  0  0  0  0  0  0  0  0  0  0
   -3.7410   -1.1548    1.0027 H   0  0  0  0  0  0  0  0  0  0  0  0
   -4.8832   -0.4200   -0.1913 H   0  0  0  0  0  0  0  0  0  0  0  0
   -4.0927    0.6092    1.0555 H   0  0  0  0  0  0  0  0  0  0  0  0
   -3.3668    2.8009   -0.4157 C   0  0  0  0  0  0  0  0  0  0  0  0
   -3.7670    2.1493   -1.2128 H   0  0  0  0  0  0  0  0  0  0  0  0
   -3.0403    3.7622   -0.8721 H   0  0  0  0  0  0  0  0  0  0  0  0
   -4.1862    3.0281    0.3035 H   0  0  0  0  0  0  0  0  0  0  0  0
   -1.4923    2.9523    1.1718 C   0  0  0  0  0  0  0  0  0  0  0  0
   -0.8156    2.3127    1.7644 H   0  0  0  0  0  0  0  0  0  0  0  0
   -2.2003    3.4540    1.8676 H   0  0  0  0  0  0  0  0  0  0  0  0
   -0.8735    3.7267    0.6697 H   0  0  0  0  0  0  0  0  0  0  0  0
    1.6018    0.9973    0.1206 C   0  0  0  0  0  3  0  0  0  0  0  0
    1.2481   -0.0589    2.3193 C   0  0  0  0  0  0  0  0  0  0  0  0
    1.9713    0.4642    2.9861 H   0  0  0  0  0  0  0  0  0  0  0  0
    1.0364   -1.0735    2.7103 H   0  0  0  0  0  0  0  0  0  0  0  0
    0.2881    0.4895    2.3167 H   0  0  0  0  0  0  0  0  0  0  0  0
    2.9734   -0.9769    0.8104 C   0  0  0  0  0  0  0  0  0  0  0  0
    3.2163   -1.0807   -0.2627 H   0  0  0  0  0  0  0  0  0  0  0  0
    2.7565   -1.9853    1.2172 H   0  0  0  0  0  0  0  0  0  0  0  0
    3.8432   -0.5612    1.3659 H   0  0  0  0  0  0  0  0  0  0  0  0
    2.6226    2.3513   -1.6076 C   0  0  0  0  0  0  0  0  0  0  0  0
    1.9920    1.7688   -2.3042 H   0  0  0  0  0  0  0  0  0  0  0  0
    3.6360    2.4747   -2.0421 H   0  0  0  0  0  0  0  0  0  0  0  0
    2.1667    3.3600   -1.4770 H   0  0  0  0  0  0  0  0  0  0  0  0
    3.7598    2.0836    0.5608 C   0  0  0  0  0  0  0  0  0  0  0  0
    3.6221    3.1631    0.8100 H   0  0  0  0  0  0  0  0  0  0  0  0
    4.7719    1.9577    0.1220 H   0  0  0  0  0  0  0  0  0  0  0  0
    3.7196    1.5171    1.5085 H   0  0  0  0  0  0  0  0  0  0  0  0
  1  7  1  0  0  0  0
  2  1  1  0  0  0  0
  2 24  1  0  0  0  0
  3  7  1  0  0  0  0
  3 12  1  0  0  0  0
  4 20  1  0  0  0  0
  5 25  1  0  0  0  0
  6 24  1  0  0  0  0
  6 37  1  0  0  0  0
  7  4  1  0  0  0  0
  8 11  1  0  0  0  0
  8  3  1  0  0  0  0
  9  8  1  0  0  0  0
 10  8  1  0  0  0  0
 12 13  1  0  0  0  0
 12 15  1  0  0  0  0
 14 12  1  0  0  0  0
 16  4  1  0  0  0  0
 16 19  1  0  0  0  0
 17 16  1  0  0  0  0
 18 16  1  0  0  0  0
 20 21  1  0  0  0  0
 20 22  1  0  0  0  0
 23 20  1  0  0  0  0
 24  5  1  0  0  0  0
 25 27  1  0  0  0  0
 25 26  1  0  0  0  0
 28 25  1  0  0  0  0
 29  5  1  0  0  0  0
 29 31  1  0  0  0  0
 29 32  1  0  0  0  0
 30 29  1  0  0  0  0
 33 36  1  0  0  0  0
 33  6  1  0  0  0  0
 34 33  1  0  0  0  0
 35 33  1  0  0  0  0
 37 38  1  0  0  0  0
 37 40  1  0  0  0  0
 39 37  1  0  0  0  0
M  END
