1,22
q = -1.0, confidence = 0.0

 40 41  0  0  1  0  0  0  0  0999 V2000
    1.0298    1.6353   -1.1393 N   0  0  0  0  0  2  0  0  0  0  0  0
    1.4703   -2.1020   -3.8641 N   0  0  0  0  0  0  0  0  0  0  0  0
    1.7250    3.9262   -1.7451 C   0  0  0  0  0  0  0  0  0  0  0  0
    1.5536    3.8083   -2.8352 H   0  0  0  0  0  0  0  0  0  0  0  0
    2.8080    3.7491   -1.5781 H   0  0  0  0  0  0  0  0  0  0  0  0
    1.4980    4.9717   -1.4717 H   0  0  0  0  0  0  0  0  0  0  0  0
    0.8878    2.9515   -0.9396 C   0  0  2  0  0  3  0  0  0  0  0  0
    0.0000    3.5366   -0.0001 C   0  0  0  0  0  0  0  0  0  0  0  0
    0.0000    4.6342   -0.0001 H   0  0  0  0  0  0  0  0  0  0  0  0
    2.0724   -0.2665   -2.3840 C   0  0  0  0  0  0  0  0  0  0  0  0
    1.4940   -0.7966   -3.5538 C   0  0  0  0  0  0  0  0  0  0  0  0
    1.0195   -0.1112   -4.2815 H   0  0  0  0  0  0  0  0  0  0  0  0
    2.0609   -2.9492   -3.0059 C   0  0  0  0  0  0  0  0  0  0  0  0
    2.0260   -4.0214   -3.2714 H   0  0  0  0  0  0  0  0  0  0  0  0
    2.6904   -2.5353   -1.8216 C   0  0  0  0  0  0  0  0  0  0  0  0
    3.1635   -3.2719   -1.1556 H   0  0  0  0  0  0  0  0  0  0  0  0
    2.6986   -1.1712   -1.5085 C   0  0  0  0  0  0  0  0  0  0  0  0
    3.1815   -0.8045   -0.5913 H   0  0  0  0  0  0  0  0  0  0  0  0
    2.0492    1.2155   -2.1068 C   0  0  0  0  0  0  0  0  0  0  0  0
    3.0591    1.5142   -1.7370 H   0  0  0  0  0  0  0  0  0  0  0  0
    1.9080    1.7408   -3.0784 H   0  0  0  0  0  0  0  0  0  0  0  0
   -1.0296    1.6354    1.1394 N   0  0  0  0  0  2  0  0  0  0  0  0
   -1.4710   -2.1024    3.8638 N   0  0  0  0  0  0  0  0  0  0  0  0
   -1.7247    3.9263    1.7453 C   0  0  0  0  0  0  0  0  0  0  0  0
   -1.5529    3.8084    2.8354 H   0  0  0  0  0  0  0  0  0  0  0  0
   -2.8077    3.7491    1.5786 H   0  0  0  0  0  0  0  0  0  0  0  0
   -1.4977    4.9717    1.4718 H   0  0  0  0  0  0  0  0  0  0  0  0
   -0.8876    2.9516    0.9396 C   0  0  0  0  0  0  0  0  0  0  0  0
   -2.0724   -0.2663    2.3841 C   0  0  0  0  0  0  0  0  0  0  0  0
   -1.4944   -0.7969    3.5539 C   0  0  0  0  0  0  0  0  0  0  0  0
   -1.0196   -0.1119    4.2818 H   0  0  0  0  0  0  0  0  0  0  0  0
   -2.0617   -2.9492    3.0053 C   0  0  0  0  0  0  0  0  0  0  0  0
   -2.0271   -4.0215    3.2705 H   0  0  0  0  0  0  0  0  0  0  0  0
   -2.6910   -2.5348    1.8210 C   0  0  0  0  0  0  0  0  0  0  0  0
   -3.1642   -3.2711    1.1548 H   0  0  0  0  0  0  0  0  0  0  0  0
   -2.6987   -1.1706    1.5083 C   0  0  0  0  0  0  0  0  0  0  0  0
   -3.1814   -0.8036    0.5911 H   0  0  0  0  0  0  0  0  0  0  0  0
   -2.0487    1.2157    2.1073 C   0  0  0  0  0  0  0  0  0  0  0  0
   -3.0587    1.5149    1.7381 H   0  0  0  0  0  0  0  0  0  0  0  0
   -1.9069    1.7407    3.0789 H   0  0  0  0  0  0  0  0  0  0  0  0
  2 11  2  0  0  0  0
  2 13  1  0  0  0  0
  3  5  1  0  0  0  0
  3  6  1  0  0  0  0
  3  7  1  0  0  0  0
  4  3  1  0  0  0  0
  7  1  1  1  0  0  0
  7  8  1  0  0  0  0
  8 28  2  0  0  0  0
  9  8  1  0  0  0  0
 10 19  1  0  0  0  0
 10 17  2  0  0  0  0
 11 10  1  0  0  0  0
 12 11  1  0  0  0  0
 13 15  2  0  0  0  0
 14 13  1  0  0  0  0
 15 17  1  0  0  0  0
 15 16  1  0  0  0  0
 17 18  1  0  0  0  0
 19 20  1  0  0  0  0
 19  1  1  0  0  0  0
 21 19  1  0  0  0  0
 22 38  1  0  0  0  0
 24 25  1  0  0  0  0
 26 24  1  0  0  0  0
 27 24  1  0  0  0  0
 28 22  1  0  0  0  0
 28 24  1  0  0  0  0
 29 30  2  0  0  0  0
 30 23  1  0  0  0  0
 30 31  1  0  0  0  0
 32 33  1  0  0  0  0
 32 23  2  0  0  0  0
 34 32  1  0  0  0  0
 35 34  1  0  0  0  0
 36 34  2  0  0  0  0
 36 29  1  0  0  0  0
 37 36  1  0  0  0  0
 38 29  1  0  0  0  0
 38 40  1  0  0  0  0
 39 38  1  0  0  0  0
M  END
