1,4
q = -1.0

 33 34  0  0  1  0  0  0  0  0999 V2000
    0.6094    0.9246   -1.2980 N   0  0  0  0  0  2  0  0  0  0  0  0
    4.0282    0.1366   -0.4910 N   0  0  0  0  0  0  0  0  0  0  0  0
    4.6003    1.4681   -0.8192 H   0  0  0  0  0  0  0  0  0  0  0  0
    2.0570   -0.9709   -0.1649 N   0  0  0  0  0  2  0  0  0  0  0  0
    4.8209    2.4808   -1.0061 O   0  0  0  0  0  0  0  0  0  0  0  0
    3.8779    4.4120   -1.5842 O   0  0  0  0  0  0  0  0  0  0  0  0
    2.8008   -2.9725    0.7552 O   0  0  0  0  0  0  0  0  0  0  0  0
    3.7877    3.2130   -1.3571 C   0  0  0  0  0  0  0  0  0  0  0  0
    1.9182    1.2695   -1.1565 C   0  0  1  0  0  3  0  0  0  0  0  0
    2.3861    2.5660   -1.5079 C   0  0  0  0  0  0  0  0  0  0  0  0
    1.4250    3.4564   -2.0351 C   0  0  0  0  0  0  0  0  0  0  0  0
    1.7893    4.4626   -2.2915 H   0  0  0  0  0  0  0  0  0  0  0  0
    0.0917    3.0786   -2.1970 C   0  0  0  0  0  0  0  0  0  0  0  0
   -0.6548    3.7714   -2.6112 H   0  0  0  0  0  0  0  0  0  0  0  0
   -0.2793    1.7882   -1.7987 C   0  0  0  0  0  0  0  0  0  0  0  0
   -1.3187    1.4281   -1.8716 H   0  0  0  0  0  0  0  0  0  0  0  0
    2.7259    0.1500   -0.6021 C   0  0  0  0  0  0  0  0  0  0  0  0
    3.0116   -1.8362    0.2905 C   0  0  0  0  0  0  0  0  0  0  0  0
    4.3907   -1.1586    0.1021 C   0  0  2  0  0  0  0  0  0  0  0  0
    5.1324   -0.9232    1.4585 C   0  0  0  0  0  0  0  0  0  0  0  0
    6.0068   -0.2885    1.1915 H   0  0  0  0  0  0  0  0  0  0  0  0
    4.2638   -0.1354    2.4470 C   0  0  0  0  0  0  0  0  0  0  0  0
    3.8799    0.8011    1.9954 H   0  0  0  0  0  0  0  0  0  0  0  0
    4.8521    0.1424    3.3438 H   0  0  0  0  0  0  0  0  0  0  0  0
    3.4045   -0.7470    2.7955 H   0  0  0  0  0  0  0  0  0  0  0  0
    5.6384   -2.2264    2.0874 C   0  0  0  0  0  0  0  0  0  0  0  0
    4.8034   -2.9367    2.2500 H   0  0  0  0  0  0  0  0  0  0  0  0
    6.1114   -2.0135    3.0670 H   0  0  0  0  0  0  0  0  0  0  0  0
    6.3966   -2.7288    1.4566 H   0  0  0  0  0  0  0  0  0  0  0  0
    5.2295   -1.9684   -0.9000 C   0  0  0  0  0  0  0  0  0  0  0  0
    4.7332   -1.9836   -1.8898 H   0  0  0  0  0  0  0  0  0  0  0  0
    5.3356   -3.0121   -0.5491 H   0  0  0  0  0  0  0  0  0  0  0  0
    6.2331   -1.5145   -1.0180 H   0  0  0  0  0  0  0  0  0  0  0  0
  1  9  1  0  0  0  0
  2 19  1  0  0  0  0
  4 18  1  0  0  0  0
  5  3  1  0  0  0  0
  6  8  2  0  0  0  0
  8  5  1  0  0  0  0
  9 17  1  1  0  0  0
 10  8  1  0  0  0  0
 10  9  1  0  0  0  0
 11 10  2  0  0  0  0
 12 11  1  0  0  0  0
 13 11  1  0  0  0  0
 13 15  2  0  0  0  0
 14 13  1  0  0  0  0
 15  1  1  0  0  0  0
 16 15  1  0  0  0  0
 17  2  2  0  0  0  0
 17  4  1  0  0  0  0
 18  7  2  0  0  0  0
 19 30  1  6  0  0  0
 19 18  1  0  0  0  0
 19 20  1  0  0  0  0
 20 26  1  0  0  0  0
 20 22  1  0  0  0  0
 21 20  1  0  0  0  0
 22 25  1  0  0  0  0
 22 24  1  0  0  0  0
 23 22  1  0  0  0  0
 26 27  1  0  0  0  0
 26 28  1  0  0  0  0
 29 26  1  0  0  0  0
 30 32  1  0  0  0  0
 31 30  1  0  0  0  0
 33 30  1  0  0  0  0
M  END
