1,2
q = 0.0, confidence = 0.988

 36 37  0  0  0  0  0  0  0  0999 V2000
   -1.7006    0.3142    1.5639 N   0  0  0  0  0  2  0  0  0  0  0  0
    0.5002    1.7043    0.5261 N   0  0  0  0  0  0  0  0  0  0  0  0
    1.3140    1.2218    0.9423 H   0  0  0  0  0  0  0  0  0  0  0  0
    3.0255    1.2933   -0.6805 N   0  0  0  0  0  0  0  0  0  0  0  0
   -3.0361   -1.3352   -0.1705 O   0  0  0  0  0  0  0  0  0  0  0  0
    5.0861   -0.1246    0.6953 O   0  0  0  0  0  0  0  0  0  0  0  0
   -3.9159   -2.0775   -0.8740 C   0  0  0  0  0  0  0  0  0  0  0  0
   -3.5378   -2.4827   -1.8183 H   0  0  0  0  0  0  0  0  0  0  0  0
   -5.1252   -2.1537   -0.2074 C   0  0  0  0  0  0  0  0  0  0  0  0
   -6.0205   -2.6887   -0.5412 H   0  0  0  0  0  0  0  0  0  0  0  0
   -4.9629   -1.3962    0.9898 C   0  0  0  0  0  0  0  0  0  0  0  0
   -5.7066   -1.2199    1.7748 H   0  0  0  0  0  0  0  0  0  0  0  0
   -3.6616   -0.9066    0.9677 C   0  0  0  0  0  0  0  0  0  0  0  0
   -2.9048   -0.0618    1.8483 C   0  0  0  0  0  3  0  0  0  0  0  0
   -3.4144    0.2644    2.7805 H   0  0  0  0  0  0  0  0  0  0  0  0
   -0.9650    1.2135    2.4310 C   0  0  0  0  0  0  0  0  0  0  0  0
   -0.1602    0.6311    2.9374 H   0  0  0  0  0  0  0  0  0  0  0  0
   -1.6037    1.6591    3.2267 H   0  0  0  0  0  0  0  0  0  0  0  0
   -0.3262    2.3143    1.5747 C   0  0  0  0  0  0  0  0  0  0  0  0
   -1.1303    2.8827    1.0618 H   0  0  0  0  0  0  0  0  0  0  0  0
    0.2521    3.0169    2.2178 H   0  0  0  0  0  0  0  0  0  0  0  0
    1.0216    2.6562   -0.4714 C   0  0  0  0  0  0  0  0  0  0  0  0
    1.5742    3.4839    0.0301 H   0  0  0  0  0  0  0  0  0  0  0  0
    0.1540    3.0709   -1.0250 H   0  0  0  0  0  0  0  0  0  0  0  0
    1.9531    1.9154   -1.4314 C   0  0  0  0  0  0  0  0  0  0  0  0
    1.3582    1.1871   -2.0373 H   0  0  0  0  0  0  0  0  0  0  0  0
    2.3832    2.6654   -2.1316 H   0  0  0  0  0  0  0  0  0  0  0  0
    3.2053    0.0281   -0.8613 C   0  0  0  0  0  0  0  0  0  0  0  0
    2.5655   -0.5777   -1.5437 H   0  0  0  0  0  0  0  0  0  0  0  0
    4.2069   -0.7430   -0.1571 C   0  0  0  0  0  0  0  0  0  0  0  0
    4.4497   -2.1095   -0.1640 C   0  0  0  0  0  0  0  0  0  0  0  0
    3.8842   -2.8495   -0.7410 H   0  0  0  0  0  0  0  0  0  0  0  0
    5.5390   -2.3327    0.7324 C   0  0  0  0  0  0  0  0  0  0  0  0
    6.0121   -3.2873    0.9871 H   0  0  0  0  0  0  0  0  0  0  0  0
    5.8824   -1.0890    1.2210 C   0  0  0  0  0  0  0  0  0  0  0  0
    6.6495   -0.7446    1.9228 H   0  0  0  0  0  0  0  0  0  0  0  0
  1 14  1  0  0  0  0
  1 16  1  0  0  0  0
  2  3  1  0  0  0  0
  2 19  1  0  0  0  0
  5 13  1  0  0  0  0
  6 35  1  0  0  0  0
  7  9  2  0  0  0  0
  7  5  1  0  0  0  0
  8  7  1  0  0  0  0
  9 11  1  0  0  0  0
 10  9  1  0  0  0  0
 11 12  1  0  0  0  0
 13 11  2  0  0  0  0
 13 14  1  0  0  0  0
 14 15  1  0  0  0  0
 16 17  1  0  0  0  0
 16 18  1  0  0  0  0
 19 21  1  0  0  0  0
 19 16  1  0  0  0  0
 20 19  1  0  0  0  0
 22 23  1  0  0  0  0
 22  2  1  0  0  0  0
 24 22  1  0  0  0  0
 25  4  1  0  0  0  0
 25 22  1  0  0  0  0
 26 25  1  0  0  0  0
 27 25  1  0  0  0  0
 28  4  2  0  0  0  0
 28 30  1  0  0  0  0
 29 28  1  0  0  0  0
 30  6  1  0  0  0  0
 31 30  2  0  0  0  0
 31 33  1  0  0  0  0
 32 31  1  0  0  0  0
 33 34  1  0  0  0  0
 33 35  2  0  0  0  0
 35 36  1  0  0  0  0
M  END
