5,6
q = 0.0, confidence = 0.996

 32 33  0  0  1  0  0  0  0  0999 V2000
    5.5133   -0.0565    0.0014 O   0  0  0  0  0  0  0  0  0  0  0  0
    5.6618    2.2114    0.0004 O   0  0  0  0  0  0  0  0  0  0  0  0
   -5.5133   -0.0565   -0.0009 O   0  0  0  0  0  0  0  0  0  0  0  0
   -5.6618    2.2114    0.0000 O   0  0  0  0  0  0  0  0  0  0  0  0
    1.3315    0.2332    0.0010 N   0  0  0  0  0  2  0  0  0  0  0  0
   -1.3315    0.2332   -0.0003 N   0  0  0  0  0  2  0  0  0  0  0  0
    2.6675    0.1310    0.0011 C   0  0  0  0  0  3  0  0  0  0  0  0
    3.5049    1.2604    0.0007 C   0  0  0  0  0  0  0  0  0  0  0  0
    2.9083    2.5338    0.0000 C   0  0  0  0  0  0  0  0  0  0  0  0
    1.5148    2.6294   -0.0000 C   0  0  0  0  0  0  0  0  0  0  0  0
    0.7402    1.4536    0.0005 C   0  0  0  0  0  0  0  0  0  0  0  0
   -0.7402    1.4536    0.0005 C   0  0  2  0  0  3  0  0  0  0  0  0
   -1.5148    2.6294    0.0014 C   0  0  0  0  0  0  0  0  0  0  0  0
   -2.9083    2.5338    0.0011 C   0  0  0  0  0  0  0  0  0  0  0  0
   -3.5049    1.2604    0.0000 C   0  0  0  0  0  0  0  0  0  0  0  0
   -2.6675    0.1310   -0.0006 C   0  0  0  0  0  0  0  0  0  0  0  0
    4.9847    1.0391    0.0009 C   0  0  0  0  0  0  0  0  0  0  0  0
    7.0915    2.0900    0.0006 C   0  0  0  0  0  0  0  0  0  0  0  0
   -4.9847    1.0391   -0.0003 C   0  0  0  0  0  0  0  0  0  0  0  0
   -7.0915    2.0900   -0.0002 C   0  0  0  0  0  0  0  0  0  0  0  0
    3.0918   -0.8854    0.0015 H   0  0  0  0  0  0  0  0  0  0  0  0
    3.5400    3.4326   -0.0004 H   0  0  0  0  0  0  0  0  0  0  0  0
    1.0334    3.6158   -0.0006 H   0  0  0  0  0  0  0  0  0  0  0  0
   -1.0334    3.6158    0.0024 H   0  0  0  0  0  0  0  0  0  0  0  0
   -3.5400    3.4326    0.0018 H   0  0  0  0  0  0  0  0  0  0  0  0
   -3.0918   -0.8854   -0.0012 H   0  0  0  0  0  0  0  0  0  0  0  0
    7.4860    3.1210   -0.0002 H   0  0  0  0  0  0  0  0  0  0  0  0
    7.4368    1.5394   -0.8972 H   0  0  0  0  0  0  0  0  0  0  0  0
    7.4368    1.5407    0.8992 H   0  0  0  0  0  0  0  0  0  0  0  0
   -7.4860    3.1210   -0.0004 H   0  0  0  0  0  0  0  0  0  0  0  0
   -7.4370    1.5401    0.8980 H   0  0  0  0  0  0  0  0  0  0  0  0
   -7.4367    1.5400   -0.8985 H   0  0  0  0  0  0  0  0  0  0  0  0
  2 18  1  0  0  0  0
  2 17  1  0  0  0  0
  3 19  2  0  0  0  0
  5  7  1  0  0  0  0
  6 12  1  0  0  0  0
  7 21  1  0  0  0  0
  8 17  1  0  0  0  0
  8  7  1  0  0  0  0
  9  8  2  0  0  0  0
 10  9  1  0  0  0  0
 10 11  2  0  0  0  0
 11  5  1  0  0  0  0
 12 11  1  1  0  0  0
 12 13  1  0  0  0  0
 13 24  1  0  0  0  0
 14 13  2  0  0  0  0
 14 25  1  0  0  0  0
 15 14  1  0  0  0  0
 16  6  1  0  0  0  0
 16 15  2  0  0  0  0
 17  1  2  0  0  0  0
 18 29  1  0  0  0  0
 19  4  1  0  0  0  0
 19 15  1  0  0  0  0
 20  4  1  0  0  0  0
 20 31  1  0  0  0  0
 22  9  1  0  0  0  0
 23 10  1  0  0  0  0
 26 16  1  0  0  0  0
 27 18  1  0  0  0  0
 28 18  1  0  0  0  0
 30 20  1  0  0  0  0
 32 20  1  0  0  0  0
M  END
