3,41
q = -1.0

 42 44  0  0  0  0  0  0  0  0999 V2000
    4.1604    1.5707    0.8264 S   0  0  0  0  0  0  0  0  0  0  0  0
   -2.6595   -2.0658   -2.2478 Cl  0  0  0  0  0  0  0  0  0  0  0  0
   -1.7679    0.6830   -1.3253 N   0  0  0  0  0  2  0  0  0  0  0  0
    1.9771    0.2281    1.4682 N   0  0  0  0  0  0  0  0  0  0  0  0
    2.9760   -0.2416    2.2786 C   0  0  0  0  0  0  0  0  0  0  0  0
    1.7555    1.8420   -0.3106 N   0  0  0  0  0  2  0  0  0  0  0  0
    2.8323   -1.2592    3.2497 C   0  0  0  0  0  0  0  0  0  0  0  0
    1.8428   -1.7172    3.3915 H   0  0  0  0  0  0  0  0  0  0  0  0
    0.3937    3.4987   -2.0470 C   0  0  0  0  0  0  0  0  0  0  0  0
    1.4120    3.2662   -2.4222 H   0  0  0  0  0  0  0  0  0  0  0  0
   -0.2400    3.7718   -2.9141 H   0  0  0  0  0  0  0  0  0  0  0  0
    4.2670    0.3616    2.0830 C   0  0  0  0  0  0  0  0  0  0  0  0
    5.3823   -0.0395    2.8351 C   0  0  0  0  0  0  0  0  0  0  0  0
    6.3665    0.4265    2.6813 H   0  0  0  0  0  0  0  0  0  0  0  0
   -5.8596   -0.1603   -0.7249 C   0  0  0  0  0  0  0  0  0  0  0  0
   -6.9126   -0.4014   -0.5173 H   0  0  0  0  0  0  0  0  0  0  0  0
   -0.1659    2.2355   -1.4714 C   0  0  0  0  0  0  0  0  0  0  0  0
    3.9472   -1.6564    3.9913 C   0  0  0  0  0  0  0  0  0  0  0  0
    3.8436   -2.4507    4.7456 H   0  0  0  0  0  0  0  0  0  0  0  0
    5.2100   -1.0529    3.7882 C   0  0  0  0  0  0  0  0  0  0  0  0
    6.0728   -1.3820    4.3865 H   0  0  0  0  0  0  0  0  0  0  0  0
   -3.1401    0.4279   -1.2192 C   0  0  0  0  0  0  0  0  0  0  0  0
    2.4273    1.1504    0.6413 C   0  0  0  0  0  0  0  0  0  0  0  0
   -3.6666   -0.8590   -1.4970 C   0  0  0  0  0  0  0  0  0  0  0  0
   -4.0211    1.4237   -0.7315 C   0  0  0  0  0  0  0  0  0  0  0  0
   -3.5987    2.4174   -0.5261 H   0  0  0  0  0  0  0  0  0  0  0  0
   -5.3649    1.1339   -0.4868 C   0  0  0  0  0  0  0  0  0  0  0  0
   -6.0270    1.9168   -0.0881 H   0  0  0  0  0  0  0  0  0  0  0  0
   -5.0135   -1.1515   -1.2433 C   0  0  0  0  0  0  0  0  0  0  0  0
   -5.3890   -2.1592   -1.4695 H   0  0  0  0  0  0  0  0  0  0  0  0
    2.5453    5.8192   -2.0547 C   0  0  0  0  0  0  0  0  0  0  0  0
    2.9541    6.7818   -2.4225 H   0  0  0  0  0  0  0  0  0  0  0  0
    2.6992    5.0708   -2.8588 H   0  0  0  0  0  0  0  0  0  0  0  0
    3.1611    5.4994   -1.1880 H   0  0  0  0  0  0  0  0  0  0  0  0
    0.4637    4.6782   -1.0587 C   0  0  0  0  0  0  0  0  0  0  0  0
    1.0686    4.3721   -0.1783 H   0  0  0  0  0  0  0  0  0  0  0  0
   -0.5609    4.8904   -0.6867 H   0  0  0  0  0  0  0  0  0  0  0  0
    1.0706    5.9502   -1.6654 C   0  0  0  0  0  0  0  0  0  0  0  0
    0.4734    6.2548   -2.5541 H   0  0  0  0  0  0  0  0  0  0  0  0
    0.9584    6.7765   -0.9307 H   0  0  0  0  0  0  0  0  0  0  0  0
    0.5670    1.4257   -0.6497 N   0  0  0  0  0  2  0  0  0  0  0  0
   -1.4304    1.8704   -1.7304 N   0  0  0  0  0  0  0  0  0  0  0  0
  1 12  1  0  0  0  0
  2 24  1  0  0  0  0
  3 22  1  0  0  0  0
  4  5  1  0  0  0  0
  5  7  1  0  0  0  0
  6 23  1  0  0  0  0
  7  8  1  0  0  0  0
  7 18  2  0  0  0  0
  9 17  1  0  0  0  0
  9 35  1  0  0  0  0
 10  9  1  0  0  0  0
 11  9  1  0  0  0  0
 12  5  2  0  0  0  0
 12 13  1  0  0  0  0
 13 20  2  0  0  0  0
 14 13  1  0  0  0  0
 15 16  1  0  0  0  0
 15 27  1  0  0  0  0
 17 41  1  0  0  0  0
 18 19  1  0  0  0  0
 20 18  1  0  0  0  0
 20 21  1  0  0  0  0
 22 25  1  0  0  0  0
 23  1  1  0  0  0  0
 23  4  2  0  0  0  0
 24 29  1  0  0  0  0
 24 22  2  0  0  0  0
 25 26  1  0  0  0  0
 25 27  2  0  0  0  0
 27 28  1  0  0  0  0
 29 15  2  0  0  0  0
 30 29  1  0  0  0  0
 31 38  1  0  0  0  0
 31 34  1  0  0  0  0
 32 31  1  0  0  0  0
 33 31  1  0  0  0  0
 35 37  1  0  0  0  0
 35 36  1  0  0  0  0
 38 35  1  0  0  0  0
 38 40  1  0  0  0  0
 39 38  1  0  0  0  0
 41  6  1  0  0  0  0
 42 17  2  0  0  0  0
 42  3  1  0  0  0  0
M  END
