2,3
q = -1.0, confidence = 0.0

 30 32  0  0  0  0  0  0  0  0999 V2000
    2.3597   -2.4142    1.6616 F   0  0  0  0  0  0  0  0  0  0  0  0
   -1.7884   -0.8011   -0.2298 N   0  0  0  0  0  2  0  0  0  0  0  0
    0.7673   -1.2037   -0.3050 N   0  0  0  0  0  2  0  0  0  0  0  0
    0.5046   -3.5231   -0.3780 O   0  0  0  0  0  0  0  0  0  0  0  0
   -5.8579    0.1853   -0.6853 C   0  0  0  0  0  0  0  0  0  0  0  0
   -6.9189    0.4573   -0.7880 H   0  0  0  0  0  0  0  0  0  0  0  0
    6.3226   -1.2828   -0.6496 F   0  0  0  0  0  0  0  0  0  0  0  0
   -3.5194    0.8786   -0.5718 C   0  0  0  0  0  0  0  0  0  0  0  0
   -2.7313    1.6387   -0.6464 H   0  0  0  0  0  0  0  0  0  0  0  0
    2.1700   -1.2423   -0.4028 C   0  0  0  0  0  0  0  0  0  0  0  0
   -4.1184   -1.5134   -0.4330 C   0  0  0  0  0  0  0  0  0  0  0  0
    2.8382   -0.6220   -1.4793 C   0  0  0  0  0  0  0  0  0  0  0  0
    2.2116   -0.1359   -2.2421 H   0  0  0  0  0  0  0  0  0  0  0  0
    0.0630   -2.3713   -0.2973 C   0  0  0  0  0  0  0  0  0  0  0  0
   -3.6913   -2.8714   -0.3744 C   0  0  0  0  0  0  0  0  0  0  0  0
   -4.4449   -3.6739   -0.3939 H   0  0  0  0  0  0  0  0  0  0  0  0
   -4.8625    1.1973   -0.7154 C   0  0  0  0  0  0  0  0  0  0  0  0
   -5.1572    2.2462   -0.8698 H   0  0  0  0  0  0  0  0  0  0  0  0
   -2.3402   -3.1558   -0.3320 C   0  0  0  0  0  0  0  0  0  0  0  0
   -1.9195   -4.1715   -0.3428 H   0  0  0  0  0  0  0  0  0  0  0  0
   -3.1187   -0.4744   -0.3977 C   0  0  0  0  0  0  0  0  0  0  0  0
    2.9634   -1.8664    0.5850 C   0  0  0  0  0  0  0  0  0  0  0  0
   -1.4134   -2.0892   -0.2661 C   0  0  0  0  0  0  0  0  0  0  0  0
    4.9781   -1.2674   -0.5719 C   0  0  0  0  0  0  0  0  0  0  0  0
   -5.4889   -1.1451   -0.5565 C   0  0  0  0  0  3  0  0  0  0  0  0
   -6.2472   -1.9430   -0.5654 H   0  0  0  0  0  0  0  0  0  0  0  0
    4.3591   -1.8955    0.5160 C   0  0  0  0  0  0  0  0  0  0  0  0
    4.9496   -2.3911    1.2980 H   0  0  0  0  0  0  0  0  0  0  0  0
    4.2358   -0.6232   -1.5704 C   0  0  0  0  0  0  0  0  0  0  0  0
    4.7591   -0.1433   -2.4091 H   0  0  0  0  0  0  0  0  0  0  0  0
  3 14  1  0  0  0  0
  4 14  2  0  0  0  0
  5 25  1  0  0  0  0
  6  5  1  0  0  0  0
  7 24  1  0  0  0  0
  8 21  2  0  0  0  0
  9  8  1  0  0  0  0
 10  3  1  0  0  0  0
 10 22  1  0  0  0  0
 11 21  1  0  0  0  0
 11 15  2  0  0  0  0
 12 10  2  0  0  0  0
 13 12  1  0  0  0  0
 14 23  1  0  0  0  0
 15 19  1  0  0  0  0
 16 15  1  0  0  0  0
 17  5  2  0  0  0  0
 17  8  1  0  0  0  0
 18 17  1  0  0  0  0
 19 23  2  0  0  0  0
 20 19  1  0  0  0  0
 21  2  1  0  0  0  0
 22  1  1  0  0  0  0
 23  2  1  0  0  0  0
 24 27  1  0  0  0  0
 25 11  1  0  0  0  0
 26 25  1  0  0  0  0
 27 22  2  0  0  0  0
 27 28  1  0  0  0  0
 29 12  1  0  0  0  0
 29 24  2  0  0  0  0
 30 29  1  0  0  0  0
M  END
