2,5
q = -1.0

 30 32  0  0  0  0  0  0  0  0999 V2000
   -1.0748   -2.4824   -2.2372 O   0  0  0  0  0  0  0  0  0  0  0  0
   -1.2034   -0.5766   -0.8927 N   0  0  0  0  0  2  0  0  0  0  0  0
   -2.6101   -0.5282   -0.8927 C   0  0  0  0  0  0  0  0  0  0  0  0
   -0.5665   -1.5831   -1.5576 C   0  0  0  0  0  0  0  0  0  0  0  0
    1.3776   -0.4125   -0.6883 N   0  0  0  0  0  2  0  0  0  0  0  0
    3.6620   -1.0542   -1.2833 C   0  0  0  0  0  0  0  0  0  0  0  0
    1.7803   -2.3559   -2.0767 C   0  0  0  0  0  0  0  0  0  0  0  0
    1.2939   -3.1688   -2.6346 H   0  0  0  0  0  0  0  0  0  0  0  0
    2.7310   -0.1358   -0.6748 C   0  0  0  0  0  0  0  0  0  0  0  0
    3.1472   -2.1900   -1.9727 C   0  0  0  0  0  0  0  0  0  0  0  0
    3.8478   -2.9011   -2.4371 H   0  0  0  0  0  0  0  0  0  0  0  0
    0.9229   -1.4413   -1.4215 C   0  0  0  0  0  0  0  0  0  0  0  0
    3.2249    1.0673   -0.1002 C   0  0  0  0  0  0  0  0  0  0  0  0
    2.4929    1.8047    0.2520 H   0  0  0  0  0  0  0  0  0  0  0  0
    4.5896    1.3193   -0.0661 C   0  0  0  0  0  0  0  0  0  0  0  0
    4.9550    2.2645    0.3628 H   0  0  0  0  0  0  0  0  0  0  0  0
    5.0565   -0.7749   -1.2042 C   0  0  0  0  0  3  0  0  0  0  0  0
    5.7603   -1.4914   -1.6549 H   0  0  0  0  0  0  0  0  0  0  0  0
    5.5158    0.3841   -0.5971 C   0  0  0  0  0  0  0  0  0  0  0  0
    6.5948    0.5936   -0.5498 H   0  0  0  0  0  0  0  0  0  0  0  0
   -3.2978    0.6126   -1.3587 C   0  0  0  0  0  0  0  0  0  0  0  0
   -2.6887    1.4422   -1.7492 H   0  0  0  0  0  0  0  0  0  0  0  0
   -3.3815   -1.5921   -0.3745 C   0  0  0  0  0  0  0  0  0  0  0  0
   -4.6970    0.6769   -1.3150 C   0  0  0  0  0  0  0  0  0  0  0  0
   -5.2126    1.5742   -1.6885 H   0  0  0  0  0  0  0  0  0  0  0  0
   -4.7779   -1.5471   -0.3361 C   0  0  0  0  0  0  0  0  0  0  0  0
   -5.3240   -2.4083    0.0755 H   0  0  0  0  0  0  0  0  0  0  0  0
   -5.4403   -0.4044   -0.8106 C   0  0  0  0  0  0  0  0  0  0  0  0
   -6.5394   -0.3619   -0.7833 H   0  0  0  0  0  0  0  0  0  0  0  0
   -2.7485   -2.6655    0.1512 F   0  0  0  0  0  0  0  0  0  0  0  0
  1  4  2  0  0  0  0
  3  2  1  0  0  0  0
  3 23  1  0  0  0  0
  4 12  1  0  0  0  0
  4  2  1  0  0  0  0
  5  9  1  0  0  0  0
  6 17  1  0  0  0  0
  6  9  1  0  0  0  0
  7 10  1  0  0  0  0
  7 12  2  0  0  0  0
  8  7  1  0  0  0  0
  9 13  2  0  0  0  0
 10  6  2  0  0  0  0
 11 10  1  0  0  0  0
 12  5  1  0  0  0  0
 13 15  1  0  0  0  0
 13 14  1  0  0  0  0
 15 16  1  0  0  0  0
 17 19  1  0  0  0  0
 18 17  1  0  0  0  0
 19 20  1  0  0  0  0
 19 15  2  0  0  0  0
 21 24  1  0  0  0  0
 21  3  2  0  0  0  0
 22 21  1  0  0  0  0
 23 26  2  0  0  0  0
 23 30  1  0  0  0  0
 24 28  2  0  0  0  0
 25 24  1  0  0  0  0
 26 27  1  0  0  0  0
 28 29  1  0  0  0  0
 28 26  1  0  0  0  0
M  END
