1,2
q = -1.0

 44 45  0  0  0  0  0  0  0  0999 V2000
    1.0988   -0.8539   -0.6144 N   0  0  0  0  0  2  0  0  0  0  0  0
   -1.1000   -0.8513   -0.6131 N   0  0  0  0  0  2  0  0  0  0  0  0
   -0.0015   -1.5671   -0.8481 C   0  0  0  0  0  3  0  0  0  0  0  0
   -0.0036   -2.6064   -1.2329 H   0  0  0  0  0  0  0  0  0  0  0  0
    2.4300   -1.3030   -0.5471 C   0  0  0  0  0  0  0  0  0  0  0  0
    3.4567   -0.5731   -1.2169 C   0  0  0  0  0  0  0  0  0  0  0  0
    3.1343    0.6395   -2.0378 C   0  0  0  0  0  0  0  0  0  0  0  0
    2.3231    0.4466   -2.7665 H   0  0  0  0  0  0  0  0  0  0  0  0
    4.0308    1.0101   -2.5705 H   0  0  0  0  0  0  0  0  0  0  0  0
    2.7333    1.4610   -1.4086 H   0  0  0  0  0  0  0  0  0  0  0  0
    4.7892   -1.0010   -1.0971 C   0  0  0  0  0  0  0  0  0  0  0  0
    5.5672   -0.4297   -1.6300 H   0  0  0  0  0  0  0  0  0  0  0  0
    5.1615   -2.1221   -0.3348 C   0  0  0  0  0  0  0  0  0  0  0  0
    6.5979   -2.5744   -0.2599 C   0  0  0  0  0  0  0  0  0  0  0  0
    6.8780   -3.1719   -1.1547 H   0  0  0  0  0  0  0  0  0  0  0  0
    6.7811   -3.2107    0.6284 H   0  0  0  0  0  0  0  0  0  0  0  0
    7.2962   -1.7142   -0.2179 H   0  0  0  0  0  0  0  0  0  0  0  0
    4.1397   -2.8090    0.3404 C   0  0  0  0  0  0  0  0  0  0  0  0
    4.4000   -3.6749    0.9715 H   0  0  0  0  0  0  0  0  0  0  0  0
    2.7895   -2.4222    0.2625 C   0  0  0  0  0  0  0  0  0  0  0  0
    1.7709   -3.1802    1.0742 C   0  0  0  0  0  0  0  0  0  0  0  0
    1.0342   -2.4952    1.5356 H   0  0  0  0  0  0  0  0  0  0  0  0
    2.2644   -3.7563    1.8806 H   0  0  0  0  0  0  0  0  0  0  0  0
    1.1909   -3.9058    0.4671 H   0  0  0  0  0  0  0  0  0  0  0  0
   -2.4318   -1.2995   -0.5444 C   0  0  0  0  0  0  0  0  0  0  0  0
   -2.7919   -2.4087    0.2782 C   0  0  0  0  0  0  0  0  0  0  0  0
   -1.7737   -3.1524    1.1033 C   0  0  0  0  0  0  0  0  0  0  0  0
   -1.1922   -3.8871    0.5089 H   0  0  0  0  0  0  0  0  0  0  0  0
   -2.2671   -3.7153    1.9189 H   0  0  0  0  0  0  0  0  0  0  0  0
   -1.0380   -2.4584    1.5530 H   0  0  0  0  0  0  0  0  0  0  0  0
   -4.1416   -2.7972    0.3563 C   0  0  0  0  0  0  0  0  0  0  0  0
   -4.4026   -3.6554    0.9976 H   0  0  0  0  0  0  0  0  0  0  0  0
   -5.1621   -2.1206   -0.3312 C   0  0  0  0  0  0  0  0  0  0  0  0
   -6.5978   -2.5750   -0.2563 C   0  0  0  0  0  0  0  0  0  0  0  0
   -7.2981   -1.7158   -0.2297 H   0  0  0  0  0  0  0  0  0  0  0  0
   -6.7837   -3.1990    0.6401 H   0  0  0  0  0  0  0  0  0  0  0  0
   -6.8725   -3.1857   -1.1438 H   0  0  0  0  0  0  0  0  0  0  0  0
   -4.7893   -1.0081   -1.1058 C   0  0  0  0  0  0  0  0  0  0  0  0
   -5.5665   -0.4449   -1.6483 H   0  0  0  0  0  0  0  0  0  0  0  0
   -3.4571   -0.5793   -1.2262 C   0  0  0  0  0  0  0  0  0  0  0  0
   -3.1335    0.6245   -2.0598 C   0  0  0  0  0  0  0  0  0  0  0  0
   -4.0285    0.9876   -2.6001 H   0  0  0  0  0  0  0  0  0  0  0  0
   -2.3194    0.4243   -2.7833 H   0  0  0  0  0  0  0  0  0  0  0  0
   -2.7357    1.4535   -1.4385 H   0  0  0  0  0  0  0  0  0  0  0  0
  1  5  1  0  0  0  0
  2 25  1  0  0  0  0
  3  1  1  0  0  0  0
  3  2  1  0  0  0  0
  4  3  1  0  0  0  0
  5 20  1  0  0  0  0
  6 11  1  0  0  0  0
  6  5  2  0  0  0  0
  7 10  1  0  0  0  0
  7  6  1  0  0  0  0
  8  7  1  0  0  0  0
  9  7  1  0  0  0  0
 11 13  2  0  0  0  0
 12 11  1  0  0  0  0
 13 14  1  0  0  0  0
 13 18  1  0  0  0  0
 14 17  1  0  0  0  0
 14 16  1  0  0  0  0
 15 14  1  0  0  0  0
 18 19  1  0  0  0  0
 20 18  2  0  0  0  0
 20 21  1  0  0  0  0
 21 22  1  0  0  0  0
 21 23  1  0  0  0  0
 24 21  1  0  0  0  0
 25 26  1  0  0  0  0
 26 31  2  0  0  0  0
 26 27  1  0  0  0  0
 27 30  1  0  0  0  0
 27 29  1  0  0  0  0
 28 27  1  0  0  0  0
 31 32  1  0  0  0  0
 33 34  1  0  0  0  0
 33 31  1  0  0  0  0
 34 35  1  0  0  0  0
 34 36  1  0  0  0  0
 37 34  1  0  0  0  0
 38 33  2  0  0  0  0
 39 38  1  0  0  0  0
 40 38  1  0  0  0  0
 40 25  2  0  0  0  0
 41 44  1  0  0  0  0
 41 40  1  0  0  0  0
 42 41  1  0  0  0  0
 43 41  1  0  0  0  0
M  END
