1,3
q = -1.0, confidence = 0.0

 36 40  0  0  1  0  0  0  0  0999 V2000
   -2.5348    2.3535    1.3055 N   0  0  0  0  0  0  0  0  0  0  0  0
   -4.7168    2.2412    2.0513 N   0  0  0  0  0  0  0  0  0  0  0  0
   -2.4135   -0.3035    0.7852 N   0  0  0  0  0  2  0  0  0  0  0  0
   -3.9633   -4.9599    0.5386 N   0  0  0  0  0  0  0  0  0  0  0  0
   -4.9032   -4.8641    0.9194 H   0  0  0  0  0  0  0  0  0  0  0  0
   -1.8928   -4.3913   -0.1541 N   0  0  0  0  0  0  0  0  0  0  0  0
   -2.9205    3.6269    1.6364 C   0  0  0  0  0  3  0  0  0  0  0  0
   -2.2358    4.8581    1.5793 C   0  0  0  0  0  0  0  0  0  0  0  0
   -1.1970    4.9137    1.2207 H   0  0  0  0  0  0  0  0  0  0  0  0
   -2.9301    5.9970    1.9940 C   0  0  0  0  0  0  0  0  0  0  0  0
   -2.4282    6.9763    1.9627 H   0  0  0  0  0  0  0  0  0  0  0  0
   -4.2742    5.9264    2.4575 C   0  0  0  0  0  0  0  0  0  0  0  0
   -4.7764    6.8536    2.7736 H   0  0  0  0  0  0  0  0  0  0  0  0
   -4.9638    4.7147    2.5182 C   0  0  0  0  0  0  0  0  0  0  0  0
   -6.0026    4.6555    2.8746 H   0  0  0  0  0  0  0  0  0  0  0  0
   -4.2868    3.5440    2.1033 C   0  0  0  0  0  0  0  0  0  0  0  0
   -3.6489    1.5841    1.5748 C   0  0  0  0  0  0  0  0  0  0  0  0
   -3.5889    0.1567    1.3075 C   0  0  1  0  0  3  0  0  0  0  0  0
   -2.2653   -1.6003    0.4988 C   0  0  0  0  0  0  0  0  0  0  0  0
   -1.3011   -1.9282    0.0800 H   0  0  0  0  0  0  0  0  0  0  0  0
   -3.2891   -2.5495    0.7109 C   0  0  0  0  0  0  0  0  0  0  0  0
   -4.5107   -2.0743    1.2512 C   0  0  0  0  0  0  0  0  0  0  0  0
   -5.3505   -2.7615    1.4394 H   0  0  0  0  0  0  0  0  0  0  0  0
   -4.6644   -0.7237    1.5505 C   0  0  0  0  0  0  0  0  0  0  0  0
   -5.5905   -0.3066    1.9688 H   0  0  0  0  0  0  0  0  0  0  0  0
   -3.0320   -3.9432    0.3633 C   0  0  0  0  0  0  0  0  0  0  0  0
   -3.3809   -6.1362    0.1049 C   0  0  0  0  0  0  0  0  0  0  0  0
   -3.8351   -7.4625    0.0423 C   0  0  0  0  0  0  0  0  0  0  0  0
   -4.8423   -7.7510    0.3774 H   0  0  0  0  0  0  0  0  0  0  0  0
   -2.9392   -8.4101   -0.4709 C   0  0  0  0  0  0  0  0  0  0  0  0
   -3.2529   -9.4626   -0.5386 H   0  0  0  0  0  0  0  0  0  0  0  0
   -1.6397   -8.0461   -0.9048 C   0  0  0  0  0  0  0  0  0  0  0  0
   -0.9723   -8.8264   -1.3004 H   0  0  0  0  0  0  0  0  0  0  0  0
   -1.1909   -6.7232   -0.8406 C   0  0  0  0  0  0  0  0  0  0  0  0
   -0.1846   -6.4334   -1.1750 H   0  0  0  0  0  0  0  0  0  0  0  0
   -2.0715   -5.7480   -0.3282 C   0  0  0  0  0  0  0  0  0  0  0  0
  1 17  2  0  0  0  0
  1  7  1  0  0  0  0
  2 16  2  0  0  0  0
  3 18  1  0  0  0  0
  4  5  1  0  0  0  0
  6 26  2  0  0  0  0
  7 16  1  0  0  0  0
  8  7  1  0  0  0  0
  8 10  2  0  0  0  0
  9  8  1  0  0  0  0
 10 12  1  0  0  0  0
 11 10  1  0  0  0  0
 12 14  2  0  0  0  0
 12 13  1  0  0  0  0
 14 15  1  0  0  0  0
 16 14  1  0  0  0  0
 17  2  1  0  0  0  0
 18 24  1  0  0  0  0
 18 17  1  6  0  0  0
 19 21  2  0  0  0  0
 19  3  1  0  0  0  0
 20 19  1  0  0  0  0
 21 22  1  0  0  0  0
 22 23  1  0  0  0  0
 22 24  2  0  0  0  0
 24 25  1  0  0  0  0
 26  4  1  0  0  0  0
 26 21  1  0  0  0  0
 27  4  1  0  0  0  0
 28 27  1  0  0  0  0
 28 29  1  0  0  0  0
 30 28  2  0  0  0  0
 31 30  1  0  0  0  0
 32 34  2  0  0  0  0
 32 30  1  0  0  0  0
 33 32  1  0  0  0  0
 34 36  1  0  0  0  0
 35 34  1  0  0  0  0
 36  6  1  0  0  0  0
 36 27  2  0  0  0  0
M  END
