1,5
q = -1.0

 47 47  0  0  1  0  0  0  0  0999 V2000
   -2.1383   -0.3542   -0.5840 N   0  0  0  0  0  2  0  0  0  0  0  0
   -3.4402   -2.1926   -1.3070 N   0  0  0  0  0  0  0  0  0  0  0  0
   -1.4208   -2.6120   -0.2744 N   0  0  0  0  0  0  0  0  0  0  0  0
    0.2928   -3.4394    1.0211 N   0  0  0  0  0  0  0  0  0  0  0  0
   -0.0199   -1.0918    0.9597 N   0  0  0  0  0  2  0  0  0  0  0  0
   -3.2006    0.5592   -0.4690 C   0  0  0  0  0  0  0  0  0  0  0  0
   -3.1362    1.8038   -1.1398 C   0  0  0  0  0  0  0  0  0  0  0  0
   -2.2860    1.9942   -1.8103 H   0  0  0  0  0  0  0  0  0  0  0  0
   -4.1402    2.7633   -0.9567 C   0  0  0  0  0  0  0  0  0  0  0  0
   -4.0691    3.7250   -1.4885 H   0  0  0  0  0  0  0  0  0  0  0  0
   -5.2344    2.5052   -0.1136 C   0  0  0  0  0  0  0  0  0  0  0  0
   -6.0214    3.2611    0.0271 H   0  0  0  0  0  0  0  0  0  0  0  0
   -5.3125    1.2667    0.5452 C   0  0  0  0  0  0  0  0  0  0  0  0
   -6.1607    1.0508    1.2136 H   0  0  0  0  0  0  0  0  0  0  0  0
   -4.3094    0.3037    0.3743 C   0  0  0  0  0  0  0  0  0  0  0  0
   -4.3668   -0.6579    0.9060 H   0  0  0  0  0  0  0  0  0  0  0  0
   -2.3197   -1.6898   -0.6820 C   0  0  1  0  0  3  0  0  0  0  0  0
   -4.1252   -1.4459   -2.3512 C   0  0  0  0  0  0  0  0  0  0  0  0
   -5.0743   -0.9843   -2.0006 H   0  0  0  0  0  0  0  0  0  0  0  0
   -4.3528   -2.1340   -3.1919 H   0  0  0  0  0  0  0  0  0  0  0  0
   -3.4672   -0.6440   -2.7319 H   0  0  0  0  0  0  0  0  0  0  0  0
   -3.7969   -3.5924   -1.1737 C   0  0  0  0  0  0  0  0  0  0  0  0
   -3.3496   -4.2200   -1.9784 H   0  0  0  0  0  0  0  0  0  0  0  0
   -4.9010   -3.6939   -1.2241 H   0  0  0  0  0  0  0  0  0  0  0  0
   -3.4445   -3.9817   -0.2029 H   0  0  0  0  0  0  0  0  0  0  0  0
   -0.4097   -2.3416    0.5741 C   0  0  0  0  0  0  0  0  0  0  0  0
   -0.1410   -4.7931    0.7286 C   0  0  0  0  0  0  0  0  0  0  0  0
   -1.1336   -4.7590    0.2510 H   0  0  0  0  0  0  0  0  0  0  0  0
   -0.1808   -5.3934    1.6634 H   0  0  0  0  0  0  0  0  0  0  0  0
    0.5726   -5.2889    0.0329 H   0  0  0  0  0  0  0  0  0  0  0  0
    1.5967   -3.3408    1.6460 C   0  0  0  0  0  0  0  0  0  0  0  0
    1.9514   -2.2966    1.6156 H   0  0  0  0  0  0  0  0  0  0  0  0
    2.3235   -3.9650    1.0864 H   0  0  0  0  0  0  0  0  0  0  0  0
    1.5744   -3.6948    2.6981 H   0  0  0  0  0  0  0  0  0  0  0  0
   -0.0050   -0.4674    2.6409 Si  0  0  0  0  0  0  0  0  0  0  0  0
   -1.4997    0.6595    2.8809 C   0  0  0  0  0  0  0  0  0  0  0  0
   -1.5100    1.4667    2.1262 H   0  0  0  0  0  0  0  0  0  0  0  0
   -1.4856    1.1078    3.8965 H   0  0  0  0  0  0  0  0  0  0  0  0
   -2.4407    0.0830    2.7708 H   0  0  0  0  0  0  0  0  0  0  0  0
    1.6103    0.4539    2.9574 C   0  0  0  0  0  0  0  0  0  0  0  0
    2.4779   -0.2336    2.8931 H   0  0  0  0  0  0  0  0  0  0  0  0
    1.6038    0.9062    3.9706 H   0  0  0  0  0  0  0  0  0  0  0  0
    1.7636    1.2612    2.2150 H   0  0  0  0  0  0  0  0  0  0  0  0
   -0.2154   -1.8718    3.9020 C   0  0  0  0  0  0  0  0  0  0  0  0
   -0.9513   -2.6253    3.5537 H   0  0  0  0  0  0  0  0  0  0  0  0
   -0.6068   -1.4354    4.8443 H   0  0  0  0  0  0  0  0  0  0  0  0
    0.7298   -2.3942    4.1428 H   0  0  0  0  0  0  0  0  0  0  0  0
  1  6  1  0  0  0  0
  2 22  1  0  0  0  0
  2 17  1  0  0  0  0
  3 26  2  0  0  0  0
  4 31  1  0  0  0  0
  5 35  1  0  0  0  0
  6 15  1  0  0  0  0
  7  9  1  0  0  0  0
  7  6  2  0  0  0  0
  8  7  1  0  0  0  0
  9 11  2  0  0  0  0
 10  9  1  0  0  0  0
 11 12  1  0  0  0  0
 11 13  1  0  0  0  0
 13 14  1  0  0  0  0
 15 13  2  0  0  0  0
 15 16  1  0  0  0  0
 17  1  1  6  0  0  0
 17  3  1  0  0  0  0
 18 19  1  0  0  0  0
 18  2  1  0  0  0  0
 20 18  1  0  0  0  0
 21 18  1  0  0  0  0
 22 25  1  0  0  0  0
 23 22  1  0  0  0  0
 24 22  1  0  0  0  0
 26  5  1  0  0  0  0
 26  4  1  0  0  0  0
 27  4  1  0  0  0  0
 27 29  1  0  0  0  0
 28 27  1  0  0  0  0
 30 27  1  0  0  0  0
 31 34  1  0  0  0  0
 32 31  1  0  0  0  0
 33 31  1  0  0  0  0
 35 36  1  0  0  0  0
 35 40  1  0  0  0  0
 35 44  1  0  0  0  0
 36 38  1  0  0  0  0
 37 36  1  0  0  0  0
 39 36  1  0  0  0  0
 40 42  1  0  0  0  0
 41 40  1  0  0  0  0
 43 40  1  0  0  0  0
 44 47  1  0  0  0  0
 44 46  1  0  0  0  0
 45 44  1  0  0  0  0
M  END
