1,3
q = -1.0

 35 35  0  0  1  0  0  0  0  0999 V2000
    2.0871   -0.2679   -0.2361 N   0  0  0  0  0  2  0  0  0  0  0  0
    1.8110   -2.5780    0.3467 N   0  0  0  0  0  0  0  0  0  0  0  0
   -0.1191   -1.3078    0.8946 N   0  0  0  0  0  2  0  0  0  0  0  0
   -0.9750   -1.3297    1.4566 H   0  0  0  0  0  0  0  0  0  0  0  0
    3.6586   -1.9143   -0.8573 N   0  0  0  0  0  0  0  0  0  0  0  0
    0.2119   -3.4679    1.7674 N   0  0  0  0  0  0  0  0  0  0  0  0
    3.0375    0.7676   -0.1012 C   0  0  0  0  0  0  0  0  0  0  0  0
    2.9316    1.9449   -0.8785 C   0  0  0  0  0  0  0  0  0  0  0  0
    2.1420    2.0052   -1.6417 H   0  0  0  0  0  0  0  0  0  0  0  0
    3.8244    3.0073   -0.6854 C   0  0  0  0  0  0  0  0  0  0  0  0
    3.7210    3.9153   -1.2997 H   0  0  0  0  0  0  0  0  0  0  0  0
    4.8505    2.9171    0.2699 C   0  0  0  0  0  0  0  0  0  0  0  0
    5.5524    3.7519    0.4156 H   0  0  0  0  0  0  0  0  0  0  0  0
    4.9718    1.7447    1.0353 C   0  0  0  0  0  0  0  0  0  0  0  0
    5.7674    1.6605    1.7922 H   0  0  0  0  0  0  0  0  0  0  0  0
    4.0749    0.6830    0.8583 C   0  0  0  0  0  0  0  0  0  0  0  0
    4.1576   -0.2230    1.4775 H   0  0  0  0  0  0  0  0  0  0  0  0
    2.4841   -1.5724   -0.2218 C   0  0  0  0  0  0  0  0  0  0  0  0
    0.6461   -2.4050    1.0007 C   0  0  1  0  0  3  0  0  0  0  0  0
    4.1721   -1.1289   -1.9688 C   0  0  0  0  0  0  0  0  0  0  0  0
    3.3656   -0.4994   -2.3872 H   0  0  0  0  0  0  0  0  0  0  0  0
    4.5202   -1.8200   -2.7646 H   0  0  0  0  0  0  0  0  0  0  0  0
    5.0181   -0.4690   -1.6759 H   0  0  0  0  0  0  0  0  0  0  0  0
    4.2893   -3.1973   -0.6192 C   0  0  0  0  0  0  0  0  0  0  0  0
    4.0119   -3.5680    0.3829 H   0  0  0  0  0  0  0  0  0  0  0  0
    5.3920   -3.0806   -0.6742 H   0  0  0  0  0  0  0  0  0  0  0  0
    3.9813   -3.9651   -1.3657 H   0  0  0  0  0  0  0  0  0  0  0  0
    1.0748   -4.6019    2.0387 C   0  0  0  0  0  0  0  0  0  0  0  0
    1.9132   -4.5767    1.3214 H   0  0  0  0  0  0  0  0  0  0  0  0
    0.5118   -5.5505    1.9134 H   0  0  0  0  0  0  0  0  0  0  0  0
    1.4847   -4.5756    3.0747 H   0  0  0  0  0  0  0  0  0  0  0  0
   -1.0673   -3.4146    2.4486 C   0  0  0  0  0  0  0  0  0  0  0  0
   -1.0548   -2.7503    3.3447 H   0  0  0  0  0  0  0  0  0  0  0  0
   -1.3328   -4.4323    2.7906 H   0  0  0  0  0  0  0  0  0  0  0  0
   -1.8759   -3.0764    1.7678 H   0  0  0  0  0  0  0  0  0  0  0  0
  1 18  1  0  0  0  0
  1  7  1  0  0  0  0
  3 19  1  0  0  0  0
  3  4  1  0  0  0  0
  5 24  1  0  0  0  0
  5 18  1  0  0  0  0
  6 28  1  0  0  0  0
  6 32  1  0  0  0  0
  7 16  1  0  0  0  0
  8 10  1  0  0  0  0
  8  7  2  0  0  0  0
  9  8  1  0  0  0  0
 10 12  2  0  0  0  0
 11 10  1  0  0  0  0
 12 13  1  0  0  0  0
 12 14  1  0  0  0  0
 14 15  1  0  0  0  0
 16 14  2  0  0  0  0
 16 17  1  0  0  0  0
 18  2  2  0  0  0  0
 19  2  1  6  0  0  0
 19  6  1  0  0  0  0
 20 23  1  0  0  0  0
 20  5  1  0  0  0  0
 21 20  1  0  0  0  0
 22 20  1  0  0  0  0
 24 25  1  0  0  0  0
 26 24  1  0  0  0  0
 27 24  1  0  0  0  0
 28 31  1  0  0  0  0
 29 28  1  0  0  0  0
 30 28  1  0  0  0  0
 32 34  1  0  0  0  0
 32 33  1  0  0  0  0
 35 32  1  0  0  0  0
M  END
