1,2
q = -1.0

 31 32  0  0  1  0  0  0  0  0999 V2000
    0.4426    1.4397   -1.2833 N   0  0  0  0  0  2  0  0  0  0  0  0
    2.0859    0.2192   -0.3451 N   0  0  0  0  0  2  0  0  0  0  0  0
   -1.5819    2.5701   -2.0140 C   0  0  0  0  0  0  0  0  0  0  0  0
   -2.0228    1.5804   -2.2431 H   0  0  0  0  0  0  0  0  0  0  0  0
   -1.9157    3.3030   -2.7718 H   0  0  0  0  0  0  0  0  0  0  0  0
   -1.9890    2.8826   -1.0287 H   0  0  0  0  0  0  0  0  0  0  0  0
   -0.0826    2.4874   -1.9455 C   0  0  1  0  0  3  0  0  0  0  0  0
    0.7507    3.4689   -2.5114 C   0  0  0  0  0  0  0  0  0  0  0  0
    0.3117    4.3108   -3.0640 H   0  0  0  0  0  0  0  0  0  0  0  0
    2.1444    3.3564   -2.3392 C   0  0  0  0  0  0  0  0  0  0  0  0
    2.8103    4.1274   -2.7581 H   0  0  0  0  0  0  0  0  0  0  0  0
    2.6898    2.2847   -1.6334 C   0  0  0  0  0  0  0  0  0  0  0  0
    3.7695    2.1887   -1.4555 H   0  0  0  0  0  0  0  0  0  0  0  0
    1.7961    1.3095   -1.1108 C   0  0  0  0  0  0  0  0  0  0  0  0
    3.3973   -0.2523   -0.1479 C   0  0  0  0  0  0  0  0  0  0  0  0
    4.2169   -0.6809   -1.2326 C   0  0  0  0  0  0  0  0  0  0  0  0
    3.7254   -0.6381   -2.6560 C   0  0  0  0  0  0  0  0  0  0  0  0
    3.8068    0.3777   -3.0986 H   0  0  0  0  0  0  0  0  0  0  0  0
    2.6536   -0.9124   -2.7186 H   0  0  0  0  0  0  0  0  0  0  0  0
    4.3055   -1.3299   -3.2969 H   0  0  0  0  0  0  0  0  0  0  0  0
    5.4986   -1.1905   -0.9430 C   0  0  0  0  0  0  0  0  0  0  0  0
    6.1256   -1.5274   -1.7858 H   0  0  0  0  0  0  0  0  0  0  0  0
    6.0020   -1.3096    0.3645 C   0  0  0  0  0  0  0  0  0  0  0  0
    7.3869   -1.8462    0.6290 C   0  0  0  0  0  0  0  0  0  0  0  0
    8.0778   -1.0392    0.9557 H   0  0  0  0  0  0  0  0  0  0  0  0
    7.8250   -2.3104   -0.2761 H   0  0  0  0  0  0  0  0  0  0  0  0
    7.3824   -2.6081    1.4355 H   0  0  0  0  0  0  0  0  0  0  0  0
    5.1646   -0.9029    1.4235 C   0  0  0  0  0  0  0  0  0  0  0  0
    5.5170   -0.9903    2.4639 H   0  0  0  0  0  0  0  0  0  0  0  0
    3.8916   -0.3863    1.1694 C   0  0  0  0  0  0  0  0  0  0  0  0
    3.2453   -0.0724    2.0005 H   0  0  0  0  0  0  0  0  0  0  0  0
  1 14  1  0  0  0  0
  2 15  1  0  0  0  0
  3  6  1  0  0  0  0
  4  3  1  0  0  0  0
  5  3  1  0  0  0  0
  7  3  1  1  0  0  0
  7  1  1  0  0  0  0
  8 10  2  0  0  0  0
  8  7  1  0  0  0  0
  9  8  1  0  0  0  0
 10 12  1  0  0  0  0
 11 10  1  0  0  0  0
 12 13  1  0  0  0  0
 12 14  2  0  0  0  0
 14  2  1  0  0  0  0
 15 30  1  0  0  0  0
 16 21  1  0  0  0  0
 16 15  2  0  0  0  0
 17 16  1  0  0  0  0
 18 17  1  0  0  0  0
 19 17  1  0  0  0  0
 20 17  1  0  0  0  0
 21 23  2  0  0  0  0
 22 21  1  0  0  0  0
 23 24  1  0  0  0  0
 23 28  1  0  0  0  0
 24 25  1  0  0  0  0
 24 27  1  0  0  0  0
 26 24  1  0  0  0  0
 28 29  1  0  0  0  0
 30 28  2  0  0  0  0
 30 31  1  0  0  0  0
M  END
