2,8
q = 0.0, confidence = 0.984

 26 27  0  0  0  0  0  0  0  0999 V2000
   -1.5633    1.8479    0.6289 N   0  0  0  0  0  0  0  0  0  0  0  0
   -0.6219    1.7232   -0.3353 N   0  0  0  0  0  2  0  0  0  0  0  0
   -0.5265    2.9322   -0.9199 C   0  0  0  0  0  3  0  0  0  0  0  0
   -1.4207    3.8475   -0.3244 C   0  0  0  0  0  0  0  0  0  0  0  0
   -2.0745    3.1110    0.6594 C   0  0  0  0  0  0  0  0  0  0  0  0
   -2.0828    0.6902    1.3493 C   0  0  0  0  0  0  0  0  0  0  0  0
   -1.9765   -1.7936   -0.5232 N   0  0  0  0  0  0  0  0  0  0  0  0
   -0.6447   -1.6824   -0.2957 N   0  0  0  0  0  2  0  0  0  0  0  0
   -0.2434   -2.8759    0.1741 C   0  0  0  0  0  3  0  0  0  0  0  0
   -1.3338   -3.7705    0.2555 C   0  0  0  0  0  0  0  0  0  0  0  0
   -2.4303   -3.0364   -0.1852 C   0  0  0  0  0  0  0  0  0  0  0  0
   -2.8048   -0.6137   -0.7492 C   0  0  0  0  0  0  0  0  0  0  0  0
   -3.1981    0.0279    0.5684 C   0  0  0  0  0  0  0  0  0  0  0  0
   -4.4663   -0.0084    1.0196 C   0  0  0  0  0  0  0  0  0  0  0  0
    0.1975    3.0901   -1.7253 H   0  0  0  0  0  0  0  0  0  0  0  0
   -1.5604    4.9048   -0.5687 H   0  0  0  0  0  0  0  0  0  0  0  0
   -2.8599    3.3799    1.3737 H   0  0  0  0  0  0  0  0  0  0  0  0
   -1.2159    0.0169    1.5428 H   0  0  0  0  0  0  0  0  0  0  0  0
   -2.4481    1.0450    2.3308 H   0  0  0  0  0  0  0  0  0  0  0  0
    0.8080   -3.0222    0.4416 H   0  0  0  0  0  0  0  0  0  0  0  0
   -1.3208   -4.8125    0.5887 H   0  0  0  0  0  0  0  0  0  0  0  0
   -3.4923   -3.2892   -0.2737 H   0  0  0  0  0  0  0  0  0  0  0  0
   -2.2219    0.0816   -1.3844 H   0  0  0  0  0  0  0  0  0  0  0  0
   -3.7009   -0.9330   -1.3137 H   0  0  0  0  0  0  0  0  0  0  0  0
   -4.7465    0.4487    1.9820 H   0  0  0  0  0  0  0  0  0  0  0  0
   -5.2679   -0.5001    0.4455 H   0  0  0  0  0  0  0  0  0  0  0  0
  1  5  1  0  0  0  0
  1  6  1  0  0  0  0
  2  1  1  0  0  0  0
  3  2  1  0  0  0  0
  3  4  1  0  0  0  0
  4  5  2  0  0  0  0
  5 17  1  0  0  0  0
  6 18  1  0  0  0  0
  6 19  1  0  0  0  0
  7  8  1  0  0  0  0
  7 11  1  0  0  0  0
  8  9  1  0  0  0  0
  9 10  1  0  0  0  0
  9 20  1  0  0  0  0
 10 21  1  0  0  0  0
 11 10  2  0  0  0  0
 12  7  1  0  0  0  0
 12 13  1  0  0  0  0
 13 14  2  0  0  0  0
 13  6  1  0  0  0  0
 14 25  1  0  0  0  0
 15  3  1  0  0  0  0
 16  4  1  0  0  0  0
 22 11  1  0  0  0  0
 23 12  1  0  0  0  0
 24 12  1  0  0  0  0
 26 14  1  0  0  0  0
M  END
