1,7
q = -1.0, confidence = 0.0

 20 20  0  0  1  0  0  0  0  0999 V2000
   -0.4059    0.3998   -0.0561 N   0  0  0  0  0  2  0  0  0  0  0  0
   -0.4868    1.7601    0.0121 C   0  0  1  0  0  3  0  0  0  0  0  0
   -1.7244    2.4071    0.1192 C   0  0  0  0  0  0  0  0  0  0  0  0
   -1.7276    3.5028    0.2106 H   0  0  0  0  0  0  0  0  0  0  0  0
    0.8103    2.4926    0.0232 C   0  0  0  0  0  0  0  0  0  0  0  0
    0.9747    3.6927    0.2815 O   0  0  0  0  0  0  0  0  0  0  0  0
    1.8398    1.6436   -0.2827 N   0  0  0  0  0  2  0  0  0  0  0  0
    3.0940    2.1790   -0.0999 O   0  0  0  0  0  0  0  0  0  0  0  0
    2.8837    3.0855    0.2669 H   0  0  0  0  0  0  0  0  0  0  0  0
   -2.8955    1.6426    0.1252 C   0  0  0  0  0  0  0  0  0  0  0  0
   -3.8675    2.1478    0.2311 H   0  0  0  0  0  0  0  0  0  0  0  0
   -2.8060    0.2389    0.0225 C   0  0  0  0  0  0  0  0  0  0  0  0
   -3.9353   -0.7354    0.0182 C   0  0  0  0  0  0  0  0  0  0  0  0
   -3.7602   -1.9643    0.1302 O   0  0  0  0  0  0  0  0  0  0  0  0
   -5.1970   -0.2552   -0.1052 N   0  0  0  0  0  0  0  0  0  0  0  0
   -5.4928    0.6860   -0.3670 H   0  0  0  0  0  0  0  0  0  0  0  0
   -6.2121   -1.1727   -0.1466 O   0  0  0  0  0  0  0  0  0  0  0  0
   -5.6905   -2.0182   -0.0356 H   0  0  0  0  0  0  0  0  0  0  0  0
   -1.5244   -0.3390   -0.0483 C   0  0  0  0  0  0  0  0  0  0  0  0
   -1.4500   -1.4353   -0.0966 H   0  0  0  0  0  0  0  0  0  0  0  0
  1 19  1  0  0  0  0
  1  2  1  0  0  0  0
  2  5  1  1  0  0  0
  2  3  1  0  0  0  0
  3 10  2  0  0  0  0
  3  4  1  0  0  0  0
  5  6  2  0  0  0  0
  7  8  1  0  0  0  0
  7  5  1  0  0  0  0
  8  9  1  0  0  0  0
 10 11  1  0  0  0  0
 12 10  1  0  0  0  0
 13 12  1  0  0  0  0
 13 14  2  0  0  0  0
 15 13  1  0  0  0  0
 16 15  1  0  0  0  0
 17 15  1  0  0  0  0
 17 18  1  0  0  0  0
 19 12  2  0  0  0  0
 20 19  1  0  0  0  0
M  END
