1,2
q = 0.0, confidence = 0.998

 37 38  0  0  1  0  0  0  0  0999 V2000
   -0.0333    1.6635    0.0390 N   0  0  0  0  0  2  0  0  0  0  0  0
   -2.6422    0.4953   -0.3673 N   0  0  0  0  0  2  0  0  0  0  0  0
   -0.6294    2.7083   -0.4522 C   0  0  1  0  0  3  0  0  0  0  0  0
   -1.7582    2.4581   -1.4356 C   0  0  0  0  0  0  0  0  0  0  0  0
   -1.3552    1.8283   -2.2600 H   0  0  0  0  0  0  0  0  0  0  0  0
   -2.1200    3.4131   -1.8594 H   0  0  0  0  0  0  0  0  0  0  0  0
   -2.9008    1.6988   -0.7756 C   0  0  2  0  0  3  0  0  0  0  0  0
   -3.6087   -0.3567    0.2296 C   0  0  0  0  0  0  0  0  0  0  0  0
   -3.3042   -0.9594    1.4660 C   0  0  0  0  0  0  0  0  0  0  0  0
   -2.3300   -0.7541    1.9333 H   0  0  0  0  0  0  0  0  0  0  0  0
   -4.2279   -1.8237    2.0642 C   0  0  0  0  0  0  0  0  0  0  0  0
   -3.9874   -2.2866    3.0328 H   0  0  0  0  0  0  0  0  0  0  0  0
   -5.4411   -2.1220    1.4212 C   0  0  0  0  0  0  0  0  0  0  0  0
   -6.1562   -2.8168    1.8862 H   0  0  0  0  0  0  0  0  0  0  0  0
   -5.7250   -1.5522    0.1708 C   0  0  0  0  0  0  0  0  0  0  0  0
   -6.6586   -1.8057   -0.3536 H   0  0  0  0  0  0  0  0  0  0  0  0
   -4.8143   -0.6702   -0.4276 C   0  0  0  0  0  0  0  0  0  0  0  0
   -5.0140   -0.2512   -1.4245 H   0  0  0  0  0  0  0  0  0  0  0  0
   -4.1970    2.4314   -0.5859 C   0  0  0  0  0  0  0  0  0  0  0  0
   -4.8893    1.8948    0.0874 H   0  0  0  0  0  0  0  0  0  0  0  0
   -4.7044    2.5834   -1.5626 H   0  0  0  0  0  0  0  0  0  0  0  0
   -3.9933    3.4445   -0.1803 H   0  0  0  0  0  0  0  0  0  0  0  0
   -0.2999    4.1244   -0.0902 C   0  0  0  0  0  0  0  0  0  0  0  0
    0.4684    4.1872    0.7010 H   0  0  0  0  0  0  0  0  0  0  0  0
   -1.2192    4.6495    0.2455 H   0  0  0  0  0  0  0  0  0  0  0  0
    0.0629    4.6718   -0.9864 H   0  0  0  0  0  0  0  0  0  0  0  0
    1.0812    1.7598    0.9299 C   0  0  0  0  0  0  0  0  0  0  0  0
    0.9257    1.3839    2.2750 C   0  0  0  0  0  0  0  0  0  0  0  0
   -0.0676    1.0830    2.6372 H   0  0  0  0  0  0  0  0  0  0  0  0
    2.0441    1.3592    3.1184 C   0  0  0  0  0  0  0  0  0  0  0  0
    1.9235    1.0564    4.1690 H   0  0  0  0  0  0  0  0  0  0  0  0
    3.3153    1.6890    2.6209 C   0  0  0  0  0  0  0  0  0  0  0  0
    4.1946    1.6415    3.2798 H   0  0  0  0  0  0  0  0  0  0  0  0
    3.4634    2.0642    1.2761 C   0  0  0  0  0  0  0  0  0  0  0  0
    4.4585    2.3087    0.8756 H   0  0  0  0  0  0  0  0  0  0  0  0
    2.3488    2.1072    0.4273 C   0  0  0  0  0  0  0  0  0  0  0  0
    2.4561    2.3575   -0.6381 H   0  0  0  0  0  0  0  0  0  0  0  0
  1 27  1  0  0  0  0
  2  8  1  0  0  0  0
  3 23  1  0  0  0  0
  3  1  1  1  0  0  0
  4  7  1  0  0  0  0
  4  3  1  0  0  0  0
  5  4  1  0  0  0  0
  6  4  1  0  0  0  0
  7 19  1  0  0  0  0
  7  2  1  1  0  0  0
  8  9  1  0  0  0  0
  9 10  1  0  0  0  0
  9 11  2  0  0  0  0
 11 12  1  0  0  0  0
 13 14  1  0  0  0  0
 13 11  1  0  0  0  0
 15 13  2  0  0  0  0
 16 15  1  0  0  0  0
 17 15  1  0  0  0  0
 17  8  2  0  0  0  0
 18 17  1  0  0  0  0
 19 22  1  0  0  0  0
 19 20  1  0  0  0  0
 21 19  1  0  0  0  0
 23 25  1  0  0  0  0
 23 24  1  0  0  0  0
 26 23  1  0  0  0  0
 27 28  1  0  0  0  0
 28 29  1  0  0  0  0
 28 30  2  0  0  0  0
 30 31  1  0  0  0  0
 32 30  1  0  0  0  0
 32 33  1  0  0  0  0
 34 32  2  0  0  0  0
 35 34  1  0  0  0  0
 36 27  2  0  0  0  0
 36 34  1  0  0  0  0
 37 36  1  0  0  0  0
M  END
