2,4
q = 0.0, confidence = 0.998

 38 42  0  0  0  0  0  0  0  0999 V2000
   -0.9827   -1.8878    0.8901 N   0  0  0  0  0  0  0  0  0  0  0  0
   -0.8318   -0.7763   -1.2801 N   0  0  0  0  0  2  0  0  0  0  0  0
   -0.4886    0.7301    1.9211 N   0  0  0  0  0  0  0  0  0  0  0  0
   -0.0361    1.8618   -0.1843 N   0  0  0  0  0  2  0  0  0  0  0  0
   -1.9429   -2.6861    1.5096 C   0  0  0  0  0  0  0  0  0  0  0  0
   -1.7420   -3.0766    2.5134 H   0  0  0  0  0  0  0  0  0  0  0  0
   -3.0448   -2.8383    0.6910 C   0  0  0  0  0  0  0  0  0  0  0  0
   -3.9493   -3.4090    0.9262 H   0  0  0  0  0  0  0  0  0  0  0  0
   -2.7677   -2.1074   -0.5136 C   0  0  0  0  0  0  0  0  0  0  0  0
   -3.4394   -1.8741   -1.7291 C   0  0  0  0  0  0  0  0  0  0  0  0
   -4.4407   -2.2911   -1.9140 H   0  0  0  0  0  0  0  0  0  0  0  0
   -2.7837   -1.1022   -2.6947 C   0  0  0  0  0  0  0  0  0  0  0  0
   -3.2556   -0.8927   -3.6650 H   0  0  0  0  0  0  0  0  0  0  0  0
   -1.4992   -0.5822   -2.4398 C   0  0  0  0  0  3  0  0  0  0  0  0
   -0.9654    0.0218   -3.1881 H   0  0  0  0  0  0  0  0  0  0  0  0
   -1.4661   -1.5222   -0.3575 C   0  0  0  0  0  0  0  0  0  0  0  0
   -1.3573    0.9615    2.9871 C   0  0  0  0  0  0  0  0  0  0  0  0
   -1.3527    0.2716    3.8380 H   0  0  0  0  0  0  0  0  0  0  0  0
   -2.1070    2.0998    2.7593 C   0  0  0  0  0  0  0  0  0  0  0  0
   -2.8719    2.5111    3.4265 H   0  0  0  0  0  0  0  0  0  0  0  0
   -1.6847    2.6271    1.4910 C   0  0  0  0  0  0  0  0  0  0  0  0
   -1.3132    3.9023   -0.5124 C   0  0  0  0  0  0  0  0  0  0  0  0
   -1.5163    4.7603   -1.1689 H   0  0  0  0  0  0  0  0  0  0  0  0
   -0.3488    2.9554   -0.9143 C   0  0  0  0  0  3  0  0  0  0  0  0
    0.1917    3.0523   -1.8673 H   0  0  0  0  0  0  0  0  0  0  0  0
   -0.6750    1.7408    0.9927 C   0  0  0  0  0  0  0  0  0  0  0  0
    1.2738   -2.5583    1.5644 C   0  0  0  0  0  0  0  0  0  0  0  0
    1.0626   -3.5617    1.1685 H   0  0  0  0  0  0  0  0  0  0  0  0
    2.5228   -2.2464    2.1211 C   0  0  0  0  0  0  0  0  0  0  0  0
    3.3007   -3.0214    2.1813 H   0  0  0  0  0  0  0  0  0  0  0  0
    2.7798   -0.9495    2.5908 C   0  0  0  0  0  0  0  0  0  0  0  0
    3.7599   -0.7019    3.0239 H   0  0  0  0  0  0  0  0  0  0  0  0
    1.7877    0.0367    2.5102 C   0  0  0  0  0  0  0  0  0  0  0  0
    1.9713    1.0596    2.8675 H   0  0  0  0  0  0  0  0  0  0  0  0
    0.5460   -0.2604    1.9276 C   0  0  0  0  0  0  0  0  0  0  0  0
    0.2861   -1.5698    1.4586 C   0  0  0  0  0  0  0  0  0  0  0  0
   -2.0083    3.7424    0.6924 C   0  0  0  0  0  0  0  0  0  0  0  0
   -2.7757    4.4650    1.0081 H   0  0  0  0  0  0  0  0  0  0  0  0
  1 36  1  0  0  0  0
  1  5  1  0  0  0  0
  2 16  1  0  0  0  0
  3 35  1  0  0  0  0
  3 17  1  0  0  0  0
  4 26  1  0  0  0  0
  5  6  1  0  0  0  0
  7  8  1  0  0  0  0
  7  5  2  0  0  0  0
  9 16  2  0  0  0  0
  9  7  1  0  0  0  0
 10  9  1  0  0  0  0
 11 10  1  0  0  0  0
 12 14  1  0  0  0  0
 12 10  2  0  0  0  0
 13 12  1  0  0  0  0
 14  2  1  0  0  0  0
 15 14  1  0  0  0  0
 16  1  1  0  0  0  0
 17 18  1  0  0  0  0
 19 17  2  0  0  0  0
 19 20  1  0  0  0  0
 21 19  1  0  0  0  0
 22 37  2  0  0  0  0
 23 22  1  0  0  0  0
 24 22  1  0  0  0  0
 24  4  1  0  0  0  0
 25 24  1  0  0  0  0
 26 21  2  0  0  0  0
 26  3  1  0  0  0  0
 27 29  1  0  0  0  0
 28 27  1  0  0  0  0
 29 30  1  0  0  0  0
 29 31  2  0  0  0  0
 31 32  1  0  0  0  0
 33 31  1  0  0  0  0
 33 34  1  0  0  0  0
 35 33  2  0  0  0  0
 36 27  2  0  0  0  0
 36 35  1  0  0  0  0
 37 38  1  0  0  0  0
 37 21  1  0  0  0  0
M  END
