6,7
q = -1.0, confidence = 0.022

 33 33  0  0  0  0  0  0  0  0999 V2000
    0.7875   -0.3678   -2.6906 O   0  0  0  0  0  1  0  0  0  0  0  0
    1.6808    0.1231    2.3498 O   0  0  0  0  0  0  0  0  0  0  0  0
    0.6695    0.2428    2.6439 H   0  0  0  0  0  0  0  0  0  0  0  0
    3.8936   -0.2297    0.9128 N   0  0  0  0  0  0  0  0  0  0  0  0
    3.8364   -0.2360    1.9369 H   0  0  0  0  0  0  0  0  0  0  0  0
    1.1802   -0.2519   -1.4777 N   0  0  0  0  0  2  0  0  0  0  0  0
    1.5600   -0.0266    1.0032 N   0  0  0  0  0  2  0  0  0  0  0  0
    5.1374    0.0743    0.2858 C   0  0  0  0  0  0  0  0  0  0  0  0
    5.3387    1.3388   -0.3305 C   0  0  0  0  0  0  0  0  0  0  0  0
    6.5867    1.5800   -0.9374 C   0  0  0  0  0  0  0  0  0  0  0  0
    6.7578    2.5535   -1.4233 H   0  0  0  0  0  0  0  0  0  0  0  0
    7.6090    0.6223   -0.9129 C   0  0  0  0  0  0  0  0  0  0  0  0
    8.5782    0.8398   -1.3866 H   0  0  0  0  0  0  0  0  0  0  0  0
    7.3973   -0.6081   -0.2776 C   0  0  0  0  0  0  0  0  0  0  0  0
    8.1986   -1.3634   -0.2527 H   0  0  0  0  0  0  0  0  0  0  0  0
    6.1615   -0.9055    0.3244 C   0  0  0  0  0  0  0  0  0  0  0  0
    3.9621    2.9782    1.0933 C   0  0  0  0  0  0  0  0  0  0  0  0
    3.2778    3.8469    1.0175 H   0  0  0  0  0  0  0  0  0  0  0  0
    3.4592    2.2209    1.7258 H   0  0  0  0  0  0  0  0  0  0  0  0
    4.8800    3.3129    1.6177 H   0  0  0  0  0  0  0  0  0  0  0  0
    4.2900    2.4339   -0.3062 C   0  0  0  0  0  0  0  0  0  0  0  0
    3.3521    2.0806   -0.7864 H   0  0  0  0  0  0  0  0  0  0  0  0
    4.6556    3.2632   -0.9458 H   0  0  0  0  0  0  0  0  0  0  0  0
    5.9098   -2.2672    0.9340 C   0  0  0  0  0  0  0  0  0  0  0  0
    6.8842   -2.7202    1.2107 H   0  0  0  0  0  0  0  0  0  0  0  0
    5.3341   -2.1660    1.8773 H   0  0  0  0  0  0  0  0  0  0  0  0
    5.1548   -3.2080   -0.0183 C   0  0  0  0  0  0  0  0  0  0  0  0
    4.9882   -4.1998    0.4482 H   0  0  0  0  0  0  0  0  0  0  0  0
    4.1646   -2.7901   -0.2900 H   0  0  0  0  0  0  0  0  0  0  0  0
    5.7241   -3.3609   -0.9572 H   0  0  0  0  0  0  0  0  0  0  0  0
    2.6734   -0.1764    0.3052 C   0  0  0  0  0  0  0  0  0  0  0  0
    2.4569   -0.3236   -1.1264 C   0  0  0  0  0  0  0  0  0  0  0  0
    3.2543   -0.4866   -1.8649 H   0  0  0  0  0  0  0  0  0  0  0  0
  1  6  1  0  0  0  0
  2  3  1  0  0  0  0
  4  5  1  0  0  0  0
  6 32  1  0  0  0  0
  7  2  1  0  0  0  0
  8 16  1  0  0  0  0
  8  4  1  0  0  0  0
  9 21  1  0  0  0  0
  9  8  2  0  0  0  0
 10 12  2  0  0  0  0
 10  9  1  0  0  0  0
 11 10  1  0  0  0  0
 12 14  1  0  0  0  0
 13 12  1  0  0  0  0
 14 15  1  0  0  0  0
 14 16  2  0  0  0  0
 16 24  1  0  0  0  0
 17 20  1  0  0  0  0
 17 19  1  0  0  0  0
 18 17  1  0  0  0  0
 21 17  1  0  0  0  0
 22 21  1  0  0  0  0
 23 21  1  0  0  0  0
 24 25  1  0  0  0  0
 24 26  1  0  0  0  0
 27 28  1  0  0  0  0
 27 24  1  0  0  0  0
 29 27  1  0  0  0  0
 30 27  1  0  0  0  0
 31  4  1  0  0  0  0
 31  7  1  0  0  0  0
 32 31  2  0  0  0  0
 33 32  1  0  0  0  0
M  END
