1,2
q = 0.0, confidence = 1.0

 30 29  0  0  0  0  0  0  0  0999 V2000
    1.6808    1.1372    0.1903 N   0  0  0  0  0  0  0  0  0  0  0  0
   -1.1697    0.5888   -0.5039 N   0  0  0  0  0  0  0  0  0  0  0  0
    2.9635    0.9333   -0.5034 C   0  0  0  0  0  0  0  0  0  0  0  0
    3.5781    0.2175    0.0748 H   0  0  0  0  0  0  0  0  0  0  0  0
    3.5292    1.8883   -0.6074 H   0  0  0  0  0  0  0  0  0  0  0  0
    2.7717    0.4817   -1.4956 H   0  0  0  0  0  0  0  0  0  0  0  0
    1.8902    1.5301    1.5925 C   0  0  0  0  0  0  0  0  0  0  0  0
    2.4629    0.7393    2.1106 H   0  0  0  0  0  0  0  0  0  0  0  0
    0.9221    1.6045    2.1205 H   0  0  0  0  0  0  0  0  0  0  0  0
    2.4366    2.4998    1.6615 H   0  0  0  0  0  0  0  0  0  0  0  0
    0.8225    2.0950   -0.5353 C   0  0  0  0  0  0  0  0  0  0  0  0
    0.9676    1.9170   -1.6195 H   0  0  0  0  0  0  0  0  0  0  0  0
    1.1416    3.1460   -0.3369 H   0  0  0  0  0  0  0  0  0  0  0  0
   -0.6566    1.9368   -0.1785 C   0  0  0  0  0  0  0  0  0  0  0  0
   -0.8005    2.0975    0.9094 H   0  0  0  0  0  0  0  0  0  0  0  0
   -1.2364    2.7323   -0.7010 H   0  0  0  0  0  0  0  0  0  0  0  0
   -1.3977    0.4363   -1.9511 C   0  0  0  0  0  0  0  0  0  0  0  0
   -1.6910   -0.6034   -2.1768 H   0  0  0  0  0  0  0  0  0  0  0  0
   -0.4508    0.6003   -2.4966 H   0  0  0  0  0  0  0  0  0  0  0  0
   -2.1729    1.1407   -2.3282 H   0  0  0  0  0  0  0  0  0  0  0  0
   -2.3563    0.2155    0.3439 C   0  0  0  0  0  0  0  0  0  0  0  0
   -1.9648    0.2742    1.3826 H   0  0  0  0  0  0  0  0  0  0  0  0
   -2.7655   -1.2386    0.1125 C   0  0  0  0  0  0  0  0  0  0  0  0
   -1.8959   -1.9188    0.2057 H   0  0  0  0  0  0  0  0  0  0  0  0
   -3.2460   -1.3928   -0.8744 H   0  0  0  0  0  0  0  0  0  0  0  0
   -3.4957   -1.5370    0.8895 H   0  0  0  0  0  0  0  0  0  0  0  0
   -3.5469    1.1684    0.1881 C   0  0  0  0  0  0  0  0  0  0  0  0
   -3.2848    2.2212    0.4138 H   0  0  0  0  0  0  0  0  0  0  0  0
   -4.3487    0.8732    0.8930 H   0  0  0  0  0  0  0  0  0  0  0  0
   -3.9787    1.1296   -0.8330 H   0  0  0  0  0  0  0  0  0  0  0  0
  1  7  1  0  0  0  0
  2 14  1  0  0  0  0
  2 21  1  0  0  0  0
  3  4  1  0  0  0  0
  3  1  1  0  0  0  0
  5  3  1  0  0  0  0
  6  3  1  0  0  0  0
  7 10  1  0  0  0  0
  7  8  1  0  0  0  0
  7  9  1  0  0  0  0
 11 13  1  0  0  0  0
 11 14  1  0  0  0  0
 11  1  1  0  0  0  0
 12 11  1  0  0  0  0
 14 15  1  0  0  0  0
 16 14  1  0  0  0  0
 17  2  1  0  0  0  0
 18 17  1  0  0  0  0
 19 17  1  0  0  0  0
 20 17  1  0  0  0  0
 21 22  1  0  0  0  0
 23 24  1  0  0  0  0
 23 21  1  0  0  0  0
 23 26  1  0  0  0  0
 25 23  1  0  0  0  0
 27 21  1  0  0  0  0
 27 28  1  0  0  0  0
 27 29  1  0  0  0  0
 30 27  1  0  0  0  0
M  END
