4,6
q = -1.0, confidence = 0.072

 41 43  0  0  1  0  0  0  0  0999 V2000
   -1.9787   -1.7004   -0.9934 S   0  0  0  0  0  0  0  0  0  0  0  0
   -2.7622   -2.8986   -0.6180 O   0  0  0  0  0  0  0  0  0  0  0  0
   -1.1009   -1.6965   -2.1758 O   0  0  0  0  0  0  0  0  0  0  0  0
    0.6139    0.9988    0.6812 N   0  0  0  0  0  2  0  0  0  0  0  0
   -0.2244    1.3409    1.5848 N   0  0  0  0  0  0  0  0  0  0  0  0
   -0.9966   -1.1669    0.3286 N   0  0  0  0  0  2  0  0  0  0  0  0
    0.8633    1.4893   -2.0660 F   0  0  0  0  0  0  0  0  0  0  0  0
    2.0364    2.7316    2.3576 F   0  0  0  0  0  0  0  0  0  0  0  0
    1.3841    2.0857    0.1745 C   0  0  0  0  0  0  0  0  0  0  0  0
    1.5225    2.2974   -1.2111 C   0  0  0  0  0  0  0  0  0  0  0  0
    2.3162    3.3227   -1.7280 C   0  0  0  0  0  0  0  0  0  0  0  0
    2.3759    3.4500   -2.8174 H   0  0  0  0  0  0  0  0  0  0  0  0
    3.0082    4.1573   -0.8389 C   0  0  0  0  0  0  0  0  0  0  0  0
    3.6423    4.9645   -1.2332 H   0  0  0  0  0  0  0  0  0  0  0  0
    2.9043    3.9718    0.5469 C   0  0  0  0  0  0  0  0  0  0  0  0
    3.4545    4.5986    1.2618 H   0  0  0  0  0  0  0  0  0  0  0  0
    2.0981    2.9443    1.0399 C   0  0  0  0  0  0  0  0  0  0  0  0
   -1.1212    0.4687    2.1360 C   0  0  0  0  0  0  0  0  0  0  0  0
   -1.7450    0.9220    3.3351 C   0  0  0  0  0  0  0  0  0  0  0  0
   -1.3565    1.8507    3.7766 H   0  0  0  0  0  0  0  0  0  0  0  0
   -2.7956    0.2201    3.9046 C   0  0  0  0  0  0  0  0  0  0  0  0
   -3.2559    0.5663    4.8410 H   0  0  0  0  0  0  0  0  0  0  0  0
   -3.2817   -0.9390    3.2514 C   0  0  0  0  0  0  0  0  0  0  0  0
   -4.1206   -1.5005    3.6909 H   0  0  0  0  0  0  0  0  0  0  0  0
   -2.7105   -1.4010    2.0693 C   0  0  0  0  0  0  0  0  0  0  0  0
   -3.0781   -2.3111    1.5775 H   0  0  0  0  0  0  0  0  0  0  0  0
   -1.5882   -0.7441    1.4885 C   0  0  1  0  0  3  0  0  0  0  0  0
   -3.1144   -0.3102   -1.1329 C   0  0  0  0  0  0  0  0  0  0  0  0
   -4.4656   -0.4817   -0.8127 C   0  0  0  0  0  0  0  0  0  0  0  0
   -4.8237   -1.4728   -0.5003 H   0  0  0  0  0  0  0  0  0  0  0  0
   -5.3301    0.6196   -0.9074 C   0  0  0  0  0  0  0  0  0  0  0  0
   -6.3954    0.4935   -0.6583 H   0  0  0  0  0  0  0  0  0  0  0  0
   -4.8602    1.8837   -1.3128 C   0  0  0  0  0  0  0  0  0  0  0  0
   -3.4899    2.0191   -1.6352 C   0  0  0  0  0  0  0  0  0  0  0  0
   -3.1059    2.9991   -1.9603 H   0  0  0  0  0  0  0  0  0  0  0  0
   -2.6132    0.9337   -1.5534 C   0  0  0  0  0  0  0  0  0  0  0  0
   -1.5495    1.0428   -1.8108 H   0  0  0  0  0  0  0  0  0  0  0  0
   -5.7845    3.0704   -1.4055 C   0  0  0  0  0  0  0  0  0  0  0  0
   -6.8229    2.8043   -1.1302 H   0  0  0  0  0  0  0  0  0  0  0  0
   -5.7999    3.4872   -2.4340 H   0  0  0  0  0  0  0  0  0  0  0  0
   -5.4524    3.8893   -0.7338 H   0  0  0  0  0  0  0  0  0  0  0  0
  1  2  2  0  0  0  0
  1  6  1  0  0  0  0
  3  1  2  0  0  0  0
  4  5  1  0  0  0  0
  5 18  2  0  0  0  0
  7 10  1  0  0  0  0
  9  4  1  0  0  0  0
  9 17  1  0  0  0  0
 10  9  2  0  0  0  0
 11 10  1  0  0  0  0
 11 13  2  0  0  0  0
 12 11  1  0  0  0  0
 13 15  1  0  0  0  0
 14 13  1  0  0  0  0
 15 17  2  0  0  0  0
 15 16  1  0  0  0  0
 17  8  1  0  0  0  0
 18 19  1  0  0  0  0
 19 20  1  0  0  0  0
 19 21  2  0  0  0  0
 21 22  1  0  0  0  0
 23 24  1  0  0  0  0
 23 21  1  0  0  0  0
 25 23  2  0  0  0  0
 26 25  1  0  0  0  0
 27  6  1  6  0  0  0
 27 25  1  0  0  0  0
 27 18  1  0  0  0  0
 28  1  1  0  0  0  0
 28 29  1  0  0  0  0
 29 30  1  0  0  0  0
 31 29  2  0  0  0  0
 31 32  1  0  0  0  0
 33 31  1  0  0  0  0
 34 36  1  0  0  0  0
 34 33  2  0  0  0  0
 35 34  1  0  0  0  0
 36 28  2  0  0  0  0
 37 36  1  0  0  0  0
 38 33  1  0  0  0  0
 38 39  1  0  0  0  0
 38 41  1  0  0  0  0
 40 38  1  0  0  0  0
M  END
