4,5
q = -1.0

 24 25  0  0  0  0  0  0  0  0999 V2000
    0.7137    2.4947    0.6020 S   0  0  0  0  0  0  0  0  0  0  0  0
   -0.3307    3.5054    0.8824 O   0  0  0  0  0  0  0  0  0  0  0  0
    1.4719    1.8814    1.7087 O   0  0  0  0  0  0  0  0  0  0  0  0
   -0.0120    1.2044   -0.3252 N   0  0  0  0  0  2  0  0  0  0  0  0
   -1.1473   -1.1857    0.2004 N   0  0  0  0  0  2  0  0  0  0  0  0
    1.8648    3.1920   -0.5833 C   0  0  0  0  0  0  0  0  0  0  0  0
    2.3960    3.9983   -0.0437 H   0  0  0  0  0  0  0  0  0  0  0  0
    1.2853    3.5926   -1.4339 H   0  0  0  0  0  0  0  0  0  0  0  0
    2.5542    2.3837   -0.8915 H   0  0  0  0  0  0  0  0  0  0  0  0
   -1.4107    1.1301   -0.3595 C   0  0  0  0  0  0  0  0  0  0  0  0
   -1.9989   -0.1442   -0.0856 C   0  0  0  0  0  0  0  0  0  0  0  0
   -1.6007   -2.4025    0.5064 C   0  0  0  0  0  0  0  0  0  0  0  0
   -0.8293   -3.1665    0.6972 H   0  0  0  0  0  0  0  0  0  0  0  0
   -2.9886   -2.6672    0.5397 C   0  0  0  0  0  0  0  0  0  0  0  0
   -3.3294   -3.6790    0.7987 H   0  0  0  0  0  0  0  0  0  0  0  0
   -3.8869   -1.6549    0.2308 C   0  0  0  0  0  0  0  0  0  0  0  0
   -4.9710   -1.8473    0.2351 H   0  0  0  0  0  0  0  0  0  0  0  0
   -3.4197   -0.3506   -0.0929 C   0  0  0  0  0  0  0  0  0  0  0  0
   -4.2589    0.7524   -0.4040 C   0  0  0  0  0  3  0  0  0  0  0  0
   -5.3496    0.6150   -0.4134 H   0  0  0  0  0  0  0  0  0  0  0  0
   -3.6819    1.9857   -0.6889 C   0  0  0  0  0  0  0  0  0  0  0  0
   -4.3268    2.8422   -0.9366 H   0  0  0  0  0  0  0  0  0  0  0  0
   -2.2823    2.1860   -0.6742 C   0  0  0  0  0  0  0  0  0  0  0  0
   -1.8678    3.1779   -0.8853 H   0  0  0  0  0  0  0  0  0  0  0  0
  1  2  2  0  0  0  0
  1  3  2  0  0  0  0
  4  1  1  0  0  0  0
  5 12  1  0  0  0  0
  6  7  1  0  0  0  0
  6  1  1  0  0  0  0
  8  6  1  0  0  0  0
  9  6  1  0  0  0  0
 10  4  1  0  0  0  0
 10 11  2  0  0  0  0
 11  5  1  0  0  0  0
 12 14  2  0  0  0  0
 12 13  1  0  0  0  0
 14 15  1  0  0  0  0
 16 17  1  0  0  0  0
 16 14  1  0  0  0  0
 18 11  1  0  0  0  0
 18 16  2  0  0  0  0
 19 18  1  0  0  0  0
 20 19  1  0  0  0  0
 21 23  2  0  0  0  0
 21 19  1  0  0  0  0
 22 21  1  0  0  0  0
 23 10  1  0  0  0  0
 24 23  1  0  0  0  0
M  END
