1,3
q = 0.0, confidence = 0.998

 56 59  0  0  1  0  0  0  0  0999 V2000
    1.6370   -1.3165   -0.1146 N   0  0  0  0  0  2  0  0  0  0  0  0
    1.8579    0.0417    0.0694 N   0  0  0  0  0  0  0  0  0  0  0  0
   -0.4258    0.1893    0.1145 N   0  0  0  0  0  2  0  0  0  0  0  0
    2.8055   -1.9504   -0.0977 C   0  0  0  0  0  0  0  0  0  0  0  0
    2.8066   -3.0388   -0.2374 H   0  0  0  0  0  0  0  0  0  0  0  0
    3.8554   -1.0088    0.1351 C   0  0  0  0  0  0  0  0  0  0  0  0
    5.2548   -1.1226    0.2816 C   0  0  0  0  0  0  0  0  0  0  0  0
    5.7459   -2.1010    0.1795 H   0  0  0  0  0  0  0  0  0  0  0  0
    5.9866    0.0306    0.5697 C   0  0  0  0  0  0  0  0  0  0  0  0
    7.0778   -0.0318    0.6912 H   0  0  0  0  0  0  0  0  0  0  0  0
    5.3422    1.2816    0.7229 C   0  0  0  0  0  0  0  0  0  0  0  0
    5.9429    2.1698    0.9687 H   0  0  0  0  0  0  0  0  0  0  0  0
    3.9567    1.4264    0.5772 C   0  0  0  0  0  0  0  0  0  0  0  0
    3.4742    2.4014    0.7099 H   0  0  0  0  0  0  0  0  0  0  0  0
    3.2234    0.2684    0.2661 C   0  0  2  0  0  3  0  0  0  0  0  0
    0.7189    0.8449    0.1243 C   0  0  2  0  0  3  0  0  0  0  0  0
    0.8764    2.3125    0.0253 C   0  0  0  0  0  0  0  0  0  0  0  0
    1.6130    2.8345   -1.0630 C   0  0  0  0  0  0  0  0  0  0  0  0
    2.0830    2.1488   -1.7835 H   0  0  0  0  0  0  0  0  0  0  0  0
    1.7267    4.2193   -1.2363 C   0  0  0  0  0  0  0  0  0  0  0  0
    2.2927    4.6157   -2.0923 H   0  0  0  0  0  0  0  0  0  0  0  0
    1.1103    5.0955   -0.3279 C   0  0  0  0  0  0  0  0  0  0  0  0
    1.1989    6.1835   -0.4658 H   0  0  0  0  0  0  0  0  0  0  0  0
    0.3757    4.5808    0.7523 C   0  0  0  0  0  0  0  0  0  0  0  0
   -0.1122    5.2624    1.4645 H   0  0  0  0  0  0  0  0  0  0  0  0
    0.2525    3.1965    0.9293 C   0  0  0  0  0  0  0  0  0  0  0  0
   -0.3312    2.7971    1.7681 H   0  0  0  0  0  0  0  0  0  0  0  0
   -1.6729    0.9014    0.1997 C   0  0  0  0  0  0  0  0  0  0  0  0
   -2.2166    1.4929   -0.9657 C   0  0  0  0  0  0  0  0  0  0  0  0
   -3.4305    2.1909   -0.8304 C   0  0  0  0  0  0  0  0  0  0  0  0
   -3.8776    2.6636   -1.7178 H   0  0  0  0  0  0  0  0  0  0  0  0
   -4.0829    2.2816    0.4046 C   0  0  0  0  0  0  0  0  0  0  0  0
   -5.0313    2.8338    0.4865 H   0  0  0  0  0  0  0  0  0  0  0  0
   -3.5404    1.6509    1.5307 C   0  0  0  0  0  0  0  0  0  0  0  0
   -4.0721    1.7022    2.4930 H   0  0  0  0  0  0  0  0  0  0  0  0
   -2.3306    0.9375    1.4545 C   0  0  0  0  0  0  0  0  0  0  0  0
   -1.5725    1.3280   -2.3355 C   0  0  0  0  0  0  0  0  0  0  0  0
   -0.5580    0.9052   -2.1875 H   0  0  0  0  0  0  0  0  0  0  0  0
   -1.4142    2.6633   -3.0787 C   0  0  0  0  0  0  0  0  0  0  0  0
   -2.3982    3.1055   -3.3375 H   0  0  0  0  0  0  0  0  0  0  0  0
   -0.8661    2.5115   -4.0309 H   0  0  0  0  0  0  0  0  0  0  0  0
   -0.8569    3.4059   -2.4734 H   0  0  0  0  0  0  0  0  0  0  0  0
   -2.3654    0.3001   -3.1652 C   0  0  0  0  0  0  0  0  0  0  0  0
   -2.4625   -0.6587   -2.6184 H   0  0  0  0  0  0  0  0  0  0  0  0
   -1.8602    0.1090   -4.1343 H   0  0  0  0  0  0  0  0  0  0  0  0
   -3.3876    0.6753   -3.3803 H   0  0  0  0  0  0  0  0  0  0  0  0
   -1.7892    0.2115    2.6823 C   0  0  0  0  0  0  0  0  0  0  0  0
   -0.8258   -0.2590    2.3974 H   0  0  0  0  0  0  0  0  0  0  0  0
   -1.5175    1.1660    3.8575 C   0  0  0  0  0  0  0  0  0  0  0  0
   -0.7875    1.9602    3.5974 H   0  0  0  0  0  0  0  0  0  0  0  0
   -1.1059    0.6066    4.7220 H   0  0  0  0  0  0  0  0  0  0  0  0
   -2.4470    1.6664    4.1991 H   0  0  0  0  0  0  0  0  0  0  0  0
   -2.7362   -0.9278    3.0996 C   0  0  0  0  0  0  0  0  0  0  0  0
   -3.7195   -0.5306    3.4275 H   0  0  0  0  0  0  0  0  0  0  0  0
   -2.3025   -1.4986    3.9461 H   0  0  0  0  0  0  0  0  0  0  0  0
   -2.9050   -1.6217    2.2531 H   0  0  0  0  0  0  0  0  0  0  0  0
  1  4  1  0  0  0  0
  1  2  1  0  0  0  0
  2 16  1  0  0  0  0
  2 15  1  0  0  0  0
  3 28  1  0  0  0  0
  4  6  2  0  0  0  0
  5  4  1  0  0  0  0
  6  7  1  0  0  0  0
  7  9  2  0  0  0  0
  8  7  1  0  0  0  0
  9 10  1  0  0  0  0
  9 11  1  0  0  0  0
 11 12  1  0  0  0  0
 13 14  1  0  0  0  0
 13 11  2  0  0  0  0
 15  6  1  1  0  0  0
 15 13  1  0  0  0  0
 16  3  1  6  0  0  0
 17 16  1  0  0  0  0
 17 26  1  0  0  0  0
 18 17  2  0  0  0  0
 19 18  1  0  0  0  0
 20 18  1  0  0  0  0
 20 22  2  0  0  0  0
 21 20  1  0  0  0  0
 22 24  1  0  0  0  0
 23 22  1  0  0  0  0
 24 26  2  0  0  0  0
 24 25  1  0  0  0  0
 26 27  1  0  0  0  0
 28 36  1  0  0  0  0
 29 30  1  0  0  0  0
 29 28  2  0  0  0  0
 30 32  2  0  0  0  0
 31 30  1  0  0  0  0
 32 33  1  0  0  0  0
 32 34  1  0  0  0  0
 34 35  1  0  0  0  0
 36 34  2  0  0  0  0
 36 47  1  0  0  0  0
 37 38  1  0  0  0  0
 37 29  1  0  0  0  0
 39 42  1  0  0  0  0
 39 37  1  0  0  0  0
 40 39  1  0  0  0  0
 41 39  1  0  0  0  0
 43 44  1  0  0  0  0
 43 37  1  0  0  0  0
 45 43  1  0  0  0  0
 46 43  1  0  0  0  0
 47 53  1  0  0  0  0
 47 49  1  0  0  0  0
 48 47  1  0  0  0  0
 49 52  1  0  0  0  0
 49 51  1  0  0  0  0
 50 49  1  0  0  0  0
 53 54  1  0  0  0  0
 53 55  1  0  0  0  0
 56 53  1  0  0  0  0
M  END
