2,3
q = -1.0

 28 30  0  0  1  0  0  0  0  0999 V2000
    1.1809   -1.7665    2.2594 O   0  0  0  0  0  0  0  0  0  0  0  0
    0.7538    1.4750   -1.6045 N   0  0  0  0  0  2  0  0  0  0  0  0
    1.6892   -0.5303    0.3448 N   0  0  0  0  0  2  0  0  0  0  0  0
    2.9273    0.3593   -1.5442 N   0  0  0  0  0  0  0  0  0  0  0  0
   -0.0640    2.3645   -2.2365 C   0  0  1  0  0  3  0  0  0  0  0  0
    0.3411    3.0397   -3.3950 C   0  0  0  0  0  0  0  0  0  0  0  0
   -0.3467    3.7484   -3.8764 H   0  0  0  0  0  0  0  0  0  0  0  0
    1.6212    2.7929   -3.9205 C   0  0  0  0  0  0  0  0  0  0  0  0
    1.9594    3.3097   -4.8316 H   0  0  0  0  0  0  0  0  0  0  0  0
    2.4533    1.8896   -3.2734 C   0  0  0  0  0  0  0  0  0  0  0  0
    3.4645    1.6535   -3.6287 H   0  0  0  0  0  0  0  0  0  0  0  0
    2.0154    1.2179   -2.0965 C   0  0  0  0  0  0  0  0  0  0  0  0
    2.7700   -0.3966   -0.4838 C   0  0  0  0  0  0  0  0  0  0  0  0
    3.8579   -1.2862    0.0072 C   0  0  0  0  0  0  0  0  0  0  0  0
    5.1493   -1.5209   -0.4693 C   0  0  0  0  0  0  0  0  0  0  0  0
    5.5153   -0.9988   -1.3655 H   0  0  0  0  0  0  0  0  0  0  0  0
    5.9449   -2.4431    0.2378 C   0  0  0  0  0  0  0  0  0  0  0  0
    6.9681   -2.6561   -0.1079 H   0  0  0  0  0  0  0  0  0  0  0  0
    5.4530   -3.1021    1.3825 C   0  0  0  0  0  0  0  0  0  0  0  0
    6.1000   -3.8185    1.9116 H   0  0  0  0  0  0  0  0  0  0  0  0
    4.1485   -2.8582    1.8556 C   0  0  0  0  0  0  0  0  0  0  0  0
    3.7500   -3.3659    2.7468 H   0  0  0  0  0  0  0  0  0  0  0  0
    3.3664   -1.9435    1.1495 C   0  0  0  0  0  0  0  0  0  0  0  0
    1.9622   -1.4563    1.3705 C   0  0  0  0  0  0  0  0  0  0  0  0
   -1.4267    2.5934   -1.6447 C   0  0  0  0  0  0  0  0  0  0  0  0
   -1.3547    2.9057   -0.5828 H   0  0  0  0  0  0  0  0  0  0  0  0
   -2.0195    1.6560   -1.6584 H   0  0  0  0  0  0  0  0  0  0  0  0
   -1.9801    3.3702   -2.2028 H   0  0  0  0  0  0  0  0  0  0  0  0
  3 24  1  0  0  0  0
  4 13  2  0  0  0  0
  5 25  1  6  0  0  0
  5  2  1  0  0  0  0
  6  5  1  0  0  0  0
  7  6  1  0  0  0  0
  8  6  2  0  0  0  0
  8 10  1  0  0  0  0
  9  8  1  0  0  0  0
 10 12  2  0  0  0  0
 11 10  1  0  0  0  0
 12  2  1  0  0  0  0
 12  4  1  0  0  0  0
 13 14  1  0  0  0  0
 13  3  1  0  0  0  0
 14 23  1  0  0  0  0
 15 14  2  0  0  0  0
 15 17  1  0  0  0  0
 16 15  1  0  0  0  0
 17 19  2  0  0  0  0
 18 17  1  0  0  0  0
 19 21  1  0  0  0  0
 19 20  1  0  0  0  0
 21 22  1  0  0  0  0
 23 24  1  0  0  0  0
 23 21  2  0  0  0  0
 24  1  2  0  0  0  0
 25 26  1  0  0  0  0
 27 25  1  0  0  0  0
 28 25  1  0  0  0  0
M  END
