2,3
q = -1.0, confidence = 0.154

 41 42  0  0  0  0  0  0  0  0999 V2000
    0.8498   -2.6119   -1.0827 Si  0  0  0  0  0  0  0  0  0  0  0  0
    0.1196    0.8294    1.4701 N   0  0  0  0  0  1  0  0  0  0  0  0
    0.4232   -0.8693   -0.8502 N   0  0  0  0  0  2  0  0  0  0  0  0
    1.4087    0.5348    1.8603 C   0  0  0  0  0  0  0  0  0  0  0  0
    1.6981    0.2626    3.2206 C   0  0  0  0  0  0  0  0  0  0  0  0
    2.9653   -0.1913    3.5971 C   0  0  0  0  0  0  0  0  0  0  0  0
    3.9655   -0.3805    2.6344 C   0  0  0  0  0  0  0  0  0  0  0  0
    3.7285   -0.0721    1.2781 C   0  0  0  0  0  0  0  0  0  0  0  0
    2.4597    0.4259    0.8840 C   0  0  0  0  0  0  0  0  0  0  0  0
    2.2160    0.8430   -0.5270 C   0  0  0  0  0  0  0  0  0  0  0  0
    2.9250    1.9586   -1.0602 C   0  0  0  0  0  0  0  0  0  0  0  0
    2.7987    2.2778   -2.4258 C   0  0  0  0  0  0  0  0  0  0  0  0
    1.9824    1.5162   -3.2730 C   0  0  0  0  0  0  0  0  0  0  0  0
    1.2237    0.4688   -2.7419 C   0  0  0  0  0  0  0  0  0  0  0  0
    1.2962    0.1472   -1.3672 C   0  0  0  0  0  0  0  0  0  0  0  0
    3.8002    2.8146   -0.1776 C   0  0  0  0  0  0  0  0  0  0  0  0
    4.8322   -0.3420    0.2793 C   0  0  0  0  0  0  0  0  0  0  0  0
    1.5271   -3.2849    0.5401 C   0  0  0  0  0  0  0  0  0  0  0  0
    2.1843   -2.7163   -2.4130 C   0  0  0  0  0  0  0  0  0  0  0  0
   -0.7109   -3.5239   -1.6287 C   0  0  0  0  0  0  0  0  0  0  0  0
    0.8887    0.3778    3.9555 H   0  0  0  0  0  0  0  0  0  0  0  0
    3.1690   -0.4211    4.6547 H   0  0  0  0  0  0  0  0  0  0  0  0
    4.9490   -0.7780    2.9296 H   0  0  0  0  0  0  0  0  0  0  0  0
    5.2334   -1.3672    0.4168 H   0  0  0  0  0  0  0  0  0  0  0  0
    5.6892    0.3509    0.4196 H   0  0  0  0  0  0  0  0  0  0  0  0
    4.4903   -0.2452   -0.7679 H   0  0  0  0  0  0  0  0  0  0  0  0
    3.3661    2.9279    0.8346 H   0  0  0  0  0  0  0  0  0  0  0  0
    3.9420    3.8190   -0.6222 H   0  0  0  0  0  0  0  0  0  0  0  0
    4.8082    2.3710   -0.0408 H   0  0  0  0  0  0  0  0  0  0  0  0
    3.3548    3.1395   -2.8267 H   0  0  0  0  0  0  0  0  0  0  0  0
    1.9151    1.7574   -4.3449 H   0  0  0  0  0  0  0  0  0  0  0  0
    0.5500   -0.1197   -3.3793 H   0  0  0  0  0  0  0  0  0  0  0  0
    1.8359   -2.3514   -3.3991 H   0  0  0  0  0  0  0  0  0  0  0  0
    2.5002   -3.7739   -2.5278 H   0  0  0  0  0  0  0  0  0  0  0  0
    3.0755   -2.1226   -2.1256 H   0  0  0  0  0  0  0  0  0  0  0  0
    2.3870   -2.6694    0.8754 H   0  0  0  0  0  0  0  0  0  0  0  0
    1.8634   -4.3364    0.4284 H   0  0  0  0  0  0  0  0  0  0  0  0
    0.7553   -3.2450    1.3335 H   0  0  0  0  0  0  0  0  0  0  0  0
   -1.0794   -3.1281   -2.5976 H   0  0  0  0  0  0  0  0  0  0  0  0
   -0.5102   -4.6078   -1.7542 H   0  0  0  0  0  0  0  0  0  0  0  0
   -1.5161   -3.4147   -0.8745 H   0  0  0  0  0  0  0  0  0  0  0  0
  1  3  1  0  0  0  0
  1 18  1  0  0  0  0
  2  4  1  0  0  0  0
  4  5  1  0  0  0  0
  5  6  2  0  0  0  0
  5 21  1  0  0  0  0
  6 22  1  0  0  0  0
  7 23  1  0  0  0  0
  7  6  1  0  0  0  0
  8  7  2  0  0  0  0
  9  8  1  0  0  0  0
  9  4  2  0  0  0  0
 10  9  1  0  0  0  0
 11 10  1  0  0  0  0
 11 16  1  0  0  0  0
 12 11  2  0  0  0  0
 13 14  2  0  0  0  0
 13 12  1  0  0  0  0
 14 15  1  0  0  0  0
 15  3  1  0  0  0  0
 15 10  2  0  0  0  0
 16 29  1  0  0  0  0
 16 27  1  0  0  0  0
 17 24  1  0  0  0  0
 17 25  1  0  0  0  0
 17  8  1  0  0  0  0
 18 36  1  0  0  0  0
 18 38  1  0  0  0  0
 19 35  1  0  0  0  0
 19  1  1  0  0  0  0
 20  1  1  0  0  0  0
 20 41  1  0  0  0  0
 26 17  1  0  0  0  0
 28 16  1  0  0  0  0
 30 12  1  0  0  0  0
 31 13  1  0  0  0  0
 32 14  1  0  0  0  0
 33 19  1  0  0  0  0
 34 19  1  0  0  0  0
 37 18  1  0  0  0  0
 39 20  1  0  0  0  0
 40 20  1  0  0  0  0
M  END
