23,25
q = -1.0

 25 26  0  0  0  0  0  0  0  0999 V2000
    4.9557    5.6770    0.2319 Cl  0  0  0  0  0  0  0  0  0  0  0  0
   -4.9604   -0.9838   -5.5906 Cl  0  0  0  0  0  0  0  0  0  0  0  0
    1.7636    2.5391   -0.5865 C   0  0  0  0  0  0  0  0  0  0  0  0
    2.7598    2.3049    0.3884 C   0  0  0  0  0  0  0  0  0  0  0  0
    2.7563    1.3583    0.9454 H   0  0  0  0  0  0  0  0  0  0  0  0
    3.7410    3.2679    0.6419 C   0  0  0  0  0  0  0  0  0  0  0  0
    4.5163    3.0884    1.3996 H   0  0  0  0  0  0  0  0  0  0  0  0
    3.7355    4.4726   -0.0811 C   0  0  0  0  0  0  0  0  0  0  0  0
    2.7475    4.7182   -1.0535 C   0  0  0  0  0  0  0  0  0  0  0  0
    2.7529    5.6695   -1.6038 H   0  0  0  0  0  0  0  0  0  0  0  0
    1.7627    3.7607   -1.3033 C   0  0  0  0  0  0  0  0  0  0  0  0
    0.9789    3.9430   -2.0505 H   0  0  0  0  0  0  0  0  0  0  0  0
   -1.7644    0.2436   -2.5933 C   0  0  0  0  0  0  0  0  0  0  0  0
   -2.7600   -0.6918   -2.2306 C   0  0  0  0  0  0  0  0  0  0  0  0
   -2.7550   -1.1184   -1.2185 H   0  0  0  0  0  0  0  0  0  0  0  0
   -3.7425   -1.0708   -3.1501 C   0  0  0  0  0  0  0  0  0  0  0  0
   -4.5173   -1.7980   -2.8707 H   0  0  0  0  0  0  0  0  0  0  0  0
   -3.7388   -0.5137   -4.4400 C   0  0  0  0  0  0  0  0  0  0  0  0
   -2.7514    0.4176   -4.8136 C   0  0  0  0  0  0  0  0  0  0  0  0
   -2.7583    0.8371   -5.8295 H   0  0  0  0  0  0  0  0  0  0  0  0
   -1.7654    0.7922   -3.8990 C   0  0  0  0  0  0  0  0  0  0  0  0
   -0.9821    1.5089   -4.1799 H   0  0  0  0  0  0  0  0  0  0  0  0
    0.8154    1.5474   -0.8189 N   0  0  0  0  0  2  0  0  0  0  0  0
   -0.0001    1.6121   -1.8429 N   0  0  0  0  0  2  0  0  0  0  0  0
   -0.8149    0.6053   -1.6424 N   0  0  0  0  0  2  0  0  0  0  0  0
  2 18  1  0  0  0  0
  3  4  1  0  0  0  0
  4  6  2  0  0  0  0
  4  5  1  0  0  0  0
  6  7  1  0  0  0  0
  8  1  1  0  0  0  0
  8  6  1  0  0  0  0
  9  8  2  0  0  0  0
 10  9  1  0  0  0  0
 11  9  1  0  0  0  0
 11  3  2  0  0  0  0
 12 11  1  0  0  0  0
 13 14  1  0  0  0  0
 13 25  1  0  0  0  0
 14 15  1  0  0  0  0
 16 17  1  0  0  0  0
 16 14  2  0  0  0  0
 18 16  1  0  0  0  0
 19 18  2  0  0  0  0
 19 21  1  0  0  0  0
 20 19  1  0  0  0  0
 21 13  2  0  0  0  0
 22 21  1  0  0  0  0
 23  3  1  0  0  0  0
 24 25  1  0  0  0  0
 24 23  1  0  0  0  0
M  END
