3,4
q = -1.0, confidence = 0.018

 68 69  0  0  0  0  0  0  0  0999 V2000
    1.7256   -0.0320    4.3691 O   0  0  0  0  0  0  0  0  0  0  0  0
   -0.4450   -0.0360    4.6084 O   0  0  0  0  0  0  0  0  0  0  0  0
    1.6800   -0.0046    0.3713 N   0  0  0  0  0  2  0  0  0  0  0  0
   -1.2644   -0.0067    0.7102 N   0  0  0  0  0  2  0  0  0  0  0  0
    0.5769   -0.0297    3.9055 N   0  0  0  0  0  0  0  0  0  0  0  0
    0.4142   -0.0194    2.4560 C   0  0  0  0  0  0  0  0  0  0  0  0
    1.6090   -0.0135    1.6904 C   0  0  0  0  0  3  0  0  0  0  0  0
   -0.9240   -0.0146    1.9803 C   0  0  0  0  0  0  0  0  0  0  0  0
    2.9609    0.0014   -0.2559 C   0  0  0  0  0  0  0  0  0  0  0  0
    3.5719   -1.2373   -0.5924 C   0  0  0  0  0  0  0  0  0  0  0  0
    4.8016   -1.2026   -1.2750 C   0  0  0  0  0  0  0  0  0  0  0  0
    5.4099    0.0138   -1.6109 C   0  0  0  0  0  0  0  0  0  0  0  0
    4.7971    1.2239   -1.2608 C   0  0  0  0  0  0  0  0  0  0  0  0
    3.5674    1.2461   -0.5777 C   0  0  0  0  0  0  0  0  0  0  0  0
    2.8741   -2.5531   -0.2587 C   0  0  0  0  0  0  0  0  0  0  0  0
    3.8327   -3.7358   -0.0791 C   0  0  0  0  0  0  0  0  0  0  0  0
    1.7984   -2.8750   -1.3134 C   0  0  0  0  0  0  0  0  0  0  0  0
    2.8649    2.5554   -0.2283 C   0  0  0  0  0  0  0  0  0  0  0  0
    3.8196    3.7389   -0.0334 C   0  0  0  0  0  0  0  0  0  0  0  0
    1.7889    2.8869   -1.2796 C   0  0  0  0  0  0  0  0  0  0  0  0
   -2.6143    0.0001    0.2983 C   0  0  0  0  0  0  0  0  0  0  0  0
   -3.2447    1.2435    0.0144 C   0  0  0  0  0  0  0  0  0  0  0  0
   -4.5677    1.2257   -0.4630 C   0  0  0  0  0  0  0  0  0  0  0  0
   -5.2399    0.0148   -0.6914 C   0  0  0  0  0  0  0  0  0  0  0  0
   -4.5765   -1.2033   -0.4757 C   0  0  0  0  0  0  0  0  0  0  0  0
   -3.2536   -1.2357    0.0013 C   0  0  0  0  0  0  0  0  0  0  0  0
   -2.4711    2.5393    0.2186 C   0  0  0  0  0  0  0  0  0  0  0  0
   -2.7998    3.6130   -0.8265 C   0  0  0  0  0  0  0  0  0  0  0  0
   -2.6492    3.0814    1.6484 C   0  0  0  0  0  0  0  0  0  0  0  0
   -2.4892   -2.5391    0.1917 C   0  0  0  0  0  0  0  0  0  0  0  0
   -2.6696   -3.0943    1.6161 C   0  0  0  0  0  0  0  0  0  0  0  0
   -2.8271   -3.5998   -0.8636 C   0  0  0  0  0  0  0  0  0  0  0  0
    2.5442   -0.0167    2.2827 H   0  0  0  0  0  0  0  0  0  0  0  0
   -1.7017   -0.0178    2.7677 H   0  0  0  0  0  0  0  0  0  0  0  0
    5.2977   -2.1464   -1.5437 H   0  0  0  0  0  0  0  0  0  0  0  0
    6.3741    0.0187   -2.1414 H   0  0  0  0  0  0  0  0  0  0  0  0
    5.2898    2.1727   -1.5183 H   0  0  0  0  0  0  0  0  0  0  0  0
    2.3473   -2.4070    0.7077 H   0  0  0  0  0  0  0  0  0  0  0  0
    4.3203   -4.0232   -1.0337 H   0  0  0  0  0  0  0  0  0  0  0  0
    3.2790   -4.6260    0.2816 H   0  0  0  0  0  0  0  0  0  0  0  0
    4.6308   -3.5073    0.6553 H   0  0  0  0  0  0  0  0  0  0  0  0
    1.0685   -2.0412   -1.4111 H   0  0  0  0  0  0  0  0  0  0  0  0
    1.2319   -3.7899   -1.0422 H   0  0  0  0  0  0  0  0  0  0  0  0
    2.2587   -3.0313   -2.3108 H   0  0  0  0  0  0  0  0  0  0  0  0
    2.3380    2.3955    0.7359 H   0  0  0  0  0  0  0  0  0  0  0  0
    4.6179    3.5039    0.6987 H   0  0  0  0  0  0  0  0  0  0  0  0
    3.2628    4.6227    0.3379 H   0  0  0  0  0  0  0  0  0  0  0  0
    4.3069    4.0397   -0.9840 H   0  0  0  0  0  0  0  0  0  0  0  0
    2.2493    3.0573   -2.2746 H   0  0  0  0  0  0  0  0  0  0  0  0
    1.2190    3.7963   -0.9973 H   0  0  0  0  0  0  0  0  0  0  0  0
    1.0618    2.0519   -1.3883 H   0  0  0  0  0  0  0  0  0  0  0  0
   -5.0811    2.1774   -0.6670 H   0  0  0  0  0  0  0  0  0  0  0  0
   -6.2808    0.0204   -1.0491 H   0  0  0  0  0  0  0  0  0  0  0  0
   -5.0968   -2.1491   -0.6896 H   0  0  0  0  0  0  0  0  0  0  0  0
   -1.3976    2.2737    0.0947 H   0  0  0  0  0  0  0  0  0  0  0  0
   -2.6907    3.2219   -1.8586 H   0  0  0  0  0  0  0  0  0  0  0  0
   -2.1148    4.4780   -0.7166 H   0  0  0  0  0  0  0  0  0  0  0  0
   -3.8333    4.0022   -0.7165 H   0  0  0  0  0  0  0  0  0  0  0  0
   -3.7133    3.3294    1.8430 H   0  0  0  0  0  0  0  0  0  0  0  0
   -2.0488    4.0021    1.7994 H   0  0  0  0  0  0  0  0  0  0  0  0
   -2.3337    2.3425    2.4108 H   0  0  0  0  0  0  0  0  0  0  0  0
   -1.4140   -2.2799    0.0691 H   0  0  0  0  0  0  0  0  0  0  0  0
   -2.3474   -2.3659    2.3857 H   0  0  0  0  0  0  0  0  0  0  0  0
   -2.0761   -4.0211    1.7569 H   0  0  0  0  0  0  0  0  0  0  0  0
   -3.7353   -3.3362    1.8097 H   0  0  0  0  0  0  0  0  0  0  0  0
   -3.8633   -3.9825   -0.7561 H   0  0  0  0  0  0  0  0  0  0  0  0
   -2.1485   -4.4710   -0.7632 H   0  0  0  0  0  0  0  0  0  0  0  0
   -2.7165   -3.1994   -1.8920 H   0  0  0  0  0  0  0  0  0  0  0  0
  3  7  1  0  0  0  0
  4  8  1  0  0  0  0
  5  1  2  0  0  0  0
  5  2  2  0  0  0  0
  6  5  1  0  0  0  0
  7 33  1  0  0  0  0
  7  6  1  0  0  0  0
  8  6  2  0  0  0  0
  8 34  1  0  0  0  0
  9  3  1  0  0  0  0
 10 15  1  0  0  0  0
 10  9  2  0  0  0  0
 11 10  1  0  0  0  0
 12 11  2  0  0  0  0
 12 13  1  0  0  0  0
 13 14  2  0  0  0  0
 14  9  1  0  0  0  0
 14 18  1  0  0  0  0
 15 16  1  0  0  0  0
 15 38  1  0  0  0  0
 16 40  1  0  0  0  0
 16 41  1  0  0  0  0
 17 43  1  0  0  0  0
 17 15  1  0  0  0  0
 18 19  1  0  0  0  0
 18 45  1  0  0  0  0
 19 47  1  0  0  0  0
 19 46  1  0  0  0  0
 20 50  1  0  0  0  0
 20 18  1  0  0  0  0
 21  4  1  0  0  0  0
 22 27  1  0  0  0  0
 22 21  1  0  0  0  0
 23 22  2  0  0  0  0
 24 25  2  0  0  0  0
 24 23  1  0  0  0  0
 25 26  1  0  0  0  0
 26 30  1  0  0  0  0
 26 21  2  0  0  0  0
 27 29  1  0  0  0  0
 28 57  1  0  0  0  0
 28 58  1  0  0  0  0
 28 27  1  0  0  0  0
 29 60  1  0  0  0  0
 29 59  1  0  0  0  0
 29 61  1  0  0  0  0
 30 31  1  0  0  0  0
 31 64  1  0  0  0  0
 31 65  1  0  0  0  0
 31 63  1  0  0  0  0
 32 67  1  0  0  0  0
 32 66  1  0  0  0  0
 32 30  1  0  0  0  0
 35 11  1  0  0  0  0
 36 12  1  0  0  0  0
 37 13  1  0  0  0  0
 39 16  1  0  0  0  0
 42 17  1  0  0  0  0
 44 17  1  0  0  0  0
 48 19  1  0  0  0  0
 49 20  1  0  0  0  0
 51 20  1  0  0  0  0
 52 23  1  0  0  0  0
 53 24  1  0  0  0  0
 54 25  1  0  0  0  0
 55 27  1  0  0  0  0
 56 28  1  0  0  0  0
 62 30  1  0  0  0  0
 68 32  1  0  0  0  0
M  END
