1,2
q = 0.0, confidence = 0.998

 21 20  0  0  1  0  0  0  0  0999 V2000
    1.1164   -1.4432   -0.1644 N   0  0  0  0  0  0  0  0  0  0  0  0
    0.8739    1.3658   -0.0476 N   0  0  0  0  0  0  0  0  0  0  0  0
    2.2831   -0.6736    0.3366 C   0  0  2  0  0  0  0  0  0  0  0  0
    2.1917    0.7176   -0.2984 C   0  0  0  0  0  0  0  0  0  0  0  0
    3.6207   -1.3584    0.0600 C   0  0  0  0  0  0  0  0  0  0  0  0
    0.8130    1.9903    1.2943 C   0  0  0  0  0  0  0  0  0  0  0  0
    0.5769    2.3820   -1.0817 C   0  0  0  0  0  0  0  0  0  0  0  0
    0.9089   -2.2959    0.3792 H   0  0  0  0  0  0  0  0  0  0  0  0
    1.2547   -1.7434   -1.1424 H   0  0  0  0  0  0  0  0  0  0  0  0
    2.1373   -0.5802    1.4331 H   0  0  0  0  0  0  0  0  0  0  0  0
    3.0202    1.3720    0.0562 H   0  0  0  0  0  0  0  0  0  0  0  0
    2.3065    0.6106   -1.3976 H   0  0  0  0  0  0  0  0  0  0  0  0
    4.4615   -0.7821    0.4939 H   0  0  0  0  0  0  0  0  0  0  0  0
    3.8027   -1.4556   -1.0310 H   0  0  0  0  0  0  0  0  0  0  0  0
    3.6422   -2.3730    0.5045 H   0  0  0  0  0  0  0  0  0  0  0  0
   -0.2226    2.3454    1.4543 H   0  0  0  0  0  0  0  0  0  0  0  0
    1.5354    2.8362    1.3635 H   0  0  0  0  0  0  0  0  0  0  0  0
    1.0447    1.2413    2.0740 H   0  0  0  0  0  0  0  0  0  0  0  0
    0.6058    1.9081   -2.0804 H   0  0  0  0  0  0  0  0  0  0  0  0
    1.3163    3.2142   -1.0381 H   0  0  0  0  0  0  0  0  0  0  0  0
   -0.4490    2.7564   -0.9034 H   0  0  0  0  0  0  0  0  0  0  0  0
  1  3  1  0  0  0  0
  1  8  1  0  0  0  0
  2  6  1  0  0  0  0
  3 10  1  1  0  0  0
  4  2  1  0  0  0  0
  4 11  1  0  0  0  0
  4  3  1  0  0  0  0
  5  3  1  0  0  0  0
  5 13  1  0  0  0  0
  5 15  1  0  0  0  0
  6 17  1  0  0  0  0
  6 16  1  0  0  0  0
  6 18  1  0  0  0  0
  7 20  1  0  0  0  0
  7 21  1  0  0  0  0
  7  2  1  0  0  0  0
  9  1  1  0  0  0  0
 12  4  1  0  0  0  0
 14  5  1  0  0  0  0
 19  7  1  0  0  0  0
M  END
