2,3
q = -1.0

 44 44  0  0  0  0  0  0  0  0999 V2000
    0.6710   -0.0000    0.0145 C   0  0  0  0  0  3  0  0  0  0  0  0
   -0.0471    1.1242   -0.0610 N   0  0  0  0  0  2  0  0  0  0  0  0
   -0.0472   -1.1242   -0.0609 N   0  0  0  0  0  2  0  0  0  0  0  0
    0.5500    2.7449   -0.5209 Si  0  0  0  0  0  0  0  0  0  0  0  0
    0.5499   -2.7449   -0.5209 Si  0  0  0  0  0  0  0  0  0  0  0  0
    2.0584    3.2585    0.5022 C   0  0  0  0  0  0  0  0  0  0  0  0
    0.9560    2.7098   -2.3667 C   0  0  0  0  0  0  0  0  0  0  0  0
   -0.7996    4.0273   -0.2531 C   0  0  0  0  0  0  0  0  0  0  0  0
   -0.7999   -4.0272   -0.2536 C   0  0  0  0  0  0  0  0  0  0  0  0
    0.9563   -2.7096   -2.3667 C   0  0  0  0  0  0  0  0  0  0  0  0
    2.0581   -3.2587    0.5023 C   0  0  0  0  0  0  0  0  0  0  0  0
    2.1596   -0.0000    0.1925 C   0  0  0  0  0  0  0  0  0  0  0  0
    3.0390    0.0001   -0.9021 C   0  0  0  0  0  0  0  0  0  0  0  0
    4.4308    0.0001   -0.7158 C   0  0  0  0  0  0  0  0  0  0  0  0
    4.9609   -0.0001    0.5916 C   0  0  0  0  0  0  0  0  0  0  0  0
    4.0809   -0.0002    1.6975 C   0  0  0  0  0  0  0  0  0  0  0  0
    2.7009   -0.0001    1.4962 C   0  0  0  0  0  0  0  0  0  0  0  0
    6.2878   -0.0001    0.8859 O   0  0  0  0  0  0  0  0  0  0  0  0
    7.2151    0.0000   -0.1835 C   0  0  0  0  0  0  0  0  0  0  0  0
    2.9645    2.6697    0.2619 H   0  0  0  0  0  0  0  0  0  0  0  0
    2.2791    4.3288    0.3046 H   0  0  0  0  0  0  0  0  0  0  0  0
    1.8591    3.1493    1.5879 H   0  0  0  0  0  0  0  0  0  0  0  0
    0.0759    2.3161   -2.9144 H   0  0  0  0  0  0  0  0  0  0  0  0
    1.1797    3.7281   -2.7467 H   0  0  0  0  0  0  0  0  0  0  0  0
    1.8283    2.0641   -2.5894 H   0  0  0  0  0  0  0  0  0  0  0  0
   -1.6966    3.7713   -0.8462 H   0  0  0  0  0  0  0  0  0  0  0  0
   -1.0889    4.1297    0.8112 H   0  0  0  0  0  0  0  0  0  0  0  0
   -0.4238    5.0135   -0.5961 H   0  0  0  0  0  0  0  0  0  0  0  0
   -1.6968   -3.7709   -0.8467 H   0  0  0  0  0  0  0  0  0  0  0  0
   -0.4242   -5.0134   -0.5968 H   0  0  0  0  0  0  0  0  0  0  0  0
   -1.0893   -4.1299    0.8107 H   0  0  0  0  0  0  0  0  0  0  0  0
    0.0763   -2.3157   -2.9145 H   0  0  0  0  0  0  0  0  0  0  0  0
    1.8286   -2.0640   -2.5891 H   0  0  0  0  0  0  0  0  0  0  0  0
    1.1799   -3.7279   -2.7468 H   0  0  0  0  0  0  0  0  0  0  0  0
    2.9643   -2.6699    0.2622 H   0  0  0  0  0  0  0  0  0  0  0  0
    1.8586   -3.1497    1.5880 H   0  0  0  0  0  0  0  0  0  0  0  0
    2.2788   -4.3290    0.3047 H   0  0  0  0  0  0  0  0  0  0  0  0
    2.6348    0.0002   -1.9249 H   0  0  0  0  0  0  0  0  0  0  0  0
    5.0897    0.0001   -1.5940 H   0  0  0  0  0  0  0  0  0  0  0  0
    4.5145   -0.0002    2.7078 H   0  0  0  0  0  0  0  0  0  0  0  0
    2.0225   -0.0002    2.3631 H   0  0  0  0  0  0  0  0  0  0  0  0
    8.2213   -0.0000    0.2748 H   0  0  0  0  0  0  0  0  0  0  0  0
    7.1095   -0.9043   -0.8241 H   0  0  0  0  0  0  0  0  0  0  0  0
    7.1095    0.9045   -0.8239 H   0  0  0  0  0  0  0  0  0  0  0  0
  1 12  1  0  0  0  0
  2  1  1  0  0  0  0
  3  1  1  0  0  0  0
  4  8  1  0  0  0  0
  4  2  1  0  0  0  0
  4  6  1  0  0  0  0
  5  9  1  0  0  0  0
  5  3  1  0  0  0  0
  5 11  1  0  0  0  0
  6 22  1  0  0  0  0
  7  4  1  0  0  0  0
  8 27  1  0  0  0  0
  9 31  1  0  0  0  0
 10  5  1  0  0  0  0
 11 36  1  0  0  0  0
 12 17  1  0  0  0  0
 13 14  1  0  0  0  0
 13 12  2  0  0  0  0
 14 15  2  0  0  0  0
 15 18  1  0  0  0  0
 15 16  1  0  0  0  0
 16 40  1  0  0  0  0
 17 16  2  0  0  0  0
 17 41  1  0  0  0  0
 19 42  1  0  0  0  0
 19 18  1  0  0  0  0
 20  6  1  0  0  0  0
 21  6  1  0  0  0  0
 23  7  1  0  0  0  0
 24  7  1  0  0  0  0
 25  7  1  0  0  0  0
 26  8  1  0  0  0  0
 28  8  1  0  0  0  0
 29  9  1  0  0  0  0
 30  9  1  0  0  0  0
 32 10  1  0  0  0  0
 33 10  1  0  0  0  0
 34 10  1  0  0  0  0
 35 11  1  0  0  0  0
 37 11  1  0  0  0  0
 38 13  1  0  0  0  0
 39 14  1  0  0  0  0
 43 19  1  0  0  0  0
 44 19  1  0  0  0  0
M  END
