3,6
q = -1.0, confidence = 0.0

 26 27  0  0  1  0  0  0  0  0999 V2000
   -2.0508   -0.4644   -3.8802 O   0  0  0  0  0  0  0  0  0  0  0  0
   -1.3173   -1.5737   -1.9894 N   0  0  0  0  0  0  0  0  0  0  0  0
   -1.4034   -1.7782   -0.6675 N   0  0  0  0  0  2  0  0  0  0  0  0
   -3.4515   -0.6120   -2.0344 N   0  0  0  0  0  0  0  0  0  0  0  0
   -3.6683   -0.9886   -0.7631 N   0  0  0  0  0  0  0  0  0  0  0  0
   -1.5207   -1.5947    2.0301 N   0  0  0  0  0  2  0  0  0  0  0  0
   -3.7493   -1.6891    2.1643 N   0  0  0  0  0  0  0  0  0  0  0  0
   -2.6335   -1.4891   -0.1187 C   0  0  0  0  0  0  0  0  0  0  0  0
   -2.2462   -0.8166   -2.7308 C   0  0  0  0  0  0  0  0  0  0  0  0
   -0.1241   -2.0589   -2.6782 C   0  0  0  0  0  0  0  0  0  0  0  0
   -0.4290   -2.5319   -3.6303 H   0  0  0  0  0  0  0  0  0  0  0  0
    0.3824   -2.7663   -2.0004 H   0  0  0  0  0  0  0  0  0  0  0  0
    0.5560   -1.2096   -2.8821 H   0  0  0  0  0  0  0  0  0  0  0  0
   -4.5093    0.1680   -2.6604 C   0  0  0  0  0  0  0  0  0  0  0  0
   -4.2795    0.2616   -3.7353 H   0  0  0  0  0  0  0  0  0  0  0  0
   -4.5458    1.1731   -2.1918 H   0  0  0  0  0  0  0  0  0  0  0  0
   -5.4769   -0.3451   -2.5050 H   0  0  0  0  0  0  0  0  0  0  0  0
   -2.6610   -1.6432    1.3347 C   0  0  1  0  0  3  0  0  0  0  0  0
   -1.8739   -1.6102    3.3505 C   0  0  0  0  0  0  0  0  0  0  0  0
   -1.1272   -1.5673    4.1511 H   0  0  0  0  0  0  0  0  0  0  0  0
   -3.2571   -1.6746    3.4565 C   0  0  0  0  0  0  0  0  0  0  0  0
   -3.9255   -1.7168    4.3226 H   0  0  0  0  0  0  0  0  0  0  0  0
   -5.1536   -1.6843    1.7809 C   0  0  0  0  0  0  0  0  0  0  0  0
   -5.7634   -1.9689    2.6572 H   0  0  0  0  0  0  0  0  0  0  0  0
   -5.3278   -2.4065    0.9626 H   0  0  0  0  0  0  0  0  0  0  0  0
   -5.4540   -0.6804    1.4236 H   0  0  0  0  0  0  0  0  0  0  0  0
  1  9  2  0  0  0  0
  2  3  1  0  0  0  0
  3  8  1  0  0  0  0
  4  5  1  0  0  0  0
  5  8  2  0  0  0  0
  6 19  1  0  0  0  0
  7 21  1  0  0  0  0
  9  4  1  0  0  0  0
  9  2  1  0  0  0  0
 10 12  1  0  0  0  0
 10  2  1  0  0  0  0
 11 10  1  0  0  0  0
 13 10  1  0  0  0  0
 14 17  1  0  0  0  0
 14 16  1  0  0  0  0
 14  4  1  0  0  0  0
 15 14  1  0  0  0  0
 18  8  1  6  0  0  0
 18  6  1  0  0  0  0
 18  7  1  0  0  0  0
 19 21  2  0  0  0  0
 19 20  1  0  0  0  0
 21 22  1  0  0  0  0
 23  7  1  0  0  0  0
 23 24  1  0  0  0  0
 25 23  1  0  0  0  0
 26 23  1  0  0  0  0
M  END
