1,2
q = 0.0, confidence = 1.0

 31 33  0  0  1  0  0  0  0  0999 V2000
   -2.4247    0.8996    0.2281 N   0  0  0  0  0  2  0  0  0  0  0  0
   -0.0934   -0.1328   -0.4768 N   0  0  0  0  0  2  0  0  0  0  0  0
    1.1792   -0.5317   -0.5205 N   0  0  0  0  0  0  0  0  0  0  0  0
   -3.6854    1.3348    0.3618 C   0  0  0  0  0  3  0  0  0  0  0  0
   -4.4581    0.5483    0.3727 H   0  0  0  0  0  0  0  0  0  0  0  0
   -3.9919    2.6990    0.4558 C   0  0  0  0  0  0  0  0  0  0  0  0
   -5.0345    3.0232    0.5808 H   0  0  0  0  0  0  0  0  0  0  0  0
   -2.9409    3.6274    0.3825 C   0  0  0  0  0  0  0  0  0  0  0  0
   -3.1452    4.7065    0.4511 H   0  0  0  0  0  0  0  0  0  0  0  0
   -1.6296    3.1717    0.1974 C   0  0  0  0  0  0  0  0  0  0  0  0
   -0.7902    3.8743    0.0967 H   0  0  0  0  0  0  0  0  0  0  0  0
   -1.4032    1.7855    0.1162 C   0  0  0  0  0  0  0  0  0  0  0  0
   -0.0926    1.1673   -0.1098 C   0  0  1  0  0  3  0  0  0  0  0  0
    1.2376    1.6177    0.0493 C   0  0  0  0  0  0  0  0  0  0  0  0
    1.5914    2.6007    0.3743 H   0  0  0  0  0  0  0  0  0  0  0  0
    2.0407    0.4932   -0.1998 C   0  0  0  0  0  0  0  0  0  0  0  0
    3.5039    0.3557   -0.1149 C   0  0  0  0  0  0  0  0  0  0  0  0
    4.1026   -0.6858    0.6309 C   0  0  0  0  0  0  0  0  0  0  0  0
    3.4681   -1.4066    1.1680 H   0  0  0  0  0  0  0  0  0  0  0  0
    5.4981   -0.7782    0.7227 C   0  0  0  0  0  0  0  0  0  0  0  0
    5.9516   -1.5907    1.3102 H   0  0  0  0  0  0  0  0  0  0  0  0
    6.3135    0.1695    0.0839 C   0  0  0  0  0  0  0  0  0  0  0  0
    7.4088    0.0949    0.1593 H   0  0  0  0  0  0  0  0  0  0  0  0
    5.7272    1.2164   -0.6454 C   0  0  0  0  0  0  0  0  0  0  0  0
    6.3616    1.9629   -1.1465 H   0  0  0  0  0  0  0  0  0  0  0  0
    4.3328    1.3099   -0.7457 C   0  0  0  0  0  0  0  0  0  0  0  0
    3.8707    2.1198   -1.3301 H   0  0  0  0  0  0  0  0  0  0  0  0
    1.4497   -1.9219   -0.8514 C   0  0  0  0  0  0  0  0  0  0  0  0
    1.0303   -2.5560   -0.0408 H   0  0  0  0  0  0  0  0  0  0  0  0
    2.5370   -2.0688   -0.9607 H   0  0  0  0  0  0  0  0  0  0  0  0
    0.9409   -2.1685   -1.8031 H   0  0  0  0  0  0  0  0  0  0  0  0
  1  4  1  0  0  0  0
  2 13  1  0  0  0  0
  3  2  1  0  0  0  0
  3 16  1  0  0  0  0
  4  5  1  0  0  0  0
  4  6  1  0  0  0  0
  6  7  1  0  0  0  0
  8  9  1  0  0  0  0
  8  6  2  0  0  0  0
 10  8  1  0  0  0  0
 11 10  1  0  0  0  0
 12 10  2  0  0  0  0
 12  1  1  0  0  0  0
 13 14  1  0  0  0  0
 13 12  1  1  0  0  0
 14 15  1  0  0  0  0
 16 17  1  0  0  0  0
 16 14  2  0  0  0  0
 17 18  1  0  0  0  0
 18 20  2  0  0  0  0
 18 19  1  0  0  0  0
 20 21  1  0  0  0  0
 22 23  1  0  0  0  0
 22 20  1  0  0  0  0
 24 22  2  0  0  0  0
 25 24  1  0  0  0  0
 26 24  1  0  0  0  0
 26 17  2  0  0  0  0
 27 26  1  0  0  0  0
 28  3  1  0  0  0  0
 28 29  1  0  0  0  0
 30 28  1  0  0  0  0
 31 28  1  0  0  0  0
M  END
