1,14
q = -1.0

 60 61  0  0  1  0  0  0  0  0999 V2000
   -0.7882   -1.6315    0.1268 N   0  0  0  0  0  2  0  0  0  0  0  0
   -1.2603   -4.0520    0.2743 C   0  0  0  0  0  0  0  0  0  0  0  0
   -1.9520   -3.9706    1.1359 H   0  0  0  0  0  0  0  0  0  0  0  0
   -0.7114   -5.0072    0.3536 H   0  0  0  0  0  0  0  0  0  0  0  0
   -1.9010   -4.0885   -0.6293 H   0  0  0  0  0  0  0  0  0  0  0  0
   -0.2930   -2.8829    0.2208 C   0  0  1  0  0  3  0  0  0  0  0  0
    1.0731   -3.2126    0.2669 C   0  0  0  0  0  0  0  0  0  0  0  0
    1.3043   -4.2815    0.3521 H   0  0  0  0  0  0  0  0  0  0  0  0
    2.1798   -2.3472    0.1985 C   0  0  0  0  0  0  0  0  0  0  0  0
    3.5567   -2.9776    0.2410 C   0  0  0  0  0  0  0  0  0  0  0  0
    4.1345   -2.7351   -0.6733 H   0  0  0  0  0  0  0  0  0  0  0  0
    3.4851   -4.0760    0.3353 H   0  0  0  0  0  0  0  0  0  0  0  0
    4.1508   -2.5841    1.0899 H   0  0  0  0  0  0  0  0  0  0  0  0
    2.0727   -1.0149    0.0932 N   0  0  0  0  0  2  0  0  0  0  0  0
   -2.2169   -1.5480    0.0674 C   0  0  0  0  0  0  0  0  0  0  0  0
   -2.8549   -1.5703   -1.2022 C   0  0  0  0  0  0  0  0  0  0  0  0
   -4.2570   -1.4544   -1.2447 C   0  0  0  0  0  0  0  0  0  0  0  0
   -4.7737   -1.4610   -2.2151 H   0  0  0  0  0  0  0  0  0  0  0  0
   -5.0041   -1.3270   -0.0657 C   0  0  0  0  0  0  0  0  0  0  0  0
   -6.0996   -1.2350   -0.1179 H   0  0  0  0  0  0  0  0  0  0  0  0
   -4.3611   -1.3155    1.1789 C   0  0  0  0  0  0  0  0  0  0  0  0
   -4.9589   -1.2141    2.0962 H   0  0  0  0  0  0  0  0  0  0  0  0
   -2.9606   -1.4303    1.2712 C   0  0  0  0  0  0  0  0  0  0  0  0
   -2.0126   -1.7170   -2.4549 C   0  0  0  0  0  0  0  0  0  0  0  0
   -1.6555   -2.7702   -2.5236 H   0  0  0  0  0  0  0  0  0  0  0  0
   -1.0800   -1.1285   -2.3108 H   0  0  0  0  0  0  0  0  0  0  0  0
   -2.6861   -1.3189   -3.7664 C   0  0  0  0  0  0  0  0  0  0  0  0
   -3.0481   -0.2700   -3.7315 H   0  0  0  0  0  0  0  0  0  0  0  0
   -3.5545   -1.9640   -4.0110 H   0  0  0  0  0  0  0  0  0  0  0  0
   -1.9714   -1.3987   -4.6092 H   0  0  0  0  0  0  0  0  0  0  0  0
   -2.2366   -1.4403    2.6048 C   0  0  0  0  0  0  0  0  0  0  0  0
   -1.2464   -0.9564    2.4623 H   0  0  0  0  0  0  0  0  0  0  0  0
   -1.9887   -2.4943    2.8688 H   0  0  0  0  0  0  0  0  0  0  0  0
   -2.9769   -0.7860    3.7706 C   0  0  0  0  0  0  0  0  0  0  0  0
   -3.2470    0.2650    3.5364 H   0  0  0  0  0  0  0  0  0  0  0  0
   -2.3410   -0.7757    4.6778 H   0  0  0  0  0  0  0  0  0  0  0  0
   -3.9125   -1.3200    4.0339 H   0  0  0  0  0  0  0  0  0  0  0  0
    3.2929   -0.2664    0.0070 C   0  0  0  0  0  0  0  0  0  0  0  0
    3.8483    0.0107   -1.2691 C   0  0  0  0  0  0  0  0  0  0  0  0
    4.9873    0.8345   -1.3375 C   0  0  0  0  0  0  0  0  0  0  0  0
    5.4189    1.0629   -2.3253 H   0  0  0  0  0  0  0  0  0  0  0  0
    5.5761    1.3565   -0.1786 C   0  0  0  0  0  0  0  0  0  0  0  0
    6.4647    2.0015   -0.2518 H   0  0  0  0  0  0  0  0  0  0  0  0
    5.0393    1.0368    1.0750 C   0  0  0  0  0  0  0  0  0  0  0  0
    5.5120    1.4249    1.9915 H   0  0  0  0  0  0  0  0  0  0  0  0
    3.9011    0.2174    1.1938 C   0  0  0  0  0  0  0  0  0  0  0  0
    3.2329   -0.5331   -2.5433 C   0  0  0  0  0  0  0  0  0  0  0  0
    4.0483   -0.6843   -3.2817 H   0  0  0  0  0  0  0  0  0  0  0  0
    2.7924   -1.5331   -2.3521 H   0  0  0  0  0  0  0  0  0  0  0  0
    2.1541    0.3705   -3.1602 C   0  0  0  0  0  0  0  0  0  0  0  0
    1.2728    0.4421   -2.4882 H   0  0  0  0  0  0  0  0  0  0  0  0
    1.8097   -0.0344   -4.1336 H   0  0  0  0  0  0  0  0  0  0  0  0
    2.5369    1.3976   -3.3286 H   0  0  0  0  0  0  0  0  0  0  0  0
    3.3432   -0.1026    2.5663 C   0  0  0  0  0  0  0  0  0  0  0  0
    2.8787   -1.1098    2.5591 H   0  0  0  0  0  0  0  0  0  0  0  0
    4.1925   -0.1517    3.2799 H   0  0  0  0  0  0  0  0  0  0  0  0
    2.3103    0.9125    3.0796 C   0  0  0  0  0  0  0  0  0  0  0  0
    2.7144    1.9449    3.0566 H   0  0  0  0  0  0  0  0  0  0  0  0
    2.0143    0.6803    4.1229 H   0  0  0  0  0  0  0  0  0  0  0  0
    1.3954    0.8913    2.4517 H   0  0  0  0  0  0  0  0  0  0  0  0
  2  4  1  0  0  0  0
  2  3  1  0  0  0  0
  5  2  1  0  0  0  0
  6  1  1  6  0  0  0
  6  7  1  0  0  0  0
  6  2  1  0  0  0  0
  7  8  1  0  0  0  0
  9 10  1  0  0  0  0
  9  7  2  0  0  0  0
 10 12  1  0  0  0  0
 10 13  1  0  0  0  0
 11 10  1  0  0  0  0
 14  9  1  0  0  0  0
 15  1  1  0  0  0  0
 15 23  1  0  0  0  0
 16 15  2  0  0  0  0
 17 16  1  0  0  0  0
 17 19  2  0  0  0  0
 18 17  1  0  0  0  0
 19 21  1  0  0  0  0
 20 19  1  0  0  0  0
 21 23  2  0  0  0  0
 21 22  1  0  0  0  0
 23 31  1  0  0  0  0
 24 26  1  0  0  0  0
 24 16  1  0  0  0  0
 25 24  1  0  0  0  0
 27 28  1  0  0  0  0
 27 24  1  0  0  0  0
 29 27  1  0  0  0  0
 30 27  1  0  0  0  0
 31 33  1  0  0  0  0
 31 34  1  0  0  0  0
 32 31  1  0  0  0  0
 34 37  1  0  0  0  0
 34 36  1  0  0  0  0
 35 34  1  0  0  0  0
 38 14  1  0  0  0  0
 38 46  1  0  0  0  0
 39 38  2  0  0  0  0
 40 39  1  0  0  0  0
 40 42  2  0  0  0  0
 41 40  1  0  0  0  0
 42 44  1  0  0  0  0
 43 42  1  0  0  0  0
 44 46  2  0  0  0  0
 44 45  1  0  0  0  0
 46 54  1  0  0  0  0
 47 49  1  0  0  0  0
 47 39  1  0  0  0  0
 48 47  1  0  0  0  0
 50 47  1  0  0  0  0
 50 51  1  0  0  0  0
 52 50  1  0  0  0  0
 53 50  1  0  0  0  0
 54 57  1  0  0  0  0
 54 56  1  0  0  0  0
 55 54  1  0  0  0  0
 57 59  1  0  0  0  0
 58 57  1  0  0  0  0
 60 57  1  0  0  0  0
M  END
