1,6
q = -1.0, confidence = 0.0

 23 24  0  0  1  0  0  0  0  0999 V2000
    0.0287   -0.0145   -2.2103 N   0  0  0  0  0  2  0  0  0  0  0  0
   -0.9115   -0.8449   -1.7362 C   0  0  2  0  0  3  0  0  0  0  0  0
   -2.4273   -1.1047    0.1524 C   0  0  0  0  0  0  0  0  0  0  0  0
   -2.4944   -0.8510    1.5481 C   0  0  0  0  0  0  0  0  0  0  0  0
   -1.7517   -0.1661    1.9789 H   0  0  0  0  0  0  0  0  0  0  0  0
   -1.4404   -0.4616   -0.5793 N   0  0  0  0  0  2  0  0  0  0  0  0
    0.1929   -2.0177   -3.4695 C   0  0  0  0  0  0  0  0  0  0  0  0
    0.9861   -2.6088   -2.9673 H   0  0  0  0  0  0  0  0  0  0  0  0
    0.0627   -2.4229   -4.4915 H   0  0  0  0  0  0  0  0  0  0  0  0
   -3.4076   -1.9673   -0.4078 C   0  0  0  0  0  0  0  0  0  0  0  0
   -3.4291   -2.1436   -1.4913 H   0  0  0  0  0  0  0  0  0  0  0  0
   -4.3807   -2.5674    0.4029 C   0  0  0  0  0  0  0  0  0  0  0  0
   -5.1297   -3.2292   -0.0597 H   0  0  0  0  0  0  0  0  0  0  0  0
    0.5862   -0.5201   -3.4526 C   0  0  0  0  0  0  0  0  0  0  0  0
    1.6841   -0.3677   -3.4969 H   0  0  0  0  0  0  0  0  0  0  0  0
    0.1543    0.0269   -4.3248 H   0  0  0  0  0  0  0  0  0  0  0  0
   -3.4712   -1.4527    2.3476 C   0  0  0  0  0  0  0  0  0  0  0  0
   -3.4919   -1.2391    3.4278 H   0  0  0  0  0  0  0  0  0  0  0  0
   -1.0959   -2.0652   -2.6233 C   0  0  0  0  0  0  0  0  0  0  0  0
   -2.0064   -1.9367   -3.2491 H   0  0  0  0  0  0  0  0  0  0  0  0
   -1.2335   -2.9972   -2.0402 H   0  0  0  0  0  0  0  0  0  0  0  0
   -4.4203   -2.3235    1.7849 C   0  0  0  0  0  0  0  0  0  0  0  0
   -5.1886   -2.7971    2.4139 H   0  0  0  0  0  0  0  0  0  0  0  0
  1  2  1  0  0  0  0
  2  6  1  1  0  0  0
  3  4  1  0  0  0  0
  4  5  1  0  0  0  0
  4 17  2  0  0  0  0
  6  3  1  0  0  0  0
  7 14  1  0  0  0  0
  7  8  1  0  0  0  0
  7 19  1  0  0  0  0
  9  7  1  0  0  0  0
 10  3  2  0  0  0  0
 10 12  1  0  0  0  0
 11 10  1  0  0  0  0
 12 22  2  0  0  0  0
 13 12  1  0  0  0  0
 14  1  1  0  0  0  0
 15 14  1  0  0  0  0
 16 14  1  0  0  0  0
 17 18  1  0  0  0  0
 19 21  1  0  0  0  0
 19  2  1  0  0  0  0
 20 19  1  0  0  0  0
 22 17  1  0  0  0  0
 22 23  1  0  0  0  0
M  END
