1,2
q = -1.0

 29 30  0  0  1  0  0  0  0  0999 V2000
   -1.6028    0.4945   -0.4824 N   0  0  0  0  0  2  0  0  0  0  0  0
   -2.7770   -1.4079   -0.3505 N   0  0  0  0  0  2  0  0  0  0  0  0
   -2.8000   -0.0736   -0.3560 C   0  0  1  0  0  3  0  0  0  0  0  0
   -4.1846    0.4841   -0.0712 C   0  0  0  0  0  0  0  0  0  0  0  0
   -4.1549    1.4031    0.5456 H   0  0  0  0  0  0  0  0  0  0  0  0
   -4.6886    0.7478   -1.0267 H   0  0  0  0  0  0  0  0  0  0  0  0
   -4.8486   -0.7298    0.6089 C   0  0  0  0  0  0  0  0  0  0  0  0
   -5.9409   -0.7900    0.4374 H   0  0  0  0  0  0  0  0  0  0  0  0
   -4.6831   -0.6719    1.7046 H   0  0  0  0  0  0  0  0  0  0  0  0
   -4.0731   -1.9429    0.0357 C   0  0  0  0  0  0  0  0  0  0  0  0
   -3.9634   -2.7607    0.7779 H   0  0  0  0  0  0  0  0  0  0  0  0
   -4.5985   -2.3837   -0.8457 H   0  0  0  0  0  0  0  0  0  0  0  0
   -1.3473    1.8574   -0.5618 C   0  0  0  0  0  0  0  0  0  0  0  0
   -0.0844    2.3333   -0.1348 C   0  0  0  0  0  0  0  0  0  0  0  0
    0.6490    1.6055    0.2359 H   0  0  0  0  0  0  0  0  0  0  0  0
    0.2527    3.6962   -0.1973 C   0  0  0  0  0  0  0  0  0  0  0  0
   -0.6928    4.6083   -0.7003 C   0  0  0  0  0  0  0  0  0  0  0  0
   -0.4376    5.6789   -0.7581 H   0  0  0  0  0  0  0  0  0  0  0  0
   -1.9534    4.1687   -1.1573 C   0  0  0  0  0  0  0  0  0  0  0  0
   -2.2653    2.8012   -1.0953 C   0  0  0  0  0  0  0  0  0  0  0  0
   -3.2241    2.4564   -1.5067 H   0  0  0  0  0  0  0  0  0  0  0  0
    1.6108    4.1548    0.2782 C   0  0  0  0  0  0  0  0  0  0  0  0
    2.4170    3.5190   -0.1418 H   0  0  0  0  0  0  0  0  0  0  0  0
    1.6952    4.0860    1.3845 H   0  0  0  0  0  0  0  0  0  0  0  0
    1.8117    5.2063   -0.0050 H   0  0  0  0  0  0  0  0  0  0  0  0
   -2.9471    5.1609   -1.7122 C   0  0  0  0  0  0  0  0  0  0  0  0
   -3.8197    4.6558   -2.1705 H   0  0  0  0  0  0  0  0  0  0  0  0
   -2.4841    5.8108   -2.4832 H   0  0  0  0  0  0  0  0  0  0  0  0
   -3.3297    5.8343   -0.9156 H   0  0  0  0  0  0  0  0  0  0  0  0
  2 10  1  0  0  0  0
  3  1  1  1  0  0  0
  3  2  1  0  0  0  0
  3  4  1  0  0  0  0
  4  5  1  0  0  0  0
  4  7  1  0  0  0  0
  6  4  1  0  0  0  0
  7  9  1  0  0  0  0
  8  7  1  0  0  0  0
 10  7  1  0  0  0  0
 10 11  1  0  0  0  0
 12 10  1  0  0  0  0
 13  1  1  0  0  0  0
 13 14  1  0  0  0  0
 14 15  1  0  0  0  0
 16 14  2  0  0  0  0
 16 22  1  0  0  0  0
 17 16  1  0  0  0  0
 18 17  1  0  0  0  0
 19 20  1  0  0  0  0
 19 17  2  0  0  0  0
 20 13  2  0  0  0  0
 21 20  1  0  0  0  0
 22 24  1  0  0  0  0
 23 22  1  0  0  0  0
 25 22  1  0  0  0  0
 26 19  1  0  0  0  0
 26 29  1  0  0  0  0
 27 26  1  0  0  0  0
 28 26  1  0  0  0  0
M  END
