1,2
q = 0.0, confidence = 0.994

 36 38  0  0  0  0  0  0  0  0999 V2000
    1.1342    0.7451    0.0510 N   0  0  0  0  0  2  0  0  0  0  0  0
   -1.5093    0.5297   -0.0092 N   0  0  0  0  0  2  0  0  0  0  0  0
    2.5595    0.7942    0.1359 C   0  0  0  0  0  0  0  0  0  0  0  0
    3.3126    0.9630   -1.0504 C   0  0  0  0  0  0  0  0  0  0  0  0
    4.7121    1.0240   -0.9247 C   0  0  0  0  0  0  0  0  0  0  0  0
    5.3209    1.1456   -1.8339 H   0  0  0  0  0  0  0  0  0  0  0  0
    5.3316    0.9113    0.3271 C   0  0  0  0  0  0  0  0  0  0  0  0
    6.4281    0.9632    0.4033 H   0  0  0  0  0  0  0  0  0  0  0  0
    4.5595    0.7073    1.4786 C   0  0  0  0  0  0  0  0  0  0  0  0
    5.0474    0.5905    2.4586 H   0  0  0  0  0  0  0  0  0  0  0  0
    3.1579    0.6271    1.4069 C   0  0  0  0  0  0  0  0  0  0  0  0
    2.6398    0.9837   -2.3980 C   0  0  0  0  0  0  0  0  0  0  0  0
    2.0382    0.0595   -2.5344 H   0  0  0  0  0  0  0  0  0  0  0  0
    3.3878    1.0353   -3.2109 H   0  0  0  0  0  0  0  0  0  0  0  0
    1.9472    1.8415   -2.5236 H   0  0  0  0  0  0  0  0  0  0  0  0
    2.3147    0.3279    2.6153 C   0  0  0  0  0  0  0  0  0  0  0  0
    1.5086    1.0751    2.7648 H   0  0  0  0  0  0  0  0  0  0  0  0
    2.9299    0.2920    3.5337 H   0  0  0  0  0  0  0  0  0  0  0  0
    1.8203   -0.6588    2.4819 H   0  0  0  0  0  0  0  0  0  0  0  0
    0.4604    1.8498   -0.1342 C   0  0  0  0  0  0  0  0  0  0  0  0
    0.9773    2.8232   -0.2083 H   0  0  0  0  0  0  0  0  0  0  0  0
   -0.9833    1.7723   -0.1780 C   0  0  0  0  0  0  0  0  0  0  0  0
   -1.7806    2.9371   -0.3358 C   0  0  0  0  0  0  0  0  0  0  0  0
   -1.2847    3.9053   -0.4932 H   0  0  0  0  0  0  0  0  0  0  0  0
   -3.1556    2.8217   -0.2944 C   0  0  0  0  0  0  0  0  0  0  0  0
   -3.8051    3.6988   -0.4361 H   0  0  0  0  0  0  0  0  0  0  0  0
   -3.7415    1.5533   -0.0307 C   0  0  0  0  0  0  0  0  0  0  0  0
   -2.8741    0.4035    0.1333 C   0  0  0  0  0  0  0  0  0  0  0  0
   -3.4555   -0.8481    0.4798 C   0  0  0  0  0  0  0  0  0  0  0  0
   -2.7917   -1.7146    0.6072 H   0  0  0  0  0  0  0  0  0  0  0  0
   -4.8316   -0.9640    0.6140 C   0  0  0  0  0  0  0  0  0  0  0  0
   -5.2622   -1.9395    0.8854 H   0  0  0  0  0  0  0  0  0  0  0  0
   -5.6876    0.1499    0.4124 C   0  0  0  0  0  0  0  0  0  0  0  0
   -6.7763    0.0323    0.5191 H   0  0  0  0  0  0  0  0  0  0  0  0
   -5.1482    1.3887    0.1008 C   0  0  0  0  0  0  0  0  0  0  0  0
   -5.7947    2.2691   -0.0349 H   0  0  0  0  0  0  0  0  0  0  0  0
  1  3  1  0  0  0  0
  2 28  1  0  0  0  0
  3 11  1  0  0  0  0
  4  5  1  0  0  0  0
  4  3  2  0  0  0  0
  5  7  2  0  0  0  0
  6  5  1  0  0  0  0
  7  8  1  0  0  0  0
  7  9  1  0  0  0  0
  9 10  1  0  0  0  0
 11  9  2  0  0  0  0
 11 16  1  0  0  0  0
 12  4  1  0  0  0  0
 13 12  1  0  0  0  0
 14 12  1  0  0  0  0
 15 12  1  0  0  0  0
 16 17  1  0  0  0  0
 16 18  1  0  0  0  0
 19 16  1  0  0  0  0
 20  1  1  0  0  0  0
 21 20  1  0  0  0  0
 22 20  2  0  0  0  0
 22  2  1  0  0  0  0
 23 25  2  0  0  0  0
 23 22  1  0  0  0  0
 24 23  1  0  0  0  0
 25 27  1  0  0  0  0
 26 25  1  0  0  0  0
 27 35  2  0  0  0  0
 27 28  1  0  0  0  0
 28 29  2  0  0  0  0
 29 30  1  0  0  0  0
 29 31  1  0  0  0  0
 31 32  1  0  0  0  0
 33 34  1  0  0  0  0
 33 31  2  0  0  0  0
 35 33  1  0  0  0  0
 36 35  1  0  0  0  0
M  END
