1,2
q = -1.0

 28 29  0  0  1  0  0  0  0  0999 V2000
    0.3597    1.3882    0.0496 N   0  0  0  0  0  2  0  0  0  0  0  0
    0.9778   -1.1275   -0.3850 N   0  0  0  0  0  2  0  0  0  0  0  0
    0.6448    3.7042    0.0179 O   0  0  0  0  0  0  0  0  0  0  0  0
   -1.3841    2.7679   -0.3810 O   0  0  0  0  0  0  0  0  0  0  0  0
    5.7010   -0.3921    0.0939 O   0  0  0  0  0  0  0  0  0  0  0  0
    1.1994   -2.3894   -0.7697 C   0  0  0  0  0  0  0  0  0  0  0  0
    0.3118   -2.9824   -1.0254 H   0  0  0  0  0  0  0  0  0  0  0  0
    2.5018   -2.9296   -0.8458 C   0  0  0  0  0  0  0  0  0  0  0  0
    2.6300   -3.9746   -1.1608 H   0  0  0  0  0  0  0  0  0  0  0  0
    3.5915   -2.1327   -0.5197 C   0  0  0  0  0  0  0  0  0  0  0  0
    4.6195   -2.5192   -0.5518 H   0  0  0  0  0  0  0  0  0  0  0  0
    3.3820   -0.7748   -0.1629 C   0  0  0  0  0  0  0  0  0  0  0  0
    2.0332   -0.2891   -0.1250 C   0  0  1  0  0  3  0  0  0  0  0  0
    1.7146    1.0829    0.1324 C   0  0  0  0  0  0  0  0  0  0  0  0
    2.7946    1.9439    0.3960 C   0  0  0  0  0  0  0  0  0  0  0  0
    2.5851    3.0040    0.5728 H   0  0  0  0  0  0  0  0  0  0  0  0
    4.1290    1.4709    0.4038 C   0  0  0  0  0  0  0  0  0  0  0  0
    4.9267    2.1941    0.6216 H   0  0  0  0  0  0  0  0  0  0  0  0
    4.4435    0.1393    0.1287 C   0  0  0  0  0  0  0  0  0  0  0  0
    6.7914    0.4728    0.3378 C   0  0  0  0  0  0  0  0  0  0  0  0
    6.8386    1.2996   -0.4067 H   0  0  0  0  0  0  0  0  0  0  0  0
    7.7070   -0.1416    0.2534 H   0  0  0  0  0  0  0  0  0  0  0  0
    6.7470    0.9184    1.3576 H   0  0  0  0  0  0  0  0  0  0  0  0
   -0.0461    2.6919   -0.0896 C   0  0  0  0  0  0  0  0  0  0  0  0
   -1.8549    4.0899   -0.6158 C   0  0  0  0  0  0  0  0  0  0  0  0
   -1.7117    4.7392    0.2734 H   0  0  0  0  0  0  0  0  0  0  0  0
   -2.9315    3.9942   -0.8511 H   0  0  0  0  0  0  0  0  0  0  0  0
   -1.3243    4.5596   -1.4691 H   0  0  0  0  0  0  0  0  0  0  0  0
  1 14  1  0  0  0  0
  4 24  1  0  0  0  0
  5 19  1  0  0  0  0
  5 20  1  0  0  0  0
  6  2  1  0  0  0  0
  7  6  1  0  0  0  0
  8  6  2  0  0  0  0
  8 10  1  0  0  0  0
  9  8  1  0  0  0  0
 10 12  2  0  0  0  0
 11 10  1  0  0  0  0
 12 13  1  0  0  0  0
 12 19  1  0  0  0  0
 13  2  1  6  0  0  0
 13 14  1  0  0  0  0
 14 15  2  0  0  0  0
 15 17  1  0  0  0  0
 15 16  1  0  0  0  0
 17 18  1  0  0  0  0
 19 17  2  0  0  0  0
 20 23  1  0  0  0  0
 21 20  1  0  0  0  0
 22 20  1  0  0  0  0
 24  3  2  0  0  0  0
 24  1  1  0  0  0  0
 25  4  1  0  0  0  0
 25 26  1  0  0  0  0
 27 25  1  0  0  0  0
 28 25  1  0  0  0  0
M  END
