1,10
q = 0.0, confidence = 0.994

 18 19  0  0  0  0  0  0  0  0999 V2000
    0.3951    1.6091    0.4187 N   0  0  0  0  0  2  0  0  0  0  0  0
    1.4225    2.3617    0.8366 C   0  0  0  0  0  3  0  0  0  0  0  0
    1.3240    3.7457    1.1658 C   0  0  0  0  0  0  0  0  0  0  0  0
    0.0194    4.1450    0.9623 C   0  0  0  0  0  3  0  0  0  0  0  0
   -0.9832    3.4770    0.5646 C   0  0  0  0  0  3  0  0  0  0  0  0
   -3.2381    1.6935   -0.4343 C   0  0  0  0  0  0  0  0  0  0  0  0
   -4.2084    0.8019   -0.9037 C   0  0  0  0  0  0  0  0  0  0  0  0
   -3.8466   -0.5325   -1.1359 C   0  0  0  0  0  0  0  0  0  0  0  0
   -2.5289   -0.9319   -0.8798 C   0  0  0  0  0  3  0  0  0  0  0  0
   -1.5936   -0.0742   -0.4338 N   0  0  0  0  0  2  0  0  0  0  0  0
   -1.9326    1.2227   -0.2141 C   0  0  0  0  0  0  0  0  0  0  0  0
   -0.8687    2.1178    0.2556 C   0  0  0  0  0  0  0  0  0  0  0  0
    2.3998    1.8608    0.8999 H   0  0  0  0  0  0  0  0  0  0  0  0
   -3.4654    2.7511   -0.2374 H   0  0  0  0  0  0  0  0  0  0  0  0
   -4.5743   -1.2695   -1.5027 H   0  0  0  0  0  0  0  0  0  0  0  0
    2.1928    4.3241    1.5056 H   0  0  0  0  0  0  0  0  0  0  0  0
   -5.2371    1.1453   -1.0873 H   0  0  0  0  0  0  0  0  0  0  0  0
   -2.2064   -1.9720   -1.0220 H   0  0  0  0  0  0  0  0  0  0  0  0
  1  2  1  0  0  0  0
  2 13  1  0  0  0  0
  2  3  1  0  0  0  0
  3 16  1  0  0  0  0
  4  3  2  0  0  0  0
  5  4  1  0  0  0  0
  6 14  1  0  0  0  0
  6 11  2  0  0  0  0
  7  6  1  0  0  0  0
  8  7  2  0  0  0  0
  8  9  1  0  0  0  0
  9 10  1  0  0  0  0
 10 11  1  0  0  0  0
 11 12  1  0  0  0  0
 12  1  1  0  0  0  0
 12  5  2  0  0  0  0
 15  8  1  0  0  0  0
 17  7  1  0  0  0  0
 18  9  1  0  0  0  0
M  END
