1,4
q = 0.0, confidence = 0.984

 40 43  0  0  0  0  0  0  0  0999 V2000
    1.4449    1.4471    0.6891 N   0  0  0  0  0  2  0  0  0  0  0  0
   -2.0181    1.4055    0.5734 N   0  0  0  0  0  0  0  0  0  0  0  0
   -2.0180   -1.4052    0.5736 N   0  0  0  0  0  0  0  0  0  0  0  0
    1.4447   -1.4474    0.6889 N   0  0  0  0  0  2  0  0  0  0  0  0
    2.4392    2.3239    0.9858 C   0  0  0  0  0  0  0  0  0  0  0  0
    3.3694    2.1873    0.4180 H   0  0  0  0  0  0  0  0  0  0  0  0
    2.2690    3.3476    1.9186 C   0  0  0  0  0  0  0  0  0  0  0  0
    3.1073    4.0259    2.1305 H   0  0  0  0  0  0  0  0  0  0  0  0
    1.0251    3.4954    2.5503 C   0  0  0  0  0  0  0  0  0  0  0  0
    0.8571    4.2962    3.2855 H   0  0  0  0  0  0  0  0  0  0  0  0
   -0.0069    2.6160    2.2095 C   0  0  0  0  0  0  0  0  0  0  0  0
   -1.0157    2.7124    2.6319 H   0  0  0  0  0  0  0  0  0  0  0  0
    0.2282    1.5895    1.2771 C   0  0  0  0  0  0  0  0  0  0  0  0
   -0.9128    0.7243    0.8506 C   0  0  0  0  0  0  0  0  0  0  0  0
   -3.1344    0.7183    0.2102 C   0  0  0  0  0  0  0  0  0  0  0  0
   -4.3193    1.4099   -0.1550 C   0  0  0  0  0  0  0  0  0  0  0  0
   -4.2898    2.5097   -0.1472 H   0  0  0  0  0  0  0  0  0  0  0  0
   -5.4721    0.7222   -0.5224 C   0  0  0  0  0  0  0  0  0  0  0  0
   -5.4720   -0.7223   -0.5224 C   0  0  0  0  0  0  0  0  0  0  0  0
   -4.3192   -1.4098   -0.1550 C   0  0  0  0  0  0  0  0  0  0  0  0
   -4.2895   -2.5097   -0.1472 H   0  0  0  0  0  0  0  0  0  0  0  0
   -3.1344   -0.7181    0.2102 C   0  0  0  0  0  0  0  0  0  0  0  0
   -0.9127   -0.7239    0.8508 C   0  0  0  0  0  0  0  0  0  0  0  0
    0.2281   -1.5891    1.2774 C   0  0  0  0  0  0  0  0  0  0  0  0
    2.4388   -2.3245    0.9854 C   0  0  0  0  0  0  0  0  0  0  0  0
    3.3687   -2.1887    0.4170 H   0  0  0  0  0  0  0  0  0  0  0  0
    2.2686   -3.3477    1.9188 C   0  0  0  0  0  0  0  0  0  0  0  0
    3.1067   -4.0263    2.1306 H   0  0  0  0  0  0  0  0  0  0  0  0
    1.0249   -3.4947    2.5513 C   0  0  0  0  0  0  0  0  0  0  0  0
    0.8570   -4.2950    3.2870 H   0  0  0  0  0  0  0  0  0  0  0  0
   -0.0069   -2.6151    2.2105 C   0  0  0  0  0  0  0  0  0  0  0  0
   -1.0155   -2.7108    2.6334 H   0  0  0  0  0  0  0  0  0  0  0  0
   -6.7143   -1.4713   -0.9229 C   0  0  0  0  0  0  0  0  0  0  0  0
   -7.5745   -1.2120   -0.2701 H   0  0  0  0  0  0  0  0  0  0  0  0
   -6.5614   -2.5653   -0.8708 H   0  0  0  0  0  0  0  0  0  0  0  0
   -7.0234   -1.2174   -1.9589 H   0  0  0  0  0  0  0  0  0  0  0  0
   -6.7144    1.4711   -0.9229 C   0  0  0  0  0  0  0  0  0  0  0  0
   -6.5617    2.5651   -0.8705 H   0  0  0  0  0  0  0  0  0  0  0  0
   -7.5747    1.2115   -0.2704 H   0  0  0  0  0  0  0  0  0  0  0  0
   -7.0233    1.2174   -1.9590 H   0  0  0  0  0  0  0  0  0  0  0  0
  1  5  1  0  0  0  0
  1 13  1  0  0  0  0
  2 14  1  0  0  0  0
  3 23  1  0  0  0  0
  4 25  1  0  0  0  0
  4 24  1  0  0  0  0
  5  7  2  0  0  0  0
  6  5  1  0  0  0  0
  7  8  1  0  0  0  0
  7  9  1  0  0  0  0
  9 10  1  0  0  0  0
 11  9  2  0  0  0  0
 11 12  1  0  0  0  0
 13 11  1  0  0  0  0
 14 23  1  0  0  0  0
 14 13  2  0  0  0  0
 15 22  1  0  0  0  0
 15  2  2  0  0  0  0
 16 17  1  0  0  0  0
 16 15  1  0  0  0  0
 18 19  1  0  0  0  0
 18 16  2  0  0  0  0
 19 20  2  0  0  0  0
 20 21  1  0  0  0  0
 20 22  1  0  0  0  0
 22  3  2  0  0  0  0
 23 24  2  0  0  0  0
 24 31  1  0  0  0  0
 25 27  2  0  0  0  0
 26 25  1  0  0  0  0
 27 28  1  0  0  0  0
 27 29  1  0  0  0  0
 29 30  1  0  0  0  0
 31 29  2  0  0  0  0
 31 32  1  0  0  0  0
 33 35  1  0  0  0  0
 33 19  1  0  0  0  0
 33 34  1  0  0  0  0
 36 33  1  0  0  0  0
 37 38  1  0  0  0  0
 37 18  1  0  0  0  0
 37 39  1  0  0  0  0
 40 37  1  0  0  0  0
M  END
