5,8
q = 0.0, confidence = 0.99

 33 34  0  0  1  0  0  0  0  0999 V2000
    4.4045    0.6482   -1.9625 O   0  0  0  0  0  0  0  0  0  0  0  0
    4.9428   -0.0649   -2.3459 H   0  0  0  0  0  0  0  0  0  0  0  0
   -4.2917   -0.6227   -2.1891 O   0  0  0  0  0  0  0  0  0  0  0  0
   -3.9147   -0.1527   -2.9556 H   0  0  0  0  0  0  0  0  0  0  0  0
    1.3546    0.8730    0.0042 N   0  0  0  0  0  2  0  0  0  0  0  0
    0.9111    2.0901    0.4368 N   0  0  0  0  0  0  0  0  0  0  0  0
   -1.4655    1.7500    0.4634 N   0  0  0  0  0  0  0  0  0  0  0  0
   -1.5494    0.4629    0.0152 N   0  0  0  0  0  2  0  0  0  0  0  0
    3.2902    0.0409   -1.3361 C   0  0  0  0  0  0  0  0  0  0  0  0
    3.5841   -0.7070   -0.5620 H   0  0  0  0  0  0  0  0  0  0  0  0
    2.6352   -0.5053   -2.0583 H   0  0  0  0  0  0  0  0  0  0  0  0
    2.4856    1.1223   -0.6842 C   0  0  1  0  0  3  0  0  0  0  0  0
    2.7622    2.5096   -0.6924 C   0  0  0  0  0  0  0  0  0  0  0  0
    3.6186    2.9901   -1.1723 H   0  0  0  0  0  0  0  0  0  0  0  0
    1.7335    3.1130    0.0285 C   0  0  0  0  0  0  0  0  0  0  0  0
    1.4828    4.5459    0.3632 C   0  0  0  0  0  0  0  0  0  0  0  0
    0.5110    4.9076   -0.0356 H   0  0  0  0  0  0  0  0  0  0  0  0
    2.2764    5.1723   -0.0828 H   0  0  0  0  0  0  0  0  0  0  0  0
    1.4888    4.7324    1.4580 H   0  0  0  0  0  0  0  0  0  0  0  0
   -0.2997    2.1475    1.2204 C   0  0  0  0  0  0  0  0  0  0  0  0
   -0.1923    1.4583    2.0842 H   0  0  0  0  0  0  0  0  0  0  0  0
   -0.4440    3.1801    1.5797 H   0  0  0  0  0  0  0  0  0  0  0  0
   -2.7209    3.9376    0.4511 C   0  0  0  0  0  0  0  0  0  0  0  0
   -2.7490    4.1004    1.5492 H   0  0  0  0  0  0  0  0  0  0  0  0
   -3.6738    4.3144    0.0372 H   0  0  0  0  0  0  0  0  0  0  0  0
   -1.9058    4.5687    0.0372 H   0  0  0  0  0  0  0  0  0  0  0  0
   -2.5574    2.4975    0.0942 C   0  0  2  0  0  3  0  0  0  0  0  0
   -3.3876    1.6309   -0.6145 C   0  0  0  0  0  0  0  0  0  0  0  0
   -4.3622    1.8524   -1.0588 H   0  0  0  0  0  0  0  0  0  0  0  0
   -2.7236    0.3806   -0.6426 C   0  0  0  0  0  0  0  0  0  0  0  0
   -3.2248   -0.8796   -1.2973 C   0  0  0  0  0  0  0  0  0  0  0  0
   -2.3704   -1.4130   -1.7740 H   0  0  0  0  0  0  0  0  0  0  0  0
   -3.6121   -1.5713   -0.5196 H   0  0  0  0  0  0  0  0  0  0  0  0
  1  9  1  0  0  0  0
  2  1  1  0  0  0  0
  3 31  1  0  0  0  0
  4  3  1  0  0  0  0
  5  6  1  0  0  0  0
  6 20  1  0  0  0  0
  7 20  1  0  0  0  0
  8  7  1  0  0  0  0
  9 10  1  0  0  0  0
 11  9  1  0  0  0  0
 12  9  1  6  0  0  0
 12  5  1  0  0  0  0
 13 12  1  0  0  0  0
 13 15  2  0  0  0  0
 14 13  1  0  0  0  0
 15 16  1  0  0  0  0
 15  6  1  0  0  0  0
 16 19  1  0  0  0  0
 17 16  1  0  0  0  0
 18 16  1  0  0  0  0
 20 22  1  0  0  0  0
 20 21  1  0  0  0  0
 23 24  1  0  0  0  0
 25 23  1  0  0  0  0
 26 23  1  0  0  0  0
 27 23  1  1  0  0  0
 27  7  1  0  0  0  0
 28 27  1  0  0  0  0
 29 28  1  0  0  0  0
 30 28  2  0  0  0  0
 30  8  1  0  0  0  0
 31 30  1  0  0  0  0
 31 33  1  0  0  0  0
 32 31  1  0  0  0  0
M  END
