1,4
q = 0.0, confidence = 0.708

 31 32  0  0  0  0  0  0  0  0999 V2000
   -1.9786   -0.0190   -0.1432 N   0  0  0  0  0  2  0  0  0  0  0  0
   -2.5662   -0.8364   -0.3337 H   0  0  0  0  0  0  0  0  0  0  0  0
   -1.7950    2.2645    0.0344 N   0  0  0  0  0  0  0  0  0  0  0  0
   -0.5057    1.9396   -0.0351 N   0  0  0  0  0  2  0  0  0  0  0  0
    3.9441    7.1302    0.0191 N   0  0  0  0  0  0  0  0  0  0  0  0
   -2.5871    1.1808   -0.0426 C   0  0  0  0  0  0  0  0  0  0  0  0
   -4.0503    1.3509   -0.0460 C   0  0  0  0  0  0  0  0  0  0  0  0
   -4.6139    2.6387   -0.2031 C   0  0  0  0  0  0  0  0  0  0  0  0
   -3.9366    3.4957   -0.3235 H   0  0  0  0  0  0  0  0  0  0  0  0
   -5.9993    2.8113   -0.2120 C   0  0  0  0  0  0  0  0  0  0  0  0
   -6.4156    3.8234   -0.3388 H   0  0  0  0  0  0  0  0  0  0  0  0
   -6.8792    1.7156   -0.0664 C   0  0  0  0  0  0  0  0  0  0  0  0
   -6.3117    0.4364    0.0981 C   0  0  0  0  0  0  0  0  0  0  0  0
   -6.9727   -0.4350    0.2262 H   0  0  0  0  0  0  0  0  0  0  0  0
   -4.9236    0.2536    0.1123 C   0  0  0  0  0  0  0  0  0  0  0  0
   -4.5250   -0.7610    0.2706 H   0  0  0  0  0  0  0  0  0  0  0  0
   -8.3718    1.9172   -0.0935 C   0  0  0  0  0  0  0  0  0  0  0  0
   -8.6884    2.6882    0.6389 H   0  0  0  0  0  0  0  0  0  0  0  0
   -8.9170    0.9816    0.1359 H   0  0  0  0  0  0  0  0  0  0  0  0
   -8.7090    2.2684   -1.0918 H   0  0  0  0  0  0  0  0  0  0  0  0
    0.3932    3.0210   -0.0363 C   0  0  0  0  0  0  0  0  0  0  0  0
    1.5935    2.9387   -0.7826 C   0  0  0  0  0  0  0  0  0  0  0  0
    1.7716    2.0534   -1.4085 H   0  0  0  0  0  0  0  0  0  0  0  0
    2.5052    3.9952   -0.7685 C   0  0  0  0  0  0  0  0  0  0  0  0
    3.4301    3.9350   -1.3600 H   0  0  0  0  0  0  0  0  0  0  0  0
    2.2322    5.1649   -0.0191 C   0  0  0  0  0  0  0  0  0  0  0  0
    1.0133    5.2573    0.6997 C   0  0  0  0  0  0  0  0  0  0  0  0
    0.7960    6.1673    1.2770 H   0  0  0  0  0  0  0  0  0  0  0  0
    0.1024    4.2035    0.6853 C   0  0  0  0  0  0  0  0  0  0  0  0
   -0.8434    4.2584    1.2401 H   0  0  0  0  0  0  0  0  0  0  0  0
    3.1706    6.2458    0.0009 C   0  0  0  0  0  0  0  0  0  0  0  0
  1  6  1  0  0  0  0
  2  1  1  0  0  0  0
  4  3  1  0  0  0  0
  6  3  2  0  0  0  0
  7  6  1  0  0  0  0
  7 15  1  0  0  0  0
  8  7  2  0  0  0  0
  9  8  1  0  0  0  0
 10  8  1  0  0  0  0
 10 12  2  0  0  0  0
 11 10  1  0  0  0  0
 12 13  1  0  0  0  0
 13 15  2  0  0  0  0
 13 14  1  0  0  0  0
 15 16  1  0  0  0  0
 17 12  1  0  0  0  0
 17 19  1  0  0  0  0
 17 18  1  0  0  0  0
 20 17  1  0  0  0  0
 21  4  1  0  0  0  0
 21 29  1  0  0  0  0
 22 24  1  0  0  0  0
 22 21  2  0  0  0  0
 23 22  1  0  0  0  0
 24 26  2  0  0  0  0
 25 24  1  0  0  0  0
 26 31  1  0  0  0  0
 26 27  1  0  0  0  0
 27 28  1  0  0  0  0
 29 27  2  0  0  0  0
 29 30  1  0  0  0  0
 31  5  3  0  0  0  0
M  END
