1,2
q = -1.0

 57 62  0  0  0  0  0  0  0  0999 V2000
    0.1652   -1.4150   -0.3007 N   0  0  0  0  0  0  0  0  0  0  0  0
    0.1676    1.3802   -0.3800 N   0  0  0  0  0  0  0  0  0  0  0  0
   -1.8013   -0.0179   -0.0431 N   0  0  0  0  0  2  0  0  0  0  0  0
   -1.2060   -1.2023   -0.1330 C   0  0  0  0  0  3  0  0  0  0  0  0
   -1.9242    2.4241   -0.3363 C   0  0  0  0  0  0  0  0  0  0  0  0
    1.5779    3.2594   -1.1793 C   0  0  0  0  0  0  0  0  0  0  0  0
   -1.2082    1.1589   -0.1979 C   0  0  0  0  0  3  0  0  0  0  0  0
   -0.9456    3.3706   -0.6463 C   0  0  0  0  0  0  0  0  0  0  0  0
   -1.1098    4.4166   -0.9298 H   0  0  0  0  0  0  0  0  0  0  0  0
   -3.3697    2.6473   -0.2251 C   0  0  0  0  0  0  0  0  0  0  0  0
   -3.3611   -2.6796   -0.1994 C   0  0  0  0  0  0  0  0  0  0  0  0
    0.3160    2.6906   -0.6991 C   0  0  0  0  0  0  0  0  0  0  0  0
    2.6515   -2.4405   -1.5301 C   0  0  0  0  0  0  0  0  0  0  0  0
    2.4513   -1.3621   -1.6254 H   0  0  0  0  0  0  0  0  0  0  0  0
    1.8881   -4.6681   -0.9129 C   0  0  0  0  0  0  0  0  0  0  0  0
    1.1113   -5.3330   -0.5070 H   0  0  0  0  0  0  0  0  0  0  0  0
    1.8954    4.6196   -0.9583 C   0  0  0  0  0  0  0  0  0  0  0  0
    1.2007    5.2480   -0.3809 H   0  0  0  0  0  0  0  0  0  0  0  0
    1.6312   -3.2802   -1.0170 C   0  0  0  0  0  0  0  0  0  0  0  0
   -0.9273   -3.4021   -0.6196 C   0  0  0  0  0  0  0  0  0  0  0  0
   -1.0781   -4.4582   -0.8699 H   0  0  0  0  0  0  0  0  0  0  0  0
   -5.6884    1.8791   -0.3969 C   0  0  0  0  0  0  0  0  0  0  0  0
   -6.4009    1.0707   -0.6237 H   0  0  0  0  0  0  0  0  0  0  0  0
   -1.9135   -2.4695   -0.2862 C   0  0  0  0  0  0  0  0  0  0  0  0
   -4.1867   -1.8301    0.5795 C   0  0  0  0  0  0  0  0  0  0  0  0
   -3.7279   -0.9962    1.1261 H   0  0  0  0  0  0  0  0  0  0  0  0
   -4.3148    1.6301   -0.5092 C   0  0  0  0  0  0  0  0  0  0  0  0
   -3.9543    0.6420   -0.8209 H   0  0  0  0  0  0  0  0  0  0  0  0
    3.1313   -5.1941   -1.2851 C   0  0  0  0  0  0  0  0  0  0  0  0
    3.3187   -6.2740   -1.1846 H   0  0  0  0  0  0  0  0  0  0  0  0
    2.4864    2.4612   -1.9178 C   0  0  0  0  0  0  0  0  0  0  0  0
    2.2285    1.4091   -2.1104 H   0  0  0  0  0  0  0  0  0  0  0  0
   -3.9743   -3.7536   -0.8913 C   0  0  0  0  0  0  0  0  0  0  0  0
   -3.3569   -4.4111   -1.5214 H   0  0  0  0  0  0  0  0  0  0  0  0
    0.3352   -2.7221   -0.6282 C   0  0  0  0  0  0  0  0  0  0  0  0
   -6.1550    3.1447   -0.0061 C   0  0  0  0  0  0  0  0  0  0  0  0
   -7.2354    3.3371    0.0807 H   0  0  0  0  0  0  0  0  0  0  0  0
    3.8927   -2.9698   -1.8994 C   0  0  0  0  0  0  0  0  0  0  0  0
    4.6740   -2.3025   -2.2943 H   0  0  0  0  0  0  0  0  0  0  0  0
    4.1402   -4.3481   -1.7761 C   0  0  0  0  0  0  0  0  0  0  0  0
    5.1166   -4.7636   -2.0677 H   0  0  0  0  0  0  0  0  0  0  0  0
   -6.1613   -3.1125   -0.0422 C   0  0  0  0  0  0  0  0  0  0  0  0
   -7.2478   -3.2790    0.0164 H   0  0  0  0  0  0  0  0  0  0  0  0
   -3.8564    3.9197    0.1663 C   0  0  0  0  0  0  0  0  0  0  0  0
   -3.1383    4.7160    0.4143 H   0  0  0  0  0  0  0  0  0  0  0  0
    3.6847    3.0030   -2.3956 C   0  0  0  0  0  0  0  0  0  0  0  0
    4.3788    2.3709   -2.9703 H   0  0  0  0  0  0  0  0  0  0  0  0
    3.0981    5.1571   -1.4348 C   0  0  0  0  0  0  0  0  0  0  0  0
    3.3385    6.2135   -1.2410 H   0  0  0  0  0  0  0  0  0  0  0  0
    3.9986    4.3516   -2.1518 C   0  0  0  0  0  0  0  0  0  0  0  0
    4.9419    4.7765   -2.5269 H   0  0  0  0  0  0  0  0  0  0  0  0
   -5.2303    4.1653    0.2730 C   0  0  0  0  0  0  0  0  0  0  0  0
   -5.5838    5.1598    0.5860 H   0  0  0  0  0  0  0  0  0  0  0  0
   -5.3550   -3.9687   -0.8114 C   0  0  0  0  0  0  0  0  0  0  0  0
   -5.8093   -4.8057   -1.3635 H   0  0  0  0  0  0  0  0  0  0  0  0
   -5.5692   -2.0440    0.6506 C   0  0  0  0  0  0  0  0  0  0  0  0
   -6.1894   -1.3683    1.2597 H   0  0  0  0  0  0  0  0  0  0  0  0
  1  4  1  0  0  0  0
  2  7  1  0  0  0  0
  4  3  1  0  0  0  0
  5 10  1  0  0  0  0
  5  7  1  0  0  0  0
  6 17  1  0  0  0  0
  6 12  1  0  0  0  0
  7  3  1  0  0  0  0
  8  5  2  0  0  0  0
  9  8  1  0  0  0  0
 10 44  1  0  0  0  0
 11 25  1  0  0  0  0
 12  8  1  0  0  0  0
 12  2  2  0  0  0  0
 13 19  1  0  0  0  0
 14 13  1  0  0  0  0
 15 16  1  0  0  0  0
 17 18  1  0  0  0  0
 19 15  2  0  0  0  0
 19 35  1  0  0  0  0
 20 24  2  0  0  0  0
 21 20  1  0  0  0  0
 22 36  2  0  0  0  0
 23 22  1  0  0  0  0
 24 11  1  0  0  0  0
 24  4  1  0  0  0  0
 25 56  2  0  0  0  0
 25 26  1  0  0  0  0
 27 22  1  0  0  0  0
 27 10  2  0  0  0  0
 28 27  1  0  0  0  0
 29 30  1  0  0  0  0
 29 15  1  0  0  0  0
 31  6  2  0  0  0  0
 32 31  1  0  0  0  0
 33 54  1  0  0  0  0
 33 11  2  0  0  0  0
 34 33  1  0  0  0  0
 35 20  1  0  0  0  0
 35  1  2  0  0  0  0
 36 37  1  0  0  0  0
 36 52  1  0  0  0  0
 38 40  1  0  0  0  0
 38 13  2  0  0  0  0
 39 38  1  0  0  0  0
 40 29  2  0  0  0  0
 41 40  1  0  0  0  0
 42 43  1  0  0  0  0
 42 56  1  0  0  0  0
 44 52  2  0  0  0  0
 44 45  1  0  0  0  0
 46 50  2  0  0  0  0
 46 31  1  0  0  0  0
 47 46  1  0  0  0  0
 48 49  1  0  0  0  0
 48 17  2  0  0  0  0
 50 48  1  0  0  0  0
 51 50  1  0  0  0  0
 52 53  1  0  0  0  0
 54 42  2  0  0  0  0
 55 54  1  0  0  0  0
 56 57  1  0  0  0  0
M  END
