1,2
q = -1.0

 65 70  0  0  1  0  0  0  0  0999 V2000
    0.1811   -1.4146    0.0237 N   0  0  0  0  0  0  0  0  0  0  0  0
    0.1798    1.4069   -0.0126 N   0  0  0  0  0  2  0  0  0  0  0  0
    2.1605   -0.0034    0.0951 N   0  0  0  0  0  0  0  0  0  0  0  0
    1.5605   -1.1850    0.0828 C   0  0  0  0  0  3  0  0  0  0  0  0
    1.5602    1.1740   -0.0031 C   0  0  0  0  0  0  0  0  0  0  0  0
   -5.1061   -5.0416   -0.9655 O   0  0  0  0  0  0  0  0  0  0  0  0
   -2.8068   -5.2939   -0.1532 C   0  0  0  0  0  0  0  0  0  0  0  0
   -2.9629   -6.3246    0.1911 H   0  0  0  0  0  0  0  0  0  0  0  0
   -5.4025   -6.3659   -0.5595 C   0  0  0  0  0  0  0  0  0  0  0  0
   -4.7676   -7.1124   -1.0871 H   0  0  0  0  0  0  0  0  0  0  0  0
   -6.4612   -6.5437   -0.8234 H   0  0  0  0  0  0  0  0  0  0  0  0
   -5.2754   -6.5000    0.5379 H   0  0  0  0  0  0  0  0  0  0  0  0
    1.2594    3.4049   -0.3201 C   0  0  0  0  0  0  0  0  0  0  0  0
    1.3955    4.4643   -0.5648 H   0  0  0  0  0  0  0  0  0  0  0  0
    2.2608    2.4392   -0.1863 C   0  0  0  0  0  0  0  0  0  0  0  0
   -3.8550   -4.5612   -0.7529 C   0  0  0  0  0  0  0  0  0  0  0  0
   -1.5532   -4.6967    0.0201 C   0  0  0  0  0  0  0  0  0  0  0  0
   -0.7522   -5.2681    0.5122 H   0  0  0  0  0  0  0  0  0  0  0  0
   -2.3688   -2.6497   -0.9971 C   0  0  0  0  0  0  0  0  0  0  0  0
   -2.1889   -1.6217   -1.3450 H   0  0  0  0  0  0  0  0  0  0  0  0
   -1.3075   -3.3638   -0.3788 C   0  0  0  0  0  0  0  0  0  0  0  0
   -3.6182   -3.2345   -1.1803 C   0  0  0  0  0  0  0  0  0  0  0  0
   -4.4410   -2.6888   -1.6640 H   0  0  0  0  0  0  0  0  0  0  0  0
    1.2659   -3.4197   -0.2041 C   0  0  0  0  0  0  0  0  0  0  0  0
    1.4049   -4.4934   -0.3723 H   0  0  0  0  0  0  0  0  0  0  0  0
    2.2642   -2.4572   -0.0327 C   0  0  0  0  0  0  0  0  0  0  0  0
    3.7162   -2.6557   -0.0535 C   0  0  0  0  0  0  0  0  0  0  0  0
   -0.0038    2.7406   -0.2324 C   0  0  1  0  0  3  0  0  0  0  0  0
   -1.5548    4.6870   -0.0364 C   0  0  0  0  0  0  0  0  0  0  0  0
   -0.7449    5.2627    0.4361 H   0  0  0  0  0  0  0  0  0  0  0  0
   -1.3160    3.3496   -0.4243 C   0  0  0  0  0  0  0  0  0  0  0  0
   -2.3867    2.6298   -1.0197 C   0  0  0  0  0  0  0  0  0  0  0  0
   -2.2122    1.5986   -1.3604 H   0  0  0  0  0  0  0  0  0  0  0  0
    4.6001   -1.7524    0.5888 C   0  0  0  0  0  0  0  0  0  0  0  0
    4.1842   -0.8828    1.1134 H   0  0  0  0  0  0  0  0  0  0  0  0
    4.2744   -3.7764   -0.7178 C   0  0  0  0  0  0  0  0  0  0  0  0
    3.6090   -4.4773   -1.2438 H   0  0  0  0  0  0  0  0  0  0  0  0
    5.9849   -1.9605    0.5547 C   0  0  0  0  0  0  0  0  0  0  0  0
    6.6506   -1.2429    1.0585 H   0  0  0  0  0  0  0  0  0  0  0  0
    3.7106    2.6475   -0.2542 C   0  0  0  0  0  0  0  0  0  0  0  0
    4.6006    1.6283   -0.6759 C   0  0  0  0  0  0  0  0  0  0  0  0
    4.1929    0.6512   -0.9633 H   0  0  0  0  0  0  0  0  0  0  0  0
    4.2577    3.9057    0.1022 C   0  0  0  0  0  0  0  0  0  0  0  0
    3.5865    4.7030    0.4555 H   0  0  0  0  0  0  0  0  0  0  0  0
    6.5076    3.1119   -0.3682 C   0  0  0  0  0  0  0  0  0  0  0  0
    7.5928    3.2914   -0.4103 H   0  0  0  0  0  0  0  0  0  0  0  0
    5.6371    4.1350    0.0446 C   0  0  0  0  0  0  0  0  0  0  0  0
    6.0390    5.1182    0.3341 H   0  0  0  0  0  0  0  0  0  0  0  0
    0.0016   -2.7517   -0.1743 C   0  0  0  0  0  0  0  0  0  0  0  0
    6.5219   -3.0753   -0.1094 C   0  0  0  0  0  0  0  0  0  0  0  0
    7.6105   -3.2368   -0.1333 H   0  0  0  0  0  0  0  0  0  0  0  0
   -2.8105    5.2831   -0.1964 C   0  0  0  0  0  0  0  0  0  0  0  0
   -2.9609    6.3176    0.1390 H   0  0  0  0  0  0  0  0  0  0  0  0
   -3.8683    4.5443   -0.7718 C   0  0  0  0  0  0  0  0  0  0  0  0
    5.6581   -3.9847   -0.7432 C   0  0  0  0  0  0  0  0  0  0  0  0
    6.0685   -4.8587   -1.2719 H   0  0  0  0  0  0  0  0  0  0  0  0
    5.9809    1.8605   -0.7267 C   0  0  0  0  0  0  0  0  0  0  0  0
    6.6502    1.0504   -1.0556 H   0  0  0  0  0  0  0  0  0  0  0  0
   -5.4120    6.3517   -0.5733 C   0  0  0  0  0  0  0  0  0  0  0  0
   -5.2676    6.4975    0.5205 H   0  0  0  0  0  0  0  0  0  0  0  0
   -6.4747    6.5271   -0.8222 H   0  0  0  0  0  0  0  0  0  0  0  0
   -4.7854    7.0923   -1.1188 H   0  0  0  0  0  0  0  0  0  0  0  0
   -3.6386    3.2134   -1.1895 C   0  0  0  0  0  0  0  0  0  0  0  0
   -4.4688    2.6634   -1.6553 H   0  0  0  0  0  0  0  0  0  0  0  0
   -5.1223    5.0231   -0.9697 O   0  0  0  0  0  0  0  0  0  0  0  0
  1  4  1  0  0  0  0
  2  5  1  0  0  0  0
  4  3  1  0  0  0  0
  5  3  2  0  0  0  0
  6 16  1  0  0  0  0
  6  9  1  0  0  0  0
  7 17  1  0  0  0  0
  7  8  1  0  0  0  0
  9 12  1  0  0  0  0
 10  9  1  0  0  0  0
 11  9  1  0  0  0  0
 13 28  1  0  0  0  0
 13 15  2  0  0  0  0
 14 13  1  0  0  0  0
 15  5  1  0  0  0  0
 16  7  2  0  0  0  0
 17 18  1  0  0  0  0
 19 21  1  0  0  0  0
 20 19  1  0  0  0  0
 21 49  1  0  0  0  0
 21 17  2  0  0  0  0
 22 19  2  0  0  0  0
 22 16  1  0  0  0  0
 23 22  1  0  0  0  0
 24 49  1  0  0  0  0
 24 26  2  0  0  0  0
 25 24  1  0  0  0  0
 26  4  1  0  0  0  0
 27 26  1  0  0  0  0
 27 34  1  0  0  0  0
 28 31  1  6  0  0  0
 28  2  1  0  0  0  0
 29 30  1  0  0  0  0
 31 29  2  0  0  0  0
 32 31  1  0  0  0  0
 33 32  1  0  0  0  0
 34 35  1  0  0  0  0
 36 27  2  0  0  0  0
 37 36  1  0  0  0  0
 38 34  2  0  0  0  0
 38 39  1  0  0  0  0
 40 15  1  0  0  0  0
 40 43  1  0  0  0  0
 41 40  2  0  0  0  0
 42 41  1  0  0  0  0
 43 44  1  0  0  0  0
 45 47  1  0  0  0  0
 46 45  1  0  0  0  0
 47 43  2  0  0  0  0
 47 48  1  0  0  0  0
 49  1  2  0  0  0  0
 50 38  1  0  0  0  0
 51 50  1  0  0  0  0
 52 29  1  0  0  0  0
 52 53  1  0  0  0  0
 54 52  2  0  0  0  0
 55 36  1  0  0  0  0
 55 50  2  0  0  0  0
 56 55  1  0  0  0  0
 57 41  1  0  0  0  0
 57 45  2  0  0  0  0
 58 57  1  0  0  0  0
 59 60  1  0  0  0  0
 61 59  1  0  0  0  0
 62 59  1  0  0  0  0
 63 32  2  0  0  0  0
 63 54  1  0  0  0  0
 64 63  1  0  0  0  0
 65 54  1  0  0  0  0
 65 59  1  0  0  0  0
M  END
