2,3
q = -1.0

 65 70  0  0  1  0  0  0  0  0999 V2000
    0.8574   -0.1229    0.0679 N   0  0  0  0  0  0  0  0  0  0  0  0
   -1.2060   -1.3990   -0.0791 N   0  0  0  0  0  2  0  0  0  0  0  0
   -1.0151    1.4228   -0.0953 N   0  0  0  0  0  0  0  0  0  0  0  0
    2.2399   -2.8629   -0.0208 C   0  0  0  0  0  0  0  0  0  0  0  0
    0.8078   -2.5782   -0.0583 C   0  0  0  0  0  0  0  0  0  0  0  0
    4.1300   -4.3019   -0.6377 C   0  0  0  0  0  0  0  0  0  0  0  0
    4.5381   -5.1922   -1.1375 H   0  0  0  0  0  0  0  0  0  0  0  0
    4.5307   -2.2706    0.6481 C   0  0  0  0  0  0  0  0  0  0  0  0
    5.2006   -1.5725    1.1675 H   0  0  0  0  0  0  0  0  0  0  0  0
    0.1820   -1.2615    0.0353 C   0  0  0  0  0  0  0  0  0  0  0  0
   -0.2457   -3.4716   -0.2799 C   0  0  0  0  0  0  0  0  0  0  0  0
   -0.1736   -4.5513   -0.4513 H   0  0  0  0  0  0  0  0  0  0  0  0
   -1.4606   -2.7211   -0.2945 C   0  0  2  0  0  3  0  0  0  0  0  0
    2.7660   -4.0237   -0.6488 C   0  0  0  0  0  0  0  0  0  0  0  0
    2.0862   -4.7040   -1.1831 H   0  0  0  0  0  0  0  0  0  0  0  0
   -2.8009   -3.2476   -0.5575 C   0  0  0  0  0  0  0  0  0  0  0  0
    5.0315   -3.4219    0.0048 C   0  0  0  0  0  0  0  0  0  0  0  0
    3.1561   -2.0057    0.6348 C   0  0  0  0  0  0  0  0  0  0  0  0
    2.7767   -1.1096    1.1417 H   0  0  0  0  0  0  0  0  0  0  0  0
   -3.7728   -2.4638   -1.2276 C   0  0  0  0  0  0  0  0  0  0  0  0
   -3.5018   -1.4524   -1.5652 H   0  0  0  0  0  0  0  0  0  0  0  0
   -3.1462   -4.5615   -0.1614 C   0  0  0  0  0  0  0  0  0  0  0  0
   -2.4053   -5.1756    0.3719 H   0  0  0  0  0  0  0  0  0  0  0  0
   -4.4297   -5.0647   -0.4028 C   0  0  0  0  0  0  0  0  0  0  0  0
   -4.6882   -6.0819   -0.0718 H   0  0  0  0  0  0  0  0  0  0  0  0
    7.2921   -2.8989    0.5476 C   0  0  0  0  0  0  0  0  0  0  0  0
    7.2690   -1.8832    0.0923 H   0  0  0  0  0  0  0  0  0  0  0  0
    8.2855   -3.3509    0.3706 H   0  0  0  0  0  0  0  0  0  0  0  0
    7.1298   -2.7995    1.6442 H   0  0  0  0  0  0  0  0  0  0  0  0
   -5.0544   -2.9725   -1.4692 C   0  0  0  0  0  0  0  0  0  0  0  0
   -5.7971   -2.3517   -1.9929 H   0  0  0  0  0  0  0  0  0  0  0  0
   -5.3900   -4.2715   -1.0538 C   0  0  0  0  0  0  0  0  0  0  0  0
   -6.3993   -4.6684   -1.2406 H   0  0  0  0  0  0  0  0  0  0  0  0
    6.3451   -3.7657   -0.0498 O   0  0  0  0  0  0  0  0  0  0  0  0
    1.1401    2.3058   -0.2048 C   0  0  0  0  0  0  0  0  0  0  0  0
    0.3442    1.0938   -0.0467 C   0  0  0  0  0  3  0  0  0  0  0  0
    3.4306    1.3166   -0.6111 C   0  0  0  0  0  0  0  0  0  0  0  0
    2.9647    0.3677   -0.9036 H   0  0  0  0  0  0  0  0  0  0  0  0
    0.2116    3.3423   -0.3576 C   0  0  0  0  0  0  0  0  0  0  0  0
    0.4265    4.3910   -0.5912 H   0  0  0  0  0  0  0  0  0  0  0  0
   -1.0940    2.7682   -0.3086 C   0  0  0  0  0  0  0  0  0  0  0  0
    3.2366    3.6175    0.1209 C   0  0  0  0  0  0  0  0  0  0  0  0
    2.6239    4.4741    0.4403 H   0  0  0  0  0  0  0  0  0  0  0  0
    4.8180    1.4372   -0.6204 C   0  0  0  0  0  0  0  0  0  0  0  0
    5.4564    0.5925   -0.9192 H   0  0  0  0  0  0  0  0  0  0  0  0
    4.6303    3.7519    0.1137 C   0  0  0  0  0  0  0  0  0  0  0  0
    5.0787    4.7096    0.4097 H   0  0  0  0  0  0  0  0  0  0  0  0
    5.4365    2.6535   -0.2556 C   0  0  0  0  0  0  0  0  0  0  0  0
    2.5990    2.4050   -0.2323 C   0  0  0  0  0  0  0  0  0  0  0  0
    7.4640    3.8731    0.0422 C   0  0  0  0  0  0  0  0  0  0  0  0
    7.1849    4.7059   -0.6419 H   0  0  0  0  0  0  0  0  0  0  0  0
    8.5462    3.6708   -0.0616 H   0  0  0  0  0  0  0  0  0  0  0  0
    7.2546    4.1888    1.0891 H   0  0  0  0  0  0  0  0  0  0  0  0
   -2.3561    3.4731   -0.5384 C   0  0  0  0  0  0  0  0  0  0  0  0
   -2.5123    4.8163   -0.1214 C   0  0  0  0  0  0  0  0  0  0  0  0
   -1.6838    5.3164    0.4022 H   0  0  0  0  0  0  0  0  0  0  0  0
   -3.7201    5.4918   -0.3305 C   0  0  0  0  0  0  0  0  0  0  0  0
   -3.8322    6.5301    0.0166 H   0  0  0  0  0  0  0  0  0  0  0  0
    6.7967    2.6707   -0.2907 O   0  0  0  0  0  0  0  0  0  0  0  0
   -3.4373    2.8374   -1.1978 C   0  0  0  0  0  0  0  0  0  0  0  0
   -3.3116    1.8039   -1.5531 H   0  0  0  0  0  0  0  0  0  0  0  0
   -4.6427    3.5180   -1.4069 C   0  0  0  0  0  0  0  0  0  0  0  0
   -5.4724    3.0108   -1.9222 H   0  0  0  0  0  0  0  0  0  0  0  0
   -4.7913    4.8444   -0.9699 C   0  0  0  0  0  0  0  0  0  0  0  0
   -5.7410    5.3765   -1.1311 H   0  0  0  0  0  0  0  0  0  0  0  0
  2 10  1  0  0  0  0
  3 36  1  0  0  0  0
  4 18  1  0  0  0  0
  5  4  1  0  0  0  0
  5 10  1  0  0  0  0
  6 17  2  0  0  0  0
  7  6  1  0  0  0  0
  8  9  1  0  0  0  0
 10  1  2  0  0  0  0
 11  5  2  0  0  0  0
 12 11  1  0  0  0  0
 13 16  1  6  0  0  0
 13 11  1  0  0  0  0
 13  2  1  0  0  0  0
 14  6  1  0  0  0  0
 14  4  2  0  0  0  0
 15 14  1  0  0  0  0
 16 22  1  0  0  0  0
 17  8  1  0  0  0  0
 18  8  2  0  0  0  0
 18 19  1  0  0  0  0
 20 16  2  0  0  0  0
 21 20  1  0  0  0  0
 22 23  1  0  0  0  0
 24 22  2  0  0  0  0
 24 25  1  0  0  0  0
 26 29  1  0  0  0  0
 27 26  1  0  0  0  0
 28 26  1  0  0  0  0
 30 20  1  0  0  0  0
 30 32  2  0  0  0  0
 31 30  1  0  0  0  0
 32 24  1  0  0  0  0
 33 32  1  0  0  0  0
 34 17  1  0  0  0  0
 34 26  1  0  0  0  0
 35 36  1  0  0  0  0
 36  1  1  0  0  0  0
 37 49  1  0  0  0  0
 38 37  1  0  0  0  0
 39 41  1  0  0  0  0
 39 35  2  0  0  0  0
 40 39  1  0  0  0  0
 41  3  2  0  0  0  0
 42 43  1  0  0  0  0
 44 37  2  0  0  0  0
 44 48  1  0  0  0  0
 45 44  1  0  0  0  0
 46 42  1  0  0  0  0
 46 47  1  0  0  0  0
 48 46  2  0  0  0  0
 49 35  1  0  0  0  0
 49 42  2  0  0  0  0
 50 53  1  0  0  0  0
 51 50  1  0  0  0  0
 52 50  1  0  0  0  0
 54 41  1  0  0  0  0
 54 55  1  0  0  0  0
 55 56  1  0  0  0  0
 57 55  2  0  0  0  0
 57 58  1  0  0  0  0
 59 48  1  0  0  0  0
 59 50  1  0  0  0  0
 60 54  2  0  0  0  0
 61 60  1  0  0  0  0
 62 60  1  0  0  0  0
 62 64  2  0  0  0  0
 63 62  1  0  0  0  0
 64 57  1  0  0  0  0
 65 64  1  0  0  0  0
M  END
