2,3
q = -1.0, confidence = 0.0

 20 21  0  0  0  0  0  0  0  0999 V2000
   -2.7865    2.5324   -0.0553 O   0  0  0  0  0  0  0  0  0  0  0  0
   -2.6214    0.2211   -0.0283 N   0  0  0  0  0  2  0  0  0  0  0  0
   -1.0106   -1.8840    0.0072 N   0  0  0  0  0  2  0  0  0  0  0  0
   -3.2499   -0.9918   -0.0241 C   0  0  0  0  0  0  0  0  0  0  0  0
   -0.1127   -2.8956    0.0267 C   0  0  0  0  0  0  0  0  0  0  0  0
    0.9439   -2.5956    0.0383 H   0  0  0  0  0  0  0  0  0  0  0  0
   -2.3534   -2.1594   -0.0069 C   0  0  0  0  0  0  0  0  0  0  0  0
   -4.6414   -1.1268   -0.0345 C   0  0  0  0  0  3  0  0  0  0  0  0
   -5.1165   -2.1151   -0.0335 H   0  0  0  0  0  0  0  0  0  0  0  0
   -3.3521    1.4267   -0.0451 C   0  0  0  0  0  0  0  0  0  0  0  0
   -0.4970   -4.2364    0.0317 C   0  0  0  0  0  0  0  0  0  0  0  0
    0.2718   -5.0211    0.0477 H   0  0  0  0  0  0  0  0  0  0  0  0
   -2.7934   -3.4991   -0.0034 C   0  0  0  0  0  0  0  0  0  0  0  0
   -3.8696   -3.7120   -0.0158 H   0  0  0  0  0  0  0  0  0  0  0  0
   -1.8678   -4.5428    0.0157 C   0  0  0  0  0  0  0  0  0  0  0  0
   -2.2110   -5.5879    0.0184 H   0  0  0  0  0  0  0  0  0  0  0  0
   -5.4252    0.0522   -0.0462 C   0  0  0  0  0  0  0  0  0  0  0  0
   -6.5243   -0.0215   -0.0525 H   0  0  0  0  0  0  0  0  0  0  0  0
   -4.8068    1.2843   -0.0492 C   0  0  0  0  0  0  0  0  0  0  0  0
   -5.3764    2.2246   -0.0578 H   0  0  0  0  0  0  0  0  0  0  0  0
  1 10  2  0  0  0  0
  2  4  1  0  0  0  0
  3  5  1  0  0  0  0
  4  7  2  0  0  0  0
  5 11  2  0  0  0  0
  5  6  1  0  0  0  0
  7 13  1  0  0  0  0
  7  3  1  0  0  0  0
  8  9  1  0  0  0  0
  8  4  1  0  0  0  0
 10  2  1  0  0  0  0
 11 12  1  0  0  0  0
 13 15  2  0  0  0  0
 14 13  1  0  0  0  0
 15 16  1  0  0  0  0
 15 11  1  0  0  0  0
 17  8  1  0  0  0  0
 18 17  1  0  0  0  0
 19 17  2  0  0  0  0
 19 10  1  0  0  0  0
 20 19  1  0  0  0  0
M  END
