1,3
q = 0.0, confidence = 0.998

 48 50  0  0  1  0  0  0  0  0999 V2000
    1.4206   -1.1930    0.0894 N   0  0  0  0  0  0  0  0  0  0  0  0
    1.7711   -1.2193   -0.8812 H   0  0  0  0  0  0  0  0  0  0  0  0
   -1.4221   -1.1911   -0.0900 N   0  0  0  0  0  0  0  0  0  0  0  0
   -1.7726   -1.2167    0.8807 H   0  0  0  0  0  0  0  0  0  0  0  0
   -2.4814    1.4454   -0.2865 O   0  0  0  0  0  0  0  0  0  0  0  0
    2.4834    1.4424    0.2870 O   0  0  0  0  0  0  0  0  0  0  0  0
    0.6648   -2.4190    0.3945 C   0  0  2  0  0  0  0  0  0  0  0  0
    0.4113   -2.3644    1.4785 H   0  0  0  0  0  0  0  0  0  0  0  0
    1.4622   -3.7058    0.1236 C   0  0  0  0  0  0  0  0  0  0  0  0
    2.3927   -3.7024    0.7276 H   0  0  0  0  0  0  0  0  0  0  0  0
    1.7786   -3.6961   -0.9446 H   0  0  0  0  0  0  0  0  0  0  0  0
    0.6479   -4.9727    0.4032 C   0  0  0  0  0  0  0  0  0  0  0  0
    1.2528   -5.8737    0.1730 H   0  0  0  0  0  0  0  0  0  0  0  0
    0.4094   -5.0247    1.4889 H   0  0  0  0  0  0  0  0  0  0  0  0
   -0.6545   -4.9719   -0.4031 C   0  0  0  0  0  0  0  0  0  0  0  0
   -1.2607   -5.8720   -0.1727 H   0  0  0  0  0  0  0  0  0  0  0  0
   -0.4162   -5.0244   -1.4888 H   0  0  0  0  0  0  0  0  0  0  0  0
   -1.4671   -3.7038   -0.1237 C   0  0  0  0  0  0  0  0  0  0  0  0
   -2.3976   -3.6993   -0.7277 H   0  0  0  0  0  0  0  0  0  0  0  0
   -1.7835   -3.6935    0.9445 H   0  0  0  0  0  0  0  0  0  0  0  0
   -0.6680   -2.4182   -0.3948 C   0  0  1  0  0  0  0  0  0  0  0  0
   -0.4145   -2.3642   -1.4789 H   0  0  0  0  0  0  0  0  0  0  0  0
   -2.5311   -0.8537   -1.0127 C   0  0  0  0  0  0  0  0  0  0  0  0
   -2.0626   -0.6309   -1.9972 H   0  0  0  0  0  0  0  0  0  0  0  0
   -3.2581   -1.6852   -1.1417 H   0  0  0  0  0  0  0  0  0  0  0  0
   -3.2589    0.3368   -0.4964 C   0  0  0  0  0  0  0  0  0  0  0  0
   -4.5446    0.5981   -0.0801 C   0  0  0  0  0  0  0  0  0  0  0  0
   -5.3912   -0.0966   -0.1178 H   0  0  0  0  0  0  0  0  0  0  0  0
   -4.5442    1.9493    0.4125 C   0  0  0  0  0  0  0  0  0  0  0  0
   -5.3924    2.5030    0.8292 H   0  0  0  0  0  0  0  0  0  0  0  0
   -3.2551    2.4213    0.2811 C   0  0  0  0  0  0  0  0  0  0  0  0
   -2.5494    3.6741    0.6504 C   0  0  0  0  0  0  0  0  0  0  0  0
   -1.7477    3.4433    1.3848 H   0  0  0  0  0  0  0  0  0  0  0  0
   -3.2551    4.3997    1.0943 H   0  0  0  0  0  0  0  0  0  0  0  0
   -2.0669    4.1384   -0.2348 H   0  0  0  0  0  0  0  0  0  0  0  0
    2.5301   -0.8571    1.0121 C   0  0  0  0  0  0  0  0  0  0  0  0
    2.0619   -0.6339    1.9967 H   0  0  0  0  0  0  0  0  0  0  0  0
    3.2561   -1.6896    1.1410 H   0  0  0  0  0  0  0  0  0  0  0  0
    3.2593    0.3326    0.4961 C   0  0  0  0  0  0  0  0  0  0  0  0
    4.5453    0.5921    0.0793 C   0  0  0  0  0  0  0  0  0  0  0  0
    5.3909   -0.1038    0.1164 H   0  0  0  0  0  0  0  0  0  0  0  0
    4.5467    1.9435   -0.4128 C   0  0  0  0  0  0  0  0  0  0  0  0
    5.3954    2.4961   -0.8297 H   0  0  0  0  0  0  0  0  0  0  0  0
    3.2583    2.4173   -0.2806 C   0  0  0  0  0  0  0  0  0  0  0  0
    2.5543    3.6713   -0.6491 C   0  0  0  0  0  0  0  0  0  0  0  0
    3.2608    4.3960   -1.0934 H   0  0  0  0  0  0  0  0  0  0  0  0
    2.0732    4.1362    0.2366 H   0  0  0  0  0  0  0  0  0  0  0  0
    1.7517    3.4420   -1.3829 H   0  0  0  0  0  0  0  0  0  0  0  0
  1  7  1  0  0  0  0
  1 36  1  0  0  0  0
  2  1  1  0  0  0  0
  3  4  1  0  0  0  0
  5 31  1  0  0  0  0
  6 39  1  0  0  0  0
  7  8  1  1  0  0  0
  9  7  1  0  0  0  0
  9 12  1  0  0  0  0
  9 10  1  0  0  0  0
 11  9  1  0  0  0  0
 12 14  1  0  0  0  0
 13 12  1  0  0  0  0
 15 16  1  0  0  0  0
 15 18  1  0  0  0  0
 15 12  1  0  0  0  0
 17 15  1  0  0  0  0
 18 20  1  0  0  0  0
 19 18  1  0  0  0  0
 21 22  1  6  0  0  0
 21 18  1  0  0  0  0
 21  3  1  0  0  0  0
 21  7  1  0  0  0  0
 23 26  1  0  0  0  0
 23  3  1  0  0  0  0
 24 23  1  0  0  0  0
 25 23  1  0  0  0  0
 26  5  1  0  0  0  0
 26 27  2  0  0  0  0
 27 29  1  0  0  0  0
 28 27  1  0  0  0  0
 29 30  1  0  0  0  0
 31 29  2  0  0  0  0
 31 32  1  0  0  0  0
 32 34  1  0  0  0  0
 32 33  1  0  0  0  0
 35 32  1  0  0  0  0
 36 38  1  0  0  0  0
 36 37  1  0  0  0  0
 39 36  1  0  0  0  0
 40 41  1  0  0  0  0
 40 39  2  0  0  0  0
 42 44  2  0  0  0  0
 42 40  1  0  0  0  0
 43 42  1  0  0  0  0
 44  6  1  0  0  0  0
 45 44  1  0  0  0  0
 45 47  1  0  0  0  0
 46 45  1  0  0  0  0
 48 45  1  0  0  0  0
M  END
