2,10
q = -2.0, confidence = 0.962

 16 17  0  0  0  0  0  0  0  0999 V2000
   -5.0580   -1.1067   -0.0480 O   0  0  0  0  0  0  0  0  0  0  0  0
   -1.2790    0.1309   -0.3174 N   0  0  0  0  0  0  0  0  0  0  0  0
   -4.2309   -3.1347   -0.2253 O   0  0  0  0  0  0  0  0  0  0  0  0
   -2.6105   -0.0246   -0.3537 N   0  0  0  0  0  0  0  0  0  0  0  0
   -2.7812   -1.3474   -0.1897 C   0  0  0  0  0  0  0  0  0  0  0  0
   -4.1328   -1.9163   -0.1545 N   0  0  0  0  0  0  0  0  0  0  0  0
   -1.6556   -2.0681   -0.0330 N   0  0  0  0  0  0  0  0  0  0  0  0
   -0.7255   -1.1068   -0.0986 C   0  0  0  0  0  0  0  0  0  0  0  0
    5.0580   -1.1067    0.0475 O   0  0  0  0  0  0  0  0  0  0  0  0
    1.2791    0.1309    0.3174 N   0  0  0  0  0  0  0  0  0  0  0  0
    4.2310   -3.1347    0.2256 O   0  0  0  0  0  0  0  0  0  0  0  0
    2.6106   -0.0245    0.3536 N   0  0  0  0  0  0  0  0  0  0  0  0
    2.7813   -1.3474    0.1897 C   0  0  0  0  0  0  0  0  0  0  0  0
    4.1329   -1.9163    0.1544 N   0  0  0  0  0  0  0  0  0  0  0  0
    1.6557   -2.0681    0.0331 N   0  0  0  0  0  0  0  0  0  0  0  0
    0.7255   -1.1067    0.0988 C   0  0  0  0  0  0  0  0  0  0  0  0
  2  8  1  0  0  0  0
  3  6  2  0  0  0  0
  4  2  2  0  0  0  0
  4  5  1  0  0  0  0
  5  6  1  0  0  0  0
  5  7  2  0  0  0  0
  6  1  2  0  0  0  0
  8  7  1  0  0  0  0
  8 16  1  0  0  0  0
  9 14  2  0  0  0  0
 10 12  1  0  0  0  0
 13 12  1  0  0  0  0
 14 13  1  0  0  0  0
 14 11  2  0  0  0  0
 15 16  1  0  0  0  0
 15 13  2  0  0  0  0
 16 10  2  0  0  0  0
M  END
