1,2
q = -1.0

 52 56  0  0  0  0  0  0  0  0999 V2000
    0.5098   -0.0775   -0.4357 N   0  0  0  0  0  2  0  0  0  0  0  0
    2.5257   -1.7884    0.0167 N   0  0  0  0  0  0  0  0  0  0  0  0
   -1.1036   -0.5251    2.5343 N   0  0  0  0  0  0  0  0  0  0  0  0
   -1.8038    0.7619   -0.0077 C   0  0  0  0  0  0  0  0  0  0  0  0
   -0.4731    0.9233   -0.4625 C   0  0  0  0  0  0  0  0  0  0  0  0
   -0.0367    2.2139   -0.9056 C   0  0  0  0  0  0  0  0  0  0  0  0
    1.0011    2.2926   -1.2536 H   0  0  0  0  0  0  0  0  0  0  0  0
   -0.8761    3.3074   -0.8974 C   0  0  0  0  0  0  0  0  0  0  0  0
   -0.5153    4.2859   -1.2510 H   0  0  0  0  0  0  0  0  0  0  0  0
   -2.2176    3.1929   -0.4316 C   0  0  0  0  0  0  0  0  0  0  0  0
   -2.6826    1.9024    0.0155 C   0  0  0  0  0  0  0  0  0  0  0  0
   -4.0276    1.8031    0.4907 C   0  0  0  0  0  0  0  0  0  0  0  0
   -4.3948    0.8256    0.8353 H   0  0  0  0  0  0  0  0  0  0  0  0
   -4.8631    2.9104    0.5214 C   0  0  0  0  0  0  0  0  0  0  0  0
   -5.8936    2.8052    0.8937 H   0  0  0  0  0  0  0  0  0  0  0  0
   -4.4020    4.1760    0.0724 C   0  0  0  0  0  0  0  0  0  0  0  0
   -5.0748    5.0465    0.0960 H   0  0  0  0  0  0  0  0  0  0  0  0
   -3.1021    4.3084   -0.3941 C   0  0  0  0  0  0  0  0  0  0  0  0
   -2.7293    5.2845   -0.7428 H   0  0  0  0  0  0  0  0  0  0  0  0
   -2.3340   -0.5748    0.4062 C   0  0  0  0  0  0  0  0  0  0  0  0
   -1.9272   -1.1982    1.6067 C   0  0  0  0  0  0  0  0  0  0  0  0
   -2.3199   -2.5525    1.8540 C   0  0  0  0  0  0  0  0  0  0  0  0
   -1.9966   -3.0428    2.7815 H   0  0  0  0  0  0  0  0  0  0  0  0
   -3.1141   -3.2510    0.9654 C   0  0  0  0  0  0  0  0  0  0  0  0
   -3.4073   -4.2895    1.1857 H   0  0  0  0  0  0  0  0  0  0  0  0
   -3.5817   -2.6430   -0.2328 C   0  0  0  0  0  0  0  0  0  0  0  0
   -3.1794   -1.2860   -0.5169 C   0  0  0  0  0  0  0  0  0  0  0  0
   -3.5970   -0.7146   -1.7598 C   0  0  0  0  0  0  0  0  0  0  0  0
   -3.2811    0.3080   -2.0077 H   0  0  0  0  0  0  0  0  0  0  0  0
   -4.3912   -1.4266   -2.6471 C   0  0  0  0  0  0  0  0  0  0  0  0
   -4.7004   -0.9589   -3.5943 H   0  0  0  0  0  0  0  0  0  0  0  0
   -4.8101   -2.7497   -2.3463 C   0  0  0  0  0  0  0  0  0  0  0  0
   -5.4458   -3.3006   -3.0555 H   0  0  0  0  0  0  0  0  0  0  0  0
   -4.4045   -3.3440   -1.1610 C   0  0  0  0  0  0  0  0  0  0  0  0
   -4.7075   -4.3747   -0.9181 H   0  0  0  0  0  0  0  0  0  0  0  0
   -0.3118   -1.3308    3.4453 C   0  0  0  0  0  0  0  0  0  0  0  0
   -0.8981   -1.7638    4.2950 H   0  0  0  0  0  0  0  0  0  0  0  0
    0.4818   -0.6929    3.8854 H   0  0  0  0  0  0  0  0  0  0  0  0
    0.1830   -2.1552    2.8964 H   0  0  0  0  0  0  0  0  0  0  0  0
   -1.6421    0.6784    3.1559 C   0  0  0  0  0  0  0  0  0  0  0  0
   -2.1416    1.3200    2.4101 H   0  0  0  0  0  0  0  0  0  0  0  0
   -0.8198    1.2654    3.6122 H   0  0  0  0  0  0  0  0  0  0  0  0
   -2.3794    0.4358    3.9611 H   0  0  0  0  0  0  0  0  0  0  0  0
    0.2427   -1.3606   -0.5944 C   0  0  0  0  0  3  0  0  0  0  0  0
   -0.7414   -1.7232   -0.9338 H   0  0  0  0  0  0  0  0  0  0  0  0
    1.2807   -2.2958   -0.3476 C   0  0  0  0  0  0  0  0  0  0  0  0
    1.3323   -3.7094   -0.3896 C   0  0  0  0  0  0  0  0  0  0  0  0
    0.4982   -4.3770   -0.6382 H   0  0  0  0  0  0  0  0  0  0  0  0
    2.6512   -4.0651   -0.0344 C   0  0  0  0  0  0  0  0  0  0  0  0
    3.0655   -5.0769    0.0502 H   0  0  0  0  0  0  0  0  0  0  0  0
    3.3479   -2.8573    0.1941 C   0  0  0  0  0  3  0  0  0  0  0  0
    4.4000   -2.7155    0.4716 H   0  0  0  0  0  0  0  0  0  0  0  0
  2 51  1  0  0  0  0
  3 40  1  0  0  0  0
  3 36  1  0  0  0  0
  4 11  1  0  0  0  0
  4 20  1  0  0  0  0
  5  1  1  0  0  0  0
  5  4  2  0  0  0  0
  6  8  2  0  0  0  0
  6  5  1  0  0  0  0
  7  6  1  0  0  0  0
  8 10  1  0  0  0  0
  9  8  1  0  0  0  0
 10 18  2  0  0  0  0
 10 11  1  0  0  0  0
 11 12  2  0  0  0  0
 12 14  1  0  0  0  0
 12 13  1  0  0  0  0
 14 15  1  0  0  0  0
 16 17  1  0  0  0  0
 16 14  2  0  0  0  0
 18 16  1  0  0  0  0
 19 18  1  0  0  0  0
 20 21  1  0  0  0  0
 21 22  2  0  0  0  0
 21  3  1  0  0  0  0
 22 23  1  0  0  0  0
 24 25  1  0  0  0  0
 24 22  1  0  0  0  0
 26 24  2  0  0  0  0
 27 26  1  0  0  0  0
 27 20  2  0  0  0  0
 28 27  1  0  0  0  0
 29 28  1  0  0  0  0
 30 32  1  0  0  0  0
 30 28  2  0  0  0  0
 31 30  1  0  0  0  0
 32 34  2  0  0  0  0
 33 32  1  0  0  0  0
 34 35  1  0  0  0  0
 34 26  1  0  0  0  0
 36 38  1  0  0  0  0
 36 37  1  0  0  0  0
 39 36  1  0  0  0  0
 40 42  1  0  0  0  0
 40 43  1  0  0  0  0
 41 40  1  0  0  0  0
 44  1  1  0  0  0  0
 44 46  1  0  0  0  0
 45 44  1  0  0  0  0
 46  2  2  0  0  0  0
 47 46  1  0  0  0  0
 47 49  2  0  0  0  0
 48 47  1  0  0  0  0
 49 50  1  0  0  0  0
 49 51  1  0  0  0  0
 51 52  1  0  0  0  0
M  END
