1,3
q = -1.0, confidence = 0.0

 49 51  0  0  1  0  0  0  0  0999 V2000
    0.1140    0.0345   -0.7030 N   0  0  0  0  0  2  0  0  0  0  0  0
   -2.0618   -0.2667    2.1425 N   0  0  0  0  0  0  0  0  0  0  0  0
    2.2174    1.5726   -0.4389 N   0  0  0  0  0  2  0  0  0  0  0  0
   -2.3075   -0.6816   -0.7796 C   0  0  0  0  0  0  0  0  0  0  0  0
   -0.9145   -0.8508   -1.0772 C   0  0  0  0  0  0  0  0  0  0  0  0
   -0.5362   -2.0068   -1.8133 C   0  0  0  0  0  0  0  0  0  0  0  0
    0.5209   -2.1128   -2.0915 H   0  0  0  0  0  0  0  0  0  0  0  0
   -1.4608   -2.9810   -2.1855 C   0  0  0  0  0  0  0  0  0  0  0  0
   -1.1247   -3.8652   -2.7491 H   0  0  0  0  0  0  0  0  0  0  0  0
   -2.8180   -2.8203   -1.8660 C   0  0  0  0  0  0  0  0  0  0  0  0
   -3.5537   -3.5856   -2.1577 H   0  0  0  0  0  0  0  0  0  0  0  0
   -3.2517   -1.6717   -1.1824 C   0  0  0  0  0  0  0  0  0  0  0  0
   -4.7159   -1.5233   -0.8352 C   0  0  0  0  0  0  0  0  0  0  0  0
   -4.8692   -1.3773    0.2537 H   0  0  0  0  0  0  0  0  0  0  0  0
   -5.2878   -2.4190   -1.1454 H   0  0  0  0  0  0  0  0  0  0  0  0
   -5.1779   -0.6406   -1.3228 H   0  0  0  0  0  0  0  0  0  0  0  0
   -2.8128    0.5405   -0.0776 C   0  0  0  0  0  0  0  0  0  0  0  0
   -2.6327    0.7384    1.3277 C   0  0  0  0  0  0  0  0  0  0  0  0
   -2.9915    1.9893    1.8890 C   0  0  0  0  0  0  0  0  0  0  0  0
   -2.8621    2.1625    2.9650 H   0  0  0  0  0  0  0  0  0  0  0  0
   -3.5344    3.0071    1.0975 C   0  0  0  0  0  0  0  0  0  0  0  0
   -3.8074    3.9682    1.5601 H   0  0  0  0  0  0  0  0  0  0  0  0
   -3.7477    2.7979   -0.2693 C   0  0  0  0  0  0  0  0  0  0  0  0
   -4.1765    3.5971   -0.8934 H   0  0  0  0  0  0  0  0  0  0  0  0
   -3.3887    1.5734   -0.8660 C   0  0  0  0  0  0  0  0  0  0  0  0
   -3.5217    1.4181   -2.3626 C   0  0  0  0  0  0  0  0  0  0  0  0
   -2.5335    1.2510   -2.8412 H   0  0  0  0  0  0  0  0  0  0  0  0
   -3.9769    2.3195   -2.8161 H   0  0  0  0  0  0  0  0  0  0  0  0
   -4.1356    0.5404   -2.6454 H   0  0  0  0  0  0  0  0  0  0  0  0
   -0.1472    1.4560   -0.8329 C   0  0  0  0  0  0  0  0  0  0  0  0
   -0.7712    1.8807   -0.0075 H   0  0  0  0  0  0  0  0  0  0  0  0
   -0.7189    1.6879   -1.7611 H   0  0  0  0  0  0  0  0  0  0  0  0
    1.1246    2.2479   -0.8426 C   0  0  1  0  0  3  0  0  0  0  0  0
    1.1911    3.6091   -1.1981 C   0  0  0  0  0  0  0  0  0  0  0  0
    0.2782    4.1338   -1.5169 H   0  0  0  0  0  0  0  0  0  0  0  0
    2.4253    4.2630   -1.1393 C   0  0  0  0  0  0  0  0  0  0  0  0
    2.5080    5.3233   -1.4223 H   0  0  0  0  0  0  0  0  0  0  0  0
    3.5613    3.5460   -0.7173 C   0  0  0  0  0  0  0  0  0  0  0  0
    4.5493    4.0241   -0.6566 H   0  0  0  0  0  0  0  0  0  0  0  0
    3.4091    2.2017   -0.3734 C   0  0  0  0  0  0  0  0  0  0  0  0
    4.2539    1.5833   -0.0302 H   0  0  0  0  0  0  0  0  0  0  0  0
   -2.7498   -1.5498    2.2075 C   0  0  0  0  0  0  0  0  0  0  0  0
   -3.7330   -1.4728    2.7358 H   0  0  0  0  0  0  0  0  0  0  0  0
   -2.1219   -2.2731    2.7634 H   0  0  0  0  0  0  0  0  0  0  0  0
   -2.9126   -1.9641    1.1982 H   0  0  0  0  0  0  0  0  0  0  0  0
   -1.5322    0.1387    3.4302 C   0  0  0  0  0  0  0  0  0  0  0  0
   -0.9149    1.0503    3.3241 H   0  0  0  0  0  0  0  0  0  0  0  0
   -0.8769   -0.6685    3.8166 H   0  0  0  0  0  0  0  0  0  0  0  0
   -2.3187    0.3336    4.2039 H   0  0  0  0  0  0  0  0  0  0  0  0
  2 42  1  0  0  0  0
  2 46  1  0  0  0  0
  3 40  1  0  0  0  0
  4 17  1  0  0  0  0
  5  4  1  0  0  0  0
  5  1  1  0  0  0  0
  6  5  2  0  0  0  0
  7  6  1  0  0  0  0
  8 10  2  0  0  0  0
  8  6  1  0  0  0  0
  9  8  1  0  0  0  0
 10 12  1  0  0  0  0
 11 10  1  0  0  0  0
 12 13  1  0  0  0  0
 12  4  2  0  0  0  0
 13 14  1  0  0  0  0
 15 13  1  0  0  0  0
 16 13  1  0  0  0  0
 17 18  1  0  0  0  0
 18 19  2  0  0  0  0
 18  2  1  0  0  0  0
 19 20  1  0  0  0  0
 21 22  1  0  0  0  0
 21 19  1  0  0  0  0
 23 21  2  0  0  0  0
 24 23  1  0  0  0  0
 25 23  1  0  0  0  0
 25 17  2  0  0  0  0
 26 25  1  0  0  0  0
 27 26  1  0  0  0  0
 28 26  1  0  0  0  0
 29 26  1  0  0  0  0
 30  1  1  0  0  0  0
 30 31  1  0  0  0  0
 32 30  1  0  0  0  0
 33 30  1  1  0  0  0
 33  3  1  0  0  0  0
 34 36  2  0  0  0  0
 34 33  1  0  0  0  0
 35 34  1  0  0  0  0
 36 38  1  0  0  0  0
 37 36  1  0  0  0  0
 38 39  1  0  0  0  0
 38 40  2  0  0  0  0
 40 41  1  0  0  0  0
 42 43  1  0  0  0  0
 42 44  1  0  0  0  0
 45 42  1  0  0  0  0
 46 48  1  0  0  0  0
 46 49  1  0  0  0  0
 47 46  1  0  0  0  0
M  END
