2,4
q = -1.0, confidence = 0.0

 30 31  0  0  0  0  0  0  0  0999 V2000
   -1.0268    1.8781   -1.1814 O   0  0  0  0  0  1  0  0  0  0  0  0
   -1.4681   -1.4099    0.6406 N   0  0  0  0  0  2  0  0  0  0  0  0
   -2.4953   -1.0788   -0.0575 N   0  0  0  0  0  0  0  0  0  0  0  0
   -1.2522    0.8131   -0.5787 N   0  0  0  0  0  2  0  0  0  0  0  0
   -1.5634   -2.6308    1.3488 C   0  0  0  0  0  0  0  0  0  0  0  0
   -0.4137   -3.4290    1.5165 C   0  0  0  0  0  0  0  0  0  0  0  0
   -0.5195   -4.6458    2.2026 C   0  0  0  0  0  0  0  0  0  0  0  0
   -1.7499   -5.0669    2.7333 C   0  0  0  0  0  0  0  0  0  0  0  0
   -2.8905   -4.2602    2.5719 C   0  0  0  0  0  0  0  0  0  0  0  0
   -2.8027   -3.0464    1.8816 C   0  0  0  0  0  0  0  0  0  0  0  0
   -2.4281    0.1016   -0.7203 C   0  0  0  0  0  0  0  0  0  0  0  0
   -3.5728    0.5017   -1.5542 C   0  0  0  0  0  0  0  0  0  0  0  0
   -4.6749   -0.3876   -1.6654 C   0  0  0  0  0  0  0  0  0  0  0  0
   -5.7943   -0.0584   -2.4305 C   0  0  0  0  0  0  0  0  0  0  0  0
   -5.8785    1.1692   -3.1239 C   0  0  0  0  0  0  0  0  0  0  0  0
   -4.7866    2.0486   -3.0116 C   0  0  0  0  0  0  0  0  0  0  0  0
   -3.6531    1.7324   -2.2489 C   0  0  0  0  0  0  0  0  0  0  0  0
   -7.0929    1.5109   -3.9509 C   0  0  0  0  0  0  0  0  0  0  0  0
    0.5405   -3.0841    1.1017 H   0  0  0  0  0  0  0  0  0  0  0  0
    0.3783   -5.2707    2.3271 H   0  0  0  0  0  0  0  0  0  0  0  0
   -1.8199   -6.0199    3.2807 H   0  0  0  0  0  0  0  0  0  0  0  0
   -3.8554   -4.5745    2.9998 H   0  0  0  0  0  0  0  0  0  0  0  0
   -3.6727   -2.3876    1.7567 H   0  0  0  0  0  0  0  0  0  0  0  0
   -4.6245   -1.3462   -1.1310 H   0  0  0  0  0  0  0  0  0  0  0  0
   -6.6306   -0.7744   -2.4942 H   0  0  0  0  0  0  0  0  0  0  0  0
   -4.8197    3.0164   -3.5389 H   0  0  0  0  0  0  0  0  0  0  0  0
   -2.8137    2.4334   -2.1806 H   0  0  0  0  0  0  0  0  0  0  0  0
   -7.0069    2.5186   -4.4033 H   0  0  0  0  0  0  0  0  0  0  0  0
   -7.2424    0.7827   -4.7771 H   0  0  0  0  0  0  0  0  0  0  0  0
   -8.0210    1.4927   -3.3404 H   0  0  0  0  0  0  0  0  0  0  0  0
  1  4  1  0  0  0  0
  2  5  1  0  0  0  0
  3  2  1  0  0  0  0
  5  6  2  0  0  0  0
  5 10  1  0  0  0  0
  6  7  1  0  0  0  0
  7 20  1  0  0  0  0
  7  8  2  0  0  0  0
  8 21  1  0  0  0  0
  9  8  1  0  0  0  0
  9 22  1  0  0  0  0
 10  9  2  0  0  0  0
 11  4  1  0  0  0  0
 11  3  2  0  0  0  0
 12 11  1  0  0  0  0
 13 12  1  0  0  0  0
 13 24  1  0  0  0  0
 14 13  2  0  0  0  0
 15 16  2  0  0  0  0
 15 14  1  0  0  0  0
 16 17  1  0  0  0  0
 17 27  1  0  0  0  0
 17 12  2  0  0  0  0
 18 30  1  0  0  0  0
 18 15  1  0  0  0  0
 19  6  1  0  0  0  0
 23 10  1  0  0  0  0
 25 14  1  0  0  0  0
 26 16  1  0  0  0  0
 28 18  1  0  0  0  0
 29 18  1  0  0  0  0
M  END
