1,23
q = 0.0, confidence = 0.952

 34 36  0  0  1  0  0  0  0  0999 V2000
   -1.3791    1.7157   -0.8510 N   0  0  0  0  0  2  0  0  0  0  0  0
   -2.4587    0.9910   -1.2034 C   0  0  1  0  0  3  0  0  0  0  0  0
   -3.5186    1.8105   -1.4778 N   0  0  0  0  0  0  0  0  0  0  0  0
   -3.0856    3.1099   -1.2717 C   0  0  0  0  0  0  0  0  0  0  0  0
   -1.7515    3.0314   -0.8923 C   0  0  0  0  0  0  0  0  0  0  0  0
   -1.0582    3.8444   -0.6555 H   0  0  0  0  0  0  0  0  0  0  0  0
   -3.7513    3.9666   -1.4105 H   0  0  0  0  0  0  0  0  0  0  0  0
   -4.8792    1.3457   -1.7056 C   0  0  0  0  0  0  0  0  0  0  0  0
   -5.7240    1.3316   -0.4427 C   0  0  0  0  0  0  0  0  0  0  0  0
   -7.1041    1.5949   -0.5266 C   0  0  0  0  0  0  0  0  0  0  0  0
   -7.9117    1.5400    0.6195 C   0  0  0  0  0  0  0  0  0  0  0  0
   -7.3427    1.2295    1.8644 C   0  0  0  0  0  0  0  0  0  0  0  0
   -5.9650    0.9744    1.9541 C   0  0  0  0  0  0  0  0  0  0  0  0
   -5.1557    1.0221    0.8093 C   0  0  0  0  0  0  0  0  0  0  0  0
   -4.0759    0.8221    0.9109 H   0  0  0  0  0  0  0  0  0  0  0  0
   -5.5054    0.7367    2.9254 H   0  0  0  0  0  0  0  0  0  0  0  0
   -7.9730    1.1920    2.7659 H   0  0  0  0  0  0  0  0  0  0  0  0
   -8.9893    1.7495    0.5398 H   0  0  0  0  0  0  0  0  0  0  0  0
   -7.5530    1.8471   -1.5012 H   0  0  0  0  0  0  0  0  0  0  0  0
   -4.7855    0.3203   -2.1203 H   0  0  0  0  0  0  0  0  0  0  0  0
   -5.3480    1.9796   -2.4845 H   0  0  0  0  0  0  0  0  0  0  0  0
   -2.4406   -0.3551   -1.3184 N   0  0  0  0  0  2  0  0  0  0  0  0
   -1.2874   -0.8283   -0.8986 N   0  0  0  0  0  2  0  0  0  0  0  0
   -1.1340   -2.2154   -1.1780 C   0  0  0  0  0  0  0  0  0  0  0  0
   -2.2326   -3.0922   -1.0614 C   0  0  0  0  0  0  0  0  0  0  0  0
   -2.0544   -4.4551   -1.3185 C   0  0  0  0  0  0  0  0  0  0  0  0
   -0.7958   -4.9428   -1.7131 C   0  0  0  0  0  0  0  0  0  0  0  0
    0.2844   -4.0574   -1.8579 C   0  0  0  0  0  0  0  0  0  0  0  0
    0.1255   -2.6926   -1.5883 C   0  0  0  0  0  0  0  0  0  0  0  0
    0.9482   -1.9720   -1.7099 H   0  0  0  0  0  0  0  0  0  0  0  0
    1.2677   -4.4333   -2.1774 H   0  0  0  0  0  0  0  0  0  0  0  0
   -0.6581   -6.0170   -1.9085 H   0  0  0  0  0  0  0  0  0  0  0  0
   -2.9029   -5.1467   -1.2035 H   0  0  0  0  0  0  0  0  0  0  0  0
   -3.2030   -2.6860   -0.7461 H   0  0  0  0  0  0  0  0  0  0  0  0
  2 22  1  6  0  0  0
  2  1  1  0  0  0  0
  3  4  1  0  0  0  0
  3  2  1  0  0  0  0
  4  5  2  0  0  0  0
  5  1  1  0  0  0  0
  5  6  1  0  0  0  0
  7  4  1  0  0  0  0
  8  3  1  0  0  0  0
  8  9  1  0  0  0  0
  9 14  1  0  0  0  0
 10  9  2  0  0  0  0
 10 11  1  0  0  0  0
 11 12  2  0  0  0  0
 12 13  1  0  0  0  0
 12 17  1  0  0  0  0
 13 16  1  0  0  0  0
 14 15  1  0  0  0  0
 14 13  2  0  0  0  0
 18 11  1  0  0  0  0
 19 10  1  0  0  0  0
 20  8  1  0  0  0  0
 21  8  1  0  0  0  0
 22 23  1  0  0  0  0
 24 25  1  0  0  0  0
 24 23  1  0  0  0  0
 25 34  1  0  0  0  0
 26 33  1  0  0  0  0
 26 25  2  0  0  0  0
 27 26  1  0  0  0  0
 28 27  2  0  0  0  0
 28 29  1  0  0  0  0
 29 24  2  0  0  0  0
 30 29  1  0  0  0  0
 31 28  1  0  0  0  0
 32 27  1  0  0  0  0
M  END
