1,4
q = 0.0, confidence = 1.0

 40 42  0  0  1  0  0  0  0  0999 V2000
   -0.0483    1.5247   -0.7122 N   0  0  0  0  0  2  0  0  0  0  0  0
   -1.3340    1.2752   -1.0997 N   0  0  0  0  0  0  0  0  0  0  0  0
   -1.4306   -1.1334   -1.1105 N   0  0  0  0  0  0  0  0  0  0  0  0
   -0.1126   -1.4123   -0.8992 N   0  0  0  0  0  2  0  0  0  0  0  0
   -2.3987    0.1122    0.8374 C   0  0  0  0  0  0  0  0  0  0  0  0
    1.5908    3.3872   -1.0284 C   0  0  0  0  0  0  0  0  0  0  0  0
    1.8558    3.5079    0.0395 H   0  0  0  0  0  0  0  0  0  0  0  0
    1.6028    4.3807   -1.5138 H   0  0  0  0  0  0  0  0  0  0  0  0
    2.3859    2.7613   -1.4808 H   0  0  0  0  0  0  0  0  0  0  0  0
    0.2514    2.7530   -1.1969 C   0  0  1  0  0  3  0  0  0  0  0  0
   -0.8696    3.2822   -1.8854 C   0  0  0  0  0  0  0  0  0  0  0  0
   -0.9317    4.2533   -2.3866 H   0  0  0  0  0  0  0  0  0  0  0  0
   -1.8726    2.3212   -1.8118 C   0  0  0  0  0  0  0  0  0  0  0  0
   -3.2701    2.3220   -2.3363 C   0  0  0  0  0  0  0  0  0  0  0  0
   -3.4559    1.4802   -3.0369 H   0  0  0  0  0  0  0  0  0  0  0  0
   -3.4556    3.2600   -2.8904 H   0  0  0  0  0  0  0  0  0  0  0  0
   -4.0250    2.2601   -1.5240 H   0  0  0  0  0  0  0  0  0  0  0  0
   -2.0461    0.0980   -0.6544 C   0  0  1  0  0  0  0  0  0  0  0  0
   -3.0156    0.1328   -1.1864 H   0  0  0  0  0  0  0  0  0  0  0  0
   -2.3083    1.2830    1.6093 C   0  0  0  0  0  0  0  0  0  0  0  0
   -1.8690    2.2005    1.1940 H   0  0  0  0  0  0  0  0  0  0  0  0
   -2.7547    1.2277    2.9360 C   0  0  0  0  0  0  0  0  0  0  0  0
   -2.6821    2.1149    3.5824 H   0  0  0  0  0  0  0  0  0  0  0  0
   -3.2700    0.0213    3.4294 C   0  0  0  0  0  0  0  0  0  0  0  0
   -3.6153   -0.0688    4.4694 H   0  0  0  0  0  0  0  0  0  0  0  0
   -3.3289   -1.0825    2.5643 C   0  0  0  0  0  0  0  0  0  0  0  0
   -3.7322   -2.0482    2.9152 H   0  0  0  0  0  0  0  0  0  0  0  0
   -2.9167   -1.0387    1.2885 N   0  0  0  0  0  0  0  0  0  0  0  0
   -3.5424   -2.1384   -2.0405 C   0  0  0  0  0  0  0  0  0  0  0  0
   -3.8383   -1.3077   -2.7173 H   0  0  0  0  0  0  0  0  0  0  0  0
   -4.1179   -2.0412   -1.0964 H   0  0  0  0  0  0  0  0  0  0  0  0
   -3.8387   -3.0831   -2.5314 H   0  0  0  0  0  0  0  0  0  0  0  0
   -2.0782   -2.1559   -1.7577 C   0  0  2  0  0  3  0  0  0  0  0  0
   -1.1100   -3.1259   -1.9947 C   0  0  0  0  0  0  0  0  0  0  0  0
   -1.2585   -4.0879   -2.4952 H   0  0  0  0  0  0  0  0  0  0  0  0
    0.1014   -2.6272   -1.4540 C   0  0  0  0  0  0  0  0  0  0  0  0
    1.4403   -3.2851   -1.4682 C   0  0  0  0  0  0  0  0  0  0  0  0
    2.2201   -2.5962   -1.8480 H   0  0  0  0  0  0  0  0  0  0  0  0
    1.4132   -4.1841   -2.1118 H   0  0  0  0  0  0  0  0  0  0  0  0
    1.7555   -3.5909   -0.4513 H   0  0  0  0  0  0  0  0  0  0  0  0
  2  1  1  0  0  0  0
  2 18  1  0  0  0  0
  3  4  1  0  0  0  0
  3 18  1  0  0  0  0
  5 28  2  0  0  0  0
  5 20  1  0  0  0  0
  6  7  1  0  0  0  0
  8  6  1  0  0  0  0
  9  6  1  0  0  0  0
 10  6  1  6  0  0  0
 10  1  1  0  0  0  0
 11 13  2  0  0  0  0
 11 10  1  0  0  0  0
 12 11  1  0  0  0  0
 13  2  1  0  0  0  0
 14 13  1  0  0  0  0
 14 17  1  0  0  0  0
 15 14  1  0  0  0  0
 16 14  1  0  0  0  0
 18 19  1  6  0  0  0
 18  5  1  0  0  0  0
 20 22  2  0  0  0  0
 21 20  1  0  0  0  0
 22 24  1  0  0  0  0
 22 23  1  0  0  0  0
 24 25  1  0  0  0  0
 26 27  1  0  0  0  0
 26 24  2  0  0  0  0
 28 26  1  0  0  0  0
 29 31  1  0  0  0  0
 30 29  1  0  0  0  0
 32 29  1  0  0  0  0
 33 29  1  1  0  0  0
 33  3  1  0  0  0  0
 34 33  1  0  0  0  0
 34 36  2  0  0  0  0
 35 34  1  0  0  0  0
 36  4  1  0  0  0  0
 37 36  1  0  0  0  0
 37 40  1  0  0  0  0
 38 37  1  0  0  0  0
 39 37  1  0  0  0  0
M  END
