2,4
q = 0.0, confidence = 0.998

 30 31  0  0  1  0  0  0  0  0999 V2000
   -1.8695   -0.5375   -1.6712 O   0  0  0  0  0  0  0  0  0  0  0  0
    1.0062   -1.3768   -0.1421 N   0  0  0  0  0  2  0  0  0  0  0  0
    0.1515    0.3560   -2.2226 N   0  0  0  0  0  0  0  0  0  0  0  0
   -0.5153    1.7330    0.1873 N   0  0  0  0  0  2  0  0  0  0  0  0
    1.6409   -2.2942    0.6101 C   0  0  0  0  0  3  0  0  0  0  0  0
    1.3576   -3.6631    0.4983 C   0  0  0  0  0  0  0  0  0  0  0  0
    0.3698   -4.0853   -0.4052 C   0  0  0  0  0  0  0  0  0  0  0  0
   -0.2929   -3.1269   -1.1867 C   0  0  0  0  0  0  0  0  0  0  0  0
    0.0791   -1.7857   -1.0383 C   0  0  0  0  0  0  0  0  0  0  0  0
   -0.6265   -0.6467   -1.7237 C   0  0  0  0  0  0  0  0  0  0  0  0
    1.5382    0.1854   -2.6580 C   0  0  0  0  0  0  0  0  0  0  0  0
   -0.4427    1.6907   -2.2783 C   0  0  0  0  0  0  0  0  0  0  0  0
   -1.1259    2.0802   -0.9787 C   0  0  2  0  0  3  0  0  0  0  0  0
   -2.3340    2.7911   -0.9932 C   0  0  0  0  0  0  0  0  0  0  0  0
   -2.9378    3.1614    0.2139 C   0  0  0  0  0  0  0  0  0  0  0  0
   -2.3108    2.7933    1.4143 C   0  0  0  0  0  0  0  0  0  0  0  0
   -1.1108    2.0854    1.3560 C   0  0  0  0  0  0  0  0  0  0  0  0
    2.4017   -1.8872    1.2995 H   0  0  0  0  0  0  0  0  0  0  0  0
    1.9031   -4.3866    1.1214 H   0  0  0  0  0  0  0  0  0  0  0  0
    0.1137   -5.1513   -0.4968 H   0  0  0  0  0  0  0  0  0  0  0  0
   -1.0875   -3.4006   -1.8952 H   0  0  0  0  0  0  0  0  0  0  0  0
    2.2522    0.6782   -1.9610 H   0  0  0  0  0  0  0  0  0  0  0  0
    1.6536    0.6044   -3.6793 H   0  0  0  0  0  0  0  0  0  0  0  0
    1.7851   -0.8900   -2.6982 H   0  0  0  0  0  0  0  0  0  0  0  0
    0.3876    2.3988   -2.4804 H   0  0  0  0  0  0  0  0  0  0  0  0
   -1.1705    1.7770   -3.1121 H   0  0  0  0  0  0  0  0  0  0  0  0
   -2.8028    3.0343   -1.9580 H   0  0  0  0  0  0  0  0  0  0  0  0
   -3.8881    3.7150    0.2185 H   0  0  0  0  0  0  0  0  0  0  0  0
   -2.7467    3.0439    2.3915 H   0  0  0  0  0  0  0  0  0  0  0  0
   -0.5845    1.7816    2.2735 H   0  0  0  0  0  0  0  0  0  0  0  0
  2  5  1  0  0  0  0
  3 10  1  0  0  0  0
  4 17  1  0  0  0  0
  5 18  1  0  0  0  0
  6  5  1  0  0  0  0
  6 19  1  0  0  0  0
  7  6  2  0  0  0  0
  8  9  2  0  0  0  0
  8  7  1  0  0  0  0
  9  2  1  0  0  0  0
 10  1  2  0  0  0  0
 10  9  1  0  0  0  0
 11  3  1  0  0  0  0
 11 22  1  0  0  0  0
 12  3  1  0  0  0  0
 13 12  1  6  0  0  0
 13  4  1  0  0  0  0
 14 13  1  0  0  0  0
 14 15  2  0  0  0  0
 15 28  1  0  0  0  0
 15 16  1  0  0  0  0
 16 29  1  0  0  0  0
 17 16  2  0  0  0  0
 17 30  1  0  0  0  0
 20  7  1  0  0  0  0
 21  8  1  0  0  0  0
 23 11  1  0  0  0  0
 24 11  1  0  0  0  0
 25 12  1  0  0  0  0
 26 12  1  0  0  0  0
 27 14  1  0  0  0  0
M  END
