1,14
q = 0.0, confidence = 0.996

 23 23  0  0  0  0  0  0  0  0999 V2000
   -1.5501   -0.2485    0.0092 N   0  0  0  0  0  2  0  0  0  0  0  0
   -2.5576   -1.1187   -0.1643 C   0  0  0  0  0  3  0  0  0  0  0  0
   -2.2730   -2.1835   -0.1835 H   0  0  0  0  0  0  0  0  0  0  0  0
   -3.8813   -0.6930   -0.3300 C   0  0  0  0  0  0  0  0  0  0  0  0
   -4.6860   -1.4292   -0.4671 H   0  0  0  0  0  0  0  0  0  0  0  0
   -4.1438    0.6852   -0.3266 C   0  0  0  0  0  0  0  0  0  0  0  0
   -5.1707    1.0577   -0.4594 H   0  0  0  0  0  0  0  0  0  0  0  0
   -3.0815    1.5875   -0.1701 C   0  0  0  0  0  0  0  0  0  0  0  0
   -3.2520    2.6741   -0.1840 H   0  0  0  0  0  0  0  0  0  0  0  0
   -1.7844    1.0806   -0.0032 C   0  0  0  0  0  0  0  0  0  0  0  0
   -0.5581    1.9543    0.1926 C   0  0  0  0  0  0  0  0  0  0  0  0
   -0.7229    2.9837   -0.1942 H   0  0  0  0  0  0  0  0  0  0  0  0
   -0.3619    2.0097    1.2907 H   0  0  0  0  0  0  0  0  0  0  0  0
    0.5969    1.2912   -0.3810 N   0  0  0  0  0  2  0  0  0  0  0  0
    1.5568    1.9106   -0.9599 C   0  0  0  0  0  3  0  0  0  0  0  0
    1.5215    3.0198   -1.0776 H   0  0  0  0  0  0  0  0  0  0  0  0
    2.7829    1.1676   -1.3911 C   0  0  0  0  0  0  0  0  0  0  0  0
    3.2374    1.6672   -2.2712 H   0  0  0  0  0  0  0  0  0  0  0  0
    2.4790    0.1386   -1.6837 H   0  0  0  0  0  0  0  0  0  0  0  0
    3.7918    1.0916   -0.2259 C   0  0  0  0  0  0  0  0  0  0  0  0
    4.1365    2.0980    0.0880 H   0  0  0  0  0  0  0  0  0  0  0  0
    4.6798    0.5037   -0.5291 H   0  0  0  0  0  0  0  0  0  0  0  0
    3.3239    0.5985    0.6511 H   0  0  0  0  0  0  0  0  0  0  0  0
  2  1  1  0  0  0  0
  3  2  1  0  0  0  0
  4  6  2  0  0  0  0
  4  2  1  0  0  0  0
  5  4  1  0  0  0  0
  6  8  1  0  0  0  0
  7  6  1  0  0  0  0
  8 10  2  0  0  0  0
  9  8  1  0  0  0  0
 10  1  1  0  0  0  0
 10 11  1  0  0  0  0
 11 13  1  0  0  0  0
 12 11  1  0  0  0  0
 14 11  1  0  0  0  0
 15 14  1  0  0  0  0
 16 15  1  0  0  0  0
 17 15  1  0  0  0  0
 17 20  1  0  0  0  0
 18 17  1  0  0  0  0
 19 17  1  0  0  0  0
 20 21  1  0  0  0  0
 20 23  1  0  0  0  0
 22 20  1  0  0  0  0
M  END
