1,2
q = 0.0, confidence = 1.0

 55 59  0  0  0  0  0  0  0  0999 V2000
   -2.2461    0.1586   -0.3276 N   0  0  0  0  0  2  0  0  0  0  0  0
    0.0487    1.4720   -0.5151 N   0  0  0  0  0  2  0  0  0  0  0  0
   -3.6118    1.8591   -0.8787 N   0  0  0  0  0  0  0  0  0  0  0  0
    2.8620    0.5150   -1.5926 N   0  0  0  0  0  0  0  0  0  0  0  0
    3.4243    1.3130    0.4625 N   0  0  0  0  0  0  0  0  0  0  0  0
   -5.4210   -1.8447   -0.2889 C   0  0  0  0  0  0  0  0  0  0  0  0
   -6.2995   -0.7623   -0.6424 C   0  0  0  0  0  0  0  0  0  0  0  0
   -5.7914    0.5273   -0.8607 C   0  0  0  0  0  0  0  0  0  0  0  0
   -6.4754    1.3489   -1.1204 H   0  0  0  0  0  0  0  0  0  0  0  0
   -4.4096    0.7287   -0.7270 C   0  0  0  0  0  0  0  0  0  0  0  0
   -3.5349   -0.3359   -0.3809 C   0  0  0  0  0  0  0  0  0  0  0  0
   -4.0442   -1.6279   -0.1592 C   0  0  0  0  0  0  0  0  0  0  0  0
   -3.3724   -2.4492    0.1212 H   0  0  0  0  0  0  0  0  0  0  0  0
   -2.3103    1.4690   -0.6150 C   0  0  0  0  0  0  0  0  0  0  0  0
   -1.0806    2.2462   -0.6275 C   0  0  0  0  0  0  0  0  0  0  0  0
   -1.0074    3.6511   -0.6985 C   0  0  0  0  0  0  0  0  0  0  0  0
   -1.9188    4.2555   -0.7418 H   0  0  0  0  0  0  0  0  0  0  0  0
    0.2419    4.2748   -0.6609 C   0  0  0  0  0  0  0  0  0  0  0  0
    0.3171    5.3713   -0.6946 H   0  0  0  0  0  0  0  0  0  0  0  0
    1.3897    3.4795   -0.5917 C   0  0  0  0  0  0  0  0  0  0  0  0
    2.3962    3.9196   -0.5969 H   0  0  0  0  0  0  0  0  0  0  0  0
    1.2589    2.0795   -0.5411 C   0  0  0  0  0  0  0  0  0  0  0  0
    2.4835    1.2495   -0.5585 C   0  0  0  0  0  0  0  0  0  0  0  0
    4.4882    0.5296    0.0407 C   0  0  0  0  0  0  0  0  0  0  0  0
    5.6980    0.1707    0.6505 C   0  0  0  0  0  0  0  0  0  0  0  0
    5.9711    0.5372    1.6516 H   0  0  0  0  0  0  0  0  0  0  0  0
    6.5666   -0.6789   -0.0530 C   0  0  0  0  0  0  0  0  0  0  0  0
    6.2139   -1.1680   -1.3576 C   0  0  0  0  0  0  0  0  0  0  0  0
    4.9947   -0.8056   -1.9456 C   0  0  0  0  0  0  0  0  0  0  0  0
    4.7104   -1.1855   -2.9381 H   0  0  0  0  0  0  0  0  0  0  0  0
    4.1166    0.0448   -1.2473 C   0  0  0  0  0  0  0  0  0  0  0  0
   -5.9881   -3.2206   -0.0505 C   0  0  0  0  0  0  0  0  0  0  0  0
   -6.5120   -3.6094   -0.9493 H   0  0  0  0  0  0  0  0  0  0  0  0
   -6.7355   -3.2181    0.7709 H   0  0  0  0  0  0  0  0  0  0  0  0
   -5.1930   -3.9409    0.2179 H   0  0  0  0  0  0  0  0  0  0  0  0
   -7.7790   -1.0145   -0.7715 C   0  0  0  0  0  0  0  0  0  0  0  0
   -8.3276   -0.0944   -1.0488 H   0  0  0  0  0  0  0  0  0  0  0  0
   -8.2111   -1.3957    0.1778 H   0  0  0  0  0  0  0  0  0  0  0  0
   -7.9950   -1.7854   -1.5410 H   0  0  0  0  0  0  0  0  0  0  0  0
   -4.1011    3.1577   -1.2975 C   0  0  0  0  0  0  0  0  0  0  0  0
   -4.1215    3.8810   -0.4562 H   0  0  0  0  0  0  0  0  0  0  0  0
   -5.1315    3.0395   -1.6777 H   0  0  0  0  0  0  0  0  0  0  0  0
   -3.4808    3.5651   -2.1187 H   0  0  0  0  0  0  0  0  0  0  0  0
    3.2299    1.8483    1.7982 C   0  0  0  0  0  0  0  0  0  0  0  0
    3.7544    2.8170    1.9355 H   0  0  0  0  0  0  0  0  0  0  0  0
    3.6158    1.1217    2.5396 H   0  0  0  0  0  0  0  0  0  0  0  0
    2.1461    1.9723    1.9948 H   0  0  0  0  0  0  0  0  0  0  0  0
    7.8791   -1.0863    0.5672 C   0  0  0  0  0  0  0  0  0  0  0  0
    8.0116   -0.6350    1.5690 H   0  0  0  0  0  0  0  0  0  0  0  0
    8.7439   -0.7812   -0.0600 H   0  0  0  0  0  0  0  0  0  0  0  0
    7.9530   -2.1889    0.6806 H   0  0  0  0  0  0  0  0  0  0  0  0
    7.1614   -2.0850   -2.0906 C   0  0  0  0  0  0  0  0  0  0  0  0
    7.3587   -3.0163   -1.5179 H   0  0  0  0  0  0  0  0  0  0  0  0
    8.1508   -1.6086   -2.2600 H   0  0  0  0  0  0  0  0  0  0  0  0
    6.7539   -2.3769   -3.0772 H   0  0  0  0  0  0  0  0  0  0  0  0
  3 10  1  0  0  0  0
  3 14  1  0  0  0  0
  4 31  1  0  0  0  0
  4 23  2  0  0  0  0
  5 44  1  0  0  0  0
  6 12  1  0  0  0  0
  6 32  1  0  0  0  0
  7  6  2  0  0  0  0
  8 10  2  0  0  0  0
  8  7  1  0  0  0  0
  9  8  1  0  0  0  0
 10 11  1  0  0  0  0
 11  1  1  0  0  0  0
 11 12  2  0  0  0  0
 12 13  1  0  0  0  0
 14  1  1  0  0  0  0
 15 14  2  0  0  0  0
 15  2  1  0  0  0  0
 16 18  2  0  0  0  0
 16 15  1  0  0  0  0
 17 16  1  0  0  0  0
 18 20  1  0  0  0  0
 19 18  1  0  0  0  0
 20 22  2  0  0  0  0
 21 20  1  0  0  0  0
 22  2  1  0  0  0  0
 23 22  1  0  0  0  0
 23  5  1  0  0  0  0
 24  5  1  0  0  0  0
 24 25  1  0  0  0  0
 25 26  1  0  0  0  0
 27 48  1  0  0  0  0
 27 25  2  0  0  0  0
 28 27  1  0  0  0  0
 29 28  2  0  0  0  0
 29 31  1  0  0  0  0
 30 29  1  0  0  0  0
 31 24  2  0  0  0  0
 32 35  1  0  0  0  0
 32 34  1  0  0  0  0
 33 32  1  0  0  0  0
 36  7  1  0  0  0  0
 36 38  1  0  0  0  0
 37 36  1  0  0  0  0
 39 36  1  0  0  0  0
 40  3  1  0  0  0  0
 40 41  1  0  0  0  0
 42 40  1  0  0  0  0
 43 40  1  0  0  0  0
 44 45  1  0  0  0  0
 44 47  1  0  0  0  0
 44 46  1  0  0  0  0
 48 51  1  0  0  0  0
 48 49  1  0  0  0  0
 50 48  1  0  0  0  0
 52 53  1  0  0  0  0
 52 28  1  0  0  0  0
 54 52  1  0  0  0  0
 55 52  1  0  0  0  0
M  END
