2,3
q = 0.0, confidence = 1.0

 31 32  0  0  0  0  0  0  0  0999 V2000
    3.4428   -0.8682    0.1239 O   0  0  0  0  0  0  0  0  0  0  0  0
    1.6963    0.4387   -0.3636 N   0  0  0  0  0  2  0  0  0  0  0  0
   -0.9756    0.4963   -0.5097 N   0  0  0  0  0  2  0  0  0  0  0  0
    1.1154    1.6107   -0.7042 C   0  0  0  0  0  0  0  0  0  0  0  0
    1.8722    2.7670   -0.9561 C   0  0  0  0  0  0  0  0  0  0  0  0
    1.3756    3.7077   -1.2317 H   0  0  0  0  0  0  0  0  0  0  0  0
    3.2679    2.6785   -0.8360 C   0  0  0  0  0  0  0  0  0  0  0  0
    3.8974    3.5611   -1.0234 H   0  0  0  0  0  0  0  0  0  0  0  0
    3.8664    1.4684   -0.4708 C   0  0  0  0  0  0  0  0  0  0  0  0
    4.9560    1.3919   -0.3674 H   0  0  0  0  0  0  0  0  0  0  0  0
    3.0250    0.3510   -0.2366 C   0  0  0  0  0  0  0  0  0  0  0  0
   -0.3535    1.5994   -0.7585 C   0  0  0  0  0  0  0  0  0  0  0  0
   -0.8768    2.5420   -1.0113 H   0  0  0  0  0  0  0  0  0  0  0  0
    4.8309   -1.1018    0.3297 C   0  0  0  0  0  0  0  0  0  0  0  0
    4.9178   -2.1611    0.6290 H   0  0  0  0  0  0  0  0  0  0  0  0
    5.2335   -0.4577    1.1405 H   0  0  0  0  0  0  0  0  0  0  0  0
    5.4128   -0.9363   -0.6024 H   0  0  0  0  0  0  0  0  0  0  0  0
   -2.3725    0.3681   -0.4386 C   0  0  0  0  0  0  0  0  0  0  0  0
   -3.1804    1.2470    0.3380 C   0  0  0  0  0  0  0  0  0  0  0  0
   -4.5663    1.0008    0.3428 C   0  0  0  0  0  0  0  0  0  0  0  0
   -5.2122    1.6525    0.9520 H   0  0  0  0  0  0  0  0  0  0  0  0
   -5.1355   -0.0595   -0.3785 C   0  0  0  0  0  0  0  0  0  0  0  0
   -6.2248   -0.2138   -0.3532 H   0  0  0  0  0  0  0  0  0  0  0  0
   -4.3123   -0.9472   -1.0905 C   0  0  0  0  0  0  0  0  0  0  0  0
   -4.7455   -1.8075   -1.6216 H   0  0  0  0  0  0  0  0  0  0  0  0
   -2.9285   -0.7513   -1.0974 C   0  0  0  0  0  0  0  0  0  0  0  0
   -2.2410   -1.4567   -1.5899 H   0  0  0  0  0  0  0  0  0  0  0  0
   -2.5794    2.3079    1.2277 C   0  0  0  0  0  0  0  0  0  0  0  0
   -3.2901    2.5782    2.0319 H   0  0  0  0  0  0  0  0  0  0  0  0
   -2.3333    3.2451    0.6866 H   0  0  0  0  0  0  0  0  0  0  0  0
   -1.6509    1.9276    1.7045 H   0  0  0  0  0  0  0  0  0  0  0  0
  1 14  1  0  0  0  0
  2 11  1  0  0  0  0
  3 18  1  0  0  0  0
  4  2  1  0  0  0  0
  5  7  2  0  0  0  0
  5  4  1  0  0  0  0
  6  5  1  0  0  0  0
  7  9  1  0  0  0  0
  8  7  1  0  0  0  0
  9 10  1  0  0  0  0
  9 11  2  0  0  0  0
 11  1  1  0  0  0  0
 12  4  2  0  0  0  0
 12  3  1  0  0  0  0
 13 12  1  0  0  0  0
 14 15  1  0  0  0  0
 14 16  1  0  0  0  0
 17 14  1  0  0  0  0
 18 19  1  0  0  0  0
 19 20  2  0  0  0  0
 19 28  1  0  0  0  0
 20 21  1  0  0  0  0
 22 23  1  0  0  0  0
 22 20  1  0  0  0  0
 24 22  2  0  0  0  0
 25 24  1  0  0  0  0
 26 24  1  0  0  0  0
 26 18  2  0  0  0  0
 27 26  1  0  0  0  0
 28 31  1  0  0  0  0
 28 29  1  0  0  0  0
 30 28  1  0  0  0  0
M  END
