2,3
q = 0.0, confidence = 0.986

 28 29  0  0  0  0  0  0  0  0999 V2000
    3.2797   -0.8601   -0.1820 O   0  0  0  0  0  0  0  0  0  0  0  0
    1.5547    0.5529   -0.3214 N   0  0  0  0  0  2  0  0  0  0  0  0
   -1.1280    0.7079   -0.2128 N   0  0  0  0  0  2  0  0  0  0  0  0
    0.9944    1.7806   -0.3840 C   0  0  0  0  0  0  0  0  0  0  0  0
    1.7736    2.9498   -0.4230 C   0  0  0  0  0  0  0  0  0  0  0  0
    1.2942    3.9370   -0.4792 H   0  0  0  0  0  0  0  0  0  0  0  0
    3.1691    2.8112   -0.3679 C   0  0  0  0  0  0  0  0  0  0  0  0
    3.8156    3.7012   -0.3897 H   0  0  0  0  0  0  0  0  0  0  0  0
    3.7463    1.5404   -0.2778 C   0  0  0  0  0  0  0  0  0  0  0  0
    4.8360    1.4228   -0.2291 H   0  0  0  0  0  0  0  0  0  0  0  0
    2.8841    0.4147   -0.2568 C   0  0  0  0  0  0  0  0  0  0  0  0
   -0.4726    1.8123   -0.3694 C   0  0  0  0  0  0  0  0  0  0  0  0
   -0.9718    2.7949   -0.4923 H   0  0  0  0  0  0  0  0  0  0  0  0
    4.6608   -1.1588   -0.0189 C   0  0  0  0  0  0  0  0  0  0  0  0
    4.7246   -2.2582    0.0597 H   0  0  0  0  0  0  0  0  0  0  0  0
    5.0644   -0.7016    0.9096 H   0  0  0  0  0  0  0  0  0  0  0  0
    5.2564   -0.8189   -0.8935 H   0  0  0  0  0  0  0  0  0  0  0  0
   -2.5279    0.6375   -0.1294 C   0  0  0  0  0  0  0  0  0  0  0  0
   -3.3277    1.7058    0.3410 C   0  0  0  0  0  0  0  0  0  0  0  0
   -2.8571    2.6305    0.7068 H   0  0  0  0  0  0  0  0  0  0  0  0
   -4.7176    1.5604    0.3945 C   0  0  0  0  0  0  0  0  0  0  0  0
   -5.3370    2.3848    0.7789 H   0  0  0  0  0  0  0  0  0  0  0  0
   -5.3215    0.3597   -0.0207 C   0  0  0  0  0  0  0  0  0  0  0  0
   -6.4155    0.2510    0.0272 H   0  0  0  0  0  0  0  0  0  0  0  0
   -4.5259   -0.7052   -0.4743 C   0  0  0  0  0  0  0  0  0  0  0  0
   -4.9936   -1.6502   -0.7886 H   0  0  0  0  0  0  0  0  0  0  0  0
   -3.1328   -0.5795   -0.5195 C   0  0  0  0  0  0  0  0  0  0  0  0
   -2.4846   -1.4015   -0.8702 H   0  0  0  0  0  0  0  0  0  0  0  0
  1 14  1  0  0  0  0
  2 11  1  0  0  0  0
  3 18  1  0  0  0  0
  4 12  2  0  0  0  0
  4  2  1  0  0  0  0
  5  4  1  0  0  0  0
  5  7  2  0  0  0  0
  6  5  1  0  0  0  0
  7  9  1  0  0  0  0
  8  7  1  0  0  0  0
  9 11  2  0  0  0  0
  9 10  1  0  0  0  0
 11  1  1  0  0  0  0
 12  3  1  0  0  0  0
 13 12  1  0  0  0  0
 14 15  1  0  0  0  0
 14 16  1  0  0  0  0
 17 14  1  0  0  0  0
 18 19  1  0  0  0  0
 19 21  2  0  0  0  0
 19 20  1  0  0  0  0
 21 22  1  0  0  0  0
 23 24  1  0  0  0  0
 23 21  1  0  0  0  0
 25 23  2  0  0  0  0
 26 25  1  0  0  0  0
 27 25  1  0  0  0  0
 27 18  2  0  0  0  0
 28 27  1  0  0  0  0
M  END
