1,4
q = -1.0, confidence = 0.02

 23 24  0  0  0  0  0  0  0  0999 V2000
   -2.0317   -0.2126   -0.1029 N   0  0  0  0  0  2  0  0  0  0  0  0
   -2.3495   -1.4919   -0.3051 C   0  0  0  0  0  0  0  0  0  0  0  0
   -1.1941   -2.4267   -0.1819 C   0  0  0  0  0  0  0  0  0  0  0  0
   -0.0248   -1.9518    0.1562 N   0  0  0  0  0  2  0  0  0  0  0  0
   -1.4444   -3.8505   -0.3699 C   0  0  0  0  0  3  0  0  0  0  0  0
   -2.7055   -4.3028   -0.6607 C   0  0  0  0  0  0  0  0  0  0  0  0
   -3.8044   -3.3741   -0.7937 C   0  0  0  0  0  0  0  0  0  0  0  0
   -3.6549   -2.0161   -0.6147 C   0  0  0  0  0  0  0  0  0  0  0  0
   -4.5046   -1.3315   -0.7447 H   0  0  0  0  0  0  0  0  0  0  0  0
   -4.7961   -3.7704   -1.0635 H   0  0  0  0  0  0  0  0  0  0  0  0
   -2.8963   -5.3760   -0.8123 H   0  0  0  0  0  0  0  0  0  0  0  0
   -0.5788   -4.5227   -0.2777 H   0  0  0  0  0  0  0  0  0  0  0  0
   -3.0064    0.7928    0.0693 C   0  0  0  0  0  0  0  0  0  0  0  0
   -2.9200    1.9874   -0.6775 C   0  0  0  0  0  0  0  0  0  0  0  0
   -3.8870    2.9849   -0.5068 C   0  0  0  0  0  0  0  0  0  0  0  0
   -4.9277    2.8218    0.4234 C   0  0  0  0  0  0  0  0  0  0  0  0
   -4.9968    1.6476    1.1910 C   0  0  0  0  0  0  0  0  0  0  0  0
   -4.0426    0.6369    1.0196 C   0  0  0  0  0  0  0  0  0  0  0  0
   -4.0755   -0.2754    1.6333 H   0  0  0  0  0  0  0  0  0  0  0  0
   -5.7957    1.5201    1.9373 H   0  0  0  0  0  0  0  0  0  0  0  0
   -5.6770    3.6160    0.5601 H   0  0  0  0  0  0  0  0  0  0  0  0
   -3.8206    3.9088   -1.1013 H   0  0  0  0  0  0  0  0  0  0  0  0
   -2.0816    2.1186   -1.3724 H   0  0  0  0  0  0  0  0  0  0  0  0
  1 13  1  0  0  0  0
  2  3  1  0  0  0  0
  2  1  1  0  0  0  0
  3  4  2  0  0  0  0
  5 12  1  0  0  0  0
  5  3  1  0  0  0  0
  6  5  1  0  0  0  0
  7  6  2  0  0  0  0
  7  8  1  0  0  0  0
  8  2  2  0  0  0  0
  9  8  1  0  0  0  0
 10  7  1  0  0  0  0
 11  6  1  0  0  0  0
 13 18  1  0  0  0  0
 14 15  1  0  0  0  0
 14 13  2  0  0  0  0
 15 16  2  0  0  0  0
 16 21  1  0  0  0  0
 16 17  1  0  0  0  0
 17 20  1  0  0  0  0
 18 17  2  0  0  0  0
 18 19  1  0  0  0  0
 22 15  1  0  0  0  0
 23 14  1  0  0  0  0
M  END
