4,5
q = -1.0

 37 40  0  0  0  0  0  0  0  0999 V2000
   -0.1779   -1.1444   -2.2911 S   0  0  0  0  0  0  0  0  0  0  0  0
   -0.2017    0.3444   -2.4043 O   0  0  0  0  0  0  0  0  0  0  0  0
   -0.3477   -1.9538   -3.5216 O   0  0  0  0  0  0  0  0  0  0  0  0
   -2.9297   -1.5781    0.9796 N   0  0  0  0  0  2  0  0  0  0  0  0
   -1.3226   -1.4638   -1.1347 N   0  0  0  0  0  2  0  0  0  0  0  0
   -3.6848   -1.5475    2.0762 C   0  0  0  0  0  0  0  0  0  0  0  0
   -3.9175   -0.5528    2.4888 H   0  0  0  0  0  0  0  0  0  0  0  0
   -4.1560   -2.7295    2.6927 C   0  0  0  0  0  0  0  0  0  0  0  0
   -4.7773   -2.6606    3.5967 H   0  0  0  0  0  0  0  0  0  0  0  0
   -3.8157   -3.9574    2.1408 C   0  0  0  0  0  0  0  0  0  0  0  0
   -4.1682   -4.8951    2.5984 H   0  0  0  0  0  0  0  0  0  0  0  0
   -2.9926   -4.0238    0.9816 C   0  0  0  0  0  0  0  0  0  0  0  0
   -2.5742   -5.2378    0.3694 C   0  0  0  0  0  3  0  0  0  0  0  0
   -2.9043   -6.1981    0.7913 H   0  0  0  0  0  0  0  0  0  0  0  0
   -1.7476   -5.1838   -0.7468 C   0  0  0  0  0  0  0  0  0  0  0  0
   -1.4198   -6.1201   -1.2241 H   0  0  0  0  0  0  0  0  0  0  0  0
   -1.3016   -3.9590   -1.2989 C   0  0  0  0  0  0  0  0  0  0  0  0
   -0.6602   -3.9529   -2.1899 H   0  0  0  0  0  0  0  0  0  0  0  0
   -1.6872   -2.7345   -0.7317 C   0  0  0  0  0  0  0  0  0  0  0  0
   -2.5574   -2.7728    0.4258 C   0  0  0  0  0  0  0  0  0  0  0  0
    1.3943   -1.6071   -1.5453 C   0  0  0  0  0  0  0  0  0  0  0  0
    2.4800   -1.8954   -2.4177 C   0  0  0  0  0  0  0  0  0  0  0  0
    2.2926   -1.9782   -3.4978 H   0  0  0  0  0  0  0  0  0  0  0  0
    3.7467   -2.0562   -1.8831 C   0  0  0  0  0  0  0  0  0  0  0  0
    4.6020   -2.2652   -2.5443 H   0  0  0  0  0  0  0  0  0  0  0  0
    3.9774   -1.9373   -0.4787 C   0  0  0  0  0  0  0  0  0  0  0  0
    5.2762   -2.0455    0.0957 C   0  0  0  0  0  0  0  0  0  0  0  0
    6.1359   -2.2310   -0.5668 H   0  0  0  0  0  0  0  0  0  0  0  0
    5.4574   -1.9096    1.4652 C   0  0  0  0  0  0  0  0  0  0  0  0
    6.4678   -1.9890    1.8948 H   0  0  0  0  0  0  0  0  0  0  0  0
    4.3487   -1.6648    2.3202 C   0  0  0  0  0  0  0  0  0  0  0  0
    4.5109   -1.5505    3.4027 H   0  0  0  0  0  0  0  0  0  0  0  0
    3.0690   -1.5576    1.7966 C   0  0  0  0  0  0  0  0  0  0  0  0
    2.1990   -1.3451    2.4370 H   0  0  0  0  0  0  0  0  0  0  0  0
    2.8556   -1.6883    0.3931 C   0  0  0  0  0  0  0  0  0  0  0  0
    1.5592   -1.5281   -0.1724 C   0  0  0  0  0  0  0  0  0  0  0  0
    0.7174   -1.3012    0.4980 H   0  0  0  0  0  0  0  0  0  0  0  0
  1 21  1  0  0  0  0
  1  5  1  0  0  0  0
  2  1  2  0  0  0  0
  3  1  2  0  0  0  0
  4  6  1  0  0  0  0
  5 19  1  0  0  0  0
  6  7  1  0  0  0  0
  6  8  2  0  0  0  0
  8  9  1  0  0  0  0
 10 11  1  0  0  0  0
 10  8  1  0  0  0  0
 12 10  2  0  0  0  0
 13 14  1  0  0  0  0
 13 12  1  0  0  0  0
 15 13  1  0  0  0  0
 16 15  1  0  0  0  0
 17 15  2  0  0  0  0
 17 19  1  0  0  0  0
 18 17  1  0  0  0  0
 19 20  2  0  0  0  0
 20  4  1  0  0  0  0
 20 12  1  0  0  0  0
 21 36  1  0  0  0  0
 22 24  1  0  0  0  0
 22 21  2  0  0  0  0
 23 22  1  0  0  0  0
 24 26  2  0  0  0  0
 25 24  1  0  0  0  0
 26 27  1  0  0  0  0
 26 35  1  0  0  0  0
 27 29  2  0  0  0  0
 28 27  1  0  0  0  0
 29 30  1  0  0  0  0
 29 31  1  0  0  0  0
 31 32  1  0  0  0  0
 33 31  2  0  0  0  0
 33 34  1  0  0  0  0
 35 33  1  0  0  0  0
 36 35  2  0  0  0  0
 36 37  1  0  0  0  0
M  END
