1,2
q = -1.0

 39 39  0  0  0  0  0  0  0  0999 V2000
   -1.8804    0.4438    0.8921 N   0  0  0  0  0  2  0  0  0  0  0  0
   -1.0651   -0.6003   -0.8818 N   0  0  0  0  0  2  0  0  0  0  0  0
   -3.4514   -0.1257   -0.8528 N   0  0  0  0  0  0  0  0  0  0  0  0
   -2.1698   -0.1020   -0.3090 C   0  0  0  0  0  3  0  0  0  0  0  0
   -2.8157    1.2056    1.7124 C   0  0  0  0  0  0  0  0  0  0  0  0
   -3.7582    1.3213    1.1322 H   0  0  0  0  0  0  0  0  0  0  0  0
   -3.1203    0.4573    3.0190 C   0  0  0  0  0  0  0  0  0  0  0  0
   -3.4925   -0.5685    2.8238 H   0  0  0  0  0  0  0  0  0  0  0  0
   -3.8820    1.0005    3.6145 H   0  0  0  0  0  0  0  0  0  0  0  0
   -2.1956    0.3627    3.6214 H   0  0  0  0  0  0  0  0  0  0  0  0
   -2.2890    2.6182    1.9953 C   0  0  0  0  0  0  0  0  0  0  0  0
   -1.3201    2.5626    2.5290 H   0  0  0  0  0  0  0  0  0  0  0  0
   -3.0095    3.1768    2.6265 H   0  0  0  0  0  0  0  0  0  0  0  0
   -2.1451    3.1852    1.0547 H   0  0  0  0  0  0  0  0  0  0  0  0
   -1.0644   -1.5597   -1.9858 C   0  0  0  0  0  0  0  0  0  0  0  0
   -1.6415   -1.1284   -2.8337 H   0  0  0  0  0  0  0  0  0  0  0  0
   -1.7218   -2.8964   -1.6087 C   0  0  0  0  0  0  0  0  0  0  0  0
   -1.1967   -3.3535   -0.7473 H   0  0  0  0  0  0  0  0  0  0  0  0
   -1.6939   -3.5999   -2.4658 H   0  0  0  0  0  0  0  0  0  0  0  0
   -2.7820   -2.7541   -1.3185 H   0  0  0  0  0  0  0  0  0  0  0  0
    0.3650   -1.7570   -2.4926 C   0  0  0  0  0  0  0  0  0  0  0  0
    0.8156   -0.7870   -2.7843 H   0  0  0  0  0  0  0  0  0  0  0  0
    0.3754   -2.4295   -3.3733 H   0  0  0  0  0  0  0  0  0  0  0  0
    0.9947   -2.1941   -1.6963 H   0  0  0  0  0  0  0  0  0  0  0  0
   -4.5730   -0.7353   -0.1371 C   0  0  0  0  0  0  0  0  0  0  0  0
   -4.2951   -0.8673    0.9241 H   0  0  0  0  0  0  0  0  0  0  0  0
   -4.7442   -1.7631   -0.5469 H   0  0  0  0  0  0  0  0  0  0  0  0
   -5.8572    0.0825   -0.2940 C   0  0  0  0  0  0  0  0  0  0  0  0
   -5.7416    1.0487    0.2440 H   0  0  0  0  0  0  0  0  0  0  0  0
   -6.6988   -0.4576    0.1872 H   0  0  0  0  0  0  0  0  0  0  0  0
   -6.1517    0.3485   -1.7755 C   0  0  0  0  0  0  0  0  0  0  0  0
   -6.3981   -0.6143   -2.2780 H   0  0  0  0  0  0  0  0  0  0  0  0
   -7.0439    0.9983   -1.8882 H   0  0  0  0  0  0  0  0  0  0  0  0
   -4.9343    0.9768   -2.4642 C   0  0  0  0  0  0  0  0  0  0  0  0
   -4.7388    1.9836   -2.0355 H   0  0  0  0  0  0  0  0  0  0  0  0
   -5.1198    1.1126   -3.5501 H   0  0  0  0  0  0  0  0  0  0  0  0
   -3.6818    0.1105   -2.2727 C   0  0  0  0  0  0  0  0  0  0  0  0
   -3.8143   -0.8525   -2.8274 H   0  0  0  0  0  0  0  0  0  0  0  0
   -2.7944    0.6211   -2.6922 H   0  0  0  0  0  0  0  0  0  0  0  0
  1  5  1  0  0  0  0
  2  4  1  0  0  0  0
  3  4  1  0  0  0  0
  3 25  1  0  0  0  0
  4  1  1  0  0  0  0
  5 11  1  0  0  0  0
  5  7  1  0  0  0  0
  6  5  1  0  0  0  0
  7  9  1  0  0  0  0
  7 10  1  0  0  0  0
  8  7  1  0  0  0  0
 11 12  1  0  0  0  0
 11 13  1  0  0  0  0
 14 11  1  0  0  0  0
 15 17  1  0  0  0  0
 15  2  1  0  0  0  0
 16 15  1  0  0  0  0
 17 20  1  0  0  0  0
 17 18  1  0  0  0  0
 19 17  1  0  0  0  0
 21 15  1  0  0  0  0
 21 24  1  0  0  0  0
 22 21  1  0  0  0  0
 23 21  1  0  0  0  0
 25 26  1  0  0  0  0
 27 25  1  0  0  0  0
 28 25  1  0  0  0  0
 28 30  1  0  0  0  0
 28 29  1  0  0  0  0
 31 28  1  0  0  0  0
 32 31  1  0  0  0  0
 33 31  1  0  0  0  0
 34 37  1  0  0  0  0
 34 35  1  0  0  0  0
 34 31  1  0  0  0  0
 36 34  1  0  0  0  0
 37  3  1  0  0  0  0
 38 37  1  0  0  0  0
 39 37  1  0  0  0  0
M  END
