1,2
q = 0.0, confidence = 0.996

 46 47  0  0  0  0  0  0  0  0999 V2000
    1.9015   -0.9655   -0.5041 N   0  0  0  0  0  2  0  0  0  0  0  0
   -0.6561   -1.3190   -0.1276 N   0  0  0  0  0  2  0  0  0  0  0  0
    1.4268   -2.0845   -0.9920 C   0  0  0  0  0  0  0  0  0  0  0  0
    2.2297   -3.1030   -1.7411 C   0  0  0  0  0  0  0  0  0  0  0  0
    3.2256   -2.7078   -2.0097 H   0  0  0  0  0  0  0  0  0  0  0  0
    1.7011   -3.4156   -2.6632 H   0  0  0  0  0  0  0  0  0  0  0  0
    2.3797   -4.0203   -1.1332 H   0  0  0  0  0  0  0  0  0  0  0  0
   -0.0278   -2.2774   -0.7841 C   0  0  0  0  0  0  0  0  0  0  0  0
   -0.7026   -3.5122   -1.2916 C   0  0  0  0  0  0  0  0  0  0  0  0
   -0.8612   -3.4474   -2.3895 H   0  0  0  0  0  0  0  0  0  0  0  0
   -1.6898   -3.6572   -0.8194 H   0  0  0  0  0  0  0  0  0  0  0  0
   -0.0715   -4.4037   -1.1108 H   0  0  0  0  0  0  0  0  0  0  0  0
    3.2750   -0.6115   -0.5487 C   0  0  0  0  0  0  0  0  0  0  0  0
    3.6436    0.5808   -1.1994 C   0  0  0  0  0  0  0  0  0  0  0  0
    2.8707    1.1724   -1.7124 H   0  0  0  0  0  0  0  0  0  0  0  0
    4.9884    0.9967   -1.2057 C   0  0  0  0  0  0  0  0  0  0  0  0
    5.4046    2.2361   -1.9573 C   0  0  0  0  0  0  0  0  0  0  0  0
    6.2785    2.7281   -1.4872 H   0  0  0  0  0  0  0  0  0  0  0  0
    4.5803    2.9728   -2.0290 H   0  0  0  0  0  0  0  0  0  0  0  0
    5.7010    1.9819   -2.9973 H   0  0  0  0  0  0  0  0  0  0  0  0
    5.9366    0.2158   -0.5139 C   0  0  0  0  0  0  0  0  0  0  0  0
    6.9884    0.5441   -0.4978 H   0  0  0  0  0  0  0  0  0  0  0  0
    5.5838   -0.9737    0.1572 C   0  0  0  0  0  0  0  0  0  0  0  0
    6.6292   -1.7879    0.8754 C   0  0  0  0  0  0  0  0  0  0  0  0
    7.2492   -1.1529    1.5396 H   0  0  0  0  0  0  0  0  0  0  0  0
    7.3228   -2.2652    0.1518 H   0  0  0  0  0  0  0  0  0  0  0  0
    6.1786   -2.5909    1.4889 H   0  0  0  0  0  0  0  0  0  0  0  0
    4.2389   -1.3853    0.1275 C   0  0  0  0  0  0  0  0  0  0  0  0
    3.9270   -2.2935    0.6646 H   0  0  0  0  0  0  0  0  0  0  0  0
   -2.0768   -1.4190    0.0648 C   0  0  0  0  0  0  0  0  0  0  0  0
   -2.9338   -1.1717   -1.0201 C   0  0  0  0  0  0  0  0  0  0  0  0
   -2.5122   -0.8646   -1.9883 H   0  0  0  0  0  0  0  0  0  0  0  0
   -4.3240   -1.2847   -0.8511 C   0  0  0  0  0  0  0  0  0  0  0  0
   -5.2700   -1.0064   -1.9895 C   0  0  0  0  0  0  0  0  0  0  0  0
   -5.9772   -0.1953   -1.7227 H   0  0  0  0  0  0  0  0  0  0  0  0
   -5.8792   -1.9013   -2.2330 H   0  0  0  0  0  0  0  0  0  0  0  0
   -4.7319   -0.6958   -2.9049 H   0  0  0  0  0  0  0  0  0  0  0  0
   -4.8163   -1.6594    0.4158 C   0  0  0  0  0  0  0  0  0  0  0  0
   -5.9051   -1.7550    0.5558 H   0  0  0  0  0  0  0  0  0  0  0  0
   -3.9680   -1.8975    1.5128 C   0  0  0  0  0  0  0  0  0  0  0  0
   -4.5299   -2.2404    2.8684 C   0  0  0  0  0  0  0  0  0  0  0  0
   -5.4899   -2.7856    2.7870 H   0  0  0  0  0  0  0  0  0  0  0  0
   -4.7285   -1.3162    3.4532 H   0  0  0  0  0  0  0  0  0  0  0  0
   -3.8278   -2.8570    3.4626 H   0  0  0  0  0  0  0  0  0  0  0  0
   -2.5771   -1.7661    1.3272 C   0  0  0  0  0  0  0  0  0  0  0  0
   -1.8794   -1.9499    2.1576 H   0  0  0  0  0  0  0  0  0  0  0  0
  2 30  1  0  0  0  0
  3  8  2  0  0  0  0
  3  1  1  0  0  0  0
  4  7  1  0  0  0  0
  4  3  1  0  0  0  0
  5  4  1  0  0  0  0
  6  4  1  0  0  0  0
  8  2  1  0  0  0  0
  9 12  1  0  0  0  0
  9 11  1  0  0  0  0
  9  8  1  0  0  0  0
 10  9  1  0  0  0  0
 13  1  1  0  0  0  0
 13 28  1  0  0  0  0
 14 13  2  0  0  0  0
 15 14  1  0  0  0  0
 16 14  1  0  0  0  0
 16 21  2  0  0  0  0
 17 18  1  0  0  0  0
 17 16  1  0  0  0  0
 19 17  1  0  0  0  0
 20 17  1  0  0  0  0
 21 22  1  0  0  0  0
 21 23  1  0  0  0  0
 23 24  1  0  0  0  0
 24 27  1  0  0  0  0
 24 25  1  0  0  0  0
 26 24  1  0  0  0  0
 28 23  2  0  0  0  0
 28 29  1  0  0  0  0
 30 45  1  0  0  0  0
 31 33  1  0  0  0  0
 31 30  2  0  0  0  0
 32 31  1  0  0  0  0
 33 38  2  0  0  0  0
 34 35  1  0  0  0  0
 34 33  1  0  0  0  0
 36 34  1  0  0  0  0
 37 34  1  0  0  0  0
 38 39  1  0  0  0  0
 38 40  1  0  0  0  0
 40 41  1  0  0  0  0
 41 43  1  0  0  0  0
 41 44  1  0  0  0  0
 42 41  1  0  0  0  0
 45 40  2  0  0  0  0
 45 46  1  0  0  0  0
M  END
