2,3
q = 0.0, confidence = 1.0

 44 47  0  0  0  0  0  0  0  0999 V2000
   -0.0035    1.2205    0.1288 N   0  0  0  0  0  0  0  0  0  0  0  0
    0.9110    0.2354    0.1541 N   0  0  0  0  0  2  0  0  0  0  0  0
    3.0087   -1.3873    0.1429 N   0  0  0  0  0  2  0  0  0  0  0  0
    2.1262    0.8210    0.0826 C   0  0  0  0  0  0  0  0  0  0  0  0
    1.9809    2.2375    0.0191 C   0  0  0  0  0  0  0  0  0  0  0  0
    2.9712    3.3601   -0.1108 C   0  0  0  0  0  0  0  0  0  0  0  0
    3.4699    3.2993   -1.1045 H   0  0  0  0  0  0  0  0  0  0  0  0
    3.7808    3.2612    0.6431 H   0  0  0  0  0  0  0  0  0  0  0  0
    2.2783    4.7274    0.0500 C   0  0  0  0  0  0  0  0  0  0  0  0
    2.9537    5.5303   -0.3073 H   0  0  0  0  0  0  0  0  0  0  0  0
    2.1026    4.9234    1.1307 H   0  0  0  0  0  0  0  0  0  0  0  0
    0.9343    4.7887   -0.6897 C   0  0  0  0  0  0  0  0  0  0  0  0
    1.0921    4.5637   -1.7670 H   0  0  0  0  0  0  0  0  0  0  0  0
    0.5103    5.8111   -0.6367 H   0  0  0  0  0  0  0  0  0  0  0  0
   -0.0733    3.7833   -0.1024 C   0  0  0  0  0  0  0  0  0  0  0  0
   -0.9792    3.6938   -0.7373 H   0  0  0  0  0  0  0  0  0  0  0  0
   -0.4275    4.1486    0.8871 H   0  0  0  0  0  0  0  0  0  0  0  0
    0.6001    2.4553    0.0420 C   0  0  0  0  0  0  0  0  0  0  0  0
    3.2986   -0.0629    0.1039 C   0  0  0  0  0  0  0  0  0  0  0  0
    4.6359    0.3804    0.1089 C   0  0  0  0  0  0  0  0  0  0  0  0
    4.8671    1.4520    0.0653 H   0  0  0  0  0  0  0  0  0  0  0  0
    5.6621   -0.5710    0.1772 C   0  0  0  0  0  0  0  0  0  0  0  0
    6.7131   -0.2454    0.1814 H   0  0  0  0  0  0  0  0  0  0  0  0
    5.3400   -1.9345    0.2500 C   0  0  0  0  0  0  0  0  0  0  0  0
    6.1194   -2.7063    0.3188 H   0  0  0  0  0  0  0  0  0  0  0  0
    3.9862   -2.2973    0.2308 C   0  0  0  0  0  0  0  0  0  0  0  0
    3.6549   -3.3467    0.2990 H   0  0  0  0  0  0  0  0  0  0  0  0
   -1.3978    0.9193    0.1509 C   0  0  0  0  0  0  0  0  0  0  0  0
   -1.8896   -0.1225   -0.6561 C   0  0  0  0  0  0  0  0  0  0  0  0
   -1.2060   -0.6960   -1.3087 H   0  0  0  0  0  0  0  0  0  0  0  0
   -3.2568   -0.4168   -0.6215 C   0  0  0  0  0  0  0  0  0  0  0  0
   -3.6542   -1.2320   -1.2412 H   0  0  0  0  0  0  0  0  0  0  0  0
   -4.1312    0.3295    0.1937 C   0  0  0  0  0  0  0  0  0  0  0  0
   -3.6213    1.3722    0.9920 C   0  0  0  0  0  0  0  0  0  0  0  0
   -4.3202    1.9296    1.6322 H   0  0  0  0  0  0  0  0  0  0  0  0
   -2.2556    1.6660    0.9809 C   0  0  0  0  0  0  0  0  0  0  0  0
   -1.8497    2.4487    1.6361 H   0  0  0  0  0  0  0  0  0  0  0  0
   -5.6005    0.0613    0.2609 C   0  0  0  0  0  0  0  0  0  0  0  0
   -6.3874    0.6943    0.9454 O   0  0  0  0  0  0  0  0  0  0  0  0
   -5.9652   -0.9749   -0.5323 O   0  0  0  0  0  0  0  0  0  0  0  0
   -7.3593   -1.2986   -0.5137 C   0  0  0  0  0  0  0  0  0  0  0  0
   -7.4848   -2.1527   -1.2022 H   0  0  0  0  0  0  0  0  0  0  0  0
   -7.6856   -1.5741    0.5095 H   0  0  0  0  0  0  0  0  0  0  0  0
   -7.9691   -0.4355   -0.8495 H   0  0  0  0  0  0  0  0  0  0  0  0
  1 28  1  0  0  0  0
  1  2  1  0  0  0  0
  3 26  1  0  0  0  0
  4 19  2  0  0  0  0
  4  2  1  0  0  0  0
  5 18  2  0  0  0  0
  5  4  1  0  0  0  0
  6  5  1  0  0  0  0
  6  9  1  0  0  0  0
  6  8  1  0  0  0  0
  7  6  1  0  0  0  0
  9 11  1  0  0  0  0
 10  9  1  0  0  0  0
 12 14  1  0  0  0  0
 12 15  1  0  0  0  0
 12  9  1  0  0  0  0
 13 12  1  0  0  0  0
 15 18  1  0  0  0  0
 15 17  1  0  0  0  0
 16 15  1  0  0  0  0
 18  1  1  0  0  0  0
 19 20  1  0  0  0  0
 19  3  1  0  0  0  0
 20 22  2  0  0  0  0
 21 20  1  0  0  0  0
 22 23  1  0  0  0  0
 22 24  1  0  0  0  0
 24 25  1  0  0  0  0
 26 24  2  0  0  0  0
 26 27  1  0  0  0  0
 28 36  1  0  0  0  0
 29 31  1  0  0  0  0
 29 28  2  0  0  0  0
 30 29  1  0  0  0  0
 31 33  2  0  0  0  0
 32 31  1  0  0  0  0
 33 38  1  0  0  0  0
 33 34  1  0  0  0  0
 34 35  1  0  0  0  0
 36 34  2  0  0  0  0
 36 37  1  0  0  0  0
 38 39  2  0  0  0  0
 40 41  1  0  0  0  0
 40 38  1  0  0  0  0
 41 43  1  0  0  0  0
 42 41  1  0  0  0  0
 44 41  1  0  0  0  0
M  END
