3,4
q = -1.0

 34 36  0  0  0  0  0  0  0  0999 V2000
   -2.6770    0.8894   -1.1534 N   0  0  0  0  0  0  0  0  0  0  0  0
   -2.8578   -0.4152    0.8399 N   0  0  0  0  0  2  0  0  0  0  0  0
   -1.5687   -0.4687    0.9102 N   0  0  0  0  0  2  0  0  0  0  0  0
    1.0117   -0.1444    1.3627 N   0  0  0  0  0  2  0  0  0  0  0  0
   -3.2850    1.5949   -2.1101 C   0  0  0  0  0  0  0  0  0  0  0  0
   -2.6264    2.0286   -2.8847 H   0  0  0  0  0  0  0  0  0  0  0  0
   -4.6764    1.7956   -2.1621 C   0  0  0  0  0  0  0  0  0  0  0  0
   -5.1245    2.3951   -2.9676 H   0  0  0  0  0  0  0  0  0  0  0  0
   -5.4660    1.2042   -1.1592 C   0  0  0  0  0  0  0  0  0  0  0  0
   -6.5600    1.3259   -1.1629 H   0  0  0  0  0  0  0  0  0  0  0  0
   -4.8447    0.4569   -0.1572 C   0  0  0  0  0  0  0  0  0  0  0  0
   -5.4068   -0.0363    0.6482 H   0  0  0  0  0  0  0  0  0  0  0  0
   -3.4305    0.3303   -0.1804 C   0  0  0  0  0  0  0  0  0  0  0  0
   -0.9920   -1.3409    1.8061 C   0  0  0  0  0  0  0  0  0  0  0  0
   -1.7099   -2.3580    2.4890 C   0  0  0  0  0  0  0  0  0  0  0  0
   -2.7894   -2.4344    2.3032 H   0  0  0  0  0  0  0  0  0  0  0  0
   -1.0357   -3.2275    3.3297 C   0  0  0  0  0  0  0  0  0  0  0  0
   -1.5791   -4.0333    3.8445 H   0  0  0  0  0  0  0  0  0  0  0  0
    0.3718   -3.0855    3.5225 C   0  0  0  0  0  0  0  0  0  0  0  0
    0.8923   -3.7756    4.2051 H   0  0  0  0  0  0  0  0  0  0  0  0
    1.0989   -2.1014    2.8751 C   0  0  0  0  0  0  0  0  0  0  0  0
    2.1795   -1.9932    3.0411 H   0  0  0  0  0  0  0  0  0  0  0  0
    0.4404   -1.1819    1.9890 C   0  0  0  0  0  0  0  0  0  0  0  0
    2.3880    0.0787    1.2695 C   0  0  0  0  0  0  0  0  0  0  0  0
    2.8943    1.3575    1.6089 C   0  0  0  0  0  0  0  0  0  0  0  0
    2.1998    2.1050    2.0182 H   0  0  0  0  0  0  0  0  0  0  0  0
    4.2508    1.6527    1.4327 C   0  0  0  0  0  0  0  0  0  0  0  0
    4.6278    2.6504    1.7050 H   0  0  0  0  0  0  0  0  0  0  0  0
    5.1274    0.6895    0.9043 C   0  0  0  0  0  0  0  0  0  0  0  0
    6.1905    0.9302    0.7546 H   0  0  0  0  0  0  0  0  0  0  0  0
    4.6339   -0.5780    0.5562 C   0  0  0  0  0  0  0  0  0  0  0  0
    5.3065   -1.3339    0.1229 H   0  0  0  0  0  0  0  0  0  0  0  0
    3.2795   -0.8850    0.7363 C   0  0  0  0  0  0  0  0  0  0  0  0
    2.8905   -1.8695    0.4435 H   0  0  0  0  0  0  0  0  0  0  0  0
  1 13  1  0  0  0  0
  2  3  1  0  0  0  0
  3 14  1  0  0  0  0
  4 23  1  0  0  0  0
  5  1  2  0  0  0  0
  6  5  1  0  0  0  0
  7  5  1  0  0  0  0
  7  9  2  0  0  0  0
  8  7  1  0  0  0  0
  9 11  1  0  0  0  0
 10  9  1  0  0  0  0
 11 12  1  0  0  0  0
 13 11  2  0  0  0  0
 13  2  1  0  0  0  0
 14 23  2  0  0  0  0
 14 15  1  0  0  0  0
 15 17  2  0  0  0  0
 16 15  1  0  0  0  0
 17 19  1  0  0  0  0
 17 18  1  0  0  0  0
 19 20  1  0  0  0  0
 21 22  1  0  0  0  0
 21 19  2  0  0  0  0
 23 21  1  0  0  0  0
 24  4  1  0  0  0  0
 24 25  1  0  0  0  0
 25 26  1  0  0  0  0
 27 25  2  0  0  0  0
 27 28  1  0  0  0  0
 29 27  1  0  0  0  0
 30 29  1  0  0  0  0
 31 33  1  0  0  0  0
 31 29  2  0  0  0  0
 32 31  1  0  0  0  0
 33 24  2  0  0  0  0
 34 33  1  0  0  0  0
M  END
