1,3
q = 0.0, confidence = 1.0

 49 51  0  0  1  0  0  0  0  0999 V2000
    0.1057    0.4638   -0.5064 N   0  0  0  0  0  2  0  0  0  0  0  0
    1.3221   -0.1280   -0.4284 N   0  0  0  0  0  0  0  0  0  0  0  0
   -0.8466   -2.4730    0.1578 N   0  0  0  0  0  0  0  0  0  0  0  0
   -1.9520    2.5242   -1.1445 C   0  0  0  0  0  0  0  0  0  0  0  0
   -2.0386    1.6030   -1.7377 H   0  0  0  0  0  0  0  0  0  0  0  0
   -3.0071    3.4454   -1.1382 C   0  0  0  0  0  0  0  0  0  0  0  0
   -3.9112    3.2286   -1.7263 H   0  0  0  0  0  0  0  0  0  0  0  0
   -2.9126    4.6253   -0.3846 C   0  0  0  0  0  0  0  0  0  0  0  0
   -3.7426    5.3481   -0.3819 H   0  0  0  0  0  0  0  0  0  0  0  0
   -1.7569    4.8783    0.3738 C   0  0  0  0  0  0  0  0  0  0  0  0
   -1.6813    5.7966    0.9756 H   0  0  0  0  0  0  0  0  0  0  0  0
   -0.7064    3.9531    0.3839 C   0  0  0  0  0  0  0  0  0  0  0  0
    0.1810    4.1347    1.0087 H   0  0  0  0  0  0  0  0  0  0  0  0
   -0.7949    2.7636   -0.3730 C   0  0  0  0  0  0  0  0  0  0  0  0
    0.3093    1.7951   -0.3486 C   0  0  1  0  0  3  0  0  0  0  0  0
    1.6897    2.0443   -0.1659 C   0  0  0  0  0  0  0  0  0  0  0  0
    2.1844    3.0147   -0.0665 H   0  0  0  0  0  0  0  0  0  0  0  0
    2.3191    0.7980   -0.2281 C   0  0  0  0  0  0  0  0  0  0  0  0
    3.7535    0.4777   -0.1371 C   0  0  0  0  0  0  0  0  0  0  0  0
    4.5183    1.0343    0.9127 C   0  0  0  0  0  0  0  0  0  0  0  0
    4.0169    1.6615    1.6648 H   0  0  0  0  0  0  0  0  0  0  0  0
    5.8921    0.7755    1.0067 C   0  0  0  0  0  0  0  0  0  0  0  0
    6.4732    1.2115    1.8331 H   0  0  0  0  0  0  0  0  0  0  0  0
    6.5238   -0.0436    0.0571 C   0  0  0  0  0  0  0  0  0  0  0  0
    7.6022   -0.2487    0.1341 H   0  0  0  0  0  0  0  0  0  0  0  0
    5.7757   -0.5949   -0.9951 C   0  0  0  0  0  0  0  0  0  0  0  0
    6.2681   -1.2234   -1.7524 H   0  0  0  0  0  0  0  0  0  0  0  0
    4.4023   -0.3335   -1.0967 C   0  0  0  0  0  0  0  0  0  0  0  0
    3.8312   -0.7358   -1.9470 H   0  0  0  0  0  0  0  0  0  0  0  0
    1.4601   -1.5779   -0.4591 C   0  0  0  0  0  0  0  0  0  0  0  0
    2.5124   -1.7871   -0.1953 H   0  0  0  0  0  0  0  0  0  0  0  0
    1.3121   -1.9415   -1.4975 H   0  0  0  0  0  0  0  0  0  0  0  0
    0.5767   -2.3340    0.5322 C   0  0  0  0  0  0  0  0  0  0  0  0
    1.0352   -3.3403    0.6811 H   0  0  0  0  0  0  0  0  0  0  0  0
    0.5953   -1.8074    1.5106 H   0  0  0  0  0  0  0  0  0  0  0  0
   -1.5256   -3.2445    1.2415 C   0  0  0  0  0  0  0  0  0  0  0  0
   -1.4007   -2.6291    2.1569 H   0  0  0  0  0  0  0  0  0  0  0  0
   -0.9801   -4.2052    1.4038 H   0  0  0  0  0  0  0  0  0  0  0  0
   -3.0067   -3.5033    1.0048 C   0  0  0  0  0  0  0  0  0  0  0  0
   -3.4515   -3.9129    1.9326 H   0  0  0  0  0  0  0  0  0  0  0  0
   -3.1916   -4.2365    0.1944 H   0  0  0  0  0  0  0  0  0  0  0  0
   -3.5433   -2.5687    0.7445 H   0  0  0  0  0  0  0  0  0  0  0  0
   -1.0812   -3.0147   -1.2043 C   0  0  0  0  0  0  0  0  0  0  0  0
   -0.6526   -2.2912   -1.9278 H   0  0  0  0  0  0  0  0  0  0  0  0
   -2.1716   -2.9479   -1.3824 H   0  0  0  0  0  0  0  0  0  0  0  0
   -0.5533   -4.4230   -1.4677 C   0  0  0  0  0  0  0  0  0  0  0  0
   -0.8030   -4.7239   -2.5045 H   0  0  0  0  0  0  0  0  0  0  0  0
   -1.0087   -5.1717   -0.7890 H   0  0  0  0  0  0  0  0  0  0  0  0
    0.5486   -4.4973   -1.3603 H   0  0  0  0  0  0  0  0  0  0  0  0
  1  2  1  0  0  0  0
  1 15  1  0  0  0  0
  2 18  1  0  0  0  0
  3 33  1  0  0  0  0
  3 36  1  0  0  0  0
  4  6  2  0  0  0  0
  4 14  1  0  0  0  0
  5  4  1  0  0  0  0
  6  8  1  0  0  0  0
  7  6  1  0  0  0  0
  8  9  1  0  0  0  0
  8 10  2  0  0  0  0
 10 12  1  0  0  0  0
 10 11  1  0  0  0  0
 12 13  1  0  0  0  0
 14 12  2  0  0  0  0
 15 14  1  1  0  0  0
 15 16  1  0  0  0  0
 16 17  1  0  0  0  0
 18 16  2  0  0  0  0
 18 19  1  0  0  0  0
 19 20  1  0  0  0  0
 20 22  2  0  0  0  0
 20 21  1  0  0  0  0
 22 23  1  0  0  0  0
 24 25  1  0  0  0  0
 24 22  1  0  0  0  0
 26 24  2  0  0  0  0
 27 26  1  0  0  0  0
 28 26  1  0  0  0  0
 28 19  2  0  0  0  0
 29 28  1  0  0  0  0
 30  2  1  0  0  0  0
 30 31  1  0  0  0  0
 30 33  1  0  0  0  0
 32 30  1  0  0  0  0
 33 34  1  0  0  0  0
 33 35  1  0  0  0  0
 36 38  1  0  0  0  0
 36 37  1  0  0  0  0
 39 36  1  0  0  0  0
 39 40  1  0  0  0  0
 41 39  1  0  0  0  0
 42 39  1  0  0  0  0
 43  3  1  0  0  0  0
 44 43  1  0  0  0  0
 45 43  1  0  0  0  0
 46 49  1  0  0  0  0
 46 43  1  0  0  0  0
 46 48  1  0  0  0  0
 47 46  1  0  0  0  0
M  END
