4,7
q = -1.0

 21 22  0  0  0  0  0  0  0  0999 V2000
   -2.4953   -2.2905   -1.2138 B   0  0  0  0  0  0  0  0  0  0  0  0
   -3.5763   -2.7748   -1.5209 H   0  0  0  0  0  0  0  0  0  0  0  0
   -1.5268   -2.8975   -1.6544 H   0  0  0  0  0  0  0  0  0  0  0  0
   -1.3234   -0.0607   -1.6199 N   0  0  0  0  0  2  0  0  0  0  0  0
   -2.4474   -0.8178   -1.7408 N   0  0  0  0  0  0  0  0  0  0  0  0
   -4.1520    3.2298   -3.6125 N   0  0  0  0  0  0  0  0  0  0  0  0
   -1.3718   -1.6325    0.9792 N   0  0  0  0  0  2  0  0  0  0  0  0
   -2.4067   -2.2426    0.3480 N   0  0  0  0  0  0  0  0  0  0  0  0
   -3.7315   -3.2191    4.8326 N   0  0  0  0  0  0  0  0  0  0  0  0
   -1.5692    1.1344   -2.1742 C   0  0  0  0  0  3  0  0  0  0  0  0
   -0.8019    1.9153   -2.1605 H   0  0  0  0  0  0  0  0  0  0  0  0
   -2.9004    1.1657   -2.6638 C   0  0  0  0  0  0  0  0  0  0  0  0
   -3.4138   -0.1159   -2.3642 C   0  0  0  0  0  0  0  0  0  0  0  0
   -4.3959   -0.5555   -2.5663 H   0  0  0  0  0  0  0  0  0  0  0  0
   -3.5858    2.2777   -3.2182 C   0  0  0  0  0  0  0  0  0  0  0  0
   -1.5378   -1.7892    2.2998 C   0  0  0  0  0  3  0  0  0  0  0  0
   -0.8159   -1.3690    3.0088 H   0  0  0  0  0  0  0  0  0  0  0  0
   -2.7219   -2.5323    2.5426 C   0  0  0  0  0  0  0  0  0  0  0  0
   -3.2376   -2.7949    1.2543 C   0  0  0  0  0  0  0  0  0  0  0  0
   -4.1336   -3.3424    0.9452 H   0  0  0  0  0  0  0  0  0  0  0  0
   -3.2731   -2.9150    3.7947 C   0  0  0  0  0  0  0  0  0  0  0  0
  1  8  1  0  0  0  0
  2  1  1  0  0  0  0
  3  1  1  0  0  0  0
  5  4  1  0  0  0  0
  5  1  1  0  0  0  0
  6 15  3  0  0  0  0
  7 16  1  0  0  0  0
  8  7  1  0  0  0  0
  8 19  1  0  0  0  0
 10 11  1  0  0  0  0
 10  4  1  0  0  0  0
 12 13  2  0  0  0  0
 12 10  1  0  0  0  0
 13  5  1  0  0  0  0
 14 13  1  0  0  0  0
 15 12  1  0  0  0  0
 16 18  1  0  0  0  0
 16 17  1  0  0  0  0
 18 21  1  0  0  0  0
 19 18  2  0  0  0  0
 20 19  1  0  0  0  0
 21  9  3  0  0  0  0
M  END
