1,2
q = 0.0, confidence = 0.994

 32 33  0  0  0  0  0  0  0  0999 V2000
    2.9134    0.2948   -0.2409 N   0  0  0  0  0  2  0  0  0  0  0  0
    0.2250    0.6363   -0.2008 N   0  0  0  0  0  2  0  0  0  0  0  0
   -5.3843    0.3352   -0.0149 N   0  0  0  0  0  0  0  0  0  0  0  0
    4.2350    0.0903   -0.2225 C   0  0  0  0  0  3  0  0  0  0  0  0
    4.5621   -0.9598   -0.1513 H   0  0  0  0  0  0  0  0  0  0  0  0
    5.1592    1.1448   -0.2816 C   0  0  0  0  0  0  0  0  0  0  0  0
    6.2377    0.9342   -0.2658 H   0  0  0  0  0  0  0  0  0  0  0  0
    4.6704    2.4591   -0.3573 C   0  0  0  0  0  0  0  0  0  0  0  0
    5.3647    3.3115   -0.4044 H   0  0  0  0  0  0  0  0  0  0  0  0
    3.2880    2.6734   -0.3657 C   0  0  0  0  0  0  0  0  0  0  0  0
    2.8683    3.6891   -0.4158 H   0  0  0  0  0  0  0  0  0  0  0  0
    2.4230    1.5603   -0.3018 C   0  0  0  0  0  0  0  0  0  0  0  0
    0.9691    1.7010   -0.2857 C   0  0  0  0  0  3  0  0  0  0  0  0
    0.5502    2.7241   -0.3579 H   0  0  0  0  0  0  0  0  0  0  0  0
   -1.1627    0.6261   -0.1416 C   0  0  0  0  0  0  0  0  0  0  0  0
   -1.9615    1.7577    0.1634 C   0  0  0  0  0  0  0  0  0  0  0  0
   -1.4890    2.7206    0.4080 H   0  0  0  0  0  0  0  0  0  0  0  0
   -3.3468    1.6649    0.2108 C   0  0  0  0  0  0  0  0  0  0  0  0
   -3.9249    2.5575    0.4807 H   0  0  0  0  0  0  0  0  0  0  0  0
   -4.0132    0.4282   -0.0587 C   0  0  0  0  0  0  0  0  0  0  0  0
   -3.2011   -0.7055   -0.3618 C   0  0  0  0  0  0  0  0  0  0  0  0
   -3.6603   -1.6782   -0.5766 H   0  0  0  0  0  0  0  0  0  0  0  0
   -1.8163   -0.6079   -0.3914 C   0  0  0  0  0  0  0  0  0  0  0  0
   -1.2002   -1.4861   -0.6517 H   0  0  0  0  0  0  0  0  0  0  0  0
   -6.1881    1.5025    0.2973 C   0  0  0  0  0  0  0  0  0  0  0  0
   -5.9755    1.8976    1.3161 H   0  0  0  0  0  0  0  0  0  0  0  0
   -7.2577    1.2312    0.2555 H   0  0  0  0  0  0  0  0  0  0  0  0
   -6.0179    2.3282   -0.4282 H   0  0  0  0  0  0  0  0  0  0  0  0
   -6.0335   -0.9428   -0.2483 C   0  0  0  0  0  0  0  0  0  0  0  0
   -5.8117   -1.3405   -1.2630 H   0  0  0  0  0  0  0  0  0  0  0  0
   -7.1275   -0.8176   -0.1637 H   0  0  0  0  0  0  0  0  0  0  0  0
   -5.7168   -1.7104    0.4918 H   0  0  0  0  0  0  0  0  0  0  0  0
  1  4  1  0  0  0  0
  2 15  1  0  0  0  0
  3 25  1  0  0  0  0
  4  5  1  0  0  0  0
  6  7  1  0  0  0  0
  6  4  1  0  0  0  0
  8  6  2  0  0  0  0
  9  8  1  0  0  0  0
 10  8  1  0  0  0  0
 10 12  2  0  0  0  0
 11 10  1  0  0  0  0
 12 13  1  0  0  0  0
 12  1  1  0  0  0  0
 13  2  1  0  0  0  0
 14 13  1  0  0  0  0
 15 16  1  0  0  0  0
 16 18  2  0  0  0  0
 16 17  1  0  0  0  0
 18 19  1  0  0  0  0
 20  3  1  0  0  0  0
 20 18  1  0  0  0  0
 21 20  2  0  0  0  0
 22 21  1  0  0  0  0
 23 21  1  0  0  0  0
 23 15  2  0  0  0  0
 24 23  1  0  0  0  0
 25 26  1  0  0  0  0
 27 25  1  0  0  0  0
 28 25  1  0  0  0  0
 29 31  1  0  0  0  0
 29  3  1  0  0  0  0
 29 32  1  0  0  0  0
 30 29  1  0  0  0  0
M  END
