1,7
q = 0.0, confidence = 0.998

 33 35  0  0  1  0  0  0  0  0999 V2000
    2.2674    0.5053   -0.8883 N   0  0  0  0  0  2  0  0  0  0  0  0
    2.5122   -0.7372   -0.6371 C   0  0  2  0  0  3  0  0  0  0  0  0
    3.9043   -1.6265   -1.2933 S   0  0  0  0  0  0  0  0  0  0  0  0
    5.1528   -0.2583   -1.4636 C   0  0  0  0  0  0  0  0  0  0  0  0
    3.1606    1.2706   -1.7412 C   0  0  0  0  0  0  0  0  0  0  0  0
    4.5900    1.1339   -1.1988 C   0  0  0  0  0  0  0  0  0  0  0  0
   -0.2761   -0.0960    0.0693 N   0  0  0  0  0  2  0  0  0  0  0  0
    0.2751   -1.2478    0.3078 C   0  0  2  0  0  3  0  0  0  0  0  0
   -0.5480   -2.6810    0.9958 S   0  0  0  0  0  0  0  0  0  0  0  0
    1.0294   -3.6148    1.0888 C   0  0  0  0  0  0  0  0  0  0  0  0
    1.6381   -1.5085    0.1397 N   0  0  2  0  0  0  0  0  0  0  0  0
    2.1139   -2.5475    1.0698 C   0  0  0  0  0  0  0  0  0  0  0  0
   -1.6650    0.1154    0.0005 C   0  0  0  0  0  0  0  0  0  0  0  0
   -2.1707    1.3707    0.4079 C   0  0  0  0  0  0  0  0  0  0  0  0
   -3.5423    1.6250    0.3576 C   0  0  0  0  0  0  0  0  0  0  0  0
   -4.4401    0.6544   -0.1197 C   0  0  0  0  0  0  0  0  0  0  0  0
   -6.1385    0.9966   -0.1722 Cl  0  0  0  0  0  0  0  0  0  0  0  0
   -2.5596   -0.8483   -0.5153 C   0  0  0  0  0  0  0  0  0  0  0  0
   -3.9350   -0.5854   -0.5713 C   0  0  0  0  0  0  0  0  0  0  0  0
   -5.0015   -1.7965   -1.2144 Cl  0  0  0  0  0  0  0  0  0  0  0  0
    5.5213   -0.3559   -2.5040 H   0  0  0  0  0  0  0  0  0  0  0  0
    5.9811   -0.5082   -0.7727 H   0  0  0  0  0  0  0  0  0  0  0  0
    2.8075    2.3203   -1.7257 H   0  0  0  0  0  0  0  0  0  0  0  0
    3.1059    0.8998   -2.7913 H   0  0  0  0  0  0  0  0  0  0  0  0
    5.2632    1.8828   -1.6638 H   0  0  0  0  0  0  0  0  0  0  0  0
    4.5532    1.3417   -0.1092 H   0  0  0  0  0  0  0  0  0  0  0  0
    1.0938   -4.3046    0.2233 H   0  0  0  0  0  0  0  0  0  0  0  0
    1.0371   -4.1994    2.0274 H   0  0  0  0  0  0  0  0  0  0  0  0
    3.0887   -2.9389    0.7291 H   0  0  0  0  0  0  0  0  0  0  0  0
    2.2393   -2.0580    2.0613 H   0  0  0  0  0  0  0  0  0  0  0  0
   -1.4773    2.1623    0.7306 H   0  0  0  0  0  0  0  0  0  0  0  0
   -3.9378    2.5977    0.6814 H   0  0  0  0  0  0  0  0  0  0  0  0
   -2.1985   -1.8096   -0.9033 H   0  0  0  0  0  0  0  0  0  0  0  0
  1  2  1  0  0  0  0
  2  3  1  6  0  0  0
  2 11  1  0  0  0  0
  4  3  1  0  0  0  0
  4  6  1  0  0  0  0
  4 22  1  0  0  0  0
  5 23  1  0  0  0  0
  5  6  1  0  0  0  0
  5  1  1  0  0  0  0
  6 26  1  0  0  0  0
  8  7  1  1  0  0  0
  8  9  1  0  0  0  0
  9 10  1  0  0  0  0
 10 28  1  0  0  0  0
 11  8  1  0  0  0  0
 11 12  1  1  0  0  0
 12 10  1  0  0  0  0
 12 30  1  0  0  0  0
 13  7  1  0  0  0  0
 13 14  1  0  0  0  0
 14 31  1  0  0  0  0
 15 14  2  0  0  0  0
 15 32  1  0  0  0  0
 16 15  1  0  0  0  0
 17 16  1  0  0  0  0
 18 13  2  0  0  0  0
 19 18  1  0  0  0  0
 19 16  2  0  0  0  0
 20 19  1  0  0  0  0
 21  4  1  0  0  0  0
 24  5  1  0  0  0  0
 25  6  1  0  0  0  0
 27 10  1  0  0  0  0
 29 12  1  0  0  0  0
 33 18  1  0  0  0  0
M  END
