1,2
q = -1.0

 44 46  0  0  0  0  0  0  0  0999 V2000
    0.8114   -0.1159    1.1116 N   0  0  0  0  0  2  0  0  0  0  0  0
    0.8113    0.1159   -1.1115 N   0  0  0  0  0  2  0  0  0  0  0  0
    2.9626    0.0001    0.0000 N   0  0  0  0  0  0  0  0  0  0  0  0
    1.5342    0.0000    0.0000 C   0  0  0  0  0  3  0  0  0  0  0  0
    1.3136    0.6404   -2.3729 C   0  0  0  0  0  0  0  0  0  0  0  0
    2.4188    0.4984   -2.4047 H   0  0  0  0  0  0  0  0  0  0  0  0
    1.0288    2.1463   -2.4934 C   0  0  0  0  0  0  0  0  0  0  0  0
   -0.0629    2.3335   -2.5306 H   0  0  0  0  0  0  0  0  0  0  0  0
    1.4810    2.5598   -3.4179 H   0  0  0  0  0  0  0  0  0  0  0  0
    1.4468    2.6967   -1.6269 H   0  0  0  0  0  0  0  0  0  0  0  0
    0.6935   -0.1373   -3.5386 C   0  0  0  0  0  0  0  0  0  0  0  0
    1.0067   -1.2011   -3.5207 H   0  0  0  0  0  0  0  0  0  0  0  0
    1.0074    0.2884   -4.5124 H   0  0  0  0  0  0  0  0  0  0  0  0
   -0.4138   -0.0978   -3.4790 H   0  0  0  0  0  0  0  0  0  0  0  0
    1.3137   -0.6405    2.3729 C   0  0  0  0  0  0  0  0  0  0  0  0
    2.4188   -0.4982    2.4048 H   0  0  0  0  0  0  0  0  0  0  0  0
    1.0294   -2.1465    2.4930 C   0  0  0  0  0  0  0  0  0  0  0  0
   -0.0622   -2.3341    2.5300 H   0  0  0  0  0  0  0  0  0  0  0  0
    1.4816   -2.5602    3.4175 H   0  0  0  0  0  0  0  0  0  0  0  0
    1.4477   -2.6966    1.6264 H   0  0  0  0  0  0  0  0  0  0  0  0
    0.6932    0.1367    3.5387 C   0  0  0  0  0  0  0  0  0  0  0  0
    1.0060    1.2006    3.5211 H   0  0  0  0  0  0  0  0  0  0  0  0
    1.0071   -0.2891    4.5124 H   0  0  0  0  0  0  0  0  0  0  0  0
   -0.4141    0.0969    3.4789 H   0  0  0  0  0  0  0  0  0  0  0  0
    3.7770    0.9803    0.5769 C   0  0  0  0  0  0  0  0  0  0  0  0
    5.1462    0.6264    0.3672 C   0  0  0  0  0  0  0  0  0  0  0  0
    6.1582    1.4744    0.8549 C   0  0  0  0  0  0  0  0  0  0  0  0
    7.2179    1.2188    0.7029 H   0  0  0  0  0  0  0  0  0  0  0  0
    5.7977    2.6464    1.5323 C   0  0  0  0  0  0  0  0  0  0  0  0
    6.5799    3.3166    1.9186 H   0  0  0  0  0  0  0  0  0  0  0  0
    4.4379    2.9812    1.7236 C   0  0  0  0  0  0  0  0  0  0  0  0
    4.1791    3.9095    2.2553 H   0  0  0  0  0  0  0  0  0  0  0  0
    3.4088    2.1559    1.2499 C   0  0  0  0  0  0  0  0  0  0  0  0
    2.3515    2.4153    1.3926 H   0  0  0  0  0  0  0  0  0  0  0  0
    3.7771   -0.9801   -0.5768 C   0  0  0  0  0  0  0  0  0  0  0  0
    5.1463   -0.6261   -0.3671 C   0  0  0  0  0  0  0  0  0  0  0  0
    6.1584   -1.4741   -0.8547 C   0  0  0  0  0  0  0  0  0  0  0  0
    7.2180   -1.2183   -0.7027 H   0  0  0  0  0  0  0  0  0  0  0  0
    5.7980   -2.6460   -1.5322 C   0  0  0  0  0  0  0  0  0  0  0  0
    6.5802   -3.3162   -1.9185 H   0  0  0  0  0  0  0  0  0  0  0  0
    4.4382   -2.9810   -1.7236 C   0  0  0  0  0  0  0  0  0  0  0  0
    4.1795   -3.9093   -2.2552 H   0  0  0  0  0  0  0  0  0  0  0  0
    3.4090   -2.1558   -1.2499 C   0  0  0  0  0  0  0  0  0  0  0  0
    2.3517   -2.4152   -1.3926 H   0  0  0  0  0  0  0  0  0  0  0  0
  1 15  1  0  0  0  0
  2  4  1  0  0  0  0
  3  4  1  0  0  0  0
  3 25  1  0  0  0  0
  4  1  1  0  0  0  0
  5  2  1  0  0  0  0
  6  5  1  0  0  0  0
  7  5  1  0  0  0  0
  7 10  1  0  0  0  0
  8  7  1  0  0  0  0
  9  7  1  0  0  0  0
 11 12  1  0  0  0  0
 11 14  1  0  0  0  0
 11  5  1  0  0  0  0
 13 11  1  0  0  0  0
 15 16  1  0  0  0  0
 15 17  1  0  0  0  0
 15 21  1  0  0  0  0
 17 18  1  0  0  0  0
 17 19  1  0  0  0  0
 20 17  1  0  0  0  0
 21 23  1  0  0  0  0
 22 21  1  0  0  0  0
 24 21  1  0  0  0  0
 25 33  1  0  0  0  0
 26 25  2  0  0  0  0
 26 27  1  0  0  0  0
 27 29  2  0  0  0  0
 28 27  1  0  0  0  0
 29 31  1  0  0  0  0
 29 30  1  0  0  0  0
 31 32  1  0  0  0  0
 33 34  1  0  0  0  0
 33 31  2  0  0  0  0
 35 36  1  0  0  0  0
 35  3  1  0  0  0  0
 36 26  1  0  0  0  0
 37 38  1  0  0  0  0
 37 36  2  0  0  0  0
 39 37  1  0  0  0  0
 40 39  1  0  0  0  0
 41 39  2  0  0  0  0
 41 43  1  0  0  0  0
 42 41  1  0  0  0  0
 43 35  2  0  0  0  0
 44 43  1  0  0  0  0
M  END
