1,4
q = 0.0, confidence = 0.992

 39 40  0  0  0  0  0  0  0  0999 V2000
    0.6411    0.5307   -0.5812 N   0  0  0  0  0  2  0  0  0  0  0  0
    2.9136    0.1083   -0.7827 N   0  0  0  0  0  0  0  0  0  0  0  0
    2.2103    1.7933    0.6909 N   0  0  0  0  0  0  0  0  0  0  0  0
   -1.7646   -0.4301    0.1415 N   0  0  0  0  0  2  0  0  0  0  0  0
    1.8950    0.8368   -0.2397 C   0  0  0  0  0  3  0  0  0  0  0  0
    4.0177   -0.3672    0.0449 C   0  0  0  0  0  0  0  0  0  0  0  0
    3.8614   -0.0576    1.0924 H   0  0  0  0  0  0  0  0  0  0  0  0
    5.0016   -0.0010   -0.3194 H   0  0  0  0  0  0  0  0  0  0  0  0
    4.0212   -1.4771    0.0354 H   0  0  0  0  0  0  0  0  0  0  0  0
    2.6947   -0.6193   -2.0291 C   0  0  0  0  0  0  0  0  0  0  0  0
    1.9620   -0.0766   -2.6523 H   0  0  0  0  0  0  0  0  0  0  0  0
    2.2884   -1.6409   -1.8524 H   0  0  0  0  0  0  0  0  0  0  0  0
    3.6578   -0.6964   -2.5734 H   0  0  0  0  0  0  0  0  0  0  0  0
    1.3115    2.0687    1.8030 C   0  0  0  0  0  0  0  0  0  0  0  0
    0.6776    1.1794    1.9823 H   0  0  0  0  0  0  0  0  0  0  0  0
    0.6781    2.9660    1.6263 H   0  0  0  0  0  0  0  0  0  0  0  0
    1.9194    2.2341    2.7160 H   0  0  0  0  0  0  0  0  0  0  0  0
    3.4289    2.5787    0.6162 C   0  0  0  0  0  0  0  0  0  0  0  0
    3.9337    2.3970   -0.3498 H   0  0  0  0  0  0  0  0  0  0  0  0
    4.1394    2.3403    1.4386 H   0  0  0  0  0  0  0  0  0  0  0  0
    3.1800    3.6607    0.6841 H   0  0  0  0  0  0  0  0  0  0  0  0
   -0.4156    1.4265   -0.5680 C   0  0  0  0  0  0  0  0  0  0  0  0
   -0.3501    2.7830   -0.9173 C   0  0  0  0  0  0  0  0  0  0  0  0
    0.6211    3.2162   -1.1980 H   0  0  0  0  0  0  0  0  0  0  0  0
   -1.5125    3.5926   -0.9335 C   0  0  0  0  0  0  0  0  0  0  0  0
   -1.4163    4.6510   -1.2201 H   0  0  0  0  0  0  0  0  0  0  0  0
   -2.7618    3.0786   -0.6076 C   0  0  0  0  0  3  0  0  0  0  0  0
   -3.6603    3.7129   -0.6256 H   0  0  0  0  0  0  0  0  0  0  0  0
   -2.8810    1.7073   -0.2443 C   0  0  0  0  0  0  0  0  0  0  0  0
   -1.7087    0.8829   -0.2223 C   0  0  0  0  0  0  0  0  0  0  0  0
   -4.1058    1.0766    0.1177 C   0  0  0  0  0  0  0  0  0  0  0  0
   -5.0350    1.6678    0.1092 H   0  0  0  0  0  0  0  0  0  0  0  0
   -4.1261   -0.2611    0.4789 C   0  0  0  0  0  0  0  0  0  0  0  0
   -5.0661   -0.7557    0.7625 H   0  0  0  0  0  0  0  0  0  0  0  0
   -2.9158   -1.0128    0.4881 C   0  0  0  0  0  0  0  0  0  0  0  0
   -2.8474   -2.4585    0.8796 C   0  0  0  0  0  0  0  0  0  0  0  0
   -2.3703   -3.0427    0.0623 H   0  0  0  0  0  0  0  0  0  0  0  0
   -3.8429   -2.8781    1.1119 H   0  0  0  0  0  0  0  0  0  0  0  0
   -2.1867   -2.5727    1.7653 H   0  0  0  0  0  0  0  0  0  0  0  0
  1 22  1  0  0  0  0
  1  5  1  0  0  0  0
  2  5  1  0  0  0  0
  2  6  1  0  0  0  0
  3 14  1  0  0  0  0
  4 35  1  0  0  0  0
  5  3  1  0  0  0  0
  6  7  1  0  0  0  0
  8  6  1  0  0  0  0
  9  6  1  0  0  0  0
 10 12  1  0  0  0  0
 10  2  1  0  0  0  0
 11 10  1  0  0  0  0
 13 10  1  0  0  0  0
 14 15  1  0  0  0  0
 14 17  1  0  0  0  0
 16 14  1  0  0  0  0
 18 21  1  0  0  0  0
 18  3  1  0  0  0  0
 18 20  1  0  0  0  0
 19 18  1  0  0  0  0
 22 30  2  0  0  0  0
 23 22  1  0  0  0  0
 24 23  1  0  0  0  0
 25 23  2  0  0  0  0
 25 27  1  0  0  0  0
 26 25  1  0  0  0  0
 27 29  1  0  0  0  0
 28 27  1  0  0  0  0
 29 30  1  0  0  0  0
 29 31  2  0  0  0  0
 30  4  1  0  0  0  0
 31 33  1  0  0  0  0
 32 31  1  0  0  0  0
 33 35  2  0  0  0  0
 33 34  1  0  0  0  0
 35 36  1  0  0  0  0
 36 38  1  0  0  0  0
 36 39  1  0  0  0  0
 37 36  1  0  0  0  0
M  END
