1,3
q = -1.0, confidence = 0.0

 17 18  0  0  1  0  0  0  0  0999 V2000
    1.7885    0.6578    0.6845 N   0  0  0  0  0  0  0  0  0  0  0  0
    3.8264   -0.3464    0.5582 N   0  0  0  0  0  0  0  0  0  0  0  0
    0.6483   -0.6791   -1.2135 N   0  0  0  0  0  2  0  0  0  0  0  0
    2.5859   -0.2710    0.0570 C   0  0  0  0  0  0  0  0  0  0  0  0
    3.8374    0.5750    1.5596 C   0  0  0  0  0  0  0  0  0  0  0  0
    4.7301    0.7593    2.1715 H   0  0  0  0  0  0  0  0  0  0  0  0
    2.5824    1.2090    1.6562 C   0  0  0  0  0  3  0  0  0  0  0  0
    2.2480    1.9927    2.3492 H   0  0  0  0  0  0  0  0  0  0  0  0
    1.9577   -1.0265   -0.9975 C   0  0  1  0  0  3  0  0  0  0  0  0
    2.5750   -2.0394   -1.7570 C   0  0  0  0  0  0  0  0  0  0  0  0
    3.6255   -2.2793   -1.5415 H   0  0  0  0  0  0  0  0  0  0  0  0
    1.8314   -2.6949   -2.7385 C   0  0  0  0  0  0  0  0  0  0  0  0
    2.2907   -3.4913   -3.3427 H   0  0  0  0  0  0  0  0  0  0  0  0
    0.4865   -2.3306   -2.9457 C   0  0  0  0  0  0  0  0  0  0  0  0
   -0.1327   -2.8249   -3.7067 H   0  0  0  0  0  0  0  0  0  0  0  0
   -0.0720   -1.3190   -2.1613 C   0  0  0  0  0  0  0  0  0  0  0  0
   -1.1176   -1.0033   -2.2843 H   0  0  0  0  0  0  0  0  0  0  0  0
  1  7  1  0  0  0  0
  2  5  2  0  0  0  0
  3  9  1  0  0  0  0
  4  2  1  0  0  0  0
  4  1  2  0  0  0  0
  5  7  1  0  0  0  0
  5  6  1  0  0  0  0
  7  8  1  0  0  0  0
  9  4  1  1  0  0  0
 10 11  1  0  0  0  0
 10  9  1  0  0  0  0
 12 10  2  0  0  0  0
 13 12  1  0  0  0  0
 14 12  1  0  0  0  0
 14 16  2  0  0  0  0
 15 14  1  0  0  0  0
 16  3  1  0  0  0  0
 17 16  1  0  0  0  0
M  END
