3,4
q = -1.0

 52 55  0  0  1  0  0  0  0  0999 V2000
    1.2877   -2.9121    1.6549 O   0  0  0  0  0  0  0  0  0  0  0  0
   -2.9881   -2.6328   -0.3415 O   0  0  0  0  0  0  0  0  0  0  0  0
    0.8541   -0.9056    0.6964 N   0  0  0  0  0  2  0  0  0  0  0  0
   -1.7704   -0.7501   -0.6235 N   0  0  0  0  0  2  0  0  0  0  0  0
   -0.8189   -2.7016    0.5797 C   0  0  0  0  0  0  0  0  0  0  0  0
   -1.0406   -3.7284    0.8875 H   0  0  0  0  0  0  0  0  0  0  0  0
    0.4078   -2.1327    0.9543 C   0  0  1  0  0  3  0  0  0  0  0  0
    2.2482   -0.8303    1.1256 C   0  0  1  0  0  0  0  0  0  0  0  0
    2.4454    0.1118    1.6809 H   0  0  0  0  0  0  0  0  0  0  0  0
    2.3502   -2.0341    2.1304 C   0  0  0  0  0  0  0  0  0  0  0  0
   -1.8008   -1.9952   -0.1327 C   0  0  0  0  0  0  0  0  0  0  0  0
   -3.1265   -0.3954   -1.0421 C   0  0  1  0  0  0  0  0  0  0  0  0
   -3.1119    0.1341   -2.0157 H   0  0  0  0  0  0  0  0  0  0  0  0
   -3.7806   -1.8052   -1.2448 C   0  0  0  0  0  0  0  0  0  0  0  0
    3.2228   -0.8900   -0.0381 C   0  0  0  0  0  0  0  0  0  0  0  0
    3.0086   -1.7761   -1.1140 C   0  0  0  0  0  0  0  0  0  0  0  0
    2.1063   -2.4062   -1.1209 H   0  0  0  0  0  0  0  0  0  0  0  0
    3.9228   -1.8424   -2.1754 C   0  0  0  0  0  0  0  0  0  0  0  0
    3.7433   -2.5397   -3.0080 H   0  0  0  0  0  0  0  0  0  0  0  0
    5.0574   -1.0128   -2.1856 C   0  0  0  0  0  0  0  0  0  0  0  0
    5.7689   -1.0582   -3.0242 H   0  0  0  0  0  0  0  0  0  0  0  0
    5.2736   -0.1213   -1.1234 C   0  0  0  0  0  0  0  0  0  0  0  0
    6.1535    0.5405   -1.1279 H   0  0  0  0  0  0  0  0  0  0  0  0
    4.3626   -0.0665   -0.0565 C   0  0  0  0  0  0  0  0  0  0  0  0
    4.5258    0.6444    0.7698 H   0  0  0  0  0  0  0  0  0  0  0  0
   -3.8396    0.4929   -0.0331 C   0  0  0  0  0  0  0  0  0  0  0  0
   -4.8414    1.3842   -0.4622 C   0  0  0  0  0  0  0  0  0  0  0  0
   -5.0733    1.4571   -1.5374 H   0  0  0  0  0  0  0  0  0  0  0  0
   -5.5317    2.1885    0.4567 C   0  0  0  0  0  0  0  0  0  0  0  0
   -6.3075    2.8847    0.1024 H   0  0  0  0  0  0  0  0  0  0  0  0
   -5.2238    2.1138    1.8245 C   0  0  0  0  0  0  0  0  0  0  0  0
   -5.7599    2.7468    2.5481 H   0  0  0  0  0  0  0  0  0  0  0  0
   -4.2218    1.2321    2.2617 C   0  0  0  0  0  0  0  0  0  0  0  0
   -3.9714    1.1709    3.3322 H   0  0  0  0  0  0  0  0  0  0  0  0
   -3.5328    0.4292    1.3397 C   0  0  0  0  0  0  0  0  0  0  0  0
   -2.7347   -0.2471    1.6805 H   0  0  0  0  0  0  0  0  0  0  0  0
    3.6540   -2.8181    2.1092 C   0  0  0  0  0  0  0  0  0  0  0  0
    4.5024   -2.1643    2.3915 H   0  0  0  0  0  0  0  0  0  0  0  0
    3.6034   -3.6583    2.8297 H   0  0  0  0  0  0  0  0  0  0  0  0
    3.8549   -3.2268    1.1020 H   0  0  0  0  0  0  0  0  0  0  0  0
    1.9813   -1.5744    3.5444 C   0  0  0  0  0  0  0  0  0  0  0  0
    2.7770   -0.9271    3.9653 H   0  0  0  0  0  0  0  0  0  0  0  0
    1.0330   -1.0008    3.5301 H   0  0  0  0  0  0  0  0  0  0  0  0
    1.8494   -2.4503    4.2094 H   0  0  0  0  0  0  0  0  0  0  0  0
   -3.5399   -2.3039   -2.6724 C   0  0  0  0  0  0  0  0  0  0  0  0
   -4.1568   -1.7310   -3.3936 H   0  0  0  0  0  0  0  0  0  0  0  0
   -2.4738   -2.1817   -2.9492 H   0  0  0  0  0  0  0  0  0  0  0  0
   -3.8060   -3.3761   -2.7532 H   0  0  0  0  0  0  0  0  0  0  0  0
   -5.2375   -1.9393   -0.8278 C   0  0  0  0  0  0  0  0  0  0  0  0
   -5.8827   -1.2888   -1.4499 H   0  0  0  0  0  0  0  0  0  0  0  0
   -5.5698   -2.9884   -0.9568 H   0  0  0  0  0  0  0  0  0  0  0  0
   -5.3733   -1.6502    0.2308 H   0  0  0  0  0  0  0  0  0  0  0  0
  1 10  1  0  0  0  0
  2 11  1  0  0  0  0
  3  7  1  0  0  0  0
  3  8  1  0  0  0  0
  4 11  1  0  0  0  0
  5  6  1  0  0  0  0
  7  5  1  6  0  0  0
  7  1  1  0  0  0  0
  8  9  1  1  0  0  0
  8 10  1  0  0  0  0
 10 41  1  0  0  0  0
 11  5  2  0  0  0  0
 12 13  1  6  0  0  0
 12  4  1  0  0  0  0
 12 26  1  0  0  0  0
 14 12  1  0  0  0  0
 14 49  1  0  0  0  0
 14  2  1  0  0  0  0
 15  8  1  0  0  0  0
 16 15  2  0  0  0  0
 17 16  1  0  0  0  0
 18 16  1  0  0  0  0
 19 18  1  0  0  0  0
 20 18  2  0  0  0  0
 20 22  1  0  0  0  0
 21 20  1  0  0  0  0
 22 24  2  0  0  0  0
 23 22  1  0  0  0  0
 24 15  1  0  0  0  0
 24 25  1  0  0  0  0
 26 35  1  0  0  0  0
 27 26  2  0  0  0  0
 27 29  1  0  0  0  0
 28 27  1  0  0  0  0
 29 31  2  0  0  0  0
 30 29  1  0  0  0  0
 31 33  1  0  0  0  0
 31 32  1  0  0  0  0
 33 34  1  0  0  0  0
 35 36  1  0  0  0  0
 35 33  2  0  0  0  0
 37 10  1  0  0  0  0
 37 38  1  0  0  0  0
 37 39  1  0  0  0  0
 40 37  1  0  0  0  0
 41 42  1  0  0  0  0
 41 44  1  0  0  0  0
 43 41  1  0  0  0  0
 45 14  1  0  0  0  0
 46 45  1  0  0  0  0
 47 45  1  0  0  0  0
 48 45  1  0  0  0  0
 49 52  1  0  0  0  0
 50 49  1  0  0  0  0
 51 49  1  0  0  0  0
M  END
