1,2
q = -1.0, confidence = 0.0

 36 38  0  0  0  0  0  0  0  0999 V2000
   -1.0575   -1.4192    0.4511 N   0  0  0  0  0  2  0  0  0  0  0  0
    1.3984   -1.0821   -0.9357 N   0  0  0  0  0  2  0  0  0  0  0  0
   -2.2107   -0.9969    1.1491 C   0  0  0  0  0  0  0  0  0  0  0  0
   -2.0642   -0.1336    2.2595 C   0  0  0  0  0  0  0  0  0  0  0  0
   -1.0496    0.1622    2.5646 H   0  0  0  0  0  0  0  0  0  0  0  0
   -3.1869    0.3306    2.9554 C   0  0  0  0  0  0  0  0  0  0  0  0
   -3.0522    1.0016    3.8175 H   0  0  0  0  0  0  0  0  0  0  0  0
   -4.4778   -0.0682    2.5664 C   0  0  0  0  0  0  0  0  0  0  0  0
   -5.3590    0.2905    3.1195 H   0  0  0  0  0  0  0  0  0  0  0  0
   -4.6336   -0.9188    1.4605 C   0  0  0  0  0  0  0  0  0  0  0  0
   -5.6407   -1.2127    1.1270 H   0  0  0  0  0  0  0  0  0  0  0  0
   -3.5148   -1.3679    0.7474 C   0  0  0  0  0  0  0  0  0  0  0  0
   -3.6396   -1.9915   -0.1494 H   0  0  0  0  0  0  0  0  0  0  0  0
   -0.8808   -2.7403    0.1789 C   0  0  0  0  0  0  0  0  0  0  0  0
   -1.6883   -3.7663    0.7846 C   0  0  0  0  0  0  0  0  0  0  0  0
   -2.4331   -3.4709    1.5345 H   0  0  0  0  0  0  0  0  0  0  0  0
   -1.5448   -5.1062    0.4596 C   0  0  0  0  0  0  0  0  0  0  0  0
   -2.1926   -5.8463    0.9554 H   0  0  0  0  0  0  0  0  0  0  0  0
   -0.5812   -5.5358   -0.4887 C   0  0  0  0  0  0  0  0  0  0  0  0
   -0.4907   -6.5974   -0.7589 H   0  0  0  0  0  0  0  0  0  0  0  0
    0.2677   -4.5872   -1.0340 C   0  0  0  0  0  0  0  0  0  0  0  0
    1.0627   -4.8934   -1.7329 H   0  0  0  0  0  0  0  0  0  0  0  0
    0.1818   -3.2021   -0.6975 C   0  0  0  0  0  0  0  0  0  0  0  0
    1.2076   -2.3598   -1.2127 C   0  0  0  0  0  3  0  0  0  0  0  0
    1.9262   -2.8384   -1.9065 H   0  0  0  0  0  0  0  0  0  0  0  0
    2.5751   -0.4543   -1.4236 C   0  0  0  0  0  0  0  0  0  0  0  0
    3.8356   -1.0810   -1.3312 C   0  0  0  0  0  0  0  0  0  0  0  0
    3.9138   -2.0661   -0.8487 H   0  0  0  0  0  0  0  0  0  0  0  0
    4.9841   -0.4215   -1.7889 C   0  0  0  0  0  0  0  0  0  0  0  0
    5.9647   -0.9121   -1.6935 H   0  0  0  0  0  0  0  0  0  0  0  0
    4.8905    0.8673   -2.3372 C   0  0  0  0  0  0  0  0  0  0  0  0
    5.7951    1.3860   -2.6888 H   0  0  0  0  0  0  0  0  0  0  0  0
    3.6358    1.4948   -2.4275 C   0  0  0  0  0  0  0  0  0  0  0  0
    3.5521    2.5039   -2.8588 H   0  0  0  0  0  0  0  0  0  0  0  0
    2.4833    0.8416   -1.9750 C   0  0  0  0  0  0  0  0  0  0  0  0
    1.4957    1.3224   -2.0349 H   0  0  0  0  0  0  0  0  0  0  0  0
  1  3  1  0  0  0  0
  3  4  1  0  0  0  0
  4  5  1  0  0  0  0
  4  6  2  0  0  0  0
  6  7  1  0  0  0  0
  8  6  1  0  0  0  0
  8  9  1  0  0  0  0
 10  8  2  0  0  0  0
 11 10  1  0  0  0  0
 12  3  2  0  0  0  0
 12 10  1  0  0  0  0
 13 12  1  0  0  0  0
 14  1  1  0  0  0  0
 14 15  1  0  0  0  0
 15 16  1  0  0  0  0
 17 15  2  0  0  0  0
 17 18  1  0  0  0  0
 19 17  1  0  0  0  0
 20 19  1  0  0  0  0
 21 23  1  0  0  0  0
 21 19  2  0  0  0  0
 22 21  1  0  0  0  0
 23 14  2  0  0  0  0
 24  2  1  0  0  0  0
 24 23  1  0  0  0  0
 25 24  1  0  0  0  0
 26 27  1  0  0  0  0
 26  2  1  0  0  0  0
 27 28  1  0  0  0  0
 29 30  1  0  0  0  0
 29 27  2  0  0  0  0
 31 29  1  0  0  0  0
 32 31  1  0  0  0  0
 33 31  2  0  0  0  0
 33 35  1  0  0  0  0
 34 33  1  0  0  0  0
 35 26  2  0  0  0  0
 36 35  1  0  0  0  0
M  END
