2,5
q = 0.0, confidence = 1.0

 28 28  0  0  0  0  0  0  0  0999 V2000
   -1.8858    1.4661   -1.4048 N   0  0  0  0  0  0  0  0  0  0  0  0
   -0.6416    1.6015   -0.9688 N   0  0  0  0  0  2  0  0  0  0  0  0
   -4.2548    0.7083   -0.3312 N   0  0  0  0  0  0  0  0  0  0  0  0
   -3.6069   -0.1673   -1.2159 N   0  0  0  0  0  0  0  0  0  0  0  0
    1.8213    1.5334    0.1719 N   0  0  0  0  0  2  0  0  0  0  0  0
   -1.4668   -0.7769   -1.7879 O   0  0  0  0  0  0  0  0  0  0  0  0
   -2.2903    0.0918   -1.4981 C   0  0  0  0  0  0  0  0  0  0  0  0
   -0.0394    2.7394   -0.7918 C   0  0  0  0  0  0  0  0  0  0  0  0
   -2.7019    2.6122   -1.7615 C   0  0  0  0  0  0  0  0  0  0  0  0
   -4.0221   -1.5675   -1.2277 C   0  0  0  0  0  0  0  0  0  0  0  0
    1.3132    2.7248   -0.2270 C   0  0  0  0  0  0  0  0  0  0  0  0
    3.0664    1.4692    0.6615 C   0  0  0  0  0  0  0  0  0  0  0  0
    3.8781    2.6050    0.8093 C   0  0  0  0  0  0  0  0  0  0  0  0
    3.3586    3.8493    0.4215 C   0  0  0  0  0  0  0  0  0  0  0  0
    2.0639    3.9140   -0.1057 C   0  0  0  0  0  0  0  0  0  0  0  0
   -4.0174    0.4250    0.6399 H   0  0  0  0  0  0  0  0  0  0  0  0
   -5.2687    0.6260   -0.4735 H   0  0  0  0  0  0  0  0  0  0  0  0
   -0.4955    3.7177   -1.0275 H   0  0  0  0  0  0  0  0  0  0  0  0
   -2.9567    3.2179   -0.8677 H   0  0  0  0  0  0  0  0  0  0  0  0
   -3.6362    2.2584   -2.2237 H   0  0  0  0  0  0  0  0  0  0  0  0
   -2.1456    3.2373   -2.4935 H   0  0  0  0  0  0  0  0  0  0  0  0
   -3.4761   -2.1064   -2.0219 H   0  0  0  0  0  0  0  0  0  0  0  0
   -5.1120   -1.6175   -1.4219 H   0  0  0  0  0  0  0  0  0  0  0  0
   -3.7903   -2.0462   -0.2506 H   0  0  0  0  0  0  0  0  0  0  0  0
    3.4234    0.4596    0.9307 H   0  0  0  0  0  0  0  0  0  0  0  0
    4.8928    2.5079    1.2203 H   0  0  0  0  0  0  0  0  0  0  0  0
    3.9615    4.7642    0.5235 H   0  0  0  0  0  0  0  0  0  0  0  0
    1.6296    4.8707   -0.4324 H   0  0  0  0  0  0  0  0  0  0  0  0
  1  2  1  0  0  0  0
  2  8  1  0  0  0  0
  3 16  1  0  0  0  0
  4  3  1  0  0  0  0
  5 12  1  0  0  0  0
  6  7  2  0  0  0  0
  7  1  1  0  0  0  0
  7  4  1  0  0  0  0
  8 11  2  0  0  0  0
  9  1  1  0  0  0  0
  9 19  1  0  0  0  0
 10  4  1  0  0  0  0
 10 24  1  0  0  0  0
 11 15  1  0  0  0  0
 11  5  1  0  0  0  0
 12 13  2  0  0  0  0
 12 25  1  0  0  0  0
 13 26  1  0  0  0  0
 14 27  1  0  0  0  0
 14 13  1  0  0  0  0
 15 14  2  0  0  0  0
 17  3  1  0  0  0  0
 18  8  1  0  0  0  0
 20  9  1  0  0  0  0
 21  9  1  0  0  0  0
 22 10  1  0  0  0  0
 23 10  1  0  0  0  0
 28 15  1  0  0  0  0
M  END
