3,14
q = 0.0, confidence = 0.998

 34 35  0  0  0  0  0  0  0  0999 V2000
   -0.1952    2.3522   -0.2208 C   0  0  0  0  0  0  0  0  0  0  0  0
   -0.8611    3.2194   -0.3552 H   0  0  0  0  0  0  0  0  0  0  0  0
    1.8735    1.3141    0.3142 N   0  0  0  0  0  2  0  0  0  0  0  0
    1.2079    2.4544    0.0147 C   0  0  0  0  0  0  0  0  0  0  0  0
    2.0790    3.5092   -0.0136 N   0  0  0  0  0  0  0  0  0  0  0  0
    3.3317    3.0067    0.2608 C   0  0  0  0  0  0  0  0  0  0  0  0
    4.2146    3.6525    0.3097 H   0  0  0  0  0  0  0  0  0  0  0  0
    3.1933    1.6362    0.4542 C   0  0  0  0  0  0  0  0  0  0  0  0
    3.9631    0.8925    0.6809 H   0  0  0  0  0  0  0  0  0  0  0  0
    1.7449    4.8883   -0.3472 C   0  0  0  0  0  0  0  0  0  0  0  0
    1.4560    4.9696   -1.4137 H   0  0  0  0  0  0  0  0  0  0  0  0
    2.6277    5.5259   -0.1657 H   0  0  0  0  0  0  0  0  0  0  0  0
    0.9132    5.2471    0.2890 H   0  0  0  0  0  0  0  0  0  0  0  0
   -0.6634    1.1216   -0.2125 N   0  0  0  0  0  2  0  0  0  0  0  0
   -2.0817    0.9187   -0.1699 C   0  0  0  0  0  0  0  0  0  0  0  0
   -2.7728    0.4047   -1.2950 C   0  0  0  0  0  0  0  0  0  0  0  0
   -4.1472    0.1423   -1.1490 C   0  0  0  0  0  0  0  0  0  0  0  0
   -4.6955   -0.2579   -2.0169 H   0  0  0  0  0  0  0  0  0  0  0  0
   -4.8433    0.3863    0.0502 C   0  0  0  0  0  0  0  0  0  0  0  0
   -4.1216    0.9202    1.1340 C   0  0  0  0  0  0  0  0  0  0  0  0
   -4.6425    1.1139    2.0852 H   0  0  0  0  0  0  0  0  0  0  0  0
   -2.7466    1.1983    1.0526 C   0  0  0  0  0  0  0  0  0  0  0  0
   -2.0985    0.2233   -2.6268 C   0  0  0  0  0  0  0  0  0  0  0  0
   -2.6646   -0.4795   -3.2668 H   0  0  0  0  0  0  0  0  0  0  0  0
   -1.0492   -0.1186   -2.5411 H   0  0  0  0  0  0  0  0  0  0  0  0
   -2.0551    1.1932   -3.1680 H   0  0  0  0  0  0  0  0  0  0  0  0
   -6.3214    0.1179    0.1563 C   0  0  0  0  0  0  0  0  0  0  0  0
   -6.6244   -0.7521   -0.4584 H   0  0  0  0  0  0  0  0  0  0  0  0
   -6.9043    0.9906   -0.2087 H   0  0  0  0  0  0  0  0  0  0  0  0
   -6.6318   -0.0672    1.2026 H   0  0  0  0  0  0  0  0  0  0  0  0
   -2.0053    1.7425    2.2493 C   0  0  0  0  0  0  0  0  0  0  0  0
   -1.8253    2.8350    2.1648 H   0  0  0  0  0  0  0  0  0  0  0  0
   -1.0111    1.2669    2.3727 H   0  0  0  0  0  0  0  0  0  0  0  0
   -2.5871    1.5859    3.1772 H   0  0  0  0  0  0  0  0  0  0  0  0
  1 14  1  0  0  0  0
  1  4  2  0  0  0  0
  2  1  1  0  0  0  0
  3  8  1  0  0  0  0
  4  3  1  0  0  0  0
  5  4  1  0  0  0  0
  5  6  1  0  0  0  0
  6  7  1  0  0  0  0
  6  8  2  0  0  0  0
  8  9  1  0  0  0  0
 10 12  1  0  0  0  0
 10  5  1  0  0  0  0
 10 13  1  0  0  0  0
 11 10  1  0  0  0  0
 14 15  1  0  0  0  0
 15 22  1  0  0  0  0
 16 17  1  0  0  0  0
 16 15  2  0  0  0  0
 17 19  2  0  0  0  0
 18 17  1  0  0  0  0
 19 27  1  0  0  0  0
 19 20  1  0  0  0  0
 20 21  1  0  0  0  0
 22 20  2  0  0  0  0
 22 31  1  0  0  0  0
 23 25  1  0  0  0  0
 23 16  1  0  0  0  0
 24 23  1  0  0  0  0
 26 23  1  0  0  0  0
 27 30  1  0  0  0  0
 28 27  1  0  0  0  0
 29 27  1  0  0  0  0
 31 33  1  0  0  0  0
 31 34  1  0  0  0  0
 32 31  1  0  0  0  0
M  END
