4,5
q = 0.0, confidence = 0.998

 45 46  0  0  0  0  0  0  0  0999 V2000
    0.9580    4.0754    0.4119 F   0  0  0  0  0  0  0  0  0  0  0  0
    0.0767    4.3232   -1.5657 F   0  0  0  0  0  0  0  0  0  0  0  0
   -0.9713    5.0818    0.1975 F   0  0  0  0  0  0  0  0  0  0  0  0
   -3.2729   -1.0409    0.4928 N   0  0  0  0  0  2  0  0  0  0  0  0
   -1.3158    0.5782   -0.2029 N   0  0  0  0  0  2  0  0  0  0  0  0
   -0.4421    1.5572   -0.4901 N   0  0  0  0  0  0  0  0  0  0  0  0
   -4.2132   -1.9513    0.8195 C   0  0  0  0  0  0  0  0  0  0  0  0
   -3.9472   -2.9925    0.5666 H   0  0  0  0  0  0  0  0  0  0  0  0
   -5.4181   -1.5817    1.4264 C   0  0  0  0  0  0  0  0  0  0  0  0
   -6.1549   -2.3583    1.6748 H   0  0  0  0  0  0  0  0  0  0  0  0
   -5.6598   -0.2272    1.7042 C   0  0  0  0  0  0  0  0  0  0  0  0
   -6.5988    0.0913    2.1802 H   0  0  0  0  0  0  0  0  0  0  0  0
   -4.6844    0.7165    1.3656 C   0  0  0  0  0  0  0  0  0  0  0  0
   -4.8323    1.7868    1.5657 H   0  0  0  0  0  0  0  0  0  0  0  0
   -3.4937    0.2826    0.7587 C   0  0  0  0  0  0  0  0  0  0  0  0
   -2.4058    1.1633    0.3670 C   0  0  0  0  0  0  0  0  0  0  0  0
   -2.2132    2.5590    0.4479 C   0  0  0  0  0  0  0  0  0  0  0  0
   -2.8874    3.3232    0.8436 H   0  0  0  0  0  0  0  0  0  0  0  0
   -0.9512    2.7697   -0.1022 C   0  0  0  0  0  0  0  0  0  0  0  0
   -0.2153    4.0680   -0.2667 C   0  0  0  0  0  0  0  0  0  0  0  0
    0.8925    1.2738   -1.0217 C   0  0  0  0  0  0  0  0  0  0  0  0
    1.2227    2.1815   -1.5601 H   0  0  0  0  0  0  0  0  0  0  0  0
    0.7740    0.4393   -1.7427 H   0  0  0  0  0  0  0  0  0  0  0  0
    1.8786    0.8625    0.0733 C   0  0  0  0  0  0  0  0  0  0  0  0
    1.4591   -0.0218    0.5971 H   0  0  0  0  0  0  0  0  0  0  0  0
    1.9802    1.6850    0.8131 H   0  0  0  0  0  0  0  0  0  0  0  0
    3.2408    0.4944   -0.5162 C   0  0  0  0  0  0  0  0  0  0  0  0
    3.6549    1.3608   -1.0806 H   0  0  0  0  0  0  0  0  0  0  0  0
    3.0932   -0.3229   -1.2551 H   0  0  0  0  0  0  0  0  0  0  0  0
    4.2495    0.0438    0.5428 C   0  0  0  0  0  0  0  0  0  0  0  0
    4.3775    0.8488    1.3019 H   0  0  0  0  0  0  0  0  0  0  0  0
    3.8293   -0.8270    1.0939 H   0  0  0  0  0  0  0  0  0  0  0  0
    5.6161   -0.3333   -0.0342 C   0  0  0  0  0  0  0  0  0  0  0  0
    6.0351    0.5369   -0.5891 H   0  0  0  0  0  0  0  0  0  0  0  0
    5.4827   -1.1356   -0.7944 H   0  0  0  0  0  0  0  0  0  0  0  0
    6.6258   -0.7957    1.0190 C   0  0  0  0  0  0  0  0  0  0  0  0
    6.7576    0.0064    1.7810 H   0  0  0  0  0  0  0  0  0  0  0  0
    6.2059   -1.6658    1.5733 H   0  0  0  0  0  0  0  0  0  0  0  0
    7.9936   -1.1756    0.4436 C   0  0  0  0  0  0  0  0  0  0  0  0
    8.4091   -0.3052   -0.1120 H   0  0  0  0  0  0  0  0  0  0  0  0
    7.8576   -1.9764   -0.3171 H   0  0  0  0  0  0  0  0  0  0  0  0
    8.9951   -1.6362    1.5032 C   0  0  0  0  0  0  0  0  0  0  0  0
    9.9740   -1.9042    1.0568 H   0  0  0  0  0  0  0  0  0  0  0  0
    8.6219   -2.5276    2.0497 H   0  0  0  0  0  0  0  0  0  0  0  0
    9.1778   -0.8422    2.2576 H   0  0  0  0  0  0  0  0  0  0  0  0
  2 20  1  0  0  0  0
  4 15  1  0  0  0  0
  4  7  1  0  0  0  0
  5 16  1  0  0  0  0
  6  5  1  0  0  0  0
  6 19  1  0  0  0  0
  7  9  2  0  0  0  0
  8  7  1  0  0  0  0
  9 10  1  0  0  0  0
  9 11  1  0  0  0  0
 11 12  1  0  0  0  0
 13 14  1  0  0  0  0
 13 11  2  0  0  0  0
 15 13  1  0  0  0  0
 16 17  1  0  0  0  0
 16 15  2  0  0  0  0
 17 18  1  0  0  0  0
 19 17  2  0  0  0  0
 20 19  1  0  0  0  0
 20  3  1  0  0  0  0
 20  1  1  0  0  0  0
 21  6  1  0  0  0  0
 21 24  1  0  0  0  0
 22 21  1  0  0  0  0
 23 21  1  0  0  0  0
 24 25  1  0  0  0  0
 24 26  1  0  0  0  0
 27 24  1  0  0  0  0
 27 30  1  0  0  0  0
 28 27  1  0  0  0  0
 29 27  1  0  0  0  0
 30 32  1  0  0  0  0
 30 31  1  0  0  0  0
 33 30  1  0  0  0  0
 33 36  1  0  0  0  0
 34 33  1  0  0  0  0
 35 33  1  0  0  0  0
 36 38  1  0  0  0  0
 36 37  1  0  0  0  0
 39 36  1  0  0  0  0
 39 42  1  0  0  0  0
 40 39  1  0  0  0  0
 41 39  1  0  0  0  0
 42 44  1  0  0  0  0
 42 45  1  0  0  0  0
 43 42  1  0  0  0  0
M  END
