4,5
q = -1.0, confidence = 0.0

 65 72  0  0  1  0  0  0  0  0999 V2000
    1.6388    0.6395   -0.5369 O   0  0  0  0  0  0  0  0  0  0  0  0
    1.2965   -1.9882   -0.3998 N   0  0  0  0  0  0  0  0  0  0  0  0
    0.8071   -1.0870   -0.3310 H   0  0  0  0  0  0  0  0  0  0  0  0
   -1.3365   -1.9920    0.1493 N   0  0  0  0  0  2  0  0  0  0  0  0
   -1.4421    0.6763   -0.0632 N   0  0  0  0  0  0  0  0  0  0  0  0
    2.6479   -2.1049   -0.5851 C   0  0  0  0  0  0  0  0  0  0  0  0
    2.8998   -3.5131   -0.7078 C   0  0  0  0  0  0  0  0  0  0  0  0
    3.8821   -3.9651   -0.8797 H   0  0  0  0  0  0  0  0  0  0  0  0
    1.6769   -4.1858   -0.5740 C   0  0  0  0  0  0  0  0  0  0  0  0
    1.5163   -5.2689   -0.6040 H   0  0  0  0  0  0  0  0  0  0  0  0
    0.6635   -3.2042   -0.3648 C   0  0  0  0  0  0  0  0  0  0  0  0
   -0.7612   -3.1812   -0.2227 C   0  0  2  0  0  3  0  0  0  0  0  0
   -1.7841   -4.0577   -0.7197 C   0  0  0  0  0  0  0  0  0  0  0  0
   -1.6214   -5.0616   -1.1284 H   0  0  0  0  0  0  0  0  0  0  0  0
   -2.9706   -3.3300   -0.7170 C   0  0  0  0  0  0  0  0  0  0  0  0
   -3.9440   -3.6438   -1.1106 H   0  0  0  0  0  0  0  0  0  0  0  0
   -2.6637   -2.0102   -0.2179 C   0  0  0  0  0  0  0  0  0  0  0  0
   -3.4185   -0.8115   -0.3627 C   0  0  0  0  0  0  0  0  0  0  0  0
   -4.8600   -0.9479   -0.6961 C   0  0  0  0  0  0  0  0  0  0  0  0
   -5.4091   -0.4223   -1.8882 C   0  0  0  0  0  0  0  0  0  0  0  0
   -4.7501    0.0963   -2.5997 H   0  0  0  0  0  0  0  0  0  0  0  0
   -6.7681   -0.5930   -2.1861 C   0  0  0  0  0  0  0  0  0  0  0  0
   -7.1752   -0.1844   -3.1237 H   0  0  0  0  0  0  0  0  0  0  0  0
   -7.6043   -1.2955   -1.3034 C   0  0  0  0  0  0  0  0  0  0  0  0
   -8.6712   -1.4281   -1.5390 H   0  0  0  0  0  0  0  0  0  0  0  0
   -7.0686   -1.8364   -0.1239 C   0  0  0  0  0  0  0  0  0  0  0  0
   -7.7152   -2.3920    0.5723 H   0  0  0  0  0  0  0  0  0  0  0  0
   -5.7092   -1.6687    0.1749 C   0  0  0  0  0  0  0  0  0  0  0  0
   -5.2884   -2.0862    1.1019 H   0  0  0  0  0  0  0  0  0  0  0  0
   -2.7870    0.4665   -0.3639 C   0  0  0  0  0  0  0  0  0  0  0  0
   -3.3509    1.7258   -0.7837 C   0  0  0  0  0  0  0  0  0  0  0  0
   -4.3907    1.8869   -1.0851 H   0  0  0  0  0  0  0  0  0  0  0  0
   -2.3284    2.6579   -0.7857 C   0  0  0  0  0  0  0  0  0  0  0  0
   -2.3806    3.7018   -1.1130 H   0  0  0  0  0  0  0  0  0  0  0  0
   -1.1273    1.9862   -0.3443 C   0  0  0  0  0  3  0  0  0  0  0  0
    0.1675    2.5994   -0.2757 C   0  0  2  0  0  3  0  0  0  0  0  0
    0.1750    4.0926   -0.2206 C   0  0  0  0  0  0  0  0  0  0  0  0
    0.8441    4.8645   -1.1966 C   0  0  0  0  0  0  0  0  0  0  0  0
    1.3634    4.3516   -2.0203 H   0  0  0  0  0  0  0  0  0  0  0  0
    0.8301    6.2653   -1.1354 C   0  0  0  0  0  0  0  0  0  0  0  0
    1.3484    6.8508   -1.9102 H   0  0  0  0  0  0  0  0  0  0  0  0
    0.1472    6.9197   -0.0974 C   0  0  0  0  0  0  0  0  0  0  0  0
    0.1363    8.0192   -0.0497 H   0  0  0  0  0  0  0  0  0  0  0  0
   -0.5242    6.1639    0.8773 C   0  0  0  0  0  0  0  0  0  0  0  0
   -1.0576    6.6691    1.6970 H   0  0  0  0  0  0  0  0  0  0  0  0
   -0.5127    4.7636    0.8158 C   0  0  0  0  0  0  0  0  0  0  0  0
   -1.0281    4.1693    1.5849 H   0  0  0  0  0  0  0  0  0  0  0  0
    1.4391    1.9881   -0.2941 C   0  0  0  0  0  0  0  0  0  0  0  0
    2.7227    2.5807   -0.1079 C   0  0  0  0  0  0  0  0  0  0  0  0
    2.8919    3.6345    0.1330 H   0  0  0  0  0  0  0  0  0  0  0  0
    3.6811    1.5855   -0.2453 C   0  0  0  0  0  0  0  0  0  0  0  0
    4.7653    1.6854   -0.1324 H   0  0  0  0  0  0  0  0  0  0  0  0
    3.0030    0.3628   -0.5006 C   0  0  0  0  0  0  0  0  0  0  0  0
    3.4946   -0.9559   -0.6175 C   0  0  1  0  0  3  0  0  0  0  0  0
    4.9650   -1.1419   -0.7190 C   0  0  0  0  0  0  0  0  0  0  0  0
    5.7195   -0.4438   -1.6900 C   0  0  0  0  0  0  0  0  0  0  0  0
    5.1992    0.2271   -2.3899 H   0  0  0  0  0  0  0  0  0  0  0  0
    7.1071   -0.6189   -1.7827 C   0  0  0  0  0  0  0  0  0  0  0  0
    7.6753   -0.0717   -2.5505 H   0  0  0  0  0  0  0  0  0  0  0  0
    7.7687   -1.4981   -0.9106 C   0  0  0  0  0  0  0  0  0  0  0  0
    8.8578   -1.6370   -0.9851 H   0  0  0  0  0  0  0  0  0  0  0  0
    7.0314   -2.1989    0.0576 C   0  0  0  0  0  0  0  0  0  0  0  0
    7.5431   -2.8822    0.7525 H   0  0  0  0  0  0  0  0  0  0  0  0
    5.6445   -2.0223    0.1548 C   0  0  0  0  0  0  0  0  0  0  0  0
    5.0732   -2.5523    0.9313 H   0  0  0  0  0  0  0  0  0  0  0  0
  1 53  1  0  0  0  0
  1 48  1  0  0  0  0
  2 11  1  0  0  0  0
  2  3  1  0  0  0  0
  6  2  1  0  0  0  0
  7  6  2  0  0  0  0
  7  9  1  0  0  0  0
  8  7  1  0  0  0  0
  9 11  2  0  0  0  0
 10  9  1  0  0  0  0
 11 12  1  0  0  0  0
 12 13  1  6  0  0  0
 12  4  1  0  0  0  0
 13 15  2  0  0  0  0
 14 13  1  0  0  0  0
 15 17  1  0  0  0  0
 16 15  1  0  0  0  0
 17  4  1  0  0  0  0
 18 17  2  0  0  0  0
 19 18  1  0  0  0  0
 19 28  1  0  0  0  0
 20 19  2  0  0  0  0
 21 20  1  0  0  0  0
 22 20  1  0  0  0  0
 22 24  2  0  0  0  0
 23 22  1  0  0  0  0
 24 26  1  0  0  0  0
 25 24  1  0  0  0  0
 26 28  2  0  0  0  0
 26 27  1  0  0  0  0
 28 29  1  0  0  0  0
 30 18  1  0  0  0  0
 30  5  2  0  0  0  0
 31 30  1  0  0  0  0
 32 31  1  0  0  0  0
 33 31  2  0  0  0  0
 33 35  1  0  0  0  0
 34 33  1  0  0  0  0
 35 36  1  0  0  0  0
 35  5  1  0  0  0  0
 36 37  1  6  0  0  0
 37 46  1  0  0  0  0
 38 40  1  0  0  0  0
 38 37  2  0  0  0  0
 39 38  1  0  0  0  0
 40 42  2  0  0  0  0
 41 40  1  0  0  0  0
 42 43  1  0  0  0  0
 42 44  1  0  0  0  0
 44 45  1  0  0  0  0
 46 44  2  0  0  0  0
 46 47  1  0  0  0  0
 48 36  1  0  0  0  0
 48 49  2  0  0  0  0
 49 50  1  0  0  0  0
 51 52  1  0  0  0  0
 51 49  1  0  0  0  0
 53 51  2  0  0  0  0
 54 55  1  1  0  0  0
 54  6  1  0  0  0  0
 54 53  1  0  0  0  0
 55 64  1  0  0  0  0
 56 55  2  0  0  0  0
 57 56  1  0  0  0  0
 58 56  1  0  0  0  0
 58 60  2  0  0  0  0
 59 58  1  0  0  0  0
 60 62  1  0  0  0  0
 61 60  1  0  0  0  0
 62 64  2  0  0  0  0
 62 63  1  0  0  0  0
 64 65  1  0  0  0  0
M  END
