1,3
q = -1.0, confidence = 0.0

 36 35  0  0  0  0  0  0  0  0999 V2000
    1.8634   -0.6645    0.4178 N   0  0  0  0  0  2  0  0  0  0  0  0
    2.1766    0.2703   -0.5022 C   0  0  0  0  0  3  0  0  0  0  0  0
    1.0689    0.9790   -0.7450 N   0  0  0  0  0  2  0  0  0  0  0  0
    0.8437    2.1483   -1.5742 C   0  0  0  0  0  0  0  0  0  0  0  0
    1.0529    3.4423   -0.7713 C   0  0  0  0  0  0  0  0  0  0  0  0
    2.0728    3.4825   -0.3376 H   0  0  0  0  0  0  0  0  0  0  0  0
    0.9110    4.3375   -1.4113 H   0  0  0  0  0  0  0  0  0  0  0  0
    0.3295    3.4996    0.0653 H   0  0  0  0  0  0  0  0  0  0  0  0
   -0.5461    2.1100   -2.2164 C   0  0  0  0  0  0  0  0  0  0  0  0
   -0.6789    2.9734   -2.8991 H   0  0  0  0  0  0  0  0  0  0  0  0
   -1.3304    2.1423   -1.4391 H   0  0  0  0  0  0  0  0  0  0  0  0
   -0.6842    1.1754   -2.7943 H   0  0  0  0  0  0  0  0  0  0  0  0
    1.5700    2.1491   -2.4069 H   0  0  0  0  0  0  0  0  0  0  0  0
    3.6003    0.4143   -1.1128 C   0  0  0  0  0  0  0  0  0  0  0  0
    3.7217    1.4012   -2.2930 C   0  0  0  0  0  0  0  0  0  0  0  0
    3.5112    2.4472   -2.0026 H   0  0  0  0  0  0  0  0  0  0  0  0
    4.7688    1.3704   -2.6583 H   0  0  0  0  0  0  0  0  0  0  0  0
    3.0716    1.1214   -3.1445 H   0  0  0  0  0  0  0  0  0  0  0  0
    4.5561    0.9368   -0.0105 C   0  0  0  0  0  0  0  0  0  0  0  0
    4.6542    0.2489    0.8483 H   0  0  0  0  0  0  0  0  0  0  0  0
    4.1989    1.9108    0.3808 H   0  0  0  0  0  0  0  0  0  0  0  0
    5.5698    1.0913   -0.4350 H   0  0  0  0  0  0  0  0  0  0  0  0
    4.0692   -0.9525   -1.6710 C   0  0  0  0  0  0  0  0  0  0  0  0
    4.0600   -1.7684   -0.9274 H   0  0  0  0  0  0  0  0  0  0  0  0
    5.1060   -0.8595   -2.0547 H   0  0  0  0  0  0  0  0  0  0  0  0
    3.4227   -1.2660   -2.5141 H   0  0  0  0  0  0  0  0  0  0  0  0
    2.7220   -1.4802    1.2601 C   0  0  0  0  0  0  0  0  0  0  0  0
    2.7933   -0.9542    2.7035 C   0  0  0  0  0  0  0  0  0  0  0  0
    1.8101   -1.0333    3.2078 H   0  0  0  0  0  0  0  0  0  0  0  0
    3.5230   -1.5441    3.2950 H   0  0  0  0  0  0  0  0  0  0  0  0
    3.1030    0.1088    2.7277 H   0  0  0  0  0  0  0  0  0  0  0  0
    2.2998   -2.9558    1.2340 C   0  0  0  0  0  0  0  0  0  0  0  0
    2.3085   -3.3568    0.2014 H   0  0  0  0  0  0  0  0  0  0  0  0
    2.9895   -3.5678    1.8496 H   0  0  0  0  0  0  0  0  0  0  0  0
    1.2797   -3.0861    1.6442 H   0  0  0  0  0  0  0  0  0  0  0  0
    3.7559   -1.4385    0.8614 H   0  0  0  0  0  0  0  0  0  0  0  0
  1 27  1  0  0  0  0
  2  1  1  0  0  0  0
  3  2  1  0  0  0  0
  4  5  1  0  0  0  0
  4  3  1  0  0  0  0
  5  6  1  0  0  0  0
  5  8  1  0  0  0  0
  7  5  1  0  0  0  0
  9  4  1  0  0  0  0
  9 11  1  0  0  0  0
 10  9  1  0  0  0  0
 12  9  1  0  0  0  0
 13  4  1  0  0  0  0
 14  2  1  0  0  0  0
 14 19  1  0  0  0  0
 15 16  1  0  0  0  0
 15 14  1  0  0  0  0
 17 15  1  0  0  0  0
 18 15  1  0  0  0  0
 19 21  1  0  0  0  0
 19 20  1  0  0  0  0
 22 19  1  0  0  0  0
 23 14  1  0  0  0  0
 23 24  1  0  0  0  0
 25 23  1  0  0  0  0
 26 23  1  0  0  0  0
 27 28  1  0  0  0  0
 28 31  1  0  0  0  0
 28 29  1  0  0  0  0
 28 30  1  0  0  0  0
 32 27  1  0  0  0  0
 32 35  1  0  0  0  0
 32 34  1  0  0  0  0
 33 32  1  0  0  0  0
 36 27  1  0  0  0  0
M  END
