17,18
q = -1.0

 36 37  0  0  1  0  0  0  0  0999 V2000
   -3.3614    2.2319    1.3770 F   0  0  0  0  0  0  0  0  0  0  0  0
   -3.3158    2.6533   -0.7675 F   0  0  0  0  0  0  0  0  0  0  0  0
   -2.2553    3.9479    0.6217 F   0  0  0  0  0  0  0  0  0  0  0  0
    2.0230    4.0434    0.5840 F   0  0  0  0  0  0  0  0  0  0  0  0
    3.1311    2.7750   -0.7927 F   0  0  0  0  0  0  0  0  0  0  0  0
    3.2009    2.3837    1.3569 F   0  0  0  0  0  0  0  0  0  0  0  0
   -2.9194    0.4144   -2.3572 F   0  0  0  0  0  0  0  0  0  0  0  0
   -5.2761   -0.9441   -2.6187 F   0  0  0  0  0  0  0  0  0  0  0  0
   -6.3267   -2.2842   -0.4763 F   0  0  0  0  0  0  0  0  0  0  0  0
   -5.0421   -2.2339    1.9410 F   0  0  0  0  0  0  0  0  0  0  0  0
   -2.6849   -0.8648    2.2027 F   0  0  0  0  0  0  0  0  0  0  0  0
    2.8147    0.5013   -2.3713 F   0  0  0  0  0  0  0  0  0  0  0  0
    5.2005   -0.8045   -2.6417 F   0  0  0  0  0  0  0  0  0  0  0  0
    6.3073   -2.0901   -0.4947 F   0  0  0  0  0  0  0  0  0  0  0  0
    5.0375   -2.0511    1.9342 F   0  0  0  0  0  0  0  0  0  0  0  0
    2.6610   -0.7289    2.2052 F   0  0  0  0  0  0  0  0  0  0  0  0
   -1.5065    0.4521    0.0750 N   0  0  0  0  0  2  0  0  0  0  0  0
    1.4182    0.5150    0.0717 N   0  0  0  0  0  2  0  0  0  0  0  0
   -1.3326    1.7641    0.2288 C   0  0  2  0  0  3  0  0  0  0  0  0
   -0.0844    2.4107    0.3124 C   0  0  0  0  0  0  0  0  0  0  0  0
   -0.1073    3.4929    0.4632 H   0  0  0  0  0  0  0  0  0  0  0  0
    1.1900    1.8187    0.2213 C   0  0  0  0  0  0  0  0  0  0  0  0
   -2.5776    2.6658    0.3640 C   0  0  0  0  0  0  0  0  0  0  0  0
    2.3968    2.7723    0.3415 C   0  0  0  0  0  0  0  0  0  0  0  0
   -2.7785   -0.1544   -0.0567 C   0  0  0  0  0  0  0  0  0  0  0  0
   -3.4411   -0.2113   -1.2990 C   0  0  0  0  0  0  0  0  0  0  0  0
   -4.6500   -0.9115   -1.4406 C   0  0  0  0  0  0  0  0  0  0  0  0
   -5.1849   -1.6092   -0.3438 C   0  0  0  0  0  0  0  0  0  0  0  0
   -4.5284   -1.5768    0.8995 C   0  0  0  0  0  0  0  0  0  0  0  0
   -3.3225   -0.8722    1.0269 C   0  0  0  0  0  0  0  0  0  0  0  0
    2.7131   -0.0413   -0.0623 C   0  0  0  0  0  0  0  0  0  0  0  0
    3.3649   -0.0947   -1.3104 C   0  0  0  0  0  0  0  0  0  0  0  0
    4.5855   -0.7731   -1.4577 C   0  0  0  0  0  0  0  0  0  0  0  0
    5.1532   -1.4379   -0.3563 C   0  0  0  0  0  0  0  0  0  0  0  0
    4.5085   -1.4064    0.8928 C   0  0  0  0  0  0  0  0  0  0  0  0
    3.2950   -0.7181    1.0267 C   0  0  0  0  0  0  0  0  0  0  0  0
  2 23  1  0  0  0  0
  5 24  1  0  0  0  0
  7 26  1  0  0  0  0
  8 27  1  0  0  0  0
  9 28  1  0  0  0  0
 12 32  1  0  0  0  0
 13 33  1  0  0  0  0
 14 34  1  0  0  0  0
 18 22  1  0  0  0  0
 19 17  1  1  0  0  0
 19 20  1  0  0  0  0
 19 23  1  0  0  0  0
 20 21  1  0  0  0  0
 22 20  2  0  0  0  0
 22 24  1  0  0  0  0
 23  3  1  0  0  0  0
 23  1  1  0  0  0  0
 24  4  1  0  0  0  0
 24  6  1  0  0  0  0
 25 17  1  0  0  0  0
 25 30  1  0  0  0  0
 26 25  2  0  0  0  0
 27 26  1  0  0  0  0
 27 28  2  0  0  0  0
 28 29  1  0  0  0  0
 29 30  2  0  0  0  0
 29 10  1  0  0  0  0
 30 11  1  0  0  0  0
 31 18  1  0  0  0  0
 31 36  1  0  0  0  0
 32 31  2  0  0  0  0
 33 32  1  0  0  0  0
 33 34  2  0  0  0  0
 34 35  1  0  0  0  0
 35 36  2  0  0  0  0
 35 15  1  0  0  0  0
 36 16  1  0  0  0  0
M  END
