2,3
q = -1.0

 46 48  0  0  1  0  0  0  0  0999 V2000
    1.7914    3.7821   -0.2336 O   0  0  0  0  0  0  0  0  0  0  0  0
    0.3656    2.0644   -0.0022 N   0  0  0  0  0  2  0  0  0  0  0  0
    1.5912   -0.5642   -0.1431 N   0  0  0  0  0  2  0  0  0  0  0  0
    1.6110    2.4356   -0.2274 C   0  0  0  0  0  0  0  0  0  0  0  0
    0.4798    4.3884   -0.1866 C   0  0  0  0  0  0  0  0  0  0  0  0
    0.2218    4.7369   -1.2094 H   0  0  0  0  0  0  0  0  0  0  0  0
    0.5297    5.2602    0.4935 H   0  0  0  0  0  0  0  0  0  0  0  0
   -0.4388    3.2540    0.3112 C   0  0  2  0  0  0  0  0  0  0  0  0
   -1.3855    3.2147   -0.2686 H   0  0  0  0  0  0  0  0  0  0  0  0
   -0.7941    3.3622    1.8164 C   0  0  0  0  0  0  0  0  0  0  0  0
    0.1423    3.6518    2.3472 H   0  0  0  0  0  0  0  0  0  0  0  0
   -1.2767    2.0306    2.3990 C   0  0  0  0  0  0  0  0  0  0  0  0
   -1.6276    2.1643    3.4420 H   0  0  0  0  0  0  0  0  0  0  0  0
   -0.4607    1.2807    2.4231 H   0  0  0  0  0  0  0  0  0  0  0  0
   -2.1106    1.5994    1.8067 H   0  0  0  0  0  0  0  0  0  0  0  0
   -1.8350    4.4696    2.0192 C   0  0  0  0  0  0  0  0  0  0  0  0
   -2.7965    4.1953    1.5355 H   0  0  0  0  0  0  0  0  0  0  0  0
   -1.5087    5.4399    1.5911 H   0  0  0  0  0  0  0  0  0  0  0  0
   -2.0367    4.6333    3.0963 H   0  0  0  0  0  0  0  0  0  0  0  0
    2.7650    1.6011   -0.4583 C   0  0  0  0  0  0  0  0  0  0  0  0
    2.7274    0.1503   -0.3867 C   0  0  0  0  0  0  0  0  0  0  0  0
    1.6740   -1.9687    0.0734 C   0  0  0  0  0  0  0  0  0  0  0  0
    1.1849   -2.8571   -0.9203 C   0  0  0  0  0  0  0  0  0  0  0  0
    1.2021   -4.2399   -0.6569 C   0  0  0  0  0  0  0  0  0  0  0  0
    0.8269   -4.9328   -1.4265 H   0  0  0  0  0  0  0  0  0  0  0  0
    1.6869   -4.7391    0.5595 C   0  0  0  0  0  0  0  0  0  0  0  0
    1.6899   -5.8229    0.7496 H   0  0  0  0  0  0  0  0  0  0  0  0
    2.1597   -3.8523    1.5361 C   0  0  0  0  0  0  0  0  0  0  0  0
    2.5276   -4.2383    2.5000 H   0  0  0  0  0  0  0  0  0  0  0  0
    2.1615   -2.4625    1.3150 C   0  0  0  0  0  0  0  0  0  0  0  0
    2.6418   -1.5057    2.3736 C   0  0  0  0  0  0  0  0  0  0  0  0
    2.7748   -2.0163    3.3463 H   0  0  0  0  0  0  0  0  0  0  0  0
    1.9254   -0.6683    2.5048 H   0  0  0  0  0  0  0  0  0  0  0  0
    3.6103   -1.0389    2.0940 H   0  0  0  0  0  0  0  0  0  0  0  0
    0.6295   -2.3160   -2.2114 C   0  0  0  0  0  0  0  0  0  0  0  0
    0.4401   -3.1286   -2.9385 H   0  0  0  0  0  0  0  0  0  0  0  0
    1.3131   -1.5762   -2.6746 H   0  0  0  0  0  0  0  0  0  0  0  0
   -0.3374   -1.7957   -2.0269 H   0  0  0  0  0  0  0  0  0  0  0  0
    3.9741   -0.5242   -0.6156 C   0  0  0  0  0  0  0  0  0  0  0  0
    3.9718   -1.6227   -0.5854 H   0  0  0  0  0  0  0  0  0  0  0  0
    5.1496    0.1586   -0.8902 C   0  0  0  0  0  0  0  0  0  0  0  0
    6.0727   -0.4161   -1.0666 H   0  0  0  0  0  0  0  0  0  0  0  0
    5.1748    1.5717   -0.9592 C   0  0  0  0  0  0  0  0  0  0  0  0
    6.1076    2.1092   -1.1806 H   0  0  0  0  0  0  0  0  0  0  0  0
    3.9924    2.2650   -0.7484 C   0  0  0  0  0  3  0  0  0  0  0  0
    3.9773    3.3621   -0.7991 H   0  0  0  0  0  0  0  0  0  0  0  0
  1  4  1  0  0  0  0
  1  5  1  0  0  0  0
  2  8  1  0  0  0  0
  3 22  1  0  0  0  0
  4  2  1  0  0  0  0
  5  8  1  0  0  0  0
  5  7  1  0  0  0  0
  6  5  1  0  0  0  0
  8  9  1  6  0  0  0
  8 10  1  0  0  0  0
 10 16  1  0  0  0  0
 10 11  1  0  0  0  0
 10 12  1  0  0  0  0
 12 14  1  0  0  0  0
 12 13  1  0  0  0  0
 15 12  1  0  0  0  0
 16 19  1  0  0  0  0
 17 16  1  0  0  0  0
 18 16  1  0  0  0  0
 20 21  1  0  0  0  0
 20  4  2  0  0  0  0
 21  3  1  0  0  0  0
 22 30  1  0  0  0  0
 23 24  1  0  0  0  0
 23 22  2  0  0  0  0
 24 26  2  0  0  0  0
 25 24  1  0  0  0  0
 26 27  1  0  0  0  0
 26 28  1  0  0  0  0
 28 29  1  0  0  0  0
 30 28  2  0  0  0  0
 30 31  1  0  0  0  0
 31 33  1  0  0  0  0
 31 32  1  0  0  0  0
 34 31  1  0  0  0  0
 35 38  1  0  0  0  0
 35 23  1  0  0  0  0
 36 35  1  0  0  0  0
 37 35  1  0  0  0  0
 39 40  1  0  0  0  0
 39 21  2  0  0  0  0
 41 39  1  0  0  0  0
 42 41  1  0  0  0  0
 43 41  2  0  0  0  0
 43 45  1  0  0  0  0
 44 43  1  0  0  0  0
 45 20  1  0  0  0  0
 46 45  1  0  0  0  0
M  END
