19,21
q = -1.0, confidence = 0.08

 51 52  0  0  1  0  0  0  0  0999 V2000
    3.6141    0.9645   -0.6125 F   0  0  0  0  0  0  0  0  0  0  0  0
    2.7028    1.6622    1.2765 F   0  0  0  0  0  0  0  0  0  0  0  0
    1.7429    2.6839   -1.9731 F   0  0  0  0  0  0  0  0  0  0  0  0
    1.3535    3.5817    0.0183 F   0  0  0  0  0  0  0  0  0  0  0  0
    4.3289    3.2459   -1.8159 F   0  0  0  0  0  0  0  0  0  0  0  0
    4.2033    3.7573    0.3071 F   0  0  0  0  0  0  0  0  0  0  0  0
    3.1798    4.9846   -1.1806 F   0  0  0  0  0  0  0  0  0  0  0  0
   -3.3703    1.2205   -0.8371 F   0  0  0  0  0  0  0  0  0  0  0  0
   -1.7686    2.6255   -1.3440 F   0  0  0  0  0  0  0  0  0  0  0  0
   -2.1279    1.4256    1.9279 F   0  0  0  0  0  0  0  0  0  0  0  0
   -1.3416    3.3117    1.1004 F   0  0  0  0  0  0  0  0  0  0  0  0
   -3.6184    3.7938    2.3200 F   0  0  0  0  0  0  0  0  0  0  0  0
   -4.6356    2.1140    1.3711 F   0  0  0  0  0  0  0  0  0  0  0  0
   -4.0098    3.8374    0.1719 F   0  0  0  0  0  0  0  0  0  0  0  0
    6.8691   -3.4495    2.0346 O   0  0  0  0  0  0  0  0  0  0  0  0
    6.9127   -4.1816   -0.0262 O   0  0  0  0  0  0  0  0  0  0  0  0
   -7.1787   -3.1284    0.7379 O   0  0  0  0  0  0  0  0  0  0  0  0
   -6.9558   -3.6615   -1.3718 O   0  0  0  0  0  0  0  0  0  0  0  0
    1.5253   -0.8424   -0.1898 N   0  0  0  0  0  2  0  0  0  0  0  0
    0.1295    1.0874   -0.3209 N   0  0  0  0  0  0  0  0  0  0  0  0
   -1.4147   -0.7298   -0.4155 N   0  0  0  0  0  2  0  0  0  0  0  0
    6.4108   -3.5368    0.8952 N   0  0  0  0  0  0  0  0  0  0  0  0
   -6.5605   -3.1434   -0.3268 N   0  0  0  0  0  0  0  0  0  0  0  0
    1.3021    0.4663   -0.2111 C   0  0  1  0  0  3  0  0  0  0  0  0
   -1.0894    0.5540   -0.3940 C   0  0  0  0  0  0  0  0  0  0  0  0
    2.7802   -1.4474    0.0738 C   0  0  0  0  0  0  0  0  0  0  0  0
    3.4081   -2.2068   -0.9388 C   0  0  0  0  0  0  0  0  0  0  0  0
    2.9517   -2.2422   -1.9387 H   0  0  0  0  0  0  0  0  0  0  0  0
    4.6004   -2.8828   -0.6769 C   0  0  0  0  0  0  0  0  0  0  0  0
    5.1202   -3.4703   -1.4453 H   0  0  0  0  0  0  0  0  0  0  0  0
    5.1534   -2.8100    0.6099 C   0  0  0  0  0  0  0  0  0  0  0  0
    4.5453   -2.0705    1.6325 C   0  0  0  0  0  0  0  0  0  0  0  0
    5.0187   -2.0443    2.6230 H   0  0  0  0  0  0  0  0  0  0  0  0
    3.3560   -1.3880    1.3624 C   0  0  0  0  0  0  0  0  0  0  0  0
    2.8617   -0.7980    2.1464 H   0  0  0  0  0  0  0  0  0  0  0  0
    2.4729    1.4677   -0.0569 C   0  0  0  0  0  0  0  0  0  0  0  0
    2.2266    2.8657   -0.7182 C   0  0  0  0  0  0  0  0  0  0  0  0
    3.5282    3.7294   -0.8551 C   0  0  0  0  0  0  0  0  0  0  0  0
   -2.1488    1.6883   -0.4487 C   0  0  0  0  0  0  0  0  0  0  0  0
   -2.2973    2.3758    0.9566 C   0  0  0  0  0  0  0  0  0  0  0  0
   -3.6839    3.0468    1.2068 C   0  0  0  0  0  0  0  0  0  0  0  0
   -2.7317   -1.2590   -0.3998 C   0  0  0  0  0  0  0  0  0  0  0  0
   -3.4891   -1.2770    0.7924 C   0  0  0  0  0  0  0  0  0  0  0  0
   -3.0870   -0.7954    1.6936 H   0  0  0  0  0  0  0  0  0  0  0  0
   -4.7440   -1.8910    0.8164 C   0  0  0  0  0  0  0  0  0  0  0  0
   -5.3602   -1.9180    1.7249 H   0  0  0  0  0  0  0  0  0  0  0  0
   -5.2339   -2.4879   -0.3526 C   0  0  0  0  0  0  0  0  0  0  0  0
   -4.4985   -2.4833   -1.5464 C   0  0  0  0  0  0  0  0  0  0  0  0
   -4.9293   -2.9593   -2.4372 H   0  0  0  0  0  0  0  0  0  0  0  0
   -3.2429   -1.8732   -1.5643 C   0  0  0  0  0  0  0  0  0  0  0  0
   -2.6430   -1.8529   -2.4857 H   0  0  0  0  0  0  0  0  0  0  0  0
  1 36  1  0  0  0  0
  3 37  1  0  0  0  0
  5 38  1  0  0  0  0
  7 38  1  0  0  0  0
  8 39  1  0  0  0  0
  9 39  1  0  0  0  0
 14 41  1  0  0  0  0
 16 22  2  0  0  0  0
 18 23  2  0  0  0  0
 19 26  1  0  0  0  0
 21 42  1  0  0  0  0
 21 25  1  0  0  0  0
 22 15  2  0  0  0  0
 23 17  2  0  0  0  0
 24 20  1  1  0  0  0
 24 19  1  0  0  0  0
 24 36  1  0  0  0  0
 25 20  2  0  0  0  0
 26 34  1  0  0  0  0
 27 29  1  0  0  0  0
 27 26  2  0  0  0  0
 28 27  1  0  0  0  0
 29 31  2  0  0  0  0
 30 29  1  0  0  0  0
 31 22  1  0  0  0  0
 31 32  1  0  0  0  0
 32 33  1  0  0  0  0
 34 32  2  0  0  0  0
 34 35  1  0  0  0  0
 36  2  1  0  0  0  0
 37 36  1  0  0  0  0
 37  4  1  0  0  0  0
 38 37  1  0  0  0  0
 38  6  1  0  0  0  0
 39 25  1  0  0  0  0
 39 40  1  0  0  0  0
 40 11  1  0  0  0  0
 40 41  1  0  0  0  0
 40 10  1  0  0  0  0
 41 13  1  0  0  0  0
 41 12  1  0  0  0  0
 42 43  1  0  0  0  0
 43 45  2  0  0  0  0
 43 44  1  0  0  0  0
 45 46  1  0  0  0  0
 47 23  1  0  0  0  0
 47 45  1  0  0  0  0
 48 47  2  0  0  0  0
 49 48  1  0  0  0  0
 50 48  1  0  0  0  0
 50 42  2  0  0  0  0
 51 50  1  0  0  0  0
M  END
