1,28
q = -1.0

 53 54  0  0  1  0  0  0  0  0999 V2000
   -1.4679   -0.7009   -0.3419 N   0  0  0  0  0  2  0  0  0  0  0  0
    0.0001    0.9264    0.6003 N   0  0  0  0  0  0  0  0  0  0  0  0
   -1.1973    0.4194    0.3073 C   0  0  1  0  0  3  0  0  0  0  0  0
   -2.3094    1.3800    0.8067 C   0  0  0  0  0  0  0  0  0  0  0  0
   -2.4052    2.6371   -0.1292 C   0  0  0  0  0  0  0  0  0  0  0  0
   -3.7834    3.3686   -0.0935 C   0  0  0  0  0  0  0  0  0  0  0  0
   -2.7620   -1.1910   -0.6546 C   0  0  0  0  0  0  0  0  0  0  0  0
   -3.3532   -2.2066    0.1378 C   0  0  0  0  0  0  0  0  0  0  0  0
   -4.5893   -2.7555   -0.2387 C   0  0  0  0  0  0  0  0  0  0  0  0
   -5.0375   -3.5348    0.3930 H   0  0  0  0  0  0  0  0  0  0  0  0
   -5.2454   -2.3123   -1.3950 C   0  0  0  0  0  0  0  0  0  0  0  0
   -6.2135   -2.7493   -1.6792 H   0  0  0  0  0  0  0  0  0  0  0  0
   -4.6595   -1.3076   -2.1799 C   0  0  0  0  0  0  0  0  0  0  0  0
   -5.1680   -0.9470   -3.0868 H   0  0  0  0  0  0  0  0  0  0  0  0
   -3.4265   -0.7521   -1.8156 C   0  0  0  0  0  0  0  0  0  0  0  0
   -2.9609    0.0386   -2.4195 H   0  0  0  0  0  0  0  0  0  0  0  0
   -2.6564   -2.6902    1.3873 C   0  0  0  0  0  0  0  0  0  0  0  0
   -2.0345    1.8012    2.0595 F   0  0  0  0  0  0  0  0  0  0  0  0
   -3.5346    0.7790    0.8324 F   0  0  0  0  0  0  0  0  0  0  0  0
   -2.1963    2.2387   -1.4213 F   0  0  0  0  0  0  0  0  0  0  0  0
   -1.4504    3.5245    0.2082 F   0  0  0  0  0  0  0  0  0  0  0  0
   -4.1608    3.5935    1.1753 F   0  0  0  0  0  0  0  0  0  0  0  0
   -3.6736    4.5490   -0.7266 F   0  0  0  0  0  0  0  0  0  0  0  0
   -4.7245    2.6389   -0.7131 F   0  0  0  0  0  0  0  0  0  0  0  0
   -2.3630   -1.6751    2.2356 F   0  0  0  0  0  0  0  0  0  0  0  0
   -1.4715   -3.3099    1.0958 F   0  0  0  0  0  0  0  0  0  0  0  0
   -3.4020   -3.5851    2.0706 F   0  0  0  0  0  0  0  0  0  0  0  0
    1.4680   -0.7009   -0.3419 N   0  0  0  0  0  2  0  0  0  0  0  0
    1.1974    0.4194    0.3073 C   0  0  0  0  0  0  0  0  0  0  0  0
    2.3095    1.3801    0.8065 C   0  0  0  0  0  0  0  0  0  0  0  0
    2.4050    2.6373   -0.1292 C   0  0  0  0  0  0  0  0  0  0  0  0
    3.7831    3.3690   -0.0937 C   0  0  0  0  0  0  0  0  0  0  0  0
    2.7621   -1.1911   -0.6546 C   0  0  0  0  0  0  0  0  0  0  0  0
    3.3533   -2.2065    0.1379 C   0  0  0  0  0  0  0  0  0  0  0  0
    4.5894   -2.7555   -0.2385 C   0  0  0  0  0  0  0  0  0  0  0  0
    5.0376   -3.5347    0.3933 H   0  0  0  0  0  0  0  0  0  0  0  0
    5.2455   -2.3124   -1.3949 C   0  0  0  0  0  0  0  0  0  0  0  0
    6.2136   -2.7495   -1.6791 H   0  0  0  0  0  0  0  0  0  0  0  0
    4.6595   -1.3078   -2.1799 C   0  0  0  0  0  0  0  0  0  0  0  0
    5.1681   -0.9473   -3.0868 H   0  0  0  0  0  0  0  0  0  0  0  0
    3.4266   -0.7522   -1.8157 C   0  0  0  0  0  0  0  0  0  0  0  0
    2.9610    0.0383   -2.4197 H   0  0  0  0  0  0  0  0  0  0  0  0
    2.6566   -2.6899    1.3875 C   0  0  0  0  0  0  0  0  0  0  0  0
    2.0349    1.8011    2.0594 F   0  0  0  0  0  0  0  0  0  0  0  0
    3.5348    0.7792    0.8319 F   0  0  0  0  0  0  0  0  0  0  0  0
    2.1958    2.2390   -1.4214 F   0  0  0  0  0  0  0  0  0  0  0  0
    1.4502    3.5245    0.2085 F   0  0  0  0  0  0  0  0  0  0  0  0
    4.1607    3.5937    1.1750 F   0  0  0  0  0  0  0  0  0  0  0  0
    3.6730    4.5495   -0.7266 F   0  0  0  0  0  0  0  0  0  0  0  0
    4.7242    2.6394   -0.7136 F   0  0  0  0  0  0  0  0  0  0  0  0
    2.3632   -1.6748    2.2357 F   0  0  0  0  0  0  0  0  0  0  0  0
    1.4716   -3.3097    1.0962 F   0  0  0  0  0  0  0  0  0  0  0  0
    3.4022   -3.5848    2.0710 F   0  0  0  0  0  0  0  0  0  0  0  0
  3  1  1  6  0  0  0
  3  2  1  0  0  0  0
  3  4  1  0  0  0  0
  4 19  1  0  0  0  0
  4 18  1  0  0  0  0
  5  6  1  0  0  0  0
  5 21  1  0  0  0  0
  5  4  1  0  0  0  0
  6 22  1  0  0  0  0
  7  1  1  0  0  0  0
  7  8  1  0  0  0  0
  8 17  1  0  0  0  0
  9  8  2  0  0  0  0
  9 10  1  0  0  0  0
 11  9  1  0  0  0  0
 12 11  1  0  0  0  0
 13 15  1  0  0  0  0
 13 11  2  0  0  0  0
 14 13  1  0  0  0  0
 15  7  2  0  0  0  0
 16 15  1  0  0  0  0
 17 27  1  0  0  0  0
 17 25  1  0  0  0  0
 20  5  1  0  0  0  0
 23  6  1  0  0  0  0
 24  6  1  0  0  0  0
 26 17  1  0  0  0  0
 28 29  1  0  0  0  0
 29  2  2  0  0  0  0
 29 30  1  0  0  0  0
 30 45  1  0  0  0  0
 30 44  1  0  0  0  0
 31 32  1  0  0  0  0
 31 47  1  0  0  0  0
 31 30  1  0  0  0  0
 32 48  1  0  0  0  0
 33 28  1  0  0  0  0
 33 34  1  0  0  0  0
 34 43  1  0  0  0  0
 35 34  2  0  0  0  0
 35 36  1  0  0  0  0
 37 35  1  0  0  0  0
 38 37  1  0  0  0  0
 39 41  1  0  0  0  0
 39 37  2  0  0  0  0
 40 39  1  0  0  0  0
 41 33  2  0  0  0  0
 42 41  1  0  0  0  0
 43 53  1  0  0  0  0
 43 51  1  0  0  0  0
 46 31  1  0  0  0  0
 49 32  1  0  0  0  0
 50 32  1  0  0  0  0
 52 43  1  0  0  0  0
M  END
