19,21
q = -1.0

 51 52  0  0  1  0  0  0  0  0999 V2000
   -3.4490    0.9440    0.2561 F   0  0  0  0  0  0  0  0  0  0  0  0
   -2.8730    1.4603   -1.8123 F   0  0  0  0  0  0  0  0  0  0  0  0
   -1.2953    2.6698    1.1169 F   0  0  0  0  0  0  0  0  0  0  0  0
   -1.2477    3.3908   -0.9809 F   0  0  0  0  0  0  0  0  0  0  0  0
   -3.8472    3.3440    1.3809 F   0  0  0  0  0  0  0  0  0  0  0  0
   -4.0912    3.6959   -0.7637 F   0  0  0  0  0  0  0  0  0  0  0  0
   -2.7682    4.9716    0.4148 F   0  0  0  0  0  0  0  0  0  0  0  0
    3.4537    0.5613   -0.9209 F   0  0  0  0  0  0  0  0  0  0  0  0
    1.9917    1.7581   -2.0345 F   0  0  0  0  0  0  0  0  0  0  0  0
    2.1745    1.9050    1.4655 F   0  0  0  0  0  0  0  0  0  0  0  0
    1.5312    3.3594   -0.0631 F   0  0  0  0  0  0  0  0  0  0  0  0
    4.2464    3.3345   -1.0029 F   0  0  0  0  0  0  0  0  0  0  0  0
    4.7316    2.1914    0.8014 F   0  0  0  0  0  0  0  0  0  0  0  0
    3.8061    4.1583    0.9707 F   0  0  0  0  0  0  0  0  0  0  0  0
   -3.5835   -2.4521    2.9227 O   0  0  0  0  0  0  0  0  0  0  0  0
   -1.6818   -1.8093    2.0745 O   0  0  0  0  0  0  0  0  0  0  0  0
    1.4714   -2.6738   -1.8987 O   0  0  0  0  0  0  0  0  0  0  0  0
    3.3959   -3.5555   -2.4188 O   0  0  0  0  0  0  0  0  0  0  0  0
   -1.5596   -0.9868   -0.4351 N   0  0  0  0  0  2  0  0  0  0  0  0
   -0.0636    0.8502   -0.6011 N   0  0  0  0  0  0  0  0  0  0  0  0
    1.3400   -0.9376    0.0947 N   0  0  0  0  0  2  0  0  0  0  0  0
   -2.8816   -2.1175    1.9698 N   0  0  0  0  0  0  0  0  0  0  0  0
    2.6663   -2.9194   -1.6602 N   0  0  0  0  0  0  0  0  0  0  0  0
   -1.2720    0.3023   -0.4973 C   0  0  1  0  0  3  0  0  0  0  0  0
    1.1154    0.2599   -0.4128 C   0  0  0  0  0  0  0  0  0  0  0  0
   -2.4072    1.3505   -0.5326 C   0  0  0  0  0  0  0  0  0  0  0  0
   -1.9959    2.7783   -0.0409 C   0  0  0  0  0  0  0  0  0  0  0  0
   -3.2163    3.7151    0.2575 C   0  0  0  0  0  0  0  0  0  0  0  0
    2.2595    1.2194   -0.8237 C   0  0  0  0  0  0  0  0  0  0  0  0
    2.4223    2.3886    0.2124 C   0  0  0  0  0  0  0  0  0  0  0  0
    3.8448    3.0307    0.2423 C   0  0  0  0  0  0  0  0  0  0  0  0
   -2.8487   -1.5339   -0.4959 C   0  0  0  0  0  0  0  0  0  0  0  0
   -3.4934   -2.1194    0.6307 C   0  0  0  0  0  0  0  0  0  0  0  0
   -4.7600   -2.7181    0.5157 C   0  0  0  0  0  0  0  0  0  0  0  0
   -5.2106   -3.1349    1.4259 H   0  0  0  0  0  0  0  0  0  0  0  0
   -5.4062   -2.7645   -0.7201 C   0  0  0  0  0  0  0  0  0  0  0  0
   -6.3937   -3.2397   -0.8068 H   0  0  0  0  0  0  0  0  0  0  0  0
   -4.7836   -2.1949   -1.8463 C   0  0  0  0  0  0  0  0  0  0  0  0
   -5.2841   -2.2205   -2.8260 H   0  0  0  0  0  0  0  0  0  0  0  0
   -3.5291   -1.5908   -1.7342 C   0  0  0  0  0  0  0  0  0  0  0  0
   -3.0376   -1.1432   -2.6089 H   0  0  0  0  0  0  0  0  0  0  0  0
    2.5893   -1.4829    0.4240 C   0  0  0  0  0  0  0  0  0  0  0  0
    3.2170   -1.1237    1.6387 C   0  0  0  0  0  0  0  0  0  0  0  0
    2.7229   -0.3711    2.2671 H   0  0  0  0  0  0  0  0  0  0  0  0
    4.4302   -1.6988    2.0241 C   0  0  0  0  0  0  0  0  0  0  0  0
    4.8933   -1.3930    2.9742 H   0  0  0  0  0  0  0  0  0  0  0  0
    5.0607   -2.6565    1.2077 C   0  0  0  0  0  0  0  0  0  0  0  0
    6.0158   -3.1088    1.5106 H   0  0  0  0  0  0  0  0  0  0  0  0
    4.4632   -3.0284    0.0031 C   0  0  0  0  0  0  0  0  0  0  0  0
    4.9212   -3.7613   -0.6741 H   0  0  0  0  0  0  0  0  0  0  0  0
    3.2368   -2.4599   -0.3835 C   0  0  0  0  0  0  0  0  0  0  0  0
  2 26  1  0  0  0  0
  4 27  1  0  0  0  0
  6 28  1  0  0  0  0
  8 29  1  0  0  0  0
  9 29  1  0  0  0  0
 11 30  1  0  0  0  0
 12 31  1  0  0  0  0
 17 23  2  0  0  0  0
 18 23  2  0  0  0  0
 20 25  2  0  0  0  0
 21 42  1  0  0  0  0
 22 16  2  0  0  0  0
 22 15  2  0  0  0  0
 23 51  1  0  0  0  0
 24 20  1  6  0  0  0
 24 19  1  0  0  0  0
 25 21  1  0  0  0  0
 26 24  1  0  0  0  0
 26 27  1  0  0  0  0
 26  1  1  0  0  0  0
 27 28  1  0  0  0  0
 27  3  1  0  0  0  0
 28  7  1  0  0  0  0
 28  5  1  0  0  0  0
 29 25  1  0  0  0  0
 29 30  1  0  0  0  0
 30 31  1  0  0  0  0
 30 10  1  0  0  0  0
 31 13  1  0  0  0  0
 31 14  1  0  0  0  0
 32 19  1  0  0  0  0
 32 33  1  0  0  0  0
 33 22  1  0  0  0  0
 34 33  2  0  0  0  0
 34 35  1  0  0  0  0
 36 34  1  0  0  0  0
 37 36  1  0  0  0  0
 38 40  1  0  0  0  0
 38 36  2  0  0  0  0
 39 38  1  0  0  0  0
 40 32  2  0  0  0  0
 41 40  1  0  0  0  0
 42 43  1  0  0  0  0
 43 45  2  0  0  0  0
 43 44  1  0  0  0  0
 45 46  1  0  0  0  0
 47 48  1  0  0  0  0
 47 45  1  0  0  0  0
 49 47  2  0  0  0  0
 50 49  1  0  0  0  0
 51 49  1  0  0  0  0
 51 42  2  0  0  0  0
M  END
