2,4
q = -1.0

 24 24  0  0  1  0  0  0  0  0999 V2000
   -0.8305   -4.2280   -1.2699 S   0  0  0  0  0  0  0  0  0  0  0  0
    0.9294   -1.3860    0.8344 N   0  0  0  0  0  2  0  0  0  0  0  0
    0.6121   -2.6443    0.4022 N   0  0  0  0  0  0  0  0  0  0  0  0
   -0.6089   -1.5265   -1.1770 N   0  0  0  0  0  2  0  0  0  0  0  0
    1.8579   -1.5142    1.8028 C   0  0  2  0  0  3  0  0  0  0  0  0
    2.5189   -0.3817    2.5181 C   0  0  0  0  0  0  0  0  0  0  0  0
    1.7980    0.3862    2.8543 H   0  0  0  0  0  0  0  0  0  0  0  0
    3.2646    0.1171    1.8655 H   0  0  0  0  0  0  0  0  0  0  0  0
    3.0559   -0.7704    3.4029 H   0  0  0  0  0  0  0  0  0  0  0  0
    2.1150   -2.8916    1.9986 C   0  0  0  0  0  0  0  0  0  0  0  0
    2.8170   -3.3276    2.7166 H   0  0  0  0  0  0  0  0  0  0  0  0
    1.3198   -3.5999    1.0992 C   0  0  0  0  0  0  0  0  0  0  0  0
    1.2549   -5.0765    0.9141 C   0  0  0  0  0  0  0  0  0  0  0  0
    1.5148   -5.3677   -0.1220 H   0  0  0  0  0  0  0  0  0  0  0  0
    0.2332   -5.4678    1.0833 H   0  0  0  0  0  0  0  0  0  0  0  0
    1.9600   -5.5500    1.6245 H   0  0  0  0  0  0  0  0  0  0  0  0
   -0.3012   -2.7338   -0.7052 C   0  0  0  0  0  0  0  0  0  0  0  0
   -1.4902   -1.4417   -2.3406 C   0  0  0  0  0  0  0  0  0  0  0  0
   -1.1939   -2.2552   -3.0384 H   0  0  0  0  0  0  0  0  0  0  0  0
   -1.2978   -0.4732   -2.8384 H   0  0  0  0  0  0  0  0  0  0  0  0
   -2.9799   -1.5864   -2.0223 C   0  0  0  0  0  0  0  0  0  0  0  0
   -3.5630   -1.5736   -2.9650 H   0  0  0  0  0  0  0  0  0  0  0  0
   -3.3524   -0.7619   -1.3870 H   0  0  0  0  0  0  0  0  0  0  0  0
   -3.1703   -2.5514   -1.5139 H   0  0  0  0  0  0  0  0  0  0  0  0
  1 17  2  0  0  0  0
  2  5  1  0  0  0  0
  3  2  1  0  0  0  0
  3 12  1  0  0  0  0
  4 17  1  0  0  0  0
  5 10  1  0  0  0  0
  5  6  1  6  0  0  0
  6  7  1  0  0  0  0
  6  9  1  0  0  0  0
  8  6  1  0  0  0  0
 10 11  1  0  0  0  0
 12 10  2  0  0  0  0
 13 15  1  0  0  0  0
 13 12  1  0  0  0  0
 13 16  1  0  0  0  0
 14 13  1  0  0  0  0
 17  3  1  0  0  0  0
 18 21  1  0  0  0  0
 18  4  1  0  0  0  0
 19 18  1  0  0  0  0
 20 18  1  0  0  0  0
 21 24  1  0  0  0  0
 21 23  1  0  0  0  0
 22 21  1  0  0  0  0
M  END
