1,2
q = 0.0, confidence = 0.998

 38 41  0  0  0  0  0  0  0  0999 V2000
    0.5210    1.3848   -0.0543 N   0  0  0  0  0  2  0  0  0  0  0  0
    0.2727   -1.2102   -0.2688 N   0  0  0  0  0  2  0  0  0  0  0  0
   -3.3142   -0.6646   -1.0167 N   0  0  0  0  0  0  0  0  0  0  0  0
   -3.1205    1.6809   -0.7066 N   0  0  0  0  0  0  0  0  0  0  0  0
   -0.7547    0.9599   -0.3275 C   0  0  0  0  0  0  0  0  0  0  0  0
   -1.7899    1.9469   -0.4732 C   0  0  0  0  0  0  0  0  0  0  0  0
   -1.4232    3.3146   -0.4021 C   0  0  0  0  0  0  0  0  0  0  0  0
   -2.2119    4.0738   -0.5244 H   0  0  0  0  0  0  0  0  0  0  0  0
   -0.1075    3.6931   -0.1770 C   0  0  0  0  0  0  0  0  0  0  0  0
    0.1861    4.7505   -0.1284 H   0  0  0  0  0  0  0  0  0  0  0  0
    0.8439    2.6880    0.0139 C   0  0  0  0  0  0  0  0  0  0  0  0
    1.8955    2.9227    0.2208 H   0  0  0  0  0  0  0  0  0  0  0  0
   -0.8899   -0.5100   -0.4653 C   0  0  0  0  0  0  0  0  0  0  0  0
   -2.0777   -1.2377   -0.8119 C   0  0  0  0  0  0  0  0  0  0  0  0
   -1.9798   -2.6382   -0.9942 C   0  0  0  0  0  0  0  0  0  0  0  0
   -2.8902   -3.1952   -1.2668 H   0  0  0  0  0  0  0  0  0  0  0  0
   -0.7682   -3.2963   -0.8277 C   0  0  0  0  0  0  0  0  0  0  0  0
   -0.6776   -4.3813   -0.9735 H   0  0  0  0  0  0  0  0  0  0  0  0
    0.3425   -2.5426   -0.4425 C   0  0  0  0  0  0  0  0  0  0  0  0
    1.3225   -3.0070   -0.2758 H   0  0  0  0  0  0  0  0  0  0  0  0
   -3.8197    0.4814   -0.2706 C   0  0  0  0  0  0  0  0  0  0  0  0
   -3.6801    0.2710    1.2636 C   0  0  0  0  0  0  0  0  0  0  0  0
   -2.6140    0.1169    1.5251 H   0  0  0  0  0  0  0  0  0  0  0  0
   -3.9905    1.2157    1.7599 H   0  0  0  0  0  0  0  0  0  0  0  0
   -4.5380   -0.8939    1.7671 C   0  0  0  0  0  0  0  0  0  0  0  0
   -4.4225   -0.9944    2.8655 H   0  0  0  0  0  0  0  0  0  0  0  0
   -4.1591   -1.8454    1.3326 H   0  0  0  0  0  0  0  0  0  0  0  0
   -6.0138   -0.7026    1.3959 C   0  0  0  0  0  0  0  0  0  0  0  0
   -6.6190   -1.5682    1.7350 H   0  0  0  0  0  0  0  0  0  0  0  0
   -6.4113    0.1868    1.9342 H   0  0  0  0  0  0  0  0  0  0  0  0
   -6.1897   -0.4901   -0.1127 C   0  0  0  0  0  0  0  0  0  0  0  0
   -5.9501   -1.4362   -0.6511 H   0  0  0  0  0  0  0  0  0  0  0  0
   -7.2495   -0.2777   -0.3619 H   0  0  0  0  0  0  0  0  0  0  0  0
   -5.3103    0.6538   -0.6318 C   0  0  0  0  0  0  0  0  0  0  0  0
   -5.6515    1.6065   -0.1721 H   0  0  0  0  0  0  0  0  0  0  0  0
   -5.3955    0.7702   -1.7324 H   0  0  0  0  0  0  0  0  0  0  0  0
   -4.0335   -1.3365   -1.2846 H   0  0  0  0  0  0  0  0  0  0  0  0
   -3.7066    2.5160   -0.7364 H   0  0  0  0  0  0  0  0  0  0  0  0
  1 11  1  0  0  0  0
  3 14  1  0  0  0  0
  3 21  1  0  0  0  0
  4  6  1  0  0  0  0
  4 21  1  0  0  0  0
  5  1  1  0  0  0  0
  6  7  2  0  0  0  0
  6  5  1  0  0  0  0
  7  9  1  0  0  0  0
  8  7  1  0  0  0  0
  9 10  1  0  0  0  0
  9 11  2  0  0  0  0
 11 12  1  0  0  0  0
 13  5  2  0  0  0  0
 13  2  1  0  0  0  0
 14 13  1  0  0  0  0
 15 17  1  0  0  0  0
 15 14  2  0  0  0  0
 16 15  1  0  0  0  0
 17 19  2  0  0  0  0
 18 17  1  0  0  0  0
 19 20  1  0  0  0  0
 19  2  1  0  0  0  0
 21 22  1  0  0  0  0
 22 23  1  0  0  0  0
 22 24  1  0  0  0  0
 22 25  1  0  0  0  0
 25 26  1  0  0  0  0
 27 25  1  0  0  0  0
 28 29  1  0  0  0  0
 28 25  1  0  0  0  0
 28 30  1  0  0  0  0
 31 28  1  0  0  0  0
 32 31  1  0  0  0  0
 33 31  1  0  0  0  0
 34 21  1  0  0  0  0
 34 35  1  0  0  0  0
 34 31  1  0  0  0  0
 36 34  1  0  0  0  0
 37  3  1  0  0  0  0
 38  4  1  0  0  0  0
M  END
