2,3
q = 0.0, confidence = 1.0

 28 29  0  0  0  0  0  0  0  0999 V2000
    1.7770   -1.0582   -0.7467 O   0  0  0  0  0  0  0  0  0  0  0  0
   -2.2129    0.2497    0.0332 N   0  0  0  0  0  2  0  0  0  0  0  0
    0.3102    1.0585   -0.2816 N   0  0  0  0  0  2  0  0  0  0  0  0
   -2.0006    1.5749   -0.1534 C   0  0  0  0  0  0  0  0  0  0  0  0
   -3.0758    2.4791   -0.2589 C   0  0  0  0  0  0  0  0  0  0  0  0
   -2.8807    3.5521   -0.4044 H   0  0  0  0  0  0  0  0  0  0  0  0
   -4.3828    1.9791   -0.1895 C   0  0  0  0  0  0  0  0  0  0  0  0
   -5.2421    2.6616   -0.2704 H   0  0  0  0  0  0  0  0  0  0  0  0
   -4.5827    0.5989   -0.0291 C   0  0  0  0  0  0  0  0  0  0  0  0
   -5.5935    0.1693    0.0157 H   0  0  0  0  0  0  0  0  0  0  0  0
   -3.4578   -0.2362    0.0742 C   0  0  0  0  0  0  0  0  0  0  0  0
   -3.5333   -1.3323    0.1740 H   0  0  0  0  0  0  0  0  0  0  0  0
   -0.5966    1.9840   -0.2595 C   0  0  0  0  0  0  0  0  0  0  0  0
   -0.3712    3.0677   -0.3218 H   0  0  0  0  0  0  0  0  0  0  0  0
    1.6852    1.2484   -0.2899 C   0  0  0  0  0  0  0  0  0  0  0  0
    2.3415    2.4792   -0.0670 C   0  0  0  0  0  0  0  0  0  0  0  0
    1.7454    3.3885    0.0988 H   0  0  0  0  0  0  0  0  0  0  0  0
    3.7348    2.5435   -0.0086 C   0  0  0  0  0  0  0  0  0  0  0  0
    4.2352    3.5048    0.1768 H   0  0  0  0  0  0  0  0  0  0  0  0
    4.4937    1.3668   -0.1595 C   0  0  0  0  0  0  0  0  0  0  0  0
    5.5914    1.4116   -0.0967 H   0  0  0  0  0  0  0  0  0  0  0  0
    3.8723    0.1317   -0.3812 C   0  0  0  0  0  0  0  0  0  0  0  0
    4.4754   -0.7788   -0.4907 H   0  0  0  0  0  0  0  0  0  0  0  0
    2.4700    0.0635   -0.4716 C   0  0  0  0  0  0  0  0  0  0  0  0
    2.3761   -2.3466   -0.5594 C   0  0  0  0  0  0  0  0  0  0  0  0
    3.2118   -2.5008   -1.2727 H   0  0  0  0  0  0  0  0  0  0  0  0
    1.5578   -3.0624   -0.7637 H   0  0  0  0  0  0  0  0  0  0  0  0
    2.7159   -2.4496    0.4911 H   0  0  0  0  0  0  0  0  0  0  0  0
  1 25  1  0  0  0  0
  1 24  1  0  0  0  0
  2 11  1  0  0  0  0
  3 13  1  0  0  0  0
  4  2  1  0  0  0  0
  5  7  2  0  0  0  0
  5  4  1  0  0  0  0
  6  5  1  0  0  0  0
  7  9  1  0  0  0  0
  8  7  1  0  0  0  0
  9 10  1  0  0  0  0
  9 11  2  0  0  0  0
 11 12  1  0  0  0  0
 13  4  2  0  0  0  0
 14 13  1  0  0  0  0
 15  3  1  0  0  0  0
 15 16  1  0  0  0  0
 16 18  2  0  0  0  0
 16 17  1  0  0  0  0
 18 19  1  0  0  0  0
 20 21  1  0  0  0  0
 20 18  1  0  0  0  0
 22 20  2  0  0  0  0
 23 22  1  0  0  0  0
 24 22  1  0  0  0  0
 24 15  2  0  0  0  0
 25 28  1  0  0  0  0
 26 25  1  0  0  0  0
 27 25  1  0  0  0  0
M  END
