2,21
q = -1.0

 37 36  0  0  0  0  0  0  0  0999 V2000
    0.6192    2.2401    1.6732 O   0  0  0  0  0  0  0  0  0  0  0  0
    1.0552    1.3628    0.7459 N   0  0  0  0  0  2  0  0  0  0  0  0
    3.3472    2.0855    0.9394 N   0  0  0  0  0  0  0  0  0  0  0  0
    2.3354    1.3134    0.4278 C   0  0  0  0  0  0  0  0  0  0  0  0
    3.2408    3.4575    1.4279 C   0  0  0  0  0  0  0  0  0  0  0  0
    3.2216    4.5242    0.3225 C   0  0  0  0  0  0  0  0  0  0  0  0
    2.0287    4.4134   -0.6336 C   0  0  0  0  0  0  0  0  0  0  0  0
    1.9374    5.5771   -1.6204 C   0  0  0  0  0  0  0  0  0  0  0  0
    2.3150    3.5256    2.0285 H   0  0  0  0  0  0  0  0  0  0  0  0
    4.0991    3.6314    2.1092 H   0  0  0  0  0  0  0  0  0  0  0  0
    4.1749    4.4867   -0.2543 H   0  0  0  0  0  0  0  0  0  0  0  0
    3.2082    5.5206    0.8197 H   0  0  0  0  0  0  0  0  0  0  0  0
    2.0953    3.4579   -1.1977 H   0  0  0  0  0  0  0  0  0  0  0  0
    1.0952    4.3354   -0.0352 H   0  0  0  0  0  0  0  0  0  0  0  0
    1.0737    5.4635   -2.3060 H   0  0  0  0  0  0  0  0  0  0  0  0
    2.8519    5.6523   -2.2460 H   0  0  0  0  0  0  0  0  0  0  0  0
    1.8203    6.5472   -1.0929 H   0  0  0  0  0  0  0  0  0  0  0  0
    4.2817    1.7616    0.6874 H   0  0  0  0  0  0  0  0  0  0  0  0
   -0.4552    1.9889    1.7588 H   0  0  0  0  0  0  0  0  0  0  0  0
    1.7019   -1.4848   -1.7195 O   0  0  0  0  0  1  0  0  0  0  0  0
    1.6097   -0.5191   -0.8383 N   0  0  0  0  0  2  0  0  0  0  0  0
    3.8896    0.1471   -1.1531 N   0  0  0  0  0  0  0  0  0  0  0  0
    2.6448    0.2639   -0.5638 C   0  0  0  0  0  0  0  0  0  0  0  0
    4.5823   -1.1326   -1.2621 C   0  0  0  0  0  0  0  0  0  0  0  0
    5.1292   -1.6641    0.0691 C   0  0  0  0  0  0  0  0  0  0  0  0
    5.8098   -3.0289   -0.0632 C   0  0  0  0  0  0  0  0  0  0  0  0
    6.3410   -3.5753    1.2624 C   0  0  0  0  0  0  0  0  0  0  0  0
    5.4038   -1.0132   -1.9997 H   0  0  0  0  0  0  0  0  0  0  0  0
    3.8576   -1.8572   -1.6874 H   0  0  0  0  0  0  0  0  0  0  0  0
    5.8457   -0.9269    0.5006 H   0  0  0  0  0  0  0  0  0  0  0  0
    4.2861   -1.7359    0.7922 H   0  0  0  0  0  0  0  0  0  0  0  0
    6.6424   -2.9540   -0.7984 H   0  0  0  0  0  0  0  0  0  0  0  0
    5.0862   -3.7497   -0.5041 H   0  0  0  0  0  0  0  0  0  0  0  0
    6.8242   -4.5649    1.1348 H   0  0  0  0  0  0  0  0  0  0  0  0
    7.0927   -2.8912    1.7092 H   0  0  0  0  0  0  0  0  0  0  0  0
    5.5237   -3.6947    2.0039 H   0  0  0  0  0  0  0  0  0  0  0  0
    4.4700    0.9858   -1.1231 H   0  0  0  0  0  0  0  0  0  0  0  0
  1 19  1  0  0  0  0
  2  1  1  0  0  0  0
  3  5  1  0  0  0  0
  4  2  1  0  0  0  0
  4  3  1  0  0  0  0
  5  9  1  0  0  0  0
  5 10  1  0  0  0  0
  6 12  1  0  0  0  0
  6  5  1  0  0  0  0
  7 14  1  0  0  0  0
  7  6  1  0  0  0  0
  8 17  1  0  0  0  0
  8  7  1  0  0  0  0
 11  6  1  0  0  0  0
 13  7  1  0  0  0  0
 15  8  1  0  0  0  0
 16  8  1  0  0  0  0
 18  3  1  0  0  0  0
 20 21  1  0  0  0  0
 21 23  1  0  0  0  0
 22 37  1  0  0  0  0
 22 23  1  0  0  0  0
 23  4  2  0  0  0  0
 24 22  1  0  0  0  0
 24 25  1  0  0  0  0
 25 30  1  0  0  0  0
 25 31  1  0  0  0  0
 26 25  1  0  0  0  0
 26 27  1  0  0  0  0
 27 35  1  0  0  0  0
 27 36  1  0  0  0  0
 28 24  1  0  0  0  0
 29 24  1  0  0  0  0
 32 26  1  0  0  0  0
 33 26  1  0  0  0  0
 34 27  1  0  0  0  0
M  END
