1,2
q = 0.0, confidence = 1.0

 37 39  0  0  0  0  0  0  0  0999 V2000
    2.6350   -0.6661   -0.1888 N   0  0  0  0  0  2  0  0  0  0  0  0
   -0.0379   -0.3786   -0.2855 N   0  0  0  0  0  2  0  0  0  0  0  0
    3.9394   -0.5507   -0.4843 C   0  0  0  0  0  3  0  0  0  0  0  0
    4.4112    0.3999   -0.1844 H   0  0  0  0  0  0  0  0  0  0  0  0
    4.6310   -1.5669   -1.1547 C   0  0  0  0  0  0  0  0  0  0  0  0
    5.6998   -1.4506   -1.3835 H   0  0  0  0  0  0  0  0  0  0  0  0
    3.9240   -2.7193   -1.5319 C   0  0  0  0  0  0  0  0  0  0  0  0
    4.4339   -3.5354   -2.0660 H   0  0  0  0  0  0  0  0  0  0  0  0
    2.5553   -2.8153   -1.2406 C   0  0  0  0  0  0  0  0  0  0  0  0
    1.9687   -3.6953   -1.5429 H   0  0  0  0  0  0  0  0  0  0  0  0
    1.9350   -1.7563   -0.5611 C   0  0  0  0  0  0  0  0  0  0  0  0
    0.4729   -1.7393   -0.1667 C   0  0  0  0  0  0  0  0  0  0  0  0
   -0.1154   -2.4769   -0.7506 H   0  0  0  0  0  0  0  0  0  0  0  0
    0.4249   -2.0352    0.9084 H   0  0  0  0  0  0  0  0  0  0  0  0
   -1.3114   -0.1287   -0.3731 C   0  0  0  0  0  3  0  0  0  0  0  0
   -2.3360   -1.1989   -0.1879 C   0  0  0  0  0  0  0  0  0  0  0  0
   -2.4133   -1.8341    1.0708 C   0  0  0  0  0  0  0  0  0  0  0  0
   -1.7277   -1.5133    1.8733 H   0  0  0  0  0  0  0  0  0  0  0  0
   -3.3746   -2.8303    1.2907 C   0  0  0  0  0  0  0  0  0  0  0  0
   -3.4433   -3.3128    2.2775 H   0  0  0  0  0  0  0  0  0  0  0  0
   -4.2484   -3.2094    0.2578 C   0  0  0  0  0  0  0  0  0  0  0  0
   -4.9970   -3.9972    0.4317 H   0  0  0  0  0  0  0  0  0  0  0  0
   -4.1733   -2.5777   -0.9942 C   0  0  0  0  0  0  0  0  0  0  0  0
   -4.8610   -2.8702   -1.8021 H   0  0  0  0  0  0  0  0  0  0  0  0
   -3.2284   -1.5646   -1.2153 C   0  0  0  0  0  0  0  0  0  0  0  0
   -3.1766   -1.0526   -2.1883 H   0  0  0  0  0  0  0  0  0  0  0  0
   -1.7639    1.2638   -0.5833 C   0  0  0  0  0  0  0  0  0  0  0  0
   -3.0893    1.6438   -0.2658 C   0  0  0  0  0  0  0  0  0  0  0  0
   -3.7895    0.8935    0.1290 H   0  0  0  0  0  0  0  0  0  0  0  0
   -3.5010    2.9731   -0.4224 C   0  0  0  0  0  0  0  0  0  0  0  0
   -4.5308    3.2600   -0.1617 H   0  0  0  0  0  0  0  0  0  0  0  0
   -2.5979    3.9393   -0.8958 C   0  0  0  0  0  0  0  0  0  0  0  0
   -2.9211    4.9852   -1.0106 H   0  0  0  0  0  0  0  0  0  0  0  0
   -1.2816    3.5695   -1.2199 C   0  0  0  0  0  0  0  0  0  0  0  0
   -0.5614    4.3187   -1.5802 H   0  0  0  0  0  0  0  0  0  0  0  0
   -0.8683    2.2417   -1.0769 C   0  0  0  0  0  0  0  0  0  0  0  0
    0.1635    1.9667   -1.3376 H   0  0  0  0  0  0  0  0  0  0  0  0
  2 12  1  0  0  0  0
  3  1  1  0  0  0  0
  3  4  1  0  0  0  0
  5  3  1  0  0  0  0
  6  5  1  0  0  0  0
  7  9  1  0  0  0  0
  7  5  2  0  0  0  0
  8  7  1  0  0  0  0
  9 11  2  0  0  0  0
 10  9  1  0  0  0  0
 11  1  1  0  0  0  0
 11 12  1  0  0  0  0
 12 14  1  0  0  0  0
 13 12  1  0  0  0  0
 15  2  1  0  0  0  0
 15 16  1  0  0  0  0
 16 17  1  0  0  0  0
 17 19  2  0  0  0  0
 17 18  1  0  0  0  0
 19 20  1  0  0  0  0
 21 22  1  0  0  0  0
 21 19  1  0  0  0  0
 23 21  2  0  0  0  0
 24 23  1  0  0  0  0
 25 23  1  0  0  0  0
 25 16  2  0  0  0  0
 26 25  1  0  0  0  0
 27 15  1  0  0  0  0
 27 28  1  0  0  0  0
 28 29  1  0  0  0  0
 30 28  2  0  0  0  0
 30 31  1  0  0  0  0
 32 30  1  0  0  0  0
 33 32  1  0  0  0  0
 34 36  1  0  0  0  0
 34 32  2  0  0  0  0
 35 34  1  0  0  0  0
 36 27  2  0  0  0  0
 37 36  1  0  0  0  0
M  END
