1,7
q = -1.0, confidence = 0.0

 23 24  0  0  1  0  0  0  0  0999 V2000
    1.6285   -1.0665   -0.1454 N   0  0  0  0  0  2  0  0  0  0  0  0
    2.1625   -1.7952    0.8971 N   0  0  0  0  0  0  0  0  0  0  0  0
    4.2907   -1.7229   -0.1232 N   0  0  0  0  0  0  0  0  0  0  0  0
    3.7356   -1.3525   -1.2992 N   0  0  0  0  0  0  0  0  0  0  0  0
    2.0999   -0.5131   -3.7502 N   0  0  0  0  0  0  0  0  0  0  0  0
    3.0450   -0.6567   -4.1075 H   0  0  0  0  0  0  0  0  0  0  0  0
    0.4202   -0.4053   -2.3104 N   0  0  0  0  0  2  0  0  0  0  0  0
    4.0277   -2.5370    2.0260 O   0  0  0  0  0  0  0  0  0  0  0  0
    3.5373   -2.0462    1.0198 C   0  0  0  0  0  0  0  0  0  0  0  0
    2.4630   -1.0513   -1.2697 C   0  0  0  0  0  0  0  0  0  0  0  0
    1.7229   -0.6789   -2.4530 C   0  0  2  0  0  3  0  0  0  0  0  0
   -0.0580   -0.0366   -3.5427 C   0  0  0  0  0  0  0  0  0  0  0  0
   -1.0958    0.2812   -3.6884 H   0  0  0  0  0  0  0  0  0  0  0  0
    0.9834   -0.1094   -4.4585 C   0  0  0  0  0  0  0  0  0  0  0  0
    1.0168    0.0900   -5.5336 H   0  0  0  0  0  0  0  0  0  0  0  0
    1.2959   -2.2061    1.9979 C   0  0  0  0  0  0  0  0  0  0  0  0
    1.2127   -1.4180    2.7705 H   0  0  0  0  0  0  0  0  0  0  0  0
    1.7479   -3.1048    2.4523 H   0  0  0  0  0  0  0  0  0  0  0  0
    0.2965   -2.4288    1.5918 H   0  0  0  0  0  0  0  0  0  0  0  0
    5.7254   -1.9544   -0.1285 C   0  0  0  0  0  0  0  0  0  0  0  0
    5.9826   -2.7365   -0.8716 H   0  0  0  0  0  0  0  0  0  0  0  0
    6.0170   -2.2876    0.8821 H   0  0  0  0  0  0  0  0  0  0  0  0
    6.2569   -1.0183   -0.3913 H   0  0  0  0  0  0  0  0  0  0  0  0
  1  2  1  0  0  0  0
  2  9  1  0  0  0  0
  2 16  1  0  0  0  0
  3  9  1  0  0  0  0
  4 10  2  0  0  0  0
  4  3  1  0  0  0  0
  5 11  1  0  0  0  0
  6  5  1  0  0  0  0
  9  8  2  0  0  0  0
 10  1  1  0  0  0  0
 11  7  1  0  0  0  0
 11 10  1  1  0  0  0
 12  7  1  0  0  0  0
 13 12  1  0  0  0  0
 14  5  1  0  0  0  0
 14 12  2  0  0  0  0
 15 14  1  0  0  0  0
 16 18  1  0  0  0  0
 16 17  1  0  0  0  0
 19 16  1  0  0  0  0
 20  3  1  0  0  0  0
 20 22  1  0  0  0  0
 21 20  1  0  0  0  0
 23 20  1  0  0  0  0
M  END
