1,2
q = 0.0, confidence = 0.996

 35 39  0  0  0  0  0  0  0  0999 V2000
   -0.2085   -0.0015    1.6216 N   0  0  0  0  0  2  0  0  0  0  0  0
   -0.5046    0.0008   -0.9997 N   0  0  0  0  0  2  0  0  0  0  0  0
    4.7017   -0.0011    0.9316 N   0  0  0  0  0  0  0  0  0  0  0  0
    4.4761    0.0011   -1.3032 N   0  0  0  0  0  0  0  0  0  0  0  0
    4.7384    0.0020   -2.2884 H   0  0  0  0  0  0  0  0  0  0  0  0
   -0.1183   -0.0028    2.9671 C   0  0  0  0  0  0  0  0  0  0  0  0
   -1.0854   -0.0032    3.4961 H   0  0  0  0  0  0  0  0  0  0  0  0
    1.1231   -0.0036    3.6347 C   0  0  0  0  0  0  0  0  0  0  0  0
    1.1310   -0.0047    4.7339 H   0  0  0  0  0  0  0  0  0  0  0  0
    2.3138   -0.0030    2.9081 C   0  0  0  0  0  0  0  0  0  0  0  0
    3.2991   -0.0035    3.3953 H   0  0  0  0  0  0  0  0  0  0  0  0
    2.2418   -0.0016    1.4965 C   0  0  0  0  0  0  0  0  0  0  0  0
    0.9544   -0.0009    0.8867 C   0  0  0  0  0  0  0  0  0  0  0  0
    0.7921    0.0004   -0.5422 C   0  0  0  0  0  0  0  0  0  0  0  0
    1.9148    0.0012   -1.4321 C   0  0  0  0  0  0  0  0  0  0  0  0
    1.6534    0.0026   -2.8250 C   0  0  0  0  0  0  0  0  0  0  0  0
    2.4778    0.0033   -3.5527 H   0  0  0  0  0  0  0  0  0  0  0  0
    0.3294    0.0030   -3.2634 C   0  0  0  0  0  0  0  0  0  0  0  0
    0.0907    0.0040   -4.3361 H   0  0  0  0  0  0  0  0  0  0  0  0
   -0.7234    0.0021   -2.3314 C   0  0  0  0  0  0  0  0  0  0  0  0
   -1.7745    0.0024   -2.6532 H   0  0  0  0  0  0  0  0  0  0  0  0
    3.3746   -0.0008    0.6091 C   0  0  0  0  0  0  0  0  0  0  0  0
    3.1953    0.0006   -0.7951 C   0  0  0  0  0  0  0  0  0  0  0  0
    5.3585   -0.0000   -0.2316 C   0  0  0  0  0  0  0  0  0  0  0  0
    6.8138    0.0001   -0.3788 C   0  0  0  0  0  0  0  0  0  0  0  0
    7.6092   -0.0009    0.7904 C   0  0  0  0  0  0  0  0  0  0  0  0
    7.1032   -0.0017    1.7661 H   0  0  0  0  0  0  0  0  0  0  0  0
    9.0042   -0.0008    0.6932 C   0  0  0  0  0  0  0  0  0  0  0  0
    9.6146   -0.0016    1.6085 H   0  0  0  0  0  0  0  0  0  0  0  0
    9.6264    0.0003   -0.5669 C   0  0  0  0  0  0  0  0  0  0  0  0
   10.7240    0.0003   -0.6410 H   0  0  0  0  0  0  0  0  0  0  0  0
    8.8445    0.0013   -1.7335 C   0  0  0  0  0  0  0  0  0  0  0  0
    9.3271    0.0021   -2.7219 H   0  0  0  0  0  0  0  0  0  0  0  0
    7.4474    0.0012   -1.6423 C   0  0  0  0  0  0  0  0  0  0  0  0
    6.8589    0.0020   -2.5736 H   0  0  0  0  0  0  0  0  0  0  0  0
  1  6  1  0  0  0  0
  2 14  1  0  0  0  0
  4 23  1  0  0  0  0
  4 24  1  0  0  0  0
  5  4  1  0  0  0  0
  6  7  1  0  0  0  0
  6  8  2  0  0  0  0
  8  9  1  0  0  0  0
 10 11  1  0  0  0  0
 10  8  1  0  0  0  0
 12 10  2  0  0  0  0
 13 12  1  0  0  0  0
 13  1  1  0  0  0  0
 14 13  2  0  0  0  0
 15 23  1  0  0  0  0
 15 14  1  0  0  0  0
 16 15  2  0  0  0  0
 17 16  1  0  0  0  0
 18 16  1  0  0  0  0
 18 20  2  0  0  0  0
 19 18  1  0  0  0  0
 20  2  1  0  0  0  0
 21 20  1  0  0  0  0
 22  3  1  0  0  0  0
 22 12  1  0  0  0  0
 23 22  2  0  0  0  0
 24  3  2  0  0  0  0
 25 24  1  0  0  0  0
 25 26  1  0  0  0  0
 26 27  1  0  0  0  0
 28 26  2  0  0  0  0
 28 29  1  0  0  0  0
 30 28  1  0  0  0  0
 31 30  1  0  0  0  0
 32 34  1  0  0  0  0
 32 30  2  0  0  0  0
 33 32  1  0  0  0  0
 34 25  2  0  0  0  0
 35 34  1  0  0  0  0
M  END
