36,37
q = 0.0, confidence = 0.994

 43 44  0  0  0  0  0  0  0  0999 V2000
    2.3407    2.5371    0.4615 C   0  0  0  0  0  0  0  0  0  0  0  0
    3.3706    2.3678    0.7904 H   0  0  0  0  0  0  0  0  0  0  0  0
   -0.5392   -0.4728    1.4867 C   0  0  0  0  0  0  0  0  0  0  0  0
   -0.2963    0.4942    1.9354 H   0  0  0  0  0  0  0  0  0  0  0  0
   -4.9353    0.8670   -0.8929 O   0  0  0  0  0  0  0  0  0  0  0  0
   -2.3633    2.7606    0.7591 O   0  0  0  0  0  0  0  0  0  0  0  0
   -4.1494   -2.0013   -0.0844 O   0  0  0  0  0  0  0  0  0  0  0  0
   -1.6470   -1.2738    1.6775 C   0  0  0  0  0  0  0  0  0  0  0  0
   -2.5446   -1.1464    2.2884 H   0  0  0  0  0  0  0  0  0  0  0  0
    0.4052    1.9831   -0.4110 C   0  0  0  0  0  3  0  0  0  0  0  0
   -0.4242    1.4091   -0.8324 H   0  0  0  0  0  0  0  0  0  0  0  0
   -0.2682   -2.2516    0.2323 C   0  0  0  0  0  3  0  0  0  0  0  0
    0.2093   -2.9990   -0.4130 H   0  0  0  0  0  0  0  0  0  0  0  0
   -5.7319   -0.2773   -0.6736 C   0  0  0  0  0  0  0  0  0  0  0  0
   -6.6406   -0.1412   -1.2961 H   0  0  0  0  0  0  0  0  0  0  0  0
   -6.0552   -0.3455    0.3946 H   0  0  0  0  0  0  0  0  0  0  0  0
   -0.7622    4.1979   -0.4395 C   0  0  0  0  0  0  0  0  0  0  0  0
   -1.2071    3.9629   -1.4280 H   0  0  0  0  0  0  0  0  0  0  0  0
   -0.4065    5.2459   -0.4871 H   0  0  0  0  0  0  0  0  0  0  0  0
    0.3885    3.3348   -0.2281 N   0  0  0  0  0  0  0  0  0  0  0  0
   -1.4559   -2.3948    0.8872 N   0  0  0  0  0  0  0  0  0  0  0  0
   -5.0826   -1.5961   -1.0717 C   0  0  0  0  0  0  0  0  0  0  0  0
   -5.8776   -2.3740   -1.1988 H   0  0  0  0  0  0  0  0  0  0  0  0
   -4.5808   -1.4695   -2.0624 H   0  0  0  0  0  0  0  0  0  0  0  0
    1.6051    3.6975    0.3322 C   0  0  0  0  0  0  0  0  0  0  0  0
    1.8428    4.7391    0.5689 H   0  0  0  0  0  0  0  0  0  0  0  0
   -3.4077   -3.1422   -0.4482 C   0  0  0  0  0  0  0  0  0  0  0  0
   -2.8546   -2.9720   -1.4053 H   0  0  0  0  0  0  0  0  0  0  0  0
   -4.0727   -4.0283   -0.6060 H   0  0  0  0  0  0  0  0  0  0  0  0
   -3.9074    1.0899    0.0533 C   0  0  0  0  0  0  0  0  0  0  0  0
   -3.0851    0.3439   -0.0285 H   0  0  0  0  0  0  0  0  0  0  0  0
   -4.2969    1.0243    1.0990 H   0  0  0  0  0  0  0  0  0  0  0  0
   -1.8096    4.0550    0.6759 C   0  0  0  0  0  0  0  0  0  0  0  0
   -1.3250    4.2547    1.6541 H   0  0  0  0  0  0  0  0  0  0  0  0
   -2.6034    4.8257    0.5207 H   0  0  0  0  0  0  0  0  0  0  0  0
    0.3071   -1.0960    0.5832 N   0  0  0  0  0  2  0  0  0  0  0  0
    1.5731    1.4800    0.0028 N   0  0  0  0  0  2  0  0  0  0  0  0
   -3.3717    2.4912   -0.1997 C   0  0  0  0  0  0  0  0  0  0  0  0
   -2.9871    2.5462   -1.2473 H   0  0  0  0  0  0  0  0  0  0  0  0
   -4.2053    3.2304   -0.1209 H   0  0  0  0  0  0  0  0  0  0  0  0
   -2.4190   -3.4629    0.6676 C   0  0  0  0  0  0  0  0  0  0  0  0
   -2.9660   -3.6369    1.6154 H   0  0  0  0  0  0  0  0  0  0  0  0
   -1.8671   -4.3905    0.4193 H   0  0  0  0  0  0  0  0  0  0  0  0
  1  2  1  0  0  0  0
  3  8  2  0  0  0  0
  3  4  1  0  0  0  0
  5 14  1  0  0  0  0
  5 30  1  0  0  0  0
  8  9  1  0  0  0  0
 10 20  1  0  0  0  0
 10 37  1  0  0  0  0
 11 10  1  0  0  0  0
 12 36  1  0  0  0  0
 12 21  1  0  0  0  0
 13 12  1  0  0  0  0
 14 16  1  0  0  0  0
 15 14  1  0  0  0  0
 17 20  1  0  0  0  0
 17 33  1  0  0  0  0
 18 17  1  0  0  0  0
 19 17  1  0  0  0  0
 20 25  1  0  0  0  0
 21  8  1  0  0  0  0
 22 14  1  0  0  0  0
 22  7  1  0  0  0  0
 23 22  1  0  0  0  0
 24 22  1  0  0  0  0
 25  1  2  0  0  0  0
 25 26  1  0  0  0  0
 27  7  1  0  0  0  0
 27 41  1  0  0  0  0
 28 27  1  0  0  0  0
 29 27  1  0  0  0  0
 30 32  1  0  0  0  0
 31 30  1  0  0  0  0
 33  6  1  0  0  0  0
 33 34  1  0  0  0  0
 35 33  1  0  0  0  0
 36  3  1  0  0  0  0
 37  1  1  0  0  0  0
 38 40  1  0  0  0  0
 38 30  1  0  0  0  0
 38  6  1  0  0  0  0
 39 38  1  0  0  0  0
 41 21  1  0  0  0  0
 41 42  1  0  0  0  0
 43 41  1  0  0  0  0
M  END
