3,4
q = -2.0, confidence = 0.924

 32 34  0  0  0  0  0  0  0  0999 V2000
   -1.9202    0.9071   -0.9049 N   0  0  0  0  0  0  0  0  0  0  0  0
   -1.9203   -0.9069    0.9049 N   0  0  0  0  0  0  0  0  0  0  0  0
    0.5948    1.4745   -1.4708 N   0  0  0  0  0  0  0  0  0  0  0  0
    0.5947   -1.4745    1.4708 N   0  0  0  0  0  0  0  0  0  0  0  0
   -3.1899    0.5042   -0.5030 C   0  0  0  0  0  0  0  0  0  0  0  0
   -3.1900   -0.5040    0.5029 C   0  0  0  0  0  0  0  0  0  0  0  0
   -4.4196   -0.9963    0.9941 C   0  0  0  0  0  0  0  0  0  0  0  0
   -4.4354   -1.7740    1.7701 H   0  0  0  0  0  0  0  0  0  0  0  0
   -5.6288   -0.4982    0.4971 C   0  0  0  0  0  0  0  0  0  0  0  0
   -6.5801   -0.8893    0.8873 H   0  0  0  0  0  0  0  0  0  0  0  0
   -5.6288    0.4984   -0.4974 C   0  0  0  0  0  0  0  0  0  0  0  0
   -6.5800    0.8895   -0.8878 H   0  0  0  0  0  0  0  0  0  0  0  0
   -4.4195    0.9965   -0.9944 C   0  0  0  0  0  0  0  0  0  0  0  0
   -4.4352    1.7741   -1.7704 H   0  0  0  0  0  0  0  0  0  0  0  0
   -1.7311    1.8302   -1.8257 C   0  0  0  0  0  0  0  0  0  0  0  0
   -2.5727    2.3371   -2.3312 H   0  0  0  0  0  0  0  0  0  0  0  0
   -0.4092    2.1593   -2.1538 C   0  0  0  0  0  0  0  0  0  0  0  0
    0.1507    3.0805   -3.0728 C   0  0  0  0  0  0  0  0  0  0  0  0
   -0.4070    3.7490   -3.7395 H   0  0  0  0  0  0  0  0  0  0  0  0
    1.5441    2.9497   -2.9423 C   0  0  0  0  0  0  0  0  0  0  0  0
    2.3213    3.4972   -3.4884 H   0  0  0  0  0  0  0  0  0  0  0  0
    1.7683    1.9612   -1.9563 C   0  0  0  0  0  3  0  0  0  0  0  0
    2.7378    1.6021   -1.5982 H   0  0  0  0  0  0  0  0  0  0  0  0
   -1.7312   -1.8299    1.8258 C   0  0  0  0  0  0  0  0  0  0  0  0
   -2.5729   -2.3366    2.3314 H   0  0  0  0  0  0  0  0  0  0  0  0
   -0.4094   -2.1591    2.1539 C   0  0  0  0  0  3  0  0  0  0  0  0
    0.1504   -3.0803    3.0730 C   0  0  0  0  0  0  0  0  0  0  0  0
   -0.4074   -3.7486    3.7398 H   0  0  0  0  0  0  0  0  0  0  0  0
    1.5438   -2.9496    2.9425 C   0  0  0  0  0  0  0  0  0  0  0  0
    2.3209   -3.4971    3.4888 H   0  0  0  0  0  0  0  0  0  0  0  0
    1.7681   -1.9613    1.9563 C   0  0  0  0  0  0  0  0  0  0  0  0
    2.7376   -1.6024    1.5981 H   0  0  0  0  0  0  0  0  0  0  0  0
  1  5  1  0  0  0  0
  2 24  2  0  0  0  0
  4 31  2  0  0  0  0
  4 26  1  0  0  0  0
  5  6  1  0  0  0  0
  6  2  1  0  0  0  0
  6  7  2  0  0  0  0
  7  8  1  0  0  0  0
  9 10  1  0  0  0  0
  9  7  1  0  0  0  0
 11  9  2  0  0  0  0
 12 11  1  0  0  0  0
 13  5  2  0  0  0  0
 13 11  1  0  0  0  0
 14 13  1  0  0  0  0
 15  1  2  0  0  0  0
 16 15  1  0  0  0  0
 17 15  1  0  0  0  0
 17  3  2  0  0  0  0
 18 20  2  0  0  0  0
 18 17  1  0  0  0  0
 19 18  1  0  0  0  0
 20 22  1  0  0  0  0
 21 20  1  0  0  0  0
 22 23  1  0  0  0  0
 22  3  1  0  0  0  0
 24 26  1  0  0  0  0
 24 25  1  0  0  0  0
 26 27  1  0  0  0  0
 27 28  1  0  0  0  0
 29 27  2  0  0  0  0
 29 30  1  0  0  0  0
 31 29  1  0  0  0  0
 32 31  1  0  0  0  0
M  END
