2,3
q = -1.0, confidence = 0.006

 59 63  0  0  0  0  0  0  0  0999 V2000
    1.6352    0.7340    0.0701 O   0  0  0  0  0  0  0  0  0  0  0  0
   -1.5400   -0.8397   -0.0843 N   0  0  0  0  0  2  0  0  0  0  0  0
    1.1155   -1.5847    0.0282 N   0  0  0  0  0  2  0  0  0  0  0  0
    0.7905   -0.3203    0.0186 C   0  0  0  0  0  0  0  0  0  0  0  0
   -0.6018    0.1361   -0.0434 C   0  0  0  0  0  0  0  0  0  0  0  0
   -0.5405    1.5448   -0.0702 C   0  0  0  0  0  0  0  0  0  0  0  0
    0.8591    1.9078    0.0013 C   0  0  0  0  0  0  0  0  0  0  0  0
   -2.9101   -0.6478    0.1394 C   0  0  0  0  0  0  0  0  0  0  0  0
   -3.4215    0.2956    1.0637 C   0  0  0  0  0  0  0  0  0  0  0  0
   -2.7272    0.9275    1.6338 H   0  0  0  0  0  0  0  0  0  0  0  0
   -4.7991    0.4133    1.2724 C   0  0  0  0  0  0  0  0  0  0  0  0
   -5.1652    1.1577    1.9978 H   0  0  0  0  0  0  0  0  0  0  0  0
   -5.7270   -0.3936    0.5814 C   0  0  0  0  0  0  0  0  0  0  0  0
   -5.2110   -1.3477   -0.3195 C   0  0  0  0  0  0  0  0  0  0  0  0
   -5.9051   -2.0051   -0.8673 H   0  0  0  0  0  0  0  0  0  0  0  0
   -3.8348   -1.4769   -0.5372 C   0  0  0  0  0  0  0  0  0  0  0  0
   -3.4537   -2.2263   -1.2480 H   0  0  0  0  0  0  0  0  0  0  0  0
   -7.2110   -0.2253    0.7887 C   0  0  0  0  0  0  0  0  0  0  0  0
   -7.4601   -0.0778    1.8593 H   0  0  0  0  0  0  0  0  0  0  0  0
   -7.7773   -1.1045    0.4235 H   0  0  0  0  0  0  0  0  0  0  0  0
   -7.5965    0.6645    0.2447 H   0  0  0  0  0  0  0  0  0  0  0  0
    2.4082   -2.1333    0.0507 C   0  0  0  0  0  0  0  0  0  0  0  0
    2.5212   -3.5049    0.3790 C   0  0  0  0  0  0  0  0  0  0  0  0
    1.6067   -4.0724    0.6075 H   0  0  0  0  0  0  0  0  0  0  0  0
    3.7684   -4.1331    0.4150 C   0  0  0  0  0  0  0  0  0  0  0  0
    3.8241   -5.2017    0.6768 H   0  0  0  0  0  0  0  0  0  0  0  0
    4.9539   -3.4283    0.1170 C   0  0  0  0  0  0  0  0  0  0  0  0
    4.8313   -2.0668   -0.2283 C   0  0  0  0  0  0  0  0  0  0  0  0
    5.7360   -1.4923   -0.4841 H   0  0  0  0  0  0  0  0  0  0  0  0
    3.5906   -1.4198   -0.2615 C   0  0  0  0  0  0  0  0  0  0  0  0
    3.5368   -0.3631   -0.5493 H   0  0  0  0  0  0  0  0  0  0  0  0
    6.3001   -4.1014    0.1882 C   0  0  0  0  0  0  0  0  0  0  0  0
    6.2439   -5.1621   -0.1283 H   0  0  0  0  0  0  0  0  0  0  0  0
    6.6949   -4.0949    1.2275 H   0  0  0  0  0  0  0  0  0  0  0  0
    7.0480   -3.5892   -0.4483 H   0  0  0  0  0  0  0  0  0  0  0  0
   -1.6400    2.5082   -0.2277 C   0  0  0  0  0  0  0  0  0  0  0  0
   -1.7357    3.6603    0.5888 C   0  0  0  0  0  0  0  0  0  0  0  0
   -0.9785    3.8327    1.3683 H   0  0  0  0  0  0  0  0  0  0  0  0
   -2.8049    4.5551    0.4434 C   0  0  0  0  0  0  0  0  0  0  0  0
   -2.8676    5.4393    1.0961 H   0  0  0  0  0  0  0  0  0  0  0  0
   -3.7995    4.3191   -0.5197 C   0  0  0  0  0  0  0  0  0  0  0  0
   -4.6404    5.0204   -0.6301 H   0  0  0  0  0  0  0  0  0  0  0  0
   -3.7167    3.1801   -1.3362 C   0  0  0  0  0  0  0  0  0  0  0  0
   -4.4935    2.9833   -2.0905 H   0  0  0  0  0  0  0  0  0  0  0  0
   -2.6504    2.2840   -1.1925 C   0  0  0  0  0  0  0  0  0  0  0  0
   -2.5895    1.3939   -1.8350 H   0  0  0  0  0  0  0  0  0  0  0  0
    1.4764    3.1299   -0.0611 C   0  0  0  0  0  3  0  0  0  0  0  0
    0.7796    3.9687   -0.2093 H   0  0  0  0  0  0  0  0  0  0  0  0
    2.8849    3.4832    0.0055 C   0  0  0  0  0  0  0  0  0  0  0  0
    3.9275    2.5879    0.3727 C   0  0  0  0  0  0  0  0  0  0  0  0
    3.6830    1.5544    0.6467 H   0  0  0  0  0  0  0  0  0  0  0  0
    5.2585    3.0161    0.4117 C   0  0  0  0  0  0  0  0  0  0  0  0
    6.0451    2.3032    0.7039 H   0  0  0  0  0  0  0  0  0  0  0  0
    5.5981    4.3419    0.0900 C   0  0  0  0  0  0  0  0  0  0  0  0
    6.6478    4.6706    0.1210 H   0  0  0  0  0  0  0  0  0  0  0  0
    4.5813    5.2447   -0.2632 C   0  0  0  0  0  0  0  0  0  0  0  0
    4.8305    6.2880   -0.5106 H   0  0  0  0  0  0  0  0  0  0  0  0
    3.2483    4.8233   -0.2999 C   0  0  0  0  0  0  0  0  0  0  0  0
    2.4564    5.5370   -0.5767 H   0  0  0  0  0  0  0  0  0  0  0  0
  2  5  1  0  0  0  0
  2  8  1  0  0  0  0
  3 22  1  0  0  0  0
  4  3  1  0  0  0  0
  4  1  1  0  0  0  0
  5  4  2  0  0  0  0
  6  5  1  0  0  0  0
  6  7  2  0  0  0  0
  7  1  1  0  0  0  0
  8  9  1  0  0  0  0
  9 11  2  0  0  0  0
  9 10  1  0  0  0  0
 11 12  1  0  0  0  0
 13 18  1  0  0  0  0
 13 11  1  0  0  0  0
 14 13  2  0  0  0  0
 15 14  1  0  0  0  0
 16 14  1  0  0  0  0
 16  8  2  0  0  0  0
 17 16  1  0  0  0  0
 18 19  1  0  0  0  0
 20 18  1  0  0  0  0
 21 18  1  0  0  0  0
 22 23  1  0  0  0  0
 23 25  2  0  0  0  0
 23 24  1  0  0  0  0
 25 26  1  0  0  0  0
 27 32  1  0  0  0  0
 27 25  1  0  0  0  0
 28 27  2  0  0  0  0
 29 28  1  0  0  0  0
 30 28  1  0  0  0  0
 30 22  2  0  0  0  0
 31 30  1  0  0  0  0
 32 34  1  0  0  0  0
 33 32  1  0  0  0  0
 35 32  1  0  0  0  0
 36  6  1  0  0  0  0
 36 37  1  0  0  0  0
 37 38  1  0  0  0  0
 39 37  2  0  0  0  0
 39 40  1  0  0  0  0
 41 39  1  0  0  0  0
 42 41  1  0  0  0  0
 43 45  1  0  0  0  0
 43 41  2  0  0  0  0
 44 43  1  0  0  0  0
 45 36  2  0  0  0  0
 46 45  1  0  0  0  0
 47  7  1  0  0  0  0
 47 49  1  0  0  0  0
 48 47  1  0  0  0  0
 49 50  1  0  0  0  0
 50 52  2  0  0  0  0
 50 51  1  0  0  0  0
 52 53  1  0  0  0  0
 54 55  1  0  0  0  0
 54 52  1  0  0  0  0
 56 54  2  0  0  0  0
 57 56  1  0  0  0  0
 58 56  1  0  0  0  0
 58 49  2  0  0  0  0
 59 58  1  0  0  0  0
M  END
