1,4
q = 0.0, confidence = 1.0

 28 30  0  0  1  0  0  0  0  0999 V2000
    0.7706   -0.9702    1.1923 N   0  0  0  0  0  2  0  0  0  0  0  0
    1.5150   -2.4369    2.9525 C   0  0  0  0  0  0  0  0  0  0  0  0
    1.2505   -3.0781    3.8048 H   0  0  0  0  0  0  0  0  0  0  0  0
    1.0829    0.5354   -0.9917 N   0  0  0  0  0  2  0  0  0  0  0  0
    0.5076   -1.7725    2.2438 C   0  0  0  0  0  3  0  0  0  0  0  0
   -0.5566   -1.8697    2.5111 H   0  0  0  0  0  0  0  0  0  0  0  0
    2.1906    0.0763   -0.3772 C   0  0  1  0  0  3  0  0  0  0  0  0
    3.1316   -1.4408    1.4536 C   0  0  0  0  0  0  0  0  0  0  0  0
    4.1646   -1.3002    1.1132 H   0  0  0  0  0  0  0  0  0  0  0  0
    2.8474   -2.2666    2.5476 C   0  0  0  0  0  0  0  0  0  0  0  0
    3.6648   -2.7773    3.0771 H   0  0  0  0  0  0  0  0  0  0  0  0
    2.0700   -0.7974    0.7872 C   0  0  0  0  0  0  0  0  0  0  0  0
    3.3037    0.5473   -1.0384 N   0  0  0  0  0  0  0  0  0  0  0  0
    1.4765    1.3071   -2.0529 C   0  0  0  0  0  0  0  0  0  0  0  0
    0.7479    1.8008   -2.7052 H   0  0  0  0  0  0  0  0  0  0  0  0
    2.8625    1.3221   -2.0968 C   0  0  0  0  0  0  0  0  0  0  0  0
    3.5715    1.8179   -2.7670 H   0  0  0  0  0  0  0  0  0  0  0  0
    5.2655    1.1164    0.3200 C   0  0  0  0  0  0  0  0  0  0  0  0
    4.6618    1.8772    0.8361 H   0  0  0  0  0  0  0  0  0  0  0  0
    5.4288   -0.6332   -1.3846 C   0  0  0  0  0  0  0  0  0  0  0  0
    4.9505   -1.2263   -2.1777 H   0  0  0  0  0  0  0  0  0  0  0  0
    6.7733   -0.8356   -1.0385 C   0  0  0  0  0  0  0  0  0  0  0  0
    7.3644   -1.5943   -1.5720 H   0  0  0  0  0  0  0  0  0  0  0  0
    7.3610   -0.0728   -0.0163 C   0  0  0  0  0  0  0  0  0  0  0  0
    8.4152   -0.2356    0.2520 H   0  0  0  0  0  0  0  0  0  0  0  0
    6.6090    0.9021    0.6601 C   0  0  0  0  0  0  0  0  0  0  0  0
    7.0728    1.5056    1.4541 H   0  0  0  0  0  0  0  0  0  0  0  0
    4.6853    0.3393   -0.6965 C   0  0  0  0  0  0  0  0  0  0  0  0
  1  5  1  0  0  0  0
  2  3  1  0  0  0  0
  4  7  1  0  0  0  0
  5  6  1  0  0  0  0
  5  2  1  0  0  0  0
  7 12  1  6  0  0  0
  8 10  1  0  0  0  0
  9  8  1  0  0  0  0
 10  2  2  0  0  0  0
 10 11  1  0  0  0  0
 12  1  1  0  0  0  0
 12  8  2  0  0  0  0
 13 28  1  0  0  0  0
 13  7  1  0  0  0  0
 14  4  1  0  0  0  0
 15 14  1  0  0  0  0
 16 14  2  0  0  0  0
 16 13  1  0  0  0  0
 17 16  1  0  0  0  0
 18 26  1  0  0  0  0
 18 19  1  0  0  0  0
 20 22  2  0  0  0  0
 20 28  1  0  0  0  0
 21 20  1  0  0  0  0
 22 24  1  0  0  0  0
 23 22  1  0  0  0  0
 24 25  1  0  0  0  0
 24 26  2  0  0  0  0
 26 27  1  0  0  0  0
 28 18  2  0  0  0  0
M  END
