2,3
q = -1.0, confidence = 0.01

 27 29  0  0  0  0  0  0  0  0999 V2000
   -7.6889    0.0001    0.0002 N   0  0  0  0  0  0  0  0  0  0  0  0
   -1.3459    1.0319   -1.0482 N   0  0  0  0  0  0  0  0  0  0  0  0
   -1.3459   -1.0322    1.0482 N   0  0  0  0  0  0  0  0  0  0  0  0
   -5.5859   -1.1548   -0.3401 C   0  0  0  0  0  0  0  0  0  0  0  0
   -3.3600   -0.0001   -0.0000 C   0  0  0  0  0  3  0  0  0  0  0  0
   -2.7289    0.8667   -0.9283 C   0  0  0  0  0  3  0  0  0  0  0  0
   -4.8533   -0.0001    0.0000 C   0  0  0  0  0  0  0  0  0  0  0  0
   -5.5857    1.1548    0.3402 C   0  0  0  0  0  0  0  0  0  0  0  0
   -1.1353   -1.9147    2.0413 C   0  0  0  0  0  3  0  0  0  0  0  0
   -6.9882   -1.0974   -0.3271 C   0  0  0  0  0  0  0  0  0  0  0  0
   -3.3722    1.6955   -1.9143 C   0  0  0  0  0  0  0  0  0  0  0  0
   -2.7288   -0.8669    0.9282 C   0  0  0  0  0  0  0  0  0  0  0  0
   -2.3631    2.3572   -2.6108 C   0  0  0  0  0  0  0  0  0  0  0  0
   -3.3722   -1.6953    1.9145 C   0  0  0  0  0  0  0  0  0  0  0  0
   -2.3631   -2.3571    2.6110 C   0  0  0  0  0  0  0  0  0  0  0  0
   -6.9880    1.0975    0.3273 C   0  0  0  0  0  0  0  0  0  0  0  0
   -1.1353    1.9146   -2.0412 C   0  0  0  0  0  0  0  0  0  0  0  0
   -5.0631   -2.0809   -0.6209 H   0  0  0  0  0  0  0  0  0  0  0  0
   -5.0628    2.0808    0.6210 H   0  0  0  0  0  0  0  0  0  0  0  0
   -0.1134   -2.2065    2.3226 H   0  0  0  0  0  0  0  0  0  0  0  0
   -7.5762   -1.9927   -0.5985 H   0  0  0  0  0  0  0  0  0  0  0  0
   -4.4523    1.7670   -2.0808 H   0  0  0  0  0  0  0  0  0  0  0  0
   -2.4773    3.0702   -3.4353 H   0  0  0  0  0  0  0  0  0  0  0  0
   -4.4522   -1.7667    2.0811 H   0  0  0  0  0  0  0  0  0  0  0  0
   -2.4773   -3.0698    3.4357 H   0  0  0  0  0  0  0  0  0  0  0  0
   -7.5759    1.9929    0.5989 H   0  0  0  0  0  0  0  0  0  0  0  0
   -0.1134    2.2065   -2.3225 H   0  0  0  0  0  0  0  0  0  0  0  0
  1 16  1  0  0  0  0
  2  6  1  0  0  0  0
  3  9  1  0  0  0  0
  4 10  1  0  0  0  0
  4  7  2  0  0  0  0
  5  7  1  0  0  0  0
  5 12  1  0  0  0  0
  6  5  1  0  0  0  0
  7  8  1  0  0  0  0
  8 19  1  0  0  0  0
  9 20  1  0  0  0  0
  9 15  1  0  0  0  0
 10  1  2  0  0  0  0
 11  6  1  0  0  0  0
 12  3  2  0  0  0  0
 12 14  1  0  0  0  0
 13 17  1  0  0  0  0
 13 11  2  0  0  0  0
 14 24  1  0  0  0  0
 14 15  2  0  0  0  0
 15 25  1  0  0  0  0
 16  8  2  0  0  0  0
 16 26  1  0  0  0  0
 17  2  2  0  0  0  0
 18  4  1  0  0  0  0
 21 10  1  0  0  0  0
 22 11  1  0  0  0  0
 23 13  1  0  0  0  0
 27 17  1  0  0  0  0
M  END
