1,5
q = -1.0

 27 30  0  0  1  0  0  0  0  0999 V2000
   -1.0392    1.3833   -0.8430 N   0  0  0  0  0  0  0  0  0  0  0  0
   -1.2973    2.6745   -2.7395 N   0  0  0  0  0  0  0  0  0  0  0  0
    1.2032    0.9613   -3.7129 N   0  0  0  0  0  0  0  0  0  0  0  0
    0.9539    1.5468   -4.5102 H   0  0  0  0  0  0  0  0  0  0  0  0
    1.0540    0.0849   -1.6611 N   0  0  0  0  0  2  0  0  0  0  0  0
   -0.6121    1.7176   -2.1090 C   0  0  0  0  0  0  0  0  0  0  0  0
   -2.1132    2.2104   -0.6129 C   0  0  0  0  0  0  0  0  0  0  0  0
   -3.0031    2.3649    0.4741 C   0  0  0  0  0  0  0  0  0  0  0  0
   -2.9221    1.7534    1.3802 H   0  0  0  0  0  0  0  0  0  0  0  0
   -4.0104    3.3226    0.3478 C   0  0  0  0  0  0  0  0  0  0  0  0
   -4.7180    3.4608    1.1794 H   0  0  0  0  0  0  0  0  0  0  0  0
   -4.1553    4.1185   -0.8222 C   0  0  0  0  0  0  0  0  0  0  0  0
   -4.9693    4.8578   -0.8685 H   0  0  0  0  0  0  0  0  0  0  0  0
   -3.2924    3.9733   -1.9072 C   0  0  0  0  0  3  0  0  0  0  0  0
   -3.3965    4.5771   -2.8205 H   0  0  0  0  0  0  0  0  0  0  0  0
   -2.2594    3.0123   -1.8138 C   0  0  0  0  0  0  0  0  0  0  0  0
    0.5222    0.9580   -2.5331 C   0  0  1  0  0  3  0  0  0  0  0  0
    2.1293   -0.5215   -2.2959 C   0  0  0  0  0  0  0  0  0  0  0  0
    3.0645   -1.4812   -1.8655 C   0  0  0  0  0  0  0  0  0  0  0  0
    3.0185   -1.8977   -0.8526 H   0  0  0  0  0  0  0  0  0  0  0  0
    4.0630   -1.8710   -2.7668 C   0  0  0  0  0  0  0  0  0  0  0  0
    4.8037   -2.6204   -2.4510 H   0  0  0  0  0  0  0  0  0  0  0  0
    4.1472   -1.3249   -4.0681 C   0  0  0  0  0  0  0  0  0  0  0  0
    4.9463   -1.6607   -4.7451 H   0  0  0  0  0  0  0  0  0  0  0  0
    3.2346   -0.3577   -4.5124 C   0  0  0  0  0  0  0  0  0  0  0  0
    3.3012    0.0751   -5.5209 H   0  0  0  0  0  0  0  0  0  0  0  0
    2.2346    0.0345   -3.6131 C   0  0  0  0  0  0  0  0  0  0  0  0
  1  7  1  0  0  0  0
  2  6  1  0  0  0  0
  2 16  2  0  0  0  0
  3 27  1  0  0  0  0
  3 17  1  0  0  0  0
  4  3  1  0  0  0  0
  6  1  2  0  0  0  0
  7  8  2  0  0  0  0
  8  9  1  0  0  0  0
 10  8  1  0  0  0  0
 10 11  1  0  0  0  0
 12 10  2  0  0  0  0
 13 12  1  0  0  0  0
 14 16  1  0  0  0  0
 14 12  1  0  0  0  0
 15 14  1  0  0  0  0
 16  7  1  0  0  0  0
 17  6  1  1  0  0  0
 17  5  1  0  0  0  0
 18 19  1  0  0  0  0
 18  5  1  0  0  0  0
 19 20  1  0  0  0  0
 21 22  1  0  0  0  0
 21 19  2  0  0  0  0
 23 21  1  0  0  0  0
 24 23  1  0  0  0  0
 25 23  2  0  0  0  0
 25 27  1  0  0  0  0
 26 25  1  0  0  0  0
 27 18  2  0  0  0  0
M  END
