1,2
q = 0.0, confidence = 0.992

 54 59  0  0  1  0  0  0  0  0999 V2000
   -1.3665   -0.3591   -0.3847 N   0  0  0  0  0  2  0  0  0  0  0  0
    1.2313   -0.5753   -0.1651 N   0  0  0  0  0  2  0  0  0  0  0  0
   -0.8196   -1.4285   -1.0622 C   0  0  0  0  0  0  0  0  0  0  0  0
   -1.6395   -2.3866   -1.6723 C   0  0  0  0  0  0  0  0  0  0  0  0
   -1.1896   -3.2164   -2.2328 H   0  0  0  0  0  0  0  0  0  0  0  0
   -3.0297   -2.2883   -1.5387 C   0  0  0  0  0  0  0  0  0  0  0  0
   -3.6909   -3.0234   -2.0219 H   0  0  0  0  0  0  0  0  0  0  0  0
   -3.5713   -1.2763   -0.7386 C   0  0  0  0  0  0  0  0  0  0  0  0
   -2.6997   -0.3236   -0.1453 C   0  0  0  0  0  0  0  0  0  0  0  0
   -3.2868    0.6831    0.8081 C   0  0  0  0  0  0  0  0  0  0  0  0
   -3.0131    1.7051    0.4665 H   0  0  0  0  0  0  0  0  0  0  0  0
   -2.7824    0.5636    1.7922 H   0  0  0  0  0  0  0  0  0  0  0  0
   -4.8080    0.5167    0.9077 C   0  0  2  0  0  0  0  0  0  0  0  0
   -5.2439    1.2740    1.5901 H   0  0  0  0  0  0  0  0  0  0  0  0
   -5.2247   -0.9825    1.1384 C   0  0  0  0  0  0  0  0  0  0  0  0
   -5.0343   -1.1207   -0.4274 C   0  0  1  0  0  0  0  0  0  0  0  0
   -5.6552   -1.8651   -0.9657 H   0  0  0  0  0  0  0  0  0  0  0  0
   -5.3834    0.3946   -0.5288 C   0  0  0  0  0  0  0  0  0  0  0  0
   -6.4719    0.5751   -0.5798 H   0  0  0  0  0  0  0  0  0  0  0  0
   -4.8787    0.9735   -1.3280 H   0  0  0  0  0  0  0  0  0  0  0  0
   -6.6956   -1.1208    1.5461 C   0  0  0  0  0  0  0  0  0  0  0  0
   -6.8317   -0.7960    2.5985 H   0  0  0  0  0  0  0  0  0  0  0  0
   -7.0225   -2.1792    1.4776 H   0  0  0  0  0  0  0  0  0  0  0  0
   -7.3798   -0.5163    0.9206 H   0  0  0  0  0  0  0  0  0  0  0  0
   -4.3703   -1.8533    2.0572 C   0  0  0  0  0  0  0  0  0  0  0  0
   -4.4806   -1.5221    3.1107 H   0  0  0  0  0  0  0  0  0  0  0  0
   -3.2919   -1.8294    1.8107 H   0  0  0  0  0  0  0  0  0  0  0  0
   -4.6990   -2.9123    2.0057 H   0  0  0  0  0  0  0  0  0  0  0  0
    0.6429   -1.5388   -0.9565 C   0  0  0  0  0  0  0  0  0  0  0  0
    1.4006   -2.5900   -1.4874 C   0  0  0  0  0  0  0  0  0  0  0  0
    0.9294   -3.3268   -2.1511 H   0  0  0  0  0  0  0  0  0  0  0  0
    2.7562   -2.6968   -1.1517 C   0  0  0  0  0  0  0  0  0  0  0  0
    3.3756   -3.5006   -1.5773 H   0  0  0  0  0  0  0  0  0  0  0  0
    3.3039   -1.8070   -0.2210 C   0  0  0  0  0  0  0  0  0  0  0  0
    2.4976   -0.7512    0.2832 C   0  0  0  0  0  0  0  0  0  0  0  0
    3.0744    0.1400    1.3529 C   0  0  0  0  0  0  0  0  0  0  0  0
    2.4177    0.0685    2.2483 H   0  0  0  0  0  0  0  0  0  0  0  0
    3.0029    1.1984    1.0235 H   0  0  0  0  0  0  0  0  0  0  0  0
    4.5129   -0.2731    1.6893 C   0  0  2  0  0  0  0  0  0  0  0  0
    4.9360    0.3798    2.4793 H   0  0  0  0  0  0  0  0  0  0  0  0
    5.3599   -0.4572    0.3757 C   0  0  0  0  0  0  0  0  0  0  0  0
    4.7002   -1.8949    0.3289 C   0  0  1  0  0  0  0  0  0  0  0  0
    5.2776   -2.7214   -0.1327 H   0  0  0  0  0  0  0  0  0  0  0  0
    4.5850   -1.8111    1.8819 C   0  0  0  0  0  0  0  0  0  0  0  0
    5.5066   -2.1447    2.3918 H   0  0  0  0  0  0  0  0  0  0  0  0
    3.7119   -2.3124    2.3470 H   0  0  0  0  0  0  0  0  0  0  0  0
    5.1270    0.5002   -0.7919 C   0  0  0  0  0  0  0  0  0  0  0  0
    5.5757    1.4892   -0.5654 H   0  0  0  0  0  0  0  0  0  0  0  0
    4.0613    0.6861   -1.0236 H   0  0  0  0  0  0  0  0  0  0  0  0
    5.6159    0.1144   -1.7108 H   0  0  0  0  0  0  0  0  0  0  0  0
    6.8645   -0.5434    0.6583 C   0  0  0  0  0  0  0  0  0  0  0  0
    7.4096   -0.8832   -0.2466 H   0  0  0  0  0  0  0  0  0  0  0  0
    7.1180   -1.2366    1.4834 H   0  0  0  0  0  0  0  0  0  0  0  0
    7.2585    0.4577    0.9288 H   0  0  0  0  0  0  0  0  0  0  0  0
  1  9  1  0  0  0  0
  2 35  1  0  0  0  0
  3 29  2  0  0  0  0
  3  1  1  0  0  0  0
  4  6  2  0  0  0  0
  4  3  1  0  0  0  0
  5  4  1  0  0  0  0
  6  8  1  0  0  0  0
  7  6  1  0  0  0  0
  8 16  1  0  0  0  0
  8  9  2  0  0  0  0
  9 10  1  0  0  0  0
 10 13  1  0  0  0  0
 10 12  1  0  0  0  0
 11 10  1  0  0  0  0
 13 15  1  0  0  0  0
 13 14  1  1  0  0  0
 15 21  1  0  0  0  0
 15 25  1  0  0  0  0
 16 17  1  6  0  0  0
 16 15  1  0  0  0  0
 18 16  1  0  0  0  0
 18 13  1  0  0  0  0
 19 18  1  0  0  0  0
 20 18  1  0  0  0  0
 21 22  1  0  0  0  0
 23 21  1  0  0  0  0
 24 21  1  0  0  0  0
 25 26  1  0  0  0  0
 27 25  1  0  0  0  0
 28 25  1  0  0  0  0
 29  2  1  0  0  0  0
 30 32  2  0  0  0  0
 30 29  1  0  0  0  0
 31 30  1  0  0  0  0
 32 34  1  0  0  0  0
 33 32  1  0  0  0  0
 34 35  2  0  0  0  0
 34 42  1  0  0  0  0
 35 36  1  0  0  0  0
 36 39  1  0  0  0  0
 36 37  1  0  0  0  0
 38 36  1  0  0  0  0
 39 44  1  0  0  0  0
 39 40  1  1  0  0  0
 41 51  1  0  0  0  0
 41 39  1  0  0  0  0
 42 43  1  6  0  0  0
 42 41  1  0  0  0  0
 42 44  1  0  0  0  0
 44 46  1  0  0  0  0
 44 45  1  0  0  0  0
 47 48  1  0  0  0  0
 47 41  1  0  0  0  0
 49 47  1  0  0  0  0
 50 47  1  0  0  0  0
 51 54  1  0  0  0  0
 51 53  1  0  0  0  0
 52 51  1  0  0  0  0
M  END
