1,2
q = 0.0, confidence = 0.986

 54 59  0  0  1  0  0  0  0  0999 V2000
    1.3071    0.6190   -0.0285 N   0  0  0  0  0  2  0  0  0  0  0  0
   -1.3070    0.6191   -0.0283 N   0  0  0  0  0  2  0  0  0  0  0  0
    0.7354    1.7024   -0.6619 C   0  0  0  0  0  0  0  0  0  0  0  0
    1.5289    2.7522   -1.1405 C   0  0  0  0  0  0  0  0  0  0  0  0
    1.0655    3.5911   -1.6759 H   0  0  0  0  0  0  0  0  0  0  0  0
    2.9111    2.7257   -0.9157 C   0  0  0  0  0  0  0  0  0  0  0  0
    3.5558    3.5282   -1.3045 H   0  0  0  0  0  0  0  0  0  0  0  0
    3.4604    1.6984   -0.1407 C   0  0  0  0  0  0  0  0  0  0  0  0
    4.9007    1.6210    0.2830 C   0  0  1  0  0  0  0  0  0  0  0  0
    5.5028    2.4522   -0.1365 H   0  0  0  0  0  0  0  0  0  0  0  0
    4.9117    1.3634    1.8210 C   0  0  0  0  0  0  0  0  0  0  0  0
    4.1257    1.8681    2.4188 H   0  0  0  0  0  0  0  0  0  0  0  0
    5.8976    1.5674    2.2757 H   0  0  0  0  0  0  0  0  0  0  0  0
    4.6970   -0.1321    1.4671 C   0  0  1  0  0  0  0  0  0  0  0  0
    5.1310   -0.9021    2.1364 H   0  0  0  0  0  0  0  0  0  0  0  0
    3.2059   -0.3977    1.2246 C   0  0  0  0  0  0  0  0  0  0  0  0
    2.6367   -0.3843    2.1806 H   0  0  0  0  0  0  0  0  0  0  0  0
    3.0190   -1.4021    0.7882 H   0  0  0  0  0  0  0  0  0  0  0  0
    2.6159    0.6519    0.3184 C   0  0  0  0  0  0  0  0  0  0  0  0
    5.4410    0.1438    0.1079 C   0  0  0  0  0  0  0  0  0  0  0  0
    5.0308   -0.6499   -1.1316 C   0  0  0  0  0  0  0  0  0  0  0  0
    5.4151   -1.6882   -1.0603 H   0  0  0  0  0  0  0  0  0  0  0  0
    5.4686   -0.1938   -2.0441 H   0  0  0  0  0  0  0  0  0  0  0  0
    3.9375   -0.7306   -1.2805 H   0  0  0  0  0  0  0  0  0  0  0  0
    6.9661    0.0870    0.2551 C   0  0  0  0  0  0  0  0  0  0  0  0
    7.2977   -0.9648    0.3749 H   0  0  0  0  0  0  0  0  0  0  0  0
    7.3454    0.6581    1.1244 H   0  0  0  0  0  0  0  0  0  0  0  0
    7.4583    0.4907   -0.6538 H   0  0  0  0  0  0  0  0  0  0  0  0
   -0.7353    1.7025   -0.6618 C   0  0  0  0  0  0  0  0  0  0  0  0
   -1.5288    2.7524   -1.1401 C   0  0  0  0  0  0  0  0  0  0  0  0
   -1.0654    3.5914   -1.6754 H   0  0  0  0  0  0  0  0  0  0  0  0
   -2.9110    2.7259   -0.9151 C   0  0  0  0  0  0  0  0  0  0  0  0
   -3.5557    3.5286   -1.3038 H   0  0  0  0  0  0  0  0  0  0  0  0
   -3.4603    1.6985   -0.1404 C   0  0  0  0  0  0  0  0  0  0  0  0
   -4.9006    1.6211    0.2833 C   0  0  2  0  0  0  0  0  0  0  0  0
   -5.5027    2.4523   -0.1360 H   0  0  0  0  0  0  0  0  0  0  0  0
   -4.9117    1.3631    1.8212 C   0  0  0  0  0  0  0  0  0  0  0  0
   -4.1257    1.8677    2.4192 H   0  0  0  0  0  0  0  0  0  0  0  0
   -5.8976    1.5671    2.2760 H   0  0  0  0  0  0  0  0  0  0  0  0
   -4.6970   -0.1323    1.4671 C   0  0  2  0  0  0  0  0  0  0  0  0
   -5.1310   -0.9024    2.1362 H   0  0  0  0  0  0  0  0  0  0  0  0
   -3.2058   -0.3979    1.2245 C   0  0  0  0  0  0  0  0  0  0  0  0
   -3.0190   -1.4021    0.7879 H   0  0  0  0  0  0  0  0  0  0  0  0
   -2.6367   -0.3847    2.1806 H   0  0  0  0  0  0  0  0  0  0  0  0
   -2.6158    0.6519    0.3185 C   0  0  0  0  0  0  0  0  0  0  0  0
   -5.4408    0.1439    0.1079 C   0  0  0  0  0  0  0  0  0  0  0  0
   -6.9660    0.0870    0.2550 C   0  0  0  0  0  0  0  0  0  0  0  0
   -7.2975   -0.9649    0.3745 H   0  0  0  0  0  0  0  0  0  0  0  0
   -7.4581    0.4908   -0.6540 H   0  0  0  0  0  0  0  0  0  0  0  0
   -7.3454    0.6579    1.1243 H   0  0  0  0  0  0  0  0  0  0  0  0
   -5.0306   -0.6495   -1.1318 C   0  0  0  0  0  0  0  0  0  0  0  0
   -5.4148   -1.6878   -1.0608 H   0  0  0  0  0  0  0  0  0  0  0  0
   -3.9372   -0.7301   -1.2806 H   0  0  0  0  0  0  0  0  0  0  0  0
   -5.4682   -0.1933   -2.0442 H   0  0  0  0  0  0  0  0  0  0  0  0
  1 19  1  0  0  0  0
  2 45  1  0  0  0  0
  3 29  2  0  0  0  0
  3  1  1  0  0  0  0
  4  6  2  0  0  0  0
  4  3  1  0  0  0  0
  5  4  1  0  0  0  0
  6  8  1  0  0  0  0
  7  6  1  0  0  0  0
  8  9  1  0  0  0  0
  8 19  2  0  0  0  0
  9 10  1  6  0  0  0
  9 11  1  0  0  0  0
 11 13  1  0  0  0  0
 11 12  1  0  0  0  0
 14 11  1  0  0  0  0
 14 15  1  1  0  0  0
 16 14  1  0  0  0  0
 16 17  1  0  0  0  0
 18 16  1  0  0  0  0
 19 16  1  0  0  0  0
 20 25  1  0  0  0  0
 20  9  1  0  0  0  0
 20 14  1  0  0  0  0
 21 22  1  0  0  0  0
 21 20  1  0  0  0  0
 23 21  1  0  0  0  0
 24 21  1  0  0  0  0
 25 26  1  0  0  0  0
 25 27  1  0  0  0  0
 28 25  1  0  0  0  0
 29  2  1  0  0  0  0
 30 32  2  0  0  0  0
 30 29  1  0  0  0  0
 31 30  1  0  0  0  0
 32 34  1  0  0  0  0
 33 32  1  0  0  0  0
 34 35  1  0  0  0  0
 34 45  2  0  0  0  0
 35 36  1  6  0  0  0
 35 37  1  0  0  0  0
 37 39  1  0  0  0  0
 37 38  1  0  0  0  0
 40 37  1  0  0  0  0
 40 41  1  1  0  0  0
 42 40  1  0  0  0  0
 42 44  1  0  0  0  0
 43 42  1  0  0  0  0
 45 42  1  0  0  0  0
 46 47  1  0  0  0  0
 46 35  1  0  0  0  0
 46 40  1  0  0  0  0
 47 48  1  0  0  0  0
 47 50  1  0  0  0  0
 49 47  1  0  0  0  0
 51 52  1  0  0  0  0
 51 46  1  0  0  0  0
 53 51  1  0  0  0  0
 54 51  1  0  0  0  0
M  END
