1,13
q = 0.0, confidence = 1.0

 39 41  0  0  1  0  0  0  0  0999 V2000
   -1.1272    1.3239    0.1672 N   0  0  0  0  0  2  0  0  0  0  0  0
    0.8840    0.0041   -0.7267 C   0  0  2  0  0  0  0  0  0  0  0  0
   -1.3967    2.6595    0.4165 C   0  0  0  0  0  0  0  0  0  0  0  0
   -2.3337    2.9763    0.8838 H   0  0  0  0  0  0  0  0  0  0  0  0
   -0.3262    3.4090   -0.0219 C   0  0  0  0  0  0  0  0  0  0  0  0
   -0.1551    4.4898   -0.0256 H   0  0  0  0  0  0  0  0  0  0  0  0
    0.6049    2.5296   -0.5315 N   0  0  0  0  0  0  0  0  0  0  0  0
    1.9010    2.9083   -1.0688 C   0  0  0  0  0  0  0  0  0  0  0  0
    2.6996    2.7969   -0.3076 H   0  0  0  0  0  0  0  0  0  0  0  0
    1.8541    3.9628   -1.3982 H   0  0  0  0  0  0  0  0  0  0  0  0
    2.1437    2.2624   -1.9314 H   0  0  0  0  0  0  0  0  0  0  0  0
    0.0927    1.2522   -0.4050 C   0  0  2  0  0  3  0  0  0  0  0  0
   -1.1269   -1.3245    0.1501 N   0  0  0  0  0  2  0  0  0  0  0  0
   -1.3938   -2.6624    0.3926 C   0  0  0  0  0  0  0  0  0  0  0  0
   -2.3317   -2.9830    0.8554 H   0  0  0  0  0  0  0  0  0  0  0  0
   -0.3171   -3.4072   -0.0385 C   0  0  0  0  0  0  0  0  0  0  0  0
   -0.1418   -4.4874   -0.0430 H   0  0  0  0  0  0  0  0  0  0  0  0
    0.6169   -2.5225   -0.5344 N   0  0  0  0  0  0  0  0  0  0  0  0
    1.9199   -2.8924   -1.0607 C   0  0  0  0  0  0  0  0  0  0  0  0
    2.1707   -2.2415   -1.9174 H   0  0  0  0  0  0  0  0  0  0  0  0
    1.8817   -3.9454   -1.3960 H   0  0  0  0  0  0  0  0  0  0  0  0
    2.7103   -2.7808   -0.2911 H   0  0  0  0  0  0  0  0  0  0  0  0
    0.0996   -1.2474   -0.4066 C   0  0  2  0  0  3  0  0  0  0  0  0
    2.1525    0.0080    0.1543 C   0  0  0  0  0  0  0  0  0  0  0  0
    1.9713    0.0038    1.5528 C   0  0  0  0  0  0  0  0  0  0  0  0
    0.9492   -0.0023    1.9682 H   0  0  0  0  0  0  0  0  0  0  0  0
    3.0841    0.0065    2.4035 C   0  0  0  0  0  0  0  0  0  0  0  0
    2.9343    0.0027    3.4937 H   0  0  0  0  0  0  0  0  0  0  0  0
    4.3845    0.0138    1.8678 C   0  0  0  0  0  0  0  0  0  0  0  0
    5.2578    0.0159    2.5376 H   0  0  0  0  0  0  0  0  0  0  0  0
    4.5637    0.0182    0.4765 C   0  0  0  0  0  0  0  0  0  0  0  0
    5.5791    0.0239    0.0510 H   0  0  0  0  0  0  0  0  0  0  0  0
    3.4505    0.0153   -0.3818 C   0  0  0  0  0  0  0  0  0  0  0  0
    3.5798    0.0179   -1.4729 H   0  0  0  0  0  0  0  0  0  0  0  0
    1.3099    0.0145   -2.1084 O   0  0  0  0  0  0  0  0  0  0  0  0
    0.2288   -0.0910   -3.0364 C   0  0  0  0  0  0  0  0  0  0  0  0
   -0.2089   -1.1137   -3.0418 H   0  0  0  0  0  0  0  0  0  0  0  0
    0.6490    0.1366   -4.0340 H   0  0  0  0  0  0  0  0  0  0  0  0
   -0.5991    0.6127   -2.7984 H   0  0  0  0  0  0  0  0  0  0  0  0
  1  3  1  0  0  0  0
  2 35  1  6  0  0  0
  2 24  1  0  0  0  0
  3  4  1  0  0  0  0
  5  3  2  0  0  0  0
  6  5  1  0  0  0  0
  7 12  1  0  0  0  0
  7  5  1  0  0  0  0
  8  7  1  0  0  0  0
  8  9  1  0  0  0  0
 10  8  1  0  0  0  0
 11  8  1  0  0  0  0
 12  2  1  1  0  0  0
 12  1  1  0  0  0  0
 13 14  1  0  0  0  0
 14 15  1  0  0  0  0
 16 14  2  0  0  0  0
 17 16  1  0  0  0  0
 18 23  1  0  0  0  0
 18 16  1  0  0  0  0
 19 18  1  0  0  0  0
 19 22  1  0  0  0  0
 20 19  1  0  0  0  0
 21 19  1  0  0  0  0
 23  2  1  1  0  0  0
 23 13  1  0  0  0  0
 24 25  1  0  0  0  0
 25 26  1  0  0  0  0
 25 27  2  0  0  0  0
 27 28  1  0  0  0  0
 29 27  1  0  0  0  0
 29 30  1  0  0  0  0
 31 29  2  0  0  0  0
 32 31  1  0  0  0  0
 33 24  2  0  0  0  0
 33 31  1  0  0  0  0
 34 33  1  0  0  0  0
 36 39  1  0  0  0  0
 36 35  1  0  0  0  0
 37 36  1  0  0  0  0
 38 36  1  0  0  0  0
M  END
