1,3
q = 0.0, confidence = 0.944

 42 44  0  0  0  0  0  0  0  0999 V2000
   -0.1066    2.0924    0.7586 N   0  0  0  0  0  2  0  0  0  0  0  0
   -1.2012    2.4898    0.2169 N   0  0  0  0  0  0  0  0  0  0  0  0
   -1.2442    0.4407   -0.8912 N   0  0  0  0  0  2  0  0  0  0  0  0
   -1.9162   -0.5730   -1.4105 N   0  0  0  0  0  0  0  0  0  0  0  0
   -2.9440   -0.5595   -1.3221 H   0  0  0  0  0  0  0  0  0  0  0  0
    0.6228    3.0479    1.4866 C   0  0  0  0  0  0  0  0  0  0  0  0
    1.7380    2.5836    2.2216 C   0  0  0  0  0  0  0  0  0  0  0  0
    2.0064    1.5173    2.1951 H   0  0  0  0  0  0  0  0  0  0  0  0
    2.4988    3.4852    2.9731 C   0  0  0  0  0  0  0  0  0  0  0  0
    3.3665    3.1199    3.5419 H   0  0  0  0  0  0  0  0  0  0  0  0
    2.1578    4.8480    2.9967 C   0  0  0  0  0  0  0  0  0  0  0  0
    2.7606    5.5562    3.5848 H   0  0  0  0  0  0  0  0  0  0  0  0
    1.0485    5.3101    2.2614 C   0  0  0  0  0  0  0  0  0  0  0  0
    0.7879    6.3793    2.2761 H   0  0  0  0  0  0  0  0  0  0  0  0
    0.2815    4.4217    1.5052 C   0  0  0  0  0  0  0  0  0  0  0  0
   -0.5827    4.7561    0.9156 H   0  0  0  0  0  0  0  0  0  0  0  0
   -1.8761    1.5624   -0.5462 C   0  0  0  0  0  0  0  0  0  0  0  0
   -3.2932    1.8655   -0.8460 C   0  0  0  0  0  0  0  0  0  0  0  0
   -3.8783    1.5846   -2.1019 C   0  0  0  0  0  0  0  0  0  0  0  0
   -3.2721    1.1483   -2.9106 H   0  0  0  0  0  0  0  0  0  0  0  0
   -5.2205    1.9019   -2.3465 C   0  0  0  0  0  0  0  0  0  0  0  0
   -5.6529    1.6901   -3.3369 H   0  0  0  0  0  0  0  0  0  0  0  0
   -6.0243    2.5013   -1.3556 C   0  0  0  0  0  0  0  0  0  0  0  0
   -5.4289    2.7887   -0.1078 C   0  0  0  0  0  0  0  0  0  0  0  0
   -6.0326    3.2639    0.6815 H   0  0  0  0  0  0  0  0  0  0  0  0
   -4.0897    2.4817    0.1456 C   0  0  0  0  0  0  0  0  0  0  0  0
   -3.6364    2.7131    1.1202 H   0  0  0  0  0  0  0  0  0  0  0  0
   -7.4755    2.8161   -1.6075 C   0  0  0  0  0  0  0  0  0  0  0  0
   -7.7331    2.7372   -2.6810 H   0  0  0  0  0  0  0  0  0  0  0  0
   -7.7333    3.8380   -1.2629 H   0  0  0  0  0  0  0  0  0  0  0  0
   -8.1350    2.1155   -1.0520 H   0  0  0  0  0  0  0  0  0  0  0  0
   -1.2934   -1.7889   -1.7238 C   0  0  0  0  0  0  0  0  0  0  0  0
    0.0504   -1.8217   -2.1476 C   0  0  0  0  0  0  0  0  0  0  0  0
    0.5895   -0.8820   -2.3240 H   0  0  0  0  0  0  0  0  0  0  0  0
    0.6729   -3.0588   -2.3442 C   0  0  0  0  0  0  0  0  0  0  0  0
    1.7293   -3.0835   -2.6483 H   0  0  0  0  0  0  0  0  0  0  0  0
   -0.0367   -4.2553   -2.1498 C   0  0  0  0  0  0  0  0  0  0  0  0
    0.4640   -5.2243   -2.2891 H   0  0  0  0  0  0  0  0  0  0  0  0
   -1.3910   -4.2109   -1.7765 C   0  0  0  0  0  0  0  0  0  0  0  0
   -1.9520   -5.1442   -1.6204 H   0  0  0  0  0  0  0  0  0  0  0  0
   -2.0277   -2.9830   -1.5653 C   0  0  0  0  0  0  0  0  0  0  0  0
   -3.0742   -2.9455   -1.2255 H   0  0  0  0  0  0  0  0  0  0  0  0
  1  6  1  0  0  0  0
  2  1  1  0  0  0  0
  3 17  1  0  0  0  0
  4  5  1  0  0  0  0
  4  3  1  0  0  0  0
  6 15  2  0  0  0  0
  6  7  1  0  0  0  0
  7  9  2  0  0  0  0
  8  7  1  0  0  0  0
  9 11  1  0  0  0  0
  9 10  1  0  0  0  0
 11 12  1  0  0  0  0
 13 14  1  0  0  0  0
 13 11  2  0  0  0  0
 15 13  1  0  0  0  0
 16 15  1  0  0  0  0
 17  2  2  0  0  0  0
 18 17  1  0  0  0  0
 18 26  1  0  0  0  0
 19 18  2  0  0  0  0
 20 19  1  0  0  0  0
 21 19  1  0  0  0  0
 21 23  2  0  0  0  0
 22 21  1  0  0  0  0
 23 24  1  0  0  0  0
 24 26  2  0  0  0  0
 24 25  1  0  0  0  0
 26 27  1  0  0  0  0
 28 23  1  0  0  0  0
 28 30  1  0  0  0  0
 28 31  1  0  0  0  0
 29 28  1  0  0  0  0
 32 41  1  0  0  0  0
 32  4  1  0  0  0  0
 33 32  2  0  0  0  0
 34 33  1  0  0  0  0
 35 37  2  0  0  0  0
 35 33  1  0  0  0  0
 36 35  1  0  0  0  0
 37 39  1  0  0  0  0
 38 37  1  0  0  0  0
 39 40  1  0  0  0  0
 39 41  2  0  0  0  0
 41 42  1  0  0  0  0
M  END
