1,18
q = 0.0, confidence = 0.994

 40 41  0  0  1  0  0  0  0  0999 V2000
   -1.0286    0.1631    0.0088 N   0  0  0  0  0  2  0  0  0  0  0  0
   -2.3292   -0.1191   -0.0231 C   0  0  0  0  0  3  0  0  0  0  0  0
   -2.6006   -1.1804    0.0870 H   0  0  0  0  0  0  0  0  0  0  0  0
   -3.3224    0.8751   -0.1776 C   0  0  0  0  0  0  0  0  0  0  0  0
   -2.8951    2.2154   -0.3107 C   0  0  0  0  0  0  0  0  0  0  0  0
   -3.6387    3.0111   -0.4373 H   0  0  0  0  0  0  0  0  0  0  0  0
   -1.5267    2.4852   -0.2743 C   0  0  0  0  0  0  0  0  0  0  0  0
   -1.1885    3.5247   -0.3752 H   0  0  0  0  0  0  0  0  0  0  0  0
   -0.5911    1.4470   -0.1059 C   0  0  0  0  0  0  0  0  0  0  0  0
    0.8671    1.6577   -0.0407 C   0  0  2  0  0  3  0  0  0  0  0  0
    1.4692    2.9278   -0.1644 C   0  0  0  0  0  0  0  0  0  0  0  0
    0.8505    3.8220   -0.3134 H   0  0  0  0  0  0  0  0  0  0  0  0
    2.8565    3.0428   -0.1043 C   0  0  0  0  0  0  0  0  0  0  0  0
    3.3654    4.0130   -0.2005 H   0  0  0  0  0  0  0  0  0  0  0  0
    3.6344    1.8848    0.0788 C   0  0  0  0  0  0  0  0  0  0  0  0
    2.9706    0.6529    0.1964 C   0  0  0  0  0  0  0  0  0  0  0  0
    3.5337   -0.2819    0.3282 H   0  0  0  0  0  0  0  0  0  0  0  0
    1.6363    0.5484    0.1430 N   0  0  0  0  0  2  0  0  0  0  0  0
   -4.6491    0.4683   -0.1838 N   0  0  0  0  0  0  0  0  0  0  0  0
   -4.8313   -0.5309   -0.0627 H   0  0  0  0  0  0  0  0  0  0  0  0
   -5.7750    1.2705   -0.3172 C   0  0  0  0  0  0  0  0  0  0  0  0
   -5.7828    2.4812   -0.4564 O   0  0  0  0  0  0  0  0  0  0  0  0
   -6.8720    0.4786   -0.2665 O   0  0  0  0  0  0  0  0  0  0  0  0
   -8.1387    1.1632   -0.3918 C   0  0  0  0  0  0  0  0  0  0  0  0
   -8.1514    1.7165   -1.3546 H   0  0  0  0  0  0  0  0  0  0  0  0
   -8.2167    1.9202    0.4170 H   0  0  0  0  0  0  0  0  0  0  0  0
   -9.2366    0.1239   -0.3128 C   0  0  0  0  0  0  0  0  0  0  0  0
   -9.1419   -0.6196   -1.1286 H   0  0  0  0  0  0  0  0  0  0  0  0
  -10.2251    0.6151   -0.4055 H   0  0  0  0  0  0  0  0  0  0  0  0
   -9.2073   -0.4148    0.6549 H   0  0  0  0  0  0  0  0  0  0  0  0
    5.1225    2.0091    0.1314 C   0  0  0  0  0  0  0  0  0  0  0  0
    5.7169    3.0676    0.0115 O   0  0  0  0  0  0  0  0  0  0  0  0
    5.7157    0.8111    0.3313 O   0  0  0  0  0  0  0  0  0  0  0  0
    7.1630    0.8026    0.3633 C   0  0  0  0  0  0  0  0  0  0  0  0
    7.4195   -0.0839    0.9749 H   0  0  0  0  0  0  0  0  0  0  0  0
    7.5096    1.7196    0.8811 H   0  0  0  0  0  0  0  0  0  0  0  0
    7.7470    0.7096   -1.0363 C   0  0  0  0  0  0  0  0  0  0  0  0
    7.3565   -0.1779   -1.5723 H   0  0  0  0  0  0  0  0  0  0  0  0
    8.8505    0.6218   -0.9779 H   0  0  0  0  0  0  0  0  0  0  0  0
    7.5061    1.6174   -1.6228 H   0  0  0  0  0  0  0  0  0  0  0  0
  2  1  1  0  0  0  0
  2  3  1  0  0  0  0
  4  2  1  0  0  0  0
  5  7  1  0  0  0  0
  5  4  2  0  0  0  0
  6  5  1  0  0  0  0
  7  9  2  0  0  0  0
  8  7  1  0  0  0  0
  9  1  1  0  0  0  0
 10  9  1  6  0  0  0
 10 18  1  0  0  0  0
 11 13  2  0  0  0  0
 11 10  1  0  0  0  0
 12 11  1  0  0  0  0
 13 15  1  0  0  0  0
 14 13  1  0  0  0  0
 15 31  1  0  0  0  0
 15 16  2  0  0  0  0
 16 17  1  0  0  0  0
 18 16  1  0  0  0  0
 19  4  1  0  0  0  0
 19 20  1  0  0  0  0
 21 23  1  0  0  0  0
 21 19  1  0  0  0  0
 22 21  2  0  0  0  0
 24 27  1  0  0  0  0
 24 23  1  0  0  0  0
 24 26  1  0  0  0  0
 25 24  1  0  0  0  0
 27 30  1  0  0  0  0
 28 27  1  0  0  0  0
 29 27  1  0  0  0  0
 31 33  1  0  0  0  0
 32 31  2  0  0  0  0
 33 34  1  0  0  0  0
 34 36  1  0  0  0  0
 34 35  1  0  0  0  0
 37 39  1  0  0  0  0
 37 34  1  0  0  0  0
 38 37  1  0  0  0  0
 40 37  1  0  0  0  0
M  END
