1,2
q = -1.0, confidence = 0.0

 27 29  0  0  0  0  0  0  0  0999 V2000
    0.2238    1.5628   -1.3652 N   0  0  0  0  0  2  0  0  0  0  0  0
    1.9069    0.1058   -0.0969 N   0  0  0  0  0  0  0  0  0  0  0  0
    2.7467   -0.7691    0.3923 N   0  0  0  0  0  2  0  0  0  0  0  0
   -0.7739    2.2838   -1.9003 C   0  0  0  0  0  3  0  0  0  0  0  0
   -1.7834    2.0874   -1.5101 H   0  0  0  0  0  0  0  0  0  0  0  0
   -0.5403    3.2243   -2.9086 C   0  0  0  0  0  0  0  0  0  0  0  0
   -1.3800    3.7964   -3.3263 H   0  0  0  0  0  0  0  0  0  0  0  0
    0.7758    3.4066   -3.3677 C   0  0  0  0  0  0  0  0  0  0  0  0
    0.9910    4.1352   -4.1632 H   0  0  0  0  0  0  0  0  0  0  0  0
    1.8121    2.6552   -2.8071 C   0  0  0  0  0  0  0  0  0  0  0  0
    2.8521    2.7739   -3.1408 H   0  0  0  0  0  0  0  0  0  0  0  0
    1.5140    1.7238   -1.7935 C   0  0  0  0  0  0  0  0  0  0  0  0
    2.4531    0.8544   -1.1212 C   0  0  0  0  0  0  0  0  0  0  0  0
    3.7962    0.4754   -1.2140 C   0  0  0  0  0  0  0  0  0  0  0  0
    4.5578    0.8737   -1.8915 H   0  0  0  0  0  0  0  0  0  0  0  0
    3.9426   -0.5633   -0.2436 C   0  0  0  0  0  0  0  0  0  0  0  0
    5.1364   -1.3243    0.1223 C   0  0  0  0  0  0  0  0  0  0  0  0
    6.4038   -0.9892   -0.4127 C   0  0  0  0  0  0  0  0  0  0  0  0
    6.5056   -0.1305   -1.0924 H   0  0  0  0  0  0  0  0  0  0  0  0
    7.5349   -1.7430   -0.0823 C   0  0  0  0  0  0  0  0  0  0  0  0
    8.5133   -1.4755   -0.5081 H   0  0  0  0  0  0  0  0  0  0  0  0
    7.4235   -2.8351    0.7954 C   0  0  0  0  0  0  0  0  0  0  0  0
    8.3151   -3.4236    1.0583 H   0  0  0  0  0  0  0  0  0  0  0  0
    6.1712   -3.1696    1.3416 C   0  0  0  0  0  0  0  0  0  0  0  0
    6.0819   -4.0225    2.0308 H   0  0  0  0  0  0  0  0  0  0  0  0
    5.0374   -2.4217    1.0123 C   0  0  0  0  0  0  0  0  0  0  0  0
    4.0554   -2.6755    1.4357 H   0  0  0  0  0  0  0  0  0  0  0  0
  2  3  1  0  0  0  0
  4  5  1  0  0  0  0
  4  1  1  0  0  0  0
  6  4  1  0  0  0  0
  7  6  1  0  0  0  0
  8  6  2  0  0  0  0
  8 10  1  0  0  0  0
  9  8  1  0  0  0  0
 10 12  2  0  0  0  0
 11 10  1  0  0  0  0
 12  1  1  0  0  0  0
 12 13  1  0  0  0  0
 13  2  2  0  0  0  0
 14 13  1  0  0  0  0
 14 16  2  0  0  0  0
 15 14  1  0  0  0  0
 16 17  1  0  0  0  0
 16  3  1  0  0  0  0
 17 26  1  0  0  0  0
 18 20  1  0  0  0  0
 18 17  2  0  0  0  0
 19 18  1  0  0  0  0
 20 22  2  0  0  0  0
 21 20  1  0  0  0  0
 22 23  1  0  0  0  0
 22 24  1  0  0  0  0
 24 25  1  0  0  0  0
 26 24  2  0  0  0  0
 26 27  1  0  0  0  0
M  END
