1,2
q = 0.0, confidence = 0.63

 30 31  0  0  1  0  0  0  0  0999 V2000
   -0.6468    0.8758    0.9857 N   0  0  0  0  0  2  0  0  0  0  0  0
   -0.6926   -1.1817   -0.3764 N   0  0  0  0  0  2  0  0  0  0  0  0
   -2.0418    0.5054    0.7256 C   0  0  2  0  0  0  0  0  0  0  0  0
   -2.0031   -0.5284   -0.4510 C   0  0  2  0  0  0  0  0  0  0  0  0
   -2.9554    1.6725    0.4186 C   0  0  0  0  0  0  0  0  0  0  0  0
   -2.4788    2.8079   -0.2681 C   0  0  0  0  0  0  0  0  0  0  0  0
   -3.3447    3.8626   -0.5956 C   0  0  0  0  0  0  0  0  0  0  0  0
   -4.7028    3.7949   -0.2464 C   0  0  0  0  0  0  0  0  0  0  0  0
   -5.1872    2.6684    0.4381 C   0  0  0  0  0  0  0  0  0  0  0  0
   -4.3188    1.6184    0.7708 C   0  0  0  0  0  0  0  0  0  0  0  0
   -3.1653   -1.5007   -0.4022 C   0  0  0  0  0  0  0  0  0  0  0  0
   -4.3355   -1.2604   -1.1476 C   0  0  0  0  0  0  0  0  0  0  0  0
   -5.4322   -2.1315   -1.0580 C   0  0  0  0  0  0  0  0  0  0  0  0
   -5.3693   -3.2579   -0.2225 C   0  0  0  0  0  0  0  0  0  0  0  0
   -4.2038   -3.5075    0.5217 C   0  0  0  0  0  0  0  0  0  0  0  0
   -3.1099   -2.6347    0.4333 C   0  0  0  0  0  0  0  0  0  0  0  0
   -0.5349    1.8210    1.3735 H   0  0  0  0  0  0  0  0  0  0  0  0
   -0.5622   -1.8686   -1.1314 H   0  0  0  0  0  0  0  0  0  0  0  0
   -2.4556   -0.0348    1.6113 H   0  0  0  0  0  0  0  0  0  0  0  0
   -2.0919    0.0528   -1.4017 H   0  0  0  0  0  0  0  0  0  0  0  0
   -1.4140    2.8617   -0.5432 H   0  0  0  0  0  0  0  0  0  0  0  0
   -2.9551    4.7442   -1.1277 H   0  0  0  0  0  0  0  0  0  0  0  0
   -5.3826    4.6218   -0.5028 H   0  0  0  0  0  0  0  0  0  0  0  0
   -6.2497    2.6090    0.7202 H   0  0  0  0  0  0  0  0  0  0  0  0
   -4.6987    0.7365    1.3096 H   0  0  0  0  0  0  0  0  0  0  0  0
   -4.3843   -0.3753   -1.8017 H   0  0  0  0  0  0  0  0  0  0  0  0
   -6.3403   -1.9312   -1.6473 H   0  0  0  0  0  0  0  0  0  0  0  0
   -6.2271   -3.9444   -0.1543 H   0  0  0  0  0  0  0  0  0  0  0  0
   -4.1472   -4.3911    1.1761 H   0  0  0  0  0  0  0  0  0  0  0  0
   -2.1900   -2.8231    1.0086 H   0  0  0  0  0  0  0  0  0  0  0  0
  1 17  1  0  0  0  0
  3  1  1  0  0  0  0
  3 19  1  1  0  0  0
  4 20  1  6  0  0  0
  4 11  1  0  0  0  0
  4  2  1  0  0  0  0
  4  3  1  0  0  0  0
  5  3  1  0  0  0  0
  5 10  1  0  0  0  0
  6  5  2  0  0  0  0
  7  6  1  0  0  0  0
  7  8  2  0  0  0  0
  8  9  1  0  0  0  0
  9 24  1  0  0  0  0
  9 10  2  0  0  0  0
 10 25  1  0  0  0  0
 11 16  1  0  0  0  0
 12 13  1  0  0  0  0
 12 11  2  0  0  0  0
 13 14  2  0  0  0  0
 14 28  1  0  0  0  0
 14 15  1  0  0  0  0
 15 29  1  0  0  0  0
 16 15  2  0  0  0  0
 16 30  1  0  0  0  0
 18  2  1  0  0  0  0
 21  6  1  0  0  0  0
 22  7  1  0  0  0  0
 23  8  1  0  0  0  0
 26 12  1  0  0  0  0
 27 13  1  0  0  0  0
M  END
