1,23
q = -1.0, confidence = 0.0

 42 47  0  0  1  0  0  0  0  0999 V2000
    0.8557   -1.3667   -1.1675 N   0  0  0  0  0  2  0  0  0  0  0  0
    0.7934   -2.6784   -0.9481 C   0  0  2  0  0  3  0  0  0  0  0  0
    1.5744   -3.4197   -1.7935 O   0  0  0  0  0  0  0  0  0  0  0  0
    2.3581   -2.5025   -2.5857 C   0  0  1  0  0  0  0  0  0  0  0  0
    2.2849   -2.8379   -3.6382 H   0  0  0  0  0  0  0  0  0  0  0  0
    1.7034   -1.1122   -2.3290 C   0  0  2  0  0  0  0  0  0  0  0  0
    1.0816   -0.7500   -3.1815 H   0  0  0  0  0  0  0  0  0  0  0  0
    3.8323   -2.3875   -2.1162 C   0  0  0  0  0  0  0  0  0  0  0  0
    3.9413   -2.8983   -1.1352 H   0  0  0  0  0  0  0  0  0  0  0  0
    4.5413   -2.8749   -2.8157 H   0  0  0  0  0  0  0  0  0  0  0  0
    4.0692   -0.9004   -1.9697 C   0  0  0  0  0  0  0  0  0  0  0  0
    2.8622   -0.1807   -2.0622 C   0  0  0  0  0  0  0  0  0  0  0  0
    2.8290    1.2099   -1.8964 C   0  0  0  0  0  0  0  0  0  0  0  0
    1.8759    1.7589   -1.9444 H   0  0  0  0  0  0  0  0  0  0  0  0
    4.0365    1.8890   -1.6612 C   0  0  0  0  0  0  0  0  0  0  0  0
    4.0317    2.9833   -1.5408 H   0  0  0  0  0  0  0  0  0  0  0  0
    5.2488    1.1794   -1.5931 C   0  0  0  0  0  0  0  0  0  0  0  0
    6.1893    1.7234   -1.4153 H   0  0  0  0  0  0  0  0  0  0  0  0
    5.2722   -0.2182   -1.7411 C   0  0  0  0  0  0  0  0  0  0  0  0
    6.2238   -0.7674   -1.6704 H   0  0  0  0  0  0  0  0  0  0  0  0
    0.0004   -3.3591   -0.0022 C   0  0  0  0  0  0  0  0  0  0  0  0
    0.0008   -4.4537   -0.0028 H   0  0  0  0  0  0  0  0  0  0  0  0
   -0.8561   -1.3685    1.1650 N   0  0  0  0  0  2  0  0  0  0  0  0
   -0.7929   -2.6800    0.9446 C   0  0  0  0  0  0  0  0  0  0  0  0
   -1.5733   -3.4225    1.7894 O   0  0  0  0  0  0  0  0  0  0  0  0
   -2.3577   -2.5064    2.5821 C   0  0  1  0  0  0  0  0  0  0  0  0
   -2.2851   -2.8428    3.6344 H   0  0  0  0  0  0  0  0  0  0  0  0
   -1.7034   -1.1156    2.3273 C   0  0  2  0  0  0  0  0  0  0  0  0
   -1.0813   -0.7545    3.1800 H   0  0  0  0  0  0  0  0  0  0  0  0
   -3.8317   -2.3912    2.1119 C   0  0  0  0  0  0  0  0  0  0  0  0
   -3.9397   -2.8999    1.1296 H   0  0  0  0  0  0  0  0  0  0  0  0
   -4.5410   -2.8806    2.8097 H   0  0  0  0  0  0  0  0  0  0  0  0
   -4.0693   -0.9040    1.9683 C   0  0  0  0  0  0  0  0  0  0  0  0
   -2.8625   -0.1840    2.0621 C   0  0  0  0  0  0  0  0  0  0  0  0
   -2.8297    1.2069    1.8989 C   0  0  0  0  0  0  0  0  0  0  0  0
   -1.8767    1.7561    1.9479 H   0  0  0  0  0  0  0  0  0  0  0  0
   -4.0374    1.8860    1.6649 C   0  0  0  0  0  0  0  0  0  0  0  0
   -4.0330    2.9805    1.5465 H   0  0  0  0  0  0  0  0  0  0  0  0
   -5.2495    1.1761    1.5953 C   0  0  0  0  0  0  0  0  0  0  0  0
   -6.1902    1.7201    1.4185 H   0  0  0  0  0  0  0  0  0  0  0  0
   -5.2725   -0.2217    1.7408 C   0  0  0  0  0  0  0  0  0  0  0  0
   -6.2238   -0.7712    1.6690 H   0  0  0  0  0  0  0  0  0  0  0  0
  1  2  1  0  0  0  0
  2 21  1  6  0  0  0
  3  2  1  0  0  0  0
  4  5  1  6  0  0  0
  4  6  1  0  0  0  0
  4  8  1  0  0  0  0
  4  3  1  0  0  0  0
  6  7  1  6  0  0  0
  6 12  1  0  0  0  0
  6  1  1  0  0  0  0
  8 11  1  0  0  0  0
  8  9  1  0  0  0  0
 10  8  1  0  0  0  0
 11 19  1  0  0  0  0
 12 11  2  0  0  0  0
 12 13  1  0  0  0  0
 13 15  2  0  0  0  0
 14 13  1  0  0  0  0
 15 17  1  0  0  0  0
 15 16  1  0  0  0  0
 17 18  1  0  0  0  0
 19 20  1  0  0  0  0
 19 17  2  0  0  0  0
 21 24  2  0  0  0  0
 22 21  1  0  0  0  0
 23 28  1  0  0  0  0
 24 23  1  0  0  0  0
 24 25  1  0  0  0  0
 25 26  1  0  0  0  0
 26 27  1  1  0  0  0
 28 26  1  0  0  0  0
 28 29  1  1  0  0  0
 30 26  1  0  0  0  0
 30 32  1  0  0  0  0
 31 30  1  0  0  0  0
 33 34  1  0  0  0  0
 33 30  1  0  0  0  0
 34 28  1  0  0  0  0
 35 36  1  0  0  0  0
 35 34  2  0  0  0  0
 37 35  1  0  0  0  0
 38 37  1  0  0  0  0
 39 37  2  0  0  0  0
 39 41  1  0  0  0  0
 40 39  1  0  0  0  0
 41 33  2  0  0  0  0
 42 41  1  0  0  0  0
M  END
