3,4
q = 0.0, confidence = 0.998

 28 30  0  0  0  0  0  0  0  0999 V2000
    3.4398   -3.8147   -0.2721 Cl  0  0  0  0  0  0  0  0  0  0  0  0
    3.4390    3.8154   -0.2724 Cl  0  0  0  0  0  0  0  0  0  0  0  0
   -0.3035    1.3360    0.4061 N   0  0  0  0  0  2  0  0  0  0  0  0
   -0.3033   -1.3360    0.4059 N   0  0  0  0  0  2  0  0  0  0  0  0
   -0.3126   -2.6617    0.6680 C   0  0  0  0  0  0  0  0  0  0  0  0
    0.8583   -3.4354    0.4504 C   0  0  0  0  0  0  0  0  0  0  0  0
    0.8241   -4.5177    0.6320 H   0  0  0  0  0  0  0  0  0  0  0  0
    2.0370   -2.8402    0.0225 C   0  0  0  0  0  0  0  0  0  0  0  0
    2.1025   -1.4232   -0.1245 C   0  0  0  0  0  0  0  0  0  0  0  0
    3.2922   -0.6875   -0.4347 C   0  0  0  0  0  0  0  0  0  0  0  0
    4.2115   -1.2510   -0.6452 H   0  0  0  0  0  0  0  0  0  0  0  0
    3.2921    0.6881   -0.4347 C   0  0  0  0  0  0  0  0  0  0  0  0
    4.2113    1.2518   -0.6453 H   0  0  0  0  0  0  0  0  0  0  0  0
    2.1022    1.4236   -0.1245 C   0  0  0  0  0  0  0  0  0  0  0  0
    2.0364    2.8406    0.0224 C   0  0  0  0  0  0  0  0  0  0  0  0
    0.8576    3.4356    0.4503 C   0  0  0  0  0  0  0  0  0  0  0  0
    0.8232    4.5179    0.6318 H   0  0  0  0  0  0  0  0  0  0  0  0
   -0.3131    2.6616    0.6681 C   0  0  0  0  0  0  0  0  0  0  0  0
    0.8835    0.7207    0.0975 C   0  0  0  0  0  0  0  0  0  0  0  0
    0.8837   -0.7205    0.0975 C   0  0  0  0  0  0  0  0  0  0  0  0
   -1.5453   -3.2951    1.2166 C   0  0  0  0  0  0  0  0  0  0  0  0
   -1.8934   -2.7315    2.1060 H   0  0  0  0  0  0  0  0  0  0  0  0
   -1.3667   -4.3504    1.4893 H   0  0  0  0  0  0  0  0  0  0  0  0
   -2.3706   -3.2083    0.4742 H   0  0  0  0  0  0  0  0  0  0  0  0
   -1.5459    3.2948    1.2167 C   0  0  0  0  0  0  0  0  0  0  0  0
   -2.3710    3.2084    0.4742 H   0  0  0  0  0  0  0  0  0  0  0  0
   -1.3673    4.3500    1.4900 H   0  0  0  0  0  0  0  0  0  0  0  0
   -1.8942    2.7308    2.1058 H   0  0  0  0  0  0  0  0  0  0  0  0
  1  8  1  0  0  0  0
  2 15  1  0  0  0  0
  3 18  1  0  0  0  0
  4  5  1  0  0  0  0
  5 21  1  0  0  0  0
  6  7  1  0  0  0  0
  6  5  2  0  0  0  0
  8  6  1  0  0  0  0
  9  8  2  0  0  0  0
  9 20  1  0  0  0  0
 10  9  1  0  0  0  0
 11 10  1  0  0  0  0
 12 10  2  0  0  0  0
 12 14  1  0  0  0  0
 13 12  1  0  0  0  0
 14 15  2  0  0  0  0
 14 19  1  0  0  0  0
 15 16  1  0  0  0  0
 16 17  1  0  0  0  0
 16 18  2  0  0  0  0
 18 25  1  0  0  0  0
 19  3  1  0  0  0  0
 20 19  2  0  0  0  0
 20  4  1  0  0  0  0
 21 23  1  0  0  0  0
 21 22  1  0  0  0  0
 24 21  1  0  0  0  0
 25 27  1  0  0  0  0
 25 28  1  0  0  0  0
 26 25  1  0  0  0  0
M  END
