2,5
q = -1.0, confidence = 0.02

 25 26  0  0  1  0  0  0  0  0999 V2000
   -5.6334   -3.0084   -0.4284 Cl  0  0  0  0  0  0  0  0  0  0  0  0
   -1.8480   -0.7617    0.2329 N   0  0  0  0  0  2  0  0  0  0  0  0
   -3.7469   -1.9378    1.0680 N   0  0  0  0  0  0  0  0  0  0  0  0
   -1.5086   -0.4631   -2.0933 N   0  0  0  0  0  2  0  0  0  0  0  0
   -0.3956    0.1707   -1.7022 N   0  0  0  0  0  2  0  0  0  0  0  0
    1.7802    1.8025   -1.0150 N   0  0  0  0  0  0  0  0  0  0  0  0
    4.0276    1.7115   -2.7055 N   0  0  0  0  0  0  0  0  0  0  0  0
   -2.6064   -1.2611    1.2148 C   0  0  0  0  0  3  0  0  0  0  0  0
   -2.2481   -1.0897    2.2464 H   0  0  0  0  0  0  0  0  0  0  0  0
   -4.1439   -2.1261   -0.1999 C   0  0  0  0  0  0  0  0  0  0  0  0
   -3.4516   -1.6684   -1.3175 C   0  0  0  0  0  0  0  0  0  0  0  0
   -3.7947   -1.8409   -2.3448 H   0  0  0  0  0  0  0  0  0  0  0  0
   -2.2484   -0.9500   -1.0689 C   0  0  0  0  0  0  0  0  0  0  0  0
    0.4430    0.5927   -2.6444 C   0  0  1  0  0  3  0  0  0  0  0  0
    1.7025    1.2245   -2.2395 C   0  0  0  0  0  0  0  0  0  0  0  0
    2.8482    1.2070   -3.0819 C   0  0  0  0  0  0  0  0  0  0  0  0
    2.8053    0.7478   -4.0843 H   0  0  0  0  0  0  0  0  0  0  0  0
    4.0913    2.2503   -1.4765 C   0  0  0  0  0  0  0  0  0  0  0  0
    5.0608    2.6665   -1.1513 H   0  0  0  0  0  0  0  0  0  0  0  0
    2.9631    2.2966   -0.6386 C   0  0  0  0  0  0  0  0  0  0  0  0
    3.0164    2.7579    0.3642 H   0  0  0  0  0  0  0  0  0  0  0  0
    0.1200    0.3261   -4.0850 C   0  0  0  0  0  0  0  0  0  0  0  0
   -0.9460    0.5614   -4.2724 H   0  0  0  0  0  0  0  0  0  0  0  0
    0.2287   -0.7540   -4.3252 H   0  0  0  0  0  0  0  0  0  0  0  0
    0.7559    0.9129   -4.7708 H   0  0  0  0  0  0  0  0  0  0  0  0
  1 10  1  0  0  0  0
  2  8  1  0  0  0  0
  3  8  1  0  0  0  0
  4  5  1  0  0  0  0
  4 13  1  0  0  0  0
  6 20  1  0  0  0  0
  7 18  1  0  0  0  0
  8  9  1  0  0  0  0
 10  3  2  0  0  0  0
 11 13  2  0  0  0  0
 11 10  1  0  0  0  0
 12 11  1  0  0  0  0
 13  2  1  0  0  0  0
 14 15  1  0  0  0  0
 14  5  1  1  0  0  0
 15  6  2  0  0  0  0
 16  7  2  0  0  0  0
 16 15  1  0  0  0  0
 17 16  1  0  0  0  0
 18 19  1  0  0  0  0
 18 20  2  0  0  0  0
 20 21  1  0  0  0  0
 22 14  1  0  0  0  0
 23 22  1  0  0  0  0
 24 22  1  0  0  0  0
 25 22  1  0  0  0  0
M  END
