1,15
q = 0.0, confidence = 1.0

 28 29  0  0  1  0  0  0  0  0999 V2000
   -0.6033   -1.5697    1.6300 N   0  0  0  0  0  2  0  0  0  0  0  0
    0.2254   -2.4662    2.2227 C   0  0  1  0  0  3  0  0  0  0  0  0
   -0.1462   -3.1160    3.4155 C   0  0  0  0  0  0  0  0  0  0  0  0
    0.5416   -3.8462    3.8654 H   0  0  0  0  0  0  0  0  0  0  0  0
   -1.3843   -2.8341    3.9998 C   0  0  0  0  0  0  0  0  0  0  0  0
   -1.6847   -3.3294    4.9354 H   0  0  0  0  0  0  0  0  0  0  0  0
   -2.2378   -1.9193    3.3667 C   0  0  0  0  0  0  0  0  0  0  0  0
   -3.2280   -1.6751    3.7755 H   0  0  0  0  0  0  0  0  0  0  0  0
   -1.8065   -1.3139    2.1839 C   0  0  0  0  0  0  0  0  0  0  0  0
   -2.4535   -0.6121    1.6405 H   0  0  0  0  0  0  0  0  0  0  0  0
    1.4778   -2.8213    1.5072 C   0  0  0  0  0  0  0  0  0  0  0  0
    2.2330   -3.2515    2.1910 H   0  0  0  0  0  0  0  0  0  0  0  0
    1.9044   -1.9594    0.9614 H   0  0  0  0  0  0  0  0  0  0  0  0
    1.1436   -4.3171    0.1673 Se  0  0  0  0  0  0  0  0  0  0  0  0
    0.6028   -1.5702   -1.6298 N   0  0  0  0  0  2  0  0  0  0  0  0
   -0.2264   -2.4662   -2.2227 C   0  0  1  0  0  3  0  0  0  0  0  0
    0.1451   -3.1166   -3.4152 C   0  0  0  0  0  0  0  0  0  0  0  0
   -0.5432   -3.8463   -3.8652 H   0  0  0  0  0  0  0  0  0  0  0  0
    1.3837   -2.8359   -3.9990 C   0  0  0  0  0  0  0  0  0  0  0  0
    1.6842   -3.3318   -4.9343 H   0  0  0  0  0  0  0  0  0  0  0  0
    2.2378   -1.9218   -3.3657 C   0  0  0  0  0  0  0  0  0  0  0  0
    3.2285   -1.6786   -3.7741 H   0  0  0  0  0  0  0  0  0  0  0  0
    1.8065   -1.3157   -2.1833 C   0  0  0  0  0  0  0  0  0  0  0  0
    2.4539   -0.6143   -1.6398 H   0  0  0  0  0  0  0  0  0  0  0  0
   -1.4795   -2.8199   -1.5077 C   0  0  0  0  0  0  0  0  0  0  0  0
   -2.2348   -3.2495   -2.1916 H   0  0  0  0  0  0  0  0  0  0  0  0
   -1.9054   -1.9575   -0.9621 H   0  0  0  0  0  0  0  0  0  0  0  0
   -1.1472   -4.3156   -0.1671 Se  0  0  0  0  0  0  0  0  0  0  0  0
  1  9  1  0  0  0  0
  1  2  1  0  0  0  0
  2 11  1  6  0  0  0
  2  3  1  0  0  0  0
  3  4  1  0  0  0  0
  3  5  2  0  0  0  0
  5  6  1  0  0  0  0
  7  8  1  0  0  0  0
  7  5  1  0  0  0  0
  9  7  2  0  0  0  0
 10  9  1  0  0  0  0
 11 12  1  0  0  0  0
 13 11  1  0  0  0  0
 14 11  1  0  0  0  0
 16 15  1  0  0  0  0
 16 25  1  1  0  0  0
 17 16  1  0  0  0  0
 18 17  1  0  0  0  0
 19 17  2  0  0  0  0
 19 21  1  0  0  0  0
 20 19  1  0  0  0  0
 21 23  2  0  0  0  0
 22 21  1  0  0  0  0
 23 24  1  0  0  0  0
 23 15  1  0  0  0  0
 25 27  1  0  0  0  0
 25 28  1  0  0  0  0
 26 25  1  0  0  0  0
 28 14  1  0  0  0  0
M  END
