6,16
q = 0.0, confidence = 0.998

 25 26  0  0  1  0  0  0  0  0999 V2000
   -0.7210   -1.4763    1.5393 Se  0  0  0  0  0  0  0  0  0  0  0  0
    0.0010   -2.4905   -0.0023 C   0  0  0  0  0  0  0  0  0  0  0  0
   -0.7927   -3.1319   -0.4307 H   0  0  0  0  0  0  0  0  0  0  0  0
    0.7948   -3.1327    0.4249 H   0  0  0  0  0  0  0  0  0  0  0  0
    0.7232   -1.4734   -1.5419 Se  0  0  0  0  0  0  0  0  0  0  0  0
   -1.8212    0.4175   -0.2116 N   0  0  0  0  0  2  0  0  0  0  0  0
   -2.1512   -0.6503    0.5380 C   0  0  1  0  0  3  0  0  0  0  0  0
   -3.4530   -1.1756    0.5498 C   0  0  0  0  0  0  0  0  0  0  0  0
   -3.6840   -2.0498    1.1743 H   0  0  0  0  0  0  0  0  0  0  0  0
   -4.4277   -0.5656   -0.2548 C   0  0  0  0  0  0  0  0  0  0  0  0
   -5.4596   -0.9489   -0.2604 H   0  0  0  0  0  0  0  0  0  0  0  0
   -4.0647    0.5247   -1.0587 C   0  0  0  0  0  0  0  0  0  0  0  0
   -4.7951    1.0200   -1.7143 H   0  0  0  0  0  0  0  0  0  0  0  0
   -2.7441    0.9873   -1.0125 C   0  0  0  0  0  0  0  0  0  0  0  0
   -2.3655    1.8263   -1.6244 H   0  0  0  0  0  0  0  0  0  0  0  0
    1.8209    0.4192    0.2118 N   0  0  0  0  0  2  0  0  0  0  0  0
    2.1522   -0.6478   -0.5383 C   0  0  1  0  0  3  0  0  0  0  0  0
    3.4541   -1.1728   -0.5489 C   0  0  0  0  0  0  0  0  0  0  0  0
    3.6861   -2.0465   -1.1739 H   0  0  0  0  0  0  0  0  0  0  0  0
    4.4276   -0.5634    0.2576 C   0  0  0  0  0  0  0  0  0  0  0  0
    5.4596   -0.9465    0.2642 H   0  0  0  0  0  0  0  0  0  0  0  0
    4.0633    0.5261    1.0620 C   0  0  0  0  0  0  0  0  0  0  0  0
    4.7927    1.0210    1.7190 H   0  0  0  0  0  0  0  0  0  0  0  0
    2.7426    0.9885    1.0144 C   0  0  0  0  0  0  0  0  0  0  0  0
    2.3630    1.8267    1.6268 H   0  0  0  0  0  0  0  0  0  0  0  0
  2  4  1  0  0  0  0
  2  1  1  0  0  0  0
  3  2  1  0  0  0  0
  5  2  1  0  0  0  0
  6  7  1  0  0  0  0
  7  8  1  0  0  0  0
  7  1  1  6  0  0  0
  8  9  1  0  0  0  0
 10  8  2  0  0  0  0
 11 10  1  0  0  0  0
 12 14  2  0  0  0  0
 12 10  1  0  0  0  0
 13 12  1  0  0  0  0
 14  6  1  0  0  0  0
 15 14  1  0  0  0  0
 16 24  1  0  0  0  0
 17  5  1  1  0  0  0
 17 16  1  0  0  0  0
 18 17  1  0  0  0  0
 18 20  2  0  0  0  0
 19 18  1  0  0  0  0
 20 21  1  0  0  0  0
 20 22  1  0  0  0  0
 22 23  1  0  0  0  0
 24 22  2  0  0  0  0
 24 25  1  0  0  0  0
M  END
