1,11
q = 0.0, confidence = 1.0

 22 23  0  0  0  0  0  0  0  0999 V2000
   -0.4954    1.9118   -1.1238 N   0  0  0  0  0  2  0  0  0  0  0  0
   -0.3166    2.3204   -2.3964 C   0  0  0  0  0  3  0  0  0  0  0  0
    0.2443    1.6295   -3.0456 H   0  0  0  0  0  0  0  0  0  0  0  0
   -0.8118    3.5461   -2.8538 C   0  0  0  0  0  0  0  0  0  0  0  0
   -0.6566    3.8438   -3.9000 H   0  0  0  0  0  0  0  0  0  0  0  0
   -1.5006    4.3695   -1.9504 C   0  0  0  0  0  0  0  0  0  0  0  0
   -1.9050    5.3406   -2.2740 H   0  0  0  0  0  0  0  0  0  0  0  0
   -1.6378    3.9621   -0.6161 C   0  0  0  0  0  0  0  0  0  0  0  0
   -2.1210    4.6057    0.1326 H   0  0  0  0  0  0  0  0  0  0  0  0
   -1.1114    2.7152   -0.2381 C   0  0  0  0  0  0  0  0  0  0  0  0
    0.5668   -0.9589    1.0379 N   0  0  0  0  0  2  0  0  0  0  0  0
    0.6401   -2.3058    1.0575 C   0  0  0  0  0  3  0  0  0  0  0  0
    0.2157   -2.8312    0.1899 H   0  0  0  0  0  0  0  0  0  0  0  0
    1.2116   -3.0013    2.1274 C   0  0  0  0  0  0  0  0  0  0  0  0
    1.2629   -4.0981    2.0955 H   0  0  0  0  0  0  0  0  0  0  0  0
    1.6986   -2.2743    3.2200 C   0  0  0  0  0  0  0  0  0  0  0  0
    2.1465   -2.7887    4.0835 H   0  0  0  0  0  0  0  0  0  0  0  0
    1.5849   -0.8769    3.2153 C   0  0  0  0  0  0  0  0  0  0  0  0
    1.9188   -0.2714    4.0696 H   0  0  0  0  0  0  0  0  0  0  0  0
    1.0199   -0.2545    2.0915 C   0  0  0  0  0  0  0  0  0  0  0  0
    1.0004    1.6822    2.0506 Se  0  0  0  0  0  0  0  0  0  0  0  0
   -1.2600    2.1478    1.6089 Se  0  0  0  0  0  0  0  0  0  0  0  0
  1 10  1  0  0  0  0
  2  1  1  0  0  0  0
  3  2  1  0  0  0  0
  4  2  1  0  0  0  0
  4  6  2  0  0  0  0
  5  4  1  0  0  0  0
  6  8  1  0  0  0  0
  7  6  1  0  0  0  0
  8 10  2  0  0  0  0
  8  9  1  0  0  0  0
 10 22  1  0  0  0  0
 11 12  1  0  0  0  0
 11 20  1  0  0  0  0
 12 14  1  0  0  0  0
 13 12  1  0  0  0  0
 14 16  2  0  0  0  0
 15 14  1  0  0  0  0
 16 17  1  0  0  0  0
 18 16  1  0  0  0  0
 18 19  1  0  0  0  0
 20 18  2  0  0  0  0
 21 20  1  0  0  0  0
 22 21  1  0  0  0  0
M  END
