6,8
q = -1.0

 56 61  0  0  1  0  0  0  0  0999 V2000
   -0.6209   -0.6359    3.0289 B   0  0  1  0  0  0  0  0  0  0  0  0
   -0.7625   -0.8807    4.2164 H   0  0  0  0  0  0  0  0  0  0  0  0
   -1.9774   -0.6322    2.3079 N   0  0  0  0  0  0  0  0  0  0  0  0
   -2.0653   -0.1991    1.0286 N   0  0  0  0  0  0  0  0  0  0  0  0
    0.3105   -1.7022    2.3843 N   0  0  0  0  0  0  0  0  0  0  0  0
    0.7677   -1.5413    1.1201 N   0  0  0  0  0  2  0  0  0  0  0  0
    0.0799    0.7353    2.8383 N   0  0  0  0  0  0  0  0  0  0  0  0
    0.6021    1.0796    1.6370 N   0  0  0  0  0  2  0  0  0  0  0  0
   -3.3350   -0.4351    0.6304 C   0  0  0  0  0  0  0  0  0  0  0  0
   -4.0716   -1.0480    1.6853 C   0  0  0  0  0  0  0  0  0  0  0  0
   -5.1290   -1.3305    1.6860 H   0  0  0  0  0  0  0  0  0  0  0  0
   -3.1653   -1.1504    2.7354 C   0  0  0  0  0  0  0  0  0  0  0  0
   -3.2739   -1.5410    3.7532 H   0  0  0  0  0  0  0  0  0  0  0  0
   -3.2639    1.0650   -1.3769 C   0  0  0  0  0  0  0  0  0  0  0  0
   -2.4781    1.6509   -0.8800 H   0  0  0  0  0  0  0  0  0  0  0  0
   -3.7087    1.4193   -2.6572 C   0  0  0  0  0  0  0  0  0  0  0  0
   -3.2528    2.2791   -3.1708 H   0  0  0  0  0  0  0  0  0  0  0  0
   -4.7293    0.6838   -3.2808 C   0  0  0  0  0  0  0  0  0  0  0  0
   -5.0796    0.9638   -4.2859 H   0  0  0  0  0  0  0  0  0  0  0  0
   -5.2998   -0.4128   -2.6140 C   0  0  0  0  0  0  0  0  0  0  0  0
   -6.0983   -0.9970   -3.0967 H   0  0  0  0  0  0  0  0  0  0  0  0
   -4.8453   -0.7787   -1.3400 C   0  0  0  0  0  0  0  0  0  0  0  0
   -5.2751   -1.6566   -0.8341 H   0  0  0  0  0  0  0  0  0  0  0  0
   -3.8148   -0.0492   -0.7062 C   0  0  0  0  0  0  0  0  0  0  0  0
    1.5229   -2.6251    0.7946 C   0  0  2  0  0  3  0  0  0  0  0  0
    1.5152   -3.5142    1.9009 C   0  0  0  0  0  0  0  0  0  0  0  0
    2.0482   -4.4658    1.9812 H   0  0  0  0  0  0  0  0  0  0  0  0
    0.7449   -2.8883    2.8785 C   0  0  0  0  0  0  0  0  0  0  0  0
    0.4771   -3.1934    3.8953 H   0  0  0  0  0  0  0  0  0  0  0  0
    2.6938   -1.6400   -1.2031 C   0  0  0  0  0  0  0  0  0  0  0  0
    2.4437   -0.6356   -0.8305 H   0  0  0  0  0  0  0  0  0  0  0  0
    3.4227   -1.7922   -2.3876 C   0  0  0  0  0  0  0  0  0  0  0  0
    3.7499   -0.8998   -2.9429 H   0  0  0  0  0  0  0  0  0  0  0  0
    3.7354   -3.0754   -2.8645 C   0  0  0  0  0  0  0  0  0  0  0  0
    4.3069   -3.1961   -3.7972 H   0  0  0  0  0  0  0  0  0  0  0  0
    3.3112   -4.2039   -2.1446 C   0  0  0  0  0  0  0  0  0  0  0  0
    3.5448   -5.2137   -2.5144 H   0  0  0  0  0  0  0  0  0  0  0  0
    2.5795   -4.0521   -0.9596 C   0  0  0  0  0  0  0  0  0  0  0  0
    2.2329   -4.9420   -0.4134 H   0  0  0  0  0  0  0  0  0  0  0  0
    2.2574   -2.7661   -0.4712 C   0  0  0  0  0  0  0  0  0  0  0  0
    1.1081    2.3358    1.7317 C   0  0  1  0  0  3  0  0  0  0  0  0
    0.8712    2.8118    3.0454 C   0  0  0  0  0  0  0  0  0  0  0  0
    1.1851    3.7750    3.4583 H   0  0  0  0  0  0  0  0  0  0  0  0
    0.2283    1.7659    3.7079 C   0  0  0  0  0  0  0  0  0  0  0  0
   -0.1254    1.6712    4.7398 H   0  0  0  0  0  0  0  0  0  0  0  0
    1.6578    4.3559    0.3603 C   0  0  0  0  0  0  0  0  0  0  0  0
    0.9538    4.9397    0.9724 H   0  0  0  0  0  0  0  0  0  0  0  0
    2.3520    4.9671   -0.6931 C   0  0  0  0  0  0  0  0  0  0  0  0
    2.2007    6.0378   -0.8973 H   0  0  0  0  0  0  0  0  0  0  0  0
    3.2271    4.2156   -1.4935 C   0  0  0  0  0  0  0  0  0  0  0  0
    3.7673    4.6963   -2.3230 H   0  0  0  0  0  0  0  0  0  0  0  0
    3.4149    2.8493   -1.2271 C   0  0  0  0  0  0  0  0  0  0  0  0
    4.1119    2.2569   -1.8396 H   0  0  0  0  0  0  0  0  0  0  0  0
    2.7250    2.2377   -0.1740 C   0  0  0  0  0  0  0  0  0  0  0  0
    2.8919    1.1759    0.0581 H   0  0  0  0  0  0  0  0  0  0  0  0
    1.8297    2.9813    0.6256 C   0  0  0  0  0  0  0  0  0  0  0  0
  1  2  1  1  0  0  0
  3 12  1  0  0  0  0
  3  1  1  0  0  0  0
  4  3  1  0  0  0  0
  5 28  1  0  0  0  0
  5  1  1  0  0  0  0
  6  5  1  0  0  0  0
  7  1  1  0  0  0  0
  7 44  1  0  0  0  0
  8 41  1  0  0  0  0
  8  7  1  0  0  0  0
  9  4  2  0  0  0  0
  9 10  1  0  0  0  0
 10 11  1  0  0  0  0
 10 12  2  0  0  0  0
 12 13  1  0  0  0  0
 14 15  1  0  0  0  0
 14 24  1  0  0  0  0
 16 14  2  0  0  0  0
 17 16  1  0  0  0  0
 18 16  1  0  0  0  0
 18 20  2  0  0  0  0
 19 18  1  0  0  0  0
 20 22  1  0  0  0  0
 21 20  1  0  0  0  0
 22 23  1  0  0  0  0
 22 24  2  0  0  0  0
 24  9  1  0  0  0  0
 25 40  1  1  0  0  0
 25  6  1  0  0  0  0
 25 26  1  0  0  0  0
 26 27  1  0  0  0  0
 26 28  2  0  0  0  0
 28 29  1  0  0  0  0
 30 31  1  0  0  0  0
 30 40  1  0  0  0  0
 32 30  2  0  0  0  0
 33 32  1  0  0  0  0
 34 32  1  0  0  0  0
 34 36  2  0  0  0  0
 35 34  1  0  0  0  0
 36 38  1  0  0  0  0
 37 36  1  0  0  0  0
 38 40  2  0  0  0  0
 38 39  1  0  0  0  0
 41 56  1  1  0  0  0
 41 42  1  0  0  0  0
 42 43  1  0  0  0  0
 42 44  2  0  0  0  0
 44 45  1  0  0  0  0
 46 56  1  0  0  0  0
 46 47  1  0  0  0  0
 48 46  2  0  0  0  0
 49 48  1  0  0  0  0
 50 52  2  0  0  0  0
 50 48  1  0  0  0  0
 51 50  1  0  0  0  0
 52 54  1  0  0  0  0
 53 52  1  0  0  0  0
 54 55  1  0  0  0  0
 54 56  2  0  0  0  0
M  END
