1,3
q = 0.0, confidence = 0.942

 26 27  0  0  0  0  0  0  0  0999 V2000
   -2.0341   -0.9379   -0.1635 N   0  0  0  0  0  2  0  0  0  0  0  0
   -1.5990    0.7815   -1.6959 N   0  0  0  0  0  0  0  0  0  0  0  0
   -0.3788    0.5214   -1.3253 N   0  0  0  0  0  2  0  0  0  0  0  0
   -2.5071   -0.0632   -1.1105 C   0  0  0  0  0  0  0  0  0  0  0  0
   -3.8760   -0.0004   -1.4448 C   0  0  0  0  0  0  0  0  0  0  0  0
   -4.7886   -0.8561   -0.8192 C   0  0  0  0  0  0  0  0  0  0  0  0
   -4.2684   -1.7641    0.1366 C   0  0  0  0  0  0  0  0  0  0  0  0
   -2.9064   -1.7806    0.4342 C   0  0  0  0  0  0  0  0  0  0  0  0
    0.5882    1.4755   -1.7548 C   0  0  0  0  0  0  0  0  0  0  0  0
    0.3022    2.8540   -1.6920 C   0  0  0  0  0  0  0  0  0  0  0  0
    1.2885    3.7766   -2.0631 C   0  0  0  0  0  0  0  0  0  0  0  0
    2.5424    3.3299   -2.5144 C   0  0  0  0  0  0  0  0  0  0  0  0
    2.8076    1.9524   -2.6034 C   0  0  0  0  0  0  0  0  0  0  0  0
    1.8360    1.0204   -2.2197 C   0  0  0  0  0  0  0  0  0  0  0  0
   -6.2555   -0.8365   -1.1513 C   0  0  0  0  0  0  0  0  0  0  0  0
   -4.1849    0.7270   -2.2082 H   0  0  0  0  0  0  0  0  0  0  0  0
   -4.9320   -2.4767    0.6486 H   0  0  0  0  0  0  0  0  0  0  0  0
   -2.4498   -2.4743    1.1595 H   0  0  0  0  0  0  0  0  0  0  0  0
   -0.6865    3.1724   -1.3348 H   0  0  0  0  0  0  0  0  0  0  0  0
    1.0780    4.8549   -1.9974 H   0  0  0  0  0  0  0  0  0  0  0  0
    3.3143    4.0590   -2.8034 H   0  0  0  0  0  0  0  0  0  0  0  0
    3.7796    1.5994   -2.9792 H   0  0  0  0  0  0  0  0  0  0  0  0
    2.0054   -0.0607   -2.3018 H   0  0  0  0  0  0  0  0  0  0  0  0
   -6.5013   -0.0401   -1.8788 H   0  0  0  0  0  0  0  0  0  0  0  0
   -6.8686   -0.6763   -0.2404 H   0  0  0  0  0  0  0  0  0  0  0  0
   -6.5743   -1.8077   -1.5842 H   0  0  0  0  0  0  0  0  0  0  0  0
  1  8  1  0  0  0  0
  2  3  1  0  0  0  0
  2  4  2  0  0  0  0
  4  1  1  0  0  0  0
  5  4  1  0  0  0  0
  5  6  2  0  0  0  0
  6  7  1  0  0  0  0
  7  8  2  0  0  0  0
  7 17  1  0  0  0  0
  8 18  1  0  0  0  0
  9 10  1  0  0  0  0
  9  3  1  0  0  0  0
 10 19  1  0  0  0  0
 11 20  1  0  0  0  0
 11 10  2  0  0  0  0
 12 11  1  0  0  0  0
 13 12  2  0  0  0  0
 13 14  1  0  0  0  0
 14  9  2  0  0  0  0
 15  6  1  0  0  0  0
 15 25  1  0  0  0  0
 16  5  1  0  0  0  0
 21 12  1  0  0  0  0
 22 13  1  0  0  0  0
 23 14  1  0  0  0  0
 24 15  1  0  0  0  0
 26 15  1  0  0  0  0
M  END
