1,7
q = 0.0, confidence = 0.994

 32 33  0  0  0  0  0  0  0  0999 V2000
    0.8819    1.2999   -0.2643 N   0  0  0  0  0  2  0  0  0  0  0  0
    1.1214    2.6175   -0.4248 C   0  0  0  0  0  0  0  0  0  0  0  0
    0.0916    3.5588   -0.3562 C   0  0  0  0  0  0  0  0  0  0  0  0
   -1.1889    3.1256    0.0025 C   0  0  0  0  0  0  0  0  0  0  0  0
   -1.4332    1.7578    0.2108 C   0  0  0  0  0  0  0  0  0  0  0  0
   -0.3873    0.8347   -0.0442 C   0  0  0  0  0  0  0  0  0  0  0  0
    0.7015   -1.2779    0.1561 N   0  0  0  0  0  2  0  0  0  0  0  0
    0.7582   -2.6220    0.2705 C   0  0  0  0  0  0  0  0  0  0  0  0
   -0.3806   -3.4149    0.1205 C   0  0  0  0  0  0  0  0  0  0  0  0
   -1.5831   -2.8020   -0.2531 C   0  0  0  0  0  0  0  0  0  0  0  0
   -1.6392   -1.4052   -0.3956 C   0  0  0  0  0  0  0  0  0  0  0  0
   -0.4847   -0.6414   -0.0850 C   0  0  0  0  0  0  0  0  0  0  0  0
   -2.7690    1.4203    0.8068 C   0  0  0  0  0  0  0  0  0  0  0  0
   -3.7814    2.0717    0.6292 O   0  0  0  0  0  0  0  0  0  0  0  0
   -2.6734    0.3602    1.6447 O   0  0  0  0  0  0  0  0  0  0  0  0
   -3.8684   -0.0520    2.3263 C   0  0  0  0  0  0  0  0  0  0  0  0
   -2.8422   -0.7863   -1.0419 C   0  0  0  0  0  0  0  0  0  0  0  0
   -2.8009    0.1517   -1.8160 O   0  0  0  0  0  0  0  0  0  0  0  0
   -3.9844   -1.4326   -0.7061 O   0  0  0  0  0  0  0  0  0  0  0  0
   -5.1762   -0.9063   -1.3213 C   0  0  0  0  0  0  0  0  0  0  0  0
    2.1846    2.8696   -0.5867 H   0  0  0  0  0  0  0  0  0  0  0  0
    0.3113    4.6218   -0.5275 H   0  0  0  0  0  0  0  0  0  0  0  0
   -2.0193    3.8291    0.1612 H   0  0  0  0  0  0  0  0  0  0  0  0
    1.7714   -3.0180    0.4640 H   0  0  0  0  0  0  0  0  0  0  0  0
   -0.3063   -4.5045    0.2427 H   0  0  0  0  0  0  0  0  0  0  0  0
   -2.4822   -3.3944   -0.4730 H   0  0  0  0  0  0  0  0  0  0  0  0
   -4.5589    0.8040    2.4477 H   0  0  0  0  0  0  0  0  0  0  0  0
   -4.3612   -0.8509    1.7367 H   0  0  0  0  0  0  0  0  0  0  0  0
   -3.5501   -0.4508    3.3061 H   0  0  0  0  0  0  0  0  0  0  0  0
   -5.3259    0.1485   -1.0165 H   0  0  0  0  0  0  0  0  0  0  0  0
   -5.0964   -0.9495   -2.4251 H   0  0  0  0  0  0  0  0  0  0  0  0
   -6.0056   -1.5410   -0.9641 H   0  0  0  0  0  0  0  0  0  0  0  0
  1  6  1  0  0  0  0
  2  3  2  0  0  0  0
  2  1  1  0  0  0  0
  3  4  1  0  0  0  0
  4 23  1  0  0  0  0
  4  5  2  0  0  0  0
  5 13  1  0  0  0  0
  6  5  1  0  0  0  0
  7  8  1  0  0  0  0
  8 24  1  0  0  0  0
  9 25  1  0  0  0  0
  9  8  2  0  0  0  0
 10  9  1  0  0  0  0
 11 10  2  0  0  0  0
 11 12  1  0  0  0  0
 12  6  2  0  0  0  0
 12  7  1  0  0  0  0
 13 15  1  0  0  0  0
 14 13  2  0  0  0  0
 15 16  1  0  0  0  0
 16 27  1  0  0  0  0
 16 29  1  0  0  0  0
 17 19  1  0  0  0  0
 17 11  1  0  0  0  0
 18 17  2  0  0  0  0
 20 30  1  0  0  0  0
 20 32  1  0  0  0  0
 20 19  1  0  0  0  0
 21  2  1  0  0  0  0
 22  3  1  0  0  0  0
 26 10  1  0  0  0  0
 28 16  1  0  0  0  0
 31 20  1  0  0  0  0
M  END
