1,2
q = 0.0, confidence = 0.996

 36 38  0  0  1  0  0  0  0  0999 V2000
   -0.4452    0.7411    0.2369 N   0  0  0  0  0  2  0  0  0  0  0  0
   -1.2546   -1.7047   -0.4008 N   0  0  0  0  0  2  0  0  0  0  0  0
    1.7037    0.4617   -0.3567 N   0  0  0  0  0  0  0  0  0  0  0  0
    0.1551    1.9785    0.2436 C   0  0  0  0  0  0  0  0  0  0  0  0
   -0.3883    3.2528    0.4945 C   0  0  0  0  0  0  0  0  0  0  0  0
   -1.4634    3.3594    0.6941 H   0  0  0  0  0  0  0  0  0  0  0  0
    0.4832    4.3410    0.4154 C   0  0  0  0  0  0  0  0  0  0  0  0
    0.0990    5.3555    0.5968 H   0  0  0  0  0  0  0  0  0  0  0  0
    1.8554    4.1740    0.0919 C   0  0  0  0  0  0  0  0  0  0  0  0
    2.5048    5.0609    0.0447 H   0  0  0  0  0  0  0  0  0  0  0  0
    2.4046    2.9154   -0.1822 C   0  0  0  0  0  0  0  0  0  0  0  0
    3.4663    2.8006   -0.4436 H   0  0  0  0  0  0  0  0  0  0  0  0
    1.5265    1.8211   -0.1073 C   0  0  0  0  0  0  0  0  0  0  0  0
    0.4814   -0.1452   -0.1353 C   0  0  2  0  0  3  0  0  0  0  0  0
    0.0904   -1.5537   -0.3026 C   0  0  1  0  0  3  0  0  0  0  0  0
    0.9487   -2.6723   -0.2998 C   0  0  0  0  0  0  0  0  0  0  0  0
    2.0307   -2.5595   -0.1596 H   0  0  0  0  0  0  0  0  0  0  0  0
    0.3863   -3.9500   -0.4271 C   0  0  0  0  0  0  0  0  0  0  0  0
    1.0371   -4.8371   -0.4291 H   0  0  0  0  0  0  0  0  0  0  0  0
   -1.0056   -4.0876   -0.5180 C   0  0  0  0  0  0  0  0  0  0  0  0
   -1.4800   -5.0755   -0.6007 H   0  0  0  0  0  0  0  0  0  0  0  0
   -1.7930   -2.9272   -0.4738 C   0  0  0  0  0  0  0  0  0  0  0  0
   -2.8945   -2.9609   -0.4639 H   0  0  0  0  0  0  0  0  0  0  0  0
    2.9543   -0.1306   -0.8136 C   0  0  0  0  0  0  0  0  0  0  0  0
    3.4431    0.6100   -1.4798 H   0  0  0  0  0  0  0  0  0  0  0  0
    2.7134   -1.0035   -1.4521 H   0  0  0  0  0  0  0  0  0  0  0  0
    3.8987   -0.5204    0.3278 C   0  0  0  0  0  0  0  0  0  0  0  0
    3.3766   -1.2222    1.0154 H   0  0  0  0  0  0  0  0  0  0  0  0
    4.1208    0.3831    0.9357 H   0  0  0  0  0  0  0  0  0  0  0  0
    5.2001   -1.1512   -0.1748 C   0  0  0  0  0  0  0  0  0  0  0  0
    5.7036   -0.4451   -0.8720 H   0  0  0  0  0  0  0  0  0  0  0  0
    4.9596   -2.0508   -0.7850 H   0  0  0  0  0  0  0  0  0  0  0  0
    6.1567   -1.5336    0.9546 C   0  0  0  0  0  0  0  0  0  0  0  0
    7.0878   -1.9883    0.5624 H   0  0  0  0  0  0  0  0  0  0  0  0
    6.4441   -0.6467    1.5563 H   0  0  0  0  0  0  0  0  0  0  0  0
    5.6917   -2.2655    1.6471 H   0  0  0  0  0  0  0  0  0  0  0  0
  1  4  1  0  0  0  0
  3 14  1  0  0  0  0
  3 13  1  0  0  0  0
  4  5  1  0  0  0  0
  5  6  1  0  0  0  0
  7  5  2  0  0  0  0
  7  8  1  0  0  0  0
  9  7  1  0  0  0  0
 10  9  1  0  0  0  0
 11 13  1  0  0  0  0
 11  9  2  0  0  0  0
 12 11  1  0  0  0  0
 13  4  2  0  0  0  0
 14  1  1  6  0  0  0
 15  2  1  1  0  0  0
 15 16  1  0  0  0  0
 15 14  1  0  0  0  0
 16 17  1  0  0  0  0
 18 16  2  0  0  0  0
 19 18  1  0  0  0  0
 20 22  2  0  0  0  0
 20 18  1  0  0  0  0
 21 20  1  0  0  0  0
 22 23  1  0  0  0  0
 22  2  1  0  0  0  0
 24  3  1  0  0  0  0
 24 27  1  0  0  0  0
 25 24  1  0  0  0  0
 26 24  1  0  0  0  0
 27 29  1  0  0  0  0
 27 28  1  0  0  0  0
 30 27  1  0  0  0  0
 30 33  1  0  0  0  0
 31 30  1  0  0  0  0
 32 30  1  0  0  0  0
 33 35  1  0  0  0  0
 33 36  1  0  0  0  0
 34 33  1  0  0  0  0
M  END
