1,3
q = 0.0, confidence = 1.0

 31 33  0  0  1  0  0  0  0  0999 V2000
   -0.3693   -0.6403   -0.4115 N   0  0  0  0  0  2  0  0  0  0  0  0
   -1.8971    1.0062   -0.4624 N   0  0  0  0  0  0  0  0  0  0  0  0
    1.7333    0.8778    0.1111 N   0  0  0  0  0  2  0  0  0  0  0  0
   -1.6127   -1.2263   -0.4380 C   0  0  0  0  0  0  0  0  0  0  0  0
   -1.9752   -2.5858   -0.3942 C   0  0  0  0  0  0  0  0  0  0  0  0
   -1.1982   -3.3560   -0.2942 H   0  0  0  0  0  0  0  0  0  0  0  0
   -3.3396   -2.8801   -0.4225 C   0  0  0  0  0  0  0  0  0  0  0  0
   -3.6684   -3.9288   -0.3807 H   0  0  0  0  0  0  0  0  0  0  0  0
   -4.3187   -1.8547   -0.4874 C   0  0  0  0  0  0  0  0  0  0  0  0
   -5.3831   -2.1321   -0.5068 H   0  0  0  0  0  0  0  0  0  0  0  0
   -3.9722   -0.4982   -0.5101 C   0  0  0  0  0  0  0  0  0  0  0  0
   -4.7464    0.2821   -0.5398 H   0  0  0  0  0  0  0  0  0  0  0  0
   -2.5993   -0.2005   -0.4811 C   0  0  0  0  0  0  0  0  0  0  0  0
   -0.5517    0.6812   -0.3968 C   0  0  1  0  0  3  0  0  0  0  0  0
    0.6278    1.5553   -0.2888 C   0  0  2  0  0  3  0  0  0  0  0  0
    0.6942    2.9253   -0.6084 C   0  0  0  0  0  0  0  0  0  0  0  0
   -0.1888    3.4694   -0.9616 H   0  0  0  0  0  0  0  0  0  0  0  0
    1.9266    3.5825   -0.4971 C   0  0  0  0  0  0  0  0  0  0  0  0
    2.0007    4.6527   -0.7415 H   0  0  0  0  0  0  0  0  0  0  0  0
    3.0617    2.8628   -0.0983 C   0  0  0  0  0  0  0  0  0  0  0  0
    4.0463    3.3441   -0.0158 H   0  0  0  0  0  0  0  0  0  0  0  0
    2.9182    1.4953    0.1783 C   0  0  0  0  0  0  0  0  0  0  0  0
    3.7741    0.8490    0.4327 H   0  0  0  0  0  0  0  0  0  0  0  0
   -2.5310    2.3155   -0.3085 C   0  0  0  0  0  0  0  0  0  0  0  0
   -3.6074    2.1590   -0.5258 H   0  0  0  0  0  0  0  0  0  0  0  0
   -2.1644    3.0153   -1.0865 H   0  0  0  0  0  0  0  0  0  0  0  0
   -2.3646    2.8845    1.0763 C   0  0  0  0  0  0  0  0  0  0  0  0
   -2.5766    2.1811    1.9008 H   0  0  0  0  0  0  0  0  0  0  0  0
   -2.0062    4.1507    1.3407 C   0  0  0  0  0  0  0  0  0  0  0  0
   -1.7860    4.8720    0.5356 H   0  0  0  0  0  0  0  0  0  0  0  0
   -1.9291    4.5195    2.3746 H   0  0  0  0  0  0  0  0  0  0  0  0
  2 14  1  0  0  0  0
  2 24  1  0  0  0  0
  3 22  1  0  0  0  0
  4  1  1  0  0  0  0
  4  5  1  0  0  0  0
  5  6  1  0  0  0  0
  7  5  2  0  0  0  0
  7  8  1  0  0  0  0
  9  7  1  0  0  0  0
 10  9  1  0  0  0  0
 11  9  2  0  0  0  0
 11 13  1  0  0  0  0
 12 11  1  0  0  0  0
 13  2  1  0  0  0  0
 13  4  2  0  0  0  0
 14  1  1  1  0  0  0
 14 15  1  0  0  0  0
 15 16  1  6  0  0  0
 15  3  1  0  0  0  0
 16 18  2  0  0  0  0
 17 16  1  0  0  0  0
 18 20  1  0  0  0  0
 19 18  1  0  0  0  0
 20 21  1  0  0  0  0
 20 22  2  0  0  0  0
 22 23  1  0  0  0  0
 24 27  1  0  0  0  0
 25 24  1  0  0  0  0
 26 24  1  0  0  0  0
 27 29  2  0  0  0  0
 27 28  1  0  0  0  0
 29 31  1  0  0  0  0
 30 29  1  0  0  0  0
M  END
