3,4
q = -1.0, confidence = 0.008

 60 61  0  0  1  0  0  0  0  0999 V2000
   -2.1074   -1.1572    0.3560 C   0  0  0  0  0  0  0  0  0  0  0  0
   -2.7148   -0.1621    1.1802 C   0  0  0  0  0  0  0  0  0  0  0  0
    2.1364   -0.9863    0.0925 N   0  0  0  0  0  2  0  0  0  0  0  0
   -0.7504   -1.4703    0.5468 N   0  0  0  0  0  2  0  0  0  0  0  0
   -0.2966   -2.6673    0.9250 C   0  0  1  0  0  3  0  0  0  0  0  0
   -4.7519   -0.3180   -0.1633 C   0  0  0  0  0  0  0  0  0  0  0  0
   -5.7873   -0.0009   -0.3600 H   0  0  0  0  0  0  0  0  0  0  0  0
   -2.8196   -1.7031   -0.7598 C   0  0  0  0  0  0  0  0  0  0  0  0
   -4.1391   -1.2728   -0.9882 C   0  0  0  0  0  0  0  0  0  0  0  0
   -4.7028   -1.6886   -1.8360 H   0  0  0  0  0  0  0  0  0  0  0  0
   -2.1158   -2.6571   -1.7233 C   0  0  0  0  0  0  0  0  0  0  0  0
   -1.5021   -3.3550   -1.1178 H   0  0  0  0  0  0  0  0  0  0  0  0
    1.0744   -3.0318    0.8797 C   0  0  0  0  0  0  0  0  0  0  0  0
    1.2952   -4.0594    1.2003 H   0  0  0  0  0  0  0  0  0  0  0  0
   -1.2558   -3.7101    1.4747 C   0  0  0  0  0  0  0  0  0  0  0  0
   -2.3124   -3.4361    1.2987 H   0  0  0  0  0  0  0  0  0  0  0  0
   -1.1074   -3.8128    2.5704 H   0  0  0  0  0  0  0  0  0  0  0  0
   -1.0628   -4.7065    1.0301 H   0  0  0  0  0  0  0  0  0  0  0  0
   -4.0343    0.2359    0.9049 C   0  0  0  0  0  0  0  0  0  0  0  0
   -4.5107    0.9989    1.5381 H   0  0  0  0  0  0  0  0  0  0  0  0
   -1.9152    0.4421    2.3250 C   0  0  0  0  0  0  0  0  0  0  0  0
   -0.8597    0.4684    1.9664 H   0  0  0  0  0  0  0  0  0  0  0  0
    3.6796    0.0342   -1.5132 C   0  0  0  0  0  0  0  0  0  0  0  0
    2.1976   -2.2694    0.4815 C   0  0  0  0  0  0  0  0  0  0  0  0
    3.5476   -2.9601    0.4752 C   0  0  0  0  0  0  0  0  0  0  0  0
    4.0053   -2.9013   -0.5339 H   0  0  0  0  0  0  0  0  0  0  0  0
    3.4607   -4.0232    0.7640 H   0  0  0  0  0  0  0  0  0  0  0  0
    4.2624   -2.4646    1.1628 H   0  0  0  0  0  0  0  0  0  0  0  0
    3.3024   -0.2316   -0.1677 C   0  0  0  0  0  0  0  0  0  0  0  0
   -1.9421   -0.4690    3.5645 C   0  0  0  0  0  0  0  0  0  0  0  0
   -2.9742   -0.5580    3.9633 H   0  0  0  0  0  0  0  0  0  0  0  0
   -1.2956   -0.0640    4.3709 H   0  0  0  0  0  0  0  0  0  0  0  0
   -1.5841   -1.4876    3.3203 H   0  0  0  0  0  0  0  0  0  0  0  0
    5.1333    1.1658    0.6253 C   0  0  0  0  0  0  0  0  0  0  0  0
    5.6914    1.6194    1.4603 H   0  0  0  0  0  0  0  0  0  0  0  0
    4.0264    0.3468    0.9137 C   0  0  0  0  0  0  0  0  0  0  0  0
    5.5245    1.4180   -0.6977 C   0  0  0  0  0  0  0  0  0  0  0  0
    6.3934    2.0607   -0.9049 H   0  0  0  0  0  0  0  0  0  0  0  0
    2.8509   -0.5320   -2.6336 C   0  0  0  0  0  0  0  0  0  0  0  0
    3.2444   -0.2333   -3.6241 H   0  0  0  0  0  0  0  0  0  0  0  0
    1.7984   -0.1806   -2.5452 H   0  0  0  0  0  0  0  0  0  0  0  0
    2.7979   -1.6400   -2.5938 H   0  0  0  0  0  0  0  0  0  0  0  0
    3.5665    0.1171    2.3295 C   0  0  0  0  0  0  0  0  0  0  0  0
    2.4674    0.2543    2.4088 H   0  0  0  0  0  0  0  0  0  0  0  0
    4.0706    0.8059    3.0345 H   0  0  0  0  0  0  0  0  0  0  0  0
    3.7613   -0.9207    2.6750 H   0  0  0  0  0  0  0  0  0  0  0  0
   -3.0694   -3.5140   -2.5630 C   0  0  0  0  0  0  0  0  0  0  0  0
   -3.7959   -4.0621   -1.9296 H   0  0  0  0  0  0  0  0  0  0  0  0
   -2.4966   -4.2592   -3.1510 H   0  0  0  0  0  0  0  0  0  0  0  0
   -3.6455   -2.9033   -3.2891 H   0  0  0  0  0  0  0  0  0  0  0  0
   -2.3211    1.8769    2.6777 C   0  0  0  0  0  0  0  0  0  0  0  0
   -2.3280    2.5302    1.7819 H   0  0  0  0  0  0  0  0  0  0  0  0
   -1.6091    2.3082    3.4109 H   0  0  0  0  0  0  0  0  0  0  0  0
   -3.3287    1.9235    3.1418 H   0  0  0  0  0  0  0  0  0  0  0  0
   -1.1342   -1.8851   -2.6265 C   0  0  0  0  0  0  0  0  0  0  0  0
   -0.5657   -2.5770   -3.2813 H   0  0  0  0  0  0  0  0  0  0  0  0
   -0.3970   -1.3212   -2.0167 H   0  0  0  0  0  0  0  0  0  0  0  0
   -1.6776   -1.1676   -3.2766 H   0  0  0  0  0  0  0  0  0  0  0  0
    4.7929    0.8575   -1.7557 C   0  0  0  0  0  0  0  0  0  0  0  0
    5.0861    1.0628   -2.7978 H   0  0  0  0  0  0  0  0  0  0  0  0
  1  4  1  0  0  0  0
  1  2  1  0  0  0  0
  2 21  1  0  0  0  0
  3 24  1  0  0  0  0
  5  4  1  1  0  0  0
  5 15  1  0  0  0  0
  6 19  1  0  0  0  0
  7  6  1  0  0  0  0
  8  1  2  0  0  0  0
  9  8  1  0  0  0  0
  9  6  2  0  0  0  0
 10  9  1  0  0  0  0
 11 12  1  0  0  0  0
 11  8  1  0  0  0  0
 13  5  1  0  0  0  0
 13 14  1  0  0  0  0
 15 17  1  0  0  0  0
 16 15  1  0  0  0  0
 18 15  1  0  0  0  0
 19  2  2  0  0  0  0
 19 20  1  0  0  0  0
 21 51  1  0  0  0  0
 21 30  1  0  0  0  0
 22 21  1  0  0  0  0
 23 29  1  0  0  0  0
 24 13  2  0  0  0  0
 25 24  1  0  0  0  0
 25 27  1  0  0  0  0
 25 28  1  0  0  0  0
 26 25  1  0  0  0  0
 29  3  1  0  0  0  0
 29 36  2  0  0  0  0
 30 31  1  0  0  0  0
 30 32  1  0  0  0  0
 33 30  1  0  0  0  0
 34 36  1  0  0  0  0
 34 35  1  0  0  0  0
 36 43  1  0  0  0  0
 37 34  2  0  0  0  0
 38 37  1  0  0  0  0
 39 42  1  0  0  0  0
 39 41  1  0  0  0  0
 39 23  1  0  0  0  0
 40 39  1  0  0  0  0
 43 44  1  0  0  0  0
 43 46  1  0  0  0  0
 43 45  1  0  0  0  0
 47 48  1  0  0  0  0
 47 11  1  0  0  0  0
 49 47  1  0  0  0  0
 50 47  1  0  0  0  0
 51 54  1  0  0  0  0
 51 53  1  0  0  0  0
 52 51  1  0  0  0  0
 55 57  1  0  0  0  0
 55 11  1  0  0  0  0
 56 55  1  0  0  0  0
 58 55  1  0  0  0  0
 59 23  2  0  0  0  0
 59 37  1  0  0  0  0
 60 59  1  0  0  0  0
M  END
