2,3
q = -1.0

 36 37  0  0  1  0  0  0  0  0999 V2000
   -2.7121   -2.0762   -2.3165 O   0  0  0  0  0  0  0  0  0  0  0  0
   -0.9454   -1.0860   -1.3469 N   0  0  0  0  0  2  0  0  0  0  0  0
   -1.6437    0.9549    0.6280 N   0  0  0  0  0  2  0  0  0  0  0  0
   -2.9080    0.5141    0.4116 C   0  0  0  0  0  0  0  0  0  0  0  0
   -4.0412    1.0882    1.0940 C   0  0  0  0  0  0  0  0  0  0  0  0
   -3.8719    1.9198    1.7889 H   0  0  0  0  0  0  0  0  0  0  0  0
   -5.3372    0.6208    0.9305 C   0  0  0  0  0  0  0  0  0  0  0  0
   -6.1510    1.0989    1.4992 H   0  0  0  0  0  0  0  0  0  0  0  0
   -5.6255   -0.4503    0.0544 C   0  0  0  0  0  0  0  0  0  0  0  0
   -6.6533   -0.8183   -0.0727 H   0  0  0  0  0  0  0  0  0  0  0  0
   -4.5743   -1.0195   -0.6508 C   0  0  0  0  0  0  0  0  0  0  0  0
   -4.7637   -1.8433   -1.3524 H   0  0  0  0  0  0  0  0  0  0  0  0
   -3.2294   -0.5742   -0.5114 C   0  0  0  0  0  0  0  0  0  0  0  0
   -1.4281    2.1447    1.4417 C   0  0  0  0  0  0  0  0  0  0  0  0
   -0.3568    2.1597    1.7421 H   0  0  0  0  0  0  0  0  0  0  0  0
   -1.9985    2.1082    2.4020 H   0  0  0  0  0  0  0  0  0  0  0  0
   -1.7428    3.4610    0.7122 C   0  0  0  0  0  0  0  0  0  0  0  0
   -2.8145    3.4715    0.4208 H   0  0  0  0  0  0  0  0  0  0  0  0
   -1.1734    3.4695   -0.2414 H   0  0  0  0  0  0  0  0  0  0  0  0
   -1.4057    4.6985    1.5417 C   0  0  0  0  0  0  0  0  0  0  0  0
   -1.6290    5.6340    0.9908 H   0  0  0  0  0  0  0  0  0  0  0  0
   -0.3289    4.7217    1.8132 H   0  0  0  0  0  0  0  0  0  0  0  0
   -1.9835    4.7234    2.4896 H   0  0  0  0  0  0  0  0  0  0  0  0
   -2.2503   -1.2183   -1.3598 C   0  0  1  0  0  3  0  0  0  0  0  0
   -1.5630   -2.7186   -2.9018 C   0  0  0  0  0  0  0  0  0  0  0  0
   -1.7088   -2.7612   -3.9986 H   0  0  0  0  0  0  0  0  0  0  0  0
   -1.4977   -3.7549   -2.5027 H   0  0  0  0  0  0  0  0  0  0  0  0
   -0.3548   -1.8480   -2.4652 C   0  0  0  0  0  0  0  0  0  0  0  0
    0.8350   -2.6818   -1.9810 C   0  0  0  0  0  0  0  0  0  0  0  0
    1.6405   -2.0219   -1.6012 H   0  0  0  0  0  0  0  0  0  0  0  0
    1.2515   -3.2900   -2.8093 H   0  0  0  0  0  0  0  0  0  0  0  0
    0.5316   -3.3625   -1.1612 H   0  0  0  0  0  0  0  0  0  0  0  0
    0.0795   -0.8617   -3.5621 C   0  0  0  0  0  0  0  0  0  0  0  0
    0.8346   -0.1609   -3.1555 H   0  0  0  0  0  0  0  0  0  0  0  0
   -0.7868   -0.2717   -3.9226 H   0  0  0  0  0  0  0  0  0  0  0  0
    0.5254   -1.3995   -4.4235 H   0  0  0  0  0  0  0  0  0  0  0  0
  1 24  1  0  0  0  0
  3 14  1  0  0  0  0
  4  3  1  0  0  0  0
  4  5  1  0  0  0  0
  5  6  1  0  0  0  0
  7  5  2  0  0  0  0
  7  8  1  0  0  0  0
  9  7  1  0  0  0  0
 10  9  1  0  0  0  0
 11 13  1  0  0  0  0
 11  9  2  0  0  0  0
 12 11  1  0  0  0  0
 13  4  2  0  0  0  0
 14 15  1  0  0  0  0
 14 16  1  0  0  0  0
 17 14  1  0  0  0  0
 17 20  1  0  0  0  0
 18 17  1  0  0  0  0
 19 17  1  0  0  0  0
 20 22  1  0  0  0  0
 20 23  1  0  0  0  0
 21 20  1  0  0  0  0
 24  2  1  0  0  0  0
 24 13  1  6  0  0  0
 25 27  1  0  0  0  0
 25 28  1  0  0  0  0
 25  1  1  0  0  0  0
 26 25  1  0  0  0  0
 28 29  1  0  0  0  0
 28  2  1  0  0  0  0
 29 30  1  0  0  0  0
 29 32  1  0  0  0  0
 31 29  1  0  0  0  0
 33 34  1  0  0  0  0
 33 28  1  0  0  0  0
 35 33  1  0  0  0  0
 36 33  1  0  0  0  0
M  END
