3,4
q = -1.0, confidence = 0.0

 41 43  0  0  1  0  0  0  0  0999 V2000
   -1.7449   -0.8847    1.7106 S   0  0  0  0  0  0  0  0  0  0  0  0
    3.7101    0.9611    0.1601 O   0  0  0  0  0  0  0  0  0  0  0  0
    1.9683   -0.4444   -0.0405 N   0  0  0  0  0  2  0  0  0  0  0  0
   -0.5939    0.8593   -0.2317 N   0  0  0  0  0  2  0  0  0  0  0  0
    0.1093    2.0006   -0.0068 C   0  0  1  0  0  3  0  0  0  0  0  0
   -0.5424    3.2662    0.1841 C   0  0  0  0  0  0  0  0  0  0  0  0
   -1.6401    3.2899    0.1692 H   0  0  0  0  0  0  0  0  0  0  0  0
    0.1637    4.4413    0.3944 C   0  0  0  0  0  0  0  0  0  0  0  0
   -0.3936    5.3811    0.5356 H   0  0  0  0  0  0  0  0  0  0  0  0
    1.5778    4.4468    0.4393 C   0  0  0  0  0  0  0  0  0  0  0  0
    2.1343    5.3815    0.5966 H   0  0  0  0  0  0  0  0  0  0  0  0
    2.2469    3.2382    0.3077 C   0  0  0  0  0  0  0  0  0  0  0  0
    3.3427    3.2034    0.3741 H   0  0  0  0  0  0  0  0  0  0  0  0
    1.5582    2.0087    0.1020 C   0  0  0  0  0  0  0  0  0  0  0  0
   -1.9905    0.8401   -0.3758 C   0  0  0  0  0  0  0  0  0  0  0  0
   -2.6965    1.5412   -1.3779 C   0  0  0  0  0  0  0  0  0  0  0  0
   -2.1309    2.2015   -2.0519 H   0  0  0  0  0  0  0  0  0  0  0  0
   -4.0804    1.3816   -1.5310 C   0  0  0  0  0  0  0  0  0  0  0  0
   -4.6089    1.9362   -2.3212 H   0  0  0  0  0  0  0  0  0  0  0  0
   -4.7865    0.5043   -0.6928 C   0  0  0  0  0  0  0  0  0  0  0  0
   -5.8720    0.3713   -0.8133 H   0  0  0  0  0  0  0  0  0  0  0  0
   -4.1069   -0.2115    0.3054 C   0  0  0  0  0  0  0  0  0  0  0  0
   -4.6681   -0.8920    0.9611 H   0  0  0  0  0  0  0  0  0  0  0  0
   -2.7212   -0.0481    0.4675 C   0  0  0  0  0  0  0  0  0  0  0  0
   -2.7531   -2.3598    2.0475 C   0  0  0  0  0  0  0  0  0  0  0  0
   -2.1353   -3.0070    2.6984 H   0  0  0  0  0  0  0  0  0  0  0  0
   -2.9824   -2.8979    1.1073 H   0  0  0  0  0  0  0  0  0  0  0  0
   -3.6878   -2.1066    2.5852 H   0  0  0  0  0  0  0  0  0  0  0  0
    2.3606    0.8060    0.0646 C   0  0  0  0  0  0  0  0  0  0  0  0
    4.2955   -0.3485    0.2732 C   0  0  0  0  0  0  0  0  0  0  0  0
    4.6625   -0.4786    1.3142 H   0  0  0  0  0  0  0  0  0  0  0  0
    5.1562   -0.4078   -0.4219 H   0  0  0  0  0  0  0  0  0  0  0  0
    3.1474   -1.3360   -0.0750 C   0  0  0  0  0  0  0  0  0  0  0  0
    2.9994   -2.4459    0.9713 C   0  0  0  0  0  0  0  0  0  0  0  0
    2.1277   -3.0868    0.7318 H   0  0  0  0  0  0  0  0  0  0  0  0
    2.8458   -2.0144    1.9801 H   0  0  0  0  0  0  0  0  0  0  0  0
    3.9022   -3.0896    0.9943 H   0  0  0  0  0  0  0  0  0  0  0  0
    3.2906   -1.9224   -1.4883 C   0  0  0  0  0  0  0  0  0  0  0  0
    2.3760   -2.4873   -1.7581 H   0  0  0  0  0  0  0  0  0  0  0  0
    4.1592   -2.6096   -1.5462 H   0  0  0  0  0  0  0  0  0  0  0  0
    3.4285   -1.1148   -2.2347 H   0  0  0  0  0  0  0  0  0  0  0  0
  1 25  1  0  0  0  0
  2 30  1  0  0  0  0
  3 29  1  0  0  0  0
  5  4  1  1  0  0  0
  5 14  1  0  0  0  0
  5  6  1  0  0  0  0
  6  8  2  0  0  0  0
  7  6  1  0  0  0  0
  8 10  1  0  0  0  0
  8  9  1  0  0  0  0
 10 11  1  0  0  0  0
 12 13  1  0  0  0  0
 12 10  2  0  0  0  0
 14 12  1  0  0  0  0
 15  4  1  0  0  0  0
 15 24  1  0  0  0  0
 16 15  2  0  0  0  0
 17 16  1  0  0  0  0
 18 16  1  0  0  0  0
 18 20  2  0  0  0  0
 19 18  1  0  0  0  0
 20 22  1  0  0  0  0
 21 20  1  0  0  0  0
 22 24  2  0  0  0  0
 22 23  1  0  0  0  0
 24  1  1  0  0  0  0
 25 28  1  0  0  0  0
 25 26  1  0  0  0  0
 27 25  1  0  0  0  0
 29 14  2  0  0  0  0
 29  2  1  0  0  0  0
 30 31  1  0  0  0  0
 32 30  1  0  0  0  0
 33  3  1  0  0  0  0
 33 30  1  0  0  0  0
 33 34  1  0  0  0  0
 34 37  1  0  0  0  0
 34 36  1  0  0  0  0
 35 34  1  0  0  0  0
 38 33  1  0  0  0  0
 39 38  1  0  0  0  0
 40 38  1  0  0  0  0
 41 38  1  0  0  0  0
M  END
