2,3
q = -1.0

 41 42  0  0  1  0  0  0  0  0999 V2000
   -1.0214   -3.5213   -2.4368 O   0  0  0  0  0  0  0  0  0  0  0  0
    0.0481   -1.8858   -1.3305 N   0  0  0  0  0  2  0  0  0  0  0  0
   -1.6599   -0.3304    0.4654 N   0  0  0  0  0  2  0  0  0  0  0  0
   -3.8294    2.5631    1.4297 N   0  0  0  0  0  0  0  0  0  0  0  0
   -2.5944   -1.2558    0.1279 C   0  0  0  0  0  0  0  0  0  0  0  0
   -3.9384   -1.1979    0.6504 C   0  0  0  0  0  0  0  0  0  0  0  0
   -4.2200   -0.3642    1.3066 H   0  0  0  0  0  0  0  0  0  0  0  0
   -4.8963   -2.1605    0.3627 C   0  0  0  0  0  0  0  0  0  0  0  0
   -5.8992   -2.0603    0.8080 H   0  0  0  0  0  0  0  0  0  0  0  0
   -4.6087   -3.2543   -0.4846 C   0  0  0  0  0  0  0  0  0  0  0  0
   -5.3702   -4.0150   -0.7070 H   0  0  0  0  0  0  0  0  0  0  0  0
   -3.3396   -3.3360   -1.0411 C   0  0  0  0  0  0  0  0  0  0  0  0
   -3.0870   -4.1629   -1.7187 H   0  0  0  0  0  0  0  0  0  0  0  0
   -2.3255   -2.3734   -0.7749 C   0  0  0  0  0  0  0  0  0  0  0  0
   -2.0701    0.7915    1.2992 C   0  0  0  0  0  0  0  0  0  0  0  0
   -1.1501    1.2734    1.6929 H   0  0  0  0  0  0  0  0  0  0  0  0
   -2.6481    0.4555    2.1937 H   0  0  0  0  0  0  0  0  0  0  0  0
   -2.9293    1.8284    0.5455 C   0  0  0  0  0  0  0  0  0  0  0  0
   -2.2743    2.5092   -0.0619 H   0  0  0  0  0  0  0  0  0  0  0  0
   -3.5594    1.2826   -0.1867 H   0  0  0  0  0  0  0  0  0  0  0  0
   -3.1390    3.3489    2.4340 C   0  0  0  0  0  0  0  0  0  0  0  0
   -2.4835    2.7074    3.0554 H   0  0  0  0  0  0  0  0  0  0  0  0
   -3.8753    3.8274    3.1120 H   0  0  0  0  0  0  0  0  0  0  0  0
   -2.4994    4.1674    2.0012 H   0  0  0  0  0  0  0  0  0  0  0  0
   -4.7841    3.3610    0.6847 C   0  0  0  0  0  0  0  0  0  0  0  0
   -5.5123    3.8309    1.3781 H   0  0  0  0  0  0  0  0  0  0  0  0
   -5.3483    2.7161   -0.0197 H   0  0  0  0  0  0  0  0  0  0  0  0
   -4.3081    4.1831    0.0835 H   0  0  0  0  0  0  0  0  0  0  0  0
   -1.0736   -2.5505   -1.4777 C   0  0  1  0  0  3  0  0  0  0  0  0
    0.3515   -3.6256   -2.8601 C   0  0  0  0  0  0  0  0  0  0  0  0
    0.3693   -3.7342   -3.9618 H   0  0  0  0  0  0  0  0  0  0  0  0
    0.7950   -4.5347   -2.3969 H   0  0  0  0  0  0  0  0  0  0  0  0
    1.0238   -2.3246   -2.3487 C   0  0  0  0  0  0  0  0  0  0  0  0
    2.3952   -2.5739   -1.7150 C   0  0  0  0  0  0  0  0  0  0  0  0
    2.3210   -3.3137   -0.8936 H   0  0  0  0  0  0  0  0  0  0  0  0
    2.8066   -1.6335   -1.2969 H   0  0  0  0  0  0  0  0  0  0  0  0
    3.1125   -2.9551   -2.4697 H   0  0  0  0  0  0  0  0  0  0  0  0
    1.1148   -1.2476   -3.4428 C   0  0  0  0  0  0  0  0  0  0  0  0
    0.1253   -1.0862   -3.9156 H   0  0  0  0  0  0  0  0  0  0  0  0
    1.8397   -1.5424   -4.2288 H   0  0  0  0  0  0  0  0  0  0  0  0
    1.4487   -0.2906   -2.9963 H   0  0  0  0  0  0  0  0  0  0  0  0
  1 29  1  0  0  0  0
  3 15  1  0  0  0  0
  4 21  1  0  0  0  0
  5  3  1  0  0  0  0
  5  6  1  0  0  0  0
  6  7  1  0  0  0  0
  8  6  2  0  0  0  0
  8  9  1  0  0  0  0
 10  8  1  0  0  0  0
 11 10  1  0  0  0  0
 12 14  1  0  0  0  0
 12 10  2  0  0  0  0
 13 12  1  0  0  0  0
 14  5  2  0  0  0  0
 15 16  1  0  0  0  0
 15 17  1  0  0  0  0
 18 15  1  0  0  0  0
 18  4  1  0  0  0  0
 19 18  1  0  0  0  0
 20 18  1  0  0  0  0
 21 22  1  0  0  0  0
 21 23  1  0  0  0  0
 24 21  1  0  0  0  0
 25 26  1  0  0  0  0
 25  4  1  0  0  0  0
 27 25  1  0  0  0  0
 28 25  1  0  0  0  0
 29  2  1  0  0  0  0
 29 14  1  6  0  0  0
 30  1  1  0  0  0  0
 30 32  1  0  0  0  0
 30 33  1  0  0  0  0
 31 30  1  0  0  0  0
 33 34  1  0  0  0  0
 33  2  1  0  0  0  0
 34 36  1  0  0  0  0
 34 35  1  0  0  0  0
 37 34  1  0  0  0  0
 38 41  1  0  0  0  0
 38 33  1  0  0  0  0
 39 38  1  0  0  0  0
 40 38  1  0  0  0  0
M  END
