3,22
q = 0.0, confidence = 0.984

 24 25  0  0  0  0  0  0  0  0999 V2000
   -0.3157   -2.6224   -0.3060 C   0  0  0  0  0  0  0  0  0  0  0  0
   -1.3636   -2.9327   -0.4617 H   0  0  0  0  0  0  0  0  0  0  0  0
   -0.1478    1.2831    0.1738 N   0  0  0  0  0  2  0  0  0  0  0  0
    0.7547   -3.5083   -0.2182 C   0  0  0  0  0  0  0  0  0  0  0  0
    0.5844   -4.5854   -0.3517 H   0  0  0  0  0  0  0  0  0  0  0  0
    2.1788   -1.6271    0.2551 C   0  0  0  0  0  0  0  0  0  0  0  0
    3.4741    0.1509   -1.4922 O   0  0  0  0  0  0  0  0  0  0  0  0
    3.4739   -0.1507    1.4923 O   0  0  0  0  0  0  0  0  0  0  0  0
    1.1037   -0.7362    0.0152 C   0  0  0  0  0  0  0  0  0  0  0  0
    4.4473    1.9131   -0.6404 O   0  0  0  0  0  0  0  0  0  0  0  0
    2.0209   -3.0055    0.1069 C   0  0  0  0  0  0  0  0  0  0  0  0
    2.1788    1.6272   -0.2552 C   0  0  0  0  0  0  0  0  0  0  0  0
    1.1037    0.7362   -0.0153 C   0  0  0  0  0  0  0  0  0  0  0  0
   -0.3158    2.6224    0.3055 C   0  0  0  0  0  0  0  0  0  0  0  0
   -1.3638    2.9327    0.4613 H   0  0  0  0  0  0  0  0  0  0  0  0
    0.7545    3.5084    0.2175 C   0  0  0  0  0  0  0  0  0  0  0  0
    3.4803    1.1856   -0.8238 N   0  0  0  0  0  0  0  0  0  0  0  0
    3.4802   -1.1856    0.8240 N   0  0  0  0  0  0  0  0  0  0  0  0
    2.0207    3.0056   -0.1074 C   0  0  0  0  0  0  0  0  0  0  0  0
    2.8928    3.6516   -0.2759 H   0  0  0  0  0  0  0  0  0  0  0  0
    4.4472   -1.9132    0.6411 O   0  0  0  0  0  0  0  0  0  0  0  0
   -0.1477   -1.2832   -0.1739 N   0  0  0  0  0  2  0  0  0  0  0  0
    0.5841    4.5855    0.3507 H   0  0  0  0  0  0  0  0  0  0  0  0
    2.8930   -3.6515    0.2754 H   0  0  0  0  0  0  0  0  0  0  0  0
  1  4  2  0  0  0  0
  1 22  1  0  0  0  0
  2  1  1  0  0  0  0
  3 14  1  0  0  0  0
  4 11  1  0  0  0  0
  5  4  1  0  0  0  0
  6 18  1  0  0  0  0
  7 17  2  0  0  0  0
  9  6  1  0  0  0  0
 11  6  2  0  0  0  0
 11 24  1  0  0  0  0
 12 19  2  0  0  0  0
 12 13  1  0  0  0  0
 13  9  2  0  0  0  0
 13  3  1  0  0  0  0
 14 15  1  0  0  0  0
 16 14  2  0  0  0  0
 16 23  1  0  0  0  0
 17 10  2  0  0  0  0
 17 12  1  0  0  0  0
 18  8  2  0  0  0  0
 19 16  1  0  0  0  0
 20 19  1  0  0  0  0
 21 18  2  0  0  0  0
 22  9  1  0  0  0  0
M  END
