4,5
q = 0.0, confidence = 0.94

 27 28  0  0  0  0  0  0  0  0999 V2000
    0.7883   -0.3357    2.4581 S   0  0  0  0  0  0  0  0  0  0  0  0
    0.9284    1.1303    2.5134 O   0  0  0  0  0  0  0  0  0  0  0  0
    0.5201   -1.1477    3.6619 O   0  0  0  0  0  0  0  0  0  0  0  0
   -2.5636   -0.9111   -0.2625 N   0  0  0  0  0  2  0  0  0  0  0  0
   -0.5712   -0.6445    1.3062 N   0  0  0  0  0  2  0  0  0  0  0  0
   -3.5776   -1.0014   -1.1552 C   0  0  0  0  0  3  0  0  0  0  0  0
   -3.4376   -0.4031   -2.0718 H   0  0  0  0  0  0  0  0  0  0  0  0
   -4.7086   -1.7910   -0.9169 C   0  0  0  0  0  0  0  0  0  0  0  0
   -5.5043   -1.8285   -1.6745 H   0  0  0  0  0  0  0  0  0  0  0  0
   -4.8112   -2.5192    0.2833 C   0  0  0  0  0  0  0  0  0  0  0  0
   -5.6931   -3.1433    0.4884 H   0  0  0  0  0  0  0  0  0  0  0  0
   -3.7709   -2.4331    1.2122 C   0  0  0  0  0  0  0  0  0  0  0  0
   -3.8033   -2.9801    2.1654 H   0  0  0  0  0  0  0  0  0  0  0  0
   -2.6546   -1.6227    0.9187 C   0  0  0  0  0  0  0  0  0  0  0  0
   -1.5188   -1.4373    1.7814 C   0  0  0  0  0  3  0  0  0  0  0  0
   -1.4252   -1.8962    2.7800 H   0  0  0  0  0  0  0  0  0  0  0  0
    2.1651   -1.0424    1.5631 C   0  0  0  0  0  0  0  0  0  0  0  0
    2.1514   -2.4133    1.2553 C   0  0  0  0  0  0  0  0  0  0  0  0
    1.2812   -3.0355    1.5105 H   0  0  0  0  0  0  0  0  0  0  0  0
    3.2736   -2.9664    0.6272 C   0  0  0  0  0  0  0  0  0  0  0  0
    3.2852   -4.0362    0.3720 H   0  0  0  0  0  0  0  0  0  0  0  0
    4.3918   -2.1610    0.3428 C   0  0  0  0  0  0  0  0  0  0  0  0
    5.2765   -2.6066   -0.1360 H   0  0  0  0  0  0  0  0  0  0  0  0
    4.3916   -0.7982    0.6778 C   0  0  0  0  0  0  0  0  0  0  0  0
    5.2727   -0.1751    0.4649 H   0  0  0  0  0  0  0  0  0  0  0  0
    3.2679   -0.2228    1.2906 C   0  0  0  0  0  0  0  0  0  0  0  0
    3.2358    0.8430    1.5586 H   0  0  0  0  0  0  0  0  0  0  0  0
  1  2  2  0  0  0  0
  1  3  2  0  0  0  0
  4 14  1  0  0  0  0
  5 15  1  0  0  0  0
  5  1  1  0  0  0  0
  6  8  1  0  0  0  0
  6  4  1  0  0  0  0
  7  6  1  0  0  0  0
  8 10  2  0  0  0  0
  9  8  1  0  0  0  0
 10 11  1  0  0  0  0
 10 12  1  0  0  0  0
 12 13  1  0  0  0  0
 14 12  2  0  0  0  0
 14 15  1  0  0  0  0
 15 16  1  0  0  0  0
 17  1  1  0  0  0  0
 18 19  1  0  0  0  0
 18 17  2  0  0  0  0
 20 18  1  0  0  0  0
 21 20  1  0  0  0  0
 22 20  2  0  0  0  0
 22 24  1  0  0  0  0
 23 22  1  0  0  0  0
 24 26  2  0  0  0  0
 25 24  1  0  0  0  0
 26 27  1  0  0  0  0
 26 17  1  0  0  0  0
M  END
