3,4
q = 0.0, confidence = 0.986

 22 24  0  0  0  0  0  0  0  0999 V2000
    6.1976   -1.5846   -0.0006 Br  0  0  0  0  0  0  0  0  0  0  0  0
   -4.3757   -3.2277    0.0008 Br  0  0  0  0  0  0  0  0  0  0  0  0
   -0.5751   -1.6546    0.0001 N   0  0  0  0  0  2  0  0  0  0  0  0
    2.0923   -1.2246   -0.0003 N   0  0  0  0  0  2  0  0  0  0  0  0
    3.4076   -0.9849   -0.0004 C   0  0  0  0  0  0  0  0  0  0  0  0
    3.7336    0.0664   -0.0004 H   0  0  0  0  0  0  0  0  0  0  0  0
    1.6561   -2.5227   -0.0002 C   0  0  0  0  0  0  0  0  0  0  0  0
    4.3636   -2.0294   -0.0005 C   0  0  0  0  0  0  0  0  0  0  0  0
    2.5518   -3.6334   -0.0004 C   0  0  0  0  0  0  0  0  0  0  0  0
    3.9422   -3.3592   -0.0005 C   0  0  0  0  0  0  0  0  0  0  0  0
    4.6719   -4.1818   -0.0006 H   0  0  0  0  0  0  0  0  0  0  0  0
   -0.2777   -4.0818   -0.0000 C   0  0  0  0  0  0  0  0  0  0  0  0
   -2.4916   -3.0997    0.0004 C   0  0  0  0  0  0  0  0  0  0  0  0
    0.2344   -2.7507   -0.0001 C   0  0  0  0  0  0  0  0  0  0  0  0
   -1.6878   -4.2392    0.0002 C   0  0  0  0  0  0  0  0  0  0  0  0
   -2.1343   -5.2442    0.0002 H   0  0  0  0  0  0  0  0  0  0  0  0
    0.6496   -5.1830   -0.0002 C   0  0  0  0  0  0  0  0  0  0  0  0
    0.2503   -6.2083   -0.0002 H   0  0  0  0  0  0  0  0  0  0  0  0
   -1.8993   -1.8122    0.0004 C   0  0  0  0  0  0  0  0  0  0  0  0
   -2.5236   -0.9058    0.0006 H   0  0  0  0  0  0  0  0  0  0  0  0
    2.0081   -4.9671   -0.0003 C   0  0  0  0  0  0  0  0  0  0  0  0
    2.7058   -5.8176   -0.0004 H   0  0  0  0  0  0  0  0  0  0  0  0
  1  8  1  0  0  0  0
  3 19  1  0  0  0  0
  4  7  1  0  0  0  0
  5  6  1  0  0  0  0
  5  4  1  0  0  0  0
  7 14  2  0  0  0  0
  8  5  2  0  0  0  0
  9 21  1  0  0  0  0
  9  7  1  0  0  0  0
 10  8  1  0  0  0  0
 10  9  2  0  0  0  0
 11 10  1  0  0  0  0
 12 15  2  0  0  0  0
 13  2  1  0  0  0  0
 14 12  1  0  0  0  0
 14  3  1  0  0  0  0
 15 16  1  0  0  0  0
 15 13  1  0  0  0  0
 17 18  1  0  0  0  0
 17 12  1  0  0  0  0
 19 13  2  0  0  0  0
 19 20  1  0  0  0  0
 21 17  2  0  0  0  0
 22 21  1  0  0  0  0
M  END
