3,4
q = 0.0, confidence = 0.98

 20 21  0  0  1  0  0  0  0  0999 V2000
    4.6857   -2.8546    0.0090 Br  0  0  0  0  0  0  0  0  0  0  0  0
   -6.0371   -2.1690    0.0082 Br  0  0  0  0  0  0  0  0  0  0  0  0
    0.7014   -1.8124    0.0109 N   0  0  0  0  0  2  0  0  0  0  0  0
   -1.9464   -1.6274    0.0089 N   0  0  0  0  0  2  0  0  0  0  0  0
    2.0429   -1.7820    0.0100 C   0  0  0  0  0  3  0  0  0  0  0  0
    2.5280   -0.7944    0.0071 H   0  0  0  0  0  0  0  0  0  0  0  0
    2.8033   -2.9626    0.0124 C   0  0  0  0  0  0  0  0  0  0  0  0
    2.1434   -4.2037    0.0166 C   0  0  0  0  0  0  0  0  0  0  0  0
    2.7160   -5.1418    0.0185 H   0  0  0  0  0  0  0  0  0  0  0  0
    0.7447   -4.2171    0.0177 C   0  0  0  0  0  0  0  0  0  0  0  0
    0.2151   -5.1793    0.0207 H   0  0  0  0  0  0  0  0  0  0  0  0
    0.0361   -2.9993    0.0144 C   0  0  0  0  0  0  0  0  0  0  0  0
   -1.4397   -2.8959    0.0134 C   0  0  2  0  0  3  0  0  0  0  0  0
   -2.3013   -4.0108    0.0167 C   0  0  0  0  0  0  0  0  0  0  0  0
   -1.8941   -5.0307    0.0203 H   0  0  0  0  0  0  0  0  0  0  0  0
   -3.6856   -3.8262    0.0152 C   0  0  0  0  0  0  0  0  0  0  0  0
   -4.3714   -4.6849    0.0178 H   0  0  0  0  0  0  0  0  0  0  0  0
   -4.1842   -2.5107    0.0106 C   0  0  0  0  0  0  0  0  0  0  0  0
   -3.2783   -1.4392    0.0075 C   0  0  0  0  0  0  0  0  0  0  0  0
   -3.6396   -0.3997    0.0039 H   0  0  0  0  0  0  0  0  0  0  0  0
  1  7  1  0  0  0  0
  2 18  1  0  0  0  0
  3 12  1  0  0  0  0
  4 13  1  0  0  0  0
  5  3  1  0  0  0  0
  5  7  1  0  0  0  0
  6  5  1  0  0  0  0
  7  8  2  0  0  0  0
  8 10  1  0  0  0  0
  8  9  1  0  0  0  0
 10 11  1  0  0  0  0
 12 10  2  0  0  0  0
 13 12  1  6  0  0  0
 13 14  1  0  0  0  0
 14 15  1  0  0  0  0
 16 14  2  0  0  0  0
 16 17  1  0  0  0  0
 18 16  1  0  0  0  0
 19  4  1  0  0  0  0
 19 18  2  0  0  0  0
 20 19  1  0  0  0  0
M  END
