1,2
q = 0.0, confidence = 0.996

 40 42  0  0  1  0  0  0  0  0999 V2000
    1.1056    2.0335   -0.0236 N   0  0  0  0  0  2  0  0  0  0  0  0
    1.1054   -2.0336   -0.0236 N   0  0  0  0  0  2  0  0  0  0  0  0
    3.5510   -1.9350   -0.0290 C   0  0  0  0  0  0  0  0  0  0  0  0
    2.2766   -2.7196   -0.0416 C   0  0  1  0  0  3  0  0  0  0  0  0
    2.2755   -4.1265   -0.0597 C   0  0  0  0  0  0  0  0  0  0  0  0
    1.0652   -4.8301   -0.0565 C   0  0  0  0  0  0  0  0  0  0  0  0
   -0.1308   -4.1141   -0.0330 C   0  0  0  0  0  0  0  0  0  0  0  0
   -0.0880   -2.7011   -0.0167 C   0  0  0  0  0  0  0  0  0  0  0  0
   -1.2946   -1.9555    0.0140 C   0  0  0  0  0  0  0  0  0  0  0  0
   -2.4031   -1.4197    0.0507 C   0  0  0  0  0  0  0  0  0  0  0  0
   -3.6336   -0.7190    0.0841 C   0  0  0  0  0  0  0  0  0  0  0  0
   -4.8707   -1.4064    0.1157 C   0  0  0  0  0  0  0  0  0  0  0  0
   -6.0789   -0.7036    0.1462 C   0  0  0  0  0  0  0  0  0  0  0  0
   -6.0789    0.7039    0.1458 C   0  0  0  0  0  0  0  0  0  0  0  0
   -4.8707    1.4067    0.1150 C   0  0  0  0  0  0  0  0  0  0  0  0
   -3.6336    0.7192    0.0837 C   0  0  0  0  0  0  0  0  0  0  0  0
   -2.4031    1.4199    0.0499 C   0  0  0  0  0  0  0  0  0  0  0  0
   -1.2945    1.9556    0.0134 C   0  0  0  0  0  0  0  0  0  0  0  0
   -0.0878    2.7011   -0.0171 C   0  0  1  0  0  3  0  0  0  0  0  0
   -0.1306    4.1141   -0.0333 C   0  0  0  0  0  0  0  0  0  0  0  0
    1.0655    4.8300   -0.0563 C   0  0  0  0  0  0  0  0  0  0  0  0
    2.2757    4.1264   -0.0592 C   0  0  0  0  0  0  0  0  0  0  0  0
    2.2768    2.7195   -0.0412 C   0  0  0  0  0  0  0  0  0  0  0  0
    3.5512    1.9349   -0.0281 C   0  0  0  0  0  0  0  0  0  0  0  0
    3.5780   -1.3106    0.8888 H   0  0  0  0  0  0  0  0  0  0  0  0
    3.5794   -1.2463   -0.8974 H   0  0  0  0  0  0  0  0  0  0  0  0
    4.4314   -2.6032   -0.0591 H   0  0  0  0  0  0  0  0  0  0  0  0
    3.2383   -4.6556   -0.0766 H   0  0  0  0  0  0  0  0  0  0  0  0
    1.0571   -5.9300   -0.0714 H   0  0  0  0  0  0  0  0  0  0  0  0
   -1.1089   -4.6123   -0.0268 H   0  0  0  0  0  0  0  0  0  0  0  0
   -4.8624   -2.5057    0.1154 H   0  0  0  0  0  0  0  0  0  0  0  0
   -7.0305   -1.2551    0.1704 H   0  0  0  0  0  0  0  0  0  0  0  0
   -7.0304    1.2554    0.1698 H   0  0  0  0  0  0  0  0  0  0  0  0
   -4.8623    2.5059    0.1142 H   0  0  0  0  0  0  0  0  0  0  0  0
   -1.1087    4.6123   -0.0273 H   0  0  0  0  0  0  0  0  0  0  0  0
    1.0574    5.9300   -0.0712 H   0  0  0  0  0  0  0  0  0  0  0  0
    3.2386    4.6555   -0.0758 H   0  0  0  0  0  0  0  0  0  0  0  0
    3.5796    1.2459   -0.8963 H   0  0  0  0  0  0  0  0  0  0  0  0
    3.5781    1.3109    0.8899 H   0  0  0  0  0  0  0  0  0  0  0  0
    4.4315    2.6032   -0.0584 H   0  0  0  0  0  0  0  0  0  0  0  0
  1 19  1  0  0  0  0
  2  8  1  0  0  0  0
  3 25  1  0  0  0  0
  4  3  1  1  0  0  0
  4  2  1  0  0  0  0
  5  6  2  0  0  0  0
  5  4  1  0  0  0  0
  6  7  1  0  0  0  0
  7 30  1  0  0  0  0
  7  8  2  0  0  0  0
  8  9  1  0  0  0  0
  9 10  3  0  0  0  0
 10 11  1  0  0  0  0
 11 12  1  0  0  0  0
 12 13  2  0  0  0  0
 13 32  1  0  0  0  0
 14 13  1  0  0  0  0
 14 33  1  0  0  0  0
 15 14  2  0  0  0  0
 16 11  2  0  0  0  0
 16 15  1  0  0  0  0
 17 16  1  0  0  0  0
 18 17  3  0  0  0  0
 19 18  1  1  0  0  0
 20 35  1  0  0  0  0
 20 19  1  0  0  0  0
 21 20  2  0  0  0  0
 22 21  1  0  0  0  0
 22 23  2  0  0  0  0
 23 24  1  0  0  0  0
 23  1  1  0  0  0  0
 24 39  1  0  0  0  0
 26  3  1  0  0  0  0
 27  3  1  0  0  0  0
 28  5  1  0  0  0  0
 29  6  1  0  0  0  0
 31 12  1  0  0  0  0
 34 15  1  0  0  0  0
 36 21  1  0  0  0  0
 37 22  1  0  0  0  0
 38 24  1  0  0  0  0
 40 24  1  0  0  0  0
M  END
