30,32
q = 0.0, confidence = 0.998

 34 36  0  0  1  0  0  0  0  0999 V2000
    2.0586   -1.2431    0.2474 C   0  0  1  0  0  3  0  0  0  0  0  0
    2.3055   -2.9730    1.6323 C   0  0  0  0  0  0  0  0  0  0  0  0
    2.8139   -3.7859    2.1602 H   0  0  0  0  0  0  0  0  0  0  0  0
    0.9913   -2.5439    1.6669 C   0  0  0  0  0  0  0  0  0  0  0  0
    0.1335   -2.9600    2.2037 H   0  0  0  0  0  0  0  0  0  0  0  0
    0.8825   -0.2148   -2.0101 C   0  0  2  0  0  3  0  0  0  0  0  0
   -0.4944   -0.4974   -3.7395 C   0  0  0  0  0  0  0  0  0  0  0  0
   -0.8063   -0.5861   -4.7849 H   0  0  0  0  0  0  0  0  0  0  0  0
   -1.2156   -0.5785   -2.5625 C   0  0  0  0  0  0  0  0  0  0  0  0
   -2.2752   -0.7996   -2.4092 H   0  0  0  0  0  0  0  0  0  0  0  0
    2.3254    1.5693   -0.2920 C   0  0  0  0  0  0  0  0  0  0  0  0
    1.6698    2.6381   -0.9336 C   0  0  0  0  0  0  0  0  0  0  0  0
    1.1459    2.4738   -1.8885 H   0  0  0  0  0  0  0  0  0  0  0  0
    1.6631    3.9130   -0.3458 C   0  0  0  0  0  0  0  0  0  0  0  0
    1.1427    4.7423   -0.8481 H   0  0  0  0  0  0  0  0  0  0  0  0
    2.3149    4.1308    0.8793 C   0  0  0  0  0  0  0  0  0  0  0  0
    2.3057    5.1298    1.3392 H   0  0  0  0  0  0  0  0  0  0  0  0
    2.9867    3.0704    1.5107 C   0  0  0  0  0  0  0  0  0  0  0  0
    3.5068    3.2376    2.4659 H   0  0  0  0  0  0  0  0  0  0  0  0
    3.0007    1.7957    0.9244 C   0  0  0  0  0  0  0  0  0  0  0  0
    3.5321    0.9709    1.4259 H   0  0  0  0  0  0  0  0  0  0  0  0
    4.3791   -2.2534    0.4041 C   0  0  0  0  0  0  0  0  0  0  0  0
    4.5759   -1.6582   -0.5069 H   0  0  0  0  0  0  0  0  0  0  0  0
    4.6483   -3.3088    0.2110 H   0  0  0  0  0  0  0  0  0  0  0  0
    5.0023   -1.8644    1.2335 H   0  0  0  0  0  0  0  0  0  0  0  0
    1.9215   -0.1059   -4.3205 C   0  0  0  0  0  0  0  0  0  0  0  0
    1.8712   -0.8857   -5.1033 H   0  0  0  0  0  0  0  0  0  0  0  0
    2.8773   -0.2042   -3.7731 H   0  0  0  0  0  0  0  0  0  0  0  0
    1.8781    0.8933   -4.7971 H   0  0  0  0  0  0  0  0  0  0  0  0
    0.8574   -1.4706    0.8172 N   0  0  0  0  0  2  0  0  0  0  0  0
    2.9625   -2.1609    0.7357 N   0  0  0  0  0  0  0  0  0  0  0  0
   -0.3565   -0.3911   -1.5053 N   0  0  0  0  0  2  0  0  0  0  0  0
    0.8172   -0.2793   -3.3845 N   0  0  0  0  0  0  0  0  0  0  0  0
    2.4585   -0.0809   -1.1032 P   0  0  1  0  0  0  0  0  0  0  0  0
  1 34  1  6  0  0  0
  1 31  1  0  0  0  0
  1 30  1  0  0  0  0
  2  4  2  0  0  0  0
  2  3  1  0  0  0  0
  4  5  1  0  0  0  0
  6 32  1  0  0  0  0
  6 34  1  1  0  0  0
  7 33  1  0  0  0  0
  7  9  2  0  0  0  0
  8  7  1  0  0  0  0
  9 10  1  0  0  0  0
  9 32  1  0  0  0  0
 11 20  1  0  0  0  0
 12 14  1  0  0  0  0
 12 11  2  0  0  0  0
 13 12  1  0  0  0  0
 14 16  2  0  0  0  0
 15 14  1  0  0  0  0
 16 17  1  0  0  0  0
 16 18  1  0  0  0  0
 18 19  1  0  0  0  0
 20 21  1  0  0  0  0
 20 18  2  0  0  0  0
 22 31  1  0  0  0  0
 22 25  1  0  0  0  0
 23 22  1  0  0  0  0
 24 22  1  0  0  0  0
 26 28  1  0  0  0  0
 26 33  1  0  0  0  0
 27 26  1  0  0  0  0
 29 26  1  0  0  0  0
 30  4  1  0  0  0  0
 31  2  1  0  0  0  0
 33  6  1  0  0  0  0
 34 11  1  1  0  0  0
M  END
