1,2
q = 0.0, confidence = 1.0

 29 30  0  0  0  0  0  0  0  0999 V2000
   -2.1614   -0.5048   -0.2718 N   0  0  0  0  0  2  0  0  0  0  0  0
    0.4246   -0.8385    0.6475 N   0  0  0  0  0  0  0  0  0  0  0  0
   -3.4757   -0.2417   -0.4508 C   0  0  0  0  0  3  0  0  0  0  0  0
   -3.7129    0.8313   -0.5587 H   0  0  0  0  0  0  0  0  0  0  0  0
   -4.4279   -1.2650   -0.4900 C   0  0  0  0  0  0  0  0  0  0  0  0
   -5.4864   -1.0101   -0.6414 H   0  0  0  0  0  0  0  0  0  0  0  0
   -4.0139   -2.5943   -0.3223 C   0  0  0  0  0  0  0  0  0  0  0  0
   -4.7434   -3.4175   -0.3330 H   0  0  0  0  0  0  0  0  0  0  0  0
   -2.6485   -2.8583   -0.1356 C   0  0  0  0  0  0  0  0  0  0  0  0
   -2.2807   -3.8860   -0.0021 H   0  0  0  0  0  0  0  0  0  0  0  0
   -1.7414   -1.7921   -0.1291 C   0  0  0  0  0  0  0  0  0  0  0  0
   -0.2499   -1.9752   -0.0524 C   0  0  0  0  0  0  0  0  0  0  0  0
    0.0213   -2.9406    0.4288 H   0  0  0  0  0  0  0  0  0  0  0  0
    0.1476   -2.0056   -1.0871 H   0  0  0  0  0  0  0  0  0  0  0  0
    0.2248   -0.9301    2.1116 C   0  0  0  0  0  0  0  0  0  0  0  0
    0.6801   -1.8566    2.5269 H   0  0  0  0  0  0  0  0  0  0  0  0
   -0.8603   -0.9416    2.3208 H   0  0  0  0  0  0  0  0  0  0  0  0
    0.6666   -0.0305    2.5778 H   0  0  0  0  0  0  0  0  0  0  0  0
    1.8273   -0.7512    0.2358 C   0  0  0  0  0  0  0  0  0  0  0  0
    2.8864   -1.0285    1.1128 C   0  0  0  0  0  0  0  0  0  0  0  0
    2.7021   -1.3004    2.1592 H   0  0  0  0  0  0  0  0  0  0  0  0
    4.2151   -0.9473    0.6655 C   0  0  0  0  0  0  0  0  0  0  0  0
    5.0566   -1.1514    1.3422 H   0  0  0  0  0  0  0  0  0  0  0  0
    4.4697   -0.5923   -0.6608 C   0  0  0  0  0  0  0  0  0  0  0  0
    5.7396   -0.5140   -1.0927 F   0  0  0  0  0  0  0  0  0  0  0  0
    3.4241   -0.3041   -1.5501 C   0  0  0  0  0  0  0  0  0  0  0  0
    3.6562    0.0037   -2.5791 H   0  0  0  0  0  0  0  0  0  0  0  0
    2.1073   -0.3761   -1.0934 C   0  0  0  0  0  0  0  0  0  0  0  0
    1.2795   -0.0887   -1.7601 H   0  0  0  0  0  0  0  0  0  0  0  0
  1 11  1  0  0  0  0
  2 15  1  0  0  0  0
  3  1  1  0  0  0  0
  4  3  1  0  0  0  0
  5  3  1  0  0  0  0
  5  7  2  0  0  0  0
  6  5  1  0  0  0  0
  7  9  1  0  0  0  0
  8  7  1  0  0  0  0
  9 11  2  0  0  0  0
  9 10  1  0  0  0  0
 11 12  1  0  0  0  0
 12 13  1  0  0  0  0
 12  2  1  0  0  0  0
 14 12  1  0  0  0  0
 15 17  1  0  0  0  0
 15 16  1  0  0  0  0
 15 18  1  0  0  0  0
 19  2  1  0  0  0  0
 19 20  1  0  0  0  0
 20 21  1  0  0  0  0
 22 20  2  0  0  0  0
 22 23  1  0  0  0  0
 24 22  1  0  0  0  0
 25 24  1  0  0  0  0
 26 28  1  0  0  0  0
 26 24  2  0  0  0  0
 27 26  1  0  0  0  0
 28 19  2  0  0  0  0
 29 28  1  0  0  0  0
M  END
