1,2
q = 0.0, confidence = 0.988

 46 47  0  0  0  0  0  0  0  0999 V2000
    2.4990    0.4629    0.3484 N   0  0  0  0  0  2  0  0  0  0  0  0
   -0.1082    0.4624    0.5004 N   0  0  0  0  0  2  0  0  0  0  0  0
    3.9158    0.3755    0.1956 C   0  0  0  0  0  0  0  0  0  0  0  0
    4.6447   -0.4611    1.0736 C   0  0  0  0  0  0  0  0  0  0  0  0
    6.0312   -0.5778    0.8641 C   0  0  0  0  0  0  0  0  0  0  0  0
    6.6157   -1.2272    1.5341 H   0  0  0  0  0  0  0  0  0  0  0  0
    6.6652    0.1075   -0.1812 C   0  0  0  0  0  0  0  0  0  0  0  0
    7.7497   -0.0003   -0.3313 H   0  0  0  0  0  0  0  0  0  0  0  0
    5.9161    0.9198   -1.0433 C   0  0  0  0  0  0  0  0  0  0  0  0
    6.4100    1.4484   -1.8734 H   0  0  0  0  0  0  0  0  0  0  0  0
    4.5270    1.0687   -0.8762 C   0  0  0  0  0  0  0  0  0  0  0  0
    3.9385   -1.2053    2.1750 C   0  0  0  0  0  0  0  0  0  0  0  0
    4.6297   -1.8866    2.7054 H   0  0  0  0  0  0  0  0  0  0  0  0
    3.5014   -0.5142    2.9270 H   0  0  0  0  0  0  0  0  0  0  0  0
    3.0927   -1.8017    1.7701 H   0  0  0  0  0  0  0  0  0  0  0  0
    3.6975    1.9199   -1.7996 C   0  0  0  0  0  0  0  0  0  0  0  0
    2.8409    1.3415   -2.2080 H   0  0  0  0  0  0  0  0  0  0  0  0
    3.2600    2.7948   -1.2727 H   0  0  0  0  0  0  0  0  0  0  0  0
    4.3016    2.3025   -2.6433 H   0  0  0  0  0  0  0  0  0  0  0  0
    1.9625    1.3979    1.1113 C   0  0  0  0  0  0  0  0  0  0  0  0
    0.4922    1.3975    1.2007 C   0  0  0  0  0  0  0  0  0  0  0  0
    2.7697    2.4150    1.8632 C   0  0  0  0  0  0  0  0  0  0  0  0
    2.6691    2.2672    2.9596 H   0  0  0  0  0  0  0  0  0  0  0  0
    3.8411    2.3441    1.6035 H   0  0  0  0  0  0  0  0  0  0  0  0
    2.4154    3.4436    1.6482 H   0  0  0  0  0  0  0  0  0  0  0  0
   -0.1996    2.3985    2.0832 C   0  0  0  0  0  0  0  0  0  0  0  0
    0.3077    2.4669    3.0658 H   0  0  0  0  0  0  0  0  0  0  0  0
   -0.1701    3.4168    1.6406 H   0  0  0  0  0  0  0  0  0  0  0  0
   -1.2592    2.1320    2.2462 H   0  0  0  0  0  0  0  0  0  0  0  0
   -1.5056    0.3540    0.3869 C   0  0  0  0  0  0  0  0  0  0  0  0
   -2.1151   -0.8940    0.6395 C   0  0  0  0  0  0  0  0  0  0  0  0
   -1.4979   -1.7401    0.9638 H   0  0  0  0  0  0  0  0  0  0  0  0
   -3.4995   -1.0332    0.4830 C   0  0  0  0  0  0  0  0  0  0  0  0
   -4.2880    0.0444    0.0490 C   0  0  0  0  0  0  0  0  0  0  0  0
   -5.3719   -0.0761   -0.0792 H   0  0  0  0  0  0  0  0  0  0  0  0
   -3.6742    1.2743   -0.2292 C   0  0  0  0  0  0  0  0  0  0  0  0
   -2.2902    1.4326   -0.0664 C   0  0  0  0  0  0  0  0  0  0  0  0
   -1.8140    2.3875   -0.3279 H   0  0  0  0  0  0  0  0  0  0  0  0
   -4.1442   -2.3838    0.7085 C   0  0  0  0  0  0  0  0  0  0  0  0
   -4.5083    2.4642   -0.6439 C   0  0  0  0  0  0  0  0  0  0  0  0
   -3.8341    3.2747   -1.4950 F   0  0  0  0  0  0  0  0  0  0  0  0
   -4.8479    3.2202    0.4332 F   0  0  0  0  0  0  0  0  0  0  0  0
   -5.6575    2.0920   -1.2484 F   0  0  0  0  0  0  0  0  0  0  0  0
   -3.4525   -3.1251    1.6037 F   0  0  0  0  0  0  0  0  0  0  0  0
   -5.4115   -2.2526    1.1749 F   0  0  0  0  0  0  0  0  0  0  0  0
   -4.2137   -3.0933   -0.4398 F   0  0  0  0  0  0  0  0  0  0  0  0
  1 20  1  0  0  0  0
  2 21  1  0  0  0  0
  3  1  1  0  0  0  0
  3  4  1  0  0  0  0
  4 12  1  0  0  0  0
  5  4  2  0  0  0  0
  5  6  1  0  0  0  0
  7  5  1  0  0  0  0
  8  7  1  0  0  0  0
  9 11  1  0  0  0  0
  9  7  2  0  0  0  0
 10  9  1  0  0  0  0
 11  3  2  0  0  0  0
 12 13  1  0  0  0  0
 12 14  1  0  0  0  0
 15 12  1  0  0  0  0
 16 18  1  0  0  0  0
 16 11  1  0  0  0  0
 17 16  1  0  0  0  0
 19 16  1  0  0  0  0
 20 21  2  0  0  0  0
 20 22  1  0  0  0  0
 21 26  1  0  0  0  0
 22 23  1  0  0  0  0
 24 22  1  0  0  0  0
 25 22  1  0  0  0  0
 26 29  1  0  0  0  0
 26 27  1  0  0  0  0
 28 26  1  0  0  0  0
 30  2  1  0  0  0  0
 30 31  1  0  0  0  0
 31 32  1  0  0  0  0
 33 31  2  0  0  0  0
 33 39  1  0  0  0  0
 34 33  1  0  0  0  0
 35 34  1  0  0  0  0
 36 37  1  0  0  0  0
 36 34  2  0  0  0  0
 37 30  2  0  0  0  0
 38 37  1  0  0  0  0
 39 45  1  0  0  0  0
 39 44  1  0  0  0  0
 40 36  1  0  0  0  0
 40 42  1  0  0  0  0
 41 40  1  0  0  0  0
 43 40  1  0  0  0  0
 46 39  1  0  0  0  0
M  END
