2,3
q = -1.0

 39 38  0  0  0  0  0  0  0  0999 V2000
    4.7695   -0.9015    0.0504 Si  0  0  0  0  0  0  0  0  0  0  0  0
    1.4176   -0.3372   -1.2185 N   0  0  0  0  0  2  0  0  0  0  0  0
    1.8766    1.2490    0.2703 N   0  0  0  0  0  2  0  0  0  0  0  0
    2.3674    0.4497   -0.6894 C   0  0  0  0  0  3  0  0  0  0  0  0
    1.2909   -0.6508   -3.6544 C   0  0  0  0  0  0  0  0  0  0  0  0
    0.2521   -0.2589   -3.6636 H   0  0  0  0  0  0  0  0  0  0  0  0
    1.3986   -1.3782   -4.4859 H   0  0  0  0  0  0  0  0  0  0  0  0
    1.9723    0.2025   -3.8471 H   0  0  0  0  0  0  0  0  0  0  0  0
    1.5900   -1.2934   -2.2885 C   0  0  0  0  0  0  0  0  0  0  0  0
    2.6425   -1.6696   -2.3107 H   0  0  0  0  0  0  0  0  0  0  0  0
    0.6773   -2.4996   -2.0317 C   0  0  0  0  0  0  0  0  0  0  0  0
    0.9209   -2.9779   -1.0620 H   0  0  0  0  0  0  0  0  0  0  0  0
    0.7676   -3.2585   -2.8349 H   0  0  0  0  0  0  0  0  0  0  0  0
   -0.3821   -2.1708   -1.9810 H   0  0  0  0  0  0  0  0  0  0  0  0
    2.5969    2.2356    1.0408 C   0  0  0  0  0  0  0  0  0  0  0  0
    3.6883    2.1825    0.8160 H   0  0  0  0  0  0  0  0  0  0  0  0
    2.4134    1.9555    2.5406 C   0  0  0  0  0  0  0  0  0  0  0  0
    1.3340    1.9818    2.7998 H   0  0  0  0  0  0  0  0  0  0  0  0
    2.9403    2.7044    3.1668 H   0  0  0  0  0  0  0  0  0  0  0  0
    2.7933    0.9474    2.8029 H   0  0  0  0  0  0  0  0  0  0  0  0
    2.1107    3.6485    0.6783 C   0  0  0  0  0  0  0  0  0  0  0  0
    2.2770    3.8545   -0.3981 H   0  0  0  0  0  0  0  0  0  0  0  0
    2.6320    4.4286    1.2707 H   0  0  0  0  0  0  0  0  0  0  0  0
    1.0207    3.7332    0.8725 H   0  0  0  0  0  0  0  0  0  0  0  0
    3.8204    0.3593   -1.0601 C   0  0  0  0  0  0  0  0  0  0  0  0
    4.3168    1.3464   -0.9697 H   0  0  0  0  0  0  0  0  0  0  0  0
    3.9289    0.0379   -2.1146 H   0  0  0  0  0  0  0  0  0  0  0  0
    3.5361   -2.0835    0.8577 C   0  0  0  0  0  0  0  0  0  0  0  0
    4.0481   -2.7674    1.5652 H   0  0  0  0  0  0  0  0  0  0  0  0
    3.0071   -2.6990    0.1032 H   0  0  0  0  0  0  0  0  0  0  0  0
    2.7692   -1.5105    1.4183 H   0  0  0  0  0  0  0  0  0  0  0  0
    5.9788   -1.8538   -1.0520 C   0  0  0  0  0  0  0  0  0  0  0  0
    6.6969   -1.1680   -1.5473 H   0  0  0  0  0  0  0  0  0  0  0  0
    5.4372   -2.4096   -1.8452 H   0  0  0  0  0  0  0  0  0  0  0  0
    6.5643   -2.5892   -0.4625 H   0  0  0  0  0  0  0  0  0  0  0  0
    5.7289    0.0296    1.3908 C   0  0  0  0  0  0  0  0  0  0  0  0
    6.3326   -0.6758    1.9987 H   0  0  0  0  0  0  0  0  0  0  0  0
    5.0458    0.5677    2.0784 H   0  0  0  0  0  0  0  0  0  0  0  0
    6.4226    0.7730    0.9469 H   0  0  0  0  0  0  0  0  0  0  0  0
  1 28  1  0  0  0  0
  1 36  1  0  0  0  0
  2  4  1  0  0  0  0
  3 15  1  0  0  0  0
  4  3  1  0  0  0  0
  5  9  1  0  0  0  0
  6  5  1  0  0  0  0
  7  5  1  0  0  0  0
  8  5  1  0  0  0  0
  9 11  1  0  0  0  0
  9  2  1  0  0  0  0
 10  9  1  0  0  0  0
 11 14  1  0  0  0  0
 11 12  1  0  0  0  0
 13 11  1  0  0  0  0
 15 17  1  0  0  0  0
 16 15  1  0  0  0  0
 17 18  1  0  0  0  0
 17 20  1  0  0  0  0
 17 19  1  0  0  0  0
 21 24  1  0  0  0  0
 21 15  1  0  0  0  0
 21 23  1  0  0  0  0
 22 21  1  0  0  0  0
 25 26  1  0  0  0  0
 25  4  1  0  0  0  0
 25  1  1  0  0  0  0
 27 25  1  0  0  0  0
 28 31  1  0  0  0  0
 28 29  1  0  0  0  0
 30 28  1  0  0  0  0
 32 35  1  0  0  0  0
 32  1  1  0  0  0  0
 33 32  1  0  0  0  0
 34 32  1  0  0  0  0
 36 37  1  0  0  0  0
 36 38  1  0  0  0  0
 39 36  1  0  0  0  0
M  END
