4,7
q = -1.0

 32 34  0  0  0  0  0  0  0  0999 V2000
   -4.0041    2.3150    1.3270 O   0  0  0  0  0  0  0  0  0  0  0  0
   -5.8427    2.3830    0.1481 O   0  0  0  0  0  0  0  0  0  0  0  0
   -4.9809    1.7849    0.7940 N   0  0  0  0  0  0  0  0  0  0  0  0
   -1.7320   -0.8074   -0.0237 N   0  0  0  0  0  2  0  0  0  0  0  0
   -1.7996   -2.1427   -0.1897 N   0  0  0  0  0  0  0  0  0  0  0  0
    1.7033   -2.2541   -0.8009 N   0  0  0  0  0  0  0  0  0  0  0  0
    0.4822   -1.8113   -0.5239 N   0  0  0  0  0  2  0  0  0  0  0  0
   -5.1641    0.3265    0.9660 C   0  0  0  0  0  0  0  0  0  0  0  0
   -6.4717   -0.0820    1.2530 C   0  0  0  0  0  0  0  0  0  0  0  0
   -6.7451   -1.4369    1.4724 C   0  0  0  0  0  0  0  0  0  0  0  0
   -5.7041   -2.3748    1.3629 C   0  0  0  0  0  0  0  0  0  0  0  0
   -4.4098   -1.9691    1.0259 C   0  0  0  0  0  0  0  0  0  0  0  0
   -4.0838   -0.5998    0.8185 C   0  0  0  0  0  0  0  0  0  0  0  0
   -2.7675   -0.1251    0.4304 C   0  0  0  0  0  3  0  0  0  0  0  0
   -0.6109   -2.6559   -0.4907 C   0  0  0  0  0  0  0  0  0  0  0  0
   -0.4326   -4.0655   -0.7753 C   0  0  0  0  0  0  0  0  0  0  0  0
   -1.5066   -4.9863   -0.7836 C   0  0  0  0  0  0  0  0  0  0  0  0
   -1.2625   -6.3313   -1.0542 C   0  0  0  0  0  0  0  0  0  0  0  0
    0.0529   -6.7841   -1.3200 C   0  0  0  0  0  0  0  0  0  0  0  0
    1.1192   -5.8885   -1.3215 C   0  0  0  0  0  0  0  0  0  0  0  0
    0.8929   -4.5151   -1.0519 C   0  0  0  0  0  0  0  0  0  0  0  0
    1.9330   -3.5265   -1.0407 C   0  0  0  0  0  0  0  0  0  0  0  0
   -7.2601    0.6811    1.3050 H   0  0  0  0  0  0  0  0  0  0  0  0
   -7.7668   -1.7568    1.7241 H   0  0  0  0  0  0  0  0  0  0  0  0
   -5.9065   -3.4429    1.5336 H   0  0  0  0  0  0  0  0  0  0  0  0
   -3.6008   -2.6985    0.9016 H   0  0  0  0  0  0  0  0  0  0  0  0
   -2.6114    0.9597    0.4136 H   0  0  0  0  0  0  0  0  0  0  0  0
   -2.5217   -4.6162   -0.5829 H   0  0  0  0  0  0  0  0  0  0  0  0
   -2.0974   -7.0480   -1.0636 H   0  0  0  0  0  0  0  0  0  0  0  0
    0.2307   -7.8497   -1.5292 H   0  0  0  0  0  0  0  0  0  0  0  0
    2.1440   -6.2318   -1.5302 H   0  0  0  0  0  0  0  0  0  0  0  0
    2.9862   -3.8003   -1.2155 H   0  0  0  0  0  0  0  0  0  0  0  0
  2  3  2  0  0  0  0
  3  8  1  0  0  0  0
  3  1  2  0  0  0  0
  4 14  1  0  0  0  0
  5  4  1  0  0  0  0
  6  7  1  0  0  0  0
  7 15  1  0  0  0  0
  8  9  1  0  0  0  0
  9 23  1  0  0  0  0
  9 10  2  0  0  0  0
 10 24  1  0  0  0  0
 11 10  1  0  0  0  0
 11 25  1  0  0  0  0
 12 11  2  0  0  0  0
 13  8  2  0  0  0  0
 13 12  1  0  0  0  0
 14 13  1  0  0  0  0
 15  5  2  0  0  0  0
 16 15  1  0  0  0  0
 17 16  1  0  0  0  0
 17 28  1  0  0  0  0
 18 17  2  0  0  0  0
 19 18  1  0  0  0  0
 20 19  2  0  0  0  0
 20 21  1  0  0  0  0
 21 22  1  0  0  0  0
 21 16  2  0  0  0  0
 22  6  2  0  0  0  0
 26 12  1  0  0  0  0
 27 14  1  0  0  0  0
 29 18  1  0  0  0  0
 30 19  1  0  0  0  0
 31 20  1  0  0  0  0
 32 22  1  0  0  0  0
M  END
