1,3
q = -1.0

 47 48  0  0  1  0  0  0  0  0999 V2000
    1.5605   -0.4979    0.2356 N   0  0  0  0  0  0  0  0  0  0  0  0
    0.0867    1.2399   -0.4641 N   0  0  0  0  0  0  0  0  0  0  0  0
   -1.3857   -0.5536    0.0583 N   0  0  0  0  0  0  0  0  0  0  0  0
    1.2857    0.7139   -0.2154 C   0  0  1  0  0  0  0  0  0  0  0  0
   -1.1089    0.6539   -0.3987 C   0  0  0  0  0  0  0  0  0  0  0  0
    2.3913    1.7531   -0.5278 C   0  0  0  0  0  0  0  0  0  0  0  0
    2.0583    3.1725    0.0542 C   0  0  0  0  0  0  0  0  0  0  0  0
    3.3121    4.0975    0.2097 C   0  0  0  0  0  0  0  0  0  0  0  0
   -2.2125    1.6622   -0.8243 C   0  0  0  0  0  0  0  0  0  0  0  0
   -2.6059    2.5654    0.3922 C   0  0  0  0  0  0  0  0  0  0  0  0
   -3.8959    3.4215    0.1848 C   0  0  0  0  0  0  0  0  0  0  0  0
    2.8219   -1.1076    0.1901 C   0  0  0  0  0  0  0  0  0  0  0  0
    3.4370   -1.4237   -1.0403 C   0  0  0  0  0  0  0  0  0  0  0  0
    4.6319   -2.1527   -1.1014 C   0  0  0  0  0  0  0  0  0  0  0  0
    5.2255   -2.6145    0.0864 C   0  0  0  0  0  0  0  0  0  0  0  0
    4.6272   -2.3201    1.3248 C   0  0  0  0  0  0  0  0  0  0  0  0
    3.4265   -1.5962    1.3676 C   0  0  0  0  0  0  0  0  0  0  0  0
   -2.6371   -1.1905    0.0052 C   0  0  0  0  0  0  0  0  0  0  0  0
   -3.1305   -1.7313   -1.2005 C   0  0  0  0  0  0  0  0  0  0  0  0
   -4.3120   -2.4826   -1.2373 C   0  0  0  0  0  0  0  0  0  0  0  0
   -5.0068   -2.7453   -0.0428 C   0  0  0  0  0  0  0  0  0  0  0  0
   -4.5293   -2.2239    1.1719 C   0  0  0  0  0  0  0  0  0  0  0  0
   -3.3402   -1.4780    1.1930 C   0  0  0  0  0  0  0  0  0  0  0  0
    3.5933    1.3768    0.0078 F   0  0  0  0  0  0  0  0  0  0  0  0
    2.5514    1.8614   -1.8726 F   0  0  0  0  0  0  0  0  0  0  0  0
    1.5155    3.0230    1.2918 F   0  0  0  0  0  0  0  0  0  0  0  0
    1.1909    3.8169   -0.7504 F   0  0  0  0  0  0  0  0  0  0  0  0
    4.0855    3.6993    1.2302 F   0  0  0  0  0  0  0  0  0  0  0  0
    4.0393    4.0944   -0.9221 F   0  0  0  0  0  0  0  0  0  0  0  0
    2.9004    5.3528    0.4518 F   0  0  0  0  0  0  0  0  0  0  0  0
   -1.7737    2.4484   -1.8294 F   0  0  0  0  0  0  0  0  0  0  0  0
   -3.3521    1.0383   -1.2528 F   0  0  0  0  0  0  0  0  0  0  0  0
   -1.5865    3.4046    0.6702 F   0  0  0  0  0  0  0  0  0  0  0  0
   -2.8228    1.7576    1.4681 F   0  0  0  0  0  0  0  0  0  0  0  0
   -4.9882    2.6423    0.1936 F   0  0  0  0  0  0  0  0  0  0  0  0
   -3.9961    4.3119    1.1850 F   0  0  0  0  0  0  0  0  0  0  0  0
   -3.8393    4.0857   -0.9809 F   0  0  0  0  0  0  0  0  0  0  0  0
    2.8615   -1.0164   -2.1875 F   0  0  0  0  0  0  0  0  0  0  0  0
    5.1916   -2.4348   -2.2822 F   0  0  0  0  0  0  0  0  0  0  0  0
    6.3624   -3.3117    0.0403 F   0  0  0  0  0  0  0  0  0  0  0  0
    5.1944   -2.7509    2.4538 F   0  0  0  0  0  0  0  0  0  0  0  0
    2.8568   -1.3468    2.5527 F   0  0  0  0  0  0  0  0  0  0  0  0
   -2.4716   -1.4909   -2.3477 F   0  0  0  0  0  0  0  0  0  0  0  0
   -4.7699   -2.9677   -2.3958 F   0  0  0  0  0  0  0  0  0  0  0  0
   -6.1303   -3.4654   -0.0678 F   0  0  0  0  0  0  0  0  0  0  0  0
   -5.1909   -2.4683    2.3054 F   0  0  0  0  0  0  0  0  0  0  0  0
   -2.8720   -1.0284    2.3623 F   0  0  0  0  0  0  0  0  0  0  0  0
  2  5  2  0  0  0  0
  4  2  1  1  0  0  0
  4  1  1  0  0  0  0
  5  3  1  0  0  0  0
  6  4  1  0  0  0  0
  6 24  1  0  0  0  0
  6  7  1  0  0  0  0
  7  8  1  0  0  0  0
  7 26  1  0  0  0  0
  8 30  1  0  0  0  0
  8 28  1  0  0  0  0
  9  5  1  0  0  0  0
  9 10  1  0  0  0  0
 10 33  1  0  0  0  0
 10 34  1  0  0  0  0
 11 35  1  0  0  0  0
 11 10  1  0  0  0  0
 11 36  1  0  0  0  0
 12  1  1  0  0  0  0
 12 17  1  0  0  0  0
 13 12  2  0  0  0  0
 14 13  1  0  0  0  0
 14 15  2  0  0  0  0
 15 16  1  0  0  0  0
 16 17  2  0  0  0  0
 16 41  1  0  0  0  0
 17 42  1  0  0  0  0
 18  3  1  0  0  0  0
 18 23  1  0  0  0  0
 19 18  2  0  0  0  0
 20 19  1  0  0  0  0
 20 21  2  0  0  0  0
 21 22  1  0  0  0  0
 22 23  2  0  0  0  0
 22 46  1  0  0  0  0
 23 47  1  0  0  0  0
 25  6  1  0  0  0  0
 27  7  1  0  0  0  0
 29  8  1  0  0  0  0
 31  9  1  0  0  0  0
 32  9  1  0  0  0  0
 37 11  1  0  0  0  0
 38 13  1  0  0  0  0
 39 14  1  0  0  0  0
 40 15  1  0  0  0  0
 43 19  1  0  0  0  0
 44 20  1  0  0  0  0
 45 21  1  0  0  0  0
M  END
