2,3
q = 0.0, confidence = 0.998

 14 14  0  0  1  0  0  0  0  0999 V2000
    4.2288    0.9623   -0.1679 S   0  0  0  0  0  0  0  0  0  0  0  0
    1.6918    0.4528    0.3481 N   0  0  0  0  0  2  0  0  0  0  0  0
    1.1642   -0.8219   -2.0110 N   0  0  0  0  0  0  0  0  0  0  0  0
    2.2165    0.9795    1.6082 C   0  0  0  0  0  0  0  0  0  0  0  0
    2.3994   -0.2128   -1.7853 N   0  0  0  0  0  0  0  0  0  0  0  0
    2.6226    0.3483   -0.5660 C   0  0  2  0  0  3  0  0  0  0  0  0
    3.4799    1.7966    1.2982 C   0  0  0  0  0  0  0  0  0  0  0  0
    0.7879   -0.5495   -2.9291 H   0  0  0  0  0  0  0  0  0  0  0  0
    1.2102   -1.8557   -1.9325 H   0  0  0  0  0  0  0  0  0  0  0  0
    2.4520    0.1287    2.2878 H   0  0  0  0  0  0  0  0  0  0  0  0
    1.4564    1.6125    2.1095 H   0  0  0  0  0  0  0  0  0  0  0  0
    3.1856   -0.3718   -2.4222 H   0  0  0  0  0  0  0  0  0  0  0  0
    3.2500    2.8433    1.0162 H   0  0  0  0  0  0  0  0  0  0  0  0
    4.2155    1.7939    2.1238 H   0  0  0  0  0  0  0  0  0  0  0  0
  1  7  1  0  0  0  0
  2  4  1  0  0  0  0
  3  9  1  0  0  0  0
  3  5  1  0  0  0  0
  4 11  1  0  0  0  0
  4 10  1  0  0  0  0
  6  5  1  1  0  0  0
  6  1  1  0  0  0  0
  6  2  1  0  0  0  0
  7  4  1  0  0  0  0
  7 14  1  0  0  0  0
  8  3  1  0  0  0  0
 12  5  1  0  0  0  0
 13  7  1  0  0  0  0
M  END
