1,2
q = 0.0, confidence = 0.998

 34 37  0  0  1  0  0  0  0  0999 V2000
    2.7678    0.0472   -0.5776 N   0  0  0  0  0  2  0  0  0  0  0  0
    0.4359    1.1960   -0.1140 N   0  0  0  0  0  2  0  0  0  0  0  0
   -1.8567    0.8339   -0.1282 N   0  0  0  0  0  0  0  0  0  0  0  0
   -5.4598    0.7153    0.0349 N   0  0  0  0  0  0  0  0  0  0  0  0
    3.8992   -0.6050   -0.9209 C   0  0  0  0  0  3  0  0  0  0  0  0
    3.8153   -1.6974   -1.0102 H   0  0  0  0  0  0  0  0  0  0  0  0
    5.1130    0.0532   -1.1293 C   0  0  0  0  0  0  0  0  0  0  0  0
    6.0059   -0.5265   -1.4012 H   0  0  0  0  0  0  0  0  0  0  0  0
    5.1606    1.4478   -0.9719 C   0  0  0  0  0  0  0  0  0  0  0  0
    6.1007    1.9996   -1.1178 H   0  0  0  0  0  0  0  0  0  0  0  0
    3.9898    2.1280   -0.6297 C   0  0  0  0  0  0  0  0  0  0  0  0
    4.0015    3.2189   -0.5116 H   0  0  0  0  0  0  0  0  0  0  0  0
    2.7953    1.4071   -0.4370 C   0  0  0  0  0  0  0  0  0  0  0  0
    1.4929    2.0382   -0.1617 C   0  0  0  0  0  0  0  0  0  0  0  0
    1.3368    3.4460   -0.0300 C   0  0  0  0  0  0  0  0  0  0  0  0
    2.2184    4.0984   -0.0531 H   0  0  0  0  0  0  0  0  0  0  0  0
    0.0757    3.9835    0.1455 C   0  0  0  0  0  0  0  0  0  0  0  0
   -0.0646    5.0671    0.2776 H   0  0  0  0  0  0  0  0  0  0  0  0
   -1.0539    3.1232    0.1341 C   0  0  0  0  0  0  0  0  0  0  0  0
   -0.8396    1.7100   -0.0326 C   0  0  2  0  0  3  0  0  0  0  0  0
   -2.3997    3.5660    0.2703 C   0  0  0  0  0  0  0  0  0  0  0  0
   -2.5997    4.6378    0.4244 H   0  0  0  0  0  0  0  0  0  0  0  0
   -3.4305    2.6494    0.1952 C   0  0  0  0  0  0  0  0  0  0  0  0
   -4.4894    2.9236    0.2917 H   0  0  0  0  0  0  0  0  0  0  0  0
   -3.1109    1.2755   -0.0410 C   0  0  0  0  0  0  0  0  0  0  0  0
   -4.2053    0.2827   -0.2136 C   0  0  0  0  0  0  0  0  0  0  0  0
   -3.9177   -1.0343   -0.6315 C   0  0  0  0  0  0  0  0  0  0  0  0
   -2.8791   -1.3185   -0.8427 H   0  0  0  0  0  0  0  0  0  0  0  0
   -4.9798   -1.9333   -0.7753 C   0  0  0  0  0  0  0  0  0  0  0  0
   -4.7911   -2.9682   -1.0985 H   0  0  0  0  0  0  0  0  0  0  0  0
   -6.2829   -1.4921   -0.5017 C   0  0  0  0  0  0  0  0  0  0  0  0
   -7.1474   -2.1656   -0.5983 H   0  0  0  0  0  0  0  0  0  0  0  0
   -6.4655   -0.1554   -0.1044 C   0  0  0  0  0  0  0  0  0  0  0  0
   -7.4793    0.2274    0.1100 H   0  0  0  0  0  0  0  0  0  0  0  0
  1 13  1  0  0  0  0
  2 20  1  0  0  0  0
  3 25  2  0  0  0  0
  5  1  1  0  0  0  0
  6  5  1  0  0  0  0
  7  9  2  0  0  0  0
  7  5  1  0  0  0  0
  8  7  1  0  0  0  0
  9 11  1  0  0  0  0
 10  9  1  0  0  0  0
 11 12  1  0  0  0  0
 11 13  2  0  0  0  0
 13 14  1  0  0  0  0
 14  2  1  0  0  0  0
 14 15  2  0  0  0  0
 15 17  1  0  0  0  0
 16 15  1  0  0  0  0
 17 18  1  0  0  0  0
 19 17  2  0  0  0  0
 19 21  1  0  0  0  0
 20  3  1  6  0  0  0
 20 19  1  0  0  0  0
 21 22  1  0  0  0  0
 23 21  2  0  0  0  0
 23 24  1  0  0  0  0
 25 23  1  0  0  0  0
 26 25  1  0  0  0  0
 26  4  2  0  0  0  0
 27 26  1  0  0  0  0
 28 27  1  0  0  0  0
 29 27  2  0  0  0  0
 29 31  1  0  0  0  0
 30 29  1  0  0  0  0
 31 33  2  0  0  0  0
 32 31  1  0  0  0  0
 33  4  1  0  0  0  0
 33 34  1  0  0  0  0
M  END
