3,4
q = 0.0, confidence = 0.992

 32 34  0  0  1  0  0  0  0  0999 V2000
   -0.0159   -3.2476   -0.9884 S   0  0  0  0  0  0  0  0  0  0  0  0
    0.0161    3.2506   -0.9800 S   0  0  0  0  0  0  0  0  0  0  0  0
   -1.4564    0.0072   -0.3097 N   0  0  0  0  0  2  0  0  0  0  0  0
    1.4565   -0.0061   -0.3095 N   0  0  0  0  0  2  0  0  0  0  0  0
   -1.9039    1.1907   -0.8051 C   0  0  1  0  0  3  0  0  0  0  0  0
   -2.8018    1.2193   -1.8854 C   0  0  0  0  0  0  0  0  0  0  0  0
   -3.2521    0.0189   -2.4434 C   0  0  0  0  0  0  0  0  0  0  0  0
   -2.8148   -1.1873   -1.8877 C   0  0  0  0  0  0  0  0  0  0  0  0
   -1.9163   -1.1705   -0.8076 C   0  0  0  0  0  0  0  0  0  0  0  0
   -1.4545   -2.4478   -0.1655 C   0  0  0  0  0  0  0  0  0  0  0  0
    1.4299   -2.4611   -0.1656 C   0  0  0  0  0  0  0  0  0  0  0  0
    1.9041   -1.1884   -0.8078 C   0  0  2  0  0  3  0  0  0  0  0  0
    2.8024   -1.2142   -1.8879 C   0  0  0  0  0  0  0  0  0  0  0  0
    3.2526   -0.0123   -2.4429 C   0  0  0  0  0  0  0  0  0  0  0  0
    2.8150    1.1925   -1.8844 C   0  0  0  0  0  0  0  0  0  0  0  0
    1.9162    1.1729   -0.8045 C   0  0  0  0  0  0  0  0  0  0  0  0
    1.4544    2.4484   -0.1590 C   0  0  0  0  0  0  0  0  0  0  0  0
   -1.4298    2.4618   -0.1595 C   0  0  0  0  0  0  0  0  0  0  0  0
   -3.1412    2.1905   -2.2724 H   0  0  0  0  0  0  0  0  0  0  0  0
   -3.9558    0.0236   -3.2891 H   0  0  0  0  0  0  0  0  0  0  0  0
   -3.1647   -2.1540   -2.2766 H   0  0  0  0  0  0  0  0  0  0  0  0
   -2.2562   -3.2091   -0.2395 H   0  0  0  0  0  0  0  0  0  0  0  0
   -1.2292   -2.2789    0.9085 H   0  0  0  0  0  0  0  0  0  0  0  0
    1.2058   -2.2896    0.9084 H   0  0  0  0  0  0  0  0  0  0  0  0
    2.2245   -3.2298   -0.2389 H   0  0  0  0  0  0  0  0  0  0  0  0
    3.1421   -2.1843   -2.2773 H   0  0  0  0  0  0  0  0  0  0  0  0
    3.9564   -0.0147   -3.2885 H   0  0  0  0  0  0  0  0  0  0  0  0
    3.1647    2.1602   -2.2708 H   0  0  0  0  0  0  0  0  0  0  0  0
    1.2285    2.2764    0.9145 H   0  0  0  0  0  0  0  0  0  0  0  0
    2.2563    3.2097   -0.2303 H   0  0  0  0  0  0  0  0  0  0  0  0
   -1.2055    2.2874    0.9140 H   0  0  0  0  0  0  0  0  0  0  0  0
   -2.2245    3.2306   -0.2306 H   0  0  0  0  0  0  0  0  0  0  0  0
  1 11  1  0  0  0  0
  1 10  1  0  0  0  0
  2 18  1  0  0  0  0
  2 17  1  0  0  0  0
  5  6  1  1  0  0  0
  5  3  1  0  0  0  0
  5 18  1  0  0  0  0
  7  8  1  0  0  0  0
  7  6  2  0  0  0  0
  8  9  2  0  0  0  0
  9  3  1  0  0  0  0
  9 10  1  0  0  0  0
 10 23  1  0  0  0  0
 11 24  1  0  0  0  0
 12 13  1  1  0  0  0
 12  4  1  0  0  0  0
 12 11  1  0  0  0  0
 14 13  2  0  0  0  0
 14 15  1  0  0  0  0
 15 16  2  0  0  0  0
 16  4  1  0  0  0  0
 16 17  1  0  0  0  0
 17 29  1  0  0  0  0
 18 31  1  0  0  0  0
 19  6  1  0  0  0  0
 20  7  1  0  0  0  0
 21  8  1  0  0  0  0
 22 10  1  0  0  0  0
 25 11  1  0  0  0  0
 26 13  1  0  0  0  0
 27 14  1  0  0  0  0
 28 15  1  0  0  0  0
 30 17  1  0  0  0  0
 32 18  1  0  0  0  0
M  END
