37,38
q = 0.0, confidence = 1.0

 39 42  0  0  1  0  0  0  0  0999 V2000
   -1.3783   -3.7537   -0.2458 C   0  0  0  0  0  0  0  0  0  0  0  0
   -2.3528   -3.2437   -0.1701 H   0  0  0  0  0  0  0  0  0  0  0  0
   -1.2471   -5.1456   -0.2559 C   0  0  0  0  0  0  0  0  0  0  0  0
   -2.1463   -5.7738   -0.1890 H   0  0  0  0  0  0  0  0  0  0  0  0
    0.0374   -5.7139   -0.3514 C   0  0  0  0  0  0  0  0  0  0  0  0
    0.1683   -6.8059   -0.3611 H   0  0  0  0  0  0  0  0  0  0  0  0
    1.1477   -4.8694   -0.4327 C   0  0  0  0  0  0  0  0  0  0  0  0
    2.1679   -5.2722   -0.5070 H   0  0  0  0  0  0  0  0  0  0  0  0
    0.9525   -3.4734   -0.4199 C   0  0  0  0  0  0  0  0  0  0  0  0
    2.0087   -2.4966   -0.5022 C   0  0  0  0  0  0  0  0  0  0  0  0
    3.4911   -2.6194   -0.6649 C   0  0  0  0  0  0  0  0  0  0  0  0
    3.7526   -2.9720   -1.6877 H   0  0  0  0  0  0  0  0  0  0  0  0
    3.9478   -3.3219    0.0581 H   0  0  0  0  0  0  0  0  0  0  0  0
    3.9459   -1.1597   -0.4091 C   0  0  2  0  0  0  0  0  0  0  0  0
    4.9777   -0.5787   -1.4090 C   0  0  0  0  0  0  0  0  0  0  0  0
    4.4147    0.1220   -2.0555 H   0  0  0  0  0  0  0  0  0  0  0  0
    5.3142   -1.3926   -2.0811 H   0  0  0  0  0  0  0  0  0  0  0  0
    6.2065    0.1354   -0.7738 C   0  0  0  0  0  0  0  0  0  0  0  0
    7.1441   -0.3513   -1.1125 H   0  0  0  0  0  0  0  0  0  0  0  0
    6.2564    1.1836   -1.1329 H   0  0  0  0  0  0  0  0  0  0  0  0
    6.1530    0.1483    0.7570 C   0  0  2  0  0  0  0  0  0  0  0  0
    7.0283    0.6814    1.1839 H   0  0  0  0  0  0  0  0  0  0  0  0
    5.8499   -1.2824    1.3265 C   0  0  0  0  0  0  0  0  0  0  0  0
    4.7318    0.5748    1.2075 C   0  0  0  0  0  0  0  0  0  0  0  0
    4.1796    1.3003    0.5780 H   0  0  0  0  0  0  0  0  0  0  0  0
    4.6844    0.9156    2.2569 H   0  0  0  0  0  0  0  0  0  0  0  0
    4.3438   -0.9173    1.0518 C   0  0  1  0  0  0  0  0  0  0  0  0
    3.5749   -1.3446    1.7300 H   0  0  0  0  0  0  0  0  0  0  0  0
    6.1229   -1.3730    2.8339 C   0  0  0  0  0  0  0  0  0  0  0  0
    7.2155   -1.3946    3.0266 H   0  0  0  0  0  0  0  0  0  0  0  0
    5.6883   -2.3035    3.2544 H   0  0  0  0  0  0  0  0  0  0  0  0
    5.6996   -0.5214    3.3995 H   0  0  0  0  0  0  0  0  0  0  0  0
    6.4989   -2.4904    0.6464 C   0  0  0  0  0  0  0  0  0  0  0  0
    6.3369   -2.5355   -0.4468 H   0  0  0  0  0  0  0  0  0  0  0  0
    6.1263   -3.4412    1.0822 H   0  0  0  0  0  0  0  0  0  0  0  0
    7.5961   -2.4690    0.8138 H   0  0  0  0  0  0  0  0  0  0  0  0
    1.6317   -1.2286   -0.4937 N   0  0  0  0  0  2  0  0  0  0  0  0
   -0.3125   -2.9301   -0.3269 N   0  0  0  0  0  2  0  0  0  0  0  0
    2.6835   -0.3799   -0.6065 O   0  0  0  0  0  0  0  0  0  0  0  0
  1  2  1  0  0  0  0
  3  1  2  0  0  0  0
  3  4  1  0  0  0  0
  5  3  1  0  0  0  0
  6  5  1  0  0  0  0
  7  9  1  0  0  0  0
  7  5  2  0  0  0  0
  8  7  1  0  0  0  0
  9 38  1  0  0  0  0
 10 37  1  0  0  0  0
 10  9  2  0  0  0  0
 11 10  1  0  0  0  0
 11 14  1  0  0  0  0
 11 13  1  0  0  0  0
 12 11  1  0  0  0  0
 14 39  1  6  0  0  0
 14 27  1  0  0  0  0
 15 18  1  0  0  0  0
 15 14  1  0  0  0  0
 16 15  1  0  0  0  0
 17 15  1  0  0  0  0
 18 21  1  0  0  0  0
 19 18  1  0  0  0  0
 20 18  1  0  0  0  0
 21 22  1  1  0  0  0
 21 24  1  0  0  0  0
 21 23  1  0  0  0  0
 23 29  1  0  0  0  0
 24 26  1  0  0  0  0
 25 24  1  0  0  0  0
 27 24  1  0  0  0  0
 27 23  1  0  0  0  0
 27 28  1  1  0  0  0
 29 30  1  0  0  0  0
 29 31  1  0  0  0  0
 29 32  1  0  0  0  0
 33 36  1  0  0  0  0
 33 35  1  0  0  0  0
 33 23  1  0  0  0  0
 34 33  1  0  0  0  0
 38  1  1  0  0  0  0
 39 37  1  0  0  0  0
M  END
