3,4
q = 0.0, confidence = 0.996

 33 35  0  0  1  0  0  0  0  0999 V2000
   -2.7002    1.2584    0.5871 P   0  0  1  0  0  0  0  0  0  0  0  0
   -3.8898    2.0647    1.0746 O   0  0  0  0  0  0  0  0  0  0  0  0
   -0.4424    0.1733    1.8316 N   0  0  0  0  0  2  0  0  0  0  0  0
   -2.1794   -1.3854   -0.0573 N   0  0  0  0  0  2  0  0  0  0  0  0
   -1.4920    1.0193    1.9685 C   0  0  2  0  0  3  0  0  0  0  0  0
   -1.7599    1.6976    3.1658 C   0  0  0  0  0  0  0  0  0  0  0  0
   -0.9042    1.5048    4.2589 C   0  0  0  0  0  0  0  0  0  0  0  0
    0.1710    0.6162    4.1178 C   0  0  0  0  0  0  0  0  0  0  0  0
    0.3714   -0.0340    2.8947 C   0  0  0  0  0  0  0  0  0  0  0  0
   -2.5257   -2.6598   -0.3420 C   0  0  0  0  0  3  0  0  0  0  0  0
   -3.8658   -3.0667   -0.3913 C   0  0  0  0  0  0  0  0  0  0  0  0
   -4.8794   -2.1285   -0.1495 C   0  0  0  0  0  0  0  0  0  0  0  0
   -4.5179   -0.8043    0.1370 C   0  0  0  0  0  0  0  0  0  0  0  0
   -3.1553   -0.4772    0.1677 C   0  0  0  0  0  0  0  0  0  0  0  0
   -1.7961    1.9499   -0.8263 C   0  0  0  0  0  0  0  0  0  0  0  0
   -1.6805    1.2891   -2.0652 C   0  0  0  0  0  0  0  0  0  0  0  0
   -1.0403    1.9303   -3.1343 C   0  0  0  0  0  0  0  0  0  0  0  0
   -0.5229    3.2241   -2.9737 C   0  0  0  0  0  0  0  0  0  0  0  0
   -0.6454    3.8868   -1.7414 C   0  0  0  0  0  0  0  0  0  0  0  0
   -1.2837    3.2549   -0.6674 C   0  0  0  0  0  0  0  0  0  0  0  0
   -2.6442    2.3521    3.1987 H   0  0  0  0  0  0  0  0  0  0  0  0
   -1.0803    2.0304    5.2094 H   0  0  0  0  0  0  0  0  0  0  0  0
    0.8610    0.4136    4.9492 H   0  0  0  0  0  0  0  0  0  0  0  0
    1.1865   -0.7547    2.7472 H   0  0  0  0  0  0  0  0  0  0  0  0
   -1.6907   -3.3436   -0.5581 H   0  0  0  0  0  0  0  0  0  0  0  0
   -4.1014   -4.1154   -0.6222 H   0  0  0  0  0  0  0  0  0  0  0  0
   -5.9389   -2.4239   -0.1848 H   0  0  0  0  0  0  0  0  0  0  0  0
   -5.2517   -0.0102    0.3411 H   0  0  0  0  0  0  0  0  0  0  0  0
   -2.0609    0.2669   -2.1989 H   0  0  0  0  0  0  0  0  0  0  0  0
   -0.9293    1.4014   -4.0921 H   0  0  0  0  0  0  0  0  0  0  0  0
   -0.0102    3.7180   -3.8127 H   0  0  0  0  0  0  0  0  0  0  0  0
   -0.2359    4.9002   -1.6152 H   0  0  0  0  0  0  0  0  0  0  0  0
   -1.3911    3.7764    0.2966 H   0  0  0  0  0  0  0  0  0  0  0  0
  1  2  2  1  0  0  0
  3  5  1  0  0  0  0
  3  9  1  0  0  0  0
  4 14  1  0  0  0  0
  5  1  1  1  0  0  0
  5  6  1  0  0  0  0
  6 21  1  0  0  0  0
  6  7  2  0  0  0  0
  7 22  1  0  0  0  0
  8  7  1  0  0  0  0
  8 23  1  0  0  0  0
  9  8  2  0  0  0  0
 10  4  1  0  0  0  0
 11 10  1  0  0  0  0
 11 12  2  0  0  0  0
 12 13  1  0  0  0  0
 13 14  2  0  0  0  0
 13 28  1  0  0  0  0
 14  1  1  0  0  0  0
 15 20  1  0  0  0  0
 15  1  1  0  0  0  0
 16 15  2  0  0  0  0
 17 18  2  0  0  0  0
 17 16  1  0  0  0  0
 18 19  1  0  0  0  0
 19 32  1  0  0  0  0
 19 20  2  0  0  0  0
 20 33  1  0  0  0  0
 24  9  1  0  0  0  0
 25 10  1  0  0  0  0
 26 11  1  0  0  0  0
 27 12  1  0  0  0  0
 29 16  1  0  0  0  0
 30 17  1  0  0  0  0
 31 18  1  0  0  0  0
M  END
