3,5
q = 0.0, confidence = 0.994

 31 32  0  0  1  0  0  0  0  0999 V2000
    4.6054   -0.1157    0.9195 Br  0  0  0  0  0  0  0  0  0  0  0  0
    1.6858   -0.1327   -0.2198 S   0  0  0  0  0  0  0  0  0  0  0  0
   -1.1502   -0.6417   -1.6172 N   0  0  0  0  0  2  0  0  0  0  0  0
   -3.1521   -0.6162    0.3814 N   0  0  0  0  0  0  0  0  0  0  0  0
   -2.1151    0.1087    0.8729 N   0  0  0  0  0  2  0  0  0  0  0  0
    3.2488   -0.9169   -0.0910 C   0  0  0  0  0  0  0  0  0  0  0  0
    3.3399   -2.1120   -0.7949 C   0  0  0  0  0  0  0  0  0  0  0  0
    4.2459   -2.7305   -0.8321 H   0  0  0  0  0  0  0  0  0  0  0  0
    2.1177   -2.4161   -1.4382 C   0  0  0  0  0  0  0  0  0  0  0  0
    1.9502   -3.3186   -2.0433 H   0  0  0  0  0  0  0  0  0  0  0  0
    1.1211   -1.4521   -1.2395 C   0  0  0  0  0  0  0  0  0  0  0  0
   -0.2236   -1.5551   -1.7234 C   0  0  0  0  0  3  0  0  0  0  0  0
   -0.4816   -2.5267   -2.1955 H   0  0  0  0  0  0  0  0  0  0  0  0
   -2.5142   -0.9788   -2.0073 C   0  0  0  0  0  0  0  0  0  0  0  0
   -2.6312   -2.0825   -2.0938 H   0  0  0  0  0  0  0  0  0  0  0  0
   -2.7391   -0.5321   -3.0008 H   0  0  0  0  0  0  0  0  0  0  0  0
   -3.5349   -0.4051   -1.0023 C   0  0  0  0  0  0  0  0  0  0  0  0
   -3.6275    0.6901   -1.1541 H   0  0  0  0  0  0  0  0  0  0  0  0
   -4.5261   -0.8670   -1.1724 H   0  0  0  0  0  0  0  0  0  0  0  0
   -4.8476   -2.3454    1.0764 C   0  0  0  0  0  0  0  0  0  0  0  0
   -5.0747   -2.9320    1.9853 H   0  0  0  0  0  0  0  0  0  0  0  0
   -4.6556   -3.0649    0.2528 H   0  0  0  0  0  0  0  0  0  0  0  0
   -5.7618   -1.7724    0.8125 H   0  0  0  0  0  0  0  0  0  0  0  0
   -3.6786   -1.4519    1.3324 C   0  0  2  0  0  3  0  0  0  0  0  0
   -2.9252   -1.2354    2.4885 C   0  0  0  0  0  0  0  0  0  0  0  0
   -3.0697   -1.7235    3.4580 H   0  0  0  0  0  0  0  0  0  0  0  0
   -1.9526   -0.2537    2.1565 C   0  0  0  0  0  0  0  0  0  0  0  0
   -0.8576    0.3375    2.9831 C   0  0  0  0  0  0  0  0  0  0  0  0
    0.0748   -0.2583    2.8845 H   0  0  0  0  0  0  0  0  0  0  0  0
   -1.1360    0.3584    4.0539 H   0  0  0  0  0  0  0  0  0  0  0  0
   -0.6368    1.3646    2.6290 H   0  0  0  0  0  0  0  0  0  0  0  0
  2  6  1  0  0  0  0
  4  5  1  0  0  0  0
  4 24  1  0  0  0  0
  5 27  1  0  0  0  0
  6  1  1  0  0  0  0
  7  6  2  0  0  0  0
  8  7  1  0  0  0  0
  9 11  2  0  0  0  0
  9  7  1  0  0  0  0
 10  9  1  0  0  0  0
 11  2  1  0  0  0  0
 12  3  1  0  0  0  0
 12 11  1  0  0  0  0
 13 12  1  0  0  0  0
 14  3  1  0  0  0  0
 14 17  1  0  0  0  0
 15 14  1  0  0  0  0
 16 14  1  0  0  0  0
 17  4  1  0  0  0  0
 18 17  1  0  0  0  0
 19 17  1  0  0  0  0
 20 21  1  0  0  0  0
 22 20  1  0  0  0  0
 23 20  1  0  0  0  0
 24 20  1  1  0  0  0
 24 25  1  0  0  0  0
 25 26  1  0  0  0  0
 27 25  2  0  0  0  0
 27 28  1  0  0  0  0
 28 30  1  0  0  0  0
 29 28  1  0  0  0  0
 31 28  1  0  0  0  0
M  END
