1,2
q = -1.0

 25 26  0  0  1  0  0  0  0  0999 V2000
    1.3281    1.3538    0.3104 N   0  0  0  0  0  2  0  0  0  0  0  0
   -0.9305    1.6171   -1.1077 N   0  0  0  0  0  2  0  0  0  0  0  0
    2.5100    1.1077    0.9696 C   0  0  0  0  0  0  0  0  0  0  0  0
    2.7301   -0.1797    1.5485 C   0  0  0  0  0  0  0  0  0  0  0  0
    1.9250   -0.9306    1.4799 H   0  0  0  0  0  0  0  0  0  0  0  0
    3.9206   -0.4933    2.2045 C   0  0  0  0  0  0  0  0  0  0  0  0
    4.0454   -1.4983    2.6383 H   0  0  0  0  0  0  0  0  0  0  0  0
    4.9523    0.4585    2.3247 C   0  0  0  0  0  0  0  0  0  0  0  0
    5.8892    0.2102    2.8446 H   0  0  0  0  0  0  0  0  0  0  0  0
    4.7505    1.7339    1.7772 C   0  0  0  0  0  0  0  0  0  0  0  0
    5.5383    2.4991    1.8675 H   0  0  0  0  0  0  0  0  0  0  0  0
    3.5588    2.0640    1.1144 C   0  0  0  0  0  0  0  0  0  0  0  0
    3.4432    3.0771    0.7041 H   0  0  0  0  0  0  0  0  0  0  0  0
    1.1018    2.6560   -0.2340 C   0  0  0  0  0  0  0  0  0  0  0  0
    1.9021    2.9779   -0.9562 H   0  0  0  0  0  0  0  0  0  0  0  0
    1.1035    3.4666    0.5437 H   0  0  0  0  0  0  0  0  0  0  0  0
   -0.2167    2.7531   -0.9724 C   0  0  2  0  0  3  0  0  0  0  0  0
   -0.6996    3.9685   -1.4926 C   0  0  0  0  0  0  0  0  0  0  0  0
   -0.1044    4.8861   -1.3724 H   0  0  0  0  0  0  0  0  0  0  0  0
   -1.9370    3.9877   -2.1453 C   0  0  0  0  0  0  0  0  0  0  0  0
   -2.3333    4.9289   -2.5554 H   0  0  0  0  0  0  0  0  0  0  0  0
   -2.6743    2.7950   -2.2602 C   0  0  0  0  0  0  0  0  0  0  0  0
   -3.6576    2.7735   -2.7510 H   0  0  0  0  0  0  0  0  0  0  0  0
   -2.1313    1.6272   -1.7217 C   0  0  0  0  0  0  0  0  0  0  0  0
   -2.6611    0.6613   -1.7558 H   0  0  0  0  0  0  0  0  0  0  0  0
  1  3  1  0  0  0  0
  2 17  1  0  0  0  0
  3 12  2  0  0  0  0
  3  4  1  0  0  0  0
  4  6  2  0  0  0  0
  5  4  1  0  0  0  0
  6  8  1  0  0  0  0
  6  7  1  0  0  0  0
  8  9  1  0  0  0  0
 10 11  1  0  0  0  0
 10  8  2  0  0  0  0
 12 10  1  0  0  0  0
 13 12  1  0  0  0  0
 14  1  1  0  0  0  0
 14 16  1  0  0  0  0
 15 14  1  0  0  0  0
 17 14  1  1  0  0  0
 18 19  1  0  0  0  0
 18 17  1  0  0  0  0
 20 18  2  0  0  0  0
 21 20  1  0  0  0  0
 22 20  1  0  0  0  0
 22 24  2  0  0  0  0
 23 22  1  0  0  0  0
 24  2  1  0  0  0  0
 25 24  1  0  0  0  0
M  END
