1,2
q = -1.0

 29 30  0  0  0  0  0  0  0  0999 V2000
   -0.3133    1.5402   -1.6301 N   0  0  0  0  0  2  0  0  0  0  0  0
   -1.7644   -0.3729   -0.5060 N   0  0  0  0  0  2  0  0  0  0  0  0
   -1.5189    1.3040   -2.2119 C   0  0  0  0  0  0  0  0  0  0  0  0
   -2.3394    0.2097   -1.6089 C   0  0  0  0  0  0  0  0  0  0  0  0
   -1.9172    2.0789   -3.3232 C   0  0  0  0  0  0  0  0  0  0  0  0
   -2.8914    1.8985   -3.7942 H   0  0  0  0  0  0  0  0  0  0  0  0
   -1.0709    3.0749   -3.8145 C   0  0  0  0  0  0  0  0  0  0  0  0
   -1.3786    3.6810   -4.6800 H   0  0  0  0  0  0  0  0  0  0  0  0
    0.1740    3.2965   -3.1951 C   0  0  0  0  0  0  0  0  0  0  0  0
    0.8677    4.0701   -3.5530 H   0  0  0  0  0  0  0  0  0  0  0  0
    0.5077    2.4996   -2.1005 C   0  0  0  0  0  0  0  0  0  0  0  0
    1.4651    2.6201   -1.5668 H   0  0  0  0  0  0  0  0  0  0  0  0
   -3.5376   -0.1452   -2.1866 C   0  0  0  0  0  3  0  0  0  0  0  0
   -4.1254   -0.9781   -1.7773 H   0  0  0  0  0  0  0  0  0  0  0  0
   -3.9230    0.3539   -3.0820 H   0  0  0  0  0  0  0  0  0  0  0  0
   -2.4415   -1.3964    0.1927 C   0  0  0  0  0  0  0  0  0  0  0  0
   -3.5692   -1.1075    1.0142 C   0  0  0  0  0  0  0  0  0  0  0  0
   -4.1696   -2.1636    1.7263 C   0  0  0  0  0  0  0  0  0  0  0  0
   -5.0376   -1.9404    2.3680 H   0  0  0  0  0  0  0  0  0  0  0  0
   -3.6829   -3.4774    1.6498 C   0  0  0  0  0  0  0  0  0  0  0  0
   -4.1719   -4.2804    2.2219 H   0  0  0  0  0  0  0  0  0  0  0  0
   -2.5662   -3.7547    0.8468 C   0  0  0  0  0  0  0  0  0  0  0  0
   -2.1713   -4.7800    0.7764 H   0  0  0  0  0  0  0  0  0  0  0  0
   -1.9558   -2.7203    0.1249 C   0  0  0  0  0  0  0  0  0  0  0  0
   -1.0860   -2.9178   -0.5196 H   0  0  0  0  0  0  0  0  0  0  0  0
   -4.0755    0.3034    1.1380 C   0  0  0  0  0  0  0  0  0  0  0  0
   -4.8355    0.3937    1.9378 H   0  0  0  0  0  0  0  0  0  0  0  0
   -4.5224    0.6576    0.1840 H   0  0  0  0  0  0  0  0  0  0  0  0
   -3.2399    0.9997    1.3607 H   0  0  0  0  0  0  0  0  0  0  0  0
  2 16  1  0  0  0  0
  3  1  1  0  0  0  0
  3  4  2  0  0  0  0
  4  2  1  0  0  0  0
  5  3  1  0  0  0  0
  6  5  1  0  0  0  0
  7  5  2  0  0  0  0
  7  9  1  0  0  0  0
  8  7  1  0  0  0  0
  9 11  2  0  0  0  0
 10  9  1  0  0  0  0
 11  1  1  0  0  0  0
 11 12  1  0  0  0  0
 13 14  1  0  0  0  0
 13  4  1  0  0  0  0
 15 13  1  0  0  0  0
 16 17  1  0  0  0  0
 17 26  1  0  0  0  0
 17 18  2  0  0  0  0
 18 19  1  0  0  0  0
 20 18  1  0  0  0  0
 20 21  1  0  0  0  0
 22 20  2  0  0  0  0
 23 22  1  0  0  0  0
 24 16  2  0  0  0  0
 24 22  1  0  0  0  0
 25 24  1  0  0  0  0
 26 29  1  0  0  0  0
 26 27  1  0  0  0  0
 28 26  1  0  0  0  0
M  END
