1,2
q = -1.0, confidence = 0.0

 28 29  0  0  0  0  0  0  0  0999 V2000
    0.5169    1.7057   -1.4427 N   0  0  0  0  0  2  0  0  0  0  0  0
    1.8180   -0.4387   -0.3851 N   0  0  0  0  0  2  0  0  0  0  0  0
   -0.2312    2.7350   -1.8901 C   0  0  0  0  0  3  0  0  0  0  0  0
   -1.2406    2.8184   -1.4542 H   0  0  0  0  0  0  0  0  0  0  0  0
    0.2407    3.6277   -2.8533 C   0  0  0  0  0  0  0  0  0  0  0  0
   -0.3920    4.4573   -3.1992 H   0  0  0  0  0  0  0  0  0  0  0  0
    1.5367    3.4296   -3.3661 C   0  0  0  0  0  0  0  0  0  0  0  0
    1.9433    4.1102   -4.1293 H   0  0  0  0  0  0  0  0  0  0  0  0
    2.3011    2.3557   -2.8992 C   0  0  0  0  0  0  0  0  0  0  0  0
    3.3157    2.1693   -3.2820 H   0  0  0  0  0  0  0  0  0  0  0  0
    1.7573    1.4981   -1.9225 C   0  0  0  0  0  0  0  0  0  0  0  0
    2.5272    0.3190   -1.3761 C   0  0  0  0  0  0  0  0  0  0  0  0
    2.8323   -0.3021   -2.2619 H   0  0  0  0  0  0  0  0  0  0  0  0
    3.5027    0.7273   -0.9957 H   0  0  0  0  0  0  0  0  0  0  0  0
    2.4918   -1.5249    0.1465 C   0  0  0  0  0  0  0  0  0  0  0  0
    3.8309   -1.8505   -0.2272 C   0  0  0  0  0  0  0  0  0  0  0  0
    4.3600   -1.2356   -0.9668 H   0  0  0  0  0  0  0  0  0  0  0  0
    4.5123   -2.9443    0.3231 C   0  0  0  0  0  0  0  0  0  0  0  0
    5.5455   -3.1491   -0.0001 H   0  0  0  0  0  0  0  0  0  0  0  0
    3.8916   -3.7687    1.2686 C   0  0  0  0  0  0  0  0  0  0  0  0
    4.4172   -4.6306    1.7050 H   0  0  0  0  0  0  0  0  0  0  0  0
    2.5704   -3.4707    1.6430 C   0  0  0  0  0  0  0  0  0  0  0  0
    2.0584   -4.1115    2.3798 H   0  0  0  0  0  0  0  0  0  0  0  0
    1.8588   -2.3849    1.1123 C   0  0  0  0  0  0  0  0  0  0  0  0
    0.4420   -2.1449    1.5545 C   0  0  0  0  0  0  0  0  0  0  0  0
    0.1243   -2.9046    2.2946 H   0  0  0  0  0  0  0  0  0  0  0  0
   -0.2859   -2.1927    0.7150 H   0  0  0  0  0  0  0  0  0  0  0  0
    0.3131   -1.1511    2.0392 H   0  0  0  0  0  0  0  0  0  0  0  0
  2 15  1  0  0  0  0
  3  4  1  0  0  0  0
  3  1  1  0  0  0  0
  5  3  1  0  0  0  0
  6  5  1  0  0  0  0
  7  9  1  0  0  0  0
  7  5  2  0  0  0  0
  8  7  1  0  0  0  0
  9 11  2  0  0  0  0
 10  9  1  0  0  0  0
 11  1  1  0  0  0  0
 11 12  1  0  0  0  0
 12 14  1  0  0  0  0
 12  2  1  0  0  0  0
 13 12  1  0  0  0  0
 15 24  1  0  0  0  0
 16 15  2  0  0  0  0
 16 18  1  0  0  0  0
 17 16  1  0  0  0  0
 18 20  2  0  0  0  0
 19 18  1  0  0  0  0
 20 22  1  0  0  0  0
 20 21  1  0  0  0  0
 22 23  1  0  0  0  0
 24 25  1  0  0  0  0
 24 22  2  0  0  0  0
 25 28  1  0  0  0  0
 25 26  1  0  0  0  0
 27 25  1  0  0  0  0
M  END
