2,4
q = -1.0

 27 28  0  0  1  0  0  0  0  0999 V2000
    2.2272   -1.8328    0.4552 O   0  0  0  0  0  1  0  0  0  0  0  0
   -0.6670   -0.7117   -1.6677 N   0  0  0  0  0  2  0  0  0  0  0  0
   -0.5625   -2.0101   -1.6436 N   0  0  0  0  0  2  0  0  0  0  0  0
    1.1549   -1.5943   -0.1471 N   0  0  0  0  0  2  0  0  0  0  0  0
    0.5196   -2.4856   -0.9757 C   0  0  1  0  0  3  0  0  0  0  0  0
    0.8455   -3.9155   -1.0881 C   0  0  0  0  0  0  0  0  0  0  0  0
    0.0062   -4.7414   -1.8808 C   0  0  0  0  0  0  0  0  0  0  0  0
    0.2468   -6.1137   -1.9930 C   0  0  0  0  0  0  0  0  0  0  0  0
    1.3316   -6.7054   -1.3213 C   0  0  0  0  0  0  0  0  0  0  0  0
    2.1712   -5.8981   -0.5389 C   0  0  0  0  0  0  0  0  0  0  0  0
    1.9400   -4.5197   -0.4209 C   0  0  0  0  0  0  0  0  0  0  0  0
   -1.8819   -0.2046   -2.1777 C   0  0  0  0  0  0  0  0  0  0  0  0
   -1.8946    1.1343   -2.6257 C   0  0  0  0  0  0  0  0  0  0  0  0
   -3.0879    1.7069   -3.0795 C   0  0  0  0  0  0  0  0  0  0  0  0
   -4.2729    0.9513   -3.1092 C   0  0  0  0  0  0  0  0  0  0  0  0
   -4.2529   -0.3905   -2.6880 C   0  0  0  0  0  0  0  0  0  0  0  0
   -3.0670   -0.9722   -2.2243 C   0  0  0  0  0  0  0  0  0  0  0  0
   -0.8425   -4.2708   -2.3960 H   0  0  0  0  0  0  0  0  0  0  0  0
   -0.4221   -6.7320   -2.6126 H   0  0  0  0  0  0  0  0  0  0  0  0
    1.5208   -7.7867   -1.4111 H   0  0  0  0  0  0  0  0  0  0  0  0
    3.0280   -6.3453   -0.0101 H   0  0  0  0  0  0  0  0  0  0  0  0
    2.5985   -3.8845    0.1838 H   0  0  0  0  0  0  0  0  0  0  0  0
   -0.9555    1.7038   -2.5958 H   0  0  0  0  0  0  0  0  0  0  0  0
   -3.0956    2.7591   -3.4019 H   0  0  0  0  0  0  0  0  0  0  0  0
   -5.2133    1.4107   -3.4503 H   0  0  0  0  0  0  0  0  0  0  0  0
   -5.1815   -0.9835   -2.6995 H   0  0  0  0  0  0  0  0  0  0  0  0
   -3.0297   -2.0083   -1.8601 H   0  0  0  0  0  0  0  0  0  0  0  0
  2  3  1  0  0  0  0
  4  1  1  0  0  0  0
  5  3  1  1  0  0  0
  5  4  1  0  0  0  0
  6  5  1  0  0  0  0
  6 11  1  0  0  0  0
  7  6  2  0  0  0  0
  8  7  1  0  0  0  0
  8  9  2  0  0  0  0
  9 10  1  0  0  0  0
 10 11  2  0  0  0  0
 10 21  1  0  0  0  0
 11 22  1  0  0  0  0
 12  2  1  0  0  0  0
 13 23  1  0  0  0  0
 13 12  2  0  0  0  0
 14 13  1  0  0  0  0
 15 14  2  0  0  0  0
 15 16  1  0  0  0  0
 16 17  2  0  0  0  0
 17 12  1  0  0  0  0
 17 27  1  0  0  0  0
 18  7  1  0  0  0  0
 19  8  1  0  0  0  0
 20  9  1  0  0  0  0
 24 14  1  0  0  0  0
 25 15  1  0  0  0  0
 26 16  1  0  0  0  0
M  END
