1,2
q = 0.0, confidence = 0.998

 51 55  0  0  1  0  0  0  0  0999 V2000
    2.3350   -2.1821   -0.3695 N   0  0  0  0  0  2  0  0  0  0  0  0
    0.8586    0.0538   -0.4650 N   0  0  0  0  0  2  0  0  0  0  0  0
    0.3580    3.5192    0.1606 N   0  0  0  0  0  0  0  0  0  0  0  0
   -7.6881   -0.0825    0.1284 N   0  0  0  0  0  0  0  0  0  0  0  0
    3.1626   -3.2460   -0.4616 C   0  0  0  0  0  3  0  0  0  0  0  0
    4.2289   -3.0401   -0.2912 H   0  0  0  0  0  0  0  0  0  0  0  0
    2.7021   -4.5339   -0.7389 C   0  0  0  0  0  0  0  0  0  0  0  0
    3.4162   -5.3668   -0.7974 H   0  0  0  0  0  0  0  0  0  0  0  0
    1.3251   -4.7279   -0.9337 C   0  0  0  0  0  0  0  0  0  0  0  0
    0.9232   -5.7270   -1.1573 H   0  0  0  0  0  0  0  0  0  0  0  0
    0.4696   -3.6276   -0.8466 C   0  0  0  0  0  0  0  0  0  0  0  0
   -0.6077   -3.7510   -1.0154 H   0  0  0  0  0  0  0  0  0  0  0  0
    0.9956   -2.3533   -0.5561 C   0  0  0  0  0  0  0  0  0  0  0  0
    0.1710   -1.1291   -0.4864 C   0  0  2  0  0  3  0  0  0  0  0  0
   -1.2271   -1.1802   -0.4489 C   0  0  0  0  0  0  0  0  0  0  0  0
   -1.7260   -2.1564   -0.4179 H   0  0  0  0  0  0  0  0  0  0  0  0
   -1.9933    0.0014   -0.3501 C   0  0  0  0  0  0  0  0  0  0  0  0
   -1.2614    1.2077   -0.3738 C   0  0  0  0  0  0  0  0  0  0  0  0
   -1.7561    2.1867   -0.3436 H   0  0  0  0  0  0  0  0  0  0  0  0
    0.1356    1.2057   -0.4669 C   0  0  0  0  0  0  0  0  0  0  0  0
    0.8299    2.5167   -0.6058 C   0  0  0  0  0  0  0  0  0  0  0  0
    1.8655    2.6954   -1.5463 C   0  0  0  0  0  0  0  0  0  0  0  0
    2.1791    1.8669   -2.1933 H   0  0  0  0  0  0  0  0  0  0  0  0
    2.4790    3.9502   -1.6335 C   0  0  0  0  0  0  0  0  0  0  0  0
    3.2994    4.1160   -2.3477 H   0  0  0  0  0  0  0  0  0  0  0  0
    2.0335    4.9791   -0.7923 C   0  0  0  0  0  0  0  0  0  0  0  0
    2.4981    5.9759   -0.8123 H   0  0  0  0  0  0  0  0  0  0  0  0
    0.9584    4.7132    0.0724 C   0  0  0  0  0  0  0  0  0  0  0  0
    0.5607    5.5090    0.7269 H   0  0  0  0  0  0  0  0  0  0  0  0
   -3.4593   -0.0223   -0.2372 C   0  0  0  0  0  0  0  0  0  0  0  0
   -4.2276   -1.1222   -0.6900 C   0  0  0  0  0  0  0  0  0  0  0  0
   -3.7276   -1.9725   -1.1778 H   0  0  0  0  0  0  0  0  0  0  0  0
   -5.6158   -1.1500   -0.5816 C   0  0  0  0  0  0  0  0  0  0  0  0
   -6.1654   -2.0151   -0.9757 H   0  0  0  0  0  0  0  0  0  0  0  0
   -6.3237   -0.0627    0.0087 C   0  0  0  0  0  0  0  0  0  0  0  0
   -5.5556    1.0463    0.4694 C   0  0  0  0  0  0  0  0  0  0  0  0
   -6.0533    1.8968    0.9539 H   0  0  0  0  0  0  0  0  0  0  0  0
   -4.1696    1.0591    0.3400 C   0  0  0  0  0  0  0  0  0  0  0  0
   -3.6150    1.9224    0.7365 H   0  0  0  0  0  0  0  0  0  0  0  0
   -8.5181   -1.2337   -0.2205 C   0  0  0  0  0  0  0  0  0  0  0  0
   -8.0987   -2.1713    0.2034 H   0  0  0  0  0  0  0  0  0  0  0  0
   -8.5721   -1.3701   -1.3275 H   0  0  0  0  0  0  0  0  0  0  0  0
   -9.8889   -0.8831    0.3731 C   0  0  0  0  0  0  0  0  0  0  0  0
  -10.7234   -1.3744   -0.1632 H   0  0  0  0  0  0  0  0  0  0  0  0
   -9.9337   -1.2069    1.4340 H   0  0  0  0  0  0  0  0  0  0  0  0
   -9.9205    0.6490    0.2869 C   0  0  0  0  0  0  0  0  0  0  0  0
  -10.6597    1.1157    0.9658 H   0  0  0  0  0  0  0  0  0  0  0  0
  -10.1652    0.9685   -0.7478 H   0  0  0  0  0  0  0  0  0  0  0  0
   -8.4769    1.0430    0.6260 C   0  0  0  0  0  0  0  0  0  0  0  0
   -8.1695    1.9926    0.1380 H   0  0  0  0  0  0  0  0  0  0  0  0
   -8.3350    1.1787    1.7250 H   0  0  0  0  0  0  0  0  0  0  0  0
  4 49  1  0  0  0  0
  5  1  1  0  0  0  0
  5  6  1  0  0  0  0
  7  5  1  0  0  0  0
  8  7  1  0  0  0  0
  9 11  1  0  0  0  0
  9  7  2  0  0  0  0
 10  9  1  0  0  0  0
 11 13  2  0  0  0  0
 12 11  1  0  0  0  0
 13  1  1  0  0  0  0
 14 13  1  6  0  0  0
 14  2  1  0  0  0  0
 14 15  1  0  0  0  0
 15 16  1  0  0  0  0
 15 17  2  0  0  0  0
 17 30  1  0  0  0  0
 18 17  1  0  0  0  0
 18 19  1  0  0  0  0
 20  2  1  0  0  0  0
 20 18  2  0  0  0  0
 21 20  1  0  0  0  0
 21  3  2  0  0  0  0
 22 21  1  0  0  0  0
 23 22  1  0  0  0  0
 24 22  2  0  0  0  0
 24 26  1  0  0  0  0
 25 24  1  0  0  0  0
 26 28  2  0  0  0  0
 27 26  1  0  0  0  0
 28  3  1  0  0  0  0
 28 29  1  0  0  0  0
 30 38  1  0  0  0  0
 31 33  1  0  0  0  0
 31 30  2  0  0  0  0
 32 31  1  0  0  0  0
 33 35  2  0  0  0  0
 34 33  1  0  0  0  0
 35  4  1  0  0  0  0
 35 36  1  0  0  0  0
 36 37  1  0  0  0  0
 38 36  2  0  0  0  0
 38 39  1  0  0  0  0
 40  4  1  0  0  0  0
 40 41  1  0  0  0  0
 40 43  1  0  0  0  0
 42 40  1  0  0  0  0
 43 45  1  0  0  0  0
 44 43  1  0  0  0  0
 46 43  1  0  0  0  0
 46 49  1  0  0  0  0
 46 47  1  0  0  0  0
 48 46  1  0  0  0  0
 49 51  1  0  0  0  0
 50 49  1  0  0  0  0
M  END
