1,2
q = 0.0, confidence = 0.994

 39 42  0  0  1  0  0  0  0  0999 V2000
   -1.1771   -2.1635   -0.3970 N   0  0  0  0  0  2  0  0  0  0  0  0
    0.3489    0.0257   -0.3053 N   0  0  0  0  0  2  0  0  0  0  0  0
   -0.4881    2.5536   -1.4869 N   0  0  0  0  0  0  0  0  0  0  0  0
   -2.0171   -3.2073   -0.5715 C   0  0  0  0  0  3  0  0  0  0  0  0
   -3.0901   -2.9716   -0.5321 H   0  0  0  0  0  0  0  0  0  0  0  0
   -1.5633   -4.5119   -0.7710 C   0  0  0  0  0  0  0  0  0  0  0  0
   -2.2893   -5.3263   -0.9016 H   0  0  0  0  0  0  0  0  0  0  0  0
   -0.1793   -4.7481   -0.7925 C   0  0  0  0  0  0  0  0  0  0  0  0
    0.2172   -5.7626   -0.9444 H   0  0  0  0  0  0  0  0  0  0  0  0
    0.6908   -3.6689   -0.6238 C   0  0  0  0  0  0  0  0  0  0  0  0
    1.7762   -3.8279   -0.6539 H   0  0  0  0  0  0  0  0  0  0  0  0
    0.1700   -2.3756   -0.4242 C   0  0  0  0  0  0  0  0  0  0  0  0
    1.0119   -1.1687   -0.3010 C   0  0  1  0  0  3  0  0  0  0  0  0
    2.4110   -1.2387   -0.2208 C   0  0  0  0  0  0  0  0  0  0  0  0
    2.9047   -2.2172   -0.1751 H   0  0  0  0  0  0  0  0  0  0  0  0
    3.1816   -0.0670   -0.1289 C   0  0  0  0  0  0  0  0  0  0  0  0
    2.4771    1.1529   -0.1834 C   0  0  0  0  0  0  0  0  0  0  0  0
    3.0171    2.1092   -0.1955 H   0  0  0  0  0  0  0  0  0  0  0  0
    1.0796    1.1700   -0.2943 C   0  0  0  0  0  0  0  0  0  0  0  0
    0.3776    2.4757   -0.4593 C   0  0  0  0  0  0  0  0  0  0  0  0
    0.6485    3.5594    0.3991 C   0  0  0  0  0  0  0  0  0  0  0  0
    1.3464    3.4429    1.2411 H   0  0  0  0  0  0  0  0  0  0  0  0
   -0.0308    4.7656    0.1821 C   0  0  0  0  0  0  0  0  0  0  0  0
    0.1358    5.6258    0.8476 H   0  0  0  0  0  0  0  0  0  0  0  0
   -0.9396    4.8472   -0.8810 C   0  0  0  0  0  0  0  0  0  0  0  0
   -1.5024    5.7708   -1.0808 H   0  0  0  0  0  0  0  0  0  0  0  0
   -1.1290    3.7108   -1.6870 C   0  0  0  0  0  0  0  0  0  0  0  0
   -1.8415    3.7296   -2.5305 H   0  0  0  0  0  0  0  0  0  0  0  0
    4.6559   -0.1107   -0.0008 C   0  0  0  0  0  0  0  0  0  0  0  0
    5.3428    0.8770    0.7413 C   0  0  0  0  0  0  0  0  0  0  0  0
    4.7724    1.6692    1.2490 H   0  0  0  0  0  0  0  0  0  0  0  0
    6.7368    0.8348    0.8714 C   0  0  0  0  0  0  0  0  0  0  0  0
    7.2523    1.6052    1.4642 H   0  0  0  0  0  0  0  0  0  0  0  0
    7.4728   -0.1910    0.2571 C   0  0  0  0  0  0  0  0  0  0  0  0
    8.5681   -0.2224    0.3577 H   0  0  0  0  0  0  0  0  0  0  0  0
    6.8040   -1.1764   -0.4866 C   0  0  0  0  0  0  0  0  0  0  0  0
    7.3744   -1.9777   -0.9799 H   0  0  0  0  0  0  0  0  0  0  0  0
    5.4094   -1.1384   -0.6124 C   0  0  0  0  0  0  0  0  0  0  0  0
    4.8982   -1.8995   -1.2209 H   0  0  0  0  0  0  0  0  0  0  0  0
  2 13  1  0  0  0  0
  2 19  1  0  0  0  0
  3 20  1  0  0  0  0
  4  5  1  0  0  0  0
  4  1  1  0  0  0  0
  6  4  1  0  0  0  0
  7  6  1  0  0  0  0
  8  6  2  0  0  0  0
  8 10  1  0  0  0  0
  9  8  1  0  0  0  0
 10 12  2  0  0  0  0
 11 10  1  0  0  0  0
 12  1  1  0  0  0  0
 13 12  1  6  0  0  0
 13 14  1  0  0  0  0
 14 15  1  0  0  0  0
 14 16  2  0  0  0  0
 16 29  1  0  0  0  0
 17 16  1  0  0  0  0
 18 17  1  0  0  0  0
 19 17  2  0  0  0  0
 20 19  1  0  0  0  0
 20 21  2  0  0  0  0
 21 22  1  0  0  0  0
 23 21  1  0  0  0  0
 23 24  1  0  0  0  0
 25 23  2  0  0  0  0
 26 25  1  0  0  0  0
 27  3  2  0  0  0  0
 27 25  1  0  0  0  0
 28 27  1  0  0  0  0
 29 30  1  0  0  0  0
 30 32  2  0  0  0  0
 30 31  1  0  0  0  0
 32 33  1  0  0  0  0
 34 35  1  0  0  0  0
 34 32  1  0  0  0  0
 36 34  2  0  0  0  0
 37 36  1  0  0  0  0
 38 36  1  0  0  0  0
 38 29  2  0  0  0  0
 39 38  1  0  0  0  0
M  END
