1,2
q = 0.0, confidence = 0.98

 49 53  0  0  1  0  0  0  0  0999 V2000
   -2.3170   -2.1717   -0.3719 N   0  0  0  0  0  2  0  0  0  0  0  0
   -0.8329    0.0443   -0.3419 N   0  0  0  0  0  2  0  0  0  0  0  0
   -1.7736    2.5771   -1.4604 N   0  0  0  0  0  0  0  0  0  0  0  0
   -1.2287   -4.7292   -0.7869 N   0  0  0  0  0  0  0  0  0  0  0  0
   -1.1708    4.7717    0.2013 N   0  0  0  0  0  0  0  0  0  0  0  0
    7.7244   -0.0588    0.0911 N   0  0  0  0  0  0  0  0  0  0  0  0
   -3.1077   -3.2583   -0.5091 C   0  0  0  0  0  3  0  0  0  0  0  0
   -4.1925   -3.0955   -0.4373 H   0  0  0  0  0  0  0  0  0  0  0  0
   -2.5570   -4.5264   -0.7109 C   0  0  0  0  0  0  0  0  0  0  0  0
   -3.2146   -5.4060   -0.8101 H   0  0  0  0  0  0  0  0  0  0  0  0
   -0.4544   -3.6496   -0.6611 C   0  0  0  0  0  0  0  0  0  0  0  0
    0.6332   -3.8111   -0.7386 H   0  0  0  0  0  0  0  0  0  0  0  0
   -0.9665   -2.3511   -0.4455 C   0  0  0  0  0  0  0  0  0  0  0  0
   -0.1415   -1.1344   -0.3573 C   0  0  1  0  0  3  0  0  0  0  0  0
    1.2582   -1.1827   -0.3227 C   0  0  0  0  0  0  0  0  0  0  0  0
    1.7597   -2.1574   -0.2901 H   0  0  0  0  0  0  0  0  0  0  0  0
    2.0223    0.0013   -0.2606 C   0  0  0  0  0  0  0  0  0  0  0  0
    1.2824    1.2069   -0.2987 C   0  0  0  0  0  0  0  0  0  0  0  0
    1.7981    2.1753   -0.3399 H   0  0  0  0  0  0  0  0  0  0  0  0
   -0.1162    1.1986   -0.3573 C   0  0  0  0  0  0  0  0  0  0  0  0
   -0.8427    2.4903   -0.4916 C   0  0  0  0  0  0  0  0  0  0  0  0
   -0.5474    3.5941    0.3384 C   0  0  0  0  0  0  0  0  0  0  0  0
    0.1988    3.5056    1.1478 H   0  0  0  0  0  0  0  0  0  0  0  0
   -2.1054    4.8449   -0.7567 C   0  0  0  0  0  0  0  0  0  0  0  0
   -2.6336    5.8070   -0.8780 H   0  0  0  0  0  0  0  0  0  0  0  0
   -2.4084    3.7471   -1.5844 C   0  0  0  0  0  0  0  0  0  0  0  0
   -3.1854    3.8147   -2.3660 H   0  0  0  0  0  0  0  0  0  0  0  0
    3.4891   -0.0146   -0.1793 C   0  0  0  0  0  0  0  0  0  0  0  0
    4.2499   -1.1251   -0.6212 C   0  0  0  0  0  0  0  0  0  0  0  0
    3.7420   -1.9883   -1.0767 H   0  0  0  0  0  0  0  0  0  0  0  0
    5.6395   -1.1474   -0.5437 C   0  0  0  0  0  0  0  0  0  0  0  0
    6.1815   -2.0213   -0.9284 H   0  0  0  0  0  0  0  0  0  0  0  0
    6.3591   -0.0439    0.0022 C   0  0  0  0  0  0  0  0  0  0  0  0
    5.5991    1.0758    0.4520 C   0  0  0  0  0  0  0  0  0  0  0  0
    6.1056    1.9389    0.9035 H   0  0  0  0  0  0  0  0  0  0  0  0
    4.2108    1.0821    0.3539 C   0  0  0  0  0  0  0  0  0  0  0  0
    3.6657    1.9549    0.7430 H   0  0  0  0  0  0  0  0  0  0  0  0
    8.5494   -1.2179   -0.2471 C   0  0  0  0  0  0  0  0  0  0  0  0
    8.5794   -1.3799   -1.3512 H   0  0  0  0  0  0  0  0  0  0  0  0
    8.1402   -2.1449    0.2083 H   0  0  0  0  0  0  0  0  0  0  0  0
    9.9318   -0.8511    0.3083 C   0  0  0  0  0  0  0  0  0  0  0  0
    9.9997   -1.1484    1.3757 H   0  0  0  0  0  0  0  0  0  0  0  0
   10.7552   -1.3548   -0.2333 H   0  0  0  0  0  0  0  0  0  0  0  0
    9.9593    0.6784    0.1831 C   0  0  0  0  0  0  0  0  0  0  0  0
   10.1812    0.9723   -0.8642 H   0  0  0  0  0  0  0  0  0  0  0  0
   10.7121    1.1626    0.8341 H   0  0  0  0  0  0  0  0  0  0  0  0
    8.5230    1.0797    0.5435 C   0  0  0  0  0  0  0  0  0  0  0  0
    8.4043    1.2412    1.6416 H   0  0  0  0  0  0  0  0  0  0  0  0
    8.2035    2.0165    0.0389 H   0  0  0  0  0  0  0  0  0  0  0  0
  3 21  1  0  0  0  0
  4  9  2  0  0  0  0
  4 11  1  0  0  0  0
  5 22  1  0  0  0  0
  6 47  1  0  0  0  0
  7  8  1  0  0  0  0
  7  1  1  0  0  0  0
  9  7  1  0  0  0  0
 10  9  1  0  0  0  0
 11 13  2  0  0  0  0
 12 11  1  0  0  0  0
 13  1  1  0  0  0  0
 14 13  1  6  0  0  0
 14  2  1  0  0  0  0
 14 15  1  0  0  0  0
 15 16  1  0  0  0  0
 15 17  2  0  0  0  0
 17 28  1  0  0  0  0
 18 17  1  0  0  0  0
 19 18  1  0  0  0  0
 20  2  1  0  0  0  0
 20 18  2  0  0  0  0
 21 20  1  0  0  0  0
 21 22  2  0  0  0  0
 22 23  1  0  0  0  0
 24  5  2  0  0  0  0
 25 24  1  0  0  0  0
 26  3  2  0  0  0  0
 26 24  1  0  0  0  0
 27 26  1  0  0  0  0
 28 36  1  0  0  0  0
 29 31  1  0  0  0  0
 29 28  2  0  0  0  0
 30 29  1  0  0  0  0
 31 33  2  0  0  0  0
 32 31  1  0  0  0  0
 33  6  1  0  0  0  0
 33 34  1  0  0  0  0
 34 35  1  0  0  0  0
 36 34  2  0  0  0  0
 36 37  1  0  0  0  0
 38  6  1  0  0  0  0
 38 40  1  0  0  0  0
 38 41  1  0  0  0  0
 39 38  1  0  0  0  0
 41 42  1  0  0  0  0
 43 41  1  0  0  0  0
 44 41  1  0  0  0  0
 44 47  1  0  0  0  0
 44 46  1  0  0  0  0
 45 44  1  0  0  0  0
 47 48  1  0  0  0  0
 49 47  1  0  0  0  0
M  END
