2,34
q = -2.0, confidence = 0.944

 52 54  0  0  0  0  0  0  0  0999 V2000
    1.4886   -0.2054    1.5026 N   0  0  0  0  0  2  0  0  0  0  0  0
    1.7230    1.1748   -0.6564 N   0  0  0  0  0  2  0  0  0  0  0  0
   -0.0000   -1.8936    2.5764 C   0  0  0  0  0  0  0  0  0  0  0  0
    1.2834   -1.0704    2.6571 C   0  0  0  0  0  0  0  0  0  0  0  0
    2.6121    0.5362    1.4447 C   0  0  0  0  0  0  0  0  0  0  0  0
    3.5589    0.5372    2.5101 C   0  0  0  0  0  3  0  0  0  0  0  0
    4.8115    1.1402    2.6595 C   0  0  0  0  0  0  0  0  0  0  0  0
    5.5290    1.9594    1.7768 C   0  0  0  0  0  0  0  0  0  0  0  0
    5.0900    2.3860    0.5172 C   0  0  0  0  0  0  0  0  0  0  0  0
    3.8885    2.1216   -0.1482 C   0  0  0  0  0  0  0  0  0  0  0  0
    2.7622    1.3225    0.1869 C   0  0  0  0  0  0  0  0  0  0  0  0
    1.7074    1.7997   -1.9746 C   0  0  0  0  0  0  0  0  0  0  0  0
    1.3112    3.2902   -1.9782 C   0  0  0  0  0  0  0  0  0  0  0  0
    0.0000    3.6611   -1.2688 C   0  0  0  0  0  0  0  0  0  0  0  0
   -0.0001   -2.4932    1.6405 H   0  0  0  0  0  0  0  0  0  0  0  0
   -0.0000   -2.6086    3.4251 H   0  0  0  0  0  0  0  0  0  0  0  0
    1.2595   -0.4669    3.5972 H   0  0  0  0  0  0  0  0  0  0  0  0
    2.1493   -1.7657    2.7575 H   0  0  0  0  0  0  0  0  0  0  0  0
    3.2625   -0.0692    3.3755 H   0  0  0  0  0  0  0  0  0  0  0  0
    5.3099    0.9248    3.6199 H   0  0  0  0  0  0  0  0  0  0  0  0
    6.5202    2.3063    2.1074 H   0  0  0  0  0  0  0  0  0  0  0  0
    5.7886    3.0336   -0.0390 H   0  0  0  0  0  0  0  0  0  0  0  0
    3.8171    2.6017   -1.1335 H   0  0  0  0  0  0  0  0  0  0  0  0
    1.0064    1.2147   -2.6062 H   0  0  0  0  0  0  0  0  0  0  0  0
    2.6960    1.6769   -2.4719 H   0  0  0  0  0  0  0  0  0  0  0  0
    2.1292    3.8714   -1.5030 H   0  0  0  0  0  0  0  0  0  0  0  0
    1.2719    3.6280   -3.0375 H   0  0  0  0  0  0  0  0  0  0  0  0
    0.0000    4.7618   -1.1266 H   0  0  0  0  0  0  0  0  0  0  0  0
   -0.0000    3.2342   -0.2414 H   0  0  0  0  0  0  0  0  0  0  0  0
   -1.2834   -1.0703    2.6571 C   0  0  0  0  0  0  0  0  0  0  0  0
   -1.4886   -0.2054    1.5026 N   0  0  0  0  0  0  0  0  0  0  0  0
   -1.3111    3.2902   -1.9782 C   0  0  0  0  0  0  0  0  0  0  0  0
   -1.7074    1.7997   -1.9746 C   0  0  0  0  0  0  0  0  0  0  0  0
   -1.7230    1.1748   -0.6564 N   0  0  0  0  0  2  0  0  0  0  0  0
   -2.7621    1.3226    0.1869 C   0  0  0  0  0  0  0  0  0  0  0  0
   -2.6121    0.5362    1.4447 C   0  0  0  0  0  0  0  0  0  0  0  0
   -3.5589    0.5373    2.5102 C   0  0  0  0  0  0  0  0  0  0  0  0
   -4.8115    1.1404    2.6595 C   0  0  0  0  0  0  0  0  0  0  0  0
   -5.5289    1.9595    1.7768 C   0  0  0  0  0  0  0  0  0  0  0  0
   -5.0900    2.3860    0.5171 C   0  0  0  0  0  0  0  0  0  0  0  0
   -3.8885    2.1216   -0.1482 C   0  0  0  0  0  0  0  0  0  0  0  0
   -3.8171    2.6016   -1.1335 H   0  0  0  0  0  0  0  0  0  0  0  0
   -5.7886    3.0336   -0.0391 H   0  0  0  0  0  0  0  0  0  0  0  0
   -6.5202    2.3064    2.1074 H   0  0  0  0  0  0  0  0  0  0  0  0
   -5.3098    0.9251    3.6199 H   0  0  0  0  0  0  0  0  0  0  0  0
   -3.2625   -0.0690    3.3755 H   0  0  0  0  0  0  0  0  0  0  0  0
   -1.0063    1.2147   -2.6062 H   0  0  0  0  0  0  0  0  0  0  0  0
   -2.6959    1.6768   -2.4720 H   0  0  0  0  0  0  0  0  0  0  0  0
   -2.1292    3.8713   -1.5030 H   0  0  0  0  0  0  0  0  0  0  0  0
   -1.2719    3.6280   -3.0375 H   0  0  0  0  0  0  0  0  0  0  0  0
   -1.2594   -0.4668    3.5972 H   0  0  0  0  0  0  0  0  0  0  0  0
   -2.1493   -1.7656    2.7576 H   0  0  0  0  0  0  0  0  0  0  0  0
  1  4  1  0  0  0  0
  2 11  1  0  0  0  0
  3  4  1  0  0  0  0
  3 30  1  0  0  0  0
  3 16  1  0  0  0  0
  4 18  1  0  0  0  0
  4 17  1  0  0  0  0
  5  1  1  0  0  0  0
  5  6  1  0  0  0  0
  6  7  1  0  0  0  0
  6 19  1  0  0  0  0
  7 20  1  0  0  0  0
  8 21  1  0  0  0  0
  8  7  2  0  0  0  0
  9  8  1  0  0  0  0
 10 11  1  0  0  0  0
 10  9  2  0  0  0  0
 11  5  2  0  0  0  0
 12  2  1  0  0  0  0
 13 12  1  0  0  0  0
 13 26  1  0  0  0  0
 13 14  1  0  0  0  0
 14 28  1  0  0  0  0
 14 29  1  0  0  0  0
 15  3  1  0  0  0  0
 22  9  1  0  0  0  0
 23 10  1  0  0  0  0
 24 12  1  0  0  0  0
 25 12  1  0  0  0  0
 27 13  1  0  0  0  0
 30 52  1  0  0  0  0
 30 51  1  0  0  0  0
 31 30  1  0  0  0  0
 32 33  1  0  0  0  0
 32 49  1  0  0  0  0
 32 14  1  0  0  0  0
 33 34  1  0  0  0  0
 34 35  1  0  0  0  0
 35 36  1  0  0  0  0
 36 31  2  0  0  0  0
 36 37  1  0  0  0  0
 37 38  2  0  0  0  0
 37 46  1  0  0  0  0
 38 45  1  0  0  0  0
 39 44  1  0  0  0  0
 39 38  1  0  0  0  0
 40 39  2  0  0  0  0
 41 35  2  0  0  0  0
 41 40  1  0  0  0  0
 42 41  1  0  0  0  0
 43 40  1  0  0  0  0
 47 33  1  0  0  0  0
 48 33  1  0  0  0  0
 50 32  1  0  0  0  0
M  END
