2,21
q = 0.0, confidence = 0.994

 38 39  0  0  0  0  0  0  0  0999 V2000
   -6.2388   -2.5450    0.6590 Cl  0  0  0  0  0  0  0  0  0  0  0  0
   -1.4231    1.9839   -0.2691 N   0  0  0  0  0  0  0  0  0  0  0  0
   -1.9007    2.0397    0.6434 H   0  0  0  0  0  0  0  0  0  0  0  0
   -0.5904    3.1763   -0.4861 C   0  0  0  0  0  0  0  0  0  0  0  0
   -1.1703    4.1229   -0.3897 H   0  0  0  0  0  0  0  0  0  0  0  0
   -0.2161    3.1297   -1.5314 H   0  0  0  0  0  0  0  0  0  0  0  0
   -2.4237    1.7257   -1.3327 C   0  0  0  0  0  0  0  0  0  0  0  0
   -1.8565    1.3953   -2.2282 H   0  0  0  0  0  0  0  0  0  0  0  0
   -2.9727    2.6619   -1.5841 H   0  0  0  0  0  0  0  0  0  0  0  0
   -3.3953    0.6588   -0.8907 C   0  0  0  0  0  0  0  0  0  0  0  0
   -3.0495   -0.7060   -0.9739 C   0  0  0  0  0  0  0  0  0  0  0  0
   -2.0851   -0.9940   -1.4250 H   0  0  0  0  0  0  0  0  0  0  0  0
   -3.9195   -1.6947   -0.4985 C   0  0  0  0  0  0  0  0  0  0  0  0
   -3.6500   -2.7581   -0.5619 H   0  0  0  0  0  0  0  0  0  0  0  0
   -5.1494   -1.3186    0.0661 C   0  0  0  0  0  0  0  0  0  0  0  0
   -5.5169    0.0337    0.1557 C   0  0  0  0  0  0  0  0  0  0  0  0
   -6.4860    0.3083    0.5949 H   0  0  0  0  0  0  0  0  0  0  0  0
   -4.6341    1.0119   -0.3217 C   0  0  0  0  0  0  0  0  0  0  0  0
   -4.9224    2.0737   -0.2554 H   0  0  0  0  0  0  0  0  0  0  0  0
    6.2381   -2.5457   -0.6587 Cl  0  0  0  0  0  0  0  0  0  0  0  0
    1.4232    1.9843    0.2684 N   0  0  0  0  0  0  0  0  0  0  0  0
    1.9006    2.0399   -0.6443 H   0  0  0  0  0  0  0  0  0  0  0  0
    0.5902    3.1765    0.4852 C   0  0  0  0  0  0  0  0  0  0  0  0
    1.1699    4.1232    0.3887 H   0  0  0  0  0  0  0  0  0  0  0  0
    0.2159    3.1300    1.5305 H   0  0  0  0  0  0  0  0  0  0  0  0
    2.4241    1.7266    1.3318 C   0  0  0  0  0  0  0  0  0  0  0  0
    1.8571    1.3968    2.2276 H   0  0  0  0  0  0  0  0  0  0  0  0
    2.9733    2.6630    1.5825 H   0  0  0  0  0  0  0  0  0  0  0  0
    3.3955    0.6594    0.8902 C   0  0  0  0  0  0  0  0  0  0  0  0
    3.0497   -0.7053    0.9745 C   0  0  0  0  0  0  0  0  0  0  0  0
    2.0855   -0.9929    1.4263 H   0  0  0  0  0  0  0  0  0  0  0  0
    3.9194   -1.6944    0.4994 C   0  0  0  0  0  0  0  0  0  0  0  0
    3.6499   -2.7577    0.5638 H   0  0  0  0  0  0  0  0  0  0  0  0
    5.1490   -1.3187   -0.0660 C   0  0  0  0  0  0  0  0  0  0  0  0
    5.5166    0.0334   -0.1569 C   0  0  0  0  0  0  0  0  0  0  0  0
    6.4855    0.3076   -0.5967 H   0  0  0  0  0  0  0  0  0  0  0  0
    4.6341    1.0120    0.3203 C   0  0  0  0  0  0  0  0  0  0  0  0
    4.9223    2.0737    0.2531 H   0  0  0  0  0  0  0  0  0  0  0  0
  2  3  1  0  0  0  0
  4  5  1  0  0  0  0
  4  2  1  0  0  0  0
  4 23  1  0  0  0  0
  6  4  1  0  0  0  0
  7 10  1  0  0  0  0
  7  2  1  0  0  0  0
  8  7  1  0  0  0  0
  9  7  1  0  0  0  0
 10 18  1  0  0  0  0
 11 10  2  0  0  0  0
 11 13  1  0  0  0  0
 12 11  1  0  0  0  0
 13 15  2  0  0  0  0
 14 13  1  0  0  0  0
 15 16  1  0  0  0  0
 15  1  1  0  0  0  0
 16 17  1  0  0  0  0
 18 19  1  0  0  0  0
 18 16  2  0  0  0  0
 20 34  1  0  0  0  0
 21 23  1  0  0  0  0
 21 26  1  0  0  0  0
 22 21  1  0  0  0  0
 23 25  1  0  0  0  0
 24 23  1  0  0  0  0
 26 28  1  0  0  0  0
 26 27  1  0  0  0  0
 29 30  1  0  0  0  0
 29 26  1  0  0  0  0
 30 31  1  0  0  0  0
 32 33  1  0  0  0  0
 32 30  2  0  0  0  0
 34 32  1  0  0  0  0
 35 34  2  0  0  0  0
 35 37  1  0  0  0  0
 36 35  1  0  0  0  0
 37 29  2  0  0  0  0
 38 37  1  0  0  0  0
M  END
