3,4
q = 0.0, confidence = 0.996

 43 48  0  0  1  0  0  0  0  0999 V2000
   -6.3752   -0.9225    0.3251 F   0  0  0  0  0  0  0  0  0  0  0  0
   -4.5735   -1.8286   -0.8310 F   0  0  0  0  0  0  0  0  0  0  0  0
    1.2664    0.7456    0.0155 N   0  0  0  0  0  2  0  0  0  0  0  0
    0.9775   -1.6620   -0.7826 N   0  0  0  0  0  2  0  0  0  0  0  0
   -4.1406   -0.8239    1.3020 N   0  0  0  0  0  0  0  0  0  0  0  0
   -0.1764   -0.9563   -0.5766 N   0  0  0  0  0  0  0  0  0  0  0  0
   -4.7186    0.5584   -0.6895 N   0  0  0  0  0  0  0  0  0  0  0  0
   -2.8810   -0.2291    1.3213 C   0  0  0  0  0  0  0  0  0  0  0  0
   -1.1176    1.1905    0.2744 C   0  0  0  0  0  0  0  0  0  0  0  0
   -0.0162    0.3508   -0.0813 C   0  0  0  0  0  0  0  0  0  0  0  0
    0.5003    2.9899    0.6130 C   0  0  0  0  0  0  0  0  0  0  0  0
   -0.8290    2.4989    0.6393 C   0  0  0  0  0  0  0  0  0  0  0  0
   -1.6518    3.1617    0.9462 H   0  0  0  0  0  0  0  0  0  0  0  0
    1.5550    2.0748    0.2629 C   0  0  2  0  0  3  0  0  0  0  0  0
   -2.1958   -0.6673    2.4978 C   0  0  0  0  0  0  0  0  0  0  0  0
   -1.1979   -0.3411    2.8134 H   0  0  0  0  0  0  0  0  0  0  0  0
   -2.5121    0.6837    0.3108 C   0  0  0  0  0  3  0  0  0  0  0  0
   -3.4386    1.1154   -0.6568 C   0  0  0  0  0  0  0  0  0  0  0  0
   -5.4172    1.1731   -1.6609 C   0  0  0  0  0  0  0  0  0  0  0  0
   -6.4497    0.8717   -1.8798 H   0  0  0  0  0  0  0  0  0  0  0  0
   -0.7570   -2.8478   -1.5911 C   0  0  0  0  0  0  0  0  0  0  0  0
   -1.3432   -3.6435   -2.0607 H   0  0  0  0  0  0  0  0  0  0  0  0
    0.6441   -2.8016   -1.3964 C   0  0  0  0  0  3  0  0  0  0  0  0
    1.4200   -3.5215   -1.6778 H   0  0  0  0  0  0  0  0  0  0  0  0
    2.8776    2.5716    0.1324 C   0  0  0  0  0  0  0  0  0  0  0  0
    3.6506    1.8969   -0.2523 H   0  0  0  0  0  0  0  0  0  0  0  0
   -4.6120    2.1662   -2.2894 C   0  0  0  0  0  0  0  0  0  0  0  0
   -4.9327    2.8314   -3.0985 H   0  0  0  0  0  0  0  0  0  0  0  0
   -4.2587   -1.5965    2.3986 C   0  0  0  0  0  0  0  0  0  0  0  0
   -5.1743   -2.1745    2.5767 H   0  0  0  0  0  0  0  0  0  0  0  0
    3.1503    3.9075    0.3979 C   0  0  0  0  0  0  0  0  0  0  0  0
    4.1751    4.2851    0.2652 H   0  0  0  0  0  0  0  0  0  0  0  0
   -3.3602    2.1206   -1.6758 C   0  0  0  0  0  0  0  0  0  0  0  0
   -2.4857    2.7434   -1.8955 H   0  0  0  0  0  0  0  0  0  0  0  0
   -1.2554   -1.6668   -1.0673 C   0  0  0  0  0  0  0  0  0  0  0  0
   -2.2886   -1.3125   -1.0198 H   0  0  0  0  0  0  0  0  0  0  0  0
   -3.0706   -1.5188    3.1778 C   0  0  0  0  0  0  0  0  0  0  0  0
   -2.9018   -2.0215    4.1363 H   0  0  0  0  0  0  0  0  0  0  0  0
    2.1253    4.7974    0.8125 C   0  0  0  0  0  0  0  0  0  0  0  0
    2.3665    5.8476    1.0310 H   0  0  0  0  0  0  0  0  0  0  0  0
    0.8180    4.3464    0.9070 C   0  0  0  0  0  0  0  0  0  0  0  0
    0.0040    5.0290    1.1931 H   0  0  0  0  0  0  0  0  0  0  0  0
   -5.0456   -0.8123    0.0154 B   0  0  0  0  0  0  0  0  0  0  0  0
  2 43  1  0  0  0  0
  4  6  1  0  0  0  0
  5  8  1  0  0  0  0
  5 29  1  0  0  0  0
  6 10  1  0  0  0  0
  7 18  1  0  0  0  0
  7 43  1  0  0  0  0
  8 15  2  0  0  0  0
  9 17  1  0  0  0  0
  9 12  1  0  0  0  0
 10  3  1  0  0  0  0
 10  9  2  0  0  0  0
 11 12  2  0  0  0  0
 11 41  1  0  0  0  0
 12 13  1  0  0  0  0
 14  3  1  6  0  0  0
 14 11  1  0  0  0  0
 15 16  1  0  0  0  0
 15 37  1  0  0  0  0
 17  8  1  0  0  0  0
 18 17  1  0  0  0  0
 19  7  1  0  0  0  0
 20 19  1  0  0  0  0
 21 23  1  0  0  0  0
 21 35  2  0  0  0  0
 22 21  1  0  0  0  0
 23  4  1  0  0  0  0
 24 23  1  0  0  0  0
 25 14  1  0  0  0  0
 25 31  2  0  0  0  0
 26 25  1  0  0  0  0
 27 33  1  0  0  0  0
 27 19  2  0  0  0  0
 28 27  1  0  0  0  0
 29 30  1  0  0  0  0
 29 37  2  0  0  0  0
 31 39  1  0  0  0  0
 32 31  1  0  0  0  0
 33 18  2  0  0  0  0
 34 33  1  0  0  0  0
 35 36  1  0  0  0  0
 35  6  1  0  0  0  0
 37 38  1  0  0  0  0
 39 41  2  0  0  0  0
 39 40  1  0  0  0  0
 41 42  1  0  0  0  0
 43  1  1  0  0  0  0
 43  5  1  0  0  0  0
M  END
