1,2
q = 0.0, confidence = 1.0

 22 22  0  0  1  0  0  0  0  0999 V2000
   -1.0831    0.9168   -0.9245 N   0  0  0  0  0  0  0  0  0  0  0  0
   -0.4585   -1.7871   -0.5004 N   0  0  0  0  0  0  0  0  0  0  0  0
   -1.9516   -0.1457   -1.5064 C   0  0  0  0  0  0  0  0  0  0  0  0
   -1.9013   -1.4266   -0.6537 C   0  0  2  0  0  0  0  0  0  0  0  0
   -2.5923   -1.3300    0.7156 C   0  0  0  0  0  0  0  0  0  0  0  0
   -2.2398   -0.1395    1.6211 C   0  0  0  0  0  0  0  0  0  0  0  0
   -2.6866    1.2111    1.0418 C   0  0  0  0  0  0  0  0  0  0  0  0
   -1.7498    1.8660    0.0207 C   0  0  0  0  0  0  0  0  0  0  0  0
   -0.6900    1.4873   -1.6871 H   0  0  0  0  0  0  0  0  0  0  0  0
   -0.0866   -2.2198   -1.3605 H   0  0  0  0  0  0  0  0  0  0  0  0
   -0.3001   -2.4712    0.2579 H   0  0  0  0  0  0  0  0  0  0  0  0
   -2.9994    0.2039   -1.6247 H   0  0  0  0  0  0  0  0  0  0  0  0
   -1.5574   -0.3729   -2.5174 H   0  0  0  0  0  0  0  0  0  0  0  0
   -2.4165   -2.2293   -1.2279 H   0  0  0  0  0  0  0  0  0  0  0  0
   -3.6867   -1.3163    0.5214 H   0  0  0  0  0  0  0  0  0  0  0  0
   -2.4006   -2.2829    1.2561 H   0  0  0  0  0  0  0  0  0  0  0  0
   -2.7567   -0.2998    2.5894 H   0  0  0  0  0  0  0  0  0  0  0  0
   -1.1486   -0.1211    1.8389 H   0  0  0  0  0  0  0  0  0  0  0  0
   -3.7028    1.0915    0.6042 H   0  0  0  0  0  0  0  0  0  0  0  0
   -2.8076    1.9451    1.8644 H   0  0  0  0  0  0  0  0  0  0  0  0
   -0.9117    2.3984    0.5140 H   0  0  0  0  0  0  0  0  0  0  0  0
   -2.3238    2.6126   -0.5725 H   0  0  0  0  0  0  0  0  0  0  0  0
  1  8  1  0  0  0  0
  2 11  1  0  0  0  0
  3  1  1  0  0  0  0
  3  4  1  0  0  0  0
  4 14  1  6  0  0  0
  4  2  1  0  0  0  0
  4  5  1  0  0  0  0
  5 16  1  0  0  0  0
  5  6  1  0  0  0  0
  6 18  1  0  0  0  0
  6 17  1  0  0  0  0
  7  6  1  0  0  0  0
  7 20  1  0  0  0  0
  8 21  1  0  0  0  0
  8  7  1  0  0  0  0
  9  1  1  0  0  0  0
 10  2  1  0  0  0  0
 12  3  1  0  0  0  0
 13  3  1  0  0  0  0
 15  5  1  0  0  0  0
 19  7  1  0  0  0  0
 22  8  1  0  0  0  0
M  END
