1,4
q = 0.0, confidence = 1.0

 18 19  0  0  1  0  0  0  0  0999 V2000
    0.7862    2.0377    0.6652 N   0  0  0  0  0  2  0  0  0  0  0  0
   -0.4552    3.7084   -2.3710 N   0  0  0  0  0  0  0  0  0  0  0  0
   -0.2457    4.7000   -2.4786 H   0  0  0  0  0  0  0  0  0  0  0  0
   -0.5369    1.6626   -1.5317 N   0  0  0  0  0  2  0  0  0  0  0  0
    1.4060    2.1390    1.8665 C   0  0  0  0  0  3  0  0  0  0  0  0
    1.4705    1.2065    2.4464 H   0  0  0  0  0  0  0  0  0  0  0  0
    1.9250    3.3452    2.3412 C   0  0  0  0  0  0  0  0  0  0  0  0
    2.4214    3.3656    3.3214 H   0  0  0  0  0  0  0  0  0  0  0  0
    1.8013    4.5091    1.5607 C   0  0  0  0  0  0  0  0  0  0  0  0
    2.2023    5.4700    1.9130 H   0  0  0  0  0  0  0  0  0  0  0  0
    1.1462    4.4225    0.3276 C   0  0  0  0  0  0  0  0  0  0  0  0
    1.0166    5.3147   -0.3028 H   0  0  0  0  0  0  0  0  0  0  0  0
    0.6431    3.1833   -0.0995 C   0  0  0  0  0  0  0  0  0  0  0  0
   -0.0847    2.9167   -1.3183 C   0  0  2  0  0  3  0  0  0  0  0  0
   -1.1544    2.9288   -3.2712 C   0  0  0  0  0  0  0  0  0  0  0  0
   -1.5545    3.3356   -4.2044 H   0  0  0  0  0  0  0  0  0  0  0  0
   -1.1980    1.6499   -2.7365 C   0  0  0  0  0  0  0  0  0  0  0  0
   -1.6455    0.7341   -3.1368 H   0  0  0  0  0  0  0  0  0  0  0  0
  1  5  1  0  0  0  0
  2 14  1  0  0  0  0
  3  2  1  0  0  0  0
  4 14  1  0  0  0  0
  5  7  1  0  0  0  0
  5  6  1  0  0  0  0
  7  8  1  0  0  0  0
  9 10  1  0  0  0  0
  9  7  2  0  0  0  0
 11  9  1  0  0  0  0
 12 11  1  0  0  0  0
 13 11  2  0  0  0  0
 13  1  1  0  0  0  0
 14 13  1  1  0  0  0
 15 17  2  0  0  0  0
 15  2  1  0  0  0  0
 16 15  1  0  0  0  0
 17  4  1  0  0  0  0
 18 17  1  0  0  0  0
M  END
