62,63
q = 0.0, confidence = 0.996

 64 68  0  0  1  0  0  0  0  0999 V2000
   -3.0455   -3.3681    1.5301 C   0  0  0  0  0  0  0  0  0  0  0  0
   -2.3239   -4.1822    1.6255 H   0  0  0  0  0  0  0  0  0  0  0  0
   -4.3784   -3.3537    1.8565 C   0  0  0  0  0  0  0  0  0  0  0  0
   -4.9439   -4.1911    2.2784 H   0  0  0  0  0  0  0  0  0  0  0  0
   -4.8851   -2.0502    1.5171 C   0  0  0  0  0  0  0  0  0  0  0  0
   -6.1329   -1.4071    1.6103 C   0  0  0  0  0  0  0  0  0  0  0  0
   -7.0061   -1.9212    2.0378 H   0  0  0  0  0  0  0  0  0  0  0  0
   -6.2166   -0.0930    1.1380 C   0  0  0  0  0  0  0  0  0  0  0  0
   -7.1593    0.4689    1.1932 H   0  0  0  0  0  0  0  0  0  0  0  0
   -5.1063    0.5290    0.5438 C   0  0  0  0  0  3  0  0  0  0  0  0
   -5.1624    1.5213    0.0744 H   0  0  0  0  0  0  0  0  0  0  0  0
   -3.7963   -1.3240    0.9511 C   0  0  0  0  0  0  0  0  0  0  0  0
   -1.3079   -1.7212    0.8604 C   0  0  1  0  0  3  0  0  0  0  0  0
   -0.2604   -2.5452    1.3264 C   0  0  0  0  0  0  0  0  0  0  0  0
   -0.4804   -3.5195    1.7770 H   0  0  0  0  0  0  0  0  0  0  0  0
    1.0597   -2.1141    1.2030 C   0  0  0  0  0  0  0  0  0  0  0  0
    1.8849   -2.7793    1.5010 H   0  0  0  0  0  0  0  0  0  0  0  0
    1.3344   -0.8125    0.7322 C   0  0  0  0  0  0  0  0  0  0  0  0
    0.2327   -0.0402    0.3438 C   0  0  0  0  0  0  0  0  0  0  0  0
    0.3650    0.9785   -0.0430 H   0  0  0  0  0  0  0  0  0  0  0  0
    2.9621    1.3257    0.7577 C   0  0  0  0  0  0  0  0  0  0  0  0
    3.3647    2.2081   -0.2880 C   0  0  0  0  0  0  0  0  0  0  0  0
    3.5374    3.5761   -0.0135 C   0  0  0  0  0  0  0  0  0  0  0  0
    3.8396    4.2472   -0.8343 H   0  0  0  0  0  0  0  0  0  0  0  0
    3.3347    4.1118    1.2706 C   0  0  0  0  0  0  0  0  0  0  0  0
    2.9270    3.2343    2.2916 C   0  0  0  0  0  0  0  0  0  0  0  0
    2.7661    3.6306    3.3079 H   0  0  0  0  0  0  0  0  0  0  0  0
    2.7174    1.8656    2.0537 C   0  0  0  0  0  0  0  0  0  0  0  0
    3.8846   -1.1584   -0.0770 C   0  0  0  0  0  0  0  0  0  0  0  0
    3.6234   -2.0223   -1.1858 C   0  0  0  0  0  0  0  0  0  0  0  0
    4.6419   -2.8679   -1.6635 C   0  0  0  0  0  0  0  0  0  0  0  0
    4.4348   -3.5067   -2.5380 H   0  0  0  0  0  0  0  0  0  0  0  0
    5.9142   -2.9169   -1.0705 C   0  0  0  0  0  0  0  0  0  0  0  0
    6.1658   -2.0552    0.0132 C   0  0  0  0  0  0  0  0  0  0  0  0
    7.1625   -2.0628    0.4848 H   0  0  0  0  0  0  0  0  0  0  0  0
    5.1927   -1.1689    0.5027 C   0  0  0  0  0  0  0  0  0  0  0  0
    3.5269    1.7160   -1.7065 C   0  0  0  0  0  0  0  0  0  0  0  0
    4.0070    2.4807   -2.3469 H   0  0  0  0  0  0  0  0  0  0  0  0
    2.5333    1.4903   -2.1509 H   0  0  0  0  0  0  0  0  0  0  0  0
    4.1285    0.7875   -1.7581 H   0  0  0  0  0  0  0  0  0  0  0  0
    3.5113    5.5855    1.5322 C   0  0  0  0  0  0  0  0  0  0  0  0
    3.7132    5.7915    2.6017 H   0  0  0  0  0  0  0  0  0  0  0  0
    2.5930    6.1479    1.2566 H   0  0  0  0  0  0  0  0  0  0  0  0
    4.3408    6.0103    0.9324 H   0  0  0  0  0  0  0  0  0  0  0  0
    2.2528    0.9909    3.1981 C   0  0  0  0  0  0  0  0  0  0  0  0
    2.3676    1.5078    4.1706 H   0  0  0  0  0  0  0  0  0  0  0  0
    2.8115    0.0345    3.2585 H   0  0  0  0  0  0  0  0  0  0  0  0
    1.1816    0.7215    3.0885 H   0  0  0  0  0  0  0  0  0  0  0  0
    2.3010   -2.0300   -1.9263 C   0  0  0  0  0  0  0  0  0  0  0  0
    2.4356   -2.4186   -2.9544 H   0  0  0  0  0  0  0  0  0  0  0  0
    1.8325   -1.0300   -2.0074 H   0  0  0  0  0  0  0  0  0  0  0  0
    1.5554   -2.6848   -1.4289 H   0  0  0  0  0  0  0  0  0  0  0  0
    6.9799   -3.8572   -1.5714 C   0  0  0  0  0  0  0  0  0  0  0  0
    6.7065   -4.3061   -2.5458 H   0  0  0  0  0  0  0  0  0  0  0  0
    7.1456   -4.6893   -0.8539 H   0  0  0  0  0  0  0  0  0  0  0  0
    7.9542   -3.3402   -1.6893 H   0  0  0  0  0  0  0  0  0  0  0  0
    5.5701   -0.2482    1.6413 C   0  0  0  0  0  0  0  0  0  0  0  0
    6.5867   -0.4770    2.0148 H   0  0  0  0  0  0  0  0  0  0  0  0
    4.8721   -0.3282    2.4989 H   0  0  0  0  0  0  0  0  0  0  0  0
    5.5500    0.8138    1.3243 H   0  0  0  0  0  0  0  0  0  0  0  0
   -2.6524   -2.1286    0.9918 N   0  0  0  0  0  0  0  0  0  0  0  0
   -3.9031   -0.0906    0.4181 N   0  0  0  0  0  2  0  0  0  0  0  0
   -1.0470   -0.5063    0.3076 N   0  0  0  0  0  2  0  0  0  0  0  0
    2.7665   -0.2081    0.4832 B   0  0  0  0  0  0  0  0  0  0  0  0
  1  2  1  0  0  0  0
  1  3  2  0  0  0  0
  3  4  1  0  0  0  0
  5  6  1  0  0  0  0
  5  3  1  0  0  0  0
  6  7  1  0  0  0  0
  8  9  1  0  0  0  0
  8  6  2  0  0  0  0
 10  8  1  0  0  0  0
 11 10  1  0  0  0  0
 12 61  1  0  0  0  0
 12  5  2  0  0  0  0
 13 61  1  1  0  0  0
 13 14  1  0  0  0  0
 14 15  1  0  0  0  0
 16 14  2  0  0  0  0
 16 17  1  0  0  0  0
 18 16  1  0  0  0  0
 19 18  2  0  0  0  0
 20 19  1  0  0  0  0
 21 28  1  0  0  0  0
 22 23  1  0  0  0  0
 22 21  2  0  0  0  0
 23 25  2  0  0  0  0
 24 23  1  0  0  0  0
 25 41  1  0  0  0  0
 25 26  1  0  0  0  0
 26 27  1  0  0  0  0
 28 26  2  0  0  0  0
 28 45  1  0  0  0  0
 29 64  1  0  0  0  0
 29 36  1  0  0  0  0
 30 29  2  0  0  0  0
 31 30  1  0  0  0  0
 31 33  2  0  0  0  0
 32 31  1  0  0  0  0
 33 34  1  0  0  0  0
 34 35  1  0  0  0  0
 34 36  2  0  0  0  0
 36 57  1  0  0  0  0
 37 22  1  0  0  0  0
 38 37  1  0  0  0  0
 39 37  1  0  0  0  0
 40 37  1  0  0  0  0
 41 42  1  0  0  0  0
 43 41  1  0  0  0  0
 44 41  1  0  0  0  0
 45 47  1  0  0  0  0
 45 46  1  0  0  0  0
 48 45  1  0  0  0  0
 49 52  1  0  0  0  0
 49 30  1  0  0  0  0
 50 49  1  0  0  0  0
 51 49  1  0  0  0  0
 53 33  1  0  0  0  0
 53 55  1  0  0  0  0
 54 53  1  0  0  0  0
 56 53  1  0  0  0  0
 57 58  1  0  0  0  0
 57 59  1  0  0  0  0
 60 57  1  0  0  0  0
 61  1  1  0  0  0  0
 62 10  1  0  0  0  0
 62 12  1  0  0  0  0
 63 19  1  0  0  0  0
 63 13  1  0  0  0  0
 64 18  1  0  0  0  0
 64 21  1  0  0  0  0
M  END
