1,2
q = -1.0

 42 43  0  0  0  0  0  0  0  0999 V2000
    0.4628   -1.9138   -0.1183 N   0  0  0  0  0  2  0  0  0  0  0  0
   -0.2964    0.6810   -0.0815 N   0  0  0  0  0  0  0  0  0  0  0  0
    0.9527   -3.1710   -0.1386 C   0  0  0  0  0  3  0  0  0  0  0  0
    2.0480   -3.2570   -0.1665 H   0  0  0  0  0  0  0  0  0  0  0  0
    0.1496   -4.3079   -0.1294 C   0  0  0  0  0  0  0  0  0  0  0  0
    0.6026   -5.3081   -0.1499 H   0  0  0  0  0  0  0  0  0  0  0  0
   -1.2442   -4.1107   -0.0941 C   0  0  0  0  0  0  0  0  0  0  0  0
   -1.9331   -4.9691   -0.0859 H   0  0  0  0  0  0  0  0  0  0  0  0
   -1.7564   -2.8196   -0.0688 C   0  0  0  0  0  0  0  0  0  0  0  0
   -2.8372   -2.6784   -0.0412 H   0  0  0  0  0  0  0  0  0  0  0  0
   -0.8968   -1.6810   -0.0774 C   0  0  0  0  0  0  0  0  0  0  0  0
   -1.3088   -0.2997   -0.0487 C   0  0  0  0  0  3  0  0  0  0  0  0
   -2.5970    0.3403   -0.0043 C   0  0  0  0  0  0  0  0  0  0  0  0
   -2.3109    1.7182   -0.0140 C   0  0  0  0  0  0  0  0  0  0  0  0
   -3.0472    2.5241    0.0079 H   0  0  0  0  0  0  0  0  0  0  0  0
   -0.9143    1.9021   -0.0588 C   0  0  0  0  0  0  0  0  0  0  0  0
   -0.2197    3.2559   -0.0757 C   0  0  0  0  0  0  0  0  0  0  0  0
   -4.0277   -0.2058    0.0445 C   0  0  0  0  0  0  0  0  0  0  0  0
    0.6149    3.3946   -1.3702 C   0  0  0  0  0  0  0  0  0  0  0  0
    1.2877    2.5359   -1.5302 H   0  0  0  0  0  0  0  0  0  0  0  0
    1.2281    4.3198   -1.3511 H   0  0  0  0  0  0  0  0  0  0  0  0
   -0.0639    3.4507   -2.2452 H   0  0  0  0  0  0  0  0  0  0  0  0
   -1.2601    4.3955   -0.0884 C   0  0  0  0  0  0  0  0  0  0  0  0
   -1.9129    4.3443   -0.9824 H   0  0  0  0  0  0  0  0  0  0  0  0
   -0.7378    5.3736   -0.1071 H   0  0  0  0  0  0  0  0  0  0  0  0
   -1.9038    4.3754    0.8135 H   0  0  0  0  0  0  0  0  0  0  0  0
    0.6138    3.4225    1.2174 C   0  0  0  0  0  0  0  0  0  0  0  0
   -0.0662    3.5007    2.0900 H   0  0  0  0  0  0  0  0  0  0  0  0
    1.2290    4.3458    1.1790 H   0  0  0  0  0  0  0  0  0  0  0  0
    1.2827    2.5645    1.4004 H   0  0  0  0  0  0  0  0  0  0  0  0
   -4.3601   -0.9971   -1.2455 C   0  0  0  0  0  0  0  0  0  0  0  0
   -4.3410   -0.3118   -2.1164 H   0  0  0  0  0  0  0  0  0  0  0  0
   -5.3764   -1.4398   -1.1814 H   0  0  0  0  0  0  0  0  0  0  0  0
   -3.6466   -1.8104   -1.4695 H   0  0  0  0  0  0  0  0  0  0  0  0
   -4.2574   -1.0327    1.3345 C   0  0  0  0  0  0  0  0  0  0  0  0
   -3.5280   -1.8498    1.4793 H   0  0  0  0  0  0  0  0  0  0  0  0
   -5.2752   -1.4767    1.3380 H   0  0  0  0  0  0  0  0  0  0  0  0
   -4.1713   -0.3712    2.2197 H   0  0  0  0  0  0  0  0  0  0  0  0
   -5.0452    0.9561    0.1013 C   0  0  0  0  0  0  0  0  0  0  0  0
   -4.8981    1.5866    1.0003 H   0  0  0  0  0  0  0  0  0  0  0  0
   -6.0750    0.5464    0.1417 H   0  0  0  0  0  0  0  0  0  0  0  0
   -4.9770    1.6057   -0.7936 H   0  0  0  0  0  0  0  0  0  0  0  0
  1 11  1  0  0  0  0
  2 16  2  0  0  0  0
  2 12  1  0  0  0  0
  3  5  1  0  0  0  0
  3  1  1  0  0  0  0
  4  3  1  0  0  0  0
  5  7  2  0  0  0  0
  6  5  1  0  0  0  0
  7  8  1  0  0  0  0
  7  9  1  0  0  0  0
  9 10  1  0  0  0  0
 11  9  2  0  0  0  0
 11 12  1  0  0  0  0
 12 13  1  0  0  0  0
 13 18  1  0  0  0  0
 14 13  2  0  0  0  0
 14 15  1  0  0  0  0
 16 14  1  0  0  0  0
 17 16  1  0  0  0  0
 17 27  1  0  0  0  0
 18 39  1  0  0  0  0
 18 35  1  0  0  0  0
 19 21  1  0  0  0  0
 19 17  1  0  0  0  0
 20 19  1  0  0  0  0
 22 19  1  0  0  0  0
 23 17  1  0  0  0  0
 23 26  1  0  0  0  0
 24 23  1  0  0  0  0
 25 23  1  0  0  0  0
 27 30  1  0  0  0  0
 27 28  1  0  0  0  0
 29 27  1  0  0  0  0
 31 33  1  0  0  0  0
 31 18  1  0  0  0  0
 32 31  1  0  0  0  0
 34 31  1  0  0  0  0
 35 37  1  0  0  0  0
 35 36  1  0  0  0  0
 35 38  1  0  0  0  0
 39 41  1  0  0  0  0
 39 40  1  0  0  0  0
 42 39  1  0  0  0  0
M  END
