5,7
q = 0.0, confidence = 0.71

 24 25  0  0  0  0  0  0  0  0999 V2000
    6.0697    2.9257   -0.1636 Cl  0  0  0  0  0  0  0  0  0  0  0  0
    6.7459   -0.1679   -0.1895 Cl  0  0  0  0  0  0  0  0  0  0  0  0
    1.1388   -2.2832   -2.7010 Cl  0  0  0  0  0  0  0  0  0  0  0  0
    2.2522   -2.1630    2.6210 Cl  0  0  0  0  0  0  0  0  0  0  0  0
    1.0862    1.4693   -0.0442 N   0  0  0  0  0  2  0  0  0  0  0  0
    0.7748    2.4474   -0.0384 H   0  0  0  0  0  0  0  0  0  0  0  0
    1.6100   -0.9501   -0.0600 N   0  0  0  0  0  2  0  0  0  0  0  0
    2.4125    1.2399   -0.0746 C   0  0  0  0  0  0  0  0  0  0  0  0
    3.4629    2.1923   -0.1014 C   0  0  0  0  0  0  0  0  0  0  0  0
    3.2431    3.2687   -0.0953 H   0  0  0  0  0  0  0  0  0  0  0  0
    4.7859    1.7567   -0.1344 C   0  0  0  0  0  0  0  0  0  0  0  0
    5.0918    0.3562   -0.1454 C   0  0  0  0  0  0  0  0  0  0  0  0
    4.0742   -0.5972   -0.1216 C   0  0  0  0  0  0  0  0  0  0  0  0
    4.3269   -1.6653   -0.1320 H   0  0  0  0  0  0  0  0  0  0  0  0
    2.7260   -0.1720   -0.0827 C   0  0  0  0  0  0  0  0  0  0  0  0
    1.7102   -2.3491   -0.0402 C   0  0  0  0  0  0  0  0  0  0  0  0
    1.4767   -3.1143   -1.2124 C   0  0  0  0  0  0  0  0  0  0  0  0
    1.5146   -4.5177   -1.1950 C   0  0  0  0  0  0  0  0  0  0  0  0
    1.3279   -5.0703   -2.1257 H   0  0  0  0  0  0  0  0  0  0  0  0
    1.7943   -5.1833    0.0061 C   0  0  0  0  0  0  0  0  0  0  0  0
    1.8262   -6.2827    0.0247 H   0  0  0  0  0  0  0  0  0  0  0  0
    2.0318   -4.4623    1.1850 C   0  0  0  0  0  0  0  0  0  0  0  0
    2.2459   -4.9724    2.1340 H   0  0  0  0  0  0  0  0  0  0  0  0
    1.9854   -3.0604    1.1567 C   0  0  0  0  0  0  0  0  0  0  0  0
  1 11  1  0  0  0  0
  2 12  1  0  0  0  0
  3 17  1  0  0  0  0
  5  6  1  0  0  0  0
  7 16  1  0  0  0  0
  8  5  1  0  0  0  0
  9 10  1  0  0  0  0
  9  8  2  0  0  0  0
 11  9  1  0  0  0  0
 12 11  2  0  0  0  0
 12 13  1  0  0  0  0
 13 15  2  0  0  0  0
 14 13  1  0  0  0  0
 15  8  1  0  0  0  0
 15  7  1  0  0  0  0
 16 24  1  0  0  0  0
 17 18  1  0  0  0  0
 17 16  2  0  0  0  0
 18 20  2  0  0  0  0
 19 18  1  0  0  0  0
 20 21  1  0  0  0  0
 20 22  1  0  0  0  0
 22 23  1  0  0  0  0
 24 22  2  0  0  0  0
 24  4  1  0  0  0  0
M  END
