3,4
q = 0.0, confidence = 0.984

 29 29  0  0  0  0  0  0  0  0999 V2000
    4.6180   -1.4229   -1.5272 Cl  0  0  0  0  0  0  0  0  0  0  0  0
    1.4274   -0.3085    2.2964 F   0  0  0  0  0  0  0  0  0  0  0  0
    0.8116   -1.9895   -0.0998 N   0  0  0  0  0  2  0  0  0  0  0  0
   -2.0049   -2.4916    0.1995 N   0  0  0  0  0  0  0  0  0  0  0  0
   -0.9913   -3.5615    0.3497 C   0  0  0  0  0  0  0  0  0  0  0  0
   -1.4237   -4.5583    0.0976 H   0  0  0  0  0  0  0  0  0  0  0  0
   -0.6812   -3.5881    1.4133 H   0  0  0  0  0  0  0  0  0  0  0  0
    0.2379   -3.2779   -0.5075 C   0  0  0  0  0  0  0  0  0  0  0  0
    0.9726   -4.1068   -0.4061 H   0  0  0  0  0  0  0  0  0  0  0  0
   -0.0476   -3.2087   -1.5790 H   0  0  0  0  0  0  0  0  0  0  0  0
    2.1020   -1.9463    0.0367 C   0  0  0  0  0  3  0  0  0  0  0  0
    2.6922   -2.8429   -0.2485 H   0  0  0  0  0  0  0  0  0  0  0  0
    2.8966   -0.8070    0.5012 C   0  0  0  0  0  0  0  0  0  0  0  0
    4.1317   -0.4995   -0.1240 C   0  0  0  0  0  0  0  0  0  0  0  0
    4.9401    0.5617    0.2966 C   0  0  0  0  0  0  0  0  0  0  0  0
    5.8726    0.7793   -0.2405 H   0  0  0  0  0  0  0  0  0  0  0  0
    4.5211    1.3459    1.3810 C   0  0  0  0  0  0  0  0  0  0  0  0
    5.1371    2.1969    1.7059 H   0  0  0  0  0  0  0  0  0  0  0  0
    3.3210    1.0638    2.0463 C   0  0  0  0  0  0  0  0  0  0  0  0
    2.9715    1.6606    2.8990 H   0  0  0  0  0  0  0  0  0  0  0  0
    2.5398   -0.0094    1.6133 C   0  0  0  0  0  0  0  0  0  0  0  0
   -2.8140   -2.6861   -1.0187 C   0  0  0  0  0  0  0  0  0  0  0  0
   -3.4893   -1.8198   -1.1453 H   0  0  0  0  0  0  0  0  0  0  0  0
   -3.4139   -3.6245   -0.9531 H   0  0  0  0  0  0  0  0  0  0  0  0
   -2.1577   -2.7334   -1.9074 H   0  0  0  0  0  0  0  0  0  0  0  0
   -2.8856   -2.4333    1.3796 C   0  0  0  0  0  0  0  0  0  0  0  0
   -3.6039   -1.6022    1.2533 H   0  0  0  0  0  0  0  0  0  0  0  0
   -2.2782   -2.2313    2.2817 H   0  0  0  0  0  0  0  0  0  0  0  0
   -3.4450   -3.3888    1.5135 H   0  0  0  0  0  0  0  0  0  0  0  0
  1 14  1  0  0  0  0
  3 11  1  0  0  0  0
  4  5  1  0  0  0  0
  4 26  1  0  0  0  0
  5  7  1  0  0  0  0
  6  5  1  0  0  0  0
  8  9  1  0  0  0  0
  8  3  1  0  0  0  0
  8  5  1  0  0  0  0
 10  8  1  0  0  0  0
 11 13  1  0  0  0  0
 12 11  1  0  0  0  0
 13 21  1  0  0  0  0
 14 15  1  0  0  0  0
 14 13  2  0  0  0  0
 15 17  2  0  0  0  0
 16 15  1  0  0  0  0
 17 18  1  0  0  0  0
 17 19  1  0  0  0  0
 19 20  1  0  0  0  0
 21 19  2  0  0  0  0
 21  2  1  0  0  0  0
 22 24  1  0  0  0  0
 22  4  1  0  0  0  0
 23 22  1  0  0  0  0
 25 22  1  0  0  0  0
 26 29  1  0  0  0  0
 26 28  1  0  0  0  0
 27 26  1  0  0  0  0
M  END
