1,2
q = 0.0, confidence = 0.978

 46 48  0  0  1  0  0  0  0  0999 V2000
    2.5440   -0.7072   -0.7613 N   0  0  0  0  0  0  0  0  0  0  0  0
   -0.2790   -0.5199   -0.7525 N   0  0  0  0  0  2  0  0  0  0  0  0
    3.8349   -0.0319   -1.0182 C   0  0  0  0  0  0  0  0  0  0  0  0
    3.6414    0.9789   -1.4301 H   0  0  0  0  0  0  0  0  0  0  0  0
    4.4338   -0.6268   -1.7507 H   0  0  0  0  0  0  0  0  0  0  0  0
    4.4846   -0.0223    0.3646 C   0  0  0  0  0  0  0  0  0  0  0  0
    4.0967    0.8449    0.9370 H   0  0  0  0  0  0  0  0  0  0  0  0
    5.5854    0.0768    0.3100 H   0  0  0  0  0  0  0  0  0  0  0  0
    4.0177   -1.3490    1.0172 C   0  0  0  0  0  0  0  0  0  0  0  0
    4.8310   -2.0990    1.0645 H   0  0  0  0  0  0  0  0  0  0  0  0
    3.6474   -1.1702    2.0438 H   0  0  0  0  0  0  0  0  0  0  0  0
    2.8670   -1.8559    0.1197 C   0  0  0  0  0  0  0  0  0  0  0  0
    1.9745   -2.1418    0.7110 H   0  0  0  0  0  0  0  0  0  0  0  0
    3.1849   -2.7258   -0.5038 H   0  0  0  0  0  0  0  0  0  0  0  0
    1.7795   -1.0228   -1.9698 C   0  0  0  0  0  0  0  0  0  0  0  0
    2.3003   -1.7881   -2.5948 H   0  0  0  0  0  0  0  0  0  0  0  0
    1.7037   -0.0821   -2.5545 H   0  0  0  0  0  0  0  0  0  0  0  0
    0.3703   -1.5019   -1.6204 C   0  0  0  0  0  0  0  0  0  0  0  0
   -0.2086   -1.6587   -2.5569 H   0  0  0  0  0  0  0  0  0  0  0  0
    0.4103   -2.4887   -1.1059 H   0  0  0  0  0  0  0  0  0  0  0  0
   -1.5412   -0.6103   -0.5155 C   0  0  1  0  0  3  0  0  0  0  0  0
   -2.4867   -1.6788   -1.0351 C   0  0  0  0  0  0  0  0  0  0  0  0
   -2.1274   -2.6987   -0.7811 H   0  0  0  0  0  0  0  0  0  0  0  0
   -2.5515   -1.6353   -2.1431 H   0  0  0  0  0  0  0  0  0  0  0  0
   -3.8059   -1.2939   -0.3397 C   0  0  1  0  0  0  0  0  0  0  0  0
   -4.7066   -1.7340   -0.8108 H   0  0  0  0  0  0  0  0  0  0  0  0
   -3.6274   -1.6367    1.1587 C   0  0  0  0  0  0  0  0  0  0  0  0
   -3.2565   -2.6723    1.2940 H   0  0  0  0  0  0  0  0  0  0  0  0
   -4.5887   -1.5700    1.7040 H   0  0  0  0  0  0  0  0  0  0  0  0
   -2.6112   -0.5649    1.6438 C   0  0  0  0  0  0  0  0  0  0  0  0
   -1.6588   -0.9686    2.0397 H   0  0  0  0  0  0  0  0  0  0  0  0
   -3.0314    0.0817    2.4397 H   0  0  0  0  0  0  0  0  0  0  0  0
   -2.3423    0.3191    0.3767 C   0  0  2  0  0  0  0  0  0  0  0  0
   -3.7419    0.2667   -0.3553 C   0  0  0  0  0  0  0  0  0  0  0  0
   -3.7015    0.8920   -1.7585 C   0  0  0  0  0  0  0  0  0  0  0  0
   -2.8461    0.5501   -2.3733 H   0  0  0  0  0  0  0  0  0  0  0  0
   -3.6152    1.9944   -1.6827 H   0  0  0  0  0  0  0  0  0  0  0  0
   -4.6340    0.6683   -2.3163 H   0  0  0  0  0  0  0  0  0  0  0  0
   -4.8793    0.9350    0.4261 C   0  0  0  0  0  0  0  0  0  0  0  0
   -4.7386    2.0340    0.4589 H   0  0  0  0  0  0  0  0  0  0  0  0
   -4.9716    0.5800    1.4691 H   0  0  0  0  0  0  0  0  0  0  0  0
   -5.8478    0.7432   -0.0800 H   0  0  0  0  0  0  0  0  0  0  0  0
   -1.7374    1.6804    0.6661 C   0  0  0  0  0  0  0  0  0  0  0  0
   -0.9090    1.5933    1.3985 H   0  0  0  0  0  0  0  0  0  0  0  0
   -2.4965    2.3463    1.1234 H   0  0  0  0  0  0  0  0  0  0  0  0
   -1.3390    2.1695   -0.2445 H   0  0  0  0  0  0  0  0  0  0  0  0
  1 12  1  0  0  0  0
  3  1  1  0  0  0  0
  3  6  1  0  0  0  0
  4  3  1  0  0  0  0
  5  3  1  0  0  0  0
  6  7  1  0  0  0  0
  6  9  1  0  0  0  0
  8  6  1  0  0  0  0
  9 10  1  0  0  0  0
  9 11  1  0  0  0  0
 12 13  1  0  0  0  0
 12  9  1  0  0  0  0
 14 12  1  0  0  0  0
 15 18  1  0  0  0  0
 15  1  1  0  0  0  0
 16 15  1  0  0  0  0
 17 15  1  0  0  0  0
 18 20  1  0  0  0  0
 18  2  1  0  0  0  0
 19 18  1  0  0  0  0
 21  2  1  1  0  0  0
 21 33  1  0  0  0  0
 22 23  1  0  0  0  0
 22 21  1  0  0  0  0
 22 25  1  0  0  0  0
 24 22  1  0  0  0  0
 25 26  1  6  0  0  0
 25 27  1  0  0  0  0
 27 28  1  0  0  0  0
 27 30  1  0  0  0  0
 27 29  1  0  0  0  0
 30 31  1  0  0  0  0
 30 32  1  0  0  0  0
 33 43  1  1  0  0  0
 33 30  1  0  0  0  0
 34 25  1  0  0  0  0
 34 33  1  0  0  0  0
 34 39  1  0  0  0  0
 35 37  1  0  0  0  0
 35 34  1  0  0  0  0
 36 35  1  0  0  0  0
 38 35  1  0  0  0  0
 39 40  1  0  0  0  0
 39 41  1  0  0  0  0
 42 39  1  0  0  0  0
 43 45  1  0  0  0  0
 43 44  1  0  0  0  0
 46 43  1  0  0  0  0
M  END
