1,28
q = 0.0, confidence = 0.986

 52 53  0  0  0  0  0  0  0  0999 V2000
   -1.2953   -0.1520    0.1816 N   0  0  0  0  0  2  0  0  0  0  0  0
   -2.6277   -0.0330    0.3732 C   0  0  0  0  0  0  0  0  0  0  0  0
   -3.4731   -1.1480    0.4529 C   0  0  0  0  0  0  0  0  0  0  0  0
   -2.9016   -2.4346    0.3714 C   0  0  0  0  0  0  0  0  0  0  0  0
   -1.5215   -2.5563    0.1983 C   0  0  0  0  0  0  0  0  0  0  0  0
   -0.7250   -1.4033    0.0965 C   0  0  0  0  0  0  0  0  0  0  0  0
   -4.9405   -0.8816    0.6874 C   0  0  0  0  0  0  0  0  0  0  0  0
   -5.7912   -1.8642    0.2426 N   0  0  0  0  0  0  0  0  0  0  0  0
   -5.3169    0.1433    1.2521 O   0  0  0  0  0  0  0  0  0  0  0  0
   -7.2346   -1.7120    0.3220 C   0  0  0  0  0  0  0  0  0  0  0  0
   -7.8728   -1.2902   -1.0081 C   0  0  0  0  0  0  0  0  0  0  0  0
   -9.4006   -1.1591   -0.9430 C   0  0  0  0  0  0  0  0  0  0  0  0
   -9.9004   -0.0511   -0.0122 C   0  0  0  0  0  0  0  0  0  0  0  0
   -3.0096    0.9987    0.4587 H   0  0  0  0  0  0  0  0  0  0  0  0
   -3.5229   -3.3364    0.4760 H   0  0  0  0  0  0  0  0  0  0  0  0
   -1.0545   -3.5489    0.1473 H   0  0  0  0  0  0  0  0  0  0  0  0
   -5.4193   -2.5765   -0.3876 H   0  0  0  0  0  0  0  0  0  0  0  0
   -7.6844   -2.6653    0.6778 H   0  0  0  0  0  0  0  0  0  0  0  0
   -7.4130   -0.9435    1.0990 H   0  0  0  0  0  0  0  0  0  0  0  0
   -7.6000   -2.0321   -1.7914 H   0  0  0  0  0  0  0  0  0  0  0  0
   -7.4232   -0.3230   -1.3222 H   0  0  0  0  0  0  0  0  0  0  0  0
   -9.7796   -0.9744   -1.9706 H   0  0  0  0  0  0  0  0  0  0  0  0
   -9.8384   -2.1352   -0.6341 H   0  0  0  0  0  0  0  0  0  0  0  0
   -9.6270   -0.2370    1.0465 H   0  0  0  0  0  0  0  0  0  0  0  0
  -11.0043    0.0400   -0.0529 H   0  0  0  0  0  0  0  0  0  0  0  0
   -9.4717    0.9330   -0.2939 H   0  0  0  0  0  0  0  0  0  0  0  0
    0.7251   -1.4033   -0.0965 C   0  0  0  0  0  0  0  0  0  0  0  0
    1.2953   -0.1520   -0.1815 N   0  0  0  0  0  2  0  0  0  0  0  0
    2.6277   -0.0328   -0.3730 C   0  0  0  0  0  0  0  0  0  0  0  0
    3.4732   -1.1478   -0.4528 C   0  0  0  0  0  0  0  0  0  0  0  0
    2.9017   -2.4344   -0.3715 C   0  0  0  0  0  0  0  0  0  0  0  0
    1.5217   -2.5562   -0.1983 C   0  0  0  0  0  0  0  0  0  0  0  0
    1.0547   -3.5488   -0.1474 H   0  0  0  0  0  0  0  0  0  0  0  0
    3.5231   -3.3362   -0.4761 H   0  0  0  0  0  0  0  0  0  0  0  0
    4.9406   -0.8811   -0.6872 C   0  0  0  0  0  0  0  0  0  0  0  0
    5.7913   -1.8640   -0.2431 N   0  0  0  0  0  0  0  0  0  0  0  0
    7.2347   -1.7116   -0.3226 C   0  0  0  0  0  0  0  0  0  0  0  0
    7.8731   -1.2908    1.0078 C   0  0  0  0  0  0  0  0  0  0  0  0
    9.4008   -1.1596    0.9426 C   0  0  0  0  0  0  0  0  0  0  0  0
    9.9005   -0.0509    0.0126 C   0  0  0  0  0  0  0  0  0  0  0  0
    9.6270   -0.2360   -1.0462 H   0  0  0  0  0  0  0  0  0  0  0  0
   11.0044    0.0402    0.0532 H   0  0  0  0  0  0  0  0  0  0  0  0
    9.4718    0.9330    0.2951 H   0  0  0  0  0  0  0  0  0  0  0  0
    9.7800   -0.9757    1.9703 H   0  0  0  0  0  0  0  0  0  0  0  0
    9.8386   -2.1354    0.6330 H   0  0  0  0  0  0  0  0  0  0  0  0
    7.6004   -2.0333    1.7906 H   0  0  0  0  0  0  0  0  0  0  0  0
    7.4234   -0.3239    1.3228 H   0  0  0  0  0  0  0  0  0  0  0  0
    7.6845   -2.6646   -0.6790 H   0  0  0  0  0  0  0  0  0  0  0  0
    7.4131   -0.9426   -1.0989 H   0  0  0  0  0  0  0  0  0  0  0  0
    5.4195   -2.5768    0.3866 H   0  0  0  0  0  0  0  0  0  0  0  0
    5.3168    0.1441   -1.2512 O   0  0  0  0  0  0  0  0  0  0  0  0
    3.0096    0.9989   -0.4585 H   0  0  0  0  0  0  0  0  0  0  0  0
  1  2  1  0  0  0  0
  2  3  2  0  0  0  0
  2 14  1  0  0  0  0
  3  7  1  0  0  0  0
  4  3  1  0  0  0  0
  4 15  1  0  0  0  0
  5  4  2  0  0  0  0
  6  1  1  0  0  0  0
  6  5  1  0  0  0  0
  7  9  2  0  0  0  0
  8 10  1  0  0  0  0
  8  7  1  0  0  0  0
 10 18  1  0  0  0  0
 10 19  1  0  0  0  0
 11 12  1  0  0  0  0
 11 10  1  0  0  0  0
 12 23  1  0  0  0  0
 12 13  1  0  0  0  0
 13 24  1  0  0  0  0
 16  5  1  0  0  0  0
 17  8  1  0  0  0  0
 20 11  1  0  0  0  0
 21 11  1  0  0  0  0
 22 12  1  0  0  0  0
 25 13  1  0  0  0  0
 26 13  1  0  0  0  0
 27  6  2  0  0  0  0
 28 27  1  0  0  0  0
 29 28  1  0  0  0  0
 30 29  2  0  0  0  0
 30 31  1  0  0  0  0
 31 32  2  0  0  0  0
 32 33  1  0  0  0  0
 32 27  1  0  0  0  0
 34 31  1  0  0  0  0
 35 30  1  0  0  0  0
 35 36  1  0  0  0  0
 36 50  1  0  0  0  0
 37 36  1  0  0  0  0
 37 38  1  0  0  0  0
 38 47  1  0  0  0  0
 38 46  1  0  0  0  0
 39 38  1  0  0  0  0
 39 44  1  0  0  0  0
 40 42  1  0  0  0  0
 40 43  1  0  0  0  0
 40 39  1  0  0  0  0
 41 40  1  0  0  0  0
 45 39  1  0  0  0  0
 48 37  1  0  0  0  0
 49 37  1  0  0  0  0
 51 35  2  0  0  0  0
 52 29  1  0  0  0  0
M  END
