1,12
q = 0.0, confidence = 0.958

 48 49  0  0  0  0  0  0  0  0999 V2000
    1.0788   -0.1414   -0.3004 N   0  0  0  0  0  2  0  0  0  0  0  0
    2.3234   -0.6206   -0.4749 C   0  0  0  0  0  0  0  0  0  0  0  0
    3.4105    0.2158   -0.7792 C   0  0  0  0  0  0  0  0  0  0  0  0
    3.1688    1.5935   -0.9399 C   0  0  0  0  0  0  0  0  0  0  0  0
    1.8701    2.0842   -0.7811 C   0  0  0  0  0  0  0  0  0  0  0  0
    0.8285    1.2000   -0.4531 C   0  0  0  0  0  0  0  0  0  0  0  0
   -0.5709    1.5969   -0.2575 C   0  0  0  0  0  0  0  0  0  0  0  0
   -1.0737    2.9056   -0.4000 C   0  0  0  0  0  0  0  0  0  0  0  0
   -2.4346    3.1500   -0.2047 C   0  0  0  0  0  0  0  0  0  0  0  0
   -3.2764    2.0844    0.1660 C   0  0  0  0  0  0  0  0  0  0  0  0
   -2.7186    0.8042    0.2744 C   0  0  0  0  0  0  0  0  0  0  0  0
   -1.4105    0.5682    0.0704 N   0  0  0  0  0  2  0  0  0  0  0  0
    4.7551   -0.4436   -0.9679 C   0  0  0  0  0  0  0  0  0  0  0  0
    4.8414   -1.6313   -1.2747 O   0  0  0  0  0  0  0  0  0  0  0  0
    5.8368    0.3794   -0.7875 N   0  0  0  0  0  0  0  0  0  0  0  0
    7.1988   -0.1156   -0.8378 C   0  0  0  0  0  0  0  0  0  0  0  0
    7.8856    0.0665    0.5083 C   0  0  0  0  0  0  0  0  0  0  0  0
    7.7978    1.4388    0.8455 O   0  0  0  0  0  0  0  0  0  0  0  0
    8.3228    1.7365    2.1193 C   0  0  0  0  0  0  0  0  0  0  0  0
   -4.7692    2.2798    0.2716 C   0  0  0  0  0  0  0  0  0  0  0  0
   -5.3344    3.1507   -0.3863 O   0  0  0  0  0  0  0  0  0  0  0  0
   -5.4023    1.4028    1.1163 N   0  0  0  0  0  0  0  0  0  0  0  0
   -6.7770    0.9896    0.8917 C   0  0  0  0  0  0  0  0  0  0  0  0
   -6.7996   -0.4142    0.2850 C   0  0  0  0  0  0  0  0  0  0  0  0
   -6.0660   -0.3857   -0.9137 O   0  0  0  0  0  0  0  0  0  0  0  0
   -5.7421   -1.6674   -1.4169 C   0  0  0  0  0  0  0  0  0  0  0  0
    2.4403   -1.7125   -0.3592 H   0  0  0  0  0  0  0  0  0  0  0  0
    3.9823    2.2804   -1.2173 H   0  0  0  0  0  0  0  0  0  0  0  0
    1.6601    3.1536   -0.9159 H   0  0  0  0  0  0  0  0  0  0  0  0
   -0.3974    3.7253   -0.6778 H   0  0  0  0  0  0  0  0  0  0  0  0
   -2.8717    4.1494   -0.3459 H   0  0  0  0  0  0  0  0  0  0  0  0
   -3.3038   -0.1059    0.4960 H   0  0  0  0  0  0  0  0  0  0  0  0
    5.7196    1.2877   -0.3331 H   0  0  0  0  0  0  0  0  0  0  0  0
    7.7728    0.4272   -1.6204 H   0  0  0  0  0  0  0  0  0  0  0  0
    7.1512   -1.1862   -1.1171 H   0  0  0  0  0  0  0  0  0  0  0  0
    7.3828   -0.5631    1.2842 H   0  0  0  0  0  0  0  0  0  0  0  0
    8.9507   -0.2676    0.4447 H   0  0  0  0  0  0  0  0  0  0  0  0
    7.7910    1.1838    2.9315 H   0  0  0  0  0  0  0  0  0  0  0  0
    8.1996    2.8235    2.2896 H   0  0  0  0  0  0  0  0  0  0  0  0
    9.4088    1.4867    2.1916 H   0  0  0  0  0  0  0  0  0  0  0  0
   -4.8101    0.7226    1.5981 H   0  0  0  0  0  0  0  0  0  0  0  0
   -7.2220    1.7276    0.1953 H   0  0  0  0  0  0  0  0  0  0  0  0
   -7.3629    1.0038    1.8349 H   0  0  0  0  0  0  0  0  0  0  0  0
   -6.3496   -1.1419    1.0103 H   0  0  0  0  0  0  0  0  0  0  0  0
   -7.8581   -0.7408    0.1210 H   0  0  0  0  0  0  0  0  0  0  0  0
   -5.0479   -2.2159   -0.7367 H   0  0  0  0  0  0  0  0  0  0  0  0
   -5.2301   -1.5189   -2.3871 H   0  0  0  0  0  0  0  0  0  0  0  0
   -6.6515   -2.2919   -1.5883 H   0  0  0  0  0  0  0  0  0  0  0  0
  2 27  1  0  0  0  0
  2  1  1  0  0  0  0
  3  2  2  0  0  0  0
  4  5  2  0  0  0  0
  4  3  1  0  0  0  0
  5  6  1  0  0  0  0
  6  1  1  0  0  0  0
  6  7  2  0  0  0  0
  7 12  1  0  0  0  0
  8  7  1  0  0  0  0
  8  9  2  0  0  0  0
  9 10  1  0  0  0  0
 10 20  1  0  0  0  0
 10 11  2  0  0  0  0
 11 32  1  0  0  0  0
 12 11  1  0  0  0  0
 13 15  1  0  0  0  0
 13  3  1  0  0  0  0
 14 13  2  0  0  0  0
 15 33  1  0  0  0  0
 16 15  1  0  0  0  0
 16 17  1  0  0  0  0
 17 18  1  0  0  0  0
 17 36  1  0  0  0  0
 18 19  1  0  0  0  0
 19 40  1  0  0  0  0
 19 39  1  0  0  0  0
 19 38  1  0  0  0  0
 20 22  1  0  0  0  0
 21 20  2  0  0  0  0
 22 41  1  0  0  0  0
 23 22  1  0  0  0  0
 23 43  1  0  0  0  0
 24 23  1  0  0  0  0
 24 44  1  0  0  0  0
 25 24  1  0  0  0  0
 26 25  1  0  0  0  0
 26 46  1  0  0  0  0
 28  4  1  0  0  0  0
 29  5  1  0  0  0  0
 30  8  1  0  0  0  0
 31  9  1  0  0  0  0
 34 16  1  0  0  0  0
 35 16  1  0  0  0  0
 37 17  1  0  0  0  0
 42 23  1  0  0  0  0
 45 24  1  0  0  0  0
 47 26  1  0  0  0  0
 48 26  1  0  0  0  0
M  END
