2,3
q = -1.0, confidence = 0.0

 28 30  0  0  1  0  0  0  0  0999 V2000
   -0.7703    3.6808    0.5398 S   0  0  0  0  0  0  0  0  0  0  0  0
    1.3793    0.4803    0.0105 N   0  0  0  0  0  2  0  0  0  0  0  0
   -1.0790    1.1455   -0.0273 N   0  0  0  0  0  2  0  0  0  0  0  0
    1.1661    1.7774    0.3381 N   0  0  0  0  0  2  0  0  0  0  0  0
   -0.1257    2.0589    0.2736 C   0  0  1  0  0  3  0  0  0  0  0  0
    2.6003    0.0386   -0.2279 C   0  0  0  0  0  3  0  0  0  0  0  0
    2.6292   -1.0179   -0.5258 H   0  0  0  0  0  0  0  0  0  0  0  0
   -2.3359    1.6968   -0.1786 C   0  0  0  0  0  0  0  0  0  0  0  0
    3.8777    0.7291   -0.1794 C   0  0  0  0  0  0  0  0  0  0  0  0
   -2.3826    3.0884    0.1309 C   0  0  0  0  0  0  0  0  0  0  0  0
   -3.5029    1.0497   -0.6253 C   0  0  0  0  0  0  0  0  0  0  0  0
   -3.4441   -0.0009   -0.9366 H   0  0  0  0  0  0  0  0  0  0  0  0
    6.3069    0.5091   -0.4746 C   0  0  0  0  0  0  0  0  0  0  0  0
    7.1792   -0.1127   -0.7275 H   0  0  0  0  0  0  0  0  0  0  0  0
    5.0259   -0.0478   -0.4978 C   0  0  0  0  0  0  0  0  0  0  0  0
    4.8943   -1.1073   -0.7700 H   0  0  0  0  0  0  0  0  0  0  0  0
    6.4788    1.8615   -0.1308 C   0  0  0  0  0  0  0  0  0  0  0  0
    7.4863    2.3042   -0.1123 H   0  0  0  0  0  0  0  0  0  0  0  0
   -3.5782    3.8128    0.0570 C   0  0  0  0  0  0  0  0  0  0  0  0
   -3.6017    4.8847    0.3020 H   0  0  0  0  0  0  0  0  0  0  0  0
   -4.6971    1.7783   -0.7029 C   0  0  0  0  0  0  0  0  0  0  0  0
   -5.6109    1.2777   -1.0570 H   0  0  0  0  0  0  0  0  0  0  0  0
    4.0673    2.0952    0.1643 C   0  0  0  0  0  0  0  0  0  0  0  0
    3.1841    2.6981    0.4059 H   0  0  0  0  0  0  0  0  0  0  0  0
    5.3552    2.6434    0.1858 C   0  0  0  0  0  0  0  0  0  0  0  0
    5.4839    3.7037    0.4529 H   0  0  0  0  0  0  0  0  0  0  0  0
   -4.7428    3.1427   -0.3534 C   0  0  0  0  0  0  0  0  0  0  0  0
   -5.6907    3.6964   -0.4209 H   0  0  0  0  0  0  0  0  0  0  0  0
  2  4  1  0  0  0  0
  3  5  1  0  0  0  0
  5  4  1  6  0  0  0
  5  1  1  0  0  0  0
  6  9  1  0  0  0  0
  6  2  1  0  0  0  0
  7  6  1  0  0  0  0
  8  3  1  0  0  0  0
  8 10  1  0  0  0  0
  9 23  1  0  0  0  0
 10  1  1  0  0  0  0
 11  8  2  0  0  0  0
 12 11  1  0  0  0  0
 13 17  2  0  0  0  0
 14 13  1  0  0  0  0
 15 13  1  0  0  0  0
 15  9  2  0  0  0  0
 16 15  1  0  0  0  0
 17 18  1  0  0  0  0
 17 25  1  0  0  0  0
 19 10  2  0  0  0  0
 19 20  1  0  0  0  0
 21 11  1  0  0  0  0
 21 27  2  0  0  0  0
 22 21  1  0  0  0  0
 23 25  2  0  0  0  0
 23 24  1  0  0  0  0
 25 26  1  0  0  0  0
 27 19  1  0  0  0  0
 28 27  1  0  0  0  0
M  END
