1,3
q = -1.0

 23 24  0  0  0  0  0  0  0  0999 V2000
    1.1910    1.6896   -0.1622 N   0  0  0  0  0  2  0  0  0  0  0  0
    5.3407    0.4781    0.0694 N   0  0  0  0  0  0  0  0  0  0  0  0
    1.9635   -0.8274   -0.1850 N   0  0  0  0  0  2  0  0  0  0  0  0
    2.1071   -2.0638   -0.2049 O   0  0  0  0  0  1  0  0  0  0  0  0
    2.5456    1.4648   -0.1838 C   0  0  0  0  0  0  0  0  0  0  0  0
    3.4054    2.5871   -0.1592 C   0  0  0  0  0  0  0  0  0  0  0  0
    2.8733    3.8764   -0.1219 C   0  0  0  0  0  0  0  0  0  0  0  0
    1.4808    4.0600   -0.0963 C   0  0  0  0  0  0  0  0  0  0  0  0
    0.6685    2.9270   -0.1063 C   0  0  0  0  0  0  0  0  0  0  0  0
    2.9737    0.0697   -0.2424 C   0  0  0  0  0  0  0  0  0  0  0  0
    4.3851   -0.3808   -0.3544 C   0  0  0  0  0  0  0  0  0  0  0  0
    4.7294   -1.6512   -0.8851 C   0  0  0  0  0  0  0  0  0  0  0  0
    6.0782   -2.0161   -0.9488 C   0  0  0  0  0  0  0  0  0  0  0  0
    7.0571   -1.1284   -0.4817 C   0  0  0  0  0  0  0  0  0  0  0  0
    6.6259    0.1129    0.0096 C   0  0  0  0  0  0  0  0  0  0  0  0
    4.4833    2.3857   -0.1320 H   0  0  0  0  0  0  0  0  0  0  0  0
    3.5514    4.7428   -0.0999 H   0  0  0  0  0  0  0  0  0  0  0  0
    1.0216    5.0572   -0.0612 H   0  0  0  0  0  0  0  0  0  0  0  0
   -0.4379    2.9674   -0.0840 H   0  0  0  0  0  0  0  0  0  0  0  0
    3.9475   -2.3326   -1.2357 H   0  0  0  0  0  0  0  0  0  0  0  0
    6.3601   -2.9963   -1.3628 H   0  0  0  0  0  0  0  0  0  0  0  0
    8.1268   -1.3830   -0.5034 H   0  0  0  0  0  0  0  0  0  0  0  0
    7.3590    0.8544    0.3748 H   0  0  0  0  0  0  0  0  0  0  0  0
  1  9  1  0  0  0  0
  4  3  1  0  0  0  0
  5  1  1  0  0  0  0
  5  6  1  0  0  0  0
  6 16  1  0  0  0  0
  6  7  2  0  0  0  0
  7 17  1  0  0  0  0
  7  8  1  0  0  0  0
  8 18  1  0  0  0  0
  9  8  2  0  0  0  0
  9 19  1  0  0  0  0
 10  3  1  0  0  0  0
 10  5  2  0  0  0  0
 11 10  1  0  0  0  0
 11  2  2  0  0  0  0
 12 11  1  0  0  0  0
 13 12  2  0  0  0  0
 13 14  1  0  0  0  0
 14 15  2  0  0  0  0
 15  2  1  0  0  0  0
 15 23  1  0  0  0  0
 20 12  1  0  0  0  0
 21 13  1  0  0  0  0
 22 14  1  0  0  0  0
M  END
