3,8
q = 0.0, confidence = 0.994

 28 31  0  0  0  0  0  0  0  0999 V2000
   -5.4812   -0.7267   -1.4628 S   0  0  0  0  0  0  0  0  0  0  0  0
    1.7679    5.5264   -0.2472 S   0  0  0  0  0  0  0  0  0  0  0  0
    1.0581    1.0650   -0.2731 N   0  0  0  0  0  2  0  0  0  0  0  0
   -1.9900    2.1458    1.2722 O   0  0  0  0  0  0  0  0  0  0  0  0
    0.3675    3.3393    0.1785 C   0  0  0  0  0  0  0  0  0  0  0  0
   -4.3127    1.1075   -0.0089 C   0  0  0  0  0  0  0  0  0  0  0  0
   -4.1386    1.9747    0.6360 H   0  0  0  0  0  0  0  0  0  0  0  0
   -1.0420   -0.7391   -0.6237 N   0  0  0  0  0  2  0  0  0  0  0  0
    2.2474    1.5289   -0.7691 C   0  0  0  0  0  3  0  0  0  0  0  0
    2.9526    0.7582   -1.1109 H   0  0  0  0  0  0  0  0  0  0  0  0
   -0.4463    4.4415    0.6280 C   0  0  0  0  0  0  0  0  0  0  0  0
   -1.4365    4.3036    1.0738 H   0  0  0  0  0  0  0  0  0  0  0  0
    0.0972    1.9361    0.1541 C   0  0  0  0  0  0  0  0  0  0  0  0
   -3.2558    0.2199   -0.4257 C   0  0  0  0  0  0  0  0  0  0  0  0
   -1.5463   -1.7321   -1.4248 C   0  0  0  0  0  3  0  0  0  0  0  0
   -0.8042   -2.4638   -1.7712 H   0  0  0  0  0  0  0  0  0  0  0  0
   -1.8501    0.2684   -0.1713 C   0  0  0  0  0  0  0  0  0  0  0  0
    0.1758    5.6537    0.4573 C   0  0  0  0  0  0  0  0  0  0  0  0
   -0.2119    6.6462    0.7194 H   0  0  0  0  0  0  0  0  0  0  0  0
   -2.8878   -1.8206   -1.7565 C   0  0  0  0  0  0  0  0  0  0  0  0
   -3.2448   -2.6381   -2.3980 H   0  0  0  0  0  0  0  0  0  0  0  0
   -3.7563   -0.8432   -1.2331 C   0  0  0  0  0  0  0  0  0  0  0  0
   -1.2677    1.4457    0.5443 C   0  0  0  0  0  0  0  0  0  0  0  0
   -5.5400    0.7205   -0.4897 C   0  0  0  0  0  0  0  0  0  0  0  0
   -6.5081    1.2081   -0.3190 H   0  0  0  0  0  0  0  0  0  0  0  0
    2.5702    2.8758   -0.8202 C   0  0  0  0  0  0  0  0  0  0  0  0
    3.5404    3.1959   -1.2243 H   0  0  0  0  0  0  0  0  0  0  0  0
    1.6225    3.7908   -0.3266 C   0  0  0  0  0  0  0  0  0  0  0  0
  1 22  1  0  0  0  0
  1 24  1  0  0  0  0
  2 18  1  0  0  0  0
  3 13  1  0  0  0  0
  5 11  1  0  0  0  0
  6  7  1  0  0  0  0
  8 17  1  0  0  0  0
  9  3  1  0  0  0  0
 10  9  1  0  0  0  0
 11 12  1  0  0  0  0
 13  5  2  0  0  0  0
 13 23  1  0  0  0  0
 14 17  2  0  0  0  0
 14  6  1  0  0  0  0
 15  8  1  0  0  0  0
 16 15  1  0  0  0  0
 17 23  1  0  0  0  0
 18 11  2  0  0  0  0
 18 19  1  0  0  0  0
 20 15  1  0  0  0  0
 20 22  2  0  0  0  0
 21 20  1  0  0  0  0
 22 14  1  0  0  0  0
 23  4  2  0  0  0  0
 24 25  1  0  0  0  0
 24  6  2  0  0  0  0
 26  9  1  0  0  0  0
 26 28  2  0  0  0  0
 27 26  1  0  0  0  0
 28  2  1  0  0  0  0
 28  5  1  0  0  0  0
M  END
