1,3
q = -1.0, confidence = 0.0

 39 42  0  0  1  0  0  0  0  0999 V2000
    0.9727    1.3283   -0.9226 N   0  0  0  0  0  2  0  0  0  0  0  0
    2.3060    1.2164   -1.1341 N   0  0  0  0  0  0  0  0  0  0  0  0
    0.9723   -1.3286   -0.9225 N   0  0  0  0  0  2  0  0  0  0  0  0
    2.3058   -1.2171   -1.1339 N   0  0  0  0  0  0  0  0  0  0  0  0
    2.8391   -0.0000    1.1543 C   0  0  2  0  0  0  0  0  0  0  0  0
    1.7487   -0.0001    1.4035 H   0  0  0  0  0  0  0  0  0  0  0  0
    3.4245    1.3039    1.7332 C   0  0  0  0  0  0  0  0  0  0  0  0
    3.2902    1.3387    2.8378 H   0  0  0  0  0  0  0  0  0  0  0  0
    2.8252    2.1512    1.3293 H   0  0  0  0  0  0  0  0  0  0  0  0
    4.9073    1.5566    1.3981 C   0  0  0  0  0  0  0  0  0  0  0  0
    5.5444    0.9444    2.0659 H   0  0  0  0  0  0  0  0  0  0  0  0
    5.1632    2.6093    1.6462 H   0  0  0  0  0  0  0  0  0  0  0  0
    5.2842    1.2835   -0.0729 C   0  0  0  0  0  0  0  0  0  0  0  0
    4.9745    2.1624   -0.6755 H   0  0  0  0  0  0  0  0  0  0  0  0
    6.3937    1.2477   -0.1584 H   0  0  0  0  0  0  0  0  0  0  0  0
    4.6724   -0.0004   -0.6929 C   0  0  1  0  0  0  0  0  0  0  0  0
    4.9397   -0.0008   -1.7760 H   0  0  0  0  0  0  0  0  0  0  0  0
    5.2846   -1.2837   -0.0719 C   0  0  0  0  0  0  0  0  0  0  0  0
    6.3940   -1.2476   -0.1574 H   0  0  0  0  0  0  0  0  0  0  0  0
    4.9751   -2.1632   -0.6739 H   0  0  0  0  0  0  0  0  0  0  0  0
    4.9077   -1.5559    1.3992 C   0  0  0  0  0  0  0  0  0  0  0  0
    5.1640   -2.6083    1.6481 H   0  0  0  0  0  0  0  0  0  0  0  0
    5.5445   -0.9429    2.0666 H   0  0  0  0  0  0  0  0  0  0  0  0
    3.4248   -1.3035    1.7339 C   0  0  0  0  0  0  0  0  0  0  0  0
    2.8258   -2.1512    1.3304 H   0  0  0  0  0  0  0  0  0  0  0  0
    3.2903   -1.3378    2.8386 H   0  0  0  0  0  0  0  0  0  0  0  0
    0.5078    2.3700   -1.6466 C   0  0  0  0  0  3  0  0  0  0  0  0
   -0.5562    2.6291   -1.6197 H   0  0  0  0  0  0  0  0  0  0  0  0
    1.5748    2.9498   -2.3542 C   0  0  0  0  0  0  0  0  0  0  0  0
    1.5419    3.8114   -3.0278 H   0  0  0  0  0  0  0  0  0  0  0  0
    2.6920    2.1802   -2.0043 C   0  0  0  0  0  0  0  0  0  0  0  0
    3.7370    2.2589   -2.3182 H   0  0  0  0  0  0  0  0  0  0  0  0
    0.5072   -2.3704   -1.6463 C   0  0  0  0  0  3  0  0  0  0  0  0
   -0.5568   -2.6292   -1.6194 H   0  0  0  0  0  0  0  0  0  0  0  0
    1.5741   -2.9505   -2.3539 C   0  0  0  0  0  0  0  0  0  0  0  0
    1.5410   -3.8121   -3.0274 H   0  0  0  0  0  0  0  0  0  0  0  0
    2.6915   -2.1810   -2.0041 C   0  0  0  0  0  0  0  0  0  0  0  0
    3.7364   -2.2599   -2.3181 H   0  0  0  0  0  0  0  0  0  0  0  0
    3.0662   -0.0004   -0.4601 B   0  0  2  0  0  0  0  0  0  0  0  0
  2  1  1  0  0  0  0
  4  3  1  0  0  0  0
  4 39  1  0  0  0  0
  5  6  1  1  0  0  0
  5  7  1  0  0  0  0
  5 24  1  0  0  0  0
  7  8  1  0  0  0  0
  9  7  1  0  0  0  0
 10 12  1  0  0  0  0
 10  7  1  0  0  0  0
 10 11  1  0  0  0  0
 13 10  1  0  0  0  0
 14 13  1  0  0  0  0
 15 13  1  0  0  0  0
 16 17  1  6  0  0  0
 16 39  1  0  0  0  0
 16 13  1  0  0  0  0
 16 18  1  0  0  0  0
 18 21  1  0  0  0  0
 19 18  1  0  0  0  0
 20 18  1  0  0  0  0
 21 22  1  0  0  0  0
 21 24  1  0  0  0  0
 21 23  1  0  0  0  0
 24 26  1  0  0  0  0
 25 24  1  0  0  0  0
 27 28  1  0  0  0  0
 27  1  1  0  0  0  0
 29 31  2  0  0  0  0
 29 27  1  0  0  0  0
 30 29  1  0  0  0  0
 31  2  1  0  0  0  0
 32 31  1  0  0  0  0
 33 34  1  0  0  0  0
 33  3  1  0  0  0  0
 35 37  2  0  0  0  0
 35 33  1  0  0  0  0
 36 35  1  0  0  0  0
 37  4  1  0  0  0  0
 38 37  1  0  0  0  0
 39  2  1  6  0  0  0
 39  5  1  0  0  0  0
M  END
