1,25
q = 0.0, confidence = 1.0

 34 36  0  0  0  0  0  0  0  0999 V2000
    0.5861    0.1381   -1.2071 N   0  0  0  0  0  2  0  0  0  0  0  0
    1.8248   -0.5370   -1.0680 C   0  0  0  0  0  0  0  0  0  0  0  0
    3.0329    0.1703   -1.2409 C   0  0  0  0  0  0  0  0  0  0  0  0
    4.2490   -0.4775   -1.0160 C   0  0  0  0  0  0  0  0  0  0  0  0
    4.3078   -1.8305   -0.6031 C   0  0  0  0  0  0  0  0  0  0  0  0
    5.6067   -2.4864   -0.3158 C   0  0  0  0  0  0  0  0  0  0  0  0
    5.8181   -3.8526   -0.6113 C   0  0  0  0  0  0  0  0  0  0  0  0
    7.0458   -4.4679   -0.3327 C   0  0  0  0  0  0  0  0  0  0  0  0
    8.0903   -3.7316    0.2490 C   0  0  0  0  0  0  0  0  0  0  0  0
    7.8956   -2.3739    0.5490 C   0  0  0  0  0  0  0  0  0  0  0  0
    6.6682   -1.7584    0.2695 C   0  0  0  0  0  0  0  0  0  0  0  0
    6.5162   -0.7005    0.5323 H   0  0  0  0  0  0  0  0  0  0  0  0
    8.7054   -1.7897    1.0119 H   0  0  0  0  0  0  0  0  0  0  0  0
    9.0547   -4.2148    0.4668 H   0  0  0  0  0  0  0  0  0  0  0  0
    7.1919   -5.5301   -0.5815 H   0  0  0  0  0  0  0  0  0  0  0  0
    5.0164   -4.4322   -1.0935 H   0  0  0  0  0  0  0  0  0  0  0  0
    3.0886   -2.5299   -0.4660 C   0  0  0  0  0  0  0  0  0  0  0  0
    1.8625   -1.8966   -0.6997 C   0  0  0  0  0  0  0  0  0  0  0  0
    0.9182   -2.4437   -0.5644 H   0  0  0  0  0  0  0  0  0  0  0  0
    3.0975   -3.5786   -0.1335 H   0  0  0  0  0  0  0  0  0  0  0  0
    5.1828    0.0784   -1.1857 H   0  0  0  0  0  0  0  0  0  0  0  0
    3.0134    1.2159   -1.5817 H   0  0  0  0  0  0  0  0  0  0  0  0
   -0.3041   -0.2616   -2.0859 C   0  0  0  0  0  0  0  0  0  0  0  0
   -1.5394    0.4782   -2.0996 C   0  0  0  0  0  0  0  0  0  0  0  0
   -1.5777    1.4701   -1.1484 N   0  0  0  0  0  2  0  0  0  0  0  0
   -2.6521    2.2843   -1.1111 C   0  0  0  0  0  0  0  0  0  0  0  0
   -3.7428    2.1186   -1.9736 C   0  0  0  0  0  0  0  0  0  0  0  0
   -3.7333    1.0772   -2.9176 C   0  0  0  0  0  0  0  0  0  0  0  0
   -2.6090    0.2502   -2.9855 C   0  0  0  0  0  0  0  0  0  0  0  0
   -2.5372   -0.5667   -3.7178 H   0  0  0  0  0  0  0  0  0  0  0  0
   -4.5844    0.9228   -3.5968 H   0  0  0  0  0  0  0  0  0  0  0  0
   -4.5926    2.8109   -1.8939 H   0  0  0  0  0  0  0  0  0  0  0  0
   -2.6348    3.0791   -0.3532 H   0  0  0  0  0  0  0  0  0  0  0  0
   -0.1012   -1.0894   -2.7863 H   0  0  0  0  0  0  0  0  0  0  0  0
  1  2  1  0  0  0  0
  2 18  1  0  0  0  0
  3  2  2  0  0  0  0
  3  4  1  0  0  0  0
  4  5  2  0  0  0  0
  5 17  1  0  0  0  0
  5  6  1  0  0  0  0
  6 11  1  0  0  0  0
  7  8  1  0  0  0  0
  7  6  2  0  0  0  0
  8  9  2  0  0  0  0
  9 14  1  0  0  0  0
  9 10  1  0  0  0  0
 10 13  1  0  0  0  0
 11 12  1  0  0  0  0
 11 10  2  0  0  0  0
 15  8  1  0  0  0  0
 16  7  1  0  0  0  0
 17 20  1  0  0  0  0
 18 19  1  0  0  0  0
 18 17  2  0  0  0  0
 21  4  1  0  0  0  0
 22  3  1  0  0  0  0
 23  1  1  0  0  0  0
 24 23  2  0  0  0  0
 24 25  1  0  0  0  0
 25 26  1  0  0  0  0
 26 33  1  0  0  0  0
 27 32  1  0  0  0  0
 27 26  2  0  0  0  0
 28 27  1  0  0  0  0
 29 28  2  0  0  0  0
 29 24  1  0  0  0  0
 30 29  1  0  0  0  0
 31 28  1  0  0  0  0
 34 23  1  0  0  0  0
M  END
