1,14
q = -1.0

 36 38  0  0  0  0  0  0  0  0999 V2000
   -1.3985    0.2178    1.3546 N   0  0  0  0  0  2  0  0  0  0  0  0
   -2.4107   -0.6244    1.5217 C   0  0  0  0  0  3  0  0  0  0  0  0
   -3.2524   -0.2539    2.1424 H   0  0  0  0  0  0  0  0  0  0  0  0
   -2.6067   -1.9340    1.0255 C   0  0  0  0  0  0  0  0  0  0  0  0
   -3.8509   -2.5850    1.2971 C   0  0  0  0  0  3  0  0  0  0  0  0
   -4.6871   -2.1070    1.8265 H   0  0  0  0  0  0  0  0  0  0  0  0
   -3.8214   -3.9035    0.8072 C   0  0  0  0  0  0  0  0  0  0  0  0
   -4.6345   -4.6375    0.8712 H   0  0  0  0  0  0  0  0  0  0  0  0
   -2.5505   -4.1175    0.2410 C   0  0  0  0  0  0  0  0  0  0  0  0
   -2.1920   -5.0499   -0.2180 H   0  0  0  0  0  0  0  0  0  0  0  0
   -1.7690   -2.9237    0.3326 C   0  0  0  0  0  0  0  0  0  0  0  0
   -0.4723   -2.9197   -0.2319 C   0  0  0  0  0  3  0  0  0  0  0  0
   -0.1217   -3.9177   -0.5681 H   0  0  0  0  0  0  0  0  0  0  0  0
    0.3427   -1.9057   -0.4798 N   0  0  0  0  0  2  0  0  0  0  0  0
   -1.3642    1.4009    2.1292 C   0  0  0  0  0  0  0  0  0  0  0  0
   -0.8558    2.5932    1.5646 C   0  0  0  0  0  0  0  0  0  0  0  0
   -0.5147    2.6047    0.5205 H   0  0  0  0  0  0  0  0  0  0  0  0
   -0.7988    3.7705    2.3192 C   0  0  0  0  0  0  0  0  0  0  0  0
   -0.4028    4.6854    1.8530 H   0  0  0  0  0  0  0  0  0  0  0  0
   -1.2404    3.7858    3.6526 C   0  0  0  0  0  0  0  0  0  0  0  0
   -1.1885    4.7111    4.2454 H   0  0  0  0  0  0  0  0  0  0  0  0
   -1.7328    2.6030    4.2264 C   0  0  0  0  0  0  0  0  0  0  0  0
   -2.0604    2.5943    5.2774 H   0  0  0  0  0  0  0  0  0  0  0  0
   -1.7897    1.4189    3.4788 C   0  0  0  0  0  0  0  0  0  0  0  0
   -2.1322    0.4866    3.9519 H   0  0  0  0  0  0  0  0  0  0  0  0
    1.6323   -2.1721   -0.9991 C   0  0  0  0  0  0  0  0  0  0  0  0
    2.4421   -3.2080   -0.4849 C   0  0  0  0  0  0  0  0  0  0  0  0
    2.0733   -3.8137    0.3558 H   0  0  0  0  0  0  0  0  0  0  0  0
    3.7302   -3.4158   -0.9960 C   0  0  0  0  0  0  0  0  0  0  0  0
    4.3571   -4.2154   -0.5730 H   0  0  0  0  0  0  0  0  0  0  0  0
    4.2316   -2.5937   -2.0174 C   0  0  0  0  0  0  0  0  0  0  0  0
    5.2471   -2.7537   -2.4095 H   0  0  0  0  0  0  0  0  0  0  0  0
    3.4314   -1.5569   -2.5271 C   0  0  0  0  0  0  0  0  0  0  0  0
    3.8131   -0.9058   -3.3282 H   0  0  0  0  0  0  0  0  0  0  0  0
    2.1429   -1.3430   -2.0230 C   0  0  0  0  0  0  0  0  0  0  0  0
    1.5140   -0.5334   -2.4242 H   0  0  0  0  0  0  0  0  0  0  0  0
  1  2  1  0  0  0  0
  1 15  1  0  0  0  0
  2  3  1  0  0  0  0
  4  5  1  0  0  0  0
  4  2  1  0  0  0  0
  5  6  1  0  0  0  0
  7  8  1  0  0  0  0
  7  5  1  0  0  0  0
  9 11  1  0  0  0  0
  9  7  2  0  0  0  0
 10  9  1  0  0  0  0
 11  4  2  0  0  0  0
 12 11  1  0  0  0  0
 13 12  1  0  0  0  0
 14 12  1  0  0  0  0
 15 24  1  0  0  0  0
 16 15  2  0  0  0  0
 16 18  1  0  0  0  0
 17 16  1  0  0  0  0
 18 20  2  0  0  0  0
 19 18  1  0  0  0  0
 20 22  1  0  0  0  0
 20 21  1  0  0  0  0
 22 23  1  0  0  0  0
 24 25  1  0  0  0  0
 24 22  2  0  0  0  0
 26 27  1  0  0  0  0
 26 14  1  0  0  0  0
 27 28  1  0  0  0  0
 29 30  1  0  0  0  0
 29 27  2  0  0  0  0
 31 29  1  0  0  0  0
 32 31  1  0  0  0  0
 33 35  1  0  0  0  0
 33 31  2  0  0  0  0
 34 33  1  0  0  0  0
 35 26  2  0  0  0  0
 36 35  1  0  0  0  0
M  END
