5,6
q = 0.0, confidence = 0.948

 30 32  0  0  0  0  0  0  0  0999 V2000
    2.5454    1.3916    0.1196 N   0  0  0  0  0  0  0  0  0  0  0  0
    2.5460   -1.3912    0.1203 N   0  0  0  0  0  0  0  0  0  0  0  0
    5.6389   -2.0657   -1.2660 N   0  0  0  0  0  0  0  0  0  0  0  0
    5.6378    2.0666   -1.2678 N   0  0  0  0  0  0  0  0  0  0  0  0
   -0.8713    1.4521    0.7526 N   0  0  0  0  0  2  0  0  0  0  0  0
   -0.8709   -1.4528    0.7517 N   0  0  0  0  0  2  0  0  0  0  0  0
    1.4753    0.7170    0.5611 C   0  0  0  0  0  0  0  0  0  0  0  0
    1.4755   -0.7168    0.5613 C   0  0  0  0  0  0  0  0  0  0  0  0
    3.5901   -0.7107   -0.3799 C   0  0  0  0  0  0  0  0  0  0  0  0
    3.5897    0.7113   -0.3804 C   0  0  0  0  0  0  0  0  0  0  0  0
    4.7134   -1.4637   -0.8702 C   0  0  0  0  0  0  0  0  0  0  0  0
    4.7126    1.4645   -0.8714 C   0  0  0  0  0  0  0  0  0  0  0  0
    0.4217    1.5998    1.1428 C   0  0  0  0  0  0  0  0  0  0  0  0
    0.8080    2.6385    2.0076 C   0  0  0  0  0  0  0  0  0  0  0  0
    1.8702    2.7416    2.2657 H   0  0  0  0  0  0  0  0  0  0  0  0
   -0.1573    3.5261    2.4946 C   0  0  0  0  0  0  0  0  0  0  0  0
    0.1266    4.3376    3.1804 H   0  0  0  0  0  0  0  0  0  0  0  0
   -1.4846    3.3733    2.0689 C   0  0  0  0  0  0  0  0  0  0  0  0
   -2.2773    4.0588    2.4000 H   0  0  0  0  0  0  0  0  0  0  0  0
   -1.8035    2.3377    1.1881 C   0  0  0  0  0  0  0  0  0  0  0  0
   -2.8120    2.1997    0.7754 H   0  0  0  0  0  0  0  0  0  0  0  0
    0.4220   -1.5999    1.1427 C   0  0  0  0  0  0  0  0  0  0  0  0
    0.8083   -2.6384    2.0078 C   0  0  0  0  0  0  0  0  0  0  0  0
    1.8704   -2.7408    2.2667 H   0  0  0  0  0  0  0  0  0  0  0  0
   -0.1569   -3.5265    2.4942 C   0  0  0  0  0  0  0  0  0  0  0  0
    0.1270   -4.3378    3.1802 H   0  0  0  0  0  0  0  0  0  0  0  0
   -1.4839   -3.3746    2.0674 C   0  0  0  0  0  0  0  0  0  0  0  0
   -2.2764   -4.0606    2.3978 H   0  0  0  0  0  0  0  0  0  0  0  0
   -1.8028   -2.3392    1.1864 C   0  0  0  0  0  0  0  0  0  0  0  0
   -2.8111   -2.2017    0.7730 H   0  0  0  0  0  0  0  0  0  0  0  0
  1  7  1  0  0  0  0
  2  8  1  0  0  0  0
  3 11  3  0  0  0  0
  4 12  3  0  0  0  0
  5 13  1  0  0  0  0
  5 20  1  0  0  0  0
  6 22  1  0  0  0  0
  6 29  1  0  0  0  0
  7  8  1  0  0  0  0
  7 13  2  0  0  0  0
  8 22  2  0  0  0  0
  9  2  2  0  0  0  0
 10  9  1  0  0  0  0
 10  1  2  0  0  0  0
 11  9  1  0  0  0  0
 12 10  1  0  0  0  0
 13 14  1  0  0  0  0
 14 15  1  0  0  0  0
 14 16  2  0  0  0  0
 16 17  1  0  0  0  0
 18 19  1  0  0  0  0
 18 16  1  0  0  0  0
 20 18  2  0  0  0  0
 21 20  1  0  0  0  0
 22 23  1  0  0  0  0
 23 24  1  0  0  0  0
 23 25  2  0  0  0  0
 25 26  1  0  0  0  0
 27 28  1  0  0  0  0
 27 25  1  0  0  0  0
 29 27  2  0  0  0  0
 30 29  1  0  0  0  0
M  END
