1,5
q = 0.0, confidence = 0.998

 31 33  0  0  1  0  0  0  0  0999 V2000
    0.2590   -1.9520    0.6374 N   0  0  0  0  0  2  0  0  0  0  0  0
    1.0588   -4.6125    1.0727 N   0  0  0  0  0  0  0  0  0  0  0  0
    2.5503   -1.3350    0.2782 N   0  0  1  0  0  0  0  0  0  0  0  0
    3.6881    0.0126   -1.2892 N   0  0  2  0  0  0  0  0  0  0  0  0
    1.3222   -0.0877   -1.2999 N   0  0  0  0  0  2  0  0  0  0  0  0
    1.5651   -2.3106    0.5321 C   0  0  1  0  0  3  0  0  0  0  0  0
    1.9326   -3.6641    0.7354 C   0  0  0  0  0  0  0  0  0  0  0  0
    2.9817   -3.9772    0.5997 H   0  0  0  0  0  0  0  0  0  0  0  0
   -0.2235   -4.2345    1.2058 C   0  0  0  0  0  0  0  0  0  0  0  0
   -0.9583   -5.0036    1.4954 H   0  0  0  0  0  0  0  0  0  0  0  0
   -0.6311   -2.9190    0.9713 C   0  0  0  0  0  0  0  0  0  0  0  0
   -1.6814   -2.6042    1.0652 H   0  0  0  0  0  0  0  0  0  0  0  0
    3.8406   -1.4473    0.9760 C   0  0  0  0  0  0  0  0  0  0  0  0
    3.7526   -2.2277    1.7517 H   0  0  0  0  0  0  0  0  0  0  0  0
    4.0367   -0.4874    1.5047 H   0  0  0  0  0  0  0  0  0  0  0  0
    4.9383   -1.7400   -0.0367 C   0  0  0  0  0  0  0  0  0  0  0  0
    5.9203   -1.8826    0.4549 H   0  0  0  0  0  0  0  0  0  0  0  0
    4.6997   -2.6782   -0.5790 H   0  0  0  0  0  0  0  0  0  0  0  0
    5.0073   -0.5537   -0.9883 C   0  0  0  0  0  0  0  0  0  0  0  0
    5.6230    0.2562   -0.5358 H   0  0  0  0  0  0  0  0  0  0  0  0
    5.5046   -0.8281   -1.9448 H   0  0  0  0  0  0  0  0  0  0  0  0
    3.7506    1.1748   -2.1905 C   0  0  0  0  0  0  0  0  0  0  0  0
    4.1799    0.8325   -3.1587 H   0  0  0  0  0  0  0  0  0  0  0  0
    4.4754    1.9012   -1.7613 H   0  0  0  0  0  0  0  0  0  0  0  0
    2.3871    1.8134   -2.4070 C   0  0  0  0  0  0  0  0  0  0  0  0
    2.4152    2.4548   -3.3094 H   0  0  0  0  0  0  0  0  0  0  0  0
    2.1016    2.4579   -1.5510 H   0  0  0  0  0  0  0  0  0  0  0  0
    1.3570    0.6957   -2.5371 C   0  0  0  0  0  0  0  0  0  0  0  0
    0.3467    1.1018   -2.7226 H   0  0  0  0  0  0  0  0  0  0  0  0
    1.6205    0.0384   -3.3990 H   0  0  0  0  0  0  0  0  0  0  0  0
    2.4902   -0.4455   -0.8077 C   0  0  2  0  0  3  0  0  0  0  0  0
  1 11  1  0  0  0  0
  2  9  1  0  0  0  0
  3  6  1  0  0  0  0
  3 13  1  6  0  0  0
  4 22  1  1  0  0  0
  4 19  1  0  0  0  0
  4 31  1  0  0  0  0
  6  1  1  1  0  0  0
  6  7  1  0  0  0  0
  7  2  2  0  0  0  0
  8  7  1  0  0  0  0
  9 10  1  0  0  0  0
 11 12  1  0  0  0  0
 11  9  2  0  0  0  0
 13 15  1  0  0  0  0
 13 14  1  0  0  0  0
 16 17  1  0  0  0  0
 16 13  1  0  0  0  0
 18 16  1  0  0  0  0
 19 20  1  0  0  0  0
 19 16  1  0  0  0  0
 21 19  1  0  0  0  0
 22 24  1  0  0  0  0
 23 22  1  0  0  0  0
 25 22  1  0  0  0  0
 25 27  1  0  0  0  0
 26 25  1  0  0  0  0
 28 25  1  0  0  0  0
 28  5  1  0  0  0  0
 29 28  1  0  0  0  0
 30 28  1  0  0  0  0
 31  5  1  1  0  0  0
 31  3  1  0  0  0  0
M  END
