1,2
q = 0.0, confidence = 0.998

 37 38  0  0  1  0  0  0  0  0999 V2000
    0.6632    2.0154    0.0249 N   0  0  0  0  0  2  0  0  0  0  0  0
    0.6510   -2.0198    0.0251 N   0  0  0  0  0  2  0  0  0  0  0  0
   -1.0626    0.0029   -0.7869 N   0  0  0  0  0  0  0  0  0  0  0  0
   -3.8751    0.0107   -1.3573 O   0  0  0  0  0  0  0  0  0  0  0  0
   -4.3432    0.0129    0.8612 O   0  0  0  0  0  0  0  0  0  0  0  0
    1.3366    2.9468    0.7233 C   0  0  0  0  0  3  0  0  0  0  0  0
    2.1555    2.5684    1.3574 H   0  0  0  0  0  0  0  0  0  0  0  0
    1.0071    4.3048    0.6489 C   0  0  0  0  0  0  0  0  0  0  0  0
    1.5757    5.0430    1.2317 H   0  0  0  0  0  0  0  0  0  0  0  0
   -0.0626    4.6868   -0.1745 C   0  0  0  0  0  0  0  0  0  0  0  0
   -0.3566    5.7444   -0.2528 H   0  0  0  0  0  0  0  0  0  0  0  0
   -0.7622    3.7049   -0.8895 C   0  0  0  0  0  0  0  0  0  0  0  0
   -1.6125    3.9678   -1.5361 H   0  0  0  0  0  0  0  0  0  0  0  0
   -0.3670    2.3628   -0.7739 C   0  0  0  0  0  0  0  0  0  0  0  0
   -1.0281    1.2465   -1.5598 C   0  0  0  0  0  0  0  0  0  0  0  0
   -2.0339    1.5643   -1.9105 H   0  0  0  0  0  0  0  0  0  0  0  0
   -0.3941    1.0659   -2.4526 H   0  0  0  0  0  0  0  0  0  0  0  0
   -1.0353   -1.2407   -1.5600 C   0  0  0  0  0  0  0  0  0  0  0  0
   -0.4000   -1.0637   -2.4526 H   0  0  0  0  0  0  0  0  0  0  0  0
   -2.0429   -1.5525   -1.9110 H   0  0  0  0  0  0  0  0  0  0  0  0
   -0.3811   -2.3610   -0.7740 C   0  0  1  0  0  3  0  0  0  0  0  0
   -0.7843   -3.7007   -0.8897 C   0  0  0  0  0  0  0  0  0  0  0  0
   -1.6360   -3.9584   -1.5365 H   0  0  0  0  0  0  0  0  0  0  0  0
   -0.0909   -4.6867   -0.1743 C   0  0  0  0  0  0  0  0  0  0  0  0
   -0.3914   -5.7425   -0.2526 H   0  0  0  0  0  0  0  0  0  0  0  0
    0.9807   -4.3111    0.6495 C   0  0  0  0  0  0  0  0  0  0  0  0
    1.5446   -5.0527    1.2326 H   0  0  0  0  0  0  0  0  0  0  0  0
    1.3184   -2.9552    0.7239 C   0  0  0  0  0  0  0  0  0  0  0  0
    2.1394   -2.5817    1.3583 H   0  0  0  0  0  0  0  0  0  0  0  0
   -2.0550    0.0058    0.2807 C   0  0  0  0  0  0  0  0  0  0  0  0
   -1.8876    0.8736    0.9504 H   0  0  0  0  0  0  0  0  0  0  0  0
   -1.8927   -0.8632    0.9502 H   0  0  0  0  0  0  0  0  0  0  0  0
   -3.5034    0.0101   -0.1956 C   0  0  0  0  0  0  0  0  0  0  0  0
   -5.7425    0.0169    0.5445 C   0  0  0  0  0  0  0  0  0  0  0  0
   -6.0094    0.9153   -0.0475 H   0  0  0  0  0  0  0  0  0  0  0  0
   -6.2750    0.0191    1.5116 H   0  0  0  0  0  0  0  0  0  0  0  0
   -6.0147   -0.8808   -0.0463 H   0  0  0  0  0  0  0  0  0  0  0  0
  1  6  1  0  0  0  0
  2 28  1  0  0  0  0
  3 30  1  0  0  0  0
  4 33  2  0  0  0  0
  6  7  1  0  0  0  0
  8  6  1  0  0  0  0
  8  9  1  0  0  0  0
 10  8  2  0  0  0  0
 11 10  1  0  0  0  0
 12 14  2  0  0  0  0
 12 10  1  0  0  0  0
 13 12  1  0  0  0  0
 14  1  1  0  0  0  0
 15  3  1  0  0  0  0
 15 14  1  0  0  0  0
 16 15  1  0  0  0  0
 17 15  1  0  0  0  0
 18  3  1  0  0  0  0
 19 18  1  0  0  0  0
 20 18  1  0  0  0  0
 21 18  1  6  0  0  0
 21  2  1  0  0  0  0
 22 21  1  0  0  0  0
 22 24  2  0  0  0  0
 23 22  1  0  0  0  0
 24 26  1  0  0  0  0
 25 24  1  0  0  0  0
 26 28  2  0  0  0  0
 26 27  1  0  0  0  0
 28 29  1  0  0  0  0
 30 32  1  0  0  0  0
 30 31  1  0  0  0  0
 33 30  1  0  0  0  0
 33  5  1  0  0  0  0
 34  5  1  0  0  0  0
 34 36  1  0  0  0  0
 35 34  1  0  0  0  0
 37 34  1  0  0  0  0
M  END
