4,6
q = -1.0

 41 43  0  0  0  0  0  0  0  0999 V2000
    2.2520    1.0505   -0.8949 S   0  0  0  0  0  0  0  0  0  0  0  0
    1.7985    0.9079   -2.2948 O   0  0  0  0  0  0  0  0  0  0  0  0
    2.7486    2.3757   -0.4326 O   0  0  0  0  0  0  0  0  0  0  0  0
   -1.1116   -0.4278    1.3789 N   0  0  0  0  0  2  0  0  0  0  0  0
   -2.1122   -0.9022    2.0179 N   0  0  0  0  0  2  0  0  0  0  0  0
    0.9572    0.5551    0.1000 N   0  0  0  0  0  2  0  0  0  0  0  0
    0.0311   -0.1588    2.1565 C   0  0  0  0  0  0  0  0  0  0  0  0
    0.0894   -0.4014    3.5482 C   0  0  0  0  0  0  0  0  0  0  0  0
   -0.7965   -0.8321    4.0326 H   0  0  0  0  0  0  0  0  0  0  0  0
    1.2436   -0.0859    4.2545 C   0  0  0  0  0  0  0  0  0  0  0  0
    1.2987   -0.2699    5.3372 H   0  0  0  0  0  0  0  0  0  0  0  0
    2.3442    0.4880    3.5709 C   0  0  0  0  0  0  0  0  0  0  0  0
    3.2500    0.7636    4.1325 H   0  0  0  0  0  0  0  0  0  0  0  0
    2.3071    0.7282    2.2011 C   0  0  0  0  0  0  0  0  0  0  0  0
    3.1531    1.2134    1.7028 H   0  0  0  0  0  0  0  0  0  0  0  0
    1.1445    0.3885    1.4468 C   0  0  0  0  0  0  0  0  0  0  0  0
    3.5646   -0.1439   -0.6007 C   0  0  0  0  0  0  0  0  0  0  0  0
    4.8615    0.3398   -0.3814 C   0  0  0  0  0  0  0  0  0  0  0  0
    5.0361    1.4247   -0.3393 H   0  0  0  0  0  0  0  0  0  0  0  0
    5.9069   -0.5791   -0.2147 C   0  0  0  0  0  0  0  0  0  0  0  0
    6.9297   -0.2086   -0.0426 H   0  0  0  0  0  0  0  0  0  0  0  0
    5.6716   -1.9680   -0.2594 C   0  0  0  0  0  0  0  0  0  0  0  0
    4.3510   -2.4166   -0.4848 C   0  0  0  0  0  0  0  0  0  0  0  0
    4.1460   -3.4984   -0.5218 H   0  0  0  0  0  0  0  0  0  0  0  0
    3.2928   -1.5191   -0.6619 C   0  0  0  0  0  0  0  0  0  0  0  0
    2.2618   -1.8716   -0.8333 H   0  0  0  0  0  0  0  0  0  0  0  0
    6.7912   -2.9578   -0.0646 C   0  0  0  0  0  0  0  0  0  0  0  0
    7.7711   -2.4543    0.0424 H   0  0  0  0  0  0  0  0  0  0  0  0
    6.8583   -3.6612   -0.9202 H   0  0  0  0  0  0  0  0  0  0  0  0
    6.6247   -3.5748    0.8433 H   0  0  0  0  0  0  0  0  0  0  0  0
   -3.2408   -1.3940    1.3643 C   0  0  0  0  0  0  0  0  0  0  0  0
   -4.5062   -0.9706    1.8369 C   0  0  0  0  0  0  0  0  0  0  0  0
   -4.5443   -0.2373    2.6561 H   0  0  0  0  0  0  0  0  0  0  0  0
   -5.6771   -1.4605    1.2464 C   0  0  0  0  0  0  0  0  0  0  0  0
   -6.6558   -1.1010    1.5989 H   0  0  0  0  0  0  0  0  0  0  0  0
   -5.6059   -2.4203    0.2204 C   0  0  0  0  0  0  0  0  0  0  0  0
   -6.5282   -2.8174   -0.2296 H   0  0  0  0  0  0  0  0  0  0  0  0
   -4.3501   -2.8870   -0.2061 C   0  0  0  0  0  0  0  0  0  0  0  0
   -4.2856   -3.6574   -0.9901 H   0  0  0  0  0  0  0  0  0  0  0  0
   -3.1688   -2.3785    0.3480 C   0  0  0  0  0  0  0  0  0  0  0  0
   -2.1829   -2.7182   -0.0027 H   0  0  0  0  0  0  0  0  0  0  0  0
  1 17  1  0  0  0  0
  1  3  2  0  0  0  0
  1  6  1  0  0  0  0
  2  1  2  0  0  0  0
  4  5  1  0  0  0  0
  4  7  1  0  0  0  0
  6 16  1  0  0  0  0
  7  8  1  0  0  0  0
  8  9  1  0  0  0  0
  8 10  2  0  0  0  0
 10 11  1  0  0  0  0
 12 13  1  0  0  0  0
 12 10  1  0  0  0  0
 14 12  2  0  0  0  0
 15 14  1  0  0  0  0
 16  7  2  0  0  0  0
 16 14  1  0  0  0  0
 17 18  1  0  0  0  0
 18 19  1  0  0  0  0
 18 20  2  0  0  0  0
 20 21  1  0  0  0  0
 22 20  1  0  0  0  0
 22 27  1  0  0  0  0
 23 22  2  0  0  0  0
 24 23  1  0  0  0  0
 25 17  2  0  0  0  0
 25 23  1  0  0  0  0
 26 25  1  0  0  0  0
 27 28  1  0  0  0  0
 27 30  1  0  0  0  0
 29 27  1  0  0  0  0
 31 32  1  0  0  0  0
 31  5  1  0  0  0  0
 32 33  1  0  0  0  0
 34 35  1  0  0  0  0
 34 32  2  0  0  0  0
 36 34  1  0  0  0  0
 37 36  1  0  0  0  0
 38 36  2  0  0  0  0
 38 40  1  0  0  0  0
 39 38  1  0  0  0  0
 40 31  2  0  0  0  0
 41 40  1  0  0  0  0
M  END
