1,11
q = -1.0

 31 32  0  0  0  0  0  0  0  0999 V2000
   -0.4909    1.4190   -0.2131 N   0  0  0  0  0  2  0  0  0  0  0  0
    2.9770   -1.0479   -0.7911 S   0  0  0  0  0  0  0  0  0  0  0  0
    2.4810   -2.4339   -0.6608 O   0  0  0  0  0  0  0  0  0  0  0  0
    1.9033    1.3682   -0.3904 C   0  0  0  0  0  0  0  0  0  0  0  0
    4.2283   -0.6713   -0.0859 O   0  0  0  0  0  0  0  0  0  0  0  0
   -1.5575    2.1213   -0.1609 N   0  0  0  0  0  2  0  0  0  0  0  0
    3.1431    2.0671   -0.5117 C   0  0  0  0  0  0  0  0  0  0  0  0
    4.0787    1.4949   -0.5179 H   0  0  0  0  0  0  0  0  0  0  0  0
    3.1576    3.4579   -0.5641 C   0  0  0  0  0  0  0  0  0  0  0  0
    4.1267    3.9739   -0.6475 H   0  0  0  0  0  0  0  0  0  0  0  0
    1.7217    0.0092   -0.3047 N   0  0  0  0  0  2  0  0  0  0  0  0
    1.9642    4.2177   -0.4944 C   0  0  0  0  0  0  0  0  0  0  0  0
    2.0022    5.3158   -0.5359 H   0  0  0  0  0  0  0  0  0  0  0  0
    0.7450    3.5630   -0.3689 C   0  0  0  0  0  0  0  0  0  0  0  0
   -0.2086    4.1034   -0.3100 H   0  0  0  0  0  0  0  0  0  0  0  0
    0.7095    2.1506   -0.3171 C   0  0  0  0  0  0  0  0  0  0  0  0
   -2.8230    1.5459   -0.2582 C   0  0  0  0  0  0  0  0  0  0  0  0
   -3.8002    1.9523    0.6817 C   0  0  0  0  0  0  0  0  0  0  0  0
   -3.5082    2.6573    1.4741 H   0  0  0  0  0  0  0  0  0  0  0  0
   -5.0999    1.4371    0.6105 C   0  0  0  0  0  0  0  0  0  0  0  0
   -5.8448    1.7333    1.3646 H   0  0  0  0  0  0  0  0  0  0  0  0
   -5.4590    0.5602   -0.4292 C   0  0  0  0  0  0  0  0  0  0  0  0
   -6.4863    0.1716   -0.4939 H   0  0  0  0  0  0  0  0  0  0  0  0
   -4.5043    0.2065   -1.3991 C   0  0  0  0  0  0  0  0  0  0  0  0
   -4.7848   -0.4570   -2.2318 H   0  0  0  0  0  0  0  0  0  0  0  0
   -3.1897    0.6819   -1.3196 C   0  0  0  0  0  0  0  0  0  0  0  0
   -2.4308    0.3861   -2.0595 H   0  0  0  0  0  0  0  0  0  0  0  0
    3.1795   -0.7102   -2.5484 C   0  0  0  0  0  0  0  0  0  0  0  0
    3.4667    0.3484   -2.6836 H   0  0  0  0  0  0  0  0  0  0  0  0
    2.2051   -0.9284   -3.0253 H   0  0  0  0  0  0  0  0  0  0  0  0
    3.9826   -1.3869   -2.8944 H   0  0  0  0  0  0  0  0  0  0  0  0
  1  6  1  0  0  0  0
  2  3  2  0  0  0  0
  2 11  1  0  0  0  0
  2  5  2  0  0  0  0
  4 16  1  0  0  0  0
  4 11  1  0  0  0  0
  7  4  2  0  0  0  0
  8  7  1  0  0  0  0
  9  7  1  0  0  0  0
  9 12  2  0  0  0  0
 10  9  1  0  0  0  0
 12 14  1  0  0  0  0
 13 12  1  0  0  0  0
 14 16  2  0  0  0  0
 14 15  1  0  0  0  0
 16  1  1  0  0  0  0
 17  6  1  0  0  0  0
 17 18  1  0  0  0  0
 18 19  1  0  0  0  0
 20 18  2  0  0  0  0
 20 21  1  0  0  0  0
 22 20  1  0  0  0  0
 23 22  1  0  0  0  0
 24 26  1  0  0  0  0
 24 22  2  0  0  0  0
 25 24  1  0  0  0  0
 26 17  2  0  0  0  0
 27 26  1  0  0  0  0
 28  2  1  0  0  0  0
 29 28  1  0  0  0  0
 30 28  1  0  0  0  0
 31 28  1  0  0  0  0
M  END
