1,2
q = 0.0, confidence = 0.988

 74 78  0  0  1  0  0  0  0  0999 V2000
   -1.0912    0.2314    0.6502 N   0  0  0  0  0  2  0  0  0  0  0  0
    1.0913    0.2314   -0.6504 N   0  0  0  0  0  2  0  0  0  0  0  0
   -5.1772   -0.1716    0.6123 N   0  0  0  0  0  0  0  0  0  0  0  0
    5.1770   -0.1712   -0.6123 N   0  0  0  0  0  0  0  0  0  0  0  0
   -0.4063    1.5319    0.6547 C   0  0  1  0  0  0  0  0  0  0  0  0
    0.3257    1.4919    1.4948 H   0  0  0  0  0  0  0  0  0  0  0  0
    0.4065    1.5319   -0.6547 C   0  0  1  0  0  0  0  0  0  0  0  0
   -0.3255    1.4920   -1.4949 H   0  0  0  0  0  0  0  0  0  0  0  0
    1.2781    2.7793   -0.7811 C   0  0  0  0  0  0  0  0  0  0  0  0
    1.8072    2.7833   -1.7563 H   0  0  0  0  0  0  0  0  0  0  0  0
    2.0551    2.7709    0.0139 H   0  0  0  0  0  0  0  0  0  0  0  0
    0.4027    4.0352   -0.6527 C   0  0  0  0  0  0  0  0  0  0  0  0
    1.0387    4.9420   -0.7142 H   0  0  0  0  0  0  0  0  0  0  0  0
   -0.3005    4.0824   -1.5138 H   0  0  0  0  0  0  0  0  0  0  0  0
   -0.4022    4.0352    0.6530 C   0  0  0  0  0  0  0  0  0  0  0  0
   -1.0381    4.9420    0.7146 H   0  0  0  0  0  0  0  0  0  0  0  0
    0.3010    4.0821    1.5140 H   0  0  0  0  0  0  0  0  0  0  0  0
   -1.2778    2.7794    0.7812 C   0  0  0  0  0  0  0  0  0  0  0  0
   -2.0548    2.7712   -0.0139 H   0  0  0  0  0  0  0  0  0  0  0  0
   -1.8069    2.7833    1.7563 H   0  0  0  0  0  0  0  0  0  0  0  0
   -2.3335    0.0793    1.0318 C   0  0  0  0  0  3  0  0  0  0  0  0
   -2.9132    0.9560    1.3579 H   0  0  0  0  0  0  0  0  0  0  0  0
   -2.9767   -1.2196    0.9744 C   0  0  0  0  0  0  0  0  0  0  0  0
   -4.3891   -1.3318    0.7738 C   0  0  0  0  0  0  0  0  0  0  0  0
   -4.9629   -2.6213    0.7505 C   0  0  0  0  0  0  0  0  0  0  0  0
   -6.0443   -2.7318    0.5915 H   0  0  0  0  0  0  0  0  0  0  0  0
   -4.1682   -3.7706    0.8761 C   0  0  0  0  0  0  0  0  0  0  0  0
   -4.6458   -4.7616    0.8414 H   0  0  0  0  0  0  0  0  0  0  0  0
   -2.7763   -3.6636    1.0256 C   0  0  0  0  0  0  0  0  0  0  0  0
   -2.1500   -4.5616    1.1269 H   0  0  0  0  0  0  0  0  0  0  0  0
   -2.1956   -2.3931    1.0761 C   0  0  0  0  0  0  0  0  0  0  0  0
   -1.1202   -2.3039    1.3466 H   0  0  0  0  0  0  0  0  0  0  0  0
   -4.8054    0.8191   -0.3374 C   0  0  0  0  0  0  0  0  0  0  0  0
   -3.9701    0.4945   -1.4314 C   0  0  0  0  0  0  0  0  0  0  0  0
   -3.6008   -0.5320   -1.5641 H   0  0  0  0  0  0  0  0  0  0  0  0
   -3.5510    1.4874   -2.3258 C   0  0  0  0  0  0  0  0  0  0  0  0
   -2.8784    1.1982   -3.1477 H   0  0  0  0  0  0  0  0  0  0  0  0
   -3.9781    2.8170   -2.1771 C   0  0  0  0  0  0  0  0  0  0  0  0
   -3.6540    3.5931   -2.8864 H   0  0  0  0  0  0  0  0  0  0  0  0
   -4.8288    3.1411   -1.1064 C   0  0  0  0  0  0  0  0  0  0  0  0
   -5.1728    4.1778   -0.9683 H   0  0  0  0  0  0  0  0  0  0  0  0
   -5.2348    2.1596   -0.1918 C   0  0  0  0  0  0  0  0  0  0  0  0
   -5.8707    2.4462    0.6585 H   0  0  0  0  0  0  0  0  0  0  0  0
   -6.5751   -0.2397    1.0157 C   0  0  0  0  0  0  0  0  0  0  0  0
   -6.9706    0.7764    1.1948 H   0  0  0  0  0  0  0  0  0  0  0  0
   -6.6637   -0.8100    1.9599 H   0  0  0  0  0  0  0  0  0  0  0  0
   -7.2241   -0.7210    0.2467 H   0  0  0  0  0  0  0  0  0  0  0  0
    2.3335    0.0792   -1.0322 C   0  0  0  0  0  3  0  0  0  0  0  0
    2.9132    0.9559   -1.3585 H   0  0  0  0  0  0  0  0  0  0  0  0
    2.9768   -1.2197   -0.9745 C   0  0  0  0  0  0  0  0  0  0  0  0
    4.3892   -1.3316   -0.7738 C   0  0  0  0  0  0  0  0  0  0  0  0
    4.9633   -2.6210   -0.7504 C   0  0  0  0  0  0  0  0  0  0  0  0
    6.0447   -2.7313   -0.5914 H   0  0  0  0  0  0  0  0  0  0  0  0
    4.1688   -3.7705   -0.8759 C   0  0  0  0  0  0  0  0  0  0  0  0
    4.6466   -4.7613   -0.8411 H   0  0  0  0  0  0  0  0  0  0  0  0
    2.7769   -3.6638   -1.0255 C   0  0  0  0  0  0  0  0  0  0  0  0
    2.1508   -4.5619   -1.1265 H   0  0  0  0  0  0  0  0  0  0  0  0
    2.1960   -2.3933   -1.0760 C   0  0  0  0  0  0  0  0  0  0  0  0
    1.1205   -2.3044   -1.3466 H   0  0  0  0  0  0  0  0  0  0  0  0
    4.8049    0.8193    0.3375 C   0  0  0  0  0  0  0  0  0  0  0  0
    3.9698    0.4944    1.4315 C   0  0  0  0  0  0  0  0  0  0  0  0
    3.6007   -0.5322    1.5641 H   0  0  0  0  0  0  0  0  0  0  0  0
    3.5505    1.4872    2.3259 C   0  0  0  0  0  0  0  0  0  0  0  0
    2.8781    1.1977    3.1479 H   0  0  0  0  0  0  0  0  0  0  0  0
    3.9773    2.8169    2.1774 C   0  0  0  0  0  0  0  0  0  0  0  0
    3.6531    3.5928    2.8868 H   0  0  0  0  0  0  0  0  0  0  0  0
    4.8279    3.1413    1.1067 C   0  0  0  0  0  0  0  0  0  0  0  0
    5.1717    4.1781    0.9686 H   0  0  0  0  0  0  0  0  0  0  0  0
    5.2341    2.1600    0.1919 C   0  0  0  0  0  0  0  0  0  0  0  0
    5.8699    2.4468   -0.6584 H   0  0  0  0  0  0  0  0  0  0  0  0
    6.5750   -0.2389   -1.0158 C   0  0  0  0  0  0  0  0  0  0  0  0
    6.9701    0.7774   -1.1948 H   0  0  0  0  0  0  0  0  0  0  0  0
    6.6637   -0.8091   -1.9601 H   0  0  0  0  0  0  0  0  0  0  0  0
    7.2241   -0.7201   -0.2469 H   0  0  0  0  0  0  0  0  0  0  0  0
  1  5  1  0  0  0  0
  1 21  1  0  0  0  0
  3 24  1  0  0  0  0
  3 44  1  0  0  0  0
  4 60  1  0  0  0  0
  5 18  1  0  0  0  0
  5  6  1  1  0  0  0
  7  8  1  6  0  0  0
  7  2  1  0  0  0  0
  7  5  1  0  0  0  0
  9  7  1  0  0  0  0
  9 12  1  0  0  0  0
  9 11  1  0  0  0  0
 10  9  1  0  0  0  0
 12 15  1  0  0  0  0
 13 12  1  0  0  0  0
 14 12  1  0  0  0  0
 15 16  1  0  0  0  0
 15 18  1  0  0  0  0
 15 17  1  0  0  0  0
 18 20  1  0  0  0  0
 19 18  1  0  0  0  0
 21 22  1  0  0  0  0
 23 21  1  0  0  0  0
 23 31  1  0  0  0  0
 24 23  2  0  0  0  0
 25 24  1  0  0  0  0
 25 27  2  0  0  0  0
 26 25  1  0  0  0  0
 27 29  1  0  0  0  0
 28 27  1  0  0  0  0
 29 31  2  0  0  0  0
 29 30  1  0  0  0  0
 31 32  1  0  0  0  0
 33 42  1  0  0  0  0
 33  3  1  0  0  0  0
 34 33  2  0  0  0  0
 35 34  1  0  0  0  0
 36 38  2  0  0  0  0
 36 34  1  0  0  0  0
 37 36  1  0  0  0  0
 38 40  1  0  0  0  0
 39 38  1  0  0  0  0
 40 41  1  0  0  0  0
 40 42  2  0  0  0  0
 42 43  1  0  0  0  0
 44 45  1  0  0  0  0
 44 46  1  0  0  0  0
 47 44  1  0  0  0  0
 48 50  1  0  0  0  0
 48  2  1  0  0  0  0
 49 48  1  0  0  0  0
 50 51  1  0  0  0  0
 51 52  2  0  0  0  0
 51  4  1  0  0  0  0
 52 53  1  0  0  0  0
 54 55  1  0  0  0  0
 54 52  1  0  0  0  0
 56 54  2  0  0  0  0
 57 56  1  0  0  0  0
 58 56  1  0  0  0  0
 58 50  2  0  0  0  0
 59 58  1  0  0  0  0
 60 61  1  0  0  0  0
 61 62  1  0  0  0  0
 61 63  2  0  0  0  0
 63 64  1  0  0  0  0
 65 63  1  0  0  0  0
 65 66  1  0  0  0  0
 67 65  2  0  0  0  0
 68 67  1  0  0  0  0
 69 60  2  0  0  0  0
 69 67  1  0  0  0  0
 70 69  1  0  0  0  0
 71  4  1  0  0  0  0
 71 74  1  0  0  0  0
 72 71  1  0  0  0  0
 73 71  1  0  0  0  0
M  END
