3,5
q = -1.0, confidence = 0.0

 15 16  0  0  1  0  0  0  0  0999 V2000
    2.0187   -0.1150   -2.5823 S   0  0  0  0  0  0  0  0  0  0  0  0
    3.9499   -1.0777   -1.8813 S   0  0  0  0  0  0  0  0  0  0  0  0
    1.0921   -1.0626   -1.5448 N   0  0  0  0  0  2  0  0  0  0  0  0
    3.1084   -2.2522   -1.0686 N   0  0  0  0  0  0  0  0  0  0  0  0
   -0.0177   -2.2327    0.4875 N   0  0  0  0  0  2  0  0  0  0  0  0
    1.8098   -2.1187   -0.9916 C   0  0  0  0  0  0  0  0  0  0  0  0
    1.0094   -2.9325   -0.0590 C   0  0  1  0  0  3  0  0  0  0  0  0
    1.2671   -4.2611    0.3029 C   0  0  0  0  0  0  0  0  0  0  0  0
    2.1231   -4.7809   -0.1479 H   0  0  0  0  0  0  0  0  0  0  0  0
    0.4160   -4.8754    1.2294 C   0  0  0  0  0  0  0  0  0  0  0  0
    0.5847   -5.9204    1.5286 H   0  0  0  0  0  0  0  0  0  0  0  0
   -0.6502   -4.1425    1.7773 C   0  0  0  0  0  0  0  0  0  0  0  0
   -1.3321   -4.5882    2.5146 H   0  0  0  0  0  0  0  0  0  0  0  0
   -0.8315   -2.8107    1.3890 C   0  0  0  0  0  0  0  0  0  0  0  0
   -1.6135   -2.1734    1.8257 H   0  0  0  0  0  0  0  0  0  0  0  0
  1  2  1  0  0  0  0
  1  3  1  0  0  0  0
  2  4  1  0  0  0  0
  3  6  1  0  0  0  0
  4  6  2  0  0  0  0
  5 14  1  0  0  0  0
  7  6  1  1  0  0  0
  7  8  1  0  0  0  0
  7  5  1  0  0  0  0
  8 10  2  0  0  0  0
  9  8  1  0  0  0  0
 10 11  1  0  0  0  0
 10 12  1  0  0  0  0
 12 13  1  0  0  0  0
 14 12  2  0  0  0  0
 14 15  1  0  0  0  0
M  END
