2,3
q = 0.0, confidence = 0.95

 48 52  0  0  1  0  0  0  0  0999 V2000
   -0.0000    4.0288   -0.3248 O   0  0  0  0  0  0  0  0  0  0  0  0
   -1.4403   -1.5307    0.8083 N   0  0  0  0  0  2  0  0  0  0  0  0
    1.4403   -1.5306    0.8084 N   0  0  0  0  0  2  0  0  0  0  0  0
   -2.2495   -2.5441    1.1915 C   0  0  0  0  0  0  0  0  0  0  0  0
   -2.0575   -3.5157    0.7157 H   0  0  0  0  0  0  0  0  0  0  0  0
   -3.2749   -2.3486    2.1189 C   0  0  0  0  0  0  0  0  0  0  0  0
   -3.9111   -3.1964    2.4084 H   0  0  0  0  0  0  0  0  0  0  0  0
   -3.4736   -1.0647    2.6529 C   0  0  0  0  0  0  0  0  0  0  0  0
   -4.2742   -0.8799    3.3843 H   0  0  0  0  0  0  0  0  0  0  0  0
   -2.6465   -0.0186    2.2334 C   0  0  0  0  0  0  0  0  0  0  0  0
   -2.7793    1.0064    2.6043 H   0  0  0  0  0  0  0  0  0  0  0  0
   -1.6249   -0.2736    1.2986 C   0  0  0  0  0  0  0  0  0  0  0  0
    2.2495   -2.5441    1.1917 C   0  0  0  0  0  0  0  0  0  0  0  0
    2.0575   -3.5157    0.7158 H   0  0  0  0  0  0  0  0  0  0  0  0
    3.2747   -2.3486    2.1192 C   0  0  0  0  0  0  0  0  0  0  0  0
    3.9110   -3.1964    2.4087 H   0  0  0  0  0  0  0  0  0  0  0  0
    3.4734   -1.0647    2.6532 C   0  0  0  0  0  0  0  0  0  0  0  0
    4.2739   -0.8799    3.3847 H   0  0  0  0  0  0  0  0  0  0  0  0
    2.6463   -0.0186    2.2337 C   0  0  0  0  0  0  0  0  0  0  0  0
    2.7790    1.0064    2.6046 H   0  0  0  0  0  0  0  0  0  0  0  0
    1.6248   -0.2736    1.2988 C   0  0  0  0  0  0  0  0  0  0  0  0
   -0.7549    0.7918    0.7703 C   0  0  0  0  0  0  0  0  0  0  0  0
    0.7549    0.7918    0.7703 C   0  0  0  0  0  0  0  0  0  0  0  0
    1.2141    1.9952    0.2899 C   0  0  2  0  0  3  0  0  0  0  0  0
   -0.0000    2.8560    0.0198 C   0  0  0  0  0  0  0  0  0  0  0  0
   -1.2142    1.9952    0.2898 C   0  0  1  0  0  3  0  0  0  0  0  0
   -2.5845    2.3875   -0.0339 C   0  0  0  0  0  0  0  0  0  0  0  0
   -3.4634    1.4543   -0.6419 C   0  0  0  0  0  0  0  0  0  0  0  0
   -3.0896    0.4558   -0.9212 H   0  0  0  0  0  0  0  0  0  0  0  0
   -4.7772    1.8226   -0.9527 C   0  0  0  0  0  0  0  0  0  0  0  0
   -5.4445    1.0930   -1.4363 H   0  0  0  0  0  0  0  0  0  0  0  0
   -5.2350    3.1221   -0.6744 C   0  0  0  0  0  0  0  0  0  0  0  0
   -6.2685    3.4086   -0.9220 H   0  0  0  0  0  0  0  0  0  0  0  0
   -4.3619    4.0616   -0.1014 C   0  0  0  0  0  0  0  0  0  0  0  0
   -4.7105    5.0858    0.1010 H   0  0  0  0  0  0  0  0  0  0  0  0
   -3.0438    3.7044    0.2105 C   0  0  0  0  0  0  0  0  0  0  0  0
   -2.3548    4.4416    0.6450 H   0  0  0  0  0  0  0  0  0  0  0  0
    2.5844    2.3875   -0.0339 C   0  0  0  0  0  0  0  0  0  0  0  0
    3.4633    1.4544   -0.6421 C   0  0  0  0  0  0  0  0  0  0  0  0
    3.0895    0.4560   -0.9215 H   0  0  0  0  0  0  0  0  0  0  0  0
    4.7771    1.8227   -0.9529 C   0  0  0  0  0  0  0  0  0  0  0  0
    5.4443    1.0932   -1.4367 H   0  0  0  0  0  0  0  0  0  0  0  0
    5.2349    3.1222   -0.6745 C   0  0  0  0  0  0  0  0  0  0  0  0
    6.2684    3.4087   -0.9221 H   0  0  0  0  0  0  0  0  0  0  0  0
    4.3619    4.0616   -0.1013 C   0  0  0  0  0  0  0  0  0  0  0  0
    4.7105    5.0858    0.1012 H   0  0  0  0  0  0  0  0  0  0  0  0
    3.0438    3.7044    0.2106 C   0  0  0  0  0  0  0  0  0  0  0  0
    2.3548    4.4416    0.6452 H   0  0  0  0  0  0  0  0  0  0  0  0
  1 25  2  0  0  0  0
  2  4  1  0  0  0  0
  2 12  1  0  0  0  0
  3 13  1  0  0  0  0
  3 21  1  0  0  0  0
  4  6  2  0  0  0  0
  5  4  1  0  0  0  0
  6  7  1  0  0  0  0
  6  8  1  0  0  0  0
  8  9  1  0  0  0  0
 10 11  1  0  0  0  0
 10  8  2  0  0  0  0
 12 10  1  0  0  0  0
 13 15  2  0  0  0  0
 14 13  1  0  0  0  0
 15 16  1  0  0  0  0
 15 17  1  0  0  0  0
 17 18  1  0  0  0  0
 19 20  1  0  0  0  0
 19 17  2  0  0  0  0
 21 19  1  0  0  0  0
 22 23  1  0  0  0  0
 22 12  2  0  0  0  0
 23 21  2  0  0  0  0
 24 38  1  6  0  0  0
 24 23  1  0  0  0  0
 25 26  1  0  0  0  0
 25 24  1  0  0  0  0
 26 27  1  6  0  0  0
 26 22  1  0  0  0  0
 27 36  1  0  0  0  0
 28 27  2  0  0  0  0
 29 28  1  0  0  0  0
 30 32  2  0  0  0  0
 30 28  1  0  0  0  0
 31 30  1  0  0  0  0
 32 34  1  0  0  0  0
 33 32  1  0  0  0  0
 34 35  1  0  0  0  0
 34 36  2  0  0  0  0
 36 37  1  0  0  0  0
 38 47  1  0  0  0  0
 39 38  2  0  0  0  0
 40 39  1  0  0  0  0
 41 43  2  0  0  0  0
 41 39  1  0  0  0  0
 42 41  1  0  0  0  0
 43 45  1  0  0  0  0
 44 43  1  0  0  0  0
 45 46  1  0  0  0  0
 45 47  2  0  0  0  0
 47 48  1  0  0  0  0
M  END
