1,2
q = 0.0, confidence = 0.992

 69 72  0  0  1  0  0  0  0  0999 V2000
    1.5134    0.6159   -0.2114 N   0  0  0  0  0  2  0  0  0  0  0  0
   -1.5134    0.6157    0.2117 N   0  0  0  0  0  2  0  0  0  0  0  0
    0.8594    1.7011   -0.9341 C   0  0  0  0  0  0  0  0  0  0  0  0
    0.2073    1.2173   -1.6934 H   0  0  0  0  0  0  0  0  0  0  0  0
    1.5758    2.3482   -1.4819 H   0  0  0  0  0  0  0  0  0  0  0  0
   -0.0002    2.5886    0.0002 C   0  0  0  0  0  0  0  0  0  0  0  0
   -0.8597    1.7010    0.9344 C   0  0  0  0  0  0  0  0  0  0  0  0
   -0.2076    1.2174    1.6939 H   0  0  0  0  0  0  0  0  0  0  0  0
   -1.5763    2.3481    1.4821 H   0  0  0  0  0  0  0  0  0  0  0  0
   -2.7980    0.5504    0.1597 C   0  0  2  0  0  3  0  0  0  0  0  0
   -3.7926    1.5173    0.7973 C   0  0  0  0  0  0  0  0  0  0  0  0
   -3.6570    2.5584    0.4390 H   0  0  0  0  0  0  0  0  0  0  0  0
   -3.6530    1.5312    1.8978 H   0  0  0  0  0  0  0  0  0  0  0  0
   -5.1420    0.9025    0.3870 C   0  0  1  0  0  0  0  0  0  0  0  0
   -5.9943    1.2420    1.0078 H   0  0  0  0  0  0  0  0  0  0  0  0
   -5.3055    1.1645   -1.1272 C   0  0  0  0  0  0  0  0  0  0  0  0
   -5.1308    2.2310   -1.3739 H   0  0  0  0  0  0  0  0  0  0  0  0
   -6.3285    0.9209   -1.4735 H   0  0  0  0  0  0  0  0  0  0  0  0
   -4.2434    0.2181   -1.7557 C   0  0  0  0  0  0  0  0  0  0  0  0
   -3.4674    0.7475   -2.3437 H   0  0  0  0  0  0  0  0  0  0  0  0
   -4.6991   -0.5295   -2.4351 H   0  0  0  0  0  0  0  0  0  0  0  0
   -3.6113   -0.5319   -0.5349 C   0  0  2  0  0  0  0  0  0  0  0  0
   -4.8385   -0.6265    0.4562 C   0  0  0  0  0  0  0  0  0  0  0  0
   -5.9897   -1.5019   -0.0526 C   0  0  0  0  0  0  0  0  0  0  0  0
   -6.8500   -1.4333    0.6449 H   0  0  0  0  0  0  0  0  0  0  0  0
   -5.6831   -2.5663   -0.0912 H   0  0  0  0  0  0  0  0  0  0  0  0
   -6.3544   -1.2224   -1.0589 H   0  0  0  0  0  0  0  0  0  0  0  0
   -4.4262   -1.1335    1.8493 C   0  0  0  0  0  0  0  0  0  0  0  0
   -5.2041   -0.8919    2.6029 H   0  0  0  0  0  0  0  0  0  0  0  0
   -3.4537   -0.7364    2.2011 H   0  0  0  0  0  0  0  0  0  0  0  0
   -4.3080   -2.2351    1.8345 H   0  0  0  0  0  0  0  0  0  0  0  0
   -2.8923   -1.8188   -0.8789 C   0  0  0  0  0  0  0  0  0  0  0  0
   -2.0949   -1.6599   -1.6320 H   0  0  0  0  0  0  0  0  0  0  0  0
   -3.6049   -2.5540   -1.3040 H   0  0  0  0  0  0  0  0  0  0  0  0
   -2.4233   -2.2688    0.0197 H   0  0  0  0  0  0  0  0  0  0  0  0
   -0.9066    3.4641   -0.8786 C   0  0  0  0  0  0  0  0  0  0  0  0
   -1.6192    2.8428   -1.4591 H   0  0  0  0  0  0  0  0  0  0  0  0
   -0.3096    4.0557   -1.6027 H   0  0  0  0  0  0  0  0  0  0  0  0
   -1.4898    4.1770   -0.2608 H   0  0  0  0  0  0  0  0  0  0  0  0
    0.9063    3.4640    0.8791 C   0  0  0  0  0  0  0  0  0  0  0  0
    1.4895    4.1770    0.2612 H   0  0  0  0  0  0  0  0  0  0  0  0
    1.6188    2.8427    1.4595 H   0  0  0  0  0  0  0  0  0  0  0  0
    0.3093    4.0556    1.6032 H   0  0  0  0  0  0  0  0  0  0  0  0
    2.7980    0.5506   -0.1597 C   0  0  2  0  0  3  0  0  0  0  0  0
    3.7925    1.5174   -0.7978 C   0  0  0  0  0  0  0  0  0  0  0  0
    3.6571    2.5585   -0.4396 H   0  0  0  0  0  0  0  0  0  0  0  0
    3.6525    1.5311   -1.8983 H   0  0  0  0  0  0  0  0  0  0  0  0
    5.1419    0.9025   -0.3878 C   0  0  1  0  0  0  0  0  0  0  0  0
    5.9941    1.2419   -1.0088 H   0  0  0  0  0  0  0  0  0  0  0  0
    5.3058    1.1646    1.1264 C   0  0  0  0  0  0  0  0  0  0  0  0
    5.1313    2.2311    1.3730 H   0  0  0  0  0  0  0  0  0  0  0  0
    6.3290    0.9210    1.4724 H   0  0  0  0  0  0  0  0  0  0  0  0
    4.2439    0.2184    1.7553 C   0  0  0  0  0  0  0  0  0  0  0  0
    3.4680    0.7478    2.3435 H   0  0  0  0  0  0  0  0  0  0  0  0
    4.6997   -0.5293    2.4345 H   0  0  0  0  0  0  0  0  0  0  0  0
    3.6114   -0.5317    0.5346 C   0  0  2  0  0  0  0  0  0  0  0  0
    4.8383   -0.6265   -0.4568 C   0  0  0  0  0  0  0  0  0  0  0  0
    5.9895   -1.5019    0.0518 C   0  0  0  0  0  0  0  0  0  0  0  0
    5.6828   -2.5663    0.0905 H   0  0  0  0  0  0  0  0  0  0  0  0
    6.3546   -1.2225    1.0580 H   0  0  0  0  0  0  0  0  0  0  0  0
    6.8496   -1.4335   -0.6460 H   0  0  0  0  0  0  0  0  0  0  0  0
    4.4255   -1.1336   -1.8497 C   0  0  0  0  0  0  0  0  0  0  0  0
    5.2033   -0.8922   -2.6035 H   0  0  0  0  0  0  0  0  0  0  0  0
    3.4529   -0.7364   -2.2012 H   0  0  0  0  0  0  0  0  0  0  0  0
    4.3072   -2.2351   -1.8348 H   0  0  0  0  0  0  0  0  0  0  0  0
    2.8923   -1.8185    0.8789 C   0  0  0  0  0  0  0  0  0  0  0  0
    2.0951   -1.6594    1.6322 H   0  0  0  0  0  0  0  0  0  0  0  0
    3.6049   -2.5537    1.3039 H   0  0  0  0  0  0  0  0  0  0  0  0
    2.4231   -2.2685   -0.0195 H   0  0  0  0  0  0  0  0  0  0  0  0
  2  7  1  0  0  0  0
  3  1  1  0  0  0  0
  3  6  1  0  0  0  0
  4  3  1  0  0  0  0
  5  3  1  0  0  0  0
  6 40  1  0  0  0  0
  6  7  1  0  0  0  0
  7  9  1  0  0  0  0
  7  8  1  0  0  0  0
 10  2  1  1  0  0  0
 10 11  1  0  0  0  0
 11 13  1  0  0  0  0
 12 11  1  0  0  0  0
 14 23  1  0  0  0  0
 14 11  1  0  0  0  0
 14 15  1  1  0  0  0
 16 14  1  0  0  0  0
 17 16  1  0  0  0  0
 18 16  1  0  0  0  0
 19 16  1  0  0  0  0
 19 22  1  0  0  0  0
 20 19  1  0  0  0  0
 21 19  1  0  0  0  0
 22 32  1  6  0  0  0
 22 10  1  0  0  0  0
 22 23  1  0  0  0  0
 23 28  1  0  0  0  0
 24 23  1  0  0  0  0
 24 25  1  0  0  0  0
 26 24  1  0  0  0  0
 27 24  1  0  0  0  0
 28 30  1  0  0  0  0
 28 29  1  0  0  0  0
 31 28  1  0  0  0  0
 32 35  1  0  0  0  0
 33 32  1  0  0  0  0
 34 32  1  0  0  0  0
 36 39  1  0  0  0  0
 36  6  1  0  0  0  0
 37 36  1  0  0  0  0
 38 36  1  0  0  0  0
 40 42  1  0  0  0  0
 40 43  1  0  0  0  0
 41 40  1  0  0  0  0
 44  1  1  6  0  0  0
 44 56  1  0  0  0  0
 45 46  1  0  0  0  0
 45 48  1  0  0  0  0
 45 44  1  0  0  0  0
 47 45  1  0  0  0  0
 48 49  1  6  0  0  0
 48 50  1  0  0  0  0
 50 51  1  0  0  0  0
 50 52  1  0  0  0  0
 50 53  1  0  0  0  0
 53 54  1  0  0  0  0
 53 55  1  0  0  0  0
 56 66  1  1  0  0  0
 56 53  1  0  0  0  0
 57 48  1  0  0  0  0
 57 58  1  0  0  0  0
 57 56  1  0  0  0  0
 58 59  1  0  0  0  0
 58 60  1  0  0  0  0
 61 58  1  0  0  0  0
 62 65  1  0  0  0  0
 62 57  1  0  0  0  0
 63 62  1  0  0  0  0
 64 62  1  0  0  0  0
 66 68  1  0  0  0  0
 66 67  1  0  0  0  0
 69 66  1  0  0  0  0
M  END
