1,2
q = 0.0, confidence = 0.998

 60 63  0  0  1  0  0  0  0  0999 V2000
    1.4024    0.8766    0.0353 N   0  0  0  0  0  2  0  0  0  0  0  0
   -1.4023    0.8766   -0.0351 N   0  0  0  0  0  2  0  0  0  0  0  0
    0.6774    2.1013    0.3554 C   0  0  0  0  0  0  0  0  0  0  0  0
    1.2458    3.0160    0.0802 H   0  0  0  0  0  0  0  0  0  0  0  0
    0.5112    2.1289    1.4562 H   0  0  0  0  0  0  0  0  0  0  0  0
   -0.6774    2.1014   -0.3549 C   0  0  0  0  0  0  0  0  0  0  0  0
   -1.2458    3.0160   -0.0796 H   0  0  0  0  0  0  0  0  0  0  0  0
   -0.5112    2.1292   -1.4558 H   0  0  0  0  0  0  0  0  0  0  0  0
   -2.6852    0.8375   -0.1362 C   0  0  1  0  0  3  0  0  0  0  0  0
   -3.6045    1.9852   -0.5278 C   0  0  0  0  0  0  0  0  0  0  0  0
   -3.3255    2.4159   -1.5125 H   0  0  0  0  0  0  0  0  0  0  0  0
   -3.5325    2.8102    0.2123 H   0  0  0  0  0  0  0  0  0  0  0  0
   -4.9850    1.3009   -0.5281 C   0  0  1  0  0  0  0  0  0  0  0  0
   -5.8349    2.0075   -0.4543 H   0  0  0  0  0  0  0  0  0  0  0  0
   -5.0134    0.3815   -1.7705 C   0  0  0  0  0  0  0  0  0  0  0  0
   -6.0299   -0.0183   -1.9522 H   0  0  0  0  0  0  0  0  0  0  0  0
   -4.7188    0.9315   -2.6865 H   0  0  0  0  0  0  0  0  0  0  0  0
   -4.0075   -0.7397   -1.3913 C   0  0  0  0  0  0  0  0  0  0  0  0
   -3.1242   -0.8208   -2.0551 H   0  0  0  0  0  0  0  0  0  0  0  0
   -4.4813   -1.7414   -1.3766 H   0  0  0  0  0  0  0  0  0  0  0  0
   -3.5551   -0.3880    0.0710 C   0  0  2  0  0  0  0  0  0  0  0  0
   -4.8556    0.2907    0.6568 C   0  0  0  0  0  0  0  0  0  0  0  0
   -6.0501   -0.6618    0.7863 C   0  0  0  0  0  0  0  0  0  0  0  0
   -5.8763   -1.3980    1.5965 H   0  0  0  0  0  0  0  0  0  0  0  0
   -6.2674   -1.2296   -0.1372 H   0  0  0  0  0  0  0  0  0  0  0  0
   -6.9633   -0.0901    1.0518 H   0  0  0  0  0  0  0  0  0  0  0  0
   -4.6214    0.9442    2.0276 C   0  0  0  0  0  0  0  0  0  0  0  0
   -3.7226    1.5906    2.0632 H   0  0  0  0  0  0  0  0  0  0  0  0
   -4.4824    0.1649    2.8036 H   0  0  0  0  0  0  0  0  0  0  0  0
   -5.4956    1.5591    2.3253 H   0  0  0  0  0  0  0  0  0  0  0  0
   -2.9434   -1.5506    0.8277 C   0  0  0  0  0  0  0  0  0  0  0  0
   -2.1821   -2.0646    0.2065 H   0  0  0  0  0  0  0  0  0  0  0  0
   -3.7228   -2.3023    1.0651 H   0  0  0  0  0  0  0  0  0  0  0  0
   -2.4519   -1.2390    1.7695 H   0  0  0  0  0  0  0  0  0  0  0  0
    2.6852    0.8374    0.1363 C   0  0  1  0  0  3  0  0  0  0  0  0
    3.6045    1.9851    0.5282 C   0  0  0  0  0  0  0  0  0  0  0  0
    3.3256    2.4156    1.5129 H   0  0  0  0  0  0  0  0  0  0  0  0
    3.5325    2.8102   -0.2118 H   0  0  0  0  0  0  0  0  0  0  0  0
    4.9850    1.3008    0.5283 C   0  0  1  0  0  0  0  0  0  0  0  0
    5.8350    2.0075    0.4546 H   0  0  0  0  0  0  0  0  0  0  0  0
    5.0135    0.3812    1.7705 C   0  0  0  0  0  0  0  0  0  0  0  0
    4.7189    0.9310    2.6866 H   0  0  0  0  0  0  0  0  0  0  0  0
    6.0300   -0.0186    1.9521 H   0  0  0  0  0  0  0  0  0  0  0  0
    4.0075   -0.7400    1.3911 C   0  0  0  0  0  0  0  0  0  0  0  0
    4.4814   -1.7417    1.3762 H   0  0  0  0  0  0  0  0  0  0  0  0
    3.1243   -0.8212    2.0550 H   0  0  0  0  0  0  0  0  0  0  0  0
    3.5552   -0.3880   -0.0711 C   0  0  2  0  0  0  0  0  0  0  0  0
    4.8555    0.2909   -0.6568 C   0  0  0  0  0  0  0  0  0  0  0  0
    6.0501   -0.6616   -0.7865 C   0  0  0  0  0  0  0  0  0  0  0  0
    6.9633   -0.0898   -1.0519 H   0  0  0  0  0  0  0  0  0  0  0  0
    5.8763   -1.3977   -1.5969 H   0  0  0  0  0  0  0  0  0  0  0  0
    6.2675   -1.2297    0.1368 H   0  0  0  0  0  0  0  0  0  0  0  0
    4.6213    0.9445   -2.0275 C   0  0  0  0  0  0  0  0  0  0  0  0
    3.7226    1.5909   -2.0629 H   0  0  0  0  0  0  0  0  0  0  0  0
    4.4823    0.1654   -2.8037 H   0  0  0  0  0  0  0  0  0  0  0  0
    5.4955    1.5595   -2.3251 H   0  0  0  0  0  0  0  0  0  0  0  0
    2.9434   -1.5505   -0.8280 C   0  0  0  0  0  0  0  0  0  0  0  0
    2.1822   -2.0647   -0.2069 H   0  0  0  0  0  0  0  0  0  0  0  0
    3.7229   -2.3021   -1.0656 H   0  0  0  0  0  0  0  0  0  0  0  0
    2.4519   -1.2387   -1.7697 H   0  0  0  0  0  0  0  0  0  0  0  0
  1  3  1  0  0  0  0
  3  5  1  0  0  0  0
  4  3  1  0  0  0  0
  6  7  1  0  0  0  0
  6  2  1  0  0  0  0
  6  3  1  0  0  0  0
  8  6  1  0  0  0  0
  9  2  1  6  0  0  0
  9 21  1  0  0  0  0
 10  9  1  0  0  0  0
 10 12  1  0  0  0  0
 11 10  1  0  0  0  0
 13 10  1  0  0  0  0
 13 14  1  1  0  0  0
 13 22  1  0  0  0  0
 15 18  1  0  0  0  0
 15 13  1  0  0  0  0
 16 15  1  0  0  0  0
 17 15  1  0  0  0  0
 18 20  1  0  0  0  0
 18 21  1  0  0  0  0
 19 18  1  0  0  0  0
 21 22  1  0  0  0  0
 21 31  1  1  0  0  0
 22 23  1  0  0  0  0
 22 27  1  0  0  0  0
 23 26  1  0  0  0  0
 23 24  1  0  0  0  0
 25 23  1  0  0  0  0
 27 28  1  0  0  0  0
 27 30  1  0  0  0  0
 27 29  1  0  0  0  0
 31 33  1  0  0  0  0
 31 34  1  0  0  0  0
 32 31  1  0  0  0  0
 35  1  1  1  0  0  0
 35 36  1  0  0  0  0
 36 39  1  0  0  0  0
 36 37  1  0  0  0  0
 38 36  1  0  0  0  0
 39 40  1  6  0  0  0
 39 41  1  0  0  0  0
 41 43  1  0  0  0  0
 41 42  1  0  0  0  0
 44 41  1  0  0  0  0
 44 46  1  0  0  0  0
 45 44  1  0  0  0  0
 47 57  1  6  0  0  0
 47 35  1  0  0  0  0
 47 44  1  0  0  0  0
 48 47  1  0  0  0  0
 48 39  1  0  0  0  0
 49 48  1  0  0  0  0
 49 52  1  0  0  0  0
 50 49  1  0  0  0  0
 51 49  1  0  0  0  0
 53 48  1  0  0  0  0
 54 53  1  0  0  0  0
 55 53  1  0  0  0  0
 56 53  1  0  0  0  0
 57 58  1  0  0  0  0
 59 57  1  0  0  0  0
 60 57  1  0  0  0  0
M  END
