2,3
q = -1.0, confidence = 0.0

 15 15  0  0  0  0  0  0  0  0999 V2000
   -0.2275    0.2118   -2.5640 O   0  0  0  0  0  1  0  0  0  0  0  0
   -0.5949   -0.2667   -1.4539 N   0  0  0  0  0  2  0  0  0  0  0  0
   -0.9765   -1.1923    0.9183 N   0  0  0  0  0  2  0  0  0  0  0  0
   -2.9810   -2.1026    0.5923 N   0  0  0  0  0  0  0  0  0  0  0  0
   -1.7445   -0.9455   -1.3209 C   0  0  0  0  0  0  0  0  0  0  0  0
   -1.9447   -1.4285    0.0051 C   0  0  0  0  0  0  0  0  0  0  0  0
   -4.2671   -2.3669   -0.0259 C   0  0  0  0  0  0  0  0  0  0  0  0
   -2.6436   -2.2893    1.9318 C   0  0  0  0  0  0  0  0  0  0  0  0
   -1.3908   -1.7298    2.1139 C   0  0  0  0  0  0  0  0  0  0  0  0
   -2.4237   -1.0631   -2.1755 H   0  0  0  0  0  0  0  0  0  0  0  0
   -4.1243   -2.8213   -1.0263 H   0  0  0  0  0  0  0  0  0  0  0  0
   -4.8352   -1.4163   -0.1269 H   0  0  0  0  0  0  0  0  0  0  0  0
   -4.8336   -3.0781    0.6029 H   0  0  0  0  0  0  0  0  0  0  0  0
   -3.3180   -2.8048    2.6221 H   0  0  0  0  0  0  0  0  0  0  0  0
   -0.7465   -1.6662    2.9979 H   0  0  0  0  0  0  0  0  0  0  0  0
  1  2  1  0  0  0  0
  2  5  1  0  0  0  0
  3  9  1  0  0  0  0
  4  8  1  0  0  0  0
  5  6  2  0  0  0  0
  6  4  1  0  0  0  0
  6  3  1  0  0  0  0
  7  4  1  0  0  0  0
  7 13  1  0  0  0  0
  8  9  2  0  0  0  0
  8 14  1  0  0  0  0
  9 15  1  0  0  0  0
 10  5  1  0  0  0  0
 11  7  1  0  0  0  0
 12  7  1  0  0  0  0
M  END
