1,2
q = 0.0, confidence = 0.99

 36 36  0  0  1  0  0  0  0  0999 V2000
    2.9604    0.6690    0.1358 N   0  0  0  0  0  2  0  0  0  0  0  0
    0.4934    1.1054   -0.6700 N   0  0  0  0  0  2  0  0  0  0  0  0
   -2.9569    0.4805   -0.4652 N   0  0  0  0  0  0  0  0  0  0  0  0
   -2.8321   -0.2964   -1.1177 H   0  0  0  0  0  0  0  0  0  0  0  0
   -1.8801    2.1919    0.6188 O   0  0  0  0  0  0  0  0  0  0  0  0
   -3.5106   -1.8863    0.4985 O   0  0  0  0  0  0  0  0  0  0  0  0
   -3.7731   -2.7476    0.8910 H   0  0  0  0  0  0  0  0  0  0  0  0
   -5.2816   -1.2174    1.7422 O   0  0  0  0  0  0  0  0  0  0  0  0
    4.2467    0.3961    0.4457 C   0  0  0  0  0  3  0  0  0  0  0  0
    4.4859   -0.6643    0.6143 H   0  0  0  0  0  0  0  0  0  0  0  0
    5.2276    1.3859    0.5481 C   0  0  0  0  0  0  0  0  0  0  0  0
    6.2572    1.1028    0.8082 H   0  0  0  0  0  0  0  0  0  0  0  0
    4.8746    2.7293    0.3138 C   0  0  0  0  0  0  0  0  0  0  0  0
    5.6243    3.5299    0.3943 H   0  0  0  0  0  0  0  0  0  0  0  0
    3.5568    3.0207   -0.0393 C   0  0  0  0  0  0  0  0  0  0  0  0
    3.2348    4.0495   -0.2562 H   0  0  0  0  0  0  0  0  0  0  0  0
    2.6191    1.9713   -0.1325 C   0  0  0  0  0  0  0  0  0  0  0  0
    1.2636    2.1582   -0.5904 C   0  0  0  0  0  3  0  0  0  0  0  0
    0.9282    3.1519   -0.9390 H   0  0  0  0  0  0  0  0  0  0  0  0
   -0.7943    1.2446   -1.3186 C   0  0  0  0  0  0  0  0  0  0  0  0
   -0.9286    0.3802   -1.9984 H   0  0  0  0  0  0  0  0  0  0  0  0
   -0.8410    2.1735   -1.9296 H   0  0  0  0  0  0  0  0  0  0  0  0
   -1.9221    1.3527   -0.2803 C   0  0  0  0  0  0  0  0  0  0  0  0
   -4.0882    0.4432    0.4436 C   0  0  2  0  0  0  0  0  0  0  0  0
   -3.7895    1.0626    1.3179 H   0  0  0  0  0  0  0  0  0  0  0  0
   -4.3720   -0.9581    0.9812 C   0  0  0  0  0  0  0  0  0  0  0  0
   -5.3851    1.0592   -0.1519 C   0  0  0  0  0  0  0  0  0  0  0  0
   -6.1433    0.9499    0.6524 H   0  0  0  0  0  0  0  0  0  0  0  0
   -5.8639    0.2835   -1.3837 C   0  0  0  0  0  0  0  0  0  0  0  0
   -6.8037    0.7169   -1.7797 H   0  0  0  0  0  0  0  0  0  0  0  0
   -6.0626   -0.7832   -1.1534 H   0  0  0  0  0  0  0  0  0  0  0  0
   -5.1122    0.3280   -2.1999 H   0  0  0  0  0  0  0  0  0  0  0  0
   -5.1888    2.5461   -0.4574 C   0  0  0  0  0  0  0  0  0  0  0  0
   -4.4378    2.6898   -1.2619 H   0  0  0  0  0  0  0  0  0  0  0  0
   -4.8345    3.1055    0.4306 H   0  0  0  0  0  0  0  0  0  0  0  0
   -6.1383    3.0017   -0.8028 H   0  0  0  0  0  0  0  0  0  0  0  0
  1  9  1  0  0  0  0
  2 18  1  0  0  0  0
  3 23  1  0  0  0  0
  3 24  1  0  0  0  0
  4  3  1  0  0  0  0
  6  7  1  0  0  0  0
  6 26  1  0  0  0  0
  9 11  1  0  0  0  0
  9 10  1  0  0  0  0
 11 12  1  0  0  0  0
 13 14  1  0  0  0  0
 13 11  2  0  0  0  0
 15 13  1  0  0  0  0
 16 15  1  0  0  0  0
 17 15  2  0  0  0  0
 17  1  1  0  0  0  0
 18 17  1  0  0  0  0
 19 18  1  0  0  0  0
 20  2  1  0  0  0  0
 20 23  1  0  0  0  0
 21 20  1  0  0  0  0
 22 20  1  0  0  0  0
 23  5  2  0  0  0  0
 24 26  1  0  0  0  0
 24 25  1  1  0  0  0
 26  8  2  0  0  0  0
 27 24  1  0  0  0  0
 27 28  1  0  0  0  0
 29 31  1  0  0  0  0
 29 27  1  0  0  0  0
 30 29  1  0  0  0  0
 32 29  1  0  0  0  0
 33 27  1  0  0  0  0
 33 35  1  0  0  0  0
 34 33  1  0  0  0  0
 36 33  1  0  0  0  0
M  END
