5,10
q = -1.0

 33 34  0  0  1  0  0  0  0  0999 V2000
   -5.5065    6.9119    0.3529 O   0  0  0  0  0  0  0  0  0  0  0  0
   -7.1388    5.7255   -0.4906 O   0  0  0  0  0  0  0  0  0  0  0  0
   -7.1393   -5.7249    0.4910 O   0  0  0  0  0  0  0  0  0  0  0  0
   -5.5075   -6.9112   -0.3536 O   0  0  0  0  0  0  0  0  0  0  0  0
   -1.3097    1.3036   -0.0967 N   0  0  0  0  0  2  0  0  0  0  0  0
   -1.0198    2.2817   -0.2164 H   0  0  0  0  0  0  0  0  0  0  0  0
   -5.9938    5.8613   -0.0628 N   0  0  0  0  0  0  0  0  0  0  0  0
   -3.2946    0.0002    0.0003 N   0  0  0  0  0  0  0  0  0  0  0  0
   -5.9945   -5.8606    0.0626 N   0  0  0  0  0  0  0  0  0  0  0  0
   -1.3099   -1.3036    0.0960 N   0  0  0  0  0  2  0  0  0  0  0  0
   -1.0199   -2.2818    0.2147 H   0  0  0  0  0  0  0  0  0  0  0  0
   -2.6320    1.1675   -0.0358 C   0  0  2  0  0  3  0  0  0  0  0  0
   -3.4881    2.3944   -0.0286 C   0  0  0  0  0  0  0  0  0  0  0  0
   -3.0037    3.6338    0.4464 C   0  0  0  0  0  0  0  0  0  0  0  0
   -1.9881    3.7088    0.8649 H   0  0  0  0  0  0  0  0  0  0  0  0
   -3.8169    4.7711    0.4381 C   0  0  0  0  0  0  0  0  0  0  0  0
   -3.4707    5.7445    0.8097 H   0  0  0  0  0  0  0  0  0  0  0  0
   -5.1253    4.6556   -0.0478 C   0  0  0  0  0  0  0  0  0  0  0  0
   -5.6415    3.4381   -0.5111 C   0  0  0  0  0  0  0  0  0  0  0  0
   -6.6764    3.4039   -0.8767 H   0  0  0  0  0  0  0  0  0  0  0  0
   -4.8195    2.3081   -0.4914 C   0  0  0  0  0  0  0  0  0  0  0  0
   -5.1841    1.3312   -0.8375 H   0  0  0  0  0  0  0  0  0  0  0  0
   -2.6322   -1.1672    0.0358 C   0  0  0  0  0  0  0  0  0  0  0  0
   -3.4883   -2.3940    0.0285 C   0  0  0  0  0  0  0  0  0  0  0  0
   -4.8195   -2.3077    0.4922 C   0  0  0  0  0  0  0  0  0  0  0  0
   -5.1838   -1.3309    0.8389 H   0  0  0  0  0  0  0  0  0  0  0  0
   -5.6416   -3.4377    0.5118 C   0  0  0  0  0  0  0  0  0  0  0  0
   -6.6763   -3.4035    0.8780 H   0  0  0  0  0  0  0  0  0  0  0  0
   -5.1259   -4.6551    0.0477 C   0  0  0  0  0  0  0  0  0  0  0  0
   -3.8178   -4.7705   -0.4390 C   0  0  0  0  0  0  0  0  0  0  0  0
   -3.4719   -5.7437   -0.8112 H   0  0  0  0  0  0  0  0  0  0  0  0
   -3.0044   -3.6333   -0.4473 C   0  0  0  0  0  0  0  0  0  0  0  0
   -1.9891   -3.7083   -0.8664 H   0  0  0  0  0  0  0  0  0  0  0  0
  2  7  2  0  0  0  0
  4  9  2  0  0  0  0
  6  5  1  0  0  0  0
  7 18  1  0  0  0  0
  7  1  2  0  0  0  0
  8 23  2  0  0  0  0
  9  3  2  0  0  0  0
 10 11  1  0  0  0  0
 12  5  1  6  0  0  0
 12 13  1  0  0  0  0
 12  8  1  0  0  0  0
 13 14  1  0  0  0  0
 14 15  1  0  0  0  0
 16 14  2  0  0  0  0
 16 17  1  0  0  0  0
 18 16  1  0  0  0  0
 19 21  1  0  0  0  0
 19 18  2  0  0  0  0
 20 19  1  0  0  0  0
 21 13  2  0  0  0  0
 22 21  1  0  0  0  0
 23 10  1  0  0  0  0
 24 23  1  0  0  0  0
 24 25  1  0  0  0  0
 25 27  2  0  0  0  0
 25 26  1  0  0  0  0
 27 28  1  0  0  0  0
 29  9  1  0  0  0  0
 29 27  1  0  0  0  0
 30 29  2  0  0  0  0
 31 30  1  0  0  0  0
 32 30  1  0  0  0  0
 32 24  2  0  0  0  0
 33 32  1  0  0  0  0
M  END
