2,4
q = -1.0, confidence = 0.0

 21 21  0  0  1  0  0  0  0  0999 V2000
    3.7093   -2.1421   -0.8131 N   0  0  0  0  0  0  0  0  0  0  0  0
   -1.3838   -2.1421   -0.4220 N   0  0  0  0  0  2  0  0  0  0  0  0
   -2.3549   -2.0362   -0.7383 H   0  0  0  0  0  0  0  0  0  0  0  0
    1.3842   -1.8446   -0.3732 N   0  0  0  0  0  2  0  0  0  0  0  0
    0.1487   -3.7788    0.3876 N   0  0  0  0  0  0  0  0  0  0  0  0
    2.5697   -0.3201   -1.6292 O   0  0  0  0  0  0  0  0  0  0  0  0
    4.9609   -1.6631   -1.3981 C   0  0  0  0  0  0  0  0  0  0  0  0
    4.7604   -0.6825   -1.8612 H   0  0  0  0  0  0  0  0  0  0  0  0
    5.3237   -2.3710   -2.1698 H   0  0  0  0  0  0  0  0  0  0  0  0
    5.7266   -1.5474   -0.6068 H   0  0  0  0  0  0  0  0  0  0  0  0
    2.5424   -1.3714   -0.9873 C   0  0  0  0  0  0  0  0  0  0  0  0
   -1.0606   -3.3671   -0.0316 C   0  0  2  0  0  3  0  0  0  0  0  0
    1.2863   -3.1226    0.1357 C   0  0  0  0  0  0  0  0  0  0  0  0
    2.5156   -3.8347    0.3713 C   0  0  0  0  0  0  0  0  0  0  0  0
    2.4657   -4.8121    0.8639 H   0  0  0  0  0  0  0  0  0  0  0  0
    3.6845   -3.3171   -0.1100 C   0  0  0  0  0  0  0  0  0  0  0  0
    4.6520   -3.8272    0.0041 H   0  0  0  0  0  0  0  0  0  0  0  0
   -2.1243   -4.4384   -0.0540 C   0  0  0  0  0  0  0  0  0  0  0  0
   -2.1737   -4.9158    0.9442 H   0  0  0  0  0  0  0  0  0  0  0  0
   -1.8310   -5.2342   -0.7677 H   0  0  0  0  0  0  0  0  0  0  0  0
   -3.1222   -4.0480   -0.3294 H   0  0  0  0  0  0  0  0  0  0  0  0
  1 16  1  0  0  0  0
  3  2  1  0  0  0  0
  4 13  1  0  0  0  0
  6 11  2  0  0  0  0
  7  1  1  0  0  0  0
  7 10  1  0  0  0  0
  8  7  1  0  0  0  0
  9  7  1  0  0  0  0
 11  1  1  0  0  0  0
 11  4  1  0  0  0  0
 12  2  1  6  0  0  0
 12  5  1  0  0  0  0
 13 14  1  0  0  0  0
 13  5  2  0  0  0  0
 14 15  1  0  0  0  0
 16 17  1  0  0  0  0
 16 14  2  0  0  0  0
 18 12  1  0  0  0  0
 18 19  1  0  0  0  0
 20 18  1  0  0  0  0
 21 18  1  0  0  0  0
M  END
