1,5
q = -1.0

 23 24  0  0  0  0  0  0  0  0999 V2000
   -1.5760   -1.0511   -0.6146 N   0  0  0  0  0  2  0  0  0  0  0  0
   -3.8488   -0.4348   -1.1188 N   0  0  0  0  0  0  0  0  0  0  0  0
   -5.4496   -2.0794   -0.2876 N   0  0  0  0  0  0  0  0  0  0  0  0
   -1.0207   -3.3154    0.0979 N   0  0  0  0  0  0  0  0  0  0  0  0
    0.9685   -2.2049   -0.6045 N   0  0  0  0  0  2  0  0  0  0  0  0
    1.9380   -2.3935   -0.8810 H   0  0  0  0  0  0  0  0  0  0  0  0
   -2.5464   -0.2258   -1.1274 C   0  0  0  0  0  3  0  0  0  0  0  0
   -2.1820    0.7022   -1.5940 H   0  0  0  0  0  0  0  0  0  0  0  0
   -4.1840   -1.5839   -0.5044 C   0  0  0  0  0  0  0  0  0  0  0  0
   -3.2961   -2.5642   -0.0000 C   0  0  0  0  0  0  0  0  0  0  0  0
   -1.8909   -2.3287   -0.1443 C   0  0  0  0  0  0  0  0  0  0  0  0
   -3.9957   -3.6363    0.5039 N   0  0  0  0  0  0  0  0  0  0  0  0
   -5.2643   -3.3100    0.3299 C   0  0  0  0  0  0  0  0  0  0  0  0
   -6.1245   -3.9260    0.6281 H   0  0  0  0  0  0  0  0  0  0  0  0
   -6.6929   -1.4125   -0.6307 C   0  0  0  0  0  0  0  0  0  0  0  0
   -6.4407   -0.5176   -1.2294 H   0  0  0  0  0  0  0  0  0  0  0  0
   -7.2378   -1.0944    0.2808 H   0  0  0  0  0  0  0  0  0  0  0  0
   -7.3427   -2.0810   -1.2277 H   0  0  0  0  0  0  0  0  0  0  0  0
    0.2641   -3.2847   -0.2596 C   0  0  0  0  0  0  0  0  0  0  0  0
    0.9622   -4.6246   -0.2797 C   0  0  0  0  0  0  0  0  0  0  0  0
    0.7809   -5.1356    0.6856 H   0  0  0  0  0  0  0  0  0  0  0  0
    2.0508   -4.5427   -0.4605 H   0  0  0  0  0  0  0  0  0  0  0  0
    0.5072   -5.2646   -1.0623 H   0  0  0  0  0  0  0  0  0  0  0  0
  1 11  1  0  0  0  0
  2  9  2  0  0  0  0
  3 13  1  0  0  0  0
  5 19  1  0  0  0  0
  6  5  1  0  0  0  0
  7  2  1  0  0  0  0
  7  1  1  0  0  0  0
  8  7  1  0  0  0  0
  9  3  1  0  0  0  0
  9 10  1  0  0  0  0
 10 12  1  0  0  0  0
 11 10  2  0  0  0  0
 11  4  1  0  0  0  0
 13 12  2  0  0  0  0
 13 14  1  0  0  0  0
 15  3  1  0  0  0  0
 15 17  1  0  0  0  0
 16 15  1  0  0  0  0
 18 15  1  0  0  0  0
 19  4  2  0  0  0  0
 20 19  1  0  0  0  0
 20 21  1  0  0  0  0
 22 20  1  0  0  0  0
 23 20  1  0  0  0  0
M  END
