1,2
q = 0.0, confidence = 1.0

 26 28  0  0  1  0  0  0  0  0999 V2000
   -0.1871    1.2342    0.4835 N   0  0  0  0  0  2  0  0  0  0  0  0
   -0.1872   -1.2341   -0.4840 N   0  0  0  0  0  2  0  0  0  0  0  0
   -0.0626    2.5444    0.7883 C   0  0  0  0  0  3  0  0  0  0  0  0
   -1.1116    3.4491    0.6203 C   0  0  0  0  0  0  0  0  0  0  0  0
   -2.3019    2.9834    0.0537 C   0  0  0  0  0  0  0  0  0  0  0  0
   -2.4777    1.6087   -0.2172 C   0  0  0  0  0  0  0  0  0  0  0  0
   -1.4033    0.7356    0.0997 C   0  0  0  0  0  0  0  0  0  0  0  0
   -1.4033   -0.7354   -0.1000 C   0  0  2  0  0  3  0  0  0  0  0  0
   -2.4777   -1.6086    0.2169 C   0  0  0  0  0  0  0  0  0  0  0  0
   -2.3020   -2.9832   -0.0542 C   0  0  0  0  0  0  0  0  0  0  0  0
   -1.1118   -3.4488   -0.6212 C   0  0  0  0  0  0  0  0  0  0  0  0
   -0.0628   -2.5441   -0.7890 C   0  0  0  0  0  0  0  0  0  0  0  0
   -3.7014   -1.2429    0.9747 C   0  0  0  0  0  0  0  0  0  0  0  0
   -4.6980   -0.4084    0.6052 C   0  0  0  0  0  0  0  0  0  0  0  0
   -4.6981    0.4085   -0.6048 C   0  0  0  0  0  0  0  0  0  0  0  0
   -3.7016    1.2430   -0.9746 C   0  0  0  0  0  0  0  0  0  0  0  0
    0.9316    2.8659    1.1304 H   0  0  0  0  0  0  0  0  0  0  0  0
   -0.9694    4.5099    0.8697 H   0  0  0  0  0  0  0  0  0  0  0  0
   -3.1126    3.6835   -0.1988 H   0  0  0  0  0  0  0  0  0  0  0  0
   -3.1127   -3.6833    0.1982 H   0  0  0  0  0  0  0  0  0  0  0  0
   -0.9698   -4.5096   -0.8708 H   0  0  0  0  0  0  0  0  0  0  0  0
    0.9314   -2.8657   -1.1313 H   0  0  0  0  0  0  0  0  0  0  0  0
   -3.8454   -1.8383    1.8937 H   0  0  0  0  0  0  0  0  0  0  0  0
   -5.6077   -0.3808    1.2308 H   0  0  0  0  0  0  0  0  0  0  0  0
   -5.6080    0.3810   -1.2301 H   0  0  0  0  0  0  0  0  0  0  0  0
   -3.8460    1.8385   -1.8935 H   0  0  0  0  0  0  0  0  0  0  0  0
  1  3  1  0  0  0  0
  3 17  1  0  0  0  0
  4  3  1  0  0  0  0
  4 18  1  0  0  0  0
  5  4  2  0  0  0  0
  6  5  1  0  0  0  0
  6  7  2  0  0  0  0
  7  1  1  0  0  0  0
  8  2  1  1  0  0  0
  8  7  1  0  0  0  0
  8  9  1  0  0  0  0
  9 13  1  0  0  0  0
 10 20  1  0  0  0  0
 10  9  2  0  0  0  0
 11 10  1  0  0  0  0
 12 11  2  0  0  0  0
 12  2  1  0  0  0  0
 13 23  1  0  0  0  0
 14 13  2  0  0  0  0
 14 24  1  0  0  0  0
 15 14  1  0  0  0  0
 16 15  2  0  0  0  0
 16  6  1  0  0  0  0
 19  5  1  0  0  0  0
 21 11  1  0  0  0  0
 22 12  1  0  0  0  0
 25 15  1  0  0  0  0
 26 16  1  0  0  0  0
M  END
