1,4
q = 0.0, confidence = 1.0

 22 22  0  0  1  0  0  0  0  0999 V2000
    1.0574   -1.2823   -0.4070 N   0  0  0  0  0  0  0  0  0  0  0  0
    1.3328   -1.6663    0.5106 H   0  0  0  0  0  0  0  0  0  0  0  0
    0.8479   -2.0988   -1.0012 H   0  0  0  0  0  0  0  0  0  0  0  0
    0.6545    1.4743   -0.5810 N   0  0  0  0  0  0  0  0  0  0  0  0
    0.4836    1.7884   -1.5492 H   0  0  0  0  0  0  0  0  0  0  0  0
    0.4828    2.3055    0.0099 H   0  0  0  0  0  0  0  0  0  0  0  0
    2.1481   -0.4489   -0.9978 C   0  0  2  0  0  0  0  0  0  0  0  0
    1.9294   -0.3989   -2.0849 H   0  0  0  0  0  0  0  0  0  0  0  0
    3.5468   -1.0431   -0.7731 C   0  0  0  0  0  0  0  0  0  0  0  0
    4.2693   -0.4708   -1.3940 H   0  0  0  0  0  0  0  0  0  0  0  0
    3.5698   -2.0855   -1.1546 H   0  0  0  0  0  0  0  0  0  0  0  0
    3.9765   -0.9778    0.6995 C   0  0  0  0  0  0  0  0  0  0  0  0
    3.3376   -1.6501    1.3167 H   0  0  0  0  0  0  0  0  0  0  0  0
    5.0072   -1.3720    0.8067 H   0  0  0  0  0  0  0  0  0  0  0  0
    3.8839    0.4532    1.2437 C   0  0  0  0  0  0  0  0  0  0  0  0
    4.1579    0.4800    2.3174 H   0  0  0  0  0  0  0  0  0  0  0  0
    4.6268    1.0924    0.7164 H   0  0  0  0  0  0  0  0  0  0  0  0
    2.4799    1.0394    1.0499 C   0  0  0  0  0  0  0  0  0  0  0  0
    1.7329    0.4843    1.6604 H   0  0  0  0  0  0  0  0  0  0  0  0
    2.4441    2.0918    1.4025 H   0  0  0  0  0  0  0  0  0  0  0  0
    2.0535    0.9834   -0.4213 C   0  0  2  0  0  0  0  0  0  0  0  0
    2.7472    1.6230   -1.0125 H   0  0  0  0  0  0  0  0  0  0  0  0
  1  2  1  0  0  0  0
  3  1  1  0  0  0  0
  4 21  1  0  0  0  0
  4  6  1  0  0  0  0
  5  4  1  0  0  0  0
  7  8  1  6  0  0  0
  7  9  1  0  0  0  0
  7 21  1  0  0  0  0
  7  1  1  0  0  0  0
  9 12  1  0  0  0  0
 10  9  1  0  0  0  0
 11  9  1  0  0  0  0
 12 14  1  0  0  0  0
 12 15  1  0  0  0  0
 12 13  1  0  0  0  0
 15 16  1  0  0  0  0
 17 15  1  0  0  0  0
 18 15  1  0  0  0  0
 18 20  1  0  0  0  0
 18 19  1  0  0  0  0
 21 22  1  6  0  0  0
 21 18  1  0  0  0  0
M  END
