2,3
q = -1.0

 40 42  0  0  1  0  0  0  0  0999 V2000
    0.6401   -1.6738    0.9765 S   0  0  0  0  0  0  0  0  0  0  0  0
   -1.3371    1.7915   -0.5742 N   0  0  0  0  0  2  0  0  0  0  0  0
   -0.1642   -0.2590    0.5174 N   0  0  0  0  0  2  0  0  0  0  0  0
    0.6382   -1.7965    2.4613 O   0  0  0  0  0  0  0  0  0  0  0  0
    0.0780   -2.7794    0.1685 O   0  0  0  0  0  0  0  0  0  0  0  0
   -1.9140    2.7731   -1.2784 C   0  0  0  0  0  0  0  0  0  0  0  0
   -2.6821    2.4704   -2.0027 H   0  0  0  0  0  0  0  0  0  0  0  0
   -1.5487    4.1273   -1.1037 C   0  0  0  0  0  0  0  0  0  0  0  0
   -2.0529    4.8968   -1.7050 H   0  0  0  0  0  0  0  0  0  0  0  0
   -0.5716    4.4606   -0.1766 C   0  0  0  0  0  0  0  0  0  0  0  0
   -0.2840    5.5104   -0.0120 H   0  0  0  0  0  0  0  0  0  0  0  0
    0.0824    3.4364    0.5662 C   0  0  0  0  0  0  0  0  0  0  0  0
    1.1059    3.6623    1.5248 C   0  0  0  0  0  0  0  0  0  0  0  0
    1.4319    4.6910    1.7354 H   0  0  0  0  0  0  0  0  0  0  0  0
    1.6719    2.5732    2.1843 C   0  0  0  0  0  0  0  0  0  0  0  0
    2.4508    2.7466    2.9429 H   0  0  0  0  0  0  0  0  0  0  0  0
    1.2862    1.2410    1.9203 C   0  0  0  0  0  0  0  0  0  0  0  0
    1.7423    0.4169    2.4804 H   0  0  0  0  0  0  0  0  0  0  0  0
    0.2976    0.9654    0.9531 C   0  0  0  0  0  0  0  0  0  0  0  0
   -0.3298    2.0853    0.3089 C   0  0  2  0  0  3  0  0  0  0  0  0
    2.3414   -1.4136    0.4536 C   0  0  0  0  0  0  0  0  0  0  0  0
    2.6037   -0.9994   -0.8609 C   0  0  0  0  0  0  0  0  0  0  0  0
    1.7698   -0.7880   -1.5527 H   0  0  0  0  0  0  0  0  0  0  0  0
    3.9379   -0.8473   -1.2566 C   0  0  0  0  0  0  0  0  0  0  0  0
    4.1584   -0.5165   -2.2842 H   0  0  0  0  0  0  0  0  0  0  0  0
    5.0050   -1.1110   -0.3709 C   0  0  0  0  0  0  0  0  0  0  0  0
    4.7017   -1.5350    0.9393 C   0  0  0  0  0  0  0  0  0  0  0  0
    5.5224   -1.7493    1.6424 H   0  0  0  0  0  0  0  0  0  0  0  0
    3.3742   -1.6880    1.3608 C   0  0  0  0  0  0  0  0  0  0  0  0
    3.1250   -2.0140    2.3811 H   0  0  0  0  0  0  0  0  0  0  0  0
    6.4347   -0.8779   -0.7957 C   0  0  0  0  0  0  0  0  0  0  0  0
    6.5458   -1.1091   -1.8771 H   0  0  0  0  0  0  0  0  0  0  0  0
    7.1063   -1.5776   -0.2531 H   0  0  0  0  0  0  0  0  0  0  0  0
    6.9025    0.5678   -0.5411 C   0  0  0  0  0  0  0  0  0  0  0  0
    6.7784    0.7983    0.5395 H   0  0  0  0  0  0  0  0  0  0  0  0
    6.2192    1.2637   -1.0746 H   0  0  0  0  0  0  0  0  0  0  0  0
    8.3480    0.8155   -0.9705 C   0  0  0  0  0  0  0  0  0  0  0  0
    9.0511    0.1512   -0.4256 H   0  0  0  0  0  0  0  0  0  0  0  0
    8.6577    1.8620   -0.7759 H   0  0  0  0  0  0  0  0  0  0  0  0
    8.4860    0.6216   -2.0548 H   0  0  0  0  0  0  0  0  0  0  0  0
  1  4  2  0  0  0  0
  3 19  1  0  0  0  0
  3  1  1  0  0  0  0
  5  1  2  0  0  0  0
  6  8  2  0  0  0  0
  6  2  1  0  0  0  0
  7  6  1  0  0  0  0
  8 10  1  0  0  0  0
  9  8  1  0  0  0  0
 10 11  1  0  0  0  0
 10 12  2  0  0  0  0
 12 13  1  0  0  0  0
 13 14  1  0  0  0  0
 13 15  2  0  0  0  0
 15 16  1  0  0  0  0
 17 15  1  0  0  0  0
 17 18  1  0  0  0  0
 19 17  2  0  0  0  0
 20  2  1  6  0  0  0
 20 12  1  0  0  0  0
 20 19  1  0  0  0  0
 21  1  1  0  0  0  0
 21 29  1  0  0  0  0
 22 21  2  0  0  0  0
 23 22  1  0  0  0  0
 24 22  1  0  0  0  0
 24 26  2  0  0  0  0
 25 24  1  0  0  0  0
 26 27  1  0  0  0  0
 27 29  2  0  0  0  0
 27 28  1  0  0  0  0
 29 30  1  0  0  0  0
 31 34  1  0  0  0  0
 31 26  1  0  0  0  0
 31 33  1  0  0  0  0
 32 31  1  0  0  0  0
 34 35  1  0  0  0  0
 36 34  1  0  0  0  0
 37 39  1  0  0  0  0
 37 34  1  0  0  0  0
 37 38  1  0  0  0  0
 40 37  1  0  0  0  0
M  END
