1,16
q = 0.0, confidence = 1.0

 40 42  0  0  0  0  0  0  0  0999 V2000
    1.3680   -1.5832   -0.4999 N   0  0  0  0  0  2  0  0  0  0  0  0
    0.1536   -1.9258   -0.0205 N   0  0  0  0  0  0  0  0  0  0  0  0
    1.5426   -2.2540   -1.6476 C   0  0  0  0  0  3  0  0  0  0  0  0
    2.4794   -2.1029   -2.2004 H   0  0  0  0  0  0  0  0  0  0  0  0
    0.4112   -3.0561   -1.9168 C   0  0  0  0  0  0  0  0  0  0  0  0
    0.2472   -3.7248   -2.7673 H   0  0  0  0  0  0  0  0  0  0  0  0
   -0.4588   -2.8158   -0.8541 C   0  0  0  0  0  0  0  0  0  0  0  0
   -1.4582   -3.2036   -0.6353 H   0  0  0  0  0  0  0  0  0  0  0  0
   -0.3499   -1.2922    1.2064 C   0  0  0  0  0  0  0  0  0  0  0  0
   -1.0130   -2.0290    1.6970 H   0  0  0  0  0  0  0  0  0  0  0  0
    0.5371   -1.1336    1.8571 H   0  0  0  0  0  0  0  0  0  0  0  0
   -0.3253    1.1811    1.3752 C   0  0  0  0  0  0  0  0  0  0  0  0
    0.4964    0.9185    2.0764 H   0  0  0  0  0  0  0  0  0  0  0  0
   -1.0217    1.8883    1.8665 H   0  0  0  0  0  0  0  0  0  0  0  0
    0.3144    1.9428    0.2825 N   0  0  0  0  0  0  0  0  0  0  0  0
    1.4450    1.4883   -0.2952 N   0  0  0  0  0  2  0  0  0  0  0  0
   -0.0504    3.1423   -0.2561 C   0  0  0  0  0  3  0  0  0  0  0  0
   -0.9299    3.6853    0.1069 H   0  0  0  0  0  0  0  0  0  0  0  0
    0.8851    3.4623   -1.2385 C   0  0  0  0  0  0  0  0  0  0  0  0
    0.9031    4.3556   -1.8702 H   0  0  0  0  0  0  0  0  0  0  0  0
    1.8026    2.3884   -1.2241 C   0  0  0  0  0  0  0  0  0  0  0  0
    2.7128    2.1961   -1.8084 H   0  0  0  0  0  0  0  0  0  0  0  0
   -1.0185   -0.0284    1.0040 N   0  0  0  0  0  0  0  0  0  0  0  0
   -2.3528    0.0096    0.5402 C   0  0  0  0  0  0  0  0  0  0  0  0
   -3.1556   -1.1591    0.5098 C   0  0  0  0  0  0  0  0  0  0  0  0
   -2.7585   -2.1243    0.8485 H   0  0  0  0  0  0  0  0  0  0  0  0
   -4.4914   -1.1242    0.0812 C   0  0  0  0  0  0  0  0  0  0  0  0
   -5.3234   -2.3829    0.0590 C   0  0  0  0  0  0  0  0  0  0  0  0
   -6.2425   -2.2679    0.6698 H   0  0  0  0  0  0  0  0  0  0  0  0
   -4.7648   -3.2558    0.4490 H   0  0  0  0  0  0  0  0  0  0  0  0
   -5.6544   -2.6248   -0.9727 H   0  0  0  0  0  0  0  0  0  0  0  0
   -5.0485    0.1019   -0.3323 C   0  0  0  0  0  0  0  0  0  0  0  0
   -6.0933    0.1367   -0.6793 H   0  0  0  0  0  0  0  0  0  0  0  0
   -4.2833    1.2780   -0.3141 C   0  0  0  0  0  0  0  0  0  0  0  0
   -4.8730    2.6001   -0.7400 C   0  0  0  0  0  0  0  0  0  0  0  0
   -5.8343    2.4661   -1.2721 H   0  0  0  0  0  0  0  0  0  0  0  0
   -4.1848    3.1553   -1.4094 H   0  0  0  0  0  0  0  0  0  0  0  0
   -5.0668    3.2524    0.1383 H   0  0  0  0  0  0  0  0  0  0  0  0
   -2.9434    1.2190    0.1157 C   0  0  0  0  0  0  0  0  0  0  0  0
   -2.3562    2.1423    0.0839 H   0  0  0  0  0  0  0  0  0  0  0  0
  1  2  1  0  0  0  0
  2  9  1  0  0  0  0
  3  1  1  0  0  0  0
  4  3  1  0  0  0  0
  5  3  1  0  0  0  0
  5  7  2  0  0  0  0
  6  5  1  0  0  0  0
  7  8  1  0  0  0  0
  7  2  1  0  0  0  0
  9 10  1  0  0  0  0
  9 11  1  0  0  0  0
 12 14  1  0  0  0  0
 12 13  1  0  0  0  0
 15 12  1  0  0  0  0
 16 15  1  0  0  0  0
 17 18  1  0  0  0  0
 17 15  1  0  0  0  0
 19 21  2  0  0  0  0
 19 17  1  0  0  0  0
 20 19  1  0  0  0  0
 21 16  1  0  0  0  0
 22 21  1  0  0  0  0
 23  9  1  0  0  0  0
 23 12  1  0  0  0  0
 24 23  1  0  0  0  0
 25 24  1  0  0  0  0
 25 26  1  0  0  0  0
 27 25  2  0  0  0  0
 28 27  1  0  0  0  0
 28 30  1  0  0  0  0
 28 29  1  0  0  0  0
 31 28  1  0  0  0  0
 32 34  2  0  0  0  0
 32 27  1  0  0  0  0
 33 32  1  0  0  0  0
 34 39  1  0  0  0  0
 35 34  1  0  0  0  0
 35 38  1  0  0  0  0
 36 35  1  0  0  0  0
 37 35  1  0  0  0  0
 39 24  2  0  0  0  0
 40 39  1  0  0  0  0
M  END
