1,16
q = 0.0, confidence = 0.998

 34 36  0  0  0  0  0  0  0  0999 V2000
   -2.0372    1.4914   -0.4094 N   0  0  0  0  0  2  0  0  0  0  0  0
   -0.9602    1.9720    0.2441 N   0  0  0  0  0  0  0  0  0  0  0  0
   -2.3173    2.3568   -1.3961 C   0  0  0  0  0  3  0  0  0  0  0  0
   -3.1752    2.1402   -2.0472 H   0  0  0  0  0  0  0  0  0  0  0  0
   -1.4043    3.4344   -1.3717 C   0  0  0  0  0  0  0  0  0  0  0  0
   -1.3711    4.3048   -2.0341 H   0  0  0  0  0  0  0  0  0  0  0  0
   -0.5541    3.1547   -0.3035 C   0  0  0  0  0  0  0  0  0  0  0  0
    0.2891    3.7161    0.1144 H   0  0  0  0  0  0  0  0  0  0  0  0
   -0.4149    1.2582    1.4149 C   0  0  0  0  0  0  0  0  0  0  0  0
    0.2598    1.9782    1.9184 H   0  0  0  0  0  0  0  0  0  0  0  0
   -1.2873    1.0427    2.0699 H   0  0  0  0  0  0  0  0  0  0  0  0
   -0.4167   -1.2259    1.4022 C   0  0  0  0  0  0  0  0  0  0  0  0
   -1.3460   -1.0115    1.9735 H   0  0  0  0  0  0  0  0  0  0  0  0
    0.2009   -1.9278    1.9941 H   0  0  0  0  0  0  0  0  0  0  0  0
   -0.8345   -1.9449    0.1927 N   0  0  0  0  0  0  0  0  0  0  0  0
   -1.9859   -1.6029   -0.4231 N   0  0  0  0  0  2  0  0  0  0  0  0
   -0.1889   -2.9249   -0.5044 C   0  0  0  0  0  3  0  0  0  0  0  0
    0.7672   -3.3322   -0.1618 H   0  0  0  0  0  0  0  0  0  0  0  0
   -0.9702   -3.2253   -1.6189 C   0  0  0  0  0  0  0  0  0  0  0  0
   -0.7602   -3.9707   -2.3921 H   0  0  0  0  0  0  0  0  0  0  0  0
   -2.0861   -2.3640   -1.5222 C   0  0  0  0  0  0  0  0  0  0  0  0
   -2.9643   -2.2310   -2.1681 H   0  0  0  0  0  0  0  0  0  0  0  0
    0.2780    0.0178    1.1533 N   0  0  0  0  0  0  0  0  0  0  0  0
    1.6338    0.0114    0.7679 C   0  0  0  0  0  0  0  0  0  0  0  0
    2.2643    1.1804    0.2763 C   0  0  0  0  0  0  0  0  0  0  0  0
    1.6917    2.1009    0.1267 H   0  0  0  0  0  0  0  0  0  0  0  0
    3.6211    1.1931   -0.0687 C   0  0  0  0  0  0  0  0  0  0  0  0
    4.0777    2.1164   -0.4521 H   0  0  0  0  0  0  0  0  0  0  0  0
    4.3892    0.0277    0.0583 C   0  0  0  0  0  0  0  0  0  0  0  0
    6.2277    0.0352   -0.4238 Br  0  0  0  0  0  0  0  0  0  0  0  0
    3.7904   -1.1473    0.5352 C   0  0  0  0  0  0  0  0  0  0  0  0
    4.3858   -2.0647    0.6440 H   0  0  0  0  0  0  0  0  0  0  0  0
    2.4346   -1.1535    0.8817 C   0  0  0  0  0  0  0  0  0  0  0  0
    2.0181   -2.0895    1.2730 H   0  0  0  0  0  0  0  0  0  0  0  0
  1  2  1  0  0  0  0
  2  9  1  0  0  0  0
  3  5  1  0  0  0  0
  3  1  1  0  0  0  0
  4  3  1  0  0  0  0
  5  7  2  0  0  0  0
  6  5  1  0  0  0  0
  7  8  1  0  0  0  0
  7  2  1  0  0  0  0
  9 10  1  0  0  0  0
  9 11  1  0  0  0  0
 12 13  1  0  0  0  0
 12 14  1  0  0  0  0
 15 12  1  0  0  0  0
 16 15  1  0  0  0  0
 17 18  1  0  0  0  0
 17 15  1  0  0  0  0
 19 21  2  0  0  0  0
 19 17  1  0  0  0  0
 20 19  1  0  0  0  0
 21 16  1  0  0  0  0
 22 21  1  0  0  0  0
 23 12  1  0  0  0  0
 23  9  1  0  0  0  0
 24 33  1  0  0  0  0
 24 23  1  0  0  0  0
 25 24  2  0  0  0  0
 26 25  1  0  0  0  0
 27 29  2  0  0  0  0
 27 25  1  0  0  0  0
 28 27  1  0  0  0  0
 29 31  1  0  0  0  0
 30 29  1  0  0  0  0
 31 32  1  0  0  0  0
 31 33  2  0  0  0  0
 33 34  1  0  0  0  0
M  END
