1,2
q = 0.0, confidence = 0.998

 42 46  0  0  0  0  0  0  0  0999 V2000
   -0.9767   -1.8299    0.2417 N   0  0  0  0  0  2  0  0  0  0  0  0
    1.2128   -1.0906   -1.1667 N   0  0  0  0  0  2  0  0  0  0  0  0
   -2.1294   -2.1515    0.8647 C   0  0  0  0  0  0  0  0  0  0  0  0
   -2.5391   -3.5109    0.9778 C   0  0  0  0  0  0  0  0  0  0  0  0
   -1.7479   -4.5267    0.4620 C   0  0  0  0  0  0  0  0  0  0  0  0
    0.3675   -5.1820   -0.7382 C   0  0  0  0  0  0  0  0  0  0  0  0
    1.5453   -4.8067   -1.3438 C   0  0  0  0  0  0  0  0  0  0  0  0
    3.0837   -2.9613   -2.1046 C   0  0  0  0  0  0  0  0  0  0  0  0
    3.3229   -1.5975   -2.2120 C   0  0  0  0  0  0  0  0  0  0  0  0
    2.3534   -0.6689   -1.7458 C   0  0  0  0  0  0  0  0  0  0  0  0
   -0.2144   -2.8173   -0.3121 C   0  0  0  0  0  0  0  0  0  0  0  0
   -0.5382   -4.2019   -0.2062 C   0  0  0  0  0  0  0  0  0  0  0  0
    1.8852   -3.4199   -1.4977 C   0  0  0  0  0  0  0  0  0  0  0  0
    0.9861   -2.4241   -1.0141 C   0  0  0  0  0  0  0  0  0  0  0  0
   -2.9568   -1.0617    1.4297 C   0  0  0  0  0  0  0  0  0  0  0  0
   -2.3587    0.0707    2.0251 C   0  0  0  0  0  0  0  0  0  0  0  0
   -3.1471    1.1111    2.5310 C   0  0  0  0  0  0  0  0  0  0  0  0
   -4.5473    1.0361    2.4524 C   0  0  0  0  0  0  0  0  0  0  0  0
   -5.1538   -0.0913    1.8752 C   0  0  0  0  0  0  0  0  0  0  0  0
   -4.3665   -1.1350    1.3729 C   0  0  0  0  0  0  0  0  0  0  0  0
    2.5522    0.7947   -1.8719 C   0  0  0  0  0  0  0  0  0  0  0  0
    3.7773    1.3890   -1.5015 C   0  0  0  0  0  0  0  0  0  0  0  0
    3.9372    2.7808   -1.5632 C   0  0  0  0  0  0  0  0  0  0  0  0
    2.8849    3.5921   -2.0169 C   0  0  0  0  0  0  0  0  0  0  0  0
    1.6719    3.0054   -2.4142 C   0  0  0  0  0  0  0  0  0  0  0  0
    1.5039    1.6172   -2.3373 C   0  0  0  0  0  0  0  0  0  0  0  0
   -3.4662   -3.7456    1.5180 H   0  0  0  0  0  0  0  0  0  0  0  0
   -2.0415   -5.5811    0.5771 H   0  0  0  0  0  0  0  0  0  0  0  0
    0.1071   -6.2463   -0.6364 H   0  0  0  0  0  0  0  0  0  0  0  0
    2.2429   -5.5661   -1.7277 H   0  0  0  0  0  0  0  0  0  0  0  0
    3.8112   -3.6913   -2.4907 H   0  0  0  0  0  0  0  0  0  0  0  0
    4.2364   -1.2212   -2.6931 H   0  0  0  0  0  0  0  0  0  0  0  0
   -1.2621    0.1302    2.0967 H   0  0  0  0  0  0  0  0  0  0  0  0
   -2.6648    1.9830    2.9981 H   0  0  0  0  0  0  0  0  0  0  0  0
   -5.1676    1.8536    2.8499 H   0  0  0  0  0  0  0  0  0  0  0  0
   -6.2500   -0.1541    1.8063 H   0  0  0  0  0  0  0  0  0  0  0  0
   -4.8502   -1.9967    0.8899 H   0  0  0  0  0  0  0  0  0  0  0  0
    4.5996    0.7569   -1.1325 H   0  0  0  0  0  0  0  0  0  0  0  0
    4.8901    3.2348   -1.2531 H   0  0  0  0  0  0  0  0  0  0  0  0
    3.0126    4.6835   -2.0688 H   0  0  0  0  0  0  0  0  0  0  0  0
    0.8508    3.6342   -2.7896 H   0  0  0  0  0  0  0  0  0  0  0  0
    0.5584    1.1573   -2.6575 H   0  0  0  0  0  0  0  0  0  0  0  0
  1  3  1  0  0  0  0
  2 14  1  0  0  0  0
  3  4  2  0  0  0  0
  3 15  1  0  0  0  0
  4 27  1  0  0  0  0
  5 28  1  0  0  0  0
  5  4  1  0  0  0  0
  6 29  1  0  0  0  0
  6 12  1  0  0  0  0
  7  6  2  0  0  0  0
  8 13  2  0  0  0  0
  9  8  1  0  0  0  0
  9 10  2  0  0  0  0
 10  2  1  0  0  0  0
 11 12  1  0  0  0  0
 11  1  1  0  0  0  0
 12  5  2  0  0  0  0
 13  7  1  0  0  0  0
 13 14  1  0  0  0  0
 14 11  2  0  0  0  0
 15 16  1  0  0  0  0
 16 33  1  0  0  0  0
 16 17  2  0  0  0  0
 17 34  1  0  0  0  0
 18 17  1  0  0  0  0
 18 35  1  0  0  0  0
 19 18  2  0  0  0  0
 20 15  2  0  0  0  0
 20 19  1  0  0  0  0
 21 10  1  0  0  0  0
 21 22  1  0  0  0  0
 22 38  1  0  0  0  0
 23 22  2  0  0  0  0
 23 39  1  0  0  0  0
 24 23  1  0  0  0  0
 25 26  1  0  0  0  0
 25 24  2  0  0  0  0
 26 21  2  0  0  0  0
 30  7  1  0  0  0  0
 31  8  1  0  0  0  0
 32  9  1  0  0  0  0
 36 19  1  0  0  0  0
 37 20  1  0  0  0  0
 40 24  1  0  0  0  0
 41 25  1  0  0  0  0
 42 26  1  0  0  0  0
M  END
