7,17
q = -1.0

 26 27  0  0  1  0  0  0  0  0999 V2000
   -0.4140    0.9662    2.1089 O   0  0  0  0  0  1  0  0  0  0  0  0
    0.9513    3.0987    2.1513 O   0  0  0  0  0  1  0  0  0  0  0  0
    2.1140    0.8386    2.0661 O   0  0  0  0  0  1  0  0  0  0  0  0
    0.8835    1.6516    1.8194 S   0  0  0  0  0  0  0  0  0  0  0  0
    0.9060    1.7816   -0.2224 C   0  0  2  0  0  0  0  0  0  0  0  0
    1.3947    2.7643   -0.3054 H   0  0  0  0  0  0  0  0  0  0  0  0
   -1.2170    0.7292   -0.9190 N   0  0  0  0  0  2  0  0  0  0  0  0
   -2.4822    0.8064   -1.3982 C   0  0  0  0  0  3  0  0  0  0  0  0
   -3.0150   -0.1498   -1.4946 H   0  0  0  0  0  0  0  0  0  0  0  0
   -3.0888    2.0269   -1.6875 C   0  0  0  0  0  0  0  0  0  0  0  0
   -4.1153    2.0427   -2.0780 H   0  0  0  0  0  0  0  0  0  0  0  0
   -2.3748    3.2095   -1.4315 C   0  0  0  0  0  0  0  0  0  0  0  0
   -2.8352    4.1927   -1.6107 H   0  0  0  0  0  0  0  0  0  0  0  0
   -1.0698    3.1231   -0.9487 C   0  0  0  0  0  0  0  0  0  0  0  0
   -0.4800    4.0229   -0.7270 H   0  0  0  0  0  0  0  0  0  0  0  0
   -0.4806    1.8604   -0.7211 C   0  0  0  0  0  0  0  0  0  0  0  0
    1.3721   -0.5559   -0.8362 N   0  0  0  0  0  2  0  0  0  0  0  0
    2.1884   -1.4997   -1.3722 C   0  0  0  0  0  3  0  0  0  0  0  0
    1.7584   -2.5032   -1.4818 H   0  0  0  0  0  0  0  0  0  0  0  0
    3.4923   -1.2246   -1.7720 C   0  0  0  0  0  0  0  0  0  0  0  0
    4.1091   -2.0278   -2.1976 H   0  0  0  0  0  0  0  0  0  0  0  0
    3.9823    0.0832   -1.6097 C   0  0  0  0  0  0  0  0  0  0  0  0
    5.0153    0.3364   -1.8901 H   0  0  0  0  0  0  0  0  0  0  0  0
    3.1287    1.0589   -1.1032 C   0  0  0  0  0  0  0  0  0  0  0  0
    3.4645    2.0968   -0.9742 H   0  0  0  0  0  0  0  0  0  0  0  0
    1.8024    0.7350   -0.7384 C   0  0  0  0  0  0  0  0  0  0  0  0
  4  3  1  0  0  0  0
  4  1  1  0  0  0  0
  4  2  1  0  0  0  0
  5  6  1  6  0  0  0
  5  4  1  0  0  0  0
  7 16  1  0  0  0  0
  8  7  1  0  0  0  0
  9  8  1  0  0  0  0
 10 12  2  0  0  0  0
 10  8  1  0  0  0  0
 11 10  1  0  0  0  0
 12 14  1  0  0  0  0
 13 12  1  0  0  0  0
 14 15  1  0  0  0  0
 14 16  2  0  0  0  0
 16  5  1  0  0  0  0
 17 26  1  0  0  0  0
 18 17  1  0  0  0  0
 19 18  1  0  0  0  0
 20 22  2  0  0  0  0
 20 18  1  0  0  0  0
 21 20  1  0  0  0  0
 22 24  1  0  0  0  0
 23 22  1  0  0  0  0
 24 25  1  0  0  0  0
 24 26  2  0  0  0  0
 26  5  1  0  0  0  0
M  END
