2,3
q = 0.0, confidence = 0.99

 24 24  0  0  0  0  0  0  0  0999 V2000
    2.1153   -1.6575   -0.5931 N   0  0  0  0  0  0  0  0  0  0  0  0
    1.6626    1.2158   -1.1817 N   0  0  0  0  0  2  0  0  0  0  0  0
   -0.7889    2.5554   -1.0662 N   0  0  0  0  0  0  0  0  0  0  0  0
    3.0895   -0.6775   -0.6361 C   0  0  0  0  0  0  0  0  0  0  0  0
    4.3072   -1.2707   -0.2147 C   0  0  0  0  0  0  0  0  0  0  0  0
    4.0280   -2.6170    0.0927 C   0  0  0  0  0  0  0  0  0  0  0  0
    2.6557   -2.8192   -0.1620 C   0  0  0  0  0  0  0  0  0  0  0  0
    2.8409    0.6753   -1.0058 C   0  0  0  0  0  3  0  0  0  0  0  0
    1.6029    2.5839   -1.6598 C   0  0  0  0  0  0  0  0  0  0  0  0
    0.4553    3.3357   -0.9768 C   0  0  0  0  0  0  0  0  0  0  0  0
   -1.4273    2.5387   -2.3854 C   0  0  0  0  0  0  0  0  0  0  0  0
    1.1157   -1.5374   -0.9194 H   0  0  0  0  0  0  0  0  0  0  0  0
    5.2692   -0.7512   -0.1289 H   0  0  0  0  0  0  0  0  0  0  0  0
    4.7316   -3.3722    0.4601 H   0  0  0  0  0  0  0  0  0  0  0  0
    2.0148   -3.7038   -0.0725 H   0  0  0  0  0  0  0  0  0  0  0  0
    3.7531    1.2991   -1.1435 H   0  0  0  0  0  0  0  0  0  0  0  0
   -1.4585    2.8808   -0.3584 H   0  0  0  0  0  0  0  0  0  0  0  0
    1.4355    2.5809   -2.7627 H   0  0  0  0  0  0  0  0  0  0  0  0
    2.5563    3.1374   -1.4927 H   0  0  0  0  0  0  0  0  0  0  0  0
    0.6885    3.4517    0.1013 H   0  0  0  0  0  0  0  0  0  0  0  0
    0.3471    4.3521   -1.4235 H   0  0  0  0  0  0  0  0  0  0  0  0
   -1.6134    3.5608   -2.7884 H   0  0  0  0  0  0  0  0  0  0  0  0
   -2.3925    2.0018   -2.3163 H   0  0  0  0  0  0  0  0  0  0  0  0
   -0.7945    1.9870   -3.1075 H   0  0  0  0  0  0  0  0  0  0  0  0
  1  7  1  0  0  0  0
  2  8  1  0  0  0  0
  3 10  1  0  0  0  0
  3 17  1  0  0  0  0
  4  1  1  0  0  0  0
  4  5  2  0  0  0  0
  5 13  1  0  0  0  0
  5  6  1  0  0  0  0
  6 14  1  0  0  0  0
  7 15  1  0  0  0  0
  7  6  2  0  0  0  0
  8  4  1  0  0  0  0
  9 19  1  0  0  0  0
  9  2  1  0  0  0  0
  9 10  1  0  0  0  0
 10 20  1  0  0  0  0
 11 23  1  0  0  0  0
 11  3  1  0  0  0  0
 12  1  1  0  0  0  0
 16  8  1  0  0  0  0
 18  9  1  0  0  0  0
 21 10  1  0  0  0  0
 22 11  1  0  0  0  0
 24 11  1  0  0  0  0
M  END
