1,2
q = -1.0

 57 58  0  0  0  0  0  0  0  0999 V2000
    1.6733    1.2094   -0.4990 N   0  0  0  0  0  2  0  0  0  0  0  0
   -0.8493    1.1000    0.1412 N   0  0  0  0  0  2  0  0  0  0  0  0
    1.0969    2.3840   -0.4539 C   0  0  0  0  0  0  0  0  0  0  0  0
    1.7757    3.7028   -0.7177 C   0  0  0  0  0  0  0  0  0  0  0  0
    2.6084    3.5637   -1.4359 H   0  0  0  0  0  0  0  0  0  0  0  0
    2.2473    4.0376    0.2352 H   0  0  0  0  0  0  0  0  0  0  0  0
    0.7867    4.7666   -1.2022 C   0  0  0  0  0  0  0  0  0  0  0  0
    1.3075    5.7371   -1.3263 H   0  0  0  0  0  0  0  0  0  0  0  0
    0.3993    4.4733   -2.2017 H   0  0  0  0  0  0  0  0  0  0  0  0
   -0.3884    4.8956   -0.2313 C   0  0  0  0  0  0  0  0  0  0  0  0
   -0.0515    5.3916    0.7125 H   0  0  0  0  0  0  0  0  0  0  0  0
   -1.1675    5.5698   -0.6459 H   0  0  0  0  0  0  0  0  0  0  0  0
   -0.9948    3.5627    0.0877 C   0  0  0  0  0  3  0  0  0  0  0  0
   -2.0279    3.5277    0.4661 H   0  0  0  0  0  0  0  0  0  0  0  0
   -0.3192    2.3761   -0.0706 C   0  0  0  0  0  0  0  0  0  0  0  0
    3.0962    1.0589   -0.8201 C   0  0  0  0  0  0  0  0  0  0  0  0
    3.3284    1.6069   -1.7611 H   0  0  0  0  0  0  0  0  0  0  0  0
    3.2679   -0.0140   -1.0428 H   0  0  0  0  0  0  0  0  0  0  0  0
    4.0452    1.4930    0.3037 C   0  0  0  0  0  0  0  0  0  0  0  0
    3.7048    1.0240    1.2510 H   0  0  0  0  0  0  0  0  0  0  0  0
    3.9879    2.5916    0.4570 H   0  0  0  0  0  0  0  0  0  0  0  0
    5.4950    1.0895    0.0204 C   0  0  0  0  0  0  0  0  0  0  0  0
    5.8176    1.5197   -0.9541 H   0  0  0  0  0  0  0  0  0  0  0  0
    5.5416   -0.0145   -0.1060 H   0  0  0  0  0  0  0  0  0  0  0  0
    6.4603    1.5230    1.1237 C   0  0  0  0  0  0  0  0  0  0  0  0
    6.4601    2.6258    1.2521 H   0  0  0  0  0  0  0  0  0  0  0  0
    7.5006    1.2128    0.9004 H   0  0  0  0  0  0  0  0  0  0  0  0
    6.1791    1.0763    2.0997 H   0  0  0  0  0  0  0  0  0  0  0  0
   -2.2346    1.0542    0.5273 C   0  0  0  0  0  0  0  0  0  0  0  0
   -2.5698    1.0194    1.9077 C   0  0  0  0  0  0  0  0  0  0  0  0
   -3.9316    0.9803    2.2601 C   0  0  0  0  0  0  0  0  0  0  0  0
   -4.2108    0.9426    3.3244 H   0  0  0  0  0  0  0  0  0  0  0  0
   -4.9333    0.9813    1.2822 C   0  0  0  0  0  0  0  0  0  0  0  0
   -5.9928    0.9455    1.5782 H   0  0  0  0  0  0  0  0  0  0  0  0
   -4.5849    1.0229   -0.0736 C   0  0  0  0  0  0  0  0  0  0  0  0
   -5.3770    1.0181   -0.8384 H   0  0  0  0  0  0  0  0  0  0  0  0
   -3.2388    1.0622   -0.4795 C   0  0  0  0  0  0  0  0  0  0  0  0
   -1.5012    1.0229    2.9937 C   0  0  0  0  0  0  0  0  0  0  0  0
   -0.5167    0.9484    2.4866 H   0  0  0  0  0  0  0  0  0  0  0  0
   -1.6226   -0.1918    3.9274 C   0  0  0  0  0  0  0  0  0  0  0  0
   -2.5682   -0.1698    4.5078 H   0  0  0  0  0  0  0  0  0  0  0  0
   -0.7841   -0.2076    4.6531 H   0  0  0  0  0  0  0  0  0  0  0  0
   -1.5967   -1.1396    3.3538 H   0  0  0  0  0  0  0  0  0  0  0  0
   -1.5108    2.3456    3.7801 C   0  0  0  0  0  0  0  0  0  0  0  0
   -2.4701    2.4850    4.3212 H   0  0  0  0  0  0  0  0  0  0  0  0
   -1.3739    3.2160    3.1070 H   0  0  0  0  0  0  0  0  0  0  0  0
   -0.6952    2.3611    4.5322 H   0  0  0  0  0  0  0  0  0  0  0  0
   -2.8919    1.1063   -1.9629 C   0  0  0  0  0  0  0  0  0  0  0  0
   -1.7880    1.0317   -2.0469 H   0  0  0  0  0  0  0  0  0  0  0  0
   -3.4854   -0.0871   -2.7293 C   0  0  0  0  0  0  0  0  0  0  0  0
   -3.1676   -1.0484   -2.2797 H   0  0  0  0  0  0  0  0  0  0  0  0
   -3.1481   -0.0741   -3.7858 H   0  0  0  0  0  0  0  0  0  0  0  0
   -4.5948   -0.0611   -2.7311 H   0  0  0  0  0  0  0  0  0  0  0  0
   -3.3123    2.4440   -2.5974 C   0  0  0  0  0  0  0  0  0  0  0  0
   -4.4137    2.5787   -2.5595 H   0  0  0  0  0  0  0  0  0  0  0  0
   -3.0054    2.4856   -3.6629 H   0  0  0  0  0  0  0  0  0  0  0  0
   -2.8486    3.3036   -2.0730 H   0  0  0  0  0  0  0  0  0  0  0  0
  1  3  1  0  0  0  0
  2 29  1  0  0  0  0
  3 15  2  0  0  0  0
  4  3  1  0  0  0  0
  4  6  1  0  0  0  0
  5  4  1  0  0  0  0
  7  4  1  0  0  0  0
  7 10  1  0  0  0  0
  8  7  1  0  0  0  0
  9  7  1  0  0  0  0
 10 13  1  0  0  0  0
 10 11  1  0  0  0  0
 12 10  1  0  0  0  0
 13 14  1  0  0  0  0
 15 13  1  0  0  0  0
 15  2  1  0  0  0  0
 16  1  1  0  0  0  0
 16 19  1  0  0  0  0
 17 16  1  0  0  0  0
 18 16  1  0  0  0  0
 19 21  1  0  0  0  0
 19 20  1  0  0  0  0
 22 19  1  0  0  0  0
 22 25  1  0  0  0  0
 23 22  1  0  0  0  0
 24 22  1  0  0  0  0
 25 26  1  0  0  0  0
 25 28  1  0  0  0  0
 27 25  1  0  0  0  0
 29 30  1  0  0  0  0
 30 31  2  0  0  0  0
 30 38  1  0  0  0  0
 31 32  1  0  0  0  0
 33 34  1  0  0  0  0
 33 31  1  0  0  0  0
 35 33  2  0  0  0  0
 36 35  1  0  0  0  0
 37 35  1  0  0  0  0
 37 29  2  0  0  0  0
 38 44  1  0  0  0  0
 38 40  1  0  0  0  0
 39 38  1  0  0  0  0
 40 41  1  0  0  0  0
 40 42  1  0  0  0  0
 43 40  1  0  0  0  0
 44 45  1  0  0  0  0
 44 47  1  0  0  0  0
 46 44  1  0  0  0  0
 48 37  1  0  0  0  0
 49 48  1  0  0  0  0
 50 51  1  0  0  0  0
 50 48  1  0  0  0  0
 52 50  1  0  0  0  0
 53 50  1  0  0  0  0
 54 55  1  0  0  0  0
 54 57  1  0  0  0  0
 54 48  1  0  0  0  0
 56 54  1  0  0  0  0
M  END
