1,4
q = -1.0, confidence = 0.036

 45 47  0  0  0  0  0  0  0  0999 V2000
    0.5487    1.3789    0.5565 N   0  0  0  0  0  2  0  0  0  0  0  0
    1.8236    1.2512    0.3743 N   0  0  0  0  0  0  0  0  0  0  0  0
    1.8137   -1.1429    0.3672 N   0  0  0  0  0  2  0  0  0  0  0  0
    0.5392   -1.2985    0.5346 N   0  0  0  0  0  2  0  0  0  0  0  0
    8.9755    0.0110   -1.9938 N   0  0  0  0  0  0  0  0  0  0  0  0
    2.3703    0.0529    0.0652 C   0  0  0  0  0  0  0  0  0  0  0  0
    0.1374    2.5579    1.2190 C   0  0  0  0  0  0  0  0  0  0  0  0
    0.9488    3.7144    1.2920 C   0  0  0  0  0  0  0  0  0  0  0  0
    1.9495    3.6871    0.8404 H   0  0  0  0  0  0  0  0  0  0  0  0
    0.4643    4.8662    1.9142 C   0  0  0  0  0  0  0  0  0  0  0  0
    1.1013    5.7646    1.9496 H   0  0  0  0  0  0  0  0  0  0  0  0
   -0.8245    4.9109    2.4959 C   0  0  0  0  0  0  0  0  0  0  0  0
   -1.6139    3.7450    2.4291 C   0  0  0  0  0  0  0  0  0  0  0  0
   -2.6173    3.7453    2.8831 H   0  0  0  0  0  0  0  0  0  0  0  0
   -1.1460    2.5828    1.8063 C   0  0  0  0  0  0  0  0  0  0  0  0
   -1.7616    1.6710    1.7633 H   0  0  0  0  0  0  0  0  0  0  0  0
   -1.3167    6.1583    3.1824 C   0  0  0  0  0  0  0  0  0  0  0  0
   -1.1485    7.0598    2.5581 H   0  0  0  0  0  0  0  0  0  0  0  0
   -0.7769    6.3282    4.1387 H   0  0  0  0  0  0  0  0  0  0  0  0
   -2.3972    6.0983    3.4163 H   0  0  0  0  0  0  0  0  0  0  0  0
    3.7817    0.0450   -0.3655 C   0  0  0  0  0  0  0  0  0  0  0  0
    4.4459   -1.1737   -0.6383 C   0  0  0  0  0  0  0  0  0  0  0  0
    3.8926   -2.1155   -0.5202 H   0  0  0  0  0  0  0  0  0  0  0  0
    5.7778   -1.1880   -1.0521 C   0  0  0  0  0  0  0  0  0  0  0  0
    6.2844   -2.1412   -1.2603 H   0  0  0  0  0  0  0  0  0  0  0  0
    6.4881    0.0264   -1.2132 C   0  0  0  0  0  0  0  0  0  0  0  0
    5.8261    1.2506   -0.9497 C   0  0  0  0  0  0  0  0  0  0  0  0
    6.3718    2.1967   -1.0757 H   0  0  0  0  0  0  0  0  0  0  0  0
    4.4948    1.2549   -0.5349 C   0  0  0  0  0  0  0  0  0  0  0  0
    3.9808    2.2038   -0.3294 H   0  0  0  0  0  0  0  0  0  0  0  0
    7.8540    0.0176   -1.6427 C   0  0  0  0  0  0  0  0  0  0  0  0
    0.1574   -2.4724    1.2393 C   0  0  0  0  0  0  0  0  0  0  0  0
    1.0234   -3.5827    1.3588 C   0  0  0  0  0  0  0  0  0  0  0  0
    2.0208   -3.5288    0.9036 H   0  0  0  0  0  0  0  0  0  0  0  0
    0.5961   -4.7265    2.0346 C   0  0  0  0  0  0  0  0  0  0  0  0
    1.2742   -5.5921    2.1042 H   0  0  0  0  0  0  0  0  0  0  0  0
   -0.6860   -4.8030    2.6271 C   0  0  0  0  0  0  0  0  0  0  0  0
   -1.5271   -3.6782    2.5152 C   0  0  0  0  0  0  0  0  0  0  0  0
   -2.5280   -3.7038    2.9736 H   0  0  0  0  0  0  0  0  0  0  0  0
   -1.1182   -2.5265    1.8346 C   0  0  0  0  0  0  0  0  0  0  0  0
   -1.7802   -1.6526    1.7453 H   0  0  0  0  0  0  0  0  0  0  0  0
   -1.1210   -6.0444    3.3611 C   0  0  0  0  0  0  0  0  0  0  0  0
   -1.0144   -6.9480    2.7255 H   0  0  0  0  0  0  0  0  0  0  0  0
   -2.1768   -5.9787    3.6870 H   0  0  0  0  0  0  0  0  0  0  0  0
   -0.4983   -6.2159    4.2648 H   0  0  0  0  0  0  0  0  0  0  0  0
  1  7  1  0  0  0  0
  2  1  1  0  0  0  0
  3  4  1  0  0  0  0
  4 32  1  0  0  0  0
  5 31  3  0  0  0  0
  6  3  1  0  0  0  0
  6  2  2  0  0  0  0
  7  8  2  0  0  0  0
  7 15  1  0  0  0  0
  8 10  1  0  0  0  0
  9  8  1  0  0  0  0
 10 11  1  0  0  0  0
 10 12  2  0  0  0  0
 12 17  1  0  0  0  0
 13 12  1  0  0  0  0
 13 14  1  0  0  0  0
 15 13  2  0  0  0  0
 16 15  1  0  0  0  0
 17 20  1  0  0  0  0
 17 19  1  0  0  0  0
 18 17  1  0  0  0  0
 21  6  1  0  0  0  0
 22 23  1  0  0  0  0
 22 21  2  0  0  0  0
 24 22  1  0  0  0  0
 25 24  1  0  0  0  0
 26 24  2  0  0  0  0
 26 27  1  0  0  0  0
 27 29  2  0  0  0  0
 28 27  1  0  0  0  0
 29 21  1  0  0  0  0
 29 30  1  0  0  0  0
 31 26  1  0  0  0  0
 32 33  2  0  0  0  0
 32 40  1  0  0  0  0
 33 35  1  0  0  0  0
 34 33  1  0  0  0  0
 35 36  1  0  0  0  0
 35 37  2  0  0  0  0
 37 42  1  0  0  0  0
 38 37  1  0  0  0  0
 38 39  1  0  0  0  0
 40 38  2  0  0  0  0
 41 40  1  0  0  0  0
 42 44  1  0  0  0  0
 42 45  1  0  0  0  0
 43 42  1  0  0  0  0
M  END
