6,21
q = -2.0, confidence = 0.686

 30 31  0  0  0  0  0  0  0  0999 V2000
   -2.6690   -0.1375   -2.2115 F   0  0  0  0  0  0  0  0  0  0  0  0
   -5.2525    0.5897   -1.9508 F   0  0  0  0  0  0  0  0  0  0  0  0
   -6.7372   -0.3175    0.1769 F   0  0  0  0  0  0  0  0  0  0  0  0
   -5.5485   -1.8837    2.0874 F   0  0  0  0  0  0  0  0  0  0  0  0
   -2.9467   -2.5005    1.9408 F   0  0  0  0  0  0  0  0  0  0  0  0
   -1.3143   -1.5842   -0.3232 N   0  0  0  0  0  2  0  0  0  0  0  0
   -0.7217   -2.8011    0.2352 C   0  0  0  0  0  0  0  0  0  0  0  0
   -2.6601   -1.3248   -0.1396 C   0  0  0  0  0  0  0  0  0  0  0  0
   -3.3418   -0.5662   -1.1383 C   0  0  0  0  0  0  0  0  0  0  0  0
   -4.6825   -0.1844   -1.0169 C   0  0  0  0  0  0  0  0  0  0  0  0
   -5.4469   -0.6512    0.0655 C   0  0  0  0  0  0  0  0  0  0  0  0
   -4.8315   -1.4486    1.0442 C   0  0  0  0  0  0  0  0  0  0  0  0
   -3.4686   -1.7734    0.9447 C   0  0  0  0  0  0  0  0  0  0  0  0
   -0.7465   -2.8466    1.3449 H   0  0  0  0  0  0  0  0  0  0  0  0
   -1.2737   -3.6764   -0.1707 H   0  0  0  0  0  0  0  0  0  0  0  0
    2.6690   -0.1377    2.2115 F   0  0  0  0  0  0  0  0  0  0  0  0
    5.2525    0.5895    1.9509 F   0  0  0  0  0  0  0  0  0  0  0  0
    6.7372   -0.3174   -0.1768 F   0  0  0  0  0  0  0  0  0  0  0  0
    5.5485   -1.8835   -2.0875 F   0  0  0  0  0  0  0  0  0  0  0  0
    2.9468   -2.5003   -1.9410 F   0  0  0  0  0  0  0  0  0  0  0  0
    1.3144   -1.5842    0.3231 N   0  0  0  0  0  2  0  0  0  0  0  0
    0.7218   -2.8010   -0.2354 C   0  0  0  0  0  0  0  0  0  0  0  0
    2.6601   -1.3248    0.1395 C   0  0  0  0  0  0  0  0  0  0  0  0
    3.3418   -0.5663    1.1383 C   0  0  0  0  0  0  0  0  0  0  0  0
    4.6825   -0.1845    1.0170 C   0  0  0  0  0  0  0  0  0  0  0  0
    5.4470   -0.6512   -0.0654 C   0  0  0  0  0  0  0  0  0  0  0  0
    4.8315   -1.4485   -1.0442 C   0  0  0  0  0  0  0  0  0  0  0  0
    3.4686   -1.7733   -0.9448 C   0  0  0  0  0  0  0  0  0  0  0  0
    0.7465   -2.8465   -1.3451 H   0  0  0  0  0  0  0  0  0  0  0  0
    1.2738   -3.6763    0.1705 H   0  0  0  0  0  0  0  0  0  0  0  0
  1  9  1  0  0  0  0
  2 10  1  0  0  0  0
  6  8  1  0  0  0  0
  6  7  1  0  0  0  0
  7 14  1  0  0  0  0
  8 13  1  0  0  0  0
  9 10  1  0  0  0  0
  9  8  2  0  0  0  0
 10 11  2  0  0  0  0
 11  3  1  0  0  0  0
 11 12  1  0  0  0  0
 12  4  1  0  0  0  0
 13 12  2  0  0  0  0
 13  5  1  0  0  0  0
 15  7  1  0  0  0  0
 18 26  1  0  0  0  0
 19 27  1  0  0  0  0
 20 28  1  0  0  0  0
 22 30  1  0  0  0  0
 22  7  1  0  0  0  0
 22 21  1  0  0  0  0
 23 21  1  0  0  0  0
 23 24  1  0  0  0  0
 24 16  1  0  0  0  0
 25 24  2  0  0  0  0
 25 17  1  0  0  0  0
 26 25  1  0  0  0  0
 27 28  1  0  0  0  0
 27 26  2  0  0  0  0
 28 23  2  0  0  0  0
 29 22  1  0  0  0  0
M  END
