1,12
q = -1.0

 26 28  0  0  0  0  0  0  0  0999 V2000
    0.5771   -2.1337   -1.0495 N   0  0  0  0  0  2  0  0  0  0  0  0
    1.6279   -2.8866   -1.4363 C   0  0  0  0  0  3  0  0  0  0  0  0
    2.6199   -2.4307   -1.2920 H   0  0  0  0  0  0  0  0  0  0  0  0
    1.4738   -4.1612   -1.9900 C   0  0  0  0  0  0  0  0  0  0  0  0
    2.3609   -4.7351   -2.2916 H   0  0  0  0  0  0  0  0  0  0  0  0
    0.1732   -4.6785   -2.1460 C   0  0  0  0  0  0  0  0  0  0  0  0
    0.0194   -5.6786   -2.5787 H   0  0  0  0  0  0  0  0  0  0  0  0
   -0.9196   -3.9098   -1.7432 C   0  0  0  0  0  0  0  0  0  0  0  0
   -1.9584   -4.2564   -1.8332 H   0  0  0  0  0  0  0  0  0  0  0  0
   -0.6930   -2.6317   -1.1916 C   0  0  0  0  0  0  0  0  0  0  0  0
   -1.7480   -1.7564   -0.7300 C   0  0  0  0  0  0  0  0  0  0  0  0
   -1.3968   -0.5494   -0.1905 N   0  0  0  0  0  2  0  0  0  0  0  0
   -2.5130    0.0729    0.1961 N   0  0  0  0  0  0  0  0  0  0  0  0
   -3.5163   -0.7950   -0.1333 C   0  0  0  0  0  0  0  0  0  0  0  0
   -3.0791   -1.9455   -0.7110 N   0  0  0  0  0  0  0  0  0  0  0  0
   -4.9286   -0.4922    0.1241 C   0  0  0  0  0  0  0  0  0  0  0  0
   -5.3061    0.7294    0.7257 C   0  0  0  0  0  0  0  0  0  0  0  0
   -4.5200    1.4493    0.9951 H   0  0  0  0  0  0  0  0  0  0  0  0
   -6.6532    1.0171    0.9726 C   0  0  0  0  0  0  0  0  0  0  0  0
   -6.9659    1.9622    1.4395 H   0  0  0  0  0  0  0  0  0  0  0  0
   -8.9258    0.3480    0.8500 F   0  0  0  0  0  0  0  0  0  0  0  0
   -7.6263    0.0749    0.6138 C   0  0  0  0  0  0  0  0  0  0  0  0
   -7.2816   -1.1440    0.0154 C   0  0  0  0  0  0  0  0  0  0  0  0
   -8.0761   -1.8558   -0.2515 H   0  0  0  0  0  0  0  0  0  0  0  0
   -5.9314   -1.4222   -0.2271 C   0  0  0  0  0  0  0  0  0  0  0  0
   -5.6261   -2.3690   -0.6955 H   0  0  0  0  0  0  0  0  0  0  0  0
  2  3  1  0  0  0  0
  2  1  1  0  0  0  0
  4  2  1  0  0  0  0
  5  4  1  0  0  0  0
  6  4  2  0  0  0  0
  6  8  1  0  0  0  0
  7  6  1  0  0  0  0
  8 10  2  0  0  0  0
  9  8  1  0  0  0  0
 10  1  1  0  0  0  0
 10 11  1  0  0  0  0
 11 15  2  0  0  0  0
 11 12  1  0  0  0  0
 12 13  1  0  0  0  0
 14 16  1  0  0  0  0
 14 13  2  0  0  0  0
 15 14  1  0  0  0  0
 16 17  1  0  0  0  0
 17 19  2  0  0  0  0
 17 18  1  0  0  0  0
 19 20  1  0  0  0  0
 22 21  1  0  0  0  0
 22 19  1  0  0  0  0
 23 22  2  0  0  0  0
 24 23  1  0  0  0  0
 25 23  1  0  0  0  0
 25 16  2  0  0  0  0
 26 25  1  0  0  0  0
M  END
