1,12
q = -1.0, confidence = 0.0

 26 28  0  0  0  0  0  0  0  0999 V2000
   -0.6685   -2.1997   -0.9224 N   0  0  0  0  0  2  0  0  0  0  0  0
   -1.7084   -2.9896   -1.2623 C   0  0  0  0  0  3  0  0  0  0  0  0
   -2.7068   -2.5401   -1.1454 H   0  0  0  0  0  0  0  0  0  0  0  0
   -1.5353   -4.2931   -1.7377 C   0  0  0  0  0  0  0  0  0  0  0  0
   -2.4140   -4.8970   -2.0037 H   0  0  0  0  0  0  0  0  0  0  0  0
   -0.2278   -4.8004   -1.8626 C   0  0  0  0  0  0  0  0  0  0  0  0
   -0.0594   -5.8225   -2.2341 H   0  0  0  0  0  0  0  0  0  0  0  0
    0.8538   -3.9929   -1.5072 C   0  0  0  0  0  0  0  0  0  0  0  0
    1.8974   -4.3297   -1.5764 H   0  0  0  0  0  0  0  0  0  0  0  0
    0.6077   -2.6878   -1.0342 C   0  0  0  0  0  0  0  0  0  0  0  0
    1.6502   -1.7701   -0.6262 C   0  0  0  0  0  0  0  0  0  0  0  0
    1.2817   -0.5378   -0.1585 N   0  0  0  0  0  2  0  0  0  0  0  0
    2.3888    0.1229    0.1859 N   0  0  0  0  0  0  0  0  0  0  0  0
    3.4027   -0.7483   -0.0939 C   0  0  0  0  0  0  0  0  0  0  0  0
    2.9831   -1.9379   -0.6000 N   0  0  0  0  0  0  0  0  0  0  0  0
    4.8112   -0.4103    0.1402 C   0  0  0  0  0  0  0  0  0  0  0  0
    5.1591    0.8527    0.6670 C   0  0  0  0  0  0  0  0  0  0  0  0
    4.3805    1.5898    0.9025 H   0  0  0  0  0  0  0  0  0  0  0  0
    6.5080    1.1435    0.8798 C   0  0  0  0  0  0  0  0  0  0  0  0
    6.8487    2.3459    1.3821 F   0  0  0  0  0  0  0  0  0  0  0  0
    7.5298    0.2289    0.5898 C   0  0  0  0  0  0  0  0  0  0  0  0
    8.5847    0.4774    0.7642 H   0  0  0  0  0  0  0  0  0  0  0  0
    7.1503   -1.0148    0.0679 C   0  0  0  0  0  0  0  0  0  0  0  0
    8.1144   -1.9112   -0.2192 F   0  0  0  0  0  0  0  0  0  0  0  0
    5.8157   -1.3540   -0.1629 C   0  0  0  0  0  0  0  0  0  0  0  0
    5.5444   -2.3354   -0.5732 H   0  0  0  0  0  0  0  0  0  0  0  0
  2  3  1  0  0  0  0
  2  1  1  0  0  0  0
  4  2  1  0  0  0  0
  5  4  1  0  0  0  0
  6  4  2  0  0  0  0
  6  8  1  0  0  0  0
  7  6  1  0  0  0  0
  8 10  2  0  0  0  0
  9  8  1  0  0  0  0
 10  1  1  0  0  0  0
 10 11  1  0  0  0  0
 11 15  2  0  0  0  0
 11 12  1  0  0  0  0
 12 13  1  0  0  0  0
 14 16  1  0  0  0  0
 14 13  2  0  0  0  0
 15 14  1  0  0  0  0
 16 17  1  0  0  0  0
 17 19  2  0  0  0  0
 17 18  1  0  0  0  0
 19 20  1  0  0  0  0
 21 22  1  0  0  0  0
 21 19  1  0  0  0  0
 23 21  2  0  0  0  0
 24 23  1  0  0  0  0
 25 23  1  0  0  0  0
 25 16  2  0  0  0  0
 26 25  1  0  0  0  0
M  END
