2,3
q = 0.0, confidence = 1.0

 44 47  0  0  1  0  0  0  0  0999 V2000
    1.6513   -0.2577   -1.6354 N   0  0  0  0  0  0  0  0  0  0  0  0
   -0.0940   -1.2774   -0.6468 N   0  0  0  0  0  2  0  0  0  0  0  0
   -1.5086    0.9418   -0.2829 N   0  0  0  0  0  2  0  0  0  0  0  0
    2.2556    1.1784    0.5515 N   0  0  0  0  0  0  0  0  0  0  0  0
   -3.3566    1.6259    0.7704 O   0  0  0  0  0  0  0  0  0  0  0  0
    1.8390    1.4017    2.8176 O   0  0  0  0  0  0  0  0  0  0  0  0
    3.3967   -3.4857   -0.8695 C   0  0  0  0  0  0  0  0  0  0  0  0
    4.3505   -4.0297   -0.9374 H   0  0  0  0  0  0  0  0  0  0  0  0
    3.3200   -2.1829   -1.3802 C   0  0  0  0  0  0  0  0  0  0  0  0
    4.1956   -1.6977   -1.8346 H   0  0  0  0  0  0  0  0  0  0  0  0
    2.0802   -1.5364   -1.2655 C   0  0  0  0  0  0  0  0  0  0  0  0
    0.9605   -2.1661   -0.6523 C   0  0  0  0  0  0  0  0  0  0  0  0
    1.0524   -3.4694   -0.1314 C   0  0  0  0  0  0  0  0  0  0  0  0
    0.1908   -3.9139    0.3860 H   0  0  0  0  0  0  0  0  0  0  0  0
    2.2857   -4.1159   -0.2531 C   0  0  0  0  0  0  0  0  0  0  0  0
    2.4055   -5.1322    0.1503 H   0  0  0  0  0  0  0  0  0  0  0  0
    0.3481   -0.1463   -1.1931 C   0  0  1  0  0  3  0  0  0  0  0  0
   -0.5589    1.0108   -1.2433 C   0  0  1  0  0  3  0  0  0  0  0  0
   -0.5693    2.0239   -2.2162 C   0  0  0  0  0  0  0  0  0  0  0  0
    0.1680    2.0442   -3.0286 H   0  0  0  0  0  0  0  0  0  0  0  0
   -1.6094    2.9669   -2.1685 C   0  0  0  0  0  0  0  0  0  0  0  0
   -1.6580    3.7665   -2.9228 H   0  0  0  0  0  0  0  0  0  0  0  0
   -2.5980    2.8845   -1.1839 C   0  0  0  0  0  0  0  0  0  0  0  0
   -3.4196    3.6110   -1.1452 H   0  0  0  0  0  0  0  0  0  0  0  0
   -2.5069    1.8338   -0.2416 C   0  0  0  0  0  0  0  0  0  0  0  0
   -4.7157    2.0334    0.6236 C   0  0  0  0  0  0  0  0  0  0  0  0
   -4.8177    3.1393    0.5826 H   0  0  0  0  0  0  0  0  0  0  0  0
   -5.2401    1.6569    1.5195 H   0  0  0  0  0  0  0  0  0  0  0  0
   -5.1519    1.5586   -0.2794 H   0  0  0  0  0  0  0  0  0  0  0  0
    2.5676    0.8501   -1.8390 C   0  0  0  0  0  0  0  0  0  0  0  0
    2.0760    1.6255   -2.4578 H   0  0  0  0  0  0  0  0  0  0  0  0
    3.4352    0.4889   -2.4247 H   0  0  0  0  0  0  0  0  0  0  0  0
    3.0232    1.4587   -0.5121 C   0  0  0  0  0  0  0  0  0  0  0  0
    4.1575    2.2767   -0.4433 C   0  0  0  0  0  0  0  0  0  0  0  0
    4.7702    2.4766   -1.3347 H   0  0  0  0  0  0  0  0  0  0  0  0
    4.4855    2.8327    0.8105 C   0  0  0  0  0  0  0  0  0  0  0  0
    5.3670    3.4838    0.9130 H   0  0  0  0  0  0  0  0  0  0  0  0
    3.6992    2.5471    1.9237 C   0  0  0  0  0  0  0  0  0  0  0  0
    3.9195    2.9464    2.9230 H   0  0  0  0  0  0  0  0  0  0  0  0
    2.5801    1.6928    1.7431 C   0  0  0  0  0  0  0  0  0  0  0  0
    0.7378    0.4901    2.6489 C   0  0  0  0  0  0  0  0  0  0  0  0
   -0.0171    0.8942    1.9466 H   0  0  0  0  0  0  0  0  0  0  0  0
    0.2906    0.3625    3.6488 H   0  0  0  0  0  0  0  0  0  0  0  0
    1.0738   -0.4919    2.2647 H   0  0  0  0  0  0  0  0  0  0  0  0
  1 11  1  0  0  0  0
  1 17  1  0  0  0  0
  3 25  1  0  0  0  0
  4 40  1  0  0  0  0
  7 15  1  0  0  0  0
  8  7  1  0  0  0  0
  9 11  1  0  0  0  0
  9  7  2  0  0  0  0
 10  9  1  0  0  0  0
 11 12  2  0  0  0  0
 12  2  1  0  0  0  0
 12 13  1  0  0  0  0
 13 14  1  0  0  0  0
 15 13  2  0  0  0  0
 15 16  1  0  0  0  0
 17  2  1  1  0  0  0
 18 19  1  6  0  0  0
 18 17  1  0  0  0  0
 18  3  1  0  0  0  0
 19 21  2  0  0  0  0
 20 19  1  0  0  0  0
 21 23  1  0  0  0  0
 22 21  1  0  0  0  0
 23 24  1  0  0  0  0
 23 25  2  0  0  0  0
 25  5  1  0  0  0  0
 26  5  1  0  0  0  0
 26 28  1  0  0  0  0
 27 26  1  0  0  0  0
 29 26  1  0  0  0  0
 30  1  1  0  0  0  0
 30 33  1  0  0  0  0
 31 30  1  0  0  0  0
 32 30  1  0  0  0  0
 33 34  1  0  0  0  0
 33  4  2  0  0  0  0
 34 36  2  0  0  0  0
 35 34  1  0  0  0  0
 36 37  1  0  0  0  0
 36 38  1  0  0  0  0
 38 39  1  0  0  0  0
 40 38  2  0  0  0  0
 40  6  1  0  0  0  0
 41  6  1  0  0  0  0
 41 43  1  0  0  0  0
 42 41  1  0  0  0  0
 44 41  1  0  0  0  0
M  END
