1,2
q = -1.0

 45 47  0  0  0  0  0  0  0  0999 V2000
    1.5093    1.1052    0.0155 N   0  0  0  0  0  2  0  0  0  0  0  0
   -1.2915    0.9426   -0.0105 N   0  0  0  0  0  2  0  0  0  0  0  0
    1.2617    2.4072    0.0210 C   0  0  0  0  0  3  0  0  0  0  0  0
    2.1491    3.0670    0.0325 H   0  0  0  0  0  0  0  0  0  0  0  0
   -0.0008    3.0453    0.0021 C   0  0  0  0  0  0  0  0  0  0  0  0
   -0.0010    4.4734   -0.0023 C   0  0  0  0  0  0  0  0  0  0  0  0
    0.9704    4.9907    0.0224 H   0  0  0  0  0  0  0  0  0  0  0  0
   -1.1796    5.1971   -0.0399 C   0  0  0  0  0  0  0  0  0  0  0  0
   -1.1649    6.2959   -0.0432 H   0  0  0  0  0  0  0  0  0  0  0  0
   -2.4076    4.4927   -0.0795 C   0  0  0  0  0  0  0  0  0  0  0  0
   -3.3556    5.0503   -0.1177 H   0  0  0  0  0  0  0  0  0  0  0  0
   -2.4457    3.1048   -0.0727 C   0  0  0  0  0  0  0  0  0  0  0  0
   -3.4166    2.5982   -0.1064 H   0  0  0  0  0  0  0  0  0  0  0  0
   -1.2466    2.3241   -0.0252 C   0  0  0  0  0  0  0  0  0  0  0  0
    2.9201    0.7889    0.0125 C   0  0  0  0  0  0  0  0  0  0  0  0
    3.5968    0.6950    1.2510 C   0  0  0  0  0  0  0  0  0  0  0  0
    4.9741    0.4042    1.2226 C   0  0  0  0  0  0  0  0  0  0  0  0
    5.5217    0.3215    2.1739 H   0  0  0  0  0  0  0  0  0  0  0  0
    5.6460    0.2143    0.0076 C   0  0  0  0  0  0  0  0  0  0  0  0
    6.7201   -0.0229    0.0054 H   0  0  0  0  0  0  0  0  0  0  0  0
    4.9568    0.3467   -1.2063 C   0  0  0  0  0  0  0  0  0  0  0  0
    5.4941    0.2301   -2.1602 H   0  0  0  0  0  0  0  0  0  0  0  0
    3.5832    0.6595   -1.2308 C   0  0  0  0  0  0  0  0  0  0  0  0
    2.8666    0.9185    2.5493 C   0  0  0  0  0  0  0  0  0  0  0  0
    3.4738    0.5879    3.4128 H   0  0  0  0  0  0  0  0  0  0  0  0
    1.8936    0.3856    2.5679 H   0  0  0  0  0  0  0  0  0  0  0  0
    2.6307    1.9930    2.7029 H   0  0  0  0  0  0  0  0  0  0  0  0
    2.8636    0.9272   -2.5276 C   0  0  0  0  0  0  0  0  0  0  0  0
    1.8251    0.5422   -2.5160 H   0  0  0  0  0  0  0  0  0  0  0  0
    3.4019    0.4836   -3.3862 H   0  0  0  0  0  0  0  0  0  0  0  0
    2.7910    2.0200   -2.7155 H   0  0  0  0  0  0  0  0  0  0  0  0
   -2.6249    0.3983    0.0007 C   0  0  0  0  0  0  0  0  0  0  0  0
   -3.2717    0.0816   -1.2053 C   0  0  0  0  0  0  0  0  0  0  0  0
   -2.7388    0.2325   -2.1553 H   0  0  0  0  0  0  0  0  0  0  0  0
   -4.5927   -0.3912   -1.1884 C   0  0  0  0  0  0  0  0  0  0  0  0
   -5.0907   -0.6318   -2.1406 H   0  0  0  0  0  0  0  0  0  0  0  0
   -5.3040   -0.5427    0.0209 C   0  0  0  0  0  0  0  0  0  0  0  0
   -4.6419   -0.1985    1.2198 C   0  0  0  0  0  0  0  0  0  0  0  0
   -5.1770   -0.2921    2.1779 H   0  0  0  0  0  0  0  0  0  0  0  0
   -3.3200    0.2638    1.2165 C   0  0  0  0  0  0  0  0  0  0  0  0
   -2.8180    0.5439    2.1547 H   0  0  0  0  0  0  0  0  0  0  0  0
   -6.7178   -1.0623    0.0393 C   0  0  0  0  0  0  0  0  0  0  0  0
   -6.7455   -2.1288    0.3489 H   0  0  0  0  0  0  0  0  0  0  0  0
   -7.1927   -0.9950   -0.9580 H   0  0  0  0  0  0  0  0  0  0  0  0
   -7.3460   -0.5031    0.7608 H   0  0  0  0  0  0  0  0  0  0  0  0
  1  3  1  0  0  0  0
  2 32  1  0  0  0  0
  3  4  1  0  0  0  0
  5  3  1  0  0  0  0
  6  5  1  0  0  0  0
  6  7  1  0  0  0  0
  8  6  2  0  0  0  0
  9  8  1  0  0  0  0
 10 12  2  0  0  0  0
 10  8  1  0  0  0  0
 11 10  1  0  0  0  0
 12 14  1  0  0  0  0
 13 12  1  0  0  0  0
 14  2  1  0  0  0  0
 14  5  2  0  0  0  0
 15  1  1  0  0  0  0
 15 16  1  0  0  0  0
 16 24  1  0  0  0  0
 17 16  2  0  0  0  0
 17 18  1  0  0  0  0
 19 17  1  0  0  0  0
 20 19  1  0  0  0  0
 21 19  2  0  0  0  0
 22 21  1  0  0  0  0
 23 21  1  0  0  0  0
 23 15  2  0  0  0  0
 24 26  1  0  0  0  0
 24 27  1  0  0  0  0
 24 25  1  0  0  0  0
 28 29  1  0  0  0  0
 28 23  1  0  0  0  0
 30 28  1  0  0  0  0
 31 28  1  0  0  0  0
 32 40  1  0  0  0  0
 33 35  1  0  0  0  0
 33 32  2  0  0  0  0
 34 33  1  0  0  0  0
 35 37  2  0  0  0  0
 36 35  1  0  0  0  0
 37 42  1  0  0  0  0
 37 38  1  0  0  0  0
 38 39  1  0  0  0  0
 40 38  2  0  0  0  0
 40 41  1  0  0  0  0
 42 43  1  0  0  0  0
 42 45  1  0  0  0  0
 44 42  1  0  0  0  0
M  END
