1,4
q = 0.0, confidence = 0.99

 26 27  0  0  1  0  0  0  0  0999 V2000
    1.5886    0.0204    1.2862 N   0  0  0  0  0  2  0  0  0  0  0  0
    3.0771    1.5808    1.8055 N   0  0  0  0  0  0  0  0  0  0  0  0
    0.3528    2.5296   -2.0347 N   0  0  0  0  0  0  0  0  0  0  0  0
   -0.0194    0.5313   -1.1449 N   0  0  0  0  0  2  0  0  0  0  0  0
    1.9595   -0.1627    2.5920 C   0  0  0  0  0  0  0  0  0  0  0  0
    1.5498   -0.9800    3.1938 H   0  0  0  0  0  0  0  0  0  0  0  0
    2.8844    0.8053    2.9341 C   0  0  0  0  0  0  0  0  0  0  0  0
    3.4121    1.0142    3.8698 H   0  0  0  0  0  0  0  0  0  0  0  0
    2.2743    1.0663    0.8048 C   0  0  1  0  0  3  0  0  0  0  0  0
    2.1882    1.5814   -0.5734 C   0  0  0  0  0  0  0  0  0  0  0  0
    3.2727    2.0879   -1.2204 C   0  0  0  0  0  0  0  0  0  0  0  0
    4.2716    2.0809   -0.7669 H   0  0  0  0  0  0  0  0  0  0  0  0
    3.2085    2.4191   -2.2649 H   0  0  0  0  0  0  0  0  0  0  0  0
    0.8642    1.5360   -1.2227 C   0  0  1  0  0  3  0  0  0  0  0  0
   -0.8846    2.1048   -2.4805 C   0  0  0  0  0  0  0  0  0  0  0  0
   -1.5059    2.7287   -3.1299 H   0  0  0  0  0  0  0  0  0  0  0  0
   -1.0982    0.8596   -1.9233 C   0  0  0  0  0  0  0  0  0  0  0  0
   -1.9613    0.1948   -2.0162 H   0  0  0  0  0  0  0  0  0  0  0  0
    0.9120    3.8392   -2.3222 C   0  0  0  0  0  0  0  0  0  0  0  0
    1.5714    4.1558   -1.4939 H   0  0  0  0  0  0  0  0  0  0  0  0
    0.0858    4.5683   -2.4199 H   0  0  0  0  0  0  0  0  0  0  0  0
    1.5000    3.8374   -3.2628 H   0  0  0  0  0  0  0  0  0  0  0  0
    3.9320    2.7557    1.7659 C   0  0  0  0  0  0  0  0  0  0  0  0
    3.9772    3.2003    2.7775 H   0  0  0  0  0  0  0  0  0  0  0  0
    3.5152    3.5017    1.0648 H   0  0  0  0  0  0  0  0  0  0  0  0
    4.9620    2.5011    1.4428 H   0  0  0  0  0  0  0  0  0  0  0  0
  1  5  1  0  0  0  0
  2  7  1  0  0  0  0
  3 14  1  0  0  0  0
  5  7  2  0  0  0  0
  5  6  1  0  0  0  0
  7  8  1  0  0  0  0
  9 10  1  6  0  0  0
  9  1  1  0  0  0  0
  9  2  1  0  0  0  0
 11 12  1  0  0  0  0
 11 10  2  0  0  0  0
 13 11  1  0  0  0  0
 14  4  1  0  0  0  0
 14 10  1  6  0  0  0
 15  3  1  0  0  0  0
 15 17  2  0  0  0  0
 16 15  1  0  0  0  0
 17  4  1  0  0  0  0
 18 17  1  0  0  0  0
 19  3  1  0  0  0  0
 19 20  1  0  0  0  0
 21 19  1  0  0  0  0
 22 19  1  0  0  0  0
 23  2  1  0  0  0  0
 23 24  1  0  0  0  0
 25 23  1  0  0  0  0
 26 23  1  0  0  0  0
M  END
