6,8
q = -1.0, confidence = 0.018

 31 32  0  0  1  0  0  0  0  0999 V2000
   -0.0299   -0.1895    1.9561 B   0  0  0  0  0  0  0  0  0  0  0  0
   -0.0061    1.0764    2.0569 H   0  0  0  0  0  0  0  0  0  0  0  0
   -0.0643   -0.6740    3.0736 H   0  0  0  0  0  0  0  0  0  0  0  0
   -4.1264   -2.6718   -0.8142 Br  0  0  0  0  0  0  0  0  0  0  0  0
    4.4197   -2.4228   -0.4958 Br  0  0  0  0  0  0  0  0  0  0  0  0
   -1.3645    0.1991   -0.0452 N   0  0  0  0  0  2  0  0  0  0  0  0
   -1.2486   -0.5594    1.0794 N   0  0  0  0  0  0  0  0  0  0  0  0
    1.4582    0.2850    0.0998 N   0  0  0  0  0  2  0  0  0  0  0  0
    1.2385   -0.5550    1.1454 N   0  0  0  0  0  0  0  0  0  0  0  0
   -2.6804    0.1876   -2.1747 C   0  0  0  0  0  0  0  0  0  0  0  0
   -1.9331    0.9234   -2.5235 H   0  0  0  0  0  0  0  0  0  0  0  0
   -3.6752    0.6799   -2.1458 H   0  0  0  0  0  0  0  0  0  0  0  0
   -2.7510   -0.6318   -2.9172 H   0  0  0  0  0  0  0  0  0  0  0  0
   -2.3012   -0.3580   -0.8404 C   0  0  1  0  0  3  0  0  0  0  0  0
   -2.7953   -1.5089   -0.1747 C   0  0  0  0  0  0  0  0  0  0  0  0
   -2.0993   -1.6195    1.0416 C   0  0  0  0  0  0  0  0  0  0  0  0
   -2.1858   -2.6475    2.1164 C   0  0  0  0  0  0  0  0  0  0  0  0
   -2.3034   -2.1804    3.1141 H   0  0  0  0  0  0  0  0  0  0  0  0
   -1.2716   -3.2758    2.1526 H   0  0  0  0  0  0  0  0  0  0  0  0
   -3.0500   -3.3117    1.9292 H   0  0  0  0  0  0  0  0  0  0  0  0
    3.0550    0.5400   -1.8049 C   0  0  0  0  0  0  0  0  0  0  0  0
    3.3495    1.5790   -1.5533 H   0  0  0  0  0  0  0  0  0  0  0  0
    2.2970    0.6010   -2.6110 H   0  0  0  0  0  0  0  0  0  0  0  0
    3.9414    0.0061   -2.1939 H   0  0  0  0  0  0  0  0  0  0  0  0
    2.5199   -0.1646   -0.6062 C   0  0  1  0  0  3  0  0  0  0  0  0
    2.9692   -1.3483    0.0269 C   0  0  0  0  0  0  0  0  0  0  0  0
    2.1335   -1.5742    1.1390 C   0  0  0  0  0  0  0  0  0  0  0  0
    2.1386   -2.6770    2.1398 C   0  0  0  0  0  0  0  0  0  0  0  0
    1.8023   -2.3184    3.1313 H   0  0  0  0  0  0  0  0  0  0  0  0
    3.1562   -3.1018    2.2320 H   0  0  0  0  0  0  0  0  0  0  0  0
    1.4621   -3.5027    1.8321 H   0  0  0  0  0  0  0  0  0  0  0  0
  1  2  1  0  0  0  0
  1  3  1  0  0  0  0
  4 15  1  0  0  0  0
  5 26  1  0  0  0  0
  6  7  1  0  0  0  0
  7  1  1  0  0  0  0
  8  9  1  0  0  0  0
  9  1  1  0  0  0  0
 10 12  1  0  0  0  0
 11 10  1  0  0  0  0
 13 10  1  0  0  0  0
 14 10  1  6  0  0  0
 14 15  1  0  0  0  0
 14  6  1  0  0  0  0
 15 16  2  0  0  0  0
 16  7  1  0  0  0  0
 16 17  1  0  0  0  0
 17 19  1  0  0  0  0
 17 18  1  0  0  0  0
 20 17  1  0  0  0  0
 21 22  1  0  0  0  0
 23 21  1  0  0  0  0
 24 21  1  0  0  0  0
 25 21  1  1  0  0  0
 25 26  1  0  0  0  0
 25  8  1  0  0  0  0
 26 27  2  0  0  0  0
 27  9  1  0  0  0  0
 27 28  1  0  0  0  0
 28 30  1  0  0  0  0
 28 29  1  0  0  0  0
 31 28  1  0  0  0  0
M  END
