1,2
q = -1.0, confidence = 0.174

 39 39  0  0  1  0  0  0  0  0999 V2000
   -1.4523    0.5665   -0.0773 N   0  0  0  0  0  2  0  0  0  0  0  0
    0.0032    2.1723    0.3326 N   0  0  0  0  0  2  0  0  0  0  0  0
   -3.8203   -3.4595   -1.6807 N   0  0  0  0  0  0  0  0  0  0  0  0
   -1.2864    1.8784    0.1288 C   0  0  2  0  0  3  0  0  0  0  0  0
   -2.6873   -0.1733   -0.0098 C   0  0  0  0  0  0  0  0  0  0  0  0
   -3.5638    0.4856   -0.2129 H   0  0  0  0  0  0  0  0  0  0  0  0
   -2.8395   -0.5737    1.0250 H   0  0  0  0  0  0  0  0  0  0  0  0
   -2.6672   -1.3566   -0.9802 C   0  0  0  0  0  0  0  0  0  0  0  0
   -1.6870   -1.8619   -0.8613 H   0  0  0  0  0  0  0  0  0  0  0  0
   -2.7117   -0.9967   -2.0308 H   0  0  0  0  0  0  0  0  0  0  0  0
   -3.8088   -2.3436   -0.7439 C   0  0  0  0  0  0  0  0  0  0  0  0
   -3.7678   -2.7024    0.3249 H   0  0  0  0  0  0  0  0  0  0  0  0
   -4.7795   -1.8099   -0.8461 H   0  0  0  0  0  0  0  0  0  0  0  0
   -5.0725   -4.1873   -1.6410 C   0  0  0  0  0  0  0  0  0  0  0  0
   -5.0803   -4.9763   -2.4214 H   0  0  0  0  0  0  0  0  0  0  0  0
   -5.9222   -3.5020   -1.8401 H   0  0  0  0  0  0  0  0  0  0  0  0
   -5.2685   -4.6916   -0.6537 H   0  0  0  0  0  0  0  0  0  0  0  0
   -2.6828   -4.3484   -1.5210 C   0  0  0  0  0  0  0  0  0  0  0  0
   -2.6569   -4.8571   -0.5179 H   0  0  0  0  0  0  0  0  0  0  0  0
   -1.7267   -3.8026   -1.6327 H   0  0  0  0  0  0  0  0  0  0  0  0
   -2.7107   -5.1390   -2.2985 H   0  0  0  0  0  0  0  0  0  0  0  0
    0.6080    3.4812    0.2902 C   0  0  0  0  0  0  0  0  0  0  0  0
   -0.1638    4.2769    0.4040 H   0  0  0  0  0  0  0  0  0  0  0  0
    1.0764    3.6494   -0.7112 H   0  0  0  0  0  0  0  0  0  0  0  0
    1.6872    3.6368    1.3619 C   0  0  0  0  0  0  0  0  0  0  0  0
    1.2491    3.5910    2.3806 H   0  0  0  0  0  0  0  0  0  0  0  0
    2.2119    4.6081    1.2596 H   0  0  0  0  0  0  0  0  0  0  0  0
    2.4368    2.8240    1.2772 H   0  0  0  0  0  0  0  0  0  0  0  0
   -2.3976    2.8775    0.1312 C   0  0  0  0  0  0  0  0  0  0  0  0
   -2.5224    3.8144   -0.9156 C   0  0  0  0  0  0  0  0  0  0  0  0
   -1.7941    3.7992   -1.7410 H   0  0  0  0  0  0  0  0  0  0  0  0
   -3.5694    4.7481   -0.9124 C   0  0  0  0  0  0  0  0  0  0  0  0
   -3.6584    5.4735   -1.7354 H   0  0  0  0  0  0  0  0  0  0  0  0
   -4.5024    4.7569    0.1369 C   0  0  0  0  0  0  0  0  0  0  0  0
   -5.3234    5.4899    0.1390 H   0  0  0  0  0  0  0  0  0  0  0  0
   -4.3856    3.8276    1.1831 C   0  0  0  0  0  0  0  0  0  0  0  0
   -5.1146    3.8313    2.0078 H   0  0  0  0  0  0  0  0  0  0  0  0
   -3.3401    2.8926    1.1802 C   0  0  0  0  0  0  0  0  0  0  0  0
   -3.2417    2.1667    2.0021 H   0  0  0  0  0  0  0  0  0  0  0  0
  1  5  1  0  0  0  0
  3 14  1  0  0  0  0
  3 18  1  0  0  0  0
  3 11  1  0  0  0  0
  4  1  1  1  0  0  0
  4 29  1  0  0  0  0
  4  2  1  0  0  0  0
  5  7  1  0  0  0  0
  6  5  1  0  0  0  0
  8  9  1  0  0  0  0
  8 11  1  0  0  0  0
  8  5  1  0  0  0  0
 10  8  1  0  0  0  0
 11 12  1  0  0  0  0
 13 11  1  0  0  0  0
 14 17  1  0  0  0  0
 15 14  1  0  0  0  0
 16 14  1  0  0  0  0
 18 19  1  0  0  0  0
 20 18  1  0  0  0  0
 21 18  1  0  0  0  0
 22  2  1  0  0  0  0
 22 23  1  0  0  0  0
 22 25  1  0  0  0  0
 24 22  1  0  0  0  0
 25 26  1  0  0  0  0
 27 25  1  0  0  0  0
 28 25  1  0  0  0  0
 29 38  1  0  0  0  0
 30 32  1  0  0  0  0
 30 29  2  0  0  0  0
 31 30  1  0  0  0  0
 32 34  2  0  0  0  0
 33 32  1  0  0  0  0
 34 35  1  0  0  0  0
 34 36  1  0  0  0  0
 36 37  1  0  0  0  0
 38 36  2  0  0  0  0
 38 39  1  0  0  0  0
M  END
