3,4
q = -1.0

 51 53  0  0  0  0  0  0  0  0999 V2000
  -10.5296    0.5744    0.0279 O   0  0  0  0  0  0  0  0  0  0  0  0
    6.9946    3.0180    0.1482 O   0  0  0  0  0  0  0  0  0  0  0  0
    1.7319    1.1325   -0.1994 N   0  0  0  0  0  2  0  0  0  0  0  0
   -0.5304   -0.1929   -0.1551 N   0  0  0  0  0  2  0  0  0  0  0  0
   -1.7307   -0.7328   -0.1610 N   0  0  0  0  0  2  0  0  0  0  0  0
   -4.9479    0.9317   -0.2824 N   0  0  0  0  0  0  0  0  0  0  0  0
    0.6400    1.8880   -0.2287 C   0  0  0  0  0  0  0  0  0  0  0  0
   -0.6152    1.1843   -0.2134 C   0  0  0  0  0  0  0  0  0  0  0  0
   -2.6496    0.2893   -0.2178 C   0  0  0  0  0  0  0  0  0  0  0  0
   -1.9852    1.5487   -0.2517 C   0  0  0  0  0  0  0  0  0  0  0  0
   -2.5918    2.9158   -0.3077 C   0  0  0  0  0  0  0  0  0  0  0  0
   -2.2079    3.5719    0.5009 H   0  0  0  0  0  0  0  0  0  0  0  0
   -3.6899    2.8308   -0.2200 H   0  0  0  0  0  0  0  0  0  0  0  0
   -2.3660    3.4232   -1.2708 H   0  0  0  0  0  0  0  0  0  0  0  0
    0.6878    3.3860   -0.2977 C   0  0  0  0  0  0  0  0  0  0  0  0
    1.7032    3.7516   -0.5316 H   0  0  0  0  0  0  0  0  0  0  0  0
    0.3712    3.8308    0.6687 H   0  0  0  0  0  0  0  0  0  0  0  0
   -0.0246    3.7509   -1.0622 H   0  0  0  0  0  0  0  0  0  0  0  0
   -4.0832   -0.0358   -0.2146 C   0  0  0  0  0  0  0  0  0  0  0  0
   -4.4294   -1.5105   -0.1649 C   0  0  0  0  0  0  0  0  0  0  0  0
   -4.2314   -1.9295    0.8434 H   0  0  0  0  0  0  0  0  0  0  0  0
   -3.7769   -2.0694   -0.8623 H   0  0  0  0  0  0  0  0  0  0  0  0
   -5.4922   -1.6822   -0.4140 H   0  0  0  0  0  0  0  0  0  0  0  0
   -6.3275    0.7575   -0.1786 C   0  0  0  0  0  0  0  0  0  0  0  0
   -7.1688    1.3668   -1.1461 C   0  0  0  0  0  0  0  0  0  0  0  0
   -6.6972    1.9096   -1.9785 H   0  0  0  0  0  0  0  0  0  0  0  0
   -8.5563    1.2733   -1.0588 C   0  0  0  0  0  0  0  0  0  0  0  0
   -9.2078    1.7310   -1.8175 H   0  0  0  0  0  0  0  0  0  0  0  0
   -9.1637    0.5977    0.0232 C   0  0  0  0  0  0  0  0  0  0  0  0
   -8.3471    0.0157    1.0124 C   0  0  0  0  0  0  0  0  0  0  0  0
   -8.7863   -0.4983    1.8783 H   0  0  0  0  0  0  0  0  0  0  0  0
   -6.9491    0.0902    0.9019 C   0  0  0  0  0  0  0  0  0  0  0  0
   -6.3222   -0.3522    1.6902 H   0  0  0  0  0  0  0  0  0  0  0  0
  -11.1791   -0.0850    1.0935 C   0  0  0  0  0  0  0  0  0  0  0  0
  -10.9136   -1.1662    1.1409 H   0  0  0  0  0  0  0  0  0  0  0  0
  -12.2657    0.0081    0.9078 H   0  0  0  0  0  0  0  0  0  0  0  0
  -10.9418    0.3777    2.0790 H   0  0  0  0  0  0  0  0  0  0  0  0
    3.0377    1.6961   -0.1151 C   0  0  0  0  0  0  0  0  0  0  0  0
    3.4679    2.3262    1.0632 C   0  0  0  0  0  0  0  0  0  0  0  0
    2.7667    2.4274    1.9049 H   0  0  0  0  0  0  0  0  0  0  0  0
    4.7859    2.7930    1.1904 C   0  0  0  0  0  0  0  0  0  0  0  0
    5.0954    3.2724    2.1284 H   0  0  0  0  0  0  0  0  0  0  0  0
    5.6932    2.6207    0.1257 C   0  0  0  0  0  0  0  0  0  0  0  0
    5.2580    1.9925   -1.0629 C   0  0  0  0  0  0  0  0  0  0  0  0
    5.9829    1.8589   -1.8782 H   0  0  0  0  0  0  0  0  0  0  0  0
    3.9492    1.5316   -1.1794 C   0  0  0  0  0  0  0  0  0  0  0  0
    3.6194    1.0138   -2.0901 H   0  0  0  0  0  0  0  0  0  0  0  0
    7.4926    3.6163    1.3281 C   0  0  0  0  0  0  0  0  0  0  0  0
    6.9594    4.5629    1.5731 H   0  0  0  0  0  0  0  0  0  0  0  0
    8.5581    3.8446    1.1395 H   0  0  0  0  0  0  0  0  0  0  0  0
    7.4191    2.9316    2.2033 H   0  0  0  0  0  0  0  0  0  0  0  0
  1 34  1  0  0  0  0
  2 48  1  0  0  0  0
  3 38  1  0  0  0  0
  5  4  1  0  0  0  0
  6 19  2  0  0  0  0
  6 24  1  0  0  0  0
  7  8  2  0  0  0  0
  7  3  1  0  0  0  0
  8  4  1  0  0  0  0
  9 19  1  0  0  0  0
  9  5  1  0  0  0  0
 10  9  2  0  0  0  0
 10  8  1  0  0  0  0
 11 10  1  0  0  0  0
 11 13  1  0  0  0  0
 11 12  1  0  0  0  0
 14 11  1  0  0  0  0
 15  7  1  0  0  0  0
 15 17  1  0  0  0  0
 16 15  1  0  0  0  0
 18 15  1  0  0  0  0
 19 20  1  0  0  0  0
 20 21  1  0  0  0  0
 22 20  1  0  0  0  0
 23 20  1  0  0  0  0
 24 32  1  0  0  0  0
 25 27  1  0  0  0  0
 25 24  2  0  0  0  0
 26 25  1  0  0  0  0
 27 29  2  0  0  0  0
 28 27  1  0  0  0  0
 29  1  1  0  0  0  0
 29 30  1  0  0  0  0
 30 31  1  0  0  0  0
 32 30  2  0  0  0  0
 32 33  1  0  0  0  0
 34 35  1  0  0  0  0
 34 37  1  0  0  0  0
 36 34  1  0  0  0  0
 38 39  1  0  0  0  0
 39 41  2  0  0  0  0
 39 40  1  0  0  0  0
 41 42  1  0  0  0  0
 43  2  1  0  0  0  0
 43 41  1  0  0  0  0
 44 43  2  0  0  0  0
 45 44  1  0  0  0  0
 46 44  1  0  0  0  0
 46 38  2  0  0  0  0
 47 46  1  0  0  0  0
 48 49  1  0  0  0  0
 48 51  1  0  0  0  0
 50 48  1  0  0  0  0
M  END
