1,2
q = -2.0, confidence = 0.942

 25 25  0  0  0  0  0  0  0  0999 V2000
   -1.6822    1.6044    0.0406 N   0  0  0  0  0  0  0  0  0  0  0  0
    0.6598    1.4659   -0.7625 N   0  0  0  0  0  2  0  0  0  0  0  0
   -2.9424    1.7537    0.5751 C   0  0  0  0  0  3  0  0  0  0  0  0
   -3.5108    0.8801    0.9122 H   0  0  0  0  0  0  0  0  0  0  0  0
   -3.2690    3.1048    0.5800 C   0  0  0  0  0  0  0  0  0  0  0  0
   -4.2132    3.5442    0.9259 H   0  0  0  0  0  0  0  0  0  0  0  0
   -2.1357    3.8285    0.0419 C   0  0  0  0  0  0  0  0  0  0  0  0
   -2.0488    4.9153   -0.0764 H   0  0  0  0  0  0  0  0  0  0  0  0
   -1.1891    2.8729   -0.2780 C   0  0  0  0  0  0  0  0  0  0  0  0
    0.2072    2.8495   -0.8043 C   0  0  0  0  0  0  0  0  0  0  0  0
    0.8899    3.4993   -0.2015 H   0  0  0  0  0  0  0  0  0  0  0  0
    0.2742    3.2368   -1.8513 H   0  0  0  0  0  0  0  0  0  0  0  0
    1.8942    1.1663   -1.4549 C   0  0  0  0  0  0  0  0  0  0  0  0
    2.0744    1.9051   -2.2704 H   0  0  0  0  0  0  0  0  0  0  0  0
    1.7817    0.1682   -1.9288 H   0  0  0  0  0  0  0  0  0  0  0  0
    3.1033    1.1389   -0.5020 C   0  0  0  0  0  0  0  0  0  0  0  0
    3.2707    2.1573   -0.0866 H   0  0  0  0  0  0  0  0  0  0  0  0
    2.8462    0.4906    0.3615 H   0  0  0  0  0  0  0  0  0  0  0  0
    4.3812    0.6296   -1.1717 C   0  0  0  0  0  0  0  0  0  0  0  0
    4.6282    1.2736   -2.0451 H   0  0  0  0  0  0  0  0  0  0  0  0
    4.1854   -0.3827   -1.5913 H   0  0  0  0  0  0  0  0  0  0  0  0
    5.5748    0.5698   -0.2178 C   0  0  0  0  0  0  0  0  0  0  0  0
    6.4863    0.1883   -0.7208 H   0  0  0  0  0  0  0  0  0  0  0  0
    5.3629   -0.0956    0.6454 H   0  0  0  0  0  0  0  0  0  0  0  0
    5.8140    1.5728    0.1932 H   0  0  0  0  0  0  0  0  0  0  0  0
  1  3  1  0  0  0  0
  3  5  1  0  0  0  0
  3  4  1  0  0  0  0
  5  6  1  0  0  0  0
  7  5  2  0  0  0  0
  8  7  1  0  0  0  0
  9  1  2  0  0  0  0
  9  7  1  0  0  0  0
 10  2  1  0  0  0  0
 10  9  1  0  0  0  0
 10 11  1  0  0  0  0
 12 10  1  0  0  0  0
 13  2  1  0  0  0  0
 13 16  1  0  0  0  0
 14 13  1  0  0  0  0
 15 13  1  0  0  0  0
 16 17  1  0  0  0  0
 16 18  1  0  0  0  0
 19 16  1  0  0  0  0
 19 22  1  0  0  0  0
 20 19  1  0  0  0  0
 21 19  1  0  0  0  0
 22 25  1  0  0  0  0
 22 24  1  0  0  0  0
 23 22  1  0  0  0  0
M  END
