1,4
q = 0.0, confidence = 0.998

 33 33  0  0  1  0  0  0  0  0999 V2000
    0.7125    0.5353   -1.0435 N   0  0  0  0  0  2  0  0  0  0  0  0
    2.8675    1.3068   -0.3524 N   0  0  0  0  0  0  0  0  0  0  0  0
    2.5332   -0.9048   -1.0747 N   0  0  0  0  0  0  0  0  0  0  0  0
   -1.7513    1.1174   -0.1032 N   0  0  0  0  0  2  0  0  0  0  0  0
    1.9999    0.3343   -0.8285 C   0  0  0  0  0  3  0  0  0  0  0  0
    2.4618    2.2033    0.7181 C   0  0  0  0  0  0  0  0  0  0  0  0
    1.5178    1.8426    1.1737 H   0  0  0  0  0  0  0  0  0  0  0  0
    2.3423    3.2578    0.3765 H   0  0  0  0  0  0  0  0  0  0  0  0
    3.2392    2.2004    1.5148 H   0  0  0  0  0  0  0  0  0  0  0  0
    4.2236    1.4446   -0.8445 C   0  0  0  0  0  0  0  0  0  0  0  0
    4.9875    1.2111   -0.0668 H   0  0  0  0  0  0  0  0  0  0  0  0
    4.4050    2.4886   -1.1866 H   0  0  0  0  0  0  0  0  0  0  0  0
    4.3803    0.7641   -1.7015 H   0  0  0  0  0  0  0  0  0  0  0  0
    3.5005   -1.5089   -0.1679 C   0  0  0  0  0  0  0  0  0  0  0  0
    3.8939   -0.7518    0.5324 H   0  0  0  0  0  0  0  0  0  0  0  0
    4.3485   -1.9555   -0.7292 H   0  0  0  0  0  0  0  0  0  0  0  0
    2.9924   -2.2945    0.4320 H   0  0  0  0  0  0  0  0  0  0  0  0
    1.7963   -1.8572   -1.8952 C   0  0  0  0  0  0  0  0  0  0  0  0
    1.1097   -2.4835   -1.2867 H   0  0  0  0  0  0  0  0  0  0  0  0
    2.5203   -2.5155   -2.4187 H   0  0  0  0  0  0  0  0  0  0  0  0
    1.1793   -1.3139   -2.6320 H   0  0  0  0  0  0  0  0  0  0  0  0
    0.2040    1.8486   -1.3653 C   0  0  0  0  0  0  0  0  0  0  0  0
   -0.0153    1.8913   -2.4616 H   0  0  0  0  0  0  0  0  0  0  0  0
    0.9207    2.6778   -1.1791 H   0  0  0  0  0  0  0  0  0  0  0  0
   -1.1028    2.1564   -0.6569 C   0  0  1  0  0  3  0  0  0  0  0  0
   -1.6441    3.4534   -0.6122 C   0  0  0  0  0  0  0  0  0  0  0  0
   -1.0977    4.2931   -1.0677 H   0  0  0  0  0  0  0  0  0  0  0  0
   -2.8762    3.6516    0.0224 C   0  0  0  0  0  0  0  0  0  0  0  0
   -3.3162    4.6591    0.0763 H   0  0  0  0  0  0  0  0  0  0  0  0
   -3.5387    2.5531    0.5942 C   0  0  0  0  0  0  0  0  0  0  0  0
   -4.5059    2.6699    1.1033 H   0  0  0  0  0  0  0  0  0  0  0  0
   -2.9356    1.2938    0.5106 C   0  0  0  0  0  0  0  0  0  0  0  0
   -3.3808    0.3757    0.9287 H   0  0  0  0  0  0  0  0  0  0  0  0
  1  5  1  0  0  0  0
  2  6  1  0  0  0  0
  3  5  1  0  0  0  0
  3 14  1  0  0  0  0
  4 32  1  0  0  0  0
  5  2  1  0  0  0  0
  6  7  1  0  0  0  0
  6  9  1  0  0  0  0
  8  6  1  0  0  0  0
 10  2  1  0  0  0  0
 10 11  1  0  0  0  0
 12 10  1  0  0  0  0
 13 10  1  0  0  0  0
 14 17  1  0  0  0  0
 14 15  1  0  0  0  0
 16 14  1  0  0  0  0
 18 19  1  0  0  0  0
 18  3  1  0  0  0  0
 20 18  1  0  0  0  0
 21 18  1  0  0  0  0
 22 24  1  0  0  0  0
 22  1  1  0  0  0  0
 23 22  1  0  0  0  0
 25 22  1  6  0  0  0
 25 26  1  0  0  0  0
 25  4  1  0  0  0  0
 26 28  2  0  0  0  0
 27 26  1  0  0  0  0
 28 29  1  0  0  0  0
 28 30  1  0  0  0  0
 30 31  1  0  0  0  0
 32 30  2  0  0  0  0
 32 33  1  0  0  0  0
M  END
