21,22
q = 0.0, confidence = 0.998

 22 24  0  0  0  0  0  0  0  0999 V2000
    4.8785    3.6384   -0.8435 Br  0  0  0  0  0  0  0  0  0  0  0  0
    4.7371   -4.3768    0.7951 Br  0  0  0  0  0  0  0  0  0  0  0  0
    2.5576    2.0453   -0.3659 C   0  0  0  0  0  0  0  0  0  0  0  0
    1.9697    2.9684   -0.5059 H   0  0  0  0  0  0  0  0  0  0  0  0
    3.9750    2.0326   -0.4602 C   0  0  0  0  0  0  0  0  0  0  0  0
    4.6639    0.8377   -0.2706 C   0  0  0  0  0  0  0  0  0  0  0  0
    5.7609    0.8026   -0.3425 H   0  0  0  0  0  0  0  0  0  0  0  0
    3.9314   -0.3428    0.0216 C   0  0  0  0  0  0  0  0  0  0  0  0
    4.5745   -1.6077    0.2343 C   0  0  0  0  0  0  0  0  0  0  0  0
    5.6700   -1.6668    0.1656 H   0  0  0  0  0  0  0  0  0  0  0  0
    3.8366   -2.7336    0.5225 C   0  0  0  0  0  0  0  0  0  0  0  0
    2.3933   -2.6833    0.6228 C   0  0  0  0  0  0  0  0  0  0  0  0
    1.5799   -3.8052    0.9248 C   0  0  0  0  0  0  0  0  0  0  0  0
    2.0582   -4.7809    1.0941 H   0  0  0  0  0  0  0  0  0  0  0  0
    0.2000   -3.6580    1.0036 C   0  0  0  0  0  0  0  0  0  0  0  0
   -0.4503   -4.5124    1.2376 H   0  0  0  0  0  0  0  0  0  0  0  0
   -0.3609   -2.3838    0.7741 C   0  0  0  0  0  0  0  0  0  0  0  0
   -1.4505   -2.2267    0.8212 H   0  0  0  0  0  0  0  0  0  0  0  0
    1.7305   -1.4294    0.4082 C   0  0  0  0  0  0  0  0  0  0  0  0
    2.5091   -0.2424    0.1020 C   0  0  0  0  0  0  0  0  0  0  0  0
    1.8681    0.9369   -0.0968 N   0  0  0  0  0  2  0  0  0  0  0  0
    0.3802   -1.3142    0.4869 N   0  0  0  0  0  2  0  0  0  0  0  0
  1  5  1  0  0  0  0
  3 21  1  0  0  0  0
  4  3  1  0  0  0  0
  5  3  2  0  0  0  0
  5  6  1  0  0  0  0
  6  8  2  0  0  0  0
  7  6  1  0  0  0  0
  8 20  1  0  0  0  0
  8  9  1  0  0  0  0
  9 11  2  0  0  0  0
 10  9  1  0  0  0  0
 11 12  1  0  0  0  0
 11  2  1  0  0  0  0
 12 13  2  0  0  0  0
 13 15  1  0  0  0  0
 13 14  1  0  0  0  0
 15 16  1  0  0  0  0
 17 18  1  0  0  0  0
 17 15  2  0  0  0  0
 19 22  1  0  0  0  0
 19 12  1  0  0  0  0
 20 19  2  0  0  0  0
 21 20  1  0  0  0  0
 22 17  1  0  0  0  0
M  END
