6,7
q = -1.0, confidence = 0.0

 33 33  0  0  0  0  0  0  0  0999 V2000
    1.5596    0.4105    2.1632 F   0  0  0  0  0  0  0  0  0  0  0  0
    4.0810    1.3656    2.0032 F   0  0  0  0  0  0  0  0  0  0  0  0
    5.8600    0.3156    0.1875 F   0  0  0  0  0  0  0  0  0  0  0  0
    5.0207   -1.6545   -1.5378 F   0  0  0  0  0  0  0  0  0  0  0  0
    2.4635   -2.5109   -1.5152 F   0  0  0  0  0  0  0  0  0  0  0  0
    0.5693   -1.4746    0.4148 N   0  0  0  0  0  2  0  0  0  0  0  0
   -2.1546   -1.8260    0.4125 N   0  0  0  0  0  0  0  0  0  0  0  0
   -3.0138   -1.6027    1.6294 C   0  0  0  0  0  0  0  0  0  0  0  0
   -2.2750   -1.0786    2.8503 C   0  0  0  0  0  0  0  0  0  0  0  0
   -3.0849   -2.0983   -0.7391 C   0  0  0  0  0  0  0  0  0  0  0  0
   -2.4161   -2.3070   -2.0877 C   0  0  0  0  0  0  0  0  0  0  0  0
   -1.2349   -3.0031    0.6435 C   0  0  0  0  0  0  0  0  0  0  0  0
    0.1269   -2.7907   -0.0101 C   0  0  0  0  0  0  0  0  0  0  0  0
    1.8916   -1.1109    0.3480 C   0  0  0  0  0  0  0  0  0  0  0  0
    2.3867   -0.1136    1.2426 C   0  0  0  0  0  0  0  0  0  0  0  0
    3.6858    0.3977    1.1642 C   0  0  0  0  0  0  0  0  0  0  0  0
    4.6015   -0.1409    0.2416 C   0  0  0  0  0  0  0  0  0  0  0  0
    4.1709   -1.1548   -0.6292 C   0  0  0  0  0  0  0  0  0  0  0  0
    2.8459   -1.6149   -0.5798 C   0  0  0  0  0  0  0  0  0  0  0  0
   -3.5311   -2.5642    1.8512 H   0  0  0  0  0  0  0  0  0  0  0  0
   -3.7826   -0.8661    1.3237 H   0  0  0  0  0  0  0  0  0  0  0  0
   -2.9962   -0.9615    3.6835 H   0  0  0  0  0  0  0  0  0  0  0  0
   -1.4659   -1.7524    3.1945 H   0  0  0  0  0  0  0  0  0  0  0  0
   -1.8218   -0.0918    2.6292 H   0  0  0  0  0  0  0  0  0  0  0  0
   -3.7553   -1.2184   -0.7947 H   0  0  0  0  0  0  0  0  0  0  0  0
   -3.7002   -2.9845   -0.4612 H   0  0  0  0  0  0  0  0  0  0  0  0
   -3.2000   -2.3670   -2.8681 H   0  0  0  0  0  0  0  0  0  0  0  0
   -1.7584   -1.4450   -2.3239 H   0  0  0  0  0  0  0  0  0  0  0  0
   -1.8193   -3.2383   -2.1400 H   0  0  0  0  0  0  0  0  0  0  0  0
   -1.7363   -3.9276    0.2871 H   0  0  0  0  0  0  0  0  0  0  0  0
   -1.0811   -3.0917    1.7342 H   0  0  0  0  0  0  0  0  0  0  0  0
    0.8229   -3.5781    0.3582 H   0  0  0  0  0  0  0  0  0  0  0  0
    0.0624   -2.9182   -1.1136 H   0  0  0  0  0  0  0  0  0  0  0  0
  3 17  1  0  0  0  0
  4 18  1  0  0  0  0
  5 19  1  0  0  0  0
  7 12  1  0  0  0  0
  7  8  1  0  0  0  0
  8 20  1  0  0  0  0
  8  9  1  0  0  0  0
  9 23  1  0  0  0  0
  9 22  1  0  0  0  0
 10 26  1  0  0  0  0
 10  7  1  0  0  0  0
 11 10  1  0  0  0  0
 12 31  1  0  0  0  0
 13 32  1  0  0  0  0
 13  6  1  0  0  0  0
 13 12  1  0  0  0  0
 14  6  1  0  0  0  0
 14 15  1  0  0  0  0
 15  1  1  0  0  0  0
 16 15  2  0  0  0  0
 16  2  1  0  0  0  0
 17 16  1  0  0  0  0
 18 19  1  0  0  0  0
 18 17  2  0  0  0  0
 19 14  2  0  0  0  0
 21  8  1  0  0  0  0
 24  9  1  0  0  0  0
 25 10  1  0  0  0  0
 27 11  1  0  0  0  0
 28 11  1  0  0  0  0
 29 11  1  0  0  0  0
 30 12  1  0  0  0  0
 33 13  1  0  0  0  0
M  END
