3,10
q = 0.0, confidence = 0.958

 54 55  0  0  1  0  0  0  0  0999 V2000
   -2.7397    3.8022    0.0238 P   0  0  0  0  0  0  0  0  0  0  0  0
    4.7224    1.4294   -0.1688 P   0  0  0  0  0  0  0  0  0  0  0  0
   -1.4330   -0.6250    0.3645 N   0  0  0  0  0  2  0  0  0  0  0  0
    4.2340    2.4312   -1.3493 O   0  0  0  0  0  0  0  0  0  0  0  0
   -4.1996    3.8836    0.7668 O   0  0  0  0  0  0  0  0  0  0  0  0
    4.6155    2.4270    1.1311 O   0  0  0  0  0  0  0  0  0  0  0  0
   -1.6782    4.7367    0.5121 O   0  0  0  0  0  0  0  0  0  0  0  0
   -3.0927    4.0073   -1.5449 O   0  0  0  0  0  0  0  0  0  0  0  0
    6.0237    0.6884   -0.2863 O   0  0  0  0  0  0  0  0  0  0  0  0
    1.0982   -1.4098    0.1825 N   0  0  0  0  0  2  0  0  0  0  0  0
    3.2735    0.3370   -0.0734 C   0  0  0  0  0  0  0  0  0  0  0  0
   -2.7409   -0.3047    0.4770 C   0  0  0  0  0  3  0  0  0  0  0  0
   -3.4322   -1.1459    0.6274 H   0  0  0  0  0  0  0  0  0  0  0  0
    3.4742   -1.0533   -0.0040 C   0  0  0  0  0  0  0  0  0  0  0  0
    4.4910   -1.4685   -0.0560 H   0  0  0  0  0  0  0  0  0  0  0  0
    5.3965    2.1382    2.3154 C   0  0  0  0  0  0  0  0  0  0  0  0
    5.5950    3.1252    2.7797 H   0  0  0  0  0  0  0  0  0  0  0  0
    6.3662    1.6945    2.0059 H   0  0  0  0  0  0  0  0  0  0  0  0
   -2.2743    2.0463    0.1853 C   0  0  0  0  0  0  0  0  0  0  0  0
   -4.2940    4.5136    2.0711 C   0  0  0  0  0  0  0  0  0  0  0  0
   -5.3685    4.7563    2.1894 H   0  0  0  0  0  0  0  0  0  0  0  0
   -3.7189    5.4623    2.0500 H   0  0  0  0  0  0  0  0  0  0  0  0
   -0.5158    0.3727    0.1821 C   0  0  0  0  0  0  0  0  0  0  0  0
    1.9651    0.8346   -0.0223 C   0  0  0  0  0  0  0  0  0  0  0  0
    1.7879    1.9162   -0.0837 H   0  0  0  0  0  0  0  0  0  0  0  0
   -3.2045    1.0094    0.3957 C   0  0  0  0  0  0  0  0  0  0  0  0
   -4.2766    1.2230    0.5064 H   0  0  0  0  0  0  0  0  0  0  0  0
   -0.9145    1.7170    0.0999 C   0  0  0  0  0  0  0  0  0  0  0  0
   -0.1774    2.5217   -0.0266 H   0  0  0  0  0  0  0  0  0  0  0  0
    0.8896   -0.0606    0.1024 C   0  0  1  0  0  3  0  0  0  0  0  0
    2.3617   -1.8866    0.1239 C   0  0  0  0  0  0  0  0  0  0  0  0
    2.4684   -2.9792    0.1744 H   0  0  0  0  0  0  0  0  0  0  0  0
    5.0367    3.5907   -1.6956 C   0  0  0  0  0  0  0  0  0  0  0  0
    5.3547    4.0992   -0.7601 H   0  0  0  0  0  0  0  0  0  0  0  0
    4.3373    4.2672   -2.2258 H   0  0  0  0  0  0  0  0  0  0  0  0
    4.6477    1.2209    3.2667 C   0  0  0  0  0  0  0  0  0  0  0  0
    4.4974    0.2166    2.8210 H   0  0  0  0  0  0  0  0  0  0  0  0
    3.6547    1.6402    3.5239 H   0  0  0  0  0  0  0  0  0  0  0  0
    5.2238    1.0900    4.2049 H   0  0  0  0  0  0  0  0  0  0  0  0
   -3.7984    3.6055    3.1825 C   0  0  0  0  0  0  0  0  0  0  0  0
   -2.7131    3.4074    3.0719 H   0  0  0  0  0  0  0  0  0  0  0  0
   -4.3389    2.6378    3.1863 H   0  0  0  0  0  0  0  0  0  0  0  0
   -3.9536    4.0912    4.1670 H   0  0  0  0  0  0  0  0  0  0  0  0
   -4.0584    3.2355   -2.2950 C   0  0  0  0  0  0  0  0  0  0  0  0
   -4.0405    2.1747   -1.9597 H   0  0  0  0  0  0  0  0  0  0  0  0
   -3.6840    3.2500   -3.3382 H   0  0  0  0  0  0  0  0  0  0  0  0
    6.2244    3.2170   -2.5652 C   0  0  0  0  0  0  0  0  0  0  0  0
    5.8885    2.7070   -3.4896 H   0  0  0  0  0  0  0  0  0  0  0  0
    6.9096    2.5363   -2.0233 H   0  0  0  0  0  0  0  0  0  0  0  0
    6.7835    4.1299   -2.8543 H   0  0  0  0  0  0  0  0  0  0  0  0
   -5.4546    3.8256   -2.2044 C   0  0  0  0  0  0  0  0  0  0  0  0
   -6.1455    3.2584   -2.8604 H   0  0  0  0  0  0  0  0  0  0  0  0
   -5.4521    4.8830   -2.5350 H   0  0  0  0  0  0  0  0  0  0  0  0
   -5.8379    3.7857   -1.1667 H   0  0  0  0  0  0  0  0  0  0  0  0
  1 19  1  0  0  0  0
  1  7  2  0  0  0  0
  1  5  1  0  0  0  0
  2 11  1  0  0  0  0
  2  6  1  0  0  0  0
  3 12  1  0  0  0  0
  4  2  1  0  0  0  0
  5 20  1  0  0  0  0
  6 16  1  0  0  0  0
  8  1  1  0  0  0  0
  9  2  2  0  0  0  0
 11 24  2  0  0  0  0
 11 14  1  0  0  0  0
 12 13  1  0  0  0  0
 14 31  2  0  0  0  0
 15 14  1  0  0  0  0
 16 17  1  0  0  0  0
 16 36  1  0  0  0  0
 18 16  1  0  0  0  0
 19 26  2  0  0  0  0
 20 21  1  0  0  0  0
 20 40  1  0  0  0  0
 22 20  1  0  0  0  0
 23  3  1  0  0  0  0
 24 30  1  0  0  0  0
 25 24  1  0  0  0  0
 26 12  1  0  0  0  0
 26 27  1  0  0  0  0
 28 23  2  0  0  0  0
 28 19  1  0  0  0  0
 29 28  1  0  0  0  0
 30 23  1  1  0  0  0
 30 10  1  0  0  0  0
 31 32  1  0  0  0  0
 31 10  1  0  0  0  0
 33  4  1  0  0  0  0
 33 34  1  0  0  0  0
 35 33  1  0  0  0  0
 36 38  1  0  0  0  0
 36 39  1  0  0  0  0
 37 36  1  0  0  0  0
 40 42  1  0  0  0  0
 40 43  1  0  0  0  0
 41 40  1  0  0  0  0
 44 51  1  0  0  0  0
 44 45  1  0  0  0  0
 44  8  1  0  0  0  0
 46 44  1  0  0  0  0
 47 49  1  0  0  0  0
 47 33  1  0  0  0  0
 48 47  1  0  0  0  0
 50 47  1  0  0  0  0
 51 54  1  0  0  0  0
 52 51  1  0  0  0  0
 53 51  1  0  0  0  0
M  END
