1,2
q = 0.0, confidence = 0.978

 38 41  0  0  0  0  0  0  0  0999 V2000
   -0.3185   -2.0871    1.1702 N   0  0  0  0  0  2  0  0  0  0  0  0
    0.7770    0.2058    1.0011 N   0  0  0  0  0  2  0  0  0  0  0  0
   -1.0322   -3.2401    1.2501 C   0  0  0  0  0  3  0  0  0  0  0  0
   -2.0547   -3.1384    1.6341 H   0  0  0  0  0  0  0  0  0  0  0  0
   -0.5205   -4.4726    0.8513 C   0  0  0  0  0  0  0  0  0  0  0  0
   -1.1456   -5.3716    0.9433 H   0  0  0  0  0  0  0  0  0  0  0  0
    0.7789   -4.5275    0.3179 C   0  0  0  0  0  0  0  0  0  0  0  0
    1.2054   -5.4771   -0.0355 H   0  0  0  0  0  0  0  0  0  0  0  0
    1.5234   -3.3505    0.2366 C   0  0  0  0  0  0  0  0  0  0  0  0
    2.5304   -3.3616   -0.1920 H   0  0  0  0  0  0  0  0  0  0  0  0
    0.9721   -2.1322    0.6875 C   0  0  0  0  0  0  0  0  0  0  0  0
    1.1212    1.4827    0.9105 N   0  0  0  0  0  2  0  0  0  0  0  0
    2.3179    1.8085    0.3996 C   0  0  0  0  0  0  0  0  0  0  0  0
    3.2665    0.8300    0.0388 C   0  0  0  0  0  0  0  0  0  0  0  0
    4.2514    1.1548   -0.3222 H   0  0  0  0  0  0  0  0  0  0  0  0
    2.9451   -0.5186    0.1962 C   0  0  0  0  0  0  0  0  0  0  0  0
    1.6205   -0.8204    0.6267 C   0  0  0  0  0  0  0  0  0  0  0  0
    6.0872   -3.3826   -0.4641 C   0  0  0  0  0  0  0  0  0  0  0  0
    6.8997   -4.1058   -0.6286 H   0  0  0  0  0  0  0  0  0  0  0  0
    4.5992   -1.6567   -1.3155 C   0  0  0  0  0  0  0  0  0  0  0  0
    4.2341   -1.0310   -2.1430 H   0  0  0  0  0  0  0  0  0  0  0  0
    4.0038   -1.5341   -0.0433 C   0  0  0  0  0  0  0  0  0  0  0  0
    5.5129   -3.2482    0.8114 C   0  0  0  0  0  0  0  0  0  0  0  0
    5.8808   -3.8586    1.6495 H   0  0  0  0  0  0  0  0  0  0  0  0
    5.6298   -2.5854   -1.5250 C   0  0  0  0  0  0  0  0  0  0  0  0
    6.0818   -2.6830   -2.5233 H   0  0  0  0  0  0  0  0  0  0  0  0
    1.7494    4.2460    0.7493 C   0  0  0  0  0  0  0  0  0  0  0  0
    0.8495    3.9493    1.3048 H   0  0  0  0  0  0  0  0  0  0  0  0
    2.0813    5.5908    0.5427 C   0  0  0  0  0  0  0  0  0  0  0  0
    1.4346    6.3914    0.9323 H   0  0  0  0  0  0  0  0  0  0  0  0
    2.6138    3.2558    0.2368 C   0  0  0  0  0  0  0  0  0  0  0  0
    4.4749   -2.3316    1.0231 C   0  0  0  0  0  0  0  0  0  0  0  0
    4.0250   -2.2252    2.0220 H   0  0  0  0  0  0  0  0  0  0  0  0
    3.2548    5.8981   -0.1610 C   0  0  0  0  0  0  0  0  0  0  0  0
    3.5546    6.9401   -0.3451 H   0  0  0  0  0  0  0  0  0  0  0  0
    4.0537    4.8368   -0.6245 C   0  0  0  0  0  0  0  0  0  0  0  0
    4.9878    5.0421   -1.1760 H   0  0  0  0  0  0  0  0  0  0  0  0
    3.7469    3.5486   -0.4330 N   0  0  0  0  0  0  0  0  0  0  0  0
  1  3  1  0  0  0  0
  3  4  1  0  0  0  0
  5  6  1  0  0  0  0
  5  3  1  0  0  0  0
  7  5  2  0  0  0  0
  8  7  1  0  0  0  0
  9  7  1  0  0  0  0
  9 11  2  0  0  0  0
 10  9  1  0  0  0  0
 11  1  1  0  0  0  0
 12  2  1  0  0  0  0
 13 12  1  0  0  0  0
 14 16  1  0  0  0  0
 14 13  2  0  0  0  0
 15 14  1  0  0  0  0
 16 17  2  0  0  0  0
 17 11  1  0  0  0  0
 17  2  1  0  0  0  0
 18 23  1  0  0  0  0
 19 18  1  0  0  0  0
 20 22  2  0  0  0  0
 21 20  1  0  0  0  0
 22 16  1  0  0  0  0
 22 32  1  0  0  0  0
 23 32  2  0  0  0  0
 23 24  1  0  0  0  0
 25 20  1  0  0  0  0
 25 18  2  0  0  0  0
 26 25  1  0  0  0  0
 27 28  1  0  0  0  0
 29 27  1  0  0  0  0
 29 30  1  0  0  0  0
 31 13  1  0  0  0  0
 31 27  2  0  0  0  0
 32 33  1  0  0  0  0
 34 29  2  0  0  0  0
 35 34  1  0  0  0  0
 36 38  2  0  0  0  0
 36 34  1  0  0  0  0
 37 36  1  0  0  0  0
 38 31  1  0  0  0  0
M  END
