1,3
q = 0.0, confidence = 0.998

 26 28  0  0  0  0  0  0  0  0999 V2000
   -0.1838   -1.4367    0.6950 N   0  0  0  0  0  2  0  0  0  0  0  0
    1.1782   -1.4714    0.7195 N   0  0  0  0  0  0  0  0  0  0  0  0
   -0.1837    1.4367    0.6951 N   0  0  0  0  0  2  0  0  0  0  0  0
    1.1783    1.4714    0.7195 N   0  0  0  0  0  0  0  0  0  0  0  0
   -0.6118    2.4429    1.4695 C   0  0  0  0  0  3  0  0  0  0  0  0
   -1.6909    2.6085    1.5634 H   0  0  0  0  0  0  0  0  0  0  0  0
    0.4903    3.1489    2.0079 C   0  0  0  0  0  0  0  0  0  0  0  0
    0.4651    4.0075    2.6856 H   0  0  0  0  0  0  0  0  0  0  0  0
    1.6156    2.5116    1.5018 C   0  0  0  0  0  0  0  0  0  0  0  0
    2.6867    2.6928    1.6383 H   0  0  0  0  0  0  0  0  0  0  0  0
    1.9728    0.7073   -0.1795 C   0  0  0  0  0  0  0  0  0  0  0  0
    2.8125    1.3983   -1.0710 C   0  0  0  0  0  0  0  0  0  0  0  0
    2.7760    2.4968   -1.0800 H   0  0  0  0  0  0  0  0  0  0  0  0
    3.6626    0.7011   -1.9380 C   0  0  0  0  0  0  0  0  0  0  0  0
    4.3104    1.2583   -2.6301 H   0  0  0  0  0  0  0  0  0  0  0  0
    3.6625   -0.7013   -1.9381 C   0  0  0  0  0  0  0  0  0  0  0  0
    4.3103   -1.2585   -2.6302 H   0  0  0  0  0  0  0  0  0  0  0  0
    2.8123   -1.3984   -1.0711 C   0  0  0  0  0  0  0  0  0  0  0  0
    2.7758   -2.4970   -1.0801 H   0  0  0  0  0  0  0  0  0  0  0  0
    1.9728   -0.7074   -0.1796 C   0  0  0  0  0  0  0  0  0  0  0  0
    1.6155   -2.5117    1.5017 C   0  0  0  0  0  3  0  0  0  0  0  0
    2.6865   -2.6930    1.6383 H   0  0  0  0  0  0  0  0  0  0  0  0
    0.4901   -3.1489    2.0080 C   0  0  0  0  0  0  0  0  0  0  0  0
    0.4650   -4.0074    2.6858 H   0  0  0  0  0  0  0  0  0  0  0  0
   -0.6119   -2.4429    1.4693 C   0  0  0  0  0  0  0  0  0  0  0  0
   -1.6911   -2.6086    1.5632 H   0  0  0  0  0  0  0  0  0  0  0  0
  1  2  1  0  0  0  0
  1 25  1  0  0  0  0
  2 21  1  0  0  0  0
  3  4  1  0  0  0  0
  3  5  1  0  0  0  0
  4  9  1  0  0  0  0
  5  6  1  0  0  0  0
  5  7  1  0  0  0  0
  7  8  1  0  0  0  0
  9 10  1  0  0  0  0
  9  7  2  0  0  0  0
 11  4  1  0  0  0  0
 12 11  2  0  0  0  0
 13 12  1  0  0  0  0
 14 12  1  0  0  0  0
 15 14  1  0  0  0  0
 16 14  2  0  0  0  0
 16 18  1  0  0  0  0
 17 16  1  0  0  0  0
 18 20  2  0  0  0  0
 19 18  1  0  0  0  0
 20 11  1  0  0  0  0
 20  2  1  0  0  0  0
 21 22  1  0  0  0  0
 21 23  1  0  0  0  0
 23 24  1  0  0  0  0
 25 26  1  0  0  0  0
 25 23  2  0  0  0  0
M  END
