1,2
q = 0.0, confidence = 0.998

 20 20  0  0  0  0  0  0  0  0999 V2000
   -0.3043    1.7397   -0.0021 N   0  0  0  0  0  2  0  0  0  0  0  0
   -1.2635   -0.6990    0.0003 N   0  0  0  0  0  2  0  0  0  0  0  0
   -1.6182    1.6725   -0.0011 C   0  0  0  0  0  0  0  0  0  0  0  0
   -2.5430    2.8587   -0.0006 C   0  0  0  0  0  0  0  0  0  0  0  0
   -1.9993    3.8179    0.0018 H   0  0  0  0  0  0  0  0  0  0  0  0
   -3.2052    2.8424    0.8900 H   0  0  0  0  0  0  0  0  0  0  0  0
   -3.2029    2.8453   -0.8930 H   0  0  0  0  0  0  0  0  0  0  0  0
    0.3533    3.0449   -0.0031 C   0  0  0  0  0  0  0  0  0  0  0  0
    1.4460    2.9036   -0.0111 H   0  0  0  0  0  0  0  0  0  0  0  0
    0.0842    3.6324    0.9006 H   0  0  0  0  0  0  0  0  0  0  0  0
    0.0713    3.6389   -0.8984 H   0  0  0  0  0  0  0  0  0  0  0  0
   -2.1817    0.3210   -0.0003 C   0  0  0  0  0  0  0  0  0  0  0  0
   -3.5678    0.0564   -0.0003 C   0  0  0  0  0  0  0  0  0  0  0  0
   -4.2831    0.8896   -0.0008 H   0  0  0  0  0  0  0  0  0  0  0  0
   -4.0218   -1.2644    0.0003 C   0  0  0  0  0  0  0  0  0  0  0  0
   -5.0992   -1.4851    0.0003 H   0  0  0  0  0  0  0  0  0  0  0  0
   -3.0721   -2.3013    0.0009 C   0  0  0  0  0  0  0  0  0  0  0  0
   -3.3753   -3.3577    0.0014 H   0  0  0  0  0  0  0  0  0  0  0  0
   -1.7142   -1.9751    0.0009 C   0  0  0  0  0  0  0  0  0  0  0  0
   -0.9394   -2.7556    0.0014 H   0  0  0  0  0  0  0  0  0  0  0  0
  1  3  1  0  0  0  0
  2 19  1  0  0  0  0
  3  4  1  0  0  0  0
  3 12  2  0  0  0  0
  4  5  1  0  0  0  0
  4  6  1  0  0  0  0
  7  4  1  0  0  0  0
  8  1  1  0  0  0  0
  8 10  1  0  0  0  0
  9  8  1  0  0  0  0
 11  8  1  0  0  0  0
 12 13  1  0  0  0  0
 12  2  1  0  0  0  0
 13 15  2  0  0  0  0
 14 13  1  0  0  0  0
 15 17  1  0  0  0  0
 16 15  1  0  0  0  0
 17 18  1  0  0  0  0
 19 17  2  0  0  0  0
 19 20  1  0  0  0  0
M  END
