1,2
q = 0.0, confidence = 0.998

 30 32  0  0  1  0  0  0  0  0999 V2000
   -2.2142   -0.0040    0.4447 N   0  0  0  0  0  2  0  0  0  0  0  0
    0.2157    1.1254    0.3118 N   0  0  0  0  0  2  0  0  0  0  0  0
    1.4651    1.6543    0.2027 C   0  0  2  0  0  3  0  0  0  0  0  0
   -2.1813    1.3588    0.4611 C   0  0  1  0  0  3  0  0  0  0  0  0
   -3.3494    2.1025    0.7166 C   0  0  0  0  0  0  0  0  0  0  0  0
   -3.3087    3.1989    0.7498 H   0  0  0  0  0  0  0  0  0  0  0  0
    2.6575    0.7828    0.4031 C   0  0  0  0  0  0  0  0  0  0  0  0
    1.6825    3.0077   -0.0775 C   0  0  0  0  0  0  0  0  0  0  0  0
    2.7094    3.3680   -0.2171 H   0  0  0  0  0  0  0  0  0  0  0  0
   -0.7017    3.3499    0.0342 C   0  0  0  0  0  0  0  0  0  0  0  0
   -1.5832    4.0034   -0.0272 H   0  0  0  0  0  0  0  0  0  0  0  0
   -0.8532    1.9737    0.2534 C   0  0  0  0  0  0  0  0  0  0  0  0
    3.6908    0.9969   -0.4331 N   0  0  0  0  0  0  0  0  0  0  0  0
   -4.5741    0.0358    0.9259 C   0  0  0  0  0  0  0  0  0  0  0  0
   -5.4982   -0.5323    1.1005 H   0  0  0  0  0  0  0  0  0  0  0  0
   -3.3814   -0.6442    0.6743 C   0  0  0  0  0  0  0  0  0  0  0  0
   -3.3408   -1.7422    0.6379 H   0  0  0  0  0  0  0  0  0  0  0  0
    2.7053   -0.1507    1.4586 C   0  0  0  0  0  0  0  0  0  0  0  0
    1.8625   -0.2510    2.1536 H   0  0  0  0  0  0  0  0  0  0  0  0
    4.9057   -0.7663    0.6894 C   0  0  0  0  0  0  0  0  0  0  0  0
    5.8181   -1.3777    0.7478 H   0  0  0  0  0  0  0  0  0  0  0  0
   -4.5574    1.4395    0.9454 C   0  0  0  0  0  0  0  0  0  0  0  0
   -5.4758    2.0112    1.1436 H   0  0  0  0  0  0  0  0  0  0  0  0
    3.8520   -0.9414    1.5967 C   0  0  0  0  0  0  0  0  0  0  0  0
    3.9144   -1.6886    2.4019 H   0  0  0  0  0  0  0  0  0  0  0  0
    4.7793    0.2288   -0.2950 C   0  0  0  0  0  0  0  0  0  0  0  0
    5.6021    0.4158   -1.0074 H   0  0  0  0  0  0  0  0  0  0  0  0
    0.8171    5.1750   -0.4551 O   0  0  0  0  0  0  0  0  0  0  0  0
    0.5838    3.8765   -0.1795 C   0  0  0  0  0  0  0  0  0  0  0  0
   -0.0327    5.6511   -0.5183 H   0  0  0  0  0  0  0  0  0  0  0  0
  1  4  1  0  0  0  0
  1 16  1  0  0  0  0
  3  2  1  0  0  0  0
  3  7  1  1  0  0  0
  4 12  1  1  0  0  0
  4  5  1  0  0  0  0
  5  6  1  0  0  0  0
  5 22  2  0  0  0  0
  7 18  1  0  0  0  0
  8  3  1  0  0  0  0
  9  8  1  0  0  0  0
 10 12  2  0  0  0  0
 11 10  1  0  0  0  0
 12  2  1  0  0  0  0
 13 26  1  0  0  0  0
 13  7  2  0  0  0  0
 14 22  1  0  0  0  0
 14 15  1  0  0  0  0
 16 14  2  0  0  0  0
 17 16  1  0  0  0  0
 18 24  2  0  0  0  0
 18 19  1  0  0  0  0
 20 21  1  0  0  0  0
 20 24  1  0  0  0  0
 22 23  1  0  0  0  0
 24 25  1  0  0  0  0
 26 20  2  0  0  0  0
 27 26  1  0  0  0  0
 28 29  1  0  0  0  0
 29  8  2  0  0  0  0
 29 10  1  0  0  0  0
 30 28  1  0  0  0  0
M  END
