8,35
q = -1.0

 35 36  0  0  1  0  0  0  0  0999 V2000
    1.8494   -2.0221    2.1052 O   0  0  0  0  0  0  0  0  0  0  0  0
    1.5923   -1.4504    0.7465 S   0  0  0  0  0  0  0  0  0  0  0  0
    5.5991    0.3616   -0.6063 C   0  0  0  0  0  0  0  0  0  0  0  0
    6.7357    0.9314   -1.0942 O   0  0  0  0  0  0  0  0  0  0  0  0
    4.4458    0.4962   -1.4152 C   0  0  0  0  0  0  0  0  0  0  0  0
    4.5390    1.0393   -2.3670 H   0  0  0  0  0  0  0  0  0  0  0  0
    1.1234   -2.3552   -0.3320 O   0  0  0  0  0  0  0  0  0  0  0  0
    0.5542   -0.1711    0.8441 N   0  0  0  0  0  2  0  0  0  0  0  0
    3.1587   -0.7353    0.2178 C   0  0  0  0  0  0  0  0  0  0  0  0
    4.2901   -0.8747    1.0289 C   0  0  0  0  0  0  0  0  0  0  0  0
    4.1961   -1.4193    1.9795 H   0  0  0  0  0  0  0  0  0  0  0  0
    5.5177   -0.3270    0.6218 C   0  0  0  0  0  0  0  0  0  0  0  0
    6.3989   -0.4452    1.2664 H   0  0  0  0  0  0  0  0  0  0  0  0
    7.9220    0.8216   -0.3332 C   0  0  0  0  0  0  0  0  0  0  0  0
    7.8234    1.3056    0.6649 H   0  0  0  0  0  0  0  0  0  0  0  0
    8.7125    1.3407   -0.9067 H   0  0  0  0  0  0  0  0  0  0  0  0
    8.2233   -0.2397   -0.1825 H   0  0  0  0  0  0  0  0  0  0  0  0
    3.2285   -0.0490   -1.0101 C   0  0  0  0  0  0  0  0  0  0  0  0
    2.3210    0.0584   -1.6278 H   0  0  0  0  0  0  0  0  0  0  0  0
    0.9051    0.7852    1.8855 C   0  0  0  0  0  0  0  0  0  0  0  0
    1.7013    1.4948    1.5478 H   0  0  0  0  0  0  0  0  0  0  0  0
    1.3061    0.2470    2.7732 H   0  0  0  0  0  0  0  0  0  0  0  0
   -0.3103    1.6022    2.3436 C   0  0  0  0  0  0  0  0  0  0  0  0
   -1.1077    0.8990    2.6601 H   0  0  0  0  0  0  0  0  0  0  0  0
   -0.0309    2.2165    3.2216 H   0  0  0  0  0  0  0  0  0  0  0  0
   -0.8371    2.5027    1.2662 C   0  0  1  0  0  3  0  0  0  0  0  0
   -0.9175    3.8973    1.4333 C   0  0  0  0  0  0  0  0  0  0  0  0
   -0.6126    4.3318    2.3960 H   0  0  0  0  0  0  0  0  0  0  0  0
   -1.3742    4.7088    0.3889 C   0  0  0  0  0  0  0  0  0  0  0  0
   -1.4462    5.7992    0.5179 H   0  0  0  0  0  0  0  0  0  0  0  0
   -1.7205    4.1033   -0.8268 C   0  0  0  0  0  0  0  0  0  0  0  0
   -2.0639    4.6923   -1.6887 H   0  0  0  0  0  0  0  0  0  0  0  0
   -1.6103    2.7164   -0.9439 C   0  0  0  0  0  0  0  0  0  0  0  0
   -1.8066    2.1846   -1.8861 H   0  0  0  0  0  0  0  0  0  0  0  0
   -1.2029    1.9331    0.0857 N   0  0  0  0  0  2  0  0  0  0  0  0
  2  8  1  0  0  0  0
  2  1  2  0  0  0  0
  3 12  1  0  0  0  0
  4  3  1  0  0  0  0
  4 14  1  0  0  0  0
  5 18  1  0  0  0  0
  5  3  2  0  0  0  0
  6  5  1  0  0  0  0
  7  2  2  0  0  0  0
  8 20  1  0  0  0  0
  9  2  1  0  0  0  0
  9 10  1  0  0  0  0
 10 11  1  0  0  0  0
 12 10  2  0  0  0  0
 12 13  1  0  0  0  0
 14 17  1  0  0  0  0
 14 15  1  0  0  0  0
 16 14  1  0  0  0  0
 18  9  2  0  0  0  0
 19 18  1  0  0  0  0
 20 23  1  0  0  0  0
 20 22  1  0  0  0  0
 21 20  1  0  0  0  0
 23 24  1  0  0  0  0
 23 25  1  0  0  0  0
 26 27  1  0  0  0  0
 26 23  1  6  0  0  0
 27 28  1  0  0  0  0
 29 30  1  0  0  0  0
 29 27  2  0  0  0  0
 31 29  1  0  0  0  0
 32 31  1  0  0  0  0
 33 31  2  0  0  0  0
 33 35  1  0  0  0  0
 34 33  1  0  0  0  0
 35 26  1  0  0  0  0
M  END
