6,25
q = -1.0

 33 34  0  0  0  0  0  0  0  0999 V2000
    1.3521   -1.6164    0.8019 S   0  0  0  0  0  0  0  0  0  0  0  0
    1.5519   -2.2601    2.1346 O   0  0  0  0  0  0  0  0  0  0  0  0
    0.9005   -2.4419   -0.3430 O   0  0  0  0  0  0  0  0  0  0  0  0
    7.6727    0.5448    0.1330 O   0  0  0  0  0  0  0  0  0  0  0  0
    6.8419    1.2857   -1.7478 O   0  0  0  0  0  0  0  0  0  0  0  0
   -1.2096    1.9466    0.1822 N   0  0  0  0  0  2  0  0  0  0  0  0
    4.0476   -1.0918    1.2412 C   0  0  0  0  0  0  0  0  0  0  0  0
    3.8847   -1.6347    2.1832 H   0  0  0  0  0  0  0  0  0  0  0  0
    6.7518    0.6934   -0.6717 N   0  0  0  0  0  0  0  0  0  0  0  0
   -1.5078    2.8059   -0.8240 C   0  0  0  0  0  3  0  0  0  0  0  0
   -1.6888    2.3374   -1.8020 H   0  0  0  0  0  0  0  0  0  0  0  0
   -1.5320    4.1896   -0.6396 C   0  0  0  0  0  0  0  0  0  0  0  0
   -1.7869    4.8425   -1.4861 H   0  0  0  0  0  0  0  0  0  0  0  0
   -1.2143    4.7093    0.6225 C   0  0  0  0  0  0  0  0  0  0  0  0
   -1.2195    5.7944    0.8046 H   0  0  0  0  0  0  0  0  0  0  0  0
   -0.8743    3.8178    1.6460 C   0  0  0  0  0  0  0  0  0  0  0  0
   -0.5979    4.1827    2.6455 H   0  0  0  0  0  0  0  0  0  0  0  0
   -0.8779    2.4311    1.4100 C   0  0  0  0  0  0  0  0  0  0  0  0
   -0.4837    1.4449    2.4695 C   0  0  0  0  0  0  0  0  0  0  0  0
   -1.3447    0.7833    2.6953 H   0  0  0  0  0  0  0  0  0  0  0  0
   -0.2272    1.9942    3.3960 H   0  0  0  0  0  0  0  0  0  0  0  0
    0.7071    0.5721    2.0546 C   0  0  0  0  0  0  0  0  0  0  0  0
    1.5684    1.2434    1.8147 H   0  0  0  0  0  0  0  0  0  0  0  0
    1.0064   -0.0394    2.9342 H   0  0  0  0  0  0  0  0  0  0  0  0
    0.3743   -0.3004    0.9329 N   0  0  0  0  0  2  0  0  0  0  0  0
    2.9728   -0.9416    0.3502 C   0  0  0  0  0  0  0  0  0  0  0  0
    5.2969   -0.5551    0.9053 C   0  0  0  0  0  0  0  0  0  0  0  0
    6.1707   -0.6446    1.5642 H   0  0  0  0  0  0  0  0  0  0  0  0
    5.4326    0.1166   -0.3169 C   0  0  0  0  0  0  0  0  0  0  0  0
    4.3621    0.2672   -1.2131 C   0  0  0  0  0  0  0  0  0  0  0  0
    4.5287    0.8037   -2.1566 H   0  0  0  0  0  0  0  0  0  0  0  0
    3.1152   -0.2680   -0.8760 C   0  0  0  0  0  0  0  0  0  0  0  0
    2.2423   -0.1530   -1.5409 H   0  0  0  0  0  0  0  0  0  0  0  0
  1 25  1  0  0  0  0
  1  2  2  0  0  0  0
  3  1  2  0  0  0  0
  5  9  2  0  0  0  0
  6 18  1  0  0  0  0
  7  8  1  0  0  0  0
  9 29  1  0  0  0  0
  9  4  2  0  0  0  0
 10 12  1  0  0  0  0
 10  6  1  0  0  0  0
 11 10  1  0  0  0  0
 12 14  2  0  0  0  0
 13 12  1  0  0  0  0
 14 15  1  0  0  0  0
 14 16  1  0  0  0  0
 16 17  1  0  0  0  0
 18 16  2  0  0  0  0
 18 19  1  0  0  0  0
 19 20  1  0  0  0  0
 19 21  1  0  0  0  0
 22 19  1  0  0  0  0
 22 24  1  0  0  0  0
 23 22  1  0  0  0  0
 25 22  1  0  0  0  0
 26  1  1  0  0  0  0
 26  7  2  0  0  0  0
 27  7  1  0  0  0  0
 27 28  1  0  0  0  0
 29 27  2  0  0  0  0
 30 32  2  0  0  0  0
 30 29  1  0  0  0  0
 31 30  1  0  0  0  0
 32 26  1  0  0  0  0
 33 32  1  0  0  0  0
M  END
