7,27
q = 0.0, confidence = 0.994

 37 40  0  0  0  0  0  0  0  0999 V2000
    5.8363   -2.4298    0.0252 O   0  0  0  0  0  0  0  0  0  0  0  0
    4.5975   -0.4827   -0.0367 N   0  0  0  0  0  0  0  0  0  0  0  0
    4.5365    0.5612    0.0428 H   0  0  0  0  0  0  0  0  0  0  0  0
    5.8229   -1.2126   -0.0024 C   0  0  0  0  0  0  0  0  0  0  0  0
    3.2870    1.7394   -0.0114 O   0  0  0  0  0  0  0  0  0  0  0  0
    3.4636   -1.1266   -0.1303 N   0  0  0  0  0  0  0  0  0  0  0  0
   -1.4950    1.4050   -0.3352 N   0  0  0  0  0  0  0  0  0  0  0  0
   -0.2470    0.8565   -0.2590 C   0  0  0  0  0  0  0  0  0  0  0  0
    0.9167    1.6568   -0.1719 C   0  0  0  0  0  0  0  0  0  0  0  0
    0.7765    3.0566   -0.1479 C   0  0  0  0  0  0  0  0  0  0  0  0
    1.6827    3.6748   -0.0711 H   0  0  0  0  0  0  0  0  0  0  0  0
   -0.5058    3.6052   -0.2230 C   0  0  0  0  0  0  0  0  0  0  0  0
   -0.6670    4.6920   -0.2060 H   0  0  0  0  0  0  0  0  0  0  0  0
   -1.6126    2.7473   -0.3178 C   0  0  0  0  0  0  0  0  0  0  0  0
   -2.6379    3.1410   -0.3719 H   0  0  0  0  0  0  0  0  0  0  0  0
    7.0424   -0.3490    0.0093 C   0  0  0  0  0  0  0  0  0  0  0  0
    8.2684   -0.9889    0.2932 C   0  0  0  0  0  0  0  0  0  0  0  0
    8.2523   -2.0704    0.4922 H   0  0  0  0  0  0  0  0  0  0  0  0
    9.4589   -0.2558    0.3185 C   0  0  0  0  0  0  0  0  0  0  0  0
   10.4096   -0.7605    0.5469 H   0  0  0  0  0  0  0  0  0  0  0  0
    9.4402    1.1241    0.0510 C   0  0  0  0  0  0  0  0  0  0  0  0
   10.3768    1.7017    0.0697 H   0  0  0  0  0  0  0  0  0  0  0  0
    8.2273    1.7664   -0.2454 C   0  0  0  0  0  0  0  0  0  0  0  0
    8.2123    2.8440   -0.4663 H   0  0  0  0  0  0  0  0  0  0  0  0
    7.0309    1.0369   -0.2673 C   0  0  0  0  0  0  0  0  0  0  0  0
    6.0983    1.5616   -0.5249 H   0  0  0  0  0  0  0  0  0  0  0  0
   -1.3405   -1.2725   -0.3942 N   0  0  0  0  0  0  0  0  0  0  0  0
    2.3240   -0.4450   -0.1561 C   0  0  0  0  0  0  0  0  0  0  0  0
    2.2572    1.0324   -0.1032 C   0  0  0  0  0  0  0  0  0  0  0  0
   -0.1618   -0.5917   -0.2974 C   0  0  0  0  0  0  0  0  0  0  0  0
    1.0950   -1.2418   -0.2565 C   0  0  0  0  0  0  0  0  0  0  0  0
    1.1092   -2.6518   -0.3103 C   0  0  0  0  0  0  0  0  0  0  0  0
    2.0762   -3.1731   -0.2726 H   0  0  0  0  0  0  0  0  0  0  0  0
   -0.1033   -3.3362   -0.4078 C   0  0  0  0  0  0  0  0  0  0  0  0
   -0.1317   -4.4341   -0.4485 H   0  0  0  0  0  0  0  0  0  0  0  0
   -1.3083   -2.6165   -0.4480 C   0  0  0  0  0  0  0  0  0  0  0  0
   -2.2809   -3.1244   -0.5138 H   0  0  0  0  0  0  0  0  0  0  0  0
  2  4  1  0  0  0  0
  2  3  1  0  0  0  0
  4 16  1  0  0  0  0
  4  1  2  0  0  0  0
  6  2  1  0  0  0  0
  7 14  1  0  0  0  0
  7  8  2  0  0  0  0
  8  9  1  0  0  0  0
  9 10  2  0  0  0  0
  9 29  1  0  0  0  0
 10 11  1  0  0  0  0
 12 13  1  0  0  0  0
 12 10  1  0  0  0  0
 14 12  2  0  0  0  0
 15 14  1  0  0  0  0
 16 17  1  0  0  0  0
 17 19  2  0  0  0  0
 17 18  1  0  0  0  0
 19 20  1  0  0  0  0
 21 22  1  0  0  0  0
 21 19  1  0  0  0  0
 23 21  2  0  0  0  0
 24 23  1  0  0  0  0
 25 23  1  0  0  0  0
 25 16  2  0  0  0  0
 26 25  1  0  0  0  0
 27 30  2  0  0  0  0
 28  6  2  0  0  0  0
 28 29  1  0  0  0  0
 29  5  2  0  0  0  0
 30  8  1  0  0  0  0
 30 31  1  0  0  0  0
 31 28  1  0  0  0  0
 32 33  1  0  0  0  0
 32 31  2  0  0  0  0
 34 32  1  0  0  0  0
 35 34  1  0  0  0  0
 36 34  2  0  0  0  0
 36 27  1  0  0  0  0
 37 36  1  0  0  0  0
M  END
