11,13
q = -1.0, confidence = 0.006

 31 32  0  0  1  0  0  0  0  0999 V2000
   -4.1280   -0.9159   -0.5611 N   0  0  0  0  0  0  0  0  0  0  0  0
   -4.0343   -2.2882   -1.0509 C   0  0  0  0  0  0  0  0  0  0  0  0
   -5.4314   -0.4160   -0.3211 C   0  0  0  0  0  0  0  0  0  0  0  0
   -6.4238   -1.1101   -0.5064 O   0  0  0  0  0  0  0  0  0  0  0  0
   -5.5205    0.8869    0.1468 N   0  0  0  0  0  0  0  0  0  0  0  0
   -6.8696    1.3752    0.4251 C   0  0  0  0  0  0  0  0  0  0  0  0
   -4.4291    1.7803    0.3340 C   0  0  0  0  0  0  0  0  0  0  0  0
   -4.6180    2.9252    0.7226 O   0  0  0  0  0  0  0  0  0  0  0  0
   -3.1040    1.2059    0.0339 C   0  0  0  0  0  0  0  0  0  0  0  0
   -2.9660   -0.1864   -0.3396 C   0  0  2  0  0  3  0  0  0  0  0  0
   -1.7900   -0.7506   -0.5180 N   0  0  0  0  0  2  0  0  0  0  0  0
   -2.1164    2.1056    0.0171 N   0  0  0  0  0  0  0  0  0  0  0  0
   -0.8714    1.8474   -0.1514 N   0  0  0  0  0  2  0  0  0  0  0  0
   -0.0630    3.0208   -0.2866 C   0  0  0  0  0  0  0  0  0  0  0  0
    0.9739    3.0385   -1.2407 C   0  0  0  0  0  0  0  0  0  0  0  0
    1.7740    4.1822   -1.3807 C   0  0  0  0  0  0  0  0  0  0  0  0
    1.5500    5.3080   -0.5708 C   0  0  0  0  0  0  0  0  0  0  0  0
    0.5053    5.2903    0.3703 C   0  0  0  0  0  0  0  0  0  0  0  0
   -0.3067    4.1580    0.5112 C   0  0  0  0  0  0  0  0  0  0  0  0
   -1.8141   -1.7380   -0.7892 H   0  0  0  0  0  0  0  0  0  0  0  0
   -7.3589    0.7376    1.1863 H   0  0  0  0  0  0  0  0  0  0  0  0
   -3.5239   -2.3172   -2.0361 H   0  0  0  0  0  0  0  0  0  0  0  0
   -1.1468    4.1327    1.2196 H   0  0  0  0  0  0  0  0  0  0  0  0
    0.3177    6.1723    1.0014 H   0  0  0  0  0  0  0  0  0  0  0  0
    2.1817    6.2022   -0.6796 H   0  0  0  0  0  0  0  0  0  0  0  0
    2.5730    4.1954   -2.1376 H   0  0  0  0  0  0  0  0  0  0  0  0
    1.1341    2.1522   -1.8719 H   0  0  0  0  0  0  0  0  0  0  0  0
   -6.7650    2.4112    0.7899 H   0  0  0  0  0  0  0  0  0  0  0  0
   -7.4870    1.3472   -0.4934 H   0  0  0  0  0  0  0  0  0  0  0  0
   -3.4842   -2.9326   -0.3346 H   0  0  0  0  0  0  0  0  0  0  0  0
   -5.0660   -2.6628   -1.1612 H   0  0  0  0  0  0  0  0  0  0  0  0
  1 10  1  0  0  0  0
  1  3  1  0  0  0  0
  2  1  1  0  0  0  0
  2 30  1  0  0  0  0
  3  5  1  0  0  0  0
  4  3  2  0  0  0  0
  5  7  1  0  0  0  0
  5  6  1  0  0  0  0
  6 28  1  0  0  0  0
  6 21  1  0  0  0  0
  7  8  2  0  0  0  0
  9  7  1  0  0  0  0
 10 11  1  6  0  0  0
 10  9  1  0  0  0  0
 12  9  2  0  0  0  0
 13 12  1  0  0  0  0
 14 13  1  0  0  0  0
 14 19  1  0  0  0  0
 15 14  2  0  0  0  0
 16 15  1  0  0  0  0
 16 17  2  0  0  0  0
 17 18  1  0  0  0  0
 18 19  2  0  0  0  0
 18 24  1  0  0  0  0
 19 23  1  0  0  0  0
 20 11  1  0  0  0  0
 22  2  1  0  0  0  0
 25 17  1  0  0  0  0
 26 16  1  0  0  0  0
 27 15  1  0  0  0  0
 29  6  1  0  0  0  0
 31  2  1  0  0  0  0
M  END
