2,3
q = -1.0, confidence = 0.0

 24 24  0  0  0  0  0  0  0  0999 V2000
    1.2420    3.2387   -1.1901 Si  0  0  0  0  0  0  0  0  0  0  0  0
   -1.0984    1.3378    1.4122 N   0  0  0  0  0  2  0  0  0  0  0  0
    0.1821    2.1933   -0.2237 N   0  0  0  0  0  2  0  0  0  0  0  0
   -2.0006    1.3582    2.4021 C   0  0  0  0  0  3  0  0  0  0  0  0
   -2.2693    0.3793    2.8341 H   0  0  0  0  0  0  0  0  0  0  0  0
   -2.5611    2.5528    2.8600 C   0  0  0  0  0  0  0  0  0  0  0  0
   -3.2875    2.5522    3.6834 H   0  0  0  0  0  0  0  0  0  0  0  0
   -2.1636    3.7509    2.2221 C   0  0  0  0  0  0  0  0  0  0  0  0
   -2.5948    4.7109    2.5476 H   0  0  0  0  0  0  0  0  0  0  0  0
   -1.2424    3.7357    1.1775 C   0  0  0  0  0  0  0  0  0  0  0  0
   -0.9499    4.6588    0.6610 H   0  0  0  0  0  0  0  0  0  0  0  0
   -0.6927    2.4826    0.7681 C   0  0  0  0  0  0  0  0  0  0  0  0
    0.3482    3.7756   -2.7612 C   0  0  0  0  0  0  0  0  0  0  0  0
    0.0661    2.8780   -3.3473 H   0  0  0  0  0  0  0  0  0  0  0  0
    0.9881    4.4251   -3.3935 H   0  0  0  0  0  0  0  0  0  0  0  0
   -0.5786    4.3347   -2.5180 H   0  0  0  0  0  0  0  0  0  0  0  0
    2.7770    2.2141   -1.5835 C   0  0  0  0  0  0  0  0  0  0  0  0
    3.3272    1.9571   -0.6548 H   0  0  0  0  0  0  0  0  0  0  0  0
    3.4644    2.7822   -2.2434 H   0  0  0  0  0  0  0  0  0  0  0  0
    2.5028    1.2727   -2.1000 H   0  0  0  0  0  0  0  0  0  0  0  0
    1.7813    4.7508   -0.1788 C   0  0  0  0  0  0  0  0  0  0  0  0
    0.9863    5.5162   -0.0748 H   0  0  0  0  0  0  0  0  0  0  0  0
    2.6439    5.2377   -0.6798 H   0  0  0  0  0  0  0  0  0  0  0  0
    2.1078    4.4510    0.8384 H   0  0  0  0  0  0  0  0  0  0  0  0
  1  3  1  0  0  0  0
  1 21  1  0  0  0  0
  2  4  1  0  0  0  0
  3 12  1  0  0  0  0
  4  5  1  0  0  0  0
  4  6  1  0  0  0  0
  6  7  1  0  0  0  0
  8  9  1  0  0  0  0
  8  6  2  0  0  0  0
 10  8  1  0  0  0  0
 11 10  1  0  0  0  0
 12 10  2  0  0  0  0
 12  2  1  0  0  0  0
 13 16  1  0  0  0  0
 13  1  1  0  0  0  0
 14 13  1  0  0  0  0
 15 13  1  0  0  0  0
 17  1  1  0  0  0  0
 17 18  1  0  0  0  0
 19 17  1  0  0  0  0
 20 17  1  0  0  0  0
 21 22  1  0  0  0  0
 21 24  1  0  0  0  0
 23 21  1  0  0  0  0
M  END
