1,3
q = 0.0, confidence = 0.998

 50 51  0  0  1  0  0  0  0  0999 V2000
   -1.3993    0.3956    0.4254 N   0  0  0  0  0  0  0  0  0  0  0  0
   -1.6822    0.6740    1.3766 H   0  0  0  0  0  0  0  0  0  0  0  0
    1.3990    0.3951   -0.4250 N   0  0  0  0  0  0  0  0  0  0  0  0
    1.6816    0.6730   -1.3764 H   0  0  0  0  0  0  0  0  0  0  0  0
   -3.3679    1.6895   -0.2494 C   0  0  0  0  0  0  0  0  0  0  0  0
   -4.2869    1.6920   -0.8658 H   0  0  0  0  0  0  0  0  0  0  0  0
   -2.7296    2.5368   -0.5713 H   0  0  0  0  0  0  0  0  0  0  0  0
   -3.6692    1.8356    0.8093 H   0  0  0  0  0  0  0  0  0  0  0  0
   -2.6133    0.3708   -0.4350 C   0  0  2  0  0  0  0  0  0  0  0  0
   -2.2650    0.3327   -1.4856 H   0  0  0  0  0  0  0  0  0  0  0  0
   -3.4903   -0.8453   -0.1741 C   0  0  0  0  0  0  0  0  0  0  0  0
   -3.9682   -1.1307    1.1217 C   0  0  0  0  0  0  0  0  0  0  0  0
   -3.7037   -0.4695    1.9631 H   0  0  0  0  0  0  0  0  0  0  0  0
   -4.7799   -2.2492    1.3567 C   0  0  0  0  0  0  0  0  0  0  0  0
   -5.1439   -2.4573    2.3745 H   0  0  0  0  0  0  0  0  0  0  0  0
   -5.1318   -3.1005    0.2959 C   0  0  0  0  0  0  0  0  0  0  0  0
   -5.7692   -3.9784    0.4800 H   0  0  0  0  0  0  0  0  0  0  0  0
   -4.6658   -2.8252   -0.9983 C   0  0  0  0  0  0  0  0  0  0  0  0
   -4.9362   -3.4870   -1.8352 H   0  0  0  0  0  0  0  0  0  0  0  0
   -3.8488   -1.7065   -1.2280 C   0  0  0  0  0  0  0  0  0  0  0  0
   -3.4813   -1.4921   -2.2445 H   0  0  0  0  0  0  0  0  0  0  0  0
   -0.0871   -0.9815    1.9670 C   0  0  0  0  0  0  0  0  0  0  0  0
    0.3398   -0.0243    2.3334 H   0  0  0  0  0  0  0  0  0  0  0  0
    0.6770   -1.7780    2.0543 H   0  0  0  0  0  0  0  0  0  0  0  0
   -0.9347   -1.2477    2.6309 H   0  0  0  0  0  0  0  0  0  0  0  0
   -0.5754   -0.8404    0.5223 C   0  0  2  0  0  0  0  0  0  0  0  0
   -1.2096   -1.7225    0.2816 H   0  0  0  0  0  0  0  0  0  0  0  0
    0.5749   -0.8409   -0.5210 C   0  0  1  0  0  0  0  0  0  0  0  0
    1.2090   -1.7229   -0.2796 H   0  0  0  0  0  0  0  0  0  0  0  0
    0.0866   -0.9830   -1.9656 C   0  0  0  0  0  0  0  0  0  0  0  0
   -0.3401   -0.0261   -2.3328 H   0  0  0  0  0  0  0  0  0  0  0  0
   -0.6776   -1.7795   -2.0523 H   0  0  0  0  0  0  0  0  0  0  0  0
    0.9342   -1.2499   -2.6292 H   0  0  0  0  0  0  0  0  0  0  0  0
    3.3675    1.6895    0.2491 C   0  0  0  0  0  0  0  0  0  0  0  0
    4.2866    1.6923    0.8654 H   0  0  0  0  0  0  0  0  0  0  0  0
    2.7291    2.5366    0.5711 H   0  0  0  0  0  0  0  0  0  0  0  0
    3.6685    1.8355   -0.8096 H   0  0  0  0  0  0  0  0  0  0  0  0
    2.6132    0.3706    0.4351 C   0  0  2  0  0  0  0  0  0  0  0  0
    2.2652    0.3326    1.4858 H   0  0  0  0  0  0  0  0  0  0  0  0
    3.4904   -0.8454    0.1741 C   0  0  0  0  0  0  0  0  0  0  0  0
    3.8492   -1.7064    1.2280 C   0  0  0  0  0  0  0  0  0  0  0  0
    3.4817   -1.4921    2.2446 H   0  0  0  0  0  0  0  0  0  0  0  0
    4.6663   -2.8251    0.9983 C   0  0  0  0  0  0  0  0  0  0  0  0
    4.9369   -3.4868    1.8352 H   0  0  0  0  0  0  0  0  0  0  0  0
    5.1322   -3.1003   -0.2959 C   0  0  0  0  0  0  0  0  0  0  0  0
    5.7698   -3.9781   -0.4801 H   0  0  0  0  0  0  0  0  0  0  0  0
    4.7801   -2.2491   -1.3568 C   0  0  0  0  0  0  0  0  0  0  0  0
    5.1440   -2.4571   -2.3745 H   0  0  0  0  0  0  0  0  0  0  0  0
    3.9682   -1.1307   -1.1216 C   0  0  0  0  0  0  0  0  0  0  0  0
    3.7035   -0.4695   -1.9631 H   0  0  0  0  0  0  0  0  0  0  0  0
  1 26  1  0  0  0  0
  1  2  1  0  0  0  0
  3 38  1  0  0  0  0
  4  3  1  0  0  0  0
  5  8  1  0  0  0  0
  6  5  1  0  0  0  0
  7  5  1  0  0  0  0
  9 10  1  6  0  0  0
  9  5  1  0  0  0  0
  9 11  1  0  0  0  0
  9  1  1  0  0  0  0
 11 12  1  0  0  0  0
 12 14  2  0  0  0  0
 12 13  1  0  0  0  0
 14 15  1  0  0  0  0
 16 17  1  0  0  0  0
 16 14  1  0  0  0  0
 18 16  2  0  0  0  0
 19 18  1  0  0  0  0
 20 18  1  0  0  0  0
 20 11  2  0  0  0  0
 21 20  1  0  0  0  0
 22 24  1  0  0  0  0
 22 23  1  0  0  0  0
 22 25  1  0  0  0  0
 26 27  1  6  0  0  0
 26 22  1  0  0  0  0
 28  3  1  0  0  0  0
 28 29  1  1  0  0  0
 28 26  1  0  0  0  0
 30 28  1  0  0  0  0
 31 30  1  0  0  0  0
 32 30  1  0  0  0  0
 33 30  1  0  0  0  0
 34 38  1  0  0  0  0
 34 36  1  0  0  0  0
 34 35  1  0  0  0  0
 37 34  1  0  0  0  0
 38 39  1  1  0  0  0
 40 38  1  0  0  0  0
 40 41  1  0  0  0  0
 41 42  1  0  0  0  0
 43 41  2  0  0  0  0
 43 44  1  0  0  0  0
 45 43  1  0  0  0  0
 46 45  1  0  0  0  0
 47 49  1  0  0  0  0
 47 45  2  0  0  0  0
 48 47  1  0  0  0  0
 49 40  2  0  0  0  0
 50 49  1  0  0  0  0
M  END
