27,28
q = 0.0, confidence = 0.986

 34 36  0  0  0  0  0  0  0  0999 V2000
   -2.6646    1.4740    0.5706 S   0  0  0  0  0  0  0  0  0  0  0  0
   -2.6451   -1.4949    0.6048 S   0  0  0  0  0  0  0  0  0  0  0  0
    2.2350    2.5510    1.0643 C   0  0  0  0  0  3  0  0  0  0  0  0
    3.2003    2.5839    0.5378 H   0  0  0  0  0  0  0  0  0  0  0  0
    1.8255    3.5584    1.9425 C   0  0  0  0  0  0  0  0  0  0  0  0
    2.4671    4.4370    2.0973 H   0  0  0  0  0  0  0  0  0  0  0  0
    0.6005    3.4173    2.6096 C   0  0  0  0  0  0  0  0  0  0  0  0
    0.2461    4.1893    3.3089 H   0  0  0  0  0  0  0  0  0  0  0  0
   -0.1539    2.2574    2.3957 C   0  0  0  0  0  0  0  0  0  0  0  0
   -1.0917    2.0831    2.9423 H   0  0  0  0  0  0  0  0  0  0  0  0
    0.3089    1.2844    1.4885 C   0  0  0  0  0  0  0  0  0  0  0  0
    2.2644   -2.5071    1.1435 C   0  0  0  0  0  3  0  0  0  0  0  0
    3.2319   -2.5439    0.6211 H   0  0  0  0  0  0  0  0  0  0  0  0
    1.8640   -3.4923    2.0507 C   0  0  0  0  0  0  0  0  0  0  0  0
    2.5161   -4.3576    2.2347 H   0  0  0  0  0  0  0  0  0  0  0  0
    0.6348   -3.3463    2.7090 C   0  0  0  0  0  0  0  0  0  0  0  0
    0.2879   -4.1008    3.4308 H   0  0  0  0  0  0  0  0  0  0  0  0
   -0.1328   -2.2026    2.4576 C   0  0  0  0  0  0  0  0  0  0  0  0
   -1.0743   -2.0224    2.9961 H   0  0  0  0  0  0  0  0  0  0  0  0
    0.3224   -1.2510    1.5242 C   0  0  0  0  0  0  0  0  0  0  0  0
   -0.4238    0.0094    1.2772 C   0  0  0  0  0  0  0  0  0  0  0  0
   -1.7483   -0.0029    0.9138 C   0  0  0  0  0  0  0  0  0  0  0  0
   -5.0446    1.7435   -0.5750 C   0  0  0  0  0  0  0  0  0  0  0  0
   -4.0564    0.6754   -0.1365 C   0  0  0  0  0  0  0  0  0  0  0  0
   -4.0448   -0.7040   -0.1247 C   0  0  0  0  0  0  0  0  0  0  0  0
   -5.0161   -1.7189   -0.5879 C   0  0  0  0  0  0  0  0  0  0  0  0
    1.4772    1.4590    0.8127 N   0  0  0  0  0  2  0  0  0  0  0  0
    1.4944   -1.4325    0.8568 N   0  0  0  0  0  2  0  0  0  0  0  0
   -4.7765    2.9022   -0.3066 O   0  0  0  0  0  0  0  0  0  0  0  0
   -6.1528    1.4076   -1.2279 O   0  0  0  0  0  0  0  0  0  0  0  0
   -6.2197    0.4269   -1.3555 H   0  0  0  0  0  0  0  0  0  0  0  0
   -6.0850   -1.2154   -1.2811 O   0  0  0  0  0  0  0  0  0  0  0  0
   -6.6532   -1.9768   -1.5316 H   0  0  0  0  0  0  0  0  0  0  0  0
   -4.8865   -2.9110   -0.3904 O   0  0  0  0  0  0  0  0  0  0  0  0
  1 22  1  0  0  0  0
  2 22  1  0  0  0  0
  3  5  1  0  0  0  0
  4  3  1  0  0  0  0
  5  6  1  0  0  0  0
  5  7  2  0  0  0  0
  7  8  1  0  0  0  0
  9  7  1  0  0  0  0
  9 10  1  0  0  0  0
 11  9  2  0  0  0  0
 12 14  1  0  0  0  0
 13 12  1  0  0  0  0
 14 15  1  0  0  0  0
 14 16  2  0  0  0  0
 16 17  1  0  0  0  0
 18 16  1  0  0  0  0
 18 19  1  0  0  0  0
 20 18  2  0  0  0  0
 21 11  1  0  0  0  0
 21 20  1  0  0  0  0
 22 21  2  0  0  0  0
 23 29  2  0  0  0  0
 23 24  1  0  0  0  0
 24 25  2  0  0  0  0
 24  1  1  0  0  0  0
 25  2  1  0  0  0  0
 26 34  2  0  0  0  0
 26 25  1  0  0  0  0
 27  3  1  0  0  0  0
 27 11  1  0  0  0  0
 28 12  1  0  0  0  0
 28 20  1  0  0  0  0
 30 23  1  0  0  0  0
 31 30  1  0  0  0  0
 32 26  1  0  0  0  0
 33 32  1  0  0  0  0
M  END
