7,8
q = -1.0

 38 39  0  0  1  0  0  0  0  0999 V2000
   -4.8131   -0.9541    1.4687 O   0  0  0  0  0  0  0  0  0  0  0  0
   -3.7846   -0.9765    1.4176 H   0  0  0  0  0  0  0  0  0  0  0  0
   -1.9818    0.4849   -1.2995 O   0  0  0  0  0  0  0  0  0  0  0  0
    5.5420    0.8008    0.2313 O   0  0  0  0  0  0  0  0  0  0  0  0
    6.3295    0.4298   -0.2093 H   0  0  0  0  0  0  0  0  0  0  0  0
   -2.4174   -0.6085    0.7170 N   0  0  0  0  0  2  0  0  0  0  0  0
   -1.1332   -0.9153    0.8619 N   0  0  0  0  0  2  0  0  0  0  0  0
    1.4864   -1.0050    1.5041 N   0  0  0  0  0  2  0  0  0  0  0  0
    4.7852   -0.3418    0.4928 N   0  0  0  0  0  0  0  0  0  0  0  0
   -5.1807   -0.1792    0.4397 C   0  0  0  0  0  0  0  0  0  0  0  0
   -6.5582    0.0952    0.2577 C   0  0  0  0  0  0  0  0  0  0  0  0
   -7.2648   -0.3357    0.9820 H   0  0  0  0  0  0  0  0  0  0  0  0
   -6.9933    0.8879   -0.8054 C   0  0  0  0  0  0  0  0  0  0  0  0
   -8.0699    1.0893   -0.9222 H   0  0  0  0  0  0  0  0  0  0  0  0
   -6.0716    1.4304   -1.7259 C   0  0  0  0  0  0  0  0  0  0  0  0
   -6.4206    2.0555   -2.5608 H   0  0  0  0  0  0  0  0  0  0  0  0
   -4.7123    1.1637   -1.5612 C   0  0  0  0  0  0  0  0  0  0  0  0
   -3.9562    1.5600   -2.2554 H   0  0  0  0  0  0  0  0  0  0  0  0
   -4.2391    0.3702   -0.4921 C   0  0  0  0  0  0  0  0  0  0  0  0
   -2.7759    0.1181   -0.4088 C   0  0  0  0  0  0  0  0  0  0  0  0
   -0.7674   -1.7521    1.8233 C   0  0  1  0  0  3  0  0  0  0  0  0
   -1.7869   -2.4275    2.6843 C   0  0  0  0  0  0  0  0  0  0  0  0
   -2.4450   -1.6692    3.1578 H   0  0  0  0  0  0  0  0  0  0  0  0
   -1.3152   -3.0286    3.4813 H   0  0  0  0  0  0  0  0  0  0  0  0
   -2.4441   -3.0903    2.0828 H   0  0  0  0  0  0  0  0  0  0  0  0
    0.6693   -2.0109    1.9230 C   0  0  1  0  0  3  0  0  0  0  0  0
    1.1826   -3.2584    2.3399 C   0  0  0  0  0  0  0  0  0  0  0  0
    0.5003   -4.0578    2.6568 H   0  0  0  0  0  0  0  0  0  0  0  0
    2.5627   -3.4787    2.2622 C   0  0  0  0  0  0  0  0  0  0  0  0
    2.9838   -4.4539    2.5490 H   0  0  0  0  0  0  0  0  0  0  0  0
    3.4000   -2.4469    1.8202 C   0  0  0  0  0  0  0  0  0  0  0  0
    4.4910   -2.5590    1.7695 H   0  0  0  0  0  0  0  0  0  0  0  0
    2.8212   -1.2086    1.4695 C   0  0  0  0  0  0  0  0  0  0  0  0
    3.6712   -0.0471    1.0950 C   0  0  0  0  0  0  0  0  0  0  0  0
    3.2604    1.3441    1.4775 C   0  0  0  0  0  0  0  0  0  0  0  0
    3.3519    2.0456    0.6263 H   0  0  0  0  0  0  0  0  0  0  0  0
    3.9442    1.7201    2.2676 H   0  0  0  0  0  0  0  0  0  0  0  0
    2.2232    1.3545    1.8544 H   0  0  0  0  0  0  0  0  0  0  0  0
  2  1  1  0  0  0  0
  3 20  2  0  0  0  0
  4  9  1  0  0  0  0
  5  4  1  0  0  0  0
  6  7  1  0  0  0  0
  8 26  1  0  0  0  0
  9 34  2  0  0  0  0
 10  1  1  0  0  0  0
 11 10  1  0  0  0  0
 11 12  1  0  0  0  0
 13 11  2  0  0  0  0
 14 13  1  0  0  0  0
 15 17  2  0  0  0  0
 15 13  1  0  0  0  0
 16 15  1  0  0  0  0
 17 19  1  0  0  0  0
 18 17  1  0  0  0  0
 19 20  1  0  0  0  0
 19 10  2  0  0  0  0
 20  6  1  0  0  0  0
 21  7  1  6  0  0  0
 21 22  1  0  0  0  0
 22 23  1  0  0  0  0
 22 24  1  0  0  0  0
 25 22  1  0  0  0  0
 26 21  1  6  0  0  0
 26 27  1  0  0  0  0
 27 28  1  0  0  0  0
 29 27  2  0  0  0  0
 29 30  1  0  0  0  0
 31 29  1  0  0  0  0
 32 31  1  0  0  0  0
 33  8  1  0  0  0  0
 33 31  2  0  0  0  0
 34 33  1  0  0  0  0
 34 35  1  0  0  0  0
 35 38  1  0  0  0  0
 35 37  1  0  0  0  0
 36 35  1  0  0  0  0
M  END
