6,19
q = -1.0

 36 37  0  0  0  0  0  0  0  0999 V2000
    3.2443    0.4245   -2.6895 C   0  0  0  0  0  0  0  0  0  0  0  0
    2.6904    0.6193   -3.6314 H   0  0  0  0  0  0  0  0  0  0  0  0
    4.1430   -0.1781   -2.8987 H   0  0  0  0  0  0  0  0  0  0  0  0
    3.5558    1.4140   -2.3009 H   0  0  0  0  0  0  0  0  0  0  0  0
    2.3376   -0.2315   -1.6904 C   0  0  0  0  0  0  0  0  0  0  0  0
    1.3132    0.4574   -1.2510 N   0  0  0  0  0  2  0  0  0  0  0  0
    1.2001    1.7193   -1.7470 O   0  0  0  0  0  0  0  0  0  0  0  0
    0.2242    1.9041   -1.4882 H   0  0  0  0  0  0  0  0  0  0  0  0
    2.5440   -1.6062   -1.2162 C   0  0  0  0  0  0  0  0  0  0  0  0
    3.3299   -2.5016   -1.9801 C   0  0  0  0  0  3  0  0  0  0  0  0
    3.7408   -2.1685   -2.9432 H   0  0  0  0  0  0  0  0  0  0  0  0
    3.5812   -3.8085   -1.5505 C   0  0  0  0  0  0  0  0  0  0  0  0
    4.1890   -4.4808   -2.1739 H   0  0  0  0  0  0  0  0  0  0  0  0
    3.0546   -4.2540   -0.3275 C   0  0  0  0  0  0  0  0  0  0  0  0
    3.2548   -5.2762    0.0271 H   0  0  0  0  0  0  0  0  0  0  0  0
    2.2612   -3.3943    0.4400 C   0  0  0  0  0  0  0  0  0  0  0  0
    1.8497   -3.7149    1.4065 H   0  0  0  0  0  0  0  0  0  0  0  0
    1.9808   -2.0812    0.0090 C   0  0  0  0  0  0  0  0  0  0  0  0
    1.1651   -1.2580    0.8258 N   0  0  0  0  0  2  0  0  0  0  0  0
    1.9768   -0.5929    2.2086 S   0  0  0  0  0  0  0  0  0  0  0  0
    0.9531    0.1840    2.9395 O   0  0  0  0  0  0  0  0  0  0  0  0
    2.7321   -1.6801    2.8699 O   0  0  0  0  0  0  0  0  0  0  0  0
    3.1595    0.5473    1.4913 C   0  0  0  0  0  0  0  0  0  0  0  0
    2.7674    1.8700    1.2359 C   0  0  0  0  0  0  0  0  0  0  0  0
    1.7771    2.2169    1.5657 H   0  0  0  0  0  0  0  0  0  0  0  0
    3.6514    2.7196    0.5630 C   0  0  0  0  0  0  0  0  0  0  0  0
    3.3489    3.7576    0.3549 H   0  0  0  0  0  0  0  0  0  0  0  0
    4.9204    2.2675    0.1383 C   0  0  0  0  0  0  0  0  0  0  0  0
    5.2907    0.9376    0.4281 C   0  0  0  0  0  0  0  0  0  0  0  0
    6.2825    0.5727    0.1179 H   0  0  0  0  0  0  0  0  0  0  0  0
    4.4197    0.0706    1.1024 C   0  0  0  0  0  0  0  0  0  0  0  0
    4.7041   -0.9654    1.3347 H   0  0  0  0  0  0  0  0  0  0  0  0
    5.8394    3.1771   -0.6356 C   0  0  0  0  0  0  0  0  0  0  0  0
    5.5625    3.1913   -1.7125 H   0  0  0  0  0  0  0  0  0  0  0  0
    6.8941    2.8465   -0.5722 H   0  0  0  0  0  0  0  0  0  0  0  0
    5.7787    4.2230   -0.2749 H   0  0  0  0  0  0  0  0  0  0  0  0
  1  4  1  0  0  0  0
  1  5  1  0  0  0  0
  2  1  1  0  0  0  0
  3  1  1  0  0  0  0
  5  6  1  0  0  0  0
  5  9  2  0  0  0  0
  7  8  1  0  0  0  0
  7  6  1  0  0  0  0
  9 18  1  0  0  0  0
 10 12  1  0  0  0  0
 10  9  1  0  0  0  0
 11 10  1  0  0  0  0
 12 14  2  0  0  0  0
 13 12  1  0  0  0  0
 14 15  1  0  0  0  0
 14 16  1  0  0  0  0
 16 17  1  0  0  0  0
 18 16  2  0  0  0  0
 18 19  1  0  0  0  0
 19 20  1  0  0  0  0
 20 22  2  0  0  0  0
 20 21  2  0  0  0  0
 23 20  1  0  0  0  0
 24 23  1  0  0  0  0
 24 25  1  0  0  0  0
 26 24  2  0  0  0  0
 27 26  1  0  0  0  0
 28 29  2  0  0  0  0
 28 26  1  0  0  0  0
 29 31  1  0  0  0  0
 30 29  1  0  0  0  0
 31 32  1  0  0  0  0
 31 23  2  0  0  0  0
 33 35  1  0  0  0  0
 33 36  1  0  0  0  0
 33 28  1  0  0  0  0
 34 33  1  0  0  0  0
M  END
