3,4
q = 0.0, confidence = 1.0

 38 39  0  0  1  0  0  0  0  0999 V2000
   -0.1545    0.4839    2.0701 O   0  0  0  0  0  0  0  0  0  0  0  0
    0.1041   -1.7039    0.2482 N   0  0  0  0  0  0  0  0  0  0  0  0
    2.0734    0.1859   -0.0902 N   0  0  0  0  0  2  0  0  0  0  0  0
   -1.9413    0.1217   -0.2811 N   0  0  0  0  0  2  0  0  0  0  0  0
    1.3541   -2.1095   -0.3911 C   0  0  0  0  0  0  0  0  0  0  0  0
    2.4474   -1.1104   -0.0736 C   0  0  1  0  0  3  0  0  0  0  0  0
    3.7752   -1.4735    0.1987 C   0  0  0  0  0  0  0  0  0  0  0  0
    4.7175   -0.4660    0.4532 C   0  0  0  0  0  0  0  0  0  0  0  0
    4.3068    0.8749    0.4387 C   0  0  0  0  0  0  0  0  0  0  0  0
    2.9635    1.1593    0.1598 C   0  0  0  0  0  0  0  0  0  0  0  0
   -1.1197   -2.1630   -0.3937 C   0  0  0  0  0  0  0  0  0  0  0  0
   -2.2637   -1.1855   -0.2071 C   0  0  2  0  0  3  0  0  0  0  0  0
   -3.5961   -1.5907   -0.0281 C   0  0  0  0  0  0  0  0  0  0  0  0
   -4.5970   -0.6142    0.0734 C   0  0  0  0  0  0  0  0  0  0  0  0
   -4.2409    0.7409   -0.0000 C   0  0  0  0  0  0  0  0  0  0  0  0
   -2.8905    1.0674   -0.1792 C   0  0  0  0  0  0  0  0  0  0  0  0
    0.1365   -1.8448    1.7061 C   0  0  0  0  0  0  0  0  0  0  0  0
   -0.6418   -0.7737    2.4627 C   0  0  0  0  0  0  0  0  0  0  0  0
   -0.7883    1.5753    2.7067 C   0  0  0  0  0  0  0  0  0  0  0  0
    1.6831   -3.1417   -0.1204 H   0  0  0  0  0  0  0  0  0  0  0  0
    1.1872   -2.0499   -1.4925 H   0  0  0  0  0  0  0  0  0  0  0  0
    4.0590   -2.5364    0.2138 H   0  0  0  0  0  0  0  0  0  0  0  0
    5.7643   -0.7282    0.6702 H   0  0  0  0  0  0  0  0  0  0  0  0
    5.0128    1.6926    0.6421 H   0  0  0  0  0  0  0  0  0  0  0  0
    2.5506    2.1836    0.1276 H   0  0  0  0  0  0  0  0  0  0  0  0
   -1.4332   -3.1844   -0.0661 H   0  0  0  0  0  0  0  0  0  0  0  0
   -0.9189   -2.1737   -1.4904 H   0  0  0  0  0  0  0  0  0  0  0  0
   -3.8375   -2.6624    0.0346 H   0  0  0  0  0  0  0  0  0  0  0  0
   -5.6478   -0.9097    0.2150 H   0  0  0  0  0  0  0  0  0  0  0  0
   -4.9948    1.5370    0.0801 H   0  0  0  0  0  0  0  0  0  0  0  0
   -2.5176    2.1054   -0.2452 H   0  0  0  0  0  0  0  0  0  0  0  0
    1.1954   -1.7663    2.0246 H   0  0  0  0  0  0  0  0  0  0  0  0
   -0.2264   -2.8533    2.0267 H   0  0  0  0  0  0  0  0  0  0  0  0
   -1.7415   -0.8538    2.2760 H   0  0  0  0  0  0  0  0  0  0  0  0
   -0.4966   -0.9448    3.5593 H   0  0  0  0  0  0  0  0  0  0  0  0
   -1.8981    1.5226    2.5932 H   0  0  0  0  0  0  0  0  0  0  0  0
   -0.4271    2.4869    2.1943 H   0  0  0  0  0  0  0  0  0  0  0  0
   -0.5507    1.6075    3.7967 H   0  0  0  0  0  0  0  0  0  0  0  0
  1 18  1  0  0  0  0
  1 19  1  0  0  0  0
  2 17  1  0  0  0  0
  3  6  1  0  0  0  0
  3 10  1  0  0  0  0
  4 12  1  0  0  0  0
  4 16  1  0  0  0  0
  5 20  1  0  0  0  0
  5  2  1  0  0  0  0
  6  5  1  6  0  0  0
  6  7  1  0  0  0  0
  7 22  1  0  0  0  0
  7  8  2  0  0  0  0
  8 23  1  0  0  0  0
  9  8  1  0  0  0  0
  9 24  1  0  0  0  0
 10  9  2  0  0  0  0
 11 26  1  0  0  0  0
 11  2  1  0  0  0  0
 12 11  1  6  0  0  0
 12 13  1  0  0  0  0
 13 28  1  0  0  0  0
 13 14  2  0  0  0  0
 14 29  1  0  0  0  0
 15 14  1  0  0  0  0
 15 30  1  0  0  0  0
 16 15  2  0  0  0  0
 17 32  1  0  0  0  0
 17 33  1  0  0  0  0
 17 18  1  0  0  0  0
 18 35  1  0  0  0  0
 19 38  1  0  0  0  0
 21  5  1  0  0  0  0
 25 10  1  0  0  0  0
 27 11  1  0  0  0  0
 31 16  1  0  0  0  0
 34 18  1  0  0  0  0
 36 19  1  0  0  0  0
 37 19  1  0  0  0  0
M  END
