47,50
q = 0.0, confidence = 0.998

 52 55  0  0  1  0  0  0  0  0999 V2000
   -4.2668   -0.0992   -1.9855 C   0  0  0  0  0  0  0  0  0  0  0  0
   -4.9681   -0.8311   -2.4139 H   0  0  0  0  0  0  0  0  0  0  0  0
    3.4421   -3.4244    0.4870 C   0  0  0  0  0  0  0  0  0  0  0  0
    4.1186   -2.9506   -0.2498 H   0  0  0  0  0  0  0  0  0  0  0  0
    3.2554   -4.4718    0.1876 H   0  0  0  0  0  0  0  0  0  0  0  0
    3.9662   -3.4440    1.4667 H   0  0  0  0  0  0  0  0  0  0  0  0
   -2.8918   -0.2415   -2.2109 C   0  0  0  0  0  0  0  0  0  0  0  0
   -2.5171   -1.0890   -2.8045 H   0  0  0  0  0  0  0  0  0  0  0  0
   -3.8407    1.8769   -0.6402 C   0  0  0  0  0  0  0  0  0  0  0  0
   -4.2073    2.7116   -0.0236 H   0  0  0  0  0  0  0  0  0  0  0  0
    2.5952   -0.0572   -3.8631 C   0  0  0  0  0  0  0  0  0  0  0  0
    3.1993    0.8521   -4.0704 H   0  0  0  0  0  0  0  0  0  0  0  0
    2.2095   -0.4286   -4.8297 H   0  0  0  0  0  0  0  0  0  0  0  0
    3.2677   -0.8247   -3.4323 H   0  0  0  0  0  0  0  0  0  0  0  0
   -4.7458    0.9625   -1.2021 C   0  0  0  0  0  0  0  0  0  0  0  0
   -5.8265    1.0724   -1.0241 H   0  0  0  0  0  0  0  0  0  0  0  0
    3.1599   -0.3915    0.9800 C   0  0  0  0  0  0  0  0  0  0  0  0
    3.9896   -0.9378    1.4695 H   0  0  0  0  0  0  0  0  0  0  0  0
    2.7969    0.3892    1.6814 H   0  0  0  0  0  0  0  0  0  0  0  0
   -1.4706   -1.9873    0.8011 C   0  0  0  0  0  0  0  0  0  0  0  0
   -4.2900   -1.9942    0.9115 C   0  0  0  0  0  0  0  0  0  0  0  0
   -5.3899   -1.9894    0.9485 H   0  0  0  0  0  0  0  0  0  0  0  0
   -3.5576   -1.0104    1.5942 C   0  0  0  0  0  0  0  0  0  0  0  0
   -4.0795   -0.2347    2.1739 H   0  0  0  0  0  0  0  0  0  0  0  0
   -3.6139   -2.9814    0.1775 C   0  0  0  0  0  0  0  0  0  0  0  0
   -4.1807   -3.7540   -0.3641 H   0  0  0  0  0  0  0  0  0  0  0  0
   -2.1580   -1.0066    1.5508 C   0  0  0  0  0  0  0  0  0  0  0  0
   -1.5876   -0.2553    2.1197 H   0  0  0  0  0  0  0  0  0  0  0  0
    2.1479   -2.6878    0.5767 C   0  0  1  0  0  3  0  0  0  0  0  0
    1.4584    0.2275   -2.9408 C   0  0  2  0  0  3  0  0  0  0  0  0
    0.0848    0.0828   -3.1309 C   0  0  0  0  0  0  0  0  0  0  0  0
   -0.4116   -0.2712   -4.0395 H   0  0  0  0  0  0  0  0  0  0  0  0
    0.8349   -3.1494    0.5269 C   0  0  0  0  0  0  0  0  0  0  0  0
    0.5181   -4.1889    0.4020 H   0  0  0  0  0  0  0  0  0  0  0  0
    3.7280    0.2599   -0.2901 C   0  0  2  0  0  0  0  0  0  0  0  0
    4.5694    0.8891    0.0920 H   0  0  0  0  0  0  0  0  0  0  0  0
   -2.2151   -2.9756    0.1183 C   0  0  0  0  0  0  0  0  0  0  0  0
   -1.6898   -3.7347   -0.4807 H   0  0  0  0  0  0  0  0  0  0  0  0
   -0.5410    0.5521   -1.9454 C   0  0  0  0  0  0  0  0  0  0  0  0
   -2.4641    1.7428   -0.8612 C   0  0  0  0  0  0  0  0  0  0  0  0
   -1.7587    2.4701   -0.4280 H   0  0  0  0  0  0  0  0  0  0  0  0
    2.8317    1.2590   -1.0489 C   0  0  0  0  0  0  0  0  0  0  0  0
    2.5050    2.0693   -0.3620 H   0  0  0  0  0  0  0  0  0  0  0  0
    3.4467    1.7282   -1.8462 H   0  0  0  0  0  0  0  0  0  0  0  0
   -0.0027   -2.0215    0.7409 C   0  0  0  0  0  0  0  0  0  0  0  0
   -1.9774    0.6781   -1.6536 C   0  0  0  0  0  0  0  0  0  0  0  0
    0.4182    0.9457   -1.0807 N   0  0  0  0  0  2  0  0  0  0  0  0
    1.6231    0.7477   -1.6815 N   0  0  0  0  0  0  0  0  0  0  0  0
    2.0708   -1.3367    0.7993 N   0  0  0  0  0  0  0  0  0  0  0  0
    0.7768   -0.9306    0.9067 N   0  0  0  0  0  2  0  0  0  0  0  0
    4.2240   -0.7778   -1.1331 O   0  0  0  0  0  0  0  0  0  0  0  0
    4.8308   -0.3757   -1.7807 H   0  0  0  0  0  0  0  0  0  0  0  0
  1 15  1  0  0  0  0
  2  1  1  0  0  0  0
  3  6  1  0  0  0  0
  4  3  1  0  0  0  0
  5  3  1  0  0  0  0
  7  1  2  0  0  0  0
  7 46  1  0  0  0  0
  8  7  1  0  0  0  0
  9 10  1  0  0  0  0
 11 14  1  0  0  0  0
 12 11  1  0  0  0  0
 13 11  1  0  0  0  0
 15 16  1  0  0  0  0
 15  9  2  0  0  0  0
 17 18  1  0  0  0  0
 17 19  1  0  0  0  0
 20 27  1  0  0  0  0
 21 22  1  0  0  0  0
 21 23  1  0  0  0  0
 23 24  1  0  0  0  0
 25 21  2  0  0  0  0
 26 25  1  0  0  0  0
 27 23  2  0  0  0  0
 27 28  1  0  0  0  0
 29  3  1  1  0  0  0
 29 49  1  0  0  0  0
 30 11  1  6  0  0  0
 30 48  1  0  0  0  0
 31 30  1  0  0  0  0
 31 39  2  0  0  0  0
 32 31  1  0  0  0  0
 33 29  1  0  0  0  0
 33 45  2  0  0  0  0
 34 33  1  0  0  0  0
 35 36  1  1  0  0  0
 35 17  1  0  0  0  0
 37 25  1  0  0  0  0
 37 20  2  0  0  0  0
 38 37  1  0  0  0  0
 39 46  1  0  0  0  0
 39 47  1  0  0  0  0
 40  9  1  0  0  0  0
 40 41  1  0  0  0  0
 42 43  1  0  0  0  0
 42 35  1  0  0  0  0
 44 42  1  0  0  0  0
 45 20  1  0  0  0  0
 45 50  1  0  0  0  0
 46 40  2  0  0  0  0
 48 47  1  0  0  0  0
 48 42  1  0  0  0  0
 49 50  1  0  0  0  0
 49 17  1  0  0  0  0
 51 35  1  0  0  0  0
 52 51  1  0  0  0  0
M  END
