1,2
q = -1.0, confidence = 0.018

 52 53  0  0  0  0  0  0  0  0999 V2000
    0.2389    1.1154    0.0240 N   0  0  0  0  0  2  0  0  0  0  0  0
   -0.2726   -1.0043    0.1302 N   0  0  0  0  0  2  0  0  0  0  0  0
   -0.7730    0.2435    0.0969 C   0  0  0  0  0  3  0  0  0  0  0  0
   -2.1664    0.5577    0.0790 C   0  0  0  0  0  0  0  0  0  0  0  0
   -3.3883    0.7416    0.0555 C   0  0  0  0  0  0  0  0  0  0  0  0
   -5.2332    0.8857    0.0098 Si  0  0  0  0  0  0  0  0  0  0  0  0
   -5.9225   -0.8653    0.1918 C   0  0  0  0  0  0  0  0  0  0  0  0
   -5.5668   -1.5137   -0.6344 H   0  0  0  0  0  0  0  0  0  0  0  0
   -7.0319   -0.8578    0.1742 H   0  0  0  0  0  0  0  0  0  0  0  0
   -5.5939   -1.3208    1.1480 H   0  0  0  0  0  0  0  0  0  0  0  0
   -5.7894    1.9822    1.4447 C   0  0  0  0  0  0  0  0  0  0  0  0
   -5.4742    1.5538    2.4174 H   0  0  0  0  0  0  0  0  0  0  0  0
   -6.8947    2.0809    1.4521 H   0  0  0  0  0  0  0  0  0  0  0  0
   -5.3535    2.9980    1.3595 H   0  0  0  0  0  0  0  0  0  0  0  0
   -5.7371    1.6431   -1.6450 C   0  0  0  0  0  0  0  0  0  0  0  0
   -5.3037    2.6563   -1.7653 H   0  0  0  0  0  0  0  0  0  0  0  0
   -6.8414    1.7288   -1.7141 H   0  0  0  0  0  0  0  0  0  0  0  0
   -5.3840    1.0177   -2.4893 H   0  0  0  0  0  0  0  0  0  0  0  0
    0.0912    2.5423   -0.1674 C   0  0  0  0  0  0  0  0  0  0  0  0
   -0.9902    2.7484   -0.3556 H   0  0  0  0  0  0  0  0  0  0  0  0
    0.8793    3.0351   -1.3922 C   0  0  0  0  0  0  0  0  0  0  0  0
    0.5620    2.4589   -2.2837 H   0  0  0  0  0  0  0  0  0  0  0  0
    1.9524    2.7852   -1.2354 H   0  0  0  0  0  0  0  0  0  0  0  0
    0.7194    4.5464   -1.5918 C   0  0  0  0  0  0  0  0  0  0  0  0
    1.3217    4.8801   -2.4626 H   0  0  0  0  0  0  0  0  0  0  0  0
   -0.3411    4.7722   -1.8452 H   0  0  0  0  0  0  0  0  0  0  0  0
    1.1122    5.3311   -0.3330 C   0  0  0  0  0  0  0  0  0  0  0  0
    2.2021    5.1973   -0.1461 H   0  0  0  0  0  0  0  0  0  0  0  0
    0.9531    6.4195   -0.4848 H   0  0  0  0  0  0  0  0  0  0  0  0
    0.3310    4.8409    0.8935 C   0  0  0  0  0  0  0  0  0  0  0  0
   -0.7492    5.0725    0.7540 H   0  0  0  0  0  0  0  0  0  0  0  0
    0.6496    5.3875    1.8060 H   0  0  0  0  0  0  0  0  0  0  0  0
    0.4966    3.3297    1.0946 C   0  0  0  0  0  0  0  0  0  0  0  0
   -0.1011    2.9704    1.9581 H   0  0  0  0  0  0  0  0  0  0  0  0
    1.5605    3.0983    1.3257 H   0  0  0  0  0  0  0  0  0  0  0  0
   -1.0808   -2.1865   -0.1192 C   0  0  0  0  0  0  0  0  0  0  0  0
   -1.8616   -1.9402   -0.8792 H   0  0  0  0  0  0  0  0  0  0  0  0
   -1.8060   -2.6507    1.1607 C   0  0  0  0  0  0  0  0  0  0  0  0
   -2.4216   -1.8185    1.5597 H   0  0  0  0  0  0  0  0  0  0  0  0
   -1.0363   -2.8810    1.9312 H   0  0  0  0  0  0  0  0  0  0  0  0
   -2.6714   -3.8874    0.8899 C   0  0  0  0  0  0  0  0  0  0  0  0
   -3.1684   -4.2204    1.8254 H   0  0  0  0  0  0  0  0  0  0  0  0
   -3.4890   -3.6094    0.1865 H   0  0  0  0  0  0  0  0  0  0  0  0
   -1.8458   -5.0289    0.2812 C   0  0  0  0  0  0  0  0  0  0  0  0
   -1.1088   -5.3843    1.0369 H   0  0  0  0  0  0  0  0  0  0  0  0
   -2.4964   -5.8978    0.0472 H   0  0  0  0  0  0  0  0  0  0  0  0
   -1.0921   -4.5667   -0.9736 C   0  0  0  0  0  0  0  0  0  0  0  0
   -1.8268   -4.3261   -1.7745 H   0  0  0  0  0  0  0  0  0  0  0  0
   -0.4598   -5.3880   -1.3717 H   0  0  0  0  0  0  0  0  0  0  0  0
   -0.2333   -3.3276   -0.6951 C   0  0  0  0  0  0  0  0  0  0  0  0
    0.5592   -3.5821    0.0438 H   0  0  0  0  0  0  0  0  0  0  0  0
    0.2754   -2.9655   -1.6113 H   0  0  0  0  0  0  0  0  0  0  0  0
  1  3  1  0  0  0  0
  3  2  1  0  0  0  0
  4  3  1  0  0  0  0
  5  4  3  0  0  0  0
  6  5  1  0  0  0  0
  6  7  1  0  0  0  0
  6 11  1  0  0  0  0
  7 10  1  0  0  0  0
  8  7  1  0  0  0  0
  9  7  1  0  0  0  0
 11 13  1  0  0  0  0
 11 12  1  0  0  0  0
 14 11  1  0  0  0  0
 15  6  1  0  0  0  0
 16 15  1  0  0  0  0
 17 15  1  0  0  0  0
 18 15  1  0  0  0  0
 19  1  1  0  0  0  0
 19 33  1  0  0  0  0
 20 19  1  0  0  0  0
 21 23  1  0  0  0  0
 21 19  1  0  0  0  0
 22 21  1  0  0  0  0
 24 21  1  0  0  0  0
 24 27  1  0  0  0  0
 25 24  1  0  0  0  0
 26 24  1  0  0  0  0
 27 28  1  0  0  0  0
 27 30  1  0  0  0  0
 29 27  1  0  0  0  0
 30 33  1  0  0  0  0
 30 32  1  0  0  0  0
 31 30  1  0  0  0  0
 33 35  1  0  0  0  0
 33 34  1  0  0  0  0
 36  2  1  0  0  0  0
 36 38  1  0  0  0  0
 37 36  1  0  0  0  0
 38 39  1  0  0  0  0
 38 40  1  0  0  0  0
 41 38  1  0  0  0  0
 41 42  1  0  0  0  0
 43 41  1  0  0  0  0
 44 41  1  0  0  0  0
 44 45  1  0  0  0  0
 46 44  1  0  0  0  0
 47 50  1  0  0  0  0
 47 44  1  0  0  0  0
 48 47  1  0  0  0  0
 49 47  1  0  0  0  0
 50 36  1  0  0  0  0
 50 51  1  0  0  0  0
 52 50  1  0  0  0  0
M  END
