1,10
q = 0.0, confidence = 0.998

 22 23  0  0  1  0  0  0  0  0999 V2000
   -0.9854   -0.6161    0.0183 N   0  0  0  0  0  2  0  0  0  0  0  0
   -2.9682   -1.9157    0.1311 N   0  0  0  0  0  0  0  0  0  0  0  0
   -3.0900    0.4341   -0.3545 N   0  0  0  0  0  0  0  0  0  0  0  0
   -0.9313   -2.7948    0.8457 N   0  0  0  0  0  0  0  0  0  0  0  0
   -1.4751   -3.5854    1.1984 H   0  0  0  0  0  0  0  0  0  0  0  0
   -0.1085   -2.4997    1.3938 H   0  0  0  0  0  0  0  0  0  0  0  0
   -4.9317   -0.9431   -0.6064 N   0  0  0  0  0  0  0  0  0  0  0  0
   -5.4683   -0.1166   -0.8660 H   0  0  0  0  0  0  0  0  0  0  0  0
   -5.3868   -1.8517   -0.5247 H   0  0  0  0  0  0  0  0  0  0  0  0
    0.2868    1.6247    0.0952 N   0  0  0  0  0  2  0  0  0  0  0  0
   -1.6562   -1.7795    0.3267 C   0  0  2  0  0  3  0  0  0  0  0  0
   -3.6345   -0.8183   -0.2824 C   0  0  0  0  0  0  0  0  0  0  0  0
   -1.7798    0.4698   -0.1891 C   0  0  0  0  0  0  0  0  0  0  0  0
   -1.0539    1.7492   -0.1187 C   0  0  1  0  0  3  0  0  0  0  0  0
   -1.6887    2.9966   -0.1627 C   0  0  0  0  0  0  0  0  0  0  0  0
   -2.7725    3.0204   -0.3427 H   0  0  0  0  0  0  0  0  0  0  0  0
   -0.9244    4.1503    0.0488 C   0  0  0  0  0  0  0  0  0  0  0  0
   -1.3932    5.1447    0.0234 H   0  0  0  0  0  0  0  0  0  0  0  0
    0.4468    4.0120    0.3153 C   0  0  0  0  0  0  0  0  0  0  0  0
    1.0818    4.8866    0.5149 H   0  0  0  0  0  0  0  0  0  0  0  0
    1.0186    2.7343    0.3316 C   0  0  0  0  0  0  0  0  0  0  0  0
    2.0853    2.5805    0.5455 H   0  0  0  0  0  0  0  0  0  0  0  0
  1 11  1  0  0  0  0
  2 11  1  0  0  0  0
  3 12  1  0  0  0  0
  3 13  2  0  0  0  0
  4  5  1  0  0  0  0
  4  6  1  0  0  0  0
  7  9  1  0  0  0  0
  7 12  1  0  0  0  0
  8  7  1  0  0  0  0
 10 21  1  0  0  0  0
 11  4  1  1  0  0  0
 12  2  2  0  0  0  0
 13  1  1  0  0  0  0
 14 13  1  1  0  0  0
 14 10  1  0  0  0  0
 15 14  1  0  0  0  0
 15 17  2  0  0  0  0
 16 15  1  0  0  0  0
 17 19  1  0  0  0  0
 18 17  1  0  0  0  0
 19 21  2  0  0  0  0
 19 20  1  0  0  0  0
 21 22  1  0  0  0  0
M  END
