2,3
q = -1.0, confidence = 0.0

 40 41  0  0  1  0  0  0  0  0999 V2000
    3.9025    1.1630    2.0131 Cl  0  0  0  0  0  0  0  0  0  0  0  0
   -0.7591    0.7894    0.6747 N   0  0  0  0  0  2  0  0  0  0  0  0
    1.3244    1.0828    1.4604 N   0  0  0  0  0  2  0  0  0  0  0  0
    0.0037    1.4585    1.5705 C   0  0  2  0  0  3  0  0  0  0  0  0
   -0.3998    2.4175    2.5403 C   0  0  0  0  0  0  0  0  0  0  0  0
   -1.4598    2.6895    2.6239 H   0  0  0  0  0  0  0  0  0  0  0  0
    0.5851    2.9864    3.3434 C   0  0  0  0  0  0  0  0  0  0  0  0
    0.3061    3.7399    4.0962 H   0  0  0  0  0  0  0  0  0  0  0  0
    1.9417    2.6198    3.2085 C   0  0  0  0  0  0  0  0  0  0  0  0
    2.7361    3.0609    3.8218 H   0  0  0  0  0  0  0  0  0  0  0  0
    2.2401    1.6538    2.2426 C   0  0  0  0  0  0  0  0  0  0  0  0
   -2.1714    0.9508    0.6430 C   0  0  0  0  0  0  0  0  0  0  0  0
   -2.7424    1.8478   -0.3019 C   0  0  0  0  0  0  0  0  0  0  0  0
   -4.1435    1.9755   -0.3345 C   0  0  0  0  0  0  0  0  0  0  0  0
   -4.6044    2.6645   -1.0577 H   0  0  0  0  0  0  0  0  0  0  0  0
   -4.9608    1.2359    0.5306 C   0  0  0  0  0  0  0  0  0  0  0  0
   -6.0549    1.3476    0.4848 H   0  0  0  0  0  0  0  0  0  0  0  0
   -4.3831    0.3522    1.4488 C   0  0  0  0  0  0  0  0  0  0  0  0
   -5.0293   -0.2361    2.1186 H   0  0  0  0  0  0  0  0  0  0  0  0
   -2.9871    0.1917    1.5256 C   0  0  0  0  0  0  0  0  0  0  0  0
   -2.3924   -0.7947    2.5226 C   0  0  0  0  0  0  0  0  0  0  0  0
   -1.2900   -0.7416    2.4209 H   0  0  0  0  0  0  0  0  0  0  0  0
   -2.8055   -2.2402    2.1987 C   0  0  0  0  0  0  0  0  0  0  0  0
   -2.3066   -2.9516    2.8887 H   0  0  0  0  0  0  0  0  0  0  0  0
   -2.5375   -2.5151    1.1603 H   0  0  0  0  0  0  0  0  0  0  0  0
   -3.9011   -2.3814    2.3027 H   0  0  0  0  0  0  0  0  0  0  0  0
   -2.7356   -0.4166    3.9731 C   0  0  0  0  0  0  0  0  0  0  0  0
   -2.2467   -1.1134    4.6846 H   0  0  0  0  0  0  0  0  0  0  0  0
   -3.8288   -0.4658    4.1579 H   0  0  0  0  0  0  0  0  0  0  0  0
   -2.3981    0.6115    4.2143 H   0  0  0  0  0  0  0  0  0  0  0  0
   -1.8653    2.6663   -1.2407 C   0  0  0  0  0  0  0  0  0  0  0  0
   -0.8806    2.1578   -1.3039 H   0  0  0  0  0  0  0  0  0  0  0  0
   -2.4316    2.7513   -2.6648 C   0  0  0  0  0  0  0  0  0  0  0  0
   -1.7026    3.2536   -3.3298 H   0  0  0  0  0  0  0  0  0  0  0  0
   -3.3752    3.3340   -2.7059 H   0  0  0  0  0  0  0  0  0  0  0  0
   -2.6363    1.7443   -3.0821 H   0  0  0  0  0  0  0  0  0  0  0  0
   -1.6122    4.0707   -0.6618 C   0  0  0  0  0  0  0  0  0  0  0  0
   -0.9442    4.6496   -1.3304 H   0  0  0  0  0  0  0  0  0  0  0  0
   -1.1287    4.0180    0.3338 H   0  0  0  0  0  0  0  0  0  0  0  0
   -2.5657    4.6284   -0.5483 H   0  0  0  0  0  0  0  0  0  0  0  0
  1 11  1  0  0  0  0
  3  4  1  0  0  0  0
  3 11  1  0  0  0  0
  4  2  1  1  0  0  0
  4  5  1  0  0  0  0
  5  6  1  0  0  0  0
  5  7  2  0  0  0  0
  7  8  1  0  0  0  0
  9  7  1  0  0  0  0
  9 10  1  0  0  0  0
 11  9  2  0  0  0  0
 12  2  1  0  0  0  0
 12 20  1  0  0  0  0
 13 12  2  0  0  0  0
 14 13  1  0  0  0  0
 14 16  2  0  0  0  0
 15 14  1  0  0  0  0
 16 18  1  0  0  0  0
 17 16  1  0  0  0  0
 18 20  2  0  0  0  0
 18 19  1  0  0  0  0
 20 21  1  0  0  0  0
 21 27  1  0  0  0  0
 22 21  1  0  0  0  0
 23 26  1  0  0  0  0
 23 21  1  0  0  0  0
 23 24  1  0  0  0  0
 25 23  1  0  0  0  0
 27 29  1  0  0  0  0
 27 30  1  0  0  0  0
 27 28  1  0  0  0  0
 31 37  1  0  0  0  0
 31 13  1  0  0  0  0
 32 31  1  0  0  0  0
 33 31  1  0  0  0  0
 34 33  1  0  0  0  0
 35 33  1  0  0  0  0
 36 33  1  0  0  0  0
 37 40  1  0  0  0  0
 37 39  1  0  0  0  0
 38 37  1  0  0  0  0
M  END
