5,6
q = -1.0

 39 42  0  0  1  0  0  0  0  0999 V2000
    1.2305    0.6976    3.1399 O   0  0  0  0  0  0  0  0  0  0  0  0
    4.8160    2.3954    0.7833 O   0  0  0  0  0  0  0  0  0  0  0  0
   -5.3787   -0.9692   -0.2243 O   0  0  0  0  0  0  0  0  0  0  0  0
   -4.4618    0.9863   -1.0866 O   0  0  0  0  0  0  0  0  0  0  0  0
    1.6673    0.8075    0.8403 N   0  0  0  0  0  2  0  0  0  0  0  0
    0.8616    0.0083   -1.8532 N   0  0  0  0  0  2  0  0  0  0  0  0
    3.1918    1.6684    2.3002 N   0  0  0  0  0  0  0  0  0  0  0  0
    2.8412    1.3479   -1.1939 N   0  0  0  0  0  0  0  0  0  0  0  0
    2.2225    0.8447   -3.4090 N   0  0  0  0  0  0  0  0  0  0  0  0
    1.9311    1.0131    2.1924 C   0  0  0  0  0  0  0  0  0  0  0  0
    3.8399    1.9765    3.5525 C   0  0  0  0  0  0  0  0  0  0  0  0
    4.0692    3.0587    3.6213 H   0  0  0  0  0  0  0  0  0  0  0  0
    4.7905    1.4123    3.6479 H   0  0  0  0  0  0  0  0  0  0  0  0
    3.1475    1.6875    4.3650 H   0  0  0  0  0  0  0  0  0  0  0  0
    3.7360    1.8895    1.0461 C   0  0  0  0  0  0  0  0  0  0  0  0
    2.6823    1.3182    0.1042 C   0  0  0  0  0  0  0  0  0  0  0  0
    1.9781    0.7654   -2.0544 C   0  0  1  0  0  3  0  0  0  0  0  0
    3.3359    1.5565   -4.0059 C   0  0  0  0  0  0  0  0  0  0  0  0
    2.9693    2.3303   -4.7091 H   0  0  0  0  0  0  0  0  0  0  0  0
    4.0014    0.8541   -4.5468 H   0  0  0  0  0  0  0  0  0  0  0  0
    3.8958    2.0369   -3.1828 H   0  0  0  0  0  0  0  0  0  0  0  0
    1.2556    0.1131   -4.0641 C   0  0  0  0  0  0  0  0  0  0  0  0
    1.2436    0.0072   -5.1532 H   0  0  0  0  0  0  0  0  0  0  0  0
    0.4204   -0.4182   -3.0939 C   0  0  0  0  0  0  0  0  0  0  0  0
   -0.6625   -1.4354   -3.3131 C   0  0  0  0  0  0  0  0  0  0  0  0
   -0.2253   -2.4480   -3.1632 H   0  0  0  0  0  0  0  0  0  0  0  0
   -0.9372   -1.3937   -4.3900 H   0  0  0  0  0  0  0  0  0  0  0  0
   -1.9123   -1.3391   -2.4617 C   0  0  0  0  0  0  0  0  0  0  0  0
   -2.5358   -0.0852   -2.2271 C   0  0  0  0  0  0  0  0  0  0  0  0
   -2.1019    0.8521   -2.6026 H   0  0  0  0  0  0  0  0  0  0  0  0
   -3.7060   -0.0853   -1.4784 C   0  0  0  0  0  0  0  0  0  0  0  0
   -4.2639   -1.2659   -0.9568 C   0  0  0  0  0  0  0  0  0  0  0  0
   -3.6764   -2.5042   -1.1837 C   0  0  0  0  0  0  0  0  0  0  0  0
   -4.1079   -3.4270   -0.7735 H   0  0  0  0  0  0  0  0  0  0  0  0
   -2.4870   -2.5146   -1.9461 C   0  0  0  0  0  0  0  0  0  0  0  0
   -1.9930   -3.4788   -2.1412 H   0  0  0  0  0  0  0  0  0  0  0  0
   -5.5205    0.4618   -0.2613 C   0  0  0  0  0  0  0  0  0  0  0  0
   -5.4217    0.8833    0.7629 H   0  0  0  0  0  0  0  0  0  0  0  0
   -6.5007    0.7228   -0.7196 H   0  0  0  0  0  0  0  0  0  0  0  0
  2 15  2  0  0  0  0
  4 37  1  0  0  0  0
  5 10  1  0  0  0  0
  7 11  1  0  0  0  0
  8 16  2  0  0  0  0
  9 17  1  0  0  0  0
 10  7  1  0  0  0  0
 10  1  2  0  0  0  0
 11 12  1  0  0  0  0
 11 13  1  0  0  0  0
 11 14  1  0  0  0  0
 15  7  1  0  0  0  0
 16  5  1  0  0  0  0
 16 15  1  0  0  0  0
 17  6  1  0  0  0  0
 17  8  1  1  0  0  0
 18  9  1  0  0  0  0
 18 21  1  0  0  0  0
 19 18  1  0  0  0  0
 20 18  1  0  0  0  0
 22  9  1  0  0  0  0
 22 24  2  0  0  0  0
 23 22  1  0  0  0  0
 24  6  1  0  0  0  0
 25 26  1  0  0  0  0
 25 24  1  0  0  0  0
 25 28  1  0  0  0  0
 27 25  1  0  0  0  0
 28 29  2  0  0  0  0
 28 35  1  0  0  0  0
 29 31  1  0  0  0  0
 30 29  1  0  0  0  0
 31  4  1  0  0  0  0
 31 32  2  0  0  0  0
 32  3  1  0  0  0  0
 33 32  1  0  0  0  0
 33 34  1  0  0  0  0
 35 33  2  0  0  0  0
 36 35  1  0  0  0  0
 37  3  1  0  0  0  0
 37 38  1  0  0  0  0
 39 37  1  0  0  0  0
M  END
