26,39
q = 0.0, confidence = 0.986

 64 65  0  0  0  0  0  0  0  0999 V2000
   11.2742    0.5096    0.7034 C   0  0  0  0  0  0  0  0  0  0  0  0
   10.9679    0.9185    1.6921 H   0  0  0  0  0  0  0  0  0  0  0  0
   11.1308    1.3132   -0.0529 H   0  0  0  0  0  0  0  0  0  0  0  0
   12.3534    0.2800    0.7521 H   0  0  0  0  0  0  0  0  0  0  0  0
   11.2601   -1.9392    0.1530 C   0  0  0  0  0  0  0  0  0  0  0  0
   11.1078   -2.3402   -0.8738 H   0  0  0  0  0  0  0  0  0  0  0  0
   10.9460   -2.7279    0.8725 H   0  0  0  0  0  0  0  0  0  0  0  0
   12.3418   -1.7650    0.2917 H   0  0  0  0  0  0  0  0  0  0  0  0
   10.5420   -0.6958    0.3622 N   0  0  0  0  0  0  0  0  0  0  0  0
    9.1716   -0.6633    0.2426 C   0  0  0  0  0  0  0  0  0  0  0  0
    8.4257   -1.8331   -0.0885 C   0  0  0  0  0  0  0  0  0  0  0  0
    8.9369   -2.7892   -0.2553 H   0  0  0  0  0  0  0  0  0  0  0  0
    7.0403   -1.7837   -0.2042 C   0  0  0  0  0  0  0  0  0  0  0  0
    6.4929   -2.7048   -0.4597 H   0  0  0  0  0  0  0  0  0  0  0  0
    6.3050   -0.5865   -0.0028 C   0  0  0  0  0  0  0  0  0  0  0  0
    7.0542    0.5748    0.3257 C   0  0  0  0  0  0  0  0  0  0  0  0
    6.5334    1.5295    0.4928 H   0  0  0  0  0  0  0  0  0  0  0  0
    8.4377    0.5465    0.4461 C   0  0  0  0  0  0  0  0  0  0  0  0
    8.9635    1.4746    0.7031 H   0  0  0  0  0  0  0  0  0  0  0  0
    4.8653   -0.6014   -0.1351 C   0  0  0  0  0  3  0  0  0  0  0  0
    4.4258   -1.5817   -0.3953 H   0  0  0  0  0  0  0  0  0  0  0  0
    3.9861    0.4416    0.0247 C   0  0  0  0  0  0  0  0  0  0  0  0
    4.3539    1.4436    0.2945 H   0  0  0  0  0  0  0  0  0  0  0  0
    2.5739    0.2226   -0.1402 C   0  0  0  0  0  0  0  0  0  0  0  0
    2.2500   -0.8116   -0.3840 H   0  0  0  0  0  0  0  0  0  0  0  0
    1.6038    1.0901   -0.0380 N   0  0  0  0  0  2  0  0  0  0  0  0
    1.8772    2.4931    0.2738 C   0  0  0  0  0  0  0  0  0  0  0  0
    2.7970    2.8362   -0.2535 H   0  0  0  0  0  0  0  0  0  0  0  0
    2.0846    2.5718    1.3649 H   0  0  0  0  0  0  0  0  0  0  0  0
    0.7083    3.4196   -0.0659 C   0  0  0  0  0  0  0  0  0  0  0  0
   -0.1975    3.0567    0.4677 H   0  0  0  0  0  0  0  0  0  0  0  0
    0.9356    4.4135    0.3731 H   0  0  0  0  0  0  0  0  0  0  0  0
    0.4036    3.6141   -1.5578 C   0  0  0  0  0  0  0  0  0  0  0  0
    1.2889    4.0439   -2.0771 H   0  0  0  0  0  0  0  0  0  0  0  0
   -0.4064    4.3700   -1.6444 H   0  0  0  0  0  0  0  0  0  0  0  0
   -0.0341    2.3557   -2.3347 C   0  0  0  0  0  0  0  0  0  0  0  0
   -0.3943    2.6578   -3.3450 H   0  0  0  0  0  0  0  0  0  0  0  0
    0.8337    1.6783   -2.4834 H   0  0  0  0  0  0  0  0  0  0  0  0
   -1.0542    1.6095   -1.6218 N   0  0  0  0  0  2  0  0  0  0  0  0
   -2.2967    1.6540   -2.0141 C   0  0  0  0  0  0  0  0  0  0  0  0
   -2.5578    2.2439   -2.9227 H   0  0  0  0  0  0  0  0  0  0  0  0
   -3.3505    0.9745   -1.3252 C   0  0  0  0  0  0  0  0  0  0  0  0
   -3.0600    0.4201   -0.4181 H   0  0  0  0  0  0  0  0  0  0  0  0
   -4.6600    1.0202   -1.7268 C   0  0  0  0  0  3  0  0  0  0  0  0
   -4.9028    1.5850   -2.6462 H   0  0  0  0  0  0  0  0  0  0  0  0
   -5.7796    0.3968   -1.0560 C   0  0  0  0  0  0  0  0  0  0  0  0
   -7.0803    0.4714   -1.6159 C   0  0  0  0  0  0  0  0  0  0  0  0
   -7.2202    1.0098   -2.5670 H   0  0  0  0  0  0  0  0  0  0  0  0
   -8.1848   -0.1170   -1.0062 C   0  0  0  0  0  0  0  0  0  0  0  0
   -9.1665   -0.0289   -1.4883 H   0  0  0  0  0  0  0  0  0  0  0  0
   -8.0450   -0.8232    0.2249 C   0  0  0  0  0  0  0  0  0  0  0  0
   -6.7379   -0.8930    0.7979 C   0  0  0  0  0  0  0  0  0  0  0  0
   -6.5766   -1.4157    1.7489 H   0  0  0  0  0  0  0  0  0  0  0  0
   -5.6465   -0.3027    0.1749 C   0  0  0  0  0  0  0  0  0  0  0  0
   -4.6617   -0.3736    0.6618 H   0  0  0  0  0  0  0  0  0  0  0  0
   -9.1265   -1.4130    0.8416 N   0  0  0  0  0  0  0  0  0  0  0  0
   -8.9530   -2.1240    2.0945 C   0  0  0  0  0  0  0  0  0  0  0  0
   -9.9273   -2.5281    2.4229 H   0  0  0  0  0  0  0  0  0  0  0  0
   -8.5685   -1.4614    2.9016 H   0  0  0  0  0  0  0  0  0  0  0  0
   -8.2455   -2.9770    1.9953 H   0  0  0  0  0  0  0  0  0  0  0  0
  -10.4427   -1.3226    0.2411 C   0  0  0  0  0  0  0  0  0  0  0  0
  -11.1728   -1.8548    0.8767 H   0  0  0  0  0  0  0  0  0  0  0  0
  -10.4722   -1.7838   -0.7717 H   0  0  0  0  0  0  0  0  0  0  0  0
  -10.7843   -0.2679    0.1389 H   0  0  0  0  0  0  0  0  0  0  0  0
  1  4  1  0  0  0  0
  1  2  1  0  0  0  0
  3  1  1  0  0  0  0
  5  8  1  0  0  0  0
  5  9  1  0  0  0  0
  5  7  1  0  0  0  0
  6  5  1  0  0  0  0
  9  1  1  0  0  0  0
 10  9  1  0  0  0  0
 10 18  1  0  0  0  0
 11 10  2  0  0  0  0
 12 11  1  0  0  0  0
 13 11  1  0  0  0  0
 13 15  2  0  0  0  0
 14 13  1  0  0  0  0
 15 16  1  0  0  0  0
 16 18  2  0  0  0  0
 16 17  1  0  0  0  0
 18 19  1  0  0  0  0
 20 15  1  0  0  0  0
 20 22  1  0  0  0  0
 21 20  1  0  0  0  0
 22 23  1  0  0  0  0
 24 26  1  0  0  0  0
 24 22  2  0  0  0  0
 25 24  1  0  0  0  0
 26 27  1  0  0  0  0
 27 29  1  0  0  0  0
 28 27  1  0  0  0  0
 30 27  1  0  0  0  0
 30 32  1  0  0  0  0
 30 31  1  0  0  0  0
 33 30  1  0  0  0  0
 34 33  1  0  0  0  0
 35 33  1  0  0  0  0
 36 39  1  0  0  0  0
 36 33  1  0  0  0  0
 37 36  1  0  0  0  0
 38 36  1  0  0  0  0
 40 39  1  0  0  0  0
 40 42  2  0  0  0  0
 41 40  1  0  0  0  0
 42 43  1  0  0  0  0
 44 42  1  0  0  0  0
 44 46  1  0  0  0  0
 45 44  1  0  0  0  0
 46 54  1  0  0  0  0
 47 46  2  0  0  0  0
 47 49  1  0  0  0  0
 48 47  1  0  0  0  0
 49 51  2  0  0  0  0
 50 49  1  0  0  0  0
 51 52  1  0  0  0  0
 51 56  1  0  0  0  0
 52 53  1  0  0  0  0
 54 55  1  0  0  0  0
 54 52  2  0  0  0  0
 56 57  1  0  0  0  0
 57 58  1  0  0  0  0
 57 59  1  0  0  0  0
 60 57  1  0  0  0  0
 61 56  1  0  0  0  0
 61 62  1  0  0  0  0
 63 61  1  0  0  0  0
 64 61  1  0  0  0  0
M  END
