27,28
q = 0.0, confidence = 1.0

 30 32  0  0  1  0  0  0  0  0999 V2000
    3.9218    0.6654   -0.6451 C   0  0  0  0  0  0  0  0  0  0  0  0
    4.6173   -0.1735   -0.7508 H   0  0  0  0  0  0  0  0  0  0  0  0
    4.1852    2.0343   -0.6897 C   0  0  0  0  0  0  0  0  0  0  0  0
    5.1192    2.5832   -0.8448 H   0  0  0  0  0  0  0  0  0  0  0  0
    2.0323    1.7075   -0.3380 C   0  0  2  0  0  3  0  0  0  0  0  0
    2.7439    4.1131   -0.4517 C   0  0  0  0  0  0  0  0  0  0  0  0
    1.6555    4.2728   -0.3533 H   0  0  0  0  0  0  0  0  0  0  0  0
    3.1032    4.5923   -1.3829 H   0  0  0  0  0  0  0  0  0  0  0  0
    3.2600    4.5644    0.4184 H   0  0  0  0  0  0  0  0  0  0  0  0
   -1.3444    0.9505    0.0941 C   0  0  0  0  0  0  0  0  0  0  0  0
   -1.9225    2.0818    0.7480 C   0  0  0  0  0  0  0  0  0  0  0  0
   -1.2546    2.8428    1.1724 H   0  0  0  0  0  0  0  0  0  0  0  0
   -3.2950    2.1720    0.8644 C   0  0  0  0  0  0  0  0  0  0  0  0
   -3.7485    3.0234    1.3953 H   0  0  0  0  0  0  0  0  0  0  0  0
   -4.1552    1.1686    0.3180 C   0  0  0  0  0  0  0  0  0  0  0  0
   -5.5717    1.2390    0.4221 C   0  0  0  0  0  0  0  0  0  0  0  0
   -6.0243    2.0949    0.9465 H   0  0  0  0  0  0  0  0  0  0  0  0
   -6.3733    0.2473   -0.1293 C   0  0  0  0  0  0  0  0  0  0  0  0
   -7.4683    0.3159   -0.0426 H   0  0  0  0  0  0  0  0  0  0  0  0
   -5.7912   -0.8577   -0.8070 C   0  0  0  0  0  0  0  0  0  0  0  0
   -6.4392   -1.6354   -1.2381 H   0  0  0  0  0  0  0  0  0  0  0  0
   -4.4131   -0.9583   -0.9239 C   0  0  0  0  0  0  0  0  0  0  0  0
   -3.9515   -1.8125   -1.4421 H   0  0  0  0  0  0  0  0  0  0  0  0
   -3.5628    0.0419   -0.3645 C   0  0  0  0  0  0  0  0  0  0  0  0
   -2.1497   -0.0492   -0.4550 C   0  0  0  0  0  0  0  0  0  0  0  0
   -1.6747   -0.8668   -1.0203 H   0  0  0  0  0  0  0  0  0  0  0  0
    0.0521    0.8244   -0.0454 N   0  0  0  0  0  2  0  0  0  0  0  0
    2.5895    0.4830   -0.4336 N   0  0  0  0  0  2  0  0  0  0  0  0
    0.7088    1.9316   -0.1500 N   0  0  0  0  0  2  0  0  0  0  0  0
    2.9851    2.6803   -0.4969 N   0  0  0  0  0  0  0  0  0  0  0  0
  1 28  1  0  0  0  0
  2  1  1  0  0  0  0
  3  1  2  0  0  0  0
  3 30  1  0  0  0  0
  4  3  1  0  0  0  0
  5 29  1  6  0  0  0
  6  7  1  0  0  0  0
  6  9  1  0  0  0  0
  8  6  1  0  0  0  0
 10 11  1  0  0  0  0
 11 13  2  0  0  0  0
 11 12  1  0  0  0  0
 13 14  1  0  0  0  0
 15 16  1  0  0  0  0
 15 13  1  0  0  0  0
 16 17  1  0  0  0  0
 18 19  1  0  0  0  0
 18 16  2  0  0  0  0
 20 18  1  0  0  0  0
 21 20  1  0  0  0  0
 22 20  2  0  0  0  0
 22 24  1  0  0  0  0
 23 22  1  0  0  0  0
 24 15  2  0  0  0  0
 25 24  1  0  0  0  0
 25 10  2  0  0  0  0
 26 25  1  0  0  0  0
 27 10  1  0  0  0  0
 28  5  1  0  0  0  0
 29 27  1  0  0  0  0
 30  6  1  0  0  0  0
 30  5  1  0  0  0  0
M  END
