1,10
q = -1.0

 34 36  0  0  1  0  0  0  0  0999 V2000
   -0.3095    2.2069   -0.3290 N   0  0  0  0  0  2  0  0  0  0  0  0
    0.4103    3.3388   -0.1254 C   0  0  1  0  0  3  0  0  0  0  0  0
   -0.1848    4.5949   -0.4351 C   0  0  0  0  0  0  0  0  0  0  0  0
    0.3648    5.5238   -0.2487 H   0  0  0  0  0  0  0  0  0  0  0  0
   -1.4978    4.6154   -0.9060 C   0  0  0  0  0  0  0  0  0  0  0  0
   -1.9625    5.5864   -1.1370 H   0  0  0  0  0  0  0  0  0  0  0  0
   -2.2577    3.4389   -1.0602 C   0  0  0  0  0  0  0  0  0  0  0  0
   -3.2961    3.4484   -1.4105 H   0  0  0  0  0  0  0  0  0  0  0  0
   -1.6190    2.2422   -0.7140 C   0  0  0  0  0  0  0  0  0  0  0  0
   -2.0613    0.9385   -0.7007 N   0  0  0  0  0  2  0  0  0  0  0  0
   -3.3927    0.5958   -1.0374 C   0  0  0  0  0  0  0  0  0  0  0  0
   -3.6560   -0.3629   -2.0364 C   0  0  0  0  0  0  0  0  0  0  0  0
   -2.8108   -0.8278   -2.5609 H   0  0  0  0  0  0  0  0  0  0  0  0
   -4.9793   -0.7072   -2.3464 C   0  0  0  0  0  0  0  0  0  0  0  0
   -5.1719   -1.4542   -3.1317 H   0  0  0  0  0  0  0  0  0  0  0  0
   -6.0512   -0.1097   -1.6660 C   0  0  0  0  0  0  0  0  0  0  0  0
   -7.0879   -0.3878   -1.9083 H   0  0  0  0  0  0  0  0  0  0  0  0
   -5.7902    0.8412   -0.6656 C   0  0  0  0  0  0  0  0  0  0  0  0
   -6.6209    1.3020   -0.1100 H   0  0  0  0  0  0  0  0  0  0  0  0
   -4.4725    1.1945   -0.3510 C   0  0  0  0  0  0  0  0  0  0  0  0
   -4.2655    1.9115    0.4560 H   0  0  0  0  0  0  0  0  0  0  0  0
    1.6405    3.1747    0.4345 N   0  0  0  0  0  0  0  0  0  0  0  0
    1.8131    2.2204    0.7792 H   0  0  0  0  0  0  0  0  0  0  0  0
    2.6924    4.0899    0.5884 C   0  0  0  0  0  0  0  0  0  0  0  0
    3.5574    3.9150    1.6920 C   0  0  0  0  0  0  0  0  0  0  0  0
    3.3580    3.0979    2.4021 H   0  0  0  0  0  0  0  0  0  0  0  0
    4.6454    4.7747    1.8792 C   0  0  0  0  0  0  0  0  0  0  0  0
    5.3097    4.6244    2.7436 H   0  0  0  0  0  0  0  0  0  0  0  0
    4.8849    5.8263    0.9791 C   0  0  0  0  0  0  0  0  0  0  0  0
    5.7364    6.5056    1.1317 H   0  0  0  0  0  0  0  0  0  0  0  0
    4.0343    5.9928   -0.1249 C   0  0  0  0  0  0  0  0  0  0  0  0
    4.2260    6.7966   -0.8520 H   0  0  0  0  0  0  0  0  0  0  0  0
    2.9500    5.1290   -0.3322 C   0  0  0  0  0  0  0  0  0  0  0  0
    2.3250    5.2362   -1.2290 H   0  0  0  0  0  0  0  0  0  0  0  0
  1  2  1  0  0  0  0
  2 22  1  1  0  0  0
  3  4  1  0  0  0  0
  3  2  1  0  0  0  0
  5  3  2  0  0  0  0
  6  5  1  0  0  0  0
  7  5  1  0  0  0  0
  7  9  2  0  0  0  0
  8  7  1  0  0  0  0
  9 10  1  0  0  0  0
  9  1  1  0  0  0  0
 11 10  1  0  0  0  0
 11 20  1  0  0  0  0
 12 11  2  0  0  0  0
 13 12  1  0  0  0  0
 14 12  1  0  0  0  0
 14 16  2  0  0  0  0
 15 14  1  0  0  0  0
 16 18  1  0  0  0  0
 17 16  1  0  0  0  0
 18 20  2  0  0  0  0
 18 19  1  0  0  0  0
 20 21  1  0  0  0  0
 22 24  1  0  0  0  0
 22 23  1  0  0  0  0
 24 25  1  0  0  0  0
 25 27  2  0  0  0  0
 25 26  1  0  0  0  0
 27 28  1  0  0  0  0
 29 30  1  0  0  0  0
 29 27  1  0  0  0  0
 31 29  2  0  0  0  0
 32 31  1  0  0  0  0
 33 31  1  0  0  0  0
 33 24  2  0  0  0  0
 34 33  1  0  0  0  0
M  END
