1,2
q = 0.0, confidence = 1.0

 32 35  0  0  0  0  0  0  0  0999 V2000
   -1.0980    0.8598   -0.0400 N   0  0  0  0  0  2  0  0  0  0  0  0
   -0.5295   -1.7517   -0.0088 N   0  0  0  0  0  2  0  0  0  0  0  0
   -1.3258    2.1823   -0.0831 C   0  0  0  0  0  0  0  0  0  0  0  0
   -2.6313    2.7053   -0.1300 C   0  0  0  0  0  0  0  0  0  0  0  0
   -3.7297    1.8465   -0.1096 C   0  0  0  0  0  0  0  0  0  0  0  0
   -3.5208    0.4441   -0.0344 C   0  0  0  0  0  0  0  0  0  0  0  0
   -4.5855   -0.5482   -0.0089 C   0  0  0  0  0  0  0  0  0  0  0  0
   -4.2603   -1.8947   -0.0241 C   0  0  0  0  0  0  0  0  0  0  0  0
   -2.9046   -2.3636   -0.0297 C   0  0  0  0  0  0  0  0  0  0  0  0
   -2.5318   -3.7331   -0.0291 C   0  0  0  0  0  0  0  0  0  0  0  0
   -1.1788   -4.0686   -0.0192 C   0  0  0  0  0  0  0  0  0  0  0  0
   -0.2004   -3.0543   -0.0098 C   0  0  0  0  0  0  0  0  0  0  0  0
   -1.8563   -1.4022   -0.0172 C   0  0  0  0  0  0  0  0  0  0  0  0
   -2.1667   -0.0035   -0.0240 C   0  0  0  0  0  0  0  0  0  0  0  0
   -6.0137   -0.1360    0.0301 C   0  0  0  0  0  0  0  0  0  0  0  0
   -6.4969    0.7289    1.0385 C   0  0  0  0  0  0  0  0  0  0  0  0
   -7.8532    1.0798    1.0874 C   0  0  0  0  0  0  0  0  0  0  0  0
   -8.7486    0.5769    0.1298 C   0  0  0  0  0  0  0  0  0  0  0  0
   -8.2809   -0.2854   -0.8741 C   0  0  0  0  0  0  0  0  0  0  0  0
   -6.9255   -0.6409   -0.9226 C   0  0  0  0  0  0  0  0  0  0  0  0
   -0.4227    2.8145   -0.0901 H   0  0  0  0  0  0  0  0  0  0  0  0
   -2.7688    3.7942   -0.1892 H   0  0  0  0  0  0  0  0  0  0  0  0
   -4.7525    2.2440   -0.1627 H   0  0  0  0  0  0  0  0  0  0  0  0
   -5.0689   -2.6410    0.0012 H   0  0  0  0  0  0  0  0  0  0  0  0
   -3.3103   -4.5108   -0.0359 H   0  0  0  0  0  0  0  0  0  0  0  0
   -0.8558   -5.1193   -0.0189 H   0  0  0  0  0  0  0  0  0  0  0  0
    0.8815   -3.2648   -0.0030 H   0  0  0  0  0  0  0  0  0  0  0  0
   -5.8051    1.1056    1.8071 H   0  0  0  0  0  0  0  0  0  0  0  0
   -8.2151    1.7453    1.8857 H   0  0  0  0  0  0  0  0  0  0  0  0
   -9.8123    0.8562    0.1676 H   0  0  0  0  0  0  0  0  0  0  0  0
   -8.9759   -0.6809   -1.6302 H   0  0  0  0  0  0  0  0  0  0  0  0
   -6.5564   -1.3045   -1.7194 H   0  0  0  0  0  0  0  0  0  0  0  0
  1 14  1  0  0  0  0
  3  1  1  0  0  0  0
  4  5  1  0  0  0  0
  4  3  2  0  0  0  0
  5  6  2  0  0  0  0
  6 14  1  0  0  0  0
  6  7  1  0  0  0  0
  7 15  1  0  0  0  0
  8  7  2  0  0  0  0
  8 24  1  0  0  0  0
  9 10  2  0  0  0  0
  9  8  1  0  0  0  0
  9 13  1  0  0  0  0
 10 11  1  0  0  0  0
 11 26  1  0  0  0  0
 11 12  2  0  0  0  0
 12  2  1  0  0  0  0
 12 27  1  0  0  0  0
 13  2  1  0  0  0  0
 14 13  2  0  0  0  0
 15 16  1  0  0  0  0
 16 17  2  0  0  0  0
 16 28  1  0  0  0  0
 17 29  1  0  0  0  0
 18 30  1  0  0  0  0
 18 17  1  0  0  0  0
 19 18  2  0  0  0  0
 20 19  1  0  0  0  0
 20 15  2  0  0  0  0
 21  3  1  0  0  0  0
 22  4  1  0  0  0  0
 23  5  1  0  0  0  0
 25 10  1  0  0  0  0
 31 19  1  0  0  0  0
 32 20  1  0  0  0  0
M  END
