2,4
q = -1.0

 65 66  0  0  1  0  0  0  0  0999 V2000
    1.3825    0.6559    0.3515 N   0  0  0  0  0  0  0  0  0  0  0  0
    1.2838   -0.6749    0.0859 N   0  0  0  0  0  2  0  0  0  0  0  0
   -1.0810    1.1818    0.4834 N   0  0  0  0  0  0  0  0  0  0  0  0
   -1.6050   -0.0569    0.2811 N   0  0  0  0  0  2  0  0  0  0  0  0
    0.0606    0.2331    2.3525 O   0  0  0  0  0  0  0  0  0  0  0  0
    1.1155    0.1075    3.2872 C   0  0  0  0  0  0  0  0  0  0  0  0
    2.4455    1.1938   -0.3038 C   0  0  2  0  0  3  0  0  0  0  0  0
    3.0520    0.1523   -1.0269 C   0  0  0  0  0  0  0  0  0  0  0  0
    2.2891   -1.0068   -0.7504 C   0  0  0  0  0  0  0  0  0  0  0  0
   -1.8574    2.1254   -0.1140 C   0  0  2  0  0  3  0  0  0  0  0  0
   -2.9337    1.4517   -0.7163 C   0  0  0  0  0  0  0  0  0  0  0  0
   -2.7351    0.0792   -0.4420 C   0  0  0  0  0  0  0  0  0  0  0  0
    2.4869   -2.4381   -1.2212 C   0  0  0  0  0  0  0  0  0  0  0  0
    1.1865   -2.9553   -1.8725 C   0  0  0  0  0  0  0  0  0  0  0  0
    2.8376   -3.3214   -0.0020 C   0  0  0  0  0  0  0  0  0  0  0  0
    3.6318   -2.4972   -2.2463 C   0  0  0  0  0  0  0  0  0  0  0  0
    2.8604    2.6335   -0.1335 C   0  0  0  0  0  0  0  0  0  0  0  0
    3.7123    2.8029    1.1391 C   0  0  0  0  0  0  0  0  0  0  0  0
    3.5897    3.1625   -1.3745 C   0  0  0  0  0  0  0  0  0  0  0  0
   -3.5907   -1.1236   -0.8036 C   0  0  0  0  0  0  0  0  0  0  0  0
   -4.7409   -0.6872   -1.7263 C   0  0  0  0  0  0  0  0  0  0  0  0
   -4.1689   -1.7333    0.4937 C   0  0  0  0  0  0  0  0  0  0  0  0
   -2.7252   -2.1793   -1.5240 C   0  0  0  0  0  0  0  0  0  0  0  0
   -1.4919    3.5862   -0.1434 C   0  0  0  0  0  0  0  0  0  0  0  0
   -2.7299    4.4852   -0.0246 C   0  0  0  0  0  0  0  0  0  0  0  0
   -0.6824    3.9107   -1.4147 C   0  0  0  0  0  0  0  0  0  0  0  0
    0.2549    1.2327    1.2796 B   0  0  1  0  0  0  0  0  0  0  0  0
    1.2796    1.0665    3.8274 H   0  0  0  0  0  0  0  0  0  0  0  0
    0.8455   -0.6747    4.0250 H   0  0  0  0  0  0  0  0  0  0  0  0
    2.0749   -0.1850    2.7999 H   0  0  0  0  0  0  0  0  0  0  0  0
    3.9360    0.2273   -1.6658 H   0  0  0  0  0  0  0  0  0  0  0  0
   -3.7563    1.9041   -1.2767 H   0  0  0  0  0  0  0  0  0  0  0  0
    0.8882   -2.3224   -2.7325 H   0  0  0  0  0  0  0  0  0  0  0  0
    1.3211   -3.9956   -2.2333 H   0  0  0  0  0  0  0  0  0  0  0  0
    0.3520   -2.9570   -1.1443 H   0  0  0  0  0  0  0  0  0  0  0  0
    2.9866   -4.3752   -0.3160 H   0  0  0  0  0  0  0  0  0  0  0  0
    3.7689   -2.9698    0.4862 H   0  0  0  0  0  0  0  0  0  0  0  0
    2.0241   -3.2974    0.7493 H   0  0  0  0  0  0  0  0  0  0  0  0
    3.4160   -1.8646   -3.1310 H   0  0  0  0  0  0  0  0  0  0  0  0
    4.5898   -2.1562   -1.8043 H   0  0  0  0  0  0  0  0  0  0  0  0
    3.7752   -3.5385   -2.5984 H   0  0  0  0  0  0  0  0  0  0  0  0
    1.9344    3.2302    0.0054 H   0  0  0  0  0  0  0  0  0  0  0  0
    3.1598    2.4610    2.0365 H   0  0  0  0  0  0  0  0  0  0  0  0
    4.6464    2.2086    1.0664 H   0  0  0  0  0  0  0  0  0  0  0  0
    3.9900    3.8664    1.2893 H   0  0  0  0  0  0  0  0  0  0  0  0
    3.8361    4.2364   -1.2538 H   0  0  0  0  0  0  0  0  0  0  0  0
    4.5440    2.6211   -1.5410 H   0  0  0  0  0  0  0  0  0  0  0  0
    2.9725    3.0493   -2.2880 H   0  0  0  0  0  0  0  0  0  0  0  0
   -5.3638   -1.5625   -1.9999 H   0  0  0  0  0  0  0  0  0  0  0  0
   -5.3999    0.0531   -1.2295 H   0  0  0  0  0  0  0  0  0  0  0  0
   -4.3585   -0.2344   -2.6634 H   0  0  0  0  0  0  0  0  0  0  0  0
   -3.3550   -2.0547    1.1731 H   0  0  0  0  0  0  0  0  0  0  0  0
   -4.7951   -0.9949    1.0337 H   0  0  0  0  0  0  0  0  0  0  0  0
   -4.7960   -2.6186    0.2610 H   0  0  0  0  0  0  0  0  0  0  0  0
   -1.9096   -2.5390   -0.8653 H   0  0  0  0  0  0  0  0  0  0  0  0
   -3.3405   -3.0581   -1.8058 H   0  0  0  0  0  0  0  0  0  0  0  0
   -2.2647   -1.7642   -2.4430 H   0  0  0  0  0  0  0  0  0  0  0  0
   -0.8369    3.7723    0.7335 H   0  0  0  0  0  0  0  0  0  0  0  0
   -2.4353    5.5537    0.0024 H   0  0  0  0  0  0  0  0  0  0  0  0
   -3.4076    4.3514   -0.8932 H   0  0  0  0  0  0  0  0  0  0  0  0
   -3.3077    4.2613    0.8936 H   0  0  0  0  0  0  0  0  0  0  0  0
   -0.3358    4.9645   -1.4057 H   0  0  0  0  0  0  0  0  0  0  0  0
    0.2052    3.2539   -1.5063 H   0  0  0  0  0  0  0  0  0  0  0  0
   -1.3032    3.7598   -2.3219 H   0  0  0  0  0  0  0  0  0  0  0  0
    0.5323    2.3637    1.6594 H   0  0  0  0  0  0  0  0  0  0  0  0
  1 27  1  0  0  0  0
  2  1  1  0  0  0  0
  3 27  1  0  0  0  0
  4  3  1  0  0  0  0
  5  6  1  0  0  0  0
  6 28  1  0  0  0  0
  6 29  1  0  0  0  0
  7 17  1  1  0  0  0
  7  1  1  0  0  0  0
  8  9  2  0  0  0  0
  8  7  1  0  0  0  0
  9  2  1  0  0  0  0
 10 24  1  6  0  0  0
 10  3  1  0  0  0  0
 11 12  2  0  0  0  0
 11 10  1  0  0  0  0
 12  4  1  0  0  0  0
 13  9  1  0  0  0  0
 13 15  1  0  0  0  0
 14 13  1  0  0  0  0
 14 35  1  0  0  0  0
 15 37  1  0  0  0  0
 15 38  1  0  0  0  0
 16 40  1  0  0  0  0
 16 13  1  0  0  0  0
 17 42  1  0  0  0  0
 17 18  1  0  0  0  0
 18 45  1  0  0  0  0
 18 43  1  0  0  0  0
 19 46  1  0  0  0  0
 19 17  1  0  0  0  0
 20 12  1  0  0  0  0
 20 22  1  0  0  0  0
 21 50  1  0  0  0  0
 21 20  1  0  0  0  0
 22 53  1  0  0  0  0
 22 52  1  0  0  0  0
 23 55  1  0  0  0  0
 23 20  1  0  0  0  0
 24 25  1  0  0  0  0
 24 58  1  0  0  0  0
 25 59  1  0  0  0  0
 25 61  1  0  0  0  0
 26 62  1  0  0  0  0
 26 24  1  0  0  0  0
 27 65  1  1  0  0  0
 27  5  1  0  0  0  0
 30  6  1  0  0  0  0
 31  8  1  0  0  0  0
 32 11  1  0  0  0  0
 33 14  1  0  0  0  0
 34 14  1  0  0  0  0
 36 15  1  0  0  0  0
 39 16  1  0  0  0  0
 41 16  1  0  0  0  0
 44 18  1  0  0  0  0
 47 19  1  0  0  0  0
 48 19  1  0  0  0  0
 49 21  1  0  0  0  0
 51 21  1  0  0  0  0
 54 22  1  0  0  0  0
 56 23  1  0  0  0  0
 57 23  1  0  0  0  0
 60 25  1  0  0  0  0
 63 26  1  0  0  0  0
 64 26  1  0  0  0  0
M  END
