2,3
q = 0.0, confidence = 0.98

 20 21  0  0  0  0  0  0  0  0999 V2000
    6.4423    0.0964   -0.0009 Br  0  0  0  0  0  0  0  0  0  0  0  0
    0.3500   -2.3276    0.0004 N   0  0  0  0  0  2  0  0  0  0  0  0
    1.7651   -0.0986    0.0001 N   0  0  0  0  0  2  0  0  0  0  0  0
    3.7929    1.2025   -0.0005 C   0  0  0  0  0  0  0  0  0  0  0  0
    4.2719    2.1905   -0.0008 H   0  0  0  0  0  0  0  0  0  0  0  0
    1.7103   -2.5004    0.0005 C   0  0  0  0  0  0  0  0  0  0  0  0
    2.4981   -1.2566    0.0002 C   0  0  0  0  0  0  0  0  0  0  0  0
    1.4297   -4.9090    0.0012 C   0  0  0  0  0  0  0  0  0  0  0  0
    1.8557   -5.9228    0.0015 H   0  0  0  0  0  0  0  0  0  0  0  0
    2.2694   -3.7917    0.0009 C   0  0  0  0  0  0  0  0  0  0  0  0
    3.3601   -3.9193    0.0010 H   0  0  0  0  0  0  0  0  0  0  0  0
    0.0380   -4.7121    0.0011 C   0  0  0  0  0  0  0  0  0  0  0  0
   -0.6608   -5.5603    0.0013 H   0  0  0  0  0  0  0  0  0  0  0  0
    3.9041   -1.2214   -0.0001 C   0  0  0  0  0  0  0  0  0  0  0  0
    4.4886   -2.1497   -0.0001 H   0  0  0  0  0  0  0  0  0  0  0  0
    4.5531    0.0182   -0.0005 C   0  0  0  0  0  0  0  0  0  0  0  0
    2.4028    1.0944   -0.0002 C   0  0  0  0  0  0  0  0  0  0  0  0
    1.7398    1.9757   -0.0003 H   0  0  0  0  0  0  0  0  0  0  0  0
   -0.4625   -3.4090    0.0007 C   0  0  0  0  0  0  0  0  0  0  0  0
   -1.5404   -3.1771    0.0007 H   0  0  0  0  0  0  0  0  0  0  0  0
  1 16  1  0  0  0  0
  2  6  1  0  0  0  0
  2 19  1  0  0  0  0
  3  7  1  0  0  0  0
  4 16  1  0  0  0  0
  4 17  2  0  0  0  0
  5  4  1  0  0  0  0
  6 10  1  0  0  0  0
  7  6  2  0  0  0  0
  8  9  1  0  0  0  0
 10 11  1  0  0  0  0
 10  8  2  0  0  0  0
 12  8  1  0  0  0  0
 12 13  1  0  0  0  0
 14 15  1  0  0  0  0
 14  7  1  0  0  0  0
 16 14  2  0  0  0  0
 17  3  1  0  0  0  0
 18 17  1  0  0  0  0
 19 12  2  0  0  0  0
 20 19  1  0  0  0  0
M  END
