3,5
q = 0.0, confidence = 0.982

 42 43  0  0  1  0  0  0  0  0999 V2000
   -0.3310   -1.6557   -0.9412 S   0  0  0  0  0  0  0  0  0  0  0  0
    0.8595   -1.3472    0.8371 S   0  0  0  0  0  0  0  0  0  0  0  0
   -1.4555    0.8130   -1.1989 N   0  0  0  0  0  2  0  0  0  0  0  0
   -2.9564   -0.7360   -0.5769 N   0  0  0  0  0  0  0  0  0  0  0  0
    1.5777    1.1628    0.0828 N   0  0  0  0  0  2  0  0  0  0  0  0
    3.2932   -0.2490   -0.0829 N   0  0  0  0  0  0  0  0  0  0  0  0
   -1.6241   -0.4790   -0.8600 C   0  0  1  0  0  3  0  0  0  0  0  0
   -2.6926    1.3918   -1.1611 C   0  0  0  0  0  0  0  0  0  0  0  0
   -2.8182    2.4641   -1.3555 H   0  0  0  0  0  0  0  0  0  0  0  0
   -3.6327    0.4456   -0.7831 C   0  0  0  0  0  0  0  0  0  0  0  0
   -4.7108    0.5371   -0.6408 H   0  0  0  0  0  0  0  0  0  0  0  0
   -3.5514   -1.9925   -0.0053 C   0  0  0  0  0  0  0  0  0  0  0  0
   -2.8139   -2.3163    1.3080 C   0  0  0  0  0  0  0  0  0  0  0  0
   -1.7848   -2.6690    1.1125 H   0  0  0  0  0  0  0  0  0  0  0  0
   -3.3557   -3.1165    1.8494 H   0  0  0  0  0  0  0  0  0  0  0  0
   -2.7477   -1.4127    1.9461 H   0  0  0  0  0  0  0  0  0  0  0  0
   -3.4286   -3.1268   -1.0366 C   0  0  0  0  0  0  0  0  0  0  0  0
   -3.9625   -2.8680   -1.9728 H   0  0  0  0  0  0  0  0  0  0  0  0
   -3.8789   -4.0511   -0.6238 H   0  0  0  0  0  0  0  0  0  0  0  0
   -2.3699   -3.3392   -1.2772 H   0  0  0  0  0  0  0  0  0  0  0  0
   -5.0358   -1.7487    0.3040 C   0  0  0  0  0  0  0  0  0  0  0  0
   -5.6186   -1.4999   -0.6050 H   0  0  0  0  0  0  0  0  0  0  0  0
   -5.1713   -0.9480    1.0570 H   0  0  0  0  0  0  0  0  0  0  0  0
   -5.4596   -2.6804    0.7243 H   0  0  0  0  0  0  0  0  0  0  0  0
    1.9641   -0.1077    0.2783 C   0  0  2  0  0  3  0  0  0  0  0  0
    2.6429    1.8559   -0.4140 C   0  0  0  0  0  0  0  0  0  0  0  0
    2.5407    2.9189   -0.6675 H   0  0  0  0  0  0  0  0  0  0  0  0
    3.7232    0.9941   -0.5094 C   0  0  0  0  0  0  0  0  0  0  0  0
    4.7489    1.1804   -0.8323 H   0  0  0  0  0  0  0  0  0  0  0  0
    4.1247   -1.4991   -0.0394 C   0  0  0  0  0  0  0  0  0  0  0  0
    5.5615   -1.1669   -0.4666 C   0  0  0  0  0  0  0  0  0  0  0  0
    6.0348   -0.4253    0.2067 H   0  0  0  0  0  0  0  0  0  0  0  0
    5.6109   -0.7952   -1.5089 H   0  0  0  0  0  0  0  0  0  0  0  0
    6.1624   -2.0947   -0.4165 H   0  0  0  0  0  0  0  0  0  0  0  0
    3.5279   -2.5247   -1.0199 C   0  0  0  0  0  0  0  0  0  0  0  0
    2.5043   -2.8150   -0.7195 H   0  0  0  0  0  0  0  0  0  0  0  0
    4.1586   -3.4352   -1.0328 H   0  0  0  0  0  0  0  0  0  0  0  0
    3.4911   -2.1086   -2.0459 H   0  0  0  0  0  0  0  0  0  0  0  0
    4.1412   -2.0346    1.4032 C   0  0  0  0  0  0  0  0  0  0  0  0
    4.5449   -1.2730    2.0994 H   0  0  0  0  0  0  0  0  0  0  0  0
    4.7862   -2.9334    1.4573 H   0  0  0  0  0  0  0  0  0  0  0  0
    3.1272   -2.3217    1.7405 H   0  0  0  0  0  0  0  0  0  0  0  0
  1  2  1  0  0  0  0
  3  8  1  0  0  0  0
  3  7  1  0  0  0  0
  4 12  1  0  0  0  0
  5 25  1  0  0  0  0
  6 30  1  0  0  0  0
  6 25  1  0  0  0  0
  7  1  1  6  0  0  0
  7  4  1  0  0  0  0
  8 10  2  0  0  0  0
  9  8  1  0  0  0  0
 10 11  1  0  0  0  0
 10  4  1  0  0  0  0
 12 21  1  0  0  0  0
 12 13  1  0  0  0  0
 13 15  1  0  0  0  0
 13 16  1  0  0  0  0
 14 13  1  0  0  0  0
 17 19  1  0  0  0  0
 17 12  1  0  0  0  0
 18 17  1  0  0  0  0
 20 17  1  0  0  0  0
 21 24  1  0  0  0  0
 21 23  1  0  0  0  0
 22 21  1  0  0  0  0
 25  2  1  6  0  0  0
 26  5  1  0  0  0  0
 27 26  1  0  0  0  0
 28 26  2  0  0  0  0
 28  6  1  0  0  0  0
 29 28  1  0  0  0  0
 30 39  1  0  0  0  0
 31 34  1  0  0  0  0
 31 30  1  0  0  0  0
 31 32  1  0  0  0  0
 33 31  1  0  0  0  0
 35 36  1  0  0  0  0
 35 30  1  0  0  0  0
 37 35  1  0  0  0  0
 38 35  1  0  0  0  0
 39 41  1  0  0  0  0
 39 42  1  0  0  0  0
 39 40  1  0  0  0  0
M  END
