13,20
q = -1.0

 44 46  0  0  1  0  0  0  0  0999 V2000
   -1.0436   -1.7730   -3.9267 F   0  0  0  0  0  0  0  0  0  0  0  0
   -1.1071   -2.9987   -2.1188 F   0  0  0  0  0  0  0  0  0  0  0  0
    2.1809    2.3032    1.0204 F   0  0  0  0  0  0  0  0  0  0  0  0
   -0.0976   -3.1858    1.4345 F   0  0  0  0  0  0  0  0  0  0  0  0
   -0.7809   -3.5086    3.4872 F   0  0  0  0  0  0  0  0  0  0  0  0
    0.8706   -2.1488    3.0982 F   0  0  0  0  0  0  0  0  0  0  0  0
   -2.7294   -3.1032   -3.5824 F   0  0  0  0  0  0  0  0  0  0  0  0
    2.0401    2.4300   -1.1464 F   0  0  0  0  0  0  0  0  0  0  0  0
    2.1190    4.2616    0.0414 F   0  0  0  0  0  0  0  0  0  0  0  0
   -2.4798    0.1701    1.6364 N   0  0  0  0  0  0  0  0  0  0  0  0
   -0.5712    1.9072    0.3182 N   0  0  0  0  0  0  0  0  0  0  0  0
   -3.1320    0.3311   -0.7695 N   0  0  0  0  0  0  0  0  0  0  0  0
   -1.4892   -0.7205    1.3888 N   0  0  0  0  0  2  0  0  0  0  0  0
   -3.3572    4.3044    0.1469 C   0  0  0  0  0  0  0  0  0  0  0  0
   -3.9856    3.9739   -0.7065 H   0  0  0  0  0  0  0  0  0  0  0  0
   -3.2165    5.3971    0.0542 H   0  0  0  0  0  0  0  0  0  0  0  0
   -3.9362    4.1096    1.0726 H   0  0  0  0  0  0  0  0  0  0  0  0
   -1.8721    2.2658    0.3497 N   0  0  0  0  0  0  0  0  0  0  0  0
    1.6119    3.0069    0.0095 C   0  0  0  0  0  0  0  0  0  0  0  0
   -2.1665   -0.5294   -1.1742 N   0  0  0  0  0  2  0  0  0  0  0  0
   -0.3251   -2.5759    2.6155 C   0  0  0  0  0  0  0  0  0  0  0  0
   -2.6285   -1.1880   -2.2545 C   0  0  2  0  0  3  0  0  0  0  0  0
    0.1166    3.0358    0.1112 C   0  0  0  0  0  0  0  0  0  0  0  0
   -0.7470    4.1531    0.0037 C   0  0  0  0  0  0  0  0  0  0  0  0
   -0.4780    5.2020   -0.1542 H   0  0  0  0  0  0  0  0  0  0  0  0
   -2.9470    0.0162    2.9124 C   0  0  1  0  0  3  0  0  0  0  0  0
   -1.3263   -1.4620    2.5014 C   0  0  0  0  0  0  0  0  0  0  0  0
   -4.0374    0.8585    3.4871 C   0  0  0  0  0  0  0  0  0  0  0  0
   -3.7725    1.9350    3.4711 H   0  0  0  0  0  0  0  0  0  0  0  0
   -4.2234    0.5651    4.5366 H   0  0  0  0  0  0  0  0  0  0  0  0
   -4.9851    0.7452    2.9225 H   0  0  0  0  0  0  0  0  0  0  0  0
   -3.9225   -0.7274   -2.5660 C   0  0  0  0  0  0  0  0  0  0  0  0
   -4.5675   -1.0715   -3.3793 H   0  0  0  0  0  0  0  0  0  0  0  0
   -2.2239   -1.0284    3.4974 C   0  0  0  0  0  0  0  0  0  0  0  0
   -2.3430   -1.4370    4.5049 H   0  0  0  0  0  0  0  0  0  0  0  0
   -5.4568    1.0511   -1.4186 C   0  0  0  0  0  0  0  0  0  0  0  0
   -5.9447    0.8477   -0.4439 H   0  0  0  0  0  0  0  0  0  0  0  0
   -6.1775    0.8125   -2.2221 H   0  0  0  0  0  0  0  0  0  0  0  0
   -5.2463    2.1389   -1.4578 H   0  0  0  0  0  0  0  0  0  0  0  0
   -1.8543   -2.2632   -2.9698 C   0  0  0  0  0  0  0  0  0  0  0  0
   -4.2168    0.2389   -1.5976 C   0  0  0  0  0  0  0  0  0  0  0  0
   -2.0289    3.6198    0.1623 C   0  0  0  0  0  0  0  0  0  0  0  0
   -2.9376    1.1673    0.5340 B   0  0  2  0  0  0  0  0  0  0  0  0
   -4.0049    1.6582    0.8437 H   0  0  0  0  0  0  0  0  0  0  0  0
  1 40  1  0  0  0  0
  4 21  1  0  0  0  0
  7 40  1  0  0  0  0
  8 19  1  0  0  0  0
 10 26  1  0  0  0  0
 11 18  1  0  0  0  0
 12 43  1  0  0  0  0
 13 10  1  0  0  0  0
 13 27  1  0  0  0  0
 14 42  1  0  0  0  0
 14 17  1  0  0  0  0
 15 14  1  0  0  0  0
 16 14  1  0  0  0  0
 18 43  1  0  0  0  0
 19  9  1  0  0  0  0
 19 23  1  0  0  0  0
 19  3  1  0  0  0  0
 20 12  1  0  0  0  0
 21  6  1  0  0  0  0
 21  5  1  0  0  0  0
 22 40  1  1  0  0  0
 22 20  1  0  0  0  0
 23 11  2  0  0  0  0
 24 23  1  0  0  0  0
 24 42  2  0  0  0  0
 25 24  1  0  0  0  0
 26 28  1  6  0  0  0
 26 34  1  0  0  0  0
 27 21  1  0  0  0  0
 27 34  2  0  0  0  0
 28 30  1  0  0  0  0
 29 28  1  0  0  0  0
 31 28  1  0  0  0  0
 32 22  1  0  0  0  0
 32 41  2  0  0  0  0
 33 32  1  0  0  0  0
 34 35  1  0  0  0  0
 36 37  1  0  0  0  0
 38 36  1  0  0  0  0
 39 36  1  0  0  0  0
 40  2  1  0  0  0  0
 41 36  1  0  0  0  0
 41 12  1  0  0  0  0
 42 18  1  0  0  0  0
 43 44  1  1  0  0  0
 43 10  1  0  0  0  0
M  END
