7,15
q = 0.0, confidence = 0.996

 32 34  0  0  1  0  0  0  0  0999 V2000
    1.9170   -0.0000   -0.3086 C   0  0  1  0  0  0  0  0  0  0  0  0
    3.4436   -0.0000   -0.4239 C   0  0  0  0  0  0  0  0  0  0  0  0
    3.8416    0.8893    0.0965 H   0  0  0  0  0  0  0  0  0  0  0  0
    3.7881   -0.0002   -1.4764 H   0  0  0  0  0  0  0  0  0  0  0  0
    3.8416   -0.8891    0.0968 H   0  0  0  0  0  0  0  0  0  0  0  0
    1.3672    1.1926   -0.9815 N   0  0  0  0  0  0  0  0  0  0  0  0
    0.0315    1.4198   -0.9305 N   0  0  0  0  0  2  0  0  0  0  0  0
   -0.1917    2.6108   -1.5050 C   0  0  0  0  0  3  0  0  0  0  0  0
   -1.2238    2.9794   -1.5447 H   0  0  0  0  0  0  0  0  0  0  0  0
    1.0332    3.1708   -1.9350 C   0  0  0  0  0  0  0  0  0  0  0  0
    1.1893    4.1304   -2.4372 H   0  0  0  0  0  0  0  0  0  0  0  0
    2.0088    2.2425   -1.5853 C   0  0  0  0  0  0  0  0  0  0  0  0
    3.0938    2.2600   -1.7150 H   0  0  0  0  0  0  0  0  0  0  0  0
    1.3673   -1.1930   -0.9810 N   0  0  0  0  0  0  0  0  0  0  0  0
    0.0316   -1.4202   -0.9299 N   0  0  0  0  0  2  0  0  0  0  0  0
   -0.1916   -2.6114   -1.5041 C   0  0  0  0  0  3  0  0  0  0  0  0
   -1.2237   -2.9800   -1.5436 H   0  0  0  0  0  0  0  0  0  0  0  0
    1.0333   -3.1714   -1.9340 C   0  0  0  0  0  0  0  0  0  0  0  0
    1.1894   -4.1311   -2.4359 H   0  0  0  0  0  0  0  0  0  0  0  0
    2.0089   -2.2430   -1.5845 C   0  0  0  0  0  0  0  0  0  0  0  0
    3.0939   -2.2605   -1.7142 H   0  0  0  0  0  0  0  0  0  0  0  0
    1.5126    0.0003    1.1760 C   0  0  0  0  0  0  0  0  0  0  0  0
    1.3741    1.2164    1.8686 C   0  0  0  0  0  0  0  0  0  0  0  0
    1.4659    2.1733    1.3338 H   0  0  0  0  0  0  0  0  0  0  0  0
    1.0730    1.2142    3.2371 C   0  0  0  0  0  0  0  0  0  0  0  0
    0.9399    2.1702    3.7644 H   0  0  0  0  0  0  0  0  0  0  0  0
    0.9177    0.0008    3.9239 C   0  0  0  0  0  0  0  0  0  0  0  0
    0.6631    0.0010    4.9941 H   0  0  0  0  0  0  0  0  0  0  0  0
    1.0732   -1.2129    3.2376 C   0  0  0  0  0  0  0  0  0  0  0  0
    0.9403   -2.1687    3.7653 H   0  0  0  0  0  0  0  0  0  0  0  0
    1.3744   -1.2156    1.8691 C   0  0  0  0  0  0  0  0  0  0  0  0
    1.4663   -2.1727    1.3347 H   0  0  0  0  0  0  0  0  0  0  0  0
  1  2  1  6  0  0  0
  1 22  1  0  0  0  0
  2  3  1  0  0  0  0
  2  5  1  0  0  0  0
  4  2  1  0  0  0  0
  6  7  1  0  0  0  0
  6  1  1  0  0  0  0
  8  7  1  0  0  0  0
  9  8  1  0  0  0  0
 10 12  2  0  0  0  0
 10  8  1  0  0  0  0
 11 10  1  0  0  0  0
 12  6  1  0  0  0  0
 13 12  1  0  0  0  0
 14 15  1  0  0  0  0
 14  1  1  0  0  0  0
 16 15  1  0  0  0  0
 17 16  1  0  0  0  0
 18 20  2  0  0  0  0
 18 16  1  0  0  0  0
 19 18  1  0  0  0  0
 20 14  1  0  0  0  0
 21 20  1  0  0  0  0
 22 23  2  0  0  0  0
 22 31  1  0  0  0  0
 23 25  1  0  0  0  0
 24 23  1  0  0  0  0
 25 26  1  0  0  0  0
 25 27  2  0  0  0  0
 27 28  1  0  0  0  0
 29 30  1  0  0  0  0
 29 27  1  0  0  0  0
 31 29  2  0  0  0  0
 32 31  1  0  0  0  0
M  END
