1,2
q = 0.0, confidence = 1.0

 42 44  0  0  1  0  0  0  0  0999 V2000
    0.5192   -1.5406   -0.0931 N   0  0  0  0  0  0  0  0  0  0  0  0
    0.5232    1.5394    0.0931 N   0  0  0  0  0  0  0  0  0  0  0  0
    1.6746   -0.6473   -0.4321 C   0  0  2  0  0  0  0  0  0  0  0  0
    3.0130   -1.4211   -0.3780 C   0  0  0  0  0  0  0  0  0  0  0  0
    4.2537   -0.5450   -0.5399 C   0  0  0  0  0  0  0  0  0  0  0  0
    4.2550    0.5342    0.5401 C   0  0  0  0  0  0  0  0  0  0  0  0
    3.0167    1.4135    0.3782 C   0  0  0  0  0  0  0  0  0  0  0  0
    1.6762    0.6432    0.4322 C   0  0  1  0  0  0  0  0  0  0  0  0
    0.2451   -2.5433   -1.1724 C   0  0  0  0  0  0  0  0  0  0  0  0
   -0.3120   -3.7603   -0.4422 C   0  0  0  0  0  0  0  0  0  0  0  0
    0.5499   -3.7862    0.8258 C   0  0  0  0  0  0  0  0  0  0  0  0
    0.6309   -2.3023    1.1987 C   0  0  0  0  0  0  0  0  0  0  0  0
    0.6371    2.3006   -1.1988 C   0  0  0  0  0  0  0  0  0  0  0  0
    0.5597    3.7847   -0.8262 C   0  0  0  0  0  0  0  0  0  0  0  0
   -0.3024    3.7612    0.4417 C   0  0  0  0  0  0  0  0  0  0  0  0
    0.2516    2.5430    1.1722 C   0  0  0  0  0  0  0  0  0  0  0  0
    1.4897   -0.3362   -1.4824 H   0  0  0  0  0  0  0  0  0  0  0  0
    3.0967   -1.9397    0.6004 H   0  0  0  0  0  0  0  0  0  0  0  0
    2.9992   -2.2181   -1.1480 H   0  0  0  0  0  0  0  0  0  0  0  0
    4.2618   -0.0658   -1.5443 H   0  0  0  0  0  0  0  0  0  0  0  0
    5.1657   -1.1744   -0.4837 H   0  0  0  0  0  0  0  0  0  0  0  0
    5.1687    1.1613    0.4839 H   0  0  0  0  0  0  0  0  0  0  0  0
    4.2619    0.0549    1.5445 H   0  0  0  0  0  0  0  0  0  0  0  0
    3.1017    1.9319   -0.6002 H   0  0  0  0  0  0  0  0  0  0  0  0
    3.0048    2.2105    1.1482 H   0  0  0  0  0  0  0  0  0  0  0  0
    1.4905    0.3325    1.4825 H   0  0  0  0  0  0  0  0  0  0  0  0
    1.1913   -2.8121   -1.6916 H   0  0  0  0  0  0  0  0  0  0  0  0
   -0.4313   -2.0928   -1.9229 H   0  0  0  0  0  0  0  0  0  0  0  0
   -0.2430   -4.6830   -1.0505 H   0  0  0  0  0  0  0  0  0  0  0  0
   -1.3773   -3.5888   -0.1862 H   0  0  0  0  0  0  0  0  0  0  0  0
    0.1238   -4.3980    1.6447 H   0  0  0  0  0  0  0  0  0  0  0  0
    1.5585   -4.1903    0.5916 H   0  0  0  0  0  0  0  0  0  0  0  0
    1.5584   -2.0351    1.7408 H   0  0  0  0  0  0  0  0  0  0  0  0
   -0.2066   -1.9932    1.8529 H   0  0  0  0  0  0  0  0  0  0  0  0
   -0.2010    1.9933   -1.8532 H   0  0  0  0  0  0  0  0  0  0  0  0
    1.5640    2.0310   -1.7407 H   0  0  0  0  0  0  0  0  0  0  0  0
    1.5692    4.1864   -0.5920 H   0  0  0  0  0  0  0  0  0  0  0  0
    0.1351    4.3975   -1.6453 H   0  0  0  0  0  0  0  0  0  0  0  0
   -0.2311    4.6838    1.0499 H   0  0  0  0  0  0  0  0  0  0  0  0
   -1.3681    3.5924    0.1857 H   0  0  0  0  0  0  0  0  0  0  0  0
   -0.4259    2.0943    1.9228 H   0  0  0  0  0  0  0  0  0  0  0  0
    1.1985    2.8095    1.6914 H   0  0  0  0  0  0  0  0  0  0  0  0
  1 12  1  0  0  0  0
  2  8  1  0  0  0  0
  2 16  1  0  0  0  0
  3 17  1  6  0  0  0
  3  4  1  0  0  0  0
  3  1  1  0  0  0  0
  3  8  1  0  0  0  0
  4 18  1  0  0  0  0
  5 21  1  0  0  0  0
  5  4  1  0  0  0  0
  5  6  1  0  0  0  0
  6 23  1  0  0  0  0
  7  8  1  0  0  0  0
  7  6  1  0  0  0  0
  7 25  1  0  0  0  0
  8 26  1  1  0  0  0
  9 10  1  0  0  0  0
  9  1  1  0  0  0  0
 10 30  1  0  0  0  0
 10 11  1  0  0  0  0
 11 12  1  0  0  0  0
 11 31  1  0  0  0  0
 12 33  1  0  0  0  0
 12 34  1  0  0  0  0
 13 14  1  0  0  0  0
 13  2  1  0  0  0  0
 14 37  1  0  0  0  0
 14 15  1  0  0  0  0
 15 39  1  0  0  0  0
 15 16  1  0  0  0  0
 16 42  1  0  0  0  0
 16 41  1  0  0  0  0
 19  4  1  0  0  0  0
 20  5  1  0  0  0  0
 22  6  1  0  0  0  0
 24  7  1  0  0  0  0
 27  9  1  0  0  0  0
 28  9  1  0  0  0  0
 29 10  1  0  0  0  0
 32 11  1  0  0  0  0
 35 13  1  0  0  0  0
 36 13  1  0  0  0  0
 38 14  1  0  0  0  0
 40 15  1  0  0  0  0
M  END
