73,74
q = -1.0

 76 78  0  0  0  0  0  0  0  0999 V2000
    0.2719    0.3506   -0.1031 C   0  0  0  0  0  0  0  0  0  0  0  0
    0.8187    2.7094    0.2598 C   0  0  0  0  0  0  0  0  0  0  0  0
    1.8465    2.3737    0.0142 H   0  0  0  0  0  0  0  0  0  0  0  0
    0.7825    3.0306    1.7598 C   0  0  0  0  0  0  0  0  0  0  0  0
   -0.2374    3.3453    2.0672 H   0  0  0  0  0  0  0  0  0  0  0  0
    1.4885    3.8483    2.0111 H   0  0  0  0  0  0  0  0  0  0  0  0
    1.0682    2.1401    2.3556 H   0  0  0  0  0  0  0  0  0  0  0  0
    0.4987    3.9313   -0.6038 C   0  0  0  0  0  0  0  0  0  0  0  0
    0.5736    3.6807   -1.6811 H   0  0  0  0  0  0  0  0  0  0  0  0
    1.2025    4.7611   -0.3918 H   0  0  0  0  0  0  0  0  0  0  0  0
   -0.5317    4.2952   -0.4068 H   0  0  0  0  0  0  0  0  0  0  0  0
   -3.8246   -0.5642   -0.5195 C   0  0  0  0  0  0  0  0  0  0  0  0
   -3.7550   -1.6556   -0.7466 H   0  0  0  0  0  0  0  0  0  0  0  0
   -4.4711   -0.4102    0.8643 C   0  0  0  0  0  0  0  0  0  0  0  0
   -3.8636   -0.9076    1.6459 H   0  0  0  0  0  0  0  0  0  0  0  0
   -5.4909   -0.8464    0.8869 H   0  0  0  0  0  0  0  0  0  0  0  0
   -4.5493    0.6667    1.1240 H   0  0  0  0  0  0  0  0  0  0  0  0
   -4.6801    0.0837   -1.6125 C   0  0  0  0  0  0  0  0  0  0  0  0
   -4.7441    1.1787   -1.4436 H   0  0  0  0  0  0  0  0  0  0  0  0
   -5.7097   -0.3276   -1.6149 H   0  0  0  0  0  0  0  0  0  0  0  0
   -4.2367   -0.0782   -2.6153 H   0  0  0  0  0  0  0  0  0  0  0  0
   -0.7317   -2.0377   -1.5671 C   0  0  0  0  0  0  0  0  0  0  0  0
    0.2647   -3.0225   -1.4002 C   0  0  0  0  0  0  0  0  0  0  0  0
    0.7805   -3.1240   -0.4352 H   0  0  0  0  0  0  0  0  0  0  0  0
    0.6106   -3.8479   -2.4793 C   0  0  0  0  0  0  0  0  0  0  0  0
    1.3930   -4.6110   -2.3525 H   0  0  0  0  0  0  0  0  0  0  0  0
   -0.0283   -3.6931   -3.7212 C   0  0  0  0  0  0  0  0  0  0  0  0
    0.2496   -4.3420   -4.5657 H   0  0  0  0  0  0  0  0  0  0  0  0
   -1.0137   -2.7075   -3.8892 C   0  0  0  0  0  0  0  0  0  0  0  0
   -1.5084   -2.5804   -4.8640 H   0  0  0  0  0  0  0  0  0  0  0  0
   -1.3638   -1.8761   -2.8150 C   0  0  0  0  0  0  0  0  0  0  0  0
   -2.1178   -1.0829   -2.9331 H   0  0  0  0  0  0  0  0  0  0  0  0
   -1.1629   -1.7658    1.3314 C   0  0  0  0  0  0  0  0  0  0  0  0
   -0.9872   -1.0146    2.5135 C   0  0  0  0  0  0  0  0  0  0  0  0
   -0.7798    0.0651    2.4478 H   0  0  0  0  0  0  0  0  0  0  0  0
   -1.0787   -1.6404    3.7627 C   0  0  0  0  0  0  0  0  0  0  0  0
   -0.9259   -1.0533    4.6808 H   0  0  0  0  0  0  0  0  0  0  0  0
   -1.3627   -3.0151    3.8418 C   0  0  0  0  0  0  0  0  0  0  0  0
   -1.4332   -3.5062    4.8241 H   0  0  0  0  0  0  0  0  0  0  0  0
   -1.5615   -3.7598    2.6692 C   0  0  0  0  0  0  0  0  0  0  0  0
   -1.7921   -4.8341    2.7299 H   0  0  0  0  0  0  0  0  0  0  0  0
   -1.4635   -3.1386    1.4137 C   0  0  0  0  0  0  0  0  0  0  0  0
   -1.6158   -3.7263    0.4960 H   0  0  0  0  0  0  0  0  0  0  0  0
    2.7009    0.1697    0.0563 C   0  0  0  0  0  0  0  0  0  0  0  0
    3.3498    0.7340   -1.0840 C   0  0  0  0  0  0  0  0  0  0  0  0
    4.7009    1.1055   -0.9697 C   0  0  0  0  0  0  0  0  0  0  0  0
    5.2136    1.5473   -1.8369 H   0  0  0  0  0  0  0  0  0  0  0  0
    5.4071    0.9321    0.2289 C   0  0  0  0  0  0  0  0  0  0  0  0
    6.4629    1.2352    0.2967 H   0  0  0  0  0  0  0  0  0  0  0  0
    4.7601    0.3775    1.3423 C   0  0  0  0  0  0  0  0  0  0  0  0
    5.3166    0.2525    2.2831 H   0  0  0  0  0  0  0  0  0  0  0  0
    3.4127   -0.0148    1.2793 C   0  0  0  0  0  0  0  0  0  0  0  0
    2.5765    0.8808   -2.3898 C   0  0  0  0  0  0  0  0  0  0  0  0
    1.5328    1.1548   -2.1239 H   0  0  0  0  0  0  0  0  0  0  0  0
    2.5088   -0.4690   -3.1291 C   0  0  0  0  0  0  0  0  0  0  0  0
    3.5237   -0.7929   -3.4409 H   0  0  0  0  0  0  0  0  0  0  0  0
    1.8751   -0.3959   -4.0376 H   0  0  0  0  0  0  0  0  0  0  0  0
    2.0808   -1.2542   -2.4778 H   0  0  0  0  0  0  0  0  0  0  0  0
    3.1081    1.9886   -3.3064 C   0  0  0  0  0  0  0  0  0  0  0  0
    3.1773    2.9607   -2.7769 H   0  0  0  0  0  0  0  0  0  0  0  0
    2.4363    2.1203   -4.1789 H   0  0  0  0  0  0  0  0  0  0  0  0
    4.1148    1.7487   -3.7072 H   0  0  0  0  0  0  0  0  0  0  0  0
    2.6855   -0.6462    2.4598 C   0  0  0  0  0  0  0  0  0  0  0  0
    1.6461   -0.2544    2.4313 H   0  0  0  0  0  0  0  0  0  0  0  0
    3.2756   -0.2902    3.8276 C   0  0  0  0  0  0  0  0  0  0  0  0
    4.2839   -0.7316    3.9718 H   0  0  0  0  0  0  0  0  0  0  0  0
    2.6309   -0.6865    4.6387 H   0  0  0  0  0  0  0  0  0  0  0  0
    3.3648    0.8069    3.9632 H   0  0  0  0  0  0  0  0  0  0  0  0
    2.5786   -2.1721    2.2797 C   0  0  0  0  0  0  0  0  0  0  0  0
    3.5837   -2.6414    2.3125 H   0  0  0  0  0  0  0  0  0  0  0  0
    2.1134   -2.4098    1.3036 H   0  0  0  0  0  0  0  0  0  0  0  0
    1.9537   -2.6249    3.0776 H   0  0  0  0  0  0  0  0  0  0  0  0
   -0.1340    1.6280   -0.0389 N   0  0  0  0  0  2  0  0  0  0  0  0
   -2.4759    0.0318   -0.5443 N   0  0  0  0  0  2  0  0  0  0  0  0
    1.3923   -0.3093   -0.0309 N   0  0  0  0  0  0  0  0  0  0  0  0
   -1.1355   -0.8487   -0.2500 P   0  0  0  0  0  4  0  0  0  0  0  0
  1 73  1  0  0  0  0
  1 75  2  0  0  0  0
  2  4  1  0  0  0  0
  3  2  1  0  0  0  0
  4  6  1  0  0  0  0
  4  5  1  0  0  0  0
  4  7  1  0  0  0  0
  8 11  1  0  0  0  0
  8 10  1  0  0  0  0
  8  2  1  0  0  0  0
  9  8  1  0  0  0  0
 12 14  1  0  0  0  0
 13 12  1  0  0  0  0
 14 16  1  0  0  0  0
 14 17  1  0  0  0  0
 14 15  1  0  0  0  0
 18 19  1  0  0  0  0
 18 12  1  0  0  0  0
 20 18  1  0  0  0  0
 21 18  1  0  0  0  0
 22 23  1  0  0  0  0
 22 76  1  0  0  0  0
 23 24  1  0  0  0  0
 25 26  1  0  0  0  0
 25 23  2  0  0  0  0
 27 25  1  0  0  0  0
 28 27  1  0  0  0  0
 29 27  2  0  0  0  0
 29 31  1  0  0  0  0
 30 29  1  0  0  0  0
 31 22  2  0  0  0  0
 32 31  1  0  0  0  0
 33 42  2  0  0  0  0
 33 34  1  0  0  0  0
 34 36  2  0  0  0  0
 35 34  1  0  0  0  0
 36 38  1  0  0  0  0
 36 37  1  0  0  0  0
 38 39  1  0  0  0  0
 40 41  1  0  0  0  0
 40 38  2  0  0  0  0
 42 40  1  0  0  0  0
 43 42  1  0  0  0  0
 44 52  1  0  0  0  0
 45 46  1  0  0  0  0
 45 44  2  0  0  0  0
 46 48  2  0  0  0  0
 47 46  1  0  0  0  0
 48 49  1  0  0  0  0
 48 50  1  0  0  0  0
 50 51  1  0  0  0  0
 52 50  2  0  0  0  0
 52 63  1  0  0  0  0
 53 54  1  0  0  0  0
 53 45  1  0  0  0  0
 55 58  1  0  0  0  0
 55 53  1  0  0  0  0
 56 55  1  0  0  0  0
 57 55  1  0  0  0  0
 59 60  1  0  0  0  0
 59 53  1  0  0  0  0
 61 59  1  0  0  0  0
 62 59  1  0  0  0  0
 63 65  1  0  0  0  0
 64 63  1  0  0  0  0
 65 68  1  0  0  0  0
 65 66  1  0  0  0  0
 65 67  1  0  0  0  0
 69 70  1  0  0  0  0
 69 63  1  0  0  0  0
 69 72  1  0  0  0  0
 71 69  1  0  0  0  0
 73  2  1  0  0  0  0
 74 12  1  0  0  0  0
 74 76  1  0  0  0  0
 75 44  1  0  0  0  0
 76  1  1  0  0  0  0
 76 33  1  0  0  0  0
M  END
