11,14
q = 0.0, confidence = 0.996

 41 45  0  0  1  0  0  0  0  0999 V2000
    4.9365    0.2374    0.0006 C   0  0  0  0  0  0  0  0  0  0  0  0
    6.0350    0.3207    0.0006 H   0  0  0  0  0  0  0  0  0  0  0  0
    0.0588   -0.6959    1.2216 N   0  0  0  0  0  0  0  0  0  0  0  0
    0.7091   -1.1737    2.3261 C   0  0  0  0  0  3  0  0  0  0  0  0
    1.7994   -1.2324    2.3637 H   0  0  0  0  0  0  0  0  0  0  0  0
   -0.2665   -1.5144   -3.2586 C   0  0  0  0  0  0  0  0  0  0  0  0
   -0.1035   -1.9355   -4.2553 H   0  0  0  0  0  0  0  0  0  0  0  0
    2.1083    0.0235    0.0004 C   0  0  0  0  0  0  0  0  0  0  0  0
    0.0590   -0.6968   -1.2208 N   0  0  0  0  0  0  0  0  0  0  0  0
    2.9035   -1.1615   -0.0007 C   0  0  0  0  0  0  0  0  0  0  0  0
   -1.2802   -0.6896   -1.4179 N   0  0  0  0  0  2  0  0  0  0  0  0
   -1.4958   -1.1987   -2.6368 C   0  0  0  0  0  3  0  0  0  0  0  0
   -2.5271   -1.3092   -2.9938 H   0  0  0  0  0  0  0  0  0  0  0  0
   -1.2802   -0.6850    1.4204 N   0  0  0  0  0  2  0  0  0  0  0  0
    0.5981   -0.0608    0.0003 C   0  0  1  0  0  0  0  0  0  0  0  0
    0.1385    0.9516   -0.0003 H   0  0  0  0  0  0  0  0  0  0  0  0
    4.1655    1.4113    0.0020 C   0  0  0  0  0  0  0  0  0  0  0  0
    2.7124    1.3162    0.0019 C   0  0  0  0  0  0  0  0  0  0  0  0
   -0.2667   -1.5168    3.2581 C   0  0  0  0  0  0  0  0  0  0  0  0
   -0.1038   -1.9403    4.2538 H   0  0  0  0  0  0  0  0  0  0  0  0
    4.3519   -1.0405   -0.0007 C   0  0  0  0  0  0  0  0  0  0  0  0
    0.7095   -1.1700   -2.3272 C   0  0  0  0  0  0  0  0  0  0  0  0
    1.7999   -1.2255   -2.3662 H   0  0  0  0  0  0  0  0  0  0  0  0
   -1.4958   -1.1960    2.6385 C   0  0  0  0  0  0  0  0  0  0  0  0
   -2.5271   -1.3041    2.9964 H   0  0  0  0  0  0  0  0  0  0  0  0
    4.5929   -3.4786   -0.0029 C   0  0  0  0  0  0  0  0  0  0  0  0
    5.2251   -4.3787   -0.0038 H   0  0  0  0  0  0  0  0  0  0  0  0
    4.7933    2.6996    0.0034 C   0  0  0  0  0  0  0  0  0  0  0  0
    5.8933    2.7422    0.0034 H   0  0  0  0  0  0  0  0  0  0  0  0
    5.1631   -2.2225   -0.0019 C   0  0  0  0  0  0  0  0  0  0  0  0
    6.2573   -2.1012   -0.0018 H   0  0  0  0  0  0  0  0  0  0  0  0
    2.3564   -2.4921   -0.0018 C   0  0  0  0  0  0  0  0  0  0  0  0
    1.2686   -2.6360   -0.0017 H   0  0  0  0  0  0  0  0  0  0  0  0
    4.0406    3.8551    0.0047 C   0  0  0  0  0  0  0  0  0  0  0  0
    4.5309    4.8400    0.0058 H   0  0  0  0  0  0  0  0  0  0  0  0
    2.6173    3.7695    0.0047 C   0  0  0  0  0  0  0  0  0  0  0  0
    2.0151    4.6905    0.0057 H   0  0  0  0  0  0  0  0  0  0  0  0
    3.1726   -3.6076   -0.0028 C   0  0  0  0  0  0  0  0  0  0  0  0
    2.7172   -4.6092   -0.0036 H   0  0  0  0  0  0  0  0  0  0  0  0
    1.9716    2.5473    0.0033 C   0  0  0  0  0  0  0  0  0  0  0  0
    0.8702    2.5497    0.0032 H   0  0  0  0  0  0  0  0  0  0  0  0
  1 17  1  0  0  0  0
  2  1  1  0  0  0  0
  3 14  1  0  0  0  0
  3  4  1  0  0  0  0
  4  5  1  0  0  0  0
  4 19  1  0  0  0  0
  6 12  1  0  0  0  0
  6 22  2  0  0  0  0
  7  6  1  0  0  0  0
  8 18  1  0  0  0  0
  9 15  1  0  0  0  0
 10 21  1  0  0  0  0
 10  8  2  0  0  0  0
 11  9  1  0  0  0  0
 12 11  1  0  0  0  0
 13 12  1  0  0  0  0
 14 24  1  0  0  0  0
 15 16  1  6  0  0  0
 15  8  1  0  0  0  0
 15  3  1  0  0  0  0
 17 28  1  0  0  0  0
 18 17  2  0  0  0  0
 18 40  1  0  0  0  0
 19 20  1  0  0  0  0
 21  1  2  0  0  0  0
 22  9  1  0  0  0  0
 23 22  1  0  0  0  0
 24 25  1  0  0  0  0
 24 19  2  0  0  0  0
 26 38  1  0  0  0  0
 26 30  2  0  0  0  0
 27 26  1  0  0  0  0
 28 29  1  0  0  0  0
 28 34  2  0  0  0  0
 30 31  1  0  0  0  0
 30 21  1  0  0  0  0
 32 33  1  0  0  0  0
 32 10  1  0  0  0  0
 34 35  1  0  0  0  0
 36 34  1  0  0  0  0
 36 37  1  0  0  0  0
 38 32  2  0  0  0  0
 39 38  1  0  0  0  0
 40 36  2  0  0  0  0
 41 40  1  0  0  0  0
M  END
