1,4
q = -1.0

 25 26  0  0  0  0  0  0  0  0999 V2000
    1.9917   -0.0316   -0.2001 N   0  0  0  0  0  2  0  0  0  0  0  0
    2.9605    0.8775   -0.3207 N   0  0  0  0  0  0  0  0  0  0  0  0
    3.8912   -1.2015   -0.3616 N   0  0  0  0  0  2  0  0  0  0  0  0
    0.3324   -2.0279    0.0190 N   0  0  0  0  0  2  0  0  0  0  0  0
   -0.6283   -2.9651    0.1402 C   0  0  0  0  0  0  0  0  0  0  0  0
   -1.6634   -2.5813    0.2348 H   0  0  0  0  0  0  0  0  0  0  0  0
   -0.3123   -4.3295    0.1437 C   0  0  0  0  0  0  0  0  0  0  0  0
   -1.1198   -5.0677    0.2442 H   0  0  0  0  0  0  0  0  0  0  0  0
    1.0314   -4.7222    0.0183 C   0  0  0  0  0  0  0  0  0  0  0  0
    1.3022   -5.7889    0.0186 H   0  0  0  0  0  0  0  0  0  0  0  0
    2.0246   -3.7461   -0.1071 C   0  0  0  0  0  0  0  0  0  0  0  0
    3.0910   -3.9901   -0.2083 H   0  0  0  0  0  0  0  0  0  0  0  0
    1.6498   -2.3918   -0.1044 C   0  0  0  0  0  0  0  0  0  0  0  0
    2.5576   -1.2708   -0.2242 C   0  0  0  0  0  0  0  0  0  0  0  0
    4.1002    0.1415   -0.4195 C   0  0  0  0  0  0  0  0  0  0  0  0
    5.4558    0.7621   -0.5495 C   0  0  0  0  0  0  0  0  0  0  0  0
    5.9140    0.4308   -1.5077 H   0  0  0  0  0  0  0  0  0  0  0  0
    5.3299    1.8619   -0.6165 H   0  0  0  0  0  0  0  0  0  0  0  0
    6.3991    0.3928    0.6075 C   0  0  0  0  0  0  0  0  0  0  0  0
    6.4402   -0.7147    0.6803 H   0  0  0  0  0  0  0  0  0  0  0  0
    5.9515    0.7443    1.5625 H   0  0  0  0  0  0  0  0  0  0  0  0
    7.8040    0.9697    0.4412 C   0  0  0  0  0  0  0  0  0  0  0  0
    8.4644    0.6876    1.2858 H   0  0  0  0  0  0  0  0  0  0  0  0
    8.2813    0.6051   -0.4928 H   0  0  0  0  0  0  0  0  0  0  0  0
    7.7843    2.0786    0.3881 H   0  0  0  0  0  0  0  0  0  0  0  0
  2  1  1  0  0  0  0
  3 14  1  0  0  0  0
  4  5  1  0  0  0  0
  5  7  2  0  0  0  0
  5  6  1  0  0  0  0
  7  8  1  0  0  0  0
  9 10  1  0  0  0  0
  9  7  1  0  0  0  0
 11 13  1  0  0  0  0
 11  9  2  0  0  0  0
 12 11  1  0  0  0  0
 13  4  1  0  0  0  0
 14  1  1  0  0  0  0
 14 13  2  0  0  0  0
 15  3  1  0  0  0  0
 15  2  2  0  0  0  0
 16 15  1  0  0  0  0
 16 19  1  0  0  0  0
 17 16  1  0  0  0  0
 18 16  1  0  0  0  0
 19 20  1  0  0  0  0
 19 21  1  0  0  0  0
 22 19  1  0  0  0  0
 22 23  1  0  0  0  0
 24 22  1  0  0  0  0
 25 22  1  0  0  0  0
M  END
