7,8
q = 0.0, confidence = 0.978

 25 26  0  0  0  0  0  0  0  0999 V2000
    6.4497   -0.5671    1.0653 F   0  0  0  0  0  0  0  0  0  0  0  0
    6.3410   -1.2577   -1.0060 F   0  0  0  0  0  0  0  0  0  0  0  0
    6.1911    0.8750   -0.5496 F   0  0  0  0  0  0  0  0  0  0  0  0
    0.9136   -1.9312   -2.5106 F   0  0  0  0  0  0  0  0  0  0  0  0
    2.2301   -3.4762   -1.7364 F   0  0  0  0  0  0  0  0  0  0  0  0
    0.4159   -2.9724   -0.6477 F   0  0  0  0  0  0  0  0  0  0  0  0
    0.3907    0.9551    1.9623 N   0  0  0  0  0  2  0  0  0  0  0  0
    1.5867   -0.5419    0.2347 N   0  0  0  0  0  2  0  0  0  0  0  0
    3.7485    0.3351    0.8726 N   0  0  0  0  0  0  0  0  0  0  0  0
    1.7469    1.0731    1.9991 C   0  0  0  0  0  0  0  0  0  0  0  0
    2.4081    1.8169    2.9875 C   0  0  0  0  0  0  0  0  0  0  0  0
    3.5039    1.8850    2.9466 H   0  0  0  0  0  0  0  0  0  0  0  0
    1.6425    2.4186    3.9918 C   0  0  0  0  0  0  0  0  0  0  0  0
    2.1251    3.0078    4.7848 H   0  0  0  0  0  0  0  0  0  0  0  0
    0.2455    2.2437    3.9768 C   0  0  0  0  0  0  0  0  0  0  0  0
   -0.3909    2.6848    4.7571 H   0  0  0  0  0  0  0  0  0  0  0  0
   -0.3501    1.5066    2.9496 C   0  0  0  0  0  0  0  0  0  0  0  0
   -1.4373    1.3614    2.8726 H   0  0  0  0  0  0  0  0  0  0  0  0
    2.4243    0.2770    0.9776 C   0  0  0  0  0  0  0  0  0  0  0  0
    4.3397   -0.4868    0.0004 C   0  0  0  0  0  0  0  0  0  0  0  0
    3.6088   -1.4225   -0.7401 C   0  0  0  0  0  0  0  0  0  0  0  0
    4.0962   -2.1352   -1.4149 H   0  0  0  0  0  0  0  0  0  0  0  0
    2.2156   -1.4211   -0.5855 C   0  0  0  0  0  0  0  0  0  0  0  0
    5.8518   -0.3571   -0.1241 C   0  0  0  0  0  0  0  0  0  0  0  0
    1.4161   -2.4523   -1.3809 C   0  0  0  0  0  0  0  0  0  0  0  0
  2 24  1  0  0  0  0
  3 24  1  0  0  0  0
  4 25  1  0  0  0  0
  5 25  1  0  0  0  0
  7 10  1  0  0  0  0
  7 17  1  0  0  0  0
  8 19  1  0  0  0  0
  9 19  1  0  0  0  0
 10 11  1  0  0  0  0
 11 13  2  0  0  0  0
 12 11  1  0  0  0  0
 13 14  1  0  0  0  0
 15 13  1  0  0  0  0
 15 16  1  0  0  0  0
 17 15  2  0  0  0  0
 18 17  1  0  0  0  0
 19 10  2  0  0  0  0
 20  9  2  0  0  0  0
 21 23  2  0  0  0  0
 21 20  1  0  0  0  0
 22 21  1  0  0  0  0
 23  8  1  0  0  0  0
 24 20  1  0  0  0  0
 24  1  1  0  0  0  0
 25  6  1  0  0  0  0
 25 23  1  0  0  0  0
M  END
