1,15
q = -1.0, confidence = 0.0

 15 16  0  0  1  0  0  0  0  0999 V2000
    0.8280   -1.1992    1.9098 N   0  0  0  0  0  0  0  0  0  0  0  0
    1.7668   -1.5681    2.7865 N   0  0  0  0  0  2  0  0  0  0  0  0
    1.1786   -2.3125    3.7240 N   0  0  0  0  0  0  0  0  0  0  0  0
   -0.1348   -2.4393    3.4773 N   0  0  0  0  0  0  0  0  0  0  0  0
   -0.3398   -1.7424    2.3481 C   0  0  0  0  0  0  0  0  0  0  0  0
   -1.5612   -1.4788    1.6183 C   0  0  1  0  0  3  0  0  0  0  0  0
   -2.8267   -1.9716    1.9930 C   0  0  0  0  0  0  0  0  0  0  0  0
   -2.8974   -2.6039    2.8891 H   0  0  0  0  0  0  0  0  0  0  0  0
   -3.9450   -1.6424    1.2257 C   0  0  0  0  0  0  0  0  0  0  0  0
   -4.9458   -2.0107    1.4924 H   0  0  0  0  0  0  0  0  0  0  0  0
   -5.2375   -0.3277   -0.9902 Br  0  0  0  0  0  0  0  0  0  0  0  0
   -3.7658   -0.8205    0.0963 C   0  0  0  0  0  0  0  0  0  0  0  0
   -2.4833   -0.3587   -0.2303 C   0  0  0  0  0  0  0  0  0  0  0  0
   -2.3013    0.2856   -1.1044 H   0  0  0  0  0  0  0  0  0  0  0  0
   -1.4084   -0.6861    0.5127 N   0  0  0  0  0  2  0  0  0  0  0  0
  1  5  2  0  0  0  0
  1  2  1  0  0  0  0
  2  3  1  0  0  0  0
  4  3  2  0  0  0  0
  5  4  1  0  0  0  0
  6  7  1  0  0  0  0
  6  5  1  1  0  0  0
  7  8  1  0  0  0  0
  9 10  1  0  0  0  0
  9  7  2  0  0  0  0
 11 12  1  0  0  0  0
 12  9  1  0  0  0  0
 13 12  2  0  0  0  0
 13 15  1  0  0  0  0
 14 13  1  0  0  0  0
 15  6  1  0  0  0  0
M  END
