1,2
q = -1.0, confidence = 0.0

 34 34  0  0  1  0  0  0  0  0999 V2000
   -0.8100    0.6814   -1.1127 N   0  0  0  0  0  2  0  0  0  0  0  0
   -2.2322   -0.7414    0.4240 N   0  0  0  0  0  2  0  0  0  0  0  0
   -2.0548    1.1625   -0.9804 C   0  0  0  0  0  0  0  0  0  0  0  0
   -2.5242    2.2883   -1.7138 C   0  0  0  0  0  0  0  0  0  0  0  0
   -3.7342    2.9902   -1.6975 C   0  0  0  0  0  0  0  0  0  0  0  0
   -4.8825    2.7753   -0.9264 C   0  0  0  0  0  0  0  0  0  0  0  0
   -5.0604    1.7366   -0.0012 C   0  0  0  0  0  0  0  0  0  0  0  0
   -4.2006    0.6970    0.3635 C   0  0  0  0  0  0  0  0  0  0  0  0
   -2.8732    0.3524   -0.0313 C   0  0  2  0  0  3  0  0  0  0  0  0
    0.1821    1.1048   -2.1186 C   0  0  0  0  0  0  0  0  0  0  0  0
    0.7636    2.5159   -1.9229 C   0  0  0  0  0  0  0  0  0  0  0  0
   -0.2684    0.8065   -3.5578 C   0  0  0  0  0  0  0  0  0  0  0  0
   -2.9477   -1.8562    1.0942 C   0  0  0  0  0  0  0  0  0  0  0  0
   -4.0980   -2.4305    0.2525 C   0  0  0  0  0  0  0  0  0  0  0  0
   -3.2946   -1.5891    2.5686 C   0  0  0  0  0  0  0  0  0  0  0  0
   -1.7903    2.6919   -2.4204 H   0  0  0  0  0  0  0  0  0  0  0  0
   -3.7754    3.8456   -2.3924 H   0  0  0  0  0  0  0  0  0  0  0  0
   -5.7194    3.4775   -1.0616 H   0  0  0  0  0  0  0  0  0  0  0  0
   -6.0321    1.7259    0.5207 H   0  0  0  0  0  0  0  0  0  0  0  0
   -4.6252    0.0240    1.1153 H   0  0  0  0  0  0  0  0  0  0  0  0
    1.0425    0.4158   -1.9451 H   0  0  0  0  0  0  0  0  0  0  0  0
    1.0767    2.6722   -0.8741 H   0  0  0  0  0  0  0  0  0  0  0  0
    1.6605    2.6338   -2.5632 H   0  0  0  0  0  0  0  0  0  0  0  0
    0.0527    3.3210   -2.1927 H   0  0  0  0  0  0  0  0  0  0  0  0
   -0.6090   -0.2445   -3.6326 H   0  0  0  0  0  0  0  0  0  0  0  0
   -1.0904    1.4646   -3.8992 H   0  0  0  0  0  0  0  0  0  0  0  0
    0.5865    0.9460   -4.2495 H   0  0  0  0  0  0  0  0  0  0  0  0
   -2.1918   -2.6649    1.1314 H   0  0  0  0  0  0  0  0  0  0  0  0
   -3.7392   -2.6400   -0.7748 H   0  0  0  0  0  0  0  0  0  0  0  0
   -4.4309   -3.3886    0.7000 H   0  0  0  0  0  0  0  0  0  0  0  0
   -4.9830   -1.7701    0.1778 H   0  0  0  0  0  0  0  0  0  0  0  0
   -2.3870   -1.2647    3.1143 H   0  0  0  0  0  0  0  0  0  0  0  0
   -4.0834   -0.8258    2.7177 H   0  0  0  0  0  0  0  0  0  0  0  0
   -3.6468   -2.5289    3.0395 H   0  0  0  0  0  0  0  0  0  0  0  0
  1  3  1  0  0  0  0
  2 13  1  0  0  0  0
  3  9  1  0  0  0  0
  4  5  1  0  0  0  0
  4  3  2  0  0  0  0
  5  6  2  0  0  0  0
  6  7  1  0  0  0  0
  7  8  2  0  0  0  0
  7 19  1  0  0  0  0
  8 20  1  0  0  0  0
  9  8  1  0  0  0  0
  9  2  1  1  0  0  0
 10 21  1  0  0  0  0
 10 11  1  0  0  0  0
 10  1  1  0  0  0  0
 11 22  1  0  0  0  0
 12 10  1  0  0  0  0
 13 28  1  0  0  0  0
 13 15  1  0  0  0  0
 14 30  1  0  0  0  0
 14 13  1  0  0  0  0
 15 33  1  0  0  0  0
 15 34  1  0  0  0  0
 15 32  1  0  0  0  0
 16  4  1  0  0  0  0
 17  5  1  0  0  0  0
 18  6  1  0  0  0  0
 23 11  1  0  0  0  0
 24 11  1  0  0  0  0
 25 12  1  0  0  0  0
 26 12  1  0  0  0  0
 27 12  1  0  0  0  0
 29 14  1  0  0  0  0
 31 14  1  0  0  0  0
M  END
