2,3
q = 0.0, confidence = 1.0

 43 47  0  0  0  0  0  0  0  0999 V2000
    4.3276   -2.3489   -1.5079 O   0  0  0  0  0  0  0  0  0  0  0  0
    0.1198    0.2173    1.4634 N   0  0  0  0  0  2  0  0  0  0  0  0
    0.2363    0.1020   -1.2153 N   0  0  0  0  0  2  0  0  0  0  0  0
    3.5940    1.4424    1.1044 N   0  0  0  0  0  0  0  0  0  0  0  0
    3.8140   -0.3633   -0.4552 N   0  0  0  0  0  0  0  0  0  0  0  0
    6.0139    0.8891   -1.4848 N   0  0  0  0  0  0  0  0  0  0  0  0
    5.9666   -0.7779    1.2322 N   0  0  0  0  0  0  0  0  0  0  0  0
   -0.0912    0.4572    2.7599 C   0  0  0  0  0  0  0  0  0  0  0  0
    0.9325    0.9472    3.5906 C   0  0  0  0  0  0  0  0  0  0  0  0
    2.1669    1.2464    3.0191 C   0  0  0  0  0  0  0  0  0  0  0  0
    2.4061    0.9884    1.6450 C   0  0  0  0  0  0  0  0  0  0  0  0
    1.3330    0.4139    0.8996 C   0  0  0  0  0  0  0  0  0  0  0  0
    1.4098    0.1007   -0.5450 C   0  0  0  0  0  0  0  0  0  0  0  0
    2.6159   -0.2137   -1.2104 C   0  0  0  0  0  0  0  0  0  0  0  0
    2.5903   -0.4227   -2.6022 C   0  0  0  0  0  0  0  0  0  0  0  0
    1.3626   -0.3856   -3.2704 C   0  0  0  0  0  0  0  0  0  0  0  0
    0.1951   -0.1487   -2.5281 C   0  0  0  0  0  0  0  0  0  0  0  0
    4.2588    0.8477    0.1774 C   0  0  0  0  0  0  0  0  0  0  0  0
    5.4505    1.5082   -0.4310 C   0  0  0  0  0  0  0  0  0  0  0  0
    5.9304    2.7255    0.0927 C   0  0  0  0  0  0  0  0  0  0  0  0
    7.0472    3.3114   -0.5118 C   0  0  0  0  0  0  0  0  0  0  0  0
    7.6431    2.6663   -1.6074 C   0  0  0  0  0  0  0  0  0  0  0  0
    7.0857    1.4561   -2.0532 C   0  0  0  0  0  0  0  0  0  0  0  0
    4.6183   -1.4938   -0.6814 C   0  0  0  0  0  0  0  0  0  0  0  0
    5.7979   -1.6619    0.2390 C   0  0  0  0  0  0  0  0  0  0  0  0
    6.6548   -2.7585    0.0343 C   0  0  0  0  0  0  0  0  0  0  0  0
    7.7385   -2.9191    0.9060 C   0  0  0  0  0  0  0  0  0  0  0  0
    7.9220   -1.9884    1.9408 C   0  0  0  0  0  0  0  0  0  0  0  0
    7.0052   -0.9303    2.0620 C   0  0  0  0  0  0  0  0  0  0  0  0
   -1.1135    0.2640    3.1236 H   0  0  0  0  0  0  0  0  0  0  0  0
    0.7399    1.1292    4.6574 H   0  0  0  0  0  0  0  0  0  0  0  0
    2.9791    1.7044    3.6022 H   0  0  0  0  0  0  0  0  0  0  0  0
    3.5280   -0.6357   -3.1298 H   0  0  0  0  0  0  0  0  0  0  0  0
    1.3036   -0.5602   -4.3538 H   0  0  0  0  0  0  0  0  0  0  0  0
   -0.8099   -0.1549   -2.9808 H   0  0  0  0  0  0  0  0  0  0  0  0
    5.4166    3.1758    0.9529 H   0  0  0  0  0  0  0  0  0  0  0  0
    7.4511    4.2625   -0.1331 H   0  0  0  0  0  0  0  0  0  0  0  0
    8.5235    3.0914   -2.1114 H   0  0  0  0  0  0  0  0  0  0  0  0
    7.5258    0.9198   -2.9122 H   0  0  0  0  0  0  0  0  0  0  0  0
    6.4455   -3.4492   -0.7943 H   0  0  0  0  0  0  0  0  0  0  0  0
    8.4352   -3.7618    0.7813 H   0  0  0  0  0  0  0  0  0  0  0  0
    8.7600   -2.0787    2.6476 H   0  0  0  0  0  0  0  0  0  0  0  0
    7.1126   -0.1777    2.8625 H   0  0  0  0  0  0  0  0  0  0  0  0
  1 24  2  0  0  0  0
  2  8  1  0  0  0  0
  3 13  1  0  0  0  0
  4 11  1  0  0  0  0
  5 18  1  0  0  0  0
  6 19  1  0  0  0  0
  7 29  1  0  0  0  0
  8 30  1  0  0  0  0
  8  9  2  0  0  0  0
  9 31  1  0  0  0  0
 10  9  1  0  0  0  0
 10 32  1  0  0  0  0
 11 10  2  0  0  0  0
 12  2  1  0  0  0  0
 12 11  1  0  0  0  0
 13 12  2  0  0  0  0
 14 13  1  0  0  0  0
 14  5  1  0  0  0  0
 15 14  2  0  0  0  0
 16 15  1  0  0  0  0
 16 17  2  0  0  0  0
 17  3  1  0  0  0  0
 18  4  2  0  0  0  0
 19 20  2  0  0  0  0
 19 18  1  0  0  0  0
 20 36  1  0  0  0  0
 21 37  1  0  0  0  0
 21 20  1  0  0  0  0
 22 21  2  0  0  0  0
 23 22  1  0  0  0  0
 23  6  2  0  0  0  0
 24  5  1  0  0  0  0
 24 25  1  0  0  0  0
 25  7  2  0  0  0  0
 26 25  1  0  0  0  0
 26 27  2  0  0  0  0
 27 28  1  0  0  0  0
 28 29  2  0  0  0  0
 28 42  1  0  0  0  0
 29 43  1  0  0  0  0
 33 15  1  0  0  0  0
 34 16  1  0  0  0  0
 35 17  1  0  0  0  0
 38 22  1  0  0  0  0
 39 23  1  0  0  0  0
 40 26  1  0  0  0  0
 41 27  1  0  0  0  0
M  END
