1,2
q = 0.0, confidence = 0.99

 26 28  0  0  0  0  0  0  0  0999 V2000
   -1.4441    1.0589   -0.2728 N   0  0  0  0  0  2  0  0  0  0  0  0
   -1.1702   -1.5533   -0.3627 N   0  0  0  0  0  2  0  0  0  0  0  0
   -3.8704    2.4117   -0.1973 N   0  0  0  0  0  0  0  0  0  0  0  0
   -5.0519   -0.6251    1.2367 N   0  0  0  0  0  0  0  0  0  0  0  0
   -1.4823    2.4075   -0.3071 C   0  0  0  0  0  0  0  0  0  0  0  0
   -2.7142    3.0664   -0.3631 C   0  0  0  0  0  0  0  0  0  0  0  0
   -2.6218    0.3483   -0.2571 C   0  0  0  0  0  0  0  0  0  0  0  0
   -3.8365    1.0727   -0.0703 C   0  0  0  0  0  0  0  0  0  0  0  0
   -2.4600   -1.0982   -0.4746 C   0  0  0  0  0  0  0  0  0  0  0  0
   -3.4879   -1.9751   -0.8751 C   0  0  0  0  0  0  0  0  0  0  0  0
   -3.2033   -3.3263   -1.0829 C   0  0  0  0  0  0  0  0  0  0  0  0
   -1.8897   -3.7858   -0.8871 C   0  0  0  0  0  0  0  0  0  0  0  0
   -0.8986   -2.8657   -0.5439 C   0  0  0  0  0  0  0  0  0  0  0  0
   -5.1146    0.4621    0.3723 C   0  0  0  0  0  0  0  0  0  0  0  0
   -6.3733    1.0066    0.0232 C   0  0  0  0  0  0  0  0  0  0  0  0
   -7.5865    0.4583    0.5192 C   0  0  0  0  0  0  0  0  0  0  0  0
   -7.5036   -0.6628    1.3986 C   0  0  0  0  0  3  0  0  0  0  0  0
   -6.2488   -0.9150    1.5328 C   0  0  0  0  0  3  0  0  0  0  0  0
   -0.5050    2.9173   -0.2966 H   0  0  0  0  0  0  0  0  0  0  0  0
   -2.7615    4.1590   -0.5034 H   0  0  0  0  0  0  0  0  0  0  0  0
   -4.5008   -1.5918   -1.0426 H   0  0  0  0  0  0  0  0  0  0  0  0
   -3.9998   -4.0151   -1.4000 H   0  0  0  0  0  0  0  0  0  0  0  0
   -1.6241   -4.8433   -1.0252 H   0  0  0  0  0  0  0  0  0  0  0  0
    0.1612   -3.1416   -0.4193 H   0  0  0  0  0  0  0  0  0  0  0  0
   -6.3821    1.8818   -0.6405 H   0  0  0  0  0  0  0  0  0  0  0  0
   -8.5499    0.9060    0.2172 H   0  0  0  0  0  0  0  0  0  0  0  0
  1  7  1  0  0  0  0
  3  8  2  0  0  0  0
  4 18  1  0  0  0  0
  5 19  1  0  0  0  0
  5  1  1  0  0  0  0
  6  5  2  0  0  0  0
  6  3  1  0  0  0  0
  7  8  1  0  0  0  0
  8 14  1  0  0  0  0
  9  2  1  0  0  0  0
  9  7  2  0  0  0  0
 10  9  1  0  0  0  0
 11 12  1  0  0  0  0
 11 10  2  0  0  0  0
 12 13  2  0  0  0  0
 13 24  1  0  0  0  0
 13  2  1  0  0  0  0
 14  4  2  0  0  0  0
 15 14  1  0  0  0  0
 15 16  2  0  0  0  0
 16 17  1  0  0  0  0
 17 18  2  0  0  0  0
 20  6  1  0  0  0  0
 21 10  1  0  0  0  0
 22 11  1  0  0  0  0
 23 12  1  0  0  0  0
 25 15  1  0  0  0  0
 26 16  1  0  0  0  0
M  END
