1,4
q = 0.0, confidence = 0.516

 53 54  0  0  0  0  0  0  0  0999 V2000
    1.2006    0.1005   -1.1751 N   0  0  0  0  0  2  0  0  0  0  0  0
    0.6008    0.1887   -2.3830 N   0  0  0  0  0  0  0  0  0  0  0  0
   -0.6803    0.1800   -2.3094 N   0  0  0  0  0  0  0  0  0  0  0  0
   -1.1479    0.0909   -1.0413 N   0  0  0  0  0  2  0  0  0  0  0  0
    2.6262    0.1022   -1.1837 C   0  0  0  0  0  0  0  0  0  0  0  0
    3.3159   -1.1299   -1.2507 C   0  0  0  0  0  0  0  0  0  0  0  0
    2.5487   -2.4129   -1.4263 C   0  0  0  0  0  0  0  0  0  0  0  0
    4.7189   -1.1109   -1.1530 C   0  0  0  0  0  0  0  0  0  0  0  0
    5.4385    0.0890   -0.9997 C   0  0  0  0  0  0  0  0  0  0  0  0
    6.9452    0.0870   -0.9204 C   0  0  0  0  0  0  0  0  0  0  0  0
    4.7172    1.2987   -0.9634 C   0  0  0  0  0  0  0  0  0  0  0  0
    3.3152    1.3323   -1.0655 C   0  0  0  0  0  0  0  0  0  0  0  0
    2.5495    2.6284   -1.0795 C   0  0  0  0  0  0  0  0  0  0  0  0
   -2.5710    0.0631   -0.9024 C   0  0  0  0  0  0  0  0  0  0  0  0
   -3.2743    1.2863   -0.7399 C   0  0  0  0  0  0  0  0  0  0  0  0
   -4.6650    1.2219   -0.5300 C   0  0  0  0  0  0  0  0  0  0  0  0
   -5.3345   -0.0085   -0.4917 C   0  0  0  0  0  0  0  0  0  0  0  0
   -4.6231   -1.2024   -0.6657 C   0  0  0  0  0  0  0  0  0  0  0  0
   -3.2311   -1.1936   -0.8723 C   0  0  0  0  0  0  0  0  0  0  0  0
   -2.5407    2.6172   -0.8451 C   0  0  0  0  0  0  0  0  0  0  0  0
   -2.3570    3.0122   -2.3246 C   0  0  0  0  0  0  0  0  0  0  0  0
   -3.2061    3.7572   -0.0643 C   0  0  0  0  0  0  0  0  0  0  0  0
   -2.4449   -2.4787   -1.0954 C   0  0  0  0  0  0  0  0  0  0  0  0
   -2.2601   -2.7423   -2.6029 C   0  0  0  0  0  0  0  0  0  0  0  0
   -3.0485   -3.7038   -0.3977 C   0  0  0  0  0  0  0  0  0  0  0  0
    5.2663   -2.0669   -1.1965 H   0  0  0  0  0  0  0  0  0  0  0  0
    5.2641    2.2507   -0.8622 H   0  0  0  0  0  0  0  0  0  0  0  0
   -5.2364    2.1522   -0.3996 H   0  0  0  0  0  0  0  0  0  0  0  0
   -6.4227   -0.0363   -0.3274 H   0  0  0  0  0  0  0  0  0  0  0  0
   -5.1609   -2.1612   -0.6381 H   0  0  0  0  0  0  0  0  0  0  0  0
   -1.5270    2.4493   -0.4188 H   0  0  0  0  0  0  0  0  0  0  0  0
   -1.4339   -2.3020   -0.6660 H   0  0  0  0  0  0  0  0  0  0  0  0
    3.2149   -3.2949   -1.3769 H   0  0  0  0  0  0  0  0  0  0  0  0
    2.0199   -2.4234   -2.4018 H   0  0  0  0  0  0  0  0  0  0  0  0
    1.7561   -2.5101   -0.6546 H   0  0  0  0  0  0  0  0  0  0  0  0
    7.3201    0.8772   -0.2394 H   0  0  0  0  0  0  0  0  0  0  0  0
    7.3978    0.2785   -1.9174 H   0  0  0  0  0  0  0  0  0  0  0  0
    7.3355   -0.8874   -0.5664 H   0  0  0  0  0  0  0  0  0  0  0  0
    1.7030    2.5996   -0.3635 H   0  0  0  0  0  0  0  0  0  0  0  0
    2.0962    2.7995   -2.0781 H   0  0  0  0  0  0  0  0  0  0  0  0
    3.2021    3.4891   -0.8387 H   0  0  0  0  0  0  0  0  0  0  0  0
   -1.7679    3.9492   -2.4080 H   0  0  0  0  0  0  0  0  0  0  0  0
   -3.3436    3.1840   -2.8037 H   0  0  0  0  0  0  0  0  0  0  0  0
   -1.8334    2.2160   -2.8878 H   0  0  0  0  0  0  0  0  0  0  0  0
   -4.1673    4.0664   -0.5252 H   0  0  0  0  0  0  0  0  0  0  0  0
   -2.5501    4.6511   -0.0614 H   0  0  0  0  0  0  0  0  0  0  0  0
   -3.4122    3.4824    0.9897 H   0  0  0  0  0  0  0  0  0  0  0  0
   -1.6298   -3.6409   -2.7689 H   0  0  0  0  0  0  0  0  0  0  0  0
   -1.7780   -1.8787   -3.1002 H   0  0  0  0  0  0  0  0  0  0  0  0
   -3.2423   -2.9175   -3.0896 H   0  0  0  0  0  0  0  0  0  0  0  0
   -2.3579   -4.5677   -0.4757 H   0  0  0  0  0  0  0  0  0  0  0  0
   -4.0076   -4.0159   -0.8610 H   0  0  0  0  0  0  0  0  0  0  0  0
   -3.2444   -3.5188    0.6787 H   0  0  0  0  0  0  0  0  0  0  0  0
  2  3  2  0  0  0  0
  2  1  1  0  0  0  0
  3  4  1  0  0  0  0
  4 14  1  0  0  0  0
  5  1  1  0  0  0  0
  5 12  1  0  0  0  0
  6  5  2  0  0  0  0
  6  8  1  0  0  0  0
  7 33  1  0  0  0  0
  7  6  1  0  0  0  0
  7 35  1  0  0  0  0
  8  9  2  0  0  0  0
  9 11  1  0  0  0  0
  9 10  1  0  0  0  0
 10 38  1  0  0  0  0
 10 36  1  0  0  0  0
 11 27  1  0  0  0  0
 12 11  2  0  0  0  0
 13 12  1  0  0  0  0
 13 41  1  0  0  0  0
 13 39  1  0  0  0  0
 14 19  2  0  0  0  0
 14 15  1  0  0  0  0
 15 16  2  0  0  0  0
 16 17  1  0  0  0  0
 16 28  1  0  0  0  0
 17 29  1  0  0  0  0
 18 30  1  0  0  0  0
 18 17  2  0  0  0  0
 19 18  1  0  0  0  0
 20 15  1  0  0  0  0
 20 31  1  0  0  0  0
 20 22  1  0  0  0  0
 21 20  1  0  0  0  0
 22 46  1  0  0  0  0
 22 47  1  0  0  0  0
 23 19  1  0  0  0  0
 23 32  1  0  0  0  0
 23 25  1  0  0  0  0
 24 23  1  0  0  0  0
 25 53  1  0  0  0  0
 26  8  1  0  0  0  0
 34  7  1  0  0  0  0
 37 10  1  0  0  0  0
 40 13  1  0  0  0  0
 42 21  1  0  0  0  0
 43 21  1  0  0  0  0
 44 21  1  0  0  0  0
 45 22  1  0  0  0  0
 48 24  1  0  0  0  0
 49 24  1  0  0  0  0
 50 24  1  0  0  0  0
 51 25  1  0  0  0  0
 52 25  1  0  0  0  0
M  END
