52,53
q = 0.0, confidence = 0.992

 58 61  0  0  1  0  0  0  0  0999 V2000
   -1.6092   -0.0474   -0.2035 B   0  0  2  0  0  0  0  0  0  0  0  0
    0.2866   -1.0965    2.9976 C   0  0  0  0  0  0  0  0  0  0  0  0
    1.3018   -2.2336    3.1056 C   0  0  0  0  0  0  0  0  0  0  0  0
    1.3393   -2.6258    4.1415 H   0  0  0  0  0  0  0  0  0  0  0  0
    2.3135   -1.8790    2.8309 H   0  0  0  0  0  0  0  0  0  0  0  0
    1.0373   -3.0645    2.4225 H   0  0  0  0  0  0  0  0  0  0  0  0
    0.6226    0.0785    3.9299 C   0  0  0  0  0  0  0  0  0  0  0  0
   -0.1316    0.8849    3.8350 H   0  0  0  0  0  0  0  0  0  0  0  0
    1.6163    0.5083    3.7122 H   0  0  0  0  0  0  0  0  0  0  0  0
    0.6286   -0.2699    4.9821 H   0  0  0  0  0  0  0  0  0  0  0  0
   -1.1629   -1.5767    3.2559 C   0  0  0  0  0  0  0  0  0  0  0  0
   -1.2855   -2.6695    3.1016 H   0  0  0  0  0  0  0  0  0  0  0  0
   -1.5577   -1.2938    4.2490 H   0  0  0  0  0  0  0  0  0  0  0  0
   -1.0866   -0.5066    1.2597 C   0  0  2  0  0  3  0  0  0  0  0  0
    0.7150   -2.4358   -2.1545 C   0  0  0  0  0  0  0  0  0  0  0  0
    1.6528   -3.4758   -1.5403 C   0  0  0  0  0  0  0  0  0  0  0  0
    1.7808   -4.3350   -2.2287 H   0  0  0  0  0  0  0  0  0  0  0  0
    1.2456   -3.8520   -0.5813 H   0  0  0  0  0  0  0  0  0  0  0  0
    2.6522   -3.0465   -1.3387 H   0  0  0  0  0  0  0  0  0  0  0  0
    1.2549   -1.8575   -3.4724 C   0  0  0  0  0  0  0  0  0  0  0  0
    1.3972   -2.6729   -4.2096 H   0  0  0  0  0  0  0  0  0  0  0  0
    2.2273   -1.3503   -3.3392 H   0  0  0  0  0  0  0  0  0  0  0  0
    0.5401   -1.1260   -3.8991 H   0  0  0  0  0  0  0  0  0  0  0  0
   -0.7102   -3.0071   -2.3752 C   0  0  0  0  0  0  0  0  0  0  0  0
   -0.9422   -3.2251   -3.4343 H   0  0  0  0  0  0  0  0  0  0  0  0
   -0.9073   -3.9118   -1.7616 H   0  0  0  0  0  0  0  0  0  0  0  0
   -0.8678   -1.1179   -1.1609 C   0  0  1  0  0  3  0  0  0  0  0  0
   -1.2725    1.5131   -0.5198 C   0  0  0  0  0  0  0  0  0  0  0  0
   -1.4581    2.4951    0.4785 C   0  0  0  0  0  0  0  0  0  0  0  0
   -1.7574    2.1898    1.4958 H   0  0  0  0  0  0  0  0  0  0  0  0
   -1.2614    3.8585    0.2067 C   0  0  0  0  0  0  0  0  0  0  0  0
   -1.4044    4.6059    1.0021 H   0  0  0  0  0  0  0  0  0  0  0  0
   -0.8793    4.2675   -1.0817 C   0  0  0  0  0  0  0  0  0  0  0  0
   -0.7233    5.3346   -1.2997 H   0  0  0  0  0  0  0  0  0  0  0  0
   -0.6968    3.3059   -2.0900 C   0  0  0  0  0  0  0  0  0  0  0  0
   -0.3990    3.6200   -3.1022 H   0  0  0  0  0  0  0  0  0  0  0  0
   -0.8987    1.9460   -1.8100 C   0  0  0  0  0  0  0  0  0  0  0  0
   -0.7583    1.2046   -2.6126 H   0  0  0  0  0  0  0  0  0  0  0  0
   -3.2102   -0.1496   -0.3555 C   0  0  1  0  0  3  0  0  0  0  0  0
   -5.4915   -0.0379    0.1667 C   0  0  0  0  0  0  0  0  0  0  0  0
   -6.4509   -1.1528    0.5850 C   0  0  0  0  0  0  0  0  0  0  0  0
   -6.1017   -2.1401    0.2251 H   0  0  0  0  0  0  0  0  0  0  0  0
   -7.4589   -0.9639    0.1664 H   0  0  0  0  0  0  0  0  0  0  0  0
   -6.5533   -1.1931    1.6876 H   0  0  0  0  0  0  0  0  0  0  0  0
   -5.9139    1.3318    0.7167 C   0  0  0  0  0  0  0  0  0  0  0  0
   -5.9498    1.3178    1.8242 H   0  0  0  0  0  0  0  0  0  0  0  0
   -6.9253    1.5954    0.3491 H   0  0  0  0  0  0  0  0  0  0  0  0
   -5.2056    2.1228    0.3991 H   0  0  0  0  0  0  0  0  0  0  0  0
   -5.2372   -0.0042   -1.3661 C   0  0  0  0  0  0  0  0  0  0  0  0
   -5.5535   -0.9372   -1.8746 H   0  0  0  0  0  0  0  0  0  0  0  0
   -5.6898    0.8686   -1.8712 H   0  0  0  0  0  0  0  0  0  0  0  0
    0.1716   -0.6214    1.5767 N   0  0  0  0  0  2  0  0  0  0  0  0
    0.4214   -1.3288   -1.1808 N   0  0  0  0  0  2  0  0  0  0  0  0
   -4.1010   -0.3284    0.6010 N   0  0  0  0  0  0  0  0  0  0  0  0
   -3.7900   -0.5209    1.5631 H   0  0  0  0  0  0  0  0  0  0  0  0
   -1.9517   -0.8984    2.2365 O   0  0  0  0  0  0  0  0  0  0  0  0
   -1.6031   -1.9603   -1.9143 O   0  0  0  0  0  0  0  0  0  0  0  0
   -3.7885    0.0972   -1.5169 O   0  0  0  0  0  0  0  0  0  0  0  0
  1 28  1  6  0  0  0
  2  3  1  0  0  0  0
  2 11  1  0  0  0  0
  2  7  1  0  0  0  0
  3  4  1  0  0  0  0
  5  3  1  0  0  0  0
  6  3  1  0  0  0  0
  7 10  1  0  0  0  0
  8  7  1  0  0  0  0
  9  7  1  0  0  0  0
 11 13  1  0  0  0  0
 12 11  1  0  0  0  0
 14  1  1  6  0  0  0
 14 52  1  0  0  0  0
 14 56  1  0  0  0  0
 15 16  1  0  0  0  0
 15 53  1  0  0  0  0
 16 19  1  0  0  0  0
 16 18  1  0  0  0  0
 17 16  1  0  0  0  0
 20 22  1  0  0  0  0
 20 15  1  0  0  0  0
 21 20  1  0  0  0  0
 23 20  1  0  0  0  0
 24 15  1  0  0  0  0
 24 57  1  0  0  0  0
 24 26  1  0  0  0  0
 25 24  1  0  0  0  0
 27  1  1  1  0  0  0
 28 29  1  0  0  0  0
 29 30  1  0  0  0  0
 31 29  2  0  0  0  0
 31 32  1  0  0  0  0
 33 31  1  0  0  0  0
 34 33  1  0  0  0  0
 35 37  1  0  0  0  0
 35 33  2  0  0  0  0
 36 35  1  0  0  0  0
 37 28  2  0  0  0  0
 38 37  1  0  0  0  0
 39  1  1  1  0  0  0
 39 54  1  0  0  0  0
 40 41  1  0  0  0  0
 40 54  1  0  0  0  0
 40 45  1  0  0  0  0
 41 44  1  0  0  0  0
 42 41  1  0  0  0  0
 43 41  1  0  0  0  0
 45 46  1  0  0  0  0
 47 45  1  0  0  0  0
 48 45  1  0  0  0  0
 49 40  1  0  0  0  0
 50 49  1  0  0  0  0
 51 49  1  0  0  0  0
 52  2  1  0  0  0  0
 53 27  1  0  0  0  0
 54 55  1  0  0  0  0
 56 11  1  0  0  0  0
 57 27  1  0  0  0  0
 58 49  1  0  0  0  0
 58 39  1  0  0  0  0
M  END
