2,4
q = -1.0

 32 33  0  0  1  0  0  0  0  0999 V2000
    4.6935    0.1225    0.5511 O   0  0  0  0  0  0  0  0  0  0  0  0
    1.2278    1.3504   -0.5018 N   0  0  0  0  0  2  0  0  0  0  0  0
    3.1090    2.4495   -0.7331 N   0  0  0  0  0  0  0  0  0  0  0  0
    1.2696   -1.3096   -0.4904 N   0  0  0  0  0  2  0  0  0  0  0  0
    3.2028   -2.2846   -0.8111 N   0  0  0  0  0  0  0  0  0  0  0  0
    2.5467    1.3188   -0.2020 C   0  0  2  0  0  3  0  0  0  0  0  0
    0.9524    2.4943   -1.2255 C   0  0  0  0  0  0  0  0  0  0  0  0
   -0.0556    2.7280   -1.5812 H   0  0  0  0  0  0  0  0  0  0  0  0
    2.1289    3.1940   -1.3767 C   0  0  0  0  0  0  0  0  0  0  0  0
    2.3568    4.1374   -1.8823 H   0  0  0  0  0  0  0  0  0  0  0  0
    4.5054    2.8478   -0.6286 C   0  0  0  0  0  0  0  0  0  0  0  0
    5.0658    1.9878   -0.2172 H   0  0  0  0  0  0  0  0  0  0  0  0
    4.6112    3.7256    0.0416 H   0  0  0  0  0  0  0  0  0  0  0  0
    4.8960    3.1151   -1.6306 H   0  0  0  0  0  0  0  0  0  0  0  0
    2.5888   -1.2171   -0.2097 C   0  0  1  0  0  3  0  0  0  0  0  0
    1.0418   -2.4331   -1.2613 C   0  0  0  0  0  0  0  0  0  0  0  0
    0.0416   -2.7048   -1.6123 H   0  0  0  0  0  0  0  0  0  0  0  0
    2.2522   -3.0568   -1.4670 C   0  0  0  0  0  0  0  0  0  0  0  0
    2.5218   -3.9610   -2.0214 H   0  0  0  0  0  0  0  0  0  0  0  0
    4.6251   -2.5878   -0.7746 C   0  0  0  0  0  0  0  0  0  0  0  0
    4.8651   -3.2854    0.0544 H   0  0  0  0  0  0  0  0  0  0  0  0
    5.1724   -1.6400   -0.6255 H   0  0  0  0  0  0  0  0  0  0  0  0
    4.9255   -3.0551   -1.7318 H   0  0  0  0  0  0  0  0  0  0  0  0
    5.4572   -0.2959    1.6481 C   0  0  0  0  0  0  0  0  0  0  0  0
    5.2341    0.2730    2.5811 H   0  0  0  0  0  0  0  0  0  0  0  0
    6.5352   -0.1484    1.4150 H   0  0  0  0  0  0  0  0  0  0  0  0
    5.3185   -1.3794    1.8941 H   0  0  0  0  0  0  0  0  0  0  0  0
    2.5904    0.0625    2.1478 C   0  0  0  0  0  0  0  0  0  0  0  0
    2.8928   -0.8301    2.7360 H   0  0  0  0  0  0  0  0  0  0  0  0
    1.4788    0.0599    2.1095 H   0  0  0  0  0  0  0  0  0  0  0  0
    2.8915    0.9654    2.7220 H   0  0  0  0  0  0  0  0  0  0  0  0
    3.2052    0.0637    0.6281 B   0  0  1  0  0  0  0  0  0  0  0  0
  1 24  1  0  0  0  0
  2  6  1  0  0  0  0
  3 11  1  0  0  0  0
  3  6  1  0  0  0  0
  4 15  1  0  0  0  0
  5 20  1  0  0  0  0
  5 15  1  0  0  0  0
  6 32  1  6  0  0  0
  7  2  1  0  0  0  0
  8  7  1  0  0  0  0
  9  7  2  0  0  0  0
  9  3  1  0  0  0  0
 10  9  1  0  0  0  0
 11 12  1  0  0  0  0
 11 13  1  0  0  0  0
 14 11  1  0  0  0  0
 15 32  1  6  0  0  0
 16  4  1  0  0  0  0
 17 16  1  0  0  0  0
 18 16  2  0  0  0  0
 18  5  1  0  0  0  0
 19 18  1  0  0  0  0
 20 22  1  0  0  0  0
 20 21  1  0  0  0  0
 23 20  1  0  0  0  0
 24 27  1  0  0  0  0
 24 25  1  0  0  0  0
 26 24  1  0  0  0  0
 28 31  1  0  0  0  0
 28 29  1  0  0  0  0
 30 28  1  0  0  0  0
 32  1  1  6  0  0  0
 32 28  1  0  0  0  0
M  END
