3,5
q = -1.0, confidence = 0.0

 34 35  0  0  1  0  0  0  0  0999 V2000
   -3.5870   -0.0018    0.7477 O   0  0  0  0  0  0  0  0  0  0  0  0
   -3.5249   -0.0027   -1.5202 O   0  0  0  0  0  0  0  0  0  0  0  0
   -0.1479   -1.3551   -0.3022 N   0  0  0  0  0  2  0  0  0  0  0  0
   -1.9578   -2.5437    0.0259 N   0  0  0  0  0  0  0  0  0  0  0  0
   -0.1489    1.3526   -0.3035 N   0  0  0  0  0  2  0  0  0  0  0  0
   -1.9597    2.5406    0.0218 N   0  0  0  0  0  0  0  0  0  0  0  0
   -1.4052   -1.3003    0.1879 C   0  0  1  0  0  3  0  0  0  0  0  0
    0.0889   -2.6232   -0.8035 C   0  0  0  0  0  0  0  0  0  0  0  0
    1.0529   -2.9002   -1.2364 H   0  0  0  0  0  0  0  0  0  0  0  0
   -1.0443   -3.3749   -0.6071 C   0  0  0  0  0  0  0  0  0  0  0  0
   -1.2825   -4.4128   -0.8590 H   0  0  0  0  0  0  0  0  0  0  0  0
   -3.3007   -2.9549    0.3984 C   0  0  0  0  0  0  0  0  0  0  0  0
   -3.6583   -2.3424    1.2432 H   0  0  0  0  0  0  0  0  0  0  0  0
   -3.2867   -4.0207    0.6959 H   0  0  0  0  0  0  0  0  0  0  0  0
   -4.0005   -2.8273   -0.4530 H   0  0  0  0  0  0  0  0  0  0  0  0
   -1.4061    1.2979    0.1865 C   0  0  2  0  0  3  0  0  0  0  0  0
    0.0871    2.6198   -0.8075 C   0  0  0  0  0  0  0  0  0  0  0  0
    1.0506    2.8963   -1.2416 H   0  0  0  0  0  0  0  0  0  0  0  0
   -1.0467    3.3711   -0.6128 C   0  0  0  0  0  0  0  0  0  0  0  0
   -1.2857    4.4082   -0.8671 H   0  0  0  0  0  0  0  0  0  0  0  0
   -3.3028    2.9517    0.3936 C   0  0  0  0  0  0  0  0  0  0  0  0
   -4.0020    2.8245   -0.4583 H   0  0  0  0  0  0  0  0  0  0  0  0
   -3.2890    4.0173    0.6918 H   0  0  0  0  0  0  0  0  0  0  0  0
   -3.6609    2.3386    1.2377 H   0  0  0  0  0  0  0  0  0  0  0  0
   -4.1446   -0.0026   -0.4633 C   0  0  0  0  0  0  0  0  0  0  0  0
   -5.6635   -0.0032   -0.3854 C   0  0  0  0  0  0  0  0  0  0  0  0
   -6.0171   -0.8904    0.1776 H   0  0  0  0  0  0  0  0  0  0  0  0
   -6.0960   -0.0052   -1.4012 H   0  0  0  0  0  0  0  0  0  0  0  0
   -6.0177    0.8861    0.1741 H   0  0  0  0  0  0  0  0  0  0  0  0
   -1.7563   -0.0001    2.5040 C   0  0  0  0  0  0  0  0  0  0  0  0
   -2.1837    0.8950    3.0053 H   0  0  0  0  0  0  0  0  0  0  0  0
   -0.6636    0.0006    2.6997 H   0  0  0  0  0  0  0  0  0  0  0  0
   -2.1827   -0.8952    3.0061 H   0  0  0  0  0  0  0  0  0  0  0  0
   -2.0668   -0.0010    0.9035 B   0  0  1  0  0  0  0  0  0  0  0  0
  2 25  2  0  0  0  0
  3  7  1  0  0  0  0
  4  7  1  0  0  0  0
  4 12  1  0  0  0  0
  5 16  1  0  0  0  0
  6 16  1  0  0  0  0
  6 21  1  0  0  0  0
  7 34  1  1  0  0  0
  8 10  2  0  0  0  0
  8  3  1  0  0  0  0
  9  8  1  0  0  0  0
 10  4  1  0  0  0  0
 11 10  1  0  0  0  0
 12 14  1  0  0  0  0
 12 13  1  0  0  0  0
 15 12  1  0  0  0  0
 16 34  1  1  0  0  0
 17 19  2  0  0  0  0
 17  5  1  0  0  0  0
 18 17  1  0  0  0  0
 19  6  1  0  0  0  0
 20 19  1  0  0  0  0
 21 23  1  0  0  0  0
 21 24  1  0  0  0  0
 22 21  1  0  0  0  0
 25 26  1  0  0  0  0
 25  1  1  0  0  0  0
 26 29  1  0  0  0  0
 26 27  1  0  0  0  0
 28 26  1  0  0  0  0
 30 32  1  0  0  0  0
 30 31  1  0  0  0  0
 30 33  1  0  0  0  0
 34  1  1  6  0  0  0
 34 30  1  0  0  0  0
M  END
