1,2
q = -1.0

 48 49  0  0  1  0  0  0  0  0999 V2000
    1.0786    1.5513    0.4527 N   0  0  0  0  0  2  0  0  0  0  0  0
   -1.4816    0.6860   -0.8946 N   0  0  0  0  0  2  0  0  0  0  0  0
    1.1974    4.0055    0.8181 C   0  0  0  0  0  0  0  0  0  0  0  0
    2.1727    4.1535    0.3082 H   0  0  0  0  0  0  0  0  0  0  0  0
    1.4062    3.9636    1.9075 H   0  0  0  0  0  0  0  0  0  0  0  0
    0.5786    4.9005    0.6270 H   0  0  0  0  0  0  0  0  0  0  0  0
    0.4951    2.7481    0.3278 C   0  0  2  0  0  3  0  0  0  0  0  0
   -0.7874    2.9373   -0.2491 C   0  0  0  0  0  0  0  0  0  0  0  0
   -1.1297    3.9806   -0.2711 H   0  0  0  0  0  0  0  0  0  0  0  0
   -1.7117    2.0026   -0.7878 C   0  0  0  0  0  0  0  0  0  0  0  0
   -3.0340    2.5871   -1.2574 C   0  0  0  0  0  0  0  0  0  0  0  0
   -3.8883    2.1225   -0.7229 H   0  0  0  0  0  0  0  0  0  0  0  0
   -3.1993    2.4116   -2.3415 H   0  0  0  0  0  0  0  0  0  0  0  0
   -3.0688    3.6773   -1.0829 H   0  0  0  0  0  0  0  0  0  0  0  0
    3.2673    0.4588    0.3332 C   0  0  0  0  0  0  0  0  0  0  0  0
    3.2137    0.4830   -1.0765 C   0  0  0  0  0  0  0  0  0  0  0  0
    2.4989    1.1620   -1.5650 H   0  0  0  0  0  0  0  0  0  0  0  0
    4.0305   -0.3555   -1.8473 C   0  0  0  0  0  0  0  0  0  0  0  0
    3.9664   -0.3196   -2.9459 H   0  0  0  0  0  0  0  0  0  0  0  0
    4.9282   -1.2384   -1.2237 C   0  0  0  0  0  0  0  0  0  0  0  0
    5.5730   -1.8956   -1.8274 H   0  0  0  0  0  0  0  0  0  0  0  0
    5.0006   -1.2652    0.1775 C   0  0  0  0  0  0  0  0  0  0  0  0
    5.7091   -1.9418    0.6817 H   0  0  0  0  0  0  0  0  0  0  0  0
    4.1748   -0.4263    0.9466 C   0  0  0  0  0  0  0  0  0  0  0  0
    4.2442   -0.4703    2.0428 H   0  0  0  0  0  0  0  0  0  0  0  0
    2.3611    1.3982    1.1332 C   0  0  2  0  0  0  0  0  0  0  0  0
    2.9049    2.3709    1.1783 H   0  0  0  0  0  0  0  0  0  0  0  0
    2.1257    0.9423    2.5816 C   0  0  0  0  0  0  0  0  0  0  0  0
    1.4373    1.6482    3.0858 H   0  0  0  0  0  0  0  0  0  0  0  0
    3.0632    0.9026    3.1717 H   0  0  0  0  0  0  0  0  0  0  0  0
    1.6519   -0.0606    2.5908 H   0  0  0  0  0  0  0  0  0  0  0  0
   -3.4782   -0.6622   -0.3099 C   0  0  0  0  0  0  0  0  0  0  0  0
   -4.8739   -0.6320   -0.4896 C   0  0  0  0  0  0  0  0  0  0  0  0
   -5.2863   -0.2418   -1.4349 H   0  0  0  0  0  0  0  0  0  0  0  0
   -5.7417   -1.0884    0.5161 C   0  0  0  0  0  0  0  0  0  0  0  0
   -6.8308   -1.0517    0.3585 H   0  0  0  0  0  0  0  0  0  0  0  0
   -5.2210   -1.5845    1.7207 C   0  0  0  0  0  0  0  0  0  0  0  0
   -5.8981   -1.9394    2.5128 H   0  0  0  0  0  0  0  0  0  0  0  0
   -3.8288   -1.6208    1.9102 C   0  0  0  0  0  0  0  0  0  0  0  0
   -3.4117   -2.0073    2.8532 H   0  0  0  0  0  0  0  0  0  0  0  0
   -2.9673   -1.1634    0.9043 C   0  0  0  0  0  0  0  0  0  0  0  0
   -1.8746   -1.1805    1.0516 H   0  0  0  0  0  0  0  0  0  0  0  0
   -2.5341   -0.1920   -1.4166 C   0  0  2  0  0  0  0  0  0  0  0  0
   -3.1578    0.3471   -2.1627 H   0  0  0  0  0  0  0  0  0  0  0  0
   -1.9119   -1.3915   -2.1436 C   0  0  0  0  0  0  0  0  0  0  0  0
   -1.2516   -1.0407   -2.9625 H   0  0  0  0  0  0  0  0  0  0  0  0
   -2.7000   -2.0441   -2.5700 H   0  0  0  0  0  0  0  0  0  0  0  0
   -1.2999   -1.9901   -1.4400 H   0  0  0  0  0  0  0  0  0  0  0  0
  1 26  1  0  0  0  0
  2 10  1  0  0  0  0
  3  5  1  0  0  0  0
  4  3  1  0  0  0  0
  6  3  1  0  0  0  0
  7  8  1  1  0  0  0
  7  1  1  0  0  0  0
  7  3  1  0  0  0  0
  9  8  1  0  0  0  0
 10  8  2  0  0  0  0
 11 14  1  0  0  0  0
 11 10  1  0  0  0  0
 11 12  1  0  0  0  0
 13 11  1  0  0  0  0
 15 24  1  0  0  0  0
 15 26  1  0  0  0  0
 16 15  2  0  0  0  0
 17 16  1  0  0  0  0
 18 20  2  0  0  0  0
 18 16  1  0  0  0  0
 19 18  1  0  0  0  0
 20 22  1  0  0  0  0
 21 20  1  0  0  0  0
 22 23  1  0  0  0  0
 22 24  2  0  0  0  0
 24 25  1  0  0  0  0
 26 27  1  1  0  0  0
 26 28  1  0  0  0  0
 28 31  1  0  0  0  0
 28 29  1  0  0  0  0
 28 30  1  0  0  0  0
 32 41  1  0  0  0  0
 33 32  2  0  0  0  0
 33 35  1  0  0  0  0
 34 33  1  0  0  0  0
 35 37  2  0  0  0  0
 36 35  1  0  0  0  0
 37 39  1  0  0  0  0
 37 38  1  0  0  0  0
 39 40  1  0  0  0  0
 41 42  1  0  0  0  0
 41 39  2  0  0  0  0
 43 44  1  6  0  0  0
 43  2  1  0  0  0  0
 43 32  1  0  0  0  0
 45 48  1  0  0  0  0
 45 43  1  0  0  0  0
 46 45  1  0  0  0  0
 47 45  1  0  0  0  0
M  END
