11,12
q = 0.0, confidence = 0.994

 25 26  0  0  0  0  0  0  0  0999 V2000
   -3.7822   -1.2781    0.0057 C   0  0  0  0  0  0  0  0  0  0  0  0
   -1.6650   -2.4846    0.0104 C   0  0  0  0  0  0  0  0  0  0  0  0
   -3.0476   -2.4997    0.0103 C   0  0  0  0  0  0  0  0  0  0  0  0
   -0.9705   -1.2400    0.0058 C   0  0  0  0  0  0  0  0  0  0  0  0
   -3.1001   -0.0415    0.0012 C   0  0  0  0  0  0  0  0  0  0  0  0
   -1.7082   -0.0285    0.0012 C   0  0  0  0  0  0  0  0  0  0  0  0
   -5.9281   -0.2356    0.0009 C   0  0  0  0  0  0  0  0  0  0  0  0
    2.4512   -1.9264    0.0089 C   0  0  0  0  0  0  0  0  0  0  0  0
    4.3747   -0.8924    0.0045 C   0  0  0  0  0  0  0  0  0  0  0  0
    4.6495   -2.2551    0.0101 C   0  0  0  0  0  0  0  0  0  0  0  0
    3.0192   -0.7096    0.0039 N   0  0  0  0  0  2  0  0  0  0  0  0
    0.4058   -1.1286    0.0057 N   0  0  0  0  0  2  0  0  0  0  0  0
    1.1102   -2.2089    0.0100 N   0  0  0  0  0  0  0  0  0  0  0  0
    3.4227   -2.8867    0.0128 N   0  0  0  0  0  0  0  0  0  0  0  0
   -5.1220   -1.4091    0.0061 O   0  0  0  0  0  0  0  0  0  0  0  0
   -3.6158   -3.4410    0.0136 H   0  0  0  0  0  0  0  0  0  0  0  0
   -1.1657    0.9251   -0.0022 H   0  0  0  0  0  0  0  0  0  0  0  0
    5.5937   -2.8075    0.0122 H   0  0  0  0  0  0  0  0  0  0  0  0
   -3.6388    0.9136   -0.0023 H   0  0  0  0  0  0  0  0  0  0  0  0
    3.2396   -3.8916    0.0171 H   0  0  0  0  0  0  0  0  0  0  0  0
    5.0655   -0.0421    0.0009 H   0  0  0  0  0  0  0  0  0  0  0  0
   -1.0813   -3.4149    0.0139 H   0  0  0  0  0  0  0  0  0  0  0  0
   -5.7452    0.3849    0.9043 H   0  0  0  0  0  0  0  0  0  0  0  0
   -6.9768   -0.5832    0.0014 H   0  0  0  0  0  0  0  0  0  0  0  0
   -5.7438    0.3779   -0.9069 H   0  0  0  0  0  0  0  0  0  0  0  0
  1 15  1  0  0  0  0
  1  3  1  0  0  0  0
  2 22  1  0  0  0  0
  3  2  2  0  0  0  0
  3 16  1  0  0  0  0
  4  2  1  0  0  0  0
  5  6  1  0  0  0  0
  5  1  2  0  0  0  0
  6  4  2  0  0  0  0
  7 24  1  0  0  0  0
  7 15  1  0  0  0  0
  7 23  1  0  0  0  0
  8 13  2  0  0  0  0
  8 14  1  0  0  0  0
  9 10  2  0  0  0  0
 10 18  1  0  0  0  0
 10 14  1  0  0  0  0
 11  9  1  0  0  0  0
 11  8  1  0  0  0  0
 12  4  1  0  0  0  0
 12 13  1  0  0  0  0
 14 20  1  0  0  0  0
 17  6  1  0  0  0  0
 19  5  1  0  0  0  0
 21  9  1  0  0  0  0
 25  7  1  0  0  0  0
M  END
