1,2
q = -1.0, confidence = 0.002

 30 31  0  0  1  0  0  0  0  0999 V2000
    0.1629    1.1132    0.0745 N   0  0  0  0  0  2  0  0  0  0  0  0
   -2.4517    0.6764   -0.1676 N   0  0  0  0  0  2  0  0  0  0  0  0
   -3.7614    0.4163   -0.3647 C   0  0  0  0  0  3  0  0  0  0  0  0
   -4.0325   -0.6448   -0.4637 H   0  0  0  0  0  0  0  0  0  0  0  0
   -4.7304    1.4207   -0.4357 C   0  0  0  0  0  0  0  0  0  0  0  0
   -5.7828    1.1514   -0.5997 H   0  0  0  0  0  0  0  0  0  0  0  0
   -4.3229    2.7575   -0.2915 C   0  0  0  0  0  0  0  0  0  0  0  0
   -5.0563    3.5761   -0.3377 H   0  0  0  0  0  0  0  0  0  0  0  0
   -2.9701    3.0360   -0.0893 C   0  0  0  0  0  0  0  0  0  0  0  0
   -2.6216    4.0710    0.0201 H   0  0  0  0  0  0  0  0  0  0  0  0
   -2.0343    1.9777   -0.0308 C   0  0  0  0  0  0  0  0  0  0  0  0
   -0.6056    2.1984    0.1288 C   0  0  2  0  0  3  0  0  0  0  0  0
   -0.0263    3.5709    0.2718 C   0  0  0  0  0  0  0  0  0  0  0  0
   -0.5876    4.1730    1.0136 H   0  0  0  0  0  0  0  0  0  0  0  0
    1.0290    3.4800    0.5870 H   0  0  0  0  0  0  0  0  0  0  0  0
   -0.0463    4.1213   -0.6932 H   0  0  0  0  0  0  0  0  0  0  0  0
    1.8944   -0.1157   -1.6446 O   0  0  0  0  0  0  0  0  0  0  0  0
    1.4860    1.2647    0.1939 N   0  0  0  0  0  2  0  0  0  0  0  0
    3.7254    0.5255   -0.2608 C   0  0  0  0  0  0  0  0  0  0  0  0
    2.2727    0.5254   -0.6070 C   0  0  0  0  0  0  0  0  0  0  0  0
    4.6220   -0.1782   -1.0902 C   0  0  0  0  0  0  0  0  0  0  0  0
    4.2162   -0.6944   -1.9717 H   0  0  0  0  0  0  0  0  0  0  0  0
    4.2154    1.1919    0.8820 C   0  0  0  0  0  0  0  0  0  0  0  0
    3.5054    1.7362    1.5209 H   0  0  0  0  0  0  0  0  0  0  0  0
    5.5811    1.1514    1.1890 C   0  0  0  0  0  0  0  0  0  0  0  0
    5.9573    1.6710    2.0835 H   0  0  0  0  0  0  0  0  0  0  0  0
    5.9878   -0.2163   -0.7812 C   0  0  0  0  0  0  0  0  0  0  0  0
    6.6821   -0.7699   -1.4316 H   0  0  0  0  0  0  0  0  0  0  0  0
    6.4708    0.4486    0.3581 C   0  0  0  0  0  0  0  0  0  0  0  0
    7.5441    0.4184    0.6009 H   0  0  0  0  0  0  0  0  0  0  0  0
  1 18  1  0  0  0  0
  2 11  1  0  0  0  0
  3  2  1  0  0  0  0
  4  3  1  0  0  0  0
  5  3  1  0  0  0  0
  5  7  2  0  0  0  0
  6  5  1  0  0  0  0
  7  9  1  0  0  0  0
  8  7  1  0  0  0  0
  9 11  2  0  0  0  0
  9 10  1  0  0  0  0
 11 12  1  0  0  0  0
 12  1  1  6  0  0  0
 12 13  1  0  0  0  0
 13 15  1  0  0  0  0
 13 14  1  0  0  0  0
 16 13  1  0  0  0  0
 17 20  2  0  0  0  0
 19 23  1  0  0  0  0
 20 19  1  0  0  0  0
 20 18  1  0  0  0  0
 21 27  1  0  0  0  0
 21 19  2  0  0  0  0
 22 21  1  0  0  0  0
 23 25  2  0  0  0  0
 23 24  1  0  0  0  0
 25 26  1  0  0  0  0
 27 29  2  0  0  0  0
 28 27  1  0  0  0  0
 29 30  1  0  0  0  0
 29 25  1  0  0  0  0
M  END
