2,4
q = 0.0, confidence = 0.998

 38 40  0  0  1  0  0  0  0  0999 V2000
    0.1228    1.1572   -1.2876 Se  0  0  0  0  0  0  0  0  0  0  0  0
    2.5475   -0.0628    0.1887 N   0  0  0  0  0  2  0  0  0  0  0  0
   -2.3688   -0.4765   -0.0583 N   0  0  0  0  0  0  0  0  0  0  0  0
   -1.2978   -1.3361   -0.1134 N   0  0  0  0  0  2  0  0  0  0  0  0
    1.6545    2.1364   -0.4385 C   0  0  0  0  0  0  0  0  0  0  0  0
    1.9208    3.0101   -1.0609 H   0  0  0  0  0  0  0  0  0  0  0  0
    1.2488    2.4819    0.5339 H   0  0  0  0  0  0  0  0  0  0  0  0
    2.8149    1.2111   -0.2294 C   0  0  1  0  0  3  0  0  0  0  0  0
    3.5669   -0.9043    0.4777 C   0  0  0  0  0  0  0  0  0  0  0  0
    3.2647   -1.9013    0.8343 H   0  0  0  0  0  0  0  0  0  0  0  0
    4.9040   -0.5136    0.3513 C   0  0  0  0  0  0  0  0  0  0  0  0
    5.6988   -1.2302    0.6013 H   0  0  0  0  0  0  0  0  0  0  0  0
    5.1962    0.7785   -0.1007 C   0  0  0  0  0  0  0  0  0  0  0  0
    6.2374    1.1109   -0.2248 H   0  0  0  0  0  0  0  0  0  0  0  0
    4.1365    1.6479   -0.3969 C   0  0  0  0  0  0  0  0  0  0  0  0
    4.3280    2.6715   -0.7489 H   0  0  0  0  0  0  0  0  0  0  0  0
   -1.2904    1.7736   -0.0945 C   0  0  0  0  0  0  0  0  0  0  0  0
   -2.2653    0.8679    0.3961 C   0  0  0  0  0  0  0  0  0  0  0  0
   -3.5140   -1.1164   -0.4932 C   0  0  2  0  0  3  0  0  0  0  0  0
   -3.1342   -2.4132   -0.8261 C   0  0  0  0  0  0  0  0  0  0  0  0
   -3.7878   -3.1998   -1.2161 H   0  0  0  0  0  0  0  0  0  0  0  0
   -1.7445   -2.5189   -0.5863 C   0  0  0  0  0  0  0  0  0  0  0  0
   -0.8469   -3.6842   -0.8283 C   0  0  0  0  0  0  0  0  0  0  0  0
   -0.2012   -3.5054   -1.7133 H   0  0  0  0  0  0  0  0  0  0  0  0
   -1.4454   -4.5930   -1.0189 H   0  0  0  0  0  0  0  0  0  0  0  0
   -0.1824   -3.8496    0.0421 H   0  0  0  0  0  0  0  0  0  0  0  0
   -4.8527   -0.4663   -0.6009 C   0  0  0  0  0  0  0  0  0  0  0  0
   -5.4543   -1.0017   -1.3585 H   0  0  0  0  0  0  0  0  0  0  0  0
   -4.7779    0.5970   -0.8999 H   0  0  0  0  0  0  0  0  0  0  0  0
   -5.4164   -0.5087    0.3538 H   0  0  0  0  0  0  0  0  0  0  0  0
   -3.1995    1.3283    1.3430 C   0  0  0  0  0  0  0  0  0  0  0  0
   -3.9107    0.6121    1.7753 H   0  0  0  0  0  0  0  0  0  0  0  0
   -3.2114    2.6682    1.7503 C   0  0  0  0  0  0  0  0  0  0  0  0
   -3.9501    3.0032    2.4924 H   0  0  0  0  0  0  0  0  0  0  0  0
   -2.2795    3.5702    1.2200 C   0  0  0  0  0  0  0  0  0  0  0  0
   -2.2906    4.6277    1.5207 H   0  0  0  0  0  0  0  0  0  0  0  0
   -1.3170    3.1195    0.3039 C   0  0  0  0  0  0  0  0  0  0  0  0
   -0.5891    3.8345   -0.1074 H   0  0  0  0  0  0  0  0  0  0  0  0
  1  5  1  0  0  0  0
  1 17  1  0  0  0  0
  2  9  1  0  0  0  0
  3 18  1  0  0  0  0
  4  3  1  0  0  0  0
  5  7  1  0  0  0  0
  6  5  1  0  0  0  0
  8  5  1  1  0  0  0
  8  2  1  0  0  0  0
  9 10  1  0  0  0  0
 11  9  2  0  0  0  0
 11 12  1  0  0  0  0
 13 11  1  0  0  0  0
 14 13  1  0  0  0  0
 15  8  1  0  0  0  0
 15 13  2  0  0  0  0
 16 15  1  0  0  0  0
 17 37  2  0  0  0  0
 17 18  1  0  0  0  0
 18 31  2  0  0  0  0
 19 27  1  6  0  0  0
 19  3  1  0  0  0  0
 20 22  2  0  0  0  0
 20 19  1  0  0  0  0
 21 20  1  0  0  0  0
 22  4  1  0  0  0  0
 23 22  1  0  0  0  0
 23 26  1  0  0  0  0
 24 23  1  0  0  0  0
 25 23  1  0  0  0  0
 27 30  1  0  0  0  0
 28 27  1  0  0  0  0
 29 27  1  0  0  0  0
 31 33  1  0  0  0  0
 31 32  1  0  0  0  0
 33 34  1  0  0  0  0
 35 36  1  0  0  0  0
 35 33  2  0  0  0  0
 37 35  1  0  0  0  0
 38 37  1  0  0  0  0
M  END
