3,4
q = 0.0, confidence = 1.0

 34 35  0  0  0  0  0  0  0  0999 V2000
    7.1663   -1.9013   -0.3014 Br  0  0  0  0  0  0  0  0  0  0  0  0
   -7.1512   -1.8813    0.1628 Br  0  0  0  0  0  0  0  0  0  0  0  0
    1.3593    2.0586    0.4442 N   0  0  0  0  0  2  0  0  0  0  0  0
   -1.3342    2.0756   -0.3535 N   0  0  0  0  0  2  0  0  0  0  0  0
    3.6190    0.2570   -0.7155 C   0  0  0  0  0  0  0  0  0  0  0  0
    2.7563    0.2737   -1.4041 H   0  0  0  0  0  0  0  0  0  0  0  0
    4.6577   -0.6581   -0.9116 C   0  0  0  0  0  0  0  0  0  0  0  0
    4.6081   -1.3800   -1.7385 H   0  0  0  0  0  0  0  0  0  0  0  0
    5.7636   -0.6487   -0.0454 C   0  0  0  0  0  0  0  0  0  0  0  0
    5.8593    0.2867    1.0007 C   0  0  0  0  0  0  0  0  0  0  0  0
    6.7370    0.2889    1.6616 H   0  0  0  0  0  0  0  0  0  0  0  0
    4.8278    1.2129    1.1768 C   0  0  0  0  0  0  0  0  0  0  0  0
    4.9016    1.9546    1.9876 H   0  0  0  0  0  0  0  0  0  0  0  0
    3.6814    1.1884    0.3468 C   0  0  0  0  0  0  0  0  0  0  0  0
    2.6448    2.1965    0.5661 C   0  0  0  0  0  3  0  0  0  0  0  0
    3.0210    3.1962    0.8767 H   0  0  0  0  0  0  0  0  0  0  0  0
    0.5529    3.2812    0.5623 C   0  0  0  0  0  0  0  0  0  0  0  0
    1.1840    4.1922    0.4882 H   0  0  0  0  0  0  0  0  0  0  0  0
    0.0392    3.2841    1.5484 H   0  0  0  0  0  0  0  0  0  0  0  0
   -0.4848    3.2547   -0.5557 C   0  0  0  0  0  0  0  0  0  0  0  0
   -1.0804    4.1918   -0.5722 H   0  0  0  0  0  0  0  0  0  0  0  0
    0.0375    3.1213   -1.5288 H   0  0  0  0  0  0  0  0  0  0  0  0
   -2.5962    2.2044   -0.6190 C   0  0  0  0  0  3  0  0  0  0  0  0
   -2.9331    3.1688   -1.0584 H   0  0  0  0  0  0  0  0  0  0  0  0
   -3.6516    1.2105   -0.4083 C   0  0  0  0  0  0  0  0  0  0  0  0
   -3.7224    0.4155    0.7576 C   0  0  0  0  0  0  0  0  0  0  0  0
   -2.9621    0.5246    1.5412 H   0  0  0  0  0  0  0  0  0  0  0  0
   -4.7647   -0.4987    0.9342 C   0  0  0  0  0  0  0  0  0  0  0  0
   -4.8163   -1.1134    1.8433 H   0  0  0  0  0  0  0  0  0  0  0  0
   -5.7464   -0.6270   -0.0630 C   0  0  0  0  0  0  0  0  0  0  0  0
   -5.7124    0.1718   -1.2193 C   0  0  0  0  0  0  0  0  0  0  0  0
   -6.4925    0.0672   -1.9859 H   0  0  0  0  0  0  0  0  0  0  0  0
   -4.6781    1.0996   -1.3742 C   0  0  0  0  0  0  0  0  0  0  0  0
   -4.6498    1.7310   -2.2758 H   0  0  0  0  0  0  0  0  0  0  0  0
  1  9  1  0  0  0  0
  3 17  1  0  0  0  0
  3 15  1  0  0  0  0
  5 14  1  0  0  0  0
  6  5  1  0  0  0  0
  7  5  2  0  0  0  0
  7  9  1  0  0  0  0
  8  7  1  0  0  0  0
  9 10  2  0  0  0  0
 10 12  1  0  0  0  0
 10 11  1  0  0  0  0
 12 13  1  0  0  0  0
 14 15  1  0  0  0  0
 14 12  2  0  0  0  0
 15 16  1  0  0  0  0
 17 19  1  0  0  0  0
 18 17  1  0  0  0  0
 20  4  1  0  0  0  0
 20 17  1  0  0  0  0
 21 20  1  0  0  0  0
 22 20  1  0  0  0  0
 23 25  1  0  0  0  0
 23  4  1  0  0  0  0
 24 23  1  0  0  0  0
 25 26  1  0  0  0  0
 26 28  2  0  0  0  0
 26 27  1  0  0  0  0
 28 29  1  0  0  0  0
 30  2  1  0  0  0  0
 30 28  1  0  0  0  0
 31 30  2  0  0  0  0
 32 31  1  0  0  0  0
 33 31  1  0  0  0  0
 33 25  2  0  0  0  0
 34 33  1  0  0  0  0
M  END
