1,2
q = -1.0

 40 40  0  0  1  0  0  0  0  0999 V2000
   -0.4137    1.1413   -0.3848 N   0  0  0  0  0  2  0  0  0  0  0  0
   -0.4509   -1.0857   -0.4591 N   0  0  0  0  0  2  0  0  0  0  0  0
   -1.1782    0.0441   -0.5298 C   0  0  1  0  0  3  0  0  0  0  0  0
   -2.6848   -0.0164   -0.6712 C   0  0  0  0  0  0  0  0  0  0  0  0
   -3.3842   -0.2061    0.6984 C   0  0  0  0  0  0  0  0  0  0  0  0
   -4.8856   -0.2936    0.5577 C   0  0  0  0  0  0  0  0  0  0  0  0
   -5.5012   -1.5069    0.1874 C   0  0  0  0  0  0  0  0  0  0  0  0
   -6.8897   -1.5836    0.0061 C   0  0  0  0  0  0  0  0  0  0  0  0
   -7.6880   -0.4432    0.1915 C   0  0  0  0  0  0  0  0  0  0  0  0
   -7.0881    0.7707    0.5605 C   0  0  0  0  0  0  0  0  0  0  0  0
   -5.6982    0.8431    0.7407 C   0  0  0  0  0  0  0  0  0  0  0  0
   -0.8394    2.5407   -0.6339 C   0  0  0  0  0  0  0  0  0  0  0  0
   -2.0760    2.9695    0.1915 C   0  0  0  0  0  0  0  0  0  0  0  0
   -1.0958    2.7351   -2.1441 C   0  0  0  0  0  0  0  0  0  0  0  0
    0.3069    3.4778   -0.2095 C   0  0  0  0  0  0  0  0  0  0  0  0
   -0.9748   -2.4279   -0.6348 C   0  0  0  0  0  0  0  0  0  0  0  0
   -1.1609   -2.8389   -2.1001 C   0  0  0  0  0  0  0  0  0  0  0  0
   -2.9504   -0.8675   -1.3269 H   0  0  0  0  0  0  0  0  0  0  0  0
   -3.0767    0.8880   -1.1675 H   0  0  0  0  0  0  0  0  0  0  0  0
   -2.9946   -1.1284    1.1774 H   0  0  0  0  0  0  0  0  0  0  0  0
   -3.1121    0.6343    1.3667 H   0  0  0  0  0  0  0  0  0  0  0  0
   -4.8800   -2.4064    0.0448 H   0  0  0  0  0  0  0  0  0  0  0  0
   -7.3529   -2.5409   -0.2778 H   0  0  0  0  0  0  0  0  0  0  0  0
   -8.7780   -0.5023    0.0519 H   0  0  0  0  0  0  0  0  0  0  0  0
   -7.7070    1.6681    0.7129 H   0  0  0  0  0  0  0  0  0  0  0  0
   -5.2327    1.7973    1.0359 H   0  0  0  0  0  0  0  0  0  0  0  0
   -1.9267    2.7406    1.2654 H   0  0  0  0  0  0  0  0  0  0  0  0
   -3.0202    2.5020   -0.1407 H   0  0  0  0  0  0  0  0  0  0  0  0
   -2.2121    4.0655    0.0997 H   0  0  0  0  0  0  0  0  0  0  0  0
   -1.9177    2.0872   -2.5094 H   0  0  0  0  0  0  0  0  0  0  0  0
   -0.1792    2.4857   -2.7146 H   0  0  0  0  0  0  0  0  0  0  0  0
   -1.3696    3.7867   -2.3655 H   0  0  0  0  0  0  0  0  0  0  0  0
    1.2452    3.2308   -0.7367 H   0  0  0  0  0  0  0  0  0  0  0  0
    0.4831    3.4098    0.8805 H   0  0  0  0  0  0  0  0  0  0  0  0
    0.0389    4.5267   -0.4439 H   0  0  0  0  0  0  0  0  0  0  0  0
   -1.9295   -2.5587   -0.0755 H   0  0  0  0  0  0  0  0  0  0  0  0
   -0.2516   -3.1255   -0.1644 H   0  0  0  0  0  0  0  0  0  0  0  0
   -0.1956   -2.7678   -2.6373 H   0  0  0  0  0  0  0  0  0  0  0  0
   -1.8939   -2.1903   -2.6219 H   0  0  0  0  0  0  0  0  0  0  0  0
   -1.5251   -3.8845   -2.1662 H   0  0  0  0  0  0  0  0  0  0  0  0
  3  2  1  1  0  0  0
  3  1  1  0  0  0  0
  4  3  1  0  0  0  0
  4  5  1  0  0  0  0
  5 20  1  0  0  0  0
  5 21  1  0  0  0  0
  6  5  1  0  0  0  0
  6 11  1  0  0  0  0
  7  6  2  0  0  0  0
  8  7  1  0  0  0  0
  8  9  2  0  0  0  0
  9 10  1  0  0  0  0
 10 25  1  0  0  0  0
 10 11  2  0  0  0  0
 11 26  1  0  0  0  0
 12  1  1  0  0  0  0
 12 15  1  0  0  0  0
 12 13  1  0  0  0  0
 13 27  1  0  0  0  0
 14 12  1  0  0  0  0
 15 34  1  0  0  0  0
 16  2  1  0  0  0  0
 16 37  1  0  0  0  0
 16 36  1  0  0  0  0
 17 16  1  0  0  0  0
 18  4  1  0  0  0  0
 19  4  1  0  0  0  0
 22  7  1  0  0  0  0
 23  8  1  0  0  0  0
 24  9  1  0  0  0  0
 28 13  1  0  0  0  0
 29 13  1  0  0  0  0
 30 14  1  0  0  0  0
 31 14  1  0  0  0  0
 32 14  1  0  0  0  0
 33 15  1  0  0  0  0
 35 15  1  0  0  0  0
 38 17  1  0  0  0  0
 39 17  1  0  0  0  0
 40 17  1  0  0  0  0
M  END
