2,3
q = -1.0

 30 29  0  0  1  0  0  0  0  0999 V2000
   -5.6750   -0.8143    0.7997 Cl  0  0  0  0  0  0  0  0  0  0  0  0
   -1.1676    0.9519   -0.3071 N   0  0  0  0  0  2  0  0  0  0  0  0
   -0.9269   -1.2645   -0.3916 N   0  0  0  0  0  2  0  0  0  0  0  0
   -1.7880   -0.2341   -0.4271 C   0  0  1  0  0  3  0  0  0  0  0  0
   -3.2850   -0.4726   -0.5159 C   0  0  0  0  0  0  0  0  0  0  0  0
   -3.8781   -0.6990    0.8762 C   0  0  0  0  0  0  0  0  0  0  0  0
   -1.7827    2.2860   -0.5238 C   0  0  0  0  0  0  0  0  0  0  0  0
   -3.0193    2.5516    0.3681 C   0  0  0  0  0  0  0  0  0  0  0  0
   -2.1369    2.4505   -2.0178 C   0  0  0  0  0  0  0  0  0  0  0  0
   -0.7447    3.3609   -0.1502 C   0  0  0  0  0  0  0  0  0  0  0  0
   -1.2907   -2.6620   -0.5425 C   0  0  0  0  0  0  0  0  0  0  0  0
   -1.4867   -3.1019   -1.9979 C   0  0  0  0  0  0  0  0  0  0  0  0
   -3.4849   -1.3616   -1.1429 H   0  0  0  0  0  0  0  0  0  0  0  0
   -3.7912    0.3800   -0.9989 H   0  0  0  0  0  0  0  0  0  0  0  0
   -3.6370    0.1366    1.5587 H   0  0  0  0  0  0  0  0  0  0  0  0
   -3.5088   -1.6388    1.3300 H   0  0  0  0  0  0  0  0  0  0  0  0
   -3.9126    1.9575    0.1024 H   0  0  0  0  0  0  0  0  0  0  0  0
   -3.3095    3.6171    0.2758 H   0  0  0  0  0  0  0  0  0  0  0  0
   -2.7767    2.3675    1.4338 H   0  0  0  0  0  0  0  0  0  0  0  0
   -1.2263    2.3208   -2.6356 H   0  0  0  0  0  0  0  0  0  0  0  0
   -2.5504    3.4605   -2.2141 H   0  0  0  0  0  0  0  0  0  0  0  0
   -2.8894    1.7081   -2.3510 H   0  0  0  0  0  0  0  0  0  0  0  0
   -0.5015    3.3110    0.9277 H   0  0  0  0  0  0  0  0  0  0  0  0
   -1.1578    4.3675   -0.3574 H   0  0  0  0  0  0  0  0  0  0  0  0
    0.1875    3.2395   -0.7297 H   0  0  0  0  0  0  0  0  0  0  0  0
   -2.1981   -2.9035    0.0573 H   0  0  0  0  0  0  0  0  0  0  0  0
   -0.4699   -3.2633   -0.1006 H   0  0  0  0  0  0  0  0  0  0  0  0
   -2.3151   -2.5508   -2.4882 H   0  0  0  0  0  0  0  0  0  0  0  0
   -1.7237   -4.1841   -2.0466 H   0  0  0  0  0  0  0  0  0  0  0  0
   -0.5612   -2.9171   -2.5762 H   0  0  0  0  0  0  0  0  0  0  0  0
  1  6  1  0  0  0  0
  4  3  1  1  0  0  0
  4  2  1  0  0  0  0
  5  4  1  0  0  0  0
  5  6  1  0  0  0  0
  6 16  1  0  0  0  0
  6 15  1  0  0  0  0
  7  2  1  0  0  0  0
  7 10  1  0  0  0  0
  7  8  1  0  0  0  0
  8 19  1  0  0  0  0
  9  7  1  0  0  0  0
 10 23  1  0  0  0  0
 11  3  1  0  0  0  0
 11 27  1  0  0  0  0
 11 26  1  0  0  0  0
 12 11  1  0  0  0  0
 13  5  1  0  0  0  0
 14  5  1  0  0  0  0
 17  8  1  0  0  0  0
 18  8  1  0  0  0  0
 20  9  1  0  0  0  0
 21  9  1  0  0  0  0
 22  9  1  0  0  0  0
 24 10  1  0  0  0  0
 25 10  1  0  0  0  0
 28 12  1  0  0  0  0
 29 12  1  0  0  0  0
 30 12  1  0  0  0  0
M  END
