4,6
q = 0.0, confidence = 1.0

 57 59  0  0  1  0  0  0  0  0999 V2000
    5.1713    1.0532    0.1779 S   0  0  0  0  0  0  0  0  0  0  0  0
    4.6087    1.1336    1.4208 H   0  0  0  0  0  0  0  0  0  0  0  0
    0.9466    1.2318   -1.0086 N   0  0  0  0  0  0  0  0  0  0  0  0
   -0.1773    0.4893   -0.8099 N   0  0  0  0  0  2  0  0  0  0  0  0
    1.8741    1.2465    1.2099 N   0  0  0  0  0  0  0  0  0  0  0  0
    1.1622    0.3287    1.9146 N   0  0  0  0  0  2  0  0  0  0  0  0
    4.2608   -0.4142   -0.3571 C   0  0  0  0  0  0  0  0  0  0  0  0
    4.9336   -1.6295   -0.6760 C   0  0  0  0  0  0  0  0  0  0  0  0
    6.4720   -1.8192   -0.6208 C   0  0  0  0  0  0  0  0  0  0  0  0
    6.8933   -3.2295   -1.0854 C   0  0  0  0  0  0  0  0  0  0  0  0
    6.5845   -3.4387   -2.1292 H   0  0  0  0  0  0  0  0  0  0  0  0
    6.4867   -4.0272   -0.4326 H   0  0  0  0  0  0  0  0  0  0  0  0
    7.9981   -3.3040   -1.0453 H   0  0  0  0  0  0  0  0  0  0  0  0
    6.9846   -1.6583    0.8303 C   0  0  0  0  0  0  0  0  0  0  0  0
    6.5032   -2.4032    1.4955 H   0  0  0  0  0  0  0  0  0  0  0  0
    6.7852   -0.6494    1.2342 H   0  0  0  0  0  0  0  0  0  0  0  0
    8.0804   -1.8292    0.8622 H   0  0  0  0  0  0  0  0  0  0  0  0
    7.1684   -0.8193   -1.5747 C   0  0  0  0  0  0  0  0  0  0  0  0
    6.8109   -0.9595   -2.6149 H   0  0  0  0  0  0  0  0  0  0  0  0
    8.2645   -0.9908   -1.5646 H   0  0  0  0  0  0  0  0  0  0  0  0
    6.9993    0.2356   -1.2895 H   0  0  0  0  0  0  0  0  0  0  0  0
    4.1243   -2.7185   -1.0640 C   0  0  0  0  0  0  0  0  0  0  0  0
    4.6020   -3.6771   -1.3011 H   0  0  0  0  0  0  0  0  0  0  0  0
    2.7260   -2.6586   -1.1555 C   0  0  0  0  0  0  0  0  0  0  0  0
    1.8985   -3.8582   -1.5259 C   0  0  0  0  0  0  0  0  0  0  0  0
    1.3166   -3.6744   -2.4522 H   0  0  0  0  0  0  0  0  0  0  0  0
    1.1499   -4.0577   -0.7302 H   0  0  0  0  0  0  0  0  0  0  0  0
    2.5230   -4.7592   -1.6778 H   0  0  0  0  0  0  0  0  0  0  0  0
    2.0991   -1.4342   -0.8755 C   0  0  0  0  0  0  0  0  0  0  0  0
    1.0069   -1.3785   -0.9529 H   0  0  0  0  0  0  0  0  0  0  0  0
    2.8445   -0.3140   -0.4853 C   0  0  0  0  0  0  0  0  0  0  0  0
    2.1479    1.0222   -0.2051 C   0  0  1  0  0  0  0  0  0  0  0  0
    2.8547    1.8238   -0.4909 H   0  0  0  0  0  0  0  0  0  0  0  0
    0.8614    1.9710   -2.1614 C   0  0  2  0  0  3  0  0  0  0  0  0
    1.9345    2.9064   -2.6081 C   0  0  0  0  0  0  0  0  0  0  0  0
    2.9192    2.4055   -2.7081 H   0  0  0  0  0  0  0  0  0  0  0  0
    2.0461    3.7511   -1.8966 H   0  0  0  0  0  0  0  0  0  0  0  0
    1.6694    3.3327   -3.5923 H   0  0  0  0  0  0  0  0  0  0  0  0
   -0.3846    1.6786   -2.7149 C   0  0  0  0  0  0  0  0  0  0  0  0
   -0.8047    2.1032   -3.6321 H   0  0  0  0  0  0  0  0  0  0  0  0
   -1.0017    0.7439   -1.8467 C   0  0  0  0  0  0  0  0  0  0  0  0
   -2.3131    0.0489   -1.9953 C   0  0  0  0  0  0  0  0  0  0  0  0
   -2.7395   -0.2155   -1.0081 H   0  0  0  0  0  0  0  0  0  0  0  0
   -2.1878   -0.8904   -2.5715 H   0  0  0  0  0  0  0  0  0  0  0  0
   -3.0414    0.6849   -2.5312 H   0  0  0  0  0  0  0  0  0  0  0  0
    1.1646    0.7408    3.1981 C   0  0  0  0  0  0  0  0  0  0  0  0
    0.3605    0.0209    4.2279 C   0  0  0  0  0  0  0  0  0  0  0  0
    0.2307   -1.0449    3.9563 H   0  0  0  0  0  0  0  0  0  0  0  0
   -0.6538    0.4724    4.2832 H   0  0  0  0  0  0  0  0  0  0  0  0
    0.8303    0.0925    5.2268 H   0  0  0  0  0  0  0  0  0  0  0  0
    1.9083    1.9414    3.3068 C   0  0  0  0  0  0  0  0  0  0  0  0
    2.0750    2.5377    4.2096 H   0  0  0  0  0  0  0  0  0  0  0  0
    2.3217    2.2678    2.0140 C   0  0  2  0  0  3  0  0  0  0  0  0
    2.9277    3.5256    1.4868 C   0  0  0  0  0  0  0  0  0  0  0  0
    3.7486    3.3448    0.7639 H   0  0  0  0  0  0  0  0  0  0  0  0
    3.3277    4.1298    2.3213 H   0  0  0  0  0  0  0  0  0  0  0  0
    2.1411    4.1236    0.9795 H   0  0  0  0  0  0  0  0  0  0  0  0
  1  2  1  0  0  0  0
  3  4  1  0  0  0  0
  3 32  1  0  0  0  0
  5  6  1  0  0  0  0
  5 53  1  0  0  0  0
  6 46  1  0  0  0  0
  7  1  1  0  0  0  0
  8  9  1  0  0  0  0
  8  7  2  0  0  0  0
  9 14  1  0  0  0  0
 10 13  1  0  0  0  0
 10  9  1  0  0  0  0
 10 12  1  0  0  0  0
 11 10  1  0  0  0  0
 14 17  1  0  0  0  0
 14 16  1  0  0  0  0
 14 15  1  0  0  0  0
 18 20  1  0  0  0  0
 18 21  1  0  0  0  0
 18  9  1  0  0  0  0
 19 18  1  0  0  0  0
 22  8  1  0  0  0  0
 23 22  1  0  0  0  0
 24 22  2  0  0  0  0
 24 29  1  0  0  0  0
 25 24  1  0  0  0  0
 25 27  1  0  0  0  0
 26 25  1  0  0  0  0
 28 25  1  0  0  0  0
 29 31  2  0  0  0  0
 30 29  1  0  0  0  0
 31  7  1  0  0  0  0
 31 32  1  0  0  0  0
 32 33  1  6  0  0  0
 32  5  1  0  0  0  0
 34 35  1  1  0  0  0
 34  3  1  0  0  0  0
 35 37  1  0  0  0  0
 36 35  1  0  0  0  0
 38 35  1  0  0  0  0
 39 34  1  0  0  0  0
 39 41  2  0  0  0  0
 40 39  1  0  0  0  0
 41  4  1  0  0  0  0
 42 41  1  0  0  0  0
 42 43  1  0  0  0  0
 44 42  1  0  0  0  0
 45 42  1  0  0  0  0
 46 51  2  0  0  0  0
 46 47  1  0  0  0  0
 47 49  1  0  0  0  0
 47 50  1  0  0  0  0
 48 47  1  0  0  0  0
 51 52  1  0  0  0  0
 53 54  1  6  0  0  0
 53 51  1  0  0  0  0
 54 56  1  0  0  0  0
 55 54  1  0  0  0  0
 57 54  1  0  0  0  0
M  END
