7,8
q = -1.0

 72 76  0  0  0  0  0  0  0  0999 V2000
    7.2526    1.5251    2.0283 F   0  0  0  0  0  0  0  0  0  0  0  0
    5.9692    3.1128    1.2574 F   0  0  0  0  0  0  0  0  0  0  0  0
    5.3130    1.9192    2.9581 F   0  0  0  0  0  0  0  0  0  0  0  0
    7.5424   -1.3659   -1.8622 F   0  0  0  0  0  0  0  0  0  0  0  0
    5.7476   -1.8207   -3.0253 F   0  0  0  0  0  0  0  0  0  0  0  0
    6.2266   -2.9983   -1.2555 F   0  0  0  0  0  0  0  0  0  0  0  0
   -0.2699   -1.4055   -0.1122 N   0  0  0  0  0  0  0  0  0  0  0  0
   -0.3276    1.2488   -0.5421 N   0  0  0  0  0  0  0  0  0  0  0  0
   -0.6584    2.5578   -0.7401 C   0  0  0  0  0  0  0  0  0  0  0  0
    0.5306    3.3397   -0.8598 C   0  0  0  0  0  0  0  0  0  0  0  0
    0.5496    4.4198   -1.0453 H   0  0  0  0  0  0  0  0  0  0  0  0
    1.6147    2.4771   -0.7186 C   0  0  0  0  0  0  0  0  0  0  0  0
    2.6791    2.7253   -0.7905 H   0  0  0  0  0  0  0  0  0  0  0  0
    1.0763    1.1648   -0.4985 C   0  0  0  0  0  3  0  0  0  0  0  0
    1.7707   -0.0381   -0.2501 C   0  0  0  0  0  3  0  0  0  0  0  0
    1.1228   -1.2764   -0.0546 C   0  0  0  0  0  0  0  0  0  0  0  0
    1.6817   -2.5534    0.2901 C   0  0  0  0  0  0  0  0  0  0  0  0
    2.7482   -2.7757    0.4031 H   0  0  0  0  0  0  0  0  0  0  0  0
    0.6113   -3.4352    0.4385 C   0  0  0  0  0  0  0  0  0  0  0  0
    0.6517   -4.5018    0.6880 H   0  0  0  0  0  0  0  0  0  0  0  0
   -0.5847   -2.6974    0.1884 C   0  0  0  0  0  3  0  0  0  0  0  0
   -1.9949   -3.1567    0.1970 C   0  0  0  0  0  0  0  0  0  0  0  0
   -1.9313   -3.2624   -2.3496 C   0  0  0  0  0  0  0  0  0  0  0  0
   -1.9392   -2.1994   -2.6714 H   0  0  0  0  0  0  0  0  0  0  0  0
   -2.4282   -3.8484   -3.1466 H   0  0  0  0  0  0  0  0  0  0  0  0
   -0.8740   -3.5846   -2.2778 H   0  0  0  0  0  0  0  0  0  0  0  0
   -1.9638   -3.1808    2.7435 C   0  0  0  0  0  0  0  0  0  0  0  0
   -1.2740   -4.0299    2.9340 H   0  0  0  0  0  0  0  0  0  0  0  0
   -2.6794   -3.1325    3.5867 H   0  0  0  0  0  0  0  0  0  0  0  0
   -1.3388   -2.2670    2.7617 H   0  0  0  0  0  0  0  0  0  0  0  0
   -2.6780   -3.3494    1.4262 C   0  0  0  0  0  0  0  0  0  0  0  0
   -2.6540   -3.4134   -1.0356 C   0  0  0  0  0  0  0  0  0  0  0  0
   -4.0065   -3.7899   -1.0134 C   0  0  0  0  0  0  0  0  0  0  0  0
   -4.5196   -3.9741   -1.9712 H   0  0  0  0  0  0  0  0  0  0  0  0
   -4.0339   -3.7197    1.3977 C   0  0  0  0  0  0  0  0  0  0  0  0
   -4.5689   -3.8513    2.3527 H   0  0  0  0  0  0  0  0  0  0  0  0
   -4.7221   -3.9300    0.1891 C   0  0  0  0  0  0  0  0  0  0  0  0
   -6.1875   -4.2849    0.1746 C   0  0  0  0  0  0  0  0  0  0  0  0
   -6.8012   -3.4195   -0.1558 H   0  0  0  0  0  0  0  0  0  0  0  0
   -6.5476   -4.5866    1.1775 H   0  0  0  0  0  0  0  0  0  0  0  0
   -6.3983   -5.1134   -0.5317 H   0  0  0  0  0  0  0  0  0  0  0  0
   -2.0609    3.0272   -0.8614 C   0  0  0  0  0  0  0  0  0  0  0  0
   -2.6591    3.0626   -2.1517 C   0  0  0  0  0  0  0  0  0  0  0  0
   -1.8885    2.5986   -3.3600 C   0  0  0  0  0  0  0  0  0  0  0  0
   -0.8911    3.0785   -3.4228 H   0  0  0  0  0  0  0  0  0  0  0  0
   -2.4415    2.8069   -4.2957 H   0  0  0  0  0  0  0  0  0  0  0  0
   -1.7204    1.5030   -3.3035 H   0  0  0  0  0  0  0  0  0  0  0  0
   -2.1648    3.5185    1.6466 C   0  0  0  0  0  0  0  0  0  0  0  0
   -2.7060    2.8649    2.3614 H   0  0  0  0  0  0  0  0  0  0  0  0
   -2.2135    4.5488    2.0564 H   0  0  0  0  0  0  0  0  0  0  0  0
   -1.1036    3.2089    1.6370 H   0  0  0  0  0  0  0  0  0  0  0  0
   -2.7863    3.4618    0.2725 C   0  0  0  0  0  0  0  0  0  0  0  0
   -4.1244    3.8714    0.1064 C   0  0  0  0  0  0  0  0  0  0  0  0
   -4.6931    4.1997    0.9923 H   0  0  0  0  0  0  0  0  0  0  0  0
   -3.9882    3.4886   -2.2701 C   0  0  0  0  0  0  0  0  0  0  0  0
   -4.4541    3.4994   -3.2690 H   0  0  0  0  0  0  0  0  0  0  0  0
   -4.7470    3.8831   -1.1504 C   0  0  0  0  0  0  0  0  0  0  0  0
   -6.1898    4.2914   -1.3094 C   0  0  0  0  0  0  0  0  0  0  0  0
   -6.8224    3.4163   -1.5703 H   0  0  0  0  0  0  0  0  0  0  0  0
   -6.3155    5.0311   -2.1266 H   0  0  0  0  0  0  0  0  0  0  0  0
   -6.5967    4.7341   -0.3795 H   0  0  0  0  0  0  0  0  0  0  0  0
    3.2555    0.0014   -0.1658 C   0  0  0  0  0  0  0  0  0  0  0  0
    3.9043    0.8510    0.7522 C   0  0  0  0  0  0  0  0  0  0  0  0
    3.3049    1.4830    1.4223 H   0  0  0  0  0  0  0  0  0  0  0  0
    5.3051    0.8839    0.8255 C   0  0  0  0  0  0  0  0  0  0  0  0
    6.0816    0.0585   -0.0010 C   0  0  0  0  0  0  0  0  0  0  0  0
    7.1774    0.0801    0.0632 H   0  0  0  0  0  0  0  0  0  0  0  0
    5.4402   -0.7953   -0.9102 C   0  0  0  0  0  0  0  0  0  0  0  0
    4.0401   -0.8189   -1.0008 C   0  0  0  0  0  0  0  0  0  0  0  0
    3.5473   -1.4725   -1.7344 H   0  0  0  0  0  0  0  0  0  0  0  0
    5.9673    1.8581    1.7733 C   0  0  0  0  0  0  0  0  0  0  0  0
    6.2469   -1.7425   -1.7697 C   0  0  0  0  0  0  0  0  0  0  0  0
  2 71  1  0  0  0  0
  4 72  1  0  0  0  0
  5 72  1  0  0  0  0
  7 16  2  0  0  0  0
  7 21  1  0  0  0  0
  8 14  1  0  0  0  0
  9  8  2  0  0  0  0
 10  9  1  0  0  0  0
 10 12  2  0  0  0  0
 11 10  1  0  0  0  0
 12 14  1  0  0  0  0
 13 12  1  0  0  0  0
 14 15  1  0  0  0  0
 15 62  1  0  0  0  0
 15 16  1  0  0  0  0
 16 17  1  0  0  0  0
 17 18  1  0  0  0  0
 17 19  2  0  0  0  0
 19 20  1  0  0  0  0
 21 22  1  0  0  0  0
 21 19  1  0  0  0  0
 22 31  1  0  0  0  0
 23 26  1  0  0  0  0
 23 32  1  0  0  0  0
 24 23  1  0  0  0  0
 25 23  1  0  0  0  0
 27 30  1  0  0  0  0
 27 28  1  0  0  0  0
 27 29  1  0  0  0  0
 31 27  1  0  0  0  0
 32 33  1  0  0  0  0
 32 22  2  0  0  0  0
 33 37  2  0  0  0  0
 34 33  1  0  0  0  0
 35 31  2  0  0  0  0
 35 36  1  0  0  0  0
 37 35  1  0  0  0  0
 38 37  1  0  0  0  0
 38 40  1  0  0  0  0
 39 38  1  0  0  0  0
 41 38  1  0  0  0  0
 42  9  1  0  0  0  0
 42 52  1  0  0  0  0
 43 42  2  0  0  0  0
 44 47  1  0  0  0  0
 44 43  1  0  0  0  0
 45 44  1  0  0  0  0
 46 44  1  0  0  0  0
 48 50  1  0  0  0  0
 48 49  1  0  0  0  0
 51 48  1  0  0  0  0
 52 48  1  0  0  0  0
 53 52  2  0  0  0  0
 53 54  1  0  0  0  0
 55 43  1  0  0  0  0
 55 57  2  0  0  0  0
 56 55  1  0  0  0  0
 57 53  1  0  0  0  0
 58 57  1  0  0  0  0
 58 61  1  0  0  0  0
 59 58  1  0  0  0  0
 60 58  1  0  0  0  0
 62 63  1  0  0  0  0
 63 65  2  0  0  0  0
 63 64  1  0  0  0  0
 65 71  1  0  0  0  0
 66 67  1  0  0  0  0
 66 65  1  0  0  0  0
 68 66  2  0  0  0  0
 69 68  1  0  0  0  0
 69 62  2  0  0  0  0
 70 69  1  0  0  0  0
 71  1  1  0  0  0  0
 71  3  1  0  0  0  0
 72  6  1  0  0  0  0
 72 68  1  0  0  0  0
M  END
