5,6
q = -1.0

 41 44  0  0  1  0  0  0  0  0999 V2000
    2.2270   -1.1521   -0.8809 S   0  0  0  0  0  0  0  0  0  0  0  0
    0.1446    3.6523    1.5247 O   0  0  0  0  0  0  0  0  0  0  0  0
    1.5605   -1.1976   -2.2047 O   0  0  0  0  0  0  0  0  0  0  0  0
    2.5531   -2.4403   -0.2097 O   0  0  0  0  0  0  0  0  0  0  0  0
   -0.7877    1.7799    0.6915 N   0  0  0  0  0  2  0  0  0  0  0  0
    1.3332   -0.0869    0.0705 N   0  0  0  0  0  2  0  0  0  0  0  0
   -1.6965    2.8300    0.5216 C   0  0  0  0  0  0  0  0  0  0  0  0
   -2.9950    2.8921   -0.0124 C   0  0  0  0  0  0  0  0  0  0  0  0
   -3.4930    1.9956   -0.4000 H   0  0  0  0  0  0  0  0  0  0  0  0
   -3.6276    4.1443   -0.0064 C   0  0  0  0  0  0  0  0  0  0  0  0
   -4.6452    4.2268   -0.4162 H   0  0  0  0  0  0  0  0  0  0  0  0
   -3.0011    5.2994    0.5135 C   0  0  0  0  0  0  0  0  0  0  0  0
   -3.5373    6.2598    0.4954 H   0  0  0  0  0  0  0  0  0  0  0  0
   -1.7080    5.2472    1.0619 C   0  0  0  0  0  0  0  0  0  0  0  0
   -1.2069    6.1311    1.4794 H   0  0  0  0  0  0  0  0  0  0  0  0
   -1.0968    3.9949    1.0488 C   0  0  0  0  0  0  0  0  0  0  0  0
    0.2812    2.3060    1.2841 C   0  0  2  0  0  3  0  0  0  0  0  0
    1.4635    1.6437    1.7875 C   0  0  0  0  0  0  0  0  0  0  0  0
    2.1424    2.2389    2.8808 C   0  0  0  0  0  0  0  0  0  0  0  0
    1.7621    3.1933    3.2719 H   0  0  0  0  0  0  0  0  0  0  0  0
    3.2467    1.6255    3.4677 C   0  0  0  0  0  0  0  0  0  0  0  0
    3.7560    2.0944    4.3218 H   0  0  0  0  0  0  0  0  0  0  0  0
    3.6755    0.3822    2.9626 C   0  0  0  0  0  0  0  0  0  0  0  0
    4.5211   -0.1411    3.4356 H   0  0  0  0  0  0  0  0  0  0  0  0
    3.0380   -0.2148    1.8756 C   0  0  0  0  0  0  0  0  0  0  0  0
    3.3679   -1.1976    1.5166 H   0  0  0  0  0  0  0  0  0  0  0  0
    1.9345    0.4053    1.2199 C   0  0  0  0  0  0  0  0  0  0  0  0
    3.7938   -0.2755   -1.1285 C   0  0  0  0  0  0  0  0  0  0  0  0
    4.9839   -1.0104   -1.0868 C   0  0  0  0  0  0  0  0  0  0  0  0
    4.9420   -2.0798   -0.8331 H   0  0  0  0  0  0  0  0  0  0  0  0
    6.1989   -0.3636   -1.3574 C   0  0  0  0  0  0  0  0  0  0  0  0
    7.1375   -0.9392   -1.3248 H   0  0  0  0  0  0  0  0  0  0  0  0
    6.2429    1.0109   -1.6628 C   0  0  0  0  0  0  0  0  0  0  0  0
    5.0252    1.7271   -1.6947 C   0  0  0  0  0  0  0  0  0  0  0  0
    5.0377    2.8048   -1.9233 H   0  0  0  0  0  0  0  0  0  0  0  0
    3.8052    1.0941   -1.4365 C   0  0  0  0  0  0  0  0  0  0  0  0
    2.8636    1.6631   -1.4473 H   0  0  0  0  0  0  0  0  0  0  0  0
    7.5478    1.7108   -1.9452 C   0  0  0  0  0  0  0  0  0  0  0  0
    8.4085    1.0190   -1.8682 H   0  0  0  0  0  0  0  0  0  0  0  0
    7.7177    2.5468   -1.2350 H   0  0  0  0  0  0  0  0  0  0  0  0
    7.5555    2.1508   -2.9644 H   0  0  0  0  0  0  0  0  0  0  0  0
  1  4  2  0  0  0  0
  1  6  1  0  0  0  0
  3  1  2  0  0  0  0
  5 17  1  0  0  0  0
  6 27  1  0  0  0  0
  7  5  1  0  0  0  0
  7 16  1  0  0  0  0
  8 10  1  0  0  0  0
  8  7  2  0  0  0  0
  9  8  1  0  0  0  0
 10 12  2  0  0  0  0
 11 10  1  0  0  0  0
 12 14  1  0  0  0  0
 13 12  1  0  0  0  0
 14 15  1  0  0  0  0
 16 14  2  0  0  0  0
 16  2  1  0  0  0  0
 17  2  1  0  0  0  0
 17 18  1  1  0  0  0
 18 19  1  0  0  0  0
 19 20  1  0  0  0  0
 19 21  2  0  0  0  0
 21 22  1  0  0  0  0
 23 24  1  0  0  0  0
 23 21  1  0  0  0  0
 25 23  2  0  0  0  0
 26 25  1  0  0  0  0
 27 18  2  0  0  0  0
 27 25  1  0  0  0  0
 28 29  1  0  0  0  0
 28  1  1  0  0  0  0
 29 30  1  0  0  0  0
 31 32  1  0  0  0  0
 31 29  2  0  0  0  0
 33 31  1  0  0  0  0
 34 33  2  0  0  0  0
 34 36  1  0  0  0  0
 35 34  1  0  0  0  0
 36 28  2  0  0  0  0
 37 36  1  0  0  0  0
 38 39  1  0  0  0  0
 38 33  1  0  0  0  0
 38 40  1  0  0  0  0
 41 38  1  0  0  0  0
M  END
