8,15
q = -1.0, confidence = 0.0

 17 16  0  0  0  0  0  0  0  0999 V2000
    2.3298   -0.9633   -2.3060 C   0  0  0  0  0  0  0  0  0  0  0  0
    3.0116   -0.6918   -3.1330 H   0  0  0  0  0  0  0  0  0  0  0  0
    1.2737   -0.7667   -2.5617 H   0  0  0  0  0  0  0  0  0  0  0  0
    2.4549   -2.0224   -2.0185 H   0  0  0  0  0  0  0  0  0  0  0  0
    2.8012    0.0746   -0.8996 S   0  0  0  0  0  0  0  0  0  0  0  0
    4.1735   -0.3389   -0.5117 O   0  0  0  0  0  0  0  0  0  0  0  0
    2.5770    1.4783   -1.3485 O   0  0  0  0  0  0  0  0  0  0  0  0
    1.7712   -0.2727    0.3563 N   0  0  0  0  0  2  0  0  0  0  0  0
    2.1959   -1.3985    1.1879 C   0  0  0  0  0  0  0  0  0  0  0  0
    3.2827   -1.3391    1.3962 H   0  0  0  0  0  0  0  0  0  0  0  0
    1.9910   -2.3886    0.7101 H   0  0  0  0  0  0  0  0  0  0  0  0
    1.3925   -1.3014    2.4718 C   0  0  0  0  0  0  0  0  0  0  0  0
    1.5891   -2.1601    3.1494 H   0  0  0  0  0  0  0  0  0  0  0  0
    1.6382   -0.3587    3.0017 H   0  0  0  0  0  0  0  0  0  0  0  0
   -0.0341   -1.2435    2.0736 N   0  0  0  0  0  0  0  0  0  0  0  0
   -0.6544   -1.0319    2.8660 H   0  0  0  0  0  0  0  0  0  0  0  0
   -0.3282   -2.1473    1.6544 H   0  0  0  0  0  0  0  0  0  0  0  0
  1  4  1  0  0  0  0
  1  5  1  0  0  0  0
  2  1  1  0  0  0  0
  3  1  1  0  0  0  0
  5  6  2  0  0  0  0
  5  8  1  0  0  0  0
  7  5  2  0  0  0  0
  8  9  1  0  0  0  0
  9 10  1  0  0  0  0
  9 12  1  0  0  0  0
 11  9  1  0  0  0  0
 12 14  1  0  0  0  0
 12 13  1  0  0  0  0
 15 12  1  0  0  0  0
 15 16  1  0  0  0  0
 17 15  1  0  0  0  0
M  END
