1,2
q = -1.0

 41 41  0  0  0  0  0  0  0  0999 V2000
    0.8636   -0.1884    1.4493 N   0  0  0  0  0  2  0  0  0  0  0  0
    2.0462    1.5013   -0.2477 N   0  0  0  0  0  2  0  0  0  0  0  0
    0.7091    1.1294    1.7677 C   0  0  0  0  0  0  0  0  0  0  0  0
    0.0739    1.5797    2.7268 O   0  0  0  0  0  0  0  0  0  0  0  0
    1.3757    3.4460    0.9704 C   0  0  0  0  0  0  0  0  0  0  0  0
    0.8337    3.8349    1.8448 H   0  0  0  0  0  0  0  0  0  0  0  0
   -1.1255   -1.7036    1.5950 C   0  0  0  0  0  0  0  0  0  0  0  0
   -0.8761   -2.2542    0.6622 H   0  0  0  0  0  0  0  0  0  0  0  0
   -1.5661   -2.4565    2.2852 H   0  0  0  0  0  0  0  0  0  0  0  0
    2.0250    4.2528    0.0280 C   0  0  0  0  0  0  0  0  0  0  0  0
    2.0196    5.3481    0.1339 H   0  0  0  0  0  0  0  0  0  0  0  0
   -2.1500   -0.6071    1.2980 C   0  0  0  0  0  0  0  0  0  0  0  0
   -1.7068    0.1221    0.5831 H   0  0  0  0  0  0  0  0  0  0  0  0
   -2.3597   -0.0250    2.2220 H   0  0  0  0  0  0  0  0  0  0  0  0
   -6.7969    0.5053   -0.5727 C   0  0  0  0  0  0  0  0  0  0  0  0
   -7.0224    1.1042    0.3392 H   0  0  0  0  0  0  0  0  0  0  0  0
   -6.3352    1.2214   -1.2905 H   0  0  0  0  0  0  0  0  0  0  0  0
    0.1797   -1.2094    2.2349 C   0  0  0  0  0  0  0  0  0  0  0  0
   -0.0228   -0.7589    3.2286 H   0  0  0  0  0  0  0  0  0  0  0  0
    0.8707   -2.0646    2.3712 H   0  0  0  0  0  0  0  0  0  0  0  0
   -5.7817   -0.5857   -0.2234 C   0  0  0  0  0  0  0  0  0  0  0  0
   -5.5565   -1.1843   -1.1353 H   0  0  0  0  0  0  0  0  0  0  0  0
   -6.2433   -1.3015    0.4942 H   0  0  0  0  0  0  0  0  0  0  0  0
    2.6776    2.2540   -1.1707 C   0  0  0  0  0  3  0  0  0  0  0  0
    3.1682    1.6946   -1.9848 H   0  0  0  0  0  0  0  0  0  0  0  0
   -8.1056   -0.0281   -1.1632 C   0  0  0  0  0  0  0  0  0  0  0  0
   -8.5640   -0.7433   -0.4440 H   0  0  0  0  0  0  0  0  0  0  0  0
   -7.8764   -0.6276   -2.0725 H   0  0  0  0  0  0  0  0  0  0  0  0
   -3.4567   -1.1439    0.7092 C   0  0  0  0  0  0  0  0  0  0  0  0
   -3.2308   -1.7382   -0.2053 H   0  0  0  0  0  0  0  0  0  0  0  0
   -3.9164   -1.8636    1.4241 H   0  0  0  0  0  0  0  0  0  0  0  0
   -4.4736   -0.0525    0.3662 C   0  0  0  0  0  0  0  0  0  0  0  0
   -4.0131    0.6657   -0.3500 H   0  0  0  0  0  0  0  0  0  0  0  0
   -4.6965    0.5429    1.2806 H   0  0  0  0  0  0  0  0  0  0  0  0
    1.4049    2.0579    0.8039 C   0  0  0  0  0  0  0  0  0  0  0  0
   -9.1121    1.0695   -1.5101 C   0  0  0  0  0  0  0  0  0  0  0  0
  -10.0475    0.6526   -1.9349 H   0  0  0  0  0  0  0  0  0  0  0  0
   -8.6940    1.7788   -2.2549 H   0  0  0  0  0  0  0  0  0  0  0  0
   -9.3877    1.6620   -0.6125 H   0  0  0  0  0  0  0  0  0  0  0  0
    2.6829    3.6485   -1.0564 C   0  0  0  0  0  0  0  0  0  0  0  0
    3.2024    4.2463   -1.8183 H   0  0  0  0  0  0  0  0  0  0  0  0
  1  3  1  0  0  0  0
  1 18  1  0  0  0  0
  2 35  1  0  0  0  0
  3  4  2  0  0  0  0
  5  6  1  0  0  0  0
  7 18  1  0  0  0  0
  7  9  1  0  0  0  0
  8  7  1  0  0  0  0
 10 11  1  0  0  0  0
 10  5  1  0  0  0  0
 12  7  1  0  0  0  0
 12 14  1  0  0  0  0
 13 12  1  0  0  0  0
 15 21  1  0  0  0  0
 15 16  1  0  0  0  0
 17 15  1  0  0  0  0
 18 20  1  0  0  0  0
 18 19  1  0  0  0  0
 21 32  1  0  0  0  0
 21 23  1  0  0  0  0
 22 21  1  0  0  0  0
 24 40  1  0  0  0  0
 24  2  1  0  0  0  0
 25 24  1  0  0  0  0
 26 15  1  0  0  0  0
 26 27  1  0  0  0  0
 28 26  1  0  0  0  0
 29 12  1  0  0  0  0
 29 31  1  0  0  0  0
 30 29  1  0  0  0  0
 32 29  1  0  0  0  0
 32 34  1  0  0  0  0
 33 32  1  0  0  0  0
 35  5  2  0  0  0  0
 35  3  1  0  0  0  0
 36 26  1  0  0  0  0
 36 39  1  0  0  0  0
 37 36  1  0  0  0  0
 38 36  1  0  0  0  0
 40 10  2  0  0  0  0
 41 40  1  0  0  0  0
M  END
