1,18
q = 0.0, confidence = 0.994

 40 41  0  0  0  0  0  0  0  0999 V2000
    1.0149   -0.3007    0.0005 N   0  0  0  0  0  2  0  0  0  0  0  0
    2.3592   -0.3930    0.0008 C   0  0  0  0  0  0  0  0  0  0  0  0
    2.9228    0.5486    0.0008 H   0  0  0  0  0  0  0  0  0  0  0  0
    3.0278   -1.6366    0.0008 C   0  0  0  0  0  0  0  0  0  0  0  0
    2.2427   -2.8140    0.0007 C   0  0  0  0  0  0  0  0  0  0  0  0
    2.7246   -3.8037    0.0007 H   0  0  0  0  0  0  0  0  0  0  0  0
    0.8559   -2.7043    0.0005 C   0  0  0  0  0  0  0  0  0  0  0  0
    0.2419   -3.6146    0.0004 H   0  0  0  0  0  0  0  0  0  0  0  0
    0.2459   -1.4351    0.0004 C   0  0  0  0  0  0  0  0  0  0  0  0
   -1.2103   -1.2299    0.0002 C   0  0  0  0  0  0  0  0  0  0  0  0
   -2.1474   -2.2835    0.0001 C   0  0  0  0  0  0  0  0  0  0  0  0
   -1.8032   -3.3262    0.0000 H   0  0  0  0  0  0  0  0  0  0  0  0
   -3.5136   -2.0036   -0.0001 C   0  0  0  0  0  0  0  0  0  0  0  0
   -4.2622   -2.8070   -0.0002 H   0  0  0  0  0  0  0  0  0  0  0  0
   -3.9266   -0.6553   -0.0000 C   0  0  0  0  0  0  0  0  0  0  0  0
   -2.9441    0.3460    0.0001 C   0  0  0  0  0  0  0  0  0  0  0  0
   -3.2363    1.4068    0.0001 H   0  0  0  0  0  0  0  0  0  0  0  0
   -1.6240    0.0787    0.0002 N   0  0  0  0  0  2  0  0  0  0  0  0
    4.4145   -1.7602    0.0011 N   0  0  0  0  0  0  0  0  0  0  0  0
    4.7965   -2.7079    0.0016 H   0  0  0  0  0  0  0  0  0  0  0  0
    5.3617   -0.7442    0.0001 C   0  0  0  0  0  0  0  0  0  0  0  0
    5.1399    0.4517   -0.0007 O   0  0  0  0  0  0  0  0  0  0  0  0
    6.5945   -1.3150    0.0004 O   0  0  0  0  0  0  0  0  0  0  0  0
    7.7003   -0.3854   -0.0005 C   0  0  0  0  0  0  0  0  0  0  0  0
    7.6171    0.2709    0.8915 H   0  0  0  0  0  0  0  0  0  0  0  0
    7.6151    0.2717   -0.8916 H   0  0  0  0  0  0  0  0  0  0  0  0
    8.9828   -1.1901   -0.0023 C   0  0  0  0  0  0  0  0  0  0  0  0
    9.8546   -0.5067   -0.0028 H   0  0  0  0  0  0  0  0  0  0  0  0
    9.0487   -1.8349   -0.9010 H   0  0  0  0  0  0  0  0  0  0  0  0
    9.0506   -1.8359    0.8956 H   0  0  0  0  0  0  0  0  0  0  0  0
   -5.3583   -0.2318   -0.0001 C   0  0  0  0  0  0  0  0  0  0  0  0
   -5.7371    0.9265    0.0001 O   0  0  0  0  0  0  0  0  0  0  0  0
   -6.1951   -1.2988   -0.0004 O   0  0  0  0  0  0  0  0  0  0  0  0
   -7.6050   -0.9878   -0.0005 C   0  0  0  0  0  0  0  0  0  0  0  0
   -7.8323   -0.3633   -0.8904 H   0  0  0  0  0  0  0  0  0  0  0  0
   -7.8326   -0.3641    0.8900 H   0  0  0  0  0  0  0  0  0  0  0  0
   -8.3714   -2.2937   -0.0012 C   0  0  0  0  0  0  0  0  0  0  0  0
   -9.4609   -2.0927   -0.0013 H   0  0  0  0  0  0  0  0  0  0  0  0
   -8.1318   -2.8974    0.8967 H   0  0  0  0  0  0  0  0  0  0  0  0
   -8.1315   -2.8965   -0.8996 H   0  0  0  0  0  0  0  0  0  0  0  0
  1  2  1  0  0  0  0
  2  3  1  0  0  0  0
  2  4  2  0  0  0  0
  4 19  1  0  0  0  0
  5  6  1  0  0  0  0
  5  4  1  0  0  0  0
  7  5  2  0  0  0  0
  8  7  1  0  0  0  0
  9  7  1  0  0  0  0
  9  1  1  0  0  0  0
 10  9  2  0  0  0  0
 11 10  1  0  0  0  0
 12 11  1  0  0  0  0
 13 15  1  0  0  0  0
 13 11  2  0  0  0  0
 14 13  1  0  0  0  0
 15 16  2  0  0  0  0
 16 17  1  0  0  0  0
 16 18  1  0  0  0  0
 18 10  1  0  0  0  0
 19 20  1  0  0  0  0
 21 23  1  0  0  0  0
 21 19  1  0  0  0  0
 22 21  2  0  0  0  0
 24 23  1  0  0  0  0
 24 25  1  0  0  0  0
 26 24  1  0  0  0  0
 27 24  1  0  0  0  0
 27 30  1  0  0  0  0
 28 27  1  0  0  0  0
 29 27  1  0  0  0  0
 31 15  1  0  0  0  0
 31 32  2  0  0  0  0
 33 31  1  0  0  0  0
 34 33  1  0  0  0  0
 34 36  1  0  0  0  0
 35 34  1  0  0  0  0
 37 34  1  0  0  0  0
 37 39  1  0  0  0  0
 38 37  1  0  0  0  0
 40 37  1  0  0  0  0
M  END
