1,2
q = 0.0, confidence = 0.952

 22 23  0  0  1  0  0  0  0  0999 V2000
   -1.0040    1.1162    0.1568 N   0  0  0  0  0  2  0  0  0  0  0  0
   -1.0042   -1.1162    0.1571 N   0  0  0  0  0  2  0  0  0  0  0  0
   -1.5760    2.3212    0.0951 C   0  0  2  0  0  3  0  0  0  0  0  0
   -3.0034    2.4207    0.0746 C   0  0  0  0  0  0  0  0  0  0  0  0
   -3.4576    3.4210    0.0365 H   0  0  0  0  0  0  0  0  0  0  0  0
   -3.8056    1.2866    0.0876 C   0  0  0  0  0  0  0  0  0  0  0  0
   -4.9026    1.3741    0.0635 H   0  0  0  0  0  0  0  0  0  0  0  0
   -3.1932    0.0001    0.1156 C   0  0  0  0  0  0  0  0  0  0  0  0
   -3.8058   -1.2863    0.0877 C   0  0  0  0  0  0  0  0  0  0  0  0
   -4.9028   -1.3736    0.0636 H   0  0  0  0  0  0  0  0  0  0  0  0
   -3.0037   -2.4204    0.0748 C   0  0  0  0  0  0  0  0  0  0  0  0
   -3.4580   -3.4207    0.0367 H   0  0  0  0  0  0  0  0  0  0  0  0
   -1.5762   -2.3211    0.0954 C   0  0  1  0  0  3  0  0  0  0  0  0
   -1.7788    0.0001    0.1540 C   0  0  0  0  0  0  0  0  0  0  0  0
   -0.6678    3.5062    0.0179 C   0  0  0  0  0  0  0  0  0  0  0  0
   -0.1167    3.4768   -0.9460 H   0  0  0  0  0  0  0  0  0  0  0  0
    0.1001    3.4521    0.8159 H   0  0  0  0  0  0  0  0  0  0  0  0
   -1.2176    4.4614    0.0922 H   0  0  0  0  0  0  0  0  0  0  0  0
   -0.6682   -3.5062    0.0182 C   0  0  0  0  0  0  0  0  0  0  0  0
    0.1000   -3.4519    0.8159 H   0  0  0  0  0  0  0  0  0  0  0  0
   -0.1176   -3.4773   -0.9459 H   0  0  0  0  0  0  0  0  0  0  0  0
   -1.2180   -4.4614    0.0932 H   0  0  0  0  0  0  0  0  0  0  0  0
  3 15  1  6  0  0  0
  3  1  1  0  0  0  0
  4  6  2  0  0  0  0
  4  3  1  0  0  0  0
  5  4  1  0  0  0  0
  6  8  1  0  0  0  0
  7  6  1  0  0  0  0
  8 14  2  0  0  0  0
  9  8  1  0  0  0  0
 10  9  1  0  0  0  0
 11  9  2  0  0  0  0
 11 13  1  0  0  0  0
 12 11  1  0  0  0  0
 13 19  1  6  0  0  0
 13  2  1  0  0  0  0
 14  1  1  0  0  0  0
 14  2  1  0  0  0  0
 15 18  1  0  0  0  0
 15 17  1  0  0  0  0
 16 15  1  0  0  0  0
 19 22  1  0  0  0  0
 19 20  1  0  0  0  0
 21 19  1  0  0  0  0
M  END
