4,5
q = -1.0

 33 33  0  0  0  0  0  0  0  0999 V2000
    2.8408    0.2195    1.0676 C   0  0  0  0  0  0  0  0  0  0  0  0
    0.6850    0.6644    1.8921 F   0  0  0  0  0  0  0  0  0  0  0  0
    1.4718   -0.0599    1.0735 C   0  0  0  0  0  0  0  0  0  0  0  0
   -3.2067   -1.2651    0.4141 N   0  0  0  0  0  0  0  0  0  0  0  0
   -0.4754   -1.2298    0.2226 N   0  0  0  0  0  2  0  0  0  0  0  0
    1.8051   -1.7901   -0.5642 C   0  0  0  0  0  0  0  0  0  0  0  0
    0.8805   -1.0572    0.2369 C   0  0  0  0  0  0  0  0  0  0  0  0
    3.7231   -0.5323    0.2673 C   0  0  0  0  0  0  0  0  0  0  0  0
    1.3421   -2.7083   -1.4430 F   0  0  0  0  0  0  0  0  0  0  0  0
    3.3108    1.1848    1.8683 F   0  0  0  0  0  0  0  0  0  0  0  0
    3.9816   -2.2721   -1.3394 F   0  0  0  0  0  0  0  0  0  0  0  0
    5.5744   -0.1856    0.2825 Br  0  0  0  0  0  0  0  0  0  0  0  0
    3.1853   -1.5510   -0.5396 C   0  0  0  0  0  0  0  0  0  0  0  0
   -3.6673   -1.7482   -2.0562 C   0  0  0  0  0  0  0  0  0  0  0  0
   -2.8852   -1.0178   -2.3488 H   0  0  0  0  0  0  0  0  0  0  0  0
   -4.4877   -1.6919   -2.7985 H   0  0  0  0  0  0  0  0  0  0  0  0
   -3.2407   -2.7689   -2.1075 H   0  0  0  0  0  0  0  0  0  0  0  0
   -1.0865   -2.5000   -0.1283 C   0  0  0  0  0  0  0  0  0  0  0  0
   -0.4659   -3.3524    0.2241 H   0  0  0  0  0  0  0  0  0  0  0  0
   -1.2238   -2.6402   -1.2239 H   0  0  0  0  0  0  0  0  0  0  0  0
   -2.4297   -2.5456    0.6007 C   0  0  0  0  0  0  0  0  0  0  0  0
   -2.2303   -2.6554    1.6820 H   0  0  0  0  0  0  0  0  0  0  0  0
   -3.0575   -3.4025    0.2765 H   0  0  0  0  0  0  0  0  0  0  0  0
   -4.2255   -1.3993   -0.6858 C   0  0  0  0  0  0  0  0  0  0  0  0
   -4.7324   -0.4159   -0.7343 H   0  0  0  0  0  0  0  0  0  0  0  0
   -4.9672   -2.1627   -0.3565 H   0  0  0  0  0  0  0  0  0  0  0  0
   -3.9573   -0.9085    1.6696 C   0  0  0  0  0  0  0  0  0  0  0  0
   -4.6231   -1.7668    1.9174 H   0  0  0  0  0  0  0  0  0  0  0  0
   -4.5943   -0.0459    1.3930 H   0  0  0  0  0  0  0  0  0  0  0  0
   -3.0849   -0.5266    2.8553 C   0  0  0  0  0  0  0  0  0  0  0  0
   -2.4175   -1.3444    3.1916 H   0  0  0  0  0  0  0  0  0  0  0  0
   -3.7387   -0.2555    3.7080 H   0  0  0  0  0  0  0  0  0  0  0  0
   -2.4503    0.3454    2.6004 H   0  0  0  0  0  0  0  0  0  0  0  0
  1  3  1  0  0  0  0
  1 10  1  0  0  0  0
  3  2  1  0  0  0  0
  4 21  1  0  0  0  0
  4 27  1  0  0  0  0
  5  7  1  0  0  0  0
  6 13  2  0  0  0  0
  6  7  1  0  0  0  0
  7  3  2  0  0  0  0
  8 12  1  0  0  0  0
  8  1  2  0  0  0  0
  9  6  1  0  0  0  0
 11 13  1  0  0  0  0
 13  8  1  0  0  0  0
 14 24  1  0  0  0  0
 15 14  1  0  0  0  0
 16 14  1  0  0  0  0
 17 14  1  0  0  0  0
 18  5  1  0  0  0  0
 18 19  1  0  0  0  0
 18 21  1  0  0  0  0
 20 18  1  0  0  0  0
 21 22  1  0  0  0  0
 23 21  1  0  0  0  0
 24 26  1  0  0  0  0
 24  4  1  0  0  0  0
 25 24  1  0  0  0  0
 27 28  1  0  0  0  0
 27 30  1  0  0  0  0
 29 27  1  0  0  0  0
 30 31  1  0  0  0  0
 30 32  1  0  0  0  0
 33 30  1  0  0  0  0
M  END
