2,3
q = 0.0, confidence = 0.988

 16 16  0  0  0  0  0  0  0  0999 V2000
   -4.0203   -0.6632    0.0856 S   0  0  0  0  0  0  0  0  0  0  0  0
   -0.8258    1.6900    0.1043 N   0  0  0  0  0  2  0  0  0  0  0  0
   -1.4558   -0.8322   -0.0482 N   0  0  0  0  0  2  0  0  0  0  0  0
   -2.4436    0.0611    0.1025 C   0  0  0  0  0  0  0  0  0  0  0  0
   -1.9209   -2.1119   -0.1978 C   0  0  0  0  0  0  0  0  0  0  0  0
   -1.2180   -2.9379   -0.3603 H   0  0  0  0  0  0  0  0  0  0  0  0
   -3.2941   -2.2190   -0.1455 C   0  0  0  0  0  0  0  0  0  0  0  0
   -3.9123   -3.1199   -0.2360 H   0  0  0  0  0  0  0  0  0  0  0  0
   -2.1239    1.4659    0.1878 C   0  0  0  0  0  0  0  0  0  0  0  0
   -3.1426    2.5563    0.2850 C   0  0  0  0  0  0  0  0  0  0  0  0
   -2.9460    3.2104    1.1603 H   0  0  0  0  0  0  0  0  0  0  0  0
   -4.1645    2.1484    0.3901 H   0  0  0  0  0  0  0  0  0  0  0  0
   -3.1358    3.1940   -0.6267 H   0  0  0  0  0  0  0  0  0  0  0  0
   -0.3271    2.9427    0.1180 N   0  0  0  0  0  0  0  0  0  0  0  0
   -0.9755    3.6826   -0.1842 H   0  0  0  0  0  0  0  0  0  0  0  0
    0.5760    2.9838   -0.3654 H   0  0  0  0  0  0  0  0  0  0  0  0
  1  4  1  0  0  0  0
  2 14  1  0  0  0  0
  2  9  1  0  0  0  0
  3  4  1  0  0  0  0
  4  9  2  0  0  0  0
  5  7  2  0  0  0  0
  5  3  1  0  0  0  0
  6  5  1  0  0  0  0
  7  1  1  0  0  0  0
  8  7  1  0  0  0  0
  9 10  1  0  0  0  0
 10 12  1  0  0  0  0
 10 11  1  0  0  0  0
 13 10  1  0  0  0  0
 15 14  1  0  0  0  0
 16 14  1  0  0  0  0
M  END
