1,2
q = -2.0, confidence = 0.904

 38 39  0  0  0  0  0  0  0  0999 V2000
    0.8295    1.3912   -0.0514 N   0  0  0  0  0  2  0  0  0  0  0  0
    0.4226   -1.2139   -0.6794 N   0  0  0  0  0  2  0  0  0  0  0  0
    2.1626    1.0064    0.2240 C   0  0  0  0  0  0  0  0  0  0  0  0
    3.0040    1.8732    0.9331 C   0  0  0  0  0  0  0  0  0  0  0  0
    2.5722    2.7756    1.3843 H   0  0  0  0  0  0  0  0  0  0  0  0
    4.3871    1.6060    1.0453 C   0  0  0  0  0  0  0  0  0  0  0  0
    5.0334    2.3020    1.6014 H   0  0  0  0  0  0  0  0  0  0  0  0
    4.9239    0.4876    0.4286 C   0  0  0  0  0  0  0  0  0  0  0  0
    6.0066    0.2922    0.4649 H   0  0  0  0  0  0  0  0  0  0  0  0
    4.0941   -0.4448   -0.2626 C   0  0  0  0  0  0  0  0  0  0  0  0
    4.6680   -1.5748   -0.9122 C   0  0  0  0  0  0  0  0  0  0  0  0
    5.7574   -1.7207   -0.8704 H   0  0  0  0  0  0  0  0  0  0  0  0
    3.8459   -2.4547   -1.5959 C   0  0  0  0  0  0  0  0  0  0  0  0
    4.2785   -3.3100   -2.1380 H   0  0  0  0  0  0  0  0  0  0  0  0
    2.4431   -2.3017   -1.5813 C   0  0  0  0  0  0  0  0  0  0  0  0
    1.8432   -3.0530   -2.1025 H   0  0  0  0  0  0  0  0  0  0  0  0
    1.7987   -1.2522   -0.8892 C   0  0  0  0  0  0  0  0  0  0  0  0
    2.6642   -0.2297   -0.3102 C   0  0  0  0  0  0  0  0  0  0  0  0
    0.5815    2.5142   -0.9900 C   0  0  0  0  0  0  0  0  0  0  0  0
   -0.5038    2.4387   -1.2431 H   0  0  0  0  0  0  0  0  0  0  0  0
    0.7510    3.8959   -0.3481 C   0  0  0  0  0  0  0  0  0  0  0  0
    0.1878    3.9468    0.6036 H   0  0  0  0  0  0  0  0  0  0  0  0
    0.3571    4.6771   -1.0296 H   0  0  0  0  0  0  0  0  0  0  0  0
    1.8188    4.1213   -0.1604 H   0  0  0  0  0  0  0  0  0  0  0  0
    1.3828    2.3540   -2.2858 C   0  0  0  0  0  0  0  0  0  0  0  0
    1.2167    1.3563   -2.7400 H   0  0  0  0  0  0  0  0  0  0  0  0
    2.4687    2.4535   -2.0866 H   0  0  0  0  0  0  0  0  0  0  0  0
    1.0947    3.1322   -3.0202 H   0  0  0  0  0  0  0  0  0  0  0  0
   -0.3919   -2.4372   -0.8863 C   0  0  0  0  0  0  0  0  0  0  0  0
   -1.3783   -2.1803   -0.4397 H   0  0  0  0  0  0  0  0  0  0  0  0
   -0.7168   -2.7408   -2.3590 C   0  0  0  0  0  0  0  0  0  0  0  0
   -1.0905   -1.8284   -2.8606 H   0  0  0  0  0  0  0  0  0  0  0  0
   -1.5091   -3.5153   -2.4199 H   0  0  0  0  0  0  0  0  0  0  0  0
    0.1514   -3.1103   -2.9368 H   0  0  0  0  0  0  0  0  0  0  0  0
    0.0758   -3.6612   -0.0818 C   0  0  0  0  0  0  0  0  0  0  0  0
    0.1657   -3.4001    0.9897 H   0  0  0  0  0  0  0  0  0  0  0  0
    1.0512   -4.0607   -0.4151 H   0  0  0  0  0  0  0  0  0  0  0  0
   -0.6750   -4.4723   -0.1727 H   0  0  0  0  0  0  0  0  0  0  0  0
  1  3  1  0  0  0  0
  3  4  1  0  0  0  0
  4  6  2  0  0  0  0
  4  5  1  0  0  0  0
  6  7  1  0  0  0  0
  8  9  1  0  0  0  0
  8  6  1  0  0  0  0
 10  8  2  0  0  0  0
 11 12  1  0  0  0  0
 11 10  1  0  0  0  0
 13 15  1  0  0  0  0
 13 11  2  0  0  0  0
 14 13  1  0  0  0  0
 15 17  2  0  0  0  0
 16 15  1  0  0  0  0
 17  2  1  0  0  0  0
 17 18  1  0  0  0  0
 18 10  1  0  0  0  0
 18  3  2  0  0  0  0
 19 21  1  0  0  0  0
 19  1  1  0  0  0  0
 20 19  1  0  0  0  0
 21 24  1  0  0  0  0
 21 22  1  0  0  0  0
 23 21  1  0  0  0  0
 25 27  1  0  0  0  0
 25 19  1  0  0  0  0
 26 25  1  0  0  0  0
 28 25  1  0  0  0  0
 29  2  1  0  0  0  0
 29 30  1  0  0  0  0
 29 35  1  0  0  0  0
 31 29  1  0  0  0  0
 32 31  1  0  0  0  0
 33 31  1  0  0  0  0
 34 31  1  0  0  0  0
 35 36  1  0  0  0  0
 37 35  1  0  0  0  0
 38 35  1  0  0  0  0
M  END
