3,4
q = 0.0, confidence = 0.99

 56 59  0  0  1  0  0  0  0  0999 V2000
    1.3804    0.5800   -1.0660 N   0  0  0  0  0  0  0  0  0  0  0  0
   -1.3805    0.5799    1.0660 N   0  0  0  0  0  0  0  0  0  0  0  0
    2.1121   -2.0107   -0.1579 N   0  0  0  0  0  2  0  0  0  0  0  0
   -2.1119   -2.0109    0.1579 N   0  0  0  0  0  2  0  0  0  0  0  0
    0.6419    2.3832    0.3818 C   0  0  0  0  0  0  0  0  0  0  0  0
    1.6582    1.4630    0.0015 C   0  0  0  0  0  0  0  0  0  0  0  0
    2.8751    1.4275    0.7111 C   0  0  0  0  0  0  0  0  0  0  0  0
    3.6716    0.7252    0.4314 H   0  0  0  0  0  0  0  0  0  0  0  0
    3.0698    2.2981    1.7927 C   0  0  0  0  0  0  0  0  0  0  0  0
    4.0221    2.2683    2.3429 H   0  0  0  0  0  0  0  0  0  0  0  0
    2.0699    3.1989    2.1781 C   0  0  0  0  0  0  0  0  0  0  0  0
    2.2348    3.8737    3.0312 H   0  0  0  0  0  0  0  0  0  0  0  0
    0.8457    3.2538    1.4802 C   0  0  0  0  0  0  0  0  0  0  0  0
   -0.2387    4.2180    1.8915 C   0  0  0  0  0  0  0  0  0  0  0  0
    0.0491    4.7879    2.7945 H   0  0  0  0  0  0  0  0  0  0  0  0
   -1.1944    3.6947    2.1011 H   0  0  0  0  0  0  0  0  0  0  0  0
   -0.4626    4.9455    1.0844 H   0  0  0  0  0  0  0  0  0  0  0  0
   -0.6421    2.3831   -0.3818 C   0  0  0  0  0  0  0  0  0  0  0  0
   -1.6584    1.4629   -0.0015 C   0  0  0  0  0  0  0  0  0  0  0  0
   -2.8753    1.4273   -0.7110 C   0  0  0  0  0  0  0  0  0  0  0  0
   -3.6717    0.7250   -0.4313 H   0  0  0  0  0  0  0  0  0  0  0  0
   -3.0701    2.2979   -1.7927 C   0  0  0  0  0  0  0  0  0  0  0  0
   -4.0224    2.2681   -2.3428 H   0  0  0  0  0  0  0  0  0  0  0  0
   -2.0702    3.1988   -2.1781 C   0  0  0  0  0  0  0  0  0  0  0  0
   -2.2351    3.8736   -3.0312 H   0  0  0  0  0  0  0  0  0  0  0  0
   -0.8460    3.2537   -1.4802 C   0  0  0  0  0  0  0  0  0  0  0  0
    0.2383    4.2181   -1.8914 C   0  0  0  0  0  0  0  0  0  0  0  0
    0.4611    4.9465   -1.0848 H   0  0  0  0  0  0  0  0  0  0  0  0
   -0.0490    4.7871   -2.7952 H   0  0  0  0  0  0  0  0  0  0  0  0
    1.1944    3.6951   -2.0998 H   0  0  0  0  0  0  0  0  0  0  0  0
    2.4533   -0.1322   -1.7284 C   0  0  0  0  0  0  0  0  0  0  0  0
    3.3180    0.5292   -1.9670 H   0  0  0  0  0  0  0  0  0  0  0  0
    2.0618   -0.5032   -2.6999 H   0  0  0  0  0  0  0  0  0  0  0  0
    2.9733   -1.3322   -0.9478 C   0  0  2  0  0  3  0  0  0  0  0  0
    4.3136   -1.7350   -1.0774 C   0  0  0  0  0  0  0  0  0  0  0  0
    4.9922   -1.1565   -1.7221 H   0  0  0  0  0  0  0  0  0  0  0  0
    4.7688   -2.8594   -0.3796 C   0  0  0  0  0  0  0  0  0  0  0  0
    5.8150   -3.1873   -0.4711 H   0  0  0  0  0  0  0  0  0  0  0  0
    3.8698   -3.5516    0.4449 C   0  0  0  0  0  0  0  0  0  0  0  0
    4.1795   -4.4344    1.0215 H   0  0  0  0  0  0  0  0  0  0  0  0
    2.5522   -3.0921    0.5253 C   0  0  0  0  0  0  0  0  0  0  0  0
    1.8133   -3.6052    1.1597 H   0  0  0  0  0  0  0  0  0  0  0  0
   -2.4533   -0.1325    1.7284 C   0  0  0  0  0  0  0  0  0  0  0  0
   -3.3181    0.5288    1.9671 H   0  0  0  0  0  0  0  0  0  0  0  0
   -2.0617   -0.5035    2.6998 H   0  0  0  0  0  0  0  0  0  0  0  0
   -2.9732   -1.3325    0.9478 C   0  0  2  0  0  3  0  0  0  0  0  0
   -4.3134   -1.7355    1.0774 C   0  0  0  0  0  0  0  0  0  0  0  0
   -4.9920   -1.1570    1.7221 H   0  0  0  0  0  0  0  0  0  0  0  0
   -4.7685   -2.8599    0.3797 C   0  0  0  0  0  0  0  0  0  0  0  0
   -5.8147   -3.1880    0.4712 H   0  0  0  0  0  0  0  0  0  0  0  0
   -3.8694   -3.5520   -0.4449 C   0  0  0  0  0  0  0  0  0  0  0  0
   -4.1790   -4.4349   -1.0215 H   0  0  0  0  0  0  0  0  0  0  0  0
   -2.5519   -3.0924   -0.5253 C   0  0  0  0  0  0  0  0  0  0  0  0
   -1.8129   -3.6054   -1.1597 H   0  0  0  0  0  0  0  0  0  0  0  0
    0.6627    0.9551   -1.6948 H   0  0  0  0  0  0  0  0  0  0  0  0
   -0.6629    0.9551    1.6949 H   0  0  0  0  0  0  0  0  0  0  0  0
  1  6  1  0  0  0  0
  2 56  1  0  0  0  0
  2 43  1  0  0  0  0
  3 41  1  0  0  0  0
  4 46  1  0  0  0  0
  5 13  1  0  0  0  0
  6  5  2  0  0  0  0
  6  7  1  0  0  0  0
  7  9  2  0  0  0  0
  8  7  1  0  0  0  0
  9 11  1  0  0  0  0
  9 10  1  0  0  0  0
 11 12  1  0  0  0  0
 13 14  1  0  0  0  0
 13 11  2  0  0  0  0
 14 16  1  0  0  0  0
 14 15  1  0  0  0  0
 17 14  1  0  0  0  0
 18 19  1  0  0  0  0
 18  5  1  0  0  0  0
 19  2  1  0  0  0  0
 20 21  1  0  0  0  0
 20 19  2  0  0  0  0
 22 20  1  0  0  0  0
 23 22  1  0  0  0  0
 24 22  2  0  0  0  0
 24 26  1  0  0  0  0
 25 24  1  0  0  0  0
 26 18  2  0  0  0  0
 27 26  1  0  0  0  0
 27 28  1  0  0  0  0
 29 27  1  0  0  0  0
 30 27  1  0  0  0  0
 31  1  1  0  0  0  0
 32 31  1  0  0  0  0
 33 31  1  0  0  0  0
 34 31  1  6  0  0  0
 34  3  1  0  0  0  0
 35 34  1  0  0  0  0
 35 37  2  0  0  0  0
 36 35  1  0  0  0  0
 37 39  1  0  0  0  0
 38 37  1  0  0  0  0
 39 41  2  0  0  0  0
 39 40  1  0  0  0  0
 41 42  1  0  0  0  0
 43 44  1  0  0  0  0
 43 45  1  0  0  0  0
 46 47  1  0  0  0  0
 46 43  1  1  0  0  0
 47 48  1  0  0  0  0
 49 50  1  0  0  0  0
 49 47  2  0  0  0  0
 51 49  1  0  0  0  0
 52 51  1  0  0  0  0
 53 51  2  0  0  0  0
 53  4  1  0  0  0  0
 54 53  1  0  0  0  0
 55  1  1  0  0  0  0
M  END
