1,3
q = 0.0, confidence = 0.988

 37 38  0  0  0  0  0  0  0  0999 V2000
    0.1606    1.5839   -0.2243 N   0  0  0  0  0  2  0  0  0  0  0  0
   -1.1457    1.2548   -0.3892 N   0  0  0  0  0  0  0  0  0  0  0  0
    0.4302   -1.1467   -0.9807 N   0  0  0  0  0  2  0  0  0  0  0  0
   -0.9215   -1.0317   -1.0187 N   0  0  0  0  0  0  0  0  0  0  0  0
    0.2879    2.8843   -0.5297 C   0  0  0  0  0  3  0  0  0  0  0  0
   -0.9656    3.4106   -0.9110 C   0  0  0  0  0  0  0  0  0  0  0  0
   -1.8560    2.3457   -0.8174 C   0  0  0  0  0  0  0  0  0  0  0  0
    0.7757   -2.1005   -1.8597 C   0  0  0  0  0  3  0  0  0  0  0  0
   -0.3808   -2.6168   -2.4833 C   0  0  0  0  0  0  0  0  0  0  0  0
   -1.4448   -1.9141   -1.9267 C   0  0  0  0  0  0  0  0  0  0  0  0
   -1.6060   -0.1180   -0.0685 C   0  0  0  0  0  0  0  0  0  0  0  0
   -1.1977   -0.4728    1.3799 C   0  0  0  0  0  0  0  0  0  0  0  0
   -1.4982   -1.9124    1.7966 C   0  0  0  0  0  0  0  0  0  0  0  0
   -0.9233   -2.2253    3.1795 C   0  0  0  0  0  0  0  0  0  0  0  0
   -3.1274   -0.2257   -0.2794 C   0  0  0  0  0  0  0  0  0  0  0  0
   -4.0073    0.4690    0.7701 C   0  0  0  0  0  0  0  0  0  0  0  0
   -5.4752    0.5010    0.3427 C   0  0  0  0  0  0  0  0  0  0  0  0
    1.2829    3.3378   -0.4431 H   0  0  0  0  0  0  0  0  0  0  0  0
   -1.1966    4.4357   -1.2160 H   0  0  0  0  0  0  0  0  0  0  0  0
   -2.9294    2.2975   -1.0147 H   0  0  0  0  0  0  0  0  0  0  0  0
    1.8402   -2.3453   -1.9608 H   0  0  0  0  0  0  0  0  0  0  0  0
   -0.4373   -3.4016   -3.2436 H   0  0  0  0  0  0  0  0  0  0  0  0
   -2.5193   -1.9894   -2.1083 H   0  0  0  0  0  0  0  0  0  0  0  0
   -0.1055   -0.2872    1.4851 H   0  0  0  0  0  0  0  0  0  0  0  0
   -1.6935    0.2555    2.0531 H   0  0  0  0  0  0  0  0  0  0  0  0
   -2.5940   -2.1045    1.7906 H   0  0  0  0  0  0  0  0  0  0  0  0
   -1.0557   -2.6063    1.0501 H   0  0  0  0  0  0  0  0  0  0  0  0
   -1.1393   -3.2694    3.4798 H   0  0  0  0  0  0  0  0  0  0  0  0
    0.1774   -2.0902    3.1861 H   0  0  0  0  0  0  0  0  0  0  0  0
   -1.3475   -1.5557    3.9561 H   0  0  0  0  0  0  0  0  0  0  0  0
   -3.3784    0.1364   -1.2988 H   0  0  0  0  0  0  0  0  0  0  0  0
   -3.3782   -1.3042   -0.2696 H   0  0  0  0  0  0  0  0  0  0  0  0
   -3.9136   -0.0672    1.7366 H   0  0  0  0  0  0  0  0  0  0  0  0
   -3.6488    1.5008    0.9655 H   0  0  0  0  0  0  0  0  0  0  0  0
   -6.1111    0.9643    1.1220 H   0  0  0  0  0  0  0  0  0  0  0  0
   -5.6150    1.0825   -0.5927 H   0  0  0  0  0  0  0  0  0  0  0  0
   -5.8653   -0.5210    0.1563 H   0  0  0  0  0  0  0  0  0  0  0  0
  2  1  1  0  0  0  0
  2 11  1  0  0  0  0
  4  3  1  0  0  0  0
  4 11  1  0  0  0  0
  5 18  1  0  0  0  0
  5  1  1  0  0  0  0
  6  7  2  0  0  0  0
  6  5  1  0  0  0  0
  7  2  1  0  0  0  0
  8  3  1  0  0  0  0
  9 10  2  0  0  0  0
  9  8  1  0  0  0  0
 10  4  1  0  0  0  0
 11 12  1  0  0  0  0
 12 24  1  0  0  0  0
 12 13  1  0  0  0  0
 12 25  1  0  0  0  0
 13 14  1  0  0  0  0
 14 29  1  0  0  0  0
 14 28  1  0  0  0  0
 14 30  1  0  0  0  0
 15 32  1  0  0  0  0
 15 11  1  0  0  0  0
 15 16  1  0  0  0  0
 16 34  1  0  0  0  0
 16 33  1  0  0  0  0
 17 16  1  0  0  0  0
 17 35  1  0  0  0  0
 19  6  1  0  0  0  0
 20  7  1  0  0  0  0
 21  8  1  0  0  0  0
 22  9  1  0  0  0  0
 23 10  1  0  0  0  0
 26 13  1  0  0  0  0
 27 13  1  0  0  0  0
 31 15  1  0  0  0  0
 36 17  1  0  0  0  0
 37 17  1  0  0  0  0
M  END
