1,2
q = 0.0, confidence = 1.0

 40 43  0  0  0  0  0  0  0  0999 V2000
    2.9834    1.4655   -0.4974 N   0  0  0  0  0  2  0  0  0  0  0  0
    0.4337    0.8899   -0.4994 N   0  0  0  0  0  2  0  0  0  0  0  0
   -4.8516   -0.8441   -0.5041 N   0  0  0  0  0  0  0  0  0  0  0  0
    4.3085    1.6432   -0.6399 C   0  0  0  0  0  3  0  0  0  0  0  0
    4.9428    0.7689   -0.4417 H   0  0  0  0  0  0  0  0  0  0  0  0
    4.8578    2.8712   -1.0306 C   0  0  0  0  0  0  0  0  0  0  0  0
    5.9481    2.9698   -1.1245 H   0  0  0  0  0  0  0  0  0  0  0  0
    3.9992    3.9489   -1.3026 C   0  0  0  0  0  0  0  0  0  0  0  0
    4.4040    4.9242   -1.6096 H   0  0  0  0  0  0  0  0  0  0  0  0
    2.6186    3.7544   -1.1998 C   0  0  0  0  0  0  0  0  0  0  0  0
    1.9073    4.5578   -1.4388 H   0  0  0  0  0  0  0  0  0  0  0  0
    2.1318    2.4934   -0.8040 C   0  0  0  0  0  0  0  0  0  0  0  0
    0.7334    2.1357   -0.7751 C   0  0  0  0  0  3  0  0  0  0  0  0
   -0.0463    2.8594   -1.0681 H   0  0  0  0  0  0  0  0  0  0  0  0
   -0.9000    0.4335   -0.5158 C   0  0  0  0  0  0  0  0  0  0  0  0
   -1.1785   -0.7914   -1.1823 C   0  0  0  0  0  0  0  0  0  0  0  0
   -0.3465   -1.3008   -1.6908 H   0  0  0  0  0  0  0  0  0  0  0  0
   -2.4816   -1.2834   -1.2536 C   0  0  0  0  0  0  0  0  0  0  0  0
   -2.6917   -2.2081   -1.8093 H   0  0  0  0  0  0  0  0  0  0  0  0
   -3.5078   -0.5566   -0.6143 C   0  0  0  0  0  0  0  0  0  0  0  0
   -5.4783    0.1781    0.2170 C   0  0  0  0  0  0  0  0  0  0  0  0
   -4.4989    1.1433    0.6076 C   0  0  0  0  0  0  0  0  0  0  0  0
   -3.2341    0.6795    0.0716 C   0  0  0  0  0  0  0  0  0  0  0  0
   -1.9265    1.1771    0.1057 C   0  0  0  0  0  0  0  0  0  0  0  0
   -1.6906    2.1071    0.6446 H   0  0  0  0  0  0  0  0  0  0  0  0
   -4.8894    2.2660    1.3605 C   0  0  0  0  0  0  0  0  0  0  0  0
   -4.1489    3.0188    1.6705 H   0  0  0  0  0  0  0  0  0  0  0  0
   -6.2381    2.4107    1.7070 C   0  0  0  0  0  0  0  0  0  0  0  0
   -6.5611    3.2824    2.2943 H   0  0  0  0  0  0  0  0  0  0  0  0
   -7.1944    1.4499    1.3075 C   0  0  0  0  0  0  0  0  0  0  0  0
   -8.2488    1.5895    1.5885 H   0  0  0  0  0  0  0  0  0  0  0  0
   -6.8328    0.3226    0.5569 C   0  0  0  0  0  0  0  0  0  0  0  0
   -7.5893   -0.4120    0.2468 H   0  0  0  0  0  0  0  0  0  0  0  0
   -5.5359   -1.9688   -1.1297 C   0  0  0  0  0  0  0  0  0  0  0  0
   -4.8299   -2.8234   -1.1521 H   0  0  0  0  0  0  0  0  0  0  0  0
   -6.3634   -2.2727   -0.4570 H   0  0  0  0  0  0  0  0  0  0  0  0
   -6.0582   -1.6513   -2.5311 C   0  0  0  0  0  0  0  0  0  0  0  0
   -6.7785   -0.8099   -2.5069 H   0  0  0  0  0  0  0  0  0  0  0  0
   -5.2300   -1.3742   -3.2132 H   0  0  0  0  0  0  0  0  0  0  0  0
   -6.5747   -2.5339   -2.9570 H   0  0  0  0  0  0  0  0  0  0  0  0
  3 21  1  0  0  0  0
  4  1  1  0  0  0  0
  4  5  1  0  0  0  0
  6  4  1  0  0  0  0
  7  6  1  0  0  0  0
  8 10  1  0  0  0  0
  8  6  2  0  0  0  0
  9  8  1  0  0  0  0
 10 12  2  0  0  0  0
 11 10  1  0  0  0  0
 12 13  1  0  0  0  0
 12  1  1  0  0  0  0
 13  2  1  0  0  0  0
 14 13  1  0  0  0  0
 15  2  1  0  0  0  0
 15 24  1  0  0  0  0
 16 15  2  0  0  0  0
 17 16  1  0  0  0  0
 18 16  1  0  0  0  0
 18 20  2  0  0  0  0
 19 18  1  0  0  0  0
 20  3  1  0  0  0  0
 20 23  1  0  0  0  0
 21 32  2  0  0  0  0
 21 22  1  0  0  0  0
 22 26  2  0  0  0  0
 23 24  2  0  0  0  0
 23 22  1  0  0  0  0
 24 25  1  0  0  0  0
 26 27  1  0  0  0  0
 26 28  1  0  0  0  0
 28 29  1  0  0  0  0
 30 31  1  0  0  0  0
 30 28  2  0  0  0  0
 32 30  1  0  0  0  0
 33 32  1  0  0  0  0
 34  3  1  0  0  0  0
 34 36  1  0  0  0  0
 35 34  1  0  0  0  0
 37 38  1  0  0  0  0
 37 34  1  0  0  0  0
 39 37  1  0  0  0  0
 40 37  1  0  0  0  0
M  END
