1,2
q = 0.0, confidence = 0.982

 42 43  0  0  1  0  0  0  0  0999 V2000
    0.5027   -1.2386   -1.4879 N   0  0  0  0  0  2  0  0  0  0  0  0
    0.4724    1.2319   -0.3403 N   0  0  0  0  0  0  0  0  0  0  0  0
   -3.2358    0.5186   -0.6084 N   0  0  0  0  0  0  0  0  0  0  0  0
    0.8376   -2.3111   -2.3989 C   0  0  0  0  0  0  0  0  0  0  0  0
   -0.5622   -0.5135   -1.6855 C   0  0  0  0  0  3  0  0  0  0  0  0
   -0.7783    0.6399   -0.8436 C   0  0  1  0  0  3  0  0  0  0  0  0
   -2.0205    1.1423   -0.5121 C   0  0  0  0  0  3  0  0  0  0  0  0
   -3.4233   -0.9303   -0.6965 C   0  0  0  0  0  0  0  0  0  0  0  0
   -4.2418   -1.4592    0.4895 C   0  0  0  0  0  0  0  0  0  0  0  0
   -5.5583   -0.6964    0.6614 C   0  0  0  0  0  0  0  0  0  0  0  0
   -5.2853    0.8075    0.7699 C   0  0  0  0  0  0  0  0  0  0  0  0
   -4.4623    1.2932   -0.4285 C   0  0  0  0  0  0  0  0  0  0  0  0
    1.1535    1.9560   -1.4627 C   0  0  0  0  0  0  0  0  0  0  0  0
    2.4487    2.6453   -1.0440 C   0  0  0  0  0  0  0  0  0  0  0  0
    2.2196    3.6023    0.1267 C   0  0  0  0  0  0  0  0  0  0  0  0
    1.5416    2.8497    1.2732 C   0  0  0  0  0  0  0  0  0  0  0  0
    0.2626    2.1650    0.7974 C   0  0  0  0  0  0  0  0  0  0  0  0
    1.8262   -2.1139   -2.8648 H   0  0  0  0  0  0  0  0  0  0  0  0
    0.0786   -2.4363   -3.2026 H   0  0  0  0  0  0  0  0  0  0  0  0
    0.9394   -3.2617   -1.8368 H   0  0  0  0  0  0  0  0  0  0  0  0
   -1.2654   -0.7416   -2.5127 H   0  0  0  0  0  0  0  0  0  0  0  0
   -2.0899    2.1402   -0.0549 H   0  0  0  0  0  0  0  0  0  0  0  0
   -2.4304   -1.4136   -0.7048 H   0  0  0  0  0  0  0  0  0  0  0  0
   -3.9242   -1.1874   -1.6596 H   0  0  0  0  0  0  0  0  0  0  0  0
   -4.4247   -2.5433    0.3391 H   0  0  0  0  0  0  0  0  0  0  0  0
   -3.6195   -1.3627    1.4051 H   0  0  0  0  0  0  0  0  0  0  0  0
   -6.2175   -0.8880   -0.2157 H   0  0  0  0  0  0  0  0  0  0  0  0
   -6.1084   -1.0606    1.5530 H   0  0  0  0  0  0  0  0  0  0  0  0
   -6.2312    1.3856    0.8232 H   0  0  0  0  0  0  0  0  0  0  0  0
   -4.7196    1.0192    1.7032 H   0  0  0  0  0  0  0  0  0  0  0  0
   -4.1880    2.3609   -0.3218 H   0  0  0  0  0  0  0  0  0  0  0  0
   -5.0774    1.2143   -1.3568 H   0  0  0  0  0  0  0  0  0  0  0  0
    0.4380    2.7162   -1.8611 H   0  0  0  0  0  0  0  0  0  0  0  0
    1.3387    1.2198   -2.2681 H   0  0  0  0  0  0  0  0  0  0  0  0
    3.1971    1.8801   -0.7586 H   0  0  0  0  0  0  0  0  0  0  0  0
    2.8572    3.1780   -1.9278 H   0  0  0  0  0  0  0  0  0  0  0  0
    1.5721    4.4470   -0.2023 H   0  0  0  0  0  0  0  0  0  0  0  0
    3.1776    4.0489    0.4626 H   0  0  0  0  0  0  0  0  0  0  0  0
    2.2354    2.1033    1.7025 H   0  0  0  0  0  0  0  0  0  0  0  0
    1.2686    3.5410    2.0974 H   0  0  0  0  0  0  0  0  0  0  0  0
   -0.4362    2.9773    0.4809 H   0  0  0  0  0  0  0  0  0  0  0  0
   -0.2258    1.5944    1.6114 H   0  0  0  0  0  0  0  0  0  0  0  0
  2 17  1  0  0  0  0
  3  7  1  0  0  0  0
  3 12  1  0  0  0  0
  4 20  1  0  0  0  0
  4  1  1  0  0  0  0
  5  1  1  0  0  0  0
  6  5  1  1  0  0  0
  6  7  1  0  0  0  0
  6  2  1  0  0  0  0
  7 22  1  0  0  0  0
  8  3  1  0  0  0  0
  8  9  1  0  0  0  0
  9 10  1  0  0  0  0
  9 26  1  0  0  0  0
 10 11  1  0  0  0  0
 10 28  1  0  0  0  0
 11 29  1  0  0  0  0
 11 30  1  0  0  0  0
 12 31  1  0  0  0  0
 12 11  1  0  0  0  0
 13 14  1  0  0  0  0
 13  2  1  0  0  0  0
 14 35  1  0  0  0  0
 14 15  1  0  0  0  0
 15 38  1  0  0  0  0
 15 16  1  0  0  0  0
 16 39  1  0  0  0  0
 16 40  1  0  0  0  0
 17 16  1  0  0  0  0
 17 42  1  0  0  0  0
 18  4  1  0  0  0  0
 19  4  1  0  0  0  0
 21  5  1  0  0  0  0
 23  8  1  0  0  0  0
 24  8  1  0  0  0  0
 25  9  1  0  0  0  0
 27 10  1  0  0  0  0
 32 12  1  0  0  0  0
 33 13  1  0  0  0  0
 34 13  1  0  0  0  0
 36 14  1  0  0  0  0
 37 15  1  0  0  0  0
 41 17  1  0  0  0  0
M  END
