1,6
q = -2.0, confidence = 0.822

 59 59  0  0  1  0  0  0  0  0999 V2000
   -0.1451   -0.8910   -0.8026 N   0  0  0  0  0  2  0  0  0  0  0  0
   -0.0361   -1.2921    0.5949 C   0  0  1  0  0  0  0  0  0  0  0  0
    0.3709   -2.3188    0.6955 H   0  0  0  0  0  0  0  0  0  0  0  0
    0.9399   -0.2992    1.2592 C   0  0  2  0  0  0  0  0  0  0  0  0
    0.6981   -0.2561    2.3414 H   0  0  0  0  0  0  0  0  0  0  0  0
    0.6484    0.9971    0.6239 N   0  0  0  0  0  2  0  0  0  0  0  0
   -0.3514   -1.9535   -1.8310 C   0  0  0  0  0  0  0  0  0  0  0  0
   -1.4534   -2.9381   -1.3912 C   0  0  0  0  0  0  0  0  0  0  0  0
   -2.4195   -2.4147   -1.2667 H   0  0  0  0  0  0  0  0  0  0  0  0
   -1.2091   -3.4513   -0.4400 H   0  0  0  0  0  0  0  0  0  0  0  0
   -1.5718   -3.7236   -2.1634 H   0  0  0  0  0  0  0  0  0  0  0  0
    0.9897   -2.6927   -2.0161 C   0  0  0  0  0  0  0  0  0  0  0  0
    1.7741   -1.9867   -2.3518 H   0  0  0  0  0  0  0  0  0  0  0  0
    0.8891   -3.4972   -2.7722 H   0  0  0  0  0  0  0  0  0  0  0  0
    1.3356   -3.1579   -1.0710 H   0  0  0  0  0  0  0  0  0  0  0  0
   -0.7728   -1.3104   -3.1612 C   0  0  0  0  0  0  0  0  0  0  0  0
    0.0120   -0.6371   -3.5578 H   0  0  0  0  0  0  0  0  0  0  0  0
   -1.7112   -0.7324   -3.0463 H   0  0  0  0  0  0  0  0  0  0  0  0
   -0.9466   -2.1063   -3.9122 H   0  0  0  0  0  0  0  0  0  0  0  0
   -1.3606   -1.2847    1.3944 C   0  0  0  0  0  0  0  0  0  0  0  0
   -1.4067   -1.6878    2.5454 O   0  0  0  0  0  0  0  0  0  0  0  0
   -2.3639   -0.7586    0.6875 O   0  0  0  0  0  0  0  0  0  0  0  0
   -3.7301   -0.5946    1.2384 C   0  0  0  0  0  0  0  0  0  0  0  0
   -4.2980   -1.9686    1.6034 C   0  0  0  0  0  0  0  0  0  0  0  0
   -4.2609   -2.6491    0.7294 H   0  0  0  0  0  0  0  0  0  0  0  0
   -5.3583   -1.8600    1.9068 H   0  0  0  0  0  0  0  0  0  0  0  0
   -3.7341   -2.4242    2.4379 H   0  0  0  0  0  0  0  0  0  0  0  0
   -4.4826    0.0363    0.0661 C   0  0  0  0  0  0  0  0  0  0  0  0
   -4.5236   -0.6622   -0.7931 H   0  0  0  0  0  0  0  0  0  0  0  0
   -3.9656    0.9567   -0.2680 H   0  0  0  0  0  0  0  0  0  0  0  0
   -5.5198    0.2823    0.3671 H   0  0  0  0  0  0  0  0  0  0  0  0
   -3.6852    0.3518    2.4403 C   0  0  0  0  0  0  0  0  0  0  0  0
   -3.0905   -0.0804    3.2658 H   0  0  0  0  0  0  0  0  0  0  0  0
   -4.7163    0.5340    2.8027 H   0  0  0  0  0  0  0  0  0  0  0  0
   -3.2464    1.3252    2.1478 H   0  0  0  0  0  0  0  0  0  0  0  0
    2.3810   -0.7779    1.1136 C   0  0  0  0  0  0  0  0  0  0  0  0
    2.9093   -1.6351    2.0987 C   0  0  0  0  0  0  0  0  0  0  0  0
    2.2907   -1.8983    2.9725 H   0  0  0  0  0  0  0  0  0  0  0  0
    4.2054   -2.1557    1.9749 C   0  0  0  0  0  0  0  0  0  0  0  0
    4.6053   -2.8215    2.7550 H   0  0  0  0  0  0  0  0  0  0  0  0
    4.9921   -1.8223    0.8601 C   0  0  0  0  0  0  0  0  0  0  0  0
    6.0110   -2.2264    0.7613 H   0  0  0  0  0  0  0  0  0  0  0  0
    4.4723   -0.9670   -0.1235 C   0  0  0  0  0  0  0  0  0  0  0  0
    5.0828   -0.6980   -0.9991 H   0  0  0  0  0  0  0  0  0  0  0  0
    3.1741   -0.4455   -0.0007 C   0  0  0  0  0  0  0  0  0  0  0  0
    2.7810    0.2279   -0.7767 H   0  0  0  0  0  0  0  0  0  0  0  0
    0.8622    2.2353    1.4324 C   0  0  0  0  0  0  0  0  0  0  0  0
   -0.3294    2.3813    2.3993 C   0  0  0  0  0  0  0  0  0  0  0  0
   -0.4252    1.5005    3.0662 H   0  0  0  0  0  0  0  0  0  0  0  0
   -1.2717    2.4842    1.8256 H   0  0  0  0  0  0  0  0  0  0  0  0
   -0.2085    3.2784    3.0391 H   0  0  0  0  0  0  0  0  0  0  0  0
    0.9219    3.4576    0.5021 C   0  0  0  0  0  0  0  0  0  0  0  0
    1.7449    3.3629   -0.2328 H   0  0  0  0  0  0  0  0  0  0  0  0
    1.0985    4.3685    1.1078 H   0  0  0  0  0  0  0  0  0  0  0  0
   -0.0284    3.6034   -0.0492 H   0  0  0  0  0  0  0  0  0  0  0  0
    2.1868    2.1540    2.2169 C   0  0  0  0  0  0  0  0  0  0  0  0
    3.0483    2.0259    1.5341 H   0  0  0  0  0  0  0  0  0  0  0  0
    2.1999    1.3189    2.9432 H   0  0  0  0  0  0  0  0  0  0  0  0
    2.3283    3.0932    2.7877 H   0  0  0  0  0  0  0  0  0  0  0  0
  1  2  1  0  0  0  0
  2  3  1  1  0  0  0
  2  4  1  0  0  0  0
  2 20  1  0  0  0  0
  4  5  1  1  0  0  0
  6  4  1  0  0  0  0
  6 47  1  0  0  0  0
  7  8  1  0  0  0  0
  7  1  1  0  0  0  0
  8  9  1  0  0  0  0
  8 10  1  0  0  0  0
 11  8  1  0  0  0  0
 12  7  1  0  0  0  0
 12 15  1  0  0  0  0
 13 12  1  0  0  0  0
 14 12  1  0  0  0  0
 16 18  1  0  0  0  0
 16  7  1  0  0  0  0
 17 16  1  0  0  0  0
 19 16  1  0  0  0  0
 20 21  2  0  0  0  0
 22 23  1  0  0  0  0
 22 20  1  0  0  0  0
 23 24  1  0  0  0  0
 23 32  1  0  0  0  0
 24 26  1  0  0  0  0
 24 27  1  0  0  0  0
 25 24  1  0  0  0  0
 28 31  1  0  0  0  0
 28 23  1  0  0  0  0
 29 28  1  0  0  0  0
 30 28  1  0  0  0  0
 32 34  1  0  0  0  0
 32 33  1  0  0  0  0
 35 32  1  0  0  0  0
 36  4  1  0  0  0  0
 36 37  1  0  0  0  0
 37 38  1  0  0  0  0
 39 37  2  0  0  0  0
 39 40  1  0  0  0  0
 41 39  1  0  0  0  0
 42 41  1  0  0  0  0
 43 45  1  0  0  0  0
 43 41  2  0  0  0  0
 44 43  1  0  0  0  0
 45 36  2  0  0  0  0
 46 45  1  0  0  0  0
 47 56  1  0  0  0  0
 47 48  1  0  0  0  0
 48 51  1  0  0  0  0
 48 49  1  0  0  0  0
 50 48  1  0  0  0  0
 52 54  1  0  0  0  0
 52 47  1  0  0  0  0
 53 52  1  0  0  0  0
 55 52  1  0  0  0  0
 56 59  1  0  0  0  0
 56 58  1  0  0  0  0
 57 56  1  0  0  0  0
M  END
