1,6
q = -2.0, confidence = 0.82

 50 50  0  0  1  0  0  0  0  0999 V2000
    0.6801    0.8554   -0.6735 N   0  0  0  0  0  2  0  0  0  0  0  0
   -0.1980    1.4517    0.3280 C   0  0  1  0  0  0  0  0  0  0  0  0
   -0.7950    2.2833   -0.0944 H   0  0  0  0  0  0  0  0  0  0  0  0
   -1.1448    0.3274    0.8048 C   0  0  2  0  0  0  0  0  0  0  0  0
   -1.4628    0.5484    1.8465 H   0  0  0  0  0  0  0  0  0  0  0  0
   -0.3321   -0.8971    0.7867 N   0  0  0  0  0  2  0  0  0  0  0  0
    1.2535    1.7656   -1.7079 C   0  0  0  0  0  0  0  0  0  0  0  0
    2.3249    1.0189   -2.5168 C   0  0  0  0  0  0  0  0  0  0  0  0
    3.1548    0.6765   -1.8675 H   0  0  0  0  0  0  0  0  0  0  0  0
    2.7457    1.7026   -3.2806 H   0  0  0  0  0  0  0  0  0  0  0  0
    1.9005    0.1410   -3.0418 H   0  0  0  0  0  0  0  0  0  0  0  0
    0.1156    2.2003   -2.6538 C   0  0  0  0  0  0  0  0  0  0  0  0
   -0.6813    2.7540   -2.1182 H   0  0  0  0  0  0  0  0  0  0  0  0
   -0.3473    1.3140   -3.1304 H   0  0  0  0  0  0  0  0  0  0  0  0
    0.5080    2.8657   -3.4487 H   0  0  0  0  0  0  0  0  0  0  0  0
    1.9028    2.9901   -1.0310 C   0  0  0  0  0  0  0  0  0  0  0  0
    2.6924    2.6700   -0.3235 H   0  0  0  0  0  0  0  0  0  0  0  0
    1.1647    3.6064   -0.4797 H   0  0  0  0  0  0  0  0  0  0  0  0
    2.3631    3.6427   -1.7992 H   0  0  0  0  0  0  0  0  0  0  0  0
    0.5707    1.9848    1.5427 C   0  0  0  0  0  0  0  0  0  0  0  0
    1.5468    1.4699    2.0474 O   0  0  0  0  0  0  0  0  0  0  0  0
   -0.0385    3.0966    2.0289 O   0  0  0  0  0  0  0  0  0  0  0  0
    0.5487    3.6424    3.2191 C   0  0  0  0  0  0  0  0  0  0  0  0
   -0.0634    4.5209    3.4890 H   0  0  0  0  0  0  0  0  0  0  0  0
    1.5994    3.9431    3.0337 H   0  0  0  0  0  0  0  0  0  0  0  0
    0.5422    2.8959    4.0387 H   0  0  0  0  0  0  0  0  0  0  0  0
   -2.3983    0.2840   -0.0647 C   0  0  0  0  0  0  0  0  0  0  0  0
   -3.5266    1.0287    0.3304 C   0  0  0  0  0  0  0  0  0  0  0  0
   -3.5026    1.5821    1.2837 H   0  0  0  0  0  0  0  0  0  0  0  0
   -4.6748    1.0728   -0.4735 C   0  0  0  0  0  0  0  0  0  0  0  0
   -5.5498    1.6560   -0.1481 H   0  0  0  0  0  0  0  0  0  0  0  0
   -4.7078    0.3678   -1.6875 C   0  0  0  0  0  0  0  0  0  0  0  0
   -5.6083    0.3968   -2.3197 H   0  0  0  0  0  0  0  0  0  0  0  0
   -3.5880   -0.3787   -2.0856 C   0  0  0  0  0  0  0  0  0  0  0  0
   -3.6069   -0.9384   -3.0333 H   0  0  0  0  0  0  0  0  0  0  0  0
   -2.4377   -0.4235   -1.2815 C   0  0  0  0  0  0  0  0  0  0  0  0
   -1.5713   -1.0208   -1.6024 H   0  0  0  0  0  0  0  0  0  0  0  0
   -0.6480   -1.9514    1.7960 C   0  0  0  0  0  0  0  0  0  0  0  0
   -0.1373   -1.4694    3.1694 C   0  0  0  0  0  0  0  0  0  0  0  0
   -0.6515   -0.5421    3.4948 H   0  0  0  0  0  0  0  0  0  0  0  0
    0.9486   -1.2575    3.1231 H   0  0  0  0  0  0  0  0  0  0  0  0
   -0.3217   -2.2408    3.9439 H   0  0  0  0  0  0  0  0  0  0  0  0
    0.0648   -3.2598    1.4172 C   0  0  0  0  0  0  0  0  0  0  0  0
    1.1667   -3.1479    1.4342 H   0  0  0  0  0  0  0  0  0  0  0  0
   -0.2413   -3.6074    0.4110 H   0  0  0  0  0  0  0  0  0  0  0  0
   -0.2038   -4.0451    2.1513 H   0  0  0  0  0  0  0  0  0  0  0  0
   -2.1661   -2.2168    1.8418 C   0  0  0  0  0  0  0  0  0  0  0  0
   -2.7445   -1.3256    2.1528 H   0  0  0  0  0  0  0  0  0  0  0  0
   -2.3745   -3.0209    2.5753 H   0  0  0  0  0  0  0  0  0  0  0  0
   -2.5434   -2.5382    0.8518 H   0  0  0  0  0  0  0  0  0  0  0  0
  1  2  1  0  0  0  0
  2  3  1  6  0  0  0
  2  4  1  0  0  0  0
  2 20  1  0  0  0  0
  4  5  1  1  0  0  0
  6  4  1  0  0  0  0
  6 38  1  0  0  0  0
  7 16  1  0  0  0  0
  7  1  1  0  0  0  0
  8  9  1  0  0  0  0
  8  7  1  0  0  0  0
 10  8  1  0  0  0  0
 11  8  1  0  0  0  0
 12 13  1  0  0  0  0
 12  7  1  0  0  0  0
 14 12  1  0  0  0  0
 15 12  1  0  0  0  0
 16 18  1  0  0  0  0
 16 17  1  0  0  0  0
 19 16  1  0  0  0  0
 20 22  1  0  0  0  0
 20 21  2  0  0  0  0
 22 23  1  0  0  0  0
 23 24  1  0  0  0  0
 23 26  1  0  0  0  0
 25 23  1  0  0  0  0
 27 28  1  0  0  0  0
 27  4  1  0  0  0  0
 28 29  1  0  0  0  0
 30 31  1  0  0  0  0
 30 28  2  0  0  0  0
 32 30  1  0  0  0  0
 33 32  1  0  0  0  0
 34 32  2  0  0  0  0
 34 36  1  0  0  0  0
 35 34  1  0  0  0  0
 36 27  2  0  0  0  0
 37 36  1  0  0  0  0
 38 47  1  0  0  0  0
 38 39  1  0  0  0  0
 39 40  1  0  0  0  0
 39 42  1  0  0  0  0
 41 39  1  0  0  0  0
 43 44  1  0  0  0  0
 43 38  1  0  0  0  0
 43 46  1  0  0  0  0
 45 43  1  0  0  0  0
 47 48  1  0  0  0  0
 47 49  1  0  0  0  0
 50 47  1  0  0  0  0
M  END
