1,43
q = -2.0, confidence = 0.524

 56 57  0  0  1  0  0  0  0  0999 V2000
   -0.3757   -0.7141    1.0720 N   0  0  0  0  0  2  0  0  0  0  0  0
   -0.3638   -1.2931    2.4478 C   0  0  0  0  0  0  0  0  0  0  0  0
   -1.6623   -2.0776    2.6912 C   0  0  0  0  0  0  0  0  0  0  0  0
   -2.5535   -1.4242    2.6183 H   0  0  0  0  0  0  0  0  0  0  0  0
   -1.6402   -2.5095    3.7114 H   0  0  0  0  0  0  0  0  0  0  0  0
   -1.7714   -2.9084    1.9667 H   0  0  0  0  0  0  0  0  0  0  0  0
   -0.2760   -0.1308    3.4583 C   0  0  0  0  0  0  0  0  0  0  0  0
   -1.1411    0.5500    3.3366 H   0  0  0  0  0  0  0  0  0  0  0  0
    0.6482    0.4671    3.3252 H   0  0  0  0  0  0  0  0  0  0  0  0
   -0.2751   -0.5198    4.4963 H   0  0  0  0  0  0  0  0  0  0  0  0
    0.8315   -2.2531    2.6129 C   0  0  0  0  0  0  0  0  0  0  0  0
    1.8070   -1.7386    2.4991 H   0  0  0  0  0  0  0  0  0  0  0  0
    0.7811   -3.0719    1.8701 H   0  0  0  0  0  0  0  0  0  0  0  0
    0.8157   -2.6959    3.6286 H   0  0  0  0  0  0  0  0  0  0  0  0
    0.8771   -0.1628    0.5719 C   0  0  1  0  0  0  0  0  0  0  0  0
    1.4421    0.3048    1.4002 H   0  0  0  0  0  0  0  0  0  0  0  0
    1.7521   -1.2103   -0.1516 C   0  0  0  0  0  0  0  0  0  0  0  0
    1.2329   -2.1627   -0.7182 O   0  0  0  0  0  0  0  0  0  0  0  0
    3.2340   -0.9762   -0.2211 C   0  0  0  0  0  0  0  0  0  0  0  0
    3.9984   -1.8936   -0.9760 C   0  0  0  0  0  0  0  0  0  0  0  0
    3.4641   -2.7241   -1.4609 H   0  0  0  0  0  0  0  0  0  0  0  0
    5.3829   -1.7380   -1.0945 C   0  0  0  0  0  0  0  0  0  0  0  0
    5.9692   -2.4588   -1.6844 H   0  0  0  0  0  0  0  0  0  0  0  0
    6.0255   -0.6600   -0.4601 C   0  0  0  0  0  0  0  0  0  0  0  0
    7.1153   -0.5361   -0.5521 H   0  0  0  0  0  0  0  0  0  0  0  0
    5.2766    0.2589    0.2921 C   0  0  0  0  0  0  0  0  0  0  0  0
    5.7774    1.1030    0.7899 H   0  0  0  0  0  0  0  0  0  0  0  0
    3.8883    0.1031    0.4137 C   0  0  0  0  0  0  0  0  0  0  0  0
    3.3207    0.8363    1.0047 H   0  0  0  0  0  0  0  0  0  0  0  0
    0.5033    0.9192   -0.4712 C   0  0  2  0  0  0  0  0  0  0  0  0
    1.3178    0.9876   -1.2251 H   0  0  0  0  0  0  0  0  0  0  0  0
    0.3757    2.2839    0.1975 C   0  0  0  0  0  0  0  0  0  0  0  0
   -0.7925    2.6656    0.8859 C   0  0  0  0  0  0  0  0  0  0  0  0
   -1.6729    2.0057    0.8875 H   0  0  0  0  0  0  0  0  0  0  0  0
   -0.8439    3.8979    1.5562 C   0  0  0  0  0  0  0  0  0  0  0  0
   -1.7638    4.1861    2.0877 H   0  0  0  0  0  0  0  0  0  0  0  0
    0.2625    4.7622    1.5473 C   0  0  0  0  0  0  0  0  0  0  0  0
    0.2153    5.7285    2.0720 H   0  0  0  0  0  0  0  0  0  0  0  0
    1.4261    4.3913    0.8550 C   0  0  0  0  0  0  0  0  0  0  0  0
    2.2945    5.0672    0.8296 H   0  0  0  0  0  0  0  0  0  0  0  0
    1.4786    3.1605    0.1835 C   0  0  0  0  0  0  0  0  0  0  0  0
    2.3884    2.8766   -0.3710 H   0  0  0  0  0  0  0  0  0  0  0  0
   -0.7192    0.4245   -1.1188 N   0  0  0  0  0  2  0  0  0  0  0  0
   -0.9368    0.7924   -2.5500 C   0  0  0  0  0  0  0  0  0  0  0  0
    0.0170   -0.0586   -3.4134 C   0  0  0  0  0  0  0  0  0  0  0  0
   -0.1699   -1.1367   -3.2420 H   0  0  0  0  0  0  0  0  0  0  0  0
    1.0802    0.1458   -3.1729 H   0  0  0  0  0  0  0  0  0  0  0  0
   -0.1296    0.1644   -4.4894 H   0  0  0  0  0  0  0  0  0  0  0  0
   -0.6739    2.2959   -2.7673 C   0  0  0  0  0  0  0  0  0  0  0  0
   -1.3304    2.9112   -2.1221 H   0  0  0  0  0  0  0  0  0  0  0  0
   -0.8798    2.5535   -3.8252 H   0  0  0  0  0  0  0  0  0  0  0  0
    0.3748    2.5798   -2.5555 H   0  0  0  0  0  0  0  0  0  0  0  0
   -2.3916    0.4909   -2.9453 C   0  0  0  0  0  0  0  0  0  0  0  0
   -3.1044    1.0471   -2.3054 H   0  0  0  0  0  0  0  0  0  0  0  0
   -2.6214   -0.5904   -2.8758 H   0  0  0  0  0  0  0  0  0  0  0  0
   -2.5540    0.8013   -3.9965 H   0  0  0  0  0  0  0  0  0  0  0  0
  1  2  1  0  0  0  0
  2 11  1  0  0  0  0
  2  3  1  0  0  0  0
  2  7  1  0  0  0  0
  3  5  1  0  0  0  0
  4  3  1  0  0  0  0
  6  3  1  0  0  0  0
  7 10  1  0  0  0  0
  8  7  1  0  0  0  0
  9  7  1  0  0  0  0
 11 14  1  0  0  0  0
 12 11  1  0  0  0  0
 13 11  1  0  0  0  0
 15  1  1  0  0  0  0
 15 16  1  1  0  0  0
 17 15  1  0  0  0  0
 18 17  2  0  0  0  0
 19 17  1  0  0  0  0
 19 28  1  0  0  0  0
 20 19  2  0  0  0  0
 21 20  1  0  0  0  0
 22 20  1  0  0  0  0
 22 24  2  0  0  0  0
 23 22  1  0  0  0  0
 24 26  1  0  0  0  0
 25 24  1  0  0  0  0
 26 28  2  0  0  0  0
 26 27  1  0  0  0  0
 28 29  1  0  0  0  0
 30 31  1  6  0  0  0
 30 32  1  0  0  0  0
 30 15  1  0  0  0  0
 32 33  1  0  0  0  0
 33 34  1  0  0  0  0
 33 35  2  0  0  0  0
 35 36  1  0  0  0  0
 37 35  1  0  0  0  0
 37 38  1  0  0  0  0
 39 37  2  0  0  0  0
 40 39  1  0  0  0  0
 41 32  2  0  0  0  0
 41 39  1  0  0  0  0
 42 41  1  0  0  0  0
 43 30  1  0  0  0  0
 44 43  1  0  0  0  0
 45 46  1  0  0  0  0
 45 47  1  0  0  0  0
 45 44  1  0  0  0  0
 48 45  1  0  0  0  0
 49 52  1  0  0  0  0
 49 44  1  0  0  0  0
 49 50  1  0  0  0  0
 51 49  1  0  0  0  0
 53 55  1  0  0  0  0
 53 44  1  0  0  0  0
 53 54  1  0  0  0  0
 56 53  1  0  0  0  0
M  END
