23,24
q = 0.0, confidence = 1.0

 30 31  0  0  1  0  0  0  0  0999 V2000
    3.7192    0.8391   -0.4537 C   0  0  0  0  0  3  0  0  0  0  0  0
    4.0212   -0.2054   -0.6052 H   0  0  0  0  0  0  0  0  0  0  0  0
    4.6370    1.8887   -0.5722 C   0  0  0  0  0  0  0  0  0  0  0  0
    5.6882    1.6666   -0.8022 H   0  0  0  0  0  0  0  0  0  0  0  0
    4.1849    3.2061   -0.4095 C   0  0  0  0  0  0  0  0  0  0  0  0
    4.8775    4.0550   -0.5028 H   0  0  0  0  0  0  0  0  0  0  0  0
    2.8271    3.4259   -0.1525 C   0  0  0  0  0  0  0  0  0  0  0  0
    2.4441    4.4524   -0.0666 H   0  0  0  0  0  0  0  0  0  0  0  0
    1.9607    2.3259   -0.0374 C   0  0  0  0  0  0  0  0  0  0  0  0
    0.5066    2.4314    0.1378 C   0  0  2  0  0  3  0  0  0  0  0  0
   -2.2048    0.5735   -0.6281 C   0  0  0  0  0  0  0  0  0  0  0  0
   -1.6750    0.0092   -1.4235 H   0  0  0  0  0  0  0  0  0  0  0  0
   -3.6276    0.4505   -0.4902 C   0  0  0  0  0  0  0  0  0  0  0  0
   -4.3641   -0.3274   -1.4270 C   0  0  0  0  0  0  0  0  0  0  0  0
   -3.8226   -0.7864   -2.2691 H   0  0  0  0  0  0  0  0  0  0  0  0
   -5.7371   -0.4972   -1.2894 C   0  0  0  0  0  0  0  0  0  0  0  0
   -6.3013   -1.0933   -2.0202 H   0  0  0  0  0  0  0  0  0  0  0  0
   -6.4034    0.1079   -0.1977 C   0  0  0  0  0  0  0  0  0  0  0  0
   -7.4902   -0.0241   -0.0850 H   0  0  0  0  0  0  0  0  0  0  0  0
   -5.7109    0.8710    0.7440 C   0  0  0  0  0  0  0  0  0  0  0  0
   -6.2235    1.3410    1.5951 H   0  0  0  0  0  0  0  0  0  0  0  0
   -4.3189    1.0612    0.6141 C   0  0  0  0  0  0  0  0  0  0  0  0
    2.4204    1.0467   -0.1668 N   0  0  0  0  0  2  0  0  0  0  0  0
   -0.1437    1.2770    0.0702 N   0  0  0  0  0  2  0  0  0  0  0  0
   -0.1246    3.6181    0.2660 N   0  0  0  0  0  0  0  0  0  0  0  0
   -1.1454    3.6244    0.2874 H   0  0  0  0  0  0  0  0  0  0  0  0
    0.3794    4.4880    0.4128 H   0  0  0  0  0  0  0  0  0  0  0  0
   -1.5041    1.3404    0.1801 N   0  0  0  0  0  0  0  0  0  0  0  0
   -3.6693    1.7894    1.5308 O   0  0  0  0  0  0  0  0  0  0  0  0
   -2.6980    1.8096    1.2559 H   0  0  0  0  0  0  0  0  0  0  0  0
  1 23  1  0  0  0  0
  2  1  1  0  0  0  0
  3  1  1  0  0  0  0
  3  5  2  0  0  0  0
  4  3  1  0  0  0  0
  5  7  1  0  0  0  0
  6  5  1  0  0  0  0
  7  8  1  0  0  0  0
  7  9  2  0  0  0  0
  9 10  1  0  0  0  0
 10 24  1  6  0  0  0
 10 25  1  0  0  0  0
 11 13  1  0  0  0  0
 11 28  2  0  0  0  0
 12 11  1  0  0  0  0
 13 22  1  0  0  0  0
 14 16  1  0  0  0  0
 14 13  2  0  0  0  0
 15 14  1  0  0  0  0
 16 18  2  0  0  0  0
 17 16  1  0  0  0  0
 18 19  1  0  0  0  0
 18 20  1  0  0  0  0
 20 21  1  0  0  0  0
 22 20  2  0  0  0  0
 22 29  1  0  0  0  0
 23  9  1  0  0  0  0
 24 28  1  0  0  0  0
 25 26  1  0  0  0  0
 25 27  1  0  0  0  0
 30 29  1  0  0  0  0
M  END
