3
q = 0.0, confidence = 0.998

 34 35  0  0  0  0  0  0  0  0999 V2000
   -4.1041    0.1347   -0.1799 O   0  0  0  0  0  0  0  0  0  0  0  0
    4.1041   -0.1326   -0.1803 O   0  0  0  0  0  0  0  0  0  0  0  0
   -1.4846   -0.1841    0.9758 N   0  0  0  0  0  0  0  0  0  0  0  0
    1.4844    0.1815    0.9764 N   0  0  0  0  0  0  0  0  0  0  0  0
    3.3493    1.0446   -0.4045 C   0  0  0  0  0  0  0  0  0  0  0  0
   -3.3500   -1.0424   -0.4074 C   0  0  0  0  0  0  0  0  0  0  0  0
    2.2569   -1.0804    1.1032 C   0  0  0  0  0  0  0  0  0  0  0  0
    3.2313   -1.2417   -0.0631 C   0  0  0  0  0  0  0  0  0  0  0  0
   -2.4006   -1.3301    0.7493 C   0  0  0  0  0  0  0  0  0  0  0  0
   -2.2563    1.0779    1.1062 C   0  0  0  0  0  0  0  0  0  0  0  0
   -3.2307    1.2429   -0.0597 C   0  0  0  0  0  0  0  0  0  0  0  0
    2.3998    1.3287    0.7530 C   0  0  0  0  0  0  0  0  0  0  0  0
   -0.6266   -0.4380    2.1517 C   0  0  0  0  0  0  0  0  0  0  0  0
    0.6264    0.4316    2.1531 C   0  0  0  0  0  0  0  0  0  0  0  0
    2.7542    0.9709   -1.3477 H   0  0  0  0  0  0  0  0  0  0  0  0
    4.0640    1.8839   -0.5149 H   0  0  0  0  0  0  0  0  0  0  0  0
   -2.7548   -0.9664   -1.3504 H   0  0  0  0  0  0  0  0  0  0  0  0
   -4.0651   -1.8809   -0.5201 H   0  0  0  0  0  0  0  0  0  0  0  0
    1.5528   -1.9363    1.0935 H   0  0  0  0  0  0  0  0  0  0  0  0
    2.8155   -1.0724    2.0697 H   0  0  0  0  0  0  0  0  0  0  0  0
    3.8559   -2.1414    0.1035 H   0  0  0  0  0  0  0  0  0  0  0  0
    2.6436   -1.3950   -0.9995 H   0  0  0  0  0  0  0  0  0  0  0  0
   -2.9873   -1.5237    1.6784 H   0  0  0  0  0  0  0  0  0  0  0  0
   -1.7783   -2.2150    0.5061 H   0  0  0  0  0  0  0  0  0  0  0  0
   -1.5517    1.9335    1.0988 H   0  0  0  0  0  0  0  0  0  0  0  0
   -2.8147    1.0676    2.0727 H   0  0  0  0  0  0  0  0  0  0  0  0
   -3.8547    2.1426    0.1095 H   0  0  0  0  0  0  0  0  0  0  0  0
   -2.6429    1.3985   -0.9957 H   0  0  0  0  0  0  0  0  0  0  0  0
    2.9864    1.5202    1.6825 H   0  0  0  0  0  0  0  0  0  0  0  0
    1.7770    2.2138    0.5121 H   0  0  0  0  0  0  0  0  0  0  0  0
   -0.3440   -1.5100    2.1293 H   0  0  0  0  0  0  0  0  0  0  0  0
   -1.1960   -0.2746    3.0966 H   0  0  0  0  0  0  0  0  0  0  0  0
    0.3439    1.5037    2.1343 H   0  0  0  0  0  0  0  0  0  0  0  0
    1.1958    0.2650    3.0975 H   0  0  0  0  0  0  0  0  0  0  0  0
  1 11  1  0  0  0  0
  2  8  1  0  0  0  0
  3 10  1  0  0  0  0
  3 13  1  0  0  0  0
  4  7  1  0  0  0  0
  4 14  1  0  0  0  0
  5  2  1  0  0  0  0
  5 12  1  0  0  0  0
  6  1  1  0  0  0  0
  6  9  1  0  0  0  0
  7 20  1  0  0  0  0
  8 21  1  0  0  0  0
  8  7  1  0  0  0  0
  9  3  1  0  0  0  0
  9 23  1  0  0  0  0
 10 26  1  0  0  0  0
 11 27  1  0  0  0  0
 11 10  1  0  0  0  0
 12  4  1  0  0  0  0
 12 29  1  0  0  0  0
 13 14  1  0  0  0  0
 13 32  1  0  0  0  0
 14 34  1  0  0  0  0
 15  5  1  0  0  0  0
 16  5  1  0  0  0  0
 17  6  1  0  0  0  0
 18  6  1  0  0  0  0
 19  7  1  0  0  0  0
 22  8  1  0  0  0  0
 24  9  1  0  0  0  0
 25 10  1  0  0  0  0
 28 11  1  0  0  0  0
 30 12  1  0  0  0  0
 31 13  1  0  0  0  0
 33 14  1  0  0  0  0
M  END
