1,3
q = -1.0

 24 25  0  0  0  0  0  0  0  0999 V2000
   -0.2258    2.0404   -1.4248 N   0  0  0  0  0  0  0  0  0  0  0  0
   -0.1923    2.3277   -3.7009 N   0  0  0  0  0  0  0  0  0  0  0  0
    0.6089   -0.5316   -1.6010 N   0  0  0  0  0  2  0  0  0  0  0  0
    0.0096    1.4838   -2.6698 C   0  0  0  0  0  0  0  0  0  0  0  0
   -0.5911    3.3249   -1.6977 C   0  0  0  0  0  3  0  0  0  0  0  0
   -0.8416    4.0403   -0.9053 H   0  0  0  0  0  0  0  0  0  0  0  0
   -0.5662    3.4875   -3.0987 C   0  0  0  0  0  0  0  0  0  0  0  0
   -0.8086    4.3903   -3.6760 H   0  0  0  0  0  0  0  0  0  0  0  0
    0.3883    0.1059   -2.7199 C   0  0  0  0  0  3  0  0  0  0  0  0
    0.4407   -0.3983   -3.7063 H   0  0  0  0  0  0  0  0  0  0  0  0
    0.7880   -1.9803   -1.6537 C   0  0  0  0  0  0  0  0  0  0  0  0
    0.5732   -2.3427   -2.6856 H   0  0  0  0  0  0  0  0  0  0  0  0
    0.0363   -2.4434   -0.9807 H   0  0  0  0  0  0  0  0  0  0  0  0
    2.1682   -2.4438   -1.2360 C   0  0  0  0  0  0  0  0  0  0  0  0
    3.2899   -2.1247   -2.0267 C   0  0  0  0  0  0  0  0  0  0  0  0
    3.1535   -1.5490   -2.9562 H   0  0  0  0  0  0  0  0  0  0  0  0
    4.5763   -2.5127   -1.6287 C   0  0  0  0  0  0  0  0  0  0  0  0
    5.4456   -2.2536   -2.2522 H   0  0  0  0  0  0  0  0  0  0  0  0
    4.7558   -3.2276   -0.4316 C   0  0  0  0  0  0  0  0  0  0  0  0
    5.7663   -3.5280   -0.1148 H   0  0  0  0  0  0  0  0  0  0  0  0
    3.6418   -3.5631    0.3532 C   0  0  0  0  0  0  0  0  0  0  0  0
    3.7725   -4.1232    1.2914 H   0  0  0  0  0  0  0  0  0  0  0  0
    2.3538   -3.1757   -0.0492 C   0  0  0  0  0  0  0  0  0  0  0  0
    1.4835   -3.4290    0.5755 H   0  0  0  0  0  0  0  0  0  0  0  0
  2  7  2  0  0  0  0
  2  4  1  0  0  0  0
  4  1  2  0  0  0  0
  5  1  1  0  0  0  0
  5  6  1  0  0  0  0
  7  5  1  0  0  0  0
  8  7  1  0  0  0  0
  9  4  1  0  0  0  0
  9  3  1  0  0  0  0
 10  9  1  0  0  0  0
 11  3  1  0  0  0  0
 11 14  1  0  0  0  0
 11 13  1  0  0  0  0
 12 11  1  0  0  0  0
 14 23  1  0  0  0  0
 15 17  1  0  0  0  0
 15 14  2  0  0  0  0
 16 15  1  0  0  0  0
 17 19  2  0  0  0  0
 18 17  1  0  0  0  0
 19 20  1  0  0  0  0
 19 21  1  0  0  0  0
 21 22  1  0  0  0  0
 23 21  2  0  0  0  0
 23 24  1  0  0  0  0
M  END
