3,6
q = 0.0, confidence = 1.0

 24 25  0  0  1  0  0  0  0  0999 V2000
    3.9785   -1.5423    1.3797 O   0  0  0  0  0  0  0  0  0  0  0  0
    3.1853   -1.7035    1.9293 H   0  0  0  0  0  0  0  0  0  0  0  0
    0.7897   -0.8734   -0.1747 N   0  0  0  0  0  2  0  0  0  0  0  0
    3.0398   -0.1710   -0.3528 N   0  0  0  0  0  0  0  0  0  0  0  0
    1.9115    2.5571   -0.0437 N   0  0  0  0  0  0  0  0  0  0  0  0
   -0.2315    1.4884    0.0002 N   0  0  0  0  0  2  0  0  0  0  0  0
    1.1956   -2.1940   -0.2943 C   0  0  0  0  0  0  0  0  0  0  0  0
    0.3633   -2.9090   -0.3976 H   0  0  0  0  0  0  0  0  0  0  0  0
    2.5093   -2.5347   -0.2718 C   0  0  0  0  0  0  0  0  0  0  0  0
    2.8229   -3.5820   -0.3817 H   0  0  0  0  0  0  0  0  0  0  0  0
    3.5464   -1.5057    0.0327 C   0  0  2  0  0  0  0  0  0  0  0  0
    4.4699   -1.6644   -0.5612 H   0  0  0  0  0  0  0  0  0  0  0  0
    1.7102    0.1069   -0.2178 C   0  0  0  0  0  0  0  0  0  0  0  0
    1.1481    1.4648   -0.0952 C   0  0  0  0  0  0  0  0  0  0  0  0
    1.3130    3.7473    0.0908 C   0  0  0  0  0  0  0  0  0  0  0  0
    1.9708    4.6320    0.1330 H   0  0  0  0  0  0  0  0  0  0  0  0
   -0.0849    3.8677    0.1758 C   0  0  0  0  0  0  0  0  0  0  0  0
   -0.5789    4.8437    0.2802 H   0  0  0  0  0  0  0  0  0  0  0  0
   -0.8375    2.6954    0.1303 C   0  0  0  0  0  0  0  0  0  0  0  0
   -1.9391    2.6460    0.1977 H   0  0  0  0  0  0  0  0  0  0  0  0
    4.0639    0.8373   -0.6158 C   0  0  0  0  0  0  0  0  0  0  0  0
    3.7085    1.5830   -1.3450 H   0  0  0  0  0  0  0  0  0  0  0  0
    4.9455    0.3070   -1.0259 H   0  0  0  0  0  0  0  0  0  0  0  0
    4.3696    1.3728    0.3045 H   0  0  0  0  0  0  0  0  0  0  0  0
  1  2  1  0  0  0  0
  4 13  1  0  0  0  0
  4 11  1  0  0  0  0
  5 15  2  0  0  0  0
  6 19  1  0  0  0  0
  7  9  2  0  0  0  0
  7  3  1  0  0  0  0
  8  7  1  0  0  0  0
  9 11  1  0  0  0  0
 10  9  1  0  0  0  0
 11 12  1  6  0  0  0
 11  1  1  0  0  0  0
 13  3  1  0  0  0  0
 13 14  2  0  0  0  0
 14  5  1  0  0  0  0
 14  6  1  0  0  0  0
 15 16  1  0  0  0  0
 15 17  1  0  0  0  0
 17 18  1  0  0  0  0
 19 17  2  0  0  0  0
 19 20  1  0  0  0  0
 21  4  1  0  0  0  0
 21 24  1  0  0  0  0
 22 21  1  0  0  0  0
 23 21  1  0  0  0  0
M  END
