8,9
q = -3.0

 54 54  0  0  1  0  0  0  0  0999 V2000
    0.6828    2.9565   -1.2215 Si  0  0  0  0  0  0  0  0  0  0  0  0
    2.1608   -2.2041   -1.2709 Si  0  0  0  0  0  0  0  0  0  0  0  0
    2.1400   -2.2054    1.5945 C   0  0  0  0  0  0  0  0  0  0  0  0
    1.6507    0.4458   -2.1825 C   0  0  0  0  0  0  0  0  0  0  0  0
    2.6990    0.7374   -2.0237 H   0  0  0  0  0  0  0  0  0  0  0  0
   -0.6317    0.5494   -2.3035 C   0  0  0  0  0  0  0  0  0  0  0  0
   -1.6662    0.9207   -2.3258 H   0  0  0  0  0  0  0  0  0  0  0  0
    1.7535   -1.5478    0.3241 N   0  0  0  0  0  2  0  0  0  0  0  0
    0.6447    2.1640    0.3693 N   0  0  0  0  0  2  0  0  0  0  0  0
    0.5488    1.3592   -2.2064 C   0  0  1  0  0  3  0  0  0  0  0  0
    1.5224   -3.9544   -1.6191 C   0  0  0  0  0  0  0  0  0  0  0  0
    2.0456   -4.7180   -1.0083 H   0  0  0  0  0  0  0  0  0  0  0  0
    1.6846   -4.2092   -2.6873 H   0  0  0  0  0  0  0  0  0  0  0  0
    0.4374   -4.0374   -1.4064 H   0  0  0  0  0  0  0  0  0  0  0  0
    1.1838   -0.9064   -2.2241 C   0  0  0  0  0  0  0  0  0  0  0  0
    3.5186   -2.8893    1.4773 C   0  0  0  0  0  0  0  0  0  0  0  0
    3.5069   -3.7053    0.7255 H   0  0  0  0  0  0  0  0  0  0  0  0
    3.8163   -3.3414    2.4454 H   0  0  0  0  0  0  0  0  0  0  0  0
    4.2969   -2.1573    1.1837 H   0  0  0  0  0  0  0  0  0  0  0  0
    2.2317   -1.1565    2.7174 C   0  0  0  0  0  0  0  0  0  0  0  0
    1.2601   -0.6390    2.8355 H   0  0  0  0  0  0  0  0  0  0  0  0
    3.0024   -0.3976    2.4734 H   0  0  0  0  0  0  0  0  0  0  0  0
    2.4989   -1.6235    3.6875 H   0  0  0  0  0  0  0  0  0  0  0  0
   -0.2473   -0.8240   -2.3131 C   0  0  0  0  0  0  0  0  0  0  0  0
   -0.9388   -1.6772   -2.3539 H   0  0  0  0  0  0  0  0  0  0  0  0
    1.0918   -3.2736    1.9762 C   0  0  0  0  0  0  0  0  0  0  0  0
    1.0420   -4.0684    1.2059 H   0  0  0  0  0  0  0  0  0  0  0  0
    0.0882   -2.8123    2.0464 H   0  0  0  0  0  0  0  0  0  0  0  0
    1.3282   -3.7516    2.9499 H   0  0  0  0  0  0  0  0  0  0  0  0
    0.9461    2.9016    1.6215 C   0  0  0  0  0  0  0  0  0  0  0  0
   -0.7660    4.1066   -1.6322 C   0  0  0  0  0  0  0  0  0  0  0  0
   -0.7105    5.0736   -1.0949 H   0  0  0  0  0  0  0  0  0  0  0  0
   -1.7387    3.6361   -1.3859 H   0  0  0  0  0  0  0  0  0  0  0  0
   -0.7571    4.3198   -2.7218 H   0  0  0  0  0  0  0  0  0  0  0  0
    2.3039    3.8350   -1.6611 C   0  0  0  0  0  0  0  0  0  0  0  0
    2.4583    4.7630   -1.0748 H   0  0  0  0  0  0  0  0  0  0  0  0
    2.2925    4.1126   -2.7360 H   0  0  0  0  0  0  0  0  0  0  0  0
    3.1777    3.1755   -1.4867 H   0  0  0  0  0  0  0  0  0  0  0  0
    0.4919    4.3745    1.5300 C   0  0  0  0  0  0  0  0  0  0  0  0
    1.0194    4.9185    0.7204 H   0  0  0  0  0  0  0  0  0  0  0  0
    0.7080    4.9102    2.4764 H   0  0  0  0  0  0  0  0  0  0  0  0
   -0.5981    4.4381    1.3397 H   0  0  0  0  0  0  0  0  0  0  0  0
    2.4674    2.8625    1.8881 C   0  0  0  0  0  0  0  0  0  0  0  0
    3.0239    3.3378    1.0567 H   0  0  0  0  0  0  0  0  0  0  0  0
    2.8143    1.8131    1.9705 H   0  0  0  0  0  0  0  0  0  0  0  0
    2.7317    3.3911    2.8281 H   0  0  0  0  0  0  0  0  0  0  0  0
    3.9814   -2.1002   -1.7842 C   0  0  0  0  0  0  0  0  0  0  0  0
    4.6019   -2.8917   -1.3202 H   0  0  0  0  0  0  0  0  0  0  0  0
    4.4174   -1.1197   -1.5057 H   0  0  0  0  0  0  0  0  0  0  0  0
    4.0552   -2.2082   -2.8869 H   0  0  0  0  0  0  0  0  0  0  0  0
    0.2121    2.2757    2.8200 C   0  0  0  0  0  0  0  0  0  0  0  0
   -0.8834    2.2896    2.6501 H   0  0  0  0  0  0  0  0  0  0  0  0
    0.4285    2.8383    3.7512 H   0  0  0  0  0  0  0  0  0  0  0  0
    0.5228    1.2258    2.9737 H   0  0  0  0  0  0  0  0  0  0  0  0
  1  9  1  0  0  0  0
  2  8  1  0  0  0  0
  3 26  1  0  0  0  0
  3 20  1  0  0  0  0
  4  5  1  0  0  0  0
  6 10  1  0  0  0  0
  7  6  1  0  0  0  0
  8  3  1  0  0  0  0
  9 30  1  0  0  0  0
 10  4  1  0  0  0  0
 10  1  1  1  0  0  0
 11 14  1  0  0  0  0
 11  2  1  0  0  0  0
 11 12  1  0  0  0  0
 13 11  1  0  0  0  0
 15  4  2  0  0  0  0
 15  2  1  0  0  0  0
 16  3  1  0  0  0  0
 16 18  1  0  0  0  0
 17 16  1  0  0  0  0
 19 16  1  0  0  0  0
 20 21  1  0  0  0  0
 20 23  1  0  0  0  0
 22 20  1  0  0  0  0
 24  6  2  0  0  0  0
 24 15  1  0  0  0  0
 25 24  1  0  0  0  0
 26 28  1  0  0  0  0
 26 29  1  0  0  0  0
 27 26  1  0  0  0  0
 30 43  1  0  0  0  0
 30 51  1  0  0  0  0
 31 33  1  0  0  0  0
 31  1  1  0  0  0  0
 31 32  1  0  0  0  0
 34 31  1  0  0  0  0
 35 38  1  0  0  0  0
 35  1  1  0  0  0  0
 35 36  1  0  0  0  0
 37 35  1  0  0  0  0
 39 30  1  0  0  0  0
 39 41  1  0  0  0  0
 40 39  1  0  0  0  0
 42 39  1  0  0  0  0
 43 45  1  0  0  0  0
 43 46  1  0  0  0  0
 44 43  1  0  0  0  0
 47 49  1  0  0  0  0
 47 48  1  0  0  0  0
 47  2  1  0  0  0  0
 50 47  1  0  0  0  0
 51 54  1  0  0  0  0
 51 53  1  0  0  0  0
 52 51  1  0  0  0  0
M  END
