4,24
q = -1.0

 41 43  0  0  0  0  0  0  0  0999 V2000
   -2.5896    0.4427   -2.3984 O   0  0  0  0  0  0  0  0  0  0  0  0
   -3.1286    0.6044   -1.0316 S   0  0  0  0  0  0  0  0  0  0  0  0
    6.9122   -1.5028   -0.1625 Br  0  0  0  0  0  0  0  0  0  0  0  0
    0.3551   -0.0249    1.4362 N   0  0  0  0  0  2  0  0  0  0  0  0
   -6.7595   -4.1950    0.0144 C   0  0  0  0  0  0  0  0  0  0  0  0
   -7.8214   -3.8985    0.1115 H   0  0  0  0  0  0  0  0  0  0  0  0
   -6.4677   -4.7278    0.9437 H   0  0  0  0  0  0  0  0  0  0  0  0
   -6.6833   -4.9313   -0.8124 H   0  0  0  0  0  0  0  0  0  0  0  0
   -5.5504   -0.5910   -0.4836 C   0  0  0  0  0  0  0  0  0  0  0  0
   -5.9463    0.4347   -0.5062 H   0  0  0  0  0  0  0  0  0  0  0  0
   -6.3850   -1.6964   -0.2657 C   0  0  0  0  0  0  0  0  0  0  0  0
   -7.4645   -1.5375   -0.1164 H   0  0  0  0  0  0  0  0  0  0  0  0
   -5.8665   -3.0064   -0.2319 C   0  0  0  0  0  0  0  0  0  0  0  0
   -4.4786   -3.1840   -0.4304 C   0  0  0  0  0  0  0  0  0  0  0  0
   -4.0547   -4.2005   -0.4074 H   0  0  0  0  0  0  0  0  0  0  0  0
   -2.0140    0.3611    1.3920 C   0  0  0  0  0  0  0  0  0  0  0  0
    1.4011   -0.2641    2.1351 N   0  0  0  0  0  2  0  0  0  0  0  0
   -3.6269   -2.0979   -0.6567 C   0  0  0  0  0  0  0  0  0  0  0  0
   -2.5434   -2.2366   -0.8104 H   0  0  0  0  0  0  0  0  0  0  0  0
   -4.1794   -0.8076   -0.6727 C   0  0  0  0  0  0  0  0  0  0  0  0
   -3.2472    0.5297    2.0894 C   0  0  0  0  0  0  0  0  0  0  0  0
   -4.1484    0.8091    1.5333 H   0  0  0  0  0  0  0  0  0  0  0  0
   -3.8880    1.8406   -0.6977 O   0  0  0  0  0  0  0  0  0  0  0  0
   -1.8105    0.4524    0.0419 N   0  0  0  0  0  2  0  0  0  0  0  0
   -3.2899    0.3856    3.4721 C   0  0  0  0  0  0  0  0  0  0  0  0
   -4.2510    0.5262    3.9902 H   0  0  0  0  0  0  0  0  0  0  0  0
   -2.1275    0.0798    4.2234 C   0  0  0  0  0  0  0  0  0  0  0  0
   -2.1878   -0.0313    5.3157 H   0  0  0  0  0  0  0  0  0  0  0  0
   -0.8439    0.0847    2.1666 C   0  0  0  0  0  0  0  0  0  0  0  0
   -0.9088   -0.0644    3.5718 C   0  0  0  0  0  0  0  0  0  0  0  0
    0.0220   -0.2857    4.1098 H   0  0  0  0  0  0  0  0  0  0  0  0
    3.7747    0.0306    2.1271 C   0  0  0  0  0  0  0  0  0  0  0  0
    3.6433    0.7246    2.9701 H   0  0  0  0  0  0  0  0  0  0  0  0
    5.0473   -0.2281    1.6091 C   0  0  0  0  0  0  0  0  0  0  0  0
    5.9344    0.2632    2.0329 H   0  0  0  0  0  0  0  0  0  0  0  0
    5.1846   -1.1385    0.5450 C   0  0  0  0  0  0  0  0  0  0  0  0
    4.0619   -1.7952    0.0115 C   0  0  0  0  0  0  0  0  0  0  0  0
    4.1859   -2.5318   -0.7952 H   0  0  0  0  0  0  0  0  0  0  0  0
    2.7852   -1.5051    0.5030 C   0  0  0  0  0  0  0  0  0  0  0  0
    1.8982   -1.9963    0.0733 H   0  0  0  0  0  0  0  0  0  0  0  0
    2.6253   -0.5655    1.5519 C   0  0  0  0  0  0  0  0  0  0  0  0
  1  2  2  0  0  0  0
  2 23  2  0  0  0  0
  2 20  1  0  0  0  0
  2 24  1  0  0  0  0
  3 36  1  0  0  0  0
  4 17  1  0  0  0  0
  4 29  1  0  0  0  0
  5  6  1  0  0  0  0
  5  7  1  0  0  0  0
  8  5  1  0  0  0  0
  9 11  1  0  0  0  0
 10  9  1  0  0  0  0
 11 13  2  0  0  0  0
 11 12  1  0  0  0  0
 13  5  1  0  0  0  0
 14 15  1  0  0  0  0
 14 13  1  0  0  0  0
 16 21  2  0  0  0  0
 16 29  1  0  0  0  0
 18 14  2  0  0  0  0
 19 18  1  0  0  0  0
 20 18  1  0  0  0  0
 20  9  2  0  0  0  0
 21 25  1  0  0  0  0
 22 21  1  0  0  0  0
 24 16  1  0  0  0  0
 25 26  1  0  0  0  0
 25 27  2  0  0  0  0
 27 28  1  0  0  0  0
 29 30  2  0  0  0  0
 30 31  1  0  0  0  0
 30 27  1  0  0  0  0
 32 33  1  0  0  0  0
 34 35  1  0  0  0  0
 34 32  1  0  0  0  0
 36 34  2  0  0  0  0
 37 39  2  0  0  0  0
 37 36  1  0  0  0  0
 38 37  1  0  0  0  0
 39 41  1  0  0  0  0
 40 39  1  0  0  0  0
 41 32  2  0  0  0  0
 41 17  1  0  0  0  0
M  END
