1,7
q = -1.0

 41 43  0  0  0  0  0  0  0  0999 V2000
    0.4940    0.4817    1.5000 N   0  0  0  0  0  2  0  0  0  0  0  0
   -1.8861    0.6863    1.2702 C   0  0  0  0  0  0  0  0  0  0  0  0
   -2.8683    0.3728   -1.2015 S   0  0  0  0  0  0  0  0  0  0  0  0
    4.8353   -2.8093   -0.3039 Br  0  0  0  0  0  0  0  0  0  0  0  0
   -3.2815    1.0336    3.2417 C   0  0  0  0  0  0  0  0  0  0  0  0
   -4.2776    1.2088    3.6763 H   0  0  0  0  0  0  0  0  0  0  0  0
   -1.6082    0.5222   -0.0589 N   0  0  0  0  0  2  0  0  0  0  0  0
   -3.1660    0.9060    1.8618 C   0  0  0  0  0  0  0  0  0  0  0  0
   -4.0474    1.0101    1.2201 H   0  0  0  0  0  0  0  0  0  0  0  0
    1.5076    0.4553    2.2803 N   0  0  0  0  0  2  0  0  0  0  0  0
   -2.1497    0.9597    4.0925 C   0  0  0  0  0  0  0  0  0  0  0  0
   -2.2681    1.0613    5.1810 H   0  0  0  0  0  0  0  0  0  0  0  0
   -0.7502    0.6476    2.1380 C   0  0  0  0  0  0  0  0  0  0  0  0
   -0.8886    0.7738    3.5403 C   0  0  0  0  0  0  0  0  0  0  0  0
    0.0202    0.7270    4.1541 H   0  0  0  0  0  0  0  0  0  0  0  0
    2.7895    0.1507    1.8341 C   0  0  0  0  0  0  0  0  0  0  0  0
   -2.2431   -0.0277   -2.4797 O   0  0  0  0  0  0  0  0  0  0  0  0
    5.1621    0.7022    1.9306 C   0  0  0  0  0  0  0  0  0  0  0  0
    5.9748    1.3604    2.2731 H   0  0  0  0  0  0  0  0  0  0  0  0
    3.8421    0.9726    2.3055 C   0  0  0  0  0  0  0  0  0  0  0  0
    3.5932    1.8290    2.9483 H   0  0  0  0  0  0  0  0  0  0  0  0
   -3.7063    1.6022   -1.1626 O   0  0  0  0  0  0  0  0  0  0  0  0
    4.4190   -1.2569    0.7260 C   0  0  0  0  0  0  0  0  0  0  0  0
    5.4685   -0.4165    1.1367 C   0  0  0  0  0  0  0  0  0  0  0  0
    6.5058   -0.6486    0.8591 H   0  0  0  0  0  0  0  0  0  0  0  0
    3.0832   -0.9913    1.0466 C   0  0  0  0  0  0  0  0  0  0  0  0
    2.2664   -1.6405    0.6952 H   0  0  0  0  0  0  0  0  0  0  0  0
   -3.8627   -1.0010   -0.6102 C   0  0  0  0  0  0  0  0  0  0  0  0
   -5.2525   -0.8401   -0.5408 C   0  0  0  0  0  0  0  0  0  0  0  0
   -5.7002    0.1313   -0.7966 H   0  0  0  0  0  0  0  0  0  0  0  0
   -6.0390   -1.9293   -0.1398 C   0  0  0  0  0  0  0  0  0  0  0  0
   -7.1328   -1.8142   -0.0821 H   0  0  0  0  0  0  0  0  0  0  0  0
   -4.0490   -3.2909    0.1080 C   0  0  0  0  0  0  0  0  0  0  0  0
   -3.5736   -4.2507    0.3651 H   0  0  0  0  0  0  0  0  0  0  0  0
   -5.4543   -3.1675    0.1935 C   0  0  0  0  0  0  0  0  0  0  0  0
   -3.2438   -2.2213   -0.2966 C   0  0  0  0  0  0  0  0  0  0  0  0
   -2.1466   -2.3172   -0.3610 H   0  0  0  0  0  0  0  0  0  0  0  0
   -6.2964   -4.3362    0.6359 C   0  0  0  0  0  0  0  0  0  0  0  0
   -6.1378   -5.2157   -0.0222 H   0  0  0  0  0  0  0  0  0  0  0  0
   -7.3760   -4.0923    0.6260 H   0  0  0  0  0  0  0  0  0  0  0  0
   -6.0279   -4.6554    1.6646 H   0  0  0  0  0  0  0  0  0  0  0  0
  1 13  1  0  0  0  0
  1 10  1  0  0  0  0
  2  8  2  0  0  0  0
  2 13  1  0  0  0  0
  3 22  2  0  0  0  0
  3 28  1  0  0  0  0
  3  7  1  0  0  0  0
  4 23  1  0  0  0  0
  5  6  1  0  0  0  0
  5 11  2  0  0  0  0
  7  2  1  0  0  0  0
  8  5  1  0  0  0  0
  9  8  1  0  0  0  0
 11 12  1  0  0  0  0
 13 14  2  0  0  0  0
 14 11  1  0  0  0  0
 14 15  1  0  0  0  0
 16 10  1  0  0  0  0
 16 20  1  0  0  0  0
 17  3  2  0  0  0  0
 18 19  1  0  0  0  0
 18 20  2  0  0  0  0
 20 21  1  0  0  0  0
 23 26  1  0  0  0  0
 23 24  2  0  0  0  0
 24 18  1  0  0  0  0
 25 24  1  0  0  0  0
 26 16  2  0  0  0  0
 27 26  1  0  0  0  0
 28 29  2  0  0  0  0
 28 36  1  0  0  0  0
 29 31  1  0  0  0  0
 30 29  1  0  0  0  0
 31 32  1  0  0  0  0
 31 35  2  0  0  0  0
 33 35  1  0  0  0  0
 33 34  1  0  0  0  0
 35 38  1  0  0  0  0
 36 33  2  0  0  0  0
 37 36  1  0  0  0  0
 38 41  1  0  0  0  0
 39 38  1  0  0  0  0
 40 38  1  0  0  0  0
M  END
