1,10
q = -1.0

 45 47  0  0  0  0  0  0  0  0999 V2000
    0.7347   -0.0872    1.4348 N   0  0  0  0  0  2  0  0  0  0  0  0
   -1.6064    0.4545    1.3686 C   0  0  0  0  0  0  0  0  0  0  0  0
   -2.7000    0.6664   -1.0650 S   0  0  0  0  0  0  0  0  0  0  0  0
   -3.3879    1.9571   -0.7826 O   0  0  0  0  0  0  0  0  0  0  0  0
   -2.1746    0.4230   -2.4254 O   0  0  0  0  0  0  0  0  0  0  0  0
    1.7606   -0.3594    2.1493 N   0  0  0  0  0  2  0  0  0  0  0  0
   -2.8236    0.7396    2.0543 C   0  0  0  0  0  0  0  0  0  0  0  0
   -3.7031    1.0559    1.4831 H   0  0  0  0  0  0  0  0  0  0  0  0
    6.7829   -1.8792    0.2819 O   0  0  0  0  0  0  0  0  0  0  0  0
   -1.3996    0.4700    0.0135 N   0  0  0  0  0  2  0  0  0  0  0  0
   -2.8773    0.6593    3.4428 C   0  0  0  0  0  0  0  0  0  0  0  0
   -3.8267    0.8878    3.9510 H   0  0  0  0  0  0  0  0  0  0  0  0
   -1.7397    0.3059    4.2086 C   0  0  0  0  0  0  0  0  0  0  0  0
   -1.8062    0.2456    5.3046 H   0  0  0  0  0  0  0  0  0  0  0  0
   -0.5339    0.0480    3.5655 C   0  0  0  0  0  0  0  0  0  0  0  0
    0.3791   -0.2158    4.1146 H   0  0  0  0  0  0  0  0  0  0  0  0
   -0.4580    0.1326    2.1564 C   0  0  0  0  0  0  0  0  0  0  0  0
    4.3469   -2.1086    0.0918 C   0  0  0  0  0  0  0  0  0  0  0  0
    4.4048   -2.8580   -0.7092 H   0  0  0  0  0  0  0  0  0  0  0  0
    5.5180   -1.5660    0.6657 C   0  0  0  0  0  0  0  0  0  0  0  0
    5.4038   -0.6475    1.7372 C   0  0  0  0  0  0  0  0  0  0  0  0
    6.3266   -0.2538    2.1870 H   0  0  0  0  0  0  0  0  0  0  0  0
    4.1490   -0.2811    2.2144 C   0  0  0  0  0  0  0  0  0  0  0  0
    4.0499    0.4139    3.0611 H   0  0  0  0  0  0  0  0  0  0  0  0
    2.9664   -0.7662    1.5950 C   0  0  0  0  0  0  0  0  0  0  0  0
   -3.8349   -0.6656   -0.6561 C   0  0  0  0  0  0  0  0  0  0  0  0
    3.0846   -1.7048    0.5428 C   0  0  0  0  0  0  0  0  0  0  0  0
    2.1744   -2.1217    0.0839 H   0  0  0  0  0  0  0  0  0  0  0  0
   -6.6094   -3.8640    0.1681 C   0  0  0  0  0  0  0  0  0  0  0  0
   -6.5552   -4.6551   -0.6080 H   0  0  0  0  0  0  0  0  0  0  0  0
   -7.6556   -3.5063    0.2204 H   0  0  0  0  0  0  0  0  0  0  0  0
   -6.3676   -4.3501    1.1367 H   0  0  0  0  0  0  0  0  0  0  0  0
   -5.1911   -0.3619   -0.4811 C   0  0  0  0  0  0  0  0  0  0  0  0
   -5.5255    0.6836   -0.5476 H   0  0  0  0  0  0  0  0  0  0  0  0
   -5.6484   -2.7416   -0.1290 C   0  0  0  0  0  0  0  0  0  0  0  0
   -4.2732   -3.0083   -0.3155 C   0  0  0  0  0  0  0  0  0  0  0  0
   -3.9098   -4.0461   -0.2485 H   0  0  0  0  0  0  0  0  0  0  0  0
   -3.3591   -1.9842   -0.5839 C   0  0  0  0  0  0  0  0  0  0  0  0
   -2.2852   -2.1916   -0.7281 H   0  0  0  0  0  0  0  0  0  0  0  0
   -6.0894   -1.4063   -0.2200 C   0  0  0  0  0  0  0  0  0  0  0  0
   -7.1580   -1.1786   -0.0810 H   0  0  0  0  0  0  0  0  0  0  0  0
    6.9565   -2.7928   -0.7860 C   0  0  0  0  0  0  0  0  0  0  0  0
    6.5316   -3.7936   -0.5488 H   0  0  0  0  0  0  0  0  0  0  0  0
    8.0470   -2.8917   -0.9391 H   0  0  0  0  0  0  0  0  0  0  0  0
    6.4902   -2.4227   -1.7268 H   0  0  0  0  0  0  0  0  0  0  0  0
  1  6  1  0  0  0  0
  1 17  1  0  0  0  0
  2  7  2  0  0  0  0
  2 17  1  0  0  0  0
  3  4  2  0  0  0  0
  3 26  1  0  0  0  0
  3 10  1  0  0  0  0
  5  3  2  0  0  0  0
  7 11  1  0  0  0  0
  8  7  1  0  0  0  0
  9 20  1  0  0  0  0
 10  2  1  0  0  0  0
 11 12  1  0  0  0  0
 11 13  2  0  0  0  0
 13 14  1  0  0  0  0
 15 16  1  0  0  0  0
 15 13  1  0  0  0  0
 17 15  2  0  0  0  0
 18 27  2  0  0  0  0
 18 20  1  0  0  0  0
 19 18  1  0  0  0  0
 20 21  2  0  0  0  0
 21 22  1  0  0  0  0
 21 23  1  0  0  0  0
 23 24  1  0  0  0  0
 25  6  1  0  0  0  0
 25 23  2  0  0  0  0
 26 38  2  0  0  0  0
 26 33  1  0  0  0  0
 27 25  1  0  0  0  0
 28 27  1  0  0  0  0
 29 31  1  0  0  0  0
 29 32  1  0  0  0  0
 30 29  1  0  0  0  0
 33 40  2  0  0  0  0
 34 33  1  0  0  0  0
 35 29  1  0  0  0  0
 36 37  1  0  0  0  0
 36 35  2  0  0  0  0
 38 36  1  0  0  0  0
 39 38  1  0  0  0  0
 40 35  1  0  0  0  0
 40 41  1  0  0  0  0
 42 43  1  0  0  0  0
 42  9  1  0  0  0  0
 44 42  1  0  0  0  0
 45 42  1  0  0  0  0
M  END
