1,2
q = -1.0

 57 59  0  0  0  0  0  0  0  0999 V2000
    0.9475    0.4085   -0.1490 N   0  0  0  0  0  2  0  0  0  0  0  0
   -1.5737    1.5788   -1.0104 N   0  0  0  0  0  2  0  0  0  0  0  0
    1.3501    1.6967   -0.0461 C   0  0  0  0  0  0  0  0  0  0  0  0
    0.4631    2.8094   -0.3558 C   0  0  0  0  0  0  0  0  0  0  0  0
    0.9455    4.1459   -0.2148 C   0  0  0  0  0  3  0  0  0  0  0  0
    0.2483    4.9668   -0.4492 H   0  0  0  0  0  0  0  0  0  0  0  0
    2.2366    4.4331    0.1977 C   0  0  0  0  0  0  0  0  0  0  0  0
    2.5812    5.4725    0.2918 H   0  0  0  0  0  0  0  0  0  0  0  0
    3.1023    3.3513    0.5013 C   0  0  0  0  0  0  0  0  0  0  0  0
    4.1333    3.5545    0.8319 H   0  0  0  0  0  0  0  0  0  0  0  0
    2.6778    2.0364    0.3909 C   0  0  0  0  0  0  0  0  0  0  0  0
    3.3629    1.2125    0.6349 H   0  0  0  0  0  0  0  0  0  0  0  0
    1.8025   -0.6509    0.2697 C   0  0  0  0  0  0  0  0  0  0  0  0
    2.4657   -1.4402   -0.7100 C   0  0  0  0  0  0  0  0  0  0  0  0
    3.2421   -2.5330   -0.2809 C   0  0  0  0  0  0  0  0  0  0  0  0
    3.7618   -3.1523   -1.0270 H   0  0  0  0  0  0  0  0  0  0  0  0
    3.3610   -2.8465    1.0781 C   0  0  0  0  0  0  0  0  0  0  0  0
    3.9743   -3.7035    1.3954 H   0  0  0  0  0  0  0  0  0  0  0  0
    2.6884   -2.0726    2.0336 C   0  0  0  0  0  0  0  0  0  0  0  0
    2.7749   -2.3355    3.0981 H   0  0  0  0  0  0  0  0  0  0  0  0
    1.8981   -0.9734    1.6539 C   0  0  0  0  0  0  0  0  0  0  0  0
    2.3441   -1.0919   -2.1877 C   0  0  0  0  0  0  0  0  0  0  0  0
    1.3804   -0.5495   -2.3012 H   0  0  0  0  0  0  0  0  0  0  0  0
    2.2868   -2.3222   -3.1016 C   0  0  0  0  0  0  0  0  0  0  0  0
    1.4995   -3.0312   -2.7754 H   0  0  0  0  0  0  0  0  0  0  0  0
    3.2519   -2.8699   -3.1239 H   0  0  0  0  0  0  0  0  0  0  0  0
    2.0653   -2.0167   -4.1444 H   0  0  0  0  0  0  0  0  0  0  0  0
    3.4591   -0.1207   -2.6163 C   0  0  0  0  0  0  0  0  0  0  0  0
    3.4526    0.8004   -2.0009 H   0  0  0  0  0  0  0  0  0  0  0  0
    3.3413    0.1751   -3.6795 H   0  0  0  0  0  0  0  0  0  0  0  0
    4.4554   -0.5972   -2.5021 H   0  0  0  0  0  0  0  0  0  0  0  0
    1.0917   -0.1827    2.6792 C   0  0  0  0  0  0  0  0  0  0  0  0
    1.0290    0.8626    2.3142 H   0  0  0  0  0  0  0  0  0  0  0  0
   -0.3469   -0.7289    2.7529 C   0  0  0  0  0  0  0  0  0  0  0  0
   -0.8347   -0.7251    1.7569 H   0  0  0  0  0  0  0  0  0  0  0  0
   -0.9728   -0.1197    3.4382 H   0  0  0  0  0  0  0  0  0  0  0  0
   -0.3531   -1.7770    3.1169 H   0  0  0  0  0  0  0  0  0  0  0  0
    1.7319   -0.1358    4.0716 C   0  0  0  0  0  0  0  0  0  0  0  0
    2.7785    0.2266    4.0254 H   0  0  0  0  0  0  0  0  0  0  0  0
    1.7374   -1.1312    4.5622 H   0  0  0  0  0  0  0  0  0  0  0  0
    1.1618    0.5473    4.7334 H   0  0  0  0  0  0  0  0  0  0  0  0
   -0.9067    2.6792   -0.7546 C   0  0  0  0  0  0  0  0  0  0  0  0
   -1.4612    3.6408   -0.8433 H   0  0  0  0  0  0  0  0  0  0  0  0
   -2.9962    1.6586   -1.3162 C   0  0  0  0  0  0  0  0  0  0  0  0
   -3.1634    1.3744   -2.3784 H   0  0  0  0  0  0  0  0  0  0  0  0
   -3.3612    2.7074   -1.2019 H   0  0  0  0  0  0  0  0  0  0  0  0
   -3.7915    0.7182   -0.4283 C   0  0  0  0  0  0  0  0  0  0  0  0
   -3.4854    0.6112    0.9434 C   0  0  0  0  0  0  0  0  0  0  0  0
   -2.6742    1.2222    1.3687 H   0  0  0  0  0  0  0  0  0  0  0  0
   -4.1867   -0.2835    1.7640 C   0  0  0  0  0  0  0  0  0  0  0  0
   -3.9253   -0.3652    2.8300 H   0  0  0  0  0  0  0  0  0  0  0  0
   -5.2121   -1.0776    1.2258 C   0  0  0  0  0  0  0  0  0  0  0  0
   -5.7582   -1.7856    1.8672 H   0  0  0  0  0  0  0  0  0  0  0  0
   -5.5307   -0.9701   -0.1367 C   0  0  0  0  0  0  0  0  0  0  0  0
   -6.3270   -1.5954   -0.5683 H   0  0  0  0  0  0  0  0  0  0  0  0
   -4.8202   -0.0814   -0.9581 C   0  0  0  0  0  0  0  0  0  0  0  0
   -5.0557   -0.0193   -2.0325 H   0  0  0  0  0  0  0  0  0  0  0  0
  1  3  1  0  0  0  0
  1 13  1  0  0  0  0
  2 42  1  0  0  0  0
  3 11  2  0  0  0  0
  4  5  1  0  0  0  0
  4  3  1  0  0  0  0
  5  7  1  0  0  0  0
  6  5  1  0  0  0  0
  7  8  1  0  0  0  0
  7  9  2  0  0  0  0
  9 10  1  0  0  0  0
 11  9  1  0  0  0  0
 11 12  1  0  0  0  0
 13 21  1  0  0  0  0
 14 15  1  0  0  0  0
 14 13  2  0  0  0  0
 15 17  2  0  0  0  0
 16 15  1  0  0  0  0
 17 18  1  0  0  0  0
 17 19  1  0  0  0  0
 19 20  1  0  0  0  0
 21 19  2  0  0  0  0
 21 32  1  0  0  0  0
 22 14  1  0  0  0  0
 23 22  1  0  0  0  0
 24 25  1  0  0  0  0
 24 22  1  0  0  0  0
 26 24  1  0  0  0  0
 27 24  1  0  0  0  0
 28 31  1  0  0  0  0
 28 22  1  0  0  0  0
 28 29  1  0  0  0  0
 30 28  1  0  0  0  0
 32 34  1  0  0  0  0
 32 38  1  0  0  0  0
 33 32  1  0  0  0  0
 34 37  1  0  0  0  0
 34 36  1  0  0  0  0
 35 34  1  0  0  0  0
 38 40  1  0  0  0  0
 38 41  1  0  0  0  0
 39 38  1  0  0  0  0
 42  4  2  0  0  0  0
 43 42  1  0  0  0  0
 44 46  1  0  0  0  0
 44  2  1  0  0  0  0
 44 47  1  0  0  0  0
 45 44  1  0  0  0  0
 47 48  1  0  0  0  0
 48 49  1  0  0  0  0
 48 50  2  0  0  0  0
 50 51  1  0  0  0  0
 52 50  1  0  0  0  0
 52 53  1  0  0  0  0
 54 52  2  0  0  0  0
 55 54  1  0  0  0  0
 56 47  2  0  0  0  0
 56 54  1  0  0  0  0
 57 56  1  0  0  0  0
M  END
