2,3
q = 0.0, confidence = 1.0

 17 17  0  0  1  0  0  0  0  0999 V2000
   -0.2848    0.5542   -3.1211 O   0  0  0  0  0  0  0  0  0  0  0  0
    1.7015   -0.9237    0.0377 N   0  0  0  0  0  2  0  0  0  0  0  0
    0.3585    0.0642   -2.0443 N   0  0  0  0  0  2  0  0  0  0  0  0
    1.6911   -1.0362   -3.6342 N   0  0  0  0  0  0  0  0  0  0  0  0
    2.3196   -1.4060    1.1213 C   0  0  0  0  0  3  0  0  0  0  0  0
    3.3740   -2.3308    1.0387 C   0  0  0  0  0  0  0  0  0  0  0  0
    3.7701   -2.7739   -0.2313 C   0  0  0  0  0  0  0  0  0  0  0  0
    3.1225   -2.2704   -1.3667 C   0  0  0  0  0  0  0  0  0  0  0  0
    2.0927   -1.3210   -1.1953 C   0  0  0  0  0  0  0  0  0  0  0  0
    1.3736   -0.7177   -2.3301 C   0  0  2  0  0  3  0  0  0  0  0  0
   -1.1134    1.1666   -2.7071 H   0  0  0  0  0  0  0  0  0  0  0  0
    1.1802   -0.4298   -4.2872 H   0  0  0  0  0  0  0  0  0  0  0  0
    2.6853   -1.1312   -3.8484 H   0  0  0  0  0  0  0  0  0  0  0  0
    1.9604   -1.0235    2.0907 H   0  0  0  0  0  0  0  0  0  0  0  0
    3.8625   -2.6950    1.9534 H   0  0  0  0  0  0  0  0  0  0  0  0
    4.5782   -3.5133   -0.3397 H   0  0  0  0  0  0  0  0  0  0  0  0
    3.3942   -2.6246   -2.3710 H   0  0  0  0  0  0  0  0  0  0  0  0
  1 11  1  0  0  0  0
  1  3  1  0  0  0  0
  2  5  1  0  0  0  0
  4 10  1  0  0  0  0
  5 14  1  0  0  0  0
  6  5  1  0  0  0  0
  6 15  1  0  0  0  0
  7  6  2  0  0  0  0
  8  9  2  0  0  0  0
  8  7  1  0  0  0  0
  9  2  1  0  0  0  0
 10  3  1  1  0  0  0
 10  9  1  0  0  0  0
 12  4  1  0  0  0  0
 13  4  1  0  0  0  0
 16  7  1  0  0  0  0
 17  8  1  0  0  0  0
M  END
