1,2
q = 0.0, confidence = 0.98

 22 22  0  0  0  0  0  0  0  0999 V2000
    1.2859   -1.2459   -0.0001 N   0  0  0  0  0  0  0  0  0  0  0  0
    1.2860    1.2458    0.0001 N   0  0  0  0  0  0  0  0  0  0  0  0
    2.0180   -0.7737   -1.2074 C   0  0  0  0  0  0  0  0  0  0  0  0
    2.0187    0.7738   -1.2069 C   0  0  0  0  0  0  0  0  0  0  0  0
    2.0179    0.7736    1.2074 C   0  0  0  0  0  0  0  0  0  0  0  0
    2.0185   -0.7739    1.2069 C   0  0  0  0  0  0  0  0  0  0  0  0
    1.1009   -2.7064   -0.0001 C   0  0  0  0  0  0  0  0  0  0  0  0
    1.1010    2.7064    0.0001 C   0  0  0  0  0  0  0  0  0  0  0  0
    1.4862   -1.1674   -2.0924 H   0  0  0  0  0  0  0  0  0  0  0  0
    3.0537   -1.1876   -1.2007 H   0  0  0  0  0  0  0  0  0  0  0  0
    1.4882    1.1685   -2.0922 H   0  0  0  0  0  0  0  0  0  0  0  0
    3.0547    1.1868   -1.1990 H   0  0  0  0  0  0  0  0  0  0  0  0
    1.4861    1.1673    2.0924 H   0  0  0  0  0  0  0  0  0  0  0  0
    3.0537    1.1875    1.2009 H   0  0  0  0  0  0  0  0  0  0  0  0
    1.4880   -1.1685    2.0922 H   0  0  0  0  0  0  0  0  0  0  0  0
    3.0546   -1.1869    1.1991 H   0  0  0  0  0  0  0  0  0  0  0  0
    0.5096   -2.9912    0.8884 H   0  0  0  0  0  0  0  0  0  0  0  0
    2.0860   -3.2237    0.0001 H   0  0  0  0  0  0  0  0  0  0  0  0
    0.5101   -2.9912   -0.8890 H   0  0  0  0  0  0  0  0  0  0  0  0
    0.5100    2.9911    0.8888 H   0  0  0  0  0  0  0  0  0  0  0  0
    0.5099    2.9912   -0.8885 H   0  0  0  0  0  0  0  0  0  0  0  0
    2.0862    3.2236    0.0002 H   0  0  0  0  0  0  0  0  0  0  0  0
  1  6  1  0  0  0  0
  2  8  1  0  0  0  0
  2  5  1  0  0  0  0
  3  4  1  0  0  0  0
  3 10  1  0  0  0  0
  3  1  1  0  0  0  0
  4 12  1  0  0  0  0
  4  2  1  0  0  0  0
  5 13  1  0  0  0  0
  6  5  1  0  0  0  0
  6 15  1  0  0  0  0
  7  1  1  0  0  0  0
  7 18  1  0  0  0  0
  7 17  1  0  0  0  0
  8 22  1  0  0  0  0
  8 20  1  0  0  0  0
  9  3  1  0  0  0  0
 11  4  1  0  0  0  0
 14  5  1  0  0  0  0
 16  6  1  0  0  0  0
 19  7  1  0  0  0  0
 21  8  1  0  0  0  0
M  END
