1,3
q = -1.0, confidence = 0.0

 26 25  0  0  0  0  0  0  0  0999 V2000
   -1.2711    1.1407   -0.4196 N   0  0  0  0  0  2  0  0  0  0  0  0
   -0.9631   -2.5977   -0.0004 O   0  0  0  0  0  1  0  0  0  0  0  0
   -1.1706   -1.3385   -0.1574 N   0  0  0  0  0  2  0  0  0  0  0  0
   -2.4506    0.5503   -0.5376 C   0  0  0  0  0  0  0  0  0  0  0  0
   -2.4166   -0.8881   -0.3923 C   0  0  0  0  0  0  0  0  0  0  0  0
   -1.0555    2.5788   -0.4565 C   0  0  0  0  0  0  0  0  0  0  0  0
   -0.1249    2.7487   -1.0330 H   0  0  0  0  0  0  0  0  0  0  0  0
   -1.8863    3.0879   -0.9895 H   0  0  0  0  0  0  0  0  0  0  0  0
   -0.8745    3.1660    0.9457 C   0  0  0  0  0  0  0  0  0  0  0  0
   -1.7791    3.0211    1.5706 H   0  0  0  0  0  0  0  0  0  0  0  0
   -0.6669    4.2531    0.8815 H   0  0  0  0  0  0  0  0  0  0  0  0
   -0.0149    2.6755    1.4412 H   0  0  0  0  0  0  0  0  0  0  0  0
   -3.7529    1.2751   -0.7694 C   0  0  0  0  0  0  0  0  0  0  0  0
   -4.3888    0.6492   -1.4278 H   0  0  0  0  0  0  0  0  0  0  0  0
   -3.5642    2.2137   -1.3262 H   0  0  0  0  0  0  0  0  0  0  0  0
   -4.5136    1.5860    0.5308 C   0  0  0  0  0  0  0  0  0  0  0  0
   -3.9167    2.2387    1.1978 H   0  0  0  0  0  0  0  0  0  0  0  0
   -4.7470    0.6595    1.0920 H   0  0  0  0  0  0  0  0  0  0  0  0
   -5.4694    2.1021    0.3119 H   0  0  0  0  0  0  0  0  0  0  0  0
   -3.5664   -1.8511   -0.4416 C   0  0  0  0  0  0  0  0  0  0  0  0
   -3.2597   -2.7045   -1.0837 H   0  0  0  0  0  0  0  0  0  0  0  0
   -4.4357   -1.3707   -0.9329 H   0  0  0  0  0  0  0  0  0  0  0  0
   -3.9658   -2.3951    0.9409 C   0  0  0  0  0  0  0  0  0  0  0  0
   -3.0990   -2.8940    1.4154 H   0  0  0  0  0  0  0  0  0  0  0  0
   -4.3074   -1.5829    1.6140 H   0  0  0  0  0  0  0  0  0  0  0  0
   -4.7856   -3.1361    0.8535 H   0  0  0  0  0  0  0  0  0  0  0  0
  3  2  1  0  0  0  0
  4  1  1  0  0  0  0
  4  5  2  0  0  0  0
  5  3  1  0  0  0  0
  6  1  1  0  0  0  0
  6  9  1  0  0  0  0
  7  6  1  0  0  0  0
  8  6  1  0  0  0  0
  9 12  1  0  0  0  0
  9 10  1  0  0  0  0
 11  9  1  0  0  0  0
 13  4  1  0  0  0  0
 13 16  1  0  0  0  0
 14 13  1  0  0  0  0
 15 13  1  0  0  0  0
 16 18  1  0  0  0  0
 16 17  1  0  0  0  0
 19 16  1  0  0  0  0
 20  5  1  0  0  0  0
 20 23  1  0  0  0  0
 21 20  1  0  0  0  0
 22 20  1  0  0  0  0
 23 24  1  0  0  0  0
 23 25  1  0  0  0  0
 26 23  1  0  0  0  0
M  END
