1,2
q = 0.0, confidence = 0.972

 30 31  0  0  0  0  0  0  0  0999 V2000
    1.0195   -2.1383    0.4766 N   0  0  0  0  0  2  0  0  0  0  0  0
   -0.7416   -0.3045    0.6337 N   0  0  0  0  0  2  0  0  0  0  0  0
   -0.6687   -1.0588    1.7206 C   0  0  0  0  0  0  0  0  0  0  0  0
   -1.3180   -0.8990    2.5931 H   0  0  0  0  0  0  0  0  0  0  0  0
    0.3270   -2.0941    1.6674 C   0  0  0  0  0  0  0  0  0  0  0  0
    0.5805   -3.0116    2.7074 C   0  0  0  0  0  0  0  0  0  0  0  0
    0.0237   -2.9225    3.6506 H   0  0  0  0  0  0  0  0  0  0  0  0
    1.5322   -4.0136    2.5156 C   0  0  0  0  0  0  0  0  0  0  0  0
    1.7476   -4.7404    3.3119 H   0  0  0  0  0  0  0  0  0  0  0  0
    2.2039   -4.0799    1.2810 C   0  0  0  0  0  0  0  0  0  0  0  0
    2.9472   -4.8628    1.0763 H   0  0  0  0  0  0  0  0  0  0  0  0
    1.9237   -3.1276    0.2982 C   0  0  0  0  0  0  0  0  0  0  0  0
    2.4315   -3.1431   -0.6763 H   0  0  0  0  0  0  0  0  0  0  0  0
   -1.7278    0.6411    0.5183 N   0  0  0  0  0  0  0  0  0  0  0  0
   -1.4721    1.4679   -0.0533 H   0  0  0  0  0  0  0  0  0  0  0  0
   -3.0841    0.3991    0.5464 C   0  0  0  0  0  0  0  0  0  0  0  0
   -3.9999    1.4198    0.1116 C   0  0  0  0  0  0  0  0  0  0  0  0
   -5.3871    1.2242    0.1623 C   0  0  0  0  0  0  0  0  0  0  0  0
   -6.0675    2.0233   -0.1598 H   0  0  0  0  0  0  0  0  0  0  0  0
   -5.8859    0.0053    0.6042 C   0  0  0  0  0  0  0  0  0  0  0  0
   -5.0244   -1.0368    0.9892 C   0  0  0  0  0  0  0  0  0  0  0  0
   -5.4622   -1.9941    1.3035 H   0  0  0  0  0  0  0  0  0  0  0  0
   -3.6494   -0.8368    0.9666 C   0  0  0  0  0  0  0  0  0  0  0  0
   -2.9864   -1.6597    1.2593 H   0  0  0  0  0  0  0  0  0  0  0  0
   -7.3527   -0.2039    0.6497 N   0  0  0  0  0  0  0  0  0  0  0  0
   -8.0624    0.7323    0.2925 O   0  0  0  0  0  0  0  0  0  0  0  0
   -7.7419   -1.3027    1.0416 O   0  0  0  0  0  0  0  0  0  0  0  0
   -3.5516    2.6964   -0.4597 N   0  0  0  0  0  0  0  0  0  0  0  0
   -2.3394    2.8125   -0.7592 O   0  0  0  0  0  0  0  0  0  0  0  0
   -4.3754    3.5775   -0.6455 O   0  0  0  0  0  0  0  0  0  0  0  0
  1  5  1  0  0  0  0
  2  3  1  0  0  0  0
  3  4  1  0  0  0  0
  5  3  2  0  0  0  0
  5  6  1  0  0  0  0
  6  7  1  0  0  0  0
  8  6  2  0  0  0  0
  8  9  1  0  0  0  0
 10  8  1  0  0  0  0
 11 10  1  0  0  0  0
 12  1  1  0  0  0  0
 12 10  2  0  0  0  0
 13 12  1  0  0  0  0
 14 16  1  0  0  0  0
 14  2  1  0  0  0  0
 15 14  1  0  0  0  0
 16 23  1  0  0  0  0
 17 18  1  0  0  0  0
 17 16  2  0  0  0  0
 18 20  2  0  0  0  0
 19 18  1  0  0  0  0
 20 25  1  0  0  0  0
 20 21  1  0  0  0  0
 21 22  1  0  0  0  0
 23 21  2  0  0  0  0
 23 24  1  0  0  0  0
 25 27  2  0  0  0  0
 26 25  2  0  0  0  0
 28 17  1  0  0  0  0
 29 28  2  0  0  0  0
 30 28  2  0  0  0  0
M  END
