1,2
q = 0.0, confidence = 0.998

 25 25  0  0  0  0  0  0  0  0999 V2000
   -0.6588   -0.4360    1.3439 N   0  0  0  0  0  0  0  0  0  0  0  0
   -0.6585   -0.4486   -1.3398 N   0  0  0  0  0  0  0  0  0  0  0  0
   -0.8894   -1.7837    0.7896 C   0  0  0  0  0  0  0  0  0  0  0  0
   -0.8891   -1.7911   -0.7728 C   0  0  0  0  0  0  0  0  0  0  0  0
   -1.8517    0.4305   -1.2972 C   0  0  0  0  0  0  0  0  0  0  0  0
   -2.6523    0.2896   -0.0016 C   0  0  0  0  0  0  0  0  0  0  0  0
   -1.8518    0.4429    1.2927 C   0  0  0  0  0  0  0  0  0  0  0  0
   -0.0695   -0.4655    2.6881 C   0  0  0  0  0  0  0  0  0  0  0  0
   -0.0692   -0.4910   -2.6836 C   0  0  0  0  0  0  0  0  0  0  0  0
   -0.0423   -2.4181   -1.1083 H   0  0  0  0  0  0  0  0  0  0  0  0
   -1.8274   -2.2373   -1.1758 H   0  0  0  0  0  0  0  0  0  0  0  0
   -1.4844    1.4856    1.3963 H   0  0  0  0  0  0  0  0  0  0  0  0
   -2.5212    0.2177    2.1577 H   0  0  0  0  0  0  0  0  0  0  0  0
   -3.4445    1.0654   -0.0053 H   0  0  0  0  0  0  0  0  0  0  0  0
   -3.1923   -0.6809    0.0030 H   0  0  0  0  0  0  0  0  0  0  0  0
   -1.8279   -2.2260    1.1964 H   0  0  0  0  0  0  0  0  0  0  0  0
   -0.0428   -2.4077    1.1313 H   0  0  0  0  0  0  0  0  0  0  0  0
    0.9001   -1.0248   -2.6335 H   0  0  0  0  0  0  0  0  0  0  0  0
   -0.7395   -0.9898   -3.4223 H   0  0  0  0  0  0  0  0  0  0  0  0
    0.1211    0.5467   -3.0216 H   0  0  0  0  0  0  0  0  0  0  0  0
    0.1210    0.5754    3.0161 H   0  0  0  0  0  0  0  0  0  0  0  0
   -0.7400   -0.9571    3.4315 H   0  0  0  0  0  0  0  0  0  0  0  0
    0.8997   -1.0000    2.6432 H   0  0  0  0  0  0  0  0  0  0  0  0
   -2.5210    0.1969   -2.1601 H   0  0  0  0  0  0  0  0  0  0  0  0
   -1.4845    1.4722   -1.4108 H   0  0  0  0  0  0  0  0  0  0  0  0
  1  8  1  0  0  0  0
  2  5  1  0  0  0  0
  2  4  1  0  0  0  0
  3 17  1  0  0  0  0
  3 16  1  0  0  0  0
  3  1  1  0  0  0  0
  4  3  1  0  0  0  0
  5  6  1  0  0  0  0
  6 15  1  0  0  0  0
  6  7  1  0  0  0  0
  7  1  1  0  0  0  0
  7 12  1  0  0  0  0
  7 13  1  0  0  0  0
  8 21  1  0  0  0  0
  8 22  1  0  0  0  0
  9 18  1  0  0  0  0
  9  2  1  0  0  0  0
 10  4  1  0  0  0  0
 11  4  1  0  0  0  0
 14  6  1  0  0  0  0
 19  9  1  0  0  0  0
 20  9  1  0  0  0  0
 23  8  1  0  0  0  0
 24  5  1  0  0  0  0
 25  5  1  0  0  0  0
M  END
