1,2
q = 0.0, confidence = 0.996

 26 26  0  0  0  0  0  0  0  0999 V2000
    1.3037   -1.5405   -0.3712 N   0  0  0  0  0  2  0  0  0  0  0  0
    0.8802    0.7350   -1.6805 N   0  0  0  0  0  2  0  0  0  0  0  0
    1.4714   -2.7033    0.2850 C   0  0  0  0  0  3  0  0  0  0  0  0
    0.6821   -2.9789    1.0021 H   0  0  0  0  0  0  0  0  0  0  0  0
    2.5850   -3.5316    0.0858 C   0  0  0  0  0  0  0  0  0  0  0  0
    2.6752   -4.4708    0.6500 H   0  0  0  0  0  0  0  0  0  0  0  0
    3.5685   -3.1379   -0.8360 C   0  0  0  0  0  0  0  0  0  0  0  0
    4.4548   -3.7644   -1.0131 H   0  0  0  0  0  0  0  0  0  0  0  0
    3.3989   -1.9327   -1.5285 C   0  0  0  0  0  0  0  0  0  0  0  0
    4.1412   -1.5870   -2.2632 H   0  0  0  0  0  0  0  0  0  0  0  0
    2.2531   -1.1569   -1.2760 C   0  0  0  0  0  0  0  0  0  0  0  0
    1.9825    0.1095   -1.9568 C   0  0  0  0  0  3  0  0  0  0  0  0
    2.7161    0.5015   -2.6894 H   0  0  0  0  0  0  0  0  0  0  0  0
    0.5676    2.0059   -2.3106 C   0  0  0  0  0  0  0  0  0  0  0  0
   -0.3547    1.8592   -2.9142 H   0  0  0  0  0  0  0  0  0  0  0  0
    1.3796    2.3215   -3.0063 H   0  0  0  0  0  0  0  0  0  0  0  0
    0.3034    3.1095   -1.2669 C   0  0  0  0  0  0  0  0  0  0  0  0
   -0.5039    2.7205   -0.6039 H   0  0  0  0  0  0  0  0  0  0  0  0
    1.5473    3.3794   -0.4146 C   0  0  0  0  0  0  0  0  0  0  0  0
    1.3412    4.1474    0.3578 H   0  0  0  0  0  0  0  0  0  0  0  0
    2.3828    3.7588   -1.0402 H   0  0  0  0  0  0  0  0  0  0  0  0
    1.9014    2.4642    0.1020 H   0  0  0  0  0  0  0  0  0  0  0  0
   -0.2015    4.3786   -1.9604 C   0  0  0  0  0  0  0  0  0  0  0  0
   -1.1211    4.1879   -2.5497 H   0  0  0  0  0  0  0  0  0  0  0  0
    0.5646    4.7896   -2.6507 H   0  0  0  0  0  0  0  0  0  0  0  0
   -0.4334    5.1670   -1.2175 H   0  0  0  0  0  0  0  0  0  0  0  0
  1  3  1  0  0  0  0
  3  4  1  0  0  0  0
  5  3  1  0  0  0  0
  5  6  1  0  0  0  0
  7  5  2  0  0  0  0
  8  7  1  0  0  0  0
  9 11  2  0  0  0  0
  9  7  1  0  0  0  0
 10  9  1  0  0  0  0
 11  1  1  0  0  0  0
 12  2  1  0  0  0  0
 12 11  1  0  0  0  0
 13 12  1  0  0  0  0
 14  2  1  0  0  0  0
 14 17  1  0  0  0  0
 15 14  1  0  0  0  0
 16 14  1  0  0  0  0
 17 18  1  0  0  0  0
 17 19  1  0  0  0  0
 19 22  1  0  0  0  0
 19 20  1  0  0  0  0
 21 19  1  0  0  0  0
 23 17  1  0  0  0  0
 23 26  1  0  0  0  0
 24 23  1  0  0  0  0
 25 23  1  0  0  0  0
M  END
