1,7
q = -1.0, confidence = 0.004

 13 12  0  0  1  0  0  0  0  0999 V2000
   -1.3199   -1.3133   -0.0115 N   0  0  0  0  0  2  0  0  0  0  0  0
   -1.0293   -2.2958   -0.0814 H   0  0  0  0  0  0  0  0  0  0  0  0
   -3.4584   -2.2906   -0.0736 N   0  0  0  0  0  0  0  0  0  0  0  0
   -3.0992   -3.1448    0.3548 H   0  0  0  0  0  0  0  0  0  0  0  0
   -4.4300   -2.0824    0.1621 H   0  0  0  0  0  0  0  0  0  0  0  0
   -3.3148    0.0000   -0.0000 N   0  0  0  0  0  0  0  0  0  0  0  0
   -1.3199    1.3133    0.0116 N   0  0  0  0  0  2  0  0  0  0  0  0
   -1.0293    2.2957    0.0820 H   0  0  0  0  0  0  0  0  0  0  0  0
   -3.4584    2.2906    0.0738 N   0  0  0  0  0  0  0  0  0  0  0  0
   -3.0992    3.1448   -0.3545 H   0  0  0  0  0  0  0  0  0  0  0  0
   -4.4300    2.0824   -0.1619 H   0  0  0  0  0  0  0  0  0  0  0  0
   -2.6438   -1.1632   -0.0092 C   0  0  2  0  0  3  0  0  0  0  0  0
   -2.6438    1.1632    0.0093 C   0  0  0  0  0  0  0  0  0  0  0  0
  2  1  1  0  0  0  0
  3 12  1  0  0  0  0
  3  5  1  0  0  0  0
  3  4  1  0  0  0  0
  6 13  2  0  0  0  0
  7  8  1  0  0  0  0
 10  9  1  0  0  0  0
 11  9  1  0  0  0  0
 12  1  1  6  0  0  0
 12  6  1  0  0  0  0
 13  7  1  0  0  0  0
 13  9  1  0  0  0  0
M  END
