1,19
q = 0.0, confidence = 0.99

 19 20  0  0  1  0  0  0  0  0999 V2000
    2.1907    0.3691    0.6923 N   0  0  0  0  0  2  0  0  0  0  0  0
    3.0598   -0.3299    1.3905 N   0  0  0  0  0  2  0  0  0  0  0  0
    4.1814    0.3910    1.3497 N   0  0  0  0  0  0  0  0  0  0  0  0
    4.0933    1.5244    0.6596 N   0  0  0  0  0  0  0  0  0  0  0  0
    2.8239    1.4999    0.2446 C   0  0  0  0  0  0  0  0  0  0  0  0
    2.0880    2.4623   -0.5693 C   0  0  2  0  0  3  0  0  0  0  0  0
    2.6275    3.6752   -1.0222 C   0  0  0  0  0  0  0  0  0  0  0  0
    3.6639    3.9353   -0.7652 H   0  0  0  0  0  0  0  0  0  0  0  0
    1.8169    4.5212   -1.7900 C   0  0  0  0  0  0  0  0  0  0  0  0
    2.2077    5.4800   -2.1605 H   0  0  0  0  0  0  0  0  0  0  0  0
    0.5004    4.1258   -2.0747 C   0  0  0  0  0  0  0  0  0  0  0  0
   -0.1693    4.7612   -2.6713 H   0  0  0  0  0  0  0  0  0  0  0  0
    0.0341    2.8971   -1.5890 C   0  0  0  0  0  0  0  0  0  0  0  0
   -0.9881    2.5399   -1.7889 H   0  0  0  0  0  0  0  0  0  0  0  0
    5.4033   -0.0455    2.0072 C   0  0  0  0  0  0  0  0  0  0  0  0
    5.7149    0.7165    2.7456 H   0  0  0  0  0  0  0  0  0  0  0  0
    5.1855   -1.0040    2.5080 H   0  0  0  0  0  0  0  0  0  0  0  0
    6.1999   -0.1763    1.2511 H   0  0  0  0  0  0  0  0  0  0  0  0
    0.8097    2.0741   -0.8535 N   0  0  0  0  0  2  0  0  0  0  0  0
  1  2  1  0  0  0  0
  3  2  1  0  0  0  0
  3 15  1  0  0  0  0
  4  3  1  0  0  0  0
  5  4  2  0  0  0  0
  5  1  1  0  0  0  0
  6  5  1  1  0  0  0
  7  8  1  0  0  0  0
  7  6  1  0  0  0  0
  9  7  2  0  0  0  0
 10  9  1  0  0  0  0
 11  9  1  0  0  0  0
 11 13  2  0  0  0  0
 12 11  1  0  0  0  0
 13 19  1  0  0  0  0
 14 13  1  0  0  0  0
 15 17  1  0  0  0  0
 15 16  1  0  0  0  0
 18 15  1  0  0  0  0
 19  6  1  0  0  0  0
M  END
