3,15
q = -1.0

 16 16  0  0  0  0  0  0  0  0999 V2000
    1.4734    2.5116   -0.0000 N   0  0  0  0  0  0  0  0  0  0  0  0
    2.4128    1.5084   -0.0000 C   0  0  0  0  0  0  0  0  0  0  0  0
    2.0241    0.1951    0.0000 N   0  0  0  0  0  2  0  0  0  0  0  0
    4.3133   -0.5627   -0.0000 C   0  0  0  0  0  0  0  0  0  0  0  0
    3.7906    1.8216   -0.0000 C   0  0  0  0  0  0  0  0  0  0  0  0
    4.0806    2.8804   -0.0000 H   0  0  0  0  0  0  0  0  0  0  0  0
    4.7268    0.7898   -0.0000 C   0  0  0  0  0  0  0  0  0  0  0  0
    5.8017    1.0309   -0.0000 H   0  0  0  0  0  0  0  0  0  0  0  0
    2.9309   -0.8001    0.0000 C   0  0  0  0  0  0  0  0  0  0  0  0
    2.4935   -1.8156    0.0000 H   0  0  0  0  0  0  0  0  0  0  0  0
    5.2978   -1.7006   -0.0000 C   0  0  0  0  0  0  0  0  0  0  0  0
    5.9576   -1.6615   -0.8917 H   0  0  0  0  0  0  0  0  0  0  0  0
    4.7836   -2.6803   -0.0000 H   0  0  0  0  0  0  0  0  0  0  0  0
    5.9576   -1.6615    0.8917 H   0  0  0  0  0  0  0  0  0  0  0  0
    0.2478    2.0564    0.0000 N   0  0  0  0  0  2  0  0  0  0  0  0
   -0.6921    2.8539   -0.0000 O   0  0  0  0  0  1  0  0  0  0  0  0
  1  2  2  0  0  0  0
  1 15  1  0  0  0  0
  2  3  1  0  0  0  0
  4  9  2  0  0  0  0
  5  2  1  0  0  0  0
  6  5  1  0  0  0  0
  7  5  2  0  0  0  0
  7  4  1  0  0  0  0
  8  7  1  0  0  0  0
  9  3  1  0  0  0  0
  9 10  1  0  0  0  0
 11 13  1  0  0  0  0
 11  4  1  0  0  0  0
 11 14  1  0  0  0  0
 12 11  1  0  0  0  0
 16 15  1  0  0  0  0
M  END
