5,6
q = -1.0

 41 43  0  0  1  0  0  0  0  0999 V2000
   -0.6764    4.0028   -1.3645 O   0  0  0  0  0  0  0  0  0  0  0  0
   -3.2446   -2.3218    1.3888 O   0  0  0  0  0  0  0  0  0  0  0  0
   -4.1011   -0.2629    0.7159 N   0  0  0  0  0  0  0  0  0  0  0  0
   -3.8677    1.0451    0.3434 N   0  0  0  0  0  2  0  0  0  0  0  0
   -1.5858    0.4625   -0.0064 N   0  0  0  0  0  2  0  0  0  0  0  0
   -1.0980    2.8284   -0.8948 N   0  0  0  0  0  2  0  0  0  0  0  0
   -2.6418    1.3206   -0.0525 C   0  0  0  0  0  0  0  0  0  0  0  0
   -1.6778   -0.5180    1.0469 C   0  0  2  0  0  0  0  0  0  0  0  0
   -3.0705   -1.1550    1.0512 C   0  0  0  0  0  0  0  0  0  0  0  0
   -5.4891   -0.5914    0.8622 C   0  0  0  0  0  0  0  0  0  0  0  0
   -5.9550   -1.9191    0.7551 C   0  0  0  0  0  0  0  0  0  0  0  0
   -7.3254   -2.1845    0.8911 C   0  0  0  0  0  0  0  0  0  0  0  0
   -8.2431   -1.1509    1.1302 C   0  0  0  0  0  0  0  0  0  0  0  0
   -7.7742    0.1686    1.2295 C   0  0  0  0  0  0  0  0  0  0  0  0
   -6.4097    0.4522    1.0950 C   0  0  0  0  0  0  0  0  0  0  0  0
   -2.3631    2.6650   -0.5814 C   0  0  0  0  0  0  0  0  0  0  0  0
   -0.0108    0.6498    2.6000 C   0  0  0  0  0  0  0  0  0  0  0  0
    0.2265    1.9948    2.2405 C   0  0  0  0  0  0  0  0  0  0  0  0
    1.5168    2.5448    2.3024 C   0  0  0  0  0  0  0  0  0  0  0  0
    2.5954    1.7581    2.7332 C   0  0  0  0  0  0  0  0  0  0  0  0
    2.3747    0.4191    3.1002 C   0  0  0  0  0  0  0  0  0  0  0  0
    1.0858   -0.1304    3.0220 C   0  0  0  0  0  0  0  0  0  0  0  0
   -1.3863    0.0551    2.4752 C   0  0  0  0  0  0  0  0  0  0  0  0
   -3.3830    3.7378   -0.7412 C   0  0  0  0  0  0  0  0  0  0  0  0
    0.3712    3.8656   -1.5089 H   0  0  0  0  0  0  0  0  0  0  0  0
   -0.9713   -1.3459    0.8503 H   0  0  0  0  0  0  0  0  0  0  0  0
   -5.2437   -2.7322    0.5809 H   0  0  0  0  0  0  0  0  0  0  0  0
   -7.6764   -3.2242    0.8038 H   0  0  0  0  0  0  0  0  0  0  0  0
   -9.3161   -1.3709    1.2360 H   0  0  0  0  0  0  0  0  0  0  0  0
   -8.4788    0.9937    1.4159 H   0  0  0  0  0  0  0  0  0  0  0  0
   -6.0325    1.4798    1.1624 H   0  0  0  0  0  0  0  0  0  0  0  0
   -4.3821    3.3304   -0.5065 H   0  0  0  0  0  0  0  0  0  0  0  0
   -3.1630    4.5921   -0.0675 H   0  0  0  0  0  0  0  0  0  0  0  0
   -3.3662    4.1387   -1.7753 H   0  0  0  0  0  0  0  0  0  0  0  0
   -0.6207    2.6258    1.9330 H   0  0  0  0  0  0  0  0  0  0  0  0
    1.6764    3.5946    2.0128 H   0  0  0  0  0  0  0  0  0  0  0  0
    3.6048    2.1918    2.8048 H   0  0  0  0  0  0  0  0  0  0  0  0
    3.2144   -0.1965    3.4583 H   0  0  0  0  0  0  0  0  0  0  0  0
    0.9188   -1.1806    3.3115 H   0  0  0  0  0  0  0  0  0  0  0  0
   -1.5231   -0.7757    3.1959 H   0  0  0  0  0  0  0  0  0  0  0  0
   -2.1573    0.8229    2.6958 H   0  0  0  0  0  0  0  0  0  0  0  0
  1  6  1  0  0  0  0
  3 10  1  0  0  0  0
  3  9  1  0  0  0  0
  4  3  1  0  0  0  0
  5  8  1  0  0  0  0
  6 16  1  0  0  0  0
  7  5  1  0  0  0  0
  7  4  1  0  0  0  0
  8 26  1  6  0  0  0
  8  9  1  0  0  0  0
  8 23  1  0  0  0  0
  9  2  2  0  0  0  0
 10 15  1  0  0  0  0
 11 10  2  0  0  0  0
 11 12  1  0  0  0  0
 12 13  2  0  0  0  0
 13 14  1  0  0  0  0
 13 29  1  0  0  0  0
 14 30  1  0  0  0  0
 15 31  1  0  0  0  0
 15 14  2  0  0  0  0
 16  7  2  0  0  0  0
 17 22  1  0  0  0  0
 18 19  1  0  0  0  0
 18 17  2  0  0  0  0
 19 20  2  0  0  0  0
 20 37  1  0  0  0  0
 20 21  1  0  0  0  0
 21 38  1  0  0  0  0
 22 21  2  0  0  0  0
 22 39  1  0  0  0  0
 23 17  1  0  0  0  0
 23 41  1  0  0  0  0
 23 40  1  0  0  0  0
 24 16  1  0  0  0  0
 24 32  1  0  0  0  0
 24 33  1  0  0  0  0
 25  1  1  0  0  0  0
 27 11  1  0  0  0  0
 28 12  1  0  0  0  0
 34 24  1  0  0  0  0
 35 18  1  0  0  0  0
 36 19  1  0  0  0  0
M  END
