4,6
q = -1.0

 41 43  0  0  1  0  0  0  0  0999 V2000
    1.7612    3.4533   -1.6161 O   0  0  0  0  0  1  0  0  0  0  0  0
    1.8614   -3.8999   -1.0716 O   0  0  0  0  0  0  0  0  0  0  0  0
    1.1067   -1.7183   -1.1844 N   0  0  0  0  0  0  0  0  0  0  0  0
    1.4048   -0.3609   -1.0861 N   0  0  0  0  0  2  0  0  0  0  0  0
    3.6409   -0.8882   -1.4889 N   0  0  0  0  0  0  0  0  0  0  0  0
    1.7518    2.1817   -1.4547 N   0  0  0  0  0  2  0  0  0  0  0  0
    2.6500    0.0378   -1.3458 C   0  0  0  0  0  0  0  0  0  0  0  0
    3.4888   -2.1440   -0.7628 C   0  0  2  0  0  0  0  0  0  0  0  0
    2.0851   -2.6992   -1.0174 C   0  0  0  0  0  0  0  0  0  0  0  0
    5.1688   -1.4922    1.0098 C   0  0  0  0  0  0  0  0  0  0  0  0
    5.3956   -0.1036    1.1209 C   0  0  0  0  0  0  0  0  0  0  0  0
    6.6966    0.4030    1.2717 C   0  0  0  0  0  0  0  0  0  0  0  0
    7.7926   -0.4728    1.3129 C   0  0  0  0  0  0  0  0  0  0  0  0
    7.5792   -1.8571    1.2069 C   0  0  0  0  0  0  0  0  0  0  0  0
    6.2789   -2.3607    1.0541 C   0  0  0  0  0  0  0  0  0  0  0  0
   -0.2113   -2.0359   -1.6503 C   0  0  0  0  0  0  0  0  0  0  0  0
   -0.7733   -1.2648   -2.6865 C   0  0  0  0  0  0  0  0  0  0  0  0
   -2.0807   -1.5260   -3.1137 C   0  0  0  0  0  0  0  0  0  0  0  0
   -2.8252   -2.5585   -2.5216 C   0  0  0  0  0  0  0  0  0  0  0  0
   -2.2475   -3.3418   -1.5109 C   0  0  0  0  0  0  0  0  0  0  0  0
   -0.9421   -3.0874   -1.0693 C   0  0  0  0  0  0  0  0  0  0  0  0
    2.8762    1.4609   -1.5054 C   0  0  0  0  0  0  0  0  0  0  0  0
    4.2073    2.0923   -1.7557 C   0  0  0  0  0  0  0  0  0  0  0  0
    3.7789   -2.0193    0.7575 C   0  0  0  0  0  0  0  0  0  0  0  0
    5.0201    1.5610   -1.2202 H   0  0  0  0  0  0  0  0  0  0  0  0
    4.4636    2.1171   -2.8373 H   0  0  0  0  0  0  0  0  0  0  0  0
    4.1769    3.1417   -1.4054 H   0  0  0  0  0  0  0  0  0  0  0  0
    4.5919   -0.5382   -1.6182 H   0  0  0  0  0  0  0  0  0  0  0  0
    4.1778   -2.8895   -1.2044 H   0  0  0  0  0  0  0  0  0  0  0  0
    3.6445   -3.0268    1.1996 H   0  0  0  0  0  0  0  0  0  0  0  0
    3.0197   -1.3469    1.2072 H   0  0  0  0  0  0  0  0  0  0  0  0
    4.5345    0.5825    1.1099 H   0  0  0  0  0  0  0  0  0  0  0  0
    6.8529    1.4889    1.3644 H   0  0  0  0  0  0  0  0  0  0  0  0
    8.8126   -0.0783    1.4348 H   0  0  0  0  0  0  0  0  0  0  0  0
    8.4329   -2.5507    1.2469 H   0  0  0  0  0  0  0  0  0  0  0  0
    6.1184   -3.4480    0.9729 H   0  0  0  0  0  0  0  0  0  0  0  0
   -0.1880   -0.4528   -3.1404 H   0  0  0  0  0  0  0  0  0  0  0  0
   -2.5219   -0.9111   -3.9123 H   0  0  0  0  0  0  0  0  0  0  0  0
   -3.8584   -2.7517   -2.8464 H   0  0  0  0  0  0  0  0  0  0  0  0
   -2.8263   -4.1439   -1.0313 H   0  0  0  0  0  0  0  0  0  0  0  0
   -0.4980   -3.6895   -0.2679 H   0  0  0  0  0  0  0  0  0  0  0  0
  1  6  1  0  0  0  0
  2  9  2  0  0  0  0
  3  4  1  0  0  0  0
  3  9  1  0  0  0  0
  5  7  1  0  0  0  0
  5  8  1  0  0  0  0
  7  4  1  0  0  0  0
  8 29  1  6  0  0  0
  8 24  1  0  0  0  0
  9  8  1  0  0  0  0
 10 15  2  0  0  0  0
 10 11  1  0  0  0  0
 11 12  2  0  0  0  0
 12 13  1  0  0  0  0
 12 33  1  0  0  0  0
 13 34  1  0  0  0  0
 14 35  1  0  0  0  0
 14 13  2  0  0  0  0
 15 14  1  0  0  0  0
 16  3  1  0  0  0  0
 16 21  1  0  0  0  0
 17 16  2  0  0  0  0
 18 17  1  0  0  0  0
 18 19  2  0  0  0  0
 19 20  1  0  0  0  0
 20 21  2  0  0  0  0
 20 40  1  0  0  0  0
 21 41  1  0  0  0  0
 22  6  1  0  0  0  0
 22  7  2  0  0  0  0
 23 22  1  0  0  0  0
 23 27  1  0  0  0  0
 23 25  1  0  0  0  0
 24 10  1  0  0  0  0
 24 30  1  0  0  0  0
 24 31  1  0  0  0  0
 26 23  1  0  0  0  0
 28  5  1  0  0  0  0
 32 11  1  0  0  0  0
 36 15  1  0  0  0  0
 37 17  1  0  0  0  0
 38 18  1  0  0  0  0
 39 19  1  0  0  0  0
M  END
