4,8
q = 0.0, confidence = 0.986

 34 35  0  0  0  0  0  0  0  0999 V2000
   -6.5669   -0.0937    0.0341 Si  0  0  0  0  0  0  0  0  0  0  0  0
    4.0315    1.2221    0.3160 C   0  0  0  0  0  3  0  0  0  0  0  0
    4.6145    0.2940    0.4008 H   0  0  0  0  0  0  0  0  0  0  0  0
    2.6929    1.0721    0.2252 N   0  0  0  0  0  2  0  0  0  0  0  0
   -2.2587    1.2539    0.0446 C   0  0  0  0  0  0  0  0  0  0  0  0
   -0.5184    2.9416   -0.0323 C   0  0  0  0  0  0  0  0  0  0  0  0
   -0.2114    3.9934   -0.0968 H   0  0  0  0  0  0  0  0  0  0  0  0
    0.0768    0.6137    0.1333 N   0  0  0  0  0  2  0  0  0  0  0  0
   -3.6206    0.8481    0.0434 C   0  0  0  0  0  0  0  0  0  0  0  0
    4.6520    2.4731    0.2903 C   0  0  0  0  0  0  0  0  0  0  0  0
    5.7465    2.5386    0.3612 H   0  0  0  0  0  0  0  0  0  0  0  0
   -1.8715    2.6155   -0.0427 C   0  0  0  0  0  0  0  0  0  0  0  0
   -2.6402    3.3971   -0.1165 H   0  0  0  0  0  0  0  0  0  0  0  0
   -4.8016    0.4844    0.0430 C   0  0  0  0  0  0  0  0  0  0  0  0
    1.9014    2.1795    0.1080 C   0  0  0  0  0  0  0  0  0  0  0  0
   -1.2269    0.2912    0.1309 C   0  0  0  0  0  3  0  0  0  0  0  0
   -1.4710   -0.7785    0.1885 H   0  0  0  0  0  0  0  0  0  0  0  0
    0.4531    1.9254    0.0551 C   0  0  0  0  0  0  0  0  0  0  0  0
   -6.8693   -0.9973   -1.5954 C   0  0  0  0  0  0  0  0  0  0  0  0
   -6.7002   -0.3266   -2.4615 H   0  0  0  0  0  0  0  0  0  0  0  0
   -7.9154   -1.3650   -1.6416 H   0  0  0  0  0  0  0  0  0  0  0  0
   -6.1920   -1.8687   -1.6979 H   0  0  0  0  0  0  0  0  0  0  0  0
   -6.8024   -1.2534    1.5050 C   0  0  0  0  0  0  0  0  0  0  0  0
   -7.8463   -1.6286    1.5351 H   0  0  0  0  0  0  0  0  0  0  0  0
   -6.5951   -0.7330    2.4616 H   0  0  0  0  0  0  0  0  0  0  0  0
   -6.1240   -2.1271    1.4342 H   0  0  0  0  0  0  0  0  0  0  0  0
   -7.6805    1.4240    0.1838 C   0  0  0  0  0  0  0  0  0  0  0  0
   -7.5205    2.1210   -0.6634 H   0  0  0  0  0  0  0  0  0  0  0  0
   -7.4814    1.9739    1.1256 H   0  0  0  0  0  0  0  0  0  0  0  0
   -8.7477    1.1199    0.1821 H   0  0  0  0  0  0  0  0  0  0  0  0
    3.8525    3.6202    0.1654 C   0  0  0  0  0  0  0  0  0  0  0  0
    4.3047    4.6222    0.1363 H   0  0  0  0  0  0  0  0  0  0  0  0
    2.4667    3.4693    0.0786 C   0  0  0  0  0  0  0  0  0  0  0  0
    1.8211    4.3519   -0.0165 H   0  0  0  0  0  0  0  0  0  0  0  0
  1 14  1  0  0  0  0
  1 27  1  0  0  0  0
  1 23  1  0  0  0  0
  2  3  1  0  0  0  0
  4  2  1  0  0  0  0
  5 16  1  0  0  0  0
  6 18  2  0  0  0  0
  7  6  1  0  0  0  0
  9  5  1  0  0  0  0
 10  2  1  0  0  0  0
 10 11  1  0  0  0  0
 12  6  1  0  0  0  0
 12  5  2  0  0  0  0
 13 12  1  0  0  0  0
 14  9  3  0  0  0  0
 15  4  1  0  0  0  0
 16  8  1  0  0  0  0
 16 17  1  0  0  0  0
 18 15  1  0  0  0  0
 18  8  1  0  0  0  0
 19  1  1  0  0  0  0
 20 19  1  0  0  0  0
 21 19  1  0  0  0  0
 22 19  1  0  0  0  0
 23 24  1  0  0  0  0
 23 25  1  0  0  0  0
 26 23  1  0  0  0  0
 27 29  1  0  0  0  0
 28 27  1  0  0  0  0
 30 27  1  0  0  0  0
 31 10  2  0  0  0  0
 32 31  1  0  0  0  0
 33 15  2  0  0  0  0
 33 31  1  0  0  0  0
 34 33  1  0  0  0  0
M  END
