1,2
q = -1.0

 27 27  0  0  0  0  0  0  0  0999 V2000
   -1.9226    0.2730    0.1108 N   0  0  0  0  0  2  0  0  0  0  0  0
   -0.3178   -1.3344   -1.2089 N   0  0  0  0  0  2  0  0  0  0  0  0
   -2.7307    0.8366    1.0377 C   0  0  0  0  0  3  0  0  0  0  0  0
   -2.2649    1.0967    1.9976 H   0  0  0  0  0  0  0  0  0  0  0  0
   -4.0854    1.0602    0.7864 C   0  0  0  0  0  0  0  0  0  0  0  0
   -4.7056    1.5227    1.5666 H   0  0  0  0  0  0  0  0  0  0  0  0
   -4.6217    0.6884   -0.4556 C   0  0  0  0  0  0  0  0  0  0  0  0
   -5.6852    0.8580   -0.6805 H   0  0  0  0  0  0  0  0  0  0  0  0
   -3.7842    0.0832   -1.3990 C   0  0  0  0  0  0  0  0  0  0  0  0
   -4.1668   -0.2458   -2.3757 H   0  0  0  0  0  0  0  0  0  0  0  0
   -2.4333   -0.1208   -1.0878 C   0  0  0  0  0  0  0  0  0  0  0  0
   -1.4248   -0.7692   -1.9826 C   0  0  0  0  0  0  0  0  0  0  0  0
   -1.9055   -1.5465   -2.6128 H   0  0  0  0  0  0  0  0  0  0  0  0
   -1.0320    0.0090   -2.6713 H   0  0  0  0  0  0  0  0  0  0  0  0
   -0.6010   -2.6801   -0.6450 C   0  0  0  0  0  0  0  0  0  0  0  0
    0.5353   -3.1071    0.2981 C   0  0  0  0  0  0  0  0  0  0  0  0
    1.5207   -2.9909   -0.1907 H   0  0  0  0  0  0  0  0  0  0  0  0
    0.4084   -4.1730    0.5677 H   0  0  0  0  0  0  0  0  0  0  0  0
    0.5192   -2.5288    1.2418 H   0  0  0  0  0  0  0  0  0  0  0  0
   -0.5337   -3.6237   -1.8880 C   0  0  0  0  0  0  0  0  0  0  0  0
    0.4135   -3.4770   -2.4408 H   0  0  0  0  0  0  0  0  0  0  0  0
   -1.3817   -3.4636   -2.5815 H   0  0  0  0  0  0  0  0  0  0  0  0
   -0.5801   -4.6713   -1.5312 H   0  0  0  0  0  0  0  0  0  0  0  0
   -1.9532   -2.8775    0.0710 C   0  0  0  0  0  0  0  0  0  0  0  0
   -2.8206   -2.6505   -0.5786 H   0  0  0  0  0  0  0  0  0  0  0  0
   -2.0187   -2.2513    0.9825 H   0  0  0  0  0  0  0  0  0  0  0  0
   -2.0509   -3.9343    0.3867 H   0  0  0  0  0  0  0  0  0  0  0  0
  1  3  1  0  0  0  0
  2 15  1  0  0  0  0
  3  4  1  0  0  0  0
  5  3  1  0  0  0  0
  5  6  1  0  0  0  0
  7  5  2  0  0  0  0
  8  7  1  0  0  0  0
  9 11  2  0  0  0  0
  9  7  1  0  0  0  0
 10  9  1  0  0  0  0
 11  1  1  0  0  0  0
 12  2  1  0  0  0  0
 12 11  1  0  0  0  0
 13 12  1  0  0  0  0
 14 12  1  0  0  0  0
 15 24  1  0  0  0  0
 15 16  1  0  0  0  0
 16 18  1  0  0  0  0
 16 19  1  0  0  0  0
 17 16  1  0  0  0  0
 20 23  1  0  0  0  0
 20 15  1  0  0  0  0
 21 20  1  0  0  0  0
 22 20  1  0  0  0  0
 24 27  1  0  0  0  0
 24 26  1  0  0  0  0
 25 24  1  0  0  0  0
M  END
