1,13
q = 0.0, confidence = 1.0

 27 27  0  0  0  0  0  0  0  0999 V2000
   -0.2671   -1.6113   -0.1720 N   0  0  0  0  0  2  0  0  0  0  0  0
   -0.8054   -2.7087    0.4033 C   0  0  0  0  0  0  0  0  0  0  0  0
   -1.7436   -2.5233    0.9531 H   0  0  0  0  0  0  0  0  0  0  0  0
   -0.2019   -3.9650    0.2899 C   0  0  0  0  0  0  0  0  0  0  0  0
   -0.6755   -4.8305    0.7742 H   0  0  0  0  0  0  0  0  0  0  0  0
    0.9931   -4.1004   -0.4385 C   0  0  0  0  0  0  0  0  0  0  0  0
    1.4809   -5.0807   -0.5402 H   0  0  0  0  0  0  0  0  0  0  0  0
    1.5523   -2.9645   -1.0322 C   0  0  0  0  0  0  0  0  0  0  0  0
    2.4861   -3.0192   -1.6102 H   0  0  0  0  0  0  0  0  0  0  0  0
    0.9082   -1.7231   -0.8838 C   0  0  0  0  0  0  0  0  0  0  0  0
    1.3932   -0.4659   -1.3997 C   0  0  0  0  0  0  0  0  0  0  0  0
    2.3446   -0.3919   -1.9514 H   0  0  0  0  0  0  0  0  0  0  0  0
    0.6720    0.6009   -1.1344 N   0  0  0  0  0  2  0  0  0  0  0  0
    1.1933    1.9238   -1.4407 C   0  0  0  0  0  0  0  0  0  0  0  0
    0.3339    2.5844   -1.6696 H   0  0  0  0  0  0  0  0  0  0  0  0
    1.8844    1.8671   -2.3095 H   0  0  0  0  0  0  0  0  0  0  0  0
    1.9187    2.4958   -0.2026 C   0  0  0  0  0  0  0  0  0  0  0  0
    2.1751    3.5548   -0.4100 H   0  0  0  0  0  0  0  0  0  0  0  0
    1.2129    2.4701    0.6512 H   0  0  0  0  0  0  0  0  0  0  0  0
    3.1113    1.7623    0.1620 N   0  0  0  0  0  0  0  0  0  0  0  0
    3.9886    1.9884   -0.3069 H   0  0  0  0  0  0  0  0  0  0  0  0
    3.1119    0.7706    1.1243 C   0  0  0  0  0  0  0  0  0  0  0  0
    4.4602    0.1021    1.3582 C   0  0  0  0  0  0  0  0  0  0  0  0
    5.2999    0.5474    0.7894 H   0  0  0  0  0  0  0  0  0  0  0  0
    4.3722   -0.9705    1.0931 H   0  0  0  0  0  0  0  0  0  0  0  0
    4.6912    0.1451    2.4401 H   0  0  0  0  0  0  0  0  0  0  0  0
    2.1028    0.4402    1.7373 O   0  0  0  0  0  0  0  0  0  0  0  0
  1  2  1  0  0  0  0
  2  3  1  0  0  0  0
  4  2  2  0  0  0  0
  4  5  1  0  0  0  0
  6  4  1  0  0  0  0
  7  6  1  0  0  0  0
  8 10  1  0  0  0  0
  8  6  2  0  0  0  0
  9  8  1  0  0  0  0
 10  1  1  0  0  0  0
 11 13  1  0  0  0  0
 11 10  2  0  0  0  0
 12 11  1  0  0  0  0
 14 13  1  0  0  0  0
 14 17  1  0  0  0  0
 15 14  1  0  0  0  0
 16 14  1  0  0  0  0
 17 20  1  0  0  0  0
 17 19  1  0  0  0  0
 18 17  1  0  0  0  0
 20 22  1  0  0  0  0
 21 20  1  0  0  0  0
 22 23  1  0  0  0  0
 22 27  2  0  0  0  0
 23 26  1  0  0  0  0
 24 23  1  0  0  0  0
 25 23  1  0  0  0  0
M  END
