3,4
q = 0.0, confidence = 0.99

 34 35  0  0  0  0  0  0  0  0999 V2000
   -5.3190   -2.3544    0.5071 Cl  0  0  0  0  0  0  0  0  0  0  0  0
    5.3575   -2.2262    0.9251 Cl  0  0  0  0  0  0  0  0  0  0  0  0
   -1.3866   -2.1693   -1.2624 N   0  0  0  0  0  2  0  0  0  0  0  0
    1.3687   -2.1667   -0.8318 N   0  0  0  0  0  2  0  0  0  0  0  0
   -4.6938   -0.9135   -0.2719 C   0  0  0  0  0  0  0  0  0  0  0  0
   -5.4378    0.2686   -0.1629 C   0  0  0  0  0  0  0  0  0  0  0  0
   -6.3819    0.2590    0.3989 H   0  0  0  0  0  0  0  0  0  0  0  0
   -4.9583    1.4434   -0.7608 C   0  0  0  0  0  0  0  0  0  0  0  0
   -5.5423    2.3719   -0.6703 H   0  0  0  0  0  0  0  0  0  0  0  0
   -3.7500    1.4295   -1.4763 C   0  0  0  0  0  0  0  0  0  0  0  0
   -3.3766    2.3436   -1.9606 H   0  0  0  0  0  0  0  0  0  0  0  0
   -3.0128    0.2463   -1.5839 C   0  0  0  0  0  0  0  0  0  0  0  0
   -2.0853    0.2226   -2.1848 H   0  0  0  0  0  0  0  0  0  0  0  0
   -3.4584   -0.9485   -0.9663 C   0  0  0  0  0  0  0  0  0  0  0  0
   -2.6609   -2.1741   -1.0413 C   0  0  0  0  0  3  0  0  0  0  0  0
   -3.1985   -3.1331   -0.8773 H   0  0  0  0  0  0  0  0  0  0  0  0
   -0.6694   -3.4282   -1.3629 C   0  0  0  0  0  0  0  0  0  0  0  0
   -0.3704   -3.5640   -2.4257 H   0  0  0  0  0  0  0  0  0  0  0  0
   -1.2935   -4.3027   -1.0652 H   0  0  0  0  0  0  0  0  0  0  0  0
    0.5979   -3.3626   -0.5022 C   0  0  0  0  0  0  0  0  0  0  0  0
    0.2999   -3.3173    0.5708 H   0  0  0  0  0  0  0  0  0  0  0  0
    1.1970   -4.2909   -0.6323 H   0  0  0  0  0  0  0  0  0  0  0  0
    2.6214   -2.1474   -0.4975 C   0  0  0  0  0  3  0  0  0  0  0  0
    3.0703   -3.0131    0.0339 H   0  0  0  0  0  0  0  0  0  0  0  0
    3.5258   -1.0312   -0.7681 C   0  0  0  0  0  0  0  0  0  0  0  0
    3.1590    0.0235   -1.6405 C   0  0  0  0  0  0  0  0  0  0  0  0
    2.1754   -0.0034   -2.1440 H   0  0  0  0  0  0  0  0  0  0  0  0
    4.0270    1.0870   -1.8959 C   0  0  0  0  0  0  0  0  0  0  0  0
    3.7064    1.8849   -2.5819 H   0  0  0  0  0  0  0  0  0  0  0  0
    5.2931    1.1258   -1.2873 C   0  0  0  0  0  0  0  0  0  0  0  0
    5.9832    1.9607   -1.4831 H   0  0  0  0  0  0  0  0  0  0  0  0
    5.6890    0.0928   -0.4263 C   0  0  0  0  0  0  0  0  0  0  0  0
    6.6737    0.1036    0.0613 H   0  0  0  0  0  0  0  0  0  0  0  0
    4.8133   -0.9724   -0.1737 C   0  0  0  0  0  0  0  0  0  0  0  0
  3 15  1  0  0  0  0
  4 20  1  0  0  0  0
  4 23  1  0  0  0  0
  5  6  1  0  0  0  0
  5  1  1  0  0  0  0
  6  7  1  0  0  0  0
  8  9  1  0  0  0  0
  8  6  2  0  0  0  0
 10  8  1  0  0  0  0
 11 10  1  0  0  0  0
 12 10  2  0  0  0  0
 12 14  1  0  0  0  0
 13 12  1  0  0  0  0
 14  5  2  0  0  0  0
 15 14  1  0  0  0  0
 15 16  1  0  0  0  0
 17  3  1  0  0  0  0
 17 19  1  0  0  0  0
 17 20  1  0  0  0  0
 18 17  1  0  0  0  0
 20 21  1  0  0  0  0
 22 20  1  0  0  0  0
 23 24  1  0  0  0  0
 25 23  1  0  0  0  0
 25 34  1  0  0  0  0
 26 25  2  0  0  0  0
 27 26  1  0  0  0  0
 28 26  1  0  0  0  0
 28 30  2  0  0  0  0
 29 28  1  0  0  0  0
 30 32  1  0  0  0  0
 31 30  1  0  0  0  0
 32 34  2  0  0  0  0
 32 33  1  0  0  0  0
 34  2  1  0  0  0  0
M  END
