1,3
q = 0.0, confidence = 0.99

 57 59  0  0  1  0  0  0  0  0999 V2000
   -0.0170   -0.0469    0.0352 N   0  0  0  0  0  2  0  0  0  0  0  0
   -0.5529    1.1457    0.0204 C   0  0  1  0  0  3  0  0  0  0  0  0
    2.4684    1.5713    0.0574 N   0  0  0  0  0  2  0  0  0  0  0  0
    0.2013    2.3003   -0.1140 N   0  0  0  0  0  0  0  0  0  0  0  0
    1.9198    3.9158    0.2876 C   0  0  0  0  0  0  0  0  0  0  0  0
    1.1433    4.6952    0.2714 H   0  0  0  0  0  0  0  0  0  0  0  0
    4.1935    3.1890    0.5723 C   0  0  0  0  0  0  0  0  0  0  0  0
    5.2561    3.3757    0.7789 H   0  0  0  0  0  0  0  0  0  0  0  0
   -3.9345    2.6980   -0.7543 C   0  0  0  0  0  0  0  0  0  0  0  0
   -4.3486    3.4059   -1.4888 H   0  0  0  0  0  0  0  0  0  0  0  0
   -2.0151    1.4489    0.1053 C   0  0  0  0  0  0  0  0  0  0  0  0
   -4.7851    2.1158    0.2050 C   0  0  0  0  0  0  0  0  0  0  0  0
   -2.5725    2.3738   -0.8055 C   0  0  0  0  0  0  0  0  0  0  0  0
   -1.9470    2.8119   -1.5993 H   0  0  0  0  0  0  0  0  0  0  0  0
    3.2528    4.2314    0.5351 C   0  0  0  0  0  0  0  0  0  0  0  0
    3.5516    5.2757    0.7080 H   0  0  0  0  0  0  0  0  0  0  0  0
   -2.8604    0.8656    1.0733 C   0  0  0  0  0  0  0  0  0  0  0  0
   -2.4552    0.1445    1.7941 H   0  0  0  0  0  0  0  0  0  0  0  0
    3.7648    1.8864    0.3267 C   0  0  0  0  0  3  0  0  0  0  0  0
    4.4565    1.0301    0.2783 H   0  0  0  0  0  0  0  0  0  0  0  0
   -6.2570    2.4312    0.2455 C   0  0  0  0  0  0  0  0  0  0  0  0
   -6.8529    1.5742   -0.1344 H   0  0  0  0  0  0  0  0  0  0  0  0
   -6.5062    3.3125   -0.3759 H   0  0  0  0  0  0  0  0  0  0  0  0
   -6.6013    2.6263    1.2812 H   0  0  0  0  0  0  0  0  0  0  0  0
    1.5529    2.5658    0.0708 C   0  0  0  0  0  0  0  0  0  0  0  0
   -0.8688   -1.1871    0.2539 C   0  0  0  0  0  0  0  0  0  0  0  0
   -4.2165    1.2015    1.1182 C   0  0  0  0  0  0  0  0  0  0  0  0
   -4.8544    0.7360    1.8855 H   0  0  0  0  0  0  0  0  0  0  0  0
   -1.1784   -1.9540   -3.1947 C   0  0  0  0  0  0  0  0  0  0  0  0
   -0.1418   -2.2183   -2.9092 H   0  0  0  0  0  0  0  0  0  0  0  0
   -1.1695   -1.4735   -4.1949 H   0  0  0  0  0  0  0  0  0  0  0  0
   -1.7624   -2.8945   -3.2753 H   0  0  0  0  0  0  0  0  0  0  0  0
   -2.5366   -3.3670    0.7806 C   0  0  0  0  0  0  0  0  0  0  0  0
   -3.1985   -4.2215    0.9878 H   0  0  0  0  0  0  0  0  0  0  0  0
   -1.7538   -1.6320   -0.7608 C   0  0  0  0  0  0  0  0  0  0  0  0
   -2.5831   -2.7293   -0.4637 C   0  0  0  0  0  0  0  0  0  0  0  0
   -3.2764   -3.0971   -1.2351 H   0  0  0  0  0  0  0  0  0  0  0  0
   -1.6298   -2.9280    1.7529 C   0  0  0  0  0  0  0  0  0  0  0  0
   -1.5762   -3.4462    2.7227 H   0  0  0  0  0  0  0  0  0  0  0  0
   -0.7722   -1.8419    1.5084 C   0  0  0  0  0  0  0  0  0  0  0  0
    0.2401   -1.4172    2.5664 C   0  0  0  0  0  0  0  0  0  0  0  0
   -1.8063   -1.0104   -2.1515 C   0  0  0  0  0  0  0  0  0  0  0  0
   -3.2370   -0.6129   -2.5537 C   0  0  0  0  0  0  0  0  0  0  0  0
   -3.8771   -1.5076   -2.6982 H   0  0  0  0  0  0  0  0  0  0  0  0
   -3.2290   -0.0608   -3.5158 H   0  0  0  0  0  0  0  0  0  0  0  0
   -3.7208    0.0284   -1.7914 H   0  0  0  0  0  0  0  0  0  0  0  0
    1.2575   -2.5418    2.8254 C   0  0  0  0  0  0  0  0  0  0  0  0
    0.7710   -3.4280    3.2837 H   0  0  0  0  0  0  0  0  0  0  0  0
    2.0516   -2.1958    3.5188 H   0  0  0  0  0  0  0  0  0  0  0  0
    1.7290   -2.8585    1.8742 H   0  0  0  0  0  0  0  0  0  0  0  0
   -0.4388   -0.9477    3.8638 C   0  0  0  0  0  0  0  0  0  0  0  0
   -1.1278   -0.0959    3.6859 H   0  0  0  0  0  0  0  0  0  0  0  0
    0.3192   -0.6189    4.6042 H   0  0  0  0  0  0  0  0  0  0  0  0
   -1.0290   -1.7624    4.3328 H   0  0  0  0  0  0  0  0  0  0  0  0
   -0.3768    3.1407   -0.0766 H   0  0  0  0  0  0  0  0  0  0  0  0
    0.8091   -0.5577    2.1561 H   0  0  0  0  0  0  0  0  0  0  0  0
   -1.1888   -0.0898   -2.1402 H   0  0  0  0  0  0  0  0  0  0  0  0
  1 26  1  0  0  0  0
  2  1  1  6  0  0  0
  2 11  1  0  0  0  0
  3 25  1  0  0  0  0
  3 19  1  0  0  0  0
  4 55  1  0  0  0  0
  4  2  1  0  0  0  0
  4 25  1  0  0  0  0
  5 15  1  0  0  0  0
  6  5  1  0  0  0  0
  7  8  1  0  0  0  0
  9 12  1  0  0  0  0
 10  9  1  0  0  0  0
 11 17  2  0  0  0  0
 12 21  1  0  0  0  0
 12 27  2  0  0  0  0
 13  9  2  0  0  0  0
 13 11  1  0  0  0  0
 14 13  1  0  0  0  0
 15  7  2  0  0  0  0
 15 16  1  0  0  0  0
 17 27  1  0  0  0  0
 17 18  1  0  0  0  0
 19  7  1  0  0  0  0
 20 19  1  0  0  0  0
 21 24  1  0  0  0  0
 22 21  1  0  0  0  0
 23 21  1  0  0  0  0
 25  5  2  0  0  0  0
 26 40  1  0  0  0  0
 27 28  1  0  0  0  0
 29 30  1  0  0  0  0
 29 42  1  0  0  0  0
 31 29  1  0  0  0  0
 32 29  1  0  0  0  0
 33 34  1  0  0  0  0
 33 38  1  0  0  0  0
 35 36  1  0  0  0  0
 35 26  2  0  0  0  0
 36 33  2  0  0  0  0
 37 36  1  0  0  0  0
 38 39  1  0  0  0  0
 40 38  2  0  0  0  0
 40 41  1  0  0  0  0
 41 47  1  0  0  0  0
 41 51  1  0  0  0  0
 42 57  1  0  0  0  0
 42 35  1  0  0  0  0
 43 42  1  0  0  0  0
 43 46  1  0  0  0  0
 44 43  1  0  0  0  0
 45 43  1  0  0  0  0
 47 48  1  0  0  0  0
 47 49  1  0  0  0  0
 50 47  1  0  0  0  0
 51 54  1  0  0  0  0
 51 53  1  0  0  0  0
 52 51  1  0  0  0  0
 56 41  1  0  0  0  0
M  END
