1,4
q = 0.0, confidence = 0.998

 38 42  0  0  1  0  0  0  0  0999 V2000
   -1.4362   -0.1667    0.0222 N   0  0  0  0  0  2  0  0  0  0  0  0
   -2.6393    1.0539   -1.4029 N   0  0  0  0  0  0  0  0  0  0  0  0
   -2.8914    1.8416   -1.9992 H   0  0  0  0  0  0  0  0  0  0  0  0
    1.4361   -0.1669    0.0220 N   0  0  0  0  0  2  0  0  0  0  0  0
    2.6394    1.0537   -1.4029 N   0  0  0  0  0  0  0  0  0  0  0  0
    2.8916    1.8415   -1.9991 H   0  0  0  0  0  0  0  0  0  0  0  0
   -2.4674   -0.9569   -0.4621 C   0  0  0  0  0  0  0  0  0  0  0  0
   -2.7917   -2.2970   -0.1781 C   0  0  0  0  0  0  0  0  0  0  0  0
   -2.1662   -2.8668    0.5276 H   0  0  0  0  0  0  0  0  0  0  0  0
   -3.9041   -2.8317   -0.8351 C   0  0  0  0  0  0  0  0  0  0  0  0
   -4.1910   -3.8763   -0.6433 H   0  0  0  0  0  0  0  0  0  0  0  0
   -4.6744   -2.0646   -1.7459 C   0  0  0  0  0  0  0  0  0  0  0  0
   -5.5418   -2.5292   -2.2383 H   0  0  0  0  0  0  0  0  0  0  0  0
   -4.3624   -0.7304   -2.0374 C   0  0  0  0  0  0  0  0  0  0  0  0
   -4.9633   -0.1410   -2.7449 H   0  0  0  0  0  0  0  0  0  0  0  0
   -3.2471   -0.1916   -1.3769 C   0  0  0  0  0  0  0  0  0  0  0  0
   -1.5472    1.0270   -0.5577 C   0  0  1  0  0  3  0  0  0  0  0  0
   -0.7138    2.2240   -0.3522 C   0  0  0  0  0  0  0  0  0  0  0  0
   -1.3908    3.4538   -0.2005 C   0  0  0  0  0  0  0  0  0  0  0  0
   -2.4905    3.4509   -0.1630 H   0  0  0  0  0  0  0  0  0  0  0  0
   -0.7006    4.6602   -0.0426 C   0  0  0  0  0  0  0  0  0  0  0  0
   -1.2593    5.5967    0.0999 H   0  0  0  0  0  0  0  0  0  0  0  0
    0.7009    4.6601   -0.0426 C   0  0  0  0  0  0  0  0  0  0  0  0
    1.2597    5.5966    0.0999 H   0  0  0  0  0  0  0  0  0  0  0  0
    1.3910    3.4537   -0.2005 C   0  0  0  0  0  0  0  0  0  0  0  0
    2.4907    3.4507   -0.1631 H   0  0  0  0  0  0  0  0  0  0  0  0
    0.7139    2.2239   -0.3522 C   0  0  0  0  0  0  0  0  0  0  0  0
    1.5472    1.0269   -0.5578 C   0  0  2  0  0  3  0  0  0  0  0  0
    3.2471   -0.1918   -1.3769 C   0  0  0  0  0  0  0  0  0  0  0  0
    4.3624   -0.7306   -2.0374 C   0  0  0  0  0  0  0  0  0  0  0  0
    4.9635   -0.1412   -2.7447 H   0  0  0  0  0  0  0  0  0  0  0  0
    4.6742   -2.0648   -1.7459 C   0  0  0  0  0  0  0  0  0  0  0  0
    5.5417   -2.5295   -2.2382 H   0  0  0  0  0  0  0  0  0  0  0  0
    3.9038   -2.8320   -0.8353 C   0  0  0  0  0  0  0  0  0  0  0  0
    4.1907   -3.8766   -0.6435 H   0  0  0  0  0  0  0  0  0  0  0  0
    2.7914   -2.2972   -0.1783 C   0  0  0  0  0  0  0  0  0  0  0  0
    2.1658   -2.8671    0.5273 H   0  0  0  0  0  0  0  0  0  0  0  0
    2.4672   -0.9571   -0.4622 C   0  0  0  0  0  0  0  0  0  0  0  0
  2 16  1  0  0  0  0
  2 17  1  0  0  0  0
  3  2  1  0  0  0  0
  5 29  1  0  0  0  0
  5 28  1  0  0  0  0
  6  5  1  0  0  0  0
  7  8  1  0  0  0  0
  7  1  1  0  0  0  0
  8  9  1  0  0  0  0
 10 11  1  0  0  0  0
 10  8  2  0  0  0  0
 12 10  1  0  0  0  0
 13 12  1  0  0  0  0
 14 12  2  0  0  0  0
 14 16  1  0  0  0  0
 15 14  1  0  0  0  0
 16  7  2  0  0  0  0
 17 18  1  1  0  0  0
 17  1  1  0  0  0  0
 18 19  1  0  0  0  0
 19 20  1  0  0  0  0
 19 21  2  0  0  0  0
 21 22  1  0  0  0  0
 23 21  1  0  0  0  0
 23 24  1  0  0  0  0
 25 26  1  0  0  0  0
 25 23  2  0  0  0  0
 27 18  2  0  0  0  0
 27 25  1  0  0  0  0
 28 27  1  1  0  0  0
 28  4  1  0  0  0  0
 29 38  1  0  0  0  0
 30 32  1  0  0  0  0
 30 29  2  0  0  0  0
 31 30  1  0  0  0  0
 32 34  2  0  0  0  0
 33 32  1  0  0  0  0
 34 35  1  0  0  0  0
 34 36  1  0  0  0  0
 36 37  1  0  0  0  0
 38 36  2  0  0  0  0
 38  4  1  0  0  0  0
M  END
