2,3
q = -1.0

 17 16  0  0  1  0  0  0  0  0999 V2000
    3.2650    0.2065    0.7450 N   0  0  0  0  0  0  0  0  0  0  0  0
    2.0632    0.0992    0.0029 N   0  0  0  0  0  2  0  0  0  0  0  0
    0.9754    0.2050   -1.9593 N   0  0  0  0  0  2  0  0  0  0  0  0
    2.1349    0.3727   -1.3082 C   0  0  1  0  0  3  0  0  0  0  0  0
    3.4025    0.8316   -1.9858 C   0  0  0  0  0  0  0  0  0  0  0  0
    2.9922    0.5750    2.1204 C   0  0  0  0  0  0  0  0  0  0  0  0
    4.0949   -0.9899    0.6647 C   0  0  0  0  0  0  0  0  0  0  0  0
    0.9672    0.5565   -2.9175 H   0  0  0  0  0  0  0  0  0  0  0  0
    3.1652    1.5254   -2.8160 H   0  0  0  0  0  0  0  0  0  0  0  0
    3.9557   -0.0288   -2.4173 H   0  0  0  0  0  0  0  0  0  0  0  0
    4.0647    1.3215   -1.2461 H   0  0  0  0  0  0  0  0  0  0  0  0
    2.4650    1.5440    2.1521 H   0  0  0  0  0  0  0  0  0  0  0  0
    3.9522    0.6844    2.6631 H   0  0  0  0  0  0  0  0  0  0  0  0
    2.3691   -0.1799    2.6653 H   0  0  0  0  0  0  0  0  0  0  0  0
    5.0676   -0.7857    1.1573 H   0  0  0  0  0  0  0  0  0  0  0  0
    4.2961   -1.2489   -0.3919 H   0  0  0  0  0  0  0  0  0  0  0  0
    3.6384   -1.8849    1.1576 H   0  0  0  0  0  0  0  0  0  0  0  0
  1  6  1  0  0  0  0
  2  1  1  0  0  0  0
  4  3  1  1  0  0  0
  4  2  1  0  0  0  0
  5  4  1  0  0  0  0
  5 11  1  0  0  0  0
  6 12  1  0  0  0  0
  6 13  1  0  0  0  0
  6 14  1  0  0  0  0
  7  1  1  0  0  0  0
  7 15  1  0  0  0  0
  7 17  1  0  0  0  0
  8  3  1  0  0  0  0
  9  5  1  0  0  0  0
 10  5  1  0  0  0  0
 16  7  1  0  0  0  0
M  END
