1,3
q = 0.0, confidence = 0.992

 49 51  0  0  1  0  0  0  0  0999 V2000
   -0.2018    0.1475   -0.4638 N   0  0  0  0  0  0  0  0  0  0  0  0
   -4.6523    0.0771    0.2689 N   0  0  0  0  0  0  0  0  0  0  0  0
    1.8602    1.6734   -0.8238 N   0  0  0  0  0  2  0  0  0  0  0  0
   -3.2037   -1.1573   -0.7329 N   0  0  0  0  0  0  0  0  0  0  0  0
    1.7598   -1.5964   -2.0229 N   0  0  0  0  0  0  0  0  0  0  0  0
   -4.4705   -0.8309   -0.7165 N   0  0  0  0  0  0  0  0  0  0  0  0
   -3.4726    0.3445    0.8979 C   0  0  0  0  0  0  0  0  0  0  0  0
   -3.3667    1.0408    1.7329 H   0  0  0  0  0  0  0  0  0  0  0  0
   -0.2625   -2.9289   -1.9521 C   0  0  0  0  0  0  0  0  0  0  0  0
   -1.3626   -2.9417   -1.9038 H   0  0  0  0  0  0  0  0  0  0  0  0
    0.6238    3.5173   -1.7560 C   0  0  0  0  0  0  0  0  0  0  0  0
   -0.3470    4.0071   -1.9186 H   0  0  0  0  0  0  0  0  0  0  0  0
    0.4163   -1.7000   -1.9751 C   0  0  0  0  0  0  0  0  0  0  0  0
    0.6777    2.3150   -1.0438 C   0  0  2  0  0  3  0  0  0  0  0  0
   -5.9649    1.6224    1.6664 C   0  0  0  0  0  0  0  0  0  0  0  0
   -5.6122    1.1614    2.6102 H   0  0  0  0  0  0  0  0  0  0  0  0
   -6.9834    2.0170    1.8463 H   0  0  0  0  0  0  0  0  0  0  0  0
   -5.3100    2.4818    1.4206 H   0  0  0  0  0  0  0  0  0  0  0  0
    1.8954   -4.0084   -1.9851 C   0  0  0  0  0  0  0  0  0  0  0  0
    2.5325   -4.9054   -1.9798 H   0  0  0  0  0  0  0  0  0  0  0  0
   -6.5123    1.2743   -0.7730 C   0  0  0  0  0  0  0  0  0  0  0  0
   -5.8602    2.1285   -1.0445 H   0  0  0  0  0  0  0  0  0  0  0  0
   -7.5442    1.6525   -0.6357 H   0  0  0  0  0  0  0  0  0  0  0  0
   -6.5037    0.5484   -1.6076 H   0  0  0  0  0  0  0  0  0  0  0  0
   -1.0736   -0.5985    0.4978 C   0  0  0  0  0  0  0  0  0  0  0  0
   -0.8117   -0.2178    1.5004 H   0  0  0  0  0  0  0  0  0  0  0  0
   -0.7676   -1.6584    0.4412 H   0  0  0  0  0  0  0  0  0  0  0  0
   -0.3131   -0.3853   -1.8584 C   0  0  0  0  0  0  0  0  0  0  0  0
    0.1713    0.3497   -2.5292 H   0  0  0  0  0  0  0  0  0  0  0  0
   -1.3835   -0.4856   -2.1324 H   0  0  0  0  0  0  0  0  0  0  0  0
   -2.5399   -0.4594    0.2456 C   0  0  0  0  0  0  0  0  0  0  0  0
    3.0215    3.3935   -2.0266 C   0  0  0  0  0  0  0  0  0  0  0  0
    3.9758    3.7855   -2.4057 H   0  0  0  0  0  0  0  0  0  0  0  0
    3.0082    2.1932   -1.3128 C   0  0  0  0  0  0  0  0  0  0  0  0
    3.9142    1.6052   -1.1112 H   0  0  0  0  0  0  0  0  0  0  0  0
    1.8139    4.0731   -2.2496 C   0  0  0  0  0  0  0  0  0  0  0  0
    1.7970    5.0196   -2.8097 H   0  0  0  0  0  0  0  0  0  0  0  0
   -6.0225    0.6052    0.5221 C   0  0  0  0  0  0  0  0  0  0  0  0
    0.4984   -4.1092   -1.9591 C   0  0  0  0  0  0  0  0  0  0  0  0
    0.0046   -5.0926   -1.9337 H   0  0  0  0  0  0  0  0  0  0  0  0
   -6.9208   -0.5848    0.8997 C   0  0  0  0  0  0  0  0  0  0  0  0
   -6.9233   -1.3366    0.0883 H   0  0  0  0  0  0  0  0  0  0  0  0
   -7.9582   -0.2360    1.0703 H   0  0  0  0  0  0  0  0  0  0  0  0
   -6.5580   -1.0715    1.8268 H   0  0  0  0  0  0  0  0  0  0  0  0
   -0.4831    1.6095   -0.4187 C   0  0  0  0  0  0  0  0  0  0  0  0
   -0.4917    1.8672    0.6693 H   0  0  0  0  0  0  0  0  0  0  0  0
   -1.4509    1.8655   -0.9005 H   0  0  0  0  0  0  0  0  0  0  0  0
    2.4762   -2.7290   -2.0200 C   0  0  0  0  0  0  0  0  0  0  0  0
    3.5736   -2.6122   -2.0405 H   0  0  0  0  0  0  0  0  0  0  0  0
  1 45  1  0  0  0  0
  1 25  1  0  0  0  0
  2 38  1  0  0  0  0
  2  7  1  0  0  0  0
  4  6  2  0  0  0  0
  4 31  1  0  0  0  0
  5 48  2  0  0  0  0
  5 13  1  0  0  0  0
  6  2  1  0  0  0  0
  7  8  1  0  0  0  0
  9 10  1  0  0  0  0
 11 14  1  0  0  0  0
 12 11  1  0  0  0  0
 13  9  2  0  0  0  0
 13 28  1  0  0  0  0
 14  3  1  0  0  0  0
 14 45  1  1  0  0  0
 15 17  1  0  0  0  0
 15 16  1  0  0  0  0
 18 15  1  0  0  0  0
 19 20  1  0  0  0  0
 19 39  2  0  0  0  0
 21 23  1  0  0  0  0
 21 38  1  0  0  0  0
 22 21  1  0  0  0  0
 24 21  1  0  0  0  0
 25 26  1  0  0  0  0
 27 25  1  0  0  0  0
 28  1  1  0  0  0  0
 29 28  1  0  0  0  0
 30 28  1  0  0  0  0
 31 25  1  0  0  0  0
 31  7  2  0  0  0  0
 32 34  2  0  0  0  0
 33 32  1  0  0  0  0
 34 35  1  0  0  0  0
 34  3  1  0  0  0  0
 36 32  1  0  0  0  0
 36 11  2  0  0  0  0
 37 36  1  0  0  0  0
 38 41  1  0  0  0  0
 38 15  1  0  0  0  0
 39  9  1  0  0  0  0
 39 40  1  0  0  0  0
 41 43  1  0  0  0  0
 41 44  1  0  0  0  0
 42 41  1  0  0  0  0
 45 46  1  0  0  0  0
 47 45  1  0  0  0  0
 48 19  1  0  0  0  0
 49 48  1  0  0  0  0
M  END
