1,2
q = 0.0, confidence = 0.934

 38 38  0  0  0  0  0  0  0  0999 V2000
   -1.1457   -1.5157    0.6087 N   0  0  0  0  0  2  0  0  0  0  0  0
   -1.1455    1.5158    0.6087 N   0  0  0  0  0  2  0  0  0  0  0  0
   -2.0697    0.7227    0.0125 C   0  0  0  0  0  0  0  0  0  0  0  0
   -2.0698   -0.7225    0.0125 C   0  0  0  0  0  0  0  0  0  0  0  0
   -3.2097   -0.7493   -0.9551 C   0  0  0  0  0  0  0  0  0  0  0  0
   -3.2096    0.7496   -0.9551 C   0  0  0  0  0  0  0  0  0  0  0  0
   -4.0023    1.6356   -1.6009 C   0  0  0  0  0  0  0  0  0  0  0  0
   -4.8322    1.2695   -2.2251 H   0  0  0  0  0  0  0  0  0  0  0  0
   -3.8760    2.7239   -1.5259 H   0  0  0  0  0  0  0  0  0  0  0  0
   -4.0027   -1.6352   -1.6007 C   0  0  0  0  0  0  0  0  0  0  0  0
   -3.8766   -2.7234   -1.5256 H   0  0  0  0  0  0  0  0  0  0  0  0
   -4.8326   -1.2689   -2.2249 H   0  0  0  0  0  0  0  0  0  0  0  0
   -1.3847   -2.9720    0.7532 C   0  0  0  0  0  0  0  0  0  0  0  0
   -0.3386   -3.5787    1.6993 C   0  0  0  0  0  0  0  0  0  0  0  0
   -0.4154   -3.1482    2.7158 H   0  0  0  0  0  0  0  0  0  0  0  0
    0.6870   -3.4146    1.3201 H   0  0  0  0  0  0  0  0  0  0  0  0
   -0.4996   -4.6717    1.7813 H   0  0  0  0  0  0  0  0  0  0  0  0
   -1.2598   -3.6835   -0.6107 C   0  0  0  0  0  0  0  0  0  0  0  0
   -1.9369   -3.2472   -1.3675 H   0  0  0  0  0  0  0  0  0  0  0  0
   -1.5017   -4.7612   -0.5118 H   0  0  0  0  0  0  0  0  0  0  0  0
   -0.2239   -3.5988   -0.9942 H   0  0  0  0  0  0  0  0  0  0  0  0
   -2.7785   -3.1997    1.3728 C   0  0  0  0  0  0  0  0  0  0  0  0
   -3.5889   -2.8105    0.7290 H   0  0  0  0  0  0  0  0  0  0  0  0
   -2.8452   -2.6841    2.3517 H   0  0  0  0  0  0  0  0  0  0  0  0
   -2.9556   -4.2817    1.5366 H   0  0  0  0  0  0  0  0  0  0  0  0
   -1.3844    2.9721    0.7532 C   0  0  0  0  0  0  0  0  0  0  0  0
   -1.2592    3.6836   -0.6107 C   0  0  0  0  0  0  0  0  0  0  0  0
   -1.9361    3.2473   -1.3675 H   0  0  0  0  0  0  0  0  0  0  0  0
   -0.2232    3.5988   -0.9939 H   0  0  0  0  0  0  0  0  0  0  0  0
   -1.5010    4.7614   -0.5118 H   0  0  0  0  0  0  0  0  0  0  0  0
   -0.3384    3.5786    1.6996 C   0  0  0  0  0  0  0  0  0  0  0  0
    0.6872    3.4145    1.3206 H   0  0  0  0  0  0  0  0  0  0  0  0
   -0.4155    3.1481    2.7161 H   0  0  0  0  0  0  0  0  0  0  0  0
   -0.4994    4.6717    1.7816 H   0  0  0  0  0  0  0  0  0  0  0  0
   -2.7783    3.1999    1.3725 C   0  0  0  0  0  0  0  0  0  0  0  0
   -3.5886    2.8108    0.7286 H   0  0  0  0  0  0  0  0  0  0  0  0
   -2.9553    4.2819    1.5364 H   0  0  0  0  0  0  0  0  0  0  0  0
   -2.8453    2.6843    2.3514 H   0  0  0  0  0  0  0  0  0  0  0  0
  1 13  1  0  0  0  0
  2 26  1  0  0  0  0
  3  4  2  0  0  0  0
  3  2  1  0  0  0  0
  4  1  1  0  0  0  0
  5  4  1  0  0  0  0
  6  5  1  0  0  0  0
  6  3  1  0  0  0  0
  7  9  1  0  0  0  0
  7  6  2  0  0  0  0
  8  7  1  0  0  0  0
 10 11  1  0  0  0  0
 10  5  2  0  0  0  0
 12 10  1  0  0  0  0
 13 22  1  0  0  0  0
 13 14  1  0  0  0  0
 14 17  1  0  0  0  0
 14 15  1  0  0  0  0
 16 14  1  0  0  0  0
 18 20  1  0  0  0  0
 18 13  1  0  0  0  0
 19 18  1  0  0  0  0
 21 18  1  0  0  0  0
 22 25  1  0  0  0  0
 22 24  1  0  0  0  0
 23 22  1  0  0  0  0
 26 35  1  0  0  0  0
 26 31  1  0  0  0  0
 27 30  1  0  0  0  0
 27 26  1  0  0  0  0
 28 27  1  0  0  0  0
 29 27  1  0  0  0  0
 31 34  1  0  0  0  0
 31 33  1  0  0  0  0
 32 31  1  0  0  0  0
 35 37  1  0  0  0  0
 35 38  1  0  0  0  0
 36 35  1  0  0  0  0
M  END
