15,18
q = 0.0, confidence = 0.978

 24 25  0  0  0  0  0  0  0  0999 V2000
    2.1082    0.8873   -0.0129 C   0  0  0  0  0  0  0  0  0  0  0  0
    2.5571   -0.1690   -0.8325 C   0  0  0  0  0  0  0  0  0  0  0  0
    1.8337   -0.6652   -1.4947 H   0  0  0  0  0  0  0  0  0  0  0  0
    3.9153   -0.4954   -0.8471 C   0  0  0  0  0  0  0  0  0  0  0  0
    4.2689   -1.2998   -1.5104 H   0  0  0  0  0  0  0  0  0  0  0  0
    4.8472    0.1952   -0.0392 C   0  0  0  0  0  0  0  0  0  0  0  0
    4.3702    1.2523    0.7740 C   0  0  0  0  0  0  0  0  0  0  0  0
    5.0778    1.7989    1.4163 H   0  0  0  0  0  0  0  0  0  0  0  0
    3.0232    1.6141    0.7811 C   0  0  0  0  0  0  0  0  0  0  0  0
    2.6558    2.4361    1.4111 H   0  0  0  0  0  0  0  0  0  0  0  0
    6.3083   -0.1537   -0.0624 C   0  0  0  0  0  0  0  0  0  0  0  0
    6.8690    0.5754   -0.6866 H   0  0  0  0  0  0  0  0  0  0  0  0
    6.4875   -1.1591   -0.4878 H   0  0  0  0  0  0  0  0  0  0  0  0
    6.7536   -0.1126    0.9513 H   0  0  0  0  0  0  0  0  0  0  0  0
    0.7350    1.2079   -0.0218 N   0  0  0  0  0  2  0  0  0  0  0  0
    0.4369    2.4618    0.0525 N   0  0  0  0  0  0  0  0  0  0  0  0
   -0.9031    2.6427   -0.0062 C   0  0  0  0  0  0  0  0  0  0  0  0
   -1.7853    1.6230   -0.0841 N   0  0  0  0  0  2  0  0  0  0  0  0
   -3.0289    2.1709   -0.2242 C   0  0  0  0  0  0  0  0  0  0  0  0
   -3.9345    1.5657   -0.3303 H   0  0  0  0  0  0  0  0  0  0  0  0
   -2.9063    3.5596   -0.2129 C   0  0  0  0  0  0  0  0  0  0  0  0
   -3.6619    4.3475   -0.2921 H   0  0  0  0  0  0  0  0  0  0  0  0
   -1.5677    3.8330   -0.0707 N   0  0  0  0  0  0  0  0  0  0  0  0
   -1.1237    4.7544   -0.0617 H   0  0  0  0  0  0  0  0  0  0  0  0
  1  9  1  0  0  0  0
  2  1  2  0  0  0  0
  3  2  1  0  0  0  0
  4  2  1  0  0  0  0
  4  6  2  0  0  0  0
  5  4  1  0  0  0  0
  6  7  1  0  0  0  0
  7  9  2  0  0  0  0
  7  8  1  0  0  0  0
  9 10  1  0  0  0  0
 11  6  1  0  0  0  0
 11 14  1  0  0  0  0
 12 11  1  0  0  0  0
 13 11  1  0  0  0  0
 15  1  1  0  0  0  0
 15 16  1  0  0  0  0
 17 16  2  0  0  0  0
 18 17  1  0  0  0  0
 19 21  2  0  0  0  0
 19 18  1  0  0  0  0
 20 19  1  0  0  0  0
 21 23  1  0  0  0  0
 22 21  1  0  0  0  0
 23 24  1  0  0  0  0
 23 17  1  0  0  0  0
M  END
