1,2
q = 0.0, confidence = 0.994

 40 40  0  0  1  0  0  0  0  0999 V2000
    1.9089    1.1240   -0.4272 N   0  0  0  0  0  0  0  0  0  0  0  0
   -0.6603   -0.2362   -0.3128 N   0  0  0  0  0  0  0  0  0  0  0  0
   -0.7622   -0.8162   -1.1621 H   0  0  0  0  0  0  0  0  0  0  0  0
    4.3551    0.5486   -0.3557 C   0  0  0  0  0  0  0  0  0  0  0  0
    4.6924    1.3004    0.3850 H   0  0  0  0  0  0  0  0  0  0  0  0
    5.2128    0.3239   -1.0189 H   0  0  0  0  0  0  0  0  0  0  0  0
    4.0994   -0.3814    0.1931 H   0  0  0  0  0  0  0  0  0  0  0  0
    3.1773    1.0247   -1.1956 C   0  0  0  0  0  0  0  0  0  0  0  0
    3.4088    2.0000   -1.6852 H   0  0  0  0  0  0  0  0  0  0  0  0
    2.9820    0.2809   -1.9954 H   0  0  0  0  0  0  0  0  0  0  0  0
    2.3968    3.4208    0.5783 C   0  0  0  0  0  0  0  0  0  0  0  0
    3.4076    3.5206    0.1345 H   0  0  0  0  0  0  0  0  0  0  0  0
    2.4120    3.9483    1.5525 H   0  0  0  0  0  0  0  0  0  0  0  0
    1.6835    3.9620   -0.0763 H   0  0  0  0  0  0  0  0  0  0  0  0
    2.0047    1.9612    0.7964 C   0  0  0  0  0  0  0  0  0  0  0  0
    2.7107    1.4527    1.4809 H   0  0  0  0  0  0  0  0  0  0  0  0
    1.0310    1.8921    1.3206 H   0  0  0  0  0  0  0  0  0  0  0  0
    0.7835    1.4885   -1.3165 C   0  0  0  0  0  0  0  0  0  0  0  0
    0.8983    0.8725   -2.2328 H   0  0  0  0  0  0  0  0  0  0  0  0
    0.8266    2.5576   -1.6269 H   0  0  0  0  0  0  0  0  0  0  0  0
   -0.5774    1.1860   -0.6854 C   0  0  0  0  0  0  0  0  0  0  0  0
   -0.7321    1.7854    0.2350 H   0  0  0  0  0  0  0  0  0  0  0  0
   -1.3866    1.4862   -1.3864 H   0  0  0  0  0  0  0  0  0  0  0  0
   -1.7028   -0.5900    0.6796 C   0  0  1  0  0  0  0  0  0  0  0  0
   -1.4017   -0.0868    1.6241 H   0  0  0  0  0  0  0  0  0  0  0  0
   -3.0831   -0.0866    0.2810 C   0  0  0  0  0  0  0  0  0  0  0  0
   -3.8193    0.7476    1.1420 C   0  0  0  0  0  0  0  0  0  0  0  0
   -3.3836    1.0369    2.1120 H   0  0  0  0  0  0  0  0  0  0  0  0
   -5.0952    1.2088    0.7803 C   0  0  0  0  0  0  0  0  0  0  0  0
   -5.6576    1.8591    1.4675 H   0  0  0  0  0  0  0  0  0  0  0  0
   -5.6495    0.8443   -0.4558 C   0  0  0  0  0  0  0  0  0  0  0  0
   -6.6480    1.2066   -0.7435 H   0  0  0  0  0  0  0  0  0  0  0  0
   -4.9224    0.0144   -1.3258 C   0  0  0  0  0  0  0  0  0  0  0  0
   -5.3512   -0.2769   -2.2967 H   0  0  0  0  0  0  0  0  0  0  0  0
   -3.6510   -0.4478   -0.9580 C   0  0  0  0  0  0  0  0  0  0  0  0
   -3.0936   -1.1027   -1.6480 H   0  0  0  0  0  0  0  0  0  0  0  0
   -1.6717   -2.1013    0.9213 C   0  0  0  0  0  0  0  0  0  0  0  0
   -1.8415   -2.6633   -0.0204 H   0  0  0  0  0  0  0  0  0  0  0  0
   -2.4658   -2.3877    1.6369 H   0  0  0  0  0  0  0  0  0  0  0  0
   -0.6922   -2.3975    1.3481 H   0  0  0  0  0  0  0  0  0  0  0  0
  1 15  1  0  0  0  0
  2 24  1  0  0  0  0
  3  2  1  0  0  0  0
  4  7  1  0  0  0  0
  4  5  1  0  0  0  0
  6  4  1  0  0  0  0
  8  1  1  0  0  0  0
  8  4  1  0  0  0  0
  9  8  1  0  0  0  0
 10  8  1  0  0  0  0
 11 15  1  0  0  0  0
 11 13  1  0  0  0  0
 12 11  1  0  0  0  0
 14 11  1  0  0  0  0
 15 17  1  0  0  0  0
 15 16  1  0  0  0  0
 18 21  1  0  0  0  0
 18  1  1  0  0  0  0
 19 18  1  0  0  0  0
 20 18  1  0  0  0  0
 21  2  1  0  0  0  0
 21 22  1  0  0  0  0
 23 21  1  0  0  0  0
 24 37  1  0  0  0  0
 24 25  1  1  0  0  0
 26 24  1  0  0  0  0
 26 27  1  0  0  0  0
 27 28  1  0  0  0  0
 29 27  2  0  0  0  0
 29 30  1  0  0  0  0
 31 29  1  0  0  0  0
 32 31  1  0  0  0  0
 33 35  1  0  0  0  0
 33 31  2  0  0  0  0
 34 33  1  0  0  0  0
 35 26  2  0  0  0  0
 36 35  1  0  0  0  0
 37 40  1  0  0  0  0
 37 39  1  0  0  0  0
 38 37  1  0  0  0  0
M  END
