4,10
q = 0.0, confidence = 0.996

 44 47  0  0  1  0  0  0  0  0999 V2000
    0.0002   -2.7500   -1.0854 N   0  0  0  0  0  0  0  0  0  0  0  0
    0.0002   -3.7561   -1.2470 H   0  0  0  0  0  0  0  0  0  0  0  0
   -1.2553   -2.1992   -0.8722 C   0  0  0  0  0  0  0  0  0  0  0  0
   -1.3808   -0.9098   -0.5977 N   0  0  0  0  0  2  0  0  0  0  0  0
   -2.4027   -3.0548   -0.9729 C   0  0  0  0  0  0  0  0  0  0  0  0
   -2.2772   -4.1205   -1.2172 H   0  0  0  0  0  0  0  0  0  0  0  0
   -2.5588    0.9231    0.0186 N   0  0  0  0  0  0  0  0  0  0  0  0
   -3.6605   -2.5271   -0.7424 C   0  0  0  0  0  0  0  0  0  0  0  0
   -4.5441   -3.1788   -0.8101 H   0  0  0  0  0  0  0  0  0  0  0  0
    1.3809   -0.9095   -0.5983 N   0  0  0  0  0  2  0  0  0  0  0  0
   -3.8075   -1.1510   -0.3988 C   0  0  0  0  0  0  0  0  0  0  0  0
    2.5588    0.9237    0.0173 N   0  0  0  0  0  0  0  0  0  0  0  0
   -2.6026   -0.3842   -0.3368 C   0  0  2  0  0  3  0  0  0  0  0  0
   -3.6914    1.5469    0.3205 C   0  0  0  0  0  0  0  0  0  0  0  0
   -4.9508    0.8682    0.2626 C   0  0  0  0  0  0  0  0  0  0  0  0
   -5.8678    1.4238    0.5132 H   0  0  0  0  0  0  0  0  0  0  0  0
   -5.0341   -0.4759   -0.0904 C   0  0  0  0  0  0  0  0  0  0  0  0
   -3.5904    2.9895    0.7302 C   0  0  0  0  0  0  0  0  0  0  0  0
   -2.5293    3.3041    0.7063 H   0  0  0  0  0  0  0  0  0  0  0  0
   -3.9947    3.1354    1.7535 H   0  0  0  0  0  0  0  0  0  0  0  0
   -4.1868    3.6352    0.0523 H   0  0  0  0  0  0  0  0  0  0  0  0
   -6.3489   -1.2043   -0.1352 C   0  0  0  0  0  0  0  0  0  0  0  0
   -7.1905   -0.5330    0.1184 H   0  0  0  0  0  0  0  0  0  0  0  0
   -6.3623   -2.0537    0.5795 H   0  0  0  0  0  0  0  0  0  0  0  0
   -6.5411   -1.6297   -1.1423 H   0  0  0  0  0  0  0  0  0  0  0  0
    1.2556   -2.1991   -0.8723 C   0  0  0  0  0  0  0  0  0  0  0  0
    2.4031   -3.0547   -0.9724 C   0  0  0  0  0  0  0  0  0  0  0  0
    2.2776   -4.1205   -1.2162 H   0  0  0  0  0  0  0  0  0  0  0  0
    3.6608   -2.5267   -0.7421 C   0  0  0  0  0  0  0  0  0  0  0  0
    4.5444   -3.1784   -0.8093 H   0  0  0  0  0  0  0  0  0  0  0  0
    3.8077   -1.1505   -0.3990 C   0  0  0  0  0  0  0  0  0  0  0  0
    2.6028   -0.3838   -0.3375 C   0  0  1  0  0  3  0  0  0  0  0  0
    3.6913    1.5476    0.3192 C   0  0  0  0  0  0  0  0  0  0  0  0
    4.9508    0.8691    0.2617 C   0  0  0  0  0  0  0  0  0  0  0  0
    5.8677    1.4248    0.5123 H   0  0  0  0  0  0  0  0  0  0  0  0
    5.0342   -0.4752   -0.0907 C   0  0  0  0  0  0  0  0  0  0  0  0
    3.5901    2.9904    0.7282 C   0  0  0  0  0  0  0  0  0  0  0  0
    2.5289    3.3046    0.7052 H   0  0  0  0  0  0  0  0  0  0  0  0
    4.1855    3.6360    0.0492 H   0  0  0  0  0  0  0  0  0  0  0  0
    3.9956    3.1372    1.7510 H   0  0  0  0  0  0  0  0  0  0  0  0
    6.3491   -1.2036   -0.1350 C   0  0  0  0  0  0  0  0  0  0  0  0
    7.1906   -0.5321    0.1183 H   0  0  0  0  0  0  0  0  0  0  0  0
    6.5413   -1.6295   -1.1419 H   0  0  0  0  0  0  0  0  0  0  0  0
    6.3624   -2.0525    0.5802 H   0  0  0  0  0  0  0  0  0  0  0  0
  1 26  1  0  0  0  0
  1  3  1  0  0  0  0
  2  1  1  0  0  0  0
  3  4  1  0  0  0  0
  5  3  2  0  0  0  0
  5  8  1  0  0  0  0
  6  5  1  0  0  0  0
  7 14  2  0  0  0  0
  8 11  2  0  0  0  0
  9  8  1  0  0  0  0
 11 13  1  0  0  0  0
 11 17  1  0  0  0  0
 12 33  2  0  0  0  0
 13  4  1  1  0  0  0
 13  7  1  0  0  0  0
 14 18  1  0  0  0  0
 15 14  1  0  0  0  0
 15 16  1  0  0  0  0
 17 15  2  0  0  0  0
 18 20  1  0  0  0  0
 19 18  1  0  0  0  0
 21 18  1  0  0  0  0
 22 17  1  0  0  0  0
 22 23  1  0  0  0  0
 22 24  1  0  0  0  0
 25 22  1  0  0  0  0
 26 10  1  0  0  0  0
 27 26  2  0  0  0  0
 27 29  1  0  0  0  0
 28 27  1  0  0  0  0
 29 31  2  0  0  0  0
 30 29  1  0  0  0  0
 31 32  1  0  0  0  0
 31 36  1  0  0  0  0
 32 10  1  1  0  0  0
 32 12  1  0  0  0  0
 33 37  1  0  0  0  0
 34 33  1  0  0  0  0
 34 35  1  0  0  0  0
 36 34  2  0  0  0  0
 37 40  1  0  0  0  0
 38 37  1  0  0  0  0
 39 37  1  0  0  0  0
 41 36  1  0  0  0  0
 41 42  1  0  0  0  0
 41 44  1  0  0  0  0
 43 41  1  0  0  0  0
M  END
