4,6
q = 0.0, confidence = 0.996

 41 43  0  0  1  0  0  0  0  0999 V2000
   -1.5321   -0.4814   -0.2863 O   0  0  0  0  0  0  0  0  0  0  0  0
   -1.2656    1.7459   -0.7073 O   0  0  0  0  0  0  0  0  0  0  0  0
    1.2085    2.9608    0.9418 N   0  0  0  0  0  0  0  0  0  0  0  0
    2.3810    1.2773    0.1101 N   0  0  0  0  0  2  0  0  0  0  0  0
   -0.1440   -1.5024    2.2810 N   0  0  0  0  0  0  0  0  0  0  0  0
    1.5636   -1.3697    0.8792 N   0  0  0  0  0  2  0  0  0  0  0  0
   -0.9603    0.7173   -0.1362 C   0  0  0  0  0  0  0  0  0  0  0  0
    0.0917    0.6814    1.0106 C   0  0  2  0  0  0  0  0  0  0  0  0
   -0.4544    1.1096    1.8793 H   0  0  0  0  0  0  0  0  0  0  0  0
    1.2324    1.6136    0.6952 C   0  0  2  0  0  3  0  0  0  0  0  0
    2.4095    3.4849    0.4913 C   0  0  0  0  0  0  0  0  0  0  0  0
    2.6349    4.5527    0.5722 H   0  0  0  0  0  0  0  0  0  0  0  0
    3.1286    2.4208   -0.0189 C   0  0  0  0  0  0  0  0  0  0  0  0
    4.1274    2.3953   -0.4680 H   0  0  0  0  0  0  0  0  0  0  0  0
    0.0959    3.7170    1.4953 C   0  0  0  0  0  0  0  0  0  0  0  0
   -0.8075    3.5470    0.8785 H   0  0  0  0  0  0  0  0  0  0  0  0
    0.3505    4.7914    1.4805 H   0  0  0  0  0  0  0  0  0  0  0  0
   -0.1029    3.4218    2.5460 H   0  0  0  0  0  0  0  0  0  0  0  0
    0.5255   -0.7075    1.3862 C   0  0  1  0  0  3  0  0  0  0  0  0
    0.5173   -2.7205    2.3279 C   0  0  0  0  0  0  0  0  0  0  0  0
    0.1749   -3.5336    2.9753 H   0  0  0  0  0  0  0  0  0  0  0  0
    1.5822   -2.6158    1.4536 C   0  0  0  0  0  0  0  0  0  0  0  0
    2.3642   -3.3402    1.2009 H   0  0  0  0  0  0  0  0  0  0  0  0
   -1.3903   -1.1801    2.9549 C   0  0  0  0  0  0  0  0  0  0  0  0
   -1.2890   -0.2541    3.5559 H   0  0  0  0  0  0  0  0  0  0  0  0
   -1.6543   -2.0057    3.6393 H   0  0  0  0  0  0  0  0  0  0  0  0
   -2.2041   -1.0485    2.2138 H   0  0  0  0  0  0  0  0  0  0  0  0
   -2.4373   -0.6419   -1.4204 C   0  0  0  0  0  0  0  0  0  0  0  0
   -2.2714   -1.6849   -1.7456 H   0  0  0  0  0  0  0  0  0  0  0  0
   -2.0995    0.0440   -2.2193 H   0  0  0  0  0  0  0  0  0  0  0  0
   -3.8638   -0.3954   -1.0047 C   0  0  0  0  0  0  0  0  0  0  0  0
   -4.4038    0.9075   -1.0274 C   0  0  0  0  0  0  0  0  0  0  0  0
   -3.7695    1.7390   -1.3695 H   0  0  0  0  0  0  0  0  0  0  0  0
   -5.7217    1.1362   -0.6068 C   0  0  0  0  0  0  0  0  0  0  0  0
   -6.1357    2.1558   -0.6342 H   0  0  0  0  0  0  0  0  0  0  0  0
   -6.5156    0.0679   -0.1575 C   0  0  0  0  0  0  0  0  0  0  0  0
   -7.5515    0.2485    0.1679 H   0  0  0  0  0  0  0  0  0  0  0  0
   -5.9871   -1.2325   -0.1320 C   0  0  0  0  0  0  0  0  0  0  0  0
   -6.6079   -2.0743    0.2110 H   0  0  0  0  0  0  0  0  0  0  0  0
   -4.6686   -1.4609   -0.5538 C   0  0  0  0  0  0  0  0  0  0  0  0
   -4.2559   -2.4825   -0.5440 H   0  0  0  0  0  0  0  0  0  0  0  0
  1  7  1  0  0  0  0
  2  7  2  0  0  0  0
  3 15  1  0  0  0  0
  4 10  1  0  0  0  0
  5 20  1  0  0  0  0
  5 24  1  0  0  0  0
  6 19  1  0  0  0  0
  6 22  1  0  0  0  0
  7  8  1  0  0  0  0
  8  9  1  1  0  0  0
 10  3  1  0  0  0  0
 10  8  1  6  0  0  0
 11 12  1  0  0  0  0
 11  3  1  0  0  0  0
 13  4  1  0  0  0  0
 13 11  2  0  0  0  0
 14 13  1  0  0  0  0
 15 18  1  0  0  0  0
 16 15  1  0  0  0  0
 17 15  1  0  0  0  0
 19  8  1  6  0  0  0
 19  5  1  0  0  0  0
 20 21  1  0  0  0  0
 22 20  2  0  0  0  0
 23 22  1  0  0  0  0
 24 25  1  0  0  0  0
 24 26  1  0  0  0  0
 27 24  1  0  0  0  0
 28 31  1  0  0  0  0
 28  1  1  0  0  0  0
 29 28  1  0  0  0  0
 30 28  1  0  0  0  0
 31 40  1  0  0  0  0
 32 31  2  0  0  0  0
 32 34  1  0  0  0  0
 33 32  1  0  0  0  0
 34 36  2  0  0  0  0
 35 34  1  0  0  0  0
 36 38  1  0  0  0  0
 36 37  1  0  0  0  0
 38 39  1  0  0  0  0
 40 41  1  0  0  0  0
 40 38  2  0  0  0  0
M  END
