1,2
q = 0.0, confidence = 1.0

 46 46  0  0  1  0  0  0  0  0999 V2000
    2.2227    1.0711   -0.3366 N   0  0  0  0  0  0  0  0  0  0  0  0
   -0.4924    0.0245   -0.2914 N   0  0  0  0  0  0  0  0  0  0  0  0
   -0.6449   -0.4771   -1.1828 H   0  0  0  0  0  0  0  0  0  0  0  0
    4.5896    0.2221   -0.3286 C   0  0  0  0  0  0  0  0  0  0  0  0
    5.0195    0.8824    0.4505 H   0  0  0  0  0  0  0  0  0  0  0  0
    5.4097   -0.0614   -1.0164 H   0  0  0  0  0  0  0  0  0  0  0  0
    4.2281   -0.7010    0.1699 H   0  0  0  0  0  0  0  0  0  0  0  0
    3.4714    0.8863   -1.1215 C   0  0  0  0  0  0  0  0  0  0  0  0
    3.8105    1.8627   -1.5417 H   0  0  0  0  0  0  0  0  0  0  0  0
    3.1919    0.2304   -1.9719 H   0  0  0  0  0  0  0  0  0  0  0  0
    2.9691    3.2073    0.8466 C   0  0  0  0  0  0  0  0  0  0  0  0
    3.9827    3.2271    0.3987 H   0  0  0  0  0  0  0  0  0  0  0  0
    3.0488    3.6477    1.8601 H   0  0  0  0  0  0  0  0  0  0  0  0
    2.3202    3.8784    0.2474 H   0  0  0  0  0  0  0  0  0  0  0  0
    2.4138    1.7885    0.9498 C   0  0  0  0  0  0  0  0  0  0  0  0
    3.0576    1.1482    1.5832 H   0  0  0  0  0  0  0  0  0  0  0  0
    1.4387    1.7875    1.4765 H   0  0  0  0  0  0  0  0  0  0  0  0
    1.1494    1.6326   -1.1834 C   0  0  0  0  0  0  0  0  0  0  0  0
    1.1879    1.0784   -2.1444 H   0  0  0  0  0  0  0  0  0  0  0  0
    1.3182    2.7099   -1.4128 H   0  0  0  0  0  0  0  0  0  0  0  0
   -0.2400    1.4475   -0.5652 C   0  0  0  0  0  0  0  0  0  0  0  0
   -0.3238    1.9989    0.3942 H   0  0  0  0  0  0  0  0  0  0  0  0
   -0.9934    1.8947   -1.2511 H   0  0  0  0  0  0  0  0  0  0  0  0
   -1.5812   -0.3030    0.6626 C   0  0  1  0  0  0  0  0  0  0  0  0
   -1.2773    0.1567    1.6304 H   0  0  0  0  0  0  0  0  0  0  0  0
   -2.9396    0.3169    0.2551 C   0  0  0  0  0  0  0  0  0  0  0  0
   -2.7677    1.4121    0.1336 H   0  0  0  0  0  0  0  0  0  0  0  0
   -3.4809   -0.2059   -1.0866 C   0  0  0  0  0  0  0  0  0  0  0  0
   -2.7241   -0.0782   -1.8915 H   0  0  0  0  0  0  0  0  0  0  0  0
   -3.6639   -1.3001   -1.0060 H   0  0  0  0  0  0  0  0  0  0  0  0
   -4.7868    0.4972   -1.4815 C   0  0  0  0  0  0  0  0  0  0  0  0
   -4.5777    1.5747   -1.6696 H   0  0  0  0  0  0  0  0  0  0  0  0
   -5.1711    0.0837   -2.4372 H   0  0  0  0  0  0  0  0  0  0  0  0
   -5.8455    0.3758   -0.3779 C   0  0  0  0  0  0  0  0  0  0  0  0
   -6.7678    0.9235   -0.6634 H   0  0  0  0  0  0  0  0  0  0  0  0
   -6.1376   -0.6933   -0.2710 H   0  0  0  0  0  0  0  0  0  0  0  0
   -5.3117    0.8862    0.9670 C   0  0  0  0  0  0  0  0  0  0  0  0
   -6.0726    0.7512    1.7638 H   0  0  0  0  0  0  0  0  0  0  0  0
   -5.1264    1.9818    0.8951 H   0  0  0  0  0  0  0  0  0  0  0  0
   -4.0066    0.1786    1.3551 C   0  0  0  0  0  0  0  0  0  0  0  0
   -4.2199   -0.8989    1.5303 H   0  0  0  0  0  0  0  0  0  0  0  0
   -3.6144    0.5792    2.3146 H   0  0  0  0  0  0  0  0  0  0  0  0
   -1.6004   -1.8216    0.8501 C   0  0  0  0  0  0  0  0  0  0  0  0
   -1.6957   -2.3511   -0.1200 H   0  0  0  0  0  0  0  0  0  0  0  0
   -2.4426   -2.1332    1.4963 H   0  0  0  0  0  0  0  0  0  0  0  0
   -0.6614   -2.1535    1.3367 H   0  0  0  0  0  0  0  0  0  0  0  0
  1 15  1  0  0  0  0
  2 24  1  0  0  0  0
  3  2  1  0  0  0  0
  4  7  1  0  0  0  0
  4  5  1  0  0  0  0
  6  4  1  0  0  0  0
  8  1  1  0  0  0  0
  8  4  1  0  0  0  0
  9  8  1  0  0  0  0
 10  8  1  0  0  0  0
 11 15  1  0  0  0  0
 11 13  1  0  0  0  0
 12 11  1  0  0  0  0
 14 11  1  0  0  0  0
 15 17  1  0  0  0  0
 15 16  1  0  0  0  0
 18 21  1  0  0  0  0
 18  1  1  0  0  0  0
 19 18  1  0  0  0  0
 20 18  1  0  0  0  0
 21  2  1  0  0  0  0
 21 22  1  0  0  0  0
 23 21  1  0  0  0  0
 24 43  1  0  0  0  0
 24 25  1  1  0  0  0
 26 24  1  0  0  0  0
 26 40  1  0  0  0  0
 27 26  1  0  0  0  0
 28 30  1  0  0  0  0
 28 26  1  0  0  0  0
 29 28  1  0  0  0  0
 31 28  1  0  0  0  0
 31 34  1  0  0  0  0
 32 31  1  0  0  0  0
 33 31  1  0  0  0  0
 34 36  1  0  0  0  0
 34 37  1  0  0  0  0
 35 34  1  0  0  0  0
 37 40  1  0  0  0  0
 37 38  1  0  0  0  0
 39 37  1  0  0  0  0
 40 41  1  0  0  0  0
 40 42  1  0  0  0  0
 43 46  1  0  0  0  0
 43 45  1  0  0  0  0
 44 43  1  0  0  0  0
M  END
