3,4
q = -1.0

 52 54  0  0  1  0  0  0  0  0999 V2000
   -3.1433    0.0348   -2.6546 Cl  0  0  0  0  0  0  0  0  0  0  0  0
   -2.8827    0.0552    2.7936 Cl  0  0  0  0  0  0  0  0  0  0  0  0
    0.4033   -1.3200   -0.3018 N   0  0  0  0  0  2  0  0  0  0  0  0
    0.4012    1.4348   -0.1297 N   0  0  0  0  0  0  0  0  0  0  0  0
   -0.9829   -1.1954   -0.1520 C   0  0  0  0  0  0  0  0  0  0  0  0
   -1.5806    2.5924    0.0642 C   0  0  0  0  0  0  0  0  0  0  0  0
   -2.6520    2.7922    0.1763 H   0  0  0  0  0  0  0  0  0  0  0  0
   -5.2050    0.0150    1.3921 C   0  0  0  0  0  0  0  0  0  0  0  0
   -5.6866    0.0130    2.3791 H   0  0  0  0  0  0  0  0  0  0  0  0
   -0.9874    1.2889   -0.0111 C   0  0  0  0  0  3  0  0  0  0  0  0
   -1.5694   -2.5024   -0.2127 C   0  0  0  0  0  0  0  0  0  0  0  0
   -2.6386   -2.7194   -0.1123 H   0  0  0  0  0  0  0  0  0  0  0  0
   -3.8040    0.0309    1.3070 C   0  0  0  0  0  0  0  0  0  0  0  0
   -3.9222    0.0227   -1.0994 C   0  0  0  0  0  0  0  0  0  0  0  0
    0.6808   -2.6333   -0.4967 C   0  0  1  0  0  3  0  0  0  0  0  0
   -5.9582    0.0029    0.2107 C   0  0  0  0  0  0  0  0  0  0  0  0
   -7.0570   -0.0094    0.2656 H   0  0  0  0  0  0  0  0  0  0  0  0
   -0.5274   -3.3987   -0.4321 C   0  0  0  0  0  0  0  0  0  0  0  0
   -0.6006   -4.4867   -0.5444 H   0  0  0  0  0  0  0  0  0  0  0  0
    0.6716    2.7628   -0.1755 C   0  0  0  0  0  0  0  0  0  0  0  0
    2.0651    3.2819   -0.4470 C   0  0  0  0  0  0  0  0  0  0  0  0
    2.1476    3.7563   -1.9174 C   0  0  0  0  0  0  0  0  0  0  0  0
    1.9254    2.9128   -2.6007 H   0  0  0  0  0  0  0  0  0  0  0  0
    3.1638    4.1442   -2.1420 H   0  0  0  0  0  0  0  0  0  0  0  0
    1.4173    4.5674   -2.1092 H   0  0  0  0  0  0  0  0  0  0  0  0
   -5.3251    0.0079   -1.0390 C   0  0  0  0  0  0  0  0  0  0  0  0
   -5.9024    0.0011   -1.9734 H   0  0  0  0  0  0  0  0  0  0  0  0
    2.1773   -3.4014   -2.3344 C   0  0  0  0  0  0  0  0  0  0  0  0
    1.4537   -4.1865   -2.6313 H   0  0  0  0  0  0  0  0  0  0  0  0
    3.1979   -3.7546   -2.5939 H   0  0  0  0  0  0  0  0  0  0  0  0
    1.9574   -2.4822   -2.9128 H   0  0  0  0  0  0  0  0  0  0  0  0
   -0.5417    3.5113   -0.0413 C   0  0  0  0  0  0  0  0  0  0  0  0
   -0.6197    4.6048   -0.0345 H   0  0  0  0  0  0  0  0  0  0  0  0
   -1.6356    0.0423   -0.0187 C   0  0  0  0  0  0  0  0  0  0  0  0
   -3.1254    0.0328    0.0695 C   0  0  0  0  0  0  0  0  0  0  0  0
    3.0661    2.1406   -0.2178 C   0  0  0  0  0  0  0  0  0  0  0  0
    3.0453    1.8114    0.8314 H   0  0  0  0  0  0  0  0  0  0  0  0
    4.1042    2.4480   -0.4586 H   0  0  0  0  0  0  0  0  0  0  0  0
    2.8935    1.3004   -0.9639 H   0  0  0  0  0  0  0  0  0  0  0  0
    2.0786   -3.1096   -0.8184 C   0  0  0  0  0  0  0  0  0  0  0  0
    3.0675   -1.9993   -0.4360 C   0  0  0  0  0  0  0  0  0  0  0  0
    2.9050   -1.0817   -1.0883 H   0  0  0  0  0  0  0  0  0  0  0  0
    4.1128   -2.2720   -0.6876 H   0  0  0  0  0  0  0  0  0  0  0  0
    3.0129   -1.7835    0.6419 H   0  0  0  0  0  0  0  0  0  0  0  0
    2.4099   -4.3810   -0.0111 C   0  0  0  0  0  0  0  0  0  0  0  0
    2.3306   -4.1970    1.0800 H   0  0  0  0  0  0  0  0  0  0  0  0
    3.4417   -4.7236   -0.2329 H   0  0  0  0  0  0  0  0  0  0  0  0
    1.7206   -5.2101   -0.2672 H   0  0  0  0  0  0  0  0  0  0  0  0
    2.3999    4.4477    0.5051 C   0  0  0  0  0  0  0  0  0  0  0  0
    1.7014    5.2959    0.3614 H   0  0  0  0  0  0  0  0  0  0  0  0
    3.4263    4.8236    0.3137 H   0  0  0  0  0  0  0  0  0  0  0  0
    2.3358    4.1326    1.5669 H   0  0  0  0  0  0  0  0  0  0  0  0
  1 14  1  0  0  0  0
  3  5  1  0  0  0  0
  4 10  1  0  0  0  0
  5 34  2  0  0  0  0
  6  7  1  0  0  0  0
  8  9  1  0  0  0  0
 10  6  1  0  0  0  0
 11  5  1  0  0  0  0
 11 12  1  0  0  0  0
 13  8  1  0  0  0  0
 13  2  1  0  0  0  0
 14 26  2  0  0  0  0
 14 35  1  0  0  0  0
 15 40  1  6  0  0  0
 15 18  1  0  0  0  0
 15  3  1  0  0  0  0
 16 17  1  0  0  0  0
 16  8  2  0  0  0  0
 18 11  2  0  0  0  0
 19 18  1  0  0  0  0
 20  4  2  0  0  0  0
 20 32  1  0  0  0  0
 21 36  1  0  0  0  0
 21 20  1  0  0  0  0
 21 49  1  0  0  0  0
 22 21  1  0  0  0  0
 23 22  1  0  0  0  0
 24 22  1  0  0  0  0
 25 22  1  0  0  0  0
 26 16  1  0  0  0  0
 27 26  1  0  0  0  0
 28 40  1  0  0  0  0
 29 28  1  0  0  0  0
 30 28  1  0  0  0  0
 31 28  1  0  0  0  0
 32 33  1  0  0  0  0
 32  6  2  0  0  0  0
 34 10  1  0  0  0  0
 34 35  1  0  0  0  0
 35 13  2  0  0  0  0
 36 37  1  0  0  0  0
 38 36  1  0  0  0  0
 39 36  1  0  0  0  0
 40 41  1  0  0  0  0
 40 45  1  0  0  0  0
 41 44  1  0  0  0  0
 42 41  1  0  0  0  0
 43 41  1  0  0  0  0
 45 46  1  0  0  0  0
 47 45  1  0  0  0  0
 48 45  1  0  0  0  0
 49 52  1  0  0  0  0
 50 49  1  0  0  0  0
 51 49  1  0  0  0  0
M  END
