1,2
q = 0.0, confidence = 1.0

 55 57  0  0  1  0  0  0  0  0999 V2000
    0.5194   -1.7166    0.1854 N   0  0  0  0  0  2  0  0  0  0  0  0
    2.8230   -0.4669    0.0323 N   0  0  0  0  0  2  0  0  0  0  0  0
   -0.8292   -2.1253    0.1210 C   0  0  0  0  0  0  0  0  0  0  0  0
    3.9652    0.2687    0.1033 C   0  0  1  0  0  3  0  0  0  0  0  0
    2.4558    3.7455    0.2684 C   0  0  0  0  0  0  0  0  0  0  0  0
    1.5410    4.2137    0.6632 H   0  0  0  0  0  0  0  0  0  0  0  0
   -2.7848   -2.8387   -1.1173 C   0  0  0  0  0  0  0  0  0  0  0  0
   -3.2617   -3.1348   -2.0642 H   0  0  0  0  0  0  0  0  0  0  0  0
    5.2155   -0.3653    0.2632 C   0  0  0  0  0  0  0  0  0  0  0  0
    6.1268    0.2453    0.3284 H   0  0  0  0  0  0  0  0  0  0  0  0
    4.0903   -2.5061    0.2894 C   0  0  0  0  0  0  0  0  0  0  0  0
    4.1116   -3.6018    0.3632 H   0  0  0  0  0  0  0  0  0  0  0  0
   -1.6075   -1.9909    1.3064 C   0  0  0  0  0  0  0  0  0  0  0  0
    3.3823    4.4868   -0.4804 C   0  0  0  0  0  0  0  0  0  0  0  0
    3.2046    5.5555   -0.6738 H   0  0  0  0  0  0  0  0  0  0  0  0
    4.7562    2.4971   -0.7644 C   0  0  0  0  0  0  0  0  0  0  0  0
    5.6362    2.0059   -1.2075 H   0  0  0  0  0  0  0  0  0  0  0  0
    2.6807    2.3811    0.5026 C   0  0  0  0  0  0  0  0  0  0  0  0
    1.9760    1.8381    1.1544 H   0  0  0  0  0  0  0  0  0  0  0  0
   -2.9653   -2.3439    1.2506 C   0  0  0  0  0  0  0  0  0  0  0  0
   -3.5801   -2.2599    2.1584 H   0  0  0  0  0  0  0  0  0  0  0  0
    4.5394    3.8647   -0.9818 C   0  0  0  0  0  0  0  0  0  0  0  0
    5.2666    4.4447   -1.5698 H   0  0  0  0  0  0  0  0  0  0  0  0
   -3.5509   -2.7818    0.0534 C   0  0  0  0  0  0  0  0  0  0  0  0
   -4.6155   -3.0604    0.0300 H   0  0  0  0  0  0  0  0  0  0  0  0
    1.5507   -2.5096    0.1035 C   0  0  1  0  0  3  0  0  0  0  0  0
   -1.4163   -2.5088   -1.1163 C   0  0  0  0  0  0  0  0  0  0  0  0
    5.2776   -1.7615    0.3505 C   0  0  0  0  0  0  0  0  0  0  0  0
    6.2451   -2.2685    0.4792 H   0  0  0  0  0  0  0  0  0  0  0  0
    2.8690   -1.8269    0.1473 C   0  0  0  0  0  0  0  0  0  0  0  0
   -0.6414   -2.4362   -2.4262 C   0  0  0  0  0  0  0  0  0  0  0  0
    0.4314   -2.3002   -2.1816 H   0  0  0  0  0  0  0  0  0  0  0  0
   -0.9449   -1.4967    2.5836 C   0  0  0  0  0  0  0  0  0  0  0  0
   -0.1130   -0.8359    2.2575 H   0  0  0  0  0  0  0  0  0  0  0  0
    3.8185    1.7338   -0.0350 C   0  0  0  0  0  0  0  0  0  0  0  0
   -1.0772   -1.1864   -3.2165 C   0  0  0  0  0  0  0  0  0  0  0  0
   -0.4756   -1.0787   -4.1428 H   0  0  0  0  0  0  0  0  0  0  0  0
   -0.9566   -0.2662   -2.6103 H   0  0  0  0  0  0  0  0  0  0  0  0
   -2.1447   -1.2612   -3.5115 H   0  0  0  0  0  0  0  0  0  0  0  0
   -1.8705   -0.6458    3.4591 C   0  0  0  0  0  0  0  0  0  0  0  0
   -2.2847    0.2043    2.8829 H   0  0  0  0  0  0  0  0  0  0  0  0
   -1.3021   -0.2248    4.3125 H   0  0  0  0  0  0  0  0  0  0  0  0
   -2.7105   -1.2346    3.8834 H   0  0  0  0  0  0  0  0  0  0  0  0
    1.4691   -4.0043   -0.0170 C   0  0  0  0  0  0  0  0  0  0  0  0
    0.4174   -4.3401    0.0385 H   0  0  0  0  0  0  0  0  0  0  0  0
    2.0423   -4.4999    0.7930 H   0  0  0  0  0  0  0  0  0  0  0  0
    1.8987   -4.3509   -0.9803 H   0  0  0  0  0  0  0  0  0  0  0  0
   -0.3322   -2.6692    3.3713 C   0  0  0  0  0  0  0  0  0  0  0  0
    0.3799   -3.2517    2.7520 H   0  0  0  0  0  0  0  0  0  0  0  0
   -1.1224   -3.3684    3.7166 H   0  0  0  0  0  0  0  0  0  0  0  0
    0.2149   -2.3028    4.2643 H   0  0  0  0  0  0  0  0  0  0  0  0
   -0.7633   -3.7176   -3.2640 C   0  0  0  0  0  0  0  0  0  0  0  0
   -0.1361   -3.6469   -4.1760 H   0  0  0  0  0  0  0  0  0  0  0  0
   -1.8068   -3.8907   -3.5987 H   0  0  0  0  0  0  0  0  0  0  0  0
   -0.4425   -4.6128   -2.6931 H   0  0  0  0  0  0  0  0  0  0  0  0
  2  4  1  0  0  0  0
  2 30  1  0  0  0  0
  3  1  1  0  0  0  0
  3 13  1  0  0  0  0
  4 35  1  6  0  0  0
  4  9  1  0  0  0  0
  5 18  1  0  0  0  0
  5  6  1  0  0  0  0
  7 27  1  0  0  0  0
  7 24  2  0  0  0  0
  8  7  1  0  0  0  0
  9 10  1  0  0  0  0
  9 28  2  0  0  0  0
 11 28  1  0  0  0  0
 11 12  1  0  0  0  0
 13 33  1  0  0  0  0
 14  5  2  0  0  0  0
 15 14  1  0  0  0  0
 16 35  1  0  0  0  0
 17 16  1  0  0  0  0
 18 19  1  0  0  0  0
 20 13  2  0  0  0  0
 20 21  1  0  0  0  0
 22 16  2  0  0  0  0
 22 14  1  0  0  0  0
 23 22  1  0  0  0  0
 24 20  1  0  0  0  0
 25 24  1  0  0  0  0
 26 30  1  0  0  0  0
 26  1  1  1  0  0  0
 27  3  2  0  0  0  0
 28 29  1  0  0  0  0
 30 11  2  0  0  0  0
 31 32  1  0  0  0  0
 31 27  1  0  0  0  0
 33 48  1  0  0  0  0
 33 40  1  0  0  0  0
 34 33  1  0  0  0  0
 35 18  2  0  0  0  0
 36 38  1  0  0  0  0
 36 31  1  0  0  0  0
 37 36  1  0  0  0  0
 39 36  1  0  0  0  0
 40 43  1  0  0  0  0
 40 42  1  0  0  0  0
 41 40  1  0  0  0  0
 44 45  1  0  0  0  0
 44 26  1  0  0  0  0
 44 46  1  0  0  0  0
 47 44  1  0  0  0  0
 48 50  1  0  0  0  0
 48 51  1  0  0  0  0
 49 48  1  0  0  0  0
 52 55  1  0  0  0  0
 52 31  1  0  0  0  0
 53 52  1  0  0  0  0
 54 52  1  0  0  0  0
M  END
