3,4
q = -1.0, confidence = 0.002

 35 37  0  0  1  0  0  0  0  0999 V2000
   -1.6661    0.0512    1.0615 P   0  0  0  0  0  4  0  0  0  0  0  0
   -1.6784   -0.4422    2.9747 S   0  0  0  0  0  1  0  0  0  0  0  0
   -0.4020   -0.5731    0.1243 N   0  0  0  0  0  2  0  0  0  0  0  0
    1.0270   -1.9575   -0.7825 N   0  0  0  0  0  2  0  0  0  0  0  0
   -0.1896   -1.8849   -0.1556 C   0  0  1  0  0  3  0  0  0  0  0  0
   -0.9415   -3.0597    0.0871 C   0  0  0  0  0  0  0  0  0  0  0  0
   -1.8977   -3.0021    0.6227 H   0  0  0  0  0  0  0  0  0  0  0  0
   -0.4083   -4.2690   -0.3623 C   0  0  0  0  0  0  0  0  0  0  0  0
   -0.9647   -5.2022   -0.1852 H   0  0  0  0  0  0  0  0  0  0  0  0
    0.8302   -4.3124   -1.0415 C   0  0  0  0  0  0  0  0  0  0  0  0
    1.2506   -5.2594   -1.4054 H   0  0  0  0  0  0  0  0  0  0  0  0
    1.5257   -3.1159   -1.2376 C   0  0  0  0  0  0  0  0  0  0  0  0
    2.4955   -3.0685   -1.7570 H   0  0  0  0  0  0  0  0  0  0  0  0
   -1.5141    1.8563    0.7636 C   0  0  0  0  0  0  0  0  0  0  0  0
   -1.4625    2.7232    1.8690 C   0  0  0  0  0  0  0  0  0  0  0  0
   -1.5077    2.2862    2.8805 H   0  0  0  0  0  0  0  0  0  0  0  0
   -1.3492    4.1082    1.6680 C   0  0  0  0  0  0  0  0  0  0  0  0
   -1.3027    4.7855    2.5345 H   0  0  0  0  0  0  0  0  0  0  0  0
   -1.3044    4.6268    0.3634 C   0  0  0  0  0  0  0  0  0  0  0  0
   -1.2238    5.7133    0.2051 H   0  0  0  0  0  0  0  0  0  0  0  0
   -1.3651    3.7579   -0.7402 C   0  0  0  0  0  0  0  0  0  0  0  0
   -1.3263    4.1601   -1.7641 H   0  0  0  0  0  0  0  0  0  0  0  0
   -1.4650    2.3721   -0.5477 C   0  0  0  0  0  0  0  0  0  0  0  0
   -1.4553    1.6978   -1.4173 H   0  0  0  0  0  0  0  0  0  0  0  0
   -3.1837   -0.4718    0.1634 C   0  0  0  0  0  0  0  0  0  0  0  0
   -4.3709   -0.6922    0.8859 C   0  0  0  0  0  0  0  0  0  0  0  0
   -4.3541   -0.5762    1.9814 H   0  0  0  0  0  0  0  0  0  0  0  0
   -5.5386   -1.0723    0.2083 C   0  0  0  0  0  0  0  0  0  0  0  0
   -6.4676   -1.2447    0.7732 H   0  0  0  0  0  0  0  0  0  0  0  0
   -5.5201   -1.2384   -1.1866 C   0  0  0  0  0  0  0  0  0  0  0  0
   -6.4364   -1.5413   -1.7165 H   0  0  0  0  0  0  0  0  0  0  0  0
   -4.3313   -1.0280   -1.9045 C   0  0  0  0  0  0  0  0  0  0  0  0
   -4.3119   -1.1697   -2.9959 H   0  0  0  0  0  0  0  0  0  0  0  0
   -3.1582   -0.6455   -1.2365 C   0  0  0  0  0  0  0  0  0  0  0  0
   -2.2198   -0.4991   -1.7980 H   0  0  0  0  0  0  0  0  0  0  0  0
  1  2  1  0  0  0  0
  3  1  1  0  0  0  0
  4  5  1  0  0  0  0
  5  6  1  0  0  0  0
  5  3  1  1  0  0  0
  6  7  1  0  0  0  0
  8  9  1  0  0  0  0
  8  6  2  0  0  0  0
 10  8  1  0  0  0  0
 11 10  1  0  0  0  0
 12 10  2  0  0  0  0
 12  4  1  0  0  0  0
 13 12  1  0  0  0  0
 14  1  1  0  0  0  0
 14 15  1  0  0  0  0
 15 16  1  0  0  0  0
 17 15  2  0  0  0  0
 17 18  1  0  0  0  0
 19 17  1  0  0  0  0
 20 19  1  0  0  0  0
 21 23  1  0  0  0  0
 21 19  2  0  0  0  0
 22 21  1  0  0  0  0
 23 14  2  0  0  0  0
 24 23  1  0  0  0  0
 25 26  1  0  0  0  0
 25  1  1  0  0  0  0
 26 27  1  0  0  0  0
 28 29  1  0  0  0  0
 28 26  2  0  0  0  0
 30 28  1  0  0  0  0
 31 30  1  0  0  0  0
 32 34  1  0  0  0  0
 32 30  2  0  0  0  0
 33 32  1  0  0  0  0
 34 25  2  0  0  0  0
 35 34  1  0  0  0  0
M  END
