5,7
q = 0.0, confidence = 0.994

 68 71  0  0  1  0  0  0  0  0999 V2000
   -2.3496    4.3007   -0.6289 O   0  0  0  0  0  0  0  0  0  0  0  0
    0.4549    4.6187    0.6076 O   0  0  0  0  0  0  0  0  0  0  0  0
    3.0871    3.4308    0.5197 O   0  0  0  0  0  0  0  0  0  0  0  0
    5.1107    0.4490   -0.2767 O   0  0  0  0  0  0  0  0  0  0  0  0
    0.2805   -2.5500    0.0749 N   0  0  0  0  0  0  0  0  0  0  0  0
    0.5064   -2.8930   -0.8723 H   0  0  0  0  0  0  0  0  0  0  0  0
   -2.2361   -1.1999   -0.1574 N   0  0  0  0  0  0  0  0  0  0  0  0
   -2.6151   -0.9155    0.7605 H   0  0  0  0  0  0  0  0  0  0  0  0
   -0.9527   -3.2080    0.5628 C   0  0  2  0  0  0  0  0  0  0  0  0
   -1.0655   -2.8884    1.6239 H   0  0  0  0  0  0  0  0  0  0  0  0
   -0.8958   -4.7429    0.4905 C   0  0  0  0  0  0  0  0  0  0  0  0
   -0.7148   -5.0337   -0.5699 H   0  0  0  0  0  0  0  0  0  0  0  0
   -0.0290   -5.1162    1.0720 H   0  0  0  0  0  0  0  0  0  0  0  0
   -2.1888   -5.3979    0.9874 C   0  0  0  0  0  0  0  0  0  0  0  0
   -2.1139   -6.5010    0.8991 H   0  0  0  0  0  0  0  0  0  0  0  0
   -2.3171   -5.1787    2.0705 H   0  0  0  0  0  0  0  0  0  0  0  0
   -3.4019   -4.8720    0.2148 C   0  0  0  0  0  0  0  0  0  0  0  0
   -3.3303   -5.1910   -0.8487 H   0  0  0  0  0  0  0  0  0  0  0  0
   -4.3407   -5.3112    0.6097 H   0  0  0  0  0  0  0  0  0  0  0  0
   -3.4680   -3.3433    0.2818 C   0  0  0  0  0  0  0  0  0  0  0  0
   -3.6321   -3.0237    1.3361 H   0  0  0  0  0  0  0  0  0  0  0  0
   -4.3328   -2.9645   -0.3005 H   0  0  0  0  0  0  0  0  0  0  0  0
   -2.1755   -2.6781   -0.2185 C   0  0  1  0  0  0  0  0  0  0  0  0
   -2.0239   -2.9391   -1.2914 H   0  0  0  0  0  0  0  0  0  0  0  0
   -3.0711   -0.5736   -1.2229 C   0  0  0  0  0  0  0  0  0  0  0  0
   -3.9496   -1.2160   -1.4492 H   0  0  0  0  0  0  0  0  0  0  0  0
   -2.4428   -0.5053   -2.1348 H   0  0  0  0  0  0  0  0  0  0  0  0
   -3.5455    0.7910   -0.7867 C   0  0  0  0  0  0  0  0  0  0  0  0
   -4.7834    0.9399   -0.1356 C   0  0  0  0  0  0  0  0  0  0  0  0
   -5.4456    0.0703    0.0008 H   0  0  0  0  0  0  0  0  0  0  0  0
   -5.1705    2.2089    0.3304 C   0  0  0  0  0  0  0  0  0  0  0  0
   -6.1407    2.3360    0.8347 H   0  0  0  0  0  0  0  0  0  0  0  0
   -4.3365    3.3166    0.1589 C   0  0  0  0  0  0  0  0  0  0  0  0
   -4.6222    4.3154    0.5189 H   0  0  0  0  0  0  0  0  0  0  0  0
   -3.0899    3.1734   -0.4932 C   0  0  0  0  0  0  0  0  0  0  0  0
   -2.7003    1.9020   -0.9660 C   0  0  0  0  0  0  0  0  0  0  0  0
   -1.7376    1.7444   -1.4729 H   0  0  0  0  0  0  0  0  0  0  0  0
   -1.0411    4.1861   -1.2000 C   0  0  0  0  0  0  0  0  0  0  0  0
   -0.7388    5.2216   -1.4499 H   0  0  0  0  0  0  0  0  0  0  0  0
   -1.0792    3.5957   -2.1406 H   0  0  0  0  0  0  0  0  0  0  0  0
   -0.0136    3.5960   -0.2475 C   0  0  0  0  0  0  0  0  0  0  0  0
   -0.4669    2.7524    0.3260 H   0  0  0  0  0  0  0  0  0  0  0  0
    0.8135    3.1580   -0.8532 H   0  0  0  0  0  0  0  0  0  0  0  0
    1.1396    4.1687    1.7586 C   0  0  0  0  0  0  0  0  0  0  0  0
    0.4266    3.7861    2.5337 H   0  0  0  0  0  0  0  0  0  0  0  0
    1.6434    5.0662    2.1737 H   0  0  0  0  0  0  0  0  0  0  0  0
    2.1574    3.0571    1.5272 C   0  0  0  0  0  0  0  0  0  0  0  0
    2.6596    2.8505    2.5048 H   0  0  0  0  0  0  0  0  0  0  0  0
    1.6313    2.1174    1.2452 H   0  0  0  0  0  0  0  0  0  0  0  0
    3.5661    2.3439   -0.2430 C   0  0  0  0  0  0  0  0  0  0  0  0
    4.0635    2.7665   -1.1403 H   0  0  0  0  0  0  0  0  0  0  0  0
    2.7285    1.6962   -0.6019 H   0  0  0  0  0  0  0  0  0  0  0  0
    4.5856    1.4993    0.5325 C   0  0  0  0  0  0  0  0  0  0  0  0
    5.4530    2.1297    0.8132 H   0  0  0  0  0  0  0  0  0  0  0  0
    4.1466    1.0971    1.4714 H   0  0  0  0  0  0  0  0  0  0  0  0
    4.4578   -0.7395   -0.3681 C   0  0  0  0  0  0  0  0  0  0  0  0
    5.0560   -1.6905   -1.2256 C   0  0  0  0  0  0  0  0  0  0  0  0
    5.9680   -1.3976   -1.7651 H   0  0  0  0  0  0  0  0  0  0  0  0
    4.5003   -2.9641   -1.3617 C   0  0  0  0  0  0  0  0  0  0  0  0
    4.9817   -3.6974   -2.0264 H   0  0  0  0  0  0  0  0  0  0  0  0
    3.3464   -3.3165   -0.6426 C   0  0  0  0  0  0  0  0  0  0  0  0
    2.9253   -4.3309   -0.7296 H   0  0  0  0  0  0  0  0  0  0  0  0
    2.7382   -2.3729    0.2058 C   0  0  0  0  0  0  0  0  0  0  0  0
    3.2815   -1.0792    0.3339 C   0  0  0  0  0  0  0  0  0  0  0  0
    2.7712   -0.3578    0.9879 H   0  0  0  0  0  0  0  0  0  0  0  0
    1.4748   -2.7463    0.9425 C   0  0  0  0  0  0  0  0  0  0  0  0
    1.5454   -3.8067    1.2681 H   0  0  0  0  0  0  0  0  0  0  0  0
    1.3267   -2.1119    1.8398 H   0  0  0  0  0  0  0  0  0  0  0  0
  1 35  1  0  0  0  0
  2 44  1  0  0  0  0
  3 47  1  0  0  0  0
  4 53  1  0  0  0  0
  5  9  1  0  0  0  0
  5 66  1  0  0  0  0
  6  5  1  0  0  0  0
  7  8  1  0  0  0  0
  9 10  1  1  0  0  0
 11  9  1  0  0  0  0
 11 14  1  0  0  0  0
 11 13  1  0  0  0  0
 12 11  1  0  0  0  0
 14 16  1  0  0  0  0
 15 14  1  0  0  0  0
 17 20  1  0  0  0  0
 17 19  1  0  0  0  0
 17 14  1  0  0  0  0
 18 17  1  0  0  0  0
 20 21  1  0  0  0  0
 22 20  1  0  0  0  0
 23 24  1  6  0  0  0
 23  7  1  0  0  0  0
 23 20  1  0  0  0  0
 23  9  1  0  0  0  0
 25 28  1  0  0  0  0
 25  7  1  0  0  0  0
 26 25  1  0  0  0  0
 27 25  1  0  0  0  0
 28 29  1  0  0  0  0
 29 30  1  0  0  0  0
 29 31  2  0  0  0  0
 31 32  1  0  0  0  0
 33 31  1  0  0  0  0
 33 34  1  0  0  0  0
 35 33  2  0  0  0  0
 36 28  2  0  0  0  0
 36 35  1  0  0  0  0
 37 36  1  0  0  0  0
 38  1  1  0  0  0  0
 38 41  1  0  0  0  0
 39 38  1  0  0  0  0
 40 38  1  0  0  0  0
 41 42  1  0  0  0  0
 41  2  1  0  0  0  0
 43 41  1  0  0  0  0
 44 46  1  0  0  0  0
 44 45  1  0  0  0  0
 47 44  1  0  0  0  0
 47 48  1  0  0  0  0
 49 47  1  0  0  0  0
 50  3  1  0  0  0  0
 50 53  1  0  0  0  0
 51 50  1  0  0  0  0
 52 50  1  0  0  0  0
 53 54  1  0  0  0  0
 53 55  1  0  0  0  0
 56  4  1  0  0  0  0
 56 64  1  0  0  0  0
 57 56  2  0  0  0  0
 58 57  1  0  0  0  0
 59 57  1  0  0  0  0
 59 61  2  0  0  0  0
 60 59  1  0  0  0  0
 61 63  1  0  0  0  0
 62 61  1  0  0  0  0
 63 64  2  0  0  0  0
 63 66  1  0  0  0  0
 64 65  1  0  0  0  0
 66 67  1  0  0  0  0
 66 68  1  0  0  0  0
M  END
