2,3
q = 0.0, confidence = 0.984

 16 16  0  0  1  0  0  0  0  0999 V2000
   -3.8146    0.7348   -1.4803 O   0  0  0  0  0  0  0  0  0  0  0  0
   -1.4789    0.9015   -1.5309 N   0  0  0  0  0  2  0  0  0  0  0  0
   -1.3012   -1.2234    0.1181 N   0  0  0  0  0  2  0  0  0  0  0  0
   -1.5026    2.1304   -1.9676 C   0  0  0  0  0  3  0  0  0  0  0  0
   -2.7184    0.3497   -1.0975 C   0  0  0  0  0  0  0  0  0  0  0  0
   -2.5632   -0.8068   -0.1538 C   0  0  2  0  0  3  0  0  0  0  0  0
   -3.6913   -1.4107    0.4181 C   0  0  0  0  0  0  0  0  0  0  0  0
   -3.5075   -2.4977    1.2841 C   0  0  0  0  0  0  0  0  0  0  0  0
   -2.2007   -2.9295    1.5586 C   0  0  0  0  0  0  0  0  0  0  0  0
   -1.1238   -2.2529    0.9670 C   0  0  0  0  0  0  0  0  0  0  0  0
   -2.4034    2.7606   -1.8387 H   0  0  0  0  0  0  0  0  0  0  0  0
   -0.6043    2.5419   -2.4559 H   0  0  0  0  0  0  0  0  0  0  0  0
   -4.6812   -1.0032    0.1693 H   0  0  0  0  0  0  0  0  0  0  0  0
   -4.3718   -2.9997    1.7438 H   0  0  0  0  0  0  0  0  0  0  0  0
   -2.0090   -3.7827    2.2254 H   0  0  0  0  0  0  0  0  0  0  0  0
   -0.0798   -2.5416    1.1699 H   0  0  0  0  0  0  0  0  0  0  0  0
  1  5  2  0  0  0  0
  2  5  1  0  0  0  0
  3 10  1  0  0  0  0
  4 11  1  0  0  0  0
  4  2  1  0  0  0  0
  6  5  1  1  0  0  0
  6  3  1  0  0  0  0
  6  7  1  0  0  0  0
  7  8  2  0  0  0  0
  8  9  1  0  0  0  0
  8 14  1  0  0  0  0
  9 15  1  0  0  0  0
 10 16  1  0  0  0  0
 10  9  2  0  0  0  0
 12  4  1  0  0  0  0
 13  7  1  0  0  0  0
M  END
