5,6
q = 0.0, confidence = 0.986

 62 65  0  0  1  0  0  0  0  0999 V2000
    0.5448    2.7001   -1.6512 S   0  0  0  0  0  0  0  0  0  0  0  0
    0.4859    2.8347    1.2904 S   0  0  0  0  0  0  0  0  0  0  0  0
    3.5609    2.9640   -1.8398 S   0  0  0  0  0  0  0  0  0  0  0  0
    3.4937    3.1685    1.5502 S   0  0  0  0  0  0  0  0  0  0  0  0
   -2.8697    0.2660   -1.5244 N   0  0  0  0  0  2  0  0  0  0  0  0
   -2.9321    0.4736    1.3495 N   0  0  0  0  0  2  0  0  0  0  0  0
    3.5731   -1.0161   -2.8397 O   0  0  0  0  0  0  0  0  0  0  0  0
    5.0614   -3.2341   -1.6998 O   0  0  0  0  0  0  0  0  0  0  0  0
    4.2067   -2.2342    1.1614 O   0  0  0  0  0  0  0  0  0  0  0  0
    3.0103   -0.4414    3.2899 O   0  0  0  0  0  0  0  0  0  0  0  0
   -3.6045   -0.0807   -2.6055 C   0  0  0  0  0  3  0  0  0  0  0  0
   -4.0429   -1.0893   -2.5709 H   0  0  0  0  0  0  0  0  0  0  0  0
   -3.8022    0.7857   -3.6841 C   0  0  0  0  0  0  0  0  0  0  0  0
   -4.3906    0.4505   -4.5495 H   0  0  0  0  0  0  0  0  0  0  0  0
   -3.2412    2.0699   -3.6294 C   0  0  0  0  0  0  0  0  0  0  0  0
   -3.3758    2.7798   -4.4592 H   0  0  0  0  0  0  0  0  0  0  0  0
   -2.5335    2.4495   -2.4832 C   0  0  0  0  0  0  0  0  0  0  0  0
   -2.1295    3.4664   -2.3775 H   0  0  0  0  0  0  0  0  0  0  0  0
   -2.3635    1.5273   -1.4311 C   0  0  0  0  0  0  0  0  0  0  0  0
   -1.6749    1.9041   -0.1737 C   0  0  0  0  0  0  0  0  0  0  0  0
   -2.4157    1.7082    1.0955 C   0  0  1  0  0  3  0  0  0  0  0  0
   -2.6285    2.7740    1.9933 C   0  0  0  0  0  0  0  0  0  0  0  0
   -2.2152    3.7651    1.7581 H   0  0  0  0  0  0  0  0  0  0  0  0
   -3.3895    2.5653    3.1490 C   0  0  0  0  0  0  0  0  0  0  0  0
   -3.5588    3.3889    3.8586 H   0  0  0  0  0  0  0  0  0  0  0  0
   -3.9596    1.3019    3.3648 C   0  0  0  0  0  0  0  0  0  0  0  0
   -4.5893    1.0964    4.2416 H   0  0  0  0  0  0  0  0  0  0  0  0
   -3.7177    0.2875    2.4347 C   0  0  0  0  0  0  0  0  0  0  0  0
   -4.1602   -0.7156    2.5268 H   0  0  0  0  0  0  0  0  0  0  0  0
   -0.4088    2.4508   -0.1871 C   0  0  0  0  0  0  0  0  0  0  0  0
    2.0832    2.9381    0.5285 C   0  0  0  0  0  0  0  0  0  0  0  0
    2.1127    2.8778   -0.8397 C   0  0  0  0  0  0  0  0  0  0  0  0
    4.0295    1.1822   -1.9066 C   0  0  0  0  0  0  0  0  0  0  0  0
    5.0764    1.1886   -2.2743 H   0  0  0  0  0  0  0  0  0  0  0  0
    4.0379    0.8000   -0.8661 H   0  0  0  0  0  0  0  0  0  0  0  0
    3.1476    0.3306   -2.8264 C   0  0  0  0  0  0  0  0  0  0  0  0
    3.2222    0.7162   -3.8649 H   0  0  0  0  0  0  0  0  0  0  0  0
    2.0809    0.4154   -2.5110 H   0  0  0  0  0  0  0  0  0  0  0  0
    3.0320   -1.7836   -1.7725 C   0  0  0  0  0  0  0  0  0  0  0  0
    3.1965   -1.2938   -0.7881 H   0  0  0  0  0  0  0  0  0  0  0  0
    1.9259   -1.8958   -1.8828 H   0  0  0  0  0  0  0  0  0  0  0  0
    3.6449   -3.1733   -1.7654 C   0  0  0  0  0  0  0  0  0  0  0  0
    3.3854   -3.6978   -2.7081 H   0  0  0  0  0  0  0  0  0  0  0  0
    3.1673   -3.7334   -0.9247 H   0  0  0  0  0  0  0  0  0  0  0  0
    5.7140   -2.4699   -0.7107 C   0  0  0  0  0  0  0  0  0  0  0  0
    5.5320   -1.3750   -0.8384 H   0  0  0  0  0  0  0  0  0  0  0  0
    6.7962   -2.6403   -0.8873 H   0  0  0  0  0  0  0  0  0  0  0  0
    5.4087   -2.8506    0.7348 C   0  0  0  0  0  0  0  0  0  0  0  0
    6.2575   -2.5295    1.3905 H   0  0  0  0  0  0  0  0  0  0  0  0
    5.3374   -3.9641    0.8113 H   0  0  0  0  0  0  0  0  0  0  0  0
    3.7873   -2.6264    2.4548 C   0  0  0  0  0  0  0  0  0  0  0  0
    4.6254   -2.5255    3.1884 H   0  0  0  0  0  0  0  0  0  0  0  0
    3.4693   -3.7000    2.4582 H   0  0  0  0  0  0  0  0  0  0  0  0
    2.6270   -1.7523    2.9075 C   0  0  0  0  0  0  0  0  0  0  0  0
    1.8523   -1.7240    2.1053 H   0  0  0  0  0  0  0  0  0  0  0  0
    2.1719   -2.2154    3.8076 H   0  0  0  0  0  0  0  0  0  0  0  0
    3.2301    0.4635    2.2227 C   0  0  0  0  0  0  0  0  0  0  0  0
    2.4305    0.3649    1.4522 H   0  0  0  0  0  0  0  0  0  0  0  0
    4.2029    0.2794    1.7101 H   0  0  0  0  0  0  0  0  0  0  0  0
    3.2098    1.8673    2.8149 C   0  0  0  0  0  0  0  0  0  0  0  0
    4.0365    2.0072    3.5411 H   0  0  0  0  0  0  0  0  0  0  0  0
    2.2584    2.0506    3.3549 H   0  0  0  0  0  0  0  0  0  0  0  0
  1 32  1  0  0  0  0
  1 30  1  0  0  0  0
  3 32  1  0  0  0  0
  4 60  1  0  0  0  0
  5 19  1  0  0  0  0
  6 28  1  0  0  0  0
  7 36  1  0  0  0  0
  7 39  1  0  0  0  0
  8 45  1  0  0  0  0
  9 51  1  0  0  0  0
 11 12  1  0  0  0  0
 11  5  1  0  0  0  0
 13 15  2  0  0  0  0
 13 11  1  0  0  0  0
 14 13  1  0  0  0  0
 15 17  1  0  0  0  0
 16 15  1  0  0  0  0
 17 18  1  0  0  0  0
 17 19  2  0  0  0  0
 19 20  1  0  0  0  0
 21 20  1  6  0  0  0
 21  6  1  0  0  0  0
 21 22  1  0  0  0  0
 22 24  2  0  0  0  0
 23 22  1  0  0  0  0
 24 26  1  0  0  0  0
 24 25  1  0  0  0  0
 26 27  1  0  0  0  0
 28 29  1  0  0  0  0
 28 26  2  0  0  0  0
 30 20  2  0  0  0  0
 30  2  1  0  0  0  0
 31  2  1  0  0  0  0
 31  4  1  0  0  0  0
 32 31  2  0  0  0  0
 33  3  1  0  0  0  0
 33 35  1  0  0  0  0
 34 33  1  0  0  0  0
 36 38  1  0  0  0  0
 36 33  1  0  0  0  0
 37 36  1  0  0  0  0
 39 42  1  0  0  0  0
 39 40  1  0  0  0  0
 41 39  1  0  0  0  0
 42  8  1  0  0  0  0
 42 44  1  0  0  0  0
 43 42  1  0  0  0  0
 45 48  1  0  0  0  0
 46 45  1  0  0  0  0
 47 45  1  0  0  0  0
 48 50  1  0  0  0  0
 48  9  1  0  0  0  0
 48 49  1  0  0  0  0
 51 53  1  0  0  0  0
 51 54  1  0  0  0  0
 51 52  1  0  0  0  0
 54 10  1  0  0  0  0
 54 56  1  0  0  0  0
 55 54  1  0  0  0  0
 57 60  1  0  0  0  0
 57 10  1  0  0  0  0
 58 57  1  0  0  0  0
 59 57  1  0  0  0  0
 60 62  1  0  0  0  0
 60 61  1  0  0  0  0
M  END
