2,3
q = -1.0

 48 48  0  0  1  0  0  0  0  0999 V2000
   -0.5964    2.0796    0.1998 N   0  0  0  0  0  0  0  0  0  0  0  0
    1.4232    0.7037   -0.0246 N   0  0  0  0  0  2  0  0  0  0  0  0
   -0.4868   -0.3099    0.3789 N   0  0  0  0  0  2  0  0  0  0  0  0
    0.1147    0.9031    0.1781 C   0  0  2  0  0  3  0  0  0  0  0  0
   -1.7376    2.2182    1.1149 C   0  0  0  0  0  0  0  0  0  0  0  0
   -1.7306    1.3377    1.7803 H   0  0  0  0  0  0  0  0  0  0  0  0
   -2.6975    2.1774    0.5571 H   0  0  0  0  0  0  0  0  0  0  0  0
   -1.6476    3.4898    1.9589 C   0  0  0  0  0  0  0  0  0  0  0  0
   -0.6956    3.5245    2.5258 H   0  0  0  0  0  0  0  0  0  0  0  0
   -2.4837    3.5132    2.6854 H   0  0  0  0  0  0  0  0  0  0  0  0
   -1.7174    4.4122    1.3480 H   0  0  0  0  0  0  0  0  0  0  0  0
   -0.3784    3.1434   -0.7833 C   0  0  0  0  0  0  0  0  0  0  0  0
    0.4116    2.7909   -1.4705 H   0  0  0  0  0  0  0  0  0  0  0  0
    0.0142    4.0629   -0.2938 H   0  0  0  0  0  0  0  0  0  0  0  0
   -1.6359    3.4943   -1.5826 C   0  0  0  0  0  0  0  0  0  0  0  0
   -2.0813    2.5980   -2.0559 H   0  0  0  0  0  0  0  0  0  0  0  0
   -1.3716    4.2147   -2.3818 H   0  0  0  0  0  0  0  0  0  0  0  0
   -2.4138    3.9704   -0.9541 H   0  0  0  0  0  0  0  0  0  0  0  0
   -1.8383   -0.5738    0.0497 C   0  0  0  0  0  0  0  0  0  0  0  0
   -2.6888   -1.0702    1.0698 C   0  0  0  0  0  0  0  0  0  0  0  0
   -4.0432   -1.2912    0.7630 C   0  0  0  0  0  0  0  0  0  0  0  0
   -4.7151   -1.6654    1.5512 H   0  0  0  0  0  0  0  0  0  0  0  0
   -4.5383   -1.0493   -0.5261 C   0  0  0  0  0  0  0  0  0  0  0  0
   -5.6023   -1.2202   -0.7491 H   0  0  0  0  0  0  0  0  0  0  0  0
   -3.6684   -0.6266   -1.5412 C   0  0  0  0  0  0  0  0  0  0  0  0
   -4.0440   -0.4937   -2.5681 H   0  0  0  0  0  0  0  0  0  0  0  0
   -2.3033   -0.4040   -1.2814 C   0  0  0  0  0  0  0  0  0  0  0  0
   -1.3376   -0.1277   -2.4055 C   0  0  0  0  0  0  0  0  0  0  0  0
   -1.8705   -0.0049   -3.3675 H   0  0  0  0  0  0  0  0  0  0  0  0
   -0.6313   -0.9792   -2.5164 H   0  0  0  0  0  0  0  0  0  0  0  0
   -0.7124    0.7730   -2.2494 H   0  0  0  0  0  0  0  0  0  0  0  0
   -2.1243   -1.3725    2.4315 C   0  0  0  0  0  0  0  0  0  0  0  0
   -1.6522   -0.4819    2.8982 H   0  0  0  0  0  0  0  0  0  0  0  0
   -1.3179   -2.1314    2.3540 H   0  0  0  0  0  0  0  0  0  0  0  0
   -2.9054   -1.7525    3.1170 H   0  0  0  0  0  0  0  0  0  0  0  0
    2.5924    1.6063    0.0979 C   0  0  0  0  0  0  0  0  0  0  0  0
    3.0066    2.1207   -1.2966 C   0  0  0  0  0  0  0  0  0  0  0  0
    3.1256    1.2632   -1.9870 H   0  0  0  0  0  0  0  0  0  0  0  0
    3.9733    2.6590   -1.2336 H   0  0  0  0  0  0  0  0  0  0  0  0
    2.2660    2.8199   -1.7300 H   0  0  0  0  0  0  0  0  0  0  0  0
    3.7674    0.7768    0.6593 C   0  0  0  0  0  0  0  0  0  0  0  0
    3.5350    0.3905    1.6693 H   0  0  0  0  0  0  0  0  0  0  0  0
    4.6714    1.4139    0.7237 H   0  0  0  0  0  0  0  0  0  0  0  0
    3.9976   -0.0833    0.0018 H   0  0  0  0  0  0  0  0  0  0  0  0
    2.3312    2.7589    1.0861 C   0  0  0  0  0  0  0  0  0  0  0  0
    1.5814    3.4849    0.7273 H   0  0  0  0  0  0  0  0  0  0  0  0
    3.2761    3.3134    1.2523 H   0  0  0  0  0  0  0  0  0  0  0  0
    1.9950    2.3607    2.0645 H   0  0  0  0  0  0  0  0  0  0  0  0
  1  5  1  0  0  0  0
  2 36  1  0  0  0  0
  4  2  1  6  0  0  0
  4  1  1  0  0  0  0
  4  3  1  0  0  0  0
  5  6  1  0  0  0  0
  5  8  1  0  0  0  0
  7  5  1  0  0  0  0
  8  9  1  0  0  0  0
  8 10  1  0  0  0  0
 11  8  1  0  0  0  0
 12 14  1  0  0  0  0
 12  1  1  0  0  0  0
 13 12  1  0  0  0  0
 15 18  1  0  0  0  0
 15 12  1  0  0  0  0
 16 15  1  0  0  0  0
 17 15  1  0  0  0  0
 19  3  1  0  0  0  0
 19 20  1  0  0  0  0
 20 32  1  0  0  0  0
 21 20  2  0  0  0  0
 21 22  1  0  0  0  0
 23 21  1  0  0  0  0
 24 23  1  0  0  0  0
 25 27  1  0  0  0  0
 25 23  2  0  0  0  0
 26 25  1  0  0  0  0
 27 19  2  0  0  0  0
 28 31  1  0  0  0  0
 28 27  1  0  0  0  0
 29 28  1  0  0  0  0
 30 28  1  0  0  0  0
 32 33  1  0  0  0  0
 32 35  1  0  0  0  0
 34 32  1  0  0  0  0
 36 41  1  0  0  0  0
 36 45  1  0  0  0  0
 37 39  1  0  0  0  0
 37 36  1  0  0  0  0
 38 37  1  0  0  0  0
 40 37  1  0  0  0  0
 41 43  1  0  0  0  0
 41 42  1  0  0  0  0
 44 41  1  0  0  0  0
 45 47  1  0  0  0  0
 45 48  1  0  0  0  0
 46 45  1  0  0  0  0
M  END
