2,3
q = 0.0, confidence = 0.948

 33 33  0  0  1  0  0  0  0  0999 V2000
   -1.1951   -3.9102   -0.0625 O   0  0  0  0  0  0  0  0  0  0  0  0
   -1.4751   -2.6327    0.0277 N   0  0  0  0  0  2  0  0  0  0  0  0
   -1.7273   -0.0008    0.0122 N   0  0  0  0  0  0  0  0  0  0  0  0
   -2.7238   -2.2543    0.0496 C   0  0  2  0  0  3  0  0  0  0  0  0
   -3.0158   -0.7767    0.2622 C   0  0  0  0  0  0  0  0  0  0  0  0
   -3.7964   -3.2966   -0.0081 C   0  0  0  0  0  0  0  0  0  0  0  0
   -3.4884   -0.6159    1.7199 C   0  0  0  0  0  0  0  0  0  0  0  0
   -4.0946   -0.2897   -0.7260 C   0  0  0  0  0  0  0  0  0  0  0  0
   -1.5981    1.2825    0.7440 C   0  0  0  0  0  0  0  0  0  0  0  0
   -2.4397    2.4174    0.2011 C   0  0  0  0  0  0  0  0  0  0  0  0
   -3.3133    3.1403    1.0343 C   0  0  0  0  0  0  0  0  0  0  0  0
   -4.0761    4.2028    0.5236 C   0  0  0  0  0  0  0  0  0  0  0  0
   -3.9733    4.5550   -0.8305 C   0  0  0  0  0  0  0  0  0  0  0  0
   -3.0977    3.8456   -1.6698 C   0  0  0  0  0  0  0  0  0  0  0  0
   -2.3350    2.7880   -1.1565 C   0  0  0  0  0  0  0  0  0  0  0  0
    0.0066   -3.9793    0.0002 H   0  0  0  0  0  0  0  0  0  0  0  0
   -1.6976    0.1836   -1.0080 H   0  0  0  0  0  0  0  0  0  0  0  0
   -4.8051   -2.8728    0.1452 H   0  0  0  0  0  0  0  0  0  0  0  0
   -3.7737   -3.8191   -0.9879 H   0  0  0  0  0  0  0  0  0  0  0  0
   -3.6045   -4.0771    0.7568 H   0  0  0  0  0  0  0  0  0  0  0  0
   -3.8808    0.4003    1.9207 H   0  0  0  0  0  0  0  0  0  0  0  0
   -4.3131   -1.3290    1.9109 H   0  0  0  0  0  0  0  0  0  0  0  0
   -2.6590   -0.8509    2.4160 H   0  0  0  0  0  0  0  0  0  0  0  0
   -4.3252    0.7798   -0.5635 H   0  0  0  0  0  0  0  0  0  0  0  0
   -5.0333   -0.8613   -0.5949 H   0  0  0  0  0  0  0  0  0  0  0  0
   -3.7524   -0.4283   -1.7717 H   0  0  0  0  0  0  0  0  0  0  0  0
   -0.5332    1.5750    0.6935 H   0  0  0  0  0  0  0  0  0  0  0  0
   -1.7840    1.1030    1.8153 H   0  0  0  0  0  0  0  0  0  0  0  0
   -3.3959    2.8663    2.0981 H   0  0  0  0  0  0  0  0  0  0  0  0
   -4.7570    4.7564    1.1880 H   0  0  0  0  0  0  0  0  0  0  0  0
   -4.5738    5.3844   -1.2335 H   0  0  0  0  0  0  0  0  0  0  0  0
   -3.0073    4.1200   -2.7317 H   0  0  0  0  0  0  0  0  0  0  0  0
   -1.6554    2.2350   -1.8274 H   0  0  0  0  0  0  0  0  0  0  0  0
  1 16  1  0  0  0  0
  1  2  1  0  0  0  0
  3  5  1  0  0  0  0
  3  9  1  0  0  0  0
  4  2  1  1  0  0  0
  4  5  1  0  0  0  0
  5  7  1  0  0  0  0
  6  4  1  0  0  0  0
  6 18  1  0  0  0  0
  6 20  1  0  0  0  0
  7 22  1  0  0  0  0
  7 21  1  0  0  0  0
  7 23  1  0  0  0  0
  8 25  1  0  0  0  0
  8 24  1  0  0  0  0
  8  5  1  0  0  0  0
  9 28  1  0  0  0  0
 10  9  1  0  0  0  0
 10 11  1  0  0  0  0
 11 29  1  0  0  0  0
 12 11  2  0  0  0  0
 12 30  1  0  0  0  0
 13 12  1  0  0  0  0
 14 15  1  0  0  0  0
 14 13  2  0  0  0  0
 15 10  2  0  0  0  0
 17  3  1  0  0  0  0
 19  6  1  0  0  0  0
 26  8  1  0  0  0  0
 27  9  1  0  0  0  0
 31 13  1  0  0  0  0
 32 14  1  0  0  0  0
 33 15  1  0  0  0  0
M  END
