6,8
q = -1.0

 31 32  0  0  0  0  0  0  0  0999 V2000
   -1.7622   -0.4962   -1.6432 O   0  0  0  0  0  0  0  0  0  0  0  0
   -1.4626    1.0932    0.0426 N   0  0  0  0  0  2  0  0  0  0  0  0
   -2.2094    0.2310   -0.7001 C   0  0  0  0  0  0  0  0  0  0  0  0
   -3.4738    1.9161    1.3712 O   0  0  0  0  0  0  0  0  0  0  0  0
   -2.5157    1.7831    1.0447 H   0  0  0  0  0  0  0  0  0  0  0  0
   -0.1241    1.0214   -0.0563 N   0  0  0  0  0  2  0  0  0  0  0  0
   -3.6542    0.2383   -0.3857 C   0  0  0  0  0  0  0  0  0  0  0  0
    2.5128    0.7406   -0.2458 N   0  0  0  0  0  2  0  0  0  0  0  0
   -4.5093   -0.6116   -1.1246 C   0  0  0  0  0  0  0  0  0  0  0  0
   -4.0433   -1.2447   -1.8934 H   0  0  0  0  0  0  0  0  0  0  0  0
   -5.6110    1.0432    0.8539 C   0  0  0  0  0  0  0  0  0  0  0  0
   -6.0212    1.7008    1.6339 H   0  0  0  0  0  0  0  0  0  0  0  0
   -6.4279    0.1893    0.1122 C   0  0  0  0  0  0  0  0  0  0  0  0
   -7.5108    0.1715    0.3119 H   0  0  0  0  0  0  0  0  0  0  0  0
   -5.8821   -0.6476   -0.8843 C   0  0  0  0  0  0  0  0  0  0  0  0
   -6.5315   -1.3192   -1.4645 H   0  0  0  0  0  0  0  0  0  0  0  0
   -4.2145    1.0831    0.6282 C   0  0  0  0  0  0  0  0  0  0  0  0
    0.5689    2.1549   -0.0549 C   0  0  0  0  0  0  0  0  0  0  0  0
    2.0153    2.0176   -0.1707 C   0  0  0  0  0  0  0  0  0  0  0  0
    2.8849    3.1289   -0.2361 C   0  0  0  0  0  0  0  0  0  0  0  0
    2.4737    4.1434   -0.1563 H   0  0  0  0  0  0  0  0  0  0  0  0
    4.2571    2.9281   -0.4009 C   0  0  0  0  0  0  0  0  0  0  0  0
    4.9411    3.7880   -0.4524 H   0  0  0  0  0  0  0  0  0  0  0  0
    4.7464    1.6153   -0.4983 C   0  0  0  0  0  0  0  0  0  0  0  0
    5.8164    1.4061   -0.6331 H   0  0  0  0  0  0  0  0  0  0  0  0
    3.8397    0.5552   -0.4101 C   0  0  0  0  0  0  0  0  0  0  0  0
    4.1782   -0.4897   -0.4624 H   0  0  0  0  0  0  0  0  0  0  0  0
   -0.0834    3.5016    0.0032 C   0  0  0  0  0  0  0  0  0  0  0  0
   -1.1809    3.3902   -0.0376 H   0  0  0  0  0  0  0  0  0  0  0  0
    0.2430    4.1424   -0.8410 H   0  0  0  0  0  0  0  0  0  0  0  0
    0.1801    4.0314    0.9429 H   0  0  0  0  0  0  0  0  0  0  0  0
  1  3  2  0  0  0  0
  3  7  1  0  0  0  0
  3  2  1  0  0  0  0
  5  4  1  0  0  0  0
  6 18  1  0  0  0  0
  6  2  1  0  0  0  0
  7 17  1  0  0  0  0
  8 19  1  0  0  0  0
  9 15  1  0  0  0  0
  9  7  2  0  0  0  0
 10  9  1  0  0  0  0
 11 12  1  0  0  0  0
 13 14  1  0  0  0  0
 13 11  1  0  0  0  0
 15 13  2  0  0  0  0
 16 15  1  0  0  0  0
 17 11  2  0  0  0  0
 17  4  1  0  0  0  0
 18 28  1  0  0  0  0
 19 18  2  0  0  0  0
 20 19  1  0  0  0  0
 20 21  1  0  0  0  0
 22 20  2  0  0  0  0
 23 22  1  0  0  0  0
 24 26  2  0  0  0  0
 24 22  1  0  0  0  0
 25 24  1  0  0  0  0
 26  8  1  0  0  0  0
 27 26  1  0  0  0  0
 28 31  1  0  0  0  0
 29 28  1  0  0  0  0
 30 28  1  0  0  0  0
M  END
