3,4
q = 0.0, confidence = 0.992

 32 34  0  0  0  0  0  0  0  0999 V2000
   -0.4623    1.4174    1.4037 P   0  0  2  0  0  0  0  0  0  0  0  0
   -0.8159    2.4946    2.4080 O   0  0  0  0  0  0  0  0  0  0  0  0
    0.9806    1.1496   -0.9258 N   0  0  0  0  0  2  0  0  0  0  0  0
   -1.7410   -0.0015   -0.5892 N   0  0  0  0  0  2  0  0  0  0  0  0
    1.6885   -0.0004    2.0793 N   0  0  0  0  0  0  0  0  0  0  0  0
    1.8474    1.5430   -1.8863 C   0  0  0  0  0  3  0  0  0  0  0  0
    2.0930    0.7865   -2.6453 H   0  0  0  0  0  0  0  0  0  0  0  0
    2.4158    2.8228   -1.8741 C   0  0  0  0  0  0  0  0  0  0  0  0
    3.1130    3.1054   -2.6756 H   0  0  0  0  0  0  0  0  0  0  0  0
    2.0910    3.7153   -0.8423 C   0  0  0  0  0  0  0  0  0  0  0  0
    2.5290    4.7243   -0.8139 H   0  0  0  0  0  0  0  0  0  0  0  0
    1.2058    3.2934    0.1596 C   0  0  0  0  0  0  0  0  0  0  0  0
    0.9135    3.9254    1.0114 H   0  0  0  0  0  0  0  0  0  0  0  0
    0.6820    1.9986    0.0830 C   0  0  0  0  0  0  0  0  0  0  0  0
   -2.8071   -0.4135   -1.3134 C   0  0  0  0  0  3  0  0  0  0  0  0
   -2.5955   -1.1668   -2.0858 H   0  0  0  0  0  0  0  0  0  0  0  0
   -4.0957    0.0691   -1.0519 C   0  0  0  0  0  0  0  0  0  0  0  0
   -4.9341   -0.2854   -1.6683 H   0  0  0  0  0  0  0  0  0  0  0  0
   -4.2945    0.9870   -0.0101 C   0  0  0  0  0  0  0  0  0  0  0  0
   -5.2999    1.3751    0.2125 H   0  0  0  0  0  0  0  0  0  0  0  0
   -3.1872    1.3964    0.7467 C   0  0  0  0  0  0  0  0  0  0  0  0
   -3.2566    2.1068    1.5843 H   0  0  0  0  0  0  0  0  0  0  0  0
   -1.9282    0.8740    0.4256 C   0  0  0  0  0  0  0  0  0  0  0  0
    0.3536   -0.1269    1.9792 C   0  0  0  0  0  0  0  0  0  0  0  0
    2.3853   -1.0846    2.4439 C   0  0  0  0  0  0  0  0  0  0  0  0
    3.4814   -0.9692    2.4966 H   0  0  0  0  0  0  0  0  0  0  0  0
    1.7829   -2.3217    2.7327 C   0  0  0  0  0  0  0  0  0  0  0  0
    2.4045   -3.1902    2.9947 H   0  0  0  0  0  0  0  0  0  0  0  0
    0.3869   -2.4259    2.6686 C   0  0  0  0  0  0  0  0  0  0  0  0
   -0.1182   -3.3798    2.8793 H   0  0  0  0  0  0  0  0  0  0  0  0
   -0.3558   -1.3000    2.2911 C   0  0  0  0  0  0  0  0  0  0  0  0
   -1.4497   -1.3475    2.1886 H   0  0  0  0  0  0  0  0  0  0  0  0
  1 24  1  0  0  0  0
  1  2  2  1  0  0  0
  3 14  1  0  0  0  0
  4 23  1  0  0  0  0
  5 25  1  0  0  0  0
  6  8  1  0  0  0  0
  6  3  1  0  0  0  0
  7  6  1  0  0  0  0
  8 10  2  0  0  0  0
  9  8  1  0  0  0  0
 10 11  1  0  0  0  0
 10 12  1  0  0  0  0
 12 13  1  0  0  0  0
 14 12  2  0  0  0  0
 14  1  1  0  0  0  0
 15 17  1  0  0  0  0
 15  4  1  0  0  0  0
 16 15  1  0  0  0  0
 17 19  2  0  0  0  0
 18 17  1  0  0  0  0
 19 20  1  0  0  0  0
 19 21  1  0  0  0  0
 21 22  1  0  0  0  0
 23 21  2  0  0  0  0
 23  1  1  0  0  0  0
 24  5  2  0  0  0  0
 24 31  1  0  0  0  0
 25 26  1  0  0  0  0
 25 27  2  0  0  0  0
 27 28  1  0  0  0  0
 29 27  1  0  0  0  0
 29 30  1  0  0  0  0
 31 29  2  0  0  0  0
 32 31  1  0  0  0  0
M  END
