1,48
q = 0.0, confidence = 0.988

 67 70  0  0  1  0  0  0  0  0999 V2000
   -1.3959   -0.7180    0.2804 N   0  0  0  0  0  2  0  0  0  0  0  0
   -2.7021   -1.1751   -0.2184 C   0  0  1  0  0  0  0  0  0  0  0  0
   -2.5759   -1.4442   -1.2881 H   0  0  0  0  0  0  0  0  0  0  0  0
   -3.1701   -2.4458    0.5392 C   0  0  0  0  0  0  0  0  0  0  0  0
   -4.2610   -2.5256    0.3358 H   0  0  0  0  0  0  0  0  0  0  0  0
   -2.4999   -3.7090   -0.0199 C   0  0  0  0  0  0  0  0  0  0  0  0
   -2.6002   -3.7819   -1.1204 H   0  0  0  0  0  0  0  0  0  0  0  0
   -2.9484   -4.6151    0.4358 H   0  0  0  0  0  0  0  0  0  0  0  0
   -1.4168   -3.7237    0.2197 H   0  0  0  0  0  0  0  0  0  0  0  0
   -2.9451   -2.3600    2.0565 C   0  0  0  0  0  0  0  0  0  0  0  0
   -3.4712   -3.1876    2.5729 H   0  0  0  0  0  0  0  0  0  0  0  0
   -3.2992   -1.4073    2.5000 H   0  0  0  0  0  0  0  0  0  0  0  0
   -1.8638   -2.4612    2.2808 H   0  0  0  0  0  0  0  0  0  0  0  0
   -3.5844    0.1190   -0.1148 C   0  0  0  0  0  0  0  0  0  0  0  0
   -3.6628    0.8101   -1.4713 C   0  0  0  0  0  0  0  0  0  0  0  0
   -4.0871    1.8283   -1.3760 H   0  0  0  0  0  0  0  0  0  0  0  0
   -4.3095    0.2176   -2.1493 H   0  0  0  0  0  0  0  0  0  0  0  0
   -2.6621    0.8816   -1.9359 H   0  0  0  0  0  0  0  0  0  0  0  0
   -4.9570   -0.0088    0.5301 C   0  0  0  0  0  0  0  0  0  0  0  0
   -4.9054   -0.4527    1.5403 H   0  0  0  0  0  0  0  0  0  0  0  0
   -5.6143   -0.6409   -0.0976 H   0  0  0  0  0  0  0  0  0  0  0  0
   -5.4244    0.9922    0.6112 H   0  0  0  0  0  0  0  0  0  0  0  0
   -2.7686    0.9914    0.7803 O   0  0  0  0  0  0  0  0  0  0  0  0
   -1.5535    0.4275    0.8673 C   0  0  1  0  0  3  0  0  0  0  0  0
   -0.5608    1.0948    1.7399 C   0  0  0  0  0  0  0  0  0  0  0  0
    0.0102    0.3201    2.7731 C   0  0  0  0  0  0  0  0  0  0  0  0
   -0.1537   -0.7679    2.7685 H   0  0  0  0  0  0  0  0  0  0  0  0
    0.7708    0.9218    3.7823 C   0  0  0  0  0  0  0  0  0  0  0  0
    1.1977    0.3050    4.5860 H   0  0  0  0  0  0  0  0  0  0  0  0
    0.9654    2.3143    3.7648 C   0  0  0  0  0  0  0  0  0  0  0  0
    1.5388    2.8040    4.5667 H   0  0  0  0  0  0  0  0  0  0  0  0
    0.4785    3.0820    2.7012 C   0  0  0  0  0  0  0  0  0  0  0  0
    0.7088    4.1565    2.6391 H   0  0  0  0  0  0  0  0  0  0  0  0
   -0.2602    2.4843    1.6572 C   0  0  0  0  0  0  0  0  0  0  0  0
   -0.6361    3.2542    0.5523 N   0  0  0  0  0  0  0  0  0  0  0  0
   -0.8421    4.2373    0.7330 H   0  0  0  0  0  0  0  0  0  0  0  0
   -0.6187    2.8679   -0.7876 C   0  0  0  0  0  0  0  0  0  0  0  0
   -1.4507    3.5440   -1.7088 C   0  0  0  0  0  0  0  0  0  0  0  0
   -2.0741    4.3767   -1.3481 H   0  0  0  0  0  0  0  0  0  0  0  0
   -1.5191    3.1383   -3.0447 C   0  0  0  0  0  0  0  0  0  0  0  0
   -2.1736    3.6850   -3.7404 H   0  0  0  0  0  0  0  0  0  0  0  0
   -0.8092    2.0068   -3.4850 C   0  0  0  0  0  0  0  0  0  0  0  0
   -0.9106    1.6469   -4.5185 H   0  0  0  0  0  0  0  0  0  0  0  0
    0.0464    1.3459   -2.5970 C   0  0  0  0  0  0  0  0  0  0  0  0
    0.6153    0.4595   -2.9157 H   0  0  0  0  0  0  0  0  0  0  0  0
    0.2029    1.8054   -1.2708 C   0  0  0  0  0  0  0  0  0  0  0  0
    1.3272    1.2591   -0.4903 C   0  0  1  0  0  3  0  0  0  0  0  0
    1.6385    0.0084   -0.3446 N   0  0  0  0  0  2  0  0  0  0  0  0
    2.1682    2.1551    0.0668 O   0  0  0  0  0  0  0  0  0  0  0  0
    3.1432    1.3811    0.8264 C   0  0  0  0  0  0  0  0  0  0  0  0
    2.9040    1.5115    1.9009 H   0  0  0  0  0  0  0  0  0  0  0  0
    4.1426    1.8045    0.6147 H   0  0  0  0  0  0  0  0  0  0  0  0
    2.9450   -0.0704    0.3341 C   0  0  2  0  0  0  0  0  0  0  0  0
    2.8386   -0.7814    1.1802 H   0  0  0  0  0  0  0  0  0  0  0  0
    4.0530   -0.6211   -0.6182 C   0  0  0  0  0  0  0  0  0  0  0  0
    3.6366   -2.0141   -1.1262 C   0  0  0  0  0  0  0  0  0  0  0  0
    4.4620   -2.4648   -1.7143 H   0  0  0  0  0  0  0  0  0  0  0  0
    2.7455   -1.9634   -1.7848 H   0  0  0  0  0  0  0  0  0  0  0  0
    3.3917   -2.6944   -0.2858 H   0  0  0  0  0  0  0  0  0  0  0  0
    5.3524   -0.7459    0.1972 C   0  0  0  0  0  0  0  0  0  0  0  0
    5.2164   -1.4309    1.0593 H   0  0  0  0  0  0  0  0  0  0  0  0
    5.7030    0.2326    0.5874 H   0  0  0  0  0  0  0  0  0  0  0  0
    6.1648   -1.1566   -0.4357 H   0  0  0  0  0  0  0  0  0  0  0  0
    4.2637    0.3176   -1.8189 C   0  0  0  0  0  0  0  0  0  0  0  0
    5.0421   -0.0949   -2.4920 H   0  0  0  0  0  0  0  0  0  0  0  0
    4.5951    1.3326   -1.5164 H   0  0  0  0  0  0  0  0  0  0  0  0
    3.3338    0.4198   -2.4138 H   0  0  0  0  0  0  0  0  0  0  0  0
  1 24  1  0  0  0  0
  2  3  1  6  0  0  0
  2 14  1  0  0  0  0
  2  1  1  0  0  0  0
  2  4  1  0  0  0  0
  4 10  1  0  0  0  0
  5  4  1  0  0  0  0
  6  9  1  0  0  0  0
  6  8  1  0  0  0  0
  6  4  1  0  0  0  0
  7  6  1  0  0  0  0
 10 13  1  0  0  0  0
 10 12  1  0  0  0  0
 10 11  1  0  0  0  0
 14 19  1  0  0  0  0
 14 23  1  0  0  0  0
 15 16  1  0  0  0  0
 15 14  1  0  0  0  0
 17 15  1  0  0  0  0
 18 15  1  0  0  0  0
 19 22  1  0  0  0  0
 19 20  1  0  0  0  0
 21 19  1  0  0  0  0
 23 24  1  0  0  0  0
 24 25  1  1  0  0  0
 25 26  1  0  0  0  0
 26 28  2  0  0  0  0
 27 26  1  0  0  0  0
 28 29  1  0  0  0  0
 30 28  1  0  0  0  0
 30 31  1  0  0  0  0
 32 30  2  0  0  0  0
 33 32  1  0  0  0  0
 34 25  2  0  0  0  0
 34 32  1  0  0  0  0
 35 36  1  0  0  0  0
 35 34  1  0  0  0  0
 37 35  1  0  0  0  0
 38 39  1  0  0  0  0
 38 37  2  0  0  0  0
 40 38  1  0  0  0  0
 41 40  1  0  0  0  0
 42 40  2  0  0  0  0
 42 44  1  0  0  0  0
 43 42  1  0  0  0  0
 44 46  2  0  0  0  0
 45 44  1  0  0  0  0
 46 37  1  0  0  0  0
 47 46  1  6  0  0  0
 47 48  1  0  0  0  0
 47 49  1  0  0  0  0
 48 53  1  0  0  0  0
 49 50  1  0  0  0  0
 50 51  1  0  0  0  0
 52 50  1  0  0  0  0
 53 50  1  0  0  0  0
 53 54  1  1  0  0  0
 55 60  1  0  0  0  0
 55 53  1  0  0  0  0
 56 55  1  0  0  0  0
 56 59  1  0  0  0  0
 57 56  1  0  0  0  0
 58 56  1  0  0  0  0
 60 62  1  0  0  0  0
 60 61  1  0  0  0  0
 63 60  1  0  0  0  0
 64 66  1  0  0  0  0
 64 55  1  0  0  0  0
 65 64  1  0  0  0  0
 67 64  1  0  0  0  0
M  END
