3,4
q = -1.0

 25 26  0  0  1  0  0  0  0  0999 V2000
    0.3244    2.7377    1.5878 F   0  0  0  0  0  0  0  0  0  0  0  0
    0.7732    0.6075   -2.6059 F   0  0  0  0  0  0  0  0  0  0  0  0
   -0.7370    0.9693   -0.2961 N   0  0  0  0  0  2  0  0  0  0  0  0
   -3.0136   -0.1930    0.0063 N   0  0  0  0  0  2  0  0  0  0  0  0
    0.5063    1.6108   -0.4823 C   0  0  0  0  0  0  0  0  0  0  0  0
    1.0566    2.4839    0.4803 C   0  0  0  0  0  0  0  0  0  0  0  0
    2.3234    3.0570    0.3483 C   0  0  0  0  0  0  0  0  0  0  0  0
    3.0780    2.7693   -0.7992 C   0  0  0  0  0  0  0  0  0  0  0  0
    2.5614    1.9365   -1.8025 C   0  0  0  0  0  0  0  0  0  0  0  0
    1.2856    1.3899   -1.6393 C   0  0  0  0  0  0  0  0  0  0  0  0
   -1.8790    1.8638   -0.4257 C   0  0  0  0  0  0  0  0  0  0  0  0
   -3.1659    1.1136   -0.2630 C   0  0  1  0  0  3  0  0  0  0  0  0
   -4.0942   -0.9797    0.1738 C   0  0  0  0  0  0  0  0  0  0  0  0
   -5.3926   -0.4761    0.0748 C   0  0  0  0  0  0  0  0  0  0  0  0
   -5.5660    0.8911   -0.2056 C   0  0  0  0  0  0  0  0  0  0  0  0
   -4.4392    1.7008   -0.3775 C   0  0  0  0  0  0  0  0  0  0  0  0
    2.7020    3.7059    1.1499 H   0  0  0  0  0  0  0  0  0  0  0  0
    4.0832    3.1997   -0.9125 H   0  0  0  0  0  0  0  0  0  0  0  0
    3.1288    1.7006   -2.7131 H   0  0  0  0  0  0  0  0  0  0  0  0
   -1.8659    2.3711   -1.4201 H   0  0  0  0  0  0  0  0  0  0  0  0
   -1.8260    2.6800    0.3345 H   0  0  0  0  0  0  0  0  0  0  0  0
   -3.8866   -2.0386    0.3904 H   0  0  0  0  0  0  0  0  0  0  0  0
   -6.2542   -1.1440    0.2152 H   0  0  0  0  0  0  0  0  0  0  0  0
   -6.5761    1.3196   -0.2899 H   0  0  0  0  0  0  0  0  0  0  0  0
   -4.5340    2.7742   -0.5984 H   0  0  0  0  0  0  0  0  0  0  0  0
  2 10  1  0  0  0  0
  4 13  1  0  0  0  0
  5  3  1  0  0  0  0
  5  6  1  0  0  0  0
  6  1  1  0  0  0  0
  7  6  2  0  0  0  0
  7 17  1  0  0  0  0
  8  7  1  0  0  0  0
  9 10  1  0  0  0  0
  9  8  2  0  0  0  0
 10  5  2  0  0  0  0
 11  3  1  0  0  0  0
 11 21  1  0  0  0  0
 12 11  1  6  0  0  0
 12  4  1  0  0  0  0
 13 22  1  0  0  0  0
 14 13  2  0  0  0  0
 14 23  1  0  0  0  0
 15 14  1  0  0  0  0
 16 12  1  0  0  0  0
 16 15  2  0  0  0  0
 18  8  1  0  0  0  0
 19  9  1  0  0  0  0
 20 11  1  0  0  0  0
 24 15  1  0  0  0  0
 25 16  1  0  0  0  0
M  END
