9,10
q = 0.0, confidence = 0.986

 58 60  0  0  0  0  0  0  0  0999 V2000
   -2.4625   -3.5771   -0.2214 O   0  0  0  0  0  0  0  0  0  0  0  0
   -4.5352   -2.7250    0.1129 O   0  0  0  0  0  0  0  0  0  0  0  0
   -1.9202   -2.1731    2.4001 O   0  0  0  0  0  0  0  0  0  0  0  0
   -2.4574    0.0300    2.3769 O   0  0  0  0  0  0  0  0  0  0  0  0
    0.7321   -0.9199    1.4972 O   0  0  0  0  0  0  0  0  0  0  0  0
    1.8524   -2.3016    0.0741 O   0  0  0  0  0  0  0  0  0  0  0  0
    4.3257   -2.3065    2.1518 O   0  0  0  0  0  0  0  0  0  0  0  0
    4.9972   -1.6625    0.0837 O   0  0  0  0  0  0  0  0  0  0  0  0
   -1.5123    1.4948   -0.2907 N   0  0  0  0  0  2  0  0  0  0  0  0
    1.1797    1.7216   -0.2612 N   0  0  0  0  0  2  0  0  0  0  0  0
   -2.8209    1.2520   -0.0763 C   0  0  0  0  0  0  0  0  0  0  0  0
   -3.6787    2.3006    0.3622 C   0  0  0  0  0  0  0  0  0  0  0  0
   -3.1849    3.5599    0.6418 C   0  0  0  0  0  0  0  0  0  0  0  0
   -1.7856    3.7830    0.5633 C   0  0  0  0  0  0  0  0  0  0  0  0
   -0.9843    2.7022    0.0985 C   0  0  0  0  0  0  0  0  0  0  0  0
    0.4480    2.8210    0.1213 C   0  0  0  0  0  0  0  0  0  0  0  0
    1.0481    4.0135    0.6212 C   0  0  0  0  0  0  0  0  0  0  0  0
    2.4589    4.0148    0.7589 C   0  0  0  0  0  0  0  0  0  0  0  0
    3.1610    2.8532    0.4877 C   0  0  0  0  0  0  0  0  0  0  0  0
    2.5052    1.6906   -0.0074 C   0  0  0  0  0  0  0  0  0  0  0  0
   -1.1554    5.0081    0.9647 C   0  0  0  0  0  0  0  0  0  0  0  0
    0.2145    5.1203    0.9944 C   0  0  0  0  0  0  0  0  0  0  0  0
    3.3008    0.4270   -0.1618 C   0  0  0  0  0  0  0  0  0  0  0  0
    3.0986   -0.5482    1.0302 C   0  0  0  0  0  0  0  0  0  0  0  0
   -3.4034   -0.1105   -0.3012 C   0  0  0  0  0  0  0  0  0  0  0  0
   -2.6082   -1.2620    0.3209 C   0  0  0  0  0  0  0  0  0  0  0  0
   -3.3280   -2.5809    0.0663 C   0  0  0  0  0  0  0  0  0  0  0  0
   -2.3406   -1.0387    1.8057 C   0  0  0  0  0  0  0  0  0  0  0  0
   -3.0587   -4.8610   -0.4451 C   0  0  0  0  0  0  0  0  0  0  0  0
   -1.4479   -2.0283    3.7476 C   0  0  0  0  0  0  0  0  0  0  0  0
    1.7475   -1.2669    0.9194 C   0  0  0  0  0  0  0  0  0  0  0  0
    4.1985   -1.6005    1.1706 C   0  0  0  0  0  0  0  0  0  0  0  0
    6.0026   -2.6832    0.1193 C   0  0  0  0  0  0  0  0  0  0  0  0
    0.6510   -3.0212   -0.2583 C   0  0  0  0  0  0  0  0  0  0  0  0
   -4.7452    2.0704    0.4908 H   0  0  0  0  0  0  0  0  0  0  0  0
   -3.8502    4.3711    0.9740 H   0  0  0  0  0  0  0  0  0  0  0  0
    2.9728    4.9193    1.1179 H   0  0  0  0  0  0  0  0  0  0  0  0
    4.2472    2.8030    0.6480 H   0  0  0  0  0  0  0  0  0  0  0  0
   -1.7948    5.8459    1.2811 H   0  0  0  0  0  0  0  0  0  0  0  0
    0.6968    6.0485    1.3354 H   0  0  0  0  0  0  0  0  0  0  0  0
    3.0711    0.0008    1.9922 H   0  0  0  0  0  0  0  0  0  0  0  0
   -1.6067   -1.3246   -0.1540 H   0  0  0  0  0  0  0  0  0  0  0  0
    4.3730    0.6898   -0.2114 H   0  0  0  0  0  0  0  0  0  0  0  0
    3.0308   -0.0829   -1.1099 H   0  0  0  0  0  0  0  0  0  0  0  0
   -3.4309   -0.2971   -1.3969 H   0  0  0  0  0  0  0  0  0  0  0  0
   -4.4395   -0.1327    0.0844 H   0  0  0  0  0  0  0  0  0  0  0  0
   -3.5970   -5.2067    0.4604 H   0  0  0  0  0  0  0  0  0  0  0  0
   -2.2266   -5.5459   -0.6856 H   0  0  0  0  0  0  0  0  0  0  0  0
   -3.7797   -4.8166   -1.2854 H   0  0  0  0  0  0  0  0  0  0  0  0
   -2.1995   -1.5104    4.3750 H   0  0  0  0  0  0  0  0  0  0  0  0
   -0.5061   -1.4448    3.7457 H   0  0  0  0  0  0  0  0  0  0  0  0
   -1.2662   -3.0524    4.1187 H   0  0  0  0  0  0  0  0  0  0  0  0
    6.6659   -2.5534    0.9978 H   0  0  0  0  0  0  0  0  0  0  0  0
    6.5737   -2.5828   -0.8203 H   0  0  0  0  0  0  0  0  0  0  0  0
    5.5335   -3.6856    0.1818 H   0  0  0  0  0  0  0  0  0  0  0  0
    0.9764   -4.0246   -0.5855 H   0  0  0  0  0  0  0  0  0  0  0  0
    0.1372   -2.5058   -1.0950 H   0  0  0  0  0  0  0  0  0  0  0  0
   -0.0240   -3.0882    0.6142 H   0  0  0  0  0  0  0  0  0  0  0  0
  1 27  1  0  0  0  0
  3 30  1  0  0  0  0
  6 31  1  0  0  0  0
  8 33  1  0  0  0  0
  8 32  1  0  0  0  0
  9 11  1  0  0  0  0
  9 15  1  0  0  0  0
 10 20  1  0  0  0  0
 10 16  1  0  0  0  0
 11 12  2  0  0  0  0
 12 35  1  0  0  0  0
 12 13  1  0  0  0  0
 13 36  1  0  0  0  0
 14 13  2  0  0  0  0
 14 21  1  0  0  0  0
 15 16  2  0  0  0  0
 15 14  1  0  0  0  0
 16 17  1  0  0  0  0
 17 18  2  0  0  0  0
 17 22  1  0  0  0  0
 18 37  1  0  0  0  0
 19 38  1  0  0  0  0
 19 18  1  0  0  0  0
 20 19  2  0  0  0  0
 21 22  2  0  0  0  0
 21 39  1  0  0  0  0
 22 40  1  0  0  0  0
 23 20  1  0  0  0  0
 23 24  1  0  0  0  0
 24 32  1  0  0  0  0
 24 41  1  0  0  0  0
 25 11  1  0  0  0  0
 25 46  1  0  0  0  0
 25 26  1  0  0  0  0
 26 28  1  0  0  0  0
 27  2  2  0  0  0  0
 27 26  1  0  0  0  0
 28  4  2  0  0  0  0
 28  3  1  0  0  0  0
 29  1  1  0  0  0  0
 29 47  1  0  0  0  0
 30 52  1  0  0  0  0
 30 50  1  0  0  0  0
 31 24  1  0  0  0  0
 31  5  2  0  0  0  0
 32  7  2  0  0  0  0
 33 55  1  0  0  0  0
 33 53  1  0  0  0  0
 34  6  1  0  0  0  0
 34 58  1  0  0  0  0
 42 26  1  0  0  0  0
 43 23  1  0  0  0  0
 44 23  1  0  0  0  0
 45 25  1  0  0  0  0
 48 29  1  0  0  0  0
 49 29  1  0  0  0  0
 51 30  1  0  0  0  0
 54 33  1  0  0  0  0
 56 34  1  0  0  0  0
 57 34  1  0  0  0  0
M  END
