1,2
q = -1.0, confidence = 0.018

 31 33  0  0  0  0  0  0  0  0999 V2000
   -1.3003    1.2754   -0.4712 N   0  0  0  0  0  0  0  0  0  0  0  0
   -1.3022   -1.2736    0.4733 N   0  0  0  0  0  0  0  0  0  0  0  0
   -0.9928    2.3885   -1.1813 C   0  0  0  0  0  0  0  0  0  0  0  0
   -2.1659    2.9963   -1.7028 C   0  0  0  0  0  0  0  0  0  0  0  0
   -3.2379    2.2050   -1.2923 C   0  0  0  0  0  0  0  0  0  0  0  0
   -2.6891    1.1208   -0.5285 C   0  0  0  0  0  3  0  0  0  0  0  0
   -3.3711    0.0023    0.0007 C   0  0  0  0  0  3  0  0  0  0  0  0
   -2.6908   -1.1173    0.5297 C   0  0  0  0  0  0  0  0  0  0  0  0
   -3.2415   -2.2022    1.2910 C   0  0  0  0  0  0  0  0  0  0  0  0
   -2.1709   -2.9956    1.7009 C   0  0  0  0  0  0  0  0  0  0  0  0
   -0.9966   -2.3884    1.1815 C   0  0  0  0  0  3  0  0  0  0  0  0
   -4.8549    0.0034    0.0006 C   0  0  0  0  0  0  0  0  0  0  0  0
   -5.5802    1.0848    0.5458 C   0  0  0  0  0  0  0  0  0  0  0  0
   -6.9811    1.0785    0.5487 C   0  0  0  0  0  0  0  0  0  0  0  0
   -7.7096    0.0044    0.0003 C   0  0  0  0  0  0  0  0  0  0  0  0
   -6.9806   -1.0720   -0.5496 C   0  0  0  0  0  0  0  0  0  0  0  0
   -5.5822   -1.0790   -0.5461 C   0  0  0  0  0  0  0  0  0  0  0  0
   -9.2167   -0.0062   -0.0015 C   0  0  0  0  0  0  0  0  0  0  0  0
   -9.6338    0.9220    0.4340 H   0  0  0  0  0  0  0  0  0  0  0  0
   -9.6133   -0.8633    0.5823 H   0  0  0  0  0  0  0  0  0  0  0  0
   -9.6173   -0.1099   -1.0315 H   0  0  0  0  0  0  0  0  0  0  0  0
    0.0438   -2.7115    1.2986 H   0  0  0  0  0  0  0  0  0  0  0  0
   -5.0313    1.9277    0.9908 H   0  0  0  0  0  0  0  0  0  0  0  0
    0.0481    2.7103   -1.2980 H   0  0  0  0  0  0  0  0  0  0  0  0
   -5.0326   -1.9213   -0.9913 H   0  0  0  0  0  0  0  0  0  0  0  0
   -4.2990    2.3342   -1.5304 H   0  0  0  0  0  0  0  0  0  0  0  0
   -2.2060   -3.9042    2.3133 H   0  0  0  0  0  0  0  0  0  0  0  0
   -2.1994    3.9037   -2.3168 H   0  0  0  0  0  0  0  0  0  0  0  0
   -7.5247    1.9275    0.9926 H   0  0  0  0  0  0  0  0  0  0  0  0
   -4.3029   -2.3305    1.5283 H   0  0  0  0  0  0  0  0  0  0  0  0
   -7.5237   -1.9207   -0.9953 H   0  0  0  0  0  0  0  0  0  0  0  0
  2  8  2  0  0  0  0
  2 11  1  0  0  0  0
  3  1  2  0  0  0  0
  4  5  2  0  0  0  0
  4  3  1  0  0  0  0
  5  6  1  0  0  0  0
  6  1  1  0  0  0  0
  6  7  1  0  0  0  0
  7  8  1  0  0  0  0
  8  9  1  0  0  0  0
  9 30  1  0  0  0  0
  9 10  2  0  0  0  0
 10 27  1  0  0  0  0
 11 22  1  0  0  0  0
 11 10  1  0  0  0  0
 12  7  1  0  0  0  0
 12 13  1  0  0  0  0
 13 14  2  0  0  0  0
 13 23  1  0  0  0  0
 14 29  1  0  0  0  0
 15 14  1  0  0  0  0
 16 17  1  0  0  0  0
 16 15  2  0  0  0  0
 17 12  2  0  0  0  0
 18 15  1  0  0  0  0
 18 19  1  0  0  0  0
 18 20  1  0  0  0  0
 21 18  1  0  0  0  0
 24  3  1  0  0  0  0
 25 17  1  0  0  0  0
 26  5  1  0  0  0  0
 28  4  1  0  0  0  0
 31 16  1  0  0  0  0
M  END
