1,4
q = 0.0, confidence = 0.976

 36 37  0  0  0  0  0  0  0  0999 V2000
    1.6372    1.7158    0.2869 N   0  0  0  0  0  2  0  0  0  0  0  0
    3.4684    2.8459   -0.2365 N   0  0  0  0  0  0  0  0  0  0  0  0
    3.7491   -2.5304   -0.1010 N   0  0  0  0  0  0  0  0  0  0  0  0
    1.8639   -1.4233   -0.4536 N   0  0  0  0  0  2  0  0  0  0  0  0
    5.8057    1.3521   -0.2934 O   0  0  0  0  0  0  0  0  0  0  0  0
    6.4448   -1.4746   -0.2316 O   0  0  0  0  0  0  0  0  0  0  0  0
    2.6730   -1.9073    0.4761 C   0  0  0  0  0  3  0  0  0  0  0  0
    2.4934   -1.8194    1.5580 H   0  0  0  0  0  0  0  0  0  0  0  0
    2.4176   -1.7260   -1.6761 C   0  0  0  0  0  0  0  0  0  0  0  0
    1.9240   -1.3884   -2.5969 H   0  0  0  0  0  0  0  0  0  0  0  0
    3.5971   -2.4211   -1.4775 C   0  0  0  0  0  0  0  0  0  0  0  0
    4.3380   -2.8180   -2.1775 H   0  0  0  0  0  0  0  0  0  0  0  0
    4.8387   -3.1728    0.6153 C   0  0  0  0  0  0  0  0  0  0  0  0
    4.7200   -4.2792    0.6039 H   0  0  0  0  0  0  0  0  0  0  0  0
    4.7597   -2.8561    1.6740 H   0  0  0  0  0  0  0  0  0  0  0  0
    6.2241   -2.8355    0.0388 C   0  0  0  0  0  0  0  0  0  0  0  0
    6.3660   -3.3579   -0.9295 H   0  0  0  0  0  0  0  0  0  0  0  0
    6.9885   -3.2470    0.7473 H   0  0  0  0  0  0  0  0  0  0  0  0
    6.4091   -0.6297    0.9006 C   0  0  0  0  0  0  0  0  0  0  0  0
    5.3878   -0.5776    1.3468 H   0  0  0  0  0  0  0  0  0  0  0  0
    7.1129   -0.9944    1.6915 H   0  0  0  0  0  0  0  0  0  0  0  0
    6.8188    0.7720    0.4973 C   0  0  0  0  0  0  0  0  0  0  0  0
    6.9793    1.3699    1.4295 H   0  0  0  0  0  0  0  0  0  0  0  0
    7.7935    0.7348   -0.0497 H   0  0  0  0  0  0  0  0  0  0  0  0
    5.9257    2.7411   -0.4518 C   0  0  0  0  0  0  0  0  0  0  0  0
    6.1459    3.2307    0.5311 H   0  0  0  0  0  0  0  0  0  0  0  0
    6.7629    3.0218   -1.1398 H   0  0  0  0  0  0  0  0  0  0  0  0
    4.6140    3.2823   -1.0186 C   0  0  0  0  0  0  0  0  0  0  0  0
    4.6661    4.3915   -1.0631 H   0  0  0  0  0  0  0  0  0  0  0  0
    4.4639    2.9091   -2.0502 H   0  0  0  0  0  0  0  0  0  0  0  0
    3.3265    2.9241    1.1442 C   0  0  0  0  0  0  0  0  0  0  0  0
    4.0415    3.4661    1.7713 H   0  0  0  0  0  0  0  0  0  0  0  0
    2.4249    2.0973   -0.7073 C   0  0  0  0  0  3  0  0  0  0  0  0
    2.2519    1.8467   -1.7640 H   0  0  0  0  0  0  0  0  0  0  0  0
    2.1809    2.2102    1.4494 C   0  0  0  0  0  0  0  0  0  0  0  0
    1.7190    1.9771    2.4169 H   0  0  0  0  0  0  0  0  0  0  0  0
  1 35  1  0  0  0  0
  2 31  1  0  0  0  0
  3  7  1  0  0  0  0
  3 13  1  0  0  0  0
  4  7  1  0  0  0  0
  5 22  1  0  0  0  0
  6 16  1  0  0  0  0
  6 19  1  0  0  0  0
  7  8  1  0  0  0  0
  9 11  2  0  0  0  0
  9  4  1  0  0  0  0
 10  9  1  0  0  0  0
 11  3  1  0  0  0  0
 12 11  1  0  0  0  0
 13 15  1  0  0  0  0
 14 13  1  0  0  0  0
 16 13  1  0  0  0  0
 16 18  1  0  0  0  0
 17 16  1  0  0  0  0
 19 20  1  0  0  0  0
 19 21  1  0  0  0  0
 22 19  1  0  0  0  0
 22 23  1  0  0  0  0
 24 22  1  0  0  0  0
 25  5  1  0  0  0  0
 25 26  1  0  0  0  0
 27 25  1  0  0  0  0
 28 25  1  0  0  0  0
 28  2  1  0  0  0  0
 29 28  1  0  0  0  0
 30 28  1  0  0  0  0
 31 35  2  0  0  0  0
 31 32  1  0  0  0  0
 33  2  1  0  0  0  0
 33  1  1  0  0  0  0
 34 33  1  0  0  0  0
 35 36  1  0  0  0  0
M  END
