1,2
q = -1.0, confidence = 0.056

 57 58  0  0  1  0  0  0  0  0999 V2000
   -0.4283    0.8849    1.0179 N   0  0  0  0  0  2  0  0  0  0  0  0
    1.1991   -0.6624   -0.9003 N   0  0  0  0  0  2  0  0  0  0  0  0
    1.1597    2.3231   -0.4193 C   0  0  0  0  0  0  0  0  0  0  0  0
    2.3695    1.4702    0.0196 C   0  0  2  0  0  0  0  0  0  0  0  0
    3.6373    1.7168   -0.7890 C   0  0  0  0  0  0  0  0  0  0  0  0
    4.3855    0.5980   -0.9240 C   0  0  0  0  0  0  0  0  0  0  0  0
    3.6744   -0.5859   -0.2914 C   0  0  0  0  0  0  0  0  0  0  0  0
    2.2208   -0.0918   -0.1538 C   0  0  2  0  0  3  0  0  0  0  0  0
   -0.2501    1.6956   -0.2263 C   0  0  2  0  0  0  0  0  0  0  0  0
    2.7167    1.8064    1.4931 C   0  0  0  0  0  0  0  0  0  0  0  0
    5.7350    0.4715   -1.5558 C   0  0  0  0  0  0  0  0  0  0  0  0
   -1.3841    2.6762   -0.5114 C   0  0  0  0  0  0  0  0  0  0  0  0
   -1.3274    4.0586   -0.2493 C   0  0  0  0  0  0  0  0  0  0  0  0
   -2.4231    4.8931   -0.5255 C   0  0  0  0  0  0  0  0  0  0  0  0
   -3.5998    4.3605   -1.0729 C   0  0  0  0  0  0  0  0  0  0  0  0
   -3.6709    2.9844   -1.3475 C   0  0  0  0  0  0  0  0  0  0  0  0
   -2.5729    2.1589   -1.0719 C   0  0  0  0  0  0  0  0  0  0  0  0
   -1.2780    1.4918    2.0538 C   0  0  0  0  0  0  0  0  0  0  0  0
   -0.5186    2.4652    2.9716 C   0  0  0  0  0  0  0  0  0  0  0  0
   -2.0591    0.4652    2.8813 C   0  0  0  0  0  0  0  0  0  0  0  0
    1.1426   -1.1369   -2.2965 C   0  0  0  0  0  0  0  0  0  0  0  0
    1.2699   -2.6753   -2.3135 C   0  0  0  0  0  0  0  0  0  0  0  0
   -0.2131   -0.7388   -2.9228 C   0  0  0  0  0  0  0  0  0  0  0  0
    2.2482   -0.5138   -3.1697 C   0  0  0  0  0  0  0  0  0  0  0  0
    1.2396    2.5583   -1.5025 H   0  0  0  0  0  0  0  0  0  0  0  0
    1.2322    3.2983    0.1077 H   0  0  0  0  0  0  0  0  0  0  0  0
    3.9461    2.7203   -1.1280 H   0  0  0  0  0  0  0  0  0  0  0  0
    4.1560   -0.8190    0.6887 H   0  0  0  0  0  0  0  0  0  0  0  0
    3.7534   -1.5178   -0.8900 H   0  0  0  0  0  0  0  0  0  0  0  0
   -0.3242    0.9539   -1.0358 H   0  0  0  0  0  0  0  0  0  0  0  0
    1.8586    1.5962    2.1564 H   0  0  0  0  0  0  0  0  0  0  0  0
    2.9813    2.8806    1.5928 H   0  0  0  0  0  0  0  0  0  0  0  0
    3.5873    1.2177    1.8436 H   0  0  0  0  0  0  0  0  0  0  0  0
    5.7192   -0.2578   -2.3965 H   0  0  0  0  0  0  0  0  0  0  0  0
    6.4855    0.0867   -0.8304 H   0  0  0  0  0  0  0  0  0  0  0  0
    6.1024    1.4404   -1.9481 H   0  0  0  0  0  0  0  0  0  0  0  0
   -0.4143    4.4970    0.1800 H   0  0  0  0  0  0  0  0  0  0  0  0
   -2.3549    5.9710   -0.3113 H   0  0  0  0  0  0  0  0  0  0  0  0
   -4.4569    5.0158   -1.2908 H   0  0  0  0  0  0  0  0  0  0  0  0
   -4.5854    2.5554   -1.7865 H   0  0  0  0  0  0  0  0  0  0  0  0
   -2.6251    1.0796   -1.2841 H   0  0  0  0  0  0  0  0  0  0  0  0
   -2.0529    2.0992    1.5365 H   0  0  0  0  0  0  0  0  0  0  0  0
   -1.2187    2.9747    3.6660 H   0  0  0  0  0  0  0  0  0  0  0  0
    0.0072    3.2447    2.3871 H   0  0  0  0  0  0  0  0  0  0  0  0
    0.2398    1.9305    3.5797 H   0  0  0  0  0  0  0  0  0  0  0  0
   -2.8280    0.9826    3.4909 H   0  0  0  0  0  0  0  0  0  0  0  0
   -1.4092   -0.0948    3.5790 H   0  0  0  0  0  0  0  0  0  0  0  0
   -2.5699   -0.2646    2.2221 H   0  0  0  0  0  0  0  0  0  0  0  0
    1.2118   -3.0758   -3.3477 H   0  0  0  0  0  0  0  0  0  0  0  0
    0.4597   -3.1327   -1.7113 H   0  0  0  0  0  0  0  0  0  0  0  0
    2.2364   -2.9906   -1.8721 H   0  0  0  0  0  0  0  0  0  0  0  0
   -0.3246   -1.1898   -3.9304 H   0  0  0  0  0  0  0  0  0  0  0  0
   -0.2917    0.3613   -3.0348 H   0  0  0  0  0  0  0  0  0  0  0  0
   -1.0564   -1.0813   -2.2964 H   0  0  0  0  0  0  0  0  0  0  0  0
    2.0845   -0.7861   -4.2323 H   0  0  0  0  0  0  0  0  0  0  0  0
    3.2565   -0.8657   -2.8855 H   0  0  0  0  0  0  0  0  0  0  0  0
    2.2419    0.5896   -3.0855 H   0  0  0  0  0  0  0  0  0  0  0  0
  1 18  1  0  0  0  0
  3  9  1  0  0  0  0
  3 26  1  0  0  0  0
  4  3  1  6  0  0  0
  4 10  1  0  0  0  0
  5  4  1  0  0  0  0
  6  5  2  0  0  0  0
  6  7  1  0  0  0  0
  7  8  1  0  0  0  0
  7 28  1  0  0  0  0
  8  2  1  6  0  0  0
  8  4  1  0  0  0  0
  9 30  1  6  0  0  0
  9  1  1  0  0  0  0
 10 32  1  0  0  0  0
 10 33  1  0  0  0  0
 10 31  1  0  0  0  0
 11  6  1  0  0  0  0
 11 35  1  0  0  0  0
 12 13  1  0  0  0  0
 12  9  1  0  0  0  0
 13 37  1  0  0  0  0
 14 38  1  0  0  0  0
 14 13  2  0  0  0  0
 15 14  1  0  0  0  0
 16 15  2  0  0  0  0
 16 17  1  0  0  0  0
 17 12  2  0  0  0  0
 18 20  1  0  0  0  0
 18 19  1  0  0  0  0
 19 45  1  0  0  0  0
 19 43  1  0  0  0  0
 20 46  1  0  0  0  0
 20 47  1  0  0  0  0
 21  2  1  0  0  0  0
 22 21  1  0  0  0  0
 22 51  1  0  0  0  0
 22 50  1  0  0  0  0
 23 21  1  0  0  0  0
 23 54  1  0  0  0  0
 24 57  1  0  0  0  0
 24 56  1  0  0  0  0
 24 21  1  0  0  0  0
 25  3  1  0  0  0  0
 27  5  1  0  0  0  0
 29  7  1  0  0  0  0
 34 11  1  0  0  0  0
 36 11  1  0  0  0  0
 39 15  1  0  0  0  0
 40 16  1  0  0  0  0
 41 17  1  0  0  0  0
 42 18  1  0  0  0  0
 44 19  1  0  0  0  0
 48 20  1  0  0  0  0
 49 22  1  0  0  0  0
 52 23  1  0  0  0  0
 53 23  1  0  0  0  0
 55 24  1  0  0  0  0
M  END
