29,32
q = -1.0

 39 41  0  0  1  0  0  0  0  0999 V2000
    1.8691    2.7193    2.1798 F   0  0  0  0  0  0  0  0  0  0  0  0
   -5.1312   -1.6485   -0.4398 F   0  0  0  0  0  0  0  0  0  0  0  0
   -0.1601   -1.2850    2.7516 F   0  0  0  0  0  0  0  0  0  0  0  0
   -0.9149    0.9381   -1.4913 N   0  0  0  0  0  0  0  0  0  0  0  0
   -3.5487   -0.0609   -0.5962 N   0  0  0  0  0  0  0  0  0  0  0  0
    0.2445    1.6642   -2.0810 C   0  0  0  0  0  0  0  0  0  0  0  0
    1.0279    0.8951   -2.2633 H   0  0  0  0  0  0  0  0  0  0  0  0
   -0.0722    2.1051   -3.0479 H   0  0  0  0  0  0  0  0  0  0  0  0
   -1.8024    1.6100   -0.7845 C   0  0  0  0  0  3  0  0  0  0  0  0
   -1.5417    2.6625   -0.5908 H   0  0  0  0  0  0  0  0  0  0  0  0
   -1.0326   -0.4945   -1.8234 C   0  0  0  0  0  0  0  0  0  0  0  0
   -0.1419   -0.7767   -2.4203 H   0  0  0  0  0  0  0  0  0  0  0  0
   -1.9448   -0.6459   -2.4312 H   0  0  0  0  0  0  0  0  0  0  0  0
   -3.0645    1.1539   -0.2402 C   0  0  0  0  0  0  0  0  0  0  0  0
   -3.7628    2.0187    0.6367 C   0  0  0  0  0  0  0  0  0  0  0  0
   -3.3542    3.0064    0.8943 H   0  0  0  0  0  0  0  0  0  0  0  0
   -4.9831    1.5806    1.1747 C   0  0  0  0  0  0  0  0  0  0  0  0
   -5.5506    2.2201    1.8663 H   0  0  0  0  0  0  0  0  0  0  0  0
   -5.4704    0.3186    0.8219 C   0  0  0  0  0  0  0  0  0  0  0  0
   -6.4165   -0.0816    1.2126 H   0  0  0  0  0  0  0  0  0  0  0  0
   -4.6933   -0.4455   -0.0787 C   0  0  0  0  0  0  0  0  0  0  0  0
   -1.6542   -2.6832   -0.7480 C   0  0  0  0  0  0  0  0  0  0  0  0
   -2.0642   -3.0055   -1.7145 H   0  0  0  0  0  0  0  0  0  0  0  0
   -1.6776   -3.5306    0.3669 C   0  0  0  0  0  0  0  0  0  0  0  0
   -2.0950   -4.5448    0.2866 H   0  0  0  0  0  0  0  0  0  0  0  0
   -1.1818   -3.0693    1.5921 C   0  0  0  0  0  0  0  0  0  0  0  0
   -1.1896   -3.6766    2.5068 H   0  0  0  0  0  0  0  0  0  0  0  0
   -0.6491   -1.7803    1.6157 C   0  0  2  0  0  3  0  0  0  0  0  0
   -0.5788   -0.9667    0.5559 N   0  0  0  0  0  2  0  0  0  0  0  0
   -1.1012   -1.4049   -0.6141 C   0  0  0  0  0  0  0  0  0  0  0  0
    0.8145    2.7118   -1.1620 C   0  0  1  0  0  3  0  0  0  0  0  0
    1.0994    2.2899    0.1035 N   0  0  0  0  0  2  0  0  0  0  0  0
    1.6420    3.1664    0.9521 C   0  0  0  0  0  0  0  0  0  0  0  0
    1.9670    4.4891    0.6218 C   0  0  0  0  0  0  0  0  0  0  0  0
    2.4216    5.1438    1.3776 H   0  0  0  0  0  0  0  0  0  0  0  0
    1.6847    4.9142   -0.6790 C   0  0  0  0  0  0  0  0  0  0  0  0
    1.9209    5.9429   -0.9883 H   0  0  0  0  0  0  0  0  0  0  0  0
    1.0865    4.0169   -1.5835 C   0  0  0  0  0  0  0  0  0  0  0  0
    0.8429    4.3269   -2.6094 H   0  0  0  0  0  0  0  0  0  0  0  0
  2 21  1  0  0  0  0
  4  9  1  0  0  0  0
  5 14  2  0  0  0  0
  5 21  1  0  0  0  0
  6  4  1  0  0  0  0
  7  6  1  0  0  0  0
  8  6  1  0  0  0  0
  9 10  1  0  0  0  0
  9 14  1  0  0  0  0
 11  4  1  0  0  0  0
 11 30  1  0  0  0  0
 12 11  1  0  0  0  0
 13 11  1  0  0  0  0
 14 15  1  0  0  0  0
 15 16  1  0  0  0  0
 15 17  2  0  0  0  0
 17 18  1  0  0  0  0
 19 17  1  0  0  0  0
 19 20  1  0  0  0  0
 21 19  2  0  0  0  0
 22 30  2  0  0  0  0
 22 24  1  0  0  0  0
 23 22  1  0  0  0  0
 24 26  2  0  0  0  0
 25 24  1  0  0  0  0
 26 28  1  0  0  0  0
 26 27  1  0  0  0  0
 28  3  1  6  0  0  0
 29 28  1  0  0  0  0
 30 29  1  0  0  0  0
 31  6  1  6  0  0  0
 31 32  1  0  0  0  0
 32 33  1  0  0  0  0
 33  1  1  0  0  0  0
 34 33  2  0  0  0  0
 34 35  1  0  0  0  0
 36 34  1  0  0  0  0
 37 36  1  0  0  0  0
 38 31  1  0  0  0  0
 38 36  2  0  0  0  0
 39 38  1  0  0  0  0
M  END
