3,4
q = -1.0, confidence = 0.1

 67 67  0  0  0  0  0  0  0  0999 V2000
    0.1128   -2.8422   -0.4924 Si  0  0  0  0  0  0  0  0  0  0  0  0
    0.0587    2.8225    0.5454 Si  0  0  0  0  0  0  0  0  0  0  0  0
    0.4990   -1.0992   -0.1893 N   0  0  0  0  0  2  0  0  0  0  0  0
    0.4775    1.0926    0.2132 N   0  0  0  0  0  2  0  0  0  0  0  0
    0.9406   -3.3270   -2.1122 C   0  0  0  0  0  0  0  0  0  0  0  0
    0.8172   -3.8027    0.9652 C   0  0  0  0  0  0  0  0  0  0  0  0
   -1.7413   -3.1667   -0.6382 C   0  0  0  0  0  0  0  0  0  0  0  0
    0.9831    3.3323    2.1041 C   0  0  0  0  0  0  0  0  0  0  0  0
    0.6273    3.8043   -0.9567 C   0  0  0  0  0  0  0  0  0  0  0  0
   -1.7899    3.0895    0.8200 C   0  0  0  0  0  0  0  0  0  0  0  0
   -0.2628   -0.0158    0.0405 C   0  0  0  0  0  3  0  0  0  0  0  0
   -1.7515   -0.0405    0.0972 C   0  0  0  0  0  0  0  0  0  0  0  0
   -2.4923    0.3812   -1.0365 C   0  0  0  0  0  0  0  0  0  0  0  0
   -3.8935    0.3384   -0.9600 C   0  0  0  0  0  0  0  0  0  0  0  0
   -4.5636   -0.0837    0.2040 C   0  0  0  0  0  0  0  0  0  0  0  0
   -3.7950   -0.4825    1.3109 C   0  0  0  0  0  0  0  0  0  0  0  0
   -2.3891   -0.4821    1.2823 C   0  0  0  0  0  0  0  0  0  0  0  0
   -1.7865    0.8265   -2.3163 C   0  0  0  0  0  0  0  0  0  0  0  0
   -1.6401   -0.3433   -3.3055 C   0  0  0  0  0  0  0  0  0  0  0  0
   -2.4586    2.0300   -2.9927 C   0  0  0  0  0  0  0  0  0  0  0  0
   -6.0839   -0.1088    0.2635 C   0  0  0  0  0  0  0  0  0  0  0  0
   -6.6711   -1.1005   -0.7551 C   0  0  0  0  0  0  0  0  0  0  0  0
   -6.6800    1.2981    0.0877 C   0  0  0  0  0  0  0  0  0  0  0  0
   -1.5764   -0.8996    2.5065 C   0  0  0  0  0  0  0  0  0  0  0  0
   -1.4159    0.2719    3.4916 C   0  0  0  0  0  0  0  0  0  0  0  0
   -2.1444   -2.1357    3.2189 C   0  0  0  0  0  0  0  0  0  0  0  0
    0.6807   -4.3775   -2.3575 H   0  0  0  0  0  0  0  0  0  0  0  0
    2.0421   -3.2456   -2.0472 H   0  0  0  0  0  0  0  0  0  0  0  0
    0.6011   -2.6838   -2.9483 H   0  0  0  0  0  0  0  0  0  0  0  0
    0.6339   -4.8885    0.8280 H   0  0  0  0  0  0  0  0  0  0  0  0
    0.3432   -3.4917    1.9176 H   0  0  0  0  0  0  0  0  0  0  0  0
    1.9093   -3.6430    1.0548 H   0  0  0  0  0  0  0  0  0  0  0  0
   -1.8628   -4.2390   -0.9017 H   0  0  0  0  0  0  0  0  0  0  0  0
   -2.2887   -2.9805    0.3043 H   0  0  0  0  0  0  0  0  0  0  0  0
   -2.2230   -2.5641   -1.4315 H   0  0  0  0  0  0  0  0  0  0  0  0
    0.7076    4.3733    2.3719 H   0  0  0  0  0  0  0  0  0  0  0  0
    0.7253    2.6763    2.9592 H   0  0  0  0  0  0  0  0  0  0  0  0
    2.0792    3.2867    1.9603 H   0  0  0  0  0  0  0  0  0  0  0  0
    0.4187    4.8835   -0.8051 H   0  0  0  0  0  0  0  0  0  0  0  0
    1.7149    3.6805   -1.1241 H   0  0  0  0  0  0  0  0  0  0  0  0
    0.0970    3.4774   -1.8736 H   0  0  0  0  0  0  0  0  0  0  0  0
   -1.9258    4.1574    1.0941 H   0  0  0  0  0  0  0  0  0  0  0  0
   -2.1971    2.4721    1.6431 H   0  0  0  0  0  0  0  0  0  0  0  0
   -2.3954    2.8873   -0.0829 H   0  0  0  0  0  0  0  0  0  0  0  0
   -4.4832    0.6515   -1.8349 H   0  0  0  0  0  0  0  0  0  0  0  0
   -4.3164   -0.8100    2.2239 H   0  0  0  0  0  0  0  0  0  0  0  0
   -0.7574    1.1374   -2.0399 H   0  0  0  0  0  0  0  0  0  0  0  0
   -1.1006   -0.0166   -4.2173 H   0  0  0  0  0  0  0  0  0  0  0  0
   -2.6332   -0.7346   -3.6098 H   0  0  0  0  0  0  0  0  0  0  0  0
   -1.0642   -1.1756   -2.8599 H   0  0  0  0  0  0  0  0  0  0  0  0
   -1.8347    2.3906   -3.8350 H   0  0  0  0  0  0  0  0  0  0  0  0
   -2.6005    2.8742   -2.2886 H   0  0  0  0  0  0  0  0  0  0  0  0
   -3.4516    1.7690   -3.4131 H   0  0  0  0  0  0  0  0  0  0  0  0
   -6.3593   -0.4668    1.2795 H   0  0  0  0  0  0  0  0  0  0  0  0
   -7.7746   -1.1581   -0.6589 H   0  0  0  0  0  0  0  0  0  0  0  0
   -6.2575   -2.1186   -0.6109 H   0  0  0  0  0  0  0  0  0  0  0  0
   -6.4426   -0.7896   -1.7957 H   0  0  0  0  0  0  0  0  0  0  0  0
   -7.7835    1.2755    0.1973 H   0  0  0  0  0  0  0  0  0  0  0  0
   -6.2723    2.0054    0.8373 H   0  0  0  0  0  0  0  0  0  0  0  0
   -6.4533    1.7080   -0.9184 H   0  0  0  0  0  0  0  0  0  0  0  0
   -0.5558   -1.1616    2.1576 H   0  0  0  0  0  0  0  0  0  0  0  0
   -0.7996   -0.0331    4.3612 H   0  0  0  0  0  0  0  0  0  0  0  0
   -2.4023    0.6150    3.8674 H   0  0  0  0  0  0  0  0  0  0  0  0
   -0.9121    1.1322    3.0131 H   0  0  0  0  0  0  0  0  0  0  0  0
   -1.4494   -2.4684    4.0158 H   0  0  0  0  0  0  0  0  0  0  0  0
   -3.1187   -1.9235    3.7052 H   0  0  0  0  0  0  0  0  0  0  0  0
   -2.2923   -2.9839    2.5209 H   0  0  0  0  0  0  0  0  0  0  0  0
  1  3  1  0  0  0  0
  1  6  1  0  0  0  0
  2 10  1  0  0  0  0
  2  8  1  0  0  0  0
  3 11  1  0  0  0  0
  4  2  1  0  0  0  0
  5 28  1  0  0  0  0
  5  1  1  0  0  0  0
  6 32  1  0  0  0  0
  6 31  1  0  0  0  0
  7  1  1  0  0  0  0
  7 34  1  0  0  0  0
  8 36  1  0  0  0  0
  8 37  1  0  0  0  0
  9 39  1  0  0  0  0
  9  2  1  0  0  0  0
 10 42  1  0  0  0  0
 10 43  1  0  0  0  0
 11 12  1  0  0  0  0
 11  4  1  0  0  0  0
 12 17  1  0  0  0  0
 13 14  1  0  0  0  0
 13 12  2  0  0  0  0
 14 15  2  0  0  0  0
 15 21  1  0  0  0  0
 15 16  1  0  0  0  0
 16 46  1  0  0  0  0
 17 16  2  0  0  0  0
 17 24  1  0  0  0  0
 18 47  1  0  0  0  0
 18 13  1  0  0  0  0
 19 50  1  0  0  0  0
 19 18  1  0  0  0  0
 20 18  1  0  0  0  0
 20 52  1  0  0  0  0
 21 54  1  0  0  0  0
 22 55  1  0  0  0  0
 22 56  1  0  0  0  0
 22 21  1  0  0  0  0
 23 58  1  0  0  0  0
 23 21  1  0  0  0  0
 23 59  1  0  0  0  0
 24 26  1  0  0  0  0
 24 25  1  0  0  0  0
 25 63  1  0  0  0  0
 25 62  1  0  0  0  0
 26 66  1  0  0  0  0
 26 65  1  0  0  0  0
 27  5  1  0  0  0  0
 29  5  1  0  0  0  0
 30  6  1  0  0  0  0
 33  7  1  0  0  0  0
 35  7  1  0  0  0  0
 38  8  1  0  0  0  0
 40  9  1  0  0  0  0
 41  9  1  0  0  0  0
 44 10  1  0  0  0  0
 45 14  1  0  0  0  0
 48 19  1  0  0  0  0
 49 19  1  0  0  0  0
 51 20  1  0  0  0  0
 53 20  1  0  0  0  0
 57 22  1  0  0  0  0
 60 23  1  0  0  0  0
 61 24  1  0  0  0  0
 64 25  1  0  0  0  0
 67 26  1  0  0  0  0
M  END
