2,3
q = 0.0, confidence = 0.992

 32 33  0  0  0  0  0  0  0  0999 V2000
    8.3464    0.3716    0.8486 O   0  0  0  0  0  0  0  0  0  0  0  0
   -2.6046    1.1416   -0.0589 N   0  0  0  0  0  2  0  0  0  0  0  0
   -0.0696    1.3624    0.2745 N   0  0  0  0  0  2  0  0  0  0  0  0
    1.2838    1.3593    0.4372 N   0  0  0  0  0  0  0  0  0  0  0  0
   -2.1404    2.4171    0.1419 C   0  0  0  0  0  0  0  0  0  0  0  0
   -3.0112    3.5215    0.0707 C   0  0  0  0  0  0  0  0  0  0  0  0
   -2.6169    4.5347    0.2243 H   0  0  0  0  0  0  0  0  0  0  0  0
   -4.3628    3.3162   -0.2181 C   0  0  0  0  0  0  0  0  0  0  0  0
   -5.0550    4.1685   -0.2778 H   0  0  0  0  0  0  0  0  0  0  0  0
   -4.8142    2.0071   -0.4514 C   0  0  0  0  0  0  0  0  0  0  0  0
   -5.8628    1.7978   -0.7043 H   0  0  0  0  0  0  0  0  0  0  0  0
   -3.9032    0.9506   -0.3719 C   0  0  0  0  0  0  0  0  0  0  0  0
   -4.2059   -0.0853   -0.5713 H   0  0  0  0  0  0  0  0  0  0  0  0
   -0.7050    2.5200    0.3582 C   0  0  0  0  0  0  0  0  0  0  0  0
    0.0110    3.8113    0.5687 C   0  0  0  0  0  0  0  0  0  0  0  0
   -0.6054    4.5332    1.1355 H   0  0  0  0  0  0  0  0  0  0  0  0
    0.2764    4.2775   -0.4044 H   0  0  0  0  0  0  0  0  0  0  0  0
    0.9591    3.6250    1.1082 H   0  0  0  0  0  0  0  0  0  0  0  0
    1.9849    0.7701   -0.4850 C   0  0  0  0  0  0  0  0  0  0  0  0
    1.4780    0.3746   -1.3916 H   0  0  0  0  0  0  0  0  0  0  0  0
    3.4284    0.6154   -0.3722 C   0  0  0  0  0  0  0  0  0  0  0  0
    4.1221   -0.0088   -1.4367 C   0  0  0  0  0  0  0  0  0  0  0  0
    3.5644   -0.3396   -2.3267 H   0  0  0  0  0  0  0  0  0  0  0  0
    5.5060   -0.1968   -1.3566 C   0  0  0  0  0  0  0  0  0  0  0  0
    6.0526   -0.6791   -2.1827 H   0  0  0  0  0  0  0  0  0  0  0  0
    6.2084    0.2326   -0.2148 C   0  0  0  0  0  0  0  0  0  0  0  0
    5.5191    0.8575    0.8509 C   0  0  0  0  0  0  0  0  0  0  0  0
    6.1055    1.1798    1.7248 H   0  0  0  0  0  0  0  0  0  0  0  0
    4.1434    1.0501    0.7750 C   0  0  0  0  0  0  0  0  0  0  0  0
    3.5917    1.5357    1.5934 H   0  0  0  0  0  0  0  0  0  0  0  0
    7.6858    0.0329   -0.1152 C   0  0  0  0  0  0  0  0  0  0  0  0
    8.1560   -0.4651   -1.0141 H   0  0  0  0  0  0  0  0  0  0  0  0
  2  5  1  0  0  0  0
  3 14  1  0  0  0  0
  3  4  1  0  0  0  0
  5 14  2  0  0  0  0
  6  5  1  0  0  0  0
  6  7  1  0  0  0  0
  8  6  2  0  0  0  0
  9  8  1  0  0  0  0
 10 12  2  0  0  0  0
 10  8  1  0  0  0  0
 11 10  1  0  0  0  0
 12  2  1  0  0  0  0
 13 12  1  0  0  0  0
 14 15  1  0  0  0  0
 15 18  1  0  0  0  0
 15 16  1  0  0  0  0
 17 15  1  0  0  0  0
 19 21  1  0  0  0  0
 19  4  2  0  0  0  0
 20 19  1  0  0  0  0
 21 29  1  0  0  0  0
 22 24  1  0  0  0  0
 22 21  2  0  0  0  0
 23 22  1  0  0  0  0
 24 26  2  0  0  0  0
 25 24  1  0  0  0  0
 26 31  1  0  0  0  0
 26 27  1  0  0  0  0
 27 28  1  0  0  0  0
 29 27  2  0  0  0  0
 29 30  1  0  0  0  0
 31  1  2  0  0  0  0
 32 31  1  0  0  0  0
M  END
