4,5
q = -1.0, confidence = 0.024

 28 28  0  0  0  0  0  0  0  0999 V2000
   -0.8234   -2.6578   -0.4583 O   0  0  0  0  0  1  0  0  0  0  0  0
   -1.5808    2.3942   -0.0998 O   0  0  0  0  0  0  0  0  0  0  0  0
   -8.9398   -0.5807    0.8313 O   0  0  0  0  0  0  0  0  0  0  0  0
   -1.5078    1.0515   -0.2382 N   0  0  0  0  0  2  0  0  0  0  0  0
   -1.1967   -1.4267   -0.3561 N   0  0  0  0  0  2  0  0  0  0  0  0
   -3.8031    1.0744   -0.6820 N   0  0  0  0  0  0  0  0  0  0  0  0
   -2.6290    0.3900   -0.4870 C   0  0  0  0  0  0  0  0  0  0  0  0
   -2.4439   -1.0570   -0.6380 C   0  0  0  0  0  0  0  0  0  0  0  0
   -3.4369   -2.0397   -1.1647 C   0  0  0  0  0  0  0  0  0  0  0  0
   -2.9036   -2.7544   -1.8238 H   0  0  0  0  0  0  0  0  0  0  0  0
   -4.2479   -1.5379   -1.7225 H   0  0  0  0  0  0  0  0  0  0  0  0
   -3.9040   -2.6408   -0.3562 H   0  0  0  0  0  0  0  0  0  0  0  0
   -5.0964    0.6549   -0.3032 C   0  0  0  0  0  0  0  0  0  0  0  0
   -6.2170    1.1987   -0.9587 C   0  0  0  0  0  0  0  0  0  0  0  0
   -6.0639    1.9249   -1.7715 H   0  0  0  0  0  0  0  0  0  0  0  0
   -7.5196    0.8227   -0.5997 C   0  0  0  0  0  0  0  0  0  0  0  0
   -8.3689    1.2724   -1.1308 H   0  0  0  0  0  0  0  0  0  0  0  0
   -7.7215   -0.1331    0.4175 C   0  0  0  0  0  0  0  0  0  0  0  0
   -6.5997   -0.6778    1.0798 C   0  0  0  0  0  0  0  0  0  0  0  0
   -6.7732   -1.4047    1.8864 H   0  0  0  0  0  0  0  0  0  0  0  0
   -5.3079   -0.2789    0.7373 C   0  0  0  0  0  0  0  0  0  0  0  0
   -4.4462   -0.6813    1.2896 H   0  0  0  0  0  0  0  0  0  0  0  0
  -10.0935   -0.0567    0.2048 C   0  0  0  0  0  0  0  0  0  0  0  0
  -10.9615   -0.5454    0.6850 H   0  0  0  0  0  0  0  0  0  0  0  0
  -10.1128   -0.2794   -0.8863 H   0  0  0  0  0  0  0  0  0  0  0  0
  -10.1785    1.0453    0.3428 H   0  0  0  0  0  0  0  0  0  0  0  0
   -3.6477    2.0857   -0.7607 H   0  0  0  0  0  0  0  0  0  0  0  0
   -0.5658    2.6475    0.1459 H   0  0  0  0  0  0  0  0  0  0  0  0
  1  5  1  0  0  0  0
  2 28  1  0  0  0  0
  4  2  1  0  0  0  0
  6  7  1  0  0  0  0
  6 13  1  0  0  0  0
  7  4  1  0  0  0  0
  8  7  2  0  0  0  0
  8  5  1  0  0  0  0
  9  8  1  0  0  0  0
  9 12  1  0  0  0  0
 10  9  1  0  0  0  0
 11  9  1  0  0  0  0
 13 21  1  0  0  0  0
 14 16  1  0  0  0  0
 14 13  2  0  0  0  0
 15 14  1  0  0  0  0
 16 18  2  0  0  0  0
 17 16  1  0  0  0  0
 18  3  1  0  0  0  0
 18 19  1  0  0  0  0
 19 20  1  0  0  0  0
 21 19  2  0  0  0  0
 21 22  1  0  0  0  0
 23 26  1  0  0  0  0
 23 24  1  0  0  0  0
 23  3  1  0  0  0  0
 25 23  1  0  0  0  0
 27  6  1  0  0  0  0
M  END
