1,2
q = -2.0, confidence = 0.848

 31 32  0  0  0  0  0  0  0  0999 V2000
    0.9233    1.0072   -0.2220 N   0  0  0  0  0  0  0  0  0  0  0  0
    0.1920   -1.8927   -0.8831 N   0  0  0  0  0  0  0  0  0  0  0  0
    0.9966   -1.6128    0.2060 C   0  0  0  0  0  3  0  0  0  0  0  0
    1.0375    2.3787   -0.4669 C   0  0  0  0  0  0  0  0  0  0  0  0
    2.3897   -1.0257    0.0336 C   0  0  0  0  0  0  0  0  0  0  0  0
    2.2116    0.4669   -0.1920 C   0  0  0  0  0  3  0  0  0  0  0  0
    0.2967   -1.8655    1.4167 C   0  0  0  0  0  0  0  0  0  0  0  0
    0.6619   -1.7059    2.4372 H   0  0  0  0  0  0  0  0  0  0  0  0
    3.0806   -1.6811   -1.1828 C   0  0  0  0  0  0  0  0  0  0  0  0
    3.2279   -2.7682   -1.0155 H   0  0  0  0  0  0  0  0  0  0  0  0
    4.0704   -1.2136   -1.3525 H   0  0  0  0  0  0  0  0  0  0  0  0
    2.4666   -1.5499   -2.0927 H   0  0  0  0  0  0  0  0  0  0  0  0
   -1.0191   -2.3197   -0.3899 C   0  0  0  0  0  0  0  0  0  0  0  0
    3.1380    1.4806   -0.3947 C   0  0  0  0  0  0  0  0  0  0  0  0
    4.2290    1.3709   -0.4252 H   0  0  0  0  0  0  0  0  0  0  0  0
    2.3900    2.6939   -0.5627 C   0  0  0  0  0  0  0  0  0  0  0  0
    2.7972    3.6972   -0.7426 H   0  0  0  0  0  0  0  0  0  0  0  0
   -0.1489    3.2788   -0.6116 C   0  0  0  0  0  0  0  0  0  0  0  0
   -0.7121    3.0798   -1.5488 H   0  0  0  0  0  0  0  0  0  0  0  0
    0.1804    4.3355   -0.6378 H   0  0  0  0  0  0  0  0  0  0  0  0
   -0.8743    3.1646    0.2213 H   0  0  0  0  0  0  0  0  0  0  0  0
   -1.0023   -2.2953    1.0368 C   0  0  0  0  0  0  0  0  0  0  0  0
   -1.8272   -2.5704    1.7060 H   0  0  0  0  0  0  0  0  0  0  0  0
    3.2322   -1.2705    1.3040 C   0  0  0  0  0  0  0  0  0  0  0  0
    2.7933   -0.7629    2.1855 H   0  0  0  0  0  0  0  0  0  0  0  0
    4.2502   -0.8575    1.1638 H   0  0  0  0  0  0  0  0  0  0  0  0
    3.3231   -2.3543    1.5241 H   0  0  0  0  0  0  0  0  0  0  0  0
   -2.1059   -2.8362   -1.2822 C   0  0  0  0  0  0  0  0  0  0  0  0
   -3.1109   -2.6126   -0.8747 H   0  0  0  0  0  0  0  0  0  0  0  0
   -2.0231   -3.9390   -1.3861 H   0  0  0  0  0  0  0  0  0  0  0  0
   -2.0241   -2.4005   -2.2941 H   0  0  0  0  0  0  0  0  0  0  0  0
  1  6  1  0  0  0  0
  2 13  2  0  0  0  0
  2  3  1  0  0  0  0
  3  7  1  0  0  0  0
  4  1  2  0  0  0  0
  5  3  1  0  0  0  0
  5 24  1  0  0  0  0
  6  5  1  0  0  0  0
  7  8  1  0  0  0  0
  9 10  1  0  0  0  0
  9  5  1  0  0  0  0
 11  9  1  0  0  0  0
 12  9  1  0  0  0  0
 13 22  1  0  0  0  0
 14  6  1  0  0  0  0
 15 14  1  0  0  0  0
 16  4  1  0  0  0  0
 16 14  2  0  0  0  0
 17 16  1  0  0  0  0
 18  4  1  0  0  0  0
 18 21  1  0  0  0  0
 19 18  1  0  0  0  0
 20 18  1  0  0  0  0
 22  7  2  0  0  0  0
 22 23  1  0  0  0  0
 24 27  1  0  0  0  0
 24 25  1  0  0  0  0
 26 24  1  0  0  0  0
 28 29  1  0  0  0  0
 28 13  1  0  0  0  0
 30 28  1  0  0  0  0
 31 28  1  0  0  0  0
M  END
