1,2
q = -2.0, confidence = 0.93

 51 54  0  0  0  0  0  0  0  0999 V2000
    1.2759    1.6663   -0.0598 N   0  0  0  0  0  0  0  0  0  0  0  0
   -1.7078    1.2567    0.0234 N   0  0  0  0  0  0  0  0  0  0  0  0
    1.5278    3.3648   -1.5518 C   0  0  0  0  0  0  0  0  0  0  0  0
    1.3830    4.3120   -2.0826 H   0  0  0  0  0  0  0  0  0  0  0  0
    0.7595    2.8955   -0.4846 C   0  0  0  0  0  3  0  0  0  0  0  0
    2.3729    1.3658   -0.8770 C   0  0  0  0  0  0  0  0  0  0  0  0
    3.1882    0.1680   -0.6682 C   0  0  0  0  0  0  0  0  0  0  0  0
    3.4777   -0.2998    0.6345 C   0  0  0  0  0  0  0  0  0  0  0  0
    3.1289    0.2929    1.4929 H   0  0  0  0  0  0  0  0  0  0  0  0
    4.2295   -1.4634    0.8402 C   0  0  0  0  0  0  0  0  0  0  0  0
    4.4369   -1.8008    1.8692 H   0  0  0  0  0  0  0  0  0  0  0  0
    4.7473   -2.2015   -0.2439 C   0  0  0  0  0  0  0  0  0  0  0  0
    4.4852   -1.7178   -1.5443 C   0  0  0  0  0  0  0  0  0  0  0  0
    4.8774   -2.2716   -2.4129 H   0  0  0  0  0  0  0  0  0  0  0  0
    3.7226   -0.5632   -1.7560 C   0  0  0  0  0  0  0  0  0  0  0  0
    3.5087   -0.2246   -2.7814 H   0  0  0  0  0  0  0  0  0  0  0  0
    5.5812   -3.4394   -0.0280 C   0  0  0  0  0  0  0  0  0  0  0  0
    5.3257   -4.2365   -0.7555 H   0  0  0  0  0  0  0  0  0  0  0  0
    5.4472   -3.8503    0.9918 H   0  0  0  0  0  0  0  0  0  0  0  0
    6.6642   -3.2238   -0.1566 H   0  0  0  0  0  0  0  0  0  0  0  0
    2.5423    2.3969   -1.8055 C   0  0  0  0  0  0  0  0  0  0  0  0
    3.3526    2.4659   -2.5413 H   0  0  0  0  0  0  0  0  0  0  0  0
   -0.4964    3.4919    0.1446 C   0  0  0  0  0  0  0  0  0  0  0  0
   -1.7030    2.6314   -0.2234 C   0  0  0  0  0  3  0  0  0  0  0  0
   -2.8903    0.7201   -0.5083 C   0  0  0  0  0  0  0  0  0  0  0  0
   -3.6311    1.7639   -1.0675 C   0  0  0  0  0  0  0  0  0  0  0  0
   -4.6225    1.6699   -1.5263 H   0  0  0  0  0  0  0  0  0  0  0  0
   -2.8847    2.9668   -0.8836 C   0  0  0  0  0  0  0  0  0  0  0  0
   -3.1799    3.9706   -1.2074 H   0  0  0  0  0  0  0  0  0  0  0  0
   -3.1883   -0.7098   -0.4427 C   0  0  0  0  0  0  0  0  0  0  0  0
   -2.6816   -1.5364    0.5875 C   0  0  0  0  0  0  0  0  0  0  0  0
   -2.1137   -1.0939    1.4205 H   0  0  0  0  0  0  0  0  0  0  0  0
   -2.9197   -2.9179    0.5988 C   0  0  0  0  0  0  0  0  0  0  0  0
   -2.5055   -3.5292    1.4168 H   0  0  0  0  0  0  0  0  0  0  0  0
   -3.6979   -3.5358   -0.3986 C   0  0  0  0  0  0  0  0  0  0  0  0
   -3.9730   -5.0181   -0.3845 C   0  0  0  0  0  0  0  0  0  0  0  0
   -3.3918   -5.5341    0.4044 H   0  0  0  0  0  0  0  0  0  0  0  0
   -3.7191   -5.4885   -1.3573 H   0  0  0  0  0  0  0  0  0  0  0  0
   -5.0482   -5.2290   -0.2004 H   0  0  0  0  0  0  0  0  0  0  0  0
   -4.2315   -2.7075   -1.4118 C   0  0  0  0  0  0  0  0  0  0  0  0
   -4.8428   -3.1591   -2.2099 H   0  0  0  0  0  0  0  0  0  0  0  0
   -3.9810   -1.3332   -1.4394 C   0  0  0  0  0  0  0  0  0  0  0  0
   -4.3753   -0.7222   -2.2652 H   0  0  0  0  0  0  0  0  0  0  0  0
   -0.7143    4.9201   -0.3790 C   0  0  0  0  0  0  0  0  0  0  0  0
    0.1654    5.5514   -0.1475 H   0  0  0  0  0  0  0  0  0  0  0  0
   -1.6031    5.3747    0.1008 H   0  0  0  0  0  0  0  0  0  0  0  0
   -0.8720    4.9298   -1.4745 H   0  0  0  0  0  0  0  0  0  0  0  0
   -0.3223    3.5529    1.6837 C   0  0  0  0  0  0  0  0  0  0  0  0
   -0.0655    2.5607    2.1082 H   0  0  0  0  0  0  0  0  0  0  0  0
   -1.2542    3.9055    2.1692 H   0  0  0  0  0  0  0  0  0  0  0  0
    0.5075    4.2389    1.9473 H   0  0  0  0  0  0  0  0  0  0  0  0
  3  5  1  0  0  0  0
  4  3  1  0  0  0  0
  5  1  1  0  0  0  0
  5 23  1  0  0  0  0
  6  7  1  0  0  0  0
  6  1  2  0  0  0  0
  7  8  1  0  0  0  0
  8 10  2  0  0  0  0
  8  9  1  0  0  0  0
 10 11  1  0  0  0  0
 12 17  1  0  0  0  0
 12 10  1  0  0  0  0
 13 12  2  0  0  0  0
 14 13  1  0  0  0  0
 15 13  1  0  0  0  0
 15  7  2  0  0  0  0
 16 15  1  0  0  0  0
 17 19  1  0  0  0  0
 18 17  1  0  0  0  0
 20 17  1  0  0  0  0
 21  3  2  0  0  0  0
 21  6  1  0  0  0  0
 22 21  1  0  0  0  0
 23 48  1  0  0  0  0
 24  2  1  0  0  0  0
 24 23  1  0  0  0  0
 25 30  1  0  0  0  0
 25  2  2  0  0  0  0
 26 28  2  0  0  0  0
 26 25  1  0  0  0  0
 27 26  1  0  0  0  0
 28 24  1  0  0  0  0
 29 28  1  0  0  0  0
 30 31  1  0  0  0  0
 31 33  2  0  0  0  0
 31 32  1  0  0  0  0
 33 34  1  0  0  0  0
 35 36  1  0  0  0  0
 35 33  1  0  0  0  0
 36 39  1  0  0  0  0
 36 37  1  0  0  0  0
 38 36  1  0  0  0  0
 40 35  2  0  0  0  0
 41 40  1  0  0  0  0
 42 40  1  0  0  0  0
 42 30  2  0  0  0  0
 43 42  1  0  0  0  0
 44 45  1  0  0  0  0
 44 46  1  0  0  0  0
 44 23  1  0  0  0  0
 47 44  1  0  0  0  0
 48 51  1  0  0  0  0
 48 49  1  0  0  0  0
 48 50  1  0  0  0  0
M  END
