2,3
q = 0.0, confidence = 0.986

 26 27  0  0  0  0  0  0  0  0999 V2000
    2.7739   -1.9328    0.6454 S   0  0  0  0  0  0  0  0  0  0  0  0
   -0.8636    1.2955    0.5554 N   0  0  0  0  0  2  0  0  0  0  0  0
    1.3002    0.4226    1.8907 N   0  0  0  0  0  2  0  0  0  0  0  0
    2.4635    0.0777    2.4192 N   0  0  0  0  0  0  0  0  0  0  0  0
    2.7793    0.5527    3.2795 H   0  0  0  0  0  0  0  0  0  0  0  0
    4.4879   -1.0055    2.4711 N   0  0  0  0  0  0  0  0  0  0  0  0
    4.8730   -0.2561    3.0500 H   0  0  0  0  0  0  0  0  0  0  0  0
    5.1317   -1.7120    2.1147 H   0  0  0  0  0  0  0  0  0  0  0  0
   -2.0298    1.5887   -0.1109 C   0  0  0  0  0  0  0  0  0  0  0  0
   -2.1889    1.2124   -1.4722 C   0  0  0  0  0  0  0  0  0  0  0  0
   -1.3506    0.7140   -1.9782 H   0  0  0  0  0  0  0  0  0  0  0  0
   -3.3764    1.4857   -2.1352 C   0  0  0  0  0  0  0  0  0  0  0  0
   -3.4898    1.1894   -3.1886 H   0  0  0  0  0  0  0  0  0  0  0  0
   -4.4431    2.1531   -1.4764 C   0  0  0  0  0  0  0  0  0  0  0  0
   -5.3753    2.3623   -2.0210 H   0  0  0  0  0  0  0  0  0  0  0  0
   -4.3027    2.5535   -0.1557 C   0  0  0  0  0  3  0  0  0  0  0  0
   -5.1162    3.0851    0.3607 H   0  0  0  0  0  0  0  0  0  0  0  0
   -3.0999    2.2887    0.5563 C   0  0  0  0  0  0  0  0  0  0  0  0
   -2.8944    2.7024    1.9029 C   0  0  0  0  0  0  0  0  0  0  0  0
   -3.6925    3.2496    2.4271 H   0  0  0  0  0  0  0  0  0  0  0  0
   -1.7007    2.4159    2.5363 C   0  0  0  0  0  0  0  0  0  0  0  0
   -1.5149    2.7205    3.5760 H   0  0  0  0  0  0  0  0  0  0  0  0
   -0.6981    1.6848    1.8388 C   0  0  0  0  0  0  0  0  0  0  0  0
    0.5310    1.2815    2.5013 C   0  0  0  0  0  3  0  0  0  0  0  0
    0.7742    1.7130    3.4928 H   0  0  0  0  0  0  0  0  0  0  0  0
    3.2724   -0.9271    1.8643 C   0  0  0  0  0  0  0  0  0  0  0  0
  1 26  2  0  0  0  0
  2 23  1  0  0  0  0
  3  4  1  0  0  0  0
  3 24  1  0  0  0  0
  4  5  1  0  0  0  0
  6  7  1  0  0  0  0
  8  6  1  0  0  0  0
  9  2  1  0  0  0  0
  9 18  1  0  0  0  0
 10  9  2  0  0  0  0
 11 10  1  0  0  0  0
 12 14  2  0  0  0  0
 12 10  1  0  0  0  0
 13 12  1  0  0  0  0
 14 16  1  0  0  0  0
 15 14  1  0  0  0  0
 16 17  1  0  0  0  0
 16 18  1  0  0  0  0
 18 19  2  0  0  0  0
 19 20  1  0  0  0  0
 19 21  1  0  0  0  0
 21 22  1  0  0  0  0
 23 24  1  0  0  0  0
 23 21  2  0  0  0  0
 24 25  1  0  0  0  0
 26  4  1  0  0  0  0
 26  6  1  0  0  0  0
M  END
