2,3
q = 0.0, confidence = 0.97

 11 10  0  0  1  0  0  0  0  0999 V2000
    2.6954    0.0040   -1.1472 O   0  0  0  0  0  0  0  0  0  0  0  0
    1.7899   -0.0030    0.9443 N   0  0  0  0  0  2  0  0  0  0  0  0
    1.2971    0.0075   -1.5655 N   0  0  0  0  0  0  0  0  0  0  0  0
    2.8407   -0.0007    0.1929 C   0  0  1  0  0  3  0  0  0  0  0  0
    4.2677   -0.0033    0.6158 C   0  0  0  0  0  0  0  0  0  0  0  0
    1.9611   -0.0066    1.9546 H   0  0  0  0  0  0  0  0  0  0  0  0
    1.2172    0.8662   -2.1420 H   0  0  0  0  0  0  0  0  0  0  0  0
    1.2173   -0.8421   -2.1551 H   0  0  0  0  0  0  0  0  0  0  0  0
    4.7787   -0.8978    0.2067 H   0  0  0  0  0  0  0  0  0  0  0  0
    4.3495   -0.0055    1.7170 H   0  0  0  0  0  0  0  0  0  0  0  0
    4.7812    0.8912    0.2099 H   0  0  0  0  0  0  0  0  0  0  0  0
  2  6  1  0  0  0  0
  3  1  1  0  0  0  0
  4  1  1  6  0  0  0
  4  5  1  0  0  0  0
  4  2  1  0  0  0  0
  5 10  1  0  0  0  0
  7  3  1  0  0  0  0
  8  3  1  0  0  0  0
  9  5  1  0  0  0  0
 11  5  1  0  0  0  0
M  END
