1,3
q = 0.0, confidence = 0.994

 59 61  0  0  1  0  0  0  0  0999 V2000
   -3.8094    0.8907   -0.0199 N   0  0  0  0  0  2  0  0  0  0  0  0
   -4.9234    1.6842   -0.1180 N   0  0  1  0  0  0  0  0  0  0  0  0
   -6.1517   -0.2677   -0.4179 N   0  0  0  0  0  2  0  0  0  0  0  0
   -4.5994    3.0053    0.0834 C   0  0  0  0  0  3  0  0  0  0  0  0
   -5.3518    3.7982    0.0353 H   0  0  0  0  0  0  0  0  0  0  0  0
   -3.2396    3.0598    0.3112 C   0  0  0  0  0  0  0  0  0  0  0  0
   -2.6343    3.9565    0.4746 H   0  0  0  0  0  0  0  0  0  0  0  0
   -2.7632    1.7125    0.2181 C   0  0  0  0  0  0  0  0  0  0  0  0
   -6.1596    1.0877   -0.3994 C   0  0  2  0  0  3  0  0  0  0  0  0
   -7.3199    1.8395   -0.6535 C   0  0  0  0  0  0  0  0  0  0  0  0
   -7.2971    2.9365   -0.6363 H   0  0  0  0  0  0  0  0  0  0  0  0
   -8.5013    1.1518   -0.9413 C   0  0  0  0  0  0  0  0  0  0  0  0
   -9.4243    1.7133   -1.1463 H   0  0  0  0  0  0  0  0  0  0  0  0
   -8.4953   -0.2533   -0.9745 C   0  0  0  0  0  0  0  0  0  0  0  0
   -9.4040   -0.8262   -1.2039 H   0  0  0  0  0  0  0  0  0  0  0  0
   -7.3002   -0.9219   -0.7072 C   0  0  0  0  0  0  0  0  0  0  0  0
   -7.2403   -2.0190   -0.7166 H   0  0  0  0  0  0  0  0  0  0  0  0
   -1.3809    1.2496    0.2959 C   0  0  0  0  0  0  0  0  0  0  0  0
   -0.4773    1.8416    1.2152 C   0  0  0  0  0  0  0  0  0  0  0  0
   -0.8314    2.6241    1.9031 H   0  0  0  0  0  0  0  0  0  0  0  0
    0.8459    1.4204    1.2836 C   0  0  0  0  0  0  0  0  0  0  0  0
    1.5505    1.8599    2.0037 H   0  0  0  0  0  0  0  0  0  0  0  0
    1.3222    0.4039    0.4169 C   0  0  0  0  0  0  0  0  0  0  0  0
    0.4355   -0.1756   -0.5231 C   0  0  0  0  0  0  0  0  0  0  0  0
    0.7862   -0.9391   -1.2293 H   0  0  0  0  0  0  0  0  0  0  0  0
   -0.8956    0.2491   -0.5743 C   0  0  0  0  0  0  0  0  0  0  0  0
   -1.5706   -0.1794   -1.3297 H   0  0  0  0  0  0  0  0  0  0  0  0
    2.6154    0.0699    0.5550 O   0  0  0  0  0  0  0  0  0  0  0  0
    3.1906   -0.9387   -0.2935 C   0  0  0  0  0  0  0  0  0  0  0  0
    3.0652   -0.6348   -1.3582 H   0  0  0  0  0  0  0  0  0  0  0  0
    2.6463   -1.8979   -0.1410 H   0  0  0  0  0  0  0  0  0  0  0  0
    4.6609   -1.0764    0.0606 C   0  0  0  0  0  0  0  0  0  0  0  0
    4.7428   -1.3660    1.1307 H   0  0  0  0  0  0  0  0  0  0  0  0
    5.0641   -1.9327   -0.5224 H   0  0  0  0  0  0  0  0  0  0  0  0
    5.4883    0.1831   -0.2100 C   0  0  0  0  0  0  0  0  0  0  0  0
    5.0420    1.0358    0.3461 H   0  0  0  0  0  0  0  0  0  0  0  0
    5.4092    0.4491   -1.2886 H   0  0  0  0  0  0  0  0  0  0  0  0
    6.9630    0.0357    0.1719 C   0  0  0  0  0  0  0  0  0  0  0  0
    7.0388   -0.2269    1.2516 H   0  0  0  0  0  0  0  0  0  0  0  0
    7.3962   -0.8289   -0.3776 H   0  0  0  0  0  0  0  0  0  0  0  0
    7.7900    1.2969   -0.0995 C   0  0  0  0  0  0  0  0  0  0  0  0
    7.3109    2.1548    0.4219 H   0  0  0  0  0  0  0  0  0  0  0  0
    7.7395    1.5394   -1.1855 H   0  0  0  0  0  0  0  0  0  0  0  0
    9.2598    1.2063    0.3309 C   0  0  0  0  0  0  0  0  0  0  0  0
    9.7288    2.2079    0.2156 H   0  0  0  0  0  0  0  0  0  0  0  0
    9.3102    0.9771    1.4197 H   0  0  0  0  0  0  0  0  0  0  0  0
   10.0966    0.1801   -0.4404 C   0  0  0  0  0  0  0  0  0  0  0  0
   10.0164    0.3893   -1.5318 H   0  0  0  0  0  0  0  0  0  0  0  0
    9.6745   -0.8399   -0.2998 H   0  0  0  0  0  0  0  0  0  0  0  0
   11.5728    0.1639   -0.0350 C   0  0  0  0  0  0  0  0  0  0  0  0
   12.0060    1.1795   -0.1816 H   0  0  0  0  0  0  0  0  0  0  0  0
   11.6515   -0.0365    1.0579 H   0  0  0  0  0  0  0  0  0  0  0  0
   12.4163   -0.8612   -0.7990 C   0  0  0  0  0  0  0  0  0  0  0  0
   12.3331   -0.6593   -1.8904 H   0  0  0  0  0  0  0  0  0  0  0  0
   11.9803   -1.8745   -0.6499 H   0  0  0  0  0  0  0  0  0  0  0  0
   13.8887   -0.8683   -0.3872 C   0  0  0  0  0  0  0  0  0  0  0  0
   14.3603    0.1217   -0.5598 H   0  0  0  0  0  0  0  0  0  0  0  0
   14.4719   -1.6193   -0.9568 H   0  0  0  0  0  0  0  0  0  0  0  0
   14.0047   -1.1032    0.6916 H   0  0  0  0  0  0  0  0  0  0  0  0
  1  8  1  0  0  0  0
  2  1  1  6  0  0  0
  2  4  1  0  0  0  0
  3  9  1  0  0  0  0
  4  6  1  0  0  0  0
  5  4  1  0  0  0  0
  6  7  1  0  0  0  0
  8 18  1  0  0  0  0
  8  6  2  0  0  0  0
  9 10  1  6  0  0  0
  9  2  1  0  0  0  0
 10 11  1  0  0  0  0
 12 10  2  0  0  0  0
 13 12  1  0  0  0  0
 14 12  1  0  0  0  0
 14 16  2  0  0  0  0
 15 14  1  0  0  0  0
 16  3  1  0  0  0  0
 17 16  1  0  0  0  0
 18 19  1  0  0  0  0
 19 21  2  0  0  0  0
 19 20  1  0  0  0  0
 21 22  1  0  0  0  0
 23 28  1  0  0  0  0
 23 21  1  0  0  0  0
 24 23  2  0  0  0  0
 25 24  1  0  0  0  0
 26 24  1  0  0  0  0
 26 18  2  0  0  0  0
 27 26  1  0  0  0  0
 29 31  1  0  0  0  0
 29 32  1  0  0  0  0
 29 28  1  0  0  0  0
 30 29  1  0  0  0  0
 32 33  1  0  0  0  0
 34 32  1  0  0  0  0
 35 32  1  0  0  0  0
 35 38  1  0  0  0  0
 35 36  1  0  0  0  0
 37 35  1  0  0  0  0
 38 39  1  0  0  0  0
 40 38  1  0  0  0  0
 41 38  1  0  0  0  0
 41 44  1  0  0  0  0
 41 42  1  0  0  0  0
 43 41  1  0  0  0  0
 44 46  1  0  0  0  0
 45 44  1  0  0  0  0
 47 49  1  0  0  0  0
 47 50  1  0  0  0  0
 47 44  1  0  0  0  0
 48 47  1  0  0  0  0
 50 52  1  0  0  0  0
 51 50  1  0  0  0  0
 53 55  1  0  0  0  0
 53 56  1  0  0  0  0
 53 50  1  0  0  0  0
 54 53  1  0  0  0  0
 56 59  1  0  0  0  0
 57 56  1  0  0  0  0
 58 56  1  0  0  0  0
M  END
