1,2
q = 0.0, confidence = 0.998

 42 44  0  0  0  0  0  0  0  0999 V2000
    0.5808   -1.2501   -1.0490 N   0  0  0  0  0  2  0  0  0  0  0  0
    0.1721    1.4906   -0.6847 N   0  0  0  0  0  2  0  0  0  0  0  0
   -5.4461    0.4541    1.1667 N   0  0  0  0  0  0  0  0  0  0  0  0
   -0.8811   -2.5085   -2.2011 O   0  0  0  0  0  0  0  0  0  0  0  0
   -6.2483   -0.3770    1.5866 O   0  0  0  0  0  0  0  0  0  0  0  0
   -5.5952    1.6743    1.1975 O   0  0  0  0  0  0  0  0  0  0  0  0
   -1.6168    2.4168   -1.6890 O   0  0  0  0  0  0  0  0  0  0  0  0
    2.2249   -3.1067   -1.0722 C   0  0  0  0  0  0  0  0  0  0  0  0
    2.8894   -2.5931   -0.3535 H   0  0  0  0  0  0  0  0  0  0  0  0
    2.8303   -3.7563   -1.7358 H   0  0  0  0  0  0  0  0  0  0  0  0
    1.5173   -3.7344   -0.4964 H   0  0  0  0  0  0  0  0  0  0  0  0
    2.4203   -1.1718   -2.6930 C   0  0  0  0  0  0  0  0  0  0  0  0
    1.8614   -0.4351   -3.3038 H   0  0  0  0  0  0  0  0  0  0  0  0
    3.0666   -1.7715   -3.3648 H   0  0  0  0  0  0  0  0  0  0  0  0
    3.0652   -0.6184   -1.9812 H   0  0  0  0  0  0  0  0  0  0  0  0
    1.4622   -2.0818   -1.9210 C   0  0  0  0  0  0  0  0  0  0  0  0
    0.4027   -2.7730   -2.8308 C   0  0  0  0  0  0  0  0  0  0  0  0
    0.3663   -2.3414   -3.8530 H   0  0  0  0  0  0  0  0  0  0  0  0
    0.5314   -3.8697   -2.8984 H   0  0  0  0  0  0  0  0  0  0  0  0
   -0.6525   -1.5697   -1.2623 C   0  0  0  0  0  0  0  0  0  0  0  0
   -1.8347   -1.0153   -0.5758 C   0  0  0  0  0  0  0  0  0  0  0  0
   -2.8004   -1.9138   -0.0836 C   0  0  0  0  0  0  0  0  0  0  0  0
   -2.6060   -2.9920   -0.1546 H   0  0  0  0  0  0  0  0  0  0  0  0
   -3.9755   -1.4444    0.5087 C   0  0  0  0  0  0  0  0  0  0  0  0
   -4.7360   -2.1210    0.9197 H   0  0  0  0  0  0  0  0  0  0  0  0
   -4.1865   -0.0624    0.5661 C   0  0  0  0  0  0  0  0  0  0  0  0
   -3.2581    0.8552    0.0703 C   0  0  0  0  0  0  0  0  0  0  0  0
   -3.4787    1.9284    0.1312 H   0  0  0  0  0  0  0  0  0  0  0  0
   -2.0552    0.3841   -0.4852 C   0  0  0  0  0  0  0  0  0  0  0  0
   -1.0940    1.4031   -0.9659 C   0  0  0  0  0  0  0  0  0  0  0  0
   -0.4791    3.2093   -2.1315 C   0  0  0  0  0  0  0  0  0  0  0  0
   -0.7661    4.2762   -2.0923 H   0  0  0  0  0  0  0  0  0  0  0  0
   -0.2570    2.9170   -3.1805 H   0  0  0  0  0  0  0  0  0  0  0  0
    0.6589    2.8305   -1.1556 C   0  0  0  0  0  0  0  0  0  0  0  0
    0.6781    3.7743    0.0573 C   0  0  0  0  0  0  0  0  0  0  0  0
    1.2935    3.3399    0.8652 H   0  0  0  0  0  0  0  0  0  0  0  0
   -0.3469    3.9202    0.4546 H   0  0  0  0  0  0  0  0  0  0  0  0
    1.0860    4.7613   -0.2390 H   0  0  0  0  0  0  0  0  0  0  0  0
    2.0255    2.7155   -1.8234 C   0  0  0  0  0  0  0  0  0  0  0  0
    2.7728    2.3293   -1.0982 H   0  0  0  0  0  0  0  0  0  0  0  0
    2.3557    3.7099   -2.1855 H   0  0  0  0  0  0  0  0  0  0  0  0
    1.9846    2.0237   -2.6881 H   0  0  0  0  0  0  0  0  0  0  0  0
  3  6  2  0  0  0  0
  3  5  2  0  0  0  0
  4 20  1  0  0  0  0
  7 30  1  0  0  0  0
  8 11  1  0  0  0  0
  8  9  1  0  0  0  0
 10  8  1  0  0  0  0
 12 15  1  0  0  0  0
 12 16  1  0  0  0  0
 13 12  1  0  0  0  0
 14 12  1  0  0  0  0
 16  8  1  0  0  0  0
 16  1  1  0  0  0  0
 17  4  1  0  0  0  0
 17 16  1  0  0  0  0
 18 17  1  0  0  0  0
 19 17  1  0  0  0  0
 20  1  1  0  0  0  0
 20 21  2  0  0  0  0
 21 29  1  0  0  0  0
 21 22  1  0  0  0  0
 22 24  2  0  0  0  0
 23 22  1  0  0  0  0
 24 26  1  0  0  0  0
 24 25  1  0  0  0  0
 26  3  1  0  0  0  0
 27 28  1  0  0  0  0
 27 26  2  0  0  0  0
 29 27  1  0  0  0  0
 30  2  1  0  0  0  0
 30 29  2  0  0  0  0
 31 32  1  0  0  0  0
 31  7  1  0  0  0  0
 31 34  1  0  0  0  0
 33 31  1  0  0  0  0
 34  2  1  0  0  0  0
 34 35  1  0  0  0  0
 35 37  1  0  0  0  0
 35 36  1  0  0  0  0
 38 35  1  0  0  0  0
 39 34  1  0  0  0  0
 39 40  1  0  0  0  0
 41 39  1  0  0  0  0
 42 39  1  0  0  0  0
M  END
