1,5
q = -1.0

 62 63  0  0  0  0  0  0  0  0999 V2000
   -2.1608   -0.9757   -0.0064 N   0  0  0  0  0  2  0  0  0  0  0  0
   -2.2236   -0.1912   -1.4660 S   0  0  2  0  0  3  0  0  0  0  0  0
   -0.8700   -0.2939   -2.4617 N   0  0  0  0  0  0  0  0  0  0  0  0
    0.3679   -0.2296   -1.9400 C   0  0  0  0  0  0  0  0  0  0  0  0
    0.6837   -0.1635   -0.6412 N   0  0  0  0  0  2  0  0  0  0  0  0
   -2.8403   -2.2955    0.0621 C   0  0  0  0  0  0  0  0  0  0  0  0
   -2.0907   -3.3411   -0.7879 C   0  0  0  0  0  0  0  0  0  0  0  0
   -1.0381   -3.4275   -0.4489 H   0  0  0  0  0  0  0  0  0  0  0  0
   -2.0753   -3.0397   -1.8556 H   0  0  0  0  0  0  0  0  0  0  0  0
   -2.5627   -4.3426   -0.7156 H   0  0  0  0  0  0  0  0  0  0  0  0
   -2.7935   -2.6987    1.5450 C   0  0  0  0  0  0  0  0  0  0  0  0
   -3.3015   -1.9396    2.1728 H   0  0  0  0  0  0  0  0  0  0  0  0
   -1.7461   -2.7862    1.9006 H   0  0  0  0  0  0  0  0  0  0  0  0
   -3.2910   -3.6769    1.6995 H   0  0  0  0  0  0  0  0  0  0  0  0
   -4.3077   -2.1895   -0.3924 C   0  0  0  0  0  0  0  0  0  0  0  0
   -4.8445   -1.4300    0.2107 H   0  0  0  0  0  0  0  0  0  0  0  0
   -4.8267   -3.1620   -0.2751 H   0  0  0  0  0  0  0  0  0  0  0  0
   -4.3809   -1.8969   -1.4592 H   0  0  0  0  0  0  0  0  0  0  0  0
   -2.0843    1.5305   -0.8554 C   0  0  0  0  0  0  0  0  0  0  0  0
   -2.5328    1.8600    0.4328 C   0  0  0  0  0  0  0  0  0  0  0  0
   -2.9452    1.0710    1.0783 H   0  0  0  0  0  0  0  0  0  0  0  0
   -2.4198    3.1884    0.8762 C   0  0  0  0  0  0  0  0  0  0  0  0
   -2.7460    3.4476    1.8948 H   0  0  0  0  0  0  0  0  0  0  0  0
   -1.8935    4.1752    0.0289 C   0  0  0  0  0  0  0  0  0  0  0  0
   -1.8069    5.2142    0.3805 H   0  0  0  0  0  0  0  0  0  0  0  0
   -1.4786    3.8357   -1.2704 C   0  0  0  0  0  0  0  0  0  0  0  0
   -1.0685    4.6079   -1.9387 H   0  0  0  0  0  0  0  0  0  0  0  0
   -1.5714    2.5111   -1.7206 C   0  0  0  0  0  0  0  0  0  0  0  0
   -1.2272    2.2225   -2.7239 H   0  0  0  0  0  0  0  0  0  0  0  0
    1.4612   -0.2158   -2.9885 C   0  0  0  0  0  0  0  0  0  0  0  0
    2.0748    0.7016   -2.8826 H   0  0  0  0  0  0  0  0  0  0  0  0
    1.0079   -0.2523   -3.9939 H   0  0  0  0  0  0  0  0  0  0  0  0
    2.1515   -1.0727   -2.8596 H   0  0  0  0  0  0  0  0  0  0  0  0
    2.0500   -0.0734   -0.2378 C   0  0  0  0  0  0  0  0  0  0  0  0
    2.5781    1.1919    0.1351 C   0  0  0  0  0  0  0  0  0  0  0  0
    3.9068    1.2594    0.5940 C   0  0  0  0  0  0  0  0  0  0  0  0
    4.3275    2.2359    0.8813 H   0  0  0  0  0  0  0  0  0  0  0  0
    4.6979    0.1093    0.6949 C   0  0  0  0  0  0  0  0  0  0  0  0
    5.7357    0.1804    1.0546 H   0  0  0  0  0  0  0  0  0  0  0  0
    4.1587   -1.1362    0.3464 C   0  0  0  0  0  0  0  0  0  0  0  0
    4.7793   -2.0399    0.4438 H   0  0  0  0  0  0  0  0  0  0  0  0
    2.8364   -1.2543   -0.1177 C   0  0  0  0  0  0  0  0  0  0  0  0
    1.7269    2.4526    0.0548 C   0  0  0  0  0  0  0  0  0  0  0  0
    0.7184    2.1403   -0.2790 H   0  0  0  0  0  0  0  0  0  0  0  0
    1.5650    3.1207    1.4298 C   0  0  0  0  0  0  0  0  0  0  0  0
    1.1370    2.4137    2.1675 H   0  0  0  0  0  0  0  0  0  0  0  0
    0.8846    3.9939    1.3582 H   0  0  0  0  0  0  0  0  0  0  0  0
    2.5362    3.4807    1.8291 H   0  0  0  0  0  0  0  0  0  0  0  0
    2.2711    3.4403   -0.9899 C   0  0  0  0  0  0  0  0  0  0  0  0
    2.3443    2.9715   -1.9923 H   0  0  0  0  0  0  0  0  0  0  0  0
    3.2836    3.8047   -0.7170 H   0  0  0  0  0  0  0  0  0  0  0  0
    1.6065    4.3248   -1.0755 H   0  0  0  0  0  0  0  0  0  0  0  0
    2.2343   -2.6257   -0.4078 C   0  0  0  0  0  0  0  0  0  0  0  0
    1.3552   -2.4720   -1.0662 H   0  0  0  0  0  0  0  0  0  0  0  0
    3.1930   -3.5757   -1.1380 C   0  0  0  0  0  0  0  0  0  0  0  0
    3.5922   -3.1175   -2.0656 H   0  0  0  0  0  0  0  0  0  0  0  0
    2.6710   -4.5138   -1.4159 H   0  0  0  0  0  0  0  0  0  0  0  0
    4.0586   -3.8607   -0.5051 H   0  0  0  0  0  0  0  0  0  0  0  0
    1.7101   -3.2557    0.8960 C   0  0  0  0  0  0  0  0  0  0  0  0
    0.9815   -2.5873    1.4009 H   0  0  0  0  0  0  0  0  0  0  0  0
    2.5391   -3.4297    1.6128 H   0  0  0  0  0  0  0  0  0  0  0  0
    1.2095   -4.2268    0.7009 H   0  0  0  0  0  0  0  0  0  0  0  0
  1  6  1  0  0  0  0
  2  3  1  6  0  0  0
  2 19  1  0  0  0  0
  2  1  1  0  0  0  0
  3  4  2  0  0  0  0
  4  5  1  0  0  0  0
  5 34  1  0  0  0  0
  6 11  1  0  0  0  0
  7 10  1  0  0  0  0
  7  8  1  0  0  0  0
  7  6  1  0  0  0  0
  9  7  1  0  0  0  0
 11 14  1  0  0  0  0
 11 13  1  0  0  0  0
 11 12  1  0  0  0  0
 15 17  1  0  0  0  0
 15  6  1  0  0  0  0
 15 16  1  0  0  0  0
 18 15  1  0  0  0  0
 19 20  1  0  0  0  0
 20 22  2  0  0  0  0
 20 21  1  0  0  0  0
 22 23  1  0  0  0  0
 24 25  1  0  0  0  0
 24 22  1  0  0  0  0
 26 24  2  0  0  0  0
 27 26  1  0  0  0  0
 28 26  1  0  0  0  0
 28 19  2  0  0  0  0
 29 28  1  0  0  0  0
 30 31  1  0  0  0  0
 30 33  1  0  0  0  0
 30  4  1  0  0  0  0
 32 30  1  0  0  0  0
 34 42  2  0  0  0  0
 34 35  1  0  0  0  0
 35 36  2  0  0  0  0
 36 38  1  0  0  0  0
 36 37  1  0  0  0  0
 38 39  1  0  0  0  0
 40 41  1  0  0  0  0
 40 38  2  0  0  0  0
 42 40  1  0  0  0  0
 43 35  1  0  0  0  0
 43 45  1  0  0  0  0
 44 43  1  0  0  0  0
 45 48  1  0  0  0  0
 45 46  1  0  0  0  0
 47 45  1  0  0  0  0
 49 51  1  0  0  0  0
 49 43  1  0  0  0  0
 50 49  1  0  0  0  0
 52 49  1  0  0  0  0
 53 42  1  0  0  0  0
 53 59  1  0  0  0  0
 54 53  1  0  0  0  0
 55 58  1  0  0  0  0
 55 53  1  0  0  0  0
 56 55  1  0  0  0  0
 57 55  1  0  0  0  0
 59 60  1  0  0  0  0
 59 61  1  0  0  0  0
 62 59  1  0  0  0  0
M  END
