2,3
q = 0.0, confidence = 0.998

 24 26  0  0  1  0  0  0  0  0999 V2000
   -0.5470   -4.2991    1.8125 S   0  0  0  0  0  0  0  0  0  0  0  0
   -0.2622   -1.9295    0.8739 N   0  0  0  0  0  2  0  0  0  0  0  0
    1.6600   -0.4543   -0.2555 N   0  0  0  0  0  2  0  0  0  0  0  0
    3.3596   -1.9040    0.0303 N   0  0  0  0  0  0  0  0  0  0  0  0
   -1.1665   -2.7423    1.3829 C   0  0  0  0  0  3  0  0  0  0  0  0
   -2.2183   -2.4548    1.5236 H   0  0  0  0  0  0  0  0  0  0  0  0
    1.0243   -3.8266    1.2669 C   0  0  0  0  0  0  0  0  0  0  0  0
    1.8595   -4.5316    1.3149 H   0  0  0  0  0  0  0  0  0  0  0  0
    0.9983   -2.5239    0.7909 C   0  0  0  0  0  0  0  0  0  0  0  0
    2.0157   -1.6667    0.2060 C   0  0  2  0  0  3  0  0  0  0  0  0
    3.8941   -0.7722   -0.5844 C   0  0  0  0  0  0  0  0  0  0  0  0
    2.8066    0.1365   -0.7558 C   0  0  0  0  0  0  0  0  0  0  0  0
    3.0042    1.3958   -1.3575 C   0  0  0  0  0  0  0  0  0  0  0  0
    2.1640    2.0908   -1.4895 H   0  0  0  0  0  0  0  0  0  0  0  0
    4.3016    1.7070   -1.7701 C   0  0  0  0  0  0  0  0  0  0  0  0
    4.4968    2.6802   -2.2435 H   0  0  0  0  0  0  0  0  0  0  0  0
    5.3778    0.7992   -1.5949 C   0  0  0  0  0  0  0  0  0  0  0  0
    6.3827    1.0874   -1.9363 H   0  0  0  0  0  0  0  0  0  0  0  0
    5.1971   -0.4553   -1.0018 C   0  0  0  0  0  0  0  0  0  0  0  0
    6.0407   -1.1489   -0.8773 H   0  0  0  0  0  0  0  0  0  0  0  0
    4.0916   -3.0974    0.4149 C   0  0  0  0  0  0  0  0  0  0  0  0
    3.9488   -3.3145    1.4919 H   0  0  0  0  0  0  0  0  0  0  0  0
    5.1686   -2.9292    0.2407 H   0  0  0  0  0  0  0  0  0  0  0  0
    3.7753   -3.9738   -0.1865 H   0  0  0  0  0  0  0  0  0  0  0  0
  2  5  1  0  0  0  0
  3 10  1  0  0  0  0
  4 10  1  0  0  0  0
  4 21  1  0  0  0  0
  5  6  1  0  0  0  0
  5  1  1  0  0  0  0
  7  8  1  0  0  0  0
  7  1  1  0  0  0  0
  9  2  1  0  0  0  0
  9  7  2  0  0  0  0
 10  9  1  6  0  0  0
 11  4  1  0  0  0  0
 12 11  1  0  0  0  0
 12  3  1  0  0  0  0
 13 12  2  0  0  0  0
 14 13  1  0  0  0  0
 15 17  2  0  0  0  0
 15 13  1  0  0  0  0
 16 15  1  0  0  0  0
 17 19  1  0  0  0  0
 18 17  1  0  0  0  0
 19 20  1  0  0  0  0
 19 11  2  0  0  0  0
 21 22  1  0  0  0  0
 23 21  1  0  0  0  0
 24 21  1  0  0  0  0
M  END
