4,5
q = -1.0

 37 38  0  0  1  0  0  0  0  0999 V2000
    1.4906   -0.3290   -1.3946 S   0  0  0  0  0  0  0  0  0  0  0  0
    0.8748   -1.6580   -1.6540 O   0  0  0  0  0  0  0  0  0  0  0  0
    1.8855    0.5117   -2.5571 O   0  0  0  0  0  0  0  0  0  0  0  0
    0.5714    0.5070   -0.2817 N   0  0  0  0  0  2  0  0  0  0  0  0
   -1.5483    2.0552    0.2954 N   0  0  0  0  0  0  0  0  0  0  0  0
    0.7754    1.9684   -0.3506 C   0  0  1  0  0  0  0  0  0  0  0  0
   -0.2151    2.5983    0.6317 C   0  0  1  0  0  0  0  0  0  0  0  0
    2.1985    2.4512   -0.0205 C   0  0  0  0  0  0  0  0  0  0  0  0
    2.2791    3.9828   -0.0411 C   0  0  0  0  0  0  0  0  0  0  0  0
    1.2641    4.6205    0.9147 C   0  0  0  0  0  0  0  0  0  0  0  0
   -0.1571    4.1281    0.6119 C   0  0  0  0  0  0  0  0  0  0  0  0
    3.0314   -0.6890   -0.5092 C   0  0  0  0  0  0  0  0  0  0  0  0
    3.0580   -0.8469    0.8822 C   0  0  0  0  0  0  0  0  0  0  0  0
    4.2615   -1.1924    1.5146 C   0  0  0  0  0  0  0  0  0  0  0  0
    5.4458   -1.3861    0.7754 C   0  0  0  0  0  0  0  0  0  0  0  0
    5.3918   -1.2124   -0.6252 C   0  0  0  0  0  0  0  0  0  0  0  0
    4.1992   -0.8641   -1.2695 C   0  0  0  0  0  0  0  0  0  0  0  0
    6.7394   -1.7652    1.4511 C   0  0  0  0  0  0  0  0  0  0  0  0
    0.5161    2.3407   -1.3724 H   0  0  0  0  0  0  0  0  0  0  0  0
    0.0329    2.2267    1.6510 H   0  0  0  0  0  0  0  0  0  0  0  0
    2.4896    2.0614    0.9792 H   0  0  0  0  0  0  0  0  0  0  0  0
    2.9070    2.0247   -0.7554 H   0  0  0  0  0  0  0  0  0  0  0  0
    3.3077    4.3112    0.2144 H   0  0  0  0  0  0  0  0  0  0  0  0
    2.0846    4.3432   -1.0754 H   0  0  0  0  0  0  0  0  0  0  0  0
    1.5261    4.3527    1.9628 H   0  0  0  0  0  0  0  0  0  0  0  0
    1.3039    5.7279    0.8551 H   0  0  0  0  0  0  0  0  0  0  0  0
   -0.4701    4.4829   -0.3955 H   0  0  0  0  0  0  0  0  0  0  0  0
   -0.8858    4.5447    1.3412 H   0  0  0  0  0  0  0  0  0  0  0  0
    2.1372   -0.6677    1.4553 H   0  0  0  0  0  0  0  0  0  0  0  0
    4.2853   -1.3088    2.6101 H   0  0  0  0  0  0  0  0  0  0  0  0
    6.3085   -1.3474   -1.2217 H   0  0  0  0  0  0  0  0  0  0  0  0
    4.1583   -0.7089   -2.3575 H   0  0  0  0  0  0  0  0  0  0  0  0
    7.0855   -2.7672    1.1206 H   0  0  0  0  0  0  0  0  0  0  0  0
    7.5507   -1.0498    1.2026 H   0  0  0  0  0  0  0  0  0  0  0  0
    6.6340   -1.7919    2.5529 H   0  0  0  0  0  0  0  0  0  0  0  0
   -1.8419    2.3671   -0.6543 H   0  0  0  0  0  0  0  0  0  0  0  0
   -2.2665    2.3524    0.9697 H   0  0  0  0  0  0  0  0  0  0  0  0
  1 12  1  0  0  0  0
  1  4  1  0  0  0  0
  2  1  2  0  0  0  0
  3  1  2  0  0  0  0
  5  7  1  0  0  0  0
  5 37  1  0  0  0  0
  6 19  1  6  0  0  0
  6  4  1  0  0  0  0
  6  8  1  0  0  0  0
  6  7  1  0  0  0  0
  7 20  1  1  0  0  0
  8 21  1  0  0  0  0
  9  8  1  0  0  0  0
  9 23  1  0  0  0  0
  9 10  1  0  0  0  0
 10 25  1  0  0  0  0
 11  7  1  0  0  0  0
 11 10  1  0  0  0  0
 11 28  1  0  0  0  0
 12 13  1  0  0  0  0
 13 29  1  0  0  0  0
 13 14  2  0  0  0  0
 14 30  1  0  0  0  0
 15 18  1  0  0  0  0
 15 14  1  0  0  0  0
 16 15  2  0  0  0  0
 17 16  1  0  0  0  0
 17 12  2  0  0  0  0
 18 35  1  0  0  0  0
 22  8  1  0  0  0  0
 24  9  1  0  0  0  0
 26 10  1  0  0  0  0
 27 11  1  0  0  0  0
 31 16  1  0  0  0  0
 32 17  1  0  0  0  0
 33 18  1  0  0  0  0
 34 18  1  0  0  0  0
 36  5  1  0  0  0  0
M  END
