48,49
q = 0.0, confidence = 0.996

 51 55  0  0  1  0  0  0  0  0999 V2000
    2.9176   -2.9486   -1.1773 C   0  0  0  0  0  3  0  0  0  0  0  0
    3.9701   -2.7458   -0.9322 H   0  0  0  0  0  0  0  0  0  0  0  0
    2.5196   -4.1544   -1.7575 C   0  0  0  0  0  0  0  0  0  0  0  0
    3.2715   -4.9220   -1.9870 H   0  0  0  0  0  0  0  0  0  0  0  0
    1.1565   -4.3542   -2.0300 C   0  0  0  0  0  0  0  0  0  0  0  0
    0.8052   -5.2901   -2.4885 H   0  0  0  0  0  0  0  0  0  0  0  0
    0.2498   -3.3390   -1.7156 C   0  0  0  0  0  0  0  0  0  0  0  0
   -0.8186   -3.4620   -1.9357 H   0  0  0  0  0  0  0  0  0  0  0  0
    0.7158   -2.1474   -1.1287 C   0  0  0  0  0  0  0  0  0  0  0  0
   -0.1584   -1.0019   -0.8024 C   0  0  2  0  0  3  0  0  0  0  0  0
   -1.5494   -1.1175   -0.7738 C   0  0  0  0  0  0  0  0  0  0  0  0
   -2.0288   -2.0863   -0.9553 H   0  0  0  0  0  0  0  0  0  0  0  0
    2.0680    3.9958   -1.0104 C   0  0  0  0  0  0  0  0  0  0  0  0
    2.8862    4.1397   -1.7381 H   0  0  0  0  0  0  0  0  0  0  0  0
    1.7679    4.9889   -0.0616 C   0  0  0  0  0  0  0  0  0  0  0  0
    2.3467    5.9238   -0.0322 H   0  0  0  0  0  0  0  0  0  0  0  0
    0.7283    4.7481    0.8462 C   0  0  0  0  0  0  0  0  0  0  0  0
    0.4704    5.4900    1.6168 H   0  0  0  0  0  0  0  0  0  0  0  0
    0.0360    3.5323    0.7742 C   0  0  0  0  0  0  0  0  0  0  0  0
   -0.7605    3.2908    1.4928 H   0  0  0  0  0  0  0  0  0  0  0  0
    0.4210    2.5984   -0.2086 C   0  0  0  0  0  0  0  0  0  0  0  0
   -0.2739    1.2854   -0.3427 C   0  0  0  0  0  0  0  0  0  0  0  0
   -1.6704    1.2321   -0.2663 C   0  0  0  0  0  0  0  0  0  0  0  0
   -2.2326    2.1532   -0.0693 H   0  0  0  0  0  0  0  0  0  0  0  0
   -2.3383   -0.0046   -0.4138 C   0  0  0  0  0  0  0  0  0  0  0  0
   -4.2210   -1.3656    0.3359 C   0  0  0  0  0  0  0  0  0  0  0  0
   -3.5209   -2.0536    1.3515 C   0  0  0  0  0  0  0  0  0  0  0  0
   -2.5649   -1.6579    1.7281 H   0  0  0  0  0  0  0  0  0  0  0  0
   -4.0409   -3.2483    1.8665 C   0  0  0  0  0  0  0  0  0  0  0  0
   -3.4874   -3.7776    2.6566 H   0  0  0  0  0  0  0  0  0  0  0  0
   -5.2628   -3.7578    1.3961 C   0  0  0  0  0  0  0  0  0  0  0  0
   -5.6696   -4.6919    1.8108 H   0  0  0  0  0  0  0  0  0  0  0  0
   -5.9624   -3.0648    0.3948 C   0  0  0  0  0  0  0  0  0  0  0  0
   -6.9187   -3.4568    0.0167 H   0  0  0  0  0  0  0  0  0  0  0  0
   -5.4446   -1.8781   -0.1411 C   0  0  0  0  0  0  0  0  0  0  0  0
   -5.9854   -1.3363   -0.9306 H   0  0  0  0  0  0  0  0  0  0  0  0
   -4.5901    0.9659   -0.3544 C   0  0  0  0  0  0  0  0  0  0  0  0
   -5.5347    1.2730    0.6464 C   0  0  0  0  0  0  0  0  0  0  0  0
   -5.5792    0.6543    1.5543 H   0  0  0  0  0  0  0  0  0  0  0  0
   -6.4045    2.3582    0.4774 C   0  0  0  0  0  0  0  0  0  0  0  0
   -7.1373    2.5910    1.2646 H   0  0  0  0  0  0  0  0  0  0  0  0
   -6.3347    3.1544   -0.6777 C   0  0  0  0  0  0  0  0  0  0  0  0
   -7.0157    4.0091   -0.8033 H   0  0  0  0  0  0  0  0  0  0  0  0
   -5.3914    2.8497   -1.6726 C   0  0  0  0  0  0  0  0  0  0  0  0
   -5.3346    3.4608   -2.5861 H   0  0  0  0  0  0  0  0  0  0  0  0
   -4.5288    1.7560   -1.5211 C   0  0  0  0  0  0  0  0  0  0  0  0
   -3.8013    1.5051   -2.3069 H   0  0  0  0  0  0  0  0  0  0  0  0
    2.0415   -1.9685   -0.8672 N   0  0  0  0  0  2  0  0  0  0  0  0
    0.4826    0.1740   -0.5338 N   0  0  0  0  0  2  0  0  0  0  0  0
    1.4136    2.8317   -1.0879 N   0  0  0  0  0  0  0  0  0  0  0  0
   -3.7085   -0.1427   -0.1937 N   0  0  0  0  0  0  0  0  0  0  0  0
  1  2  1  0  0  0  0
  1 48  1  0  0  0  0
  3  1  1  0  0  0  0
  4  3  1  0  0  0  0
  5  3  2  0  0  0  0
  5  7  1  0  0  0  0
  6  5  1  0  0  0  0
  7  9  2  0  0  0  0
  8  7  1  0  0  0  0
  9 48  1  0  0  0  0
 10  9  1  6  0  0  0
 10 11  1  0  0  0  0
 10 49  1  0  0  0  0
 11 25  2  0  0  0  0
 12 11  1  0  0  0  0
 13 15  1  0  0  0  0
 14 13  1  0  0  0  0
 15 16  1  0  0  0  0
 15 17  2  0  0  0  0
 17 18  1  0  0  0  0
 19 17  1  0  0  0  0
 19 20  1  0  0  0  0
 21 19  2  0  0  0  0
 22 23  2  0  0  0  0
 22 21  1  0  0  0  0
 23 24  1  0  0  0  0
 25 23  1  0  0  0  0
 25 51  1  0  0  0  0
 26 27  1  0  0  0  0
 27 28  1  0  0  0  0
 27 29  2  0  0  0  0
 29 30  1  0  0  0  0
 31 32  1  0  0  0  0
 31 29  1  0  0  0  0
 33 31  2  0  0  0  0
 34 33  1  0  0  0  0
 35 26  2  0  0  0  0
 35 33  1  0  0  0  0
 36 35  1  0  0  0  0
 37 51  1  0  0  0  0
 37 38  1  0  0  0  0
 38 39  1  0  0  0  0
 40 38  2  0  0  0  0
 40 41  1  0  0  0  0
 42 40  1  0  0  0  0
 43 42  1  0  0  0  0
 44 46  1  0  0  0  0
 44 42  2  0  0  0  0
 45 44  1  0  0  0  0
 46 37  2  0  0  0  0
 47 46  1  0  0  0  0
 49 22  1  0  0  0  0
 50 13  2  0  0  0  0
 50 21  1  0  0  0  0
 51 26  1  0  0  0  0
M  END
