1,15
q = 0.0, confidence = 0.998

 56 56  0  0  1  0  0  0  0  0999 V2000
   -1.3071    0.3977   -0.3754 N   0  0  0  0  0  2  0  0  0  0  0  0
   -0.7571    1.6357    0.1614 C   0  0  2  0  0  0  0  0  0  0  0  0
   -0.8242    1.6628    1.2753 H   0  0  0  0  0  0  0  0  0  0  0  0
   -3.4791    0.5680    0.6166 N   0  0  0  0  0  0  0  0  0  0  0  0
   -1.4279    2.9016   -0.3914 C   0  0  0  0  0  0  0  0  0  0  0  0
   -1.3656    2.8730   -1.5020 H   0  0  0  0  0  0  0  0  0  0  0  0
   -2.5072    2.8947   -0.1348 H   0  0  0  0  0  0  0  0  0  0  0  0
   -3.0750   -0.8526   -1.2056 N   0  0  0  0  0  0  0  0  0  0  0  0
   -0.7529    4.1699    0.1446 C   0  0  0  0  0  0  0  0  0  0  0  0
   -1.2326    5.0723   -0.2886 H   0  0  0  0  0  0  0  0  0  0  0  0
   -0.9122    4.2298    1.2447 H   0  0  0  0  0  0  0  0  0  0  0  0
    0.7532    4.1698   -0.1448 C   0  0  0  0  0  0  0  0  0  0  0  0
    1.2330    5.0723    0.2884 H   0  0  0  0  0  0  0  0  0  0  0  0
    0.9124    4.2296   -1.2448 H   0  0  0  0  0  0  0  0  0  0  0  0
    1.3071    0.3976    0.3754 N   0  0  0  0  0  2  0  0  0  0  0  0
    1.4281    2.9015    0.3913 C   0  0  0  0  0  0  0  0  0  0  0  0
    1.3657    2.8730    1.5020 H   0  0  0  0  0  0  0  0  0  0  0  0
    2.5073    2.8946    0.1348 H   0  0  0  0  0  0  0  0  0  0  0  0
    3.0750   -0.8527    1.2057 N   0  0  0  0  0  0  0  0  0  0  0  0
    0.7572    1.6356   -0.1614 C   0  0  2  0  0  0  0  0  0  0  0  0
    0.8243    1.6627   -1.2753 H   0  0  0  0  0  0  0  0  0  0  0  0
    3.4792    0.5678   -0.6165 N   0  0  0  0  0  0  0  0  0  0  0  0
    2.5835    0.0678    0.3083 C   0  0  0  0  0  3  0  0  0  0  0  0
    3.0711    0.7703   -1.9963 C   0  0  0  0  0  0  0  0  0  0  0  0
    2.8630    1.8389   -2.2375 H   0  0  0  0  0  0  0  0  0  0  0  0
    2.1821    0.1445   -2.2092 H   0  0  0  0  0  0  0  0  0  0  0  0
    3.8861    0.4237   -2.6665 H   0  0  0  0  0  0  0  0  0  0  0  0
    4.8627    0.8480   -0.2835 C   0  0  0  0  0  0  0  0  0  0  0  0
    5.1233    1.8903   -0.5746 H   0  0  0  0  0  0  0  0  0  0  0  0
    5.5738    0.1649   -0.8019 H   0  0  0  0  0  0  0  0  0  0  0  0
    5.0092    0.7428    0.8069 H   0  0  0  0  0  0  0  0  0  0  0  0
    2.3417   -1.1124    2.4373 C   0  0  0  0  0  0  0  0  0  0  0  0
    1.8542   -0.1810    2.7775 H   0  0  0  0  0  0  0  0  0  0  0  0
    3.0536   -1.4673    3.2109 H   0  0  0  0  0  0  0  0  0  0  0  0
    1.5385   -1.8734    2.3086 H   0  0  0  0  0  0  0  0  0  0  0  0
    3.9376   -1.9381    0.7551 C   0  0  0  0  0  0  0  0  0  0  0  0
    4.2521   -1.7630   -0.2878 H   0  0  0  0  0  0  0  0  0  0  0  0
    3.3738   -2.8960    0.7661 H   0  0  0  0  0  0  0  0  0  0  0  0
    4.8355   -2.0388    1.4023 H   0  0  0  0  0  0  0  0  0  0  0  0
   -3.0709    0.7704    1.9964 C   0  0  0  0  0  0  0  0  0  0  0  0
   -2.8629    1.8390    2.2377 H   0  0  0  0  0  0  0  0  0  0  0  0
   -2.1820    0.1446    2.2093 H   0  0  0  0  0  0  0  0  0  0  0  0
   -3.8859    0.4237    2.6667 H   0  0  0  0  0  0  0  0  0  0  0  0
   -2.5835    0.0679   -0.3083 C   0  0  0  0  0  3  0  0  0  0  0  0
   -2.3417   -1.1122   -2.4371 C   0  0  0  0  0  0  0  0  0  0  0  0
   -3.0536   -1.4673   -3.2108 H   0  0  0  0  0  0  0  0  0  0  0  0
   -1.5384   -1.8732   -2.3085 H   0  0  0  0  0  0  0  0  0  0  0  0
   -1.8543   -0.1808   -2.7774 H   0  0  0  0  0  0  0  0  0  0  0  0
   -3.9377   -1.9379   -0.7550 C   0  0  0  0  0  0  0  0  0  0  0  0
   -4.2516   -1.7631    0.2881 H   0  0  0  0  0  0  0  0  0  0  0  0
   -3.3742   -2.8959   -0.7667 H   0  0  0  0  0  0  0  0  0  0  0  0
   -4.8360   -2.0381   -1.4017 H   0  0  0  0  0  0  0  0  0  0  0  0
   -4.8627    0.8481    0.2838 C   0  0  0  0  0  0  0  0  0  0  0  0
   -5.1234    1.8903    0.5752 H   0  0  0  0  0  0  0  0  0  0  0  0
   -5.5737    0.1646    0.8019 H   0  0  0  0  0  0  0  0  0  0  0  0
   -5.0092    0.7431   -0.8067 H   0  0  0  0  0  0  0  0  0  0  0  0
  1 44  1  0  0  0  0
  1  2  1  0  0  0  0
  2  3  1  1  0  0  0
  4 40  1  0  0  0  0
  5  7  1  0  0  0  0
  5  9  1  0  0  0  0
  5  2  1  0  0  0  0
  6  5  1  0  0  0  0
  8 49  1  0  0  0  0
  8 44  1  0  0  0  0
  9 11  1  0  0  0  0
 10  9  1  0  0  0  0
 12  9  1  0  0  0  0
 12 13  1  0  0  0  0
 12 16  1  0  0  0  0
 14 12  1  0  0  0  0
 16 17  1  0  0  0  0
 18 16  1  0  0  0  0
 19 32  1  0  0  0  0
 20 21  1  6  0  0  0
 20  2  1  0  0  0  0
 20 15  1  0  0  0  0
 20 16  1  0  0  0  0
 22 28  1  0  0  0  0
 22 23  1  0  0  0  0
 23 15  1  0  0  0  0
 23 19  1  0  0  0  0
 24 22  1  0  0  0  0
 25 24  1  0  0  0  0
 26 24  1  0  0  0  0
 27 24  1  0  0  0  0
 28 31  1  0  0  0  0
 29 28  1  0  0  0  0
 30 28  1  0  0  0  0
 32 33  1  0  0  0  0
 32 34  1  0  0  0  0
 35 32  1  0  0  0  0
 36 38  1  0  0  0  0
 36 19  1  0  0  0  0
 36 39  1  0  0  0  0
 37 36  1  0  0  0  0
 40 42  1  0  0  0  0
 40 41  1  0  0  0  0
 40 43  1  0  0  0  0
 44  4  1  0  0  0  0
 45 47  1  0  0  0  0
 45  8  1  0  0  0  0
 46 45  1  0  0  0  0
 48 45  1  0  0  0  0
 49 50  1  0  0  0  0
 51 49  1  0  0  0  0
 52 49  1  0  0  0  0
 53 54  1  0  0  0  0
 53  4  1  0  0  0  0
 53 55  1  0  0  0  0
 56 53  1  0  0  0  0
M  END
