3,4
q = -1.0

 52 54  0  0  1  0  0  0  0  0999 V2000
   -1.7959    1.7002   -0.5350 N   0  0  0  0  0  0  0  0  0  0  0  0
    1.9504    1.8719    0.4252 N   0  0  0  0  0  0  0  0  0  0  0  0
    1.4709   -0.8369    0.9168 N   0  0  0  0  0  2  0  0  0  0  0  0
   -1.4307   -0.8097    0.8334 N   0  0  0  0  0  2  0  0  0  0  0  0
   -1.1880    2.3433    0.3955 C   0  0  0  0  0  0  0  0  0  0  0  0
   -1.5396    2.3343    1.8554 C   0  0  0  0  0  0  0  0  0  0  0  0
    0.0118    3.2202    0.0021 C   0  0  1  0  0  0  0  0  0  0  0  0
    1.1334    2.2968   -0.4751 C   0  0  0  0  0  0  0  0  0  0  0  0
    1.1439    1.9049   -1.9256 C   0  0  0  0  0  0  0  0  0  0  0  0
    2.9686    0.9518    0.1441 C   0  0  0  0  0  0  0  0  0  0  0  0
    4.2276    1.3563   -0.3488 C   0  0  0  0  0  0  0  0  0  0  0  0
    5.2563    0.4227   -0.5367 C   0  0  0  0  0  0  0  0  0  0  0  0
    5.0464   -0.9318   -0.2338 C   0  0  0  0  0  0  0  0  0  0  0  0
    3.7998   -1.3459    0.2586 C   0  0  0  0  0  0  0  0  0  0  0  0
    2.7604   -0.4214    0.4524 C   0  0  0  0  0  0  0  0  0  0  0  0
    1.2358   -0.7875    2.2353 C   0  0  1  0  0  3  0  0  0  0  0  0
    2.3805   -0.4573    3.1676 C   0  0  0  0  0  0  0  0  0  0  0  0
   -0.0394   -0.9690    2.8142 C   0  0  0  0  0  0  0  0  0  0  0  0
   -1.2893   -0.9019    2.1685 C   0  0  0  0  0  0  0  0  0  0  0  0
   -2.5146   -0.8866    3.0609 C   0  0  0  0  0  0  0  0  0  0  0  0
   -2.6984   -0.4607    0.2771 C   0  0  0  0  0  0  0  0  0  0  0  0
   -3.7679   -1.3775    0.2592 C   0  0  0  0  0  0  0  0  0  0  0  0
   -5.0017   -1.0468   -0.3136 C   0  0  0  0  0  0  0  0  0  0  0  0
   -5.1738    0.2170   -0.9032 C   0  0  0  0  0  0  0  0  0  0  0  0
   -4.1093    1.1230   -0.9382 C   0  0  0  0  0  0  0  0  0  0  0  0
   -2.8604    0.8129   -0.3515 C   0  0  0  0  0  0  0  0  0  0  0  0
   -0.4084    4.2983   -1.0054 C   0  0  0  0  0  0  0  0  0  0  0  0
   -0.7314    1.8185    2.4169 H   0  0  0  0  0  0  0  0  0  0  0  0
   -1.5912    3.3726    2.2431 H   0  0  0  0  0  0  0  0  0  0  0  0
   -2.4981    1.8199    2.0472 H   0  0  0  0  0  0  0  0  0  0  0  0
    0.1556    1.4634   -2.1729 H   0  0  0  0  0  0  0  0  0  0  0  0
    1.2726    2.7985   -2.5702 H   0  0  0  0  0  0  0  0  0  0  0  0
    1.9457    1.1792   -2.1497 H   0  0  0  0  0  0  0  0  0  0  0  0
    4.3834    2.4210   -0.5783 H   0  0  0  0  0  0  0  0  0  0  0  0
    6.2287    0.7580   -0.9282 H   0  0  0  0  0  0  0  0  0  0  0  0
    5.8493   -1.6681   -0.3847 H   0  0  0  0  0  0  0  0  0  0  0  0
    3.6048   -2.4044    0.4881 H   0  0  0  0  0  0  0  0  0  0  0  0
    3.2694   -1.0874    2.9717 H   0  0  0  0  0  0  0  0  0  0  0  0
    2.6940    0.5951    3.0052 H   0  0  0  0  0  0  0  0  0  0  0  0
    2.0762   -0.5733    4.2234 H   0  0  0  0  0  0  0  0  0  0  0  0
   -2.2312   -0.6906    4.1105 H   0  0  0  0  0  0  0  0  0  0  0  0
   -3.2552   -0.1300    2.7379 H   0  0  0  0  0  0  0  0  0  0  0  0
   -3.0374   -1.8643    3.0230 H   0  0  0  0  0  0  0  0  0  0  0  0
   -3.6051   -2.3731    0.6977 H   0  0  0  0  0  0  0  0  0  0  0  0
   -5.8219   -1.7797   -0.3130 H   0  0  0  0  0  0  0  0  0  0  0  0
   -6.1365    0.4897   -1.3610 H   0  0  0  0  0  0  0  0  0  0  0  0
   -4.2144    2.0989   -1.4347 H   0  0  0  0  0  0  0  0  0  0  0  0
   -0.8794    3.8383   -1.8952 H   0  0  0  0  0  0  0  0  0  0  0  0
   -1.1527    4.9806   -0.5484 H   0  0  0  0  0  0  0  0  0  0  0  0
    0.4585    4.9085   -1.3290 H   0  0  0  0  0  0  0  0  0  0  0  0
    0.3942    3.6927    0.9276 H   0  0  0  0  0  0  0  0  0  0  0  0
   -0.0661   -1.0214    3.9099 H   0  0  0  0  0  0  0  0  0  0  0  0
  1 26  1  0  0  0  0
  1  5  2  0  0  0  0
  3 16  1  0  0  0  0
  4 19  1  0  0  0  0
  5  6  1  0  0  0  0
  6 30  1  0  0  0  0
  6 29  1  0  0  0  0
  6 28  1  0  0  0  0
  7  5  1  0  0  0  0
  7 51  1  1  0  0  0
  8  7  1  0  0  0  0
  8  2  2  0  0  0  0
  9  8  1  0  0  0  0
 10  2  1  0  0  0  0
 10 15  1  0  0  0  0
 11 10  2  0  0  0  0
 12 11  1  0  0  0  0
 12 13  2  0  0  0  0
 13 14  1  0  0  0  0
 14 15  2  0  0  0  0
 14 37  1  0  0  0  0
 15  3  1  0  0  0  0
 16 18  1  0  0  0  0
 16 17  1  6  0  0  0
 17 40  1  0  0  0  0
 18 52  1  0  0  0  0
 19 18  2  0  0  0  0
 19 20  1  0  0  0  0
 20 41  1  0  0  0  0
 21  4  1  0  0  0  0
 22 21  1  0  0  0  0
 22 44  1  0  0  0  0
 23 45  1  0  0  0  0
 23 22  2  0  0  0  0
 24 23  1  0  0  0  0
 25 24  2  0  0  0  0
 25 26  1  0  0  0  0
 26 21  2  0  0  0  0
 27 49  1  0  0  0  0
 27  7  1  0  0  0  0
 31  9  1  0  0  0  0
 32  9  1  0  0  0  0
 33  9  1  0  0  0  0
 34 11  1  0  0  0  0
 35 12  1  0  0  0  0
 36 13  1  0  0  0  0
 38 17  1  0  0  0  0
 39 17  1  0  0  0  0
 42 20  1  0  0  0  0
 43 20  1  0  0  0  0
 46 24  1  0  0  0  0
 47 25  1  0  0  0  0
 48 27  1  0  0  0  0
 50 27  1  0  0  0  0
M  END
