4,18
q = 0.0, confidence = 1.0

 43 45  0  0  1  0  0  0  0  0999 V2000
    1.2083   -0.7854   -1.2338 C   0  0  2  0  0  0  0  0  0  0  0  0
    1.8834   -1.2729   -1.9622 H   0  0  0  0  0  0  0  0  0  0  0  0
    1.6008   -1.3299    0.0748 N   0  0  0  0  0  0  0  0  0  0  0  0
    1.0157   -0.8671    1.2138 N   0  0  0  0  0  2  0  0  0  0  0  0
    1.5805   -1.5189    2.2489 C   0  0  1  0  0  3  0  0  0  0  0  0
    2.5374   -2.4351    1.7401 C   0  0  0  0  0  0  0  0  0  0  0  0
    3.1579   -3.1228    2.3234 H   0  0  0  0  0  0  0  0  0  0  0  0
    2.5373   -2.2914    0.3533 C   0  0  0  0  0  0  0  0  0  0  0  0
    1.2235   -1.2233    3.6657 C   0  0  0  0  0  0  0  0  0  0  0  0
    1.6622   -0.2547    3.9840 H   0  0  0  0  0  0  0  0  0  0  0  0
    1.6059   -2.0160    4.3348 H   0  0  0  0  0  0  0  0  0  0  0  0
    0.1231   -1.1317    3.7642 H   0  0  0  0  0  0  0  0  0  0  0  0
    3.3313   -2.9910   -0.7002 C   0  0  0  0  0  0  0  0  0  0  0  0
    2.6869   -3.5403   -1.4180 H   0  0  0  0  0  0  0  0  0  0  0  0
    4.0037   -3.7285   -0.2255 H   0  0  0  0  0  0  0  0  0  0  0  0
    3.9659   -2.2902   -1.2832 H   0  0  0  0  0  0  0  0  0  0  0  0
    1.5443    0.6351   -1.2563 N   0  0  0  0  0  0  0  0  0  0  0  0
    1.0597    1.4590   -0.2844 N   0  0  0  0  0  2  0  0  0  0  0  0
    1.5743    2.6838   -0.5066 C   0  0  2  0  0  3  0  0  0  0  0  0
    2.4001    2.6289   -1.6594 C   0  0  0  0  0  0  0  0  0  0  0  0
    2.9581    3.4588   -2.1045 H   0  0  0  0  0  0  0  0  0  0  0  0
    2.3686    1.3113   -2.1169 C   0  0  0  0  0  0  0  0  0  0  0  0
    1.2656    3.8409    0.3816 C   0  0  0  0  0  0  0  0  0  0  0  0
    0.1798    4.0637    0.3509 H   0  0  0  0  0  0  0  0  0  0  0  0
    1.8428    4.7319    0.0745 H   0  0  0  0  0  0  0  0  0  0  0  0
    1.5069    3.5998    1.4365 H   0  0  0  0  0  0  0  0  0  0  0  0
    3.0332    0.6580   -3.2823 C   0  0  0  0  0  0  0  0  0  0  0  0
    3.7393   -0.1406   -2.9689 H   0  0  0  0  0  0  0  0  0  0  0  0
    3.6133    1.4088   -3.8488 H   0  0  0  0  0  0  0  0  0  0  0  0
    2.2961    0.2044   -3.9769 H   0  0  0  0  0  0  0  0  0  0  0  0
   -0.2470   -1.0791   -1.5572 C   0  0  0  0  0  0  0  0  0  0  0  0
   -1.1845   -0.0309   -1.6370 C   0  0  0  0  0  0  0  0  0  0  0  0
   -0.8789    1.0212   -1.6651 H   0  0  0  0  0  0  0  0  0  0  0  0
   -3.5057    0.6568   -1.4797 O   0  0  0  0  0  0  0  0  0  0  0  0
   -3.1304    1.3591   -0.8744 H   0  0  0  0  0  0  0  0  0  0  0  0
   -2.5527   -0.3075   -1.6045 C   0  0  0  0  0  0  0  0  0  0  0  0
   -3.0074   -1.6517   -1.6149 C   0  0  0  0  0  0  0  0  0  0  0  0
   -4.3350   -1.8918   -1.5643 O   0  0  0  0  0  0  0  0  0  0  0  0
   -4.7475   -1.0068   -1.4369 H   0  0  0  0  0  0  0  0  0  0  0  0
   -2.0686   -2.6970   -1.6435 C   0  0  0  0  0  0  0  0  0  0  0  0
   -2.4348   -3.7334   -1.6418 H   0  0  0  0  0  0  0  0  0  0  0  0
   -0.6960   -2.4112   -1.5786 C   0  0  0  0  0  0  0  0  0  0  0  0
    0.0221   -3.2424   -1.4978 H   0  0  0  0  0  0  0  0  0  0  0  0
  1  2  1  6  0  0  0
  1  3  1  0  0  0  0
  3  8  1  0  0  0  0
  3  4  1  0  0  0  0
  4  5  1  0  0  0  0
  5  9  1  1  0  0  0
  6  5  1  0  0  0  0
  6  7  1  0  0  0  0
  8  6  2  0  0  0  0
  9 12  1  0  0  0  0
  9 10  1  0  0  0  0
  9 11  1  0  0  0  0
 13 15  1  0  0  0  0
 13  8  1  0  0  0  0
 14 13  1  0  0  0  0
 16 13  1  0  0  0  0
 17  1  1  0  0  0  0
 17 18  1  0  0  0  0
 19 18  1  0  0  0  0
 19 23  1  1  0  0  0
 20 19  1  0  0  0  0
 21 20  1  0  0  0  0
 22 20  2  0  0  0  0
 22 17  1  0  0  0  0
 23 26  1  0  0  0  0
 24 23  1  0  0  0  0
 25 23  1  0  0  0  0
 27 28  1  0  0  0  0
 27 22  1  0  0  0  0
 29 27  1  0  0  0  0
 30 27  1  0  0  0  0
 31  1  1  0  0  0  0
 32 36  1  0  0  0  0
 32 31  2  0  0  0  0
 33 32  1  0  0  0  0
 34 35  1  0  0  0  0
 36 34  1  0  0  0  0
 37 36  2  0  0  0  0
 37 38  1  0  0  0  0
 38 39  1  0  0  0  0
 40 41  1  0  0  0  0
 40 37  1  0  0  0  0
 40 42  2  0  0  0  0
 42 31  1  0  0  0  0
 42 43  1  0  0  0  0
M  END
