1,7
q = -1.0, confidence = 0.004

 20 20  0  0  1  0  0  0  0  0999 V2000
   -0.1805    1.6787   -0.3948 N   0  0  0  0  0  2  0  0  0  0  0  0
    0.5142    2.3994   -0.6161 H   0  0  0  0  0  0  0  0  0  0  0  0
   -1.5032    3.7101   -0.0538 C   0  0  0  0  0  0  0  0  0  0  0  0
   -1.3915    4.1164   -1.0817 H   0  0  0  0  0  0  0  0  0  0  0  0
   -0.7055    4.1697    0.5668 H   0  0  0  0  0  0  0  0  0  0  0  0
   -2.4828    4.0399    0.3391 H   0  0  0  0  0  0  0  0  0  0  0  0
   -1.5809   -0.8298   -0.0634 N   0  0  0  0  0  2  0  0  0  0  0  0
   -1.3664    2.2004   -0.0639 C   0  0  1  0  0  3  0  0  0  0  0  0
   -2.5009    1.4223    0.2553 C   0  0  0  0  0  0  0  0  0  0  0  0
   -3.4226    1.9577    0.5204 H   0  0  0  0  0  0  0  0  0  0  0  0
   -2.5689    0.0117    0.2461 C   0  0  0  0  0  0  0  0  0  0  0  0
   -3.8295   -0.7486    0.6403 C   0  0  0  0  0  0  0  0  0  0  0  0
   -3.9079   -0.7617    1.7510 H   0  0  0  0  0  0  0  0  0  0  0  0
   -4.7531   -0.2704    0.2585 H   0  0  0  0  0  0  0  0  0  0  0  0
   -3.5618   -2.1526    0.0774 C   0  0  0  0  0  0  0  0  0  0  0  0
   -3.9349   -2.2175   -0.9660 H   0  0  0  0  0  0  0  0  0  0  0  0
   -4.0382   -2.9667    0.6576 H   0  0  0  0  0  0  0  0  0  0  0  0
   -2.0227   -2.2180    0.0820 C   0  0  0  0  0  0  0  0  0  0  0  0
   -1.6368   -2.6407    1.0414 H   0  0  0  0  0  0  0  0  0  0  0  0
   -1.6067   -2.8510   -0.7292 H   0  0  0  0  0  0  0  0  0  0  0  0
  2  1  1  0  0  0  0
  3  6  1  0  0  0  0
  3  5  1  0  0  0  0
  4  3  1  0  0  0  0
  7 18  1  0  0  0  0
  7 11  1  0  0  0  0
  8  1  1  6  0  0  0
  8  3  1  0  0  0  0
  8  9  1  0  0  0  0
  9 10  1  0  0  0  0
 11  9  2  0  0  0  0
 11 12  1  0  0  0  0
 12 13  1  0  0  0  0
 14 12  1  0  0  0  0
 15 18  1  0  0  0  0
 15 12  1  0  0  0  0
 15 17  1  0  0  0  0
 16 15  1  0  0  0  0
 18 19  1  0  0  0  0
 20 18  1  0  0  0  0
M  END
