1,2
q = 0.0, confidence = 0.996

 23 23  0  0  0  0  0  0  0  0999 V2000
   -3.3969   -1.0515   -0.4879 N   0  0  0  0  0  0  0  0  0  0  0  0
   -2.6427    1.6029   -1.4495 N   0  0  0  0  0  2  0  0  0  0  0  0
   -2.2265    2.3524   -2.0177 H   0  0  0  0  0  0  0  0  0  0  0  0
   -4.4800    1.1232    0.0921 C   0  0  0  0  0  0  0  0  0  0  0  0
   -4.2281   -0.2617    0.3738 C   0  0  0  0  0  0  0  0  0  0  0  0
   -4.8351   -0.8285    1.5103 C   0  0  0  0  0  0  0  0  0  0  0  0
   -4.6364   -1.8753    1.7677 H   0  0  0  0  0  0  0  0  0  0  0  0
   -5.7130   -0.0892    2.3167 C   0  0  0  0  0  0  0  0  0  0  0  0
   -6.1702   -0.5725    3.1932 H   0  0  0  0  0  0  0  0  0  0  0  0
   -6.0260    1.2400    2.0008 C   0  0  0  0  0  0  0  0  0  0  0  0
   -6.7297    1.8153    2.6188 H   0  0  0  0  0  0  0  0  0  0  0  0
   -5.4073    1.8288    0.8963 C   0  0  0  0  0  0  0  0  0  0  0  0
   -5.6029    2.8861    0.6577 H   0  0  0  0  0  0  0  0  0  0  0  0
   -3.7486    1.9431   -0.8700 C   0  0  0  0  0  3  0  0  0  0  0  0
   -4.1755    2.9549   -1.0341 H   0  0  0  0  0  0  0  0  0  0  0  0
   -3.9513   -1.2164   -1.8516 C   0  0  0  0  0  0  0  0  0  0  0  0
   -3.1863   -1.7171   -2.4768 H   0  0  0  0  0  0  0  0  0  0  0  0
   -4.1856   -0.2373   -2.3031 H   0  0  0  0  0  0  0  0  0  0  0  0
   -4.8735   -1.8380   -1.8262 H   0  0  0  0  0  0  0  0  0  0  0  0
   -2.9743   -2.3600    0.0431 C   0  0  0  0  0  0  0  0  0  0  0  0
   -2.2360   -2.7821   -0.6627 H   0  0  0  0  0  0  0  0  0  0  0  0
   -3.8294   -3.0643    0.1489 H   0  0  0  0  0  0  0  0  0  0  0  0
   -2.4654   -2.2255    1.0156 H   0  0  0  0  0  0  0  0  0  0  0  0
  1 20  1  0  0  0  0
  1  5  1  0  0  0  0
  2 14  1  0  0  0  0
  3  2  1  0  0  0  0
  4  5  2  0  0  0  0
  4 12  1  0  0  0  0
  5  6  1  0  0  0  0
  6  7  1  0  0  0  0
  6  8  2  0  0  0  0
  8  9  1  0  0  0  0
 10  8  1  0  0  0  0
 10 11  1  0  0  0  0
 12 10  2  0  0  0  0
 13 12  1  0  0  0  0
 14  4  1  0  0  0  0
 15 14  1  0  0  0  0
 16 19  1  0  0  0  0
 16  1  1  0  0  0  0
 17 16  1  0  0  0  0
 18 16  1  0  0  0  0
 20 22  1  0  0  0  0
 20 23  1  0  0  0  0
 21 20  1  0  0  0  0
M  END
