1,2
q = -1.0

 36 37  0  0  1  0  0  0  0  0999 V2000
   -0.1427   -1.6282   -0.9613 N   0  0  0  0  0  2  0  0  0  0  0  0
    1.7108   -0.5125    0.3775 N   0  0  0  0  0  0  0  0  0  0  0  0
    2.4122    0.2426    0.4694 H   0  0  0  0  0  0  0  0  0  0  0  0
    1.5722   -0.9054    1.3226 H   0  0  0  0  0  0  0  0  0  0  0  0
    1.1356   -3.4904   -1.5416 O   0  0  0  0  0  0  0  0  0  0  0  0
   -2.4819   -2.2774   -0.4190 C   0  0  0  0  0  0  0  0  0  0  0  0
   -1.3564   -2.2674   -1.4360 C   0  0  0  0  0  0  0  0  0  0  0  0
   -1.0889   -3.3134   -1.7131 H   0  0  0  0  0  0  0  0  0  0  0  0
   -1.7248   -1.7943   -2.3782 H   0  0  0  0  0  0  0  0  0  0  0  0
    1.0049   -2.3535   -1.0680 C   0  0  0  0  0  0  0  0  0  0  0  0
    2.2149   -1.5707   -0.5289 C   0  0  2  0  0  0  0  0  0  0  0  0
    2.6827   -1.0430   -1.3884 H   0  0  0  0  0  0  0  0  0  0  0  0
    4.5282   -1.8059    0.5149 C   0  0  0  0  0  0  0  0  0  0  0  0
   -2.2087   -2.3265    0.9634 C   0  0  0  0  0  0  0  0  0  0  0  0
   -1.1590   -2.3388    1.2922 H   0  0  0  0  0  0  0  0  0  0  0  0
    3.2475   -2.4994    0.1203 C   0  0  0  0  0  0  0  0  0  0  0  0
    2.7791   -2.9835    1.0049 H   0  0  0  0  0  0  0  0  0  0  0  0
    3.4255   -3.3111   -0.6137 H   0  0  0  0  0  0  0  0  0  0  0  0
   -3.8292   -2.2446   -0.8362 C   0  0  0  0  0  0  0  0  0  0  0  0
   -4.0594   -2.1888   -1.9129 H   0  0  0  0  0  0  0  0  0  0  0  0
    6.9131   -0.4537    1.2310 C   0  0  0  0  0  0  0  0  0  0  0  0
    7.8439    0.0629    1.5108 H   0  0  0  0  0  0  0  0  0  0  0  0
    4.7179   -1.3143    1.8229 C   0  0  0  0  0  0  0  0  0  0  0  0
    3.9358   -1.4808    2.5820 H   0  0  0  0  0  0  0  0  0  0  0  0
   -4.5892   -2.3182    1.4707 C   0  0  0  0  0  0  0  0  0  0  0  0
   -5.4089   -2.3204    2.2046 H   0  0  0  0  0  0  0  0  0  0  0  0
    6.7360   -0.9332   -0.0773 C   0  0  0  0  0  0  0  0  0  0  0  0
    7.5283   -0.7909   -0.8282 H   0  0  0  0  0  0  0  0  0  0  0  0
    5.5540   -1.5983   -0.4308 C   0  0  0  0  0  0  0  0  0  0  0  0
    5.4233   -1.9762   -1.4573 H   0  0  0  0  0  0  0  0  0  0  0  0
   -4.8749   -2.2695    0.0980 C   0  0  0  0  0  0  0  0  0  0  0  0
   -5.9180   -2.2213   -0.2472 H   0  0  0  0  0  0  0  0  0  0  0  0
   -3.2525   -2.3458    1.9004 C   0  0  0  0  0  0  0  0  0  0  0  0
   -3.0204   -2.3829    2.9761 H   0  0  0  0  0  0  0  0  0  0  0  0
    5.8976   -0.6423    2.1804 C   0  0  0  0  0  0  0  0  0  0  0  0
    6.0282   -0.2749    3.2099 H   0  0  0  0  0  0  0  0  0  0  0  0
  2  3  1  0  0  0  0
  2  4  1  0  0  0  0
  5 10  2  0  0  0  0
  6 14  1  0  0  0  0
  7  1  1  0  0  0  0
  7  6  1  0  0  0  0
  8  7  1  0  0  0  0
  9  7  1  0  0  0  0
 10  1  1  0  0  0  0
 10 11  1  0  0  0  0
 11 12  1  6  0  0  0
 11 16  1  0  0  0  0
 11  2  1  0  0  0  0
 13 23  1  0  0  0  0
 14 15  1  0  0  0  0
 14 33  2  0  0  0  0
 16 13  1  0  0  0  0
 16 17  1  0  0  0  0
 18 16  1  0  0  0  0
 19  6  2  0  0  0  0
 19 31  1  0  0  0  0
 20 19  1  0  0  0  0
 21 22  1  0  0  0  0
 21 35  1  0  0  0  0
 23 35  2  0  0  0  0
 23 24  1  0  0  0  0
 25 33  1  0  0  0  0
 25 26  1  0  0  0  0
 27 21  2  0  0  0  0
 28 27  1  0  0  0  0
 29 27  1  0  0  0  0
 29 13  2  0  0  0  0
 30 29  1  0  0  0  0
 31 25  2  0  0  0  0
 32 31  1  0  0  0  0
 33 34  1  0  0  0  0
 35 36  1  0  0  0  0
M  END
