45,46
q = -1.0, confidence = 0.0

 66 74  0  0  1  0  0  0  0  0999 V2000
    4.9075   -2.7751    1.4503 F   0  0  0  0  0  0  0  0  0  0  0  0
    7.5981   -3.0098    1.6779 F   0  0  0  0  0  0  0  0  0  0  0  0
    9.2489   -1.5457    0.0577 F   0  0  0  0  0  0  0  0  0  0  0  0
    8.1867    0.1488   -1.8118 F   0  0  0  0  0  0  0  0  0  0  0  0
    5.4965    0.3673   -2.0786 F   0  0  0  0  0  0  0  0  0  0  0  0
   -1.2088    3.7205    1.9530 F   0  0  0  0  0  0  0  0  0  0  0  0
   -1.3053    6.4325    2.0038 F   0  0  0  0  0  0  0  0  0  0  0  0
   -0.2280    7.8808   -0.0522 F   0  0  0  0  0  0  0  0  0  0  0  0
    0.9453    6.6049   -2.1685 F   0  0  0  0  0  0  0  0  0  0  0  0
    1.0388    3.8935   -2.2406 F   0  0  0  0  0  0  0  0  0  0  0  0
   -4.8440   -2.0272   -2.5428 F   0  0  0  0  0  0  0  0  0  0  0  0
   -7.5420   -2.2119   -2.7256 F   0  0  0  0  0  0  0  0  0  0  0  0
   -9.1104   -1.6493   -0.5546 F   0  0  0  0  0  0  0  0  0  0  0  0
   -7.9608   -0.9033    1.8154 F   0  0  0  0  0  0  0  0  0  0  0  0
   -5.2541   -0.7359    2.0187 F   0  0  0  0  0  0  0  0  0  0  0  0
    0.7692   -3.2290   -0.8916 C   0  0  0  0  0  0  0  0  0  0  0  0
    1.7811   -4.2195   -0.9234 C   0  0  0  0  0  0  0  0  0  0  0  0
    1.5892   -5.2982   -0.9275 H   0  0  0  0  0  0  0  0  0  0  0  0
    3.0287   -3.5926   -0.8055 C   0  0  0  0  0  0  0  0  0  0  0  0
    4.0046   -4.0824   -0.7305 H   0  0  0  0  0  0  0  0  0  0  0  0
    2.8108   -2.1934   -0.7058 C   0  0  0  0  0  0  0  0  0  0  0  0
    3.6410   -1.0733   -0.4676 C   0  0  1  0  0  3  0  0  0  0  0  0
    3.0145    0.1755   -0.3094 C   0  0  0  0  0  0  0  0  0  0  0  0
    3.5085    1.4519    0.0822 C   0  0  0  0  0  0  0  0  0  0  0  0
    4.5506    1.6625    0.3439 H   0  0  0  0  0  0  0  0  0  0  0  0
    2.4392    2.3313    0.1192 C   0  0  0  0  0  0  0  0  0  0  0  0
    2.4674    3.3761    0.4449 H   0  0  0  0  0  0  0  0  0  0  0  0
    1.2296    1.6444   -0.2380 C   0  0  0  0  0  0  0  0  0  0  0  0
   -0.0659    2.2239   -0.1820 C   0  0  1  0  0  3  0  0  0  0  0  0
   -1.3527    1.6070   -0.1312 C   0  0  1  0  0  3  0  0  0  0  0  0
   -2.6011    2.2306   -0.5224 C   0  0  0  0  0  0  0  0  0  0  0  0
   -2.7023    3.2513   -0.9078 H   0  0  0  0  0  0  0  0  0  0  0  0
   -3.5879    1.2679   -0.4310 C   0  0  0  0  0  0  0  0  0  0  0  0
   -4.6399    1.3593   -0.7235 H   0  0  0  0  0  0  0  0  0  0  0  0
   -2.9466    0.0462    0.0009 C   0  0  0  0  0  0  0  0  0  0  0  0
   -3.4855   -1.2694   -0.0977 C   0  0  0  0  0  0  0  0  0  0  0  0
   -2.6307   -2.3885   -0.2657 C   0  0  0  0  0  0  0  0  0  0  0  0
   -2.8743   -3.6522   -0.9291 C   0  0  0  0  0  0  0  0  0  0  0  0
   -3.8521   -4.0316   -1.2432 H   0  0  0  0  0  0  0  0  0  0  0  0
   -1.6361   -4.2125   -1.2093 C   0  0  0  0  0  0  0  0  0  0  0  0
   -1.4334   -5.1142   -1.7983 H   0  0  0  0  0  0  0  0  0  0  0  0
   -0.6431   -3.3001   -0.6984 C   0  0  0  0  0  0  0  0  0  0  0  0
    1.4284   -1.9882   -0.8287 N   0  0  0  0  0  0  0  0  0  0  0  0
    1.6301    0.3200   -0.5291 N   0  0  0  0  0  0  0  0  0  0  0  0
   -1.6157    0.3140    0.2360 N   0  0  0  0  0  2  0  0  0  0  0  0
   -1.2731   -2.2725   -0.0609 N   0  0  0  0  0  2  0  0  0  0  0  0
    5.1073   -1.2035   -0.3306 C   0  0  0  0  0  0  0  0  0  0  0  0
    5.6864   -2.0653    0.6252 C   0  0  0  0  0  0  0  0  0  0  0  0
    7.0781   -2.1920    0.7606 C   0  0  0  0  0  0  0  0  0  0  0  0
    7.9271   -1.4359   -0.0660 C   0  0  0  0  0  0  0  0  0  0  0  0
    7.3801   -0.5623   -1.0216 C   0  0  0  0  0  0  0  0  0  0  0  0
    5.9855   -0.4570   -1.1454 C   0  0  0  0  0  0  0  0  0  0  0  0
   -0.0882    3.7132   -0.1494 C   0  0  0  0  0  0  0  0  0  0  0  0
   -0.6894    4.4013    0.9266 C   0  0  0  0  0  0  0  0  0  0  0  0
   -0.7412    5.8037    0.9705 C   0  0  0  0  0  0  0  0  0  0  0  0
   -0.1833    6.5494   -0.0827 C   0  0  0  0  0  0  0  0  0  0  0  0
    0.4238    5.8922   -1.1673 C   0  0  0  0  0  0  0  0  0  0  0  0
    0.4663    4.4889   -1.1899 C   0  0  0  0  0  0  0  0  0  0  0  0
   -4.9586   -1.4011   -0.2450 C   0  0  0  0  0  0  0  0  0  0  0  0
   -5.5793   -1.7713   -1.4543 C   0  0  0  0  0  0  0  0  0  0  0  0
   -6.9767   -1.8621   -1.5675 C   0  0  0  0  0  0  0  0  0  0  0  0
   -7.7838   -1.5664   -0.4556 C   0  0  0  0  0  0  0  0  0  0  0  0
   -7.1923   -1.1819    0.7601 C   0  0  0  0  0  0  0  0  0  0  0  0
   -5.7935   -1.0992    0.8506 C   0  0  0  0  0  0  0  0  0  0  0  0
    0.8724   -0.7076   -1.1405 C   0  0  0  0  0  0  0  0  0  0  0  0
   -0.0713   -0.5210   -1.8726 O   0  0  0  0  0  0  0  0  0  0  0  0
  4 51  1  0  0  0  0
  5 52  1  0  0  0  0
  9 57  1  0  0  0  0
 10 58  1  0  0  0  0
 11 60  1  0  0  0  0
 12 61  1  0  0  0  0
 13 62  1  0  0  0  0
 16 43  1  0  0  0  0
 16 42  1  0  0  0  0
 17 16  2  0  0  0  0
 17 19  1  0  0  0  0
 18 17  1  0  0  0  0
 19 20  1  0  0  0  0
 19 21  2  0  0  0  0
 21 22  1  0  0  0  0
 22 47  1  1  0  0  0
 22 23  1  0  0  0  0
 23 24  2  0  0  0  0
 24 26  1  0  0  0  0
 24 25  1  0  0  0  0
 26 27  1  0  0  0  0
 28 29  1  0  0  0  0
 28 26  2  0  0  0  0
 29 53  1  1  0  0  0
 29 30  1  0  0  0  0
 30 31  1  6  0  0  0
 30 45  1  0  0  0  0
 31 33  2  0  0  0  0
 32 31  1  0  0  0  0
 33 35  1  0  0  0  0
 34 33  1  0  0  0  0
 35 45  1  0  0  0  0
 36 35  2  0  0  0  0
 37 36  1  0  0  0  0
 37 46  1  0  0  0  0
 38 37  2  0  0  0  0
 39 38  1  0  0  0  0
 40 38  1  0  0  0  0
 40 42  2  0  0  0  0
 41 40  1  0  0  0  0
 42 46  1  0  0  0  0
 43 21  1  0  0  0  0
 44 23  1  0  0  0  0
 44 28  1  0  0  0  0
 47 48  1  0  0  0  0
 48 49  2  0  0  0  0
 48  1  1  0  0  0  0
 49  2  1  0  0  0  0
 50  3  1  0  0  0  0
 50 49  1  0  0  0  0
 51 50  2  0  0  0  0
 52 51  1  0  0  0  0
 52 47  2  0  0  0  0
 53 54  1  0  0  0  0
 54 55  2  0  0  0  0
 54  6  1  0  0  0  0
 55  7  1  0  0  0  0
 56  8  1  0  0  0  0
 56 55  1  0  0  0  0
 57 56  2  0  0  0  0
 58 57  1  0  0  0  0
 58 53  2  0  0  0  0
 59 36  1  0  0  0  0
 59 64  1  0  0  0  0
 60 59  2  0  0  0  0
 61 60  1  0  0  0  0
 61 62  2  0  0  0  0
 62 63  1  0  0  0  0
 63 64  2  0  0  0  0
 63 14  1  0  0  0  0
 64 15  1  0  0  0  0
 65 43  1  0  0  0  0
 65 44  1  0  0  0  0
 66 65  2  0  0  0  0
M  END
