1,2
q = 0.0, confidence = 0.998

 21 20  0  0  1  0  0  0  0  0999 V2000
    1.1763   -0.5240   -1.3002 N   0  0  0  0  0  0  0  0  0  0  0  0
    1.1763    0.5244    1.3001 N   0  0  0  0  0  0  0  0  0  0  0  0
    3.2453    0.1304   -2.5352 C   0  0  0  0  0  0  0  0  0  0  0  0
    2.4183    0.3106   -1.2643 C   0  0  2  0  0  0  0  0  0  0  0  0
    3.2316   -0.0000    0.0000 C   0  0  0  0  0  0  0  0  0  0  0  0
    2.4182   -0.3104    1.2644 C   0  0  1  0  0  0  0  0  0  0  0  0
    3.2452   -0.1300    2.5353 C   0  0  0  0  0  0  0  0  0  0  0  0
    0.7879   -0.4457   -2.2526 H   0  0  0  0  0  0  0  0  0  0  0  0
    1.4122   -1.5227   -1.1669 H   0  0  0  0  0  0  0  0  0  0  0  0
    0.7880    0.4466    2.2525 H   0  0  0  0  0  0  0  0  0  0  0  0
    1.4123    1.5230    1.1663 H   0  0  0  0  0  0  0  0  0  0  0  0
    4.1484    0.7706   -2.4950 H   0  0  0  0  0  0  0  0  0  0  0  0
    2.6744    0.4270   -3.4386 H   0  0  0  0  0  0  0  0  0  0  0  0
    3.5839   -0.9199   -2.6549 H   0  0  0  0  0  0  0  0  0  0  0  0
    2.0416    1.3534   -1.2274 H   0  0  0  0  0  0  0  0  0  0  0  0
    3.9027    0.8653    0.1858 H   0  0  0  0  0  0  0  0  0  0  0  0
    3.9024   -0.8655   -0.1857 H   0  0  0  0  0  0  0  0  0  0  0  0
    2.0414   -1.3531    1.2276 H   0  0  0  0  0  0  0  0  0  0  0  0
    4.1482   -0.7702    2.4953 H   0  0  0  0  0  0  0  0  0  0  0  0
    2.6741   -0.4264    3.4387 H   0  0  0  0  0  0  0  0  0  0  0  0
    3.5838    0.9203    2.6549 H   0  0  0  0  0  0  0  0  0  0  0  0
  1  4  1  0  0  0  0
  1  9  1  0  0  0  0
  2 10  1  0  0  0  0
  3 12  1  0  0  0  0
  3  4  1  0  0  0  0
  4 15  1  1  0  0  0
  4  5  1  0  0  0  0
  5 16  1  0  0  0  0
  5  6  1  0  0  0  0
  6 18  1  6  0  0  0
  6  2  1  0  0  0  0
  6  7  1  0  0  0  0
  7 21  1  0  0  0  0
  7 20  1  0  0  0  0
  8  1  1  0  0  0  0
 11  2  1  0  0  0  0
 13  3  1  0  0  0  0
 14  3  1  0  0  0  0
 17  5  1  0  0  0  0
 19  7  1  0  0  0  0
M  END
