1,3
q = 0.0, confidence = 0.998

 39 42  0  0  1  0  0  0  0  0999 V2000
    0.5675   -0.8754   -0.7539 N   0  0  0  0  0  2  0  0  0  0  0  0
   -0.7277   -1.1755   -1.0526 N   0  0  0  0  0  0  0  0  0  0  0  0
   -0.9881    1.0524    0.7849 N   0  0  0  0  0  2  0  0  0  0  0  0
   -2.0110    0.4814    0.0977 N   0  0  0  0  0  0  0  0  0  0  0  0
   -1.7026   -0.1198   -1.1860 C   0  0  0  0  0  0  0  0  0  0  0  0
    1.1808   -2.0692   -0.5592 C   0  0  2  0  0  3  0  0  0  0  0  0
    0.2440   -3.1300   -0.7082 C   0  0  0  0  0  0  0  0  0  0  0  0
   -0.9640   -2.5215   -1.0132 C   0  0  0  0  0  0  0  0  0  0  0  0
   -1.4742    1.3285    2.0079 C   0  0  0  0  0  3  0  0  0  0  0  0
   -2.8167    0.9110    2.1170 C   0  0  0  0  0  0  0  0  0  0  0  0
   -3.1471    0.3595    0.8732 C   0  0  0  0  0  0  0  0  0  0  0  0
   -4.4099   -0.2167    0.3923 C   0  0  0  0  0  0  0  0  0  0  0  0
   -5.1222   -1.1194    1.2154 C   0  0  0  0  0  0  0  0  0  0  0  0
   -6.3361   -1.6696    0.7844 C   0  0  0  0  0  0  0  0  0  0  0  0
   -6.8578   -1.3348   -0.4760 C   0  0  0  0  0  0  0  0  0  0  0  0
   -6.1650   -0.4322   -1.2982 C   0  0  0  0  0  0  0  0  0  0  0  0
   -4.9551    0.1296   -0.8673 C   0  0  0  0  0  0  0  0  0  0  0  0
    2.6124   -2.1921   -0.2344 C   0  0  0  0  0  0  0  0  0  0  0  0
    3.5906   -1.5404   -1.0128 C   0  0  0  0  0  0  0  0  0  0  0  0
    4.9474   -1.6581   -0.6869 C   0  0  0  0  0  0  0  0  0  0  0  0
    5.3434   -2.4395    0.4104 C   0  0  0  0  0  0  0  0  0  0  0  0
    4.3771   -3.1091    1.1780 C   0  0  0  0  0  0  0  0  0  0  0  0
    3.0181   -2.9888    0.8576 C   0  0  0  0  0  0  0  0  0  0  0  0
   -2.6282   -0.5445   -1.6105 H   0  0  0  0  0  0  0  0  0  0  0  0
   -1.2879    0.6609   -1.8537 H   0  0  0  0  0  0  0  0  0  0  0  0
    0.4543   -4.2010   -0.6338 H   0  0  0  0  0  0  0  0  0  0  0  0
   -1.9603   -2.9256   -1.2232 H   0  0  0  0  0  0  0  0  0  0  0  0
   -0.8289    1.8230    2.7424 H   0  0  0  0  0  0  0  0  0  0  0  0
   -3.4907    1.0305    2.9706 H   0  0  0  0  0  0  0  0  0  0  0  0
   -4.7021   -1.3972    2.1936 H   0  0  0  0  0  0  0  0  0  0  0  0
   -6.8764   -2.3732    1.4355 H   0  0  0  0  0  0  0  0  0  0  0  0
   -7.8092   -1.7716   -0.8145 H   0  0  0  0  0  0  0  0  0  0  0  0
   -6.5786   -0.1476   -2.2774 H   0  0  0  0  0  0  0  0  0  0  0  0
   -4.4484    0.8791   -1.4947 H   0  0  0  0  0  0  0  0  0  0  0  0
    3.2789   -0.9394   -1.8773 H   0  0  0  0  0  0  0  0  0  0  0  0
    5.6968   -1.1264   -1.2915 H   0  0  0  0  0  0  0  0  0  0  0  0
    6.4095   -2.5258    0.6697 H   0  0  0  0  0  0  0  0  0  0  0  0
    4.6827   -3.7188    2.0416 H   0  0  0  0  0  0  0  0  0  0  0  0
    2.2564   -3.4897    1.4742 H   0  0  0  0  0  0  0  0  0  0  0  0
  1  6  1  0  0  0  0
  2  8  1  0  0  0  0
  2  1  1  0  0  0  0
  3  9  1  0  0  0  0
  4  3  1  0  0  0  0
  4 11  1  0  0  0  0
  5  2  1  0  0  0  0
  5  4  1  0  0  0  0
  6 18  1  1  0  0  0
  7 26  1  0  0  0  0
  7  6  1  0  0  0  0
  8  7  2  0  0  0  0
  9 10  1  0  0  0  0
  9 28  1  0  0  0  0
 10 29  1  0  0  0  0
 11 10  2  0  0  0  0
 12 11  1  0  0  0  0
 12 13  1  0  0  0  0
 13 30  1  0  0  0  0
 14 13  2  0  0  0  0
 14 31  1  0  0  0  0
 15 14  1  0  0  0  0
 16 17  1  0  0  0  0
 16 15  2  0  0  0  0
 17 12  2  0  0  0  0
 18 23  1  0  0  0  0
 19 20  1  0  0  0  0
 19 18  2  0  0  0  0
 20 21  2  0  0  0  0
 21 37  1  0  0  0  0
 21 22  1  0  0  0  0
 22 38  1  0  0  0  0
 23 22  2  0  0  0  0
 23 39  1  0  0  0  0
 24  5  1  0  0  0  0
 25  5  1  0  0  0  0
 27  8  1  0  0  0  0
 32 15  1  0  0  0  0
 33 16  1  0  0  0  0
 34 17  1  0  0  0  0
 35 19  1  0  0  0  0
 36 20  1  0  0  0  0
M  END
