1,2
q = 0.0, confidence = 0.586

 40 41  0  0  0  0  0  0  0  0999 V2000
   -1.5812   -1.2205   -0.5982 N   0  0  0  0  0  2  0  0  0  0  0  0
    0.0623    0.6487   -1.6955 N   0  0  0  0  0  2  0  0  0  0  0  0
   -0.2116   -0.5175   -2.4406 C   0  0  0  0  0  0  0  0  0  0  0  0
   -1.0682   -1.4745   -1.8764 C   0  0  0  0  0  0  0  0  0  0  0  0
   -2.7878   -1.7478   -0.1143 C   0  0  0  0  0  0  0  0  0  0  0  0
   -4.0214   -1.4115   -0.7424 C   0  0  0  0  0  0  0  0  0  0  0  0
   -4.0396   -0.4874   -1.9313 C   0  0  0  0  0  0  0  0  0  0  0  0
   -5.2086   -1.9283   -0.1912 C   0  0  0  0  0  0  0  0  0  0  0  0
   -5.2013   -2.7415    0.9530 C   0  0  0  0  0  0  0  0  0  0  0  0
   -3.9821   -3.0545    1.5733 C   0  0  0  0  0  0  0  0  0  0  0  0
   -2.7843   -2.5639    1.0374 C   0  0  0  0  0  0  0  0  0  0  0  0
    0.6435   -0.7841   -3.6562 C   0  0  0  0  0  0  0  0  0  0  0  0
   -1.2746   -2.8518   -2.4537 C   0  0  0  0  0  0  0  0  0  0  0  0
    0.2388    1.9039   -2.2875 C   0  0  0  0  0  0  0  0  0  0  0  0
    1.1897    2.8170   -1.7466 C   0  0  0  0  0  0  0  0  0  0  0  0
    2.0457    2.4329   -0.5703 C   0  0  0  0  0  0  0  0  0  0  0  0
    1.3059    4.0843   -2.3469 C   0  0  0  0  0  0  0  0  0  0  0  0
    0.5198    4.4623   -3.4460 C   0  0  0  0  0  0  0  0  0  0  0  0
   -0.4144    3.5558   -3.9718 C   0  0  0  0  0  0  0  0  0  0  0  0
   -0.5537    2.2885   -3.3953 C   0  0  0  0  0  0  0  0  0  0  0  0
   -3.4040    0.4031   -1.7453 H   0  0  0  0  0  0  0  0  0  0  0  0
   -3.6266   -0.9698   -2.8426 H   0  0  0  0  0  0  0  0  0  0  0  0
   -5.0689   -0.1524   -2.1623 H   0  0  0  0  0  0  0  0  0  0  0  0
   -6.1673   -1.6668   -0.6674 H   0  0  0  0  0  0  0  0  0  0  0  0
   -6.1484   -3.1240    1.3621 H   0  0  0  0  0  0  0  0  0  0  0  0
   -3.9607   -3.6897    2.4719 H   0  0  0  0  0  0  0  0  0  0  0  0
   -1.8150   -2.8109    1.4950 H   0  0  0  0  0  0  0  0  0  0  0  0
    0.8106    0.1529   -4.2212 H   0  0  0  0  0  0  0  0  0  0  0  0
    1.6444   -1.1669   -3.3596 H   0  0  0  0  0  0  0  0  0  0  0  0
    0.1870   -1.5201   -4.3428 H   0  0  0  0  0  0  0  0  0  0  0  0
   -0.6094   -3.5985   -1.9662 H   0  0  0  0  0  0  0  0  0  0  0  0
   -2.3143   -3.1868   -2.2654 H   0  0  0  0  0  0  0  0  0  0  0  0
   -1.0892   -2.8889   -3.5420 H   0  0  0  0  0  0  0  0  0  0  0  0
    1.4781    2.4715    0.3832 H   0  0  0  0  0  0  0  0  0  0  0  0
    2.4306    1.3957   -0.6689 H   0  0  0  0  0  0  0  0  0  0  0  0
    2.9073    3.1195   -0.4630 H   0  0  0  0  0  0  0  0  0  0  0  0
    2.0443    4.7918   -1.9372 H   0  0  0  0  0  0  0  0  0  0  0  0
    0.6376    5.4619   -3.8903 H   0  0  0  0  0  0  0  0  0  0  0  0
   -1.0438    3.8390   -4.8293 H   0  0  0  0  0  0  0  0  0  0  0  0
   -1.2977    1.5733   -3.7789 H   0  0  0  0  0  0  0  0  0  0  0  0
  1  5  1  0  0  0  0
  3  4  2  0  0  0  0
  3  2  1  0  0  0  0
  4  1  1  0  0  0  0
  5 11  1  0  0  0  0
  6  8  1  0  0  0  0
  6  5  2  0  0  0  0
  7 21  1  0  0  0  0
  7  6  1  0  0  0  0
  8  9  2  0  0  0  0
  9 25  1  0  0  0  0
  9 10  1  0  0  0  0
 10 26  1  0  0  0  0
 11 27  1  0  0  0  0
 11 10  2  0  0  0  0
 12 29  1  0  0  0  0
 12  3  1  0  0  0  0
 13 32  1  0  0  0  0
 13 31  1  0  0  0  0
 13  4  1  0  0  0  0
 14 15  1  0  0  0  0
 14  2  1  0  0  0  0
 15 16  1  0  0  0  0
 16 36  1  0  0  0  0
 16 34  1  0  0  0  0
 17 37  1  0  0  0  0
 17 15  2  0  0  0  0
 18 17  1  0  0  0  0
 19 18  2  0  0  0  0
 19 20  1  0  0  0  0
 20 14  2  0  0  0  0
 22  7  1  0  0  0  0
 23  7  1  0  0  0  0
 24  8  1  0  0  0  0
 28 12  1  0  0  0  0
 30 12  1  0  0  0  0
 33 13  1  0  0  0  0
 35 16  1  0  0  0  0
 38 18  1  0  0  0  0
 39 19  1  0  0  0  0
 40 20  1  0  0  0  0
M  END
