2,4
q = 0.0, confidence = 1.0

 51 52  0  0  1  0  0  0  0  0999 V2000
   -1.6245    3.4755   -0.1357 N   0  0  0  0  0  0  0  0  0  0  0  0
   -0.7501    1.4682   -0.0465 N   0  0  0  0  0  2  0  0  0  0  0  0
    2.0408   -0.9178    3.1975 N   0  0  0  0  0  0  0  0  0  0  0  0
    0.8328   -0.3686    1.4469 N   0  0  0  0  0  2  0  0  0  0  0  0
    1.8451    0.7103   -1.0085 N   0  0  0  0  0  0  0  0  0  0  0  0
   -1.6889    2.2570    0.4781 C   0  0  2  0  0  3  0  0  0  0  0  0
   -0.0824    2.1824   -1.0331 C   0  0  0  0  0  0  0  0  0  0  0  0
   -0.6144    3.4630   -1.0915 C   0  0  0  0  0  0  0  0  0  0  0  0
   -2.6980    1.8515    1.5007 C   0  0  0  0  0  0  0  0  0  0  0  0
   -3.6438    2.9674    1.9415 C   0  0  0  0  0  0  0  0  0  0  0  0
    1.0042    1.5410   -1.8412 C   0  0  0  0  0  0  0  0  0  0  0  0
   -0.2889    4.6429   -1.9421 C   0  0  0  0  0  0  0  0  0  0  0  0
    0.8513   -1.1199    2.5564 C   0  0  1  0  0  3  0  0  0  0  0  0
    2.0383    0.3198    1.3792 C   0  0  0  0  0  0  0  0  0  0  0  0
    2.8180   -0.0232    2.4736 C   0  0  0  0  0  0  0  0  0  0  0  0
   -0.2002   -2.0658    3.0440 C   0  0  0  0  0  0  0  0  0  0  0  0
   -1.6039   -1.4559    3.1183 C   0  0  0  0  0  0  0  0  0  0  0  0
    2.3376    1.2528    0.2367 C   0  0  0  0  0  0  0  0  0  0  0  0
    4.1838    0.3975    2.8985 C   0  0  0  0  0  0  0  0  0  0  0  0
    2.6881   -0.2717   -1.6685 C   0  0  0  0  0  0  0  0  0  0  0  0
    3.8814    0.2976   -2.4543 C   0  0  0  0  0  0  0  0  0  0  0  0
    4.7426   -0.8043   -3.0719 C   0  0  0  0  0  0  0  0  0  0  0  0
   -2.2331    4.2663    0.0744 H   0  0  0  0  0  0  0  0  0  0  0  0
   -3.2598    0.9962    1.0641 H   0  0  0  0  0  0  0  0  0  0  0  0
   -2.1542    1.4255    2.3695 H   0  0  0  0  0  0  0  0  0  0  0  0
   -3.0998    3.8197    2.4009 H   0  0  0  0  0  0  0  0  0  0  0  0
   -4.2442    3.3549    1.0918 H   0  0  0  0  0  0  0  0  0  0  0  0
   -4.3618    2.5925    2.6954 H   0  0  0  0  0  0  0  0  0  0  0  0
    0.5440    0.8679   -2.5987 H   0  0  0  0  0  0  0  0  0  0  0  0
    1.5454    2.3447   -2.4111 H   0  0  0  0  0  0  0  0  0  0  0  0
   -1.0907    4.8630   -2.6795 H   0  0  0  0  0  0  0  0  0  0  0  0
   -0.1294    5.5604   -1.3370 H   0  0  0  0  0  0  0  0  0  0  0  0
    0.6382    4.4511   -2.5140 H   0  0  0  0  0  0  0  0  0  0  0  0
    2.3184   -1.3862    4.0603 H   0  0  0  0  0  0  0  0  0  0  0  0
   -0.2314   -2.9171    2.3323 H   0  0  0  0  0  0  0  0  0  0  0  0
    0.1162   -2.4567    4.0341 H   0  0  0  0  0  0  0  0  0  0  0  0
   -1.6416   -0.5904    3.8115 H   0  0  0  0  0  0  0  0  0  0  0  0
   -1.9126   -1.1178    2.1067 H   0  0  0  0  0  0  0  0  0  0  0  0
   -2.3376   -2.2110    3.4611 H   0  0  0  0  0  0  0  0  0  0  0  0
    1.8383    2.2278    0.4229 H   0  0  0  0  0  0  0  0  0  0  0  0
    3.4333    1.4765    0.2234 H   0  0  0  0  0  0  0  0  0  0  0  0
    4.1679    1.0509    3.7976 H   0  0  0  0  0  0  0  0  0  0  0  0
    4.8302   -0.4749    3.1318 H   0  0  0  0  0  0  0  0  0  0  0  0
    4.6743    0.9675    2.0872 H   0  0  0  0  0  0  0  0  0  0  0  0
    3.0585   -0.9707   -0.8853 H   0  0  0  0  0  0  0  0  0  0  0  0
    2.0383   -0.8929   -2.3197 H   0  0  0  0  0  0  0  0  0  0  0  0
    3.5053    0.9707   -3.2562 H   0  0  0  0  0  0  0  0  0  0  0  0
    4.5062    0.9360   -1.7891 H   0  0  0  0  0  0  0  0  0  0  0  0
    5.1612   -1.4726   -2.2900 H   0  0  0  0  0  0  0  0  0  0  0  0
    4.1436   -1.4408   -3.7558 H   0  0  0  0  0  0  0  0  0  0  0  0
    5.5933   -0.3933   -3.6519 H   0  0  0  0  0  0  0  0  0  0  0  0
  1 23  1  0  0  0  0
  1  6  1  0  0  0  0
  2  6  1  0  0  0  0
  3 34  1  0  0  0  0
  4 13  1  0  0  0  0
  5 18  1  0  0  0  0
  6  9  1  6  0  0  0
  7  2  1  0  0  0  0
  8  7  2  0  0  0  0
  8  1  1  0  0  0  0
  9 10  1  0  0  0  0
  9 25  1  0  0  0  0
 10 26  1  0  0  0  0
 10 28  1  0  0  0  0
 11  7  1  0  0  0  0
 11  5  1  0  0  0  0
 12 32  1  0  0  0  0
 12  8  1  0  0  0  0
 13 16  1  6  0  0  0
 13  3  1  0  0  0  0
 14  4  1  0  0  0  0
 14 15  2  0  0  0  0
 15 19  1  0  0  0  0
 15  3  1  0  0  0  0
 16 17  1  0  0  0  0
 16 36  1  0  0  0  0
 17 39  1  0  0  0  0
 17 37  1  0  0  0  0
 18 40  1  0  0  0  0
 18 14  1  0  0  0  0
 19 43  1  0  0  0  0
 19 42  1  0  0  0  0
 20  5  1  0  0  0  0
 20 45  1  0  0  0  0
 21 48  1  0  0  0  0
 21 20  1  0  0  0  0
 22 21  1  0  0  0  0
 22 49  1  0  0  0  0
 24  9  1  0  0  0  0
 27 10  1  0  0  0  0
 29 11  1  0  0  0  0
 30 11  1  0  0  0  0
 31 12  1  0  0  0  0
 33 12  1  0  0  0  0
 35 16  1  0  0  0  0
 38 17  1  0  0  0  0
 41 18  1  0  0  0  0
 44 19  1  0  0  0  0
 46 20  1  0  0  0  0
 47 21  1  0  0  0  0
 50 22  1  0  0  0  0
 51 22  1  0  0  0  0
M  END
