1,4
q = 0.0, confidence = 0.996

 30 29  0  0  1  0  0  0  0  0999 V2000
   -3.0160    0.7633   -0.3322 N   0  0  0  0  0  0  0  0  0  0  0  0
   -3.7827   -0.5283   -0.1961 C   0  0  1  0  0  0  0  0  0  0  0  0
   -3.0499   -1.5125    0.7347 C   0  0  1  0  0  0  0  0  0  0  0  0
   -1.6920   -1.8396    0.1445 N   0  0  0  0  0  0  0  0  0  0  0  0
   -3.4432    1.7847    0.6478 C   0  0  0  0  0  0  0  0  0  0  0  0
   -3.2021    1.3055   -1.6952 C   0  0  0  0  0  0  0  0  0  0  0  0
   -5.2691   -0.3845    0.1458 C   0  0  0  0  0  0  0  0  0  0  0  0
   -2.9519   -1.0637    2.1945 C   0  0  0  0  0  0  0  0  0  0  0  0
   -1.8577   -2.6213   -1.1088 C   0  0  0  0  0  0  0  0  0  0  0  0
   -0.9121   -2.6767    1.0967 C   0  0  0  0  0  0  0  0  0  0  0  0
   -3.7502   -0.9738   -1.2078 H   0  0  0  0  0  0  0  0  0  0  0  0
   -3.6381   -2.4606    0.7108 H   0  0  0  0  0  0  0  0  0  0  0  0
   -4.5076    2.0709    0.5072 H   0  0  0  0  0  0  0  0  0  0  0  0
   -3.3054    1.4253    1.6805 H   0  0  0  0  0  0  0  0  0  0  0  0
   -2.8366    2.6939    0.5146 H   0  0  0  0  0  0  0  0  0  0  0  0
   -4.2733    1.5140   -1.9175 H   0  0  0  0  0  0  0  0  0  0  0  0
   -2.6468    2.2565   -1.7979 H   0  0  0  0  0  0  0  0  0  0  0  0
   -2.8108    0.5926   -2.4458 H   0  0  0  0  0  0  0  0  0  0  0  0
   -5.7637   -1.3712    0.0554 H   0  0  0  0  0  0  0  0  0  0  0  0
   -5.4515   -0.0135    1.1720 H   0  0  0  0  0  0  0  0  0  0  0  0
   -5.7811    0.2978   -0.5602 H   0  0  0  0  0  0  0  0  0  0  0  0
   -3.9288   -0.6737    2.5356 H   0  0  0  0  0  0  0  0  0  0  0  0
   -2.6964   -1.9024    2.8663 H   0  0  0  0  0  0  0  0  0  0  0  0
   -2.1879   -0.2714    2.3281 H   0  0  0  0  0  0  0  0  0  0  0  0
   -2.4386   -3.5494   -0.9114 H   0  0  0  0  0  0  0  0  0  0  0  0
   -2.3679   -2.0325   -1.8892 H   0  0  0  0  0  0  0  0  0  0  0  0
   -0.8674   -2.9056   -1.5006 H   0  0  0  0  0  0  0  0  0  0  0  0
   -1.5053   -3.5703    1.3914 H   0  0  0  0  0  0  0  0  0  0  0  0
    0.0212   -3.0069    0.6135 H   0  0  0  0  0  0  0  0  0  0  0  0
   -0.6390   -2.0963    1.9925 H   0  0  0  0  0  0  0  0  0  0  0  0
  1  2  1  0  0  0  0
  1  5  1  0  0  0  0
  2 11  1  6  0  0  0
  2  7  1  0  0  0  0
  2  3  1  0  0  0  0
  3 12  1  6  0  0  0
  3  8  1  0  0  0  0
  4  3  1  0  0  0  0
  4 10  1  0  0  0  0
  5 14  1  0  0  0  0
  6  1  1  0  0  0  0
  7 20  1  0  0  0  0
  8 24  1  0  0  0  0
  8 22  1  0  0  0  0
  8 23  1  0  0  0  0
  9 25  1  0  0  0  0
  9  4  1  0  0  0  0
 10 28  1  0  0  0  0
 10 30  1  0  0  0  0
 13  5  1  0  0  0  0
 15  5  1  0  0  0  0
 16  6  1  0  0  0  0
 17  6  1  0  0  0  0
 18  6  1  0  0  0  0
 19  7  1  0  0  0  0
 21  7  1  0  0  0  0
 26  9  1  0  0  0  0
 27  9  1  0  0  0  0
 29 10  1  0  0  0  0
M  END
