3,18
q = 0.0, confidence = 0.994

 50 54  0  0  1  0  0  0  0  0999 V2000
    3.1233    1.6243    0.4871 N   0  0  0  0  0  0  0  0  0  0  0  0
    3.3664    2.5702    0.7794 H   0  0  0  0  0  0  0  0  0  0  0  0
    1.8927   -0.2054    0.1882 N   0  0  0  0  0  2  0  0  0  0  0  0
   -1.6418    0.7689   -0.8391 C   0  0  1  0  0  3  0  0  0  0  0  0
   -0.5623    1.7927   -1.0033 C   0  0  0  0  0  0  0  0  0  0  0  0
   -0.8945    2.4967   -1.7928 H   0  0  0  0  0  0  0  0  0  0  0  0
    0.3239    1.2671   -1.4096 H   0  0  0  0  0  0  0  0  0  0  0  0
    0.7005    1.7377    1.2335 C   0  0  0  0  0  0  0  0  0  0  0  0
    1.0372    2.3894    2.0675 H   0  0  0  0  0  0  0  0  0  0  0  0
    0.0533    0.9566    1.6943 H   0  0  0  0  0  0  0  0  0  0  0  0
   -2.9805    1.0770   -0.9669 N   0  0  0  0  0  0  0  0  0  0  0  0
   -3.3508    2.0113   -1.1400 H   0  0  0  0  0  0  0  0  0  0  0  0
   -0.1232    2.6204    0.2474 C   0  0  0  0  0  0  0  0  0  0  0  0
   -1.3361    3.1686    1.0368 C   0  0  0  0  0  0  0  0  0  0  0  0
   -1.9938    2.3266    1.3376 H   0  0  0  0  0  0  0  0  0  0  0  0
   -0.9523    3.6008    1.9871 H   0  0  0  0  0  0  0  0  0  0  0  0
    3.9741    0.6998   -0.1063 C   0  0  0  0  0  0  0  0  0  0  0  0
   -1.4780   -0.5356   -0.6392 N   0  0  0  0  0  2  0  0  0  0  0  0
   -3.7189   -0.0909   -0.8430 C   0  0  0  0  0  0  0  0  0  0  0  0
    3.1720   -0.4624   -0.2914 C   0  0  0  0  0  0  0  0  0  0  0  0
   -2.1222    4.2618    0.3022 C   0  0  0  0  0  0  0  0  0  0  0  0
   -2.6153    3.8518   -0.6093 H   0  0  0  0  0  0  0  0  0  0  0  0
   -2.9463    4.6266    0.9496 H   0  0  0  0  0  0  0  0  0  0  0  0
   -2.7453   -1.1086   -0.6410 C   0  0  0  0  0  0  0  0  0  0  0  0
    1.8847    1.0436    0.6509 C   0  0  2  0  0  3  0  0  0  0  0  0
   -3.1325   -2.4538   -0.4993 C   0  0  0  0  0  0  0  0  0  0  0  0
   -2.3740   -3.2425   -0.3785 H   0  0  0  0  0  0  0  0  0  0  0  0
   -5.0932   -0.3698   -0.8930 C   0  0  0  0  0  0  0  0  0  0  0  0
   -5.8437    0.4191   -1.0472 H   0  0  0  0  0  0  0  0  0  0  0  0
   -4.5020   -2.7345   -0.5477 C   0  0  0  0  0  0  0  0  0  0  0  0
   -4.8422   -3.7750   -0.4402 H   0  0  0  0  0  0  0  0  0  0  0  0
    3.7093   -1.6257   -0.8728 C   0  0  0  0  0  0  0  0  0  0  0  0
    3.0776   -2.5192   -1.0051 H   0  0  0  0  0  0  0  0  0  0  0  0
    5.3230    0.7434   -0.4899 C   0  0  0  0  0  0  0  0  0  0  0  0
    5.9426    1.6402   -0.3440 H   0  0  0  0  0  0  0  0  0  0  0  0
   -1.2107    5.4202   -0.1191 C   0  0  0  0  0  0  0  0  0  0  0  0
   -0.8155    5.9177    0.7950 H   0  0  0  0  0  0  0  0  0  0  0  0
   -1.7862    6.1923   -0.6704 H   0  0  0  0  0  0  0  0  0  0  0  0
    5.0543   -1.5810   -1.2569 C   0  0  0  0  0  0  0  0  0  0  0  0
    5.5120   -2.4705   -1.7146 H   0  0  0  0  0  0  0  0  0  0  0  0
    5.8455   -0.4204   -1.0702 C   0  0  0  0  0  0  0  0  0  0  0  0
    6.8992   -0.4325   -1.3868 H   0  0  0  0  0  0  0  0  0  0  0  0
    0.7451    3.8102   -0.2424 C   0  0  0  0  0  0  0  0  0  0  0  0
    1.2324    4.2603    0.6526 H   0  0  0  0  0  0  0  0  0  0  0  0
    1.5628    3.4336   -0.8933 H   0  0  0  0  0  0  0  0  0  0  0  0
   -5.4643   -1.7119   -0.7372 C   0  0  0  0  0  0  0  0  0  0  0  0
   -6.5314   -1.9785   -0.7678 H   0  0  0  0  0  0  0  0  0  0  0  0
   -0.0383    4.9141   -0.9659 C   0  0  0  0  0  0  0  0  0  0  0  0
    0.6483    5.7477   -1.2214 H   0  0  0  0  0  0  0  0  0  0  0  0
   -0.4219    4.5364   -1.9398 H   0  0  0  0  0  0  0  0  0  0  0  0
  1 25  1  0  0  0  0
  1  2  1  0  0  0  0
  3 25  1  0  0  0  0
  4  5  1  6  0  0  0
  4 18  1  0  0  0  0
  5 13  1  0  0  0  0
  6  5  1  0  0  0  0
  7  5  1  0  0  0  0
  8 10  1  0  0  0  0
  8  9  1  0  0  0  0
 11 19  1  0  0  0  0
 11  4  1  0  0  0  0
 12 11  1  0  0  0  0
 13 14  1  0  0  0  0
 13  8  1  0  0  0  0
 14 15  1  0  0  0  0
 14 16  1  0  0  0  0
 17  1  1  0  0  0  0
 19 24  1  0  0  0  0
 20 17  1  0  0  0  0
 20  3  1  0  0  0  0
 21 23  1  0  0  0  0
 21 14  1  0  0  0  0
 22 21  1  0  0  0  0
 24 18  1  0  0  0  0
 24 26  2  0  0  0  0
 25  8  1  6  0  0  0
 26 27  1  0  0  0  0
 28 19  2  0  0  0  0
 28 46  1  0  0  0  0
 29 28  1  0  0  0  0
 30 26  1  0  0  0  0
 30 31  1  0  0  0  0
 32 20  2  0  0  0  0
 33 32  1  0  0  0  0
 34 35  1  0  0  0  0
 34 17  2  0  0  0  0
 36 21  1  0  0  0  0
 36 37  1  0  0  0  0
 38 36  1  0  0  0  0
 39 41  2  0  0  0  0
 39 32  1  0  0  0  0
 40 39  1  0  0  0  0
 41 34  1  0  0  0  0
 42 41  1  0  0  0  0
 43 13  1  0  0  0  0
 43 44  1  0  0  0  0
 45 43  1  0  0  0  0
 46 30  2  0  0  0  0
 47 46  1  0  0  0  0
 48 43  1  0  0  0  0
 48 36  1  0  0  0  0
 49 48  1  0  0  0  0
 50 48  1  0  0  0  0
M  END
