5,6
q = 0.0, confidence = 0.994

 72 77  0  0  1  0  0  0  0  0999 V2000
    0.0645   -1.2443   -0.8456 N   0  0  0  0  0  0  0  0  0  0  0  0
   -0.8931   -0.5529   -1.4453 N   0  0  0  0  0  0  0  0  0  0  0  0
    0.0645    1.2442    0.8456 N   0  0  0  0  0  0  0  0  0  0  0  0
   -0.8931    0.5528    1.4453 N   0  0  0  0  0  0  0  0  0  0  0  0
    2.0272    2.3276   -0.6982 N   0  0  0  0  0  2  0  0  0  0  0  0
    2.0273   -2.3276    0.6982 N   0  0  0  0  0  2  0  0  0  0  0  0
   -1.8080    0.0647   -0.7519 C   0  0  0  0  0  0  0  0  0  0  0  0
    0.0005   -2.5259   -0.6139 C   0  0  0  0  0  0  0  0  0  0  0  0
   -1.8080   -0.0648    0.7518 C   0  0  0  0  0  0  0  0  0  0  0  0
   -2.7817   -0.9359    1.4333 C   0  0  0  0  0  0  0  0  0  0  0  0
    1.1731   -3.1515    0.0544 C   0  0  2  0  0  3  0  0  0  0  0  0
   -1.1991    3.3482    0.9380 C   0  0  0  0  0  0  0  0  0  0  0  0
   -2.7816    0.9358   -1.4334 C   0  0  0  0  0  0  0  0  0  0  0  0
   -1.1991   -3.3483   -0.9379 C   0  0  0  0  0  0  0  0  0  0  0  0
    1.1730    3.1515   -0.0544 C   0  0  2  0  0  3  0  0  0  0  0  0
   -3.8041    1.5799   -0.7010 C   0  0  0  0  0  0  0  0  0  0  0  0
   -3.8718    1.4380    0.3874 H   0  0  0  0  0  0  0  0  0  0  0  0
    3.3533   -4.2077    1.3905 C   0  0  0  0  0  0  0  0  0  0  0  0
    4.2264   -4.5824    1.9437 H   0  0  0  0  0  0  0  0  0  0  0  0
   -2.6929   -1.1563    2.8283 C   0  0  0  0  0  0  0  0  0  0  0  0
   -1.8848   -0.6629    3.3881 H   0  0  0  0  0  0  0  0  0  0  0  0
    0.0004    2.5258    0.6140 C   0  0  0  0  0  0  0  0  0  0  0  0
    1.3885   -4.5446    0.0234 C   0  0  0  0  0  0  0  0  0  0  0  0
    0.7022   -5.1965   -0.5338 H   0  0  0  0  0  0  0  0  0  0  0  0
   -2.6928    1.1562   -2.8284 C   0  0  0  0  0  0  0  0  0  0  0  0
   -1.8848    0.6629   -3.3881 H   0  0  0  0  0  0  0  0  0  0  0  0
   -4.7226    2.4155   -1.3503 C   0  0  0  0  0  0  0  0  0  0  0  0
   -5.5091    2.9142   -0.7646 H   0  0  0  0  0  0  0  0  0  0  0  0
   -1.7507   -4.2086    0.0365 C   0  0  0  0  0  0  0  0  0  0  0  0
   -1.2856   -4.2721    1.0313 H   0  0  0  0  0  0  0  0  0  0  0  0
   -1.8296    3.2434    2.1970 C   0  0  0  0  0  0  0  0  0  0  0  0
   -1.4110    2.5686    2.9573 H   0  0  0  0  0  0  0  0  0  0  0  0
    3.0834   -2.8302    1.3512 C   0  0  0  0  0  0  0  0  0  0  0  0
    3.7209   -2.0814    1.8571 H   0  0  0  0  0  0  0  0  0  0  0  0
   -3.8041   -1.5800    0.7009 C   0  0  0  0  0  0  0  0  0  0  0  0
   -3.8718   -1.4381   -0.3875 H   0  0  0  0  0  0  0  0  0  0  0  0
    2.4965   -5.0737    0.6991 C   0  0  0  0  0  0  0  0  0  0  0  0
    2.6879   -6.1573    0.6803 H   0  0  0  0  0  0  0  0  0  0  0  0
   -1.7508    4.2086   -0.0364 C   0  0  0  0  0  0  0  0  0  0  0  0
   -1.2856    4.2721   -1.0312 H   0  0  0  0  0  0  0  0  0  0  0  0
   -1.8295   -3.2435   -2.1970 C   0  0  0  0  0  0  0  0  0  0  0  0
   -1.4108   -2.5687   -2.9573 H   0  0  0  0  0  0  0  0  0  0  0  0
   -3.6078   -1.9965    3.4693 C   0  0  0  0  0  0  0  0  0  0  0  0
   -3.5262   -2.1649    4.5540 H   0  0  0  0  0  0  0  0  0  0  0  0
   -4.6290    2.6269   -2.7340 C   0  0  0  0  0  0  0  0  0  0  0  0
   -5.3486    3.2863   -3.2428 H   0  0  0  0  0  0  0  0  0  0  0  0
   -2.9798    3.9930    2.4752 C   0  0  0  0  0  0  0  0  0  0  0  0
   -3.4568    3.9107    3.4635 H   0  0  0  0  0  0  0  0  0  0  0  0
   -3.5229    4.8464    1.4996 C   0  0  0  0  0  0  0  0  0  0  0  0
   -4.4303    5.4291    1.7200 H   0  0  0  0  0  0  0  0  0  0  0  0
   -4.6291   -2.6270    2.7339 C   0  0  0  0  0  0  0  0  0  0  0  0
   -5.3487   -3.2863    3.2427 H   0  0  0  0  0  0  0  0  0  0  0  0
   -3.5228   -4.8465   -1.4996 C   0  0  0  0  0  0  0  0  0  0  0  0
   -4.4301   -5.4292   -1.7200 H   0  0  0  0  0  0  0  0  0  0  0  0
    1.3883    4.5446   -0.0234 C   0  0  0  0  0  0  0  0  0  0  0  0
    0.7020    5.1965    0.5338 H   0  0  0  0  0  0  0  0  0  0  0  0
    3.3532    4.2077   -1.3905 C   0  0  0  0  0  0  0  0  0  0  0  0
    4.2262    4.5825   -1.9437 H   0  0  0  0  0  0  0  0  0  0  0  0
   -4.7226   -2.4156    1.3502 C   0  0  0  0  0  0  0  0  0  0  0  0
   -5.5091   -2.9142    0.7645 H   0  0  0  0  0  0  0  0  0  0  0  0
    3.0833    2.8302   -1.3512 C   0  0  0  0  0  0  0  0  0  0  0  0
    3.7208    2.0815   -1.8571 H   0  0  0  0  0  0  0  0  0  0  0  0
   -2.9064   -4.9501   -0.2432 C   0  0  0  0  0  0  0  0  0  0  0  0
   -3.3345   -5.6028    0.5321 H   0  0  0  0  0  0  0  0  0  0  0  0
    2.4963    5.0738   -0.6991 C   0  0  0  0  0  0  0  0  0  0  0  0
    2.6877    6.1573   -0.6803 H   0  0  0  0  0  0  0  0  0  0  0  0
   -2.9796   -3.9931   -2.4752 C   0  0  0  0  0  0  0  0  0  0  0  0
   -3.4566   -3.9108   -3.4636 H   0  0  0  0  0  0  0  0  0  0  0  0
   -2.9065    4.9501    0.2432 C   0  0  0  0  0  0  0  0  0  0  0  0
   -3.3346    5.6027   -0.5321 H   0  0  0  0  0  0  0  0  0  0  0  0
   -3.6077    1.9964   -3.4694 C   0  0  0  0  0  0  0  0  0  0  0  0
   -3.5261    2.1649   -4.5540 H   0  0  0  0  0  0  0  0  0  0  0  0
  1  8  2  0  0  0  0
  2  1  1  0  0  0  0
  2  7  2  0  0  0  0
  3  4  1  0  0  0  0
  5 15  1  0  0  0  0
  6 33  1  0  0  0  0
  7  9  1  0  0  0  0
  9 10  1  0  0  0  0
  9  4  2  0  0  0  0
 10 20  1  0  0  0  0
 11  8  1  1  0  0  0
 11  6  1  0  0  0  0
 12 31  1  0  0  0  0
 13  7  1  0  0  0  0
 13 16  1  0  0  0  0
 14  8  1  0  0  0  0
 14 29  1  0  0  0  0
 15 55  1  0  0  0  0
 15 22  1  6  0  0  0
 16 17  1  0  0  0  0
 18 19  1  0  0  0  0
 20 21  1  0  0  0  0
 20 43  2  0  0  0  0
 22  3  2  0  0  0  0
 22 12  1  0  0  0  0
 23 11  1  0  0  0  0
 23 37  2  0  0  0  0
 24 23  1  0  0  0  0
 25 13  2  0  0  0  0
 26 25  1  0  0  0  0
 27 28  1  0  0  0  0
 27 16  2  0  0  0  0
 29 30  1  0  0  0  0
 31 47  2  0  0  0  0
 31 32  1  0  0  0  0
 33 18  2  0  0  0  0
 33 34  1  0  0  0  0
 35 59  1  0  0  0  0
 35 10  2  0  0  0  0
 36 35  1  0  0  0  0
 37 18  1  0  0  0  0
 38 37  1  0  0  0  0
 39 69  1  0  0  0  0
 39 12  2  0  0  0  0
 40 39  1  0  0  0  0
 41 14  2  0  0  0  0
 42 41  1  0  0  0  0
 43 44  1  0  0  0  0
 45 27  1  0  0  0  0
 46 45  1  0  0  0  0
 47 48  1  0  0  0  0
 49 50  1  0  0  0  0
 49 47  1  0  0  0  0
 51 52  1  0  0  0  0
 51 43  1  0  0  0  0
 53 63  1  0  0  0  0
 54 53  1  0  0  0  0
 55 56  1  0  0  0  0
 57 61  2  0  0  0  0
 57 65  1  0  0  0  0
 58 57  1  0  0  0  0
 59 51  2  0  0  0  0
 60 59  1  0  0  0  0
 61  5  1  0  0  0  0
 62 61  1  0  0  0  0
 63 29  2  0  0  0  0
 63 64  1  0  0  0  0
 65 66  1  0  0  0  0
 65 55  2  0  0  0  0
 67 41  1  0  0  0  0
 67 53  2  0  0  0  0
 68 67  1  0  0  0  0
 69 49  2  0  0  0  0
 70 69  1  0  0  0  0
 71 25  1  0  0  0  0
 71 45  2  0  0  0  0
 72 71  1  0  0  0  0
M  END
