1,2
q = 0.0, confidence = 0.998

 29 31  0  0  0  0  0  0  0  0999 V2000
   -0.3006    0.5440    0.2468 N   0  0  0  0  0  2  0  0  0  0  0  0
   -2.9133    0.8218    0.0692 N   0  0  0  0  0  2  0  0  0  0  0  0
   -2.1850    1.9770    0.2087 C   0  0  0  0  0  0  0  0  0  0  0  0
    3.8522   -0.1695    0.5024 C   0  0  0  0  0  0  0  0  0  0  0  0
    5.1754   -0.4286    0.6278 O   0  0  0  0  0  0  0  0  0  0  0  0
    2.9563   -0.9403    1.2659 C   0  0  0  0  0  0  0  0  0  0  0  0
    3.3597   -1.7178    1.9290 H   0  0  0  0  0  0  0  0  0  0  0  0
   -0.7575    1.7753    0.3046 C   0  0  0  0  0  0  0  0  0  0  0  0
   -0.0762    2.6285    0.4678 H   0  0  0  0  0  0  0  0  0  0  0  0
    3.3742    0.8414   -0.3775 C   0  0  0  0  0  0  0  0  0  0  0  0
   -4.2107    3.2992    0.1996 C   0  0  0  0  0  0  0  0  0  0  0  0
   -4.7266    4.2693    0.2491 H   0  0  0  0  0  0  0  0  0  0  0  0
    1.5848   -0.7210    1.1585 C   0  0  0  0  0  0  0  0  0  0  0  0
    0.8719   -1.3221    1.7356 H   0  0  0  0  0  0  0  0  0  0  0  0
    5.6829    1.2899   -1.0180 C   0  0  0  0  0  0  0  0  0  0  0  0
    6.4550    1.8210   -1.5909 H   0  0  0  0  0  0  0  0  0  0  0  0
   -4.9391    2.1057    0.0610 C   0  0  0  0  0  0  0  0  0  0  0  0
   -6.0365    2.1109    0.0006 H   0  0  0  0  0  0  0  0  0  0  0  0
   -4.2565    0.8839   -0.0028 C   0  0  0  0  0  0  0  0  0  0  0  0
   -4.7541   -0.0946   -0.1209 H   0  0  0  0  0  0  0  0  0  0  0  0
    7.3280   -0.0382    0.1056 O   0  0  0  0  0  0  0  0  0  0  0  0
    1.0922    0.3061    0.3118 C   0  0  0  0  0  0  0  0  0  0  0  0
    6.1761    0.2676   -0.0966 C   0  0  0  0  0  0  0  0  0  0  0  0
   -2.8154    3.2343    0.2751 C   0  0  0  0  0  0  0  0  0  0  0  0
   -2.2036    4.1413    0.3847 H   0  0  0  0  0  0  0  0  0  0  0  0
    1.9844    1.0710   -0.4540 C   0  0  0  0  0  0  0  0  0  0  0  0
    1.6029    1.8264   -1.1573 H   0  0  0  0  0  0  0  0  0  0  0  0
    4.3527    1.5638   -1.1514 C   0  0  0  0  0  0  0  0  0  0  0  0
    4.0081    2.3407   -1.8526 H   0  0  0  0  0  0  0  0  0  0  0  0
  1  8  1  0  0  0  0
  1 22  1  0  0  0  0
  2  3  1  0  0  0  0
  3 24  1  0  0  0  0
  3  8  2  0  0  0  0
  4  5  1  0  0  0  0
  4  6  1  0  0  0  0
  6  7  1  0  0  0  0
  8  9  1  0  0  0  0
 10  4  2  0  0  0  0
 11 12  1  0  0  0  0
 11 24  2  0  0  0  0
 13  6  2  0  0  0  0
 13 14  1  0  0  0  0
 15 23  1  0  0  0  0
 16 15  1  0  0  0  0
 17 11  1  0  0  0  0
 18 17  1  0  0  0  0
 19 17  2  0  0  0  0
 19  2  1  0  0  0  0
 20 19  1  0  0  0  0
 22 13  1  0  0  0  0
 23 21  2  0  0  0  0
 23  5  1  0  0  0  0
 24 25  1  0  0  0  0
 26 10  1  0  0  0  0
 26 22  2  0  0  0  0
 27 26  1  0  0  0  0
 28 15  2  0  0  0  0
 28 10  1  0  0  0  0
 29 28  1  0  0  0  0
M  END
