1,2
q = -1.0

 38 40  0  0  0  0  0  0  0  0999 V2000
   -0.5377   -2.2544   -0.4841 N   0  0  0  0  0  0  0  0  0  0  0  0
    2.0282   -1.8859   -0.3268 N   0  0  0  0  0  2  0  0  0  0  0  0
    0.2075   -3.3241   -0.0093 C   0  0  0  0  0  3  0  0  0  0  0  0
   -0.6244   -4.4666    0.1423 C   0  0  0  0  0  0  0  0  0  0  0  0
   -0.3118   -5.4622    0.4793 H   0  0  0  0  0  0  0  0  0  0  0  0
   -1.9019   -4.0699   -0.2780 C   0  0  0  0  0  0  0  0  0  0  0  0
   -2.7943   -4.7007   -0.3651 H   0  0  0  0  0  0  0  0  0  0  0  0
   -1.8083   -2.7015   -0.6846 C   0  0  0  0  0  0  0  0  0  0  0  0
    1.6041   -3.0894    0.0352 C   0  0  0  0  0  3  0  0  0  0  0  0
    2.3231   -3.8867    0.2968 H   0  0  0  0  0  0  0  0  0  0  0  0
   -2.8277   -1.8976   -1.3578 C   0  0  0  0  0  0  0  0  0  0  0  0
   -4.2073   -2.1337   -1.1510 C   0  0  0  0  0  0  0  0  0  0  0  0
   -4.5173   -2.8992   -0.4251 H   0  0  0  0  0  0  0  0  0  0  0  0
   -5.1726   -1.3784   -1.8255 C   0  0  0  0  0  0  0  0  0  0  0  0
   -6.2406   -1.5658   -1.6358 H   0  0  0  0  0  0  0  0  0  0  0  0
   -4.7860   -0.3796   -2.7360 C   0  0  0  0  0  0  0  0  0  0  0  0
   -5.5470    0.2054   -3.2744 H   0  0  0  0  0  0  0  0  0  0  0  0
   -3.4202   -0.1469   -2.9654 C   0  0  0  0  0  0  0  0  0  0  0  0
   -3.1065    0.6119   -3.6992 H   0  0  0  0  0  0  0  0  0  0  0  0
   -2.4503   -0.8915   -2.2799 C   0  0  0  0  0  0  0  0  0  0  0  0
   -1.3788   -0.7289   -2.4729 H   0  0  0  0  0  0  0  0  0  0  0  0
    3.4097   -1.5782   -0.3726 C   0  0  0  0  0  0  0  0  0  0  0  0
    4.2160   -1.5836    0.7970 C   0  0  0  0  0  0  0  0  0  0  0  0
    5.5510   -1.1453    0.6874 C   0  0  0  0  0  0  0  0  0  0  0  0
    6.1782   -1.1268    1.5930 H   0  0  0  0  0  0  0  0  0  0  0  0
    6.0829   -0.7296   -0.5381 C   0  0  0  0  0  0  0  0  0  0  0  0
    7.1240   -0.3778   -0.5970 H   0  0  0  0  0  0  0  0  0  0  0  0
    5.2871   -0.7724   -1.6914 C   0  0  0  0  0  0  0  0  0  0  0  0
    5.7048   -0.4664   -2.6632 H   0  0  0  0  0  0  0  0  0  0  0  0
    3.9520   -1.2008   -1.6327 C   0  0  0  0  0  0  0  0  0  0  0  0
    3.6998   -2.0503    2.1367 C   0  0  0  0  0  0  0  0  0  0  0  0
    4.1791   -1.4867    2.9616 H   0  0  0  0  0  0  0  0  0  0  0  0
    3.9294   -3.1242    2.3063 H   0  0  0  0  0  0  0  0  0  0  0  0
    2.6036   -1.9457    2.2328 H   0  0  0  0  0  0  0  0  0  0  0  0
    3.1116   -1.3104   -2.8744 C   0  0  0  0  0  0  0  0  0  0  0  0
    2.9318   -2.3746   -3.1380 H   0  0  0  0  0  0  0  0  0  0  0  0
    3.5982   -0.8154   -3.7357 H   0  0  0  0  0  0  0  0  0  0  0  0
    2.1142   -0.8544   -2.7194 H   0  0  0  0  0  0  0  0  0  0  0  0
  1  3  1  0  0  0  0
  2  9  1  0  0  0  0
  3  9  1  0  0  0  0
  3  4  1  0  0  0  0
  4  5  1  0  0  0  0
  6  4  2  0  0  0  0
  7  6  1  0  0  0  0
  8  1  2  0  0  0  0
  8  6  1  0  0  0  0
  9 10  1  0  0  0  0
 11 12  1  0  0  0  0
 11  8  1  0  0  0  0
 12 13  1  0  0  0  0
 14 15  1  0  0  0  0
 14 12  2  0  0  0  0
 16 14  1  0  0  0  0
 17 16  1  0  0  0  0
 18 16  2  0  0  0  0
 18 20  1  0  0  0  0
 19 18  1  0  0  0  0
 20 11  2  0  0  0  0
 21 20  1  0  0  0  0
 22  2  1  0  0  0  0
 22 23  1  0  0  0  0
 23 31  1  0  0  0  0
 24 23  2  0  0  0  0
 24 25  1  0  0  0  0
 26 24  1  0  0  0  0
 27 26  1  0  0  0  0
 28 30  1  0  0  0  0
 28 26  2  0  0  0  0
 29 28  1  0  0  0  0
 30 22  2  0  0  0  0
 31 34  1  0  0  0  0
 31 33  1  0  0  0  0
 31 32  1  0  0  0  0
 35 38  1  0  0  0  0
 35 30  1  0  0  0  0
 36 35  1  0  0  0  0
 37 35  1  0  0  0  0
M  END
