6,7
q = -1.0

 32 34  0  0  1  0  0  0  0  0999 V2000
   -2.8247   -0.8346    2.5904 F   0  0  0  0  0  0  0  0  0  0  0  0
   -5.3540    0.1734    2.6241 F   0  0  0  0  0  0  0  0  0  0  0  0
   -6.9604   -0.0727    0.4189 F   0  0  0  0  0  0  0  0  0  0  0  0
   -6.0103   -1.3035   -1.8384 F   0  0  0  0  0  0  0  0  0  0  0  0
   -3.4467   -2.2245   -1.9148 F   0  0  0  0  0  0  0  0  0  0  0  0
    0.8943   -2.3553    0.2929 N   0  0  0  0  0  2  0  0  0  0  0  0
   -1.7112   -1.9101    0.2983 N   0  0  0  0  0  2  0  0  0  0  0  0
    0.0565   -3.3756   -0.1550 C   0  0  0  0  0  0  0  0  0  0  0  0
    0.8058   -4.5501   -0.4397 C   0  0  0  0  0  0  0  0  0  0  0  0
    0.4039   -5.5084   -0.7899 H   0  0  0  0  0  0  0  0  0  0  0  0
    2.1326   -4.2346   -0.1409 C   0  0  0  0  0  0  0  0  0  0  0  0
    2.9980   -4.9063   -0.1758 H   0  0  0  0  0  0  0  0  0  0  0  0
    2.1511   -2.8808    0.3297 C   0  0  2  0  0  3  0  0  0  0  0  0
   -1.3259   -3.1098   -0.1261 C   0  0  0  0  0  0  0  0  0  0  0  0
   -2.0659   -3.8841   -0.3955 H   0  0  0  0  0  0  0  0  0  0  0  0
    3.3154   -2.1849    0.8788 C   0  0  0  0  0  0  0  0  0  0  0  0
    4.6274   -2.5206    0.4697 C   0  0  0  0  0  0  0  0  0  0  0  0
    4.7713   -3.2866   -0.3060 H   0  0  0  0  0  0  0  0  0  0  0  0
    5.7350   -1.8560    1.0085 C   0  0  0  0  0  0  0  0  0  0  0  0
    6.7475   -2.1220    0.6681 H   0  0  0  0  0  0  0  0  0  0  0  0
    5.5594   -0.8399    1.9637 C   0  0  0  0  0  0  0  0  0  0  0  0
    6.4318   -0.3145    2.3810 H   0  0  0  0  0  0  0  0  0  0  0  0
    4.2631   -0.5060    2.3879 C   0  0  0  0  0  0  0  0  0  0  0  0
    4.1115    0.2844    3.1386 H   0  0  0  0  0  0  0  0  0  0  0  0
    3.1562   -1.1810    1.8595 C   0  0  0  0  0  0  0  0  0  0  0  0
    2.1391   -0.9557    2.2054 H   0  0  0  0  0  0  0  0  0  0  0  0
   -3.0680   -1.5738    0.3452 C   0  0  0  0  0  0  0  0  0  0  0  0
   -3.5880   -0.9475    1.4990 C   0  0  0  0  0  0  0  0  0  0  0  0
   -4.8898   -0.4311    1.5265 C   0  0  0  0  0  0  0  0  0  0  0  0
   -5.7145   -0.5541    0.3949 C   0  0  0  0  0  0  0  0  0  0  0  0
   -5.2304   -1.1977   -0.7560 C   0  0  0  0  0  0  0  0  0  0  0  0
   -3.9185   -1.6914   -0.7753 C   0  0  0  0  0  0  0  0  0  0  0  0
  4 31  1  0  0  0  0
  5 32  1  0  0  0  0
  6 13  1  0  0  0  0
  7 27  1  0  0  0  0
  8 14  2  0  0  0  0
  8  6  1  0  0  0  0
  9  8  1  0  0  0  0
  9 11  2  0  0  0  0
 10  9  1  0  0  0  0
 11 13  1  0  0  0  0
 12 11  1  0  0  0  0
 13 16  1  1  0  0  0
 14  7  1  0  0  0  0
 15 14  1  0  0  0  0
 16 25  1  0  0  0  0
 17 16  2  0  0  0  0
 17 19  1  0  0  0  0
 18 17  1  0  0  0  0
 19 21  2  0  0  0  0
 20 19  1  0  0  0  0
 21 22  1  0  0  0  0
 21 23  1  0  0  0  0
 23 24  1  0  0  0  0
 25 26  1  0  0  0  0
 25 23  2  0  0  0  0
 27 28  1  0  0  0  0
 28 29  2  0  0  0  0
 28  1  1  0  0  0  0
 29  2  1  0  0  0  0
 30  3  1  0  0  0  0
 30 29  1  0  0  0  0
 31 30  2  0  0  0  0
 32 31  1  0  0  0  0
 32 27  2  0  0  0  0
M  END
