2,3
q = 0.0, confidence = 0.996

 43 46  0  0  1  0  0  0  0  0999 V2000
   -5.7284   -1.4561   -1.2031 Cl  0  0  0  0  0  0  0  0  0  0  0  0
    1.4862    0.9630    0.2219 N   0  0  0  0  0  2  0  0  0  0  0  0
    0.5775   -1.6142    0.5697 N   0  0  0  0  0  0  0  0  0  0  0  0
   -0.3458    1.8619    1.1433 N   0  0  0  0  0  0  0  0  0  0  0  0
    0.4359    0.7412    1.0024 C   0  0  1  0  0  3  0  0  0  0  0  0
    1.4017    2.2750   -0.2088 C   0  0  0  0  0  0  0  0  0  0  0  0
    2.2241    3.0025   -1.0858 C   0  0  0  0  0  0  0  0  0  0  0  0
    1.8637    4.3282   -1.3498 C   0  0  0  0  0  0  0  0  0  0  0  0
    0.7154    4.9151   -0.7628 C   0  0  0  0  0  0  0  0  0  0  0  0
   -0.1202    4.1978    0.1046 C   0  0  0  0  0  0  0  0  0  0  0  0
    0.2425    2.8681    0.3699 C   0  0  0  0  0  0  0  0  0  0  0  0
   -1.6561    1.9144    1.7825 C   0  0  0  0  0  0  0  0  0  0  0  0
   -2.6931    1.0930    1.0384 C   0  0  0  0  0  0  0  0  0  0  0  0
   -3.5855    0.2611    1.7387 C   0  0  0  0  0  0  0  0  0  0  0  0
   -4.5290   -0.5213    1.0580 C   0  0  0  0  0  0  0  0  0  0  0  0
   -4.5741   -0.4752   -0.3447 C   0  0  0  0  0  0  0  0  0  0  0  0
   -3.6925    0.3511   -1.0636 C   0  0  0  0  0  0  0  0  0  0  0  0
   -2.7601    1.1301   -0.3683 C   0  0  0  0  0  0  0  0  0  0  0  0
    0.2021   -0.6239    1.5813 C   0  0  0  0  0  0  0  0  0  0  0  0
   -0.3362   -1.7092   -0.5942 C   0  0  0  0  0  0  0  0  0  0  0  0
    0.0410   -3.0470   -1.2656 C   0  0  0  0  0  0  0  0  0  0  0  0
    0.9262   -3.7827   -0.2247 C   0  0  0  0  0  0  0  0  0  0  0  0
    0.7302   -2.9945    1.0713 C   0  0  0  0  0  0  0  0  0  0  0  0
    3.0937    2.5184   -1.5520 H   0  0  0  0  0  0  0  0  0  0  0  0
    2.4799    4.9298   -2.0341 H   0  0  0  0  0  0  0  0  0  0  0  0
    0.4672    5.9605   -0.9988 H   0  0  0  0  0  0  0  0  0  0  0  0
   -1.0149    4.6623    0.5441 H   0  0  0  0  0  0  0  0  0  0  0  0
   -3.5408    0.2126    2.8384 H   0  0  0  0  0  0  0  0  0  0  0  0
   -5.2217   -1.1755    1.6053 H   0  0  0  0  0  0  0  0  0  0  0  0
   -3.7394    0.3740   -2.1612 H   0  0  0  0  0  0  0  0  0  0  0  0
   -2.0623    1.7657   -0.9358 H   0  0  0  0  0  0  0  0  0  0  0  0
   -1.5703    1.5707    2.8331 H   0  0  0  0  0  0  0  0  0  0  0  0
   -1.9502    2.9827    1.8275 H   0  0  0  0  0  0  0  0  0  0  0  0
   -0.8483   -0.7506    1.9322 H   0  0  0  0  0  0  0  0  0  0  0  0
    0.8960   -0.7616    2.4407 H   0  0  0  0  0  0  0  0  0  0  0  0
   -1.3958   -1.7064   -0.2436 H   0  0  0  0  0  0  0  0  0  0  0  0
   -0.1864   -0.8352   -1.2595 H   0  0  0  0  0  0  0  0  0  0  0  0
   -0.8700   -3.6217   -1.5221 H   0  0  0  0  0  0  0  0  0  0  0  0
    0.6136   -2.8603   -2.1932 H   0  0  0  0  0  0  0  0  0  0  0  0
    0.6710   -4.8530   -0.1073 H   0  0  0  0  0  0  0  0  0  0  0  0
    1.9916   -3.7186   -0.5267 H   0  0  0  0  0  0  0  0  0  0  0  0
    1.5978   -3.0333    1.7606 H   0  0  0  0  0  0  0  0  0  0  0  0
   -0.1947   -3.3135    1.6119 H   0  0  0  0  0  0  0  0  0  0  0  0
  1 16  1  0  0  0  0
  2  5  1  0  0  0  0
  3 23  1  0  0  0  0
  3 19  1  0  0  0  0
  4 12  1  0  0  0  0
  5  4  1  0  0  0  0
  5 19  1  6  0  0  0
  6  2  1  0  0  0  0
  6 11  1  0  0  0  0
  7  6  2  0  0  0  0
  8  7  1  0  0  0  0
  8  9  2  0  0  0  0
  9 10  1  0  0  0  0
 10 11  2  0  0  0  0
 10 27  1  0  0  0  0
 11  4  1  0  0  0  0
 12 33  1  0  0  0  0
 12 32  1  0  0  0  0
 13 14  1  0  0  0  0
 13 12  1  0  0  0  0
 14 28  1  0  0  0  0
 15 29  1  0  0  0  0
 15 14  2  0  0  0  0
 16 15  1  0  0  0  0
 17 18  1  0  0  0  0
 17 16  2  0  0  0  0
 18 13  2  0  0  0  0
 19 34  1  0  0  0  0
 19 35  1  0  0  0  0
 20 36  1  0  0  0  0
 20  3  1  0  0  0  0
 21 20  1  0  0  0  0
 21 22  1  0  0  0  0
 22 40  1  0  0  0  0
 22 23  1  0  0  0  0
 23 43  1  0  0  0  0
 23 42  1  0  0  0  0
 24  7  1  0  0  0  0
 25  8  1  0  0  0  0
 26  9  1  0  0  0  0
 30 17  1  0  0  0  0
 31 18  1  0  0  0  0
 37 20  1  0  0  0  0
 38 21  1  0  0  0  0
 39 21  1  0  0  0  0
 41 22  1  0  0  0  0
M  END
