2,3
q = -1.0, confidence = 0.0

 24 25  0  0  0  0  0  0  0  0999 V2000
    4.2713    1.0080   -1.8392 N   0  0  0  0  0  0  0  0  0  0  0  0
    1.3111    0.5472   -1.6118 N   0  0  0  0  0  2  0  0  0  0  0  0
   -0.4491    2.0162   -0.2215 N   0  0  0  0  0  0  0  0  0  0  0  0
    5.4888    1.1751   -1.3047 C   0  0  0  0  0  0  0  0  0  0  0  0
    5.9619    2.1616   -1.4595 H   0  0  0  0  0  0  0  0  0  0  0  0
    6.1601    0.1753   -0.5797 C   0  0  0  0  0  0  0  0  0  0  0  0
    7.1593    0.3662   -0.1612 H   0  0  0  0  0  0  0  0  0  0  0  0
    5.5191   -1.0594   -0.4070 C   0  0  0  0  0  0  0  0  0  0  0  0
    6.0043   -1.8708    0.1572 H   0  0  0  0  0  0  0  0  0  0  0  0
    3.6582   -0.1782   -1.6712 C   0  0  0  0  0  0  0  0  0  0  0  0
    2.2768   -0.2987   -2.2946 C   0  0  0  0  0  0  0  0  0  0  0  0
    2.3635   -0.0031   -3.3635 H   0  0  0  0  0  0  0  0  0  0  0  0
    1.9298   -1.3485   -2.2501 H   0  0  0  0  0  0  0  0  0  0  0  0
    1.1555    1.7856   -1.9985 C   0  0  0  0  0  3  0  0  0  0  0  0
    1.7285    2.2007   -2.8502 H   0  0  0  0  0  0  0  0  0  0  0  0
    0.2186    2.6019   -1.2944 C   0  0  0  0  0  0  0  0  0  0  0  0
   -0.2435    3.9232   -1.4692 C   0  0  0  0  0  0  0  0  0  0  0  0
    0.0958    4.6289   -2.2366 H   0  0  0  0  0  0  0  0  0  0  0  0
   -1.2177    4.1413   -0.4668 C   0  0  0  0  0  0  0  0  0  0  0  0
   -1.7872    5.0606   -0.2861 H   0  0  0  0  0  0  0  0  0  0  0  0
   -1.3134    2.9477    0.2760 C   0  0  0  0  0  3  0  0  0  0  0  0
   -1.9441    2.7123    1.1403 H   0  0  0  0  0  0  0  0  0  0  0  0
    4.2436   -1.2422   -0.9602 C   0  0  0  0  0  0  0  0  0  0  0  0
    3.6949   -2.1889   -0.8425 H   0  0  0  0  0  0  0  0  0  0  0  0
  1 10  2  0  0  0  0
  1  4  1  0  0  0  0
  3 21  1  0  0  0  0
  4  6  2  0  0  0  0
  5  4  1  0  0  0  0
  6  8  1  0  0  0  0
  6  7  1  0  0  0  0
  8  9  1  0  0  0  0
 10 23  1  0  0  0  0
 11 13  1  0  0  0  0
 11 10  1  0  0  0  0
 11  2  1  0  0  0  0
 12 11  1  0  0  0  0
 14  2  1  0  0  0  0
 14 16  1  0  0  0  0
 15 14  1  0  0  0  0
 16  3  2  0  0  0  0
 17 16  1  0  0  0  0
 17 19  2  0  0  0  0
 18 17  1  0  0  0  0
 19 20  1  0  0  0  0
 19 21  1  0  0  0  0
 21 22  1  0  0  0  0
 23 24  1  0  0  0  0
 23  8  2  0  0  0  0
M  END
