7,8
q = 0.0, confidence = 0.998

 26 27  0  0  0  0  0  0  0  0999 V2000
   -5.3075    0.1058    0.4522 F   0  0  0  0  0  0  0  0  0  0  0  0
   -5.5434   -2.0415    0.8063 F   0  0  0  0  0  0  0  0  0  0  0  0
   -5.5258   -1.2675   -1.2325 F   0  0  0  0  0  0  0  0  0  0  0  0
    5.4104   -1.5199    1.2117 F   0  0  0  0  0  0  0  0  0  0  0  0
    5.3373    0.1727   -0.1686 F   0  0  0  0  0  0  0  0  0  0  0  0
    5.6247   -1.8586   -0.9315 F   0  0  0  0  0  0  0  0  0  0  0  0
   -1.2953   -0.3136   -0.1385 N   0  0  0  0  0  2  0  0  0  0  0  0
    1.2947   -0.3108   -0.1571 N   0  0  0  0  0  2  0  0  0  0  0  0
   -0.7317   -1.5547   -0.2378 C   0  0  0  0  0  0  0  0  0  0  0  0
   -1.5329   -2.7099   -0.2780 C   0  0  0  0  0  0  0  0  0  0  0  0
   -1.0683   -3.7013   -0.3562 H   0  0  0  0  0  0  0  0  0  0  0  0
   -2.9208   -2.5914   -0.2000 C   0  0  0  0  0  0  0  0  0  0  0  0
   -3.5641   -3.4829   -0.2209 H   0  0  0  0  0  0  0  0  0  0  0  0
   -3.4813   -1.3091   -0.0695 C   0  0  0  0  0  0  0  0  0  0  0  0
   -2.6349   -0.1983   -0.0320 C   0  0  0  0  0  0  0  0  0  0  0  0
   -3.0416    0.8110    0.1073 H   0  0  0  0  0  0  0  0  0  0  0  0
   -4.9881   -1.1233   -0.0038 C   0  0  0  0  0  0  0  0  0  0  0  0
    0.7325   -1.5529   -0.2506 C   0  0  0  0  0  0  0  0  0  0  0  0
    1.5361   -2.7054   -0.3163 C   0  0  0  0  0  0  0  0  0  0  0  0
    1.0729   -3.6969   -0.4018 H   0  0  0  0  0  0  0  0  0  0  0  0
    2.9248   -2.5836   -0.2621 C   0  0  0  0  0  0  0  0  0  0  0  0
    3.5702   -3.4720   -0.3184 H   0  0  0  0  0  0  0  0  0  0  0  0
    3.4838   -1.3012   -0.1243 C   0  0  0  0  0  0  0  0  0  0  0  0
    2.6356   -0.1927   -0.0712 C   0  0  0  0  0  0  0  0  0  0  0  0
    3.0428    0.8184    0.0524 H   0  0  0  0  0  0  0  0  0  0  0  0
    4.9879   -1.1211   -0.0018 C   0  0  0  0  0  0  0  0  0  0  0  0
  3 17  1  0  0  0  0
  5 26  1  0  0  0  0
  6 26  1  0  0  0  0
  7 15  1  0  0  0  0
  8 24  1  0  0  0  0
  9  7  1  0  0  0  0
 10  9  1  0  0  0  0
 10 12  2  0  0  0  0
 11 10  1  0  0  0  0
 12 14  1  0  0  0  0
 13 12  1  0  0  0  0
 14 15  2  0  0  0  0
 14 17  1  0  0  0  0
 15 16  1  0  0  0  0
 17  1  1  0  0  0  0
 17  2  1  0  0  0  0
 18  9  2  0  0  0  0
 18  8  1  0  0  0  0
 19 21  2  0  0  0  0
 19 18  1  0  0  0  0
 20 19  1  0  0  0  0
 21 23  1  0  0  0  0
 22 21  1  0  0  0  0
 23 24  2  0  0  0  0
 23 26  1  0  0  0  0
 24 25  1  0  0  0  0
 26  4  1  0  0  0  0
M  END
