2,3
q = 0.0, confidence = 0.996

 25 27  0  0  1  0  0  0  0  0999 V2000
    0.9050    3.5453    0.1566 O   0  0  0  0  0  0  0  0  0  0  0  0
   -1.0710    0.5281    0.1362 N   0  0  0  0  0  2  0  0  0  0  0  0
    1.4422    1.3720    0.4612 N   0  0  0  0  0  2  0  0  0  0  0  0
   -2.3673    0.0637    0.1085 C   0  0  0  0  0  0  0  0  0  0  0  0
   -2.6376   -1.3269    0.2321 C   0  0  0  0  0  0  0  0  0  0  0  0
   -1.7936   -2.0127    0.3658 H   0  0  0  0  0  0  0  0  0  0  0  0
   -3.9413   -1.7982    0.2004 C   0  0  0  0  0  0  0  0  0  0  0  0
   -4.1265   -2.8779    0.3012 H   0  0  0  0  0  0  0  0  0  0  0  0
   -5.0348   -0.9080    0.0364 C   0  0  0  0  0  0  0  0  0  0  0  0
   -6.0615   -1.3014    0.0022 H   0  0  0  0  0  0  0  0  0  0  0  0
   -4.8056    0.4547   -0.0741 C   0  0  0  0  0  3  0  0  0  0  0  0
   -5.6429    1.1596   -0.1907 H   0  0  0  0  0  0  0  0  0  0  0  0
   -3.4815    0.9749   -0.0308 C   0  0  0  0  0  0  0  0  0  0  0  0
   -3.2160    2.3704   -0.1081 C   0  0  0  0  0  0  0  0  0  0  0  0
   -4.0538    3.0748   -0.2214 H   0  0  0  0  0  0  0  0  0  0  0  0
   -1.9132    2.8201   -0.0229 C   0  0  0  0  0  0  0  0  0  0  0  0
   -1.6520    3.8862   -0.0537 H   0  0  0  0  0  0  0  0  0  0  0  0
   -0.8737    1.8653    0.1024 C   0  0  0  0  0  0  0  0  0  0  0  0
    0.5196    2.2642    0.2439 C   0  0  2  0  0  3  0  0  0  0  0  0
    2.3410    3.5458    0.4341 C   0  0  0  0  0  0  0  0  0  0  0  0
    2.4868    4.0042    1.4342 H   0  0  0  0  0  0  0  0  0  0  0  0
    2.8328    4.1718   -0.3332 H   0  0  0  0  0  0  0  0  0  0  0  0
    2.7364    2.0521    0.3867 C   0  0  0  0  0  0  0  0  0  0  0  0
    3.2125    1.7628   -0.5755 H   0  0  0  0  0  0  0  0  0  0  0  0
    3.4008    1.7412    1.2161 H   0  0  0  0  0  0  0  0  0  0  0  0
  1 19  1  0  0  0  0
  1 20  1  0  0  0  0
  4  2  1  0  0  0  0
  4  5  2  0  0  0  0
  5  6  1  0  0  0  0
  7  5  1  0  0  0  0
  7  8  1  0  0  0  0
  9  7  2  0  0  0  0
 10  9  1  0  0  0  0
 11 13  1  0  0  0  0
 11  9  1  0  0  0  0
 12 11  1  0  0  0  0
 13  4  1  0  0  0  0
 14 13  2  0  0  0  0
 14 16  1  0  0  0  0
 15 14  1  0  0  0  0
 16 18  2  0  0  0  0
 17 16  1  0  0  0  0
 18  2  1  0  0  0  0
 19 18  1  6  0  0  0
 19  3  1  0  0  0  0
 20 21  1  0  0  0  0
 22 20  1  0  0  0  0
 23 20  1  0  0  0  0
 23  3  1  0  0  0  0
 23 25  1  0  0  0  0
 24 23  1  0  0  0  0
M  END
