1,24
q = 0.0, confidence = 1.0

 46 48  0  0  0  0  0  0  0  0999 V2000
    1.2465   -0.9716    0.0038 N   0  0  0  0  0  0  0  0  0  0  0  0
    4.1157    1.1106    0.0088 C   0  0  0  0  0  0  0  0  0  0  0  0
    3.4894    0.0531    0.0086 C   0  0  0  0  0  0  0  0  0  0  0  0
    0.7768   -0.2493   -1.2076 C   0  0  0  0  0  0  0  0  0  0  0  0
    1.1738   -0.7855   -2.0895 H   0  0  0  0  0  0  0  0  0  0  0  0
    1.1931    0.7834   -1.2112 H   0  0  0  0  0  0  0  0  0  0  0  0
    4.8487    2.3373    0.0080 C   0  0  0  0  0  0  0  0  0  0  0  0
    0.7695   -0.2491    1.2121 C   0  0  0  0  0  0  0  0  0  0  0  0
    1.1855    0.7838    1.2177 H   0  0  0  0  0  0  0  0  0  0  0  0
    1.1615   -0.7848    2.0965 H   0  0  0  0  0  0  0  0  0  0  0  0
    2.7205   -1.1872    0.0083 C   0  0  0  0  0  0  0  0  0  0  0  0
    2.9559   -1.8266   -0.8675 H   0  0  0  0  0  0  0  0  0  0  0  0
    2.9507   -1.8240    0.8874 H   0  0  0  0  0  0  0  0  0  0  0  0
    5.2693    2.9250   -1.2120 C   0  0  0  0  0  0  0  0  0  0  0  0
    5.0276    2.4211   -2.1591 H   0  0  0  0  0  0  0  0  0  0  0  0
    5.1664    2.9882    1.2270 C   0  0  0  0  0  0  0  0  0  0  0  0
    4.8451    2.5334    2.1752 H   0  0  0  0  0  0  0  0  0  0  0  0
    5.9848    4.1279   -1.2076 C   0  0  0  0  0  0  0  0  0  0  0  0
    6.3071    4.5731   -2.1610 H   0  0  0  0  0  0  0  0  0  0  0  0
    6.2929    4.7648    0.0060 C   0  0  0  0  0  0  0  0  0  0  0  0
    6.8562    5.7101    0.0052 H   0  0  0  0  0  0  0  0  0  0  0  0
    5.8820    4.1911    1.2207 C   0  0  0  0  0  0  0  0  0  0  0  0
    6.1236    4.6859    2.1735 H   0  0  0  0  0  0  0  0  0  0  0  0
   -1.2466   -0.9716   -0.0037 N   0  0  0  0  0  0  0  0  0  0  0  0
   -4.1157    1.1106   -0.0086 C   0  0  0  0  0  0  0  0  0  0  0  0
   -3.4895    0.0531   -0.0086 C   0  0  0  0  0  0  0  0  0  0  0  0
   -0.7768   -0.2493    1.2076 C   0  0  0  0  0  0  0  0  0  0  0  0
   -1.1739   -0.7855    2.0895 H   0  0  0  0  0  0  0  0  0  0  0  0
   -1.1932    0.7834    1.2112 H   0  0  0  0  0  0  0  0  0  0  0  0
   -4.8487    2.3374   -0.0079 C   0  0  0  0  0  0  0  0  0  0  0  0
   -0.7695   -0.2491   -1.2121 C   0  0  0  0  0  0  0  0  0  0  0  0
   -1.1855    0.7838   -1.2177 H   0  0  0  0  0  0  0  0  0  0  0  0
   -1.1616   -0.7848   -2.0965 H   0  0  0  0  0  0  0  0  0  0  0  0
   -2.7206   -1.1872   -0.0082 C   0  0  0  0  0  0  0  0  0  0  0  0
   -2.9559   -1.8265    0.8676 H   0  0  0  0  0  0  0  0  0  0  0  0
   -2.9507   -1.8240   -0.8874 H   0  0  0  0  0  0  0  0  0  0  0  0
   -5.2690    2.9253    1.2120 C   0  0  0  0  0  0  0  0  0  0  0  0
   -5.0272    2.4215    2.1591 H   0  0  0  0  0  0  0  0  0  0  0  0
   -5.1665    2.9882   -1.2270 C   0  0  0  0  0  0  0  0  0  0  0  0
   -4.8453    2.5332   -2.1752 H   0  0  0  0  0  0  0  0  0  0  0  0
   -5.9845    4.1282    1.2076 C   0  0  0  0  0  0  0  0  0  0  0  0
   -6.3066    4.5736    2.1610 H   0  0  0  0  0  0  0  0  0  0  0  0
   -6.2927    4.7650   -0.0061 C   0  0  0  0  0  0  0  0  0  0  0  0
   -6.8560    5.7103   -0.0054 H   0  0  0  0  0  0  0  0  0  0  0  0
   -5.8820    4.1911   -1.2208 C   0  0  0  0  0  0  0  0  0  0  0  0
   -6.1237    4.6858   -2.1736 H   0  0  0  0  0  0  0  0  0  0  0  0
  1 11  1  0  0  0  0
  1  8  1  0  0  0  0
  3  2  3  0  0  0  0
  4  1  1  0  0  0  0
  5  4  1  0  0  0  0
  6  4  1  0  0  0  0
  7  2  1  0  0  0  0
  7 16  1  0  0  0  0
  8  9  1  0  0  0  0
  8 10  1  0  0  0  0
 11  3  1  0  0  0  0
 11 13  1  0  0  0  0
 12 11  1  0  0  0  0
 14 18  1  0  0  0  0
 14  7  2  0  0  0  0
 15 14  1  0  0  0  0
 16 17  1  0  0  0  0
 18 20  2  0  0  0  0
 19 18  1  0  0  0  0
 20 22  1  0  0  0  0
 21 20  1  0  0  0  0
 22 16  2  0  0  0  0
 22 23  1  0  0  0  0
 24 27  1  0  0  0  0
 25 26  3  0  0  0  0
 25 30  1  0  0  0  0
 26 34  1  0  0  0  0
 27 29  1  0  0  0  0
 27  8  1  0  0  0  0
 27 28  1  0  0  0  0
 30 37  1  0  0  0  0
 31  4  1  0  0  0  0
 31 24  1  0  0  0  0
 32 31  1  0  0  0  0
 33 31  1  0  0  0  0
 34 24  1  0  0  0  0
 34 35  1  0  0  0  0
 36 34  1  0  0  0  0
 37 38  1  0  0  0  0
 39 45  1  0  0  0  0
 39 30  2  0  0  0  0
 40 39  1  0  0  0  0
 41 37  2  0  0  0  0
 41 42  1  0  0  0  0
 43 44  1  0  0  0  0
 43 41  1  0  0  0  0
 45 43  2  0  0  0  0
 46 45  1  0  0  0  0
M  END
