4,5
q = 0.0, confidence = 0.994

 31 32  0  0  1  0  0  0  0  0999 V2000
   -7.1680   -0.3189    0.0747 F   0  0  0  0  0  0  0  0  0  0  0  0
   -5.8978    1.2938    0.8245 F   0  0  0  0  0  0  0  0  0  0  0  0
   -5.8641    0.7835   -1.2890 F   0  0  0  0  0  0  0  0  0  0  0  0
    2.9851    0.9438   -0.0307 N   0  0  0  0  0  2  0  0  0  0  0  0
    0.3985    0.7341   -0.0368 N   0  0  0  0  0  2  0  0  0  0  0  0
    4.3375    1.0027   -0.0284 C   0  0  0  0  0  3  0  0  0  0  0  0
    4.8583    0.0344   -0.0036 H   0  0  0  0  0  0  0  0  0  0  0  0
    5.0460    2.2060   -0.0544 C   0  0  0  0  0  0  0  0  0  0  0  0
    6.1449    2.1864   -0.0502 H   0  0  0  0  0  0  0  0  0  0  0  0
    4.3340    3.4186   -0.0843 C   0  0  0  0  0  0  0  0  0  0  0  0
    4.8617    4.3832   -0.1042 H   0  0  0  0  0  0  0  0  0  0  0  0
    2.9385    3.3717   -0.0883 C   0  0  0  0  0  0  0  0  0  0  0  0
    2.3479    4.2974   -0.1104 H   0  0  0  0  0  0  0  0  0  0  0  0
    2.2810    2.1238   -0.0619 C   0  0  0  0  0  0  0  0  0  0  0  0
    0.8264    1.9802   -0.0608 C   0  0  1  0  0  3  0  0  0  0  0  0
   -0.0694    3.1841   -0.0976 C   0  0  0  0  0  0  0  0  0  0  0  0
   -1.1309    2.8902   -0.1773 H   0  0  0  0  0  0  0  0  0  0  0  0
    0.0504    3.8004    0.8180 H   0  0  0  0  0  0  0  0  0  0  0  0
    0.1801    3.8338   -0.9614 H   0  0  0  0  0  0  0  0  0  0  0  0
   -0.9922    0.4292    0.0124 C   0  0  0  0  0  0  0  0  0  0  0  0
   -1.6904    0.5128    1.2329 C   0  0  0  0  0  0  0  0  0  0  0  0
   -1.1571    0.8380    2.1378 H   0  0  0  0  0  0  0  0  0  0  0  0
   -3.0429    0.1547    1.2923 C   0  0  0  0  0  0  0  0  0  0  0  0
   -3.6031    0.2037    2.2361 H   0  0  0  0  0  0  0  0  0  0  0  0
   -3.6885   -0.2826    0.1287 C   0  0  0  0  0  0  0  0  0  0  0  0
   -3.0039   -0.3748   -1.0911 C   0  0  0  0  0  0  0  0  0  0  0  0
   -3.5350   -0.7313   -1.9841 H   0  0  0  0  0  0  0  0  0  0  0  0
   -1.6506   -0.0236   -1.1473 C   0  0  0  0  0  0  0  0  0  0  0  0
   -1.0855   -0.1114   -2.0860 H   0  0  0  0  0  0  0  0  0  0  0  0
   -5.0270   -0.6883    0.1990 O   0  0  0  0  0  0  0  0  0  0  0  0
   -5.9722    0.2592   -0.0457 C   0  0  0  0  0  0  0  0  0  0  0  0
  3 31  1  0  0  0  0
  4  6  1  0  0  0  0
  5 20  1  0  0  0  0
  6  7  1  0  0  0  0
  8  9  1  0  0  0  0
  8  6  1  0  0  0  0
 10  8  2  0  0  0  0
 11 10  1  0  0  0  0
 12 10  1  0  0  0  0
 12 14  2  0  0  0  0
 13 12  1  0  0  0  0
 14 15  1  0  0  0  0
 14  4  1  0  0  0  0
 15  5  1  6  0  0  0
 16 15  1  0  0  0  0
 16 18  1  0  0  0  0
 17 16  1  0  0  0  0
 19 16  1  0  0  0  0
 20 21  1  0  0  0  0
 21 23  2  0  0  0  0
 21 22  1  0  0  0  0
 23 24  1  0  0  0  0
 25 30  1  0  0  0  0
 25 23  1  0  0  0  0
 26 25  2  0  0  0  0
 27 26  1  0  0  0  0
 28 26  1  0  0  0  0
 28 20  2  0  0  0  0
 29 28  1  0  0  0  0
 31  1  1  0  0  0  0
 31 30  1  0  0  0  0
 31  2  1  0  0  0  0
M  END
