2,3
q = -1.0, confidence = 0.0

 22 24  0  0  1  0  0  0  0  0999 V2000
   -1.8707   -2.8074   -0.0322 N   0  0  0  0  0  0  0  0  0  0  0  0
    0.8889   -1.0146   -1.7454 N   0  0  0  0  0  0  0  0  0  0  0  0
   -0.4165   -1.2406    0.5694 N   0  0  0  0  0  2  0  0  0  0  0  0
   -0.7928   -2.0564   -0.4398 C   0  0  2  0  0  3  0  0  0  0  0  0
   -0.1034   -1.9913   -1.6979 C   0  0  0  0  0  3  0  0  0  0  0  0
   -1.2429   -1.4387    1.6342 C   0  0  0  0  0  0  0  0  0  0  0  0
   -1.1385   -0.8692    2.5641 H   0  0  0  0  0  0  0  0  0  0  0  0
    1.4514   -1.0783   -2.9911 C   0  0  0  0  0  0  0  0  0  0  0  0
    2.2702   -0.4024   -3.2666 H   0  0  0  0  0  0  0  0  0  0  0  0
   -2.1807   -2.4250    1.3095 C   0  0  0  0  0  0  0  0  0  0  0  0
   -3.2668   -3.0663    1.9588 C   0  0  0  0  0  0  0  0  0  0  0  0
   -3.5034   -2.7767    2.9925 H   0  0  0  0  0  0  0  0  0  0  0  0
   -2.6116   -3.7655   -0.7025 C   0  0  0  0  0  0  0  0  0  0  0  0
   -2.3073   -3.9824   -1.7329 H   0  0  0  0  0  0  0  0  0  0  0  0
   -0.1581   -2.6755   -2.9275 C   0  0  0  0  0  0  0  0  0  0  0  0
   -0.8204   -3.5043   -3.2032 H   0  0  0  0  0  0  0  0  0  0  0  0
    0.8391   -2.0864   -3.7517 C   0  0  0  0  0  0  0  0  0  0  0  0
    1.0887   -2.3690   -4.7814 H   0  0  0  0  0  0  0  0  0  0  0  0
   -3.6621   -4.3740   -0.0622 C   0  0  0  0  0  0  0  0  0  0  0  0
   -4.2420   -5.1325   -0.6057 H   0  0  0  0  0  0  0  0  0  0  0  0
   -4.0001   -4.0282    1.2893 C   0  0  0  0  0  0  0  0  0  0  0  0
   -4.8433   -4.5297    1.7848 H   0  0  0  0  0  0  0  0  0  0  0  0
  1 10  1  0  0  0  0
  2  5  1  0  0  0  0
  3  6  1  0  0  0  0
  4  5  1  6  0  0  0
  4  1  1  0  0  0  0
  4  3  1  0  0  0  0
  6  7  1  0  0  0  0
  8  2  2  0  0  0  0
  9  8  1  0  0  0  0
 10  6  2  0  0  0  0
 10 11  1  0  0  0  0
 11 12  1  0  0  0  0
 13 19  2  0  0  0  0
 13  1  1  0  0  0  0
 14 13  1  0  0  0  0
 15  5  1  0  0  0  0
 16 15  1  0  0  0  0
 17  8  1  0  0  0  0
 17 15  2  0  0  0  0
 18 17  1  0  0  0  0
 19 21  1  0  0  0  0
 20 19  1  0  0  0  0
 21 22  1  0  0  0  0
 21 11  2  0  0  0  0
M  END
