2,3
q = 0.0, confidence = 0.99

 31 32  0  0  0  0  0  0  0  0999 V2000
    3.6585   -0.4831   -0.2010 O   0  0  0  0  0  0  0  0  0  0  0  0
    1.8452    0.8226   -0.1921 N   0  0  0  0  0  2  0  0  0  0  0  0
   -0.9121    0.8667   -0.1191 N   0  0  0  0  0  2  0  0  0  0  0  0
    1.2035    2.0091   -0.2087 C   0  0  0  0  0  0  0  0  0  0  0  0
    3.3112    3.1776   -0.2823 C   0  0  0  0  0  0  0  0  0  0  0  0
    3.8971    4.1082   -0.3172 H   0  0  0  0  0  0  0  0  0  0  0  0
    3.9729    1.9454   -0.2620 C   0  0  0  0  0  0  0  0  0  0  0  0
    5.0688    1.8959   -0.2802 H   0  0  0  0  0  0  0  0  0  0  0  0
    3.1801    0.7705   -0.2186 C   0  0  0  0  0  0  0  0  0  0  0  0
   -0.2673    1.9833   -0.1809 C   0  0  0  0  0  0  0  0  0  0  0  0
   -0.7835    2.9649   -0.2456 H   0  0  0  0  0  0  0  0  0  0  0  0
    5.0648   -0.6980   -0.1833 C   0  0  0  0  0  0  0  0  0  0  0  0
    5.2033   -1.7930   -0.1512 H   0  0  0  0  0  0  0  0  0  0  0  0
    5.5315   -0.2441    0.7169 H   0  0  0  0  0  0  0  0  0  0  0  0
    5.5481   -0.2944   -1.0990 H   0  0  0  0  0  0  0  0  0  0  0  0
   -2.3099    0.7826   -0.0729 C   0  0  0  0  0  0  0  0  0  0  0  0
   -3.1275    1.7734    0.5188 C   0  0  0  0  0  0  0  0  0  0  0  0
   -2.6701    2.6464    1.0079 H   0  0  0  0  0  0  0  0  0  0  0  0
   -4.5160    1.6149    0.5342 C   0  0  0  0  0  0  0  0  0  0  0  0
   -5.1419    2.3821    1.0167 H   0  0  0  0  0  0  0  0  0  0  0  0
   -5.1327    0.4820   -0.0405 C   0  0  0  0  0  0  0  0  0  0  0  0
   -4.3026   -0.4999   -0.6247 C   0  0  0  0  0  0  0  0  0  0  0  0
   -4.7586   -1.3937   -1.0787 H   0  0  0  0  0  0  0  0  0  0  0  0
   -2.9121   -0.3702   -0.6310 C   0  0  0  0  0  0  0  0  0  0  0  0
   -2.2660   -1.1354   -1.0944 H   0  0  0  0  0  0  0  0  0  0  0  0
   -6.6269    0.3012    0.0048 C   0  0  0  0  0  0  0  0  0  0  0  0
   -7.0151   -0.1063   -0.9502 H   0  0  0  0  0  0  0  0  0  0  0  0
   -7.1508    1.2534    0.2165 H   0  0  0  0  0  0  0  0  0  0  0  0
   -6.9134   -0.4198    0.8007 H   0  0  0  0  0  0  0  0  0  0  0  0
    1.9094    3.2262   -0.2584 C   0  0  0  0  0  0  0  0  0  0  0  0
    1.3671    4.1820   -0.2739 H   0  0  0  0  0  0  0  0  0  0  0  0
  1 12  1  0  0  0  0
  3 16  1  0  0  0  0
  4  2  1  0  0  0  0
  4 10  2  0  0  0  0
  5  7  1  0  0  0  0
  5 30  2  0  0  0  0
  6  5  1  0  0  0  0
  7  9  2  0  0  0  0
  8  7  1  0  0  0  0
  9  1  1  0  0  0  0
  9  2  1  0  0  0  0
 10  3  1  0  0  0  0
 11 10  1  0  0  0  0
 12 13  1  0  0  0  0
 12 14  1  0  0  0  0
 15 12  1  0  0  0  0
 16 17  1  0  0  0  0
 17 19  2  0  0  0  0
 17 18  1  0  0  0  0
 19 20  1  0  0  0  0
 21 26  1  0  0  0  0
 21 19  1  0  0  0  0
 22 21  2  0  0  0  0
 23 22  1  0  0  0  0
 24 22  1  0  0  0  0
 24 16  2  0  0  0  0
 25 24  1  0  0  0  0
 26 28  1  0  0  0  0
 26 29  1  0  0  0  0
 27 26  1  0  0  0  0
 30  4  1  0  0  0  0
 31 30  1  0  0  0  0
M  END
