1,2
q = 0.0, confidence = 0.97

 28 30  0  0  0  0  0  0  0  0999 V2000
   -0.5304   -1.2332   -0.3411 N   0  0  0  0  0  2  0  0  0  0  0  0
   -0.4829    1.3282    0.0171 N   0  0  0  0  0  2  0  0  0  0  0  0
   -0.5340   -2.6601   -0.6943 C   0  0  0  0  0  0  0  0  0  0  0  0
    0.4213   -3.1144   -0.3710 H   0  0  0  0  0  0  0  0  0  0  0  0
   -0.5603   -2.7622   -1.8072 H   0  0  0  0  0  0  0  0  0  0  0  0
   -1.7325   -3.4131   -0.1110 C   0  0  0  0  0  0  0  0  0  0  0  0
   -1.6588   -4.4897   -0.3685 H   0  0  0  0  0  0  0  0  0  0  0  0
   -1.7037   -3.3425    0.9994 H   0  0  0  0  0  0  0  0  0  0  0  0
   -3.0366   -2.8069   -0.6339 C   0  0  0  0  0  0  0  0  0  0  0  0
   -3.1593   -3.0775   -1.7079 H   0  0  0  0  0  0  0  0  0  0  0  0
   -3.9171   -3.2369   -0.1118 H   0  0  0  0  0  0  0  0  0  0  0  0
   -3.0263   -1.3023   -0.4777 C   0  0  0  0  0  0  0  0  0  0  0  0
   -1.7920   -0.6265   -0.3306 C   0  0  0  0  0  0  0  0  0  0  0  0
   -4.2154   -0.5458   -0.4478 C   0  0  0  0  0  0  0  0  0  0  0  0
   -5.1807   -1.0673   -0.5494 H   0  0  0  0  0  0  0  0  0  0  0  0
   -4.1864    0.8435   -0.2720 C   0  0  0  0  0  0  0  0  0  0  0  0
   -5.1291    1.4129   -0.2370 H   0  0  0  0  0  0  0  0  0  0  0  0
   -2.9674    1.5343   -0.1182 C   0  0  0  0  0  0  0  0  0  0  0  0
   -1.7636    0.7924   -0.1492 C   0  0  0  0  0  0  0  0  0  0  0  0
   -2.9131    3.0303    0.1045 C   0  0  0  0  0  0  0  0  0  0  0  0
   -3.7762    3.3532    0.7239 H   0  0  0  0  0  0  0  0  0  0  0  0
   -3.0232    3.5637   -0.8680 H   0  0  0  0  0  0  0  0  0  0  0  0
   -1.5883    3.4361    0.7545 C   0  0  0  0  0  0  0  0  0  0  0  0
   -1.4668    4.5388    0.7652 H   0  0  0  0  0  0  0  0  0  0  0  0
   -1.5630    3.0950    1.8125 H   0  0  0  0  0  0  0  0  0  0  0  0
   -0.4155    2.7920    0.0087 C   0  0  0  0  0  0  0  0  0  0  0  0
   -0.4296    3.1694   -1.0484 H   0  0  0  0  0  0  0  0  0  0  0  0
    0.5507    3.1060    0.4502 H   0  0  0  0  0  0  0  0  0  0  0  0
  1 13  1  0  0  0  0
  3  4  1  0  0  0  0
  3  1  1  0  0  0  0
  3  6  1  0  0  0  0
  5  3  1  0  0  0  0
  6  8  1  0  0  0  0
  7  6  1  0  0  0  0
  9 12  1  0  0  0  0
  9 11  1  0  0  0  0
  9  6  1  0  0  0  0
 10  9  1  0  0  0  0
 12 14  2  0  0  0  0
 12 13  1  0  0  0  0
 13 19  2  0  0  0  0
 14 16  1  0  0  0  0
 15 14  1  0  0  0  0
 16 17  1  0  0  0  0
 16 18  2  0  0  0  0
 18 20  1  0  0  0  0
 19 18  1  0  0  0  0
 19  2  1  0  0  0  0
 20 21  1  0  0  0  0
 20 23  1  0  0  0  0
 22 20  1  0  0  0  0
 23 24  1  0  0  0  0
 23 25  1  0  0  0  0
 26  2  1  0  0  0  0
 26 28  1  0  0  0  0
 26 23  1  0  0  0  0
 27 26  1  0  0  0  0
M  END
