1,2
q = 0.0, confidence = 1.0

 30 31  0  0  1  0  0  0  0  0999 V2000
    0.6351    1.4542   -0.5070 N   0  0  0  0  0  2  0  0  0  0  0  0
    0.6365   -1.4154   -0.5612 N   0  0  0  0  0  2  0  0  0  0  0  0
    1.0312   -0.0382    1.9307 N   0  0  0  0  0  0  0  0  0  0  0  0
    0.5545   -0.0705    2.8320 H   0  0  0  0  0  0  0  0  0  0  0  0
    1.7294    1.2261    1.7498 C   0  0  0  0  0  0  0  0  0  0  0  0
    2.8029    1.1694    2.0560 H   0  0  0  0  0  0  0  0  0  0  0  0
    1.2590    1.9734    2.4262 H   0  0  0  0  0  0  0  0  0  0  0  0
    1.6364    1.7312    0.3371 C   0  0  2  0  0  3  0  0  0  0  0  0
    2.5167    2.5977   -0.2542 N   0  0  0  0  0  0  0  0  0  0  0  0
    2.0446    2.8730   -1.5266 C   0  0  0  0  0  0  0  0  0  0  0  0
    2.5772    3.5436   -2.2081 H   0  0  0  0  0  0  0  0  0  0  0  0
    0.8768    2.1511   -1.6733 C   0  0  0  0  0  0  0  0  0  0  0  0
    0.2128    2.0807   -2.5402 H   0  0  0  0  0  0  0  0  0  0  0  0
    3.7013    3.1816    0.3597 C   0  0  0  0  0  0  0  0  0  0  0  0
    3.4262    3.8962    1.1610 H   0  0  0  0  0  0  0  0  0  0  0  0
    4.2759    3.7223   -0.4129 H   0  0  0  0  0  0  0  0  0  0  0  0
    4.3496    2.3921    0.7873 H   0  0  0  0  0  0  0  0  0  0  0  0
    1.7759   -1.2633    1.6814 C   0  0  0  0  0  0  0  0  0  0  0  0
    1.3712   -2.0538    2.3514 H   0  0  0  0  0  0  0  0  0  0  0  0
    2.8574   -1.1660    1.9474 H   0  0  0  0  0  0  0  0  0  0  0  0
    1.6472   -1.7291    0.2569 C   0  0  1  0  0  3  0  0  0  0  0  0
    2.4991   -2.6000   -0.3681 N   0  0  0  0  0  0  0  0  0  0  0  0
    1.9974   -2.8406   -1.6367 C   0  0  0  0  0  0  0  0  0  0  0  0
    2.5046   -3.5066   -2.3417 H   0  0  0  0  0  0  0  0  0  0  0  0
    0.8407   -2.0944   -1.7452 C   0  0  0  0  0  0  0  0  0  0  0  0
    0.1590   -1.9942   -2.5953 H   0  0  0  0  0  0  0  0  0  0  0  0
    3.6847   -3.2148    0.2125 C   0  0  0  0  0  0  0  0  0  0  0  0
    3.4127   -3.9300    1.0144 H   0  0  0  0  0  0  0  0  0  0  0  0
    4.3602   -2.4434    0.6313 H   0  0  0  0  0  0  0  0  0  0  0  0
    4.2291   -3.7618   -0.5774 H   0  0  0  0  0  0  0  0  0  0  0  0
  1  8  1  0  0  0  0
  2 21  1  0  0  0  0
  3  4  1  0  0  0  0
  5  3  1  0  0  0  0
  5  6  1  0  0  0  0
  5  7  1  0  0  0  0
  8  5  1  1  0  0  0
  9  8  1  0  0  0  0
  9 14  1  0  0  0  0
 10  9  1  0  0  0  0
 11 10  1  0  0  0  0
 12 10  2  0  0  0  0
 12  1  1  0  0  0  0
 13 12  1  0  0  0  0
 14 17  1  0  0  0  0
 14 15  1  0  0  0  0
 16 14  1  0  0  0  0
 18  3  1  0  0  0  0
 18 20  1  0  0  0  0
 18 19  1  0  0  0  0
 21 18  1  1  0  0  0
 22 27  1  0  0  0  0
 22 21  1  0  0  0  0
 23 22  1  0  0  0  0
 24 23  1  0  0  0  0
 25 23  2  0  0  0  0
 25  2  1  0  0  0  0
 26 25  1  0  0  0  0
 27 29  1  0  0  0  0
 27 28  1  0  0  0  0
 30 27  1  0  0  0  0
M  END
