1,17
q = 0.0, confidence = 0.992

 31 33  0  0  1  0  0  0  0  0999 V2000
    0.1858   -0.5108    1.0516 N   0  0  0  0  0  2  0  0  0  0  0  0
    1.4704   -0.1744    1.0030 N   0  0  0  0  0  0  0  0  0  0  0  0
    2.4974   -0.6768    1.8325 C   0  0  0  0  0  0  0  0  0  0  0  0
    2.7059   -2.0669    1.9649 C   0  0  0  0  0  0  0  0  0  0  0  0
    2.0363   -2.7735    1.4530 H   0  0  0  0  0  0  0  0  0  0  0  0
    3.7956   -2.5369    2.7065 C   0  0  0  0  0  0  0  0  0  0  0  0
    3.9621   -3.6205    2.7969 H   0  0  0  0  0  0  0  0  0  0  0  0
    4.6889   -1.6345    3.3085 C   0  0  0  0  0  0  0  0  0  0  0  0
    5.5482   -2.0102    3.8829 H   0  0  0  0  0  0  0  0  0  0  0  0
    4.4813   -0.2529    3.1728 C   0  0  0  0  0  0  0  0  0  0  0  0
    5.1732    0.4578    3.6489 H   0  0  0  0  0  0  0  0  0  0  0  0
    3.3854    0.2301    2.4447 C   0  0  0  0  0  0  0  0  0  0  0  0
    3.2060    1.3098    2.3451 H   0  0  0  0  0  0  0  0  0  0  0  0
   -0.3487   -1.2780    1.9877 C   0  0  0  0  0  3  0  0  0  0  0  0
    0.2484   -1.7255    2.7951 H   0  0  0  0  0  0  0  0  0  0  0  0
   -1.7817   -1.4265    1.9375 C   0  0  0  0  0  0  0  0  0  0  0  0
   -2.4213   -0.7394    0.9559 N   0  0  0  0  0  2  0  0  0  0  0  0
   -3.7883   -0.8285    0.8512 C   0  0  1  0  0  3  0  0  0  0  0  0
   -4.5378   -1.6949    1.7234 C   0  0  0  0  0  0  0  0  0  0  0  0
   -3.8454   -2.4033    2.7461 C   0  0  0  0  0  0  0  0  0  0  0  0
   -4.4058   -3.0652    3.4237 H   0  0  0  0  0  0  0  0  0  0  0  0
   -2.4798   -2.2534    2.8654 C   0  0  0  0  0  0  0  0  0  0  0  0
   -1.9092   -2.7802    3.6428 H   0  0  0  0  0  0  0  0  0  0  0  0
   -5.9372   -1.7977    1.5068 C   0  0  0  0  0  0  0  0  0  0  0  0
   -6.5324   -2.4696    2.1440 H   0  0  0  0  0  0  0  0  0  0  0  0
   -5.6996   -0.1854   -0.2644 C   0  0  0  0  0  0  0  0  0  0  0  0
   -6.1496    0.4497   -1.0482 H   0  0  0  0  0  0  0  0  0  0  0  0
   -4.3870   -0.0705   -0.0981 N   0  0  0  0  0  0  0  0  0  0  0  0
   -6.5254   -1.0522    0.4968 C   0  0  0  0  0  0  0  0  0  0  0  0
   -7.6031   -1.1120    0.2897 H   0  0  0  0  0  0  0  0  0  0  0  0
    1.6180    0.6837    0.4234 H   0  0  0  0  0  0  0  0  0  0  0  0
  1 14  1  0  0  0  0
  2  1  1  0  0  0  0
  2  3  1  0  0  0  0
  3  4  2  0  0  0  0
  3 12  1  0  0  0  0
  4  6  1  0  0  0  0
  5  4  1  0  0  0  0
  6  7  1  0  0  0  0
  6  8  2  0  0  0  0
  8  9  1  0  0  0  0
 10  8  1  0  0  0  0
 10 11  1  0  0  0  0
 12 10  2  0  0  0  0
 13 12  1  0  0  0  0
 14 15  1  0  0  0  0
 16 14  1  0  0  0  0
 16 22  2  0  0  0  0
 17 16  1  0  0  0  0
 18 28  1  1  0  0  0
 18 17  1  0  0  0  0
 18 19  1  0  0  0  0
 19 20  2  0  0  0  0
 20 22  1  0  0  0  0
 20 21  1  0  0  0  0
 22 23  1  0  0  0  0
 24 19  1  0  0  0  0
 24 25  1  0  0  0  0
 26 28  2  0  0  0  0
 26 29  1  0  0  0  0
 27 26  1  0  0  0  0
 29 24  2  0  0  0  0
 30 29  1  0  0  0  0
 31  2  1  0  0  0  0
M  END
