1,2
q = 0.0, confidence = 0.994

 56 60  0  0  1  0  0  0  0  0999 V2000
    1.6131   -1.7866   -0.2538 N   0  0  0  0  0  2  0  0  0  0  0  0
    0.5305    0.5435   -0.8040 N   0  0  0  0  0  0  0  0  0  0  0  0
    0.0632    1.0900   -1.5462 H   0  0  0  0  0  0  0  0  0  0  0  0
    0.2022    1.1452    0.5263 C   0  0  0  0  0  0  0  0  0  0  0  0
    0.7545    0.5652    1.2867 H   0  0  0  0  0  0  0  0  0  0  0  0
    0.6023    2.1784    0.5661 H   0  0  0  0  0  0  0  0  0  0  0  0
    1.9229   -2.9441    0.3682 O   0  0  0  0  0  0  0  0  0  0  0  0
    1.0967   -3.5037    0.1464 H   0  0  0  0  0  0  0  0  0  0  0  0
    2.4882   -0.8245   -0.3218 C   0  0  2  0  0  3  0  0  0  0  0  0
    3.8322   -0.8254    0.3396 C   0  0  0  0  0  0  0  0  0  0  0  0
    4.6285   -0.7550   -0.4325 H   0  0  0  0  0  0  0  0  0  0  0  0
    3.9830   -1.7819    0.8710 H   0  0  0  0  0  0  0  0  0  0  0  0
    3.8820    0.3670    1.2950 C   0  0  2  0  0  0  0  0  0  0  0  0
    3.6073    0.1198    2.3338 H   0  0  0  0  0  0  0  0  0  0  0  0
    3.3408    1.6828    0.7416 C   0  0  2  0  0  0  0  0  0  0  0  0
    2.7401    2.2914    1.4362 H   0  0  0  0  0  0  0  0  0  0  0  0
    2.8523    1.6559   -0.6994 C   0  0  0  0  0  0  0  0  0  0  0  0
    3.7181    1.6846   -1.3897 H   0  0  0  0  0  0  0  0  0  0  0  0
    2.2670    2.5669   -0.9402 H   0  0  0  0  0  0  0  0  0  0  0  0
    2.0092    0.4048   -1.0940 C   0  0  2  0  0  0  0  0  0  0  0  0
    2.1458    0.1542   -2.6085 C   0  0  0  0  0  0  0  0  0  0  0  0
    1.4948   -0.6858   -2.9242 H   0  0  0  0  0  0  0  0  0  0  0  0
    3.1945   -0.0930   -2.8626 H   0  0  0  0  0  0  0  0  0  0  0  0
    1.8581    1.0631   -3.1771 H   0  0  0  0  0  0  0  0  0  0  0  0
    4.8150    1.5533    1.1112 C   0  0  0  0  0  0  0  0  0  0  0  0
    5.2443    2.2640    2.3846 C   0  0  0  0  0  0  0  0  0  0  0  0
    5.5080    3.3223    2.1778 H   0  0  0  0  0  0  0  0  0  0  0  0
    6.1345    1.7742    2.8315 H   0  0  0  0  0  0  0  0  0  0  0  0
    4.4388    2.2595    3.1461 H   0  0  0  0  0  0  0  0  0  0  0  0
    5.8945    1.5417    0.0470 C   0  0  0  0  0  0  0  0  0  0  0  0
    5.6071    1.0068   -0.8786 H   0  0  0  0  0  0  0  0  0  0  0  0
    6.8127    1.0533    0.4340 H   0  0  0  0  0  0  0  0  0  0  0  0
    6.1647    2.5783   -0.2436 H   0  0  0  0  0  0  0  0  0  0  0  0
   -2.0768    2.1651    0.1939 C   0  0  0  0  0  0  0  0  0  0  0  0
   -1.5279    3.2498   -0.5695 C   0  0  0  0  0  0  0  0  0  0  0  0
   -0.4383    3.3348   -0.6969 H   0  0  0  0  0  0  0  0  0  0  0  0
   -2.3358    4.2092   -1.1514 C   0  0  0  0  0  0  0  0  0  0  0  0
   -1.8816    5.0287   -1.7290 H   0  0  0  0  0  0  0  0  0  0  0  0
   -3.7534    4.1494   -1.0093 C   0  0  0  0  0  0  0  0  0  0  0  0
   -4.3836    4.9180   -1.4808 H   0  0  0  0  0  0  0  0  0  0  0  0
   -4.3252    3.1248   -0.2822 C   0  0  0  0  0  0  0  0  0  0  0  0
   -5.4183    3.0625   -0.1658 H   0  0  0  0  0  0  0  0  0  0  0  0
   -3.5211    2.1114    0.3321 C   0  0  0  0  0  0  0  0  0  0  0  0
   -4.1028    1.0517    1.0479 C   0  0  0  0  0  0  0  0  0  0  0  0
   -5.2001    1.0001    1.1297 H   0  0  0  0  0  0  0  0  0  0  0  0
   -3.3268    0.0443    1.6447 C   0  0  0  0  0  0  0  0  0  0  0  0
   -3.9418   -1.0447    2.3433 C   0  0  0  0  0  0  0  0  0  0  0  0
   -5.0401   -1.0618    2.4164 H   0  0  0  0  0  0  0  0  0  0  0  0
   -3.1833   -2.0561    2.8950 C   0  0  0  0  0  0  0  0  0  0  0  0
   -3.6678   -2.8959    3.4149 H   0  0  0  0  0  0  0  0  0  0  0  0
   -1.7628   -2.0167    2.7835 C   0  0  0  0  0  0  0  0  0  0  0  0
   -1.1602   -2.8303    3.2139 H   0  0  0  0  0  0  0  0  0  0  0  0
   -1.1336   -0.9778    2.1251 C   0  0  0  0  0  0  0  0  0  0  0  0
   -0.0377   -0.9939    2.0545 H   0  0  0  0  0  0  0  0  0  0  0  0
   -1.8799    0.0908    1.5240 C   0  0  0  0  0  0  0  0  0  0  0  0
   -1.2799    1.1490    0.7878 C   0  0  0  0  0  0  0  0  0  0  0  0
  1  7  1  0  0  0  0
  2  4  1  0  0  0  0
  3  2  1  0  0  0  0
  4  6  1  0  0  0  0
  4 56  1  0  0  0  0
  4  5  1  0  0  0  0
  8  7  1  0  0  0  0
  9  1  1  1  0  0  0
  9 10  1  0  0  0  0
 10 12  1  0  0  0  0
 10 13  1  0  0  0  0
 11 10  1  0  0  0  0
 13 14  1  1  0  0  0
 15 25  1  0  0  0  0
 15 13  1  0  0  0  0
 15 16  1  1  0  0  0
 17 15  1  0  0  0  0
 18 17  1  0  0  0  0
 19 17  1  0  0  0  0
 20 21  1  6  0  0  0
 20  2  1  0  0  0  0
 20 17  1  0  0  0  0
 20  9  1  0  0  0  0
 22 21  1  0  0  0  0
 23 21  1  0  0  0  0
 24 21  1  0  0  0  0
 25 13  1  0  0  0  0
 25 26  1  0  0  0  0
 26 28  1  0  0  0  0
 26 29  1  0  0  0  0
 27 26  1  0  0  0  0
 30 32  1  0  0  0  0
 30 25  1  0  0  0  0
 31 30  1  0  0  0  0
 33 30  1  0  0  0  0
 34 43  2  0  0  0  0
 34 56  1  0  0  0  0
 35 34  1  0  0  0  0
 36 35  1  0  0  0  0
 37 39  1  0  0  0  0
 37 35  2  0  0  0  0
 38 37  1  0  0  0  0
 39 41  2  0  0  0  0
 40 39  1  0  0  0  0
 41 42  1  0  0  0  0
 41 43  1  0  0  0  0
 43 44  1  0  0  0  0
 44 45  1  0  0  0  0
 44 46  2  0  0  0  0
 46 47  1  0  0  0  0
 47 48  1  0  0  0  0
 47 49  2  0  0  0  0
 49 50  1  0  0  0  0
 51 49  1  0  0  0  0
 51 52  1  0  0  0  0
 53 51  2  0  0  0  0
 54 53  1  0  0  0  0
 55 46  1  0  0  0  0
 55 53  1  0  0  0  0
 56 55  2  0  0  0  0
M  END
