1,2
q = 0.0, confidence = 0.998

 34 37  0  0  1  0  0  0  0  0999 V2000
    0.4914   -1.9128   -0.0961 N   0  0  0  0  0  2  0  0  0  0  0  0
    1.8712    0.2165   -0.5004 N   0  0  0  0  0  2  0  0  0  0  0  0
    2.7498    1.2490   -0.5541 N   0  0  0  0  0  0  0  0  0  0  0  0
    6.3232    0.9189   -1.0082 N   0  0  0  0  0  0  0  0  0  0  0  0
    3.8927   -0.6427   -0.4919 N   0  0  0  0  0  0  0  0  0  0  0  0
    4.8856   -1.5463   -0.2192 N   0  0  0  0  0  0  0  0  0  0  0  0
   -0.3351   -2.9682    0.0469 C   0  0  0  0  0  3  0  0  0  0  0  0
   -1.3956   -2.7242    0.2161 H   0  0  0  0  0  0  0  0  0  0  0  0
    0.1251   -4.2909    0.0069 C   0  0  0  0  0  0  0  0  0  0  0  0
   -0.5969   -5.1097    0.1363 H   0  0  0  0  0  0  0  0  0  0  0  0
    1.4904   -4.5489   -0.1885 C   0  0  0  0  0  0  0  0  0  0  0  0
    1.8747   -5.5787   -0.2178 H   0  0  0  0  0  0  0  0  0  0  0  0
    2.3621   -3.4660   -0.3471 C   0  0  0  0  0  0  0  0  0  0  0  0
    3.4385   -3.6156   -0.5111 H   0  0  0  0  0  0  0  0  0  0  0  0
    1.8251   -2.1685   -0.3009 C   0  0  0  0  0  0  0  0  0  0  0  0
    2.5493   -0.9344   -0.4610 C   0  0  1  0  0  3  0  0  0  0  0  0
    3.9774    0.7441   -0.5275 C   0  0  0  0  0  0  0  0  0  0  0  0
    5.2236    1.5145   -0.5047 C   0  0  0  0  0  0  0  0  0  0  0  0
    5.2205    2.8183    0.0369 C   0  0  0  0  0  0  0  0  0  0  0  0
    4.2944    3.2317    0.4592 H   0  0  0  0  0  0  0  0  0  0  0  0
    6.4245    3.5297    0.0405 C   0  0  0  0  0  0  0  0  0  0  0  0
    6.4679    4.5474    0.4567 H   0  0  0  0  0  0  0  0  0  0  0  0
    7.5761    2.9172   -0.4786 C   0  0  0  0  0  0  0  0  0  0  0  0
    8.5443    3.4390   -0.4887 H   0  0  0  0  0  0  0  0  0  0  0  0
    7.4694    1.6101   -0.9841 C   0  0  0  0  0  0  0  0  0  0  0  0
    8.3560    1.0963   -1.3954 H   0  0  0  0  0  0  0  0  0  0  0  0
    5.6191   -2.2307   -1.1765 C   0  0  0  0  0  0  0  0  0  0  0  0
    5.5521   -1.9530   -2.2320 H   0  0  0  0  0  0  0  0  0  0  0  0
    6.3831   -3.1612   -0.4910 C   0  0  0  0  0  0  0  0  0  0  0  0
    7.0997   -3.8526   -0.9482 H   0  0  0  0  0  0  0  0  0  0  0  0
    6.0880   -3.0320    0.9070 C   0  0  0  0  0  0  0  0  0  0  0  0
    6.5283   -3.6126    1.7251 H   0  0  0  0  0  0  0  0  0  0  0  0
    5.1479   -2.0258    1.0586 C   0  0  0  0  0  0  0  0  0  0  0  0
    4.6216   -1.5941    1.9235 H   0  0  0  0  0  0  0  0  0  0  0  0
  1  7  1  0  0  0  0
  2 16  1  0  0  0  0
  3 17  2  0  0  0  0
  3  2  1  0  0  0  0
  4 25  2  0  0  0  0
  4 18  1  0  0  0  0
  5 16  1  0  0  0  0
  5  6  1  0  0  0  0
  6 33  1  0  0  0  0
  7  8  1  0  0  0  0
  9  7  1  0  0  0  0
  9 10  1  0  0  0  0
 11  9  2  0  0  0  0
 12 11  1  0  0  0  0
 13 15  2  0  0  0  0
 13 11  1  0  0  0  0
 14 13  1  0  0  0  0
 15  1  1  0  0  0  0
 16 15  1  1  0  0  0
 17 18  1  0  0  0  0
 17  5  1  0  0  0  0
 18 19  2  0  0  0  0
 19 21  1  0  0  0  0
 19 20  1  0  0  0  0
 21 22  1  0  0  0  0
 23 21  2  0  0  0  0
 24 23  1  0  0  0  0
 25 23  1  0  0  0  0
 26 25  1  0  0  0  0
 27 29  2  0  0  0  0
 27  6  1  0  0  0  0
 28 27  1  0  0  0  0
 29 31  1  0  0  0  0
 30 29  1  0  0  0  0
 31 33  2  0  0  0  0
 31 32  1  0  0  0  0
 33 34  1  0  0  0  0
M  END
