2,3
q = 0.0, confidence = 0.998

 26 26  0  0  0  0  0  0  0  0999 V2000
   -2.7940   -0.3107   -0.2457 O   0  0  0  0  0  0  0  0  0  0  0  0
   -0.4992    1.4431    0.4306 N   0  0  0  0  0  2  0  0  0  0  0  0
    2.2319    1.2663   -0.5283 N   0  0  0  0  0  0  0  0  0  0  0  0
    0.4591    2.5295    0.6592 C   0  0  0  0  0  0  0  0  0  0  0  0
    0.9707    2.3601    1.6314 H   0  0  0  0  0  0  0  0  0  0  0  0
   -0.0452    3.5206    0.7144 H   0  0  0  0  0  0  0  0  0  0  0  0
    1.4732    2.5378   -0.4795 C   0  0  0  0  0  0  0  0  0  0  0  0
    0.9214    2.6418   -1.4354 H   0  0  0  0  0  0  0  0  0  0  0  0
    2.1627    3.4109   -0.3892 H   0  0  0  0  0  0  0  0  0  0  0  0
   -1.7572    1.7969    0.4234 C   0  0  0  0  0  3  0  0  0  0  0  0
   -2.0151    2.8535    0.6454 H   0  0  0  0  0  0  0  0  0  0  0  0
   -2.9097    0.9888    0.1595 C   0  0  0  0  0  0  0  0  0  0  0  0
   -4.2624    1.3226    0.2437 C   0  0  0  0  0  0  0  0  0  0  0  0
   -4.6665    2.2965    0.5421 H   0  0  0  0  0  0  0  0  0  0  0  0
   -4.9903    0.1539   -0.1176 C   0  0  0  0  0  0  0  0  0  0  0  0
   -6.0776    0.0301   -0.1609 H   0  0  0  0  0  0  0  0  0  0  0  0
   -4.0403   -0.8087   -0.4048 C   0  0  0  0  0  0  0  0  0  0  0  0
   -4.0928   -1.8562   -0.7188 H   0  0  0  0  0  0  0  0  0  0  0  0
    2.7721    1.0409   -1.8843 C   0  0  0  0  0  0  0  0  0  0  0  0
    3.3140    0.0776   -1.9071 H   0  0  0  0  0  0  0  0  0  0  0  0
    3.4729    1.8577   -2.1792 H   0  0  0  0  0  0  0  0  0  0  0  0
    1.9433    0.9883   -2.6134 H   0  0  0  0  0  0  0  0  0  0  0  0
    3.3578    1.2994    0.4287 C   0  0  0  0  0  0  0  0  0  0  0  0
    2.9930    1.5263    1.4465 H   0  0  0  0  0  0  0  0  0  0  0  0
    4.1080    2.0708    0.1327 H   0  0  0  0  0  0  0  0  0  0  0  0
    3.8443    0.3074    0.4571 H   0  0  0  0  0  0  0  0  0  0  0  0
  1 12  1  0  0  0  0
  2  4  1  0  0  0  0
  3  7  1  0  0  0  0
  3 23  1  0  0  0  0
  4  6  1  0  0  0  0
  4  5  1  0  0  0  0
  7  9  1  0  0  0  0
  7  4  1  0  0  0  0
  8  7  1  0  0  0  0
 10  2  1  0  0  0  0
 10 11  1  0  0  0  0
 12 13  2  0  0  0  0
 12 10  1  0  0  0  0
 13 14  1  0  0  0  0
 15 13  1  0  0  0  0
 16 15  1  0  0  0  0
 17  1  1  0  0  0  0
 17 15  2  0  0  0  0
 18 17  1  0  0  0  0
 19  3  1  0  0  0  0
 20 19  1  0  0  0  0
 21 19  1  0  0  0  0
 22 19  1  0  0  0  0
 23 26  1  0  0  0  0
 23 24  1  0  0  0  0
 25 23  1  0  0  0  0
M  END
