1,2
q = 0.0, confidence = 0.936

 52 53  0  0  1  0  0  0  0  0999 V2000
    1.3433   -0.3332    0.6912 N   0  0  0  0  0  2  0  0  0  0  0  0
   -1.3380   -0.4048    0.6823 N   0  0  0  0  0  2  0  0  0  0  0  0
    1.2842   -0.9875    1.8310 C   0  0  1  0  0  3  0  0  0  0  0  0
    0.0334   -1.7498    2.2079 C   0  0  1  0  0  0  0  0  0  0  0  0
    0.0273   -1.8066    3.3181 H   0  0  0  0  0  0  0  0  0  0  0  0
   -1.2561   -1.0643    1.8160 C   0  0  2  0  0  3  0  0  0  0  0  0
    2.4324   -1.0673    2.7941 C   0  0  0  0  0  0  0  0  0  0  0  0
    2.6293   -2.1244    3.0735 H   0  0  0  0  0  0  0  0  0  0  0  0
    2.1841   -0.5352    3.7391 H   0  0  0  0  0  0  0  0  0  0  0  0
    3.3588   -0.6291    2.3817 H   0  0  0  0  0  0  0  0  0  0  0  0
    0.0835   -3.2127    1.6882 C   0  0  0  0  0  0  0  0  0  0  0  0
    0.0880   -3.2234    0.5813 H   0  0  0  0  0  0  0  0  0  0  0  0
   -0.7961   -3.7829    2.0488 H   0  0  0  0  0  0  0  0  0  0  0  0
    0.9953   -3.7246    2.0566 H   0  0  0  0  0  0  0  0  0  0  0  0
   -2.4106   -1.2165    2.7620 C   0  0  0  0  0  0  0  0  0  0  0  0
   -2.2030   -0.6870    3.7181 H   0  0  0  0  0  0  0  0  0  0  0  0
   -2.5550   -2.2866    3.0232 H   0  0  0  0  0  0  0  0  0  0  0  0
   -3.3530   -0.8225    2.3409 H   0  0  0  0  0  0  0  0  0  0  0  0
    2.5673    0.3243    0.3005 C   0  0  0  0  0  0  0  0  0  0  0  0
    2.8099    1.6580    0.7247 C   0  0  0  0  0  0  0  0  0  0  0  0
    3.9785    2.2937    0.2710 C   0  0  0  0  0  0  0  0  0  0  0  0
    4.1703    3.3315    0.5847 H   0  0  0  0  0  0  0  0  0  0  0  0
    4.8930    1.6302   -0.5564 C   0  0  0  0  0  0  0  0  0  0  0  0
    5.7966    2.1496   -0.9093 H   0  0  0  0  0  0  0  0  0  0  0  0
    4.6729    0.2921   -0.8996 C   0  0  0  0  0  0  0  0  0  0  0  0
    5.4142   -0.2520   -1.5050 H   0  0  0  0  0  0  0  0  0  0  0  0
    3.5246   -0.3974   -0.4638 C   0  0  0  0  0  0  0  0  0  0  0  0
    3.3691   -1.8614   -0.7673 C   0  0  0  0  0  0  0  0  0  0  0  0
    3.0762   -2.4402    0.1323 H   0  0  0  0  0  0  0  0  0  0  0  0
    4.3174   -2.2800   -1.1537 H   0  0  0  0  0  0  0  0  0  0  0  0
    2.5696   -2.0470   -1.5154 H   0  0  0  0  0  0  0  0  0  0  0  0
    1.8640    2.3990    1.6282 C   0  0  0  0  0  0  0  0  0  0  0  0
    2.4015    3.1784    2.2017 H   0  0  0  0  0  0  0  0  0  0  0  0
    1.3500    1.7300    2.3446 H   0  0  0  0  0  0  0  0  0  0  0  0
    1.0768    2.8972    1.0228 H   0  0  0  0  0  0  0  0  0  0  0  0
   -2.5704    0.2505    0.3163 C   0  0  0  0  0  0  0  0  0  0  0  0
   -2.8102    1.5574    0.8168 C   0  0  0  0  0  0  0  0  0  0  0  0
   -3.9677    2.2278    0.3920 C   0  0  0  0  0  0  0  0  0  0  0  0
   -4.1531    3.2496    0.7572 H   0  0  0  0  0  0  0  0  0  0  0  0
   -4.8792    1.6140   -0.4786 C   0  0  0  0  0  0  0  0  0  0  0  0
   -5.7775    2.1567   -0.8093 H   0  0  0  0  0  0  0  0  0  0  0  0
   -4.6583    0.2998   -0.9036 C   0  0  0  0  0  0  0  0  0  0  0  0
   -5.3940   -0.2017   -1.5513 H   0  0  0  0  0  0  0  0  0  0  0  0
   -3.5112   -0.4179   -0.5081 C   0  0  0  0  0  0  0  0  0  0  0  0
   -3.3397   -1.8531   -0.9215 C   0  0  0  0  0  0  0  0  0  0  0  0
   -4.2965   -2.2676   -1.2917 H   0  0  0  0  0  0  0  0  0  0  0  0
   -2.9864   -2.4855   -0.0822 H   0  0  0  0  0  0  0  0  0  0  0  0
   -2.5758   -1.9655   -1.7193 H   0  0  0  0  0  0  0  0  0  0  0  0
   -1.8669    2.1878    1.8032 C   0  0  0  0  0  0  0  0  0  0  0  0
   -0.8181    1.9814    1.5265 H   0  0  0  0  0  0  0  0  0  0  0  0
   -2.0312    1.7871    2.8274 H   0  0  0  0  0  0  0  0  0  0  0  0
   -2.0082    3.2841    1.8457 H   0  0  0  0  0  0  0  0  0  0  0  0
  3  1  1  6  0  0  0
  3  4  1  0  0  0  0
  3  7  1  0  0  0  0
  4  5  1  1  0  0  0
  6  2  1  6  0  0  0
  6  4  1  0  0  0  0
  6 15  1  0  0  0  0
  7  8  1  0  0  0  0
  7  9  1  0  0  0  0
 10  7  1  0  0  0  0
 11 13  1  0  0  0  0
 11 14  1  0  0  0  0
 11  4  1  0  0  0  0
 12 11  1  0  0  0  0
 15 17  1  0  0  0  0
 15 16  1  0  0  0  0
 18 15  1  0  0  0  0
 19  1  1  0  0  0  0
 19 20  1  0  0  0  0
 20 32  1  0  0  0  0
 21 22  1  0  0  0  0
 21 20  2  0  0  0  0
 23 21  1  0  0  0  0
 24 23  1  0  0  0  0
 25 23  2  0  0  0  0
 25 27  1  0  0  0  0
 26 25  1  0  0  0  0
 27 19  2  0  0  0  0
 28 27  1  0  0  0  0
 28 29  1  0  0  0  0
 30 28  1  0  0  0  0
 31 28  1  0  0  0  0
 32 33  1  0  0  0  0
 32 34  1  0  0  0  0
 35 32  1  0  0  0  0
 36  2  1  0  0  0  0
 36 37  1  0  0  0  0
 37 49  1  0  0  0  0
 38 39  1  0  0  0  0
 38 37  2  0  0  0  0
 40 38  1  0  0  0  0
 41 40  1  0  0  0  0
 42 44  1  0  0  0  0
 42 40  2  0  0  0  0
 43 42  1  0  0  0  0
 44 36  2  0  0  0  0
 45 44  1  0  0  0  0
 45 47  1  0  0  0  0
 46 45  1  0  0  0  0
 48 45  1  0  0  0  0
 49 52  1  0  0  0  0
 49 51  1  0  0  0  0
 50 49  1  0  0  0  0
M  END
