11,22
q = -1.0, confidence = 0.0

 36 37  0  0  1  0  0  0  0  0999 V2000
   -4.0040   -0.3401   -0.0013 N   0  0  0  0  0  0  0  0  0  0  0  0
   -4.6914   -1.6255    0.0103 C   0  0  0  0  0  0  0  0  0  0  0  0
   -4.8275    0.8090   -0.0535 C   0  0  0  0  0  0  0  0  0  0  0  0
   -6.0497    0.7239   -0.0813 O   0  0  0  0  0  0  0  0  0  0  0  0
   -4.1765    2.0337   -0.0733 N   0  0  0  0  0  0  0  0  0  0  0  0
   -5.0344    3.2151   -0.1326 C   0  0  0  0  0  0  0  0  0  0  0  0
   -2.7722    2.2133   -0.0430 C   0  0  0  0  0  0  0  0  0  0  0  0
   -2.2941    3.3499   -0.0737 O   0  0  0  0  0  0  0  0  0  0  0  0
   -1.9760    0.9846    0.0252 C   0  0  0  0  0  0  0  0  0  0  0  0
   -0.5807    1.2168    0.0436 C   0  0  0  0  0  0  0  0  0  0  0  0
    0.4085    0.3422    0.1289 N   0  0  0  0  0  2  0  0  0  0  0  0
    1.6698    0.8821    0.0247 N   0  0  0  0  0  0  0  0  0  0  0  0
    2.8084    0.2321    0.4010 C   0  0  0  0  0  0  0  0  0  0  0  0
    2.8175   -0.9046    0.9108 O   0  0  0  0  0  0  0  0  0  0  0  0
    4.0826    0.9692    0.1311 C   0  0  0  0  0  0  0  0  0  0  0  0
    4.1631    2.3737    0.0148 C   0  0  0  0  0  0  0  0  0  0  0  0
    5.3960    2.9928   -0.2314 C   0  0  0  0  0  0  0  0  0  0  0  0
    6.5594    2.2173   -0.3606 C   0  0  0  0  0  0  0  0  0  0  0  0
    6.4881    0.8204   -0.2297 C   0  0  0  0  0  0  0  0  0  0  0  0
    5.2591    0.1996    0.0228 C   0  0  0  0  0  0  0  0  0  0  0  0
   -2.6100   -0.3059    0.0382 C   0  0  2  0  0  3  0  0  0  0  0  0
   -1.9298   -1.4407    0.0757 N   0  0  0  0  0  2  0  0  0  0  0  0
   -4.4478   -2.1963    0.9304 H   0  0  0  0  0  0  0  0  0  0  0  0
   -4.4200   -2.2301   -0.8804 H   0  0  0  0  0  0  0  0  0  0  0  0
   -5.7740   -1.4140   -0.0117 H   0  0  0  0  0  0  0  0  0  0  0  0
   -5.6588    3.1907   -1.0464 H   0  0  0  0  0  0  0  0  0  0  0  0
   -4.3690    4.0949   -0.1390 H   0  0  0  0  0  0  0  0  0  0  0  0
   -5.7112    3.2418    0.7430 H   0  0  0  0  0  0  0  0  0  0  0  0
   -0.3323    2.2969   -0.0265 H   0  0  0  0  0  0  0  0  0  0  0  0
    1.7523    1.7888   -0.4479 H   0  0  0  0  0  0  0  0  0  0  0  0
    3.2707    3.0046    0.1539 H   0  0  0  0  0  0  0  0  0  0  0  0
    5.4499    4.0888   -0.3110 H   0  0  0  0  0  0  0  0  0  0  0  0
    7.5264    2.7051   -0.5555 H   0  0  0  0  0  0  0  0  0  0  0  0
    7.3992    0.2107   -0.3243 H   0  0  0  0  0  0  0  0  0  0  0  0
    5.1788   -0.8908    0.1373 H   0  0  0  0  0  0  0  0  0  0  0  0
   -2.5174   -2.2776    0.0485 H   0  0  0  0  0  0  0  0  0  0  0  0
  1  2  1  0  0  0  0
  1 21  1  0  0  0  0
  2 23  1  0  0  0  0
  3  1  1  0  0  0  0
  4  3  2  0  0  0  0
  5  3  1  0  0  0  0
  5  7  1  0  0  0  0
  6  5  1  0  0  0  0
  6 28  1  0  0  0  0
  7  9  1  0  0  0  0
  8  7  2  0  0  0  0
  9 21  1  0  0  0  0
  9 10  2  0  0  0  0
 10 11  1  0  0  0  0
 12 11  1  0  0  0  0
 12 13  1  0  0  0  0
 13 14  2  0  0  0  0
 15 13  1  0  0  0  0
 16 15  2  0  0  0  0
 16 31  1  0  0  0  0
 17 16  1  0  0  0  0
 18 17  2  0  0  0  0
 18 19  1  0  0  0  0
 19 20  2  0  0  0  0
 20 15  1  0  0  0  0
 20 35  1  0  0  0  0
 21 22  1  6  0  0  0
 24  2  1  0  0  0  0
 25  2  1  0  0  0  0
 26  6  1  0  0  0  0
 27  6  1  0  0  0  0
 29 10  1  0  0  0  0
 30 12  1  0  0  0  0
 32 17  1  0  0  0  0
 33 18  1  0  0  0  0
 34 19  1  0  0  0  0
 36 22  1  0  0  0  0
M  END
