3,4
q = -1.0

 73 81  0  0  1  0  0  0  0  0999 V2000
   -2.5668    0.0204   -0.3458 O   0  0  0  0  0  0  0  0  0  0  0  0
   -0.4118    2.2423   -0.3417 N   0  0  0  0  0  0  0  0  0  0  0  0
    2.4058    1.3306   -0.0440 N   0  0  0  0  0  2  0  0  0  0  0  0
    2.3608   -1.3892   -0.0825 N   0  0  0  0  0  0  0  0  0  0  0  0
   -0.4692   -2.2506   -0.3471 N   0  0  0  0  0  0  0  0  0  0  0  0
   -1.5791    2.9744   -0.4387 C   0  0  0  0  0  0  0  0  0  0  0  0
   -1.1810    4.3336   -0.6423 C   0  0  0  0  0  0  0  0  0  0  0  0
    0.2128    4.3842   -0.6459 C   0  0  0  0  0  0  0  0  0  0  0  0
    0.6968    3.0643   -0.4400 C   0  0  0  0  0  0  0  0  0  0  0  0
    2.0472    2.6091   -0.3849 C   0  0  2  0  0  3  0  0  0  0  0  0
    3.2162    3.3356   -0.7918 C   0  0  0  0  0  0  0  0  0  0  0  0
    4.2849    2.4532   -0.7212 C   0  0  0  0  0  0  0  0  0  0  0  0
    3.7670    1.1848   -0.2798 C   0  0  0  0  0  0  0  0  0  0  0  0
    4.4418   -0.0650   -0.2926 C   0  0  0  0  0  0  0  0  0  0  0  0
    5.9163   -0.0499   -0.4876 C   0  0  0  0  0  0  0  0  0  0  0  0
    6.5252   -0.6556   -1.6100 C   0  0  0  0  0  0  0  0  0  0  0  0
    7.9163   -0.6119   -1.7801 C   0  0  0  0  0  0  0  0  0  0  0  0
    8.7251    0.0403   -0.8356 C   0  0  0  0  0  0  0  0  0  0  0  0
    8.1316    0.6567    0.2774 C   0  0  0  0  0  0  0  0  0  0  0  0
    6.7406    0.6153    0.4483 C   0  0  0  0  0  0  0  0  0  0  0  0
    3.7378   -1.2976   -0.2710 C   0  0  0  0  0  3  0  0  0  0  0  0
    4.2349   -2.6127   -0.5794 C   0  0  0  0  0  0  0  0  0  0  0  0
    3.1415   -3.4649   -0.6496 C   0  0  0  0  0  0  0  0  0  0  0  0
    1.9795   -2.6790   -0.3513 C   0  0  0  0  0  0  0  0  0  0  0  0
    0.6195   -3.1023   -0.4106 C   0  0  0  0  0  0  0  0  0  0  0  0
    0.1038   -4.4168   -0.5685 C   0  0  0  0  0  0  0  0  0  0  0  0
   -1.2883   -4.3326   -0.5711 C   0  0  0  0  0  0  0  0  0  0  0  0
   -1.6538   -2.9579   -0.4157 C   0  0  0  0  0  0  0  0  0  0  0  0
   -2.9735   -2.4305   -0.3303 C   0  0  1  0  0  3  0  0  0  0  0  0
   -4.0718   -3.4516   -0.3061 C   0  0  0  0  0  0  0  0  0  0  0  0
   -4.9678   -3.5749   -1.3888 C   0  0  0  0  0  0  0  0  0  0  0  0
   -5.9911   -4.5343   -1.3646 C   0  0  0  0  0  0  0  0  0  0  0  0
   -6.1325   -5.3863   -0.2576 C   0  0  0  0  0  0  0  0  0  0  0  0
   -5.2448   -5.2738    0.8246 C   0  0  0  0  0  0  0  0  0  0  0  0
   -4.2219   -4.3142    0.8006 C   0  0  0  0  0  0  0  0  0  0  0  0
   -3.4003   -1.0976   -0.2497 C   0  0  0  0  0  0  0  0  0  0  0  0
   -4.7370   -0.6417   -0.0606 C   0  0  0  0  0  0  0  0  0  0  0  0
   -4.7194    0.7385   -0.0634 C   0  0  0  0  0  0  0  0  0  0  0  0
   -3.3719    1.1598   -0.2553 C   0  0  0  0  0  0  0  0  0  0  0  0
   -2.9119    2.4810   -0.3475 C   0  0  1  0  0  3  0  0  0  0  0  0
   -3.9837    3.5298   -0.3402 C   0  0  0  0  0  0  0  0  0  0  0  0
   -4.8855    3.6498   -1.4187 C   0  0  0  0  0  0  0  0  0  0  0  0
   -5.8829    4.6363   -1.4108 C   0  0  0  0  0  0  0  0  0  0  0  0
   -5.9925    5.5192   -0.3247 C   0  0  0  0  0  0  0  0  0  0  0  0
   -5.0987    5.4105    0.7530 C   0  0  0  0  0  0  0  0  0  0  0  0
   -4.1016    4.4241    0.7451 C   0  0  0  0  0  0  0  0  0  0  0  0
   -0.3527    1.2348   -0.1541 H   0  0  0  0  0  0  0  0  0  0  0  0
   -0.3886   -1.2392   -0.1965 H   0  0  0  0  0  0  0  0  0  0  0  0
   -1.8752    5.1683   -0.7782 H   0  0  0  0  0  0  0  0  0  0  0  0
    0.8432    5.2705   -0.7718 H   0  0  0  0  0  0  0  0  0  0  0  0
    3.2282    4.3673   -1.1606 H   0  0  0  0  0  0  0  0  0  0  0  0
    5.3235    2.6376   -1.0162 H   0  0  0  0  0  0  0  0  0  0  0  0
    5.8914   -1.1393   -2.3677 H   0  0  0  0  0  0  0  0  0  0  0  0
    8.3715   -1.0816   -2.6655 H   0  0  0  0  0  0  0  0  0  0  0  0
    9.8169    0.0735   -0.9706 H   0  0  0  0  0  0  0  0  0  0  0  0
    8.7573    1.1721    1.0221 H   0  0  0  0  0  0  0  0  0  0  0  0
    6.2741    1.0926    1.3231 H   0  0  0  0  0  0  0  0  0  0  0  0
    5.2831   -2.8654   -0.7680 H   0  0  0  0  0  0  0  0  0  0  0  0
    3.1417   -4.5245   -0.9288 H   0  0  0  0  0  0  0  0  0  0  0  0
    0.7124   -5.3224   -0.6597 H   0  0  0  0  0  0  0  0  0  0  0  0
   -2.0022   -5.1550   -0.6766 H   0  0  0  0  0  0  0  0  0  0  0  0
   -4.8495   -2.9100   -2.2579 H   0  0  0  0  0  0  0  0  0  0  0  0
   -6.6792   -4.6208   -2.2193 H   0  0  0  0  0  0  0  0  0  0  0  0
   -6.9349   -6.1393   -0.2385 H   0  0  0  0  0  0  0  0  0  0  0  0
   -5.3522   -5.9355    1.6977 H   0  0  0  0  0  0  0  0  0  0  0  0
   -3.5266   -4.2207    1.6486 H   0  0  0  0  0  0  0  0  0  0  0  0
   -5.6009   -1.2987    0.0756 H   0  0  0  0  0  0  0  0  0  0  0  0
   -5.5665    1.4176    0.0704 H   0  0  0  0  0  0  0  0  0  0  0  0
   -4.7917    2.9610   -2.2720 H   0  0  0  0  0  0  0  0  0  0  0  0
   -6.5755    4.7198   -2.2623 H   0  0  0  0  0  0  0  0  0  0  0  0
   -6.7746    6.2935   -0.3183 H   0  0  0  0  0  0  0  0  0  0  0  0
   -5.1812    6.0965    1.6098 H   0  0  0  0  0  0  0  0  0  0  0  0
   -3.4017    4.3339    1.5896 H   0  0  0  0  0  0  0  0  0  0  0  0
  1 39  1  0  0  0  0
  1 36  1  0  0  0  0
  2 47  1  0  0  0  0
  5 48  1  0  0  0  0
  6 40  1  0  0  0  0
  6  2  1  0  0  0  0
  7  6  2  0  0  0  0
  8  7  1  0  0  0  0
  8  9  2  0  0  0  0
  9 10  1  0  0  0  0
  9  2  1  0  0  0  0
 10 11  1  6  0  0  0
 10  3  1  0  0  0  0
 11 12  2  0  0  0  0
 12 13  1  0  0  0  0
 13  3  1  0  0  0  0
 14 13  2  0  0  0  0
 14 21  1  0  0  0  0
 15 14  1  0  0  0  0
 15 20  1  0  0  0  0
 16 15  2  0  0  0  0
 17 16  1  0  0  0  0
 17 18  2  0  0  0  0
 18 19  1  0  0  0  0
 19 20  2  0  0  0  0
 19 56  1  0  0  0  0
 20 57  1  0  0  0  0
 21  4  1  0  0  0  0
 22 21  1  0  0  0  0
 23 22  2  0  0  0  0
 23 24  1  0  0  0  0
 24  4  2  0  0  0  0
 25 24  1  0  0  0  0
 25  5  1  0  0  0  0
 26 25  2  0  0  0  0
 27 26  1  0  0  0  0
 27 28  2  0  0  0  0
 28  5  1  0  0  0  0
 28 29  1  0  0  0  0
 29 30  1  1  0  0  0
 29 36  1  0  0  0  0
 30 35  1  0  0  0  0
 31 32  1  0  0  0  0
 31 30  2  0  0  0  0
 32 33  2  0  0  0  0
 33 64  1  0  0  0  0
 33 34  1  0  0  0  0
 34 65  1  0  0  0  0
 35 34  2  0  0  0  0
 35 66  1  0  0  0  0
 36 37  2  0  0  0  0
 37 67  1  0  0  0  0
 38 37  1  0  0  0  0
 38 68  1  0  0  0  0
 39 38  2  0  0  0  0
 40 41  1  1  0  0  0
 40 39  1  0  0  0  0
 41 46  1  0  0  0  0
 42 43  1  0  0  0  0
 42 41  2  0  0  0  0
 43 44  2  0  0  0  0
 44 71  1  0  0  0  0
 44 45  1  0  0  0  0
 45 72  1  0  0  0  0
 46 45  2  0  0  0  0
 46 73  1  0  0  0  0
 49  7  1  0  0  0  0
 50  8  1  0  0  0  0
 51 11  1  0  0  0  0
 52 12  1  0  0  0  0
 53 16  1  0  0  0  0
 54 17  1  0  0  0  0
 55 18  1  0  0  0  0
 58 22  1  0  0  0  0
 59 23  1  0  0  0  0
 60 26  1  0  0  0  0
 61 27  1  0  0  0  0
 62 31  1  0  0  0  0
 63 32  1  0  0  0  0
 69 42  1  0  0  0  0
 70 43  1  0  0  0  0
M  END
