1,2
q = -1.0, confidence = 0.014

 28 29  0  0  1  0  0  0  0  0999 V2000
   -0.8560    1.9633   -0.2364 N   0  0  0  0  0  2  0  0  0  0  0  0
    0.9875    0.1671   -0.6822 N   0  0  0  0  0  2  0  0  0  0  0  0
   -1.6250    3.0387    0.0343 C   0  0  0  0  0  3  0  0  0  0  0  0
   -0.9309    4.2255   -0.3209 C   0  0  0  0  0  0  0  0  0  0  0  0
    0.3289    3.8360   -0.8096 C   0  0  0  0  0  0  0  0  0  0  0  0
    0.3571    2.4198   -0.7361 C   0  0  0  0  0  0  0  0  0  0  0  0
    1.3262    1.4130   -0.9460 C   0  0  0  0  0  0  0  0  0  0  0  0
    1.9712   -0.9147   -0.8569 C   0  0  1  0  0  0  0  0  0  0  0  0
    2.0414   -1.3227   -2.3331 C   0  0  0  0  0  0  0  0  0  0  0  0
    3.3266   -0.5718   -0.2319 C   0  0  0  0  0  0  0  0  0  0  0  0
    4.5367   -0.6521   -0.9463 C   0  0  0  0  0  0  0  0  0  0  0  0
    5.7588   -0.3390   -0.3256 C   0  0  0  0  0  0  0  0  0  0  0  0
    5.7855    0.0589    1.0177 C   0  0  0  0  0  0  0  0  0  0  0  0
    4.5810    0.1428    1.7376 C   0  0  0  0  0  0  0  0  0  0  0  0
    3.3628   -0.1687    1.1213 C   0  0  0  0  0  0  0  0  0  0  0  0
   -2.6242    2.9352    0.4740 H   0  0  0  0  0  0  0  0  0  0  0  0
   -1.3199    5.2464   -0.2277 H   0  0  0  0  0  0  0  0  0  0  0  0
    1.1398    4.4833   -1.1633 H   0  0  0  0  0  0  0  0  0  0  0  0
    2.3517    1.6560   -1.2792 H   0  0  0  0  0  0  0  0  0  0  0  0
    1.5647   -1.7714   -0.2809 H   0  0  0  0  0  0  0  0  0  0  0  0
    2.6399   -2.2445   -2.4727 H   0  0  0  0  0  0  0  0  0  0  0  0
    1.0222   -1.5042   -2.7227 H   0  0  0  0  0  0  0  0  0  0  0  0
    2.4894   -0.5169   -2.9487 H   0  0  0  0  0  0  0  0  0  0  0  0
    4.5418   -0.9629   -2.0008 H   0  0  0  0  0  0  0  0  0  0  0  0
    6.6946   -0.4065   -0.9017 H   0  0  0  0  0  0  0  0  0  0  0  0
    6.7419    0.3062    1.5035 H   0  0  0  0  0  0  0  0  0  0  0  0
    4.5887    0.4581    2.7924 H   0  0  0  0  0  0  0  0  0  0  0  0
    2.4159   -0.0783    1.6813 H   0  0  0  0  0  0  0  0  0  0  0  0
  1  3  1  0  0  0  0
  3 16  1  0  0  0  0
  4 17  1  0  0  0  0
  4  3  1  0  0  0  0
  5  6  1  0  0  0  0
  5  4  2  0  0  0  0
  6  1  1  0  0  0  0
  7  6  2  0  0  0  0
  7  2  1  0  0  0  0
  8  2  1  0  0  0  0
  8 20  1  1  0  0  0
  8 10  1  0  0  0  0
  9  8  1  0  0  0  0
 10 15  1  0  0  0  0
 11 12  1  0  0  0  0
 11 10  2  0  0  0  0
 12 13  2  0  0  0  0
 13 26  1  0  0  0  0
 13 14  1  0  0  0  0
 14 27  1  0  0  0  0
 15 28  1  0  0  0  0
 15 14  2  0  0  0  0
 18  5  1  0  0  0  0
 19  7  1  0  0  0  0
 21  9  1  0  0  0  0
 22  9  1  0  0  0  0
 23  9  1  0  0  0  0
 24 11  1  0  0  0  0
 25 12  1  0  0  0  0
M  END
