1,22
q = -1.0

 22 21  0  0  0  0  0  0  0  0999 V2000
   -0.5734   -1.2069    0.6096 N   0  0  0  0  0  2  0  0  0  0  0  0
   -3.9564   -1.7520    1.8181 C   0  0  0  0  0  0  0  0  0  0  0  0
   -4.3920   -0.9054    1.2616 H   0  0  0  0  0  0  0  0  0  0  0  0
   -4.3599   -1.7415    2.8507 H   0  0  0  0  0  0  0  0  0  0  0  0
   -4.2683   -2.7041    1.3337 H   0  0  0  0  0  0  0  0  0  0  0  0
   -2.5039   -1.6369    1.8753 N   0  0  0  0  0  0  0  0  0  0  0  0
   -1.7960   -0.9385    0.9437 C   0  0  0  0  0  0  0  0  0  0  0  0
   -2.5297    0.0919    0.3771 O   0  0  0  0  0  0  0  0  0  0  0  0
   -1.5061    2.7630   -1.9111 C   0  0  0  0  0  0  0  0  0  0  0  0
   -2.0546    2.8795   -2.8689 H   0  0  0  0  0  0  0  0  0  0  0  0
   -0.4897    2.3948   -2.1221 H   0  0  0  0  0  0  0  0  0  0  0  0
   -1.4642    3.7681   -1.4406 H   0  0  0  0  0  0  0  0  0  0  0  0
   -3.6549    2.2490   -0.5700 C   0  0  0  0  0  0  0  0  0  0  0  0
   -3.9628    3.1963   -1.0459 H   0  0  0  0  0  0  0  0  0  0  0  0
   -3.6910    2.3604    0.5334 H   0  0  0  0  0  0  0  0  0  0  0  0
   -4.3822    1.4542   -0.8323 H   0  0  0  0  0  0  0  0  0  0  0  0
   -1.7944   -2.6332    2.6664 C   0  0  0  0  0  0  0  0  0  0  0  0
   -2.2763   -2.7112    3.6607 H   0  0  0  0  0  0  0  0  0  0  0  0
   -0.7391   -2.3236    2.7761 H   0  0  0  0  0  0  0  0  0  0  0  0
   -1.8139   -3.6343    2.1823 H   0  0  0  0  0  0  0  0  0  0  0  0
   -2.2727    1.8639   -1.0050 C   0  0  0  0  0  3  0  0  0  0  0  0
   -1.7329    0.7692   -0.5609 N   0  0  0  0  0  2  0  0  0  0  0  0
  1  7  2  0  0  0  0
  2  6  1  0  0  0  0
  2  4  1  0  0  0  0
  3  2  1  0  0  0  0
  5  2  1  0  0  0  0
  6 17  1  0  0  0  0
  7  6  1  0  0  0  0
  8  7  1  0  0  0  0
  9 12  1  0  0  0  0
  9 21  1  0  0  0  0
 10  9  1  0  0  0  0
 11  9  1  0  0  0  0
 13 15  1  0  0  0  0
 14 13  1  0  0  0  0
 16 13  1  0  0  0  0
 17 19  1  0  0  0  0
 17 18  1  0  0  0  0
 20 17  1  0  0  0  0
 21 13  1  0  0  0  0
 21 22  1  0  0  0  0
 22  8  1  0  0  0  0
M  END
