1,43
q = 0.0, confidence = 1.0

 58 61  0  0  1  0  0  0  0  0999 V2000
    0.1590    1.4805   -1.4813 N   0  0  0  0  0  2  0  0  0  0  0  0
    1.1396    2.3433   -1.8515 C   0  0  2  0  0  3  0  0  0  0  0  0
    2.5497    2.0547   -1.4405 C   0  0  0  0  0  0  0  0  0  0  0  0
    2.8033    2.6076   -0.5104 H   0  0  0  0  0  0  0  0  0  0  0  0
    3.2635    2.3833   -2.2193 H   0  0  0  0  0  0  0  0  0  0  0  0
    2.6836    0.9776   -1.2219 H   0  0  0  0  0  0  0  0  0  0  0  0
    0.8271    3.4905   -2.6095 C   0  0  0  0  0  0  0  0  0  0  0  0
    1.6427    4.1654   -2.9053 H   0  0  0  0  0  0  0  0  0  0  0  0
   -0.4924    3.7471   -2.9936 C   0  0  0  0  0  0  0  0  0  0  0  0
   -0.7404    4.6388   -3.5877 H   0  0  0  0  0  0  0  0  0  0  0  0
   -1.4872    2.8394   -2.6184 C   0  0  0  0  0  0  0  0  0  0  0  0
   -2.5381    2.9864   -2.9059 H   0  0  0  0  0  0  0  0  0  0  0  0
   -1.1406    1.7166   -1.8488 C   0  0  0  0  0  0  0  0  0  0  0  0
   -2.1582    0.7353   -1.4687 C   0  0  0  0  0  0  0  0  0  0  0  0
   -3.0912    0.7212   -2.0720 H   0  0  0  0  0  0  0  0  0  0  0  0
   -1.9472   -0.0909   -0.4964 N   0  0  0  0  0  0  0  0  0  0  0  0
   -2.7717   -1.2119   -0.3235 C   0  0  0  0  0  0  0  0  0  0  0  0
   -3.0614   -2.0350   -1.4397 C   0  0  0  0  0  0  0  0  0  0  0  0
   -2.6599   -1.7477   -2.4230 H   0  0  0  0  0  0  0  0  0  0  0  0
   -3.7797   -3.2257   -1.2838 C   0  0  0  0  0  0  0  0  0  0  0  0
   -3.9854   -3.8614   -2.1580 H   0  0  0  0  0  0  0  0  0  0  0  0
   -4.2219   -3.6032   -0.0068 C   0  0  0  0  0  0  0  0  0  0  0  0
   -4.7829   -4.5389    0.1332 H   0  0  0  0  0  0  0  0  0  0  0  0
   -3.9446   -2.7820    1.0976 C   0  0  0  0  0  0  0  0  0  0  0  0
   -4.3080   -3.0768    2.0945 H   0  0  0  0  0  0  0  0  0  0  0  0
   -3.2182   -1.5837    0.9767 C   0  0  0  0  0  0  0  0  0  0  0  0
   -3.0330   -0.6957    2.1868 C   0  0  0  0  0  0  0  0  0  0  0  0
   -3.3898   -1.2614    3.0688 H   0  0  0  0  0  0  0  0  0  0  0  0
   -3.7322    0.1635    2.0932 H   0  0  0  0  0  0  0  0  0  0  0  0
   -1.6001   -0.1685    2.4585 C   0  0  0  0  0  0  0  0  0  0  0  0
   -1.3860   -0.3123    3.5403 H   0  0  0  0  0  0  0  0  0  0  0  0
   -0.8615   -0.7965    1.9257 H   0  0  0  0  0  0  0  0  0  0  0  0
   -1.3639    1.2969    2.1548 C   0  0  0  0  0  0  0  0  0  0  0  0
   -2.2982    2.2845    2.5257 C   0  0  0  0  0  0  0  0  0  0  0  0
   -3.2368    1.9746    3.0102 H   0  0  0  0  0  0  0  0  0  0  0  0
   -2.0647    3.6501    2.3121 C   0  0  0  0  0  0  0  0  0  0  0  0
   -2.8237    4.3874    2.6124 H   0  0  0  0  0  0  0  0  0  0  0  0
   -0.8585    4.0743    1.7343 C   0  0  0  0  0  0  0  0  0  0  0  0
   -0.6586    5.1437    1.5733 H   0  0  0  0  0  0  0  0  0  0  0  0
    0.1001    3.1216    1.3721 C   0  0  0  0  0  0  0  0  0  0  0  0
    1.0546    3.4286    0.9209 H   0  0  0  0  0  0  0  0  0  0  0  0
   -0.1543    1.7514    1.5753 C   0  0  0  0  0  0  0  0  0  0  0  0
    0.8277    0.8068    1.1378 N   0  0  0  0  0  2  0  0  0  0  0  0
    1.8766    0.5756    1.8758 C   0  0  0  0  0  3  0  0  0  0  0  0
    1.9359    1.0608    2.8685 H   0  0  0  0  0  0  0  0  0  0  0  0
    2.9755   -0.3067    1.4809 C   0  0  0  0  0  0  0  0  0  0  0  0
    3.9277   -0.7069    2.4391 C   0  0  0  0  0  0  0  0  0  0  0  0
    3.8687   -0.3424    3.4754 H   0  0  0  0  0  0  0  0  0  0  0  0
    4.9334   -1.5975    2.0363 C   0  0  0  0  0  0  0  0  0  0  0  0
    5.6884   -1.9494    2.7548 H   0  0  0  0  0  0  0  0  0  0  0  0
    4.9582   -2.0340    0.7083 C   0  0  0  0  0  0  0  0  0  0  0  0
    5.7321   -2.7356    0.3632 H   0  0  0  0  0  0  0  0  0  0  0  0
    3.9842   -1.5548   -0.2049 C   0  0  0  0  0  0  0  0  0  0  0  0
    4.0074   -1.9423   -1.6582 C   0  0  0  0  0  0  0  0  0  0  0  0
    4.3524   -2.9848   -1.7989 H   0  0  0  0  0  0  0  0  0  0  0  0
    4.7109   -1.2895   -2.2184 H   0  0  0  0  0  0  0  0  0  0  0  0
    3.0050   -1.8169   -2.1087 H   0  0  0  0  0  0  0  0  0  0  0  0
    3.0203   -0.7125    0.1924 N   0  0  0  0  0  0  0  0  0  0  0  0
  2  1  1  0  0  0  0
  2  3  1  1  0  0  0
  3  6  1  0  0  0  0
  3  4  1  0  0  0  0
  5  3  1  0  0  0  0
  7  2  1  0  0  0  0
  8  7  1  0  0  0  0
  9 11  1  0  0  0  0
  9  7  2  0  0  0  0
 10  9  1  0  0  0  0
 11 13  2  0  0  0  0
 12 11  1  0  0  0  0
 13  1  1  0  0  0  0
 13 14  1  0  0  0  0
 14 16  2  0  0  0  0
 15 14  1  0  0  0  0
 16 17  1  0  0  0  0
 17 26  1  0  0  0  0
 18 20  1  0  0  0  0
 18 17  2  0  0  0  0
 19 18  1  0  0  0  0
 20 22  2  0  0  0  0
 21 20  1  0  0  0  0
 22 23  1  0  0  0  0
 22 24  1  0  0  0  0
 24 25  1  0  0  0  0
 26 24  2  0  0  0  0
 26 27  1  0  0  0  0
 27 30  1  0  0  0  0
 27 28  1  0  0  0  0
 29 27  1  0  0  0  0
 30 31  1  0  0  0  0
 32 30  1  0  0  0  0
 33 30  1  0  0  0  0
 33 34  1  0  0  0  0
 34 35  1  0  0  0  0
 36 34  2  0  0  0  0
 36 37  1  0  0  0  0
 38 36  1  0  0  0  0
 39 38  1  0  0  0  0
 40 42  1  0  0  0  0
 40 38  2  0  0  0  0
 41 40  1  0  0  0  0
 42 33  2  0  0  0  0
 43 42  1  0  0  0  0
 43 44  1  0  0  0  0
 44 45  1  0  0  0  0
 46 44  1  0  0  0  0
 46 47  1  0  0  0  0
 47 48  1  0  0  0  0
 49 47  2  0  0  0  0
 49 50  1  0  0  0  0
 51 49  1  0  0  0  0
 52 51  1  0  0  0  0
 53 58  1  0  0  0  0
 53 51  2  0  0  0  0
 54 53  1  0  0  0  0
 55 54  1  0  0  0  0
 56 54  1  0  0  0  0
 57 54  1  0  0  0  0
 58 46  2  0  0  0  0
M  END
