2,6
q = -1.0, confidence = 0.002

 42 44  0  0  1  0  0  0  0  0999 V2000
   -3.0483   -1.5652   -0.8139 O   0  0  0  0  0  0  0  0  0  0  0  0
   -1.8988    0.4584   -0.4851 N   0  0  0  0  0  2  0  0  0  0  0  0
   -3.7002    1.7715   -0.0526 N   0  0  0  0  0  0  0  0  0  0  0  0
   -4.1404    2.5605    0.4204 H   0  0  0  0  0  0  0  0  0  0  0  0
   -1.6543    2.8598   -0.0921 N   0  0  0  0  0  0  0  0  0  0  0  0
    0.3847    1.8041   -0.6951 N   0  0  0  0  0  2  0  0  0  0  0  0
    1.3602    1.9480   -1.0059 H   0  0  0  0  0  0  0  0  0  0  0  0
    0.2611    4.1325   -0.3872 N   0  0  0  0  0  0  0  0  0  0  0  0
   -2.9985   -0.3680   -0.5265 C   0  0  0  0  0  0  0  0  0  0  0  0
   -4.2608    0.4344   -0.0709 C   0  0  0  0  0  0  0  0  0  0  0  0
   -2.3356    1.7508   -0.2001 C   0  0  2  0  0  3  0  0  0  0  0  0
   -0.3212    2.8801   -0.3995 C   0  0  0  0  0  0  0  0  0  0  0  0
   -0.5373    5.3437   -0.3766 C   0  0  0  0  0  0  0  0  0  0  0  0
   -0.5035    5.8634   -1.3624 H   0  0  0  0  0  0  0  0  0  0  0  0
   -0.1594    6.0488    0.3948 H   0  0  0  0  0  0  0  0  0  0  0  0
   -1.5818    5.0744   -0.1463 H   0  0  0  0  0  0  0  0  0  0  0  0
    1.6771    4.2884   -0.6519 C   0  0  0  0  0  0  0  0  0  0  0  0
    2.2648    3.4774   -0.1804 H   0  0  0  0  0  0  0  0  0  0  0  0
    2.0177    5.2545   -0.2309 H   0  0  0  0  0  0  0  0  0  0  0  0
    1.9167    4.2824   -1.7411 H   0  0  0  0  0  0  0  0  0  0  0  0
   -4.6561    0.0022    1.3526 C   0  0  0  0  0  0  0  0  0  0  0  0
   -3.6905   -0.5105    2.2438 C   0  0  0  0  0  0  0  0  0  0  0  0
   -2.6560   -0.6723    1.9031 H   0  0  0  0  0  0  0  0  0  0  0  0
   -4.0375   -0.8176    3.5673 C   0  0  0  0  0  0  0  0  0  0  0  0
   -3.2739   -1.2233    4.2483 H   0  0  0  0  0  0  0  0  0  0  0  0
   -5.3503   -0.6129    4.0211 C   0  0  0  0  0  0  0  0  0  0  0  0
   -5.6216   -0.8569    5.0595 H   0  0  0  0  0  0  0  0  0  0  0  0
   -6.3151   -0.0988    3.1412 C   0  0  0  0  0  0  0  0  0  0  0  0
   -7.3473    0.0644    3.4870 H   0  0  0  0  0  0  0  0  0  0  0  0
   -5.9709    0.2035    1.8148 C   0  0  0  0  0  0  0  0  0  0  0  0
   -6.7337    0.5926    1.1236 H   0  0  0  0  0  0  0  0  0  0  0  0
   -5.3799    0.2551   -1.0906 C   0  0  0  0  0  0  0  0  0  0  0  0
   -6.0244   -0.9945   -1.1972 C   0  0  0  0  0  0  0  0  0  0  0  0
   -5.7199   -1.8149   -0.5327 H   0  0  0  0  0  0  0  0  0  0  0  0
   -7.0330   -1.1905   -2.1496 C   0  0  0  0  0  0  0  0  0  0  0  0
   -7.5271   -2.1713   -2.2250 H   0  0  0  0  0  0  0  0  0  0  0  0
   -7.4135   -0.1433   -3.0057 C   0  0  0  0  0  0  0  0  0  0  0  0
   -8.2093   -0.2983   -3.7500 H   0  0  0  0  0  0  0  0  0  0  0  0
   -6.7703    1.0991   -2.9080 C   0  0  0  0  0  0  0  0  0  0  0  0
   -7.0564    1.9243   -3.5779 H   0  0  0  0  0  0  0  0  0  0  0  0
   -5.7548    1.2955   -1.9582 C   0  0  0  0  0  0  0  0  0  0  0  0
   -5.2353    2.2625   -1.8911 H   0  0  0  0  0  0  0  0  0  0  0  0
  1  9  2  0  0  0  0
  2 11  1  0  0  0  0
  3  4  1  0  0  0  0
  6 12  1  0  0  0  0
  7  6  1  0  0  0  0
  8 13  1  0  0  0  0
  9  2  1  0  0  0  0
  9 10  1  0  0  0  0
 10  3  1  0  0  0  0
 10 21  1  0  0  0  0
 11  5  1  6  0  0  0
 11  3  1  0  0  0  0
 12  8  1  0  0  0  0
 12  5  2  0  0  0  0
 13 16  1  0  0  0  0
 13 15  1  0  0  0  0
 14 13  1  0  0  0  0
 17  8  1  0  0  0  0
 17 19  1  0  0  0  0
 17 18  1  0  0  0  0
 20 17  1  0  0  0  0
 21 30  2  0  0  0  0
 21 22  1  0  0  0  0
 22 24  2  0  0  0  0
 23 22  1  0  0  0  0
 24 26  1  0  0  0  0
 24 25  1  0  0  0  0
 26 27  1  0  0  0  0
 28 29  1  0  0  0  0
 28 26  2  0  0  0  0
 30 28  1  0  0  0  0
 31 30  1  0  0  0  0
 32 10  1  0  0  0  0
 33 32  1  0  0  0  0
 33 34  1  0  0  0  0
 35 33  2  0  0  0  0
 36 35  1  0  0  0  0
 37 39  2  0  0  0  0
 37 35  1  0  0  0  0
 38 37  1  0  0  0  0
 39 41  1  0  0  0  0
 40 39  1  0  0  0  0
 41 42  1  0  0  0  0
 41 32  2  0  0  0  0
M  END
