1,2
q = -1.0, confidence = 0.0

 41 42  0  0  1  0  0  0  0  0999 V2000
   -0.4533    1.2516   -0.4468 N   0  0  0  0  0  2  0  0  0  0  0  0
   -0.5833   -0.9467   -0.6202 N   0  0  0  0  0  2  0  0  0  0  0  0
    0.1093    0.1494   -0.9601 C   0  0  2  0  0  3  0  0  0  0  0  0
    1.3589    0.1118   -1.8013 C   0  0  0  0  0  0  0  0  0  0  0  0
    0.1231    2.5866   -0.5059 C   0  0  2  0  0  0  0  0  0  0  0  0
   -0.1606    3.2806   -1.8473 C   0  0  0  0  0  0  0  0  0  0  0  0
    1.5873    2.6146   -0.0532 C   0  0  0  0  0  0  0  0  0  0  0  0
    1.9812    1.8142    1.0413 C   0  0  0  0  0  0  0  0  0  0  0  0
    3.3066    1.8092    1.4942 C   0  0  0  0  0  0  0  0  0  0  0  0
    4.2722    2.6110    0.8626 C   0  0  0  0  0  0  0  0  0  0  0  0
    3.8933    3.4170   -0.2200 C   0  0  0  0  0  0  0  0  0  0  0  0
    2.5631    3.4181   -0.6733 C   0  0  0  0  0  0  0  0  0  0  0  0
   -0.1647   -2.2747   -1.0391 C   0  0  2  0  0  0  0  0  0  0  0  0
   -1.2382   -3.3261   -0.7267 C   0  0  0  0  0  0  0  0  0  0  0  0
    1.1736   -2.6931   -0.4229 C   0  0  0  0  0  0  0  0  0  0  0  0
    2.1003   -3.4397   -1.1745 C   0  0  0  0  0  0  0  0  0  0  0  0
    3.3229   -3.8426   -0.6153 C   0  0  0  0  0  0  0  0  0  0  0  0
    3.6360   -3.5009    0.7097 C   0  0  0  0  0  0  0  0  0  0  0  0
    2.7160   -2.7594    1.4688 C   0  0  0  0  0  0  0  0  0  0  0  0
    1.4944   -2.3600    0.9070 C   0  0  0  0  0  0  0  0  0  0  0  0
    1.2412   -0.6088   -2.6346 H   0  0  0  0  0  0  0  0  0  0  0  0
    2.2099   -0.2406   -1.1844 H   0  0  0  0  0  0  0  0  0  0  0  0
    1.6199    1.1027   -2.2069 H   0  0  0  0  0  0  0  0  0  0  0  0
   -0.4303    3.1686    0.2623 H   0  0  0  0  0  0  0  0  0  0  0  0
    0.0998    4.3571   -1.8119 H   0  0  0  0  0  0  0  0  0  0  0  0
   -1.2417    3.2021   -2.0731 H   0  0  0  0  0  0  0  0  0  0  0  0
    0.3961    2.8193   -2.6881 H   0  0  0  0  0  0  0  0  0  0  0  0
    1.2320    1.1729    1.5293 H   0  0  0  0  0  0  0  0  0  0  0  0
    3.5891    1.1692    2.3442 H   0  0  0  0  0  0  0  0  0  0  0  0
    5.3155    2.6050    1.2129 H   0  0  0  0  0  0  0  0  0  0  0  0
    4.6397    4.0499   -0.7244 H   0  0  0  0  0  0  0  0  0  0  0  0
    2.2920    4.0529   -1.5291 H   0  0  0  0  0  0  0  0  0  0  0  0
   -0.0179   -2.2859   -2.1476 H   0  0  0  0  0  0  0  0  0  0  0  0
   -1.4463   -3.3590    0.3602 H   0  0  0  0  0  0  0  0  0  0  0  0
   -0.8897   -4.3290   -1.0403 H   0  0  0  0  0  0  0  0  0  0  0  0
   -2.1821   -3.1024   -1.2601 H   0  0  0  0  0  0  0  0  0  0  0  0
    1.8639   -3.6988   -2.2200 H   0  0  0  0  0  0  0  0  0  0  0  0
    4.0391   -4.4191   -1.2210 H   0  0  0  0  0  0  0  0  0  0  0  0
    4.5973   -3.8085    1.1486 H   0  0  0  0  0  0  0  0  0  0  0  0
    2.9521   -2.4874    2.5093 H   0  0  0  0  0  0  0  0  0  0  0  0
    0.7764   -1.7746    1.4990 H   0  0  0  0  0  0  0  0  0  0  0  0
  3  2  1  1  0  0  0
  3  1  1  0  0  0  0
  4 22  1  0  0  0  0
  4  3  1  0  0  0  0
  5  1  1  0  0  0  0
  5  7  1  0  0  0  0
  5 24  1  1  0  0  0
  6 25  1  0  0  0  0
  6  5  1  0  0  0  0
  7  8  1  0  0  0  0
  8  9  2  0  0  0  0
  8 28  1  0  0  0  0
  9 29  1  0  0  0  0
 10 30  1  0  0  0  0
 10  9  1  0  0  0  0
 11 10  2  0  0  0  0
 12 11  1  0  0  0  0
 12  7  2  0  0  0  0
 13 33  1  6  0  0  0
 13 14  1  0  0  0  0
 13  2  1  0  0  0  0
 13 15  1  0  0  0  0
 14 34  1  0  0  0  0
 15 20  1  0  0  0  0
 16 17  1  0  0  0  0
 16 15  2  0  0  0  0
 17 18  2  0  0  0  0
 18 39  1  0  0  0  0
 18 19  1  0  0  0  0
 19 40  1  0  0  0  0
 20 19  2  0  0  0  0
 20 41  1  0  0  0  0
 21  4  1  0  0  0  0
 23  4  1  0  0  0  0
 26  6  1  0  0  0  0
 27  6  1  0  0  0  0
 31 11  1  0  0  0  0
 32 12  1  0  0  0  0
 35 14  1  0  0  0  0
 36 14  1  0  0  0  0
 37 16  1  0  0  0  0
 38 17  1  0  0  0  0
M  END
