1,2
q = -1.0

 41 42  0  0  1  0  0  0  0  0999 V2000
    1.2305    0.4830   -0.4657 N   0  0  0  0  0  2  0  0  0  0  0  0
   -0.4889   -0.8308   -0.0357 N   0  0  0  0  0  2  0  0  0  0  0  0
    0.7418   -0.7601   -0.5578 C   0  0  2  0  0  3  0  0  0  0  0  0
    1.4627   -1.9449   -1.1549 C   0  0  0  0  0  0  0  0  0  0  0  0
    2.5508    0.9115   -0.8956 C   0  0  2  0  0  0  0  0  0  0  0  0
    2.6139    1.1327   -2.4160 C   0  0  0  0  0  0  0  0  0  0  0  0
    3.6825    0.0469   -0.3254 C   0  0  0  0  0  0  0  0  0  0  0  0
    3.5886   -0.4229    1.0027 C   0  0  0  0  0  0  0  0  0  0  0  0
    4.6077   -1.1992    1.5694 C   0  0  0  0  0  0  0  0  0  0  0  0
    5.7483   -1.5279    0.8175 C   0  0  0  0  0  0  0  0  0  0  0  0
    5.8562   -1.0661   -0.5016 C   0  0  0  0  0  0  0  0  0  0  0  0
    4.8332   -0.2855   -1.0665 C   0  0  0  0  0  0  0  0  0  0  0  0
   -1.2336   -2.0740    0.0991 C   0  0  1  0  0  0  0  0  0  0  0  0
   -0.9340   -2.7800    1.4301 C   0  0  0  0  0  0  0  0  0  0  0  0
   -2.7173   -1.8090   -0.1497 C   0  0  0  0  0  0  0  0  0  0  0  0
   -3.6735   -1.7627    0.8807 C   0  0  0  0  0  0  0  0  0  0  0  0
   -5.0153   -1.4492    0.6028 C   0  0  0  0  0  0  0  0  0  0  0  0
   -5.4225   -1.1854   -0.7131 C   0  0  0  0  0  0  0  0  0  0  0  0
   -4.4800   -1.2479   -1.7541 C   0  0  0  0  0  0  0  0  0  0  0  0
   -3.1439   -1.5579   -1.4697 C   0  0  0  0  0  0  0  0  0  0  0  0
    0.7899   -2.5057   -1.8339 H   0  0  0  0  0  0  0  0  0  0  0  0
    2.3664   -1.6448   -1.7095 H   0  0  0  0  0  0  0  0  0  0  0  0
    1.7821   -2.6401   -0.3523 H   0  0  0  0  0  0  0  0  0  0  0  0
    2.6870    1.9132   -0.4306 H   0  0  0  0  0  0  0  0  0  0  0  0
    2.5665    0.1784   -2.9792 H   0  0  0  0  0  0  0  0  0  0  0  0
    3.5393    1.6634   -2.7160 H   0  0  0  0  0  0  0  0  0  0  0  0
    1.7515    1.7521   -2.7290 H   0  0  0  0  0  0  0  0  0  0  0  0
    2.6922   -0.1764    1.5912 H   0  0  0  0  0  0  0  0  0  0  0  0
    4.5111   -1.5513    2.6081 H   0  0  0  0  0  0  0  0  0  0  0  0
    6.5484   -2.1410    1.2594 H   0  0  0  0  0  0  0  0  0  0  0  0
    6.7440   -1.3158   -1.1029 H   0  0  0  0  0  0  0  0  0  0  0  0
    4.9405    0.0621   -2.1039 H   0  0  0  0  0  0  0  0  0  0  0  0
   -0.9180   -2.7683   -0.7146 H   0  0  0  0  0  0  0  0  0  0  0  0
    0.1469   -3.0128    1.4993 H   0  0  0  0  0  0  0  0  0  0  0  0
   -1.4990   -3.7303    1.5159 H   0  0  0  0  0  0  0  0  0  0  0  0
   -1.1875   -2.1357    2.2929 H   0  0  0  0  0  0  0  0  0  0  0  0
   -3.3728   -1.9653    1.9184 H   0  0  0  0  0  0  0  0  0  0  0  0
   -5.7467   -1.4099    1.4246 H   0  0  0  0  0  0  0  0  0  0  0  0
   -6.4725   -0.9374   -0.9302 H   0  0  0  0  0  0  0  0  0  0  0  0
   -4.7904   -1.0521   -2.7919 H   0  0  0  0  0  0  0  0  0  0  0  0
   -2.4044   -1.5997   -2.2860 H   0  0  0  0  0  0  0  0  0  0  0  0
  2 13  1  0  0  0  0
  3  1  1  1  0  0  0
  3  2  1  0  0  0  0
  4  3  1  0  0  0  0
  4 23  1  0  0  0  0
  5  1  1  0  0  0  0
  5 24  1  1  0  0  0
  5  7  1  0  0  0  0
  6  5  1  0  0  0  0
  7  8  1  0  0  0  0
  8  9  2  0  0  0  0
  8 28  1  0  0  0  0
  9 29  1  0  0  0  0
 10 30  1  0  0  0  0
 10  9  1  0  0  0  0
 11 10  2  0  0  0  0
 12 11  1  0  0  0  0
 12  7  2  0  0  0  0
 13 33  1  6  0  0  0
 13 14  1  0  0  0  0
 14 34  1  0  0  0  0
 14 35  1  0  0  0  0
 14 36  1  0  0  0  0
 15 13  1  0  0  0  0
 15 16  1  0  0  0  0
 16 37  1  0  0  0  0
 17 16  2  0  0  0  0
 17 38  1  0  0  0  0
 18 17  1  0  0  0  0
 19 20  1  0  0  0  0
 19 18  2  0  0  0  0
 20 15  2  0  0  0  0
 21  4  1  0  0  0  0
 22  4  1  0  0  0  0
 25  6  1  0  0  0  0
 26  6  1  0  0  0  0
 27  6  1  0  0  0  0
 31 11  1  0  0  0  0
 32 12  1  0  0  0  0
 39 18  1  0  0  0  0
 40 19  1  0  0  0  0
 41 20  1  0  0  0  0
M  END
