1,18
q = 0.0, confidence = 0.992

 44 47  0  0  1  0  0  0  0  0999 V2000
    0.3584   -0.6528   -0.2628 N   0  0  0  0  0  2  0  0  0  0  0  0
   -0.4769   -1.6862   -0.3513 C   0  0  0  0  0  0  0  0  0  0  0  0
    0.0113   -2.6769   -0.3971 H   0  0  0  0  0  0  0  0  0  0  0  0
   -1.8795   -1.5609   -0.3799 C   0  0  0  0  0  0  0  0  0  0  0  0
   -2.4970   -2.4641   -0.4543 H   0  0  0  0  0  0  0  0  0  0  0  0
   -2.4310   -0.2815   -0.2868 C   0  0  0  0  0  0  0  0  0  0  0  0
   -1.5515    0.8583   -0.2240 C   0  0  0  0  0  0  0  0  0  0  0  0
   -2.0656    2.1807   -0.1682 C   0  0  0  0  0  0  0  0  0  0  0  0
   -3.1551    2.3208   -0.1523 H   0  0  0  0  0  0  0  0  0  0  0  0
   -1.1959    3.2626   -0.1480 C   0  0  0  0  0  0  0  0  0  0  0  0
   -1.5866    4.2895   -0.1065 H   0  0  0  0  0  0  0  0  0  0  0  0
    0.1948    3.0433   -0.2046 C   0  0  0  0  0  0  0  0  0  0  0  0
    0.8747    3.9094   -0.2250 H   0  0  0  0  0  0  0  0  0  0  0  0
    0.7582    1.7567   -0.2422 C   0  0  0  0  0  0  0  0  0  0  0  0
   -0.1348    0.6199   -0.2275 C   0  0  2  0  0  3  0  0  0  0  0  0
    2.2139    1.7143   -0.3647 C   0  0  0  0  0  3  0  0  0  0  0  0
    2.6719    2.7115   -0.5412 H   0  0  0  0  0  0  0  0  0  0  0  0
    2.9856    0.6729   -0.3177 N   0  0  0  0  0  2  0  0  0  0  0  0
    4.3884    0.7950   -0.4285 C   0  0  0  0  0  0  0  0  0  0  0  0
    5.0883   -0.3043   -0.9742 C   0  0  0  0  0  0  0  0  0  0  0  0
    4.5223   -1.2049   -1.2646 H   0  0  0  0  0  0  0  0  0  0  0  0
    6.4783   -0.2378   -1.1255 C   0  0  0  0  0  0  0  0  0  0  0  0
    7.0159   -1.0951   -1.5577 H   0  0  0  0  0  0  0  0  0  0  0  0
    7.1843    0.9046   -0.7145 C   0  0  0  0  0  0  0  0  0  0  0  0
    8.2787    0.9469   -0.8211 H   0  0  0  0  0  0  0  0  0  0  0  0
    6.4923    1.9837   -0.1378 C   0  0  0  0  0  0  0  0  0  0  0  0
    7.0455    2.8648    0.2212 H   0  0  0  0  0  0  0  0  0  0  0  0
    5.1012    1.9352    0.0079 C   0  0  0  0  0  0  0  0  0  0  0  0
    4.5715    2.7597    0.5070 H   0  0  0  0  0  0  0  0  0  0  0  0
   -3.7438   -0.0029   -0.2617 O   0  0  0  0  0  0  0  0  0  0  0  0
   -4.6927   -1.0869   -0.2848 C   0  0  0  0  0  0  0  0  0  0  0  0
   -4.4662   -1.7738    0.5618 H   0  0  0  0  0  0  0  0  0  0  0  0
   -4.5836   -1.6587   -1.2318 H   0  0  0  0  0  0  0  0  0  0  0  0
   -6.0768   -0.5107   -0.1586 C   0  0  0  0  0  0  0  0  0  0  0  0
   -6.4291    0.2301    0.9879 C   0  0  0  0  0  0  0  0  0  0  0  0
   -5.6844    0.3853    1.7841 H   0  0  0  0  0  0  0  0  0  0  0  0
   -7.7150    0.7718    1.1132 C   0  0  0  0  0  0  0  0  0  0  0  0
   -7.9808    1.3495    2.0113 H   0  0  0  0  0  0  0  0  0  0  0  0
   -8.6657    0.5720    0.0978 C   0  0  0  0  0  0  0  0  0  0  0  0
   -9.6771    0.9938    0.1993 H   0  0  0  0  0  0  0  0  0  0  0  0
   -8.3231   -0.1658   -1.0449 C   0  0  0  0  0  0  0  0  0  0  0  0
   -9.0629   -0.3226   -1.8443 H   0  0  0  0  0  0  0  0  0  0  0  0
   -7.0312   -0.6993   -1.1743 C   0  0  0  0  0  0  0  0  0  0  0  0
   -6.7596   -1.2703   -2.0763 H   0  0  0  0  0  0  0  0  0  0  0  0
  2  1  1  0  0  0  0
  3  2  1  0  0  0  0
  4  2  2  0  0  0  0
  4  6  1  0  0  0  0
  5  4  1  0  0  0  0
  6 30  1  0  0  0  0
  6  7  2  0  0  0  0
  7  8  1  0  0  0  0
  8  9  1  0  0  0  0
  8 10  2  0  0  0  0
 10 11  1  0  0  0  0
 12 10  1  0  0  0  0
 13 12  1  0  0  0  0
 14 15  1  0  0  0  0
 14 12  2  0  0  0  0
 15  1  1  6  0  0  0
 15  7  1  0  0  0  0
 16 18  1  0  0  0  0
 16 14  1  0  0  0  0
 17 16  1  0  0  0  0
 19 18  1  0  0  0  0
 19 28  1  0  0  0  0
 20 19  2  0  0  0  0
 21 20  1  0  0  0  0
 22 20  1  0  0  0  0
 22 24  2  0  0  0  0
 23 22  1  0  0  0  0
 24 26  1  0  0  0  0
 25 24  1  0  0  0  0
 26 28  2  0  0  0  0
 26 27  1  0  0  0  0
 28 29  1  0  0  0  0
 31 30  1  0  0  0  0
 31 34  1  0  0  0  0
 31 32  1  0  0  0  0
 33 31  1  0  0  0  0
 34 35  1  0  0  0  0
 35 37  2  0  0  0  0
 35 36  1  0  0  0  0
 37 38  1  0  0  0  0
 39 40  1  0  0  0  0
 39 37  1  0  0  0  0
 41 39  2  0  0  0  0
 42 41  1  0  0  0  0
 43 41  1  0  0  0  0
 43 34  2  0  0  0  0
 44 43  1  0  0  0  0
M  END
