1,3
q = 0.0, confidence = 1.0

 30 32  0  0  1  0  0  0  0  0999 V2000
    1.4651    1.1033    0.0455 N   0  0  0  0  0  2  0  0  0  0  0  0
    0.5453    2.0930    0.1763 N   0  0  0  0  0  0  0  0  0  0  0  0
   -1.0546    0.4179    0.2396 N   0  0  0  0  0  2  0  0  0  0  0  0
    3.8924    0.7810    0.1932 C   0  0  0  0  0  0  0  0  0  0  0  0
    3.9146    0.1392    1.0987 H   0  0  0  0  0  0  0  0  0  0  0  0
    4.8133    1.3901    0.1467 H   0  0  0  0  0  0  0  0  0  0  0  0
    3.8378    0.0884   -0.6709 H   0  0  0  0  0  0  0  0  0  0  0  0
    2.6737    1.6392    0.2336 C   0  0  2  0  0  3  0  0  0  0  0  0
    2.5253    3.0309    0.4937 C   0  0  0  0  0  0  0  0  0  0  0  0
    3.3202    3.7557    0.6993 H   0  0  0  0  0  0  0  0  0  0  0  0
    1.1605    3.3032    0.4602 C   0  0  0  0  0  0  0  0  0  0  0  0
    0.4650    4.5986    0.7220 C   0  0  0  0  0  0  0  0  0  0  0  0
    1.1944    5.3162    1.1403 H   0  0  0  0  0  0  0  0  0  0  0  0
   -0.3633    4.4907    1.4507 H   0  0  0  0  0  0  0  0  0  0  0  0
    0.0486    5.0541   -0.2011 H   0  0  0  0  0  0  0  0  0  0  0  0
   -0.8195    1.7140    0.0824 C   0  0  0  0  0  0  0  0  0  0  0  0
   -1.8418    2.6632   -0.2030 C   0  0  0  0  0  0  0  0  0  0  0  0
   -1.6051    3.7164   -0.3825 H   0  0  0  0  0  0  0  0  0  0  0  0
   -3.1441    2.2054   -0.2958 C   0  0  0  0  0  0  0  0  0  0  0  0
   -3.9597    2.9074   -0.5287 H   0  0  0  0  0  0  0  0  0  0  0  0
   -3.4406    0.8271   -0.1147 C   0  0  0  0  0  0  0  0  0  0  0  0
   -4.7568    0.2927   -0.1979 C   0  0  0  0  0  3  0  0  0  0  0  0
   -5.5968    0.9742   -0.4034 H   0  0  0  0  0  0  0  0  0  0  0  0
   -4.9680   -1.0669   -0.0234 C   0  0  0  0  0  0  0  0  0  0  0  0
   -5.9860   -1.4791   -0.0899 H   0  0  0  0  0  0  0  0  0  0  0  0
   -3.8730   -1.9333    0.2436 C   0  0  0  0  0  0  0  0  0  0  0  0
   -4.0575   -3.0090    0.3850 H   0  0  0  0  0  0  0  0  0  0  0  0
   -2.5751   -1.4499    0.3307 C   0  0  0  0  0  0  0  0  0  0  0  0
   -1.7198   -2.1067    0.5559 H   0  0  0  0  0  0  0  0  0  0  0  0
   -2.3338   -0.0586    0.1493 C   0  0  0  0  0  0  0  0  0  0  0  0
  1  2  1  0  0  0  0
  1  8  1  0  0  0  0
  2 11  1  0  0  0  0
  4  5  1  0  0  0  0
  6  4  1  0  0  0  0
  7  4  1  0  0  0  0
  8  4  1  1  0  0  0
  8  9  1  0  0  0  0
  9 10  1  0  0  0  0
 11  9  2  0  0  0  0
 11 12  1  0  0  0  0
 12 13  1  0  0  0  0
 12 14  1  0  0  0  0
 15 12  1  0  0  0  0
 16  2  1  0  0  0  0
 16  3  1  0  0  0  0
 17 16  2  0  0  0  0
 18 17  1  0  0  0  0
 19 17  1  0  0  0  0
 19 21  2  0  0  0  0
 20 19  1  0  0  0  0
 21 30  1  0  0  0  0
 22 21  1  0  0  0  0
 22 24  1  0  0  0  0
 23 22  1  0  0  0  0
 24 26  2  0  0  0  0
 25 24  1  0  0  0  0
 26 28  1  0  0  0  0
 26 27  1  0  0  0  0
 28 29  1  0  0  0  0
 30  3  1  0  0  0  0
 30 28  2  0  0  0  0
M  END
