2,4
q = -1.0

 22 22  0  0  0  0  0  0  0  0999 V2000
    0.5794    2.6697   -0.4634 O   0  0  0  0  0  1  0  0  0  0  0  0
   -1.8412   -0.0414    0.0648 N   0  0  0  0  0  2  0  0  0  0  0  0
   -2.4174   -0.8648    0.2679 H   0  0  0  0  0  0  0  0  0  0  0  0
   -0.3134    1.8421   -0.2920 N   0  0  0  0  0  2  0  0  0  0  0  0
   -1.5745    2.2401   -0.3227 N   0  0  0  0  0  0  0  0  0  0  0  0
   -3.7504    1.4010   -0.1102 N   0  0  0  0  0  0  0  0  0  0  0  0
   -2.3949    1.1480   -0.1157 C   0  0  0  0  0  0  0  0  0  0  0  0
   -4.7063    0.3499   -0.0753 C   0  0  0  0  0  0  0  0  0  0  0  0
   -4.2262    2.7799    0.0127 C   0  0  0  0  0  0  0  0  0  0  0  0
   -4.4464    3.0475    1.0689 H   0  0  0  0  0  0  0  0  0  0  0  0
   -5.1471    2.9044   -0.5881 H   0  0  0  0  0  0  0  0  0  0  0  0
   -3.4329    3.4524   -0.3559 H   0  0  0  0  0  0  0  0  0  0  0  0
   -6.8120   -0.5593    0.7558 C   0  0  0  0  0  0  0  0  0  0  0  0
   -7.6938   -0.4597    1.4069 H   0  0  0  0  0  0  0  0  0  0  0  0
   -5.8484    0.4591    0.7462 C   0  0  0  0  0  0  0  0  0  0  0  0
   -5.9790    1.3391    1.3908 H   0  0  0  0  0  0  0  0  0  0  0  0
   -6.6540   -1.6991   -0.0461 C   0  0  0  0  0  0  0  0  0  0  0  0
   -7.4092   -2.4986   -0.0315 H   0  0  0  0  0  0  0  0  0  0  0  0
   -4.5616   -0.7887   -0.9013 C   0  0  0  0  0  0  0  0  0  0  0  0
   -3.6990   -0.8677   -1.5775 H   0  0  0  0  0  0  0  0  0  0  0  0
   -5.5249   -1.8047   -0.8746 C   0  0  0  0  0  0  0  0  0  0  0  0
   -5.3956   -2.6838   -1.5239 H   0  0  0  0  0  0  0  0  0  0  0  0
  1  4  1  0  0  0  0
  2  3  1  0  0  0  0
  5  4  1  0  0  0  0
  5  7  2  0  0  0  0
  6  8  1  0  0  0  0
  6  9  1  0  0  0  0
  7  6  1  0  0  0  0
  7  2  1  0  0  0  0
  8 15  1  0  0  0  0
  9 10  1  0  0  0  0
 11  9  1  0  0  0  0
 12  9  1  0  0  0  0
 13 14  1  0  0  0  0
 15 13  2  0  0  0  0
 15 16  1  0  0  0  0
 17 18  1  0  0  0  0
 17 13  1  0  0  0  0
 19 21  1  0  0  0  0
 19  8  2  0  0  0  0
 20 19  1  0  0  0  0
 21 17  2  0  0  0  0
 22 21  1  0  0  0  0
M  END
