1,2
q = -1.0

 22 22  0  0  1  0  0  0  0  0999 V2000
    1.5240    0.9800   -0.0483 N   0  0  0  0  0  2  0  0  0  0  0  0
   -1.0806    0.6496    0.4892 N   0  0  0  0  0  2  0  0  0  0  0  0
   -2.4691    0.4324    0.6444 C   0  0  2  0  0  0  0  0  0  0  0  0
   -2.6754   -0.6501    0.6255 H   0  0  0  0  0  0  0  0  0  0  0  0
   -3.3187    1.0803   -0.6852 C   0  0  0  0  0  0  0  0  0  0  0  0
   -4.2828    0.3579   -0.9710 O   0  5  0  0  0  0  0  0  0  0  0  0
   -2.8803    2.1780   -1.0608 O   0  0  0  0  0  0  0  0  0  0  0  0
   -3.1262    1.0878    1.8621 C   0  0  0  0  0  0  0  0  0  0  0  0
   -2.6339    0.7600    2.8030 H   0  0  0  0  0  0  0  0  0  0  0  0
   -4.1919    0.7888    1.8915 H   0  0  0  0  0  0  0  0  0  0  0  0
   -3.0932    2.1942    1.8093 H   0  0  0  0  0  0  0  0  0  0  0  0
    2.8356    1.1274   -0.3301 C   0  0  0  0  0  3  0  0  0  0  0  0
    3.3796    0.1965   -0.5527 H   0  0  0  0  0  0  0  0  0  0  0  0
    3.4810    2.3674   -0.3450 C   0  0  0  0  0  0  0  0  0  0  0  0
    4.5529    2.4212   -0.5825 H   0  0  0  0  0  0  0  0  0  0  0  0
    2.7285    3.5250   -0.0537 C   0  0  0  0  0  0  0  0  0  0  0  0
    3.2015    4.5191   -0.0613 H   0  0  0  0  0  0  0  0  0  0  0  0
    1.3739    3.3878    0.2410 C   0  0  0  0  0  0  0  0  0  0  0  0
    0.7444    4.2604    0.4694 H   0  0  0  0  0  0  0  0  0  0  0  0
    0.7781    2.1019    0.2413 C   0  0  0  0  0  0  0  0  0  0  0  0
   -0.6095    1.8823    0.5380 C   0  0  0  0  0  3  0  0  0  0  0  0
   -1.2618    2.7422    0.7521 H   0  0  0  0  0  0  0  0  0  0  0  0
  1 20  1  0  0  0  0
  2 21  1  0  0  0  0
  2  3  1  0  0  0  0
  3  4  1  1  0  0  0
  3  8  1  0  0  0  0
  5  3  1  0  0  0  0
  6  5  1  0  0  0  0
  7  5  2  0  0  0  0
  8 10  1  0  0  0  0
  8  9  1  0  0  0  0
 11  8  1  0  0  0  0
 12  1  1  0  0  0  0
 13 12  1  0  0  0  0
 14 12  1  0  0  0  0
 14 16  2  0  0  0  0
 15 14  1  0  0  0  0
 16 18  1  0  0  0  0
 17 16  1  0  0  0  0
 18 20  2  0  0  0  0
 18 19  1  0  0  0  0
 20 21  1  0  0  0  0
 21 22  1  0  0  0  0
M  CHG  1   6  -1
M  END
