1,2
q = -1.0

 22 22  0  0  0  0  0  0  0  0999 V2000
    1.7137    1.0350    0.1120 N   0  0  0  0  0  2  0  0  0  0  0  0
   -0.8348    0.7259   -0.6160 N   0  0  0  0  0  2  0  0  0  0  0  0
   -4.5874    0.8983    0.1443 C   0  0  0  0  0  0  0  0  0  0  0  0
   -5.3257    0.5154    1.0832 O   0  5  0  0  0  0  0  0  0  0  0  0
   -4.8145    1.5761   -0.8821 O   0  0  0  0  0  0  0  0  0  0  0  0
   -3.0669    0.4448    0.3847 C   0  0  0  0  0  0  0  0  0  0  0  0
   -2.6493    1.1397    1.1449 H   0  0  0  0  0  0  0  0  0  0  0  0
   -3.0512   -0.5686    0.8301 H   0  0  0  0  0  0  0  0  0  0  0  0
   -2.2436    0.5424   -0.9071 C   0  0  0  0  0  0  0  0  0  0  0  0
   -2.3639   -0.3835   -1.5029 H   0  0  0  0  0  0  0  0  0  0  0  0
   -2.6701    1.3986   -1.4768 H   0  0  0  0  0  0  0  0  0  0  0  0
    3.0064    1.1679    0.4794 C   0  0  0  0  0  3  0  0  0  0  0  0
    3.5257    0.2311    0.7333 H   0  0  0  0  0  0  0  0  0  0  0  0
    3.6625    2.4007    0.5383 C   0  0  0  0  0  0  0  0  0  0  0  0
    4.7172    2.4412    0.8453 H   0  0  0  0  0  0  0  0  0  0  0  0
    2.9469    3.5694    0.1986 C   0  0  0  0  0  0  0  0  0  0  0  0
    3.4324    4.5565    0.2350 H   0  0  0  0  0  0  0  0  0  0  0  0
    1.6118    3.4495   -0.1809 C   0  0  0  0  0  0  0  0  0  0  0  0
    1.0112    4.3305   -0.4518 H   0  0  0  0  0  0  0  0  0  0  0  0
    1.0039    2.1711   -0.2178 C   0  0  0  0  0  0  0  0  0  0  0  0
   -0.3644    1.9541   -0.6009 C   0  0  0  0  0  3  0  0  0  0  0  0
   -1.0074    2.8120   -0.8745 H   0  0  0  0  0  0  0  0  0  0  0  0
  1 12  1  0  0  0  0
  2 21  1  0  0  0  0
  3  6  1  0  0  0  0
  3  4  1  0  0  0  0
  5  3  2  0  0  0  0
  6  8  1  0  0  0  0
  6  7  1  0  0  0  0
  9  2  1  0  0  0  0
  9  6  1  0  0  0  0
 10  9  1  0  0  0  0
 11  9  1  0  0  0  0
 12 14  1  0  0  0  0
 12 13  1  0  0  0  0
 14 15  1  0  0  0  0
 16 17  1  0  0  0  0
 16 14  2  0  0  0  0
 18 16  1  0  0  0  0
 19 18  1  0  0  0  0
 20 18  2  0  0  0  0
 20  1  1  0  0  0  0
 21 20  1  0  0  0  0
 22 21  1  0  0  0  0
M  CHG  1   4  -1
M  END
