1,2
q = 0.0, confidence = 1.0

 26 27  0  0  0  0  0  0  0  0999 V2000
    2.2398    0.6452    0.4501 N   0  0  0  0  0  2  0  0  0  0  0  0
   -0.3388    0.7821    0.4086 N   0  0  0  0  0  2  0  0  0  0  0  0
   -5.9876    0.5410    0.0283 C   0  0  0  0  0  0  0  0  0  0  0  0
   -7.2097    0.4869   -0.0517 C   0  0  0  0  0  0  0  0  0  0  0  0
   -8.2871    0.4365   -0.1236 H   0  0  0  0  0  0  0  0  0  0  0  0
    3.5794    0.5141    0.5144 C   0  0  0  0  0  3  0  0  0  0  0  0
    3.9690   -0.5118    0.5811 H   0  0  0  0  0  0  0  0  0  0  0  0
    4.4474    1.6118    0.4812 C   0  0  0  0  0  0  0  0  0  0  0  0
    5.5321    1.4415    0.5315 H   0  0  0  0  0  0  0  0  0  0  0  0
    3.9156    2.9083    0.3787 C   0  0  0  0  0  0  0  0  0  0  0  0
    4.5759    3.7871    0.3470 H   0  0  0  0  0  0  0  0  0  0  0  0
    2.5278    3.0560    0.3167 C   0  0  0  0  0  0  0  0  0  0  0  0
    2.0578    4.0467    0.2360 H   0  0  0  0  0  0  0  0  0  0  0  0
    1.7151    1.9070    0.3525 C   0  0  0  0  0  0  0  0  0  0  0  0
    0.2723    1.9343    0.3185 C   0  0  0  0  0  3  0  0  0  0  0  0
   -0.2841    2.8860    0.2508 H   0  0  0  0  0  0  0  0  0  0  0  0
   -1.7498    0.7326    0.3182 C   0  0  0  0  0  0  0  0  0  0  0  0
   -2.4934    0.0416    1.2970 C   0  0  0  0  0  0  0  0  0  0  0  0
   -1.9684   -0.4378    2.1352 H   0  0  0  0  0  0  0  0  0  0  0  0
   -3.8841   -0.0071    1.2081 C   0  0  0  0  0  0  0  0  0  0  0  0
   -4.4671   -0.5294    1.9797 H   0  0  0  0  0  0  0  0  0  0  0  0
   -4.5644    0.6047    0.1231 C   0  0  0  0  0  0  0  0  0  0  0  0
   -3.8021    1.2690   -0.8693 C   0  0  0  0  0  0  0  0  0  0  0  0
   -4.3172    1.7213   -1.7286 H   0  0  0  0  0  0  0  0  0  0  0  0
   -2.4105    1.3375   -0.7716 C   0  0  0  0  0  0  0  0  0  0  0  0
   -1.8119    1.8075   -1.5650 H   0  0  0  0  0  0  0  0  0  0  0  0
  1  6  1  0  0  0  0
  3 22  1  0  0  0  0
  4  3  3  0  0  0  0
  5  4  1  0  0  0  0
  6  7  1  0  0  0  0
  8  6  1  0  0  0  0
  8  9  1  0  0  0  0
 10  8  2  0  0  0  0
 11 10  1  0  0  0  0
 12 14  2  0  0  0  0
 12 10  1  0  0  0  0
 13 12  1  0  0  0  0
 14  1  1  0  0  0  0
 15 14  1  0  0  0  0
 15  2  1  0  0  0  0
 16 15  1  0  0  0  0
 17  2  1  0  0  0  0
 17 18  1  0  0  0  0
 18 19  1  0  0  0  0
 20 18  2  0  0  0  0
 20 21  1  0  0  0  0
 22 20  1  0  0  0  0
 23 25  1  0  0  0  0
 23 22  2  0  0  0  0
 24 23  1  0  0  0  0
 25 17  2  0  0  0  0
 26 25  1  0  0  0  0
M  END
