1,2
q = -1.0

 42 41  0  0  1  0  0  0  0  0999 V2000
   -1.1857   -0.3343    0.5914 N   0  0  0  0  0  2  0  0  0  0  0  0
    0.1165    1.7716   -0.7773 N   0  0  0  0  0  2  0  0  0  0  0  0
   -1.7636   -0.6824    1.8424 N   0  0  0  0  0  0  0  0  0  0  0  0
   -7.0903    0.1574   -0.0907 C   0  0  0  0  0  0  0  0  0  0  0  0
   -8.0562   -0.3866   -0.0985 H   0  0  0  0  0  0  0  0  0  0  0  0
   -7.1233    0.9092   -0.9070 H   0  0  0  0  0  0  0  0  0  0  0  0
   -7.0285    0.7154    0.8671 H   0  0  0  0  0  0  0  0  0  0  0  0
   -5.9034   -0.7917   -0.2572 C   0  0  0  0  0  0  0  0  0  0  0  0
   -6.0085   -1.3640   -1.2060 H   0  0  0  0  0  0  0  0  0  0  0  0
   -5.9137   -1.5539    0.5532 H   0  0  0  0  0  0  0  0  0  0  0  0
   -4.5500   -0.0759   -0.2521 C   0  0  0  0  0  0  0  0  0  0  0  0
   -4.4373    0.4908    0.6974 H   0  0  0  0  0  0  0  0  0  0  0  0
   -4.5240    0.6841   -1.0644 H   0  0  0  0  0  0  0  0  0  0  0  0
   -3.3600   -1.0366   -0.4115 C   0  0  0  0  0  0  0  0  0  0  0  0
   -3.3525   -1.7534    0.4328 H   0  0  0  0  0  0  0  0  0  0  0  0
   -3.4792   -1.6029   -1.3608 H   0  0  0  0  0  0  0  0  0  0  0  0
   -2.0116   -0.3568   -0.4598 C   0  0  1  0  0  3  0  0  0  0  0  0
   -1.6481    0.3316   -1.6588 C   0  0  0  0  0  3  0  0  0  0  0  0
   -2.2673    0.1397   -2.5467 H   0  0  0  0  0  0  0  0  0  0  0  0
   -0.7840    1.4370   -1.7166 C   0  0  0  0  0  3  0  0  0  0  0  0
   -0.9129    2.1049   -2.5955 H   0  0  0  0  0  0  0  0  0  0  0  0
    0.4539    3.2153   -0.6272 C   0  0  0  0  0  0  0  0  0  0  0  0
    1.4144    3.3716    0.5581 C   0  0  0  0  0  0  0  0  0  0  0  0
    2.3536    2.8101    0.3989 H   0  0  0  0  0  0  0  0  0  0  0  0
    0.9506    2.9674    1.4778 H   0  0  0  0  0  0  0  0  0  0  0  0
    1.6608    4.4409    0.7144 H   0  0  0  0  0  0  0  0  0  0  0  0
   -0.8438    3.9895   -0.3116 C   0  0  0  0  0  0  0  0  0  0  0  0
   -1.3340    3.5560    0.5830 H   0  0  0  0  0  0  0  0  0  0  0  0
   -1.5630    3.9379   -1.1534 H   0  0  0  0  0  0  0  0  0  0  0  0
   -0.6263    5.0579   -0.1107 H   0  0  0  0  0  0  0  0  0  0  0  0
    1.1032    3.7813   -1.9062 C   0  0  0  0  0  0  0  0  0  0  0  0
    2.0525    3.2589   -2.1373 H   0  0  0  0  0  0  0  0  0  0  0  0
    1.3315    4.8580   -1.7766 H   0  0  0  0  0  0  0  0  0  0  0  0
    0.4382    3.6897   -2.7884 H   0  0  0  0  0  0  0  0  0  0  0  0
   -0.8885   -1.5630    2.6150 C   0  0  0  0  0  0  0  0  0  0  0  0
   -0.5960   -2.4292    1.9927 H   0  0  0  0  0  0  0  0  0  0  0  0
   -1.4636   -1.9338    3.4878 H   0  0  0  0  0  0  0  0  0  0  0  0
    0.0350   -1.0524    2.9757 H   0  0  0  0  0  0  0  0  0  0  0  0
   -2.0786    0.5387    2.5790 C   0  0  0  0  0  0  0  0  0  0  0  0
   -2.7671    1.1742    1.9884 H   0  0  0  0  0  0  0  0  0  0  0  0
   -1.1611    1.1346    2.8153 H   0  0  0  0  0  0  0  0  0  0  0  0
   -2.5827    0.2661    3.5279 H   0  0  0  0  0  0  0  0  0  0  0  0
  1  3  1  0  0  0  0
  2 22  1  0  0  0  0
  3 39  1  0  0  0  0
  3 35  1  0  0  0  0
  4  7  1  0  0  0  0
  5  4  1  0  0  0  0
  6  4  1  0  0  0  0
  8 11  1  0  0  0  0
  8  4  1  0  0  0  0
  8 10  1  0  0  0  0
  9  8  1  0  0  0  0
 11 12  1  0  0  0  0
 13 11  1  0  0  0  0
 14 11  1  0  0  0  0
 14 15  1  0  0  0  0
 16 14  1  0  0  0  0
 17 18  1  1  0  0  0
 17 14  1  0  0  0  0
 17  1  1  0  0  0  0
 19 18  1  0  0  0  0
 20 18  1  0  0  0  0
 20  2  1  0  0  0  0
 21 20  1  0  0  0  0
 22 27  1  0  0  0  0
 22 23  1  0  0  0  0
 23 26  1  0  0  0  0
 23 25  1  0  0  0  0
 24 23  1  0  0  0  0
 27 30  1  0  0  0  0
 27 28  1  0  0  0  0
 29 27  1  0  0  0  0
 31 33  1  0  0  0  0
 31 22  1  0  0  0  0
 32 31  1  0  0  0  0
 34 31  1  0  0  0  0
 35 38  1  0  0  0  0
 35 37  1  0  0  0  0
 36 35  1  0  0  0  0
 39 41  1  0  0  0  0
 39 42  1  0  0  0  0
 40 39  1  0  0  0  0
M  END
