1,11
q = -1.0, confidence = 0.002

 28 29  0  0  1  0  0  0  0  0999 V2000
    1.8702    2.3361    0.0342 N   0  0  0  0  0  2  0  0  0  0  0  0
    0.5441    2.5921   -0.1511 C   0  0  1  0  0  3  0  0  0  0  0  0
    0.0786    3.9250   -0.2727 C   0  0  0  0  0  0  0  0  0  0  0  0
   -0.9853    4.1298   -0.4456 H   0  0  0  0  0  0  0  0  0  0  0  0
    1.0272    4.9440   -0.1723 C   0  0  0  0  0  0  0  0  0  0  0  0
    0.7020    5.9921   -0.2644 H   0  0  0  0  0  0  0  0  0  0  0  0
    2.3942    4.6540    0.0389 C   0  0  0  0  0  0  0  0  0  0  0  0
    3.1430    5.4528    0.1201 H   0  0  0  0  0  0  0  0  0  0  0  0
    2.7809    3.3152    0.1300 C   0  0  0  0  0  0  0  0  0  0  0  0
    3.8214    2.9844    0.2733 H   0  0  0  0  0  0  0  0  0  0  0  0
   -0.1008    1.3936   -0.2233 N   0  0  0  0  0  2  0  0  0  0  0  0
   -1.5008    1.3594   -0.4147 C   0  0  0  0  0  0  0  0  0  0  0  0
   -2.3575    1.9617    0.5299 C   0  0  0  0  0  0  0  0  0  0  0  0
   -1.9149    2.4252    1.4255 H   0  0  0  0  0  0  0  0  0  0  0  0
   -3.7520    1.9682    0.3631 C   0  0  0  0  0  0  0  0  0  0  0  0
   -4.3138    1.3243   -0.7720 C   0  0  0  0  0  0  0  0  0  0  0  0
   -3.4488    0.7181   -1.7025 C   0  0  0  0  0  0  0  0  0  0  0  0
   -3.8810    0.2127   -2.5803 H   0  0  0  0  0  0  0  0  0  0  0  0
   -2.0579    0.7407   -1.5466 C   0  0  0  0  0  0  0  0  0  0  0  0
   -1.3927    0.2762   -2.2871 H   0  0  0  0  0  0  0  0  0  0  0  0
   -4.6372    2.6425    1.3801 C   0  0  0  0  0  0  0  0  0  0  0  0
   -4.0448    3.0843    2.2041 H   0  0  0  0  0  0  0  0  0  0  0  0
   -5.3640    1.9333    1.8301 H   0  0  0  0  0  0  0  0  0  0  0  0
   -5.2408    3.4544    0.9214 H   0  0  0  0  0  0  0  0  0  0  0  0
   -5.8064    1.2940   -0.9746 C   0  0  0  0  0  0  0  0  0  0  0  0
   -6.0802    0.7186   -1.8795 H   0  0  0  0  0  0  0  0  0  0  0  0
   -6.2292    2.3162   -1.0815 H   0  0  0  0  0  0  0  0  0  0  0  0
   -6.3315    0.8353   -0.1093 H   0  0  0  0  0  0  0  0  0  0  0  0
  1  9  1  0  0  0  0
  2 11  1  6  0  0  0
  2  1  1  0  0  0  0
  3  5  2  0  0  0  0
  3  2  1  0  0  0  0
  4  3  1  0  0  0  0
  5  7  1  0  0  0  0
  6  5  1  0  0  0  0
  7  8  1  0  0  0  0
  7  9  2  0  0  0  0
  9 10  1  0  0  0  0
 12 11  1  0  0  0  0
 12 13  1  0  0  0  0
 13 14  1  0  0  0  0
 15 13  2  0  0  0  0
 15 21  1  0  0  0  0
 16 15  1  0  0  0  0
 17 19  1  0  0  0  0
 17 16  2  0  0  0  0
 18 17  1  0  0  0  0
 19 12  2  0  0  0  0
 20 19  1  0  0  0  0
 21 23  1  0  0  0  0
 21 22  1  0  0  0  0
 24 21  1  0  0  0  0
 25 16  1  0  0  0  0
 25 28  1  0  0  0  0
 26 25  1  0  0  0  0
 27 25  1  0  0  0  0
M  END
