2,3
q = 0.0, confidence = 1.0

 38 41  0  0  1  0  0  0  0  0999 V2000
   -2.4247   -1.5758   -0.0037 O   0  0  0  0  0  0  0  0  0  0  0  0
    1.1518   -2.2060    0.2849 N   0  0  0  0  0  2  0  0  0  0  0  0
   -0.6617   -0.2535   -0.0619 N   0  0  0  0  0  2  0  0  0  0  0  0
   -1.7472    0.5643   -0.1898 N   0  0  0  0  0  0  0  0  0  0  0  0
   -4.1127    0.0373   -0.2473 N   0  0  0  0  0  0  0  0  0  0  0  0
    2.1104   -3.1423    0.4225 C   0  0  0  0  0  3  0  0  0  0  0  0
    3.1441   -2.7630    0.4602 H   0  0  0  0  0  0  0  0  0  0  0  0
    1.8147   -4.5092    0.5176 C   0  0  0  0  0  0  0  0  0  0  0  0
    2.6324   -5.2345    0.6315 H   0  0  0  0  0  0  0  0  0  0  0  0
    0.4733   -4.9248    0.4656 C   0  0  0  0  0  0  0  0  0  0  0  0
    0.2145   -5.9912    0.5386 H   0  0  0  0  0  0  0  0  0  0  0  0
   -0.5332   -3.9642    0.3155 C   0  0  0  0  0  0  0  0  0  0  0  0
   -1.5958   -4.2397    0.2636 H   0  0  0  0  0  0  0  0  0  0  0  0
   -0.1564   -2.6119    0.2252 C   0  0  0  0  0  0  0  0  0  0  0  0
   -1.0673   -1.5066    0.0568 C   0  0  2  0  0  3  0  0  0  0  0  0
   -2.7960   -0.2538   -0.1493 C   0  0  0  0  0  0  0  0  0  0  0  0
   -5.0947   -0.9874    0.0120 C   0  0  0  0  0  0  0  0  0  0  0  0
   -6.0365   -1.2935   -0.9856 C   0  0  0  0  0  0  0  0  0  0  0  0
   -6.0026   -0.7597   -1.9464 H   0  0  0  0  0  0  0  0  0  0  0  0
   -7.0121   -2.2678   -0.7355 C   0  0  0  0  0  0  0  0  0  0  0  0
   -7.7518   -2.5077   -1.5135 H   0  0  0  0  0  0  0  0  0  0  0  0
   -7.0433   -2.9379    0.4986 C   0  0  0  0  0  0  0  0  0  0  0  0
   -7.8109   -3.7019    0.6907 H   0  0  0  0  0  0  0  0  0  0  0  0
   -6.0997   -2.6255    1.4902 C   0  0  0  0  0  0  0  0  0  0  0  0
   -6.1299   -3.1382    2.4630 H   0  0  0  0  0  0  0  0  0  0  0  0
   -5.1264   -1.6439    1.2544 C   0  0  0  0  0  0  0  0  0  0  0  0
   -4.3992   -1.3769    2.0352 H   0  0  0  0  0  0  0  0  0  0  0  0
   -4.5630    1.3660   -0.5750 C   0  0  0  0  0  0  0  0  0  0  0  0
   -5.7184    1.8548    0.0643 C   0  0  0  0  0  0  0  0  0  0  0  0
   -6.2394    1.2319    0.8049 H   0  0  0  0  0  0  0  0  0  0  0  0
   -6.1974    3.1323   -0.2526 C   0  0  0  0  0  0  0  0  0  0  0  0
   -7.1003    3.5100    0.2495 H   0  0  0  0  0  0  0  0  0  0  0  0
   -5.5283    3.9275   -1.1962 C   0  0  0  0  0  0  0  0  0  0  0  0
   -5.9054    4.9313   -1.4404 H   0  0  0  0  0  0  0  0  0  0  0  0
   -4.3757    3.4337   -1.8267 C   0  0  0  0  0  0  0  0  0  0  0  0
   -3.8459    4.0486   -2.5692 H   0  0  0  0  0  0  0  0  0  0  0  0
   -3.8895    2.1543   -1.5259 C   0  0  0  0  0  0  0  0  0  0  0  0
   -2.9835    1.7793   -2.0183 H   0  0  0  0  0  0  0  0  0  0  0  0
  1 15  1  0  0  0  0
  2  6  1  0  0  0  0
  3 15  1  0  0  0  0
  4 16  2  0  0  0  0
  4  3  1  0  0  0  0
  5 16  1  0  0  0  0
  5 17  1  0  0  0  0
  6  7  1  0  0  0  0
  6  8  1  0  0  0  0
  8  9  1  0  0  0  0
 10  8  2  0  0  0  0
 10 11  1  0  0  0  0
 12 10  1  0  0  0  0
 13 12  1  0  0  0  0
 14  2  1  0  0  0  0
 14 12  2  0  0  0  0
 15 14  1  6  0  0  0
 16  1  1  0  0  0  0
 17 26  1  0  0  0  0
 18 20  1  0  0  0  0
 18 17  2  0  0  0  0
 19 18  1  0  0  0  0
 20 22  2  0  0  0  0
 21 20  1  0  0  0  0
 22 23  1  0  0  0  0
 22 24  1  0  0  0  0
 24 25  1  0  0  0  0
 26 24  2  0  0  0  0
 26 27  1  0  0  0  0
 28  5  1  0  0  0  0
 28 29  1  0  0  0  0
 29 30  1  0  0  0  0
 31 29  2  0  0  0  0
 31 32  1  0  0  0  0
 33 31  1  0  0  0  0
 34 33  1  0  0  0  0
 35 37  1  0  0  0  0
 35 33  2  0  0  0  0
 36 35  1  0  0  0  0
 37 28  2  0  0  0  0
 38 37  1  0  0  0  0
M  END
