3,4
q = -2.0, confidence = 0.886

 24 24  0  0  0  0  0  0  0  0999 V2000
   -2.4692   -3.2303    1.0589 O   0  0  0  0  0  0  0  0  0  0  0  0
   -2.4735    3.3812    0.7724 O   0  0  0  0  0  0  0  0  0  0  0  0
   -1.4559   -1.3195    0.3061 N   0  0  0  0  0  2  0  0  0  0  0  0
   -1.5254    1.3221    0.3043 N   0  0  0  0  0  2  0  0  0  0  0  0
   -1.4906   -2.4833    1.0658 C   0  0  0  0  0  0  0  0  0  0  0  0
   -0.2820   -2.7981    1.9376 C   0  0  0  0  0  0  0  0  0  0  0  0
   -0.6517   -3.3806    2.8011 H   0  0  0  0  0  0  0  0  0  0  0  0
    0.2567   -1.9002    2.2941 H   0  0  0  0  0  0  0  0  0  0  0  0
    0.4394   -3.4307    1.3838 H   0  0  0  0  0  0  0  0  0  0  0  0
   -1.5600    2.5612    0.9100 C   0  0  0  0  0  0  0  0  0  0  0  0
   -0.3859    2.8998    1.8315 C   0  0  0  0  0  0  0  0  0  0  0  0
   -0.8187    3.2727    2.7799 H   0  0  0  0  0  0  0  0  0  0  0  0
    0.2085    3.7342    1.4065 H   0  0  0  0  0  0  0  0  0  0  0  0
    0.2838    2.0484    2.0568 H   0  0  0  0  0  0  0  0  0  0  0  0
   -2.6135   -0.7343   -0.2866 C   0  0  0  0  0  0  0  0  0  0  0  0
   -2.6651    0.6953   -0.2577 C   0  0  0  0  0  0  0  0  0  0  0  0
   -3.8077    1.3537   -0.7555 C   0  0  0  0  0  0  0  0  0  0  0  0
   -3.8452    2.4468   -0.6973 H   0  0  0  0  0  0  0  0  0  0  0  0
   -4.8658    0.6046   -1.2952 C   0  0  0  0  0  0  0  0  0  0  0  0
   -5.7482    1.1310   -1.6904 H   0  0  0  0  0  0  0  0  0  0  0  0
   -4.8010   -0.7950   -1.3421 C   0  0  0  0  0  0  0  0  0  0  0  0
   -5.6313   -1.3765   -1.7707 H   0  0  0  0  0  0  0  0  0  0  0  0
   -3.6768   -1.4701   -0.8399 C   0  0  0  0  0  0  0  0  0  0  0  0
   -3.6239   -2.5638   -0.8362 H   0  0  0  0  0  0  0  0  0  0  0  0
  1  5  2  0  0  0  0
  2 10  2  0  0  0  0
  3  5  1  0  0  0  0
  4 10  1  0  0  0  0
  5  6  1  0  0  0  0
  6  8  1  0  0  0  0
  6  7  1  0  0  0  0
  9  6  1  0  0  0  0
 10 11  1  0  0  0  0
 11 14  1  0  0  0  0
 11 12  1  0  0  0  0
 13 11  1  0  0  0  0
 15 16  1  0  0  0  0
 15  3  1  0  0  0  0
 16  4  1  0  0  0  0
 17 18  1  0  0  0  0
 17 16  2  0  0  0  0
 19 17  1  0  0  0  0
 20 19  1  0  0  0  0
 21 19  2  0  0  0  0
 21 23  1  0  0  0  0
 22 21  1  0  0  0  0
 23 24  1  0  0  0  0
 23 15  2  0  0  0  0
M  END
