1,2
q = 0.0, confidence = 0.998

 40 43  0  0  1  0  0  0  0  0999 V2000
   -2.0248    1.7705   -0.1991 N   0  0  0  0  0  2  0  0  0  0  0  0
    0.2276    0.5220   -0.0702 N   0  0  0  0  0  2  0  0  0  0  0  0
    1.5793    2.2376   -0.6347 N   0  0  0  0  0  0  0  0  0  0  0  0
    1.7732    3.0600   -1.2081 H   0  0  0  0  0  0  0  0  0  0  0  0
   -3.2496    2.3160   -0.3422 C   0  0  0  0  0  3  0  0  0  0  0  0
   -4.1012    1.6586   -0.1331 H   0  0  0  0  0  0  0  0  0  0  0  0
   -3.4405    3.6421   -0.7448 C   0  0  0  0  0  0  0  0  0  0  0  0
   -4.4630    4.0350   -0.8314 H   0  0  0  0  0  0  0  0  0  0  0  0
   -2.3244    4.4404   -1.0366 C   0  0  0  0  0  0  0  0  0  0  0  0
   -2.4453    5.4863   -1.3529 H   0  0  0  0  0  0  0  0  0  0  0  0
   -1.0517    3.8691   -0.9353 C   0  0  0  0  0  0  0  0  0  0  0  0
   -0.1521    4.4522   -1.1781 H   0  0  0  0  0  0  0  0  0  0  0  0
   -0.9339    2.5321   -0.5278 C   0  0  0  0  0  0  0  0  0  0  0  0
    0.3111    1.7860   -0.4336 C   0  0  2  0  0  3  0  0  0  0  0  0
    2.4691    1.0631   -0.6988 C   0  0  2  0  0  0  0  0  0  0  0  0
    2.5629    0.7275   -1.7573 H   0  0  0  0  0  0  0  0  0  0  0  0
    1.6079    0.0032    0.0780 C   0  0  2  0  0  0  0  0  0  0  0  0
    1.8703    0.0879    1.1564 H   0  0  0  0  0  0  0  0  0  0  0  0
    1.8471   -1.4134   -0.3725 C   0  0  0  0  0  0  0  0  0  0  0  0
    2.6925   -2.2456    0.3879 C   0  0  0  0  0  0  0  0  0  0  0  0
    3.1500   -1.8588    1.3125 H   0  0  0  0  0  0  0  0  0  0  0  0
    2.9646   -3.5568   -0.0327 C   0  0  0  0  0  0  0  0  0  0  0  0
    3.6265   -4.1988    0.5675 H   0  0  0  0  0  0  0  0  0  0  0  0
    2.3943   -4.0439   -1.2195 C   0  0  0  0  0  0  0  0  0  0  0  0
    2.6053   -5.0718   -1.5506 H   0  0  0  0  0  0  0  0  0  0  0  0
    1.5589   -3.2131   -1.9857 C   0  0  0  0  0  0  0  0  0  0  0  0
    1.1112   -3.5900   -2.9178 H   0  0  0  0  0  0  0  0  0  0  0  0
    1.2871   -1.9011   -1.5699 C   0  0  0  0  0  0  0  0  0  0  0  0
    0.6020   -1.2675   -2.1554 H   0  0  0  0  0  0  0  0  0  0  0  0
    3.8419    1.2669   -0.1089 C   0  0  0  0  0  0  0  0  0  0  0  0
    4.9220    0.5105   -0.6029 C   0  0  0  0  0  0  0  0  0  0  0  0
    4.7655   -0.1728   -1.4522 H   0  0  0  0  0  0  0  0  0  0  0  0
    6.1914    0.6246   -0.0171 C   0  0  0  0  0  0  0  0  0  0  0  0
    7.0302    0.0317   -0.4109 H   0  0  0  0  0  0  0  0  0  0  0  0
    6.3925    1.5003    1.0615 C   0  0  0  0  0  0  0  0  0  0  0  0
    7.3903    1.5958    1.5152 H   0  0  0  0  0  0  0  0  0  0  0  0
    5.3196    2.2601    1.5552 C   0  0  0  0  0  0  0  0  0  0  0  0
    5.4757    2.9532    2.3954 H   0  0  0  0  0  0  0  0  0  0  0  0
    4.0476    2.1404    0.9768 C   0  0  0  0  0  0  0  0  0  0  0  0
    3.2053    2.7371    1.3596 H   0  0  0  0  0  0  0  0  0  0  0  0
  2 17  1  0  0  0  0
  3 14  1  0  0  0  0
  4  3  1  0  0  0  0
  5  1  1  0  0  0  0
  5  6  1  0  0  0  0
  7  5  1  0  0  0  0
  8  7  1  0  0  0  0
  9 11  1  0  0  0  0
  9  7  2  0  0  0  0
 10  9  1  0  0  0  0
 11 13  2  0  0  0  0
 12 11  1  0  0  0  0
 13  1  1  0  0  0  0
 14 13  1  1  0  0  0
 14  2  1  0  0  0  0
 15 16  1  6  0  0  0
 15  3  1  0  0  0  0
 15 30  1  0  0  0  0
 15 17  1  0  0  0  0
 17 18  1  1  0  0  0
 19 17  1  0  0  0  0
 19 20  1  0  0  0  0
 20 21  1  0  0  0  0
 22 20  2  0  0  0  0
 22 23  1  0  0  0  0
 24 22  1  0  0  0  0
 25 24  1  0  0  0  0
 26 28  1  0  0  0  0
 26 24  2  0  0  0  0
 27 26  1  0  0  0  0
 28 19  2  0  0  0  0
 29 28  1  0  0  0  0
 30 39  1  0  0  0  0
 31 30  2  0  0  0  0
 31 33  1  0  0  0  0
 32 31  1  0  0  0  0
 33 35  2  0  0  0  0
 34 33  1  0  0  0  0
 35 36  1  0  0  0  0
 35 37  1  0  0  0  0
 37 38  1  0  0  0  0
 39 40  1  0  0  0  0
 39 37  2  0  0  0  0
M  END
