5,7
q = 0.0, confidence = 0.998

 51 53  0  0  1  0  0  0  0  0999 V2000
   -4.9954    1.3118   -1.1941 O   0  0  0  0  0  0  0  0  0  0  0  0
   -5.4767   -0.9208   -0.8062 O   0  0  0  0  0  0  0  0  0  0  0  0
   -5.3003   -1.3452    1.4306 O   0  0  0  0  0  0  0  0  0  0  0  0
    0.7862    1.1650    1.7002 N   0  0  0  0  0  0  0  0  0  0  0  0
    1.0219   -0.1660    1.5411 N   0  0  0  0  0  2  0  0  0  0  0  0
    1.3527    2.0137   -0.4704 N   0  0  0  0  0  0  0  0  0  0  0  0
    1.7098    0.8764   -1.1268 N   0  0  0  0  0  2  0  0  0  0  0  0
    0.3738    2.0122    0.5991 C   0  0  1  0  0  0  0  0  0  0  0  0
    0.4225    3.0379    1.0123 H   0  0  0  0  0  0  0  0  0  0  0  0
   -1.0547    1.7727    0.1326 C   0  0  0  0  0  0  0  0  0  0  0  0
   -2.0101    1.2381    1.0110 C   0  0  0  0  0  0  0  0  0  0  0  0
   -1.7095    0.9061    2.0161 H   0  0  0  0  0  0  0  0  0  0  0  0
   -3.3413    1.0670    0.6114 C   0  0  0  0  0  0  0  0  0  0  0  0
   -4.0500    0.5955    1.3054 H   0  0  0  0  0  0  0  0  0  0  0  0
   -3.7289    1.4477   -0.6872 C   0  0  0  0  0  0  0  0  0  0  0  0
   -2.7819    2.0144   -1.5631 C   0  0  0  0  0  0  0  0  0  0  0  0
   -3.1066    2.2920   -2.5756 H   0  0  0  0  0  0  0  0  0  0  0  0
   -1.4574    2.1759   -1.1549 C   0  0  0  0  0  0  0  0  0  0  0  0
   -0.7188    2.5847   -1.8610 H   0  0  0  0  0  0  0  0  0  0  0  0
   -5.8913    0.4224   -0.5780 C   0  0  0  0  0  0  0  0  0  0  0  0
   -6.8541    0.5723   -1.1014 H   0  0  0  0  0  0  0  0  0  0  0  0
   -6.0013    0.5939    0.5139 H   0  0  0  0  0  0  0  0  0  0  0  0
   -5.1290   -1.6926    0.2784 C   0  0  0  0  0  0  0  0  0  0  0  0
   -4.4935   -2.9728   -0.1820 C   0  0  0  0  0  0  0  0  0  0  0  0
   -4.4278   -3.6843    0.6587 H   0  0  0  0  0  0  0  0  0  0  0  0
   -3.4739   -2.7287   -0.5472 H   0  0  0  0  0  0  0  0  0  0  0  0
   -5.0514   -3.4086   -1.0320 H   0  0  0  0  0  0  0  0  0  0  0  0
    0.8977    1.5603    3.0108 C   0  0  2  0  0  3  0  0  0  0  0  0
    1.2271    0.4122    3.7209 C   0  0  0  0  0  0  0  0  0  0  0  0
    1.4054    0.3368    4.7982 H   0  0  0  0  0  0  0  0  0  0  0  0
    1.3046   -0.6417    2.7745 C   0  0  0  0  0  0  0  0  0  0  0  0
    1.6698   -2.0591    3.0611 C   0  0  0  0  0  0  0  0  0  0  0  0
    2.5073   -2.3756    2.4060 H   0  0  0  0  0  0  0  0  0  0  0  0
    0.8220   -2.7488    2.8848 H   0  0  0  0  0  0  0  0  0  0  0  0
    1.9790   -2.1568    4.1181 H   0  0  0  0  0  0  0  0  0  0  0  0
    0.6730    2.9641    3.4674 C   0  0  0  0  0  0  0  0  0  0  0  0
    0.7973    3.0180    4.5643 H   0  0  0  0  0  0  0  0  0  0  0  0
   -0.3496    3.3255    3.2289 H   0  0  0  0  0  0  0  0  0  0  0  0
    1.3990    3.6746    3.0178 H   0  0  0  0  0  0  0  0  0  0  0  0
    1.9541    3.1300   -0.9984 C   0  0  1  0  0  3  0  0  0  0  0  0
    2.7388    2.6703   -2.0492 C   0  0  0  0  0  0  0  0  0  0  0  0
    3.3748    3.2737   -2.7045 H   0  0  0  0  0  0  0  0  0  0  0  0
    2.5698    1.2626   -2.0956 C   0  0  0  0  0  0  0  0  0  0  0  0
    3.2482    0.3236   -3.0349 C   0  0  0  0  0  0  0  0  0  0  0  0
    3.7692   -0.4731   -2.4651 H   0  0  0  0  0  0  0  0  0  0  0  0
    3.9873    0.8762   -3.6440 H   0  0  0  0  0  0  0  0  0  0  0  0
    2.5309   -0.1651   -3.7220 H   0  0  0  0  0  0  0  0  0  0  0  0
    1.7286    4.5106   -0.4757 C   0  0  0  0  0  0  0  0  0  0  0  0
    0.6603    4.8102   -0.5214 H   0  0  0  0  0  0  0  0  0  0  0  0
    2.3025    5.2322   -1.0852 H   0  0  0  0  0  0  0  0  0  0  0  0
    2.0689    4.6231    0.5758 H   0  0  0  0  0  0  0  0  0  0  0  0
  1 15  1  0  0  0  0
  1 20  1  0  0  0  0
  2 20  1  0  0  0  0
  2 23  1  0  0  0  0
  4 28  1  0  0  0  0
  5  4  1  0  0  0  0
  5 31  1  0  0  0  0
  6  8  1  0  0  0  0
  7  6  1  0  0  0  0
  8  9  1  1  0  0  0
  8  4  1  0  0  0  0
 10  8  1  0  0  0  0
 10 11  1  0  0  0  0
 11 12  1  0  0  0  0
 13 11  2  0  0  0  0
 13 14  1  0  0  0  0
 15 13  1  0  0  0  0
 16 18  1  0  0  0  0
 16 15  2  0  0  0  0
 17 16  1  0  0  0  0
 18 10  2  0  0  0  0
 19 18  1  0  0  0  0
 20 22  1  0  0  0  0
 21 20  1  0  0  0  0
 23  3  2  0  0  0  0
 24 23  1  0  0  0  0
 24 25  1  0  0  0  0
 26 24  1  0  0  0  0
 27 24  1  0  0  0  0
 28 36  1  1  0  0  0
 28 29  1  0  0  0  0
 29 30  1  0  0  0  0
 31 32  1  0  0  0  0
 31 29  2  0  0  0  0
 32 35  1  0  0  0  0
 33 32  1  0  0  0  0
 34 32  1  0  0  0  0
 36 37  1  0  0  0  0
 38 36  1  0  0  0  0
 39 36  1  0  0  0  0
 40 48  1  6  0  0  0
 40  6  1  0  0  0  0
 41 40  1  0  0  0  0
 42 41  1  0  0  0  0
 43 41  2  0  0  0  0
 43  7  1  0  0  0  0
 44 45  1  0  0  0  0
 44 43  1  0  0  0  0
 46 44  1  0  0  0  0
 47 44  1  0  0  0  0
 48 51  1  0  0  0  0
 49 48  1  0  0  0  0
 50 48  1  0  0  0  0
M  END
