1,3
q = 0.0, confidence = 0.98

 65 70  0  0  0  0  0  0  0  0999 V2000
    1.6033   -0.0821   -0.0050 N   0  0  0  0  0  0  0  0  0  0  0  0
    1.8609    0.8423   -0.3843 H   0  0  0  0  0  0  0  0  0  0  0  0
   -1.5464    0.3795    0.0231 N   0  0  0  0  0  0  0  0  0  0  0  0
   -1.4774    1.3774   -0.2849 H   0  0  0  0  0  0  0  0  0  0  0  0
    4.7187   -1.5447   -0.5885 C   0  0  0  0  0  0  0  0  0  0  0  0
    4.1907   -2.8807   -0.5569 C   0  0  0  0  0  0  0  0  0  0  0  0
    3.2500   -3.0816   -0.0268 H   0  0  0  0  0  0  0  0  0  0  0  0
    4.8379   -3.9286   -1.1833 C   0  0  0  0  0  0  0  0  0  0  0  0
    4.4053   -4.9395   -1.1389 H   0  0  0  0  0  0  0  0  0  0  0  0
    6.0616   -3.7157   -1.8858 C   0  0  0  0  0  0  0  0  0  0  0  0
    6.5642   -4.5619   -2.3778 H   0  0  0  0  0  0  0  0  0  0  0  0
    6.6076   -2.4501   -1.9440 C   0  0  0  0  0  0  0  0  0  0  0  0
    7.5507   -2.2696   -2.4830 H   0  0  0  0  0  0  0  0  0  0  0  0
    5.9662   -1.3359   -1.3097 C   0  0  0  0  0  0  0  0  0  0  0  0
    6.5171   -0.0449   -1.3784 C   0  0  0  0  0  0  0  0  0  0  0  0
    7.4593    0.1066   -1.9290 H   0  0  0  0  0  0  0  0  0  0  0  0
    5.8957    1.0598   -0.7690 C   0  0  0  0  0  0  0  0  0  0  0  0
    6.4647    2.3722   -0.8530 C   0  0  0  0  0  0  0  0  0  0  0  0
    7.4088    2.4965   -1.4062 H   0  0  0  0  0  0  0  0  0  0  0  0
    5.8490    3.4553   -0.2586 C   0  0  0  0  0  0  0  0  0  0  0  0
    6.2959    4.4582   -0.3311 H   0  0  0  0  0  0  0  0  0  0  0  0
    4.6282    3.2723    0.4555 C   0  0  0  0  0  0  0  0  0  0  0  0
    4.1412    4.1357    0.9340 H   0  0  0  0  0  0  0  0  0  0  0  0
    4.0469    2.0215    0.5643 C   0  0  0  0  0  0  0  0  0  0  0  0
    3.1008    1.9421    1.1222 H   0  0  0  0  0  0  0  0  0  0  0  0
    4.6527    0.8652   -0.0414 C   0  0  0  0  0  0  0  0  0  0  0  0
    4.0829   -0.4394    0.0417 C   0  0  0  0  0  0  0  0  0  0  0  0
    2.7680   -0.5919    0.7699 C   0  0  0  0  0  0  0  0  0  0  0  0
    2.5403   -1.6392    1.0350 H   0  0  0  0  0  0  0  0  0  0  0  0
    2.7972   -0.0369    1.7283 H   0  0  0  0  0  0  0  0  0  0  0  0
    1.1751   -0.9484   -1.1238 C   0  0  0  0  0  0  0  0  0  0  0  0
    0.9355   -1.9384   -0.6865 H   0  0  0  0  0  0  0  0  0  0  0  0
    2.0103   -1.0822   -1.8473 H   0  0  0  0  0  0  0  0  0  0  0  0
   -0.0599   -0.3952   -1.8444 C   0  0  0  0  0  0  0  0  0  0  0  0
    0.1032    0.6716   -2.1218 H   0  0  0  0  0  0  0  0  0  0  0  0
   -0.1484   -0.9388   -2.8074 H   0  0  0  0  0  0  0  0  0  0  0  0
   -1.3986   -0.5509   -1.1126 C   0  0  0  0  0  0  0  0  0  0  0  0
   -2.2317   -0.3972   -1.8334 H   0  0  0  0  0  0  0  0  0  0  0  0
   -1.4845   -1.5836   -0.7210 H   0  0  0  0  0  0  0  0  0  0  0  0
   -2.7828    0.2105    0.8331 C   0  0  0  0  0  0  0  0  0  0  0  0
   -2.8636    1.1239    1.4556 H   0  0  0  0  0  0  0  0  0  0  0  0
   -2.6207   -0.6267    1.5351 H   0  0  0  0  0  0  0  0  0  0  0  0
   -4.0575   -0.0057    0.0492 C   0  0  0  0  0  0  0  0  0  0  0  0
   -4.6985    1.1042   -0.5708 C   0  0  0  0  0  0  0  0  0  0  0  0
   -4.1638    2.4372   -0.5209 C   0  0  0  0  0  0  0  0  0  0  0  0
   -3.2108    2.6440   -0.0130 H   0  0  0  0  0  0  0  0  0  0  0  0
   -4.8140    3.4908   -1.1371 C   0  0  0  0  0  0  0  0  0  0  0  0
   -4.3724    4.4976   -1.0889 H   0  0  0  0  0  0  0  0  0  0  0  0
   -6.0411    3.2885   -1.8357 C   0  0  0  0  0  0  0  0  0  0  0  0
   -6.5450    4.1413   -2.3154 H   0  0  0  0  0  0  0  0  0  0  0  0
   -6.5886    2.0236   -1.9106 C   0  0  0  0  0  0  0  0  0  0  0  0
   -7.5335    1.8503   -2.4492 H   0  0  0  0  0  0  0  0  0  0  0  0
   -5.9424    0.9020   -1.2958 C   0  0  0  0  0  0  0  0  0  0  0  0
   -6.4875   -0.3914   -1.3805 C   0  0  0  0  0  0  0  0  0  0  0  0
   -7.4341   -0.5397   -1.9247 H   0  0  0  0  0  0  0  0  0  0  0  0
   -5.8511   -1.5027   -0.8012 C   0  0  0  0  0  0  0  0  0  0  0  0
   -6.4077   -2.8187   -0.9187 C   0  0  0  0  0  0  0  0  0  0  0  0
   -7.3583   -2.9347   -1.4625 H   0  0  0  0  0  0  0  0  0  0  0  0
   -5.7701   -3.9141   -0.3734 C   0  0  0  0  0  0  0  0  0  0  0  0
   -6.2068   -4.9192   -0.4736 H   0  0  0  0  0  0  0  0  0  0  0  0
   -4.5328   -3.7426    0.3162 C   0  0  0  0  0  0  0  0  0  0  0  0
   -4.0168   -4.6198    0.7351 H   0  0  0  0  0  0  0  0  0  0  0  0
   -3.9679   -2.4894    0.4615 C   0  0  0  0  0  0  0  0  0  0  0  0
   -3.0017   -2.4084    0.9796 H   0  0  0  0  0  0  0  0  0  0  0  0
   -4.6015   -1.3158   -0.0782 C   0  0  0  0  0  0  0  0  0  0  0  0
  1 28  1  0  0  0  0
  2  1  1  0  0  0  0
  3 40  1  0  0  0  0
  4  3  1  0  0  0  0
  5  6  1  0  0  0  0
  5 27  1  0  0  0  0
  6  7  1  0  0  0  0
  8  9  1  0  0  0  0
  8  6  2  0  0  0  0
 10  8  1  0  0  0  0
 11 10  1  0  0  0  0
 12 10  2  0  0  0  0
 12 14  1  0  0  0  0
 13 12  1  0  0  0  0
 14  5  2  0  0  0  0
 15 14  1  0  0  0  0
 15 17  2  0  0  0  0
 16 15  1  0  0  0  0
 17 26  1  0  0  0  0
 18 17  1  0  0  0  0
 18 20  2  0  0  0  0
 19 18  1  0  0  0  0
 20 22  1  0  0  0  0
 21 20  1  0  0  0  0
 22 24  2  0  0  0  0
 22 23  1  0  0  0  0
 24 25  1  0  0  0  0
 26 27  2  0  0  0  0
 26 24  1  0  0  0  0
 27 28  1  0  0  0  0
 28 29  1  0  0  0  0
 28 30  1  0  0  0  0
 31 32  1  0  0  0  0
 31  1  1  0  0  0  0
 33 31  1  0  0  0  0
 34 31  1  0  0  0  0
 34 37  1  0  0  0  0
 35 34  1  0  0  0  0
 36 34  1  0  0  0  0
 37 39  1  0  0  0  0
 37  3  1  0  0  0  0
 38 37  1  0  0  0  0
 40 41  1  0  0  0  0
 40 42  1  0  0  0  0
 43 40  1  0  0  0  0
 44 45  1  0  0  0  0
 44 43  2  0  0  0  0
 45 46  1  0  0  0  0
 47 48  1  0  0  0  0
 47 45  2  0  0  0  0
 49 47  1  0  0  0  0
 50 49  1  0  0  0  0
 51 49  2  0  0  0  0
 51 53  1  0  0  0  0
 52 51  1  0  0  0  0
 53 44  1  0  0  0  0
 54 53  2  0  0  0  0
 54 56  1  0  0  0  0
 55 54  1  0  0  0  0
 56 65  1  0  0  0  0
 57 56  2  0  0  0  0
 57 59  1  0  0  0  0
 58 57  1  0  0  0  0
 59 61  2  0  0  0  0
 60 59  1  0  0  0  0
 61 63  1  0  0  0  0
 61 62  1  0  0  0  0
 63 64  1  0  0  0  0
 65 43  1  0  0  0  0
 65 63  2  0  0  0  0
M  END
