1,2
q = -1.0

 48 49  0  0  1  0  0  0  0  0999 V2000
    1.4824    0.1224    0.5321 N   0  0  0  0  0  2  0  0  0  0  0  0
   -1.3565    0.4546    0.5860 N   0  0  0  0  0  2  0  0  0  0  0  0
    2.4897   -0.5433    2.7012 C   0  0  0  0  0  0  0  0  0  0  0  0
    2.7045   -1.6273    2.5746 H   0  0  0  0  0  0  0  0  0  0  0  0
    2.2848   -0.3434    3.7690 H   0  0  0  0  0  0  0  0  0  0  0  0
    3.3855    0.0165    2.3742 H   0  0  0  0  0  0  0  0  0  0  0  0
    1.3078   -0.2334    1.8220 C   0  0  2  0  0  3  0  0  0  0  0  0
   -0.0028   -0.4528    2.3222 C   0  0  0  0  0  3  0  0  0  0  0  0
   -0.0685   -0.9263    3.3113 H   0  0  0  0  0  0  0  0  0  0  0  0
   -1.1810    0.2655    1.8836 C   0  0  2  0  0  3  0  0  0  0  0  0
   -2.1406    0.7361    2.9420 C   0  0  0  0  0  0  0  0  0  0  0  0
   -2.8378    1.4977    2.5476 H   0  0  0  0  0  0  0  0  0  0  0  0
   -1.5934    1.1442    3.8131 H   0  0  0  0  0  0  0  0  0  0  0  0
   -2.7357   -0.1314    3.2968 H   0  0  0  0  0  0  0  0  0  0  0  0
   -2.3717    1.2912    0.0218 C   0  0  0  0  0  0  0  0  0  0  0  0
   -3.7504    0.9355    0.0676 C   0  0  0  0  0  0  0  0  0  0  0  0
   -4.6835    1.7825   -0.5652 C   0  0  0  0  0  0  0  0  0  0  0  0
   -5.7481    1.5024   -0.5303 H   0  0  0  0  0  0  0  0  0  0  0  0
   -4.2894    2.9437   -1.2348 C   0  0  0  0  0  0  0  0  0  0  0  0
   -5.0373    3.5842   -1.7259 H   0  0  0  0  0  0  0  0  0  0  0  0
   -2.9307    3.2727   -1.2886 C   0  0  0  0  0  0  0  0  0  0  0  0
   -2.6025    4.1768   -1.8250 H   0  0  0  0  0  0  0  0  0  0  0  0
   -1.9562    2.4641   -0.6757 C   0  0  0  0  0  0  0  0  0  0  0  0
   -4.2656   -0.3012    0.7580 C   0  0  0  0  0  0  0  0  0  0  0  0
   -4.6712   -0.0583    1.7634 H   0  0  0  0  0  0  0  0  0  0  0  0
   -3.4933   -1.0822    0.8804 H   0  0  0  0  0  0  0  0  0  0  0  0
   -5.1026   -0.7415    0.1810 H   0  0  0  0  0  0  0  0  0  0  0  0
   -0.5086    2.8713   -0.7764 C   0  0  0  0  0  0  0  0  0  0  0  0
   -0.2976    3.3337   -1.7606 H   0  0  0  0  0  0  0  0  0  0  0  0
    0.1788    2.0206   -0.6291 H   0  0  0  0  0  0  0  0  0  0  0  0
   -0.2554    3.6310   -0.0083 H   0  0  0  0  0  0  0  0  0  0  0  0
    2.5795    0.9435    0.1476 C   0  0  0  0  0  0  0  0  0  0  0  0
    2.6425    2.2602    0.7071 C   0  0  0  0  0  0  0  0  0  0  0  0
    3.6224    3.1527    0.2421 C   0  0  0  0  0  0  0  0  0  0  0  0
    3.6521    4.1704    0.6621 H   0  0  0  0  0  0  0  0  0  0  0  0
    4.5513    2.7700   -0.7345 C   0  0  0  0  0  0  0  0  0  0  0  0
    5.3051    3.4852   -1.0961 H   0  0  0  0  0  0  0  0  0  0  0  0
    4.5285    1.4598   -1.2182 C   0  0  0  0  0  0  0  0  0  0  0  0
    5.2887    1.1291   -1.9438 H   0  0  0  0  0  0  0  0  0  0  0  0
    3.5693    0.5219   -0.7818 C   0  0  0  0  0  0  0  0  0  0  0  0
    1.7131    2.7013    1.8120 C   0  0  0  0  0  0  0  0  0  0  0  0
    2.0375    2.2999    2.7958 H   0  0  0  0  0  0  0  0  0  0  0  0
    0.6753    2.3572    1.6555 H   0  0  0  0  0  0  0  0  0  0  0  0
    1.7055    3.8049    1.8988 H   0  0  0  0  0  0  0  0  0  0  0  0
    3.7009   -0.9026   -1.2575 C   0  0  0  0  0  0  0  0  0  0  0  0
    3.4976   -0.9950   -2.3446 H   0  0  0  0  0  0  0  0  0  0  0  0
    3.0391   -1.6005   -0.7144 H   0  0  0  0  0  0  0  0  0  0  0  0
    4.7441   -1.2485   -1.1071 H   0  0  0  0  0  0  0  0  0  0  0  0
  3  5  1  0  0  0  0
  4  3  1  0  0  0  0
  6  3  1  0  0  0  0
  7  1  1  6  0  0  0
  7  8  1  0  0  0  0
  7  3  1  0  0  0  0
  8  9  1  0  0  0  0
 10  2  1  6  0  0  0
 10  8  1  0  0  0  0
 10 11  1  0  0  0  0
 11 14  1  0  0  0  0
 11 13  1  0  0  0  0
 12 11  1  0  0  0  0
 15 16  1  0  0  0  0
 15  2  1  0  0  0  0
 16 24  1  0  0  0  0
 17 18  1  0  0  0  0
 17 16  2  0  0  0  0
 19 17  1  0  0  0  0
 20 19  1  0  0  0  0
 21 19  2  0  0  0  0
 21 23  1  0  0  0  0
 22 21  1  0  0  0  0
 23 15  2  0  0  0  0
 24 26  1  0  0  0  0
 24 25  1  0  0  0  0
 27 24  1  0  0  0  0
 28 23  1  0  0  0  0
 28 30  1  0  0  0  0
 28 31  1  0  0  0  0
 29 28  1  0  0  0  0
 32  1  1  0  0  0  0
 32 33  1  0  0  0  0
 33 41  1  0  0  0  0
 34 35  1  0  0  0  0
 34 33  2  0  0  0  0
 36 34  1  0  0  0  0
 37 36  1  0  0  0  0
 38 40  1  0  0  0  0
 38 36  2  0  0  0  0
 39 38  1  0  0  0  0
 40 32  2  0  0  0  0
 41 44  1  0  0  0  0
 41 42  1  0  0  0  0
 43 41  1  0  0  0  0
 45 48  1  0  0  0  0
 45 40  1  0  0  0  0
 45 47  1  0  0  0  0
 46 45  1  0  0  0  0
M  END
