4,5
q = 0.0, confidence = 0.998

 29 31  0  0  1  0  0  0  0  0999 V2000
   -1.0807    2.8611    0.2231 S   0  0  0  0  0  0  0  0  0  0  0  0
    3.6227    1.0136   -1.1440 S   0  0  0  0  0  0  0  0  0  0  0  0
    1.1342    1.4785   -0.1018 N   0  0  2  0  0  0  0  0  0  0  0  0
   -0.8293    0.1840   -0.3911 N   0  0  0  0  0  2  0  0  0  0  0  0
    1.8208   -0.7661   -0.4204 N   0  0  0  0  0  2  0  0  0  0  0  0
   -2.9049    1.2555   -0.6535 N   0  0  0  0  0  0  0  0  0  0  0  0
    2.0381    0.5071   -0.4776 C   0  0  1  0  0  3  0  0  0  0  0  0
    2.8572   -1.5573   -1.0632 C   0  0  0  0  0  0  0  0  0  0  0  0
    2.5392   -1.7752   -2.1079 H   0  0  0  0  0  0  0  0  0  0  0  0
    2.9564   -2.5327   -0.5473 H   0  0  0  0  0  0  0  0  0  0  0  0
    4.1632   -0.7444   -1.0355 C   0  0  0  0  0  0  0  0  0  0  0  0
    4.8324   -0.9665   -1.8873 H   0  0  0  0  0  0  0  0  0  0  0  0
    4.7207   -0.8753   -0.0861 H   0  0  0  0  0  0  0  0  0  0  0  0
   -0.2627    1.3286   -0.1279 C   0  0  2  0  0  3  0  0  0  0  0  0
    1.5969    2.8503    0.1747 C   0  0  0  0  0  0  0  0  0  0  0  0
    1.7673    3.3875   -0.7859 H   0  0  0  0  0  0  0  0  0  0  0  0
    2.5529    2.8015    0.7306 H   0  0  0  0  0  0  0  0  0  0  0  0
    0.4897    3.4957    0.9818 C   0  0  0  0  0  0  0  0  0  0  0  0
    0.5053    4.5993    0.9251 H   0  0  0  0  0  0  0  0  0  0  0  0
    0.5154    3.1617    2.0384 H   0  0  0  0  0  0  0  0  0  0  0  0
   -2.2145    0.1059   -0.5663 C   0  0  0  0  0  0  0  0  0  0  0  0
   -2.8320   -1.1627   -0.6643 C   0  0  0  0  0  0  0  0  0  0  0  0
   -2.2213   -2.0795   -0.6052 H   0  0  0  0  0  0  0  0  0  0  0  0
   -4.2181   -1.2001   -0.8342 C   0  0  0  0  0  0  0  0  0  0  0  0
   -4.7334   -2.1695   -0.9106 H   0  0  0  0  0  0  0  0  0  0  0  0
   -4.9429    0.0032   -0.9068 C   0  0  0  0  0  0  0  0  0  0  0  0
   -6.0340    0.0083   -1.0424 H   0  0  0  0  0  0  0  0  0  0  0  0
   -4.2347    1.2093   -0.8105 C   0  0  0  0  0  0  0  0  0  0  0  0
   -4.7561    2.1807   -0.8685 H   0  0  0  0  0  0  0  0  0  0  0  0
  1 18  1  0  0  0  0
  2 11  1  0  0  0  0
  3 15  1  6  0  0  0
  6 21  1  0  0  0  0
  7  2  1  6  0  0  0
  7  5  1  0  0  0  0
  7  3  1  0  0  0  0
  8 11  1  0  0  0  0
  8 10  1  0  0  0  0
  8  5  1  0  0  0  0
  9  8  1  0  0  0  0
 11 13  1  0  0  0  0
 12 11  1  0  0  0  0
 14  4  1  6  0  0  0
 14  3  1  0  0  0  0
 14  1  1  0  0  0  0
 15 17  1  0  0  0  0
 15 18  1  0  0  0  0
 16 15  1  0  0  0  0
 18 20  1  0  0  0  0
 19 18  1  0  0  0  0
 21  4  1  0  0  0  0
 22 23  1  0  0  0  0
 22 21  2  0  0  0  0
 24 22  1  0  0  0  0
 25 24  1  0  0  0  0
 26 24  2  0  0  0  0
 26 28  1  0  0  0  0
 27 26  1  0  0  0  0
 28  6  2  0  0  0  0
 29 28  1  0  0  0  0
M  END
