5,6
q = 0.0, confidence = 0.936

 44 46  0  0  1  0  0  0  0  0999 V2000
    2.3560    1.2923    1.5639 S   0  0  0  0  0  0  0  0  0  0  0  0
    2.2148   -1.6508    1.5753 S   0  0  0  0  0  0  0  0  0  0  0  0
    5.1700    1.4098    0.4808 S   0  0  0  0  0  0  0  0  0  0  0  0
    5.0141   -1.9969    0.4417 S   0  0  0  0  0  0  0  0  0  0  0  0
   -1.8779   -1.4624    0.8992 N   0  0  0  0  0  2  0  0  0  0  0  0
   -1.7358    1.4490    0.8087 N   0  0  0  0  0  2  0  0  0  0  0  0
    4.7932   -0.8842   -3.2832 N   0  0  0  0  0  0  0  0  0  0  0  0
    2.6613    4.4724   -0.1986 N   0  0  0  0  0  0  0  0  0  0  0  0
   -2.7069   -2.5266    1.0071 C   0  0  0  0  0  3  0  0  0  0  0  0
   -3.5273   -2.5623    0.2751 H   0  0  0  0  0  0  0  0  0  0  0  0
   -2.5406   -3.5107    1.9854 C   0  0  0  0  0  0  0  0  0  0  0  0
   -3.2322   -4.3640    2.0187 H   0  0  0  0  0  0  0  0  0  0  0  0
   -1.4915   -3.3778    2.9063 C   0  0  0  0  0  0  0  0  0  0  0  0
   -1.3322   -4.1303    3.6931 H   0  0  0  0  0  0  0  0  0  0  0  0
   -0.6668   -2.2498    2.8287 C   0  0  0  0  0  0  0  0  0  0  0  0
    0.1313   -2.0787    3.5652 H   0  0  0  0  0  0  0  0  0  0  0  0
   -0.8820   -1.2959    1.8135 C   0  0  0  0  0  0  0  0  0  0  0  0
   -0.0617   -0.0654    1.7301 C   0  0  0  0  0  0  0  0  0  0  0  0
   -0.7608    1.2432    1.7370 C   0  0  2  0  0  3  0  0  0  0  0  0
   -0.4420    2.2379    2.6820 C   0  0  0  0  0  0  0  0  0  0  0  0
    0.3361    2.0387    3.4325 H   0  0  0  0  0  0  0  0  0  0  0  0
   -1.1325    3.4550    2.6673 C   0  0  0  0  0  0  0  0  0  0  0  0
   -0.8809    4.2454    3.3898 H   0  0  0  0  0  0  0  0  0  0  0  0
   -2.1618    3.6345    1.7332 C   0  0  0  0  0  0  0  0  0  0  0  0
   -2.7481    4.5629    1.6932 H   0  0  0  0  0  0  0  0  0  0  0  0
   -2.4411    2.6032    0.8325 C   0  0  0  0  0  0  0  0  0  0  0  0
   -3.2530    2.6771    0.0941 H   0  0  0  0  0  0  0  0  0  0  0  0
    1.3132   -0.1271    1.6767 C   0  0  0  0  0  0  0  0  0  0  0  0
    3.7089   -0.9345    0.9392 C   0  0  0  0  0  0  0  0  0  0  0  0
    3.7754    0.4350    0.9312 C   0  0  0  0  0  0  0  0  0  0  0  0
    4.8127    1.8572   -1.2758 C   0  0  0  0  0  0  0  0  0  0  0  0
    5.0391    0.9854   -1.9200 H   0  0  0  0  0  0  0  0  0  0  0  0
    5.5624    2.6485   -1.4795 H   0  0  0  0  0  0  0  0  0  0  0  0
    3.3930    2.3502   -1.5770 C   0  0  0  0  0  0  0  0  0  0  0  0
    2.6524    1.5399   -1.4010 H   0  0  0  0  0  0  0  0  0  0  0  0
    3.3295    2.5846   -2.6617 H   0  0  0  0  0  0  0  0  0  0  0  0
    2.9851    3.5306   -0.8153 C   0  0  0  0  0  0  0  0  0  0  0  0
    4.1080   -3.1616   -0.6617 C   0  0  0  0  0  0  0  0  0  0  0  0
    3.4196   -3.7914   -0.0635 H   0  0  0  0  0  0  0  0  0  0  0  0
    4.9122   -3.8179   -1.0513 H   0  0  0  0  0  0  0  0  0  0  0  0
    3.3280   -2.4896   -1.8007 C   0  0  0  0  0  0  0  0  0  0  0  0
    2.4934   -1.8756   -1.3967 H   0  0  0  0  0  0  0  0  0  0  0  0
    2.8597   -3.2706   -2.4379 H   0  0  0  0  0  0  0  0  0  0  0  0
    4.1426   -1.6154   -2.6401 C   0  0  0  0  0  0  0  0  0  0  0  0
  1 28  1  0  0  0  0
  2 28  1  0  0  0  0
  3 30  1  0  0  0  0
  4 29  1  0  0  0  0
  5  9  1  0  0  0  0
  5 17  1  0  0  0  0
  6 26  1  0  0  0  0
  6 19  1  0  0  0  0
  7 44  3  0  0  0  0
  9 11  1  0  0  0  0
 10  9  1  0  0  0  0
 11 12  1  0  0  0  0
 11 13  2  0  0  0  0
 13 14  1  0  0  0  0
 15 13  1  0  0  0  0
 15 16  1  0  0  0  0
 17 15  2  0  0  0  0
 18 17  1  0  0  0  0
 19 18  1  1  0  0  0
 19 20  1  0  0  0  0
 20 21  1  0  0  0  0
 22 20  2  0  0  0  0
 22 23  1  0  0  0  0
 24 22  1  0  0  0  0
 25 24  1  0  0  0  0
 26 24  2  0  0  0  0
 27 26  1  0  0  0  0
 28 18  2  0  0  0  0
 29  2  1  0  0  0  0
 30 29  2  0  0  0  0
 30  1  1  0  0  0  0
 31  3  1  0  0  0  0
 32 31  1  0  0  0  0
 33 31  1  0  0  0  0
 34 35  1  0  0  0  0
 34 31  1  0  0  0  0
 34 37  1  0  0  0  0
 36 34  1  0  0  0  0
 37  8  3  0  0  0  0
 38 39  1  0  0  0  0
 38  4  1  0  0  0  0
 40 38  1  0  0  0  0
 41 42  1  0  0  0  0
 41 38  1  0  0  0  0
 43 41  1  0  0  0  0
 44 41  1  0  0  0  0
M  END
