1,2
q = 0.0, confidence = 0.992

 72 75  0  0  0  0  0  0  0  0999 V2000
   -0.9531    0.3197   -1.2202 N   0  0  0  0  0  2  0  0  0  0  0  0
    0.9531    0.3196    1.2203 N   0  0  0  0  0  2  0  0  0  0  0  0
   -4.4929    0.2401   -0.3734 C   0  0  0  0  0  0  0  0  0  0  0  0
   -5.5979   -0.5984   -0.1603 C   0  0  0  0  0  0  0  0  0  0  0  0
   -6.4859   -0.1870    0.3460 H   0  0  0  0  0  0  0  0  0  0  0  0
   -5.6094   -1.9405   -0.5906 C   0  0  0  0  0  0  0  0  0  0  0  0
   -4.4619   -2.4349   -1.2377 C   0  0  0  0  0  0  0  0  0  0  0  0
   -4.4599   -3.4755   -1.5997 H   0  0  0  0  0  0  0  0  0  0  0  0
   -3.3204   -1.6461   -1.4639 C   0  0  0  0  0  0  0  0  0  0  0  0
   -3.3308   -0.2900   -1.0148 C   0  0  0  0  0  0  0  0  0  0  0  0
   -2.2155    0.6261   -1.2587 C   0  0  0  0  0  3  0  0  0  0  0  0
   -2.4889    1.6725   -1.5158 H   0  0  0  0  0  0  0  0  0  0  0  0
   -4.5387    1.6682    0.1098 C   0  0  0  0  0  0  0  0  0  0  0  0
   -3.7325    1.8850    0.8401 H   0  0  0  0  0  0  0  0  0  0  0  0
   -5.5088    1.8913    0.5921 H   0  0  0  0  0  0  0  0  0  0  0  0
   -4.4127    2.3902   -0.7250 H   0  0  0  0  0  0  0  0  0  0  0  0
   -6.8287   -2.8037   -0.4049 C   0  0  0  0  0  0  0  0  0  0  0  0
   -7.4038   -2.5175    0.4975 H   0  0  0  0  0  0  0  0  0  0  0  0
   -6.5670   -3.8774   -0.3329 H   0  0  0  0  0  0  0  0  0  0  0  0
   -7.5156   -2.6955   -1.2718 H   0  0  0  0  0  0  0  0  0  0  0  0
   -2.1560   -2.2564   -2.1965 C   0  0  0  0  0  0  0  0  0  0  0  0
   -2.4643   -3.1833   -2.7160 H   0  0  0  0  0  0  0  0  0  0  0  0
   -1.3298   -2.5133   -1.4990 H   0  0  0  0  0  0  0  0  0  0  0  0
   -1.7195   -1.5605   -2.9388 H   0  0  0  0  0  0  0  0  0  0  0  0
   -0.0097    1.3239   -1.5874 C   0  0  0  0  0  0  0  0  0  0  0  0
    0.6134    1.2410   -2.8444 C   0  0  0  0  0  0  0  0  0  0  0  0
    0.3316    0.4275   -3.5283 H   0  0  0  0  0  0  0  0  0  0  0  0
    1.5638    2.2036   -3.2077 C   0  0  0  0  0  0  0  0  0  0  0  0
    2.0415    2.1555   -4.1978 H   0  0  0  0  0  0  0  0  0  0  0  0
    1.9046    3.2267   -2.3135 C   0  0  0  0  0  0  0  0  0  0  0  0
    2.6609    3.9735   -2.6003 H   0  0  0  0  0  0  0  0  0  0  0  0
    1.3054    3.3161   -1.0395 C   0  0  0  0  0  0  0  0  0  0  0  0
    0.3272    2.3567   -0.6713 C   0  0  0  0  0  0  0  0  0  0  0  0
    1.7187    4.4179   -0.0965 C   0  0  0  0  0  0  0  0  0  0  0  0
    1.5439    4.1477    0.9627 H   0  0  0  0  0  0  0  0  0  0  0  0
    1.1444    5.3481   -0.2925 H   0  0  0  0  0  0  0  0  0  0  0  0
    2.7887    4.6724   -0.2263 H   0  0  0  0  0  0  0  0  0  0  0  0
   -0.3272    2.3566    0.6714 C   0  0  0  0  0  0  0  0  0  0  0  0
   -1.3055    3.3159    1.0396 C   0  0  0  0  0  0  0  0  0  0  0  0
   -1.9048    3.2264    2.3136 C   0  0  0  0  0  0  0  0  0  0  0  0
   -2.6612    3.9731    2.6003 H   0  0  0  0  0  0  0  0  0  0  0  0
   -1.5640    2.2033    3.2077 C   0  0  0  0  0  0  0  0  0  0  0  0
   -2.0418    2.1551    4.1978 H   0  0  0  0  0  0  0  0  0  0  0  0
   -0.6135    1.2407    2.8445 C   0  0  0  0  0  0  0  0  0  0  0  0
   -0.3318    0.4272    3.5283 H   0  0  0  0  0  0  0  0  0  0  0  0
    0.0097    1.3237    1.5875 C   0  0  0  0  0  0  0  0  0  0  0  0
   -1.7185    4.4177    0.0966 C   0  0  0  0  0  0  0  0  0  0  0  0
   -1.5478    4.1456   -0.9628 H   0  0  0  0  0  0  0  0  0  0  0  0
   -1.1407    5.3465    0.2894 H   0  0  0  0  0  0  0  0  0  0  0  0
   -2.7873    4.6757    0.2294 H   0  0  0  0  0  0  0  0  0  0  0  0
    2.2155    0.6261    1.2586 C   0  0  0  0  0  3  0  0  0  0  0  0
    2.4888    1.6725    1.5156 H   0  0  0  0  0  0  0  0  0  0  0  0
    3.3308   -0.2899    1.0147 C   0  0  0  0  0  0  0  0  0  0  0  0
    4.4929    0.2402    0.3733 C   0  0  0  0  0  0  0  0  0  0  0  0
    5.5979   -0.5984    0.1602 C   0  0  0  0  0  0  0  0  0  0  0  0
    6.4859   -0.1869   -0.3462 H   0  0  0  0  0  0  0  0  0  0  0  0
    5.6094   -1.9405    0.5905 C   0  0  0  0  0  0  0  0  0  0  0  0
    4.4620   -2.4348    1.2377 C   0  0  0  0  0  0  0  0  0  0  0  0
    4.4599   -3.4754    1.5997 H   0  0  0  0  0  0  0  0  0  0  0  0
    3.3204   -1.6460    1.4639 C   0  0  0  0  0  0  0  0  0  0  0  0
    4.5387    1.6683   -0.1099 C   0  0  0  0  0  0  0  0  0  0  0  0
    3.7324    1.8850   -0.8402 H   0  0  0  0  0  0  0  0  0  0  0  0
    5.5087    1.8912   -0.5924 H   0  0  0  0  0  0  0  0  0  0  0  0
    4.4128    2.3902    0.7249 H   0  0  0  0  0  0  0  0  0  0  0  0
    6.8287   -2.8036    0.4048 C   0  0  0  0  0  0  0  0  0  0  0  0
    7.5153   -2.6960    1.2721 H   0  0  0  0  0  0  0  0  0  0  0  0
    7.4042   -2.5170   -0.4971 H   0  0  0  0  0  0  0  0  0  0  0  0
    6.5670   -3.8772    0.3322 H   0  0  0  0  0  0  0  0  0  0  0  0
    2.1561   -2.2563    2.1965 C   0  0  0  0  0  0  0  0  0  0  0  0
    2.4644   -3.1832    2.7161 H   0  0  0  0  0  0  0  0  0  0  0  0
    1.3299   -2.5133    1.4990 H   0  0  0  0  0  0  0  0  0  0  0  0
    1.7196   -1.5604    2.9388 H   0  0  0  0  0  0  0  0  0  0  0  0
  2 51  1  0  0  0  0
  2 46  1  0  0  0  0
  3  4  1  0  0  0  0
  3 13  1  0  0  0  0
  4  5  1  0  0  0  0
  6 17  1  0  0  0  0
  6  4  2  0  0  0  0
  7  6  1  0  0  0  0
  8  7  1  0  0  0  0
  9  7  2  0  0  0  0
  9 10  1  0  0  0  0
 10  3  2  0  0  0  0
 11  1  1  0  0  0  0
 11 10  1  0  0  0  0
 12 11  1  0  0  0  0
 13 15  1  0  0  0  0
 13 14  1  0  0  0  0
 16 13  1  0  0  0  0
 17 19  1  0  0  0  0
 17 18  1  0  0  0  0
 20 17  1  0  0  0  0
 21 23  1  0  0  0  0
 21  9  1  0  0  0  0
 22 21  1  0  0  0  0
 24 21  1  0  0  0  0
 25  1  1  0  0  0  0
 25 33  1  0  0  0  0
 26 25  2  0  0  0  0
 27 26  1  0  0  0  0
 28 26  1  0  0  0  0
 28 30  2  0  0  0  0
 29 28  1  0  0  0  0
 30 32  1  0  0  0  0
 31 30  1  0  0  0  0
 32 33  2  0  0  0  0
 32 34  1  0  0  0  0
 33 38  1  0  0  0  0
 34 35  1  0  0  0  0
 36 34  1  0  0  0  0
 37 34  1  0  0  0  0
 38 39  2  0  0  0  0
 38 46  1  0  0  0  0
 39 40  1  0  0  0  0
 40 41  1  0  0  0  0
 40 42  2  0  0  0  0
 42 43  1  0  0  0  0
 44 42  1  0  0  0  0
 44 45  1  0  0  0  0
 46 44  2  0  0  0  0
 47 50  1  0  0  0  0
 47 49  1  0  0  0  0
 47 39  1  0  0  0  0
 48 47  1  0  0  0  0
 51 52  1  0  0  0  0
 53 51  1  0  0  0  0
 53 60  1  0  0  0  0
 54 53  2  0  0  0  0
 55 54  1  0  0  0  0
 55 57  2  0  0  0  0
 56 55  1  0  0  0  0
 57 58  1  0  0  0  0
 58 60  2  0  0  0  0
 58 59  1  0  0  0  0
 60 69  1  0  0  0  0
 61 54  1  0  0  0  0
 61 64  1  0  0  0  0
 62 61  1  0  0  0  0
 63 61  1  0  0  0  0
 65 57  1  0  0  0  0
 65 66  1  0  0  0  0
 67 65  1  0  0  0  0
 68 65  1  0  0  0  0
 69 70  1  0  0  0  0
 69 72  1  0  0  0  0
 71 69  1  0  0  0  0
M  END
