1,4
q = 0.0, confidence = 1.0

 27 28  0  0  1  0  0  0  0  0999 V2000
    0.8910    0.1283   -0.0301 N   0  0  0  0  0  2  0  0  0  0  0  0
    1.8666    2.1230   -0.1909 N   0  0  0  0  0  0  0  0  0  0  0  0
    1.9641    3.1339   -0.2827 H   0  0  0  0  0  0  0  0  0  0  0  0
   -1.6180    0.9762   -0.5747 N   0  0  0  0  0  2  0  0  0  0  0  0
    0.6850    1.4326   -0.1362 C   0  0  2  0  0  3  0  0  0  0  0  0
    2.2626   -0.0693   -0.0283 C   0  0  0  0  0  0  0  0  0  0  0  0
    3.0101   -1.2573    0.0323 C   0  0  0  0  0  0  0  0  0  0  0  0
    2.4956   -2.2278    0.0790 H   0  0  0  0  0  0  0  0  0  0  0  0
    4.4038   -1.1366    0.0094 C   0  0  0  0  0  0  0  0  0  0  0  0
    5.0253   -2.0430    0.0546 H   0  0  0  0  0  0  0  0  0  0  0  0
    5.0375    0.1278   -0.0763 C   0  0  0  0  0  0  0  0  0  0  0  0
    6.1364    0.1761   -0.0913 H   0  0  0  0  0  0  0  0  0  0  0  0
    4.3039    1.3202   -0.1486 C   0  0  0  0  0  0  0  0  0  0  0  0
    4.8040    2.2967   -0.2221 H   0  0  0  0  0  0  0  0  0  0  0  0
    2.9070    1.1974   -0.1242 C   0  0  0  0  0  0  0  0  0  0  0  0
   -0.6990    2.0176   -0.1432 C   0  0  0  0  0  0  0  0  0  0  0  0
   -0.9563    2.3231    0.8993 H   0  0  0  0  0  0  0  0  0  0  0  0
   -0.7370    2.9296   -0.7815 H   0  0  0  0  0  0  0  0  0  0  0  0
   -2.8857    1.1976   -0.6948 C   0  0  0  0  0  3  0  0  0  0  0  0
   -3.5160    2.5376   -0.4321 C   0  0  0  0  0  0  0  0  0  0  0  0
   -2.9232    3.3754   -0.8503 H   0  0  0  0  0  0  0  0  0  0  0  0
   -3.5560    2.6826    0.6710 H   0  0  0  0  0  0  0  0  0  0  0  0
   -4.5485    2.5970   -0.8212 H   0  0  0  0  0  0  0  0  0  0  0  0
   -3.7744    0.0176   -0.9434 C   0  0  0  0  0  0  0  0  0  0  0  0
   -3.1986   -0.8454   -1.3334 H   0  0  0  0  0  0  0  0  0  0  0  0
   -4.6204    0.2622   -1.6146 H   0  0  0  0  0  0  0  0  0  0  0  0
   -4.1918   -0.2882    0.0430 H   0  0  0  0  0  0  0  0  0  0  0  0
  1  6  1  0  0  0  0
  2  5  1  0  0  0  0
  2 15  1  0  0  0  0
  3  2  1  0  0  0  0
  4 16  1  0  0  0  0
  5 16  1  1  0  0  0
  5  1  1  0  0  0  0
  6  7  1  0  0  0  0
  7  8  1  0  0  0  0
  9  7  2  0  0  0  0
  9 10  1  0  0  0  0
 11  9  1  0  0  0  0
 12 11  1  0  0  0  0
 13 15  1  0  0  0  0
 13 11  2  0  0  0  0
 14 13  1  0  0  0  0
 15  6  2  0  0  0  0
 16 17  1  0  0  0  0
 18 16  1  0  0  0  0
 19  4  1  0  0  0  0
 19 20  1  0  0  0  0
 20 22  1  0  0  0  0
 21 20  1  0  0  0  0
 23 20  1  0  0  0  0
 24 19  1  0  0  0  0
 24 27  1  0  0  0  0
 25 24  1  0  0  0  0
 26 24  1  0  0  0  0
M  END
