3,13
q = 0.0, confidence = 1.0

 32 34  0  0  1  0  0  0  0  0999 V2000
   -1.4341    0.0001    0.8866 P   0  0  2  0  0  0  0  0  0  0  0  0
   -0.8689    1.4278   -0.1588 C   0  0  2  0  0  3  0  0  0  0  0  0
    0.4567    1.4828   -0.4455 N   0  0  0  0  0  2  0  0  0  0  0  0
    0.9265    2.5020   -1.2046 C   0  0  0  0  0  0  0  0  0  0  0  0
    1.9912    2.4339   -1.4736 H   0  0  0  0  0  0  0  0  0  0  0  0
    0.1123    3.5501   -1.6402 C   0  0  0  0  0  0  0  0  0  0  0  0
    0.5481    4.3623   -2.2389 H   0  0  0  0  0  0  0  0  0  0  0  0
   -1.2444    3.5399   -1.2888 C   0  0  0  0  0  0  0  0  0  0  0  0
   -1.9138    4.3584   -1.5945 H   0  0  0  0  0  0  0  0  0  0  0  0
   -1.7438    2.4595   -0.5524 C   0  0  0  0  0  0  0  0  0  0  0  0
   -2.8068    2.4073   -0.2829 H   0  0  0  0  0  0  0  0  0  0  0  0
   -0.8690   -1.4277   -0.1588 C   0  0  1  0  0  3  0  0  0  0  0  0
    0.4567   -1.4832   -0.4450 N   0  0  0  0  0  2  0  0  0  0  0  0
    0.9265   -2.5025   -1.2038 C   0  0  0  0  0  0  0  0  0  0  0  0
    1.9914   -2.4349   -1.4723 H   0  0  0  0  0  0  0  0  0  0  0  0
    0.1122   -3.5504   -1.6397 C   0  0  0  0  0  0  0  0  0  0  0  0
    0.5480   -4.3627   -2.2381 H   0  0  0  0  0  0  0  0  0  0  0  0
   -1.2447   -3.5397   -1.2890 C   0  0  0  0  0  0  0  0  0  0  0  0
   -1.9142   -4.3579   -1.5950 H   0  0  0  0  0  0  0  0  0  0  0  0
   -1.7440   -2.4592   -0.5527 C   0  0  0  0  0  0  0  0  0  0  0  0
   -2.8071   -2.4066   -0.2838 H   0  0  0  0  0  0  0  0  0  0  0  0
   -3.2524    0.0001    0.5462 C   0  0  0  0  0  0  0  0  0  0  0  0
   -3.8160    0.0001   -0.7510 C   0  0  0  0  0  0  0  0  0  0  0  0
   -3.1584    0.0001   -1.6342 H   0  0  0  0  0  0  0  0  0  0  0  0
   -5.2070    0.0000   -0.9180 C   0  0  0  0  0  0  0  0  0  0  0  0
   -5.6365    0.0001   -1.9315 H   0  0  0  0  0  0  0  0  0  0  0  0
   -6.0527   -0.0000    0.2059 C   0  0  0  0  0  0  0  0  0  0  0  0
   -7.1451   -0.0001    0.0715 H   0  0  0  0  0  0  0  0  0  0  0  0
   -5.5038   -0.0001    1.4963 C   0  0  0  0  0  0  0  0  0  0  0  0
   -6.1624   -0.0002    2.3779 H   0  0  0  0  0  0  0  0  0  0  0  0
   -4.1089   -0.0001    1.6654 C   0  0  0  0  0  0  0  0  0  0  0  0
   -3.6739   -0.0001    2.6774 H   0  0  0  0  0  0  0  0  0  0  0  0
  1 22  1  6  0  0  0
  2  1  1  1  0  0  0
  3  2  1  0  0  0  0
  4  3  1  0  0  0  0
  5  4  1  0  0  0  0
  6  8  1  0  0  0  0
  6  4  2  0  0  0  0
  7  6  1  0  0  0  0
  8 10  2  0  0  0  0
  9  8  1  0  0  0  0
 10 11  1  0  0  0  0
 10  2  1  0  0  0  0
 12  1  1  1  0  0  0
 13 12  1  0  0  0  0
 14 13  1  0  0  0  0
 15 14  1  0  0  0  0
 16 18  1  0  0  0  0
 16 14  2  0  0  0  0
 17 16  1  0  0  0  0
 18 20  2  0  0  0  0
 19 18  1  0  0  0  0
 20 21  1  0  0  0  0
 20 12  1  0  0  0  0
 22 31  1  0  0  0  0
 23 22  2  0  0  0  0
 24 23  1  0  0  0  0
 25 23  1  0  0  0  0
 25 27  2  0  0  0  0
 26 25  1  0  0  0  0
 27 29  1  0  0  0  0
 28 27  1  0  0  0  0
 29 31  2  0  0  0  0
 29 30  1  0  0  0  0
 31 32  1  0  0  0  0
M  END
