1,36
q = 0.0, confidence = 0.936

 66 70  0  0  1  0  0  0  0  0999 V2000
   -0.0000   -0.0980   -1.3748 N   0  0  0  0  0  2  0  0  0  0  0  0
   -1.1796   -0.6815   -1.7067 C   0  0  1  0  0  3  0  0  0  0  0  0
   -1.2074   -1.9120   -2.3807 C   0  0  0  0  0  0  0  0  0  0  0  0
    0.0000   -2.5366   -2.7158 C   0  0  0  0  0  0  0  0  0  0  0  0
    1.2074   -1.9120   -2.3807 C   0  0  0  0  0  0  0  0  0  0  0  0
    1.1796   -0.6815   -1.7067 C   0  0  0  0  0  0  0  0  0  0  0  0
    2.4589    0.0126   -1.2739 C   0  0  0  0  0  0  0  0  0  0  0  0
    2.9802   -0.4829    0.0001 N   0  0  0  0  0  0  0  0  0  0  0  0
   -2.4589    0.0126   -1.2739 C   0  0  0  0  0  0  0  0  0  0  0  0
    4.2795   -1.5648   -0.0000 S   0  0  0  0  0  0  0  0  0  0  0  0
    4.2361   -2.2723    1.2990 O   0  0  0  0  0  0  0  0  0  0  0  0
    4.2359   -2.2722   -1.2992 O   0  0  0  0  0  0  0  0  0  0  0  0
    5.7431   -0.5302   -0.0001 C   0  0  0  0  0  0  0  0  0  0  0  0
    6.2943   -0.1146    1.2227 C   0  0  0  0  0  0  0  0  0  0  0  0
    7.3929    0.7530    1.2112 C   0  0  0  0  0  0  0  0  0  0  0  0
    7.9543    1.2106   -0.0003 C   0  0  0  0  0  0  0  0  0  0  0  0
    7.3928    0.7529   -1.2116 C   0  0  0  0  0  0  0  0  0  0  0  0
    6.2942   -0.1147   -1.2230 C   0  0  0  0  0  0  0  0  0  0  0  0
    9.1110    2.1754   -0.0003 C   0  0  0  0  0  0  0  0  0  0  0  0
   -2.1835   -2.3723   -2.5902 H   0  0  0  0  0  0  0  0  0  0  0  0
    0.0000   -3.5080   -3.2325 H   0  0  0  0  0  0  0  0  0  0  0  0
    2.1835   -2.3723   -2.5902 H   0  0  0  0  0  0  0  0  0  0  0  0
    2.2657    1.1043   -1.1925 H   0  0  0  0  0  0  0  0  0  0  0  0
    3.2301   -0.1487   -2.0503 H   0  0  0  0  0  0  0  0  0  0  0  0
   -3.2301   -0.1487   -2.0503 H   0  0  0  0  0  0  0  0  0  0  0  0
   -2.2657    1.1043   -1.1925 H   0  0  0  0  0  0  0  0  0  0  0  0
    5.8769   -0.4924    2.1669 H   0  0  0  0  0  0  0  0  0  0  0  0
    7.8329    1.0773    2.1671 H   0  0  0  0  0  0  0  0  0  0  0  0
    7.8328    1.0772   -2.1676 H   0  0  0  0  0  0  0  0  0  0  0  0
    5.8767   -0.4925   -2.1671 H   0  0  0  0  0  0  0  0  0  0  0  0
    9.7460    2.0534   -0.8993 H   0  0  0  0  0  0  0  0  0  0  0  0
    8.7440    3.2245    0.0009 H   0  0  0  0  0  0  0  0  0  0  0  0
    9.7473    2.0519    0.8976 H   0  0  0  0  0  0  0  0  0  0  0  0
    2.4589    0.0124    1.2741 C   0  0  0  0  0  0  0  0  0  0  0  0
    1.1796   -0.6818    1.7067 C   0  0  1  0  0  3  0  0  0  0  0  0
    0.0000   -0.0982    1.3750 N   0  0  0  0  0  2  0  0  0  0  0  0
   -1.1796   -0.6817    1.7067 C   0  0  0  0  0  0  0  0  0  0  0  0
   -1.2074   -1.9123    2.3806 C   0  0  0  0  0  0  0  0  0  0  0  0
   -0.0000   -2.5370    2.7156 C   0  0  0  0  0  0  0  0  0  0  0  0
    1.2074   -1.9123    2.3806 C   0  0  0  0  0  0  0  0  0  0  0  0
    2.1835   -2.3727    2.5900 H   0  0  0  0  0  0  0  0  0  0  0  0
   -0.0000   -3.5085    3.2321 H   0  0  0  0  0  0  0  0  0  0  0  0
   -2.1835   -2.3727    2.5900 H   0  0  0  0  0  0  0  0  0  0  0  0
   -2.4589    0.0125    1.2740 C   0  0  0  0  0  0  0  0  0  0  0  0
   -2.9802   -0.4829    0.0001 N   0  0  0  0  0  0  0  0  0  0  0  0
   -4.2795   -1.5648    0.0000 S   0  0  0  0  0  0  0  0  0  0  0  0
   -4.2359   -2.2723   -1.2991 O   0  0  0  0  0  0  0  0  0  0  0  0
   -4.2360   -2.2722    1.2991 O   0  0  0  0  0  0  0  0  0  0  0  0
   -5.7431   -0.5302   -0.0001 C   0  0  0  0  0  0  0  0  0  0  0  0
   -6.2942   -0.1148   -1.2230 C   0  0  0  0  0  0  0  0  0  0  0  0
   -7.3928    0.7529   -1.2116 C   0  0  0  0  0  0  0  0  0  0  0  0
   -7.9543    1.2106   -0.0003 C   0  0  0  0  0  0  0  0  0  0  0  0
   -7.3929    0.7531    1.2112 C   0  0  0  0  0  0  0  0  0  0  0  0
   -6.2943   -0.1146    1.2227 C   0  0  0  0  0  0  0  0  0  0  0  0
   -5.8768   -0.4923    2.1669 H   0  0  0  0  0  0  0  0  0  0  0  0
   -7.8329    1.0774    2.1671 H   0  0  0  0  0  0  0  0  0  0  0  0
   -9.1109    2.1754   -0.0004 C   0  0  0  0  0  0  0  0  0  0  0  0
   -9.7461    2.0535    0.8985 H   0  0  0  0  0  0  0  0  0  0  0  0
   -8.7440    3.2245   -0.0016 H   0  0  0  0  0  0  0  0  0  0  0  0
   -9.7472    2.0519   -0.8984 H   0  0  0  0  0  0  0  0  0  0  0  0
   -7.8328    1.0771   -2.1676 H   0  0  0  0  0  0  0  0  0  0  0  0
   -5.8768   -0.4926   -2.1671 H   0  0  0  0  0  0  0  0  0  0  0  0
   -2.2657    1.1042    1.1928 H   0  0  0  0  0  0  0  0  0  0  0  0
   -3.2301   -0.1490    2.0505 H   0  0  0  0  0  0  0  0  0  0  0  0
    3.2301   -0.1490    2.0505 H   0  0  0  0  0  0  0  0  0  0  0  0
    2.2657    1.1041    1.1929 H   0  0  0  0  0  0  0  0  0  0  0  0
  2  3  1  1  0  0  0
  2  1  1  0  0  0  0
  2  9  1  0  0  0  0
  4  3  2  0  0  0  0
  4  5  1  0  0  0  0
  5  6  2  0  0  0  0
  6  1  1  0  0  0  0
  6  7  1  0  0  0  0
  7 23  1  0  0  0  0
  7  8  1  0  0  0  0
  8 34  1  0  0  0  0
  9 26  1  0  0  0  0
  9 45  1  0  0  0  0
 10  8  1  0  0  0  0
 10 11  2  0  0  0  0
 12 10  2  0  0  0  0
 13 10  1  0  0  0  0
 13 14  1  0  0  0  0
 14 27  1  0  0  0  0
 15 14  2  0  0  0  0
 15 28  1  0  0  0  0
 16 15  1  0  0  0  0
 17 16  2  0  0  0  0
 18 17  1  0  0  0  0
 18 13  2  0  0  0  0
 19 16  1  0  0  0  0
 19 32  1  0  0  0  0
 19 33  1  0  0  0  0
 20  3  1  0  0  0  0
 21  4  1  0  0  0  0
 22  5  1  0  0  0  0
 24  7  1  0  0  0  0
 25  9  1  0  0  0  0
 29 17  1  0  0  0  0
 30 18  1  0  0  0  0
 31 19  1  0  0  0  0
 34 35  1  0  0  0  0
 34 65  1  0  0  0  0
 35 36  1  6  0  0  0
 35 40  1  0  0  0  0
 36 37  1  0  0  0  0
 37 38  2  0  0  0  0
 38 43  1  0  0  0  0
 38 39  1  0  0  0  0
 39 42  1  0  0  0  0
 40 41  1  0  0  0  0
 40 39  2  0  0  0  0
 44 37  1  0  0  0  0
 44 64  1  0  0  0  0
 45 44  1  0  0  0  0
 46 45  1  0  0  0  0
 46 48  2  0  0  0  0
 47 46  2  0  0  0  0
 49 46  1  0  0  0  0
 49 54  1  0  0  0  0
 50 51  1  0  0  0  0
 50 49  2  0  0  0  0
 51 52  2  0  0  0  0
 52 53  1  0  0  0  0
 53 54  2  0  0  0  0
 53 56  1  0  0  0  0
 54 55  1  0  0  0  0
 57 52  1  0  0  0  0
 57 58  1  0  0  0  0
 59 57  1  0  0  0  0
 60 57  1  0  0  0  0
 61 51  1  0  0  0  0
 62 50  1  0  0  0  0
 63 44  1  0  0  0  0
 66 34  1  0  0  0  0
M  END
