3,4
q = 0.0, confidence = 0.99

 66 69  0  0  1  0  0  0  0  0999 V2000
   -6.4690   -2.1010   -0.3521 F   0  0  0  0  0  0  0  0  0  0  0  0
    6.4690    2.1011   -0.3532 F   0  0  0  0  0  0  0  0  0  0  0  0
   -1.2248   -0.4098    0.2381 N   0  0  0  0  0  2  0  0  0  0  0  0
    1.2248    0.4100    0.2378 N   0  0  0  0  0  2  0  0  0  0  0  0
   -2.5759   -0.8310    0.0861 C   0  0  0  0  0  0  0  0  0  0  0  0
   -2.9092   -2.1698    0.3508 C   0  0  0  0  0  0  0  0  0  0  0  0
   -2.1135   -2.8623    0.6600 H   0  0  0  0  0  0  0  0  0  0  0  0
   -4.2267   -2.6183    0.2028 C   0  0  0  0  0  0  0  0  0  0  0  0
   -4.5092   -3.6627    0.3938 H   0  0  0  0  0  0  0  0  0  0  0  0
   -5.1936   -1.6972   -0.2108 C   0  0  0  0  0  0  0  0  0  0  0  0
   -4.8736   -0.3625   -0.4873 C   0  0  0  0  0  0  0  0  0  0  0  0
   -5.6776    0.3053   -0.8228 H   0  0  0  0  0  0  0  0  0  0  0  0
   -3.5542    0.1000   -0.3566 C   0  0  0  0  0  0  0  0  0  0  0  0
   -3.1511    1.5303   -0.6867 C   0  0  1  0  0  0  0  0  0  0  0  0
   -2.3393    1.4286   -1.4417 H   0  0  0  0  0  0  0  0  0  0  0  0
   -4.2654    2.3667   -1.3297 C   0  0  0  0  0  0  0  0  0  0  0  0
   -4.6381    1.8848   -2.2553 H   0  0  0  0  0  0  0  0  0  0  0  0
   -3.8731    3.3659   -1.6000 H   0  0  0  0  0  0  0  0  0  0  0  0
   -5.1199    2.5222   -0.6393 H   0  0  0  0  0  0  0  0  0  0  0  0
   -2.5567    2.2565    0.5155 C   0  0  0  0  0  0  0  0  0  0  0  0
   -3.2172    2.2656    1.7601 C   0  0  0  0  0  0  0  0  0  0  0  0
   -4.1684    1.7201    1.8691 H   0  0  0  0  0  0  0  0  0  0  0  0
   -2.6717    2.9469    2.8596 C   0  0  0  0  0  0  0  0  0  0  0  0
   -3.2022    2.9429    3.8244 H   0  0  0  0  0  0  0  0  0  0  0  0
   -1.4520    3.6318    2.7304 C   0  0  0  0  0  0  0  0  0  0  0  0
   -1.0235    4.1687    3.5906 H   0  0  0  0  0  0  0  0  0  0  0  0
   -0.7920    3.6395    1.4897 C   0  0  0  0  0  0  0  0  0  0  0  0
    0.1555    4.1892    1.3738 H   0  0  0  0  0  0  0  0  0  0  0  0
   -1.3413    2.9597    0.3918 C   0  0  0  0  0  0  0  0  0  0  0  0
   -0.8134    2.9520   -0.5755 H   0  0  0  0  0  0  0  0  0  0  0  0
   -0.6953   -0.2346    1.4317 C   0  0  0  0  0  0  0  0  0  0  0  0
   -1.4101   -0.4747    2.7232 C   0  0  0  0  0  0  0  0  0  0  0  0
   -2.4894   -0.6372    2.5633 H   0  0  0  0  0  0  0  0  0  0  0  0
   -1.2740    0.3870    3.4045 H   0  0  0  0  0  0  0  0  0  0  0  0
   -0.9882   -1.3724    3.2241 H   0  0  0  0  0  0  0  0  0  0  0  0
    0.6954    0.2358    1.4316 C   0  0  0  0  0  0  0  0  0  0  0  0
    1.4101    0.4771    2.7228 C   0  0  0  0  0  0  0  0  0  0  0  0
    2.4894    0.6390    2.5628 H   0  0  0  0  0  0  0  0  0  0  0  0
    1.2736   -0.3837    3.4051 H   0  0  0  0  0  0  0  0  0  0  0  0
    0.9885    1.3756    3.2226 H   0  0  0  0  0  0  0  0  0  0  0  0
    2.5760    0.8312    0.0856 C   0  0  0  0  0  0  0  0  0  0  0  0
    3.5544   -0.1001   -0.3563 C   0  0  0  0  0  0  0  0  0  0  0  0
    4.8737    0.3624   -0.4872 C   0  0  0  0  0  0  0  0  0  0  0  0
    5.6779   -0.3056   -0.8220 H   0  0  0  0  0  0  0  0  0  0  0  0
    5.1937    1.6973   -0.2117 C   0  0  0  0  0  0  0  0  0  0  0  0
    4.2266    2.6187    0.2010 C   0  0  0  0  0  0  0  0  0  0  0  0
    4.5090    3.6633    0.3912 H   0  0  0  0  0  0  0  0  0  0  0  0
    2.9091    2.1702    0.3492 C   0  0  0  0  0  0  0  0  0  0  0  0
    2.1133    2.8629    0.6578 H   0  0  0  0  0  0  0  0  0  0  0  0
    3.1515   -1.5308   -0.6854 C   0  0  1  0  0  0  0  0  0  0  0  0
    2.3401   -1.4297   -1.4408 H   0  0  0  0  0  0  0  0  0  0  0  0
    4.2662   -2.3675   -1.3273 C   0  0  0  0  0  0  0  0  0  0  0  0
    4.6391   -1.8864   -2.2531 H   0  0  0  0  0  0  0  0  0  0  0  0
    3.8740   -3.3670   -1.5970 H   0  0  0  0  0  0  0  0  0  0  0  0
    5.1204   -2.5224   -0.6364 H   0  0  0  0  0  0  0  0  0  0  0  0
    2.5567   -2.2560    0.5172 C   0  0  0  0  0  0  0  0  0  0  0  0
    3.2167   -2.2641    1.7620 C   0  0  0  0  0  0  0  0  0  0  0  0
    4.1678   -1.7185    1.8710 H   0  0  0  0  0  0  0  0  0  0  0  0
    2.6706   -2.9445    2.8619 C   0  0  0  0  0  0  0  0  0  0  0  0
    3.2008   -2.9398    3.8269 H   0  0  0  0  0  0  0  0  0  0  0  0
    1.4511   -3.6295    2.7327 C   0  0  0  0  0  0  0  0  0  0  0  0
    1.0222   -4.1657    3.5931 H   0  0  0  0  0  0  0  0  0  0  0  0
    0.7915   -3.6382    1.4917 C   0  0  0  0  0  0  0  0  0  0  0  0
   -0.1559   -4.1880    1.3759 H   0  0  0  0  0  0  0  0  0  0  0  0
    1.3414   -2.9593    0.3935 C   0  0  0  0  0  0  0  0  0  0  0  0
    0.8139   -2.9523   -0.5741 H   0  0  0  0  0  0  0  0  0  0  0  0
  1 10  1  0  0  0  0
  2 45  1  0  0  0  0
  3 31  1  0  0  0  0
  4 36  1  0  0  0  0
  5  3  1  0  0  0  0
  5  6  1  0  0  0  0
  6  7  1  0  0  0  0
  8  6  2  0  0  0  0
  8  9  1  0  0  0  0
 10  8  1  0  0  0  0
 11 13  1  0  0  0  0
 11 10  2  0  0  0  0
 12 11  1  0  0  0  0
 13  5  2  0  0  0  0
 14 15  1  6  0  0  0
 14 13  1  0  0  0  0
 14 20  1  0  0  0  0
 16 14  1  0  0  0  0
 16 19  1  0  0  0  0
 17 16  1  0  0  0  0
 18 16  1  0  0  0  0
 20 21  1  0  0  0  0
 21 22  1  0  0  0  0
 21 23  2  0  0  0  0
 23 24  1  0  0  0  0
 25 23  1  0  0  0  0
 25 26  1  0  0  0  0
 27 25  2  0  0  0  0
 28 27  1  0  0  0  0
 29 20  2  0  0  0  0
 29 27  1  0  0  0  0
 30 29  1  0  0  0  0
 31 32  1  0  0  0  0
 32 35  1  0  0  0  0
 32 34  1  0  0  0  0
 33 32  1  0  0  0  0
 36 31  2  0  0  0  0
 36 37  1  0  0  0  0
 37 40  1  0  0  0  0
 37 39  1  0  0  0  0
 38 37  1  0  0  0  0
 41  4  1  0  0  0  0
 41 48  1  0  0  0  0
 42 41  2  0  0  0  0
 43 42  1  0  0  0  0
 43 45  2  0  0  0  0
 44 43  1  0  0  0  0
 45 46  1  0  0  0  0
 46 48  2  0  0  0  0
 46 47  1  0  0  0  0
 48 49  1  0  0  0  0
 50 51  1  6  0  0  0
 50 42  1  0  0  0  0
 50 56  1  0  0  0  0
 52 50  1  0  0  0  0
 52 55  1  0  0  0  0
 53 52  1  0  0  0  0
 54 52  1  0  0  0  0
 56 57  1  0  0  0  0
 57 58  1  0  0  0  0
 57 59  2  0  0  0  0
 59 60  1  0  0  0  0
 61 59  1  0  0  0  0
 61 62  1  0  0  0  0
 63 61  2  0  0  0  0
 64 63  1  0  0  0  0
 65 56  2  0  0  0  0
 65 63  1  0  0  0  0
 66 65  1  0  0  0  0
M  END
