1,3
q = 0.0, confidence = 1.0

 27 28  0  0  1  0  0  0  0  0999 V2000
   -0.9172   -1.0340    0.1087 N   0  0  0  0  0  2  0  0  0  0  0  0
   -1.8831   -0.3015   -0.5041 N   0  0  0  0  0  0  0  0  0  0  0  0
    0.3749    1.5053    0.1445 N   0  0  0  0  0  2  0  0  0  0  0  0
   -0.7877   -2.9222    1.7276 C   0  0  0  0  0  0  0  0  0  0  0  0
    0.1025   -3.2998    1.1857 H   0  0  0  0  0  0  0  0  0  0  0  0
   -1.4400   -3.7622    2.0301 H   0  0  0  0  0  0  0  0  0  0  0  0
   -0.4228   -2.4171    2.6465 H   0  0  0  0  0  0  0  0  0  0  0  0
   -1.5371   -1.9635    0.8653 C   0  0  1  0  0  3  0  0  0  0  0  0
   -2.9388   -1.8090    0.7109 C   0  0  0  0  0  0  0  0  0  0  0  0
   -3.7186   -2.4162    1.1817 H   0  0  0  0  0  0  0  0  0  0  0  0
   -3.1354   -0.7349   -0.1580 C   0  0  0  0  0  0  0  0  0  0  0  0
   -4.3878   -0.1134   -0.6809 C   0  0  0  0  0  0  0  0  0  0  0  0
   -4.4544   -0.1722   -1.7876 H   0  0  0  0  0  0  0  0  0  0  0  0
   -4.4766    0.9557   -0.3935 H   0  0  0  0  0  0  0  0  0  0  0  0
   -5.2649   -0.6428   -0.2662 H   0  0  0  0  0  0  0  0  0  0  0  0
   -1.4857    0.8519   -1.2935 C   0  0  0  0  0  0  0  0  0  0  0  0
   -2.3906    1.2762   -1.7629 H   0  0  0  0  0  0  0  0  0  0  0  0
   -0.7935    0.5082   -2.0933 H   0  0  0  0  0  0  0  0  0  0  0  0
   -0.7856    1.8926   -0.4449 C   0  0  2  0  0  3  0  0  0  0  0  0
   -1.2892    3.1892   -0.2769 C   0  0  0  0  0  0  0  0  0  0  0  0
   -2.2293    3.4742   -0.7715 H   0  0  0  0  0  0  0  0  0  0  0  0
   -0.5789    4.1065    0.5114 C   0  0  0  0  0  0  0  0  0  0  0  0
   -0.9577    5.1292    0.6552 H   0  0  0  0  0  0  0  0  0  0  0  0
    0.6215    3.6945    1.1048 C   0  0  0  0  0  0  0  0  0  0  0  0
    1.2182    4.3775    1.7258 H   0  0  0  0  0  0  0  0  0  0  0  0
    1.0728    2.3864    0.8969 C   0  0  0  0  0  0  0  0  0  0  0  0
    2.0301    2.0083    1.2877 H   0  0  0  0  0  0  0  0  0  0  0  0
  1  8  1  0  0  0  0
  2 11  1  0  0  0  0
  2  1  1  0  0  0  0
  3 26  1  0  0  0  0
  4  6  1  0  0  0  0
  4  7  1  0  0  0  0
  5  4  1  0  0  0  0
  8  4  1  1  0  0  0
  9  8  1  0  0  0  0
  9 10  1  0  0  0  0
 11  9  2  0  0  0  0
 12 14  1  0  0  0  0
 12 15  1  0  0  0  0
 12 11  1  0  0  0  0
 13 12  1  0  0  0  0
 16  2  1  0  0  0  0
 17 16  1  0  0  0  0
 18 16  1  0  0  0  0
 19 16  1  6  0  0  0
 19 20  1  0  0  0  0
 19  3  1  0  0  0  0
 20 22  2  0  0  0  0
 21 20  1  0  0  0  0
 22 23  1  0  0  0  0
 22 24  1  0  0  0  0
 24 25  1  0  0  0  0
 26 24  2  0  0  0  0
 26 27  1  0  0  0  0
M  END
