1,18
q = -1.0, confidence = 0.0

 40 42  0  0  1  0  0  0  0  0999 V2000
    0.3485    1.5919    1.2323 N   0  0  0  0  0  2  0  0  0  0  0  0
    1.4560    1.6846    2.1817 C   0  0  0  0  0  0  0  0  0  0  0  0
    2.2905    1.0259    1.8699 H   0  0  0  0  0  0  0  0  0  0  0  0
    1.1216    1.3540    3.1902 H   0  0  0  0  0  0  0  0  0  0  0  0
    1.8574    3.1746    2.1317 C   0  0  2  0  0  0  0  0  0  0  0  0
    0.6852    3.7932    1.5095 O   0  0  0  0  0  0  0  0  0  0  0  0
   -0.0190    2.8050    0.9071 C   0  0  2  0  0  3  0  0  0  0  0  0
   -1.0862    3.2193    0.0016 C   0  0  0  0  0  0  0  0  0  0  0  0
   -1.3567    4.6109   -0.0644 C   0  0  0  0  0  0  0  0  0  0  0  0
   -0.7381    5.2808    0.5474 H   0  0  0  0  0  0  0  0  0  0  0  0
   -2.3730    5.1270   -0.8627 C   0  0  0  0  0  0  0  0  0  0  0  0
   -2.5659    6.2090   -0.8896 H   0  0  0  0  0  0  0  0  0  0  0  0
   -3.1375    4.2356   -1.6381 C   0  0  0  0  0  0  0  0  0  0  0  0
   -3.9415    4.6164   -2.2870 H   0  0  0  0  0  0  0  0  0  0  0  0
   -2.8837    2.8656   -1.6165 C   0  0  0  0  0  0  0  0  0  0  0  0
   -3.4602    2.1964   -2.2669 H   0  0  0  0  0  0  0  0  0  0  0  0
   -1.8558    2.3051   -0.8057 C   0  0  0  0  0  0  0  0  0  0  0  0
   -1.5976    0.9418   -0.7614 N   0  0  0  0  0  2  0  0  0  0  0  0
   -2.5702   -0.1838   -1.5046 S   0  0  0  0  0  0  0  0  0  0  0  0
   -2.9641    0.1104   -2.9029 O   0  0  0  0  0  0  0  0  0  0  0  0
   -1.8611   -1.4707   -1.2387 O   0  0  0  0  0  0  0  0  0  0  0  0
   -4.0902   -0.2051   -0.5278 C   0  0  0  0  0  0  0  0  0  0  0  0
   -4.1631    0.3797    0.7442 C   0  0  0  0  0  0  0  0  0  0  0  0
   -3.3077    0.9499    1.1336 H   0  0  0  0  0  0  0  0  0  0  0  0
   -5.3396    0.2399    1.4962 C   0  0  0  0  0  0  0  0  0  0  0  0
   -5.4020    0.7067    2.4920 H   0  0  0  0  0  0  0  0  0  0  0  0
   -6.4435   -0.4829    1.0014 C   0  0  0  0  0  0  0  0  0  0  0  0
   -6.3429   -1.0538   -0.2872 C   0  0  0  0  0  0  0  0  0  0  0  0
   -7.1971   -1.6158   -0.6974 H   0  0  0  0  0  0  0  0  0  0  0  0
   -5.1824   -0.9135   -1.0555 C   0  0  0  0  0  0  0  0  0  0  0  0
   -5.1126   -1.3438   -2.0654 H   0  0  0  0  0  0  0  0  0  0  0  0
   -7.7117   -0.6215    1.8040 C   0  0  0  0  0  0  0  0  0  0  0  0
   -7.5713   -0.2965    2.8528 H   0  0  0  0  0  0  0  0  0  0  0  0
   -8.0740   -1.6696    1.8117 H   0  0  0  0  0  0  0  0  0  0  0  0
   -8.5263   -0.0043    1.3688 H   0  0  0  0  0  0  0  0  0  0  0  0
    1.9486    3.6302    3.1378 H   0  0  0  0  0  0  0  0  0  0  0  0
    3.0807    3.4516    1.2723 C   0  0  0  0  0  0  0  0  0  0  0  0
    2.9481    2.9907    0.2723 H   0  0  0  0  0  0  0  0  0  0  0  0
    3.9816    3.0076    1.7432 H   0  0  0  0  0  0  0  0  0  0  0  0
    3.2432    4.5406    1.1551 H   0  0  0  0  0  0  0  0  0  0  0  0
  1  2  1  0  0  0  0
  2  4  1  0  0  0  0
  3  2  1  0  0  0  0
  5  2  1  0  0  0  0
  5 36  1  1  0  0  0
  6  5  1  0  0  0  0
  7  8  1  1  0  0  0
  7  1  1  0  0  0  0
  7  6  1  0  0  0  0
  9  8  1  0  0  0  0
  9 10  1  0  0  0  0
 11  9  2  0  0  0  0
 12 11  1  0  0  0  0
 13 15  2  0  0  0  0
 13 11  1  0  0  0  0
 14 13  1  0  0  0  0
 15 17  1  0  0  0  0
 16 15  1  0  0  0  0
 17 18  1  0  0  0  0
 17  8  2  0  0  0  0
 19 21  2  0  0  0  0
 19 18  1  0  0  0  0
 19 22  1  0  0  0  0
 20 19  2  0  0  0  0
 22 23  1  0  0  0  0
 23 24  1  0  0  0  0
 23 25  2  0  0  0  0
 25 26  1  0  0  0  0
 27 25  1  0  0  0  0
 27 32  1  0  0  0  0
 28 27  2  0  0  0  0
 29 28  1  0  0  0  0
 30 22  2  0  0  0  0
 30 28  1  0  0  0  0
 31 30  1  0  0  0  0
 32 34  1  0  0  0  0
 32 33  1  0  0  0  0
 35 32  1  0  0  0  0
 37 39  1  0  0  0  0
 37  5  1  0  0  0  0
 38 37  1  0  0  0  0
 40 37  1  0  0  0  0
M  END
