2,3
q = -1.0

 37 39  0  0  1  0  0  0  0  0999 V2000
   -1.6292   -0.8396   -1.1718 S   0  0  0  0  0  0  0  0  0  0  0  0
   -0.2469    2.3649    1.5633 N   0  0  0  0  0  2  0  0  0  0  0  0
   -1.5308    0.6000   -0.3464 N   0  0  0  0  0  2  0  0  0  0  0  0
   -0.6522   -1.7081   -0.4427 O   0  0  0  0  0  0  0  0  0  0  0  0
   -1.4908   -0.7437   -2.6462 O   0  0  0  0  0  0  0  0  0  0  0  0
   -0.7084    4.5338    1.2135 O   0  0  0  0  0  0  0  0  0  0  0  0
    0.7776    3.0910    2.3207 C   0  0  0  0  0  0  0  0  0  0  0  0
    1.7593    2.9652    1.8122 H   0  0  0  0  0  0  0  0  0  0  0  0
    0.8748    2.6877    3.3483 H   0  0  0  0  0  0  0  0  0  0  0  0
    0.2694    4.5425    2.2814 C   0  0  0  0  0  0  0  0  0  0  0  0
   -0.2452    4.8504    3.2171 H   0  0  0  0  0  0  0  0  0  0  0  0
    1.0455    5.2897    2.0302 H   0  0  0  0  0  0  0  0  0  0  0  0
   -0.9702    3.2365    0.9120 C   0  0  1  0  0  3  0  0  0  0  0  0
   -1.9922    3.0058   -0.1054 C   0  0  0  0  0  0  0  0  0  0  0  0
   -2.7568    4.1352   -0.4985 C   0  0  0  0  0  0  0  0  0  0  0  0
   -2.5616    5.0864    0.0140 H   0  0  0  0  0  0  0  0  0  0  0  0
   -3.7195    4.0644   -1.5008 C   0  0  0  0  0  0  0  0  0  0  0  0
   -4.2998    4.9551   -1.7808 H   0  0  0  0  0  0  0  0  0  0  0  0
   -3.9162    2.8357   -2.1571 C   0  0  0  0  0  0  0  0  0  0  0  0
   -4.6536    2.7535   -2.9706 H   0  0  0  0  0  0  0  0  0  0  0  0
   -3.1815    1.7078   -1.7987 C   0  0  0  0  0  0  0  0  0  0  0  0
   -3.3301    0.7757   -2.3565 H   0  0  0  0  0  0  0  0  0  0  0  0
   -2.2125    1.7368   -0.7547 C   0  0  0  0  0  0  0  0  0  0  0  0
   -3.2809   -1.4833   -0.8407 C   0  0  0  0  0  0  0  0  0  0  0  0
   -3.9925   -1.1017    0.3049 C   0  0  0  0  0  0  0  0  0  0  0  0
   -3.5714   -0.3438    0.9809 H   0  0  0  0  0  0  0  0  0  0  0  0
   -5.2482   -1.6749    0.5520 C   0  0  0  0  0  0  0  0  0  0  0  0
   -5.8155   -1.3691    1.4452 H   0  0  0  0  0  0  0  0  0  0  0  0
   -5.8030   -2.6283   -0.3256 C   0  0  0  0  0  0  0  0  0  0  0  0
   -5.0642   -2.9875   -1.4747 C   0  0  0  0  0  0  0  0  0  0  0  0
   -5.4834   -3.7241   -2.1784 H   0  0  0  0  0  0  0  0  0  0  0  0
   -3.8138   -2.4192   -1.7417 C   0  0  0  0  0  0  0  0  0  0  0  0
   -3.2466   -2.6805   -2.6469 H   0  0  0  0  0  0  0  0  0  0  0  0
   -7.1584   -3.2347   -0.0672 C   0  0  0  0  0  0  0  0  0  0  0  0
   -7.5480   -2.9587    0.9314 H   0  0  0  0  0  0  0  0  0  0  0  0
   -7.1241   -4.3416   -0.1303 H   0  0  0  0  0  0  0  0  0  0  0  0
   -7.8976   -2.8940   -0.8228 H   0  0  0  0  0  0  0  0  0  0  0  0
  1 24  1  0  0  0  0
  1  4  2  0  0  0  0
  1  3  1  0  0  0  0
  2  7  1  0  0  0  0
  5  1  2  0  0  0  0
  6 10  1  0  0  0  0
  7  9  1  0  0  0  0
  8  7  1  0  0  0  0
 10  7  1  0  0  0  0
 10 11  1  0  0  0  0
 12 10  1  0  0  0  0
 13 14  1  6  0  0  0
 13  6  1  0  0  0  0
 13  2  1  0  0  0  0
 15 14  1  0  0  0  0
 15 16  1  0  0  0  0
 17 15  2  0  0  0  0
 18 17  1  0  0  0  0
 19 21  2  0  0  0  0
 19 17  1  0  0  0  0
 20 19  1  0  0  0  0
 21 23  1  0  0  0  0
 22 21  1  0  0  0  0
 23  3  1  0  0  0  0
 23 14  2  0  0  0  0
 24 25  1  0  0  0  0
 25 27  2  0  0  0  0
 25 26  1  0  0  0  0
 27 28  1  0  0  0  0
 29 34  1  0  0  0  0
 29 27  1  0  0  0  0
 30 29  2  0  0  0  0
 31 30  1  0  0  0  0
 32 30  1  0  0  0  0
 32 24  2  0  0  0  0
 33 32  1  0  0  0  0
 34 35  1  0  0  0  0
 36 34  1  0  0  0  0
 37 34  1  0  0  0  0
M  END
