40,41
q = 0.0, confidence = 0.998

 42 44  0  0  1  0  0  0  0  0999 V2000
   -1.7577   -3.3488    0.2741 C   0  0  0  0  0  3  0  0  0  0  0  0
   -2.5433   -3.5833   -0.4622 H   0  0  0  0  0  0  0  0  0  0  0  0
   -1.0332   -4.3595    0.9237 C   0  0  0  0  0  0  0  0  0  0  0  0
   -1.2494   -5.4164    0.7132 H   0  0  0  0  0  0  0  0  0  0  0  0
   -0.0329   -3.9833    1.8305 C   0  0  0  0  0  0  0  0  0  0  0  0
    0.5635   -4.7448    2.3546 H   0  0  0  0  0  0  0  0  0  0  0  0
    0.2068   -2.6216    2.0588 C   0  0  0  0  0  0  0  0  0  0  0  0
    0.9949   -2.3051    2.7546 H   0  0  0  0  0  0  0  0  0  0  0  0
   -0.5656   -1.6665    1.3701 C   0  0  0  0  0  0  0  0  0  0  0  0
   -0.3525   -0.1975    1.5133 C   0  0  2  0  0  3  0  0  0  0  0  0
    0.6097    0.2937    2.5548 C   0  0  0  0  0  0  0  0  0  0  0  0
    0.5597    1.3927    2.6536 H   0  0  0  0  0  0  0  0  0  0  0  0
    0.3706   -0.1655    3.5360 H   0  0  0  0  0  0  0  0  0  0  0  0
    1.6524    0.0163    2.2993 H   0  0  0  0  0  0  0  0  0  0  0  0
   -0.9039    1.9321    0.5737 C   0  0  0  0  0  0  0  0  0  0  0  0
   -2.0215    2.7889    0.6023 C   0  0  0  0  0  0  0  0  0  0  0  0
   -3.0088    2.3462    0.8032 H   0  0  0  0  0  0  0  0  0  0  0  0
   -1.8592    4.1528    0.3376 C   0  0  0  0  0  0  0  0  0  0  0  0
   -2.7311    4.8221    0.3741 H   0  0  0  0  0  0  0  0  0  0  0  0
   -0.5912    4.6592   -0.0067 C   0  0  0  0  0  0  0  0  0  0  0  0
   -0.4714    5.7281   -0.2395 H   0  0  0  0  0  0  0  0  0  0  0  0
    0.5170    3.8099   -0.0877 C   0  0  0  0  0  0  0  0  0  0  0  0
    1.4882    4.1982   -0.4243 H   0  0  0  0  0  0  0  0  0  0  0  0
    0.3942    2.4254    0.1961 C   0  0  0  0  0  0  0  0  0  0  0  0
    2.6361    1.5133    0.1375 C   0  0  0  0  0  0  0  0  0  0  0  0
    3.4127    2.6014    0.8282 C   0  0  0  0  0  0  0  0  0  0  0  0
    3.8777    3.2768    0.0785 H   0  0  0  0  0  0  0  0  0  0  0  0
    4.2522    2.1563    1.3942 H   0  0  0  0  0  0  0  0  0  0  0  0
    2.7606    3.2107    1.4825 H   0  0  0  0  0  0  0  0  0  0  0  0
    3.3854    0.3175   -0.3577 C   0  0  0  0  0  0  0  0  0  0  0  0
    2.7104   -0.6789   -1.1044 C   0  0  0  0  0  0  0  0  0  0  0  0
    1.6391   -0.5641   -1.3408 H   0  0  0  0  0  0  0  0  0  0  0  0
    3.4422   -1.7894   -1.5357 C   0  0  0  0  0  0  0  0  0  0  0  0
    2.9464   -2.5782   -2.1223 H   0  0  0  0  0  0  0  0  0  0  0  0
    4.8080   -1.8723   -1.2180 C   0  0  0  0  0  0  0  0  0  0  0  0
    5.4212   -2.7272   -1.5406 H   0  0  0  0  0  0  0  0  0  0  0  0
    5.3847   -0.8259   -0.4783 C   0  0  0  0  0  0  0  0  0  0  0  0
    6.4575   -0.8562   -0.2152 H   0  0  0  0  0  0  0  0  0  0  0  0
    1.3580    1.4784   -0.0467 N   0  0  0  0  0  0  0  0  0  0  0  0
   -1.0885    0.5604    0.7543 N   0  0  0  0  0  2  0  0  0  0  0  0
   -1.5290   -2.0505    0.4997 N   0  0  0  0  0  2  0  0  0  0  0  0
    4.6989    0.2446   -0.0550 N   0  0  0  0  0  0  0  0  0  0  0  0
  1 41  1  0  0  0  0
  1  3  1  0  0  0  0
  2  1  1  0  0  0  0
  3  5  2  0  0  0  0
  4  3  1  0  0  0  0
  5  7  1  0  0  0  0
  5  6  1  0  0  0  0
  7  8  1  0  0  0  0
  9 10  1  0  0  0  0
  9  7  2  0  0  0  0
 10 40  1  1  0  0  0
 10 11  1  0  0  0  0
 11 12  1  0  0  0  0
 11 13  1  0  0  0  0
 14 11  1  0  0  0  0
 15 16  1  0  0  0  0
 15 40  1  0  0  0  0
 16 17  1  0  0  0  0
 18 19  1  0  0  0  0
 18 16  2  0  0  0  0
 20 18  1  0  0  0  0
 21 20  1  0  0  0  0
 22 20  2  0  0  0  0
 22 24  1  0  0  0  0
 23 22  1  0  0  0  0
 24 15  2  0  0  0  0
 25 26  1  0  0  0  0
 26 28  1  0  0  0  0
 26 29  1  0  0  0  0
 27 26  1  0  0  0  0
 30 42  1  0  0  0  0
 30 25  1  0  0  0  0
 31 30  2  0  0  0  0
 32 31  1  0  0  0  0
 33 35  2  0  0  0  0
 33 31  1  0  0  0  0
 34 33  1  0  0  0  0
 35 37  1  0  0  0  0
 36 35  1  0  0  0  0
 37 38  1  0  0  0  0
 37 42  2  0  0  0  0
 39 25  2  0  0  0  0
 39 24  1  0  0  0  0
 41  9  1  0  0  0  0
M  END
