42,43
q = 0.0, confidence = 1.0

 45 47  0  0  1  0  0  0  0  0999 V2000
    1.3098   -3.7646    0.2186 C   0  0  0  0  0  3  0  0  0  0  0  0
    2.0728   -4.0758   -0.5132 H   0  0  0  0  0  0  0  0  0  0  0  0
    0.4646   -4.6959    0.8404 C   0  0  0  0  0  0  0  0  0  0  0  0
    0.5587   -5.7667    0.6112 H   0  0  0  0  0  0  0  0  0  0  0  0
   -0.4961   -4.2219    1.7442 C   0  0  0  0  0  0  0  0  0  0  0  0
   -1.1840   -4.9180    2.2470 H   0  0  0  0  0  0  0  0  0  0  0  0
   -0.5778   -2.8462    1.9976 C   0  0  0  0  0  0  0  0  0  0  0  0
   -1.3316   -2.4530    2.6923 H   0  0  0  0  0  0  0  0  0  0  0  0
    0.3091   -1.9744    1.3362 C   0  0  0  0  0  0  0  0  0  0  0  0
    0.2701   -0.4947    1.5110 C   0  0  1  0  0  3  0  0  0  0  0  0
    1.0915    1.5709    0.6264 C   0  0  0  0  0  0  0  0  0  0  0  0
    2.3060    2.2856    0.6541 C   0  0  0  0  0  0  0  0  0  0  0  0
    3.2339    1.7238    0.8406 H   0  0  0  0  0  0  0  0  0  0  0  0
    2.3136    3.6593    0.4104 C   0  0  0  0  0  0  0  0  0  0  0  0
    3.2668    4.2088    0.4487 H   0  0  0  0  0  0  0  0  0  0  0  0
    1.1231    4.3517    0.0793 C   0  0  0  0  0  0  0  0  0  0  0  0
   -0.0760    3.6280    0.0013 C   0  0  0  0  0  0  0  0  0  0  0  0
   -0.9944    4.1372   -0.3244 H   0  0  0  0  0  0  0  0  0  0  0  0
   -0.1307    2.2351    0.2641 C   0  0  0  0  0  0  0  0  0  0  0  0
    1.1599    5.8300   -0.2128 C   0  0  0  0  0  0  0  0  0  0  0  0
    1.5552    6.3999    0.6538 H   0  0  0  0  0  0  0  0  0  0  0  0
    0.1555    6.2275   -0.4538 H   0  0  0  0  0  0  0  0  0  0  0  0
    1.8287    6.0501   -1.0710 H   0  0  0  0  0  0  0  0  0  0  0  0
   -0.6389    0.0841    2.5556 C   0  0  0  0  0  0  0  0  0  0  0  0
   -0.4545    1.1655    2.6849 H   0  0  0  0  0  0  0  0  0  0  0  0
   -0.4702   -0.4263    3.5262 H   0  0  0  0  0  0  0  0  0  0  0  0
   -1.7051   -0.0543    2.2841 H   0  0  0  0  0  0  0  0  0  0  0  0
   -2.4740    1.6261    0.1834 C   0  0  0  0  0  0  0  0  0  0  0  0
   -3.1075    2.7938    0.8902 C   0  0  0  0  0  0  0  0  0  0  0  0
   -4.0015    2.4517    1.4444 H   0  0  0  0  0  0  0  0  0  0  0  0
   -3.4758    3.5372    0.1511 H   0  0  0  0  0  0  0  0  0  0  0  0
   -2.3860    3.3011    1.5583 H   0  0  0  0  0  0  0  0  0  0  0  0
   -3.3687    0.5479   -0.3392 C   0  0  0  0  0  0  0  0  0  0  0  0
   -2.8233   -0.5132   -1.1026 C   0  0  0  0  0  0  0  0  0  0  0  0
   -1.7443   -0.5336   -1.3311 H   0  0  0  0  0  0  0  0  0  0  0  0
   -3.6900   -1.5100   -1.5607 C   0  0  0  0  0  0  0  0  0  0  0  0
   -3.2968   -2.3449   -2.1610 H   0  0  0  0  0  0  0  0  0  0  0  0
   -5.0576   -1.4201   -1.2523 C   0  0  0  0  0  0  0  0  0  0  0  0
   -5.7743   -2.1812   -1.5959 H   0  0  0  0  0  0  0  0  0  0  0  0
   -5.4989   -0.3221   -0.4947 C   0  0  0  0  0  0  0  0  0  0  0  0
   -6.5687   -0.2172   -0.2385 H   0  0  0  0  0  0  0  0  0  0  0  0
    1.1073    0.1860    0.7822 N   0  0  0  0  0  2  0  0  0  0  0  0
    1.2308   -2.4529    0.4666 N   0  0  0  0  0  2  0  0  0  0  0  0
   -1.2099    1.4277    0.0063 N   0  0  0  0  0  0  0  0  0  0  0  0
   -4.6830    0.6413   -0.0457 N   0  0  0  0  0  0  0  0  0  0  0  0
  1 43  1  0  0  0  0
  1  3  1  0  0  0  0
  2  1  1  0  0  0  0
  3  5  2  0  0  0  0
  4  3  1  0  0  0  0
  5  7  1  0  0  0  0
  5  6  1  0  0  0  0
  7  8  1  0  0  0  0
  9 10  1  0  0  0  0
  9  7  2  0  0  0  0
 10 42  1  1  0  0  0
 10 24  1  0  0  0  0
 11 12  1  0  0  0  0
 11 42  1  0  0  0  0
 12 13  1  0  0  0  0
 14 15  1  0  0  0  0
 14 12  2  0  0  0  0
 16 14  1  0  0  0  0
 17 16  2  0  0  0  0
 17 19  1  0  0  0  0
 18 17  1  0  0  0  0
 19 11  2  0  0  0  0
 20 16  1  0  0  0  0
 20 21  1  0  0  0  0
 22 20  1  0  0  0  0
 23 20  1  0  0  0  0
 24 25  1  0  0  0  0
 24 26  1  0  0  0  0
 27 24  1  0  0  0  0
 28 29  1  0  0  0  0
 29 30  1  0  0  0  0
 29 32  1  0  0  0  0
 31 29  1  0  0  0  0
 33 45  1  0  0  0  0
 33 28  1  0  0  0  0
 34 33  2  0  0  0  0
 35 34  1  0  0  0  0
 36 38  2  0  0  0  0
 36 34  1  0  0  0  0
 37 36  1  0  0  0  0
 38 40  1  0  0  0  0
 39 38  1  0  0  0  0
 40 41  1  0  0  0  0
 40 45  2  0  0  0  0
 43  9  1  0  0  0  0
 44 28  2  0  0  0  0
 44 19  1  0  0  0  0
M  END
