2,3
q = 0.0, confidence = 0.962

 27 27  0  0  0  0  0  0  0  0999 V2000
    0.9565   -1.6183   -1.3076 O   0  0  0  0  0  1  0  0  0  0  0  0
    0.7849   -0.5233   -0.7440 N   0  0  0  0  0  2  0  0  0  0  0  0
    0.4676    1.8191    0.5464 N   0  0  0  0  0  0  0  0  0  0  0  0
    1.9934    0.1270   -0.2500 C   0  0  0  0  0  0  0  0  0  0  0  0
    1.8218    1.3243    0.4629 C   0  0  0  0  0  0  0  0  0  0  0  0
    2.9422    1.9477    1.0240 C   0  0  0  0  0  0  0  0  0  0  0  0
    4.2113    1.3742    0.8553 C   0  0  0  0  0  0  0  0  0  0  0  0
    4.4015    0.1785    0.1207 C   0  0  0  0  0  0  0  0  0  0  0  0
    3.2643   -0.4373   -0.4298 C   0  0  0  0  0  0  0  0  0  0  0  0
    5.8153   -0.4043   -0.0443 C   0  0  0  0  0  0  0  0  0  0  0  0
    5.8068   -1.6992   -0.8743 C   0  0  0  0  0  0  0  0  0  0  0  0
    6.4010   -0.7182    1.3512 C   0  0  0  0  0  0  0  0  0  0  0  0
    6.7087    0.6336   -0.7612 C   0  0  0  0  0  0  0  0  0  0  0  0
    2.8251    2.8846    1.5904 H   0  0  0  0  0  0  0  0  0  0  0  0
    5.0779    1.8796    1.3072 H   0  0  0  0  0  0  0  0  0  0  0  0
    3.3050   -1.3758   -0.9967 H   0  0  0  0  0  0  0  0  0  0  0  0
    6.8406   -2.0861   -0.9753 H   0  0  0  0  0  0  0  0  0  0  0  0
    5.1984   -2.4925   -0.3957 H   0  0  0  0  0  0  0  0  0  0  0  0
    5.4110   -1.5314   -1.8957 H   0  0  0  0  0  0  0  0  0  0  0  0
    6.4692    0.1880    1.9856 H   0  0  0  0  0  0  0  0  0  0  0  0
    7.4237   -1.1370    1.2538 H   0  0  0  0  0  0  0  0  0  0  0  0
    5.7750   -1.4607    1.8862 H   0  0  0  0  0  0  0  0  0  0  0  0
    6.3053    0.8782   -1.7644 H   0  0  0  0  0  0  0  0  0  0  0  0
    7.7352    0.2332   -0.8904 H   0  0  0  0  0  0  0  0  0  0  0  0
    6.7872    1.5790   -0.1882 H   0  0  0  0  0  0  0  0  0  0  0  0
    0.3083    2.5414   -0.1944 H   0  0  0  0  0  0  0  0  0  0  0  0
    0.2544    2.2306    1.4659 H   0  0  0  0  0  0  0  0  0  0  0  0
  1  2  1  0  0  0  0
  2  4  1  0  0  0  0
  3 27  1  0  0  0  0
  4  5  1  0  0  0  0
  5  3  1  0  0  0  0
  5  6  2  0  0  0  0
  6 14  1  0  0  0  0
  7  6  1  0  0  0  0
  7 15  1  0  0  0  0
  8  7  2  0  0  0  0
  9  4  2  0  0  0  0
  9  8  1  0  0  0  0
 10  8  1  0  0  0  0
 10 12  1  0  0  0  0
 11 18  1  0  0  0  0
 11 10  1  0  0  0  0
 12 22  1  0  0  0  0
 12 20  1  0  0  0  0
 13 25  1  0  0  0  0
 13 10  1  0  0  0  0
 16  9  1  0  0  0  0
 17 11  1  0  0  0  0
 19 11  1  0  0  0  0
 21 12  1  0  0  0  0
 23 13  1  0  0  0  0
 24 13  1  0  0  0  0
 26  3  1  0  0  0  0
M  END
