2,3
q = 0.0, confidence = 0.926

 15 15  0  0  0  0  0  0  0  0999 V2000
   -1.4947   -1.8018    1.5547 O   0  0  0  0  0  1  0  0  0  0  0  0
   -1.5061   -0.7597    0.8770 N   0  0  0  0  0  2  0  0  0  0  0  0
   -1.5863    1.4446   -0.6656 N   0  0  0  0  0  0  0  0  0  0  0  0
   -2.8128   -0.3569    0.3687 C   0  0  0  0  0  0  0  0  0  0  0  0
   -2.8479    0.7673   -0.4775 C   0  0  0  0  0  0  0  0  0  0  0  0
   -4.0562    1.1610   -1.0643 C   0  0  0  0  0  0  0  0  0  0  0  0
   -5.2271    0.4328   -0.7894 C   0  0  0  0  0  0  0  0  0  0  0  0
   -5.1892   -0.6770    0.0742 C   0  0  0  0  0  0  0  0  0  0  0  0
   -3.9803   -1.0786    0.6572 C   0  0  0  0  0  0  0  0  0  0  0  0
   -1.5207    2.2567   -0.0070 H   0  0  0  0  0  0  0  0  0  0  0  0
   -1.4616    1.7844   -1.6295 H   0  0  0  0  0  0  0  0  0  0  0  0
   -4.0830    2.0372   -1.7303 H   0  0  0  0  0  0  0  0  0  0  0  0
   -6.1776    0.7389   -1.2511 H   0  0  0  0  0  0  0  0  0  0  0  0
   -6.1122   -1.2369    0.2865 H   0  0  0  0  0  0  0  0  0  0  0  0
   -3.8936   -1.9495    1.3216 H   0  0  0  0  0  0  0  0  0  0  0  0
  2  1  1  0  0  0  0
  3  5  1  0  0  0  0
  3 10  1  0  0  0  0
  4  9  1  0  0  0  0
  4  2  1  0  0  0  0
  5  4  2  0  0  0  0
  6  7  2  0  0  0  0
  6  5  1  0  0  0  0
  7  8  1  0  0  0  0
  8 14  1  0  0  0  0
  8  9  2  0  0  0  0
  9 15  1  0  0  0  0
 11  3  1  0  0  0  0
 12  6  1  0  0  0  0
 13  7  1  0  0  0  0
M  END
