4,5
q = -2.0, confidence = 0.922

 46 48  0  0  1  0  0  0  0  0999 V2000
    0.6384    0.4102    2.1523 S   0  0  0  0  0  0  0  0  0  0  0  0
   -0.0480   -0.6990    2.8711 O   0  0  0  0  0  0  0  0  0  0  0  0
    0.7861    1.7305    2.8128 O   0  0  0  0  0  0  0  0  0  0  0  0
   -0.0479    0.6527    0.6422 N   0  0  0  0  0  2  0  0  0  0  0  0
   -0.8975    0.8143   -1.7053 N   0  0  0  0  0  2  0  0  0  0  0  0
    6.3067   -1.5679    0.9180 C   0  0  0  0  0  0  0  0  0  0  0  0
    6.5435   -2.5103    1.4481 H   0  0  0  0  0  0  0  0  0  0  0  0
    7.0596   -0.8103    1.2215 H   0  0  0  0  0  0  0  0  0  0  0  0
    6.4485   -1.7407   -0.1689 H   0  0  0  0  0  0  0  0  0  0  0  0
    4.9082   -1.0932    1.2195 C   0  0  0  0  0  0  0  0  0  0  0  0
    4.3852    0.0504    0.5737 C   0  0  0  0  0  0  0  0  0  0  0  0
    5.0017    0.5932   -0.1603 H   0  0  0  0  0  0  0  0  0  0  0  0
    3.0912    0.5085    0.8409 C   0  0  0  0  0  0  0  0  0  0  0  0
    2.6948    1.3928    0.3234 H   0  0  0  0  0  0  0  0  0  0  0  0
    2.2936   -0.1936    1.7587 C   0  0  0  0  0  0  0  0  0  0  0  0
    2.7877   -1.3214    2.4263 C   0  0  0  0  0  0  0  0  0  0  0  0
    2.1425   -1.8396    3.1508 H   0  0  0  0  0  0  0  0  0  0  0  0
    4.0908   -1.7650    2.1504 C   0  0  0  0  0  0  0  0  0  0  0  0
    4.4811   -2.6550    2.6688 H   0  0  0  0  0  0  0  0  0  0  0  0
   -1.1644    0.8270   -2.6954 H   0  0  0  0  0  0  0  0  0  0  0  0
   -0.5209    2.0083    0.3293 C   0  0  1  0  0  0  0  0  0  0  0  0
    0.1471    2.7530    0.8102 H   0  0  0  0  0  0  0  0  0  0  0  0
   -0.3974    2.0909   -1.2115 C   0  0  1  0  0  0  0  0  0  0  0  0
   -1.0452    2.9205   -1.5714 H   0  0  0  0  0  0  0  0  0  0  0  0
    1.0403    2.3989   -1.6425 C   0  0  0  0  0  0  0  0  0  0  0  0
    1.8302    1.4572   -2.3253 C   0  0  0  0  0  0  0  0  0  0  0  0
    1.3892    0.4805   -2.5732 H   0  0  0  0  0  0  0  0  0  0  0  0
    3.1657    1.7424   -2.6541 C   0  0  0  0  0  0  0  0  0  0  0  0
    3.7707    0.9881   -3.1809 H   0  0  0  0  0  0  0  0  0  0  0  0
    3.7314    2.9772   -2.3035 C   0  0  0  0  0  0  0  0  0  0  0  0
    4.7795    3.2007   -2.5545 H   0  0  0  0  0  0  0  0  0  0  0  0
    2.9467    3.9313   -1.6325 C   0  0  0  0  0  0  0  0  0  0  0  0
    3.3789    4.9051   -1.3558 H   0  0  0  0  0  0  0  0  0  0  0  0
    1.6123    3.6449   -1.3124 C   0  0  0  0  0  0  0  0  0  0  0  0
    1.0066    4.3975   -0.7817 H   0  0  0  0  0  0  0  0  0  0  0  0
   -1.9500    2.2777    0.8077 C   0  0  0  0  0  0  0  0  0  0  0  0
   -2.6550    1.3463    1.5915 C   0  0  0  0  0  0  0  0  0  0  0  0
   -2.1591    0.4120    1.8908 H   0  0  0  0  0  0  0  0  0  0  0  0
   -3.9697    1.6106    2.0077 C   0  0  0  0  0  0  0  0  0  0  0  0
   -4.5033    0.8682    2.6215 H   0  0  0  0  0  0  0  0  0  0  0  0
   -4.5989    2.8132    1.6539 C   0  0  0  0  0  0  0  0  0  0  0  0
   -5.6301    3.0191    1.9790 H   0  0  0  0  0  0  0  0  0  0  0  0
   -3.8942    3.7611    0.8940 C   0  0  0  0  0  0  0  0  0  0  0  0
   -4.3691    4.7171    0.6245 H   0  0  0  0  0  0  0  0  0  0  0  0
   -2.5810    3.4944    0.4805 C   0  0  0  0  0  0  0  0  0  0  0  0
   -2.0369    4.2533   -0.1055 H   0  0  0  0  0  0  0  0  0  0  0  0
  1  3  2  0  0  0  0
  1  2  2  0  0  0  0
  4  1  1  0  0  0  0
  5 23  1  0  0  0  0
  6 10  1  0  0  0  0
  6  8  1  0  0  0  0
  6  7  1  0  0  0  0
  9  6  1  0  0  0  0
 10 18  1  0  0  0  0
 11 13  1  0  0  0  0
 11 10  2  0  0  0  0
 12 11  1  0  0  0  0
 13 15  2  0  0  0  0
 14 13  1  0  0  0  0
 15  1  1  0  0  0  0
 15 16  1  0  0  0  0
 16 17  1  0  0  0  0
 18 16  2  0  0  0  0
 18 19  1  0  0  0  0
 20  5  1  0  0  0  0
 21  4  1  0  0  0  0
 21 36  1  0  0  0  0
 21 22  1  1  0  0  0
 23 24  1  6  0  0  0
 23 21  1  0  0  0  0
 25 34  1  0  0  0  0
 25 23  1  0  0  0  0
 26 25  2  0  0  0  0
 27 26  1  0  0  0  0
 28 26  1  0  0  0  0
 28 30  2  0  0  0  0
 29 28  1  0  0  0  0
 30 32  1  0  0  0  0
 31 30  1  0  0  0  0
 32 33  1  0  0  0  0
 32 34  2  0  0  0  0
 34 35  1  0  0  0  0
 36 37  1  0  0  0  0
 37 38  1  0  0  0  0
 37 39  2  0  0  0  0
 39 40  1  0  0  0  0
 41 42  1  0  0  0  0
 41 39  1  0  0  0  0
 43 41  2  0  0  0  0
 44 43  1  0  0  0  0
 45 36  2  0  0  0  0
 45 43  1  0  0  0  0
 46 45  1  0  0  0  0
M  END
