1,2
q = -1.0

 34 36  0  0  0  0  0  0  0  0999 V2000
   -1.3080    1.5049   -0.5586 N   0  0  0  0  0  2  0  0  0  0  0  0
   -1.3583   -1.2556   -0.8187 N   0  0  0  0  0  0  0  0  0  0  0  0
   -9.5662   -0.6977    1.2838 O   0  0  0  0  0  0  0  0  0  0  0  0
   -9.9067    0.5799   -0.5597 O   0  0  0  0  0  0  0  0  0  0  0  0
   -1.0420    2.8047   -0.7982 C   0  0  0  0  0  3  0  0  0  0  0  0
   -0.0171    3.1455   -0.9860 H   0  0  0  0  0  0  0  0  0  0  0  0
   -2.2333    3.5821   -0.7472 C   0  0  0  0  0  0  0  0  0  0  0  0
   -2.3032    4.6636   -0.9110 H   0  0  0  0  0  0  0  0  0  0  0  0
   -3.2715    2.6967   -0.4623 C   0  0  0  0  0  0  0  0  0  0  0  0
   -4.3354    2.9300   -0.3521 H   0  0  0  0  0  0  0  0  0  0  0  0
   -2.6934    1.3829   -0.3932 C   0  0  0  0  0  0  0  0  0  0  0  0
   -3.3682    0.1401   -0.3927 C   0  0  0  0  0  0  0  0  0  0  0  0
   -2.7390   -1.0971   -0.6686 C   0  0  0  0  0  3  0  0  0  0  0  0
   -3.3838   -2.2974   -1.1254 C   0  0  0  0  0  0  0  0  0  0  0  0
   -4.4670   -2.4575   -1.1573 H   0  0  0  0  0  0  0  0  0  0  0  0
   -2.3800   -3.1447   -1.5908 C   0  0  0  0  0  0  0  0  0  0  0  0
   -2.4978   -4.1322   -2.0516 H   0  0  0  0  0  0  0  0  0  0  0  0
   -1.1481   -2.4616   -1.3854 C   0  0  0  0  0  0  0  0  0  0  0  0
   -0.1347   -2.8024   -1.6284 H   0  0  0  0  0  0  0  0  0  0  0  0
   -4.8497    0.1209   -0.2359 C   0  0  0  0  0  0  0  0  0  0  0  0
   -5.4258   -0.5974    0.8354 C   0  0  0  0  0  0  0  0  0  0  0  0
   -4.7664   -1.1173    1.5459 H   0  0  0  0  0  0  0  0  0  0  0  0
   -6.8143   -0.6385    1.0023 C   0  0  0  0  0  0  0  0  0  0  0  0
   -7.2599   -1.1883    1.8425 H   0  0  0  0  0  0  0  0  0  0  0  0
   -7.6557    0.0276    0.0887 C   0  0  0  0  0  0  0  0  0  0  0  0
   -7.0875    0.7313   -0.9915 C   0  0  0  0  0  0  0  0  0  0  0  0
   -7.7636    1.2303   -1.7012 H   0  0  0  0  0  0  0  0  0  0  0  0
   -5.6998    0.7798   -1.1521 C   0  0  0  0  0  0  0  0  0  0  0  0
   -5.2593    1.3111   -2.0080 H   0  0  0  0  0  0  0  0  0  0  0  0
   -9.1446    0.0173    0.2087 C   0  0  0  0  0  0  0  0  0  0  0  0
  -10.9850   -0.7496    1.4612 C   0  0  0  0  0  0  0  0  0  0  0  0
  -11.4043    0.2685    1.5929 H   0  0  0  0  0  0  0  0  0  0  0  0
  -11.1597   -1.3591    2.3655 H   0  0  0  0  0  0  0  0  0  0  0  0
  -11.4766   -1.2118    0.5812 H   0  0  0  0  0  0  0  0  0  0  0  0
  1 11  1  0  0  0  0
  2 13  1  0  0  0  0
  3 31  1  0  0  0  0
  4 30  2  0  0  0  0
  5  7  1  0  0  0  0
  5  1  1  0  0  0  0
  6  5  1  0  0  0  0
  7  9  2  0  0  0  0
  8  7  1  0  0  0  0
  9 11  1  0  0  0  0
  9 10  1  0  0  0  0
 11 12  2  0  0  0  0
 12 20  1  0  0  0  0
 13 12  1  0  0  0  0
 14 13  1  0  0  0  0
 15 14  1  0  0  0  0
 16 18  1  0  0  0  0
 16 14  2  0  0  0  0
 17 16  1  0  0  0  0
 18  2  2  0  0  0  0
 19 18  1  0  0  0  0
 20 21  1  0  0  0  0
 21 23  2  0  0  0  0
 21 22  1  0  0  0  0
 23 24  1  0  0  0  0
 25 30  1  0  0  0  0
 25 23  1  0  0  0  0
 26 25  2  0  0  0  0
 27 26  1  0  0  0  0
 28 26  1  0  0  0  0
 28 20  2  0  0  0  0
 29 28  1  0  0  0  0
 30  3  1  0  0  0  0
 31 32  1  0  0  0  0
 31 33  1  0  0  0  0
 34 31  1  0  0  0  0
M  END
