39,40
q = 0.0, confidence = 0.96

 42 44  0  0  1  0  0  0  0  0999 V2000
    0.6909    1.3093    0.1845 C   0  0  0  0  0  0  0  0  0  0  0  0
   -0.6906    1.3094   -0.1868 C   0  0  0  0  0  0  0  0  0  0  0  0
   -0.6266    3.6912   -0.4584 C   0  0  0  0  0  0  0  0  0  0  0  0
   -1.2518    4.5664   -0.1916 H   0  0  0  0  0  0  0  0  0  0  0  0
   -0.3097    3.8141   -1.5227 H   0  0  0  0  0  0  0  0  0  0  0  0
    0.6267    3.6907    0.4592 C   0  0  0  0  0  0  0  0  0  0  0  0
    1.2519    4.5663    0.1935 H   0  0  0  0  0  0  0  0  0  0  0  0
    0.3098    3.8120    1.5236 H   0  0  0  0  0  0  0  0  0  0  0  0
    2.6772    2.0751    0.9165 C   0  0  0  0  0  0  0  0  0  0  0  0
    2.6780    2.3642    1.9919 H   0  0  0  0  0  0  0  0  0  0  0  0
    3.5386    2.5680    0.4222 H   0  0  0  0  0  0  0  0  0  0  0  0
    2.6954    0.5025    0.7366 C   0  0  2  0  0  0  0  0  0  0  0  0
    2.9681    0.0005    1.6865 H   0  0  0  0  0  0  0  0  0  0  0  0
    3.6373   -0.0368   -0.3654 C   0  0  0  0  0  0  0  0  0  0  0  0
    3.4295   -1.1296   -0.3729 H   0  0  0  0  0  0  0  0  0  0  0  0
    5.1034    0.1812    0.0203 C   0  0  0  0  0  0  0  0  0  0  0  0
    5.3730    1.2595    0.0490 H   0  0  0  0  0  0  0  0  0  0  0  0
    5.7747   -0.3003   -0.7182 H   0  0  0  0  0  0  0  0  0  0  0  0
    5.3329   -0.2532    1.0149 H   0  0  0  0  0  0  0  0  0  0  0  0
    3.3099    0.5204   -1.7535 C   0  0  0  0  0  0  0  0  0  0  0  0
    2.2662    0.2852   -2.0438 H   0  0  0  0  0  0  0  0  0  0  0  0
    3.9728    0.0659   -2.5166 H   0  0  0  0  0  0  0  0  0  0  0  0
    3.4511    1.6214   -1.8089 H   0  0  0  0  0  0  0  0  0  0  0  0
   -2.6776    2.0760   -0.9158 C   0  0  0  0  0  0  0  0  0  0  0  0
   -2.6799    2.3656   -1.9912 H   0  0  0  0  0  0  0  0  0  0  0  0
   -3.5384    2.5688   -0.4202 H   0  0  0  0  0  0  0  0  0  0  0  0
   -2.6959    0.5034   -0.7367 C   0  0  2  0  0  0  0  0  0  0  0  0
   -2.9700    0.0020   -1.6866 H   0  0  0  0  0  0  0  0  0  0  0  0
   -3.6364   -0.0364    0.3662 C   0  0  0  0  0  0  0  0  0  0  0  0
   -3.4286   -1.1292    0.3731 H   0  0  0  0  0  0  0  0  0  0  0  0
   -3.3073    0.5203    1.7542 C   0  0  0  0  0  0  0  0  0  0  0  0
   -2.2633    0.2850    2.0431 H   0  0  0  0  0  0  0  0  0  0  0  0
   -3.9693    0.0656    2.5178 H   0  0  0  0  0  0  0  0  0  0  0  0
   -3.4484    1.6214    1.8100 H   0  0  0  0  0  0  0  0  0  0  0  0
   -5.1029    0.1818   -0.0176 C   0  0  0  0  0  0  0  0  0  0  0  0
   -5.7734   -0.3000    0.7216 H   0  0  0  0  0  0  0  0  0  0  0  0
   -5.3337   -0.2522   -1.0121 H   0  0  0  0  0  0  0  0  0  0  0  0
   -5.3726    1.2601   -0.0455 H   0  0  0  0  0  0  0  0  0  0  0  0
    1.2862    0.1771    0.4225 N   0  0  0  0  0  2  0  0  0  0  0  0
   -1.2863    0.1775   -0.4247 N   0  0  0  0  0  2  0  0  0  0  0  0
   -1.4001    2.4631   -0.2855 N   0  0  0  0  0  0  0  0  0  0  0  0
    1.4005    2.4629    0.2846 N   0  0  0  0  0  0  0  0  0  0  0  0
  1 42  1  0  0  0  0
  1 39  1  0  0  0  0
  2  1  2  0  0  0  0
  3 41  1  0  0  0  0
  3  4  1  0  0  0  0
  3  6  1  0  0  0  0
  5  3  1  0  0  0  0
  6  8  1  0  0  0  0
  7  6  1  0  0  0  0
  9 10  1  0  0  0  0
 11  9  1  0  0  0  0
 12  9  1  0  0  0  0
 12 13  1  1  0  0  0
 14 16  1  0  0  0  0
 14 12  1  0  0  0  0
 15 14  1  0  0  0  0
 16 17  1  0  0  0  0
 16 19  1  0  0  0  0
 18 16  1  0  0  0  0
 20 14  1  0  0  0  0
 21 20  1  0  0  0  0
 22 20  1  0  0  0  0
 23 20  1  0  0  0  0
 24 27  1  0  0  0  0
 24 26  1  0  0  0  0
 24 41  1  0  0  0  0
 25 24  1  0  0  0  0
 27 28  1  6  0  0  0
 27 40  1  0  0  0  0
 27 29  1  0  0  0  0
 29 30  1  0  0  0  0
 29 31  1  0  0  0  0
 31 34  1  0  0  0  0
 31 32  1  0  0  0  0
 31 33  1  0  0  0  0
 35 29  1  0  0  0  0
 35 36  1  0  0  0  0
 37 35  1  0  0  0  0
 38 35  1  0  0  0  0
 39 12  1  0  0  0  0
 40  2  1  0  0  0  0
 41  2  1  0  0  0  0
 42  6  1  0  0  0  0
 42  9  1  0  0  0  0
M  END
