37,39
q = 0.0, confidence = 0.996

 41 43  0  0  1  0  0  0  0  0999 V2000
    5.2200   -0.0703    0.0792 C   0  0  0  0  0  0  0  0  0  0  0  0
    4.3551    1.0239   -0.1106 C   0  0  0  0  0  0  0  0  0  0  0  0
    4.7228    2.0471    0.0518 H   0  0  0  0  0  0  0  0  0  0  0  0
    3.0342    0.7963   -0.5023 C   0  0  0  0  0  0  0  0  0  0  0  0
    2.3422    1.6380   -0.6513 H   0  0  0  0  0  0  0  0  0  0  0  0
    2.5513   -0.5182   -0.7128 C   0  0  0  0  0  0  0  0  0  0  0  0
    3.4413   -1.5978   -0.5123 C   0  0  0  0  0  0  0  0  0  0  0  0
    3.0848   -2.6288   -0.6672 H   0  0  0  0  0  0  0  0  0  0  0  0
    4.7687   -1.3842   -0.1195 C   0  0  0  0  0  0  0  0  0  0  0  0
    5.4520   -2.2313    0.0332 H   0  0  0  0  0  0  0  0  0  0  0  0
    1.1714   -0.7798   -1.1230 C   0  0  0  0  0  0  0  0  0  0  0  0
    0.8844   -1.8443   -1.2306 H   0  0  0  0  0  0  0  0  0  0  0  0
   -1.6109    1.2427   -2.0807 C   0  0  0  0  0  0  0  0  0  0  0  0
   -2.6718    0.9888   -2.2999 H   0  0  0  0  0  0  0  0  0  0  0  0
   -1.1418    1.6864   -2.9858 H   0  0  0  0  0  0  0  0  0  0  0  0
   -1.5885    2.2447   -0.9503 C   0  0  2  0  0  3  0  0  0  0  0  0
   -0.9636    3.4951   -1.0632 C   0  0  0  0  0  0  0  0  0  0  0  0
   -0.4779    3.7702   -2.0104 H   0  0  0  0  0  0  0  0  0  0  0  0
   -0.9548    4.3619    0.0381 C   0  0  0  0  0  0  0  0  0  0  0  0
   -0.4642    5.3447   -0.0313 H   0  0  0  0  0  0  0  0  0  0  0  0
   -1.5679    3.9514    1.2294 C   0  0  0  0  0  0  0  0  0  0  0  0
   -1.5788    4.5930    2.1218 H   0  0  0  0  0  0  0  0  0  0  0  0
   -2.1792    2.6929    1.2698 C   0  0  0  0  0  0  0  0  0  0  0  0
   -2.6942    2.3002    2.1652 H   0  0  0  0  0  0  0  0  0  0  0  0
   -1.4910   -1.2980   -1.9698 C   0  0  0  0  0  0  0  0  0  0  0  0
   -0.9077   -1.8181   -2.7648 H   0  0  0  0  0  0  0  0  0  0  0  0
   -2.5329   -1.1345   -2.3259 H   0  0  0  0  0  0  0  0  0  0  0  0
   -1.5800   -2.1943   -0.7479 C   0  0  2  0  0  3  0  0  0  0  0  0
   -1.1276   -3.5241   -0.7751 C   0  0  0  0  0  0  0  0  0  0  0  0
   -0.6849   -3.9246   -1.6997 H   0  0  0  0  0  0  0  0  0  0  0  0
   -1.2325   -4.3140    0.3761 C   0  0  0  0  0  0  0  0  0  0  0  0
   -0.8806   -5.3568    0.3698 H   0  0  0  0  0  0  0  0  0  0  0  0
   -1.7803   -3.7488    1.5361 C   0  0  0  0  0  0  0  0  0  0  0  0
   -1.8716   -4.3229    2.4688 H   0  0  0  0  0  0  0  0  0  0  0  0
   -2.2316   -2.4259    1.4862 C   0  0  0  0  0  0  0  0  0  0  0  0
   -2.7096   -1.9212    2.3455 H   0  0  0  0  0  0  0  0  0  0  0  0
   -2.1882    1.8681    0.2036 N   0  0  0  0  0  2  0  0  0  0  0  0
   -0.9313    0.0138   -1.6818 N   0  0  0  0  0  0  0  0  0  0  0  0
   -2.1404   -1.6749    0.3679 N   0  0  0  0  0  2  0  0  0  0  0  0
    0.3437    0.2015   -1.3304 N   0  0  0  0  0  0  0  0  0  0  0  0
    7.0205    0.2372    0.6140 Br  0  0  0  0  0  0  0  0  0  0  0  0
  1 41  1  0  0  0  0
  2  3  1  0  0  0  0
  2  1  1  0  0  0  0
  4  2  2  0  0  0  0
  5  4  1  0  0  0  0
  6  7  2  0  0  0  0
  6  4  1  0  0  0  0
  7  9  1  0  0  0  0
  8  7  1  0  0  0  0
  9 10  1  0  0  0  0
  9  1  2  0  0  0  0
 11  6  1  0  0  0  0
 12 11  1  0  0  0  0
 13 38  1  0  0  0  0
 14 13  1  0  0  0  0
 15 13  1  0  0  0  0
 16 13  1  1  0  0  0
 16 37  1  0  0  0  0
 17 16  1  0  0  0  0
 17 19  2  0  0  0  0
 18 17  1  0  0  0  0
 19 21  1  0  0  0  0
 20 19  1  0  0  0  0
 21 23  2  0  0  0  0
 21 22  1  0  0  0  0
 23 24  1  0  0  0  0
 25 38  1  0  0  0  0
 26 25  1  0  0  0  0
 27 25  1  0  0  0  0
 28 25  1  6  0  0  0
 28 39  1  0  0  0  0
 29 28  1  0  0  0  0
 29 31  2  0  0  0  0
 30 29  1  0  0  0  0
 31 33  1  0  0  0  0
 32 31  1  0  0  0  0
 33 34  1  0  0  0  0
 35 33  2  0  0  0  0
 35 36  1  0  0  0  0
 37 23  1  0  0  0  0
 38 40  1  0  0  0  0
 39 35  1  0  0  0  0
 40 11  2  0  0  0  0
M  END
