38,39
q = 0.0, confidence = 0.998

 42 44  0  0  1  0  0  0  0  0999 V2000
   -0.4127    0.3142   -2.0247 C   0  0  0  0  0  0  0  0  0  0  0  0
   -1.4841    0.1187   -2.2324 H   0  0  0  0  0  0  0  0  0  0  0  0
    0.1288    0.2781   -2.9978 H   0  0  0  0  0  0  0  0  0  0  0  0
   -0.2809    1.6974   -1.4153 C   0  0  1  0  0  3  0  0  0  0  0  0
    0.2346    2.7822   -2.1384 C   0  0  0  0  0  0  0  0  0  0  0  0
    0.5891    2.6301   -3.1683 H   0  0  0  0  0  0  0  0  0  0  0  0
    0.3052    4.0408   -1.5249 C   0  0  0  0  0  0  0  0  0  0  0  0
    0.7213    4.9018   -2.0694 H   0  0  0  0  0  0  0  0  0  0  0  0
   -0.1564    4.1805   -0.2099 C   0  0  0  0  0  0  0  0  0  0  0  0
   -0.1244    5.1478    0.3109 H   0  0  0  0  0  0  0  0  0  0  0  0
   -0.6622    3.0519    0.4470 C   0  0  0  0  0  0  0  0  0  0  0  0
   -1.0829    3.0936    1.4661 H   0  0  0  0  0  0  0  0  0  0  0  0
   -0.5599   -1.9992   -1.0000 C   0  0  0  0  0  0  0  0  0  0  0  0
   -0.2613   -2.4096   -0.0055 H   0  0  0  0  0  0  0  0  0  0  0  0
   -0.2168   -2.6957   -1.8026 H   0  0  0  0  0  0  0  0  0  0  0  0
   -2.0643   -1.9147   -0.9800 C   0  0  1  0  0  3  0  0  0  0  0  0
   -2.8712   -2.7918   -1.7225 C   0  0  0  0  0  0  0  0  0  0  0  0
   -2.4020   -3.5404   -2.3774 H   0  0  0  0  0  0  0  0  0  0  0  0
   -4.2659   -2.6960   -1.6134 C   0  0  0  0  0  0  0  0  0  0  0  0
   -4.9141   -3.3772   -2.1853 H   0  0  0  0  0  0  0  0  0  0  0  0
   -4.8195   -1.7191   -0.7743 C   0  0  0  0  0  0  0  0  0  0  0  0
   -5.9073   -1.6067   -0.6632 H   0  0  0  0  0  0  0  0  0  0  0  0
   -3.9539   -0.8730   -0.0698 C   0  0  0  0  0  0  0  0  0  0  0  0
   -4.3004   -0.0772    0.6160 H   0  0  0  0  0  0  0  0  0  0  0  0
    2.1422   -1.4235   -0.2655 C   0  0  0  0  0  0  0  0  0  0  0  0
    1.7482   -2.3975    0.0789 H   0  0  0  0  0  0  0  0  0  0  0  0
    3.5414   -1.1334   -0.0005 C   0  0  0  0  0  0  0  0  0  0  0  0
    4.3543   -2.1002    0.6368 C   0  0  0  0  0  0  0  0  0  0  0  0
    3.8962   -3.0599    0.9250 H   0  0  0  0  0  0  0  0  0  0  0  0
    5.7018   -1.8544    0.9085 C   0  0  0  0  0  0  0  0  0  0  0  0
    6.3159   -2.6177    1.4079 H   0  0  0  0  0  0  0  0  0  0  0  0
    6.2623   -0.6152    0.5400 C   0  0  0  0  0  0  0  0  0  0  0  0
    7.3232   -0.4086    0.7499 H   0  0  0  0  0  0  0  0  0  0  0  0
    5.4853    0.3627   -0.0885 C   0  0  0  0  0  0  0  0  0  0  0  0
    5.9077    1.3359   -0.3779 H   0  0  0  0  0  0  0  0  0  0  0  0
    4.1224    0.1263   -0.3682 C   0  0  0  0  0  0  0  0  0  0  0  0
    0.0656   -0.6870   -1.0884 N   0  0  0  0  0  0  0  0  0  0  0  0
   -0.7065    1.8407   -0.1407 N   0  0  0  0  0  2  0  0  0  0  0  0
   -2.6152   -0.9765   -0.1749 N   0  0  0  0  0  2  0  0  0  0  0  0
    1.3973   -0.5380   -0.8650 N   0  0  0  0  0  0  0  0  0  0  0  0
    3.4022    1.0844   -0.9720 O   0  0  0  0  0  0  0  0  0  0  0  0
    2.4667    0.7068   -1.0656 H   0  0  0  0  0  0  0  0  0  0  0  0
  1 37  1  0  0  0  0
  2  1  1  0  0  0  0
  3  1  1  0  0  0  0
  4  1  1  6  0  0  0
  4 38  1  0  0  0  0
  5  7  2  0  0  0  0
  5  4  1  0  0  0  0
  6  5  1  0  0  0  0
  7  9  1  0  0  0  0
  8  7  1  0  0  0  0
  9 10  1  0  0  0  0
  9 11  2  0  0  0  0
 11 12  1  0  0  0  0
 13 14  1  0  0  0  0
 15 13  1  0  0  0  0
 16 13  1  1  0  0  0
 16 39  1  0  0  0  0
 17 19  2  0  0  0  0
 17 16  1  0  0  0  0
 18 17  1  0  0  0  0
 19 21  1  0  0  0  0
 20 19  1  0  0  0  0
 21 22  1  0  0  0  0
 21 23  2  0  0  0  0
 23 24  1  0  0  0  0
 25 27  1  0  0  0  0
 25 26  1  0  0  0  0
 27 28  1  0  0  0  0
 28 30  2  0  0  0  0
 28 29  1  0  0  0  0
 30 31  1  0  0  0  0
 32 33  1  0  0  0  0
 32 30  1  0  0  0  0
 34 32  2  0  0  0  0
 35 34  1  0  0  0  0
 36 34  1  0  0  0  0
 36 27  2  0  0  0  0
 37 13  1  0  0  0  0
 37 40  1  0  0  0  0
 38 11  1  0  0  0  0
 39 23  1  0  0  0  0
 40 25  2  0  0  0  0
 41 36  1  0  0  0  0
 42 41  1  0  0  0  0
M  END
