3,4
q = -1.0

 47 49  0  0  1  0  0  0  0  0999 V2000
   -1.6905    2.5221   -0.1142 O   0  0  0  0  0  0  0  0  0  0  0  0
    0.4359    2.0960   -0.9084 O   0  0  0  0  0  0  0  0  0  0  0  0
    1.3849    0.6668    1.3751 N   0  0  0  0  0  2  0  0  0  0  0  0
   -0.8077    0.3930   -0.2542 N   0  0  0  0  0  2  0  0  0  0  0  0
    2.0996    1.7888    1.6229 C   0  0  0  0  0  3  0  0  0  0  0  0
    2.6257    2.2226    0.7603 H   0  0  0  0  0  0  0  0  0  0  0  0
    2.1602    2.3795    2.8875 C   0  0  0  0  0  0  0  0  0  0  0  0
    2.7567    3.2902    3.0362 H   0  0  0  0  0  0  0  0  0  0  0  0
    1.4418    1.7880    3.9356 C   0  0  0  0  0  0  0  0  0  0  0  0
    1.4527    2.2273    4.9442 H   0  0  0  0  0  0  0  0  0  0  0  0
    0.7091    0.6239    3.6780 C   0  0  0  0  0  0  0  0  0  0  0  0
    0.1339    0.1278    4.4719 H   0  0  0  0  0  0  0  0  0  0  0  0
    0.6903    0.0666    2.3826 C   0  0  0  0  0  0  0  0  0  0  0  0
   -0.0095   -1.2349    2.1582 C   0  0  0  0  0  0  0  0  0  0  0  0
    0.4965   -2.3371    2.8812 C   0  0  0  0  0  0  0  0  0  0  0  0
    1.3753   -2.1920    3.5282 H   0  0  0  0  0  0  0  0  0  0  0  0
   -0.0852   -3.6076    2.7715 C   0  0  0  0  0  0  0  0  0  0  0  0
    0.3317   -4.4543    3.3364 H   0  0  0  0  0  0  0  0  0  0  0  0
   -1.2034   -3.7803    1.9452 C   0  0  0  0  0  0  0  0  0  0  0  0
   -1.6765   -4.7690    1.8498 H   0  0  0  0  0  0  0  0  0  0  0  0
   -1.7374   -2.6832    1.2518 C   0  0  0  0  0  0  0  0  0  0  0  0
   -2.6328   -2.8170    0.6288 H   0  0  0  0  0  0  0  0  0  0  0  0
   -1.1645   -1.4027    1.3443 C   0  0  0  0  0  0  0  0  0  0  0  0
   -1.7955   -0.2003    0.6349 C   0  0  2  0  0  0  0  0  0  0  0  0
   -2.0417    0.5417    1.4319 H   0  0  0  0  0  0  0  0  0  0  0  0
   -3.1035   -0.5186   -0.0802 C   0  0  0  0  0  0  0  0  0  0  0  0
   -3.1425   -0.7327   -1.4692 C   0  0  0  0  0  0  0  0  0  0  0  0
   -2.2162   -0.6125   -2.0503 H   0  0  0  0  0  0  0  0  0  0  0  0
   -4.3495   -1.0602   -2.1071 C   0  0  0  0  0  0  0  0  0  0  0  0
   -4.3682   -1.2205   -3.1958 H   0  0  0  0  0  0  0  0  0  0  0  0
   -5.5320   -1.1738   -1.3604 C   0  0  0  0  0  0  0  0  0  0  0  0
   -6.4794   -1.4271   -1.8592 H   0  0  0  0  0  0  0  0  0  0  0  0
   -5.5031   -0.9495    0.0261 C   0  0  0  0  0  0  0  0  0  0  0  0
   -6.4288   -1.0246    0.6161 H   0  0  0  0  0  0  0  0  0  0  0  0
   -4.2966   -0.6208    0.6606 C   0  0  0  0  0  0  0  0  0  0  0  0
   -4.2793   -0.4439    1.7481 H   0  0  0  0  0  0  0  0  0  0  0  0
   -0.6997    1.7042   -0.4407 C   0  0  0  0  0  0  0  0  0  0  0  0
   -1.4840    3.9743   -0.2386 C   0  0  0  0  0  0  0  0  0  0  0  0
   -0.7894    4.1309   -1.0893 H   0  0  0  0  0  0  0  0  0  0  0  0
   -2.8496    4.5632   -0.5439 C   0  0  0  0  0  0  0  0  0  0  0  0
   -3.2680    4.1307   -1.4729 H   0  0  0  0  0  0  0  0  0  0  0  0
   -2.7673    5.6597   -0.6752 H   0  0  0  0  0  0  0  0  0  0  0  0
   -3.5577    4.3639    0.2851 H   0  0  0  0  0  0  0  0  0  0  0  0
   -0.8540    4.4892    1.0479 C   0  0  0  0  0  0  0  0  0  0  0  0
    0.1302    4.0137    1.2262 H   0  0  0  0  0  0  0  0  0  0  0  0
   -1.5140    4.2857    1.9152 H   0  0  0  0  0  0  0  0  0  0  0  0
   -0.6975    5.5841    0.9822 H   0  0  0  0  0  0  0  0  0  0  0  0
  2 37  2  0  0  0  0
  3  5  1  0  0  0  0
  3 13  1  0  0  0  0
  4 24  1  0  0  0  0
  5  7  1  0  0  0  0
  6  5  1  0  0  0  0
  7  8  1  0  0  0  0
  7  9  2  0  0  0  0
  9 10  1  0  0  0  0
 11  9  1  0  0  0  0
 11 12  1  0  0  0  0
 13 11  2  0  0  0  0
 14 13  1  0  0  0  0
 14 15  1  0  0  0  0
 15 16  1  0  0  0  0
 17 15  2  0  0  0  0
 17 18  1  0  0  0  0
 19 17  1  0  0  0  0
 20 19  1  0  0  0  0
 21 23  1  0  0  0  0
 21 19  2  0  0  0  0
 22 21  1  0  0  0  0
 23 14  2  0  0  0  0
 24 23  1  0  0  0  0
 24 25  1  1  0  0  0
 26 24  1  0  0  0  0
 26 35  1  0  0  0  0
 27 26  2  0  0  0  0
 28 27  1  0  0  0  0
 29 27  1  0  0  0  0
 29 31  2  0  0  0  0
 30 29  1  0  0  0  0
 31 33  1  0  0  0  0
 32 31  1  0  0  0  0
 33 34  1  0  0  0  0
 33 35  2  0  0  0  0
 35 36  1  0  0  0  0
 37  4  1  0  0  0  0
 37  1  1  0  0  0  0
 38  1  1  0  0  0  0
 38 44  1  0  0  0  0
 39 38  1  0  0  0  0
 40 38  1  0  0  0  0
 40 43  1  0  0  0  0
 41 40  1  0  0  0  0
 42 40  1  0  0  0  0
 44 45  1  0  0  0  0
 44 46  1  0  0  0  0
 47 44  1  0  0  0  0
M  END
