1,2
q = 0.0, confidence = 0.996

 40 42  0  0  0  0  0  0  0  0999 V2000
   -0.5613    0.5872    0.1586 N   0  0  0  0  0  2  0  0  0  0  0  0
    1.8525   -0.1789    0.0356 N   0  0  0  0  0  2  0  0  0  0  0  0
    1.6679    1.1843    0.1176 C   0  0  0  0  0  0  0  0  0  0  0  0
    1.0542    3.9161   -0.3832 C   0  0  0  0  0  0  0  0  0  0  0  0
    1.0967    3.7346   -1.4788 H   0  0  0  0  0  0  0  0  0  0  0  0
    0.8249    4.9912   -0.2438 H   0  0  0  0  0  0  0  0  0  0  0  0
    3.1126   -0.6943   -0.0101 C   0  0  0  0  0  0  0  0  0  0  0  0
    2.4181    3.5805    0.2357 C   0  0  0  0  0  0  0  0  0  0  0  0
    3.2270    4.1668   -0.2459 H   0  0  0  0  0  0  0  0  0  0  0  0
    2.4197    3.8815    1.3089 H   0  0  0  0  0  0  0  0  0  0  0  0
    0.2871    1.5973    0.1638 C   0  0  0  0  0  0  0  0  0  0  0  0
   -1.7616    0.9872   -2.4041 C   0  0  0  0  0  0  0  0  0  0  0  0
   -2.4061    0.9865   -3.3034 H   0  0  0  0  0  0  0  0  0  0  0  0
   -1.0657    0.1213   -2.4598 H   0  0  0  0  0  0  0  0  0  0  0  0
   -1.1271    1.8988   -2.4493 H   0  0  0  0  0  0  0  0  0  0  0  0
   -1.9635    0.7691    0.1161 C   0  0  0  0  0  0  0  0  0  0  0  0
    3.3153   -2.1680   -0.1018 C   0  0  0  0  0  0  0  0  0  0  0  0
    2.8268   -2.6698    0.7600 H   0  0  0  0  0  0  0  0  0  0  0  0
    4.3921   -2.4138   -0.1332 H   0  0  0  0  0  0  0  0  0  0  0  0
    2.7991   -2.5521   -1.0074 H   0  0  0  0  0  0  0  0  0  0  0  0
   -2.7000    0.6601    1.3218 C   0  0  0  0  0  0  0  0  0  0  0  0
   -4.0988    0.7763    1.2459 C   0  0  0  0  0  0  0  0  0  0  0  0
   -4.6901    0.6969    2.1716 H   0  0  0  0  0  0  0  0  0  0  0  0
   -2.5890    0.9457   -1.1453 C   0  0  0  0  0  0  0  0  0  0  0  0
    4.0317    1.5799    0.0908 C   0  0  0  0  0  0  0  0  0  0  0  0
    4.9032    2.2526    0.1006 H   0  0  0  0  0  0  0  0  0  0  0  0
   -0.0653    3.0577    0.2244 C   0  0  0  0  0  0  0  0  0  0  0  0
   -0.2215    3.3392    1.2920 H   0  0  0  0  0  0  0  0  0  0  0  0
   -1.0380    3.2321   -0.2777 H   0  0  0  0  0  0  0  0  0  0  0  0
   -3.9918    1.0537   -1.1675 C   0  0  0  0  0  0  0  0  0  0  0  0
   -4.4988    1.1930   -2.1351 H   0  0  0  0  0  0  0  0  0  0  0  0
   -1.9792    0.4094    2.6186 C   0  0  0  0  0  0  0  0  0  0  0  0
   -2.6913    0.2231    3.4446 H   0  0  0  0  0  0  0  0  0  0  0  0
   -1.3455    1.2755    2.9073 H   0  0  0  0  0  0  0  0  0  0  0  0
   -1.2934   -0.4603    2.5300 H   0  0  0  0  0  0  0  0  0  0  0  0
   -4.7420    0.9746    0.0151 C   0  0  0  0  0  0  0  0  0  0  0  0
   -5.8387    1.0564   -0.0245 H   0  0  0  0  0  0  0  0  0  0  0  0
    2.7360    2.1061    0.1430 C   0  0  0  0  0  0  0  0  0  0  0  0
    4.2093    0.1918    0.0222 C   0  0  0  0  0  0  0  0  0  0  0  0
    5.2191   -0.2394   -0.0203 H   0  0  0  0  0  0  0  0  0  0  0  0
  1 11  1  0  0  0  0
  2  3  1  0  0  0  0
  3 38  1  0  0  0  0
  3 11  2  0  0  0  0
  4  6  1  0  0  0  0
  4 27  1  0  0  0  0
  4  8  1  0  0  0  0
  5  4  1  0  0  0  0
  7 39  2  0  0  0  0
  7  2  1  0  0  0  0
  8 10  1  0  0  0  0
  9  8  1  0  0  0  0
 11 27  1  0  0  0  0
 12 24  1  0  0  0  0
 13 12  1  0  0  0  0
 14 12  1  0  0  0  0
 15 12  1  0  0  0  0
 16  1  1  0  0  0  0
 16 21  1  0  0  0  0
 17  7  1  0  0  0  0
 17 18  1  0  0  0  0
 19 17  1  0  0  0  0
 20 17  1  0  0  0  0
 21 32  1  0  0  0  0
 22 21  2  0  0  0  0
 22 23  1  0  0  0  0
 24 16  2  0  0  0  0
 25 26  1  0  0  0  0
 25 38  2  0  0  0  0
 27 28  1  0  0  0  0
 29 27  1  0  0  0  0
 30 24  1  0  0  0  0
 30 36  2  0  0  0  0
 31 30  1  0  0  0  0
 32 34  1  0  0  0  0
 32 33  1  0  0  0  0
 35 32  1  0  0  0  0
 36 22  1  0  0  0  0
 37 36  1  0  0  0  0
 38  8  1  0  0  0  0
 39 25  1  0  0  0  0
 40 39  1  0  0  0  0
M  END
