1,2
q = -1.0, confidence = 0.0

 39 41  0  0  0  0  0  0  0  0999 V2000
    0.4124    1.0588    0.2854 N   0  0  0  0  0  2  0  0  0  0  0  0
    0.4101   -1.0598   -0.2872 N   0  0  0  0  0  2  0  0  0  0  0  0
    1.1927   -0.0012   -0.0018 C   0  0  0  0  0  3  0  0  0  0  0  0
   -0.0371    3.2500    1.1688 C   0  0  0  0  0  0  0  0  0  0  0  0
    0.2384    4.6177    1.2746 C   0  0  0  0  0  0  0  0  0  0  0  0
    1.3284    5.1810    0.5893 C   0  0  0  0  0  0  0  0  0  0  0  0
    2.1300    4.3540   -0.2148 C   0  0  0  0  0  0  0  0  0  0  0  0
    1.8631    2.9830   -0.3279 C   0  0  0  0  0  0  0  0  0  0  0  0
    0.7786    2.4016    0.3795 C   0  0  0  0  0  0  0  0  0  0  0  0
    3.3973    0.5366    1.0847 C   0  0  0  0  0  0  0  0  0  0  0  0
    4.7955    0.5294    1.0817 C   0  0  0  0  0  0  0  0  0  0  0  0
    5.5226   -0.0037   -0.0053 C   0  0  0  0  0  0  0  0  0  0  0  0
    4.7948   -0.5344   -1.0895 C   0  0  0  0  0  0  0  0  0  0  0  0
    3.3941   -0.5406   -1.0912 C   0  0  0  0  0  0  0  0  0  0  0  0
    2.6770   -0.0023   -0.0035 C   0  0  0  0  0  0  0  0  0  0  0  0
    7.0298   -0.0054    0.0063 C   0  0  0  0  0  0  0  0  0  0  0  0
   -0.0443   -3.2502   -1.1705 C   0  0  0  0  0  0  0  0  0  0  0  0
    0.2283   -4.6185   -1.2762 C   0  0  0  0  0  0  0  0  0  0  0  0
    1.3174   -5.1839   -0.5913 C   0  0  0  0  0  0  0  0  0  0  0  0
    2.1212   -4.3585    0.2122 C   0  0  0  0  0  0  0  0  0  0  0  0
    1.8573   -2.9869    0.3251 C   0  0  0  0  0  0  0  0  0  0  0  0
    0.7736   -2.4033   -0.3818 C   0  0  0  0  0  0  0  0  0  0  0  0
   -0.9057    2.8078    1.6786 H   0  0  0  0  0  0  0  0  0  0  0  0
   -0.4127    5.2533    1.8943 H   0  0  0  0  0  0  0  0  0  0  0  0
    1.5415    6.2574    0.6679 H   0  0  0  0  0  0  0  0  0  0  0  0
    2.9735    4.7841   -0.7771 H   0  0  0  0  0  0  0  0  0  0  0  0
    2.4865    2.3587   -0.9819 H   0  0  0  0  0  0  0  0  0  0  0  0
    2.8482    0.9650    1.9362 H   0  0  0  0  0  0  0  0  0  0  0  0
    5.3404    0.9508    1.9414 H   0  0  0  0  0  0  0  0  0  0  0  0
    5.3393   -0.9542   -1.9499 H   0  0  0  0  0  0  0  0  0  0  0  0
    2.8448   -0.9676   -1.9431 H   0  0  0  0  0  0  0  0  0  0  0  0
    7.4465   -0.3976   -0.9412 H   0  0  0  0  0  0  0  0  0  0  0  0
    7.4333    1.0168    0.1609 H   0  0  0  0  0  0  0  0  0  0  0  0
    7.4235   -0.6321    0.8342 H   0  0  0  0  0  0  0  0  0  0  0  0
   -0.9122   -2.8062   -1.6800 H   0  0  0  0  0  0  0  0  0  0  0  0
   -0.4245   -5.2529   -1.8954 H   0  0  0  0  0  0  0  0  0  0  0  0
    1.5282   -6.2608   -0.6699 H   0  0  0  0  0  0  0  0  0  0  0  0
    2.9642   -4.7902    0.7740 H   0  0  0  0  0  0  0  0  0  0  0  0
    2.4825   -2.3637    0.9783 H   0  0  0  0  0  0  0  0  0  0  0  0
  1  9  1  0  0  0  0
  2  3  1  0  0  0  0
  3  1  1  0  0  0  0
  4  5  1  0  0  0  0
  4 23  1  0  0  0  0
  5 24  1  0  0  0  0
  6 25  1  0  0  0  0
  6  5  2  0  0  0  0
  7  6  1  0  0  0  0
  8  7  2  0  0  0  0
  8  9  1  0  0  0  0
  9  4  2  0  0  0  0
 10 28  1  0  0  0  0
 11 10  1  0  0  0  0
 11 29  1  0  0  0  0
 12 16  1  0  0  0  0
 12 11  2  0  0  0  0
 13 12  1  0  0  0  0
 14 13  2  0  0  0  0
 14 15  1  0  0  0  0
 15  3  1  0  0  0  0
 15 10  2  0  0  0  0
 16 33  1  0  0  0  0
 16 34  1  0  0  0  0
 17 22  1  0  0  0  0
 18 17  2  0  0  0  0
 18 19  1  0  0  0  0
 19 20  2  0  0  0  0
 20 21  1  0  0  0  0
 20 38  1  0  0  0  0
 21 39  1  0  0  0  0
 22  2  1  0  0  0  0
 22 21  2  0  0  0  0
 26  7  1  0  0  0  0
 27  8  1  0  0  0  0
 30 13  1  0  0  0  0
 31 14  1  0  0  0  0
 32 16  1  0  0  0  0
 35 17  1  0  0  0  0
 36 18  1  0  0  0  0
 37 19  1  0  0  0  0
M  END
