1,4
q = 0.0, confidence = 0.998

 26 27  0  0  1  0  0  0  0  0999 V2000
   -0.8251   -1.5443   -0.0400 N   0  0  0  0  0  2  0  0  0  0  0  0
   -3.0057   -2.0083   -0.3155 N   0  0  0  0  0  0  0  0  0  0  0  0
   -1.8459    3.0019   -1.1430 N   0  0  0  0  0  0  0  0  0  0  0  0
   -0.3515    1.4689   -0.4549 N   0  0  0  0  0  2  0  0  0  0  0  0
   -0.8676   -2.6598   -0.9936 C   0  0  0  0  0  0  0  0  0  0  0  0
   -2.3391   -3.1547   -0.9512 C   0  0  0  0  0  0  0  0  0  0  0  0
   -2.0462   -1.2285    0.2822 C   0  0  2  0  0  3  0  0  0  0  0  0
   -2.3870   -0.0489    1.1433 C   0  0  0  0  0  0  0  0  0  0  0  0
   -2.7242    1.2169    0.3376 C   0  0  0  0  0  0  0  0  0  0  0  0
   -1.5872    1.8710   -0.4029 C   0  0  2  0  0  3  0  0  0  0  0  0
   -0.5681    3.5916   -1.5588 C   0  0  0  0  0  0  0  0  0  0  0  0
    0.3957    2.4022   -1.3174 C   0  0  0  0  0  0  0  0  0  0  0  0
   -3.9322   -2.1024    0.1028 H   0  0  0  0  0  0  0  0  0  0  0  0
   -2.6521    3.5898   -0.9277 H   0  0  0  0  0  0  0  0  0  0  0  0
   -0.5677   -2.2773   -1.9932 H   0  0  0  0  0  0  0  0  0  0  0  0
   -0.1297   -3.4388   -0.7200 H   0  0  0  0  0  0  0  0  0  0  0  0
   -2.4518   -4.0726   -0.3312 H   0  0  0  0  0  0  0  0  0  0  0  0
   -2.7564   -3.3644   -1.9561 H   0  0  0  0  0  0  0  0  0  0  0  0
   -3.2609   -0.2995    1.7786 H   0  0  0  0  0  0  0  0  0  0  0  0
   -1.5207    0.1398    1.8171 H   0  0  0  0  0  0  0  0  0  0  0  0
   -3.1432    1.9758    1.0340 H   0  0  0  0  0  0  0  0  0  0  0  0
   -3.5293    1.0087   -0.4008 H   0  0  0  0  0  0  0  0  0  0  0  0
   -0.5937    3.9197   -2.6172 H   0  0  0  0  0  0  0  0  0  0  0  0
   -0.3101    4.4733   -0.9294 H   0  0  0  0  0  0  0  0  0  0  0  0
    1.3456    2.6940   -0.8282 H   0  0  0  0  0  0  0  0  0  0  0  0
    0.6747    1.8664   -2.2498 H   0  0  0  0  0  0  0  0  0  0  0  0
  1  7  1  0  0  0  0
  2 13  1  0  0  0  0
  2  7  1  0  0  0  0
  3 14  1  0  0  0  0
  3 10  1  0  0  0  0
  4 10  1  0  0  0  0
  5  6  1  0  0  0  0
  5 16  1  0  0  0  0
  5  1  1  0  0  0  0
  6 17  1  0  0  0  0
  6  2  1  0  0  0  0
  7  8  1  6  0  0  0
  8 19  1  0  0  0  0
  8 20  1  0  0  0  0
  9 21  1  0  0  0  0
  9  8  1  0  0  0  0
 10  9  1  6  0  0  0
 11 12  1  0  0  0  0
 11  3  1  0  0  0  0
 11 24  1  0  0  0  0
 12 25  1  0  0  0  0
 12  4  1  0  0  0  0
 15  5  1  0  0  0  0
 18  6  1  0  0  0  0
 22  9  1  0  0  0  0
 23 11  1  0  0  0  0
 26 12  1  0  0  0  0
M  END
