1,2
q = 0.0, confidence = 0.99

 38 41  0  0  0  0  0  0  0  0999 V2000
   -0.3671    0.0957   -0.6391 N   0  0  0  0  0  2  0  0  0  0  0  0
    1.2046   -2.0637   -0.7837 N   0  0  0  0  0  2  0  0  0  0  0  0
   -2.4001   -1.2195   -0.6563 C   0  0  0  0  0  0  0  0  0  0  0  0
   -2.8740   -2.2080   -0.6978 H   0  0  0  0  0  0  0  0  0  0  0  0
   -7.4796   -0.3419   -0.0327 N   0  0  0  0  0  0  0  0  0  0  0  0
   -1.0060   -1.1134   -0.7373 C   0  0  0  0  0  0  0  0  0  0  0  0
   -0.1344   -2.2921   -0.9196 C   0  0  0  0  0  0  0  0  0  0  0  0
   -5.3824    0.7466    0.4890 C   0  0  0  0  0  0  0  0  0  0  0  0
   -4.8633    1.5383    1.0496 H   0  0  0  0  0  0  0  0  0  0  0  0
   -6.7750    0.6110    0.5964 C   0  0  0  0  0  0  0  0  0  0  0  0
   -7.3490    1.3111    1.2287 H   0  0  0  0  0  0  0  0  0  0  0  0
   -3.1978   -0.0753   -0.4534 C   0  0  0  0  0  0  0  0  0  0  0  0
   -0.4751    2.5596   -0.5173 C   0  0  0  0  0  0  0  0  0  0  0  0
   -2.5223    1.1576   -0.3948 C   0  0  0  0  0  0  0  0  0  0  0  0
   -3.0688    2.1026   -0.2780 H   0  0  0  0  0  0  0  0  0  0  0  0
   -1.1265    1.2168   -0.5207 C   0  0  0  0  0  0  0  0  0  0  0  0
   -6.8029   -1.2068   -0.8031 C   0  0  0  0  0  0  0  0  0  0  0  0
   -7.4011   -1.9769   -1.3214 H   0  0  0  0  0  0  0  0  0  0  0  0
   -5.4106   -1.1690   -0.9748 C   0  0  0  0  0  0  0  0  0  0  0  0
   -4.9231   -1.8930   -1.6450 H   0  0  0  0  0  0  0  0  0  0  0  0
    0.5603    5.0935   -0.4328 C   0  0  0  0  0  0  0  0  0  0  0  0
    0.9586    6.1150   -0.3509 H   0  0  0  0  0  0  0  0  0  0  0  0
    2.0740   -3.0828   -0.9868 C   0  0  0  0  0  0  0  0  0  0  0  0
    3.1404   -2.8405   -0.8747 H   0  0  0  0  0  0  0  0  0  0  0  0
   -4.6680   -0.1674   -0.3144 C   0  0  0  0  0  0  0  0  0  0  0  0
    1.6555   -4.3723   -1.3214 C   0  0  0  0  0  0  0  0  0  0  0  0
    2.4029   -5.1619   -1.4804 H   0  0  0  0  0  0  0  0  0  0  0  0
    0.2456    3.0247   -1.6341 C   0  0  0  0  0  0  0  0  0  0  0  0
    0.3826    2.3875   -2.5193 H   0  0  0  0  0  0  0  0  0  0  0  0
    0.2809   -4.6234   -1.4502 C   0  0  0  0  0  0  0  0  0  0  0  0
   -0.0865   -5.6255   -1.7147 H   0  0  0  0  0  0  0  0  0  0  0  0
   -0.6184   -3.5722   -1.2491 C   0  0  0  0  0  0  0  0  0  0  0  0
   -1.6962   -3.7421   -1.3672 H   0  0  0  0  0  0  0  0  0  0  0  0
   -0.1725    4.5336    0.6272 C   0  0  0  0  0  0  0  0  0  0  0  0
   -0.3490    5.1100    1.5511 H   0  0  0  0  0  0  0  0  0  0  0  0
    0.7681    4.3242   -1.5860 C   0  0  0  0  0  0  0  0  0  0  0  0
    1.3319    4.7288   -2.4395 H   0  0  0  0  0  0  0  0  0  0  0  0
   -0.6947    3.2972    0.5885 N   0  0  0  0  0  0  0  0  0  0  0  0
  1 16  1  0  0  0  0
  3 12  2  0  0  0  0
  4  3  1  0  0  0  0
  5 10  1  0  0  0  0
  6  3  1  0  0  0  0
  6  1  1  0  0  0  0
  7  2  1  0  0  0  0
  7  6  2  0  0  0  0
  8 10  2  0  0  0  0
  8  9  1  0  0  0  0
 10 11  1  0  0  0  0
 12 14  1  0  0  0  0
 12 25  1  0  0  0  0
 13 38  1  0  0  0  0
 14 15  1  0  0  0  0
 16 13  1  0  0  0  0
 16 14  2  0  0  0  0
 17  5  2  0  0  0  0
 18 17  1  0  0  0  0
 19 17  1  0  0  0  0
 19 25  2  0  0  0  0
 20 19  1  0  0  0  0
 21 22  1  0  0  0  0
 21 34  1  0  0  0  0
 23 24  1  0  0  0  0
 23  2  1  0  0  0  0
 25  8  1  0  0  0  0
 26 23  2  0  0  0  0
 27 26  1  0  0  0  0
 28 36  1  0  0  0  0
 28 13  2  0  0  0  0
 29 28  1  0  0  0  0
 30 26  1  0  0  0  0
 30 32  2  0  0  0  0
 31 30  1  0  0  0  0
 32  7  1  0  0  0  0
 33 32  1  0  0  0  0
 34 35  1  0  0  0  0
 36 21  2  0  0  0  0
 37 36  1  0  0  0  0
 38 34  2  0  0  0  0
M  END
