4,5
q = -1.0

 52 53  0  0  0  0  0  0  0  0999 V2000
    2.3038    0.7622    0.4943 P   0  0  0  0  0  0  0  0  0  0  0  0
    3.3342    1.1743   -1.4909 Si  0  0  0  0  0  0  0  0  0  0  0  0
    3.3647   -0.8484    1.6927 Si  0  0  0  0  0  0  0  0  0  0  0  0
   -0.0516   -0.9027    0.0980 N   0  0  0  0  0  2  0  0  0  0  0  0
   -0.3706    1.2885   -0.0440 N   0  0  0  0  0  2  0  0  0  0  0  0
    2.0109    1.5091   -2.8023 C   0  0  0  0  0  0  0  0  0  0  0  0
    4.5127   -0.1987   -2.0502 C   0  0  0  0  0  0  0  0  0  0  0  0
    4.3309    2.7540   -1.1896 C   0  0  0  0  0  0  0  0  0  0  0  0
    4.0242   -2.4421    0.9298 C   0  0  0  0  0  0  0  0  0  0  0  0
    4.8556    0.1475    2.3228 C   0  0  0  0  0  0  0  0  0  0  0  0
    2.1833   -1.2354    3.1207 C   0  0  0  0  0  0  0  0  0  0  0  0
    0.6043   -2.0991   -0.2288 C   0  0  0  0  0  0  0  0  0  0  0  0
    0.3934   -3.2677    0.5372 C   0  0  0  0  0  0  0  0  0  0  0  0
    0.9630   -4.4873    0.1465 C   0  0  0  0  0  0  0  0  0  0  0  0
    1.7527   -4.5712   -1.0126 C   0  0  0  0  0  0  0  0  0  0  0  0
    1.9774   -3.4133   -1.7750 C   0  0  0  0  0  0  0  0  0  0  0  0
    1.4107   -2.1924   -1.3872 C   0  0  0  0  0  0  0  0  0  0  0  0
   -0.1554    2.6581    0.1865 C   0  0  0  0  0  0  0  0  0  0  0  0
   -0.4898    3.5969   -0.8175 C   0  0  0  0  0  0  0  0  0  0  0  0
   -0.3346    4.9742   -0.5985 C   0  0  0  0  0  0  0  0  0  0  0  0
    0.1532    5.4479    0.6285 C   0  0  0  0  0  0  0  0  0  0  0  0
    0.4819    4.5262    1.6372 C   0  0  0  0  0  0  0  0  0  0  0  0
    0.3303    3.1510    1.4232 C   0  0  0  0  0  0  0  0  0  0  0  0
    0.5295    0.3101    0.1072 C   0  0  0  0  0  3  0  0  0  0  0  0
    1.3482    2.3336   -2.4726 H   0  0  0  0  0  0  0  0  0  0  0  0
    1.3839    0.6187   -3.0071 H   0  0  0  0  0  0  0  0  0  0  0  0
    2.4970    1.8125   -3.7530 H   0  0  0  0  0  0  0  0  0  0  0  0
    3.9984   -1.1729   -2.1595 H   0  0  0  0  0  0  0  0  0  0  0  0
    5.3380   -0.3266   -1.3206 H   0  0  0  0  0  0  0  0  0  0  0  0
    4.9655    0.0738   -3.0270 H   0  0  0  0  0  0  0  0  0  0  0  0
    3.6558    3.5803   -0.8881 H   0  0  0  0  0  0  0  0  0  0  0  0
    4.8828    3.0607   -2.1029 H   0  0  0  0  0  0  0  0  0  0  0  0
    5.0687    2.6060   -0.3745 H   0  0  0  0  0  0  0  0  0  0  0  0
    3.2161   -3.1387    0.6426 H   0  0  0  0  0  0  0  0  0  0  0  0
    4.6605   -2.9421    1.6915 H   0  0  0  0  0  0  0  0  0  0  0  0
    4.6498   -2.2465    0.0381 H   0  0  0  0  0  0  0  0  0  0  0  0
    4.5369    1.0773    2.8343 H   0  0  0  0  0  0  0  0  0  0  0  0
    5.5286    0.4313    1.4867 H   0  0  0  0  0  0  0  0  0  0  0  0
    5.4491   -0.4625    3.0360 H   0  0  0  0  0  0  0  0  0  0  0  0
    1.8696   -0.3072    3.6393 H   0  0  0  0  0  0  0  0  0  0  0  0
    2.6770   -1.8995    3.8604 H   0  0  0  0  0  0  0  0  0  0  0  0
    1.2785   -1.7517    2.7442 H   0  0  0  0  0  0  0  0  0  0  0  0
   -0.2426   -3.2072    1.4289 H   0  0  0  0  0  0  0  0  0  0  0  0
    0.7808   -5.3865    0.7545 H   0  0  0  0  0  0  0  0  0  0  0  0
    2.1906   -5.5327   -1.3192 H   0  0  0  0  0  0  0  0  0  0  0  0
    2.5918   -3.4620   -2.6875 H   0  0  0  0  0  0  0  0  0  0  0  0
    1.5562   -1.2934   -2.0004 H   0  0  0  0  0  0  0  0  0  0  0  0
   -0.8616    3.2358   -1.7854 H   0  0  0  0  0  0  0  0  0  0  0  0
   -0.5954    5.6820   -1.4003 H   0  0  0  0  0  0  0  0  0  0  0  0
    0.2738    6.5278    0.8007 H   0  0  0  0  0  0  0  0  0  0  0  0
    0.8606    4.8824    2.6075 H   0  0  0  0  0  0  0  0  0  0  0  0
    0.5992    2.4388    2.2143 H   0  0  0  0  0  0  0  0  0  0  0  0
  1  3  1  0  0  0  0
  2  8  1  0  0  0  0
  2  1  1  0  0  0  0
  3 10  1  0  0  0  0
  3 11  1  0  0  0  0
  4 24  1  0  0  0  0
  5 24  1  0  0  0  0
  5 18  1  0  0  0  0
  6 25  1  0  0  0  0
  6  2  1  0  0  0  0
  7  2  1  0  0  0  0
  7 29  1  0  0  0  0
  8 31  1  0  0  0  0
  8 33  1  0  0  0  0
  9 35  1  0  0  0  0
  9  3  1  0  0  0  0
 10 37  1  0  0  0  0
 10 39  1  0  0  0  0
 11 40  1  0  0  0  0
 11 41  1  0  0  0  0
 12  4  1  0  0  0  0
 12 13  1  0  0  0  0
 13 43  1  0  0  0  0
 14 13  2  0  0  0  0
 14 44  1  0  0  0  0
 15 14  1  0  0  0  0
 16 17  1  0  0  0  0
 16 15  2  0  0  0  0
 17 12  2  0  0  0  0
 18 23  1  0  0  0  0
 19 20  1  0  0  0  0
 19 18  2  0  0  0  0
 20 21  2  0  0  0  0
 21 50  1  0  0  0  0
 21 22  1  0  0  0  0
 22 51  1  0  0  0  0
 23 22  2  0  0  0  0
 23 52  1  0  0  0  0
 24  1  1  0  0  0  0
 26  6  1  0  0  0  0
 27  6  1  0  0  0  0
 28  7  1  0  0  0  0
 30  7  1  0  0  0  0
 32  8  1  0  0  0  0
 34  9  1  0  0  0  0
 36  9  1  0  0  0  0
 38 10  1  0  0  0  0
 42 11  1  0  0  0  0
 45 15  1  0  0  0  0
 46 16  1  0  0  0  0
 47 17  1  0  0  0  0
 48 19  1  0  0  0  0
 49 20  1  0  0  0  0
M  END
