1,2
q = -1.0

 24 24  0  0  0  0  0  0  0  0999 V2000
   -0.9760   -1.6712   -0.0576 N   0  0  0  0  0  2  0  0  0  0  0  0
   -1.5006    0.7833   -0.3006 N   0  0  0  0  0  2  0  0  0  0  0  0
   -0.8737   -3.0230   -0.0695 C   0  0  0  0  0  3  0  0  0  0  0  0
   -2.1638   -3.6033   -0.0294 C   0  0  0  0  0  0  0  0  0  0  0  0
   -3.0927   -2.5429   -0.0059 C   0  0  0  0  0  0  0  0  0  0  0  0
   -2.3279   -1.3530   -0.0344 C   0  0  0  0  0  0  0  0  0  0  0  0
   -2.5928    0.0438   -0.1552 C   0  0  0  0  0  0  0  0  0  0  0  0
   -3.9883    0.5998   -0.1420 C   0  0  0  0  0  0  0  0  0  0  0  0
   -1.5424    2.2324   -0.3857 C   0  0  0  0  0  0  0  0  0  0  0  0
   -1.2663    2.9054    0.9668 C   0  0  0  0  0  0  0  0  0  0  0  0
   -1.1984    4.4276    0.8613 C   0  0  0  0  0  0  0  0  0  0  0  0
    0.0962   -3.5285   -0.1296 H   0  0  0  0  0  0  0  0  0  0  0  0
   -2.3836   -4.6774   -0.0261 H   0  0  0  0  0  0  0  0  0  0  0  0
   -4.1864   -2.6195    0.0119 H   0  0  0  0  0  0  0  0  0  0  0  0
   -4.1165    1.3467    0.6677 H   0  0  0  0  0  0  0  0  0  0  0  0
   -4.2265    1.1102   -1.0982 H   0  0  0  0  0  0  0  0  0  0  0  0
   -4.7269   -0.2068    0.0116 H   0  0  0  0  0  0  0  0  0  0  0  0
   -2.5218    2.5723   -0.7874 H   0  0  0  0  0  0  0  0  0  0  0  0
   -0.7622    2.5524   -1.1048 H   0  0  0  0  0  0  0  0  0  0  0  0
   -2.0497    2.5996    1.6944 H   0  0  0  0  0  0  0  0  0  0  0  0
   -0.3075    2.5017    1.3538 H   0  0  0  0  0  0  0  0  0  0  0  0
   -0.9973    4.8946    1.8460 H   0  0  0  0  0  0  0  0  0  0  0  0
   -0.3899    4.7436    0.1693 H   0  0  0  0  0  0  0  0  0  0  0  0
   -2.1484    4.8552    0.4772 H   0  0  0  0  0  0  0  0  0  0  0  0
  1  6  1  0  0  0  0
  2  7  1  0  0  0  0
  3  1  1  0  0  0  0
  3  4  1  0  0  0  0
  4 13  1  0  0  0  0
  4  5  2  0  0  0  0
  5 14  1  0  0  0  0
  6  5  1  0  0  0  0
  7  8  1  0  0  0  0
  7  6  2  0  0  0  0
  8 17  1  0  0  0  0
  8 15  1  0  0  0  0
  9  2  1  0  0  0  0
  9 10  1  0  0  0  0
 10 21  1  0  0  0  0
 10 20  1  0  0  0  0
 11 10  1  0  0  0  0
 11 22  1  0  0  0  0
 12  3  1  0  0  0  0
 16  8  1  0  0  0  0
 18  9  1  0  0  0  0
 19  9  1  0  0  0  0
 23 11  1  0  0  0  0
 24 11  1  0  0  0  0
M  END
