1,2
q = -1.0

 18 18  0  0  0  0  0  0  0  0999 V2000
   -1.5798   -0.9873   -0.1665 N   0  0  0  0  0  2  0  0  0  0  0  0
   -1.1986    1.4595    0.3949 N   0  0  0  0  0  2  0  0  0  0  0  0
   -1.9388   -2.1987   -0.6628 C   0  0  0  0  0  3  0  0  0  0  0  0
   -3.3239   -2.2148   -0.9556 C   0  0  0  0  0  0  0  0  0  0  0  0
   -3.8267   -0.9396   -0.6308 C   0  0  0  0  0  0  0  0  0  0  0  0
   -2.7203   -0.1945   -0.1568 C   0  0  0  0  0  0  0  0  0  0  0  0
   -2.4817    1.1591    0.2166 C   0  0  0  0  0  0  0  0  0  0  0  0
   -3.5914    2.1479    0.4198 C   0  0  0  0  0  0  0  0  0  0  0  0
   -0.8244    2.7567    0.9260 C   0  0  0  0  0  0  0  0  0  0  0  0
   -1.2142   -3.0105   -0.7900 H   0  0  0  0  0  0  0  0  0  0  0  0
   -3.8864   -3.0684   -1.3522 H   0  0  0  0  0  0  0  0  0  0  0  0
   -4.8585   -0.5847   -0.7411 H   0  0  0  0  0  0  0  0  0  0  0  0
   -3.4197    3.0760   -0.1631 H   0  0  0  0  0  0  0  0  0  0  0  0
   -4.5634    1.7163    0.1219 H   0  0  0  0  0  0  0  0  0  0  0  0
   -3.6639    2.4480    1.4871 H   0  0  0  0  0  0  0  0  0  0  0  0
   -1.4854    3.0647    1.7648 H   0  0  0  0  0  0  0  0  0  0  0  0
    0.2116    2.7152    1.3042 H   0  0  0  0  0  0  0  0  0  0  0  0
   -0.8752    3.5573    0.1532 H   0  0  0  0  0  0  0  0  0  0  0  0
  1  6  1  0  0  0  0
  2  9  1  0  0  0  0
  3  1  1  0  0  0  0
  4  3  1  0  0  0  0
  4  5  2  0  0  0  0
  5  6  1  0  0  0  0
  6  7  2  0  0  0  0
  7  2  1  0  0  0  0
  7  8  1  0  0  0  0
  8 15  1  0  0  0  0
  9 17  1  0  0  0  0
  9 16  1  0  0  0  0
 10  3  1  0  0  0  0
 11  4  1  0  0  0  0
 12  5  1  0  0  0  0
 13  8  1  0  0  0  0
 14  8  1  0  0  0  0
 18  9  1  0  0  0  0
M  END
