1,2
q = -1.0, confidence = 0.002

 27 27  0  0  1  0  0  0  0  0999 V2000
   -1.6789   -0.7951   -0.9779 N   0  0  0  0  0  0  0  0  0  0  0  0
   -1.0374    1.5730   -0.3268 N   0  0  0  0  0  2  0  0  0  0  0  0
   -3.3759    2.4503   -0.0986 C   0  0  0  0  0  0  0  0  0  0  0  0
   -2.1694   -1.9354   -1.5269 C   0  0  0  0  0  0  0  0  0  0  0  0
   -3.5584   -1.8016   -1.7654 C   0  0  0  0  0  0  0  0  0  0  0  0
   -3.9232   -0.5052   -1.3511 C   0  0  0  0  0  0  0  0  0  0  0  0
   -2.7344    0.1032   -0.8809 C   0  0  0  0  0  3  0  0  0  0  0  0
   -2.3517    1.4033   -0.4378 C   0  0  2  0  0  3  0  0  0  0  0  0
    0.1951    2.3230    1.7016 C   0  0  0  0  0  0  0  0  0  0  0  0
    0.9429    3.5226    2.2896 C   0  0  0  0  0  0  0  0  0  0  0  0
   -0.8208    1.7367    2.6856 C   0  0  0  0  0  0  0  0  0  0  0  0
   -0.4667    2.7165    0.3633 C   0  0  0  0  0  0  0  0  0  0  0  0
   -3.1434    3.4250   -0.5719 H   0  0  0  0  0  0  0  0  0  0  0  0
   -4.3776    2.1278   -0.4349 H   0  0  0  0  0  0  0  0  0  0  0  0
   -3.4255    2.6170    0.9977 H   0  0  0  0  0  0  0  0  0  0  0  0
   -1.5269   -2.7980   -1.7400 H   0  0  0  0  0  0  0  0  0  0  0  0
   -4.2136   -2.5703   -2.1924 H   0  0  0  0  0  0  0  0  0  0  0  0
   -4.9184   -0.0478   -1.4042 H   0  0  0  0  0  0  0  0  0  0  0  0
    0.9396    1.5338    1.4556 H   0  0  0  0  0  0  0  0  0  0  0  0
    1.7143    3.9010    1.5881 H   0  0  0  0  0  0  0  0  0  0  0  0
    0.2476    4.3597    2.5157 H   0  0  0  0  0  0  0  0  0  0  0  0
    1.4524    3.2495    3.2356 H   0  0  0  0  0  0  0  0  0  0  0  0
   -1.3513    0.8663    2.2493 H   0  0  0  0  0  0  0  0  0  0  0  0
   -0.3226    1.3930    3.6147 H   0  0  0  0  0  0  0  0  0  0  0  0
   -1.5815    2.4937    2.9753 H   0  0  0  0  0  0  0  0  0  0  0  0
   -1.2412    3.4901    0.5553 H   0  0  0  0  0  0  0  0  0  0  0  0
    0.3012    3.1903   -0.2794 H   0  0  0  0  0  0  0  0  0  0  0  0
  1  7  1  0  0  0  0
  2 12  1  0  0  0  0
  3 15  1  0  0  0  0
  4  1  2  0  0  0  0
  5  4  1  0  0  0  0
  5  6  2  0  0  0  0
  6  7  1  0  0  0  0
  7  8  1  0  0  0  0
  8  2  1  1  0  0  0
  8  3  1  0  0  0  0
  9 10  1  0  0  0  0
  9 11  1  0  0  0  0
 10 21  1  0  0  0  0
 10 22  1  0  0  0  0
 11 25  1  0  0  0  0
 11 24  1  0  0  0  0
 12 26  1  0  0  0  0
 12  9  1  0  0  0  0
 13  3  1  0  0  0  0
 14  3  1  0  0  0  0
 16  4  1  0  0  0  0
 17  5  1  0  0  0  0
 18  6  1  0  0  0  0
 19  9  1  0  0  0  0
 20 10  1  0  0  0  0
 23 11  1  0  0  0  0
 27 12  1  0  0  0  0
M  END
