2,5
q = -1.0

 34 33  0  0  1  0  0  0  0  0999 V2000
   -1.6554    3.7129    0.5916 O   0  0  0  0  0  0  0  0  0  0  0  0
   -1.7642    0.5395   -1.0772 N   0  0  0  0  0  0  0  0  0  0  0  0
   -1.5493    0.8613   -2.0328 H   0  0  0  0  0  0  0  0  0  0  0  0
   -2.3645   -0.2921   -1.1832 H   0  0  0  0  0  0  0  0  0  0  0  0
   -0.1549    1.9468    0.2959 N   0  0  0  0  0  2  0  0  0  0  0  0
   -5.0659   -0.5615    1.6300 C   0  0  0  0  0  0  0  0  0  0  0  0
   -4.2976   -1.2160    2.0904 H   0  0  0  0  0  0  0  0  0  0  0  0
   -5.9320   -1.1957    1.3526 H   0  0  0  0  0  0  0  0  0  0  0  0
   -5.4066    0.1549    2.4071 H   0  0  0  0  0  0  0  0  0  0  0  0
   -5.5884    1.0206   -0.2777 C   0  0  0  0  0  0  0  0  0  0  0  0
   -5.9762    1.8018    0.4096 H   0  0  0  0  0  0  0  0  0  0  0  0
   -6.4453    0.3892   -0.5882 H   0  0  0  0  0  0  0  0  0  0  0  0
   -5.2101    1.5358   -1.1839 H   0  0  0  0  0  0  0  0  0  0  0  0
   -4.5050    0.1842    0.4133 C   0  0  0  0  0  0  0  0  0  0  0  0
   -4.1650   -0.5968   -0.3091 H   0  0  0  0  0  0  0  0  0  0  0  0
   -3.2875    1.0333    0.8262 C   0  0  0  0  0  0  0  0  0  0  0  0
   -3.6233    1.8915    1.4462 H   0  0  0  0  0  0  0  0  0  0  0  0
   -2.6041    0.4310    1.4651 H   0  0  0  0  0  0  0  0  0  0  0  0
   -2.4520    1.6169   -0.3158 C   0  0  1  0  0  0  0  0  0  0  0  0
   -3.1040    2.2131   -0.9889 H   0  0  0  0  0  0  0  0  0  0  0  0
   -1.3695    2.5637    0.2338 C   0  0  0  0  0  0  0  0  0  0  0  0
    0.9685    2.7400    0.7564 C   0  0  0  0  0  0  0  0  0  0  0  0
    1.4754    2.2360    1.6158 H   0  0  0  0  0  0  0  0  0  0  0  0
    0.5747    3.7011    1.1544 H   0  0  0  0  0  0  0  0  0  0  0  0
    2.0086    3.0356   -0.3469 C   0  0  0  0  0  0  0  0  0  0  0  0
    2.3275    2.0561   -0.7810 H   0  0  0  0  0  0  0  0  0  0  0  0
    1.3876    3.8464   -1.4871 C   0  0  0  0  0  0  0  0  0  0  0  0
    0.5222    3.3089   -1.9233 H   0  0  0  0  0  0  0  0  0  0  0  0
    2.1213    4.0338   -2.2973 H   0  0  0  0  0  0  0  0  0  0  0  0
    1.0179    4.8254   -1.1178 H   0  0  0  0  0  0  0  0  0  0  0  0
    3.2426    3.7237    0.2443 C   0  0  0  0  0  0  0  0  0  0  0  0
    2.9701    4.7026    0.6923 H   0  0  0  0  0  0  0  0  0  0  0  0
    4.0133    3.9118   -0.5302 H   0  0  0  0  0  0  0  0  0  0  0  0
    3.7116    3.1119    1.0442 H   0  0  0  0  0  0  0  0  0  0  0  0
  2 19  1  0  0  0  0
  3  2  1  0  0  0  0
  4  2  1  0  0  0  0
  5 22  1  0  0  0  0
  6  7  1  0  0  0  0
  6  9  1  0  0  0  0
  8  6  1  0  0  0  0
 10 11  1  0  0  0  0
 10 14  1  0  0  0  0
 12 10  1  0  0  0  0
 13 10  1  0  0  0  0
 14 16  1  0  0  0  0
 14  6  1  0  0  0  0
 15 14  1  0  0  0  0
 16 17  1  0  0  0  0
 16 18  1  0  0  0  0
 19 20  1  6  0  0  0
 19 21  1  0  0  0  0
 19 16  1  0  0  0  0
 21  5  1  0  0  0  0
 21  1  2  0  0  0  0
 22 24  1  0  0  0  0
 22 23  1  0  0  0  0
 25 31  1  0  0  0  0
 25 22  1  0  0  0  0
 26 25  1  0  0  0  0
 27 30  1  0  0  0  0
 27 25  1  0  0  0  0
 28 27  1  0  0  0  0
 29 27  1  0  0  0  0
 31 32  1  0  0  0  0
 31 34  1  0  0  0  0
 33 31  1  0  0  0  0
M  END
