3,4
q = 0.0, confidence = 0.992

 47 53  0  0  1  0  0  0  0  0999 V2000
    2.0855    2.2325   -1.1716 O   0  0  0  0  0  0  0  0  0  0  0  0
   -2.0851    2.2317    1.1723 O   0  0  0  0  0  0  0  0  0  0  0  0
    1.1486    0.2244   -0.7201 N   0  0  0  0  0  2  0  0  0  0  0  0
   -1.1481    0.2239    0.7195 N   0  0  0  0  0  2  0  0  0  0  0  0
    2.4908   -0.0866   -1.2834 C   0  0  2  0  0  0  0  0  0  0  0  0
    2.3688   -0.8960   -2.0302 H   0  0  0  0  0  0  0  0  0  0  0  0
    3.4967   -0.4356   -0.2020 C   0  0  0  0  0  0  0  0  0  0  0  0
    3.4350   -1.4789    0.7333 C   0  0  0  0  0  0  0  0  0  0  0  0
    2.5910   -2.1847    0.7140 H   0  0  0  0  0  0  0  0  0  0  0  0
    4.4747   -1.5963    1.6701 C   0  0  0  0  0  0  0  0  0  0  0  0
    4.4453   -2.4077    2.4130 H   0  0  0  0  0  0  0  0  0  0  0  0
    5.5499   -0.6886    1.6694 C   0  0  0  0  0  0  0  0  0  0  0  0
    6.3547   -0.7947    2.4130 H   0  0  0  0  0  0  0  0  0  0  0  0
    5.6074    0.3521    0.7271 C   0  0  0  0  0  0  0  0  0  0  0  0
    6.4517    1.0590    0.7275 H   0  0  0  0  0  0  0  0  0  0  0  0
    4.5718    0.4750   -0.2102 C   0  0  0  0  0  0  0  0  0  0  0  0
    4.4272    1.4781   -1.3334 C   0  0  0  0  0  0  0  0  0  0  0  0
    5.1404    1.2657   -2.1592 H   0  0  0  0  0  0  0  0  0  0  0  0
    4.5994    2.5297   -1.0253 H   0  0  0  0  0  0  0  0  0  0  0  0
    2.9889    1.2775   -1.8252 C   0  0  2  0  0  0  0  0  0  0  0  0
    2.8611    1.4208   -2.9168 H   0  0  0  0  0  0  0  0  0  0  0  0
    1.0708    1.5214   -0.6401 C   0  0  1  0  0  3  0  0  0  0  0  0
   -0.0004    2.3044   -0.0007 C   0  0  0  0  0  0  0  0  0  0  0  0
    0.3832    3.6559    0.6342 C   0  0  0  0  0  0  0  0  0  0  0  0
   -0.1472    3.8974    1.5667 H   0  0  0  0  0  0  0  0  0  0  0  0
    1.4543    3.9019    0.6039 H   0  0  0  0  0  0  0  0  0  0  0  0
   -0.3860    3.6543   -0.6378 C   0  0  0  0  0  0  0  0  0  0  0  0
    0.1441    3.8951   -1.5707 H   0  0  0  0  0  0  0  0  0  0  0  0
   -1.4574    3.8988   -0.6079 H   0  0  0  0  0  0  0  0  0  0  0  0
   -1.0706    1.5209    0.6397 C   0  0  1  0  0  3  0  0  0  0  0  0
   -2.9875    1.2763    1.8266 C   0  0  1  0  0  0  0  0  0  0  0  0
   -2.8585    1.4192    2.9181 H   0  0  0  0  0  0  0  0  0  0  0  0
   -4.4264    1.4768    1.3365 C   0  0  0  0  0  0  0  0  0  0  0  0
   -5.1386    1.2635    2.1630 H   0  0  0  0  0  0  0  0  0  0  0  0
   -4.5993    2.5286    1.0295 H   0  0  0  0  0  0  0  0  0  0  0  0
   -4.5719    0.4746    0.2127 C   0  0  0  0  0  0  0  0  0  0  0  0
   -5.6082    0.3522   -0.7238 C   0  0  0  0  0  0  0  0  0  0  0  0
   -6.4527    1.0589   -0.7229 H   0  0  0  0  0  0  0  0  0  0  0  0
   -5.5514   -0.6878   -1.6669 C   0  0  0  0  0  0  0  0  0  0  0  0
   -6.3567   -0.7935   -2.4099 H   0  0  0  0  0  0  0  0  0  0  0  0
   -4.4760   -1.5953   -1.6693 C   0  0  0  0  0  0  0  0  0  0  0  0
   -4.4471   -2.4061   -2.4128 H   0  0  0  0  0  0  0  0  0  0  0  0
   -3.4355   -1.4784   -0.7333 C   0  0  0  0  0  0  0  0  0  0  0  0
   -2.5913   -2.1841   -0.7152 H   0  0  0  0  0  0  0  0  0  0  0  0
   -3.4966   -0.4359    0.2029 C   0  0  0  0  0  0  0  0  0  0  0  0
   -2.4898   -0.0875    1.2838 C   0  0  1  0  0  0  0  0  0  0  0  0
   -2.3672   -0.8973    2.0300 H   0  0  0  0  0  0  0  0  0  0  0  0
  1 22  1  0  0  0  0
  2 31  1  0  0  0  0
  3 22  1  0  0  0  0
  4 46  1  0  0  0  0
  5  6  1  6  0  0  0
  5  3  1  0  0  0  0
  5  7  1  0  0  0  0
  7  8  1  0  0  0  0
  8 10  2  0  0  0  0
  9  8  1  0  0  0  0
 10 11  1  0  0  0  0
 12 10  1  0  0  0  0
 12 13  1  0  0  0  0
 14 15  1  0  0  0  0
 14 12  2  0  0  0  0
 16  7  2  0  0  0  0
 16 14  1  0  0  0  0
 17 19  1  0  0  0  0
 17 16  1  0  0  0  0
 18 17  1  0  0  0  0
 20 21  1  6  0  0  0
 20 17  1  0  0  0  0
 20  5  1  0  0  0  0
 20  1  1  0  0  0  0
 22 23  1  1  0  0  0
 23 24  1  0  0  0  0
 24 25  1  0  0  0  0
 26 24  1  0  0  0  0
 27 29  1  0  0  0  0
 27 23  1  0  0  0  0
 27 24  1  0  0  0  0
 28 27  1  0  0  0  0
 30 23  1  6  0  0  0
 30  4  1  0  0  0  0
 30  2  1  0  0  0  0
 31 32  1  1  0  0  0
 33 31  1  0  0  0  0
 33 34  1  0  0  0  0
 35 33  1  0  0  0  0
 36 33  1  0  0  0  0
 37 38  1  0  0  0  0
 37 36  2  0  0  0  0
 39 37  1  0  0  0  0
 40 39  1  0  0  0  0
 41 39  2  0  0  0  0
 41 43  1  0  0  0  0
 42 41  1  0  0  0  0
 43 44  1  0  0  0  0
 43 45  2  0  0  0  0
 45 36  1  0  0  0  0
 45 46  1  0  0  0  0
 46 31  1  0  0  0  0
 46 47  1  1  0  0  0
M  END
