1,5
q = -1.0, confidence = 0.014

 21 23  0  0  0  0  0  0  0  0999 V2000
    0.9627   -1.2719    0.7751 N   0  0  0  0  0  2  0  0  0  0  0  0
    2.5317   -2.5200    1.9859 N   0  0  0  0  0  0  0  0  0  0  0  0
    2.7109   -3.3322    2.5863 H   0  0  0  0  0  0  0  0  0  0  0  0
    4.2323    0.3308    0.4349 N   0  0  0  0  0  0  0  0  0  0  0  0
    1.4868    0.6017   -0.2961 N   0  0  0  0  0  2  0  0  0  0  0  0
    0.3087   -3.1308    1.9639 O   0  0  0  0  0  0  0  0  0  0  0  0
    4.7719   -2.0077    2.1179 O   0  0  0  0  0  0  0  0  0  0  0  0
    1.1945   -2.3496    1.5910 C   0  0  0  0  0  0  0  0  0  0  0  0
    3.6681   -1.7293    1.6908 C   0  0  0  0  0  0  0  0  0  0  0  0
    3.3297   -0.5544    0.8220 C   0  0  0  0  0  0  0  0  0  0  0  0
    3.8026    1.3481   -0.3662 C   0  0  0  0  0  0  0  0  0  0  0  0
    4.7570    2.2958   -0.8364 C   0  0  0  0  0  3  0  0  0  0  0  0
    5.7978    2.1584   -0.5098 H   0  0  0  0  0  0  0  0  0  0  0  0
    4.3760    3.3297   -1.6787 C   0  0  0  0  0  0  0  0  0  0  0  0
    5.1219    4.0524   -2.0400 H   0  0  0  0  0  0  0  0  0  0  0  0
    3.0226    3.4481   -2.0928 C   0  0  0  0  0  0  0  0  0  0  0  0
    2.7363    4.2553   -2.7839 H   0  0  0  0  0  0  0  0  0  0  0  0
    2.0561    2.5530   -1.6476 C   0  0  0  0  0  0  0  0  0  0  0  0
    1.0179    2.6262   -1.9991 H   0  0  0  0  0  0  0  0  0  0  0  0
    2.4099    1.4985   -0.7662 C   0  0  0  0  0  0  0  0  0  0  0  0
    1.9624   -0.4277    0.4420 C   0  0  0  0  0  0  0  0  0  0  0  0
  1  8  1  0  0  0  0
  2  3  1  0  0  0  0
  4 10  1  0  0  0  0
  5 21  1  0  0  0  0
  8  6  2  0  0  0  0
  8  2  1  0  0  0  0
  9  2  1  0  0  0  0
  9  7  2  0  0  0  0
 10  9  1  0  0  0  0
 11  4  2  0  0  0  0
 12 13  1  0  0  0  0
 12 11  1  0  0  0  0
 14 12  1  0  0  0  0
 15 14  1  0  0  0  0
 16 14  2  0  0  0  0
 16 18  1  0  0  0  0
 17 16  1  0  0  0  0
 18 20  2  0  0  0  0
 19 18  1  0  0  0  0
 20 11  1  0  0  0  0
 20  5  1  0  0  0  0
 21  1  1  0  0  0  0
 21 10  2  0  0  0  0
M  END
