8,9
q = -1.0

 44 46  0  0  1  0  0  0  0  0999 V2000
   -0.7571   -1.0415   -1.4836 S   0  0  0  0  0  0  0  0  0  0  0  0
   -1.3380   -2.2883    1.3226 F   0  0  0  0  0  0  0  0  0  0  0  0
   -3.7553   -2.8986    2.3522 F   0  0  0  0  0  0  0  0  0  0  0  0
   -6.0399   -2.3979    0.9410 F   0  0  0  0  0  0  0  0  0  0  0  0
   -5.8935   -1.2753   -1.5418 F   0  0  0  0  0  0  0  0  0  0  0  0
   -0.0026   -2.3073   -1.6462 O   0  0  0  0  0  0  0  0  0  0  0  0
   -1.1468   -0.2704   -2.6919 O   0  0  0  0  0  0  0  0  0  0  0  0
    1.7820    1.7682    0.3685 N   0  0  0  0  0  0  0  0  0  0  0  0
   -0.0272   -0.0932   -0.3245 N   0  0  0  0  0  2  0  0  0  0  0  0
   -2.3445   -1.5089   -0.7154 C   0  0  0  0  0  0  0  0  0  0  0  0
   -2.4240   -2.0811    0.5602 C   0  0  0  0  0  0  0  0  0  0  0  0
   -3.6755   -2.3848    1.1191 C   0  0  0  0  0  0  0  0  0  0  0  0
   -4.8516   -2.1238    0.3969 C   0  0  0  0  0  0  0  0  0  0  0  0
   -4.7592   -1.5453   -0.8817 C   0  0  0  0  0  0  0  0  0  0  0  0
   -3.5165   -1.2512   -1.4406 C   0  0  0  0  0  0  0  0  0  0  0  0
    0.3596    2.1107    0.6119 C   0  0  2  0  0  0  0  0  0  0  0  0
   -0.4695    1.3158   -0.4146 C   0  0  2  0  0  0  0  0  0  0  0  0
    0.0988    3.6003    0.5411 C   0  0  0  0  0  0  0  0  0  0  0  0
   -0.5317    4.2685    1.6064 C   0  0  0  0  0  0  0  0  0  0  0  0
   -0.8009    5.6432    1.5281 C   0  0  0  0  0  0  0  0  0  0  0  0
   -0.4399    6.3653    0.3804 C   0  0  0  0  0  0  0  0  0  0  0  0
    0.1869    5.7062   -0.6900 C   0  0  0  0  0  0  0  0  0  0  0  0
    0.4516    4.3318   -0.6123 C   0  0  0  0  0  0  0  0  0  0  0  0
   -1.9528    1.5147   -0.1467 C   0  0  0  0  0  0  0  0  0  0  0  0
   -2.5320    1.0620    1.0550 C   0  0  0  0  0  0  0  0  0  0  0  0
   -3.9039    1.2252    1.2912 C   0  0  0  0  0  0  0  0  0  0  0  0
   -4.7138    1.8520    0.3287 C   0  0  0  0  0  0  0  0  0  0  0  0
   -4.1420    2.3131   -0.8669 C   0  0  0  0  0  0  0  0  0  0  0  0
   -2.7689    2.1433   -1.1021 C   0  0  0  0  0  0  0  0  0  0  0  0
    2.3840    2.1489    1.1111 H   0  0  0  0  0  0  0  0  0  0  0  0
    2.0987    2.1664   -0.5396 H   0  0  0  0  0  0  0  0  0  0  0  0
   -3.4388   -0.7744   -2.4275 H   0  0  0  0  0  0  0  0  0  0  0  0
    0.1103    1.7331    1.6245 H   0  0  0  0  0  0  0  0  0  0  0  0
   -0.2384    1.7268   -1.4235 H   0  0  0  0  0  0  0  0  0  0  0  0
   -0.8277    3.6980    2.5007 H   0  0  0  0  0  0  0  0  0  0  0  0
   -1.2988    6.1521    2.3673 H   0  0  0  0  0  0  0  0  0  0  0  0
   -0.6504    7.4437    0.3172 H   0  0  0  0  0  0  0  0  0  0  0  0
    0.4659    6.2655   -1.5958 H   0  0  0  0  0  0  0  0  0  0  0  0
    0.9292    3.8209   -1.4651 H   0  0  0  0  0  0  0  0  0  0  0  0
   -1.9022    0.5376    1.7908 H   0  0  0  0  0  0  0  0  0  0  0  0
   -4.3482    0.8517    2.2268 H   0  0  0  0  0  0  0  0  0  0  0  0
   -5.7930    1.9718    0.5084 H   0  0  0  0  0  0  0  0  0  0  0  0
   -4.7719    2.7979   -1.6280 H   0  0  0  0  0  0  0  0  0  0  0  0
   -2.3201    2.4758   -2.0500 H   0  0  0  0  0  0  0  0  0  0  0  0
  1 10  1  0  0  0  0
  1  9  1  0  0  0  0
  5 14  1  0  0  0  0
  6  1  2  0  0  0  0
  7  1  2  0  0  0  0
  8 16  1  0  0  0  0
  8 30  1  0  0  0  0
 10 11  1  0  0  0  0
 11 12  2  0  0  0  0
 11  2  1  0  0  0  0
 12  3  1  0  0  0  0
 13  4  1  0  0  0  0
 13 12  1  0  0  0  0
 14 13  2  0  0  0  0
 15 14  1  0  0  0  0
 15 10  2  0  0  0  0
 16 33  1  1  0  0  0
 17 34  1  6  0  0  0
 17  9  1  0  0  0  0
 17 24  1  0  0  0  0
 17 16  1  0  0  0  0
 18 16  1  0  0  0  0
 18 19  1  0  0  0  0
 19 35  1  0  0  0  0
 20 19  2  0  0  0  0
 20 36  1  0  0  0  0
 21 20  1  0  0  0  0
 22 23  1  0  0  0  0
 22 21  2  0  0  0  0
 23 18  2  0  0  0  0
 24 25  1  0  0  0  0
 25 26  2  0  0  0  0
 25 40  1  0  0  0  0
 26 41  1  0  0  0  0
 27 42  1  0  0  0  0
 27 26  1  0  0  0  0
 28 27  2  0  0  0  0
 29 28  1  0  0  0  0
 29 24  2  0  0  0  0
 31  8  1  0  0  0  0
 32 15  1  0  0  0  0
 37 21  1  0  0  0  0
 38 22  1  0  0  0  0
 39 23  1  0  0  0  0
 43 28  1  0  0  0  0
 44 29  1  0  0  0  0
M  END
