8,9
q = -2.0, confidence = 0.93

 43 45  0  0  1  0  0  0  0  0999 V2000
   -0.6597    0.9281    1.8219 S   0  0  0  0  0  0  0  0  0  0  0  0
   -1.6252   -1.7578    0.6218 F   0  0  0  0  0  0  0  0  0  0  0  0
   -4.1493   -2.3986   -0.1022 F   0  0  0  0  0  0  0  0  0  0  0  0
   -6.1831   -0.6119    0.2036 F   0  0  0  0  0  0  0  0  0  0  0  0
   -5.7003    1.8429    1.2970 F   0  0  0  0  0  0  0  0  0  0  0  0
   -0.1857   -0.0570    2.8209 O   0  0  0  0  0  0  0  0  0  0  0  0
   -0.8310    2.3532    2.2175 O   0  0  0  0  0  0  0  0  0  0  0  0
    0.8503    0.0726   -1.8706 N   0  0  0  0  0  2  0  0  0  0  0  0
    0.2558    0.8179    0.4665 N   0  0  0  0  0  2  0  0  0  0  0  0
   -2.3400    0.4106    1.3611 C   0  0  0  0  0  0  0  0  0  0  0  0
   -2.5996   -0.8607    0.8320 C   0  0  0  0  0  0  0  0  0  0  0  0
   -3.9040   -1.2057    0.4487 C   0  0  0  0  0  0  0  0  0  0  0  0
   -4.9544   -0.2892    0.6146 C   0  0  0  0  0  0  0  0  0  0  0  0
   -4.6856    0.9768    1.1629 C   0  0  0  0  0  0  0  0  0  0  0  0
   -3.3900    1.3247    1.5432 C   0  0  0  0  0  0  0  0  0  0  0  0
   -0.0850    1.1894   -1.8709 C   0  0  2  0  0  0  0  0  0  0  0  0
    0.1549    1.9081   -0.5308 C   0  0  2  0  0  0  0  0  0  0  0  0
   -1.5405    0.7677   -2.1054 C   0  0  0  0  0  0  0  0  0  0  0  0
   -2.5777    1.7211   -2.0567 C   0  0  0  0  0  0  0  0  0  0  0  0
   -3.9068    1.3506   -2.3064 C   0  0  0  0  0  0  0  0  0  0  0  0
   -4.2212    0.0203   -2.6313 C   0  0  0  0  0  0  0  0  0  0  0  0
   -3.1953   -0.9339   -2.6947 C   0  0  0  0  0  0  0  0  0  0  0  0
   -1.8682   -0.5626   -2.4254 C   0  0  0  0  0  0  0  0  0  0  0  0
    1.4449    2.7424   -0.4891 C   0  0  0  0  0  0  0  0  0  0  0  0
    1.8034    3.3539    0.7312 C   0  0  0  0  0  0  0  0  0  0  0  0
    2.9967    4.0797    0.8488 C   0  0  0  0  0  0  0  0  0  0  0  0
    3.8640    4.2043   -0.2496 C   0  0  0  0  0  0  0  0  0  0  0  0
    3.5179    3.6017   -1.4671 C   0  0  0  0  0  0  0  0  0  0  0  0
    2.3185    2.8791   -1.5848 C   0  0  0  0  0  0  0  0  0  0  0  0
    1.0727   -0.2996   -2.7985 H   0  0  0  0  0  0  0  0  0  0  0  0
   -3.1719    2.3152    1.9652 H   0  0  0  0  0  0  0  0  0  0  0  0
    0.1653    1.8990   -2.6928 H   0  0  0  0  0  0  0  0  0  0  0  0
   -0.6988    2.5699   -0.2772 H   0  0  0  0  0  0  0  0  0  0  0  0
   -2.3457    2.7708   -1.8154 H   0  0  0  0  0  0  0  0  0  0  0  0
   -4.7054    2.1055   -2.2419 H   0  0  0  0  0  0  0  0  0  0  0  0
   -5.2659   -0.2728   -2.8149 H   0  0  0  0  0  0  0  0  0  0  0  0
   -3.4314   -1.9818   -2.9332 H   0  0  0  0  0  0  0  0  0  0  0  0
   -1.0659   -1.3139   -2.4434 H   0  0  0  0  0  0  0  0  0  0  0  0
    1.1311    3.2434    1.5951 H   0  0  0  0  0  0  0  0  0  0  0  0
    3.2512    4.5532    1.8098 H   0  0  0  0  0  0  0  0  0  0  0  0
    4.8038    4.7700   -0.1566 H   0  0  0  0  0  0  0  0  0  0  0  0
    4.1873    3.6882   -2.3371 H   0  0  0  0  0  0  0  0  0  0  0  0
    2.0844    2.3980   -2.5444 H   0  0  0  0  0  0  0  0  0  0  0  0
  1  7  2  0  0  0  0
  1  6  2  0  0  0  0
  2 11  1  0  0  0  0
  3 12  1  0  0  0  0
  4 13  1  0  0  0  0
  9  1  1  0  0  0  0
 10 15  1  0  0  0  0
 10  1  1  0  0  0  0
 11 10  2  0  0  0  0
 12 13  2  0  0  0  0
 12 11  1  0  0  0  0
 13 14  1  0  0  0  0
 14  5  1  0  0  0  0
 14 15  2  0  0  0  0
 15 31  1  0  0  0  0
 16 32  1  6  0  0  0
 16  8  1  0  0  0  0
 16 17  1  0  0  0  0
 17 24  1  0  0  0  0
 17 33  1  1  0  0  0
 17  9  1  0  0  0  0
 18 19  1  0  0  0  0
 18 16  1  0  0  0  0
 19 34  1  0  0  0  0
 20 35  1  0  0  0  0
 20 19  2  0  0  0  0
 21 20  1  0  0  0  0
 22 21  2  0  0  0  0
 22 23  1  0  0  0  0
 23 18  2  0  0  0  0
 24 25  1  0  0  0  0
 25 26  2  0  0  0  0
 25 39  1  0  0  0  0
 26 40  1  0  0  0  0
 27 41  1  0  0  0  0
 27 26  1  0  0  0  0
 28 27  2  0  0  0  0
 29 28  1  0  0  0  0
 29 24  2  0  0  0  0
 30  8  1  0  0  0  0
 36 21  1  0  0  0  0
 37 22  1  0  0  0  0
 38 23  1  0  0  0  0
 42 28  1  0  0  0  0
 43 29  1  0  0  0  0
M  END
