1,4
q = 0.0, confidence = 0.998

 26 26  0  0  1  0  0  0  0  0999 V2000
   -1.0119    1.1577   -0.0428 N   0  0  0  0  0  0  0  0  0  0  0  0
   -0.9653    1.9574    0.6085 H   0  0  0  0  0  0  0  0  0  0  0  0
   -1.1155    1.5700   -0.9844 H   0  0  0  0  0  0  0  0  0  0  0  0
   -0.6404   -1.6235   -0.0717 N   0  0  0  0  0  0  0  0  0  0  0  0
   -0.3043   -2.3525   -0.7210 H   0  0  0  0  0  0  0  0  0  0  0  0
   -0.7015   -2.0619    0.8623 H   0  0  0  0  0  0  0  0  0  0  0  0
   -4.3759   -1.4006   -0.4332 O   0  0  0  0  0  0  0  0  0  0  0  0
   -4.5885   -0.1935    0.3218 C   0  0  1  0  0  0  0  0  0  0  0  0
   -4.4843   -0.4230    1.4052 H   0  0  0  0  0  0  0  0  0  0  0  0
   -2.1492    0.2692    0.2825 C   0  0  1  0  0  0  0  0  0  0  0  0
   -2.1045    0.0869    1.3770 H   0  0  0  0  0  0  0  0  0  0  0  0
   -3.1368   -2.0226   -0.1608 C   0  0  1  0  0  0  0  0  0  0  0  0
   -3.1066   -2.8916   -0.8571 H   0  0  0  0  0  0  0  0  0  0  0  0
   -3.5159    0.8461   -0.0631 C   0  0  2  0  0  0  0  0  0  0  0  0
   -3.5774    0.9736   -1.1711 H   0  0  0  0  0  0  0  0  0  0  0  0
   -1.9575   -1.0704   -0.4473 C   0  0  2  0  0  0  0  0  0  0  0  0
   -1.9421   -0.8745   -1.5393 H   0  0  0  0  0  0  0  0  0  0  0  0
   -6.0060    0.3235    0.0612 C   0  0  0  0  0  0  0  0  0  0  0  0
   -6.6210   -0.5428   -0.2728 H   0  0  0  0  0  0  0  0  0  0  0  0
   -6.4325    0.6973    1.0202 H   0  0  0  0  0  0  0  0  0  0  0  0
   -5.9616    1.3609   -0.9157 O   0  0  0  0  0  0  0  0  0  0  0  0
   -6.8749    1.6393   -1.1040 H   0  0  0  0  0  0  0  0  0  0  0  0
   -3.6918    2.0725    0.6083 O   0  0  0  0  0  0  0  0  0  0  0  0
   -4.4814    2.4698    0.1847 H   0  0  0  0  0  0  0  0  0  0  0  0
   -2.9961   -2.4285    1.1813 O   0  0  0  0  0  0  0  0  0  0  0  0
   -3.6322   -3.1479    1.3517 H   0  0  0  0  0  0  0  0  0  0  0  0
  1 10  1  0  0  0  0
  1  2  1  0  0  0  0
  3  1  1  0  0  0  0
  4  6  1  0  0  0  0
  5  4  1  0  0  0  0
  7 12  1  0  0  0  0
  7  8  1  0  0  0  0
  8  9  1  1  0  0  0
 10 11  1  1  0  0  0
 12 13  1  6  0  0  0
 12 25  1  0  0  0  0
 14 15  1  6  0  0  0
 14 10  1  0  0  0  0
 14  8  1  0  0  0  0
 14 23  1  0  0  0  0
 16 17  1  6  0  0  0
 16 12  1  0  0  0  0
 16  4  1  0  0  0  0
 16 10  1  0  0  0  0
 18  8  1  0  0  0  0
 18 20  1  0  0  0  0
 19 18  1  0  0  0  0
 21 18  1  0  0  0  0
 22 21  1  0  0  0  0
 24 23  1  0  0  0  0
 25 26  1  0  0  0  0
M  END
