5,6
q = 0.0, confidence = 0.988

 43 44  0  0  1  0  0  0  0  0999 V2000
   -1.8071    1.0556   -1.3031 P   0  0  0  0  0  0  0  0  0  0  0  0
   -1.2370    1.0870   -2.6936 O   0  0  0  0  0  0  0  0  0  0  0  0
   -2.8883    2.1828   -0.8448 O   0  0  0  0  0  0  0  0  0  0  0  0
   -2.5424   -0.3189   -0.8533 O   0  0  0  0  0  0  0  0  0  0  0  0
   -0.2575   -0.2588    1.5662 N   0  0  0  0  0  2  0  0  0  0  0  0
    0.7920    0.9587   -0.6223 N   0  0  0  0  0  0  0  0  0  0  0  0
    0.6782    0.8980   -1.6551 H   0  0  0  0  0  0  0  0  0  0  0  0
   -0.5209   -0.8529    2.7560 C   0  0  0  0  0  3  0  0  0  0  0  0
   -0.0893   -1.8609    2.8683 H   0  0  0  0  0  0  0  0  0  0  0  0
   -1.3093   -0.2272    3.7245 C   0  0  0  0  0  0  0  0  0  0  0  0
   -1.5017   -0.7453    4.6746 H   0  0  0  0  0  0  0  0  0  0  0  0
   -1.8416    1.0456    3.4667 C   0  0  0  0  0  0  0  0  0  0  0  0
   -2.4660    1.5571    4.2136 H   0  0  0  0  0  0  0  0  0  0  0  0
   -1.5631    1.6572    2.2359 C   0  0  0  0  0  0  0  0  0  0  0  0
   -1.9666    2.6464    1.9785 H   0  0  0  0  0  0  0  0  0  0  0  0
   -0.7671    0.9827    1.3043 C   0  0  0  0  0  0  0  0  0  0  0  0
   -0.4750    1.5104   -0.0702 C   0  0  2  0  0  0  0  0  0  0  0  0
   -0.4620    2.6215   -0.0788 H   0  0  0  0  0  0  0  0  0  0  0  0
    2.0113    1.6872   -0.3170 C   0  0  0  0  0  0  0  0  0  0  0  0
    2.1501    2.4269    0.8690 C   0  0  0  0  0  0  0  0  0  0  0  0
    1.3362    2.4685    1.6061 H   0  0  0  0  0  0  0  0  0  0  0  0
    3.3539    3.1027    1.1219 C   0  0  0  0  0  0  0  0  0  0  0  0
    3.4619    3.6804    2.0522 H   0  0  0  0  0  0  0  0  0  0  0  0
    4.4117    3.0403    0.2035 C   0  0  0  0  0  0  0  0  0  0  0  0
    5.3534    3.5708    0.4080 H   0  0  0  0  0  0  0  0  0  0  0  0
    4.2641    2.2904   -0.9753 C   0  0  0  0  0  0  0  0  0  0  0  0
    5.0912    2.2262   -1.6979 H   0  0  0  0  0  0  0  0  0  0  0  0
    3.0684    1.6132   -1.2416 C   0  0  0  0  0  0  0  0  0  0  0  0
    2.9545    0.9872   -2.1392 H   0  0  0  0  0  0  0  0  0  0  0  0
   -4.2782    2.0702   -1.2503 C   0  0  0  0  0  0  0  0  0  0  0  0
   -4.5786    3.0887   -1.5696 H   0  0  0  0  0  0  0  0  0  0  0  0
   -4.3597    1.4065   -2.1372 H   0  0  0  0  0  0  0  0  0  0  0  0
   -5.1291    1.5669   -0.1001 C   0  0  0  0  0  0  0  0  0  0  0  0
   -5.0378    2.2363    0.7786 H   0  0  0  0  0  0  0  0  0  0  0  0
   -4.8130    0.5481    0.1963 H   0  0  0  0  0  0  0  0  0  0  0  0
   -6.1961    1.5349   -0.3999 H   0  0  0  0  0  0  0  0  0  0  0  0
   -2.3064   -1.5685   -1.5891 C   0  0  0  0  0  0  0  0  0  0  0  0
   -1.2472   -1.6024   -1.9187 H   0  0  0  0  0  0  0  0  0  0  0  0
   -2.9573   -1.5449   -2.4875 H   0  0  0  0  0  0  0  0  0  0  0  0
   -2.6321   -2.7267   -0.6752 C   0  0  0  0  0  0  0  0  0  0  0  0
   -3.6538   -2.6331   -0.2552 H   0  0  0  0  0  0  0  0  0  0  0  0
   -1.8905   -2.8079    0.1440 H   0  0  0  0  0  0  0  0  0  0  0  0
   -2.5810   -3.6691   -1.2568 H   0  0  0  0  0  0  0  0  0  0  0  0
  1  4  1  0  0  0  0
  1  3  1  0  0  0  0
  1 17  1  0  0  0  0
  2  1  2  0  0  0  0
  5  8  1  0  0  0  0
  6 19  1  0  0  0  0
  6 17  1  0  0  0  0
  7  6  1  0  0  0  0
  8  9  1  0  0  0  0
  8 10  1  0  0  0  0
 10 11  1  0  0  0  0
 12 10  2  0  0  0  0
 12 13  1  0  0  0  0
 14 12  1  0  0  0  0
 15 14  1  0  0  0  0
 16  5  1  0  0  0  0
 16 14  2  0  0  0  0
 17 18  1  1  0  0  0
 17 16  1  0  0  0  0
 19 20  1  0  0  0  0
 20 22  2  0  0  0  0
 20 21  1  0  0  0  0
 22 23  1  0  0  0  0
 24 25  1  0  0  0  0
 24 22  1  0  0  0  0
 26 24  2  0  0  0  0
 27 26  1  0  0  0  0
 28 26  1  0  0  0  0
 28 19  2  0  0  0  0
 29 28  1  0  0  0  0
 30  3  1  0  0  0  0
 30 33  1  0  0  0  0
 31 30  1  0  0  0  0
 32 30  1  0  0  0  0
 33 35  1  0  0  0  0
 33 34  1  0  0  0  0
 36 33  1  0  0  0  0
 37  4  1  0  0  0  0
 37 40  1  0  0  0  0
 38 37  1  0  0  0  0
 39 37  1  0  0  0  0
 40 41  1  0  0  0  0
 40 42  1  0  0  0  0
 43 40  1  0  0  0  0
M  END
