8,9
q = -2.0, confidence = 0.804

 45 46  0  0  0  0  0  0  0  0999 V2000
   -2.4253    1.1750   -1.6189 S   0  0  0  0  0  0  0  0  0  0  0  0
    2.2164    1.4606    1.5572 S   0  0  0  0  0  0  0  0  0  0  0  0
   -0.0733    2.4393   -0.1542 Si  0  0  0  0  0  0  0  0  0  0  0  0
   -2.4519    0.1978   -2.7433 O   0  0  0  0  0  0  0  0  0  0  0  0
   -2.6391    2.6165   -1.9208 O   0  0  0  0  0  0  0  0  0  0  0  0
    2.0807    0.6983    2.8261 O   0  0  0  0  0  0  0  0  0  0  0  0
    2.3633    2.9420    1.6119 O   0  0  0  0  0  0  0  0  0  0  0  0
   -1.0448    1.0615   -0.7459 N   0  0  0  0  0  2  0  0  0  0  0  0
    0.9718    1.1590    0.5280 N   0  0  0  0  0  2  0  0  0  0  0  0
    0.7329    3.4266   -1.5213 C   0  0  0  0  0  0  0  0  0  0  0  0
   -0.9511    3.5042    1.1067 C   0  0  0  0  0  0  0  0  0  0  0  0
   -3.7304    0.6425   -0.4863 C   0  0  0  0  0  0  0  0  0  0  0  0
   -3.5576    0.6816    0.9034 C   0  0  0  0  0  0  0  0  0  0  0  0
   -4.6006    0.2538    1.7383 C   0  0  0  0  0  0  0  0  0  0  0  0
   -5.8228   -0.2060    1.2066 C   0  0  0  0  0  0  0  0  0  0  0  0
   -5.9699   -0.2291   -0.1980 C   0  0  0  0  0  0  0  0  0  0  0  0
   -4.9362    0.1881   -1.0443 C   0  0  0  0  0  0  0  0  0  0  0  0
   -6.9517   -0.6385    2.1067 C   0  0  0  0  0  0  0  0  0  0  0  0
    3.6648    0.7963    0.7090 C   0  0  0  0  0  0  0  0  0  0  0  0
    3.9064    1.1378   -0.6316 C   0  0  0  0  0  0  0  0  0  0  0  0
    5.0447    0.6352   -1.2698 C   0  0  0  0  0  0  0  0  0  0  0  0
    5.9580   -0.2024   -0.5890 C   0  0  0  0  0  0  0  0  0  0  0  0
    5.6960   -0.5160    0.7595 C   0  0  0  0  0  0  0  0  0  0  0  0
    4.5576   -0.0191    1.4143 C   0  0  0  0  0  0  0  0  0  0  0  0
    7.1813   -0.7303   -1.2938 C   0  0  0  0  0  0  0  0  0  0  0  0
    1.1728    2.7473   -2.2782 H   0  0  0  0  0  0  0  0  0  0  0  0
    1.5297    4.0748   -1.1044 H   0  0  0  0  0  0  0  0  0  0  0  0
   -0.0277    4.0564   -2.0242 H   0  0  0  0  0  0  0  0  0  0  0  0
   -1.8426    3.9704    0.6404 H   0  0  0  0  0  0  0  0  0  0  0  0
   -0.2676    4.2953    1.4727 H   0  0  0  0  0  0  0  0  0  0  0  0
   -1.2738    2.8998    1.9770 H   0  0  0  0  0  0  0  0  0  0  0  0
   -2.5997    1.0163    1.3246 H   0  0  0  0  0  0  0  0  0  0  0  0
   -4.4596    0.2748    2.8307 H   0  0  0  0  0  0  0  0  0  0  0  0
   -6.9133   -0.5920   -0.6362 H   0  0  0  0  0  0  0  0  0  0  0  0
   -5.0435    0.1420   -2.1379 H   0  0  0  0  0  0  0  0  0  0  0  0
   -7.4785   -1.5265    1.7034 H   0  0  0  0  0  0  0  0  0  0  0  0
   -7.7094    0.1684    2.2049 H   0  0  0  0  0  0  0  0  0  0  0  0
   -6.5940   -0.8797    3.1264 H   0  0  0  0  0  0  0  0  0  0  0  0
    3.1961    1.7818   -1.1697 H   0  0  0  0  0  0  0  0  0  0  0  0
    5.2326    0.8949   -2.3239 H   0  0  0  0  0  0  0  0  0  0  0  0
    6.3982   -1.1624    1.3094 H   0  0  0  0  0  0  0  0  0  0  0  0
    4.3439   -0.2592    2.4657 H   0  0  0  0  0  0  0  0  0  0  0  0
    6.9126   -1.2454   -2.2391 H   0  0  0  0  0  0  0  0  0  0  0  0
    7.7428   -1.4444   -0.6615 H   0  0  0  0  0  0  0  0  0  0  0  0
    7.8719    0.0956   -1.5656 H   0  0  0  0  0  0  0  0  0  0  0  0
  1  8  1  0  0  0  0
  1 12  1  0  0  0  0
  2  7  2  0  0  0  0
  2  6  2  0  0  0  0
  3  9  1  0  0  0  0
  3 11  1  0  0  0  0
  4  1  2  0  0  0  0
  5  1  2  0  0  0  0
  8  3  1  0  0  0  0
  9  2  1  0  0  0  0
 10 27  1  0  0  0  0
 10  3  1  0  0  0  0
 11 30  1  0  0  0  0
 11 31  1  0  0  0  0
 12 13  1  0  0  0  0
 13 32  1  0  0  0  0
 13 14  2  0  0  0  0
 14 33  1  0  0  0  0
 15 14  1  0  0  0  0
 15 18  1  0  0  0  0
 16 15  2  0  0  0  0
 17 12  2  0  0  0  0
 17 16  1  0  0  0  0
 18 37  1  0  0  0  0
 18 38  1  0  0  0  0
 19 24  1  0  0  0  0
 19  2  1  0  0  0  0
 20 19  2  0  0  0  0
 21 20  1  0  0  0  0
 21 22  2  0  0  0  0
 22 23  1  0  0  0  0
 23 41  1  0  0  0  0
 23 24  2  0  0  0  0
 24 42  1  0  0  0  0
 25 44  1  0  0  0  0
 25 22  1  0  0  0  0
 26 10  1  0  0  0  0
 28 10  1  0  0  0  0
 29 11  1  0  0  0  0
 34 16  1  0  0  0  0
 35 17  1  0  0  0  0
 36 18  1  0  0  0  0
 39 20  1  0  0  0  0
 40 21  1  0  0  0  0
 43 25  1  0  0  0  0
 45 25  1  0  0  0  0
M  END
