10,26
q = 0.0, confidence = 0.962

 26 27  0  0  0  0  0  0  0  0999 V2000
   -6.3186    0.2786   -0.9246 N   0  0  0  0  0  0  0  0  0  0  0  0
   -6.6369   -0.3848   -1.9064 O   0  0  0  0  0  0  0  0  0  0  0  0
   -7.0835    0.7800   -0.1060 O   0  0  0  0  0  0  0  0  0  0  0  0
   -4.8577    0.4946   -0.7023 C   0  0  0  0  0  0  0  0  0  0  0  0
   -3.9461   -0.0391   -1.6233 C   0  0  0  0  0  0  0  0  0  0  0  0
   -4.3294   -0.5854   -2.4959 H   0  0  0  0  0  0  0  0  0  0  0  0
   -2.5775    0.1428   -1.4048 C   0  0  0  0  0  0  0  0  0  0  0  0
   -1.8208   -0.2368   -2.1090 H   0  0  0  0  0  0  0  0  0  0  0  0
   -2.1480    0.8721   -0.2753 C   0  0  0  0  0  0  0  0  0  0  0  0
   -0.7507    1.0528   -0.0696 N   0  0  0  0  0  2  0  0  0  0  0  0
   -3.0796    1.4154    0.6351 C   0  0  0  0  0  0  0  0  0  0  0  0
   -2.7299    1.9648    1.5216 H   0  0  0  0  0  0  0  0  0  0  0  0
   -4.4492    1.2201    0.4221 C   0  0  0  0  0  0  0  0  0  0  0  0
   -5.2112    1.6112    1.1100 H   0  0  0  0  0  0  0  0  0  0  0  0
   -0.2745    2.2506    0.1667 C   0  0  0  0  0  0  0  0  0  0  0  0
   -0.9337    3.1335    0.2099 H   0  0  0  0  0  0  0  0  0  0  0  0
    1.1557    2.3834    0.2488 C   0  0  0  0  0  0  0  0  0  0  0  0
    1.7905    3.6258    0.4059 C   0  0  0  0  0  0  0  0  0  0  0  0
    1.1812    4.5265    0.5637 H   0  0  0  0  0  0  0  0  0  0  0  0
    3.1849    3.6865    0.3281 C   0  0  0  0  0  0  0  0  0  0  0  0
    3.7206    4.6378    0.4579 H   0  0  0  0  0  0  0  0  0  0  0  0
    3.8874    2.5138    0.0352 C   0  0  0  0  0  0  0  0  0  0  0  0
    4.9784    2.5149   -0.0882 H   0  0  0  0  0  0  0  0  0  0  0  0
    3.1843    1.3024   -0.1243 C   0  0  0  0  0  0  0  0  0  0  0  0
    4.1908   -0.1881   -0.6776 Br  0  0  0  0  0  0  0  0  0  0  0  0
    1.8489    1.2041    0.0527 N   0  0  0  0  0  2  0  0  0  0  0  0
  1  4  1  0  0  0  0
  1  3  2  0  0  0  0
  2  1  2  0  0  0  0
  4 13  1  0  0  0  0
  5  7  1  0  0  0  0
  5  4  2  0  0  0  0
  6  5  1  0  0  0  0
  7  9  2  0  0  0  0
  8  7  1  0  0  0  0
  9 10  1  0  0  0  0
  9 11  1  0  0  0  0
 10 15  1  0  0  0  0
 11 12  1  0  0  0  0
 13 11  2  0  0  0  0
 13 14  1  0  0  0  0
 15 16  1  0  0  0  0
 15 17  2  0  0  0  0
 17 18  1  0  0  0  0
 18 19  1  0  0  0  0
 20 18  2  0  0  0  0
 20 21  1  0  0  0  0
 22 20  1  0  0  0  0
 23 22  1  0  0  0  0
 24 22  2  0  0  0  0
 24 26  1  0  0  0  0
 25 24  1  0  0  0  0
 26 17  1  0  0  0  0
M  END
