1,2
q = -2.0, confidence = 0.95

 42 42  0  0  0  0  0  0  0  0999 V2000
    2.4554    1.2297   -0.0491 N   0  0  0  0  0  2  0  0  0  0  0  0
   -0.0714   -0.4534    2.2417 N   0  0  0  0  0  2  0  0  0  0  0  0
    2.1127   -1.0400   -1.5762 O   0  0  0  0  0  0  0  0  0  0  0  0
    1.1267   -2.2427    0.6293 O   0  0  0  0  0  0  0  0  0  0  0  0
   -1.0906    1.7830    1.1658 O   0  0  0  0  0  0  0  0  0  0  0  0
    0.2482    2.3961   -1.0709 O   0  0  0  0  0  0  0  0  0  0  0  0
    3.5425    0.2916   -0.1363 C   0  0  0  0  0  0  0  0  0  0  0  0
    3.4688   -0.5513   -1.4240 C   0  0  0  0  0  0  0  0  0  0  0  0
    1.9506   -2.4518   -1.5776 C   0  0  0  0  0  0  0  0  0  0  0  0
    2.0401   -2.9932   -0.1612 C   0  0  0  0  0  0  0  0  0  0  0  0
    1.2562   -2.4751    2.0457 C   0  0  0  0  0  0  0  0  0  0  0  0
    0.0891   -1.7945    2.7309 C   0  0  0  0  0  0  0  0  0  0  0  0
   -1.0849    0.2453    2.9846 C   0  0  0  0  0  0  0  0  0  0  0  0
   -1.1102    1.7129    2.6039 C   0  0  0  0  0  0  0  0  0  0  0  0
   -1.3297    3.0789    0.6322 C   0  0  0  0  0  0  0  0  0  0  0  0
   -1.0230    3.0003   -0.8561 C   0  0  0  0  0  0  0  0  0  0  0  0
    1.3853    3.2414   -0.8089 C   0  0  0  0  0  0  0  0  0  0  0  0
    2.6129    2.3601   -0.9239 C   0  0  0  0  0  0  0  0  0  0  0  0
    4.5612    0.7669   -0.0954 H   0  0  0  0  0  0  0  0  0  0  0  0
    3.5072   -0.4048    0.7370 H   0  0  0  0  0  0  0  0  0  0  0  0
    4.1849   -1.4031   -1.4195 H   0  0  0  0  0  0  0  0  0  0  0  0
    3.6851    0.0693   -2.3196 H   0  0  0  0  0  0  0  0  0  0  0  0
    0.9393   -2.6405   -1.9924 H   0  0  0  0  0  0  0  0  0  0  0  0
    2.6974   -2.9499   -2.2353 H   0  0  0  0  0  0  0  0  0  0  0  0
    3.0738   -2.8785    0.2450 H   0  0  0  0  0  0  0  0  0  0  0  0
    1.7827   -4.0777   -0.1339 H   0  0  0  0  0  0  0  0  0  0  0  0
    1.2624   -3.5710    2.2398 H   0  0  0  0  0  0  0  0  0  0  0  0
    2.2297   -2.0445    2.3814 H   0  0  0  0  0  0  0  0  0  0  0  0
    0.2954   -1.8395    3.8360 H   0  0  0  0  0  0  0  0  0  0  0  0
   -0.8287   -2.4326    2.5838 H   0  0  0  0  0  0  0  0  0  0  0  0
   -2.1181   -0.1809    2.8315 H   0  0  0  0  0  0  0  0  0  0  0  0
   -0.9209    0.2055    4.0966 H   0  0  0  0  0  0  0  0  0  0  0  0
   -0.2109    2.2464    2.9914 H   0  0  0  0  0  0  0  0  0  0  0  0
   -2.0258    2.2183    2.9846 H   0  0  0  0  0  0  0  0  0  0  0  0
   -2.3914    3.3784    0.7909 H   0  0  0  0  0  0  0  0  0  0  0  0
   -0.6817    3.8243    1.1500 H   0  0  0  0  0  0  0  0  0  0  0  0
   -1.0721    4.0105   -1.3211 H   0  0  0  0  0  0  0  0  0  0  0  0
   -1.7566    2.3375   -1.3547 H   0  0  0  0  0  0  0  0  0  0  0  0
    1.3183    3.6580    0.2220 H   0  0  0  0  0  0  0  0  0  0  0  0
    1.3928    4.0811   -1.5403 H   0  0  0  0  0  0  0  0  0  0  0  0
    2.7337    2.1017   -2.0153 H   0  0  0  0  0  0  0  0  0  0  0  0
    3.5094    2.9945   -0.6785 H   0  0  0  0  0  0  0  0  0  0  0  0
  2 12  1  0  0  0  0
  2 13  1  0  0  0  0
  3  8  1  0  0  0  0
  4 11  1  0  0  0  0
  5 14  1  0  0  0  0
  6 16  1  0  0  0  0
  6 17  1  0  0  0  0
  7 19  1  0  0  0  0
  7  1  1  0  0  0  0
  7 20  1  0  0  0  0
  8 21  1  0  0  0  0
  8  7  1  0  0  0  0
  9  3  1  0  0  0  0
  9 10  1  0  0  0  0
 10 26  1  0  0  0  0
 10 25  1  0  0  0  0
 10  4  1  0  0  0  0
 11 27  1  0  0  0  0
 11 28  1  0  0  0  0
 11 12  1  0  0  0  0
 12 29  1  0  0  0  0
 13 32  1  0  0  0  0
 14 34  1  0  0  0  0
 14 13  1  0  0  0  0
 14 33  1  0  0  0  0
 15 35  1  0  0  0  0
 15 36  1  0  0  0  0
 15  5  1  0  0  0  0
 16 15  1  0  0  0  0
 17 39  1  0  0  0  0
 18 17  1  0  0  0  0
 18 42  1  0  0  0  0
 18  1  1  0  0  0  0
 22  8  1  0  0  0  0
 23  9  1  0  0  0  0
 24  9  1  0  0  0  0
 30 12  1  0  0  0  0
 31 13  1  0  0  0  0
 37 16  1  0  0  0  0
 38 16  1  0  0  0  0
 40 17  1  0  0  0  0
 41 18  1  0  0  0  0
M  END
