1,2
q = -1.0

 17 17  0  0  0  0  0  0  0  0999 V2000
   -1.3304   -0.3487   -0.7167 N   0  0  0  0  0  2  0  0  0  0  0  0
   -1.1528    0.9590    1.2821 N   0  0  0  0  0  2  0  0  0  0  0  0
   -0.6814    1.2678    2.4068 O   0  0  0  0  0  1  0  0  0  0  0  0
   -3.1350    2.4414    1.1126 C   0  0  0  0  0  0  0  0  0  0  0  0
   -2.7640    2.8180    2.0844 H   0  0  0  0  0  0  0  0  0  0  0  0
   -4.1605    2.0444    1.2673 H   0  0  0  0  0  0  0  0  0  0  0  0
   -3.2099    3.2968    0.4087 H   0  0  0  0  0  0  0  0  0  0  0  0
   -2.2100    1.3865    0.6052 C   0  0  0  0  0  0  0  0  0  0  0  0
   -2.3101    0.6164   -0.6039 C   0  0  0  0  0  0  0  0  0  0  0  0
   -3.3130    0.7721   -1.5846 C   0  0  0  0  0  0  0  0  0  0  0  0
   -4.0657    1.5631   -1.4588 H   0  0  0  0  0  0  0  0  0  0  0  0
   -3.3356   -0.0870   -2.6830 C   0  0  0  0  0  0  0  0  0  0  0  0
   -4.1102    0.0163   -3.4574 H   0  0  0  0  0  0  0  0  0  0  0  0
   -2.3607   -1.0965   -2.7691 C   0  0  0  0  0  0  0  0  0  0  0  0
   -2.3499   -1.8181   -3.5975 H   0  0  0  0  0  0  0  0  0  0  0  0
   -1.3882   -1.1902   -1.7689 C   0  0  0  0  0  0  0  0  0  0  0  0
   -0.6424   -1.9950   -1.7986 H   0  0  0  0  0  0  0  0  0  0  0  0
  1  9  1  0  0  0  0
  2  3  1  0  0  0  0
  4  6  1  0  0  0  0
  4  5  1  0  0  0  0
  7  4  1  0  0  0  0
  8  4  1  0  0  0  0
  8  2  1  0  0  0  0
  9  8  2  0  0  0  0
 10 11  1  0  0  0  0
 10  9  1  0  0  0  0
 12 10  2  0  0  0  0
 13 12  1  0  0  0  0
 14 12  1  0  0  0  0
 14 16  2  0  0  0  0
 15 14  1  0  0  0  0
 16  1  1  0  0  0  0
 17 16  1  0  0  0  0
M  END
