1,3
q = 0.0, confidence = 0.972

 21 22  0  0  1  0  0  0  0  0999 V2000
    0.3570   -1.5651   -0.1442 N   0  0  0  0  0  2  0  0  0  0  0  0
   -0.1162   -2.7859    0.0115 N   0  0  0  0  0  2  0  0  0  0  0  0
   -2.1810   -1.6198   -0.0475 N   0  0  0  0  0  2  0  0  0  0  0  0
   -2.3051   -3.8116    0.2685 N   0  0  0  0  0  0  0  0  0  0  0  0
   -2.0056   -4.7781    0.3932 H   0  0  0  0  0  0  0  0  0  0  0  0
   -1.4625   -2.7489    0.1067 C   0  0  1  0  0  3  0  0  0  0  0  0
   -3.5037   -1.9635    0.0193 C   0  0  0  0  0  0  0  0  0  0  0  0
   -4.3072   -1.2272   -0.0779 H   0  0  0  0  0  0  0  0  0  0  0  0
   -3.6031   -3.3343    0.2170 C   0  0  0  0  0  0  0  0  0  0  0  0
   -4.4721   -3.9903    0.3172 H   0  0  0  0  0  0  0  0  0  0  0  0
    1.7464   -1.5676   -0.4558 C   0  0  0  0  0  0  0  0  0  0  0  0
    2.2257   -0.6810   -1.4386 C   0  0  0  0  0  0  0  0  0  0  0  0
    1.5051   -0.0321   -1.9585 H   0  0  0  0  0  0  0  0  0  0  0  0
    4.4757   -1.5404   -1.0815 C   0  0  0  0  0  0  0  0  0  0  0  0
    5.5505   -1.5176   -1.3165 H   0  0  0  0  0  0  0  0  0  0  0  0
    3.5914   -0.6770   -1.7481 C   0  0  0  0  0  0  0  0  0  0  0  0
    3.9686    0.0155   -2.5152 H   0  0  0  0  0  0  0  0  0  0  0  0
    3.9855   -2.4356   -0.1142 C   0  0  0  0  0  0  0  0  0  0  0  0
    4.6757   -3.1146    0.4093 H   0  0  0  0  0  0  0  0  0  0  0  0
    2.6215   -2.4629    0.1930 C   0  0  0  0  0  0  0  0  0  0  0  0
    2.2124   -3.1504    0.9453 H   0  0  0  0  0  0  0  0  0  0  0  0
  1  2  1  0  0  0  0
  3  7  1  0  0  0  0
  3  6  1  0  0  0  0
  4  5  1  0  0  0  0
  6  2  1  6  0  0  0
  6  4  1  0  0  0  0
  7  9  2  0  0  0  0
  8  7  1  0  0  0  0
  9  4  1  0  0  0  0
  9 10  1  0  0  0  0
 11  1  1  0  0  0  0
 11 20  1  0  0  0  0
 12 11  2  0  0  0  0
 13 12  1  0  0  0  0
 14 18  1  0  0  0  0
 15 14  1  0  0  0  0
 16 12  1  0  0  0  0
 16 14  2  0  0  0  0
 17 16  1  0  0  0  0
 18 20  2  0  0  0  0
 18 19  1  0  0  0  0
 20 21  1  0  0  0  0
M  END
