1,3
q = 0.0, confidence = 0.974

 18 19  0  0  0  0  0  0  0  0999 V2000
    2.0256   -0.0026   -0.8042 N   0  0  0  0  0  2  0  0  0  0  0  0
    4.8276   -0.0052   -1.1226 N   0  0  0  0  0  0  0  0  0  0  0  0
    0.8083    0.0012    1.4865 N   0  0  0  0  0  2  0  0  0  0  0  0
    2.1206    0.0046    3.9848 N   0  0  0  0  0  0  0  0  0  0  0  0
    2.8688   -0.0016    0.2834 C   0  0  0  0  0  0  0  0  0  0  0  0
    4.2657   -0.0030    0.0889 C   0  0  0  0  0  0  0  0  0  0  0  0
    3.9877   -0.0061   -2.1746 C   0  0  0  0  0  0  0  0  0  0  0  0
    2.5949   -0.0048   -2.0360 C   0  0  0  0  0  0  0  0  0  0  0  0
    2.1832    0.0008    1.5713 C   0  0  0  0  0  0  0  0  0  0  0  0
    2.8038    0.0026    2.8376 C   0  0  0  0  0  0  0  0  0  0  0  0
    0.7785    0.0049    3.8829 C   0  0  0  0  0  0  0  0  0  0  0  0
    0.1148    0.0032    2.6534 C   0  0  0  0  0  0  0  0  0  0  0  0
    4.9475   -0.0022    0.9563 H   0  0  0  0  0  0  0  0  0  0  0  0
    4.4372   -0.0079   -3.1818 H   0  0  0  0  0  0  0  0  0  0  0  0
    1.8905   -0.0055   -2.8841 H   0  0  0  0  0  0  0  0  0  0  0  0
    3.9044    0.0024    2.9119 H   0  0  0  0  0  0  0  0  0  0  0  0
    0.1975    0.0065    4.8205 H   0  0  0  0  0  0  0  0  0  0  0  0
   -0.9821    0.0034    2.5812 H   0  0  0  0  0  0  0  0  0  0  0  0
  1  5  1  0  0  0  0
  2  6  2  0  0  0  0
  3  9  1  0  0  0  0
  3 12  1  0  0  0  0
  5  9  2  0  0  0  0
  6  5  1  0  0  0  0
  6 13  1  0  0  0  0
  7  8  2  0  0  0  0
  7  2  1  0  0  0  0
  8  1  1  0  0  0  0
  9 10  1  0  0  0  0
 10 16  1  0  0  0  0
 10  4  2  0  0  0  0
 11  4  1  0  0  0  0
 11 17  1  0  0  0  0
 12 11  2  0  0  0  0
 14  7  1  0  0  0  0
 15  8  1  0  0  0  0
 18 12  1  0  0  0  0
M  END
