3,4
q = 0.0, confidence = 0.996

 28 29  0  0  0  0  0  0  0  0999 V2000
    6.5748   -0.2033   -1.3753 O   0  0  0  0  0  0  0  0  0  0  0  0
    6.5362   -0.9833   -1.9598 H   0  0  0  0  0  0  0  0  0  0  0  0
   -2.2562   -1.0572   -0.0542 N   0  0  0  0  0  2  0  0  0  0  0  0
    0.3193   -1.1084   -0.0362 N   0  0  0  0  0  2  0  0  0  0  0  0
   -3.5967   -0.9642   -0.1750 C   0  0  0  0  0  3  0  0  0  0  0  0
   -3.9987    0.0335   -0.3970 H   0  0  0  0  0  0  0  0  0  0  0  0
   -4.4347   -2.0759   -0.0372 C   0  0  0  0  0  0  0  0  0  0  0  0
   -5.5214   -1.9445   -0.1338 H   0  0  0  0  0  0  0  0  0  0  0  0
   -3.8712   -3.3386    0.2139 C   0  0  0  0  0  0  0  0  0  0  0  0
   -4.5105   -4.2267    0.3214 H   0  0  0  0  0  0  0  0  0  0  0  0
   -2.4815   -3.4473    0.3074 C   0  0  0  0  0  0  0  0  0  0  0  0
   -1.9912   -4.4167    0.4754 H   0  0  0  0  0  0  0  0  0  0  0  0
   -1.6929   -2.2901    0.1641 C   0  0  0  0  0  0  0  0  0  0  0  0
   -0.2533   -2.2700    0.1780 C   0  0  0  0  0  3  0  0  0  0  0  0
    0.3434   -3.1873    0.3098 H   0  0  0  0  0  0  0  0  0  0  0  0
    1.7361   -0.9975   -0.0532 C   0  0  0  0  0  0  0  0  0  0  0  0
    2.3629   -0.3373   -1.1299 C   0  0  0  0  0  0  0  0  0  0  0  0
    1.7385    0.0429   -1.9526 H   0  0  0  0  0  0  0  0  0  0  0  0
    3.7565   -0.2286   -1.1503 C   0  0  0  0  0  0  0  0  0  0  0  0
    4.2692    0.2668   -1.9881 H   0  0  0  0  0  0  0  0  0  0  0  0
    4.5432   -0.7534   -0.1048 C   0  0  0  0  0  0  0  0  0  0  0  0
    3.9024   -1.4109    0.9645 C   0  0  0  0  0  0  0  0  0  0  0  0
    4.5015   -1.8246    1.7913 H   0  0  0  0  0  0  0  0  0  0  0  0
    2.5092   -1.5401    0.9954 C   0  0  0  0  0  0  0  0  0  0  0  0
    2.0124   -2.0346    1.8439 H   0  0  0  0  0  0  0  0  0  0  0  0
    6.0523   -0.5744   -0.1230 C   0  0  0  0  0  0  0  0  0  0  0  0
    6.3126    0.2490    0.5796 H   0  0  0  0  0  0  0  0  0  0  0  0
    6.5347   -1.4905    0.2966 H   0  0  0  0  0  0  0  0  0  0  0  0
  1 26  1  0  0  0  0
  2  1  1  0  0  0  0
  3 13  1  0  0  0  0
  4 14  1  0  0  0  0
  5  3  1  0  0  0  0
  5  7  1  0  0  0  0
  6  5  1  0  0  0  0
  7  9  2  0  0  0  0
  8  7  1  0  0  0  0
  9 11  1  0  0  0  0
  9 10  1  0  0  0  0
 11 12  1  0  0  0  0
 13 14  1  0  0  0  0
 13 11  2  0  0  0  0
 14 15  1  0  0  0  0
 16  4  1  0  0  0  0
 16 24  1  0  0  0  0
 17 16  2  0  0  0  0
 18 17  1  0  0  0  0
 19 17  1  0  0  0  0
 19 21  2  0  0  0  0
 20 19  1  0  0  0  0
 21 22  1  0  0  0  0
 22 24  2  0  0  0  0
 22 23  1  0  0  0  0
 24 25  1  0  0  0  0
 26 21  1  0  0  0  0
 26 28  1  0  0  0  0
 26 27  1  0  0  0  0
M  END
