1,4
q = 0.0, confidence = 0.998

 22 23  0  0  1  0  0  0  0  0999 V2000
    0.7923   -1.3448    0.9603 N   0  0  0  0  0  2  0  0  0  0  0  0
    4.1669   -0.1033    0.6049 N   0  0  0  0  0  0  0  0  0  0  0  0
    4.1247    1.7738   -0.9000 N   0  0  0  0  0  0  0  0  0  0  0  0
    2.0978    0.6235   -0.3356 N   0  0  0  0  0  2  0  0  0  0  0  0
    6.0972    1.0323    0.0451 N   0  0  0  0  0  0  0  0  0  0  0  0
    6.5906    1.7065   -0.5359 H   0  0  0  0  0  0  0  0  0  0  0  0
    6.6046    0.3147    0.5577 H   0  0  0  0  0  0  0  0  0  0  0  0
    2.0830    2.4545   -1.7613 N   0  0  0  0  0  0  0  0  0  0  0  0
    2.6120    3.1414   -2.2965 H   0  0  0  0  0  0  0  0  0  0  0  0
    1.0546    2.2765   -1.9309 H   0  0  0  0  0  0  0  0  0  0  0  0
    0.0941   -2.3263    1.5514 C   0  0  0  0  0  3  0  0  0  0  0  0
   -0.9914   -2.3252    1.3598 H   0  0  0  0  0  0  0  0  0  0  0  0
    0.6986   -3.2974    2.3594 C   0  0  0  0  0  0  0  0  0  0  0  0
    0.0871   -4.0802    2.8310 H   0  0  0  0  0  0  0  0  0  0  0  0
    2.0906   -3.2446    2.5469 C   0  0  0  0  0  0  0  0  0  0  0  0
    2.6000   -3.9946    3.1704 H   0  0  0  0  0  0  0  0  0  0  0  0
    2.8209   -2.2329    1.9176 C   0  0  0  0  0  0  0  0  0  0  0  0
    3.9113   -2.1383    2.0026 H   0  0  0  0  0  0  0  0  0  0  0  0
    2.1293   -1.2960    1.1283 C   0  0  0  0  0  0  0  0  0  0  0  0
    2.8502   -0.1951    0.4247 C   0  0  2  0  0  3  0  0  0  0  0  0
    4.7555    0.9032   -0.0977 C   0  0  0  0  0  0  0  0  0  0  0  0
    2.7882    1.6111   -0.9987 C   0  0  0  0  0  0  0  0  0  0  0  0
  1 19  1  0  0  0  0
  1 11  1  0  0  0  0
  3 21  1  0  0  0  0
  4 20  1  0  0  0  0
  5  7  1  0  0  0  0
  6  5  1  0  0  0  0
  8 22  1  0  0  0  0
  9  8  1  0  0  0  0
 10  8  1  0  0  0  0
 11 13  1  0  0  0  0
 12 11  1  0  0  0  0
 13 15  2  0  0  0  0
 13 14  1  0  0  0  0
 15 16  1  0  0  0  0
 17 18  1  0  0  0  0
 17 15  1  0  0  0  0
 19 17  2  0  0  0  0
 20  2  1  0  0  0  0
 20 19  1  1  0  0  0
 21  5  1  0  0  0  0
 21  2  2  0  0  0  0
 22  3  2  0  0  0  0
 22  4  1  0  0  0  0
M  END
