1,2
q = -2.0, confidence = 0.834

 50 53  0  0  0  0  0  0  0  0999 V2000
   -1.3132   -0.2611   -0.2125 N   0  0  0  0  0  2  0  0  0  0  0  0
    1.2983   -0.1307    0.1816 N   0  0  0  0  0  2  0  0  0  0  0  0
   -0.8010    0.9749   -0.3691 C   0  0  0  0  0  3  0  0  0  0  0  0
    0.7188    0.9851   -0.4389 C   0  0  0  0  0  0  0  0  0  0  0  0
   -1.4075    2.1273   -0.5327 N   0  0  0  0  0  2  0  0  0  0  0  0
    1.3003    1.9847   -1.0148 N   0  0  0  0  0  0  0  0  0  0  0  0
   -3.3448   -1.3425    0.5851 C   0  0  0  0  0  0  0  0  0  0  0  0
   -4.7132   -1.6146    0.4645 C   0  0  0  0  0  0  0  0  0  0  0  0
   -5.4556   -1.0596   -0.5895 C   0  0  0  0  0  0  0  0  0  0  0  0
   -4.8143   -0.2319   -1.5269 C   0  0  0  0  0  0  0  0  0  0  0  0
   -3.4491    0.0519   -1.4098 C   0  0  0  0  0  0  0  0  0  0  0  0
   -2.7002   -0.4987   -0.3457 C   0  0  0  0  0  0  0  0  0  0  0  0
    3.1932   -0.8976    1.5129 C   0  0  0  0  0  0  0  0  0  0  0  0
    4.1445   -0.6768    2.5112 C   0  0  0  0  0  0  0  0  0  0  0  0
    4.1883    0.5505    3.1960 C   0  0  0  0  0  0  0  0  0  0  0  0
    3.2657    1.5593    2.8677 C   0  0  0  0  0  0  0  0  0  0  0  0
    2.3134    1.3521    1.8673 C   0  0  0  0  0  0  0  0  0  0  0  0
    2.2605    0.1140    1.1715 C   0  0  0  0  0  0  0  0  0  0  0  0
   -2.9058    2.1669    1.4133 C   0  0  0  0  0  0  0  0  0  0  0  0
   -4.0178    2.7304    2.0361 C   0  0  0  0  0  0  0  0  0  0  0  0
   -4.7470    3.7605    1.4080 C   0  0  0  0  0  0  0  0  0  0  0  0
   -4.3397    4.2340    0.1463 C   0  0  0  0  0  0  0  0  0  0  0  0
   -3.2216    3.6883   -0.4849 C   0  0  0  0  0  0  0  0  0  0  0  0
   -2.4886    2.6261    0.1246 C   0  0  0  0  0  0  0  0  0  0  0  0
    3.4710    0.9528   -1.6385 C   0  0  0  0  0  0  0  0  0  0  0  0
    4.8275    1.1339   -1.9264 C   0  0  0  0  0  0  0  0  0  0  0  0
    5.4149    2.4075   -1.8306 C   0  0  0  0  0  0  0  0  0  0  0  0
    4.6228    3.5131   -1.4758 C   0  0  0  0  0  0  0  0  0  0  0  0
    3.2566    3.3498   -1.2249 C   0  0  0  0  0  0  0  0  0  0  0  0
    2.6664    2.0625   -1.2705 C   0  0  0  0  0  0  0  0  0  0  0  0
   -2.7558   -1.7666    1.4114 H   0  0  0  0  0  0  0  0  0  0  0  0
   -5.2026   -2.2681    1.2024 H   0  0  0  0  0  0  0  0  0  0  0  0
   -6.5298   -1.2766   -0.6857 H   0  0  0  0  0  0  0  0  0  0  0  0
   -5.3843    0.1950   -2.3660 H   0  0  0  0  0  0  0  0  0  0  0  0
   -2.9482    0.6965   -2.1456 H   0  0  0  0  0  0  0  0  0  0  0  0
    3.1715   -1.8450    0.9593 H   0  0  0  0  0  0  0  0  0  0  0  0
    4.8684   -1.4698    2.7518 H   0  0  0  0  0  0  0  0  0  0  0  0
    4.9393    0.7207    3.9816 H   0  0  0  0  0  0  0  0  0  0  0  0
    3.2841    2.5194    3.4049 H   0  0  0  0  0  0  0  0  0  0  0  0
    1.5867    2.1410    1.6263 H   0  0  0  0  0  0  0  0  0  0  0  0
   -2.3379    1.3622    1.9028 H   0  0  0  0  0  0  0  0  0  0  0  0
   -4.3295    2.3636    3.0261 H   0  0  0  0  0  0  0  0  0  0  0  0
   -5.6260    4.1965    1.9055 H   0  0  0  0  0  0  0  0  0  0  0  0
   -4.9020    5.0432   -0.3441 H   0  0  0  0  0  0  0  0  0  0  0  0
   -2.8805    4.0468   -1.4667 H   0  0  0  0  0  0  0  0  0  0  0  0
    3.0158   -0.0446   -1.7137 H   0  0  0  0  0  0  0  0  0  0  0  0
    5.4372    0.2674   -2.2245 H   0  0  0  0  0  0  0  0  0  0  0  0
    6.4857    2.5398   -2.0462 H   0  0  0  0  0  0  0  0  0  0  0  0
    5.0723    4.5157   -1.4119 H   0  0  0  0  0  0  0  0  0  0  0  0
    2.6118    4.2041   -0.9730 H   0  0  0  0  0  0  0  0  0  0  0  0
  2 18  1  0  0  0  0
  3  1  1  0  0  0  0
  4  3  1  0  0  0  0
  4  2  1  0  0  0  0
  5  3  1  0  0  0  0
  5 24  1  0  0  0  0
  6  4  2  0  0  0  0
  7 31  1  0  0  0  0
  8  7  1  0  0  0  0
  8 32  1  0  0  0  0
  9  8  2  0  0  0  0
 10 11  2  0  0  0  0
 10  9  1  0  0  0  0
 11 12  1  0  0  0  0
 12  1  1  0  0  0  0
 12  7  2  0  0  0  0
 13 14  1  0  0  0  0
 14 37  1  0  0  0  0
 14 15  2  0  0  0  0
 15 38  1  0  0  0  0
 16 15  1  0  0  0  0
 16 39  1  0  0  0  0
 17 16  2  0  0  0  0
 18 13  2  0  0  0  0
 18 17  1  0  0  0  0
 19 41  1  0  0  0  0
 19 20  1  0  0  0  0
 20 42  1  0  0  0  0
 21 43  1  0  0  0  0
 21 20  2  0  0  0  0
 22 21  1  0  0  0  0
 23 24  1  0  0  0  0
 23 22  2  0  0  0  0
 24 19  2  0  0  0  0
 25 30  1  0  0  0  0
 26 27  1  0  0  0  0
 26 25  2  0  0  0  0
 27 28  2  0  0  0  0
 28 49  1  0  0  0  0
 28 29  1  0  0  0  0
 29 50  1  0  0  0  0
 30 29  2  0  0  0  0
 30  6  1  0  0  0  0
 33  9  1  0  0  0  0
 34 10  1  0  0  0  0
 35 11  1  0  0  0  0
 36 13  1  0  0  0  0
 40 17  1  0  0  0  0
 44 22  1  0  0  0  0
 45 23  1  0  0  0  0
 46 25  1  0  0  0  0
 47 26  1  0  0  0  0
 48 27  1  0  0  0  0
M  END
