3,4
q = 0.0, confidence = 0.996

 52 56  0  0  0  0  0  0  0  0999 V2000
   -0.0000    2.9093    0.0105 C   0  0  0  0  0  0  0  0  0  0  0  0
   -0.0000    4.1207   -0.0009 O   0  0  0  0  0  0  0  0  0  0  0  0
    1.3546   -0.4285    0.0079 N   0  0  0  0  0  2  0  0  0  0  0  0
   -1.3546   -0.4285    0.0078 N   0  0  0  0  0  2  0  0  0  0  0  0
    0.7291    0.7242    0.0390 C   0  0  0  0  0  0  0  0  0  0  0  0
   -0.7291    0.7242    0.0390 C   0  0  0  0  0  0  0  0  0  0  0  0
    1.1379    2.0565    0.0293 N   0  0  0  0  0  0  0  0  0  0  0  0
   -1.1379    2.0565    0.0293 N   0  0  0  0  0  0  0  0  0  0  0  0
    3.5278   -1.2716    0.7294 C   0  0  0  0  0  0  0  0  0  0  0  0
    4.9133   -1.3711    0.5528 C   0  0  0  0  0  0  0  0  0  0  0  0
    5.5351   -0.7599   -0.5486 C   0  0  0  0  0  0  0  0  0  0  0  0
    4.7596   -0.0535   -1.4818 C   0  0  0  0  0  0  0  0  0  0  0  0
    3.3748    0.0606   -1.3082 C   0  0  0  0  0  0  0  0  0  0  0  0
    2.7555   -0.5352   -0.1902 C   0  0  0  0  0  0  0  0  0  0  0  0
   -3.3748    0.0607   -1.3084 C   0  0  0  0  0  0  0  0  0  0  0  0
   -4.7596   -0.0535   -1.4821 C   0  0  0  0  0  0  0  0  0  0  0  0
   -5.5351   -0.7599   -0.5489 C   0  0  0  0  0  0  0  0  0  0  0  0
   -4.9133   -1.3711    0.5525 C   0  0  0  0  0  0  0  0  0  0  0  0
   -3.5279   -1.2717    0.7291 C   0  0  0  0  0  0  0  0  0  0  0  0
   -2.7555   -0.5352   -0.1904 C   0  0  0  0  0  0  0  0  0  0  0  0
    2.9449    3.5310   -0.7172 C   0  0  0  0  0  0  0  0  0  0  0  0
    4.2560    4.0057   -0.5764 C   0  0  0  0  0  0  0  0  0  0  0  0
    5.0792    3.5207    0.4521 C   0  0  0  0  0  0  0  0  0  0  0  0
    4.5794    2.5762    1.3628 C   0  0  0  0  0  0  0  0  0  0  0  0
    3.2635    2.1124    1.2457 C   0  0  0  0  0  0  0  0  0  0  0  0
    2.4594    2.5732    0.1886 C   0  0  0  0  0  0  0  0  0  0  0  0
   -3.2635    2.1123    1.2458 C   0  0  0  0  0  0  0  0  0  0  0  0
   -4.5794    2.5761    1.3629 C   0  0  0  0  0  0  0  0  0  0  0  0
   -5.0792    3.5207    0.4523 C   0  0  0  0  0  0  0  0  0  0  0  0
   -4.2560    4.0058   -0.5762 C   0  0  0  0  0  0  0  0  0  0  0  0
   -2.9449    3.5311   -0.7171 C   0  0  0  0  0  0  0  0  0  0  0  0
   -2.4594    2.5732    0.1887 C   0  0  0  0  0  0  0  0  0  0  0  0
    3.0254   -1.7493    1.5822 H   0  0  0  0  0  0  0  0  0  0  0  0
    5.5115   -1.9398    1.2802 H   0  0  0  0  0  0  0  0  0  0  0  0
    6.6230   -0.8458   -0.6871 H   0  0  0  0  0  0  0  0  0  0  0  0
    5.2358    0.4149   -2.3561 H   0  0  0  0  0  0  0  0  0  0  0  0
    2.7616    0.6056   -2.0402 H   0  0  0  0  0  0  0  0  0  0  0  0
   -2.7615    0.6058   -2.0403 H   0  0  0  0  0  0  0  0  0  0  0  0
   -5.2357    0.4150   -2.3563 H   0  0  0  0  0  0  0  0  0  0  0  0
   -6.6230   -0.8458   -0.6874 H   0  0  0  0  0  0  0  0  0  0  0  0
   -5.5116   -1.9399    1.2799 H   0  0  0  0  0  0  0  0  0  0  0  0
   -3.0255   -1.7494    1.5820 H   0  0  0  0  0  0  0  0  0  0  0  0
    2.2968    3.8931   -1.5266 H   0  0  0  0  0  0  0  0  0  0  0  0
    4.6400    4.7544   -1.2852 H   0  0  0  0  0  0  0  0  0  0  0  0
    6.1131    3.8842    0.5479 H   0  0  0  0  0  0  0  0  0  0  0  0
    5.2167    2.1965    2.1749 H   0  0  0  0  0  0  0  0  0  0  0  0
    2.8621    1.3795    1.9592 H   0  0  0  0  0  0  0  0  0  0  0  0
   -2.8621    1.3794    1.9592 H   0  0  0  0  0  0  0  0  0  0  0  0
   -5.2166    2.1964    2.1749 H   0  0  0  0  0  0  0  0  0  0  0  0
   -6.1131    3.8842    0.5482 H   0  0  0  0  0  0  0  0  0  0  0  0
   -4.6400    4.7546   -1.2849 H   0  0  0  0  0  0  0  0  0  0  0  0
   -2.2968    3.8933   -1.5264 H   0  0  0  0  0  0  0  0  0  0  0  0
  1  8  1  0  0  0  0
  1  7  1  0  0  0  0
  2  1  2  0  0  0  0
  3  5  1  0  0  0  0
  4  6  1  0  0  0  0
  6  5  2  0  0  0  0
  7  5  1  0  0  0  0
  7 26  1  0  0  0  0
  8  6  1  0  0  0  0
  8 32  1  0  0  0  0
  9 33  1  0  0  0  0
 10  9  1  0  0  0  0
 10 34  1  0  0  0  0
 11 10  2  0  0  0  0
 12 13  2  0  0  0  0
 12 11  1  0  0  0  0
 13 14  1  0  0  0  0
 14  3  1  0  0  0  0
 14  9  2  0  0  0  0
 15 20  1  0  0  0  0
 16 15  2  0  0  0  0
 16 17  1  0  0  0  0
 17 18  2  0  0  0  0
 18 19  1  0  0  0  0
 18 41  1  0  0  0  0
 19 42  1  0  0  0  0
 20  4  1  0  0  0  0
 20 19  2  0  0  0  0
 21 22  2  0  0  0  0
 21 26  1  0  0  0  0
 22 23  1  0  0  0  0
 23 45  1  0  0  0  0
 23 24  2  0  0  0  0
 24 46  1  0  0  0  0
 25 24  1  0  0  0  0
 25 47  1  0  0  0  0
 26 25  2  0  0  0  0
 27 28  1  0  0  0  0
 27 48  1  0  0  0  0
 28 49  1  0  0  0  0
 29 50  1  0  0  0  0
 29 28  2  0  0  0  0
 30 29  1  0  0  0  0
 31 30  2  0  0  0  0
 31 32  1  0  0  0  0
 32 27  2  0  0  0  0
 35 11  1  0  0  0  0
 36 12  1  0  0  0  0
 37 13  1  0  0  0  0
 38 15  1  0  0  0  0
 39 16  1  0  0  0  0
 40 17  1  0  0  0  0
 43 21  1  0  0  0  0
 44 22  1  0  0  0  0
 51 30  1  0  0  0  0
 52 31  1  0  0  0  0
M  END
