1,2
q = 0.0, confidence = 0.998

 37 41  0  0  0  0  0  0  0  0999 V2000
    0.1773    1.4972   -0.2348 N   0  0  0  0  0  2  0  0  0  0  0  0
    2.3211    0.1446   -0.1627 N   0  0  0  0  0  2  0  0  0  0  0  0
   -2.3796    0.2932    0.9537 N   0  0  0  0  0  0  0  0  0  0  0  0
   -3.3992    1.3844   -0.7293 N   0  0  0  0  0  0  0  0  0  0  0  0
    3.7787    1.7884    0.3048 N   0  0  0  0  0  0  0  0  0  0  0  0
    1.2843    2.2838   -0.0280 C   0  0  0  0  0  0  0  0  0  0  0  0
    1.1946    3.6797    0.1030 C   0  0  0  0  0  0  0  0  0  0  0  0
   -0.0698    4.2777    0.0522 C   0  0  0  0  0  0  0  0  0  0  0  0
   -1.2058    3.4574   -0.0527 C   0  0  0  0  0  0  0  0  0  0  0  0
   -1.0525    2.0629   -0.1583 C   0  0  0  0  0  0  0  0  0  0  0  0
   -2.2284    1.1754   -0.0294 C   0  0  0  0  0  0  0  0  0  0  0  0
   -4.3437    0.4964   -0.2311 C   0  0  0  0  0  0  0  0  0  0  0  0
   -3.6789   -0.1725    0.8432 C   0  0  0  0  0  0  0  0  0  0  0  0
   -4.3641   -1.1474    1.5931 C   0  0  0  0  0  0  0  0  0  0  0  0
   -5.6874   -1.4351    1.2383 C   0  0  0  0  0  0  0  0  0  0  0  0
   -6.3284   -0.7701    0.1653 C   0  0  0  0  0  0  0  0  0  0  0  0
   -5.6677    0.2100   -0.5902 C   0  0  0  0  0  0  0  0  0  0  0  0
    2.4695    1.4655    0.0374 C   0  0  0  0  0  0  0  0  0  0  0  0
    4.5131    0.6114    0.2852 C   0  0  0  0  0  0  0  0  0  0  0  0
    3.5766   -0.4261   -0.0192 C   0  0  0  0  0  0  0  0  0  0  0  0
    4.0015   -1.7641   -0.1209 C   0  0  0  0  0  0  0  0  0  0  0  0
    5.3582   -2.0252    0.0916 C   0  0  0  0  0  0  0  0  0  0  0  0
    6.2779   -0.9907    0.3976 C   0  0  0  0  0  0  0  0  0  0  0  0
    5.8745    0.3463    0.4995 C   0  0  0  0  0  0  0  0  0  0  0  0
    2.1017    4.2865    0.2387 H   0  0  0  0  0  0  0  0  0  0  0  0
   -0.1758    5.3683    0.1412 H   0  0  0  0  0  0  0  0  0  0  0  0
   -2.2187    3.8802    0.0053 H   0  0  0  0  0  0  0  0  0  0  0  0
   -6.1678    0.7223   -1.4251 H   0  0  0  0  0  0  0  0  0  0  0  0
   -7.3684   -1.0286   -0.0838 H   0  0  0  0  0  0  0  0  0  0  0  0
   -6.2432   -2.2001    1.8008 H   0  0  0  0  0  0  0  0  0  0  0  0
   -3.8580   -1.6691    2.4179 H   0  0  0  0  0  0  0  0  0  0  0  0
    3.2655   -2.5389   -0.3716 H   0  0  0  0  0  0  0  0  0  0  0  0
    5.7244   -3.0600    0.0198 H   0  0  0  0  0  0  0  0  0  0  0  0
    7.3366   -1.2430    0.5590 H   0  0  0  0  0  0  0  0  0  0  0  0
    6.5910    1.1463    0.7358 H   0  0  0  0  0  0  0  0  0  0  0  0
   -3.4600    1.8941   -1.6102 H   0  0  0  0  0  0  0  0  0  0  0  0
    4.1365    2.7170    0.5205 H   0  0  0  0  0  0  0  0  0  0  0  0
  1 10  1  0  0  0  0
  1  6  1  0  0  0  0
  2 20  1  0  0  0  0
  2 18  1  0  0  0  0
  4 12  1  0  0  0  0
  4 11  1  0  0  0  0
  5 37  1  0  0  0  0
  6 18  2  0  0  0  0
  6  7  1  0  0  0  0
  7 25  1  0  0  0  0
  8  7  2  0  0  0  0
  8 26  1  0  0  0  0
  9 27  1  0  0  0  0
  9  8  1  0  0  0  0
 10  9  2  0  0  0  0
 10 11  1  0  0  0  0
 11  3  2  0  0  0  0
 12 13  1  0  0  0  0
 13  3  1  0  0  0  0
 13 14  2  0  0  0  0
 14 31  1  0  0  0  0
 15 14  1  0  0  0  0
 15 30  1  0  0  0  0
 16 15  2  0  0  0  0
 17 12  2  0  0  0  0
 17 16  1  0  0  0  0
 18  5  1  0  0  0  0
 19  5  1  0  0  0  0
 19 24  1  0  0  0  0
 20 19  2  0  0  0  0
 21 20  1  0  0  0  0
 21 22  2  0  0  0  0
 22 23  1  0  0  0  0
 23 24  2  0  0  0  0
 23 34  1  0  0  0  0
 24 35  1  0  0  0  0
 28 17  1  0  0  0  0
 29 16  1  0  0  0  0
 32 21  1  0  0  0  0
 33 22  1  0  0  0  0
 36  4  1  0  0  0  0
M  END
