1,2
q = -1.0

 27 28  0  0  0  0  0  0  0  0999 V2000
    1.2588    1.7525    0.1065 N   0  0  0  0  0  2  0  0  0  0  0  0
   -0.8557    0.6229   -0.9960 N   0  0  0  0  0  2  0  0  0  0  0  0
   -4.4744   -0.0579   -1.0066 N   0  0  0  0  0  0  0  0  0  0  0  0
    2.3998    2.2179    0.6785 C   0  0  0  0  0  3  0  0  0  0  0  0
    3.1131    1.4552    1.0220 H   0  0  0  0  0  0  0  0  0  0  0  0
    2.6655    3.5775    0.8205 C   0  0  0  0  0  0  0  0  0  0  0  0
    3.6065    3.9009    1.2872 H   0  0  0  0  0  0  0  0  0  0  0  0
    1.7171    4.5080    0.3579 C   0  0  0  0  0  0  0  0  0  0  0  0
    1.8961    5.5890    0.4546 H   0  0  0  0  0  0  0  0  0  0  0  0
    0.5412    4.0308   -0.2276 C   0  0  0  0  0  0  0  0  0  0  0  0
   -0.2292    4.7204   -0.6028 H   0  0  0  0  0  0  0  0  0  0  0  0
    0.3306    2.6468   -0.3415 C   0  0  0  0  0  0  0  0  0  0  0  0
   -0.9035    2.0578   -0.9480 C   0  0  0  0  0  0  0  0  0  0  0  0
   -1.7783    2.4379   -0.3526 H   0  0  0  0  0  0  0  0  0  0  0  0
   -1.0445    2.5161   -1.9639 H   0  0  0  0  0  0  0  0  0  0  0  0
   -2.0810    0.0421   -1.4835 C   0  0  0  0  0  0  0  0  0  0  0  0
   -1.8981   -1.0051   -1.8117 H   0  0  0  0  0  0  0  0  0  0  0  0
   -2.4660    0.5658   -2.3915 H   0  0  0  0  0  0  0  0  0  0  0  0
   -3.2348    0.0102   -0.4821 C   0  0  0  0  0  0  0  0  0  0  0  0
   -2.9992    0.0244    0.9074 C   0  0  0  0  0  0  0  0  0  0  0  0
   -1.9596    0.0790    1.2695 H   0  0  0  0  0  0  0  0  0  0  0  0
   -4.0951   -0.0389    1.7777 C   0  0  0  0  0  0  0  0  0  0  0  0
   -3.9429   -0.0307    2.8686 H   0  0  0  0  0  0  0  0  0  0  0  0
   -5.3869   -0.1150    1.2359 C   0  0  0  0  0  0  0  0  0  0  0  0
   -6.2782   -0.1647    1.8791 H   0  0  0  0  0  0  0  0  0  0  0  0
   -5.5152   -0.1228   -0.1629 C   0  0  0  0  0  0  0  0  0  0  0  0
   -6.5174   -0.1797   -0.6263 H   0  0  0  0  0  0  0  0  0  0  0  0
  1  4  1  0  0  0  0
  2 13  1  0  0  0  0
  3 19  2  0  0  0  0
  3 26  1  0  0  0  0
  4  6  1  0  0  0  0
  4  5  1  0  0  0  0
  6  7  1  0  0  0  0
  8  9  1  0  0  0  0
  8  6  2  0  0  0  0
 10  8  1  0  0  0  0
 11 10  1  0  0  0  0
 12 10  2  0  0  0  0
 12  1  1  0  0  0  0
 13 14  1  0  0  0  0
 13 12  1  0  0  0  0
 15 13  1  0  0  0  0
 16  2  1  0  0  0  0
 16 19  1  0  0  0  0
 17 16  1  0  0  0  0
 18 16  1  0  0  0  0
 19 20  1  0  0  0  0
 20 21  1  0  0  0  0
 20 22  2  0  0  0  0
 22 23  1  0  0  0  0
 24 22  1  0  0  0  0
 24 25  1  0  0  0  0
 26 24  2  0  0  0  0
 27 26  1  0  0  0  0
M  END
