2,16
q = -1.0, confidence = 0.0

 28 31  0  0  1  0  0  0  0  0999 V2000
    2.3742   -2.4353   -0.4816 O   0  0  0  0  0  0  0  0  0  0  0  0
    1.4415   -0.4324    0.0040 N   0  0  0  0  0  2  0  0  0  0  0  0
   -0.0000   -2.3352   -0.6863 C   0  0  0  0  0  0  0  0  0  0  0  0
    1.2146   -1.7064   -0.4057 C   0  0  2  0  0  3  0  0  0  0  0  0
    3.3809   -1.6020   -0.0509 C   0  0  0  0  0  0  0  0  0  0  0  0
    4.7344   -1.8969    0.0748 C   0  0  0  0  0  0  0  0  0  0  0  0
    5.5493   -0.8652    0.5796 C   0  0  0  0  0  0  0  0  0  0  0  0
    5.0025    0.3814    0.9434 C   0  0  0  0  0  0  0  0  0  0  0  0
    3.6301    0.6576    0.8088 C   0  0  0  0  0  0  0  0  0  0  0  0
    2.8127   -0.3524    0.2789 C   0  0  0  0  0  0  0  0  0  0  0  0
   -0.0000   -3.3826   -1.0041 H   0  0  0  0  0  0  0  0  0  0  0  0
    5.1333   -2.8833   -0.1981 H   0  0  0  0  0  0  0  0  0  0  0  0
    6.6275   -1.0428    0.7036 H   0  0  0  0  0  0  0  0  0  0  0  0
    5.6633    1.1585    1.3550 H   0  0  0  0  0  0  0  0  0  0  0  0
    3.2174    1.6229    1.1278 H   0  0  0  0  0  0  0  0  0  0  0  0
   -1.4416   -0.4324    0.0041 N   0  0  0  0  0  2  0  0  0  0  0  0
   -1.2147   -1.7064   -0.4056 C   0  0  0  0  0  0  0  0  0  0  0  0
   -2.8127   -0.3523    0.2789 C   0  0  0  0  0  0  0  0  0  0  0  0
   -2.3743   -2.4353   -0.4815 O   0  0  0  0  0  0  0  0  0  0  0  0
   -3.3810   -1.6020   -0.0508 C   0  0  0  0  0  0  0  0  0  0  0  0
   -3.6301    0.6577    0.8087 C   0  0  0  0  0  0  0  0  0  0  0  0
   -4.7345   -1.8969    0.0750 C   0  0  0  0  0  0  0  0  0  0  0  0
   -5.0025    0.3815    0.9433 C   0  0  0  0  0  0  0  0  0  0  0  0
   -3.2174    1.6231    1.1275 H   0  0  0  0  0  0  0  0  0  0  0  0
   -5.5493   -0.8651    0.5796 C   0  0  0  0  0  0  0  0  0  0  0  0
   -5.1334   -2.8834   -0.1979 H   0  0  0  0  0  0  0  0  0  0  0  0
   -5.6633    1.1587    1.3549 H   0  0  0  0  0  0  0  0  0  0  0  0
   -6.6275   -1.0427    0.7037 H   0  0  0  0  0  0  0  0  0  0  0  0
  1  4  1  0  0  0  0
  1  5  1  0  0  0  0
  2 10  1  0  0  0  0
  3 17  2  0  0  0  0
  4  3  1  1  0  0  0
  4  2  1  0  0  0  0
  5  6  2  0  0  0  0
  5 10  1  0  0  0  0
  6  7  1  0  0  0  0
  7 13  1  0  0  0  0
  7  8  2  0  0  0  0
  8 14  1  0  0  0  0
  9  8  1  0  0  0  0
  9 15  1  0  0  0  0
 10  9  2  0  0  0  0
 11  3  1  0  0  0  0
 12  6  1  0  0  0  0
 16 18  1  0  0  0  0
 17 16  1  0  0  0  0
 18 21  1  0  0  0  0
 19 17  1  0  0  0  0
 19 20  1  0  0  0  0
 20 22  1  0  0  0  0
 20 18  2  0  0  0  0
 21 23  2  0  0  0  0
 21 24  1  0  0  0  0
 22 25  2  0  0  0  0
 23 27  1  0  0  0  0
 25 28  1  0  0  0  0
 25 23  1  0  0  0  0
 26 22  1  0  0  0  0
M  END
