1,4
q = 0.0, confidence = 1.0

 38 41  0  0  0  0  0  0  0  0999 V2000
    0.4185    0.3410   -1.4829 N   0  0  0  0  0  0  0  0  0  0  0  0
    0.9822    0.7078   -2.2693 H   0  0  0  0  0  0  0  0  0  0  0  0
    0.0522   -0.5925   -1.7218 H   0  0  0  0  0  0  0  0  0  0  0  0
    0.4185   -0.3408    1.4829 N   0  0  0  0  0  0  0  0  0  0  0  0
    0.9823   -0.7074    2.2694 H   0  0  0  0  0  0  0  0  0  0  0  0
    0.0523    0.5928    1.7214 H   0  0  0  0  0  0  0  0  0  0  0  0
   -1.6084    0.7269   -0.1743 C   0  0  0  0  0  0  0  0  0  0  0  0
   -0.5989    1.2257   -1.0099 C   0  0  0  0  0  0  0  0  0  0  0  0
   -0.5203    2.6078   -1.3320 C   0  0  0  0  0  0  0  0  0  0  0  0
    0.2993    2.9612   -1.9754 H   0  0  0  0  0  0  0  0  0  0  0  0
   -1.4606    3.4876   -0.8285 C   0  0  0  0  0  0  0  0  0  0  0  0
   -1.4034    4.5574   -1.0806 H   0  0  0  0  0  0  0  0  0  0  0  0
   -2.5090    3.0361    0.0255 C   0  0  0  0  0  0  0  0  0  0  0  0
   -3.4804    3.9311    0.5601 C   0  0  0  0  0  0  0  0  0  0  0  0
   -3.4176    4.9970    0.2915 H   0  0  0  0  0  0  0  0  0  0  0  0
   -4.4812    3.4747    1.4047 C   0  0  0  0  0  0  0  0  0  0  0  0
   -5.2243    4.1766    1.8114 H   0  0  0  0  0  0  0  0  0  0  0  0
   -4.5457    2.0985    1.7499 C   0  0  0  0  0  0  0  0  0  0  0  0
   -5.3389    1.7428    2.4247 H   0  0  0  0  0  0  0  0  0  0  0  0
   -3.6189    1.1985    1.2441 C   0  0  0  0  0  0  0  0  0  0  0  0
   -3.6755    0.1339    1.5131 H   0  0  0  0  0  0  0  0  0  0  0  0
   -2.5804    1.6344    0.3671 C   0  0  0  0  0  0  0  0  0  0  0  0
   -1.6083   -0.7269    0.1743 C   0  0  0  0  0  0  0  0  0  0  0  0
   -0.5988   -1.2256    1.0099 C   0  0  0  0  0  0  0  0  0  0  0  0
   -0.5199   -2.6077    1.3319 C   0  0  0  0  0  0  0  0  0  0  0  0
    0.2997   -2.9611    1.9753 H   0  0  0  0  0  0  0  0  0  0  0  0
   -1.4602   -3.4876    0.8284 C   0  0  0  0  0  0  0  0  0  0  0  0
   -1.4027   -4.5574    1.0804 H   0  0  0  0  0  0  0  0  0  0  0  0
   -2.5086   -3.0362   -0.0255 C   0  0  0  0  0  0  0  0  0  0  0  0
   -3.4799   -3.9313   -0.5602 C   0  0  0  0  0  0  0  0  0  0  0  0
   -3.4170   -4.9972   -0.2915 H   0  0  0  0  0  0  0  0  0  0  0  0
   -4.4808   -3.4750   -1.4046 C   0  0  0  0  0  0  0  0  0  0  0  0
   -5.2239   -4.1770   -1.8114 H   0  0  0  0  0  0  0  0  0  0  0  0
   -4.5455   -2.0988   -1.7498 C   0  0  0  0  0  0  0  0  0  0  0  0
   -5.3387   -1.7432   -2.4246 H   0  0  0  0  0  0  0  0  0  0  0  0
   -3.6188   -1.1987   -1.2440 C   0  0  0  0  0  0  0  0  0  0  0  0
   -3.6755   -0.1341   -1.5130 H   0  0  0  0  0  0  0  0  0  0  0  0
   -2.5802   -1.6345   -0.3671 C   0  0  0  0  0  0  0  0  0  0  0  0
  1  8  1  0  0  0  0
  2  1  1  0  0  0  0
  3  1  1  0  0  0  0
  4  6  1  0  0  0  0
  4  5  1  0  0  0  0
  7 23  1  0  0  0  0
  7 22  1  0  0  0  0
  8  7  2  0  0  0  0
  9  8  1  0  0  0  0
  9 11  2  0  0  0  0
 10  9  1  0  0  0  0
 11 13  1  0  0  0  0
 12 11  1  0  0  0  0
 13 22  2  0  0  0  0
 13 14  1  0  0  0  0
 14 16  2  0  0  0  0
 15 14  1  0  0  0  0
 16 18  1  0  0  0  0
 16 17  1  0  0  0  0
 18 19  1  0  0  0  0
 20 21  1  0  0  0  0
 20 18  2  0  0  0  0
 22 20  1  0  0  0  0
 23 24  1  0  0  0  0
 24 25  2  0  0  0  0
 24  4  1  0  0  0  0
 25 26  1  0  0  0  0
 27 28  1  0  0  0  0
 27 25  1  0  0  0  0
 29 27  2  0  0  0  0
 30 31  1  0  0  0  0
 30 29  1  0  0  0  0
 32 30  2  0  0  0  0
 33 32  1  0  0  0  0
 34 32  1  0  0  0  0
 34 36  2  0  0  0  0
 35 34  1  0  0  0  0
 36 38  1  0  0  0  0
 37 36  1  0  0  0  0
 38 29  1  0  0  0  0
 38 23  2  0  0  0  0
M  END
