4,5
q = -1.0

 33 36  0  0  0  0  0  0  0  0999 V2000
    2.0609    3.6228   -1.7517 P   0  0  0  0  0  0  0  0  0  0  0  0
    0.9408   -3.0712   -2.6845 P   0  0  0  0  0  0  0  0  0  0  0  0
    5.4487   -1.2494    1.5035 P   0  0  0  0  0  0  0  0  0  0  0  0
    0.3951    1.7313   -0.9671 N   0  0  0  0  0  2  0  0  0  0  0  0
   -0.0747   -1.0333   -1.3717 N   0  0  0  0  0  2  0  0  0  0  0  0
    1.6322    1.3205   -0.5934 N   0  0  0  0  0  0  0  0  0  0  0  0
    1.2003   -1.1512   -0.9255 N   0  0  0  0  0  0  0  0  0  0  0  0
    3.2389   -0.4189    0.3940 N   0  0  0  0  0  0  0  0  0  0  0  0
    2.6154    2.1884   -0.9124 C   0  0  0  0  0  3  0  0  0  0  0  0
    3.6448    1.8974   -0.6725 H   0  0  0  0  0  0  0  0  0  0  0  0
    1.8705   -2.1711   -1.5018 C   0  0  0  0  0  3  0  0  0  0  0  0
    2.9181   -2.3199   -1.2156 H   0  0  0  0  0  0  0  0  0  0  0  0
    0.9114   -0.0876    1.4969 C   0  0  0  0  0  0  0  0  0  0  0  0
    0.4505    2.9069   -1.6035 C   0  0  0  0  0  0  0  0  0  0  0  0
   -0.4877    3.3214   -1.9932 H   0  0  0  0  0  0  0  0  0  0  0  0
   -0.3244   -0.1084    4.0579 C   0  0  0  0  0  0  0  0  0  0  0  0
   -0.8012   -0.1182    5.0501 H   0  0  0  0  0  0  0  0  0  0  0  0
    4.1339   -0.3453   -0.6247 N   0  0  0  0  0  0  0  0  0  0  0  0
    1.0131    1.0210    2.3693 C   0  0  0  0  0  0  0  0  0  0  0  0
    1.5883    1.9062    2.0513 H   0  0  0  0  0  0  0  0  0  0  0  0
    0.1790   -1.2076    1.9471 C   0  0  0  0  0  0  0  0  0  0  0  0
    0.0908   -2.0929    1.2985 H   0  0  0  0  0  0  0  0  0  0  0  0
    3.7473   -0.8734    1.5749 C   0  0  0  0  0  0  0  0  0  0  0  0
    3.0669   -0.9591    2.4313 H   0  0  0  0  0  0  0  0  0  0  0  0
    5.3315   -0.7401   -0.2032 C   0  0  0  0  0  0  0  0  0  0  0  0
    6.1556   -0.7222   -0.9336 H   0  0  0  0  0  0  0  0  0  0  0  0
   -0.3703   -1.9493   -2.3024 C   0  0  0  0  0  0  0  0  0  0  0  0
   -1.3855   -1.9316   -2.7199 H   0  0  0  0  0  0  0  0  0  0  0  0
   -0.4420   -1.2189    3.2061 C   0  0  0  0  0  0  0  0  0  0  0  0
   -1.0175   -2.1016    3.5245 H   0  0  0  0  0  0  0  0  0  0  0  0
    0.4112    1.0126    3.6376 C   0  0  0  0  0  0  0  0  0  0  0  0
    0.5157    1.8844    4.3024 H   0  0  0  0  0  0  0  0  0  0  0  0
    1.7499   -0.0889    0.1180 B   0  0  1  0  0  0  0  0  0  0  0  0
  1 14  2  0  0  0  0
  1  9  1  0  0  0  0
  2 27  2  0  0  0  0
  2 11  1  0  0  0  0
  3 23  2  0  0  0  0
  4  6  1  0  0  0  0
  5  7  1  0  0  0  0
  6 33  1  0  0  0  0
  7 33  1  0  0  0  0
  8 23  1  0  0  0  0
  9 10  1  0  0  0  0
  9  6  1  0  0  0  0
 11 12  1  0  0  0  0
 11  7  1  0  0  0  0
 13 21  2  0  0  0  0
 13 19  1  0  0  0  0
 14  4  1  0  0  0  0
 15 14  1  0  0  0  0
 16 17  1  0  0  0  0
 18 25  2  0  0  0  0
 18  8  1  0  0  0  0
 19 31  2  0  0  0  0
 20 19  1  0  0  0  0
 21 29  1  0  0  0  0
 22 21  1  0  0  0  0
 23 24  1  0  0  0  0
 25  3  1  0  0  0  0
 26 25  1  0  0  0  0
 27  5  1  0  0  0  0
 28 27  1  0  0  0  0
 29 30  1  0  0  0  0
 29 16  2  0  0  0  0
 31 16  1  0  0  0  0
 31 32  1  0  0  0  0
 33  8  1  0  0  0  0
 33 13  1  1  0  0  0
M  END
