1,2
q = 0.0, confidence = 0.994

 52 54  0  0  0  0  0  0  0  0999 V2000
   -1.3375    0.6922   -0.4239 N   0  0  0  0  0  2  0  0  0  0  0  0
    1.3376    0.6923   -0.4240 N   0  0  0  0  0  2  0  0  0  0  0  0
   -2.6808    0.6171   -0.4319 C   0  0  0  0  0  0  0  0  0  0  0  0
   -3.4642    1.7855   -0.2166 C   0  0  0  0  0  0  0  0  0  0  0  0
   -2.8508    3.0121    0.0142 C   0  0  0  0  0  0  0  0  0  0  0  0
   -1.4327    3.0966    0.0334 C   0  0  0  0  0  0  0  0  0  0  0  0
   -0.7227    1.8838   -0.1964 C   0  0  0  0  0  0  0  0  0  0  0  0
   -0.6888    4.3064    0.2622 C   0  0  0  0  0  0  0  0  0  0  0  0
    0.6889    4.3063    0.2623 C   0  0  0  0  0  0  0  0  0  0  0  0
    1.4328    3.0966    0.0337 C   0  0  0  0  0  0  0  0  0  0  0  0
    0.7228    1.8838   -0.1963 C   0  0  0  0  0  0  0  0  0  0  0  0
    2.8509    3.0120    0.0148 C   0  0  0  0  0  0  0  0  0  0  0  0
    3.4643    1.7854   -0.2160 C   0  0  0  0  0  0  0  0  0  0  0  0
    2.6809    0.6171   -0.4317 C   0  0  0  0  0  0  0  0  0  0  0  0
   -3.2751   -0.7414   -0.6613 C   0  0  0  0  0  0  0  0  0  0  0  0
   -3.6181   -1.5629    0.6272 C   0  0  0  0  0  0  0  0  0  0  0  0
   -4.8087   -0.9313    1.3677 C   0  0  0  0  0  0  0  0  0  0  0  0
   -2.4025   -1.6437    1.5668 C   0  0  0  0  0  0  0  0  0  0  0  0
   -3.9798   -2.9839    0.1575 C   0  0  0  0  0  0  0  0  0  0  0  0
    3.2753   -0.7413   -0.6613 C   0  0  0  0  0  0  0  0  0  0  0  0
    3.6180   -1.5632    0.6270 C   0  0  0  0  0  0  0  0  0  0  0  0
    2.4022   -1.6441    1.5664 C   0  0  0  0  0  0  0  0  0  0  0  0
    4.8086   -0.9321    1.3678 C   0  0  0  0  0  0  0  0  0  0  0  0
    3.9795   -2.9841    0.1570 C   0  0  0  0  0  0  0  0  0  0  0  0
   -4.5601    1.7044   -0.2431 H   0  0  0  0  0  0  0  0  0  0  0  0
   -3.4523    3.9195    0.1786 H   0  0  0  0  0  0  0  0  0  0  0  0
   -1.2451    5.2395    0.4400 H   0  0  0  0  0  0  0  0  0  0  0  0
    1.2452    5.2395    0.4403 H   0  0  0  0  0  0  0  0  0  0  0  0
    3.4523    3.9195    0.1794 H   0  0  0  0  0  0  0  0  0  0  0  0
    4.5602    1.7043   -0.2423 H   0  0  0  0  0  0  0  0  0  0  0  0
   -2.5296   -1.3271   -1.2407 H   0  0  0  0  0  0  0  0  0  0  0  0
   -4.2004   -0.6479   -1.2680 H   0  0  0  0  0  0  0  0  0  0  0  0
   -4.5701    0.0874    1.7375 H   0  0  0  0  0  0  0  0  0  0  0  0
   -5.7034   -0.8603    0.7136 H   0  0  0  0  0  0  0  0  0  0  0  0
   -5.0855   -1.5444    2.2499 H   0  0  0  0  0  0  0  0  0  0  0  0
   -1.5311   -2.0892    1.0428 H   0  0  0  0  0  0  0  0  0  0  0  0
   -2.1080   -0.6456    1.9511 H   0  0  0  0  0  0  0  0  0  0  0  0
   -2.6410   -2.2820    2.4426 H   0  0  0  0  0  0  0  0  0  0  0  0
   -3.1117   -3.4538   -0.3485 H   0  0  0  0  0  0  0  0  0  0  0  0
   -4.2640   -3.6203    1.0208 H   0  0  0  0  0  0  0  0  0  0  0  0
   -4.8342   -2.9709   -0.5510 H   0  0  0  0  0  0  0  0  0  0  0  0
    4.2007   -0.6477   -1.2679 H   0  0  0  0  0  0  0  0  0  0  0  0
    2.5298   -1.3267   -1.2411 H   0  0  0  0  0  0  0  0  0  0  0  0
    1.5308   -2.0893    1.0422 H   0  0  0  0  0  0  0  0  0  0  0  0
    2.6405   -2.2826    2.4421 H   0  0  0  0  0  0  0  0  0  0  0  0
    2.1077   -0.6460    1.9508 H   0  0  0  0  0  0  0  0  0  0  0  0
    5.0852   -1.5454    2.2499 H   0  0  0  0  0  0  0  0  0  0  0  0
    5.7034   -0.8610    0.7139 H   0  0  0  0  0  0  0  0  0  0  0  0
    4.5700    0.0866    1.7379 H   0  0  0  0  0  0  0  0  0  0  0  0
    3.1114   -3.4538   -0.3493 H   0  0  0  0  0  0  0  0  0  0  0  0
    4.8340   -2.9711   -0.5514 H   0  0  0  0  0  0  0  0  0  0  0  0
    4.2634   -3.6208    1.0201 H   0  0  0  0  0  0  0  0  0  0  0  0
  1  7  1  0  0  0  0
  2 11  1  0  0  0  0
  3  1  1  0  0  0  0
  3  4  2  0  0  0  0
  4  5  1  0  0  0  0
  5  6  2  0  0  0  0
  5 26  1  0  0  0  0
  6  8  1  0  0  0  0
  7 11  2  0  0  0  0
  7  6  1  0  0  0  0
  8  9  2  0  0  0  0
  8 27  1  0  0  0  0
  9 28  1  0  0  0  0
 10  9  1  0  0  0  0
 11 10  1  0  0  0  0
 12 10  2  0  0  0  0
 12 29  1  0  0  0  0
 13 12  1  0  0  0  0
 14  2  1  0  0  0  0
 14 13  2  0  0  0  0
 15  3  1  0  0  0  0
 15 16  1  0  0  0  0
 16 17  1  0  0  0  0
 16 18  1  0  0  0  0
 17 33  1  0  0  0  0
 17 35  1  0  0  0  0
 18 37  1  0  0  0  0
 18 38  1  0  0  0  0
 19 16  1  0  0  0  0
 19 40  1  0  0  0  0
 20 14  1  0  0  0  0
 20 21  1  0  0  0  0
 21 23  1  0  0  0  0
 21 22  1  0  0  0  0
 22 46  1  0  0  0  0
 22 45  1  0  0  0  0
 23 49  1  0  0  0  0
 23 47  1  0  0  0  0
 24 21  1  0  0  0  0
 24 52  1  0  0  0  0
 25  4  1  0  0  0  0
 30 13  1  0  0  0  0
 31 15  1  0  0  0  0
 32 15  1  0  0  0  0
 34 17  1  0  0  0  0
 36 18  1  0  0  0  0
 39 19  1  0  0  0  0
 41 19  1  0  0  0  0
 42 20  1  0  0  0  0
 43 20  1  0  0  0  0
 44 22  1  0  0  0  0
 48 23  1  0  0  0  0
 50 24  1  0  0  0  0
 51 24  1  0  0  0  0
M  END
