2,3
q = 0.0, confidence = 1.0

 18 18  0  0  1  0  0  0  0  0999 V2000
   -3.4981    1.7196    2.3015 N   0  0  0  0  0  0  0  0  0  0  0  0
   -1.3954    0.7481    0.7361 N   0  0  0  0  0  2  0  0  0  0  0  0
   -1.5152   -1.5729   -0.5098 N   0  0  0  0  0  2  0  0  0  0  0  0
   -1.3677   -2.6965   -1.1859 N   0  0  0  0  0  0  0  0  0  0  0  0
   -2.1923   -3.2515   -1.4454 H   0  0  0  0  0  0  0  0  0  0  0  0
   -0.5245   -2.6416   -1.8109 H   0  0  0  0  0  0  0  0  0  0  0  0
   -2.3767    2.4332    2.1114 C   0  0  0  0  0  0  0  0  0  0  0  0
   -2.3106    3.4216    2.5974 H   0  0  0  0  0  0  0  0  0  0  0  0
   -1.3244    1.9457    1.3194 C   0  0  0  0  0  3  0  0  0  0  0  0
   -0.4119    2.5360    1.1329 H   0  0  0  0  0  0  0  0  0  0  0  0
   -2.5208    0.0090    0.8988 C   0  0  0  0  0  0  0  0  0  0  0  0
   -3.5707    0.5291    1.6983 C   0  0  0  0  0  0  0  0  0  0  0  0
   -4.5020   -0.0422    1.8499 H   0  0  0  0  0  0  0  0  0  0  0  0
   -2.5750   -1.2868    0.2070 C   0  0  1  0  0  3  0  0  0  0  0  0
   -3.7424   -2.2267    0.2857 C   0  0  0  0  0  0  0  0  0  0  0  0
   -3.3988   -3.2461    0.5681 H   0  0  0  0  0  0  0  0  0  0  0  0
   -4.2532   -2.3149   -0.6995 H   0  0  0  0  0  0  0  0  0  0  0  0
   -4.5022   -1.9139    1.0218 H   0  0  0  0  0  0  0  0  0  0  0  0
  2 11  1  0  0  0  0
  2  9  1  0  0  0  0
  4  3  1  0  0  0  0
  5  4  1  0  0  0  0
  6  4  1  0  0  0  0
  7  1  2  0  0  0  0
  7  8  1  0  0  0  0
  9  7  1  0  0  0  0
 10  9  1  0  0  0  0
 11 12  2  0  0  0  0
 12 13  1  0  0  0  0
 12  1  1  0  0  0  0
 14  3  1  6  0  0  0
 14 15  1  0  0  0  0
 14 11  1  0  0  0  0
 15 16  1  0  0  0  0
 15 18  1  0  0  0  0
 17 15  1  0  0  0  0
M  END
