2,3
q = 0.0, confidence = 0.994

 37 39  0  0  1  0  0  0  0  0999 V2000
    0.9504   -2.1024   -0.4211 O   0  0  0  0  0  0  0  0  0  0  0  0
   -2.4507    0.5860   -0.2770 N   0  0  0  0  0  2  0  0  0  0  0  0
    0.1394    0.4269   -0.5566 N   0  0  0  0  0  2  0  0  0  0  0  0
    1.4383    0.1367   -0.5384 N   0  0  0  0  0  0  0  0  0  0  0  0
    2.1920    0.8411   -0.4538 H   0  0  0  0  0  0  0  0  0  0  0  0
    4.0404   -0.3162   -0.3766 N   0  0  0  0  0  0  0  0  0  0  0  0
   -3.7869    0.5732   -0.2393 C   0  0  0  0  0  3  0  0  0  0  0  0
   -4.2452   -0.4283   -0.1613 H   0  0  0  0  0  0  0  0  0  0  0  0
   -4.5442    1.7544   -0.3089 C   0  0  0  0  0  0  0  0  0  0  0  0
   -5.6418    1.7087   -0.2678 H   0  0  0  0  0  0  0  0  0  0  0  0
   -3.8682    2.9769   -0.4325 C   0  0  0  0  0  0  0  0  0  0  0  0
   -4.4281    3.9221   -0.4935 H   0  0  0  0  0  0  0  0  0  0  0  0
   -2.4673    2.9848   -0.4885 C   0  0  0  0  0  0  0  0  0  0  0  0
   -1.9045    3.9220   -0.6019 H   0  0  0  0  0  0  0  0  0  0  0  0
   -1.7839    1.7562   -0.4073 C   0  0  0  0  0  0  0  0  0  0  0  0
   -0.3109    1.6488   -0.4725 C   0  0  1  0  0  3  0  0  0  0  0  0
    0.5708    2.8374   -0.3453 C   0  0  0  0  0  0  0  0  0  0  0  0
    1.4457    3.2125   -1.3879 C   0  0  0  0  0  0  0  0  0  0  0  0
    1.4410    2.6479   -2.3331 H   0  0  0  0  0  0  0  0  0  0  0  0
    2.3021    4.3117   -1.2262 C   0  0  0  0  0  0  0  0  0  0  0  0
    2.9754    4.6042   -2.0458 H   0  0  0  0  0  0  0  0  0  0  0  0
    2.2961    5.0384   -0.0251 C   0  0  0  0  0  0  0  0  0  0  0  0
    2.9693    5.8998    0.0998 H   0  0  0  0  0  0  0  0  0  0  0  0
    1.4334    4.6641    1.0184 C   0  0  0  0  0  0  0  0  0  0  0  0
    1.4352    5.2257    1.9647 H   0  0  0  0  0  0  0  0  0  0  0  0
    0.5728    3.5689    0.8629 C   0  0  0  0  0  0  0  0  0  0  0  0
   -0.0903    3.2527    1.6826 H   0  0  0  0  0  0  0  0  0  0  0  0
    1.7864   -1.1989   -0.4377 C   0  0  0  0  0  0  0  0  0  0  0  0
    3.2633   -1.4171   -0.3431 C   0  0  0  0  0  0  0  0  0  0  0  0
    3.7631   -2.7238   -0.2144 C   0  0  0  0  0  0  0  0  0  0  0  0
    3.0574   -3.5662   -0.1896 H   0  0  0  0  0  0  0  0  0  0  0  0
    5.1510   -2.8864   -0.1176 C   0  0  0  0  0  0  0  0  0  0  0  0
    5.5902   -3.8899   -0.0136 H   0  0  0  0  0  0  0  0  0  0  0  0
    5.9692   -1.7472   -0.1521 C   0  0  0  0  0  0  0  0  0  0  0  0
    7.0634   -1.8300   -0.0768 H   0  0  0  0  0  0  0  0  0  0  0  0
    5.3654   -0.4834   -0.2823 C   0  0  0  0  0  0  0  0  0  0  0  0
    5.9812    0.4321   -0.3091 H   0  0  0  0  0  0  0  0  0  0  0  0
  2  7  1  0  0  0  0
  3  4  1  0  0  0  0
  4  5  1  0  0  0  0
  4 28  1  0  0  0  0
  6 29  2  0  0  0  0
  6 36  1  0  0  0  0
  7  8  1  0  0  0  0
  9 10  1  0  0  0  0
  9  7  1  0  0  0  0
 11  9  2  0  0  0  0
 12 11  1  0  0  0  0
 13 11  1  0  0  0  0
 13 15  2  0  0  0  0
 14 13  1  0  0  0  0
 15  2  1  0  0  0  0
 16  3  1  1  0  0  0
 16 15  1  0  0  0  0
 16 17  1  0  0  0  0
 17 26  1  0  0  0  0
 18 20  1  0  0  0  0
 18 17  2  0  0  0  0
 19 18  1  0  0  0  0
 20 22  2  0  0  0  0
 21 20  1  0  0  0  0
 22 23  1  0  0  0  0
 22 24  1  0  0  0  0
 24 25  1  0  0  0  0
 26 24  2  0  0  0  0
 26 27  1  0  0  0  0
 28  1  2  0  0  0  0
 28 29  1  0  0  0  0
 29 30  1  0  0  0  0
 30 31  1  0  0  0  0
 30 32  2  0  0  0  0
 32 33  1  0  0  0  0
 34 32  1  0  0  0  0
 34 35  1  0  0  0  0
 36 34  2  0  0  0  0
 37 36  1  0  0  0  0
M  END
