1,2
q = 0.0, confidence = 1.0

 62 64  0  0  1  0  0  0  0  0999 V2000
   -0.0753    0.4049   -0.0411 N   0  0  0  0  0  2  0  0  0  0  0  0
    2.0171   -1.0832    1.4412 N   0  0  0  0  0  0  0  0  0  0  0  0
    2.8809   -1.6362    1.2607 H   0  0  0  0  0  0  0  0  0  0  0  0
   -1.1394   -0.5640    0.7338 P   0  0  0  0  0  4  0  0  0  0  0  0
   -0.3356   -1.2496    2.2501 C   0  0  0  0  0  0  0  0  0  0  0  0
   -0.2617   -0.3810    2.9352 H   0  0  0  0  0  0  0  0  0  0  0  0
   -1.0675   -1.9439    2.7101 H   0  0  0  0  0  0  0  0  0  0  0  0
    1.0215   -1.9590    2.1059 C   0  0  1  0  0  0  0  0  0  0  0  0
    1.3786   -2.1385    3.1500 H   0  0  0  0  0  0  0  0  0  0  0  0
    0.9311   -3.3074    1.3921 C   0  0  0  0  0  0  0  0  0  0  0  0
    0.5450   -3.1913    0.3606 H   0  0  0  0  0  0  0  0  0  0  0  0
    0.2627   -3.9904    1.9525 H   0  0  0  0  0  0  0  0  0  0  0  0
    1.9320   -3.7743    1.3128 H   0  0  0  0  0  0  0  0  0  0  0  0
    2.3556    0.1562    2.1709 C   0  0  0  0  0  0  0  0  0  0  0  0
    2.5374   -0.0824    3.2464 H   0  0  0  0  0  0  0  0  0  0  0  0
    1.4747    0.8288    2.1188 H   0  0  0  0  0  0  0  0  0  0  0  0
    3.5651    0.8627    1.5667 C   0  0  0  0  0  0  0  0  0  0  0  0
    3.3887    0.9836    0.4746 H   0  0  0  0  0  0  0  0  0  0  0  0
    4.4624    0.2109    1.6506 H   0  0  0  0  0  0  0  0  0  0  0  0
    3.8352    2.2243    2.2114 C   0  0  0  0  0  0  0  0  0  0  0  0
    3.9878    2.0980    3.3069 H   0  0  0  0  0  0  0  0  0  0  0  0
    2.9273    2.8601    2.1050 H   0  0  0  0  0  0  0  0  0  0  0  0
    5.0385    2.9423    1.5999 C   0  0  0  0  0  0  0  0  0  0  0  0
    5.9664    2.3455    1.7193 H   0  0  0  0  0  0  0  0  0  0  0  0
    5.2103    3.9298    2.0730 H   0  0  0  0  0  0  0  0  0  0  0  0
    4.8937    3.1083    0.5124 H   0  0  0  0  0  0  0  0  0  0  0  0
   -0.4205    1.5925   -0.7268 C   0  0  0  0  0  0  0  0  0  0  0  0
   -1.6522    1.7837   -1.3844 C   0  0  0  0  0  0  0  0  0  0  0  0
   -2.3796    0.9596   -1.4301 H   0  0  0  0  0  0  0  0  0  0  0  0
   -1.9536    3.0094   -1.9949 C   0  0  0  0  0  0  0  0  0  0  0  0
   -2.9263    3.1329   -2.4975 H   0  0  0  0  0  0  0  0  0  0  0  0
   -1.0336    4.0739   -2.0011 C   0  0  0  0  0  0  0  0  0  0  0  0
    0.2094    3.8644   -1.3632 C   0  0  0  0  0  0  0  0  0  0  0  0
    0.9581    4.6729   -1.3598 H   0  0  0  0  0  0  0  0  0  0  0  0
    0.5125    2.6541   -0.7360 C   0  0  0  0  0  0  0  0  0  0  0  0
    1.4885    2.4980   -0.2533 H   0  0  0  0  0  0  0  0  0  0  0  0
   -1.3393    5.3796   -2.6909 C   0  0  0  0  0  0  0  0  0  0  0  0
   -1.1033    6.2495   -2.0435 H   0  0  0  0  0  0  0  0  0  0  0  0
   -2.4063    5.4489   -2.9798 H   0  0  0  0  0  0  0  0  0  0  0  0
   -0.7360    5.4969   -3.6166 H   0  0  0  0  0  0  0  0  0  0  0  0
   -2.5185    0.4348    1.4037 C   0  0  0  0  0  0  0  0  0  0  0  0
   -2.1807    1.6280    2.0784 C   0  0  0  0  0  0  0  0  0  0  0  0
   -1.1249    1.9240    2.1775 H   0  0  0  0  0  0  0  0  0  0  0  0
   -3.1906    2.4555    2.5844 C   0  0  0  0  0  0  0  0  0  0  0  0
   -2.9230    3.3891    3.1014 H   0  0  0  0  0  0  0  0  0  0  0  0
   -4.5401    2.1020    2.4173 C   0  0  0  0  0  0  0  0  0  0  0  0
   -5.3324    2.7558    2.8119 H   0  0  0  0  0  0  0  0  0  0  0  0
   -4.8779    0.9223    1.7371 C   0  0  0  0  0  0  0  0  0  0  0  0
   -5.9344    0.6498    1.5945 H   0  0  0  0  0  0  0  0  0  0  0  0
   -3.8712    0.0887    1.2256 C   0  0  0  0  0  0  0  0  0  0  0  0
   -4.1402   -0.8242    0.6745 H   0  0  0  0  0  0  0  0  0  0  0  0
   -1.8567   -1.9540   -0.2036 C   0  0  0  0  0  0  0  0  0  0  0  0
   -2.6173   -2.9522    0.4452 C   0  0  0  0  0  0  0  0  0  0  0  0
   -2.8031   -2.9051    1.5299 H   0  0  0  0  0  0  0  0  0  0  0  0
   -3.1452   -4.0173   -0.2972 C   0  0  0  0  0  0  0  0  0  0  0  0
   -3.7364   -4.7964    0.2073 H   0  0  0  0  0  0  0  0  0  0  0  0
   -2.9107   -4.0919   -1.6813 C   0  0  0  0  0  0  0  0  0  0  0  0
   -3.3177   -4.9349   -2.2603 H   0  0  0  0  0  0  0  0  0  0  0  0
   -2.1508   -3.1013   -2.3214 C   0  0  0  0  0  0  0  0  0  0  0  0
   -1.9485   -3.1650   -3.4009 H   0  0  0  0  0  0  0  0  0  0  0  0
   -1.6197   -2.0267   -1.5908 C   0  0  0  0  0  0  0  0  0  0  0  0
   -0.9741   -1.2817   -2.0928 H   0  0  0  0  0  0  0  0  0  0  0  0
  1  4  1  0  0  0  0
  2  8  1  0  0  0  0
  2 14  1  0  0  0  0
  3  2  1  0  0  0  0
  4 41  1  0  0  0  0
  4  5  1  0  0  0  0
  5  7  1  0  0  0  0
  5  6  1  0  0  0  0
  8  5  1  0  0  0  0
  8  9  1  1  0  0  0
 10 12  1  0  0  0  0
 10  8  1  0  0  0  0
 11 10  1  0  0  0  0
 13 10  1  0  0  0  0
 14 15  1  0  0  0  0
 16 14  1  0  0  0  0
 17 19  1  0  0  0  0
 17 14  1  0  0  0  0
 17 20  1  0  0  0  0
 18 17  1  0  0  0  0
 20 21  1  0  0  0  0
 22 20  1  0  0  0  0
 23 24  1  0  0  0  0
 23 25  1  0  0  0  0
 23 20  1  0  0  0  0
 26 23  1  0  0  0  0
 27  1  1  0  0  0  0
 28 27  2  0  0  0  0
 29 28  1  0  0  0  0
 30 28  1  0  0  0  0
 31 30  1  0  0  0  0
 32 30  2  0  0  0  0
 32 33  1  0  0  0  0
 33 34  1  0  0  0  0
 33 35  2  0  0  0  0
 35 27  1  0  0  0  0
 35 36  1  0  0  0  0
 37 38  1  0  0  0  0
 37 32  1  0  0  0  0
 39 37  1  0  0  0  0
 40 37  1  0  0  0  0
 41 42  1  0  0  0  0
 42 43  1  0  0  0  0
 42 44  2  0  0  0  0
 44 45  1  0  0  0  0
 46 44  1  0  0  0  0
 46 47  1  0  0  0  0
 48 46  2  0  0  0  0
 49 48  1  0  0  0  0
 50 41  2  0  0  0  0
 50 48  1  0  0  0  0
 51 50  1  0  0  0  0
 52 53  1  0  0  0  0
 52  4  1  0  0  0  0
 53 54  1  0  0  0  0
 55 56  1  0  0  0  0
 55 53  2  0  0  0  0
 57 55  1  0  0  0  0
 58 57  1  0  0  0  0
 59 57  2  0  0  0  0
 59 61  1  0  0  0  0
 60 59  1  0  0  0  0
 61 52  2  0  0  0  0
 62 61  1  0  0  0  0
M  END
