3,4
q = 0.0, confidence = 1.0

 29 30  0  0  1  0  0  0  0  0999 V2000
    1.8728   -1.9151   -0.2172 O   0  0  0  0  0  0  0  0  0  0  0  0
    3.4221   -2.4711   -1.7905 O   0  0  0  0  0  0  0  0  0  0  0  0
   -2.3759    1.2837   -0.1949 N   0  0  0  0  0  2  0  0  0  0  0  0
   -0.4617   -0.0755   -1.5549 N   0  0  0  0  0  2  0  0  0  0  0  0
   -0.7050   -1.6530   -3.0252 N   0  0  0  0  0  0  0  0  0  0  0  0
   -1.9677   -1.3272   -2.6878 N   0  0  0  0  0  0  0  0  0  0  0  0
   -3.2469    2.0474    0.4885 C   0  0  0  0  0  3  0  0  0  0  0  0
   -4.6333    1.8982    0.3420 C   0  0  0  0  0  0  0  0  0  0  0  0
   -5.1186    0.9288   -0.5503 C   0  0  0  0  0  0  0  0  0  0  0  0
   -4.2106    0.1484   -1.2784 C   0  0  0  0  0  0  0  0  0  0  0  0
   -2.8387    0.3618   -1.0707 C   0  0  0  0  0  0  0  0  0  0  0  0
   -1.7841   -0.3670   -1.7835 C   0  0  0  0  0  0  0  0  0  0  0  0
    0.2116   -0.9042   -2.3531 C   0  0  2  0  0  3  0  0  0  0  0  0
    1.6867   -1.0424   -2.4876 C   0  0  0  0  0  0  0  0  0  0  0  0
    2.3145   -1.8601   -1.3502 C   0  0  0  0  0  0  0  0  0  0  0  0
    4.1886   -3.2367   -0.8155 C   0  0  0  0  0  0  0  0  0  0  0  0
    5.1680   -2.3481   -0.0718 C   0  0  0  0  0  0  0  0  0  0  0  0
   -0.5365   -2.3720   -3.7347 H   0  0  0  0  0  0  0  0  0  0  0  0
   -2.7968    2.8000    1.1565 H   0  0  0  0  0  0  0  0  0  0  0  0
   -5.3173    2.5377    0.9174 H   0  0  0  0  0  0  0  0  0  0  0  0
   -6.2011    0.7879   -0.6859 H   0  0  0  0  0  0  0  0  0  0  0  0
   -4.5432   -0.6086   -2.0019 H   0  0  0  0  0  0  0  0  0  0  0  0
    1.9676   -1.4837   -3.4623 H   0  0  0  0  0  0  0  0  0  0  0  0
    2.1433   -0.0318   -2.4478 H   0  0  0  0  0  0  0  0  0  0  0  0
    4.7061   -4.0046   -1.4204 H   0  0  0  0  0  0  0  0  0  0  0  0
    3.4777   -3.7305   -0.1237 H   0  0  0  0  0  0  0  0  0  0  0  0
    5.7913   -2.9645    0.6061 H   0  0  0  0  0  0  0  0  0  0  0  0
    5.8435   -1.8209   -0.7739 H   0  0  0  0  0  0  0  0  0  0  0  0
    4.6324   -1.5953    0.5394 H   0  0  0  0  0  0  0  0  0  0  0  0
  2 15  1  0  0  0  0
  2 16  1  0  0  0  0
  3  7  1  0  0  0  0
  5  6  1  0  0  0  0
  5 13  1  0  0  0  0
  6 12  2  0  0  0  0
  7 19  1  0  0  0  0
  8  7  1  0  0  0  0
  8 20  1  0  0  0  0
  9  8  2  0  0  0  0
 10 11  2  0  0  0  0
 10  9  1  0  0  0  0
 11  3  1  0  0  0  0
 12  4  1  0  0  0  0
 12 11  1  0  0  0  0
 13 14  1  1  0  0  0
 13  4  1  0  0  0  0
 14 24  1  0  0  0  0
 14 15  1  0  0  0  0
 15  1  2  0  0  0  0
 16 26  1  0  0  0  0
 16 17  1  0  0  0  0
 17 29  1  0  0  0  0
 17 27  1  0  0  0  0
 18  5  1  0  0  0  0
 21  9  1  0  0  0  0
 22 10  1  0  0  0  0
 23 14  1  0  0  0  0
 25 16  1  0  0  0  0
 28 17  1  0  0  0  0
M  END
