4,14
q = 0.0, confidence = 0.996

 68 72  0  0  1  0  0  0  0  0999 V2000
   -1.3995   -0.5680    0.2380 P   0  0  0  0  0  4  0  0  0  0  0  0
   -0.3426   -0.1771   -1.1220 C   0  0  0  0  0  0  0  0  0  0  0  0
   -0.0356    1.2275   -1.3351 C   0  0  2  0  0  3  0  0  0  0  0  0
    1.9383   -1.1043   -1.4362 N   0  0  0  0  0  2  0  0  0  0  0  0
    0.5728   -1.2503   -1.5458 C   0  0  0  0  0  0  0  0  0  0  0  0
    0.0592   -2.4852   -2.0075 C   0  0  0  0  0  0  0  0  0  0  0  0
   -1.0299   -2.5974   -2.0945 H   0  0  0  0  0  0  0  0  0  0  0  0
    0.9086   -3.5398   -2.3481 C   0  0  0  0  0  0  0  0  0  0  0  0
    0.4927   -4.4977   -2.6947 H   0  0  0  0  0  0  0  0  0  0  0  0
    2.2946   -3.3437   -2.2609 C   0  0  0  0  0  0  0  0  0  0  0  0
    3.0115   -4.1320   -2.5290 H   0  0  0  0  0  0  0  0  0  0  0  0
    2.7682   -2.1125   -1.8069 C   0  0  0  0  0  0  0  0  0  0  0  0
    3.8382   -1.9106   -1.6580 H   0  0  0  0  0  0  0  0  0  0  0  0
    1.2198    1.6225   -1.3856 N   0  0  0  0  0  2  0  0  0  0  0  0
    1.3886    2.6141   -1.5983 H   0  0  0  0  0  0  0  0  0  0  0  0
   -1.1080    2.2534   -1.4092 C   0  0  0  0  0  0  0  0  0  0  0  0
   -0.8945    3.5299   -0.8372 C   0  0  0  0  0  0  0  0  0  0  0  0
    0.0624    3.7399   -0.3342 H   0  0  0  0  0  0  0  0  0  0  0  0
   -1.9120    4.4905   -0.8498 C   0  0  0  0  0  0  0  0  0  0  0  0
   -1.7394    5.4722   -0.3832 H   0  0  0  0  0  0  0  0  0  0  0  0
   -3.1568    4.1959   -1.4324 C   0  0  0  0  0  0  0  0  0  0  0  0
   -3.9581    4.9505   -1.4335 H   0  0  0  0  0  0  0  0  0  0  0  0
   -3.3745    2.9357   -2.0122 C   0  0  0  0  0  0  0  0  0  0  0  0
   -4.3425    2.7028   -2.4816 H   0  0  0  0  0  0  0  0  0  0  0  0
   -2.3568    1.9723   -2.0020 C   0  0  0  0  0  0  0  0  0  0  0  0
   -2.5135    0.9906   -2.4673 H   0  0  0  0  0  0  0  0  0  0  0  0
   -0.6300   -1.9614    1.1407 C   0  0  0  0  0  0  0  0  0  0  0  0
    0.7459   -1.8648    1.4474 C   0  0  0  0  0  0  0  0  0  0  0  0
    1.3405   -0.9810    1.1614 H   0  0  0  0  0  0  0  0  0  0  0  0
    1.4095   -2.9308    2.0570 C   0  0  0  0  0  0  0  0  0  0  0  0
    2.4905   -2.8254    2.2407 H   0  0  0  0  0  0  0  0  0  0  0  0
    0.7253   -4.1197    2.3924 C   0  0  0  0  0  0  0  0  0  0  0  0
   -0.6470   -4.2036    2.0832 C   0  0  0  0  0  0  0  0  0  0  0  0
   -1.1989   -5.1262    2.3226 H   0  0  0  0  0  0  0  0  0  0  0  0
   -1.3226   -3.1451    1.4569 C   0  0  0  0  0  0  0  0  0  0  0  0
   -2.3855   -3.2580    1.1999 H   0  0  0  0  0  0  0  0  0  0  0  0
    1.4544   -5.2608    3.0510 C   0  0  0  0  0  0  0  0  0  0  0  0
    2.3542   -5.5472    2.4688 H   0  0  0  0  0  0  0  0  0  0  0  0
    0.8116   -6.1554    3.1596 H   0  0  0  0  0  0  0  0  0  0  0  0
    1.8112   -4.9716    4.0618 H   0  0  0  0  0  0  0  0  0  0  0  0
   -3.1178   -1.0852   -0.1186 C   0  0  0  0  0  0  0  0  0  0  0  0
   -3.5113   -1.3255   -1.4463 C   0  0  0  0  0  0  0  0  0  0  0  0
   -2.7841   -1.1656   -2.2583 H   0  0  0  0  0  0  0  0  0  0  0  0
   -4.8131   -1.7605   -1.7325 C   0  0  0  0  0  0  0  0  0  0  0  0
   -5.1056   -1.9448   -2.7781 H   0  0  0  0  0  0  0  0  0  0  0  0
   -5.7546   -1.9654   -0.7046 C   0  0  0  0  0  0  0  0  0  0  0  0
   -5.3460   -1.7293    0.6271 C   0  0  0  0  0  0  0  0  0  0  0  0
   -6.0623   -1.8896    1.4485 H   0  0  0  0  0  0  0  0  0  0  0  0
   -4.0479   -1.2984    0.9229 C   0  0  0  0  0  0  0  0  0  0  0  0
   -3.7543   -1.1295    1.9703 H   0  0  0  0  0  0  0  0  0  0  0  0
   -7.1616   -2.4104   -1.0066 C   0  0  0  0  0  0  0  0  0  0  0  0
   -7.2770   -2.7187   -2.0632 H   0  0  0  0  0  0  0  0  0  0  0  0
   -7.8856   -1.5904   -0.8141 H   0  0  0  0  0  0  0  0  0  0  0  0
   -7.4634   -3.2607   -0.3620 H   0  0  0  0  0  0  0  0  0  0  0  0
   -1.4736    0.9021    1.3189 C   0  0  0  0  0  0  0  0  0  0  0  0
   -2.6616    1.6143    1.5655 C   0  0  0  0  0  0  0  0  0  0  0  0
   -3.6209    1.2587    1.1643 H   0  0  0  0  0  0  0  0  0  0  0  0
   -2.6172    2.8161    2.2864 C   0  0  0  0  0  0  0  0  0  0  0  0
   -3.5515    3.3719    2.4619 H   0  0  0  0  0  0  0  0  0  0  0  0
   -1.3996    3.3434    2.7598 C   0  0  0  0  0  0  0  0  0  0  0  0
   -0.2143    2.6244    2.4913 C   0  0  0  0  0  0  0  0  0  0  0  0
    0.7647    3.0238    2.7994 H   0  0  0  0  0  0  0  0  0  0  0  0
   -0.2440    1.4206    1.7844 C   0  0  0  0  0  0  0  0  0  0  0  0
    0.7125    0.9344    1.5375 H   0  0  0  0  0  0  0  0  0  0  0  0
   -1.3463    4.6544    3.4985 C   0  0  0  0  0  0  0  0  0  0  0  0
   -0.7135    5.3880    2.9564 H   0  0  0  0  0  0  0  0  0  0  0  0
   -0.8937    4.5297    4.5039 H   0  0  0  0  0  0  0  0  0  0  0  0
   -2.3525    5.0975    3.6266 H   0  0  0  0  0  0  0  0  0  0  0  0
  1 27  1  0  0  0  0
  1 55  1  0  0  0  0
  2  1  1  0  0  0  0
  3 14  1  1  0  0  0
  3  2  1  0  0  0  0
  5  4  1  0  0  0  0
  5  2  2  0  0  0  0
  6  5  1  0  0  0  0
  7  6  1  0  0  0  0
  8 10  1  0  0  0  0
  8  6  2  0  0  0  0
  9  8  1  0  0  0  0
 10 12  2  0  0  0  0
 11 10  1  0  0  0  0
 12 13  1  0  0  0  0
 12  4  1  0  0  0  0
 15 14  1  0  0  0  0
 16  3  1  0  0  0  0
 16 17  1  0  0  0  0
 17 18  1  0  0  0  0
 19 17  2  0  0  0  0
 19 20  1  0  0  0  0
 21 19  1  0  0  0  0
 22 21  1  0  0  0  0
 23 25  1  0  0  0  0
 23 21  2  0  0  0  0
 24 23  1  0  0  0  0
 25 16  2  0  0  0  0
 26 25  1  0  0  0  0
 27 28  2  0  0  0  0
 27 35  1  0  0  0  0
 28 30  1  0  0  0  0
 29 28  1  0  0  0  0
 30 31  1  0  0  0  0
 30 32  2  0  0  0  0
 32 37  1  0  0  0  0
 33 34  1  0  0  0  0
 33 32  1  0  0  0  0
 35 33  2  0  0  0  0
 36 35  1  0  0  0  0
 37 39  1  0  0  0  0
 37 40  1  0  0  0  0
 38 37  1  0  0  0  0
 41  1  1  0  0  0  0
 41 49  1  0  0  0  0
 42 41  2  0  0  0  0
 43 42  1  0  0  0  0
 44 42  1  0  0  0  0
 44 46  2  0  0  0  0
 45 44  1  0  0  0  0
 46 47  1  0  0  0  0
 47 49  2  0  0  0  0
 47 48  1  0  0  0  0
 49 50  1  0  0  0  0
 51 53  1  0  0  0  0
 51 46  1  0  0  0  0
 51 54  1  0  0  0  0
 52 51  1  0  0  0  0
 55 56  2  0  0  0  0
 55 63  1  0  0  0  0
 56 58  1  0  0  0  0
 57 56  1  0  0  0  0
 58 59  1  0  0  0  0
 58 60  2  0  0  0  0
 60 65  1  0  0  0  0
 61 60  1  0  0  0  0
 61 62  1  0  0  0  0
 63 61  2  0  0  0  0
 64 63  1  0  0  0  0
 65 68  1  0  0  0  0
 65 67  1  0  0  0  0
 66 65  1  0  0  0  0
M  END
