4
q = -1.0

 36 37  0  0  0  0  0  0  0  0999 V2000
    1.6358   -1.7364    1.9482 Si  0  0  0  0  0  0  0  0  0  0  0  0
    6.7369    1.0783   -2.0414 Cl  0  0  0  0  0  0  0  0  0  0  0  0
   -0.0799   -2.3774    1.6481 N   0  0  0  0  0  0  0  0  0  0  0  0
    1.6379   -0.6134    0.6297 N   0  0  0  0  0  2  0  0  0  0  0  0
    2.8345   -0.2199    0.0307 C   0  0  0  0  0  0  0  0  0  0  0  0
    1.7666   -1.0197    3.6866 C   0  0  0  0  0  0  0  0  0  0  0  0
    2.8236   -0.7051    3.8164 H   0  0  0  0  0  0  0  0  0  0  0  0
    1.5428   -1.7546    4.4850 H   0  0  0  0  0  0  0  0  0  0  0  0
    1.1359   -0.1225    3.8337 H   0  0  0  0  0  0  0  0  0  0  0  0
   -1.2635   -2.1503    2.3657 C   0  0  0  0  0  0  0  0  0  0  0  0
   -1.8222   -2.9162    0.2853 C   0  0  0  0  0  0  0  0  0  0  0  0
   -2.3918   -3.2613   -0.5858 H   0  0  0  0  0  0  0  0  0  0  0  0
    5.2026    0.4832    0.1455 C   0  0  0  0  0  0  0  0  0  0  0  0
    6.0950    0.7220    0.7417 H   0  0  0  0  0  0  0  0  0  0  0  0
    2.8651   -3.1572    1.8372 C   0  0  0  0  0  0  0  0  0  0  0  0
    2.5918   -3.9590    2.5536 H   0  0  0  0  0  0  0  0  0  0  0  0
    3.8746   -2.7884    2.1103 H   0  0  0  0  0  0  0  0  0  0  0  0
    2.9306   -3.5935    0.8239 H   0  0  0  0  0  0  0  0  0  0  0  0
   -0.4286   -2.8719    0.3649 C   0  0  0  0  0  0  0  0  0  0  0  0
    5.2550    0.5828   -1.2535 C   0  0  0  0  0  0  0  0  0  0  0  0
   -2.3413   -2.4649    1.5336 C   0  0  0  0  0  0  0  0  0  0  0  0
   -3.3951   -2.4055    1.8280 H   0  0  0  0  0  0  0  0  0  0  0  0
    4.0109    0.0943    0.7705 C   0  0  0  0  0  0  0  0  0  0  0  0
    3.9788    0.0530    1.8707 H   0  0  0  0  0  0  0  0  0  0  0  0
    2.9346   -0.1157   -1.3852 C   0  0  0  0  0  0  0  0  0  0  0  0
    2.0475   -0.3626   -1.9862 H   0  0  0  0  0  0  0  0  0  0  0  0
   -1.3289   -1.7262    3.7974 C   0  0  0  0  0  0  0  0  0  0  0  0
   -2.3845   -1.7503    4.1260 H   0  0  0  0  0  0  0  0  0  0  0  0
   -0.9549   -0.6992    3.9695 H   0  0  0  0  0  0  0  0  0  0  0  0
   -0.7542   -2.4100    4.4539 H   0  0  0  0  0  0  0  0  0  0  0  0
    4.1166    0.2829   -2.0199 C   0  0  0  0  0  0  0  0  0  0  0  0
    4.1648    0.3532   -3.1162 H   0  0  0  0  0  0  0  0  0  0  0  0
    0.5486   -3.3964   -0.6430 C   0  0  0  0  0  0  0  0  0  0  0  0
    0.0163   -3.5427   -1.6016 H   0  0  0  0  0  0  0  0  0  0  0  0
    0.9654   -4.3769   -0.3292 H   0  0  0  0  0  0  0  0  0  0  0  0
    1.3943   -2.7045   -0.8197 H   0  0  0  0  0  0  0  0  0  0  0  0
  1  6  1  0  0  0  0
  2 20  1  0  0  0  0
  3  1  1  0  0  0  0
  3 10  1  0  0  0  0
  4  1  1  0  0  0  0
  5  4  1  0  0  0  0
  5 23  1  0  0  0  0
  6  7  1  0  0  0  0
  6  9  1  0  0  0  0
  6  8  1  0  0  0  0
 10 27  1  0  0  0  0
 11 19  2  0  0  0  0
 11 21  1  0  0  0  0
 12 11  1  0  0  0  0
 13 14  1  0  0  0  0
 13 23  2  0  0  0  0
 15  1  1  0  0  0  0
 15 17  1  0  0  0  0
 15 16  1  0  0  0  0
 18 15  1  0  0  0  0
 19  3  1  0  0  0  0
 20 13  1  0  0  0  0
 21 22  1  0  0  0  0
 21 10  2  0  0  0  0
 23 24  1  0  0  0  0
 25  5  2  0  0  0  0
 26 25  1  0  0  0  0
 27 29  1  0  0  0  0
 27 28  1  0  0  0  0
 27 30  1  0  0  0  0
 31 25  1  0  0  0  0
 31 20  2  0  0  0  0
 32 31  1  0  0  0  0
 33 35  1  0  0  0  0
 33 19  1  0  0  0  0
 34 33  1  0  0  0  0
 36 33  1  0  0  0  0
M  END
