2,3
q = 0.0, confidence = 0.986

 29 31  0  0  1  0  0  0  0  0999 V2000
    9.9311   -0.7243   -0.0004 Br  0  0  0  0  0  0  0  0  0  0  0  0
   -0.2468    1.8926   -0.5014 N   0  0  0  0  0  2  0  0  0  0  0  0
    1.7810    0.3277   -0.7714 N   0  0  0  0  0  2  0  0  0  0  0  0
    2.9539   -0.3486   -0.7279 N   0  0  0  0  0  0  0  0  0  0  0  0
    3.3827    1.8271   -0.7004 N   0  0  0  0  0  0  0  0  0  0  0  0
    3.9678    3.0656   -0.4534 N   0  0  0  0  0  0  0  0  0  0  0  0
    3.8969    3.2004    0.5807 H   0  0  0  0  0  0  0  0  0  0  0  0
    4.9597    3.0057   -0.7170 H   0  0  0  0  0  0  0  0  0  0  0  0
   -1.3988    2.5927   -0.5271 C   0  0  0  0  0  3  0  0  0  0  0  0
   -2.3083    2.0246   -0.2761 H   0  0  0  0  0  0  0  0  0  0  0  0
   -1.4304    3.9675   -0.7951 C   0  0  0  0  0  0  0  0  0  0  0  0
   -2.3989    4.4876   -0.7956 H   0  0  0  0  0  0  0  0  0  0  0  0
   -0.2330    4.6575   -1.0394 C   0  0  0  0  0  0  0  0  0  0  0  0
   -0.2344    5.7394   -1.2368 H   0  0  0  0  0  0  0  0  0  0  0  0
    0.9689    3.9407   -1.0273 C   0  0  0  0  0  0  0  0  0  0  0  0
    1.9452    4.4106   -1.2062 H   0  0  0  0  0  0  0  0  0  0  0  0
    0.9189    2.5622   -0.7734 C   0  0  0  0  0  0  0  0  0  0  0  0
    2.0335    1.6435   -0.7965 C   0  0  2  0  0  3  0  0  0  0  0  0
    3.9290    0.5528   -0.6404 C   0  0  0  0  0  0  0  0  0  0  0  0
    5.3599    0.2648   -0.4983 C   0  0  0  0  0  0  0  0  0  0  0  0
    6.1125    0.8760    0.5307 C   0  0  0  0  0  0  0  0  0  0  0  0
    5.6067    1.5300    1.2586 H   0  0  0  0  0  0  0  0  0  0  0  0
    7.4741    0.5845    0.6799 C   0  0  0  0  0  0  0  0  0  0  0  0
    8.0579    1.0478    1.4875 H   0  0  0  0  0  0  0  0  0  0  0  0
    8.0827   -0.3304   -0.1956 C   0  0  0  0  0  0  0  0  0  0  0  0
    7.3427   -0.9687   -1.2058 C   0  0  0  0  0  0  0  0  0  0  0  0
    7.8315   -1.6916   -1.8737 H   0  0  0  0  0  0  0  0  0  0  0  0
    5.9836   -0.6688   -1.3531 C   0  0  0  0  0  0  0  0  0  0  0  0
    5.3905   -1.1581   -2.1393 H   0  0  0  0  0  0  0  0  0  0  0  0
  3  4  1  0  0  0  0
  4 19  2  0  0  0  0
  5 19  1  0  0  0  0
  5  6  1  0  0  0  0
  6  7  1  0  0  0  0
  8  6  1  0  0  0  0
  9  2  1  0  0  0  0
  9 10  1  0  0  0  0
 11  9  1  0  0  0  0
 12 11  1  0  0  0  0
 13 15  1  0  0  0  0
 13 11  2  0  0  0  0
 14 13  1  0  0  0  0
 15 17  2  0  0  0  0
 16 15  1  0  0  0  0
 17  2  1  0  0  0  0
 18 17  1  1  0  0  0
 18  3  1  0  0  0  0
 18  5  1  0  0  0  0
 19 20  1  0  0  0  0
 20 21  1  0  0  0  0
 21 23  2  0  0  0  0
 21 22  1  0  0  0  0
 23 24  1  0  0  0  0
 25  1  1  0  0  0  0
 25 23  1  0  0  0  0
 26 25  2  0  0  0  0
 27 26  1  0  0  0  0
 28 26  1  0  0  0  0
 28 20  2  0  0  0  0
 29 28  1  0  0  0  0
M  END
