1,3
q = -1.0, confidence = 0.0

 34 35  0  0  1  0  0  0  0  0999 V2000
   -1.5802   -0.2192   -0.0941 N   0  0  0  0  0  2  0  0  0  0  0  0
   -3.7187    0.4348   -0.0108 N   0  0  0  0  0  0  0  0  0  0  0  0
   -0.4627    2.2262   -0.2952 N   0  0  0  0  0  2  0  0  0  0  0  0
   -2.3661   -1.3579   -0.0180 C   0  0  0  0  0  0  0  0  0  0  0  0
   -2.0124   -2.7172    0.0111 C   0  0  0  0  0  0  0  0  0  0  0  0
   -3.0525   -3.6519    0.0971 C   0  0  0  0  0  0  0  0  0  0  0  0
   -4.4079   -3.2477    0.1544 C   0  0  0  0  0  0  0  0  0  0  0  0
   -4.7757   -1.8938    0.1290 C   0  0  0  0  0  0  0  0  0  0  0  0
   -3.7326   -0.9604    0.0396 C   0  0  0  0  0  0  0  0  0  0  0  0
   -2.4022    0.8264   -0.0785 C   0  0  1  0  0  3  0  0  0  0  0  0
   -1.8838    2.2344   -0.1200 C   0  0  0  0  0  0  0  0  0  0  0  0
   -4.8786    1.2996    0.0543 C   0  0  0  0  0  0  0  0  0  0  0  0
    0.2407    3.5014   -0.1341 C   0  0  0  0  0  0  0  0  0  0  0  0
   -0.4101    4.6149   -0.9846 C   0  0  0  0  0  0  0  0  0  0  0  0
    0.2754    3.9406    1.3501 C   0  0  0  0  0  0  0  0  0  0  0  0
    1.6830    3.2915   -0.6235 C   0  0  0  0  0  0  0  0  0  0  0  0
   -0.9547   -3.0149   -0.0302 H   0  0  0  0  0  0  0  0  0  0  0  0
   -2.8131   -4.7253    0.1231 H   0  0  0  0  0  0  0  0  0  0  0  0
   -5.1942   -4.0139    0.2246 H   0  0  0  0  0  0  0  0  0  0  0  0
   -5.8308   -1.5886    0.1822 H   0  0  0  0  0  0  0  0  0  0  0  0
   -2.4471    2.7747   -0.9333 H   0  0  0  0  0  0  0  0  0  0  0  0
   -2.2362    2.7370    0.8273 H   0  0  0  0  0  0  0  0  0  0  0  0
   -4.6175    2.2988   -0.3402 H   0  0  0  0  0  0  0  0  0  0  0  0
   -5.6930    0.8816   -0.5692 H   0  0  0  0  0  0  0  0  0  0  0  0
   -5.2470    1.4089    1.0958 H   0  0  0  0  0  0  0  0  0  0  0  0
   -0.4947    4.2873   -2.0410 H   0  0  0  0  0  0  0  0  0  0  0  0
   -1.4259    4.8743   -0.6207 H   0  0  0  0  0  0  0  0  0  0  0  0
    0.1932    5.5446   -0.9542 H   0  0  0  0  0  0  0  0  0  0  0  0
    0.8152    3.1850    1.9570 H   0  0  0  0  0  0  0  0  0  0  0  0
    0.7808    4.9198    1.4840 H   0  0  0  0  0  0  0  0  0  0  0  0
   -0.7495    4.0407    1.7652 H   0  0  0  0  0  0  0  0  0  0  0  0
    2.1672    2.4593   -0.0684 H   0  0  0  0  0  0  0  0  0  0  0  0
    1.6904    3.0268   -1.7006 H   0  0  0  0  0  0  0  0  0  0  0  0
    2.2986    4.2020   -0.4790 H   0  0  0  0  0  0  0  0  0  0  0  0
  1 10  1  0  0  0  0
  1  4  1  0  0  0  0
  2  9  1  0  0  0  0
  2 12  1  0  0  0  0
  3 13  1  0  0  0  0
  3 11  1  0  0  0  0
  4  5  2  0  0  0  0
  4  9  1  0  0  0  0
  5  6  1  0  0  0  0
  6 18  1  0  0  0  0
  6  7  2  0  0  0  0
  7 19  1  0  0  0  0
  8  7  1  0  0  0  0
  8 20  1  0  0  0  0
  9  8  2  0  0  0  0
 10 11  1  1  0  0  0
 10  2  1  0  0  0  0
 11 22  1  0  0  0  0
 12 25  1  0  0  0  0
 13 15  1  0  0  0  0
 14 28  1  0  0  0  0
 14 27  1  0  0  0  0
 14 13  1  0  0  0  0
 15 30  1  0  0  0  0
 15 31  1  0  0  0  0
 15 29  1  0  0  0  0
 16 34  1  0  0  0  0
 16 13  1  0  0  0  0
 16 32  1  0  0  0  0
 17  5  1  0  0  0  0
 21 11  1  0  0  0  0
 23 12  1  0  0  0  0
 24 12  1  0  0  0  0
 26 14  1  0  0  0  0
 33 16  1  0  0  0  0
M  END
