4,5
q = -2.0, confidence = 0.864

 31 30  0  0  0  0  0  0  0  0999 V2000
   -2.8833    1.9206   -0.8773 Si  0  0  0  0  0  0  0  0  0  0  0  0
    0.1133    2.4788   -0.2287 Si  0  0  0  0  0  0  0  0  0  0  0  0
    2.9165    1.5103    0.8040 Si  0  0  0  0  0  0  0  0  0  0  0  0
   -1.2715    1.4196   -0.5029 N   0  0  0  0  0  2  0  0  0  0  0  0
    1.2952    1.2838    0.2692 N   0  0  0  0  0  2  0  0  0  0  0  0
   -3.7049    3.0343    0.4224 C   0  0  0  0  0  0  0  0  0  0  0  0
   -3.6386    2.5862    1.4340 H   0  0  0  0  0  0  0  0  0  0  0  0
   -4.7775    3.1915    0.1834 H   0  0  0  0  0  0  0  0  0  0  0  0
   -3.2154    4.0287    0.4624 H   0  0  0  0  0  0  0  0  0  0  0  0
   -3.0307    2.7989   -2.5582 C   0  0  0  0  0  0  0  0  0  0  0  0
   -2.5851    2.1918   -3.3728 H   0  0  0  0  0  0  0  0  0  0  0  0
   -2.4977    3.7721   -2.5416 H   0  0  0  0  0  0  0  0  0  0  0  0
   -4.0923    2.9972   -2.8151 H   0  0  0  0  0  0  0  0  0  0  0  0
   -0.1859    3.8131    1.0891 C   0  0  0  0  0  0  0  0  0  0  0  0
   -0.9486    4.5511    0.7657 H   0  0  0  0  0  0  0  0  0  0  0  0
    0.7521    4.3714    1.2931 H   0  0  0  0  0  0  0  0  0  0  0  0
   -0.5259    3.3575    2.0406 H   0  0  0  0  0  0  0  0  0  0  0  0
    0.6209    3.3935   -1.8205 C   0  0  0  0  0  0  0  0  0  0  0  0
    0.7684    2.6820   -2.6596 H   0  0  0  0  0  0  0  0  0  0  0  0
    1.5651    3.9594   -1.6815 H   0  0  0  0  0  0  0  0  0  0  0  0
   -0.1618    4.1157   -2.1330 H   0  0  0  0  0  0  0  0  0  0  0  0
    3.0921    2.2468    2.5478 C   0  0  0  0  0  0  0  0  0  0  0  0
    2.6142    1.6075    3.3171 H   0  0  0  0  0  0  0  0  0  0  0  0
    2.6057    3.2431    2.5959 H   0  0  0  0  0  0  0  0  0  0  0  0
    4.1600    2.3711    2.8244 H   0  0  0  0  0  0  0  0  0  0  0  0
    3.9546    2.6215   -0.3447 C   0  0  0  0  0  0  0  0  0  0  0  0
    5.0255    2.6136   -0.0523 H   0  0  0  0  0  0  0  0  0  0  0  0
    3.5993    3.6718   -0.2869 H   0  0  0  0  0  0  0  0  0  0  0  0
    3.8842    2.3100   -1.4071 H   0  0  0  0  0  0  0  0  0  0  0  0
    3.6175    0.1568    0.8372 H   0  0  0  0  0  0  0  0  0  0  0  0
   -3.7671    0.6844   -0.9880 H   0  0  0  0  0  0  0  0  0  0  0  0
  1  4  1  0  0  0  0
  1  6  1  0  0  0  0
  2  5  1  0  0  0  0
  2 14  1  0  0  0  0
  3 30  1  0  0  0  0
  3 22  1  0  0  0  0
  4  2  1  0  0  0  0
  5  3  1  0  0  0  0
  6  9  1  0  0  0  0
  6  7  1  0  0  0  0
  8  6  1  0  0  0  0
 10 12  1  0  0  0  0
 10  1  1  0  0  0  0
 11 10  1  0  0  0  0
 13 10  1  0  0  0  0
 14 16  1  0  0  0  0
 14 17  1  0  0  0  0
 15 14  1  0  0  0  0
 18 20  1  0  0  0  0
 18  2  1  0  0  0  0
 19 18  1  0  0  0  0
 21 18  1  0  0  0  0
 22 24  1  0  0  0  0
 22 25  1  0  0  0  0
 22 23  1  0  0  0  0
 26 28  1  0  0  0  0
 26 27  1  0  0  0  0
 26  3  1  0  0  0  0
 29 26  1  0  0  0  0
 31  1  1  0  0  0  0
M  END
