6,14
q = -1.0

 27 26  0  0  1  0  0  0  0  0999 V2000
   -1.8011   -0.4331   -0.0033 C   0  0  2  0  0  3  0  0  0  0  0  0
   -3.2725   -0.7545    0.3506 C   0  0  0  0  0  0  0  0  0  0  0  0
   -3.5436   -0.3026    1.5994 F   0  0  0  0  0  0  0  0  0  0  0  0
   -4.1524   -0.1945   -0.5115 F   0  0  0  0  0  0  0  0  0  0  0  0
   -3.5384   -2.0768    0.3531 F   0  0  0  0  0  0  0  0  0  0  0  0
   -0.8758   -1.3904   -0.1050 N   0  0  0  0  0  2  0  0  0  0  0  0
   -0.9847   -2.8412   -0.0528 C   0  0  0  0  0  0  0  0  0  0  0  0
   -1.6027   -3.1718    0.8071 H   0  0  0  0  0  0  0  0  0  0  0  0
    0.0427   -3.2158    0.1296 H   0  0  0  0  0  0  0  0  0  0  0  0
   -1.4931   -3.4622   -1.3572 C   0  0  0  0  0  0  0  0  0  0  0  0
   -2.5272   -3.1399   -1.5855 H   0  0  0  0  0  0  0  0  0  0  0  0
   -1.4897   -4.5682   -1.2776 H   0  0  0  0  0  0  0  0  0  0  0  0
   -0.8328   -3.1726   -2.1975 H   0  0  0  0  0  0  0  0  0  0  0  0
   -1.3015    0.8062   -0.1187 N   0  0  0  0  0  2  0  0  0  0  0  0
   -1.9932    2.1035   -0.3622 C   0  0  0  0  0  0  0  0  0  0  0  0
   -0.9632    3.2304   -0.1547 C   0  0  0  0  0  0  0  0  0  0  0  0
   -1.4177    4.2001   -0.4370 H   0  0  0  0  0  0  0  0  0  0  0  0
   -0.0638    3.0805   -0.7772 H   0  0  0  0  0  0  0  0  0  0  0  0
   -0.6624    3.2973    0.9071 H   0  0  0  0  0  0  0  0  0  0  0  0
   -2.4691    2.1355   -1.8309 C   0  0  0  0  0  0  0  0  0  0  0  0
   -3.2039    1.3332   -2.0300 H   0  0  0  0  0  0  0  0  0  0  0  0
   -1.6054    2.0065   -2.5129 H   0  0  0  0  0  0  0  0  0  0  0  0
   -2.9490    3.1086   -2.0599 H   0  0  0  0  0  0  0  0  0  0  0  0
   -3.1622    2.4103    0.6009 C   0  0  0  0  0  0  0  0  0  0  0  0
   -4.0650    1.8065    0.4166 H   0  0  0  0  0  0  0  0  0  0  0  0
   -3.4509    3.4717    0.4682 H   0  0  0  0  0  0  0  0  0  0  0  0
   -2.8524    2.2770    1.6555 H   0  0  0  0  0  0  0  0  0  0  0  0
  1 14  1  1  0  0  0
  1  2  1  0  0  0  0
  2  5  1  0  0  0  0
  2  3  1  0  0  0  0
  4  2  1  0  0  0  0
  6  7  1  0  0  0  0
  6  1  1  0  0  0  0
  7  9  1  0  0  0  0
  7  8  1  0  0  0  0
 10 12  1  0  0  0  0
 10  7  1  0  0  0  0
 11 10  1  0  0  0  0
 13 10  1  0  0  0  0
 15 16  1  0  0  0  0
 15 14  1  0  0  0  0
 15 24  1  0  0  0  0
 16 19  1  0  0  0  0
 17 16  1  0  0  0  0
 18 16  1  0  0  0  0
 20 15  1  0  0  0  0
 21 20  1  0  0  0  0
 22 20  1  0  0  0  0
 23 20  1  0  0  0  0
 24 27  1  0  0  0  0
 25 24  1  0  0  0  0
 26 24  1  0  0  0  0
M  END
