3,4
q = 0.0, confidence = 0.988

 34 35  0  0  0  0  0  0  0  0999 V2000
    6.7450    0.3812    0.0410 F   0  0  0  0  0  0  0  0  0  0  0  0
   -6.7447    0.3812    0.0413 F   0  0  0  0  0  0  0  0  0  0  0  0
   -1.2665    1.2508    0.0315 N   0  0  0  0  0  2  0  0  0  0  0  0
    1.2668    1.2507    0.0315 N   0  0  0  0  0  2  0  0  0  0  0  0
    0.7310    2.4574   -0.0398 C   0  0  0  0  0  0  0  0  0  0  0  0
   -2.6801    1.0551    0.0329 C   0  0  0  0  0  0  0  0  0  0  0  0
    2.6803    1.0549    0.0330 C   0  0  0  0  0  0  0  0  0  0  0  0
   -0.7306    2.4575   -0.0399 C   0  0  0  0  0  0  0  0  0  0  0  0
    3.4512    1.4400    1.1469 C   0  0  0  0  0  0  0  0  0  0  0  0
    2.9638    1.9083    2.0149 H   0  0  0  0  0  0  0  0  0  0  0  0
    3.2884    0.4394   -1.0796 C   0  0  0  0  0  0  0  0  0  0  0  0
    2.6616    0.1567   -1.9388 H   0  0  0  0  0  0  0  0  0  0  0  0
   -3.4509    1.4405    1.1467 C   0  0  0  0  0  0  0  0  0  0  0  0
   -2.9635    1.9090    2.0146 H   0  0  0  0  0  0  0  0  0  0  0  0
    1.5064    3.7296   -0.1605 C   0  0  0  0  0  0  0  0  0  0  0  0
    2.5862    3.5431   -0.2912 H   0  0  0  0  0  0  0  0  0  0  0  0
    1.3663    4.3685    0.7366 H   0  0  0  0  0  0  0  0  0  0  0  0
    1.1404    4.3163   -1.0273 H   0  0  0  0  0  0  0  0  0  0  0  0
   -1.5059    3.7297   -0.1608 C   0  0  0  0  0  0  0  0  0  0  0  0
   -2.5857    3.5433   -0.2910 H   0  0  0  0  0  0  0  0  0  0  0  0
   -1.1402    4.3159   -1.0280 H   0  0  0  0  0  0  0  0  0  0  0  0
   -1.3654    4.3690    0.7360 H   0  0  0  0  0  0  0  0  0  0  0  0
   -3.2881    0.4393   -1.0795 C   0  0  0  0  0  0  0  0  0  0  0  0
   -2.6614    0.1565   -1.9386 H   0  0  0  0  0  0  0  0  0  0  0  0
    4.6703    0.2200   -1.0805 C   0  0  0  0  0  0  0  0  0  0  0  0
    5.1760   -0.2401   -1.9415 H   0  0  0  0  0  0  0  0  0  0  0  0
    5.4274    0.6011    0.0387 C   0  0  0  0  0  0  0  0  0  0  0  0
   -4.6700    0.2198   -1.0803 C   0  0  0  0  0  0  0  0  0  0  0  0
   -5.1758   -0.2405   -1.9411 H   0  0  0  0  0  0  0  0  0  0  0  0
    4.8327    1.2078    1.1543 C   0  0  0  0  0  0  0  0  0  0  0  0
    5.4580    1.4896    2.0131 H   0  0  0  0  0  0  0  0  0  0  0  0
   -5.4271    0.6012    0.0389 C   0  0  0  0  0  0  0  0  0  0  0  0
   -4.8324    1.2083    1.1542 C   0  0  0  0  0  0  0  0  0  0  0  0
   -5.4577    1.4902    2.0131 H   0  0  0  0  0  0  0  0  0  0  0  0
  3  6  1  0  0  0  0
  4  7  1  0  0  0  0
  5  4  1  0  0  0  0
  6 13  1  0  0  0  0
  7  9  1  0  0  0  0
  8  5  2  0  0  0  0
  8  3  1  0  0  0  0
  9 30  2  0  0  0  0
  9 10  1  0  0  0  0
 11  7  2  0  0  0  0
 12 11  1  0  0  0  0
 13 33  2  0  0  0  0
 13 14  1  0  0  0  0
 15  5  1  0  0  0  0
 15 17  1  0  0  0  0
 16 15  1  0  0  0  0
 18 15  1  0  0  0  0
 19  8  1  0  0  0  0
 19 22  1  0  0  0  0
 20 19  1  0  0  0  0
 21 19  1  0  0  0  0
 23  6  2  0  0  0  0
 24 23  1  0  0  0  0
 25 11  1  0  0  0  0
 25 27  2  0  0  0  0
 26 25  1  0  0  0  0
 27  1  1  0  0  0  0
 27 30  1  0  0  0  0
 28 23  1  0  0  0  0
 28 32  2  0  0  0  0
 29 28  1  0  0  0  0
 30 31  1  0  0  0  0
 32  2  1  0  0  0  0
 32 33  1  0  0  0  0
 33 34  1  0  0  0  0
M  END
