3,4
q = -1.0, confidence = 0.002

 40 41  0  0  1  0  0  0  0  0999 V2000
    6.0807   -2.2704   -0.8181 O   0  0  0  0  0  0  0  0  0  0  0  0
   -2.9428    4.1812   -1.6464 O   0  0  0  0  0  0  0  0  0  0  0  0
    2.4599   -0.1776   -0.2961 N   0  0  0  0  0  2  0  0  0  0  0  0
    0.1707    1.5212   -0.6777 N   0  0  0  0  0  0  0  0  0  0  0  0
    3.4560   -1.0326   -0.5543 C   0  0  2  0  0  3  0  0  0  0  0  0
    4.7218   -0.4728   -0.0982 C   0  0  0  0  0  0  0  0  0  0  0  0
    4.4285    0.7915    0.4564 C   0  0  0  0  0  0  0  0  0  0  0  0
    3.0092    0.9721    0.2824 C   0  0  0  0  0  0  0  0  0  0  0  0
    2.2893    2.1567    0.4492 C   0  0  0  0  0  0  0  0  0  0  0  0
    2.8352    2.9970    0.9022 H   0  0  0  0  0  0  0  0  0  0  0  0
    0.9952    2.4498   -0.0200 C   0  0  0  0  0  3  0  0  0  0  0  0
    0.3847    3.7455   -0.0725 C   0  0  0  0  0  0  0  0  0  0  0  0
   -0.8182    3.5805   -0.8051 C   0  0  0  0  0  0  0  0  0  0  0  0
   -0.8964    2.1803   -1.1616 C   0  0  0  0  0  0  0  0  0  0  0  0
    3.2525   -2.3312   -1.2504 C   0  0  0  0  0  0  0  0  0  0  0  0
    2.1950   -2.4473   -1.5483 H   0  0  0  0  0  0  0  0  0  0  0  0
    3.5391   -3.1786   -0.5973 H   0  0  0  0  0  0  0  0  0  0  0  0
    3.9233   -2.3944   -2.1298 H   0  0  0  0  0  0  0  0  0  0  0  0
    6.0118   -1.1764   -0.2528 C   0  0  0  0  0  0  0  0  0  0  0  0
    7.2783   -0.5365    0.3008 C   0  0  0  0  0  0  0  0  0  0  0  0
    8.1226   -1.2233    0.1112 H   0  0  0  0  0  0  0  0  0  0  0  0
    7.1944   -0.3465    1.3899 H   0  0  0  0  0  0  0  0  0  0  0  0
    7.4837    0.4390   -0.1849 H   0  0  0  0  0  0  0  0  0  0  0  0
    5.3433    1.8085    1.0634 C   0  0  0  0  0  0  0  0  0  0  0  0
    5.8884    1.3973    1.9370 H   0  0  0  0  0  0  0  0  0  0  0  0
    4.7876    2.6978    1.4165 H   0  0  0  0  0  0  0  0  0  0  0  0
    6.1134    2.1611    0.3469 H   0  0  0  0  0  0  0  0  0  0  0  0
    0.9642    4.9883    0.5282 C   0  0  0  0  0  0  0  0  0  0  0  0
    1.2027    5.7529   -0.2397 H   0  0  0  0  0  0  0  0  0  0  0  0
    1.8964    4.7779    1.0854 H   0  0  0  0  0  0  0  0  0  0  0  0
    0.2608    5.4652    1.2408 H   0  0  0  0  0  0  0  0  0  0  0  0
   -1.8723    4.5513   -1.1527 C   0  0  0  0  0  0  0  0  0  0  0  0
   -1.6404    6.0325   -0.8883 C   0  0  0  0  0  0  0  0  0  0  0  0
   -2.4967    6.5961   -1.3001 H   0  0  0  0  0  0  0  0  0  0  0  0
   -0.6981    6.3903   -1.3491 H   0  0  0  0  0  0  0  0  0  0  0  0
   -1.5669    6.2349    0.1998 H   0  0  0  0  0  0  0  0  0  0  0  0
   -1.9461    1.5190   -1.9840 C   0  0  0  0  0  0  0  0  0  0  0  0
   -1.5711    0.5469   -2.3501 H   0  0  0  0  0  0  0  0  0  0  0  0
   -2.2396    2.1680   -2.8299 H   0  0  0  0  0  0  0  0  0  0  0  0
   -2.8795    1.3536   -1.4064 H   0  0  0  0  0  0  0  0  0  0  0  0
  1 19  2  0  0  0  0
  2 32  2  0  0  0  0
  3  8  1  0  0  0  0
  4 11  1  0  0  0  0
  5 15  1  6  0  0  0
  5  3  1  0  0  0  0
  5  6  1  0  0  0  0
  6  7  2  0  0  0  0
  7 24  1  0  0  0  0
  8  9  2  0  0  0  0
  8  7  1  0  0  0  0
  9 10  1  0  0  0  0
 11  9  1  0  0  0  0
 12 11  1  0  0  0  0
 12 28  1  0  0  0  0
 13 12  2  0  0  0  0
 14 13  1  0  0  0  0
 14  4  2  0  0  0  0
 15 17  1  0  0  0  0
 16 15  1  0  0  0  0
 18 15  1  0  0  0  0
 19  6  1  0  0  0  0
 19 20  1  0  0  0  0
 20 22  1  0  0  0  0
 21 20  1  0  0  0  0
 23 20  1  0  0  0  0
 24 26  1  0  0  0  0
 24 25  1  0  0  0  0
 27 24  1  0  0  0  0
 28 30  1  0  0  0  0
 28 31  1  0  0  0  0
 29 28  1  0  0  0  0
 32 33  1  0  0  0  0
 32 13  1  0  0  0  0
 33 36  1  0  0  0  0
 34 33  1  0  0  0  0
 35 33  1  0  0  0  0
 37 40  1  0  0  0  0
 37 14  1  0  0  0  0
 38 37  1  0  0  0  0
 39 37  1  0  0  0  0
M  END
