1,3
q = -2.0, confidence = 0.502

 19 18  0  0  0  0  0  0  0  0999 V2000
    0.2213    0.1880    1.7831 N   0  0  0  0  0  2  0  0  0  0  0  0
   -0.5290    0.0132    2.4701 H   0  0  0  0  0  0  0  0  0  0  0  0
    1.4339   -2.1251    1.1106 N   0  0  0  0  0  2  0  0  0  0  0  0
    0.9450   -2.9202    1.5566 H   0  0  0  0  0  0  0  0  0  0  0  0
    1.4709    0.5387    2.4165 C   0  0  0  0  0  0  0  0  0  0  0  0
    1.2913    1.2537    3.2521 H   0  0  0  0  0  0  0  0  0  0  0  0
    2.1357    1.0549    1.6907 H   0  0  0  0  0  0  0  0  0  0  0  0
    2.2342   -0.6954    2.9872 C   0  0  0  0  0  0  0  0  0  0  0  0
    2.5938   -1.7057    1.8504 C   0  0  0  0  0  0  0  0  0  0  0  0
    3.3265   -1.2186    1.1783 H   0  0  0  0  0  0  0  0  0  0  0  0
    3.1017   -2.5830    2.3091 H   0  0  0  0  0  0  0  0  0  0  0  0
    1.3797   -1.3861    4.0599 C   0  0  0  0  0  0  0  0  0  0  0  0
    0.4320   -1.7780    3.6361 H   0  0  0  0  0  0  0  0  0  0  0  0
    1.1263   -0.6787    4.8774 H   0  0  0  0  0  0  0  0  0  0  0  0
    1.9296   -2.2379    4.5113 H   0  0  0  0  0  0  0  0  0  0  0  0
    3.5573   -0.1878    3.5785 C   0  0  0  0  0  0  0  0  0  0  0  0
    4.1766    0.3202    2.8106 H   0  0  0  0  0  0  0  0  0  0  0  0
    4.1517   -1.0298    3.9898 H   0  0  0  0  0  0  0  0  0  0  0  0
    3.3714    0.5321    4.4025 H   0  0  0  0  0  0  0  0  0  0  0  0
  1  5  1  0  0  0  0
  1  2  1  0  0  0  0
  3  4  1  0  0  0  0
  3  9  1  0  0  0  0
  5  8  1  0  0  0  0
  5  6  1  0  0  0  0
  7  5  1  0  0  0  0
  8 16  1  0  0  0  0
  8 12  1  0  0  0  0
  9 11  1  0  0  0  0
  9  8  1  0  0  0  0
 10  9  1  0  0  0  0
 12 15  1  0  0  0  0
 12 14  1  0  0  0  0
 13 12  1  0  0  0  0
 16 18  1  0  0  0  0
 16 19  1  0  0  0  0
 17 16  1  0  0  0  0
M  END
