3,5
q = 0.0, confidence = 1.0

 37 40  0  0  0  0  0  0  0  0999 V2000
    0.0002    1.5231   -1.4670 Si  0  0  0  0  0  0  0  0  0  0  0  0
   -1.4659    1.6014   -0.3696 N   0  0  0  0  0  0  0  0  0  0  0  0
   -1.4795   -0.5164    0.8493 N   0  0  0  0  0  2  0  0  0  0  0  0
    1.4664    1.6011   -0.3697 N   0  0  0  0  0  0  0  0  0  0  0  0
    1.4794   -0.5167    0.8492 N   0  0  0  0  0  2  0  0  0  0  0  0
   -2.2906    2.7361   -0.2892 C   0  0  0  0  0  0  0  0  0  0  0  0
   -2.1119    3.5906   -0.9472 H   0  0  0  0  0  0  0  0  0  0  0  0
   -3.2721    2.5872    0.6663 C   0  0  0  0  0  0  0  0  0  0  0  0
   -4.0440    3.3215    0.9201 H   0  0  0  0  0  0  0  0  0  0  0  0
   -3.0818    1.2899    1.2471 C   0  0  0  0  0  0  0  0  0  0  0  0
   -3.7145    0.5344    2.2500 C   0  0  0  0  0  0  0  0  0  0  0  0
   -4.5840    0.9316    2.7944 H   0  0  0  0  0  0  0  0  0  0  0  0
   -3.2065   -0.7396    2.5281 C   0  0  0  0  0  0  0  0  0  0  0  0
   -3.6637   -1.3780    3.2967 H   0  0  0  0  0  0  0  0  0  0  0  0
   -2.1037   -1.2325    1.8102 C   0  0  0  0  0  3  0  0  0  0  0  0
   -1.7078   -2.2420    1.9873 H   0  0  0  0  0  0  0  0  0  0  0  0
   -1.9540    0.7112    0.5728 C   0  0  0  0  0  0  0  0  0  0  0  0
    2.2913    2.7357   -0.2892 C   0  0  0  0  0  0  0  0  0  0  0  0
    2.1128    3.5902   -0.9472 H   0  0  0  0  0  0  0  0  0  0  0  0
    3.2726    2.5866    0.6665 C   0  0  0  0  0  0  0  0  0  0  0  0
    4.0446    3.3207    0.9204 H   0  0  0  0  0  0  0  0  0  0  0  0
    3.0820    1.2893    1.2473 C   0  0  0  0  0  0  0  0  0  0  0  0
    3.7144    0.5337    2.2502 C   0  0  0  0  0  0  0  0  0  0  0  0
    4.5840    0.9308    2.7948 H   0  0  0  0  0  0  0  0  0  0  0  0
    3.2062   -0.7402    2.5283 C   0  0  0  0  0  0  0  0  0  0  0  0
    3.6632   -1.3787    3.2968 H   0  0  0  0  0  0  0  0  0  0  0  0
    2.1034   -1.2330    1.8101 C   0  0  0  0  0  3  0  0  0  0  0  0
    1.7073   -2.2423    1.9872 H   0  0  0  0  0  0  0  0  0  0  0  0
    1.9542    0.7108    0.5728 C   0  0  0  0  0  0  0  0  0  0  0  0
    0.0001    0.2854   -2.8644 C   0  0  0  0  0  0  0  0  0  0  0  0
    0.8863   -0.3799   -2.8228 H   0  0  0  0  0  0  0  0  0  0  0  0
    0.0001    0.8591   -3.8156 H   0  0  0  0  0  0  0  0  0  0  0  0
   -0.8860   -0.3799   -2.8228 H   0  0  0  0  0  0  0  0  0  0  0  0
    0.0004    3.2257   -2.2848 C   0  0  0  0  0  0  0  0  0  0  0  0
    0.0006    4.0936   -1.5980 H   0  0  0  0  0  0  0  0  0  0  0  0
   -0.8876    3.2995   -2.9455 H   0  0  0  0  0  0  0  0  0  0  0  0
    0.8885    3.2992   -2.9455 H   0  0  0  0  0  0  0  0  0  0  0  0
  1  4  1  0  0  0  0
  1  2  1  0  0  0  0
  2  6  1  0  0  0  0
  2 17  1  0  0  0  0
  3 15  1  0  0  0  0
  4 18  1  0  0  0  0
  4 29  1  0  0  0  0
  5 27  1  0  0  0  0
  6  8  2  0  0  0  0
  7  6  1  0  0  0  0
  8  9  1  0  0  0  0
  8 10  1  0  0  0  0
 10 11  1  0  0  0  0
 11 13  2  0  0  0  0
 11 12  1  0  0  0  0
 13 14  1  0  0  0  0
 15 16  1  0  0  0  0
 15 13  1  0  0  0  0
 17  3  1  0  0  0  0
 17 10  2  0  0  0  0
 18 20  2  0  0  0  0
 19 18  1  0  0  0  0
 20 21  1  0  0  0  0
 20 22  1  0  0  0  0
 22 23  1  0  0  0  0
 23 25  2  0  0  0  0
 23 24  1  0  0  0  0
 25 26  1  0  0  0  0
 27 28  1  0  0  0  0
 27 25  1  0  0  0  0
 29  5  1  0  0  0  0
 29 22  2  0  0  0  0
 30 31  1  0  0  0  0
 30 33  1  0  0  0  0
 30  1  1  0  0  0  0
 32 30  1  0  0  0  0
 34 35  1  0  0  0  0
 34  1  1  0  0  0  0
 36 34  1  0  0  0  0
 37 34  1  0  0  0  0
M  END
