1,2
q = -1.0

 16 16  0  0  0  0  0  0  0  0999 V2000
    0.6001    1.3650    0.7040 N   0  0  0  0  0  2  0  0  0  0  0  0
   -1.0602    1.2131   -1.1892 N   0  0  0  0  0  2  0  0  0  0  0  0
   -1.9648    1.0113   -2.0902 O   0  0  0  0  0  1  0  0  0  0  0  0
   -1.1886    3.5357   -1.6453 N   0  0  0  0  0  0  0  0  0  0  0  0
   -1.9389    3.1896   -2.2594 H   0  0  0  0  0  0  0  0  0  0  0  0
   -1.5254    4.2959   -1.0443 H   0  0  0  0  0  0  0  0  0  0  0  0
   -0.6688    2.4657   -0.9422 C   0  0  0  0  0  0  0  0  0  0  0  0
    0.3135    2.5683    0.1010 C   0  0  0  0  0  0  0  0  0  0  0  0
    1.4553    1.3413    1.7474 C   0  0  0  0  0  0  0  0  0  0  0  0
    1.6323    0.3592    2.2074 H   0  0  0  0  0  0  0  0  0  0  0  0
    2.0692    2.4972    2.2402 C   0  0  0  0  0  0  0  0  0  0  0  0
    2.7393    2.4245    3.1077 H   0  0  0  0  0  0  0  0  0  0  0  0
    0.9336    3.7615    0.5228 C   0  0  0  0  0  0  0  0  0  0  0  0
    0.7169    4.6939   -0.0169 H   0  0  0  0  0  0  0  0  0  0  0  0
    1.8139    3.7282    1.6062 C   0  0  0  0  0  0  0  0  0  0  0  0
    2.3001    4.6505    1.9567 H   0  0  0  0  0  0  0  0  0  0  0  0
  1  9  1  0  0  0  0
  2  7  1  0  0  0  0
  3  2  1  0  0  0  0
  4  6  1  0  0  0  0
  4  7  1  0  0  0  0
  5  4  1  0  0  0  0
  7  8  2  0  0  0  0
  8 13  1  0  0  0  0
  8  1  1  0  0  0  0
  9 10  1  0  0  0  0
  9 11  2  0  0  0  0
 11 12  1  0  0  0  0
 13 15  2  0  0  0  0
 14 13  1  0  0  0  0
 15 16  1  0  0  0  0
 15 11  1  0  0  0  0
M  END
