1,4
q = -1.0

 21 22  0  0  0  0  0  0  0  0999 V2000
   -1.3743   -1.4674   -0.7928 N   0  0  0  0  0  2  0  0  0  0  0  0
   -3.5799   -1.7927   -0.7126 N   0  0  0  0  0  0  0  0  0  0  0  0
   -4.5553   -1.5881   -0.3398 H   0  0  0  0  0  0  0  0  0  0  0  0
   -1.4674    1.2726   -0.9311 N   0  0  0  0  0  2  0  0  0  0  0  0
   -3.6861    1.4429   -0.7705 N   0  0  0  0  0  0  0  0  0  0  0  0
   -2.5807   -0.8651   -0.7998 C   0  0  0  0  0  0  0  0  0  0  0  0
   -1.6140   -2.8154   -0.6998 C   0  0  0  0  0  0  0  0  0  0  0  0
   -0.8001   -3.5479   -0.6799 H   0  0  0  0  0  0  0  0  0  0  0  0
   -2.9821   -3.0314   -0.6388 C   0  0  0  0  0  0  0  0  0  0  0  0
   -3.5722   -3.9462   -0.5294 H   0  0  0  0  0  0  0  0  0  0  0  0
   -2.6220    0.5891   -0.8649 C   0  0  0  0  0  0  0  0  0  0  0  0
   -1.7979    2.6012   -0.8783 C   0  0  0  0  0  0  0  0  0  0  0  0
   -1.0385    3.3885   -0.9335 H   0  0  0  0  0  0  0  0  0  0  0  0
   -3.1738    2.7254   -0.7685 C   0  0  0  0  0  0  0  0  0  0  0  0
   -3.8288    3.5986   -0.6924 H   0  0  0  0  0  0  0  0  0  0  0  0
   -5.0086    1.0280   -0.3314 C   0  0  0  0  0  0  0  0  0  0  0  0
   -5.5438    0.4930   -1.1404 H   0  0  0  0  0  0  0  0  0  0  0  0
   -5.5889    1.9321   -0.0666 H   0  0  0  0  0  0  0  0  0  0  0  0
   -4.8429    0.0866    0.9352 C   0  0  0  0  0  0  0  0  0  0  0  0
   -5.5477   -0.9541    0.9011 O   0  5  0  0  0  0  0  0  0  0  0  0
   -3.9597    0.4408    1.7559 O   0  0  0  0  0  0  0  0  0  0  0  0
  1  7  1  0  0  0  0
  2  9  1  0  0  0  0
  2  3  1  0  0  0  0
  4 12  1  0  0  0  0
  4 11  1  0  0  0  0
  5 14  1  0  0  0  0
  5 16  1  0  0  0  0
  6  1  1  0  0  0  0
  6  2  1  0  0  0  0
  7  8  1  0  0  0  0
  7  9  2  0  0  0  0
  9 10  1  0  0  0  0
 11  6  2  0  0  0  0
 11  5  1  0  0  0  0
 12 14  2  0  0  0  0
 13 12  1  0  0  0  0
 14 15  1  0  0  0  0
 16 18  1  0  0  0  0
 16 19  1  0  0  0  0
 17 16  1  0  0  0  0
 19 21  2  0  0  0  0
 20 19  1  0  0  0  0
M  CHG  1  20  -1
M  END
