2,3
q = 0.0, confidence = 0.996

 28 30  0  0  1  0  0  0  0  0999 V2000
    0.5514    1.1854   -0.1212 N   0  0  2  0  0  0  0  0  0  0  0  0
    0.3201   -0.1640   -0.1703 N   0  0  0  0  0  2  0  0  0  0  0  0
   -1.7520    1.3524   -0.1503 N   0  0  0  0  0  2  0  0  0  0  0  0
    1.8997    1.4497   -0.0748 C   0  0  0  0  0  3  0  0  0  0  0  0
    2.2825    2.4723   -0.0142 H   0  0  0  0  0  0  0  0  0  0  0  0
    2.5670    0.2236   -0.0889 C   0  0  0  0  0  0  0  0  0  0  0  0
    1.5212   -0.7511   -0.1428 C   0  0  0  0  0  0  0  0  0  0  0  0
    1.5925   -1.8428   -0.1832 H   0  0  0  0  0  0  0  0  0  0  0  0
   -0.5674    2.0215   -0.1000 C   0  0  2  0  0  3  0  0  0  0  0  0
   -0.4807    3.4202   -0.0334 C   0  0  0  0  0  0  0  0  0  0  0  0
    0.4968    3.9187    0.0034 H   0  0  0  0  0  0  0  0  0  0  0  0
   -1.6691    4.1558   -0.0136 C   0  0  0  0  0  0  0  0  0  0  0  0
   -1.6359    5.2536    0.0349 H   0  0  0  0  0  0  0  0  0  0  0  0
   -2.8979    3.4737   -0.0506 C   0  0  0  0  0  0  0  0  0  0  0  0
   -3.8537    4.0147   -0.0288 H   0  0  0  0  0  0  0  0  0  0  0  0
   -2.8963    2.0800   -0.1113 C   0  0  0  0  0  0  0  0  0  0  0  0
   -3.8279    1.4978   -0.1283 H   0  0  0  0  0  0  0  0  0  0  0  0
    4.0157   -0.0217   -0.0630 C   0  0  0  0  0  0  0  0  0  0  0  0
    4.5243   -1.2756    0.3447 C   0  0  0  0  0  0  0  0  0  0  0  0
    3.8345   -2.0718    0.6630 H   0  0  0  0  0  0  0  0  0  0  0  0
    5.9049   -1.5107    0.3729 C   0  0  0  0  0  0  0  0  0  0  0  0
    6.2845   -2.4913    0.6961 H   0  0  0  0  0  0  0  0  0  0  0  0
    6.8012   -0.4979   -0.0031 C   0  0  0  0  0  0  0  0  0  0  0  0
    7.8853   -0.6833    0.0187 H   0  0  0  0  0  0  0  0  0  0  0  0
    6.3079    0.7524   -0.4107 C   0  0  0  0  0  0  0  0  0  0  0  0
    7.0045    1.5476   -0.7151 H   0  0  0  0  0  0  0  0  0  0  0  0
    4.9283    0.9883   -0.4436 C   0  0  0  0  0  0  0  0  0  0  0  0
    4.5548    1.9631   -0.7924 H   0  0  0  0  0  0  0  0  0  0  0  0
  1  2  1  1  0  0  0
  1  9  1  0  0  0  0
  1  4  1  0  0  0  0
  2  7  1  0  0  0  0
  3 16  1  0  0  0  0
  4  5  1  0  0  0  0
  6  4  1  0  0  0  0
  6 18  1  0  0  0  0
  7  6  2  0  0  0  0
  8  7  1  0  0  0  0
  9  3  1  6  0  0  0
  9 10  1  0  0  0  0
 10 12  2  0  0  0  0
 10 11  1  0  0  0  0
 12 13  1  0  0  0  0
 14 15  1  0  0  0  0
 14 12  1  0  0  0  0
 16 14  2  0  0  0  0
 17 16  1  0  0  0  0
 18 19  1  0  0  0  0
 19 21  2  0  0  0  0
 19 20  1  0  0  0  0
 21 22  1  0  0  0  0
 23 24  1  0  0  0  0
 23 21  1  0  0  0  0
 25 23  2  0  0  0  0
 26 25  1  0  0  0  0
 27 25  1  0  0  0  0
 27 18  2  0  0  0  0
 28 27  1  0  0  0  0
M  END
