1,3
q = -1.0

 19 19  0  0  1  0  0  0  0  0999 V2000
   -1.5704    0.3735   -0.0446 N   0  0  0  0  0  2  0  0  0  0  0  0
   -2.8430   -1.6647    0.0129 N   0  0  0  0  0  0  0  0  0  0  0  0
   -0.5109   -2.1334   -0.0652 N   0  0  0  0  0  2  0  0  0  0  0  0
   -3.8791    0.4140    0.0041 N   0  0  0  0  0  0  0  0  0  0  0  0
   -3.8008    1.7700   -0.0123 N   0  0  0  0  0  0  0  0  0  0  0  0
   -2.6855   -0.3436   -0.0066 C   0  0  2  0  0  3  0  0  0  0  0  0
   -1.7970   -2.4956   -0.0445 C   0  0  0  0  0  0  0  0  0  0  0  0
   -2.1322   -3.9645   -0.0937 C   0  0  0  0  0  0  0  0  0  0  0  0
   -5.0687    2.1818    0.0003 C   0  0  0  0  0  0  0  0  0  0  0  0
   -5.9796    1.0832    0.0263 C   0  0  0  0  0  0  0  0  0  0  0  0
   -5.1777   -0.0450    0.0274 C   0  0  0  0  0  0  0  0  0  0  0  0
   -1.8072    1.3805   -0.0907 H   0  0  0  0  0  0  0  0  0  0  0  0
    0.1203   -2.9350   -0.1624 H   0  0  0  0  0  0  0  0  0  0  0  0
   -2.7505   -4.2253    0.7877 H   0  0  0  0  0  0  0  0  0  0  0  0
   -1.2375   -4.6144   -0.1140 H   0  0  0  0  0  0  0  0  0  0  0  0
   -2.7519   -4.1697   -0.9890 H   0  0  0  0  0  0  0  0  0  0  0  0
   -5.2946    3.2557   -0.0092 H   0  0  0  0  0  0  0  0  0  0  0  0
   -7.0737    1.1173    0.0422 H   0  0  0  0  0  0  0  0  0  0  0  0
   -5.3851   -1.1187    0.0422 H   0  0  0  0  0  0  0  0  0  0  0  0
  3  7  1  0  0  0  0
  4 11  1  0  0  0  0
  5  9  2  0  0  0  0
  5  4  1  0  0  0  0
  6  1  1  6  0  0  0
  6  4  1  0  0  0  0
  6  2  1  0  0  0  0
  7  2  2  0  0  0  0
  8  7  1  0  0  0  0
  8 14  1  0  0  0  0
  9 10  1  0  0  0  0
 10 11  2  0  0  0  0
 10 18  1  0  0  0  0
 11 19  1  0  0  0  0
 12  1  1  0  0  0  0
 13  3  1  0  0  0  0
 15  8  1  0  0  0  0
 16  8  1  0  0  0  0
 17  9  1  0  0  0  0
M  END
