4,5
q = -1.0

 50 49  0  0  0  0  0  0  0  0999 V2000
    2.5156   -0.0342    0.7873 As  0  0  0  0  0  0  0  0  0  0  0  0
    3.3200   -1.8942   -0.4690 Si  0  0  0  0  0  0  0  0  0  0  0  0
    3.4532    1.9456   -0.1541 Si  0  0  0  0  0  0  0  0  0  0  0  0
   -0.1236    0.0541   -0.7533 N   0  0  0  0  0  2  0  0  0  0  0  0
   -0.3346   -0.0613    1.4530 N   0  0  0  0  0  2  0  0  0  0  0  0
    0.5095    0.0090    0.4277 C   0  0  0  0  0  3  0  0  0  0  0  0
    4.8781   -2.4044    0.4865 C   0  0  0  0  0  0  0  0  0  0  0  0
    1.9912   -3.2332   -0.2882 C   0  0  0  0  0  0  0  0  0  0  0  0
    3.8204   -1.6582   -2.2815 C   0  0  0  0  0  0  0  0  0  0  0  0
    2.3458    3.3603    0.4500 C   0  0  0  0  0  0  0  0  0  0  0  0
    3.7380    2.1042   -2.0209 C   0  0  0  0  0  0  0  0  0  0  0  0
    5.1472    2.0291    0.6976 C   0  0  0  0  0  0  0  0  0  0  0  0
    0.5626    0.2771   -2.0193 C   0  0  0  0  0  0  0  0  0  0  0  0
    0.3419   -0.8626   -3.0223 C   0  0  0  0  0  0  0  0  0  0  0  0
    0.1730    1.6300   -2.6327 C   0  0  0  0  0  0  0  0  0  0  0  0
   -0.0560   -0.1452    2.8832 C   0  0  0  0  0  0  0  0  0  0  0  0
    0.7367    1.0485    3.4543 C   0  0  0  0  0  0  0  0  0  0  0  0
    0.5682   -1.4823    3.3229 C   0  0  0  0  0  0  0  0  0  0  0  0
    1.6514    0.3114   -1.7830 H   0  0  0  0  0  0  0  0  0  0  0  0
   -1.0621   -0.0986    3.3555 H   0  0  0  0  0  0  0  0  0  0  0  0
    5.3272   -3.3170    0.0408 H   0  0  0  0  0  0  0  0  0  0  0  0
    4.6449   -2.6132    1.5497 H   0  0  0  0  0  0  0  0  0  0  0  0
    5.6439   -1.6018    0.4589 H   0  0  0  0  0  0  0  0  0  0  0  0
    2.3035   -4.1733   -0.7889 H   0  0  0  0  0  0  0  0  0  0  0  0
    1.8122   -3.4543    0.7837 H   0  0  0  0  0  0  0  0  0  0  0  0
    1.0319   -2.9017   -0.7321 H   0  0  0  0  0  0  0  0  0  0  0  0
    4.6900   -0.9750   -2.3573 H   0  0  0  0  0  0  0  0  0  0  0  0
    4.1272   -2.6401   -2.7006 H   0  0  0  0  0  0  0  0  0  0  0  0
    3.0046   -1.2571   -2.9106 H   0  0  0  0  0  0  0  0  0  0  0  0
    1.3365    3.2903   -0.0036 H   0  0  0  0  0  0  0  0  0  0  0  0
    2.7796    4.3439    0.1735 H   0  0  0  0  0  0  0  0  0  0  0  0
    2.2276    3.3280    1.5516 H   0  0  0  0  0  0  0  0  0  0  0  0
    2.7927    2.1675   -2.5911 H   0  0  0  0  0  0  0  0  0  0  0  0
    4.3134    3.0359   -2.2083 H   0  0  0  0  0  0  0  0  0  0  0  0
    4.3266    1.2545   -2.4179 H   0  0  0  0  0  0  0  0  0  0  0  0
    5.0448    1.9901    1.8004 H   0  0  0  0  0  0  0  0  0  0  0  0
    5.7923    1.1815    0.3860 H   0  0  0  0  0  0  0  0  0  0  0  0
    5.6717    2.9698    0.4274 H   0  0  0  0  0  0  0  0  0  0  0  0
    0.6537   -1.8358   -2.5977 H   0  0  0  0  0  0  0  0  0  0  0  0
    0.9368   -0.6835   -3.9417 H   0  0  0  0  0  0  0  0  0  0  0  0
   -0.7252   -0.9297   -3.3034 H   0  0  0  0  0  0  0  0  0  0  0  0
    0.3794    2.4605   -1.9286 H   0  0  0  0  0  0  0  0  0  0  0  0
    0.7437    1.8171   -3.5657 H   0  0  0  0  0  0  0  0  0  0  0  0
   -0.9061    1.6349   -2.8787 H   0  0  0  0  0  0  0  0  0  0  0  0
    0.3409    2.0138    3.0813 H   0  0  0  0  0  0  0  0  0  0  0  0
    1.8066    0.9915    3.1741 H   0  0  0  0  0  0  0  0  0  0  0  0
    0.6709    1.0514    4.5616 H   0  0  0  0  0  0  0  0  0  0  0  0
    0.6522   -1.5205    4.4284 H   0  0  0  0  0  0  0  0  0  0  0  0
    1.5867   -1.5982    2.9008 H   0  0  0  0  0  0  0  0  0  0  0  0
   -0.0472   -2.3431    2.9984 H   0  0  0  0  0  0  0  0  0  0  0  0
  2  8  1  0  0  0  0
  2  7  1  0  0  0  0
  2  1  1  0  0  0  0
  3 10  1  0  0  0  0
  3 12  1  0  0  0  0
  3  1  1  0  0  0  0
  4  6  1  0  0  0  0
  5 16  1  0  0  0  0
  6  1  1  0  0  0  0
  6  5  1  0  0  0  0
  7 22  1  0  0  0  0
  8 25  1  0  0  0  0
  9  2  1  0  0  0  0
 10 32  1  0  0  0  0
 11  3  1  0  0  0  0
 12 36  1  0  0  0  0
 13 19  1  0  0  0  0
 13  4  1  0  0  0  0
 14 39  1  0  0  0  0
 14 13  1  0  0  0  0
 15 13  1  0  0  0  0
 15 42  1  0  0  0  0
 16 18  1  0  0  0  0
 16 20  1  0  0  0  0
 16 17  1  0  0  0  0
 17 47  1  0  0  0  0
 18 48  1  0  0  0  0
 21  7  1  0  0  0  0
 23  7  1  0  0  0  0
 24  8  1  0  0  0  0
 26  8  1  0  0  0  0
 27  9  1  0  0  0  0
 28  9  1  0  0  0  0
 29  9  1  0  0  0  0
 30 10  1  0  0  0  0
 31 10  1  0  0  0  0
 33 11  1  0  0  0  0
 34 11  1  0  0  0  0
 35 11  1  0  0  0  0
 37 12  1  0  0  0  0
 38 12  1  0  0  0  0
 40 14  1  0  0  0  0
 41 14  1  0  0  0  0
 43 15  1  0  0  0  0
 44 15  1  0  0  0  0
 45 17  1  0  0  0  0
 46 17  1  0  0  0  0
 49 18  1  0  0  0  0
 50 18  1  0  0  0  0
M  END
