11,12
q = 0.0, confidence = 0.998

 26 26  0  0  0  0  0  0  0  0999 V2000
   -0.9563    1.7245   -0.1054 C   0  0  0  0  0  0  0  0  0  0  0  0
   -1.8426    2.8093   -0.2385 C   0  0  0  0  0  0  0  0  0  0  0  0
   -3.2165    2.5608   -0.1643 C   0  0  0  0  0  0  0  0  0  0  0  0
   -3.6441    1.2502    0.0678 C   0  0  0  0  0  0  0  0  0  0  0  0
   -2.7056    0.2002    0.2126 C   0  0  0  0  0  0  0  0  0  0  0  0
    0.4819    1.9334   -0.1522 C   0  0  0  0  0  0  0  0  0  0  0  0
    2.7545    1.1636    0.0072 C   0  0  0  0  0  0  0  0  0  0  0  0
    3.1583    1.0465    1.4841 C   0  0  0  0  0  0  0  0  0  0  0  0
    3.2365    2.4725   -0.6208 C   0  0  0  0  0  0  0  0  0  0  0  0
   -3.1658   -1.1864    0.5254 C   0  0  0  0  0  0  0  0  0  0  0  0
   -1.3773    0.4419    0.0972 N   0  0  0  0  0  2  0  0  0  0  0  0
    1.2997    0.9196   -0.0898 N   0  0  0  0  0  2  0  0  0  0  0  0
   -1.4465    3.8223   -0.4007 H   0  0  0  0  0  0  0  0  0  0  0  0
   -3.9445    3.3780   -0.2756 H   0  0  0  0  0  0  0  0  0  0  0  0
   -4.7150    1.0158    0.1522 H   0  0  0  0  0  0  0  0  0  0  0  0
    0.8534    2.9710   -0.2156 H   0  0  0  0  0  0  0  0  0  0  0  0
    3.2253    0.3247   -0.5408 H   0  0  0  0  0  0  0  0  0  0  0  0
    2.7260    1.8832    2.0711 H   0  0  0  0  0  0  0  0  0  0  0  0
    2.7923    0.0960    1.9174 H   0  0  0  0  0  0  0  0  0  0  0  0
    4.2612    1.0813    1.5830 H   0  0  0  0  0  0  0  0  0  0  0  0
    2.8811    2.5797   -1.6653 H   0  0  0  0  0  0  0  0  0  0  0  0
    2.9211    3.3669   -0.0450 H   0  0  0  0  0  0  0  0  0  0  0  0
    4.3439    2.4766   -0.6382 H   0  0  0  0  0  0  0  0  0  0  0  0
   -2.7037   -1.9244   -0.1627 H   0  0  0  0  0  0  0  0  0  0  0  0
   -2.8058   -1.4873    1.5310 H   0  0  0  0  0  0  0  0  0  0  0  0
   -4.2687   -1.2568    0.5016 H   0  0  0  0  0  0  0  0  0  0  0  0
  1 11  1  0  0  0  0
  2  3  2  0  0  0  0
  2  1  1  0  0  0  0
  3  4  1  0  0  0  0
  4 15  1  0  0  0  0
  4  5  2  0  0  0  0
  5 10  1  0  0  0  0
  6  1  2  0  0  0  0
  6 12  1  0  0  0  0
  7  8  1  0  0  0  0
  8 20  1  0  0  0  0
  8 19  1  0  0  0  0
  8 18  1  0  0  0  0
  9 22  1  0  0  0  0
  9  7  1  0  0  0  0
 10 25  1  0  0  0  0
 11  5  1  0  0  0  0
 12  7  1  0  0  0  0
 13  2  1  0  0  0  0
 14  3  1  0  0  0  0
 16  6  1  0  0  0  0
 17  7  1  0  0  0  0
 21  9  1  0  0  0  0
 23  9  1  0  0  0  0
 24 10  1  0  0  0  0
 26 10  1  0  0  0  0
M  END
