7,9
q = -1.0, confidence = 0.122

 35 36  0  0  0  0  0  0  0  0999 V2000
   -6.5409    0.6128    0.6976 F   0  0  0  0  0  0  0  0  0  0  0  0
   -6.2760    0.3693   -1.4645 F   0  0  0  0  0  0  0  0  0  0  0  0
   -5.3353   -1.0174   -0.0849 F   0  0  0  0  0  0  0  0  0  0  0  0
    4.2600    3.5487    0.8778 F   0  0  0  0  0  0  0  0  0  0  0  0
    6.2246    2.6441    1.0930 F   0  0  0  0  0  0  0  0  0  0  0  0
    5.5941    3.4837   -0.8317 F   0  0  0  0  0  0  0  0  0  0  0  0
   -0.7939    0.4265   -0.1745 N   0  0  0  0  0  2  0  0  0  0  0  0
    0.3924    0.9853   -0.2311 N   0  0  0  0  0  2  0  0  0  0  0  0
    1.1792   -0.0652   -0.2639 N   0  0  0  0  0  2  0  0  0  0  0  0
   -5.6162    3.3880    0.0000 N   0  0  0  0  0  0  0  0  0  0  0  0
    6.8177    0.3105   -0.6391 N   0  0  0  0  0  0  0  0  0  0  0  0
   -6.6012    2.9707   -0.6042 O   0  0  0  0  0  0  0  0  0  0  0  0
   -5.5520    4.4523    0.6168 O   0  0  0  0  0  0  0  0  0  0  0  0
    7.4074   -0.7470   -0.4112 O   0  0  0  0  0  0  0  0  0  0  0  0
    7.3435    1.3589   -1.0028 O   0  0  0  0  0  0  0  0  0  0  0  0
   -1.9486    1.1886   -0.1532 C   0  0  0  0  0  0  0  0  0  0  0  0
   -3.1746    0.4978   -0.2544 C   0  0  0  0  0  0  0  0  0  0  0  0
   -3.1418   -0.5894   -0.3841 H   0  0  0  0  0  0  0  0  0  0  0  0
   -4.4043    1.1599   -0.2016 C   0  0  0  0  0  0  0  0  0  0  0  0
   -4.3874    2.5663   -0.0435 C   0  0  0  0  0  0  0  0  0  0  0  0
   -3.1707    3.2626    0.0680 C   0  0  0  0  0  0  0  0  0  0  0  0
   -3.2185    4.3504    0.2120 H   0  0  0  0  0  0  0  0  0  0  0  0
   -1.9509    2.5948    0.0024 C   0  0  0  0  0  0  0  0  0  0  0  0
   -1.0002    3.1384    0.0780 H   0  0  0  0  0  0  0  0  0  0  0  0
   -5.6622    0.2972   -0.2738 C   0  0  0  0  0  0  0  0  0  0  0  0
    2.5541    0.0782   -0.3555 C   0  0  0  0  0  0  0  0  0  0  0  0
    3.1955    1.3052   -0.0618 C   0  0  0  0  0  0  0  0  0  0  0  0
    2.5863    2.1618    0.2494 H   0  0  0  0  0  0  0  0  0  0  0  0
    4.5856    1.4323   -0.1364 C   0  0  0  0  0  0  0  0  0  0  0  0
    5.3448    0.2927   -0.5019 C   0  0  0  0  0  0  0  0  0  0  0  0
    4.7167   -0.9321   -0.7745 C   0  0  0  0  0  0  0  0  0  0  0  0
    5.3520   -1.7871   -1.0406 H   0  0  0  0  0  0  0  0  0  0  0  0
    3.3293   -1.0444   -0.7185 C   0  0  0  0  0  0  0  0  0  0  0  0
    2.8200   -1.9821   -0.9794 H   0  0  0  0  0  0  0  0  0  0  0  0
    5.1880    2.7849    0.2413 C   0  0  0  0  0  0  0  0  0  0  0  0
  2 25  1  0  0  0  0
  6 35  1  0  0  0  0
  7 16  1  0  0  0  0
  8  7  1  0  0  0  0
  9  8  1  0  0  0  0
 10 13  2  0  0  0  0
 11 30  1  0  0  0  0
 11 14  2  0  0  0  0
 12 10  2  0  0  0  0
 15 11  2  0  0  0  0
 16 23  1  0  0  0  0
 17 19  1  0  0  0  0
 17 16  2  0  0  0  0
 18 17  1  0  0  0  0
 19 20  2  0  0  0  0
 20 10  1  0  0  0  0
 20 21  1  0  0  0  0
 21 22  1  0  0  0  0
 23 21  2  0  0  0  0
 23 24  1  0  0  0  0
 25 19  1  0  0  0  0
 25  3  1  0  0  0  0
 25  1  1  0  0  0  0
 26  9  1  0  0  0  0
 26 27  1  0  0  0  0
 27 28  1  0  0  0  0
 29 27  2  0  0  0  0
 29 35  1  0  0  0  0
 30 29  1  0  0  0  0
 31 33  1  0  0  0  0
 31 30  2  0  0  0  0
 32 31  1  0  0  0  0
 33 26  2  0  0  0  0
 34 33  1  0  0  0  0
 35  4  1  0  0  0  0
 35  5  1  0  0  0  0
M  END
