1,3,5,18,22
q = -2.0, confidence = 0.79

 34 33  0  0  1  0  0  0  0  0999 V2000
    0.5052    2.0121   -0.8896 O   0  5  0  0  0  0  0  0  0  0  0  0
    0.0583    4.0776   -0.1001 O   0  0  0  0  0  0  0  0  0  0  0  0
   -2.5512   -0.2252   -1.1976 O   0  0  0  0  0  1  0  0  0  0  0  0
   -4.3950   -0.6918    0.0092 O   0  0  0  0  0  0  0  0  0  0  0  0
   -1.3505    1.0183    0.9991 N   0  0  0  0  0  0  0  0  0  0  0  0
   -1.5312    2.3497    0.3972 C   0  0  0  0  0  0  0  0  0  0  0  0
   -0.2115    2.8880   -0.2401 C   0  0  0  0  0  0  0  0  0  0  0  0
   -2.5778    0.2684    1.1912 C   0  0  0  0  0  0  0  0  0  0  0  0
   -3.1478   -0.2262   -0.1291 C   0  0  1  0  0  3  0  0  0  0  0  0
   -0.4859    1.0687    2.1870 C   0  0  0  0  0  0  0  0  0  0  0  0
   -4.6614   -1.0483   -0.8676 H   0  0  0  0  0  0  0  0  0  0  0  0
   -1.8926    3.0991    1.1368 H   0  0  0  0  0  0  0  0  0  0  0  0
   -2.2869    2.2734   -0.4116 H   0  0  0  0  0  0  0  0  0  0  0  0
   -2.3729   -0.6477    1.7865 H   0  0  0  0  0  0  0  0  0  0  0  0
   -3.3720    0.8318    1.7391 H   0  0  0  0  0  0  0  0  0  0  0  0
    0.1797    1.9476    2.0682 H   0  0  0  0  0  0  0  0  0  0  0  0
   -1.0764    1.2641    3.1137 H   0  0  0  0  0  0  0  0  0  0  0  0
   -0.3883   -2.2410   -0.1870 O   0  5  0  0  0  0  0  0  0  0  0  0
    0.4329   -2.8223    0.6488 C   0  0  0  0  0  0  0  0  0  0  0  0
    0.4147   -4.0019    0.9833 O   0  0  0  0  0  0  0  0  0  0  0  0
    1.5801   -1.9308    1.2171 C   0  0  0  0  0  0  0  0  0  0  0  0
    1.2619   -0.4970    1.2829 N   0  0  0  0  0  0  0  0  0  0  0  0
    0.3493   -0.1968    2.3935 C   0  0  0  0  0  0  0  0  0  0  0  0
    2.4176    0.3812    1.2065 C   0  0  0  0  0  0  0  0  0  0  0  0
    3.0222    0.4032   -0.1895 C   0  0  0  0  0  0  0  0  0  0  0  0
    2.5632   -0.1709   -1.1689 O   0  0  0  0  0  0  0  0  0  0  0  0
    4.1409    1.1355   -0.2272 O   0  0  0  0  0  0  0  0  0  0  0  0
    4.4285    1.1633   -1.1664 H   0  0  0  0  0  0  0  0  0  0  0  0
    2.1180    1.4294    1.4139 H   0  0  0  0  0  0  0  0  0  0  0  0
    3.2236    0.1303    1.9396 H   0  0  0  0  0  0  0  0  0  0  0  0
   -0.3215   -1.0737    2.5024 H   0  0  0  0  0  0  0  0  0  0  0  0
    0.8986   -0.1098    3.3625 H   0  0  0  0  0  0  0  0  0  0  0  0
    1.8789   -2.3418    2.2080 H   0  0  0  0  0  0  0  0  0  0  0  0
    2.4410   -2.0698    0.5326 H   0  0  0  0  0  0  0  0  0  0  0  0
  1  7  1  0  0  0  0
  5  8  1  0  0  0  0
  5 10  1  0  0  0  0
  6  5  1  0  0  0  0
  6 12  1  0  0  0  0
  7  2  2  0  0  0  0
  7  6  1  0  0  0  0
  8 15  1  0  0  0  0
  8 14  1  0  0  0  0
  9  3  1  1  0  0  0
  9  4  1  0  0  0  0
  9  8  1  0  0  0  0
 10 23  1  0  0  0  0
 10 17  1  0  0  0  0
 11  4  1  0  0  0  0
 13  6  1  0  0  0  0
 16 10  1  0  0  0  0
 18 19  1  0  0  0  0
 19 20  2  0  0  0  0
 19 21  1  0  0  0  0
 21 22  1  0  0  0  0
 21 33  1  0  0  0  0
 22 23  1  0  0  0  0
 23 31  1  0  0  0  0
 23 32  1  0  0  0  0
 24 22  1  0  0  0  0
 24 29  1  0  0  0  0
 24 30  1  0  0  0  0
 25 24  1  0  0  0  0
 26 25  2  0  0  0  0
 27 25  1  0  0  0  0
 28 27  1  0  0  0  0
 34 21  1  0  0  0  0
M  CHG  2   1  -1  18  -1
M  END
