1,2,3,6,7
q = -3.0

 51 52  0  0  0  0  0  0  0  0999 V2000
   -0.5124   -1.7339    0.4748 O   0  5  0  0  0  0  0  0  0  0  0  0
    0.5330    0.6155    0.4637 O   0  5  0  0  0  0  0  0  0  0  0  0
    2.3766   -2.5572    0.8201 O   0  0  0  0  0  1  0  0  0  0  0  0
   -3.0478   -1.3581    0.9942 O   0  0  0  0  0  0  0  0  0  0  0  0
   -1.3027    2.4388    0.0625 O   0  0  0  0  0  0  0  0  0  0  0  0
    1.5100   -1.5750   -1.3246 N   0  0  0  0  0  2  0  0  0  0  0  0
    3.0700   -0.1311    0.5550 N   0  0  0  0  0  2  0  0  0  0  0  0
   -1.2792   -1.4423   -0.5531 C   0  0  0  0  0  0  0  0  0  0  0  0
   -2.6855   -1.2561   -0.3041 C   0  0  0  0  0  0  0  0  0  0  0  0
   -4.4160   -1.1833    1.3434 C   0  0  0  0  0  0  0  0  0  0  0  0
   -4.5310   -1.3231    2.8493 C   0  0  0  0  0  0  0  0  0  0  0  0
   -3.5610   -0.9823   -1.3660 C   0  0  0  0  0  0  0  0  0  0  0  0
   -3.0807   -0.8963   -2.6908 C   0  0  0  0  0  0  0  0  0  0  0  0
   -1.7278   -1.0864   -2.9579 C   0  0  0  0  0  0  0  0  0  0  0  0
   -0.8142   -1.3380   -1.9037 C   0  0  0  0  0  0  0  0  0  0  0  0
    0.5751   -1.6439   -2.2089 C   0  0  0  0  0  3  0  0  0  0  0  0
    2.8292   -2.1377   -1.5255 C   0  0  0  0  0  0  0  0  0  0  0  0
    3.4146   -2.3682   -0.0948 C   0  0  0  0  0  0  0  0  0  0  0  0
    4.1376   -1.1195    0.4352 C   0  0  0  0  0  0  0  0  0  0  0  0
    3.3165    1.1222    0.2930 C   0  0  0  0  0  3  0  0  0  0  0  0
    2.3408    2.1683    0.1924 C   0  0  0  0  0  0  0  0  0  0  0  0
    2.7432    3.5133   -0.0500 C   0  0  0  0  0  0  0  0  0  0  0  0
    1.7881    4.5012   -0.2363 C   0  0  0  0  0  0  0  0  0  0  0  0
    0.4072    4.1758   -0.2037 C   0  0  0  0  0  0  0  0  0  0  0  0
   -0.0179    2.8633    0.0239 C   0  0  0  0  0  0  0  0  0  0  0  0
   -2.3429    3.3780   -0.1771 C   0  0  0  0  0  0  0  0  0  0  0  0
   -3.6613    2.6319   -0.0982 C   0  0  0  0  0  0  0  0  0  0  0  0
    0.9567    1.8230    0.2459 C   0  0  0  0  0  0  0  0  0  0  0  0
   -5.0424   -1.9435    0.8192 H   0  0  0  0  0  0  0  0  0  0  0  0
   -4.7681   -0.1792    1.0081 H   0  0  0  0  0  0  0  0  0  0  0  0
   -5.5841   -1.1949    3.1684 H   0  0  0  0  0  0  0  0  0  0  0  0
   -4.1816   -2.3220    3.1760 H   0  0  0  0  0  0  0  0  0  0  0  0
   -3.9103   -0.5602    3.3587 H   0  0  0  0  0  0  0  0  0  0  0  0
   -4.6319   -0.8349   -1.1715 H   0  0  0  0  0  0  0  0  0  0  0  0
   -3.7859   -0.6880   -3.5088 H   0  0  0  0  0  0  0  0  0  0  0  0
   -1.3484   -1.0375   -3.9903 H   0  0  0  0  0  0  0  0  0  0  0  0
    0.7882   -2.0073   -3.2422 H   0  0  0  0  0  0  0  0  0  0  0  0
    2.7792   -3.0972   -2.0852 H   0  0  0  0  0  0  0  0  0  0  0  0
    3.4787   -1.4471   -2.1105 H   0  0  0  0  0  0  0  0  0  0  0  0
    4.1020   -3.2452   -0.0934 H   0  0  0  0  0  0  0  0  0  0  0  0
    4.9676   -0.7627   -0.2153 H   0  0  0  0  0  0  0  0  0  0  0  0
    4.5432   -1.3620    1.4410 H   0  0  0  0  0  0  0  0  0  0  0  0
    4.3695    1.4137    0.0899 H   0  0  0  0  0  0  0  0  0  0  0  0
    3.8177    3.7507   -0.0877 H   0  0  0  0  0  0  0  0  0  0  0  0
    2.0902    5.5428   -0.4177 H   0  0  0  0  0  0  0  0  0  0  0  0
   -0.3332    4.9720   -0.3622 H   0  0  0  0  0  0  0  0  0  0  0  0
   -2.2070    3.8473   -1.1805 H   0  0  0  0  0  0  0  0  0  0  0  0
   -2.2979    4.1984    0.5781 H   0  0  0  0  0  0  0  0  0  0  0  0
   -3.7882    2.1792    0.9053 H   0  0  0  0  0  0  0  0  0  0  0  0
   -4.5081    3.3209   -0.2862 H   0  0  0  0  0  0  0  0  0  0  0  0
   -3.6874    1.8156   -0.8467 H   0  0  0  0  0  0  0  0  0  0  0  0
  4 10  1  0  0  0  0
  8  9  1  0  0  0  0
  8  1  1  0  0  0  0
  9  4  1  0  0  0  0
 10 11  1  0  0  0  0
 11 31  1  0  0  0  0
 11 32  1  0  0  0  0
 11 33  1  0  0  0  0
 12 34  1  0  0  0  0
 12  9  2  0  0  0  0
 13 12  1  0  0  0  0
 14 13  2  0  0  0  0
 14 15  1  0  0  0  0
 15  8  2  0  0  0  0
 16 15  1  0  0  0  0
 16  6  1  0  0  0  0
 17  6  1  0  0  0  0
 17 18  1  0  0  0  0
 18 40  1  0  0  0  0
 18 19  1  0  0  0  0
 18  3  1  0  0  0  0
 19  7  1  0  0  0  0
 19 42  1  0  0  0  0
 20  7  1  0  0  0  0
 21 28  1  0  0  0  0
 21 20  1  0  0  0  0
 22 21  2  0  0  0  0
 23 24  2  0  0  0  0
 23 22  1  0  0  0  0
 24 25  1  0  0  0  0
 25  5  1  0  0  0  0
 25 28  2  0  0  0  0
 26 27  1  0  0  0  0
 26  5  1  0  0  0  0
 26 48  1  0  0  0  0
 27 49  1  0  0  0  0
 28  2  1  0  0  0  0
 29 10  1  0  0  0  0
 30 10  1  0  0  0  0
 35 13  1  0  0  0  0
 36 14  1  0  0  0  0
 37 16  1  0  0  0  0
 38 17  1  0  0  0  0
 39 17  1  0  0  0  0
 41 19  1  0  0  0  0
 43 20  1  0  0  0  0
 44 22  1  0  0  0  0
 45 23  1  0  0  0  0
 46 24  1  0  0  0  0
 47 26  1  0  0  0  0
 50 27  1  0  0  0  0
 51 27  1  0  0  0  0
M  END
