1,2,4,8,9
q = -3.0

 49 50  0  0  0  0  0  0  0  0999 V2000
   -2.7216   -0.6354   -1.2357 O   0  5  0  0  0  0  0  0  0  0  0  0
   -0.3868    1.2688   -1.2984 O   0  5  0  0  0  0  0  0  0  0  0  0
    0.2457    3.2404   -0.3987 O   0  0  0  0  0  0  0  0  0  0  0  0
   -0.7675   -2.2855    0.2116 O   0  5  0  0  0  0  0  0  0  0  0  0
    0.3781   -3.7506    1.5025 O   0  0  0  0  0  0  0  0  0  0  0  0
    4.5577   -1.6503   -0.5337 O   0  0  0  0  0  0  0  0  0  0  0  0
    5.3969   -2.0927   -0.3111 H   0  0  0  0  0  0  0  0  0  0  0  0
   -1.2691    0.4218    1.1373 N   0  0  0  0  0  0  0  0  0  0  0  0
    1.3172   -0.6190    0.0024 N   0  0  0  0  0  0  0  0  0  0  0  0
   -3.7511   -0.1208   -0.5979 C   0  0  0  0  0  0  0  0  0  0  0  0
   -4.9429    0.1726   -1.3210 C   0  0  0  0  0  0  0  0  0  0  0  0
   -4.9369   -0.0550   -2.3976 H   0  0  0  0  0  0  0  0  0  0  0  0
   -6.0667    0.7220   -0.6963 C   0  0  0  0  0  0  0  0  0  0  0  0
   -6.9701    0.9341   -1.2919 H   0  0  0  0  0  0  0  0  0  0  0  0
   -6.0471    1.0093    0.6799 C   0  0  0  0  0  0  0  0  0  0  0  0
   -6.9255    1.4467    1.1785 H   0  0  0  0  0  0  0  0  0  0  0  0
   -4.8793    0.7320    1.4083 C   0  0  0  0  0  0  0  0  0  0  0  0
   -4.8429    0.9556    2.4884 H   0  0  0  0  0  0  0  0  0  0  0  0
   -3.7377    0.1701    0.8098 C   0  0  0  0  0  0  0  0  0  0  0  0
   -2.5273   -0.1576    1.6495 C   0  0  0  0  0  0  0  0  0  0  0  0
   -2.7196    0.1712    2.7026 H   0  0  0  0  0  0  0  0  0  0  0  0
   -2.3629   -1.2570    1.6597 H   0  0  0  0  0  0  0  0  0  0  0  0
   -1.3139    1.8500    0.8253 C   0  0  0  0  0  0  0  0  0  0  0  0
   -1.0432    2.4947    1.6954 H   0  0  0  0  0  0  0  0  0  0  0  0
   -2.3515    2.1053    0.5252 H   0  0  0  0  0  0  0  0  0  0  0  0
   -0.3993    2.1876   -0.3735 C   0  0  0  0  0  0  0  0  0  0  0  0
   -0.1200    0.0598    1.9665 C   0  0  0  0  0  0  0  0  0  0  0  0
   -0.2584   -0.9806    2.3185 H   0  0  0  0  0  0  0  0  0  0  0  0
   -0.0680    0.7033    2.8838 H   0  0  0  0  0  0  0  0  0  0  0  0
    1.2113    0.2079    1.2253 C   0  0  0  0  0  0  0  0  0  0  0  0
    1.3514    1.2671    0.9403 H   0  0  0  0  0  0  0  0  0  0  0  0
    2.0426   -0.0321    1.9288 H   0  0  0  0  0  0  0  0  0  0  0  0
    1.5923   -2.0326    0.3180 C   0  0  0  0  0  0  0  0  0  0  0  0
    2.3855   -2.1532    1.0884 H   0  0  0  0  0  0  0  0  0  0  0  0
    1.9454   -2.5227   -0.6105 H   0  0  0  0  0  0  0  0  0  0  0  0
    0.3148   -2.7817    0.7489 C   0  0  0  0  0  0  0  0  0  0  0  0
    2.2515   -0.0241   -1.0070 C   0  0  0  0  0  0  0  0  0  0  0  0
    1.6978    0.8051   -1.4878 H   0  0  0  0  0  0  0  0  0  0  0  0
    2.4044   -0.8001   -1.7787 H   0  0  0  0  0  0  0  0  0  0  0  0
    3.5600    0.5120   -0.4688 C   0  0  0  0  0  0  0  0  0  0  0  0
    4.6800   -0.3231   -0.2339 C   0  0  0  0  0  0  0  0  0  0  0  0
    5.8769    0.2120    0.2808 C   0  0  0  0  0  0  0  0  0  0  0  0
    6.7367   -0.4575    0.4566 H   0  0  0  0  0  0  0  0  0  0  0  0
    5.9760    1.5830    0.5616 C   0  0  0  0  0  0  0  0  0  0  0  0
    6.9176    1.9870    0.9655 H   0  0  0  0  0  0  0  0  0  0  0  0
    4.8824    2.4279    0.3213 C   0  0  0  0  0  0  0  0  0  0  0  0
    4.9533    3.5057    0.5302 H   0  0  0  0  0  0  0  0  0  0  0  0
    3.6929    1.8874   -0.1941 C   0  0  0  0  0  0  0  0  0  0  0  0
    2.8250    2.5398   -0.3953 H   0  0  0  0  0  0  0  0  0  0  0  0
  1 10  1  0  0  0  0
  2 26  1  0  0  0  0
  3 26  2  0  0  0  0
  4 36  1  0  0  0  0
  6  7  1  0  0  0  0
  6 41  1  0  0  0  0
  8 20  1  0  0  0  0
  8 27  1  0  0  0  0
  9 33  1  0  0  0  0
  9 30  1  0  0  0  0
 10 19  1  0  0  0  0
 11 13  1  0  0  0  0
 11 10  2  0  0  0  0
 12 11  1  0  0  0  0
 13 15  2  0  0  0  0
 14 13  1  0  0  0  0
 15 16  1  0  0  0  0
 15 17  1  0  0  0  0
 17 18  1  0  0  0  0
 19 17  2  0  0  0  0
 19 20  1  0  0  0  0
 20 22  1  0  0  0  0
 20 21  1  0  0  0  0
 23  8  1  0  0  0  0
 23 24  1  0  0  0  0
 25 23  1  0  0  0  0
 26 23  1  0  0  0  0
 27 28  1  0  0  0  0
 27 29  1  0  0  0  0
 30 32  1  0  0  0  0
 30 27  1  0  0  0  0
 31 30  1  0  0  0  0
 33 36  1  0  0  0  0
 33 34  1  0  0  0  0
 35 33  1  0  0  0  0
 36  5  2  0  0  0  0
 37 40  1  0  0  0  0
 37  9  1  0  0  0  0
 38 37  1  0  0  0  0
 39 37  1  0  0  0  0
 40 41  2  0  0  0  0
 40 48  1  0  0  0  0
 41 42  1  0  0  0  0
 42 43  1  0  0  0  0
 42 44  2  0  0  0  0
 44 45  1  0  0  0  0
 46 47  1  0  0  0  0
 46 44  1  0  0  0  0
 48 46  2  0  0  0  0
 49 48  1  0  0  0  0
M  END
