1,2,3,4,5
q = -1.0

 43 44  0  0  0  0  0  0  0  0999 V2000
   -0.4406    0.6778   -1.1392 O   0  5  0  0  0  0  0  0  0  0  0  0
   -0.9602   -1.8462   -0.8727 O   0  5  0  0  0  0  0  0  0  0  0  0
    1.8687   -2.0442   -0.2511 O   0  0  0  0  0  1  0  0  0  0  0  0
    2.1875    0.5280   -0.6287 N   0  0  0  0  0  2  0  0  0  0  0  0
    0.1506   -0.5344    1.3031 N   0  0  0  0  0  2  0  0  0  0  0  0
   -0.4145    1.8746   -0.6284 C   0  0  0  0  0  0  0  0  0  0  0  0
   -1.6182    2.6309   -0.5307 C   0  0  0  0  0  0  0  0  0  0  0  0
   -1.6035    3.9216   -0.0083 C   0  0  0  0  0  0  0  0  0  0  0  0
   -0.3985    4.5300    0.4211 C   0  0  0  0  0  0  0  0  0  0  0  0
    0.7915    3.8174    0.3182 C   0  0  0  0  0  0  0  0  0  0  0  0
    0.8078    2.4890   -0.1839 C   0  0  0  0  0  0  0  0  0  0  0  0
    2.0515    1.7869   -0.3212 C   0  0  0  0  0  3  0  0  0  0  0  0
    3.5319   -0.0360   -0.7206 C   0  0  0  0  0  0  0  0  0  0  0  0
    3.8612   -0.8843    0.5131 C   0  0  0  0  0  0  0  0  0  0  0  0
    2.7656   -1.9596    0.8183 C   0  0  0  0  0  0  0  0  0  0  0  0
    2.0757   -1.7406    2.1795 C   0  0  0  0  0  0  0  0  0  0  0  0
    1.2251   -0.4662    2.2709 C   0  0  0  0  0  0  0  0  0  0  0  0
   -1.0715   -0.5227    1.7233 C   0  0  0  0  0  3  0  0  0  0  0  0
   -2.2355   -0.8027    0.9021 C   0  0  0  0  0  0  0  0  0  0  0  0
   -3.5219   -0.4940    1.4064 C   0  0  0  0  0  0  0  0  0  0  0  0
   -4.6803   -0.8387    0.7097 C   0  0  0  0  0  0  0  0  0  0  0  0
   -4.5645   -1.5444   -0.5070 C   0  0  0  0  0  0  0  0  0  0  0  0
   -3.3117   -1.8848   -1.0185 C   0  0  0  0  0  0  0  0  0  0  0  0
   -2.1181   -1.5098   -0.3453 C   0  0  0  0  0  0  0  0  0  0  0  0
   -2.5477    2.1513   -0.8691 H   0  0  0  0  0  0  0  0  0  0  0  0
   -2.5499    4.4796    0.0701 H   0  0  0  0  0  0  0  0  0  0  0  0
   -0.4053    5.5527    0.8243 H   0  0  0  0  0  0  0  0  0  0  0  0
    1.7440    4.2730    0.6348 H   0  0  0  0  0  0  0  0  0  0  0  0
    2.9763    2.3804   -0.1497 H   0  0  0  0  0  0  0  0  0  0  0  0
    3.5678   -0.6609   -1.6348 H   0  0  0  0  0  0  0  0  0  0  0  0
    4.2833    0.7770   -0.8274 H   0  0  0  0  0  0  0  0  0  0  0  0
    4.8392   -1.3760    0.3385 H   0  0  0  0  0  0  0  0  0  0  0  0
    3.9963   -0.2159    1.3902 H   0  0  0  0  0  0  0  0  0  0  0  0
    3.2732   -2.9506    0.8794 H   0  0  0  0  0  0  0  0  0  0  0  0
    1.4246   -2.6149    2.3882 H   0  0  0  0  0  0  0  0  0  0  0  0
    2.8557   -1.7196    2.9707 H   0  0  0  0  0  0  0  0  0  0  0  0
    1.8541    0.4244    2.0513 H   0  0  0  0  0  0  0  0  0  0  0  0
    0.8346   -0.3426    3.3094 H   0  0  0  0  0  0  0  0  0  0  0  0
   -1.2763   -0.3267    2.8036 H   0  0  0  0  0  0  0  0  0  0  0  0
   -3.5928    0.0338    2.3714 H   0  0  0  0  0  0  0  0  0  0  0  0
   -5.6704   -0.5760    1.1096 H   0  0  0  0  0  0  0  0  0  0  0  0
   -5.4714   -1.8313   -1.0619 H   0  0  0  0  0  0  0  0  0  0  0  0
   -3.2042   -2.4339   -1.9648 H   0  0  0  0  0  0  0  0  0  0  0  0
  1  6  1  0  0  0  0
  2 24  1  0  0  0  0
  3 15  1  0  0  0  0
  4 12  1  0  0  0  0
  5 18  1  0  0  0  0
  5 17  1  0  0  0  0
  6  7  2  0  0  0  0
  6 11  1  0  0  0  0
  7  8  1  0  0  0  0
  8 26  1  0  0  0  0
  8  9  2  0  0  0  0
  9 27  1  0  0  0  0
 10  9  1  0  0  0  0
 10 28  1  0  0  0  0
 11 10  2  0  0  0  0
 12 11  1  0  0  0  0
 12 29  1  0  0  0  0
 13  4  1  0  0  0  0
 13 14  1  0  0  0  0
 14 15  1  0  0  0  0
 14 33  1  0  0  0  0
 15 34  1  0  0  0  0
 15 16  1  0  0  0  0
 16 17  1  0  0  0  0
 16 35  1  0  0  0  0
 16 36  1  0  0  0  0
 17 38  1  0  0  0  0
 18 39  1  0  0  0  0
 19 20  1  0  0  0  0
 19 18  1  0  0  0  0
 20 40  1  0  0  0  0
 21 41  1  0  0  0  0
 21 20  2  0  0  0  0
 22 21  1  0  0  0  0
 23 22  2  0  0  0  0
 23 24  1  0  0  0  0
 24 19  2  0  0  0  0
 25  7  1  0  0  0  0
 30 13  1  0  0  0  0
 31 13  1  0  0  0  0
 32 14  1  0  0  0  0
 37 17  1  0  0  0  0
 42 22  1  0  0  0  0
 43 23  1  0  0  0  0
M  CHG  2   1  -1   2  -1
M  END
