1,2,4,5,10
q = -1.0

 43 44  0  0  1  0  0  0  0  0999 V2000
    1.6207   -0.0470    1.5593 O   0  5  0  0  0  0  0  0  0  0  0  0
    1.1020   -1.5127   -0.6175 N   0  0  0  0  0  2  0  0  0  0  0  0
    2.4373    0.6232    0.7650 C   0  0  0  0  0  0  0  0  0  0  0  0
   -0.3490    0.8907    0.1428 O   0  5  0  0  0  0  0  0  0  0  0  0
   -1.7704   -1.2752   -0.0207 N   0  0  0  0  0  2  0  0  0  0  0  0
    3.1086    1.7496    1.3108 C   0  0  0  0  0  0  0  0  0  0  0  0
    2.9132    1.9815    2.3675 H   0  0  0  0  0  0  0  0  0  0  0  0
    3.9447    2.5452    0.5278 C   0  0  0  0  0  0  0  0  0  0  0  0
    4.4295    3.4279    0.9731 H   0  0  0  0  0  0  0  0  0  0  0  0
   -0.1050   -2.5379    1.3821 O   0  0  0  0  0  1  0  0  0  0  0  0
    4.1604    2.2301   -0.8284 C   0  0  0  0  0  0  0  0  0  0  0  0
    4.8057    2.8640   -1.4538 H   0  0  0  0  0  0  0  0  0  0  0  0
    3.5523    1.0961   -1.3705 C   0  0  0  0  0  0  0  0  0  0  0  0
    3.7300    0.8498   -2.4282 H   0  0  0  0  0  0  0  0  0  0  0  0
    2.6908    0.2701   -0.6095 C   0  0  0  0  0  0  0  0  0  0  0  0
    2.1728   -0.9993   -1.1447 C   0  0  1  0  0  3  0  0  0  0  0  0
    0.7016   -2.8796   -0.8629 C   0  0  0  0  0  0  0  0  0  0  0  0
    0.3254   -3.0394   -1.9007 H   0  0  0  0  0  0  0  0  0  0  0  0
    1.5650   -3.5719   -0.7315 H   0  0  0  0  0  0  0  0  0  0  0  0
   -0.3873   -3.2126    0.1906 C   0  0  2  0  0  0  0  0  0  0  0  0
   -0.4152   -4.3137    0.3624 H   0  0  0  0  0  0  0  0  0  0  0  0
   -1.7802   -2.7212   -0.2245 C   0  0  0  0  0  0  0  0  0  0  0  0
   -2.0312   -3.0012   -1.2722 H   0  0  0  0  0  0  0  0  0  0  0  0
   -2.5439   -3.1884    0.4370 H   0  0  0  0  0  0  0  0  0  0  0  0
   -2.7587   -0.5285   -0.4569 C   0  0  1  0  0  3  0  0  0  0  0  0
   -2.7066    0.9261   -0.3526 C   0  0  0  0  0  0  0  0  0  0  0  0
   -3.8430    1.7469   -0.5872 C   0  0  0  0  0  0  0  0  0  0  0  0
   -4.8303    1.2814   -0.7175 H   0  0  0  0  0  0  0  0  0  0  0  0
   -3.7497    3.1355   -0.6288 C   0  0  0  0  0  0  0  0  0  0  0  0
   -4.6502    3.7451   -0.7905 H   0  0  0  0  0  0  0  0  0  0  0  0
   -2.4879    3.7499   -0.4669 C   0  0  0  0  0  0  0  0  0  0  0  0
   -2.4017    4.8467   -0.5138 H   0  0  0  0  0  0  0  0  0  0  0  0
   -1.3514    2.9823   -0.2312 C   0  0  0  0  0  0  0  0  0  0  0  0
   -0.3608    3.4360   -0.0846 H   0  0  0  0  0  0  0  0  0  0  0  0
   -1.4377    1.5661   -0.1253 C   0  0  0  0  0  0  0  0  0  0  0  0
    2.9529   -1.7473   -2.2016 C   0  0  0  0  0  0  0  0  0  0  0  0
    3.8289   -1.1891   -2.5719 H   0  0  0  0  0  0  0  0  0  0  0  0
    2.3030   -2.0148   -3.0597 H   0  0  0  0  0  0  0  0  0  0  0  0
    3.3225   -2.7046   -1.7747 H   0  0  0  0  0  0  0  0  0  0  0  0
   -3.9350   -1.1956   -1.1293 C   0  0  0  0  0  0  0  0  0  0  0  0
   -3.5987   -1.7251   -2.0447 H   0  0  0  0  0  0  0  0  0  0  0  0
   -4.7199   -0.4841   -1.4290 H   0  0  0  0  0  0  0  0  0  0  0  0
   -4.3814   -1.9631   -0.4644 H   0  0  0  0  0  0  0  0  0  0  0  0
  3  6  1  0  0  0  0
  3  1  1  0  0  0  0
  6  7  1  0  0  0  0
  8  9  1  0  0  0  0
  8  6  2  0  0  0  0
 11  8  1  0  0  0  0
 12 11  1  0  0  0  0
 13 11  2  0  0  0  0
 13 15  1  0  0  0  0
 14 13  1  0  0  0  0
 15  3  2  0  0  0  0
 16  2  1  1  0  0  0
 16 15  1  0  0  0  0
 17 19  1  0  0  0  0
 17  2  1  0  0  0  0
 17 20  1  0  0  0  0
 18 17  1  0  0  0  0
 20 21  1  1  0  0  0
 20 10  1  0  0  0  0
 22  5  1  0  0  0  0
 22 20  1  0  0  0  0
 22 24  1  0  0  0  0
 23 22  1  0  0  0  0
 25 26  1  0  0  0  0
 25  5  1  6  0  0  0
 26 35  1  0  0  0  0
 27 26  2  0  0  0  0
 28 27  1  0  0  0  0
 29 27  1  0  0  0  0
 29 31  2  0  0  0  0
 30 29  1  0  0  0  0
 31 33  1  0  0  0  0
 32 31  1  0  0  0  0
 33 35  2  0  0  0  0
 33 34  1  0  0  0  0
 35  4  1  0  0  0  0
 36 39  1  0  0  0  0
 36 16  1  0  0  0  0
 37 36  1  0  0  0  0
 38 36  1  0  0  0  0
 40 43  1  0  0  0  0
 40 25  1  0  0  0  0
 41 40  1  0  0  0  0
 42 40  1  0  0  0  0
M  CHG  2   1  -1   4  -1
M  END
