1,2,3,5,8
q = -1.0, confidence = 0.434

 27 26  0  0  0  0  0  0  0  0999 V2000
   -1.0647    1.4220    1.2182 O   0  5  0  0  0  0  0  0  0  0  0  0
    1.8217   -1.2728    0.2544 O   0  5  0  0  0  0  0  0  0  0  0  0
   -1.3073   -1.7331    0.6622 O   0  5  0  0  0  0  0  0  0  0  0  0
   -2.4946    2.9014    0.2672 O   0  0  0  0  0  0  0  0  0  0  0  0
   -0.7190    0.1068   -1.2600 N   0  0  0  0  0  0  0  0  0  0  0  0
   -2.5752   -2.9224   -0.7977 O   0  0  0  0  0  0  0  0  0  0  0  0
    3.9721   -1.1522   -0.4480 O   0  0  0  0  0  0  0  0  0  0  0  0
    1.5272    1.4622    0.0937 N   0  0  0  0  0  0  0  0  0  0  0  0
   -1.7441   -2.0582   -0.5141 C   0  0  0  0  0  0  0  0  0  0  0  0
   -1.8148    1.8707    0.2611 C   0  0  0  0  0  0  0  0  0  0  0  0
    2.8736    0.9007    0.1152 C   0  0  0  0  0  0  0  0  0  0  0  0
    3.3262    1.1053    1.1084 H   0  0  0  0  0  0  0  0  0  0  0  0
    3.5474    1.3529   -0.6489 H   0  0  0  0  0  0  0  0  0  0  0  0
    2.9118   -0.6513   -0.0644 C   0  0  0  0  0  0  0  0  0  0  0  0
    0.3598    0.7509   -2.0054 C   0  0  0  0  0  0  0  0  0  0  0  0
    0.0060    1.1618   -2.9853 H   0  0  0  0  0  0  0  0  0  0  0  0
    1.1235   -0.0222   -2.2275 H   0  0  0  0  0  0  0  0  0  0  0  0
   -1.8838    0.9685   -1.0139 C   0  0  0  0  0  0  0  0  0  0  0  0
   -2.7661    0.3129   -0.8646 H   0  0  0  0  0  0  0  0  0  0  0  0
   -2.1114    1.6192   -1.8895 H   0  0  0  0  0  0  0  0  0  0  0  0
    1.0046    1.8956   -1.2043 C   0  0  0  0  0  0  0  0  0  0  0  0
    1.8074    2.3507   -1.8337 H   0  0  0  0  0  0  0  0  0  0  0  0
    0.2476    2.6855   -1.0257 H   0  0  0  0  0  0  0  0  0  0  0  0
   -1.0707   -1.2562   -1.6775 C   0  0  0  0  0  0  0  0  0  0  0  0
   -0.1287   -1.7886   -1.9281 H   0  0  0  0  0  0  0  0  0  0  0  0
   -1.7393   -1.2832   -2.5683 H   0  0  0  0  0  0  0  0  0  0  0  0
    1.3667    2.1847    0.7999 H   0  0  0  0  0  0  0  0  0  0  0  0
  5 18  1  0  0  0  0
  6  9  2  0  0  0  0
  7 14  2  0  0  0  0
  8 11  1  0  0  0  0
  8 27  1  0  0  0  0
  9  3  1  0  0  0  0
 10  4  2  0  0  0  0
 10  1  1  0  0  0  0
 11 12  1  0  0  0  0
 13 11  1  0  0  0  0
 14 11  1  0  0  0  0
 14  2  1  0  0  0  0
 15  5  1  0  0  0  0
 15 21  1  0  0  0  0
 16 15  1  0  0  0  0
 17 15  1  0  0  0  0
 18 19  1  0  0  0  0
 18 10  1  0  0  0  0
 20 18  1  0  0  0  0
 21 23  1  0  0  0  0
 21  8  1  0  0  0  0
 22 21  1  0  0  0  0
 24  5  1  0  0  0  0
 24  9  1  0  0  0  0
 25 24  1  0  0  0  0
 26 24  1  0  0  0  0
M  CHG  3   1  -1   2  -1   3  -1
M  END
