1,2,3,4,5
q = -3.0

 44 45  0  0  0  0  0  0  0  0999 V2000
    0.7823    0.6178   -1.0019 O   0  5  0  0  0  0  0  0  0  0  0  0
   -0.6306   -2.6795   -0.1972 O   0  0  0  0  0  1  0  0  0  0  0  0
   -1.6767   -0.3294   -1.2864 O   0  5  0  0  0  0  0  0  0  0  0  0
    1.8318   -1.6862    0.0229 N   0  0  0  0  0  0  0  0  0  0  0  0
   -0.4604   -0.4847    1.3290 N   0  0  0  0  0  0  0  0  0  0  0  0
    1.9079    1.1916   -0.6032 C   0  0  0  0  0  0  0  0  0  0  0  0
    1.9538    2.5968   -0.4112 C   0  0  0  0  0  0  0  0  0  0  0  0
    3.1264    3.2175    0.0361 C   0  0  0  0  0  0  0  0  0  0  0  0
    4.2772    2.4602    0.3155 C   0  0  0  0  0  0  0  0  0  0  0  0
    4.2401    1.0693    0.1292 C   0  0  0  0  0  0  0  0  0  0  0  0
    3.0810    0.4270   -0.3341 C   0  0  0  0  0  0  0  0  0  0  0  0
    3.0307   -1.0545   -0.5838 C   0  0  0  0  0  0  0  0  0  0  0  0
    1.7659   -1.6262    1.5024 C   0  0  0  0  0  0  0  0  0  0  0  0
    0.8476   -0.5058    1.9997 C   0  0  0  0  0  0  0  0  0  0  0  0
   -1.4059   -1.5173    1.7845 C   0  0  0  0  0  0  0  0  0  0  0  0
   -1.1054   -2.8596    1.0980 C   0  0  0  0  0  0  0  0  0  0  0  0
   -1.0466    0.8725    1.3776 C   0  0  0  0  0  0  0  0  0  0  0  0
   -2.3400    1.0362    0.6142 C   0  0  0  0  0  0  0  0  0  0  0  0
   -3.3570    1.8363    1.1689 C   0  0  0  0  0  0  0  0  0  0  0  0
   -4.5501    2.1070    0.4851 C   0  0  0  0  0  0  0  0  0  0  0  0
   -4.7481    1.5556   -0.7924 C   0  0  0  0  0  0  0  0  0  0  0  0
   -3.7640    0.7465   -1.3645 C   0  0  0  0  0  0  0  0  0  0  0  0
   -2.5503    0.4708   -0.6824 C   0  0  0  0  0  0  0  0  0  0  0  0
    1.7908   -2.6683   -0.2755 H   0  0  0  0  0  0  0  0  0  0  0  0
    1.0466    3.1766   -0.6380 H   0  0  0  0  0  0  0  0  0  0  0  0
    3.1406    4.3101    0.1726 H   0  0  0  0  0  0  0  0  0  0  0  0
    5.1951    2.9481    0.6740 H   0  0  0  0  0  0  0  0  0  0  0  0
    5.1358    0.4615    0.3398 H   0  0  0  0  0  0  0  0  0  0  0  0
    2.9622   -1.2687   -1.6711 H   0  0  0  0  0  0  0  0  0  0  0  0
    3.9552   -1.5365   -0.1941 H   0  0  0  0  0  0  0  0  0  0  0  0
    1.4191   -2.6084    1.8719 H   0  0  0  0  0  0  0  0  0  0  0  0
    2.7809   -1.4625    1.9249 H   0  0  0  0  0  0  0  0  0  0  0  0
    1.3364    0.4673    1.8022 H   0  0  0  0  0  0  0  0  0  0  0  0
    0.7334   -0.5941    3.1079 H   0  0  0  0  0  0  0  0  0  0  0  0
   -1.4066   -1.6157    2.8971 H   0  0  0  0  0  0  0  0  0  0  0  0
   -2.4161   -1.1748    1.4843 H   0  0  0  0  0  0  0  0  0  0  0  0
   -2.0395   -3.4706    1.0735 H   0  0  0  0  0  0  0  0  0  0  0  0
   -0.3790   -3.4611    1.7005 H   0  0  0  0  0  0  0  0  0  0  0  0
   -1.2185    1.1800    2.4375 H   0  0  0  0  0  0  0  0  0  0  0  0
   -0.2819    1.5588    0.9608 H   0  0  0  0  0  0  0  0  0  0  0  0
   -3.1970    2.2628    2.1728 H   0  0  0  0  0  0  0  0  0  0  0  0
   -5.3214    2.7394    0.9486 H   0  0  0  0  0  0  0  0  0  0  0  0
   -5.6797    1.7539   -1.3444 H   0  0  0  0  0  0  0  0  0  0  0  0
   -3.8934    0.2951   -2.3588 H   0  0  0  0  0  0  0  0  0  0  0  0
  1  6  1  0  0  0  0
  2 16  1  0  0  0  0
  3 23  1  0  0  0  0
  4 13  1  0  0  0  0
  5 17  1  0  0  0  0
  5 15  1  0  0  0  0
  5 14  1  0  0  0  0
  6  7  2  0  0  0  0
  6 11  1  0  0  0  0
  7  8  1  0  0  0  0
  8 26  1  0  0  0  0
  8  9  2  0  0  0  0
  9 27  1  0  0  0  0
 10  9  1  0  0  0  0
 10 28  1  0  0  0  0
 11 10  2  0  0  0  0
 12 11  1  0  0  0  0
 12 30  1  0  0  0  0
 12  4  1  0  0  0  0
 13 31  1  0  0  0  0
 13 32  1  0  0  0  0
 13 14  1  0  0  0  0
 14 34  1  0  0  0  0
 15 35  1  0  0  0  0
 16 38  1  0  0  0  0
 16 15  1  0  0  0  0
 17 39  1  0  0  0  0
 18 19  1  0  0  0  0
 18 17  1  0  0  0  0
 19 41  1  0  0  0  0
 20 42  1  0  0  0  0
 20 19  2  0  0  0  0
 21 20  1  0  0  0  0
 22 21  2  0  0  0  0
 22 23  1  0  0  0  0
 23 18  2  0  0  0  0
 24  4  1  0  0  0  0
 25  7  1  0  0  0  0
 29 12  1  0  0  0  0
 33 14  1  0  0  0  0
 36 15  1  0  0  0  0
 37 16  1  0  0  0  0
 40 17  1  0  0  0  0
 43 21  1  0  0  0  0
 44 22  1  0  0  0  0
M  END
