1,2,3,4,5
q = -3.0

 49 51  0  0  0  0  0  0  0  0999 V2000
   -1.3999    0.1707    1.0477 N   0  0  0  0  0  0  0  0  0  0  0  0
    1.2010    0.1417    1.4953 N   0  0  0  0  0  2  0  0  0  0  0  0
    0.0303    1.3626   -1.0373 O   0  5  0  0  0  0  0  0  0  0  0  0
   -0.2888   -1.8018   -0.6070 O   0  5  0  0  0  0  0  0  0  0  0  0
    1.9016   -0.5069   -1.0944 O   0  5  0  0  0  0  0  0  0  0  0  0
    0.3883    0.4790    2.6692 C   0  0  0  0  0  0  0  0  0  0  0  0
    0.8985    1.2310    3.3079 H   0  0  0  0  0  0  0  0  0  0  0  0
    0.2385   -0.4278    3.2977 H   0  0  0  0  0  0  0  0  0  0  0  0
   -0.9290    1.0306    2.1575 C   0  0  0  0  0  0  0  0  0  0  0  0
   -1.6931    1.0960    2.9665 H   0  0  0  0  0  0  0  0  0  0  0  0
   -0.7780    2.0494    1.7523 H   0  0  0  0  0  0  0  0  0  0  0  0
   -1.9033   -1.1187    1.6025 C   0  0  0  0  0  0  0  0  0  0  0  0
   -1.0653   -1.5764    2.1686 H   0  0  0  0  0  0  0  0  0  0  0  0
   -2.7234   -0.9088    2.3279 H   0  0  0  0  0  0  0  0  0  0  0  0
   -2.3781   -2.0740    0.5533 C   0  0  0  0  0  0  0  0  0  0  0  0
   -3.6362   -2.6962    0.6068 C   0  0  0  0  0  0  0  0  0  0  0  0
   -4.3230   -2.4418    1.4307 H   0  0  0  0  0  0  0  0  0  0  0  0
   -4.0186   -3.6322   -0.3650 C   0  0  0  0  0  0  0  0  0  0  0  0
   -5.0056   -4.1145   -0.3113 H   0  0  0  0  0  0  0  0  0  0  0  0
   -3.1281   -3.9435   -1.4092 C   0  0  0  0  0  0  0  0  0  0  0  0
   -3.4184   -4.6756   -2.1786 H   0  0  0  0  0  0  0  0  0  0  0  0
   -1.8758   -3.3260   -1.4863 C   0  0  0  0  0  0  0  0  0  0  0  0
   -1.1675   -3.5495   -2.2971 H   0  0  0  0  0  0  0  0  0  0  0  0
   -1.4841   -2.3798   -0.5065 C   0  0  0  0  0  0  0  0  0  0  0  0
   -2.0961    2.1891   -0.2433 C   0  0  0  0  0  0  0  0  0  0  0  0
   -2.9639    3.2878   -0.1204 C   0  0  0  0  0  0  0  0  0  0  0  0
   -3.9358    3.1424    0.3790 H   0  0  0  0  0  0  0  0  0  0  0  0
   -2.6164    4.5504   -0.6227 C   0  0  0  0  0  0  0  0  0  0  0  0
   -3.3116    5.3965   -0.5213 H   0  0  0  0  0  0  0  0  0  0  0  0
   -1.3699    4.7216   -1.2508 C   0  0  0  0  0  0  0  0  0  0  0  0
   -1.0827    5.7078   -1.6468 H   0  0  0  0  0  0  0  0  0  0  0  0
   -0.4845    3.6458   -1.3724 C   0  0  0  0  0  0  0  0  0  0  0  0
    0.4964    3.7546   -1.8573 H   0  0  0  0  0  0  0  0  0  0  0  0
   -0.8350    2.3659   -0.8765 C   0  0  0  0  0  0  0  0  0  0  0  0
    2.5304    0.0973    1.6704 C   0  0  0  0  0  3  0  0  0  0  0  0
    2.9050    0.3265    2.6870 H   0  0  0  0  0  0  0  0  0  0  0  0
    3.5045   -0.2056    0.6875 C   0  0  0  0  0  0  0  0  0  0  0  0
    3.1363   -0.5011   -0.6849 C   0  0  0  0  0  0  0  0  0  0  0  0
    4.1785   -0.7965   -1.6177 C   0  0  0  0  0  0  0  0  0  0  0  0
    3.8753   -1.0192   -2.6509 H   0  0  0  0  0  0  0  0  0  0  0  0
    5.5093   -0.7972   -1.2276 C   0  0  0  0  0  0  0  0  0  0  0  0
    6.2928   -1.0266   -1.9663 H   0  0  0  0  0  0  0  0  0  0  0  0
    5.8741   -0.5035    0.1160 C   0  0  0  0  0  0  0  0  0  0  0  0
    6.9333   -0.5065    0.4124 H   0  0  0  0  0  0  0  0  0  0  0  0
    4.8896   -0.2149    1.0459 C   0  0  0  0  0  0  0  0  0  0  0  0
    5.1606    0.0138    2.0893 H   0  0  0  0  0  0  0  0  0  0  0  0
   -2.4776    0.8276    0.2582 C   0  0  0  0  0  0  0  0  0  0  0  0
   -2.7080    0.1397   -0.5827 H   0  0  0  0  0  0  0  0  0  0  0  0
   -3.4029    0.9002    0.8770 H   0  0  0  0  0  0  0  0  0  0  0  0
  1 12  1  0  0  0  0
  1  9  1  0  0  0  0
  2 35  1  0  0  0  0
  2  6  1  0  0  0  0
  3 34  1  0  0  0  0
  4 24  1  0  0  0  0
  5 38  1  0  0  0  0
  6  8  1  0  0  0  0
  6  7  1  0  0  0  0
  9  6  1  0  0  0  0
  9 10  1  0  0  0  0
 11  9  1  0  0  0  0
 12 13  1  0  0  0  0
 12 14  1  0  0  0  0
 15 16  1  0  0  0  0
 15 12  1  0  0  0  0
 16 17  1  0  0  0  0
 18 19  1  0  0  0  0
 18 16  2  0  0  0  0
 20 18  1  0  0  0  0
 21 20  1  0  0  0  0
 22 20  2  0  0  0  0
 22 24  1  0  0  0  0
 23 22  1  0  0  0  0
 24 15  2  0  0  0  0
 25 26  1  0  0  0  0
 25 47  1  0  0  0  0
 26 27  1  0  0  0  0
 28 29  1  0  0  0  0
 28 26  2  0  0  0  0
 30 28  1  0  0  0  0
 31 30  1  0  0  0  0
 32 30  2  0  0  0  0
 32 34  1  0  0  0  0
 33 32  1  0  0  0  0
 34 25  2  0  0  0  0
 35 36  1  0  0  0  0
 37 45  1  0  0  0  0
 37 35  1  0  0  0  0
 38 37  2  0  0  0  0
 39 41  2  0  0  0  0
 39 38  1  0  0  0  0
 40 39  1  0  0  0  0
 41 43  1  0  0  0  0
 42 41  1  0  0  0  0
 43 44  1  0  0  0  0
 43 45  2  0  0  0  0
 45 46  1  0  0  0  0
 47 49  1  0  0  0  0
 47  1  1  0  0  0  0
 48 47  1  0  0  0  0
M  END
