1,3,5,9,10
q = -1.0

 33 32  0  0  0  0  0  0  0  0999 V2000
    0.1986   -1.7519    0.9087 O   0  5  0  0  0  0  0  0  0  0  0  0
    0.1341   -3.7229   -0.1838 O   0  0  0  0  0  0  0  0  0  0  0  0
    2.4007   -0.0842    1.1250 O   0  5  0  0  0  0  0  0  0  0  0  0
    4.4719    0.2002    0.2901 O   0  0  0  0  0  0  0  0  0  0  0  0
    0.8560    1.9448    0.2743 O   0  5  0  0  0  0  0  0  0  0  0  0
   -0.1620    3.7935   -0.5174 O   0  0  0  0  0  0  0  0  0  0  0  0
   -4.5846   -0.8885    0.8816 O   0  0  0  0  0  0  0  0  0  0  0  0
   -4.0371    0.2256   -1.0113 O   0  0  0  0  0  0  0  0  0  0  0  0
    1.2555   -0.4065   -1.1628 N   0  0  0  0  0  0  0  0  0  0  0  0
   -1.2793    0.3488   -0.1682 N   0  0  0  0  0  0  0  0  0  0  0  0
    0.2351    0.0929   -2.1130 C   0  0  0  0  0  0  0  0  0  0  0  0
   -1.1467   -0.2103   -1.5540 C   0  0  0  0  0  0  0  0  0  0  0  0
    1.3788   -1.8938   -1.1582 C   0  0  0  0  0  0  0  0  0  0  0  0
    0.4910   -2.5581   -0.0884 C   0  0  0  0  0  0  0  0  0  0  0  0
    2.5859    0.2502   -1.2359 C   0  0  0  0  0  0  0  0  0  0  0  0
    3.2645    0.1164    0.1471 C   0  0  0  0  0  0  0  0  0  0  0  0
   -1.4976    1.8223   -0.1740 C   0  0  0  0  0  0  0  0  0  0  0  0
   -0.1766    2.6213   -0.1709 C   0  0  0  0  0  0  0  0  0  0  0  0
   -2.3037   -0.3695    0.6087 C   0  0  0  0  0  0  0  0  0  0  0  0
   -3.7138   -0.2911    0.0416 C   0  0  0  0  0  0  0  0  0  0  0  0
   -5.4682   -0.8226    0.4565 H   0  0  0  0  0  0  0  0  0  0  0  0
    0.3570   -0.3754   -3.1146 H   0  0  0  0  0  0  0  0  0  0  0  0
    0.3857    1.1827   -2.2356 H   0  0  0  0  0  0  0  0  0  0  0  0
   -1.9468    0.1925   -2.2060 H   0  0  0  0  0  0  0  0  0  0  0  0
   -1.3003   -1.3057   -1.4867 H   0  0  0  0  0  0  0  0  0  0  0  0
    1.1627   -2.3156   -2.1608 H   0  0  0  0  0  0  0  0  0  0  0  0
    2.4256   -2.1553   -0.9066 H   0  0  0  0  0  0  0  0  0  0  0  0
    2.4373    1.3300   -1.4275 H   0  0  0  0  0  0  0  0  0  0  0  0
    3.2194   -0.1867   -2.0349 H   0  0  0  0  0  0  0  0  0  0  0  0
   -2.1431    2.1355   -1.0179 H   0  0  0  0  0  0  0  0  0  0  0  0
   -2.0378    2.0972    0.7552 H   0  0  0  0  0  0  0  0  0  0  0  0
   -1.9914   -1.4300    0.7175 H   0  0  0  0  0  0  0  0  0  0  0  0
   -2.3285    0.0375    1.6391 H   0  0  0  0  0  0  0  0  0  0  0  0
  2 14  2  0  0  0  0
  6 18  2  0  0  0  0
  8 20  2  0  0  0  0
  9 13  1  0  0  0  0
 10 19  1  0  0  0  0
 11 12  1  0  0  0  0
 11  9  1  0  0  0  0
 12 25  1  0  0  0  0
 12 10  1  0  0  0  0
 13 27  1  0  0  0  0
 13 14  1  0  0  0  0
 14  1  1  0  0  0  0
 15  9  1  0  0  0  0
 15 16  1  0  0  0  0
 16  4  2  0  0  0  0
 16  3  1  0  0  0  0
 17 18  1  0  0  0  0
 17 10  1  0  0  0  0
 17 31  1  0  0  0  0
 18  5  1  0  0  0  0
 19 32  1  0  0  0  0
 19 33  1  0  0  0  0
 20 19  1  0  0  0  0
 20  7  1  0  0  0  0
 21  7  1  0  0  0  0
 22 11  1  0  0  0  0
 23 11  1  0  0  0  0
 24 12  1  0  0  0  0
 26 13  1  0  0  0  0
 28 15  1  0  0  0  0
 29 15  1  0  0  0  0
 30 17  1  0  0  0  0
M  CHG  3   1  -1   3  -1   5  -1
M  END
