1,3
q = -1.0

 27 28  0  0  1  0  0  0  0  0999 V2000
   -0.1227   -0.6108    1.7449 Si  0  0  2  0  0  3  0  0  0  0  0  0
   -0.5131    1.6611   -0.0011 N   0  0  0  0  0  0  0  0  0  0  0  0
   -2.1845   -0.7913   -0.2218 N   0  0  0  0  0  2  0  0  0  0  0  0
   -0.2399    1.0934    2.2393 O   0  0  0  0  0  0  0  0  0  0  0  0
   -1.7930   -1.1358    2.0476 O   0  0  0  0  0  0  0  0  0  0  0  0
    0.7982   -1.3836    3.1765 C   0  0  0  0  0  0  0  0  0  0  0  0
    1.8217   -0.9704    3.2650 H   0  0  0  0  0  0  0  0  0  0  0  0
    0.8744   -2.4806    3.0426 H   0  0  0  0  0  0  0  0  0  0  0  0
    0.2513   -1.1777    4.1187 H   0  0  0  0  0  0  0  0  0  0  0  0
   -0.4958    2.0147    1.3152 C   0  0  0  0  0  0  0  0  0  0  0  0
   -0.7392    3.3524    1.7044 C   0  0  0  0  0  0  0  0  0  0  0  0
   -0.7141    3.5965    2.7747 H   0  0  0  0  0  0  0  0  0  0  0  0
   -1.0020    4.3064    0.7220 C   0  0  0  0  0  0  0  0  0  0  0  0
   -1.1927    5.3514    1.0109 H   0  0  0  0  0  0  0  0  0  0  0  0
   -1.0244    3.9241   -0.6329 C   0  0  0  0  0  0  0  0  0  0  0  0
   -1.2305    4.6478   -1.4332 H   0  0  0  0  0  0  0  0  0  0  0  0
   -0.7746    2.5891   -0.9499 C   0  0  0  0  0  0  0  0  0  0  0  0
   -0.7672    2.1940   -1.9830 H   0  0  0  0  0  0  0  0  0  0  0  0
   -2.6432   -1.0914    1.0325 C   0  0  1  0  0  3  0  0  0  0  0  0
   -4.0146   -1.3527    1.2550 C   0  0  0  0  0  0  0  0  0  0  0  0
   -4.3333   -1.5890    2.2788 H   0  0  0  0  0  0  0  0  0  0  0  0
   -4.9029   -1.2978    0.1838 C   0  0  0  0  0  0  0  0  0  0  0  0
   -5.9729   -1.4990    0.3464 H   0  0  0  0  0  0  0  0  0  0  0  0
   -4.4193   -0.9818   -1.0996 C   0  0  0  0  0  0  0  0  0  0  0  0
   -5.0855   -0.9275   -1.9712 H   0  0  0  0  0  0  0  0  0  0  0  0
   -3.0579   -0.7371   -1.2602 C   0  0  0  0  0  0  0  0  0  0  0  0
   -2.5917   -0.4888   -2.2304 H   0  0  0  0  0  0  0  0  0  0  0  0
  1  5  1  1  0  0  0
  1  4  1  0  0  0  0
  1  6  1  0  0  0  0
  2 10  1  0  0  0  0
  3 19  1  0  0  0  0
  6  7  1  0  0  0  0
  6  9  1  0  0  0  0
  8  6  1  0  0  0  0
 10 11  2  0  0  0  0
 10  4  1  0  0  0  0
 11 12  1  0  0  0  0
 13 14  1  0  0  0  0
 13 11  1  0  0  0  0
 15 13  2  0  0  0  0
 16 15  1  0  0  0  0
 17 15  1  0  0  0  0
 17  2  2  0  0  0  0
 18 17  1  0  0  0  0
 19 20  1  0  0  0  0
 19  5  1  1  0  0  0
 20 21  1  0  0  0  0
 22 23  1  0  0  0  0
 22 20  2  0  0  0  0
 24 22  1  0  0  0  0
 25 24  1  0  0  0  0
 26 24  2  0  0  0  0
 26  3  1  0  0  0  0
 27 26  1  0  0  0  0
M  END
