1,2
q = -1

 22 22  0  0  0  0  0  0  0  0999 V2000
   -0.5322    1.7375    1.4097 Si  0  0  0  0  0  3  0  0  0  0  0  0
   -1.6998    0.3941   -0.9842 N   0  0  0  0  0  2  0  0  0  0  0  0
   -2.1399   -0.4719   -1.9342 C   0  0  0  0  0  3  0  0  0  0  0  0
   -3.4045   -0.4042   -2.5203 C   0  0  0  0  0  0  0  0  0  0  0  0
   -4.2759    0.6221   -2.1242 C   0  0  0  0  0  0  0  0  0  0  0  0
   -3.8127    1.5521   -1.1879 C   0  0  0  0  0  0  0  0  0  0  0  0
   -2.5198    1.4412   -0.6387 C   0  0  0  0  0  0  0  0  0  0  0  0
   -1.9680    2.4559    0.3060 C   0  0  0  0  0  0  0  0  0  0  0  0
   -1.2265    1.6551    3.1911 C   0  0  0  0  0  0  0  0  0  0  0  0
    0.7015    3.2100    1.4944 C   0  0  0  0  0  0  0  0  0  0  0  0
   -1.4350   -1.2651   -2.2187 H   0  0  0  0  0  0  0  0  0  0  0  0
   -3.6959   -1.1543   -3.2693 H   0  0  0  0  0  0  0  0  0  0  0  0
   -5.2885    0.7035   -2.5469 H   0  0  0  0  0  0  0  0  0  0  0  0
   -4.4467    2.3919   -0.8687 H   0  0  0  0  0  0  0  0  0  0  0  0
   -2.7800    2.9607    0.8690 H   0  0  0  0  0  0  0  0  0  0  0  0
   -1.4762    3.2531   -0.2991 H   0  0  0  0  0  0  0  0  0  0  0  0
   -1.5705    2.6714    3.4797 H   0  0  0  0  0  0  0  0  0  0  0  0
   -2.0861    0.9664    3.2980 H   0  0  0  0  0  0  0  0  0  0  0  0
   -0.4515    1.3468    3.9196 H   0  0  0  0  0  0  0  0  0  0  0  0
    1.6655    2.9399    1.9695 H   0  0  0  0  0  0  0  0  0  0  0  0
    0.9312    3.6092    0.4862 H   0  0  0  0  0  0  0  0  0  0  0  0
    0.2568    4.0342    2.0922 H   0  0  0  0  0  0  0  0  0  0  0  0
  1 10  1  0  0  0  0
  1  9  1  0  0  0  0
  2  7  1  0  0  0  0
  3  2  1  0  0  0  0
  4  5  2  0  0  0  0
  4  3  1  0  0  0  0
  5  6  1  0  0  0  0
  6 14  1  0  0  0  0
  6  7  2  0  0  0  0
  7  8  1  0  0  0  0
  8 15  1  0  0  0  0
  8  1  1  0  0  0  0
  9 18  1  0  0  0  0
  9 17  1  0  0  0  0
  9 19  1  0  0  0  0
 10 20  1  0  0  0  0
 10 22  1  0  0  0  0
 11  3  1  0  0  0  0
 12  4  1  0  0  0  0
 13  5  1  0  0  0  0
 16  8  1  0  0  0  0
 21 10  1  0  0  0  0
M  END
