1,3
q = -1.0, confidence = 0.0

 20 20  0  0  1  0  0  0  0  0999 V2000
    0.2333    2.0463   -0.1861 Si  0  0  0  0  0  3  0  0  0  0  0  0
    1.8641    1.7180    0.5602 O   0  0  0  0  0  0  0  0  0  0  0  0
    1.5113   -0.3996   -0.2906 N   0  0  0  0  0  2  0  0  0  0  0  0
    0.7352    2.9340   -1.7917 C   0  0  0  0  0  0  0  0  0  0  0  0
    1.3176    3.8552   -1.5830 H   0  0  0  0  0  0  0  0  0  0  0  0
   -0.1690    3.2169   -2.3704 H   0  0  0  0  0  0  0  0  0  0  0  0
    1.3408    2.2710   -2.4416 H   0  0  0  0  0  0  0  0  0  0  0  0
   -0.3915    3.4390    0.9420 C   0  0  0  0  0  0  0  0  0  0  0  0
   -0.5868    3.1194    1.9825 H   0  0  0  0  0  0  0  0  0  0  0  0
   -1.3225    3.8788    0.5296 H   0  0  0  0  0  0  0  0  0  0  0  0
    0.3763    4.2405    0.9661 H   0  0  0  0  0  0  0  0  0  0  0  0
    2.3547    0.5374    0.2544 C   0  0  1  0  0  3  0  0  0  0  0  0
    3.7259    0.2435    0.4608 C   0  0  0  0  0  0  0  0  0  0  0  0
    4.3522    1.0192    0.9215 H   0  0  0  0  0  0  0  0  0  0  0  0
    4.2356   -0.9863    0.0517 C   0  0  0  0  0  0  0  0  0  0  0  0
    5.3015   -1.2185    0.1976 H   0  0  0  0  0  0  0  0  0  0  0  0
    3.3773   -1.9141   -0.5708 C   0  0  0  0  0  0  0  0  0  0  0  0
    3.7405   -2.8841   -0.9365 H   0  0  0  0  0  0  0  0  0  0  0  0
    2.0341   -1.5766   -0.7197 C   0  0  0  0  0  0  0  0  0  0  0  0
    1.3169   -2.2594   -1.1965 H   0  0  0  0  0  0  0  0  0  0  0  0
  1  2  1  0  0  0  0
  1  8  1  0  0  0  0
  3 12  1  0  0  0  0
  4  5  1  0  0  0  0
  4  1  1  0  0  0  0
  6  4  1  0  0  0  0
  7  4  1  0  0  0  0
  8 11  1  0  0  0  0
  8  9  1  0  0  0  0
 10  8  1  0  0  0  0
 12 13  1  0  0  0  0
 12  2  1  6  0  0  0
 13 14  1  0  0  0  0
 15 16  1  0  0  0  0
 15 13  2  0  0  0  0
 17 15  1  0  0  0  0
 18 17  1  0  0  0  0
 19 17  2  0  0  0  0
 19  3  1  0  0  0  0
 20 19  1  0  0  0  0
M  END
