1,4
q = -1.0

 33 34  0  0  1  0  0  0  0  0999 V2000
    3.1900   -0.1070   -0.1974 Si  0  0  2  0  0  3  0  0  0  0  0  0
    3.6157    1.5472   -0.6927 O   0  0  0  0  0  0  0  0  0  0  0  0
    3.2468    0.0575    1.5706 O   0  0  0  0  0  0  0  0  0  0  0  0
    1.3339    1.9343   -0.9055 N   0  0  0  0  0  2  0  0  0  0  0  0
    0.9394    0.3475    1.5553 N   0  0  0  0  0  0  0  0  0  0  0  0
    4.7527   -1.0565   -0.5750 C   0  0  0  0  0  0  0  0  0  0  0  0
    4.8610   -1.2046   -1.6672 H   0  0  0  0  0  0  0  0  0  0  0  0
    4.7412   -2.0499   -0.0856 H   0  0  0  0  0  0  0  0  0  0  0  0
    5.6285   -0.4884   -0.2016 H   0  0  0  0  0  0  0  0  0  0  0  0
    2.6203    2.3945   -0.9151 C   0  0  1  0  0  3  0  0  0  0  0  0
    2.8945    3.7589   -1.1549 C   0  0  0  0  0  0  0  0  0  0  0  0
    3.9465    4.0756   -1.1549 H   0  0  0  0  0  0  0  0  0  0  0  0
    1.8511    4.6628   -1.3761 C   0  0  0  0  0  0  0  0  0  0  0  0
    0.5281    4.1582   -1.3431 C   0  0  0  0  0  0  0  0  0  0  0  0
   -0.3353    4.8195   -1.5029 H   0  0  0  0  0  0  0  0  0  0  0  0
    0.3127    2.8066   -1.1089 C   0  0  0  0  0  0  0  0  0  0  0  0
   -0.6921    2.3592   -1.0672 H   0  0  0  0  0  0  0  0  0  0  0  0
    2.1138    6.1199   -1.6394 C   0  0  0  0  0  0  0  0  0  0  0  0
    3.1924    6.3609   -1.5927 H   0  0  0  0  0  0  0  0  0  0  0  0
    1.5810    6.7564   -0.9033 H   0  0  0  0  0  0  0  0  0  0  0  0
    1.7369    6.4101   -2.6422 H   0  0  0  0  0  0  0  0  0  0  0  0
    2.1230    0.3352    2.2276 C   0  0  0  0  0  0  0  0  0  0  0  0
    2.1692    0.6075    3.6130 C   0  0  0  0  0  0  0  0  0  0  0  0
    3.1481    0.5816    4.1114 H   0  0  0  0  0  0  0  0  0  0  0  0
    0.9930    0.9009    4.3125 C   0  0  0  0  0  0  0  0  0  0  0  0
   -0.2201    0.9200    3.5822 C   0  0  0  0  0  0  0  0  0  0  0  0
   -1.1762    1.1490    4.0742 H   0  0  0  0  0  0  0  0  0  0  0  0
   -0.2031    0.6422    2.2195 C   0  0  0  0  0  0  0  0  0  0  0  0
   -1.1128    0.6452    1.5994 H   0  0  0  0  0  0  0  0  0  0  0  0
    1.0085    1.1917    5.7885 C   0  0  0  0  0  0  0  0  0  0  0  0
    0.3690    0.4703    6.3381 H   0  0  0  0  0  0  0  0  0  0  0  0
    0.5982    2.2017    5.9954 H   0  0  0  0  0  0  0  0  0  0  0  0
    2.0301    1.1397    6.2096 H   0  0  0  0  0  0  0  0  0  0  0  0
  1  2  1  6  0  0  0
  1  3  1  0  0  0  0
  3 22  1  0  0  0  0
  5 28  2  0  0  0  0
  5 22  1  0  0  0  0
  6  9  1  0  0  0  0
  6  1  1  0  0  0  0
  6  8  1  0  0  0  0
  7  6  1  0  0  0  0
 10  4  1  0  0  0  0
 10  2  1  1  0  0  0
 11 12  1  0  0  0  0
 11 10  1  0  0  0  0
 13 14  1  0  0  0  0
 13 11  2  0  0  0  0
 14 16  2  0  0  0  0
 15 14  1  0  0  0  0
 16 17  1  0  0  0  0
 16  4  1  0  0  0  0
 18 19  1  0  0  0  0
 18 13  1  0  0  0  0
 18 20  1  0  0  0  0
 21 18  1  0  0  0  0
 22 23  2  0  0  0  0
 23 24  1  0  0  0  0
 23 25  1  0  0  0  0
 25 30  1  0  0  0  0
 26 27  1  0  0  0  0
 26 25  2  0  0  0  0
 28 26  1  0  0  0  0
 29 28  1  0  0  0  0
 30 32  1  0  0  0  0
 30 33  1  0  0  0  0
 30 31  1  0  0  0  0
M  END
