1,2
q = 0, confidence = 1.0

 45 47  0  0  0  0  0  0  0  0999 V2000
    0.5072   -0.0402    0.1523 Si  0  0  1  0  0  3  0  0  0  0  0  0
   -2.5939    1.0328   -0.1496 N   0  0  0  0  0  0  0  0  0  0  0  0
    1.4373   -0.1904    2.0013 N   0  3  0  0  0  0  0  0  0  0  0  0
    0.5597    1.8653   -0.0551 C   0  0  0  0  0  0  0  0  0  0  0  0
    1.6867    2.5262   -0.5961 C   0  0  0  0  0  0  0  0  0  0  0  0
    1.6776    3.9022   -0.8709 C   0  0  0  0  0  0  0  0  0  0  0  0
    0.5197    4.6501   -0.6163 C   0  0  0  0  0  0  0  0  0  0  0  0
   -0.6170    4.0101   -0.1013 C   0  0  0  0  0  0  0  0  0  0  0  0
   -0.6187    2.6286    0.1788 C   0  0  0  0  0  0  0  0  0  0  0  0
   -1.8942    2.0226    0.7285 C   0  0  0  0  0  0  0  0  0  0  0  0
   -2.7550    1.5873   -1.5087 C   0  0  0  0  0  0  0  0  0  0  0  0
   -3.9417    0.8352    0.4281 C   0  0  0  0  0  0  0  0  0  0  0  0
    2.1937   -0.6162   -0.5266 C   0  0  0  0  0  0  0  0  0  0  0  0
    2.4842   -1.1783   -1.7839 C   0  0  0  0  0  0  0  0  0  0  0  0
    3.8024   -1.5362   -2.1137 C   0  0  0  0  0  0  0  0  0  0  0  0
    4.8422   -1.3466   -1.1889 C   0  0  0  0  0  0  0  0  0  0  0  0
    4.5690   -0.7986    0.0751 C   0  0  0  0  0  0  0  0  0  0  0  0
    3.2528   -0.4345    0.3958 C   0  0  0  0  0  0  0  0  0  0  0  0
    2.8549    0.1875    1.7125 C   0  0  0  0  0  0  0  0  0  0  0  0
    1.3768   -1.6118    2.4413 C   0  0  0  0  0  0  0  0  0  0  0  0
    0.8395    0.6901    3.0289 C   0  0  0  0  0  0  0  0  0  0  0  0
    2.5940    1.9424   -0.8207 H   0  0  0  0  0  0  0  0  0  0  0  0
    2.5728    4.3878   -1.2891 H   0  0  0  0  0  0  0  0  0  0  0  0
    0.4941    5.7297   -0.8290 H   0  0  0  0  0  0  0  0  0  0  0  0
   -1.5330    4.5944    0.0834 H   0  0  0  0  0  0  0  0  0  0  0  0
   -1.7152    1.5119    1.6954 H   0  0  0  0  0  0  0  0  0  0  0  0
   -2.6000    2.8628    0.9328 H   0  0  0  0  0  0  0  0  0  0  0  0
   -3.3161    0.8633   -2.1264 H   0  0  0  0  0  0  0  0  0  0  0  0
   -3.3110    2.5552   -1.4839 H   0  0  0  0  0  0  0  0  0  0  0  0
   -1.7677    1.7589   -1.9720 H   0  0  0  0  0  0  0  0  0  0  0  0
   -4.5071    0.1062   -0.1779 H   0  0  0  0  0  0  0  0  0  0  0  0
   -3.8597    0.4425    1.4575 H   0  0  0  0  0  0  0  0  0  0  0  0
   -4.5011    1.8014    0.4551 H   0  0  0  0  0  0  0  0  0  0  0  0
    1.6790   -1.3376   -2.5160 H   0  0  0  0  0  0  0  0  0  0  0  0
    4.0189   -1.9768   -3.0988 H   0  0  0  0  0  0  0  0  0  0  0  0
    5.8713   -1.6383   -1.4481 H   0  0  0  0  0  0  0  0  0  0  0  0
    5.3804   -0.6620    0.8081 H   0  0  0  0  0  0  0  0  0  0  0  0
    3.5092   -0.1222    2.5566 H   0  0  0  0  0  0  0  0  0  0  0  0
    2.8885    1.2960    1.6465 H   0  0  0  0  0  0  0  0  0  0  0  0
    1.9994   -1.7435    3.3511 H   0  0  0  0  0  0  0  0  0  0  0  0
    0.3325   -1.8835    2.6652 H   0  0  0  0  0  0  0  0  0  0  0  0
    1.7526   -2.2670    1.6350 H   0  0  0  0  0  0  0  0  0  0  0  0
    0.8247    1.7309    2.6546 H   0  0  0  0  0  0  0  0  0  0  0  0
    1.4313    0.6412    3.9675 H   0  0  0  0  0  0  0  0  0  0  0  0
   -0.1915    0.3524    3.2378 H   0  0  0  0  0  0  0  0  0  0  0  0
  1  4  1  6  0  0  0
  1  3  1  0  0  0  0
  2 12  1  0  0  0  0
  2 10  1  0  0  0  0
  3 20  1  0  0  0  0
  3 21  1  0  0  0  0
  4  9  1  0  0  0  0
  5  4  2  0  0  0  0
  6  7  2  0  0  0  0
  6  5  1  0  0  0  0
  7  8  1  0  0  0  0
  8 25  1  0  0  0  0
  8  9  2  0  0  0  0
  9 10  1  0  0  0  0
 10 27  1  0  0  0  0
 10 26  1  0  0  0  0
 11 29  1  0  0  0  0
 11  2  1  0  0  0  0
 12 33  1  0  0  0  0
 12 32  1  0  0  0  0
 13  1  1  0  0  0  0
 13 18  1  0  0  0  0
 14 13  2  0  0  0  0
 15 14  1  0  0  0  0
 15 16  2  0  0  0  0
 16 17  1  0  0  0  0
 17 18  2  0  0  0  0
 17 37  1  0  0  0  0
 18 19  1  0  0  0  0
 19  3  1  0  0  0  0
 19 38  1  0  0  0  0
 20 41  1  0  0  0  0
 20 40  1  0  0  0  0
 21 45  1  0  0  0  0
 21 44  1  0  0  0  0
 22  5  1  0  0  0  0
 23  6  1  0  0  0  0
 24  7  1  0  0  0  0
 28 11  1  0  0  0  0
 30 11  1  0  0  0  0
 31 12  1  0  0  0  0
 34 14  1  0  0  0  0
 35 15  1  0  0  0  0
 36 16  1  0  0  0  0
 39 19  1  0  0  0  0
 42 20  1  0  0  0  0
 43 21  1  0  0  0  0
M  CHG  1   3   1
M  END
