1,6
q = -1.0

 49 48  0  0  0  0  0  0  0  0999 V2000
   -0.8129    0.1149    0.5920 Si  0  0  0  0  0  3  0  0  0  0  0  0
   -0.8063    0.1431    2.1068 H   0  0  0  0  0  0  0  0  0  0  0  0
   -3.5902    0.8779    1.5458 Si  0  0  0  0  0  0  0  0  0  0  0  0
   -3.0410    0.8651   -1.6015 Si  0  0  0  0  0  0  0  0  0  0  0  0
   -3.0916   -1.8599    0.0303 Si  0  0  0  0  0  0  0  0  0  0  0  0
    0.1877    1.5380    0.1220 N   0  0  0  0  0  2  0  0  0  0  0  0
   -2.6495    0.0257    0.0871 C   0  0  0  0  0  0  0  0  0  0  0  0
    0.2287    2.8283    0.1678 C   0  0  0  0  0  3  0  0  0  0  0  0
   -0.6401    3.3726    0.5928 H   0  0  0  0  0  0  0  0  0  0  0  0
    1.3683    3.6595   -0.3253 C   0  0  0  0  0  0  0  0  0  0  0  0
    2.1829    3.0274   -0.7241 H   0  0  0  0  0  0  0  0  0  0  0  0
    1.7630    4.3068    0.4874 H   0  0  0  0  0  0  0  0  0  0  0  0
    1.0217    4.3467   -1.1272 H   0  0  0  0  0  0  0  0  0  0  0  0
   -2.8127    2.5416    2.0432 C   0  0  0  0  0  0  0  0  0  0  0  0
   -2.8072    3.2737    1.2137 H   0  0  0  0  0  0  0  0  0  0  0  0
   -1.7774    2.4214    2.4191 H   0  0  0  0  0  0  0  0  0  0  0  0
   -3.4184    2.9730    2.8677 H   0  0  0  0  0  0  0  0  0  0  0  0
   -5.4073    1.2594    1.1412 C   0  0  0  0  0  0  0  0  0  0  0  0
   -5.8807    1.6858    2.0503 H   0  0  0  0  0  0  0  0  0  0  0  0
   -5.9815    0.3595    0.8511 H   0  0  0  0  0  0  0  0  0  0  0  0
   -5.5078    2.0086    0.3316 H   0  0  0  0  0  0  0  0  0  0  0  0
   -3.5802   -0.1530    3.1449 C   0  0  0  0  0  0  0  0  0  0  0  0
   -4.1090    0.4276    3.9296 H   0  0  0  0  0  0  0  0  0  0  0  0
   -2.5477   -0.3364    3.5023 H   0  0  0  0  0  0  0  0  0  0  0  0
   -4.0913   -1.1300    3.0506 H   0  0  0  0  0  0  0  0  0  0  0  0
   -3.0853    2.7632   -1.4852 C   0  0  0  0  0  0  0  0  0  0  0  0
   -2.1178    3.1790   -1.1432 H   0  0  0  0  0  0  0  0  0  0  0  0
   -3.8862    3.1485   -0.8242 H   0  0  0  0  0  0  0  0  0  0  0  0
   -3.2756    3.1598   -2.5045 H   0  0  0  0  0  0  0  0  0  0  0  0
   -1.7577    0.4654   -2.9282 C   0  0  0  0  0  0  0  0  0  0  0  0
   -2.0805    0.9269   -3.8848 H   0  0  0  0  0  0  0  0  0  0  0  0
   -1.6274   -0.6196   -3.0962 H   0  0  0  0  0  0  0  0  0  0  0  0
   -0.7661    0.8802   -2.6615 H   0  0  0  0  0  0  0  0  0  0  0  0
   -4.7527    0.3592   -2.2586 C   0  0  0  0  0  0  0  0  0  0  0  0
   -4.9380    0.9162   -3.2008 H   0  0  0  0  0  0  0  0  0  0  0  0
   -5.5680    0.6105   -1.5537 H   0  0  0  0  0  0  0  0  0  0  0  0
   -4.8242   -0.7201   -2.4947 H   0  0  0  0  0  0  0  0  0  0  0  0
   -4.9201   -2.1917    0.4318 C   0  0  0  0  0  0  0  0  0  0  0  0
   -5.2360   -1.8626    1.4397 H   0  0  0  0  0  0  0  0  0  0  0  0
   -5.0870   -3.2874    0.3689 H   0  0  0  0  0  0  0  0  0  0  0  0
   -5.5852   -1.7109   -0.3127 H   0  0  0  0  0  0  0  0  0  0  0  0
   -2.8024   -2.6991   -1.6413 C   0  0  0  0  0  0  0  0  0  0  0  0
   -3.4112   -2.2702   -2.4600 H   0  0  0  0  0  0  0  0  0  0  0  0
   -3.1053   -3.7614   -1.5253 H   0  0  0  0  0  0  0  0  0  0  0  0
   -1.7408   -2.6853   -1.9488 H   0  0  0  0  0  0  0  0  0  0  0  0
   -2.0079   -2.8118    1.2722 C   0  0  0  0  0  0  0  0  0  0  0  0
   -0.9441   -2.7754    0.9551 H   0  0  0  0  0  0  0  0  0  0  0  0
   -2.3157   -3.8781    1.2818 H   0  0  0  0  0  0  0  0  0  0  0  0
   -2.0766   -2.4242    2.3066 H   0  0  0  0  0  0  0  0  0  0  0  0
  1  2  1  0  0  0  0
  3 14  1  0  0  0  0
  3 22  1  0  0  0  0
  4 26  1  0  0  0  0
  4  7  1  0  0  0  0
  5  7  1  0  0  0  0
  5 38  1  0  0  0  0
  5 46  1  0  0  0  0
  6  8  1  0  0  0  0
  6  1  1  0  0  0  0
  7  1  1  0  0  0  0
  7  3  1  0  0  0  0
  8  9  1  0  0  0  0
 10  8  1  0  0  0  0
 10 12  1  0  0  0  0
 11 10  1  0  0  0  0
 13 10  1  0  0  0  0
 14 16  1  0  0  0  0
 14 17  1  0  0  0  0
 15 14  1  0  0  0  0
 18  3  1  0  0  0  0
 18 19  1  0  0  0  0
 20 18  1  0  0  0  0
 21 18  1  0  0  0  0
 22 24  1  0  0  0  0
 22 23  1  0  0  0  0
 25 22  1  0  0  0  0
 26 27  1  0  0  0  0
 26 28  1  0  0  0  0
 29 26  1  0  0  0  0
 30 33  1  0  0  0  0
 30  4  1  0  0  0  0
 31 30  1  0  0  0  0
 32 30  1  0  0  0  0
 34  4  1  0  0  0  0
 34 36  1  0  0  0  0
 35 34  1  0  0  0  0
 37 34  1  0  0  0  0
 38 39  1  0  0  0  0
 40 38  1  0  0  0  0
 41 38  1  0  0  0  0
 42 44  1  0  0  0  0
 42  5  1  0  0  0  0
 43 42  1  0  0  0  0
 45 42  1  0  0  0  0
 46 48  1  0  0  0  0
 46 49  1  0  0  0  0
 47 46  1  0  0  0  0
M  END
