1,4
q = -1.0

 49 52  0  0  0  0  0  0  0  0999 V2000
    1.0451    0.9084   -1.3628 Se  0  0  0  0  0  1  0  0  0  0  0  0
   -0.1536    1.4596    0.4235 P   0  0  0  0  0  4  0  0  0  0  0  0
   -2.3998   -0.2129   -0.3116 P   0  0  0  0  0  4  0  0  0  0  0  0
   -1.5246   -1.0869   -1.2642 O   0  0  0  0  0  1  0  0  0  0  0  0
   -1.7195    1.0667    0.4509 N   0  0  0  0  0  2  0  0  0  0  0  0
   -0.0445    3.2766    0.6012 C   0  0  0  0  0  0  0  0  0  0  0  0
    1.1139    3.9862    0.2283 C   0  0  0  0  0  0  0  0  0  0  0  0
    1.1652    5.3771    0.4038 C   0  0  0  0  0  0  0  0  0  0  0  0
    0.0651    6.0603    0.9471 C   0  0  0  0  0  0  0  0  0  0  0  0
   -1.0927    5.3528    1.3101 C   0  0  0  0  0  0  0  0  0  0  0  0
   -1.1522    3.9623    1.1373 C   0  0  0  0  0  0  0  0  0  0  0  0
    0.6904    0.7559    1.9010 C   0  0  0  0  0  0  0  0  0  0  0  0
    1.9925    1.1558    2.2591 C   0  0  0  0  0  0  0  0  0  0  0  0
    2.6094    0.5957    3.3872 C   0  0  0  0  0  0  0  0  0  0  0  0
    1.9385   -0.3760    4.1509 C   0  0  0  0  0  0  0  0  0  0  0  0
    0.6443   -0.7810    3.7867 C   0  0  0  0  0  0  0  0  0  0  0  0
    0.0147   -0.2111    2.6690 C   0  0  0  0  0  0  0  0  0  0  0  0
   -3.1423   -1.2667    0.9835 C   0  0  0  0  0  0  0  0  0  0  0  0
   -3.9214   -0.6824    2.0044 C   0  0  0  0  0  0  0  0  0  0  0  0
   -4.4591   -1.4864    3.0181 C   0  0  0  0  0  0  0  0  0  0  0  0
   -4.2168   -2.8721    3.0190 C   0  0  0  0  0  0  0  0  0  0  0  0
   -3.4370   -3.4504    2.0059 C   0  0  0  0  0  0  0  0  0  0  0  0
   -2.8986   -2.6527    0.9824 C   0  0  0  0  0  0  0  0  0  0  0  0
   -3.7952    0.4332   -1.2879 C   0  0  0  0  0  0  0  0  0  0  0  0
   -3.9278    1.8157   -1.5110 C   0  0  0  0  0  0  0  0  0  0  0  0
   -4.9795    2.2977   -2.3052 C   0  0  0  0  0  0  0  0  0  0  0  0
   -5.8975    1.4019   -2.8760 C   0  0  0  0  0  0  0  0  0  0  0  0
   -5.7646    0.0202   -2.6548 C   0  0  0  0  0  0  0  0  0  0  0  0
   -4.7159   -0.4661   -1.8624 C   0  0  0  0  0  0  0  0  0  0  0  0
    1.9657    3.4487   -0.2183 H   0  0  0  0  0  0  0  0  0  0  0  0
    2.0679    5.9319    0.1063 H   0  0  0  0  0  0  0  0  0  0  0  0
    0.1076    7.1520    1.0813 H   0  0  0  0  0  0  0  0  0  0  0  0
   -1.9587    5.8888    1.7276 H   0  0  0  0  0  0  0  0  0  0  0  0
   -2.0534    3.3895    1.4036 H   0  0  0  0  0  0  0  0  0  0  0  0
    2.5290    1.8988    1.6505 H   0  0  0  0  0  0  0  0  0  0  0  0
    3.6230    0.9183    3.6718 H   0  0  0  0  0  0  0  0  0  0  0  0
    2.4277   -0.8179    5.0323 H   0  0  0  0  0  0  0  0  0  0  0  0
    0.1141   -1.5440    4.3763 H   0  0  0  0  0  0  0  0  0  0  0  0
   -1.0048   -0.5131    2.3877 H   0  0  0  0  0  0  0  0  0  0  0  0
   -4.0935    0.4052    2.0050 H   0  0  0  0  0  0  0  0  0  0  0  0
   -5.0679   -1.0321    3.8149 H   0  0  0  0  0  0  0  0  0  0  0  0
   -4.6376   -3.5017    3.8184 H   0  0  0  0  0  0  0  0  0  0  0  0
   -3.2364   -4.5328    2.0103 H   0  0  0  0  0  0  0  0  0  0  0  0
   -2.2589   -3.0926    0.2004 H   0  0  0  0  0  0  0  0  0  0  0  0
   -3.1958    2.4998   -1.0551 H   0  0  0  0  0  0  0  0  0  0  0  0
   -5.0827    3.3797   -2.4799 H   0  0  0  0  0  0  0  0  0  0  0  0
   -6.7231    1.7814   -3.4975 H   0  0  0  0  0  0  0  0  0  0  0  0
   -6.4835   -0.6820   -3.1039 H   0  0  0  0  0  0  0  0  0  0  0  0
   -4.6087   -1.5479   -1.6870 H   0  0  0  0  0  0  0  0  0  0  0  0
  1  2  1  0  0  0  0
  2  5  1  0  0  0  0
  2  6  1  0  0  0  0
  2 12  1  0  0  0  0
  3  5  1  0  0  0  0
  3 18  1  0  0  0  0
  4  3  1  0  0  0  0
  6 11  1  0  0  0  0
  7  8  1  0  0  0  0
  7  6  2  0  0  0  0
  8  9  2  0  0  0  0
  9 32  1  0  0  0  0
  9 10  1  0  0  0  0
 10 33  1  0  0  0  0
 11 10  2  0  0  0  0
 11 34  1  0  0  0  0
 12 13  2  0  0  0  0
 12 17  1  0  0  0  0
 13 14  1  0  0  0  0
 14 36  1  0  0  0  0
 14 15  2  0  0  0  0
 15 37  1  0  0  0  0
 16 15  1  0  0  0  0
 16 38  1  0  0  0  0
 17 16  2  0  0  0  0
 18 19  1  0  0  0  0
 19 40  1  0  0  0  0
 19 20  2  0  0  0  0
 20 21  1  0  0  0  0
 20 41  1  0  0  0  0
 21 42  1  0  0  0  0
 22 43  1  0  0  0  0
 22 21  2  0  0  0  0
 23 18  2  0  0  0  0
 23 22  1  0  0  0  0
 24  3  1  0  0  0  0
 25 24  1  0  0  0  0
 25 45  1  0  0  0  0
 26 25  2  0  0  0  0
 27 28  2  0  0  0  0
 27 26  1  0  0  0  0
 28 29  1  0  0  0  0
 29 49  1  0  0  0  0
 29 24  2  0  0  0  0
 30  7  1  0  0  0  0
 31  8  1  0  0  0  0
 35 13  1  0  0  0  0
 39 17  1  0  0  0  0
 44 23  1  0  0  0  0
 46 26  1  0  0  0  0
 47 27  1  0  0  0  0
 48 28  1  0  0  0  0
M  END
