1,3
q = -1.0, confidence = 0.0

 31 31  0  0  1  0  0  0  0  0999 V2000
   -1.5309   -2.1310   -0.4237 Se  0  0  0  0  0  1  0  0  0  0  0  0
   -5.3501    1.9183    0.1603 F   0  0  0  0  0  0  0  0  0  0  0  0
   -1.2603    0.9125   -0.2198 O   0  5  0  0  0  0  0  0  0  0  0  0
   -3.4197    0.0329    0.0307 N   0  0  0  0  0  0  0  0  0  0  0  0
   -4.2009   -2.0643    0.4776 N   0  0  0  0  0  0  0  0  0  0  0  0
   -3.1622   -1.2696    0.0970 C   0  0  1  0  0  3  0  0  0  0  0  0
   -2.5331    1.0009   -0.2096 C   0  0  0  0  0  0  0  0  0  0  0  0
   -3.0676    2.3733   -0.4744 C   0  0  0  0  0  0  0  0  0  0  0  0
   -4.4144    2.7705   -0.2951 C   0  0  0  0  0  0  0  0  0  0  0  0
   -4.8372    4.0792   -0.5652 C   0  0  0  0  0  0  0  0  0  0  0  0
   -5.8960    4.3265   -0.4017 H   0  0  0  0  0  0  0  0  0  0  0  0
   -3.9179    5.0302   -1.0249 C   0  0  0  0  0  0  0  0  0  0  0  0
   -4.2559    6.0557   -1.2375 H   0  0  0  0  0  0  0  0  0  0  0  0
   -2.5721    4.6687   -1.2087 C   0  0  0  0  0  0  0  0  0  0  0  0
   -1.8419    5.4081   -1.5690 H   0  0  0  0  0  0  0  0  0  0  0  0
   -2.1630    3.3614   -0.9325 C   0  0  0  0  0  0  0  0  0  0  0  0
   -1.1168    3.0498   -1.0641 H   0  0  0  0  0  0  0  0  0  0  0  0
   -4.0793   -3.5081    0.6605 C   0  0  0  0  0  0  0  0  0  0  0  0
   -3.0356   -3.7231    0.9715 H   0  0  0  0  0  0  0  0  0  0  0  0
   -4.7411   -3.7909    1.5062 H   0  0  0  0  0  0  0  0  0  0  0  0
   -4.4326   -4.3115   -0.5922 C   0  0  0  0  0  0  0  0  0  0  0  0
   -5.4690   -4.1053   -0.9289 H   0  0  0  0  0  0  0  0  0  0  0  0
   -4.3496   -5.3978   -0.3883 H   0  0  0  0  0  0  0  0  0  0  0  0
   -3.7419   -4.0630   -1.4224 H   0  0  0  0  0  0  0  0  0  0  0  0
   -5.5197   -1.4641    0.7299 C   0  0  0  0  0  0  0  0  0  0  0  0
   -6.2790   -2.2428    0.5094 H   0  0  0  0  0  0  0  0  0  0  0  0
   -5.6514   -0.6308    0.0145 H   0  0  0  0  0  0  0  0  0  0  0  0
   -5.6715   -0.9375    2.1556 C   0  0  0  0  0  0  0  0  0  0  0  0
   -5.4893   -1.7303    2.9098 H   0  0  0  0  0  0  0  0  0  0  0  0
   -6.6968   -0.5457    2.3114 H   0  0  0  0  0  0  0  0  0  0  0  0
   -4.9575   -0.1095    2.3280 H   0  0  0  0  0  0  0  0  0  0  0  0
  3  7  1  0  0  0  0
  4  6  1  0  0  0  0
  5 18  1  0  0  0  0
  5 25  1  0  0  0  0
  6  1  1  6  0  0  0
  6  5  1  0  0  0  0
  7  4  2  0  0  0  0
  8  9  1  0  0  0  0
  8  7  1  0  0  0  0
  9  2  1  0  0  0  0
 10 11  1  0  0  0  0
 10  9  2  0  0  0  0
 12 10  1  0  0  0  0
 13 12  1  0  0  0  0
 14 12  2  0  0  0  0
 14 16  1  0  0  0  0
 15 14  1  0  0  0  0
 16  8  2  0  0  0  0
 17 16  1  0  0  0  0
 18 19  1  0  0  0  0
 18 20  1  0  0  0  0
 21 23  1  0  0  0  0
 21 18  1  0  0  0  0
 22 21  1  0  0  0  0
 24 21  1  0  0  0  0
 25 28  1  0  0  0  0
 26 25  1  0  0  0  0
 27 25  1  0  0  0  0
 28 30  1  0  0  0  0
 28 31  1  0  0  0  0
 28 29  1  0  0  0  0
M  CHG  1   3  -1
M  END
