1,3
q = -1.0

 12 12  0  0  1  0  0  0  0  0999 V2000
   -1.6714   -1.4882   -0.0012 Se  0  0  0  0  0  1  0  0  0  0  0  0
   -2.5667    1.1432    0.0003 N   0  0  0  0  0  0  0  0  0  0  0  0
   -1.2762    1.4182    0.0001 O   0  0  0  0  0  1  0  0  0  0  0  0
   -3.0059   -0.1668   -0.0000 C   0  0  1  0  0  3  0  0  0  0  0  0
   -4.3969   -0.4002    0.0003 C   0  0  0  0  0  0  0  0  0  0  0  0
   -4.7389   -1.4451    0.0001 H   0  0  0  0  0  0  0  0  0  0  0  0
   -5.3043    0.6587    0.0009 C   0  0  0  0  0  0  0  0  0  0  0  0
   -6.3859    0.4629    0.0011 H   0  0  0  0  0  0  0  0  0  0  0  0
   -4.8119    1.9822    0.0011 C   0  0  0  0  0  0  0  0  0  0  0  0
   -5.4853    2.8498    0.0016 H   0  0  0  0  0  0  0  0  0  0  0  0
   -3.4421    2.1972    0.0008 C   0  0  0  0  0  0  0  0  0  0  0  0
   -2.9513    3.1790    0.0010 H   0  0  0  0  0  0  0  0  0  0  0  0
  2 11  1  0  0  0  0
  3  2  1  0  0  0  0
  4  1  1  6  0  0  0
  4  2  1  0  0  0  0
  4  5  1  0  0  0  0
  5  7  2  0  0  0  0
  6  5  1  0  0  0  0
  7  9  1  0  0  0  0
  7  8  1  0  0  0  0
  9 10  1  0  0  0  0
 11 12  1  0  0  0  0
 11  9  2  0  0  0  0
M  END
