1,2
q = -1.0

 17 17  0  0  1  0  0  0  0  0999 V2000
    0.9149   -1.8582   -1.5415 Se  0  0  0  0  0  1  0  0  0  0  0  0
    1.8770   -0.9461    0.8558 O   0  0  0  0  0  1  0  0  0  0  0  0
    2.1342   -1.6973   -0.1236 C   0  0  1  0  0  3  0  0  0  0  0  0
    3.4294   -2.4503   -0.1200 C   0  0  0  0  0  0  0  0  0  0  0  0
    3.8109   -3.3346   -1.1509 C   0  0  0  0  0  0  0  0  0  0  0  0
    3.1196   -3.4736   -1.9971 H   0  0  0  0  0  0  0  0  0  0  0  0
    5.0325   -4.0120   -1.0934 C   0  0  0  0  0  0  0  0  0  0  0  0
    5.3109   -4.6998   -1.9091 H   0  0  0  0  0  0  0  0  0  0  0  0
    5.9191   -3.8317   -0.0081 C   0  0  0  0  0  0  0  0  0  0  0  0
    5.5329   -2.9471    1.0185 C   0  0  0  0  0  0  0  0  0  0  0  0
    6.2086   -2.7907    1.8758 H   0  0  0  0  0  0  0  0  0  0  0  0
    4.3095   -2.2670    0.9669 C   0  0  0  0  0  0  0  0  0  0  0  0
    3.9988   -1.5750    1.7634 H   0  0  0  0  0  0  0  0  0  0  0  0
    7.2370   -4.5650    0.0384 C   0  0  0  0  0  0  0  0  0  0  0  0
    7.7968   -4.3399    0.9675 H   0  0  0  0  0  0  0  0  0  0  0  0
    7.8853   -4.2900   -0.8211 H   0  0  0  0  0  0  0  0  0  0  0  0
    7.0924   -5.6652   -0.0126 H   0  0  0  0  0  0  0  0  0  0  0  0
  3  1  1  1  0  0  0
  3  4  1  0  0  0  0
  3  2  1  0  0  0  0
  4 12  1  0  0  0  0
  5  7  1  0  0  0  0
  5  4  2  0  0  0  0
  6  5  1  0  0  0  0
  7  9  2  0  0  0  0
  8  7  1  0  0  0  0
  9 14  1  0  0  0  0
  9 10  1  0  0  0  0
 10 11  1  0  0  0  0
 12 10  2  0  0  0  0
 12 13  1  0  0  0  0
 14 15  1  0  0  0  0
 16 14  1  0  0  0  0
 17 14  1  0  0  0  0
M  END
