3,4
q = 0.0, confidence = 0.938

 68 71  0  0  0  0  0  0  0  0999 V2000
   -1.4590    0.5352   -0.6453 P   0  0  2  0  0  4  0  0  0  0  0  0
    1.9434   -0.1678   -0.1851 P   0  0  0  0  0  4  0  0  0  0  0  0
    1.7073   -2.3121    0.0909 Se  0  0  0  0  0  1  0  0  0  0  0  0
   -0.8182   -0.5813    0.1838 O   0  0  0  0  0  1  0  0  0  0  0  0
   -2.7661    0.1462   -1.6326 N   0  0  0  0  0  0  0  0  0  0  0  0
   -0.1601    1.1240   -1.7964 C   0  0  0  0  0  0  0  0  0  0  0  0
    1.2034    0.7355   -1.6610 C   0  0  0  0  0  0  0  0  0  0  0  0
    2.1119    1.1551   -2.6575 C   0  0  0  0  0  0  0  0  0  0  0  0
    3.1679    0.8630   -2.5849 H   0  0  0  0  0  0  0  0  0  0  0  0
    1.7063    1.9573   -3.7342 C   0  0  0  0  0  0  0  0  0  0  0  0
    2.4457    2.2602   -4.4906 H   0  0  0  0  0  0  0  0  0  0  0  0
    0.3745    2.3776   -3.8333 C   0  0  0  0  0  0  0  0  0  0  0  0
    0.0479    3.0189   -4.6654 H   0  0  0  0  0  0  0  0  0  0  0  0
   -0.5477    1.9526   -2.8691 C   0  0  0  0  0  0  0  0  0  0  0  0
   -1.6084    2.2293   -2.9627 H   0  0  0  0  0  0  0  0  0  0  0  0
    3.7593    0.0729   -0.4399 C   0  0  0  0  0  0  0  0  0  0  0  0
    4.4920   -0.8921   -1.1635 C   0  0  0  0  0  0  0  0  0  0  0  0
    3.9788   -1.7892   -1.5425 H   0  0  0  0  0  0  0  0  0  0  0  0
    5.8657   -0.7176   -1.3782 C   0  0  0  0  0  0  0  0  0  0  0  0
    6.4277   -1.4761   -1.9438 H   0  0  0  0  0  0  0  0  0  0  0  0
    6.5242    0.4114   -0.8627 C   0  0  0  0  0  0  0  0  0  0  0  0
    7.6052    0.5414   -1.0238 H   0  0  0  0  0  0  0  0  0  0  0  0
    5.8016    1.3658   -0.1317 C   0  0  0  0  0  0  0  0  0  0  0  0
    6.3132    2.2454    0.2876 H   0  0  0  0  0  0  0  0  0  0  0  0
    4.4231    1.2028    0.0783 C   0  0  0  0  0  0  0  0  0  0  0  0
    3.8677    1.9531    0.6587 H   0  0  0  0  0  0  0  0  0  0  0  0
    1.5449    0.9118    1.2355 C   0  0  0  0  0  0  0  0  0  0  0  0
    1.3720    2.3018    1.0519 C   0  0  0  0  0  0  0  0  0  0  0  0
    1.3926    2.7409    0.0435 H   0  0  0  0  0  0  0  0  0  0  0  0
    1.1658    3.1261    2.1659 C   0  0  0  0  0  0  0  0  0  0  0  0
    1.0208    4.2073    2.0232 H   0  0  0  0  0  0  0  0  0  0  0  0
    1.1162    2.5675    3.4544 C   0  0  0  0  0  0  0  0  0  0  0  0
    0.9368    3.2159    4.3255 H   0  0  0  0  0  0  0  0  0  0  0  0
    1.2688    1.1845    3.6285 C   0  0  0  0  0  0  0  0  0  0  0  0
    1.1882    0.7316    4.6273 H   0  0  0  0  0  0  0  0  0  0  0  0
    1.4931    0.3519    2.5219 C   0  0  0  0  0  0  0  0  0  0  0  0
    1.5792   -0.7358    2.6557 H   0  0  0  0  0  0  0  0  0  0  0  0
   -1.9236    1.8853    0.4794 C   0  0  0  0  0  0  0  0  0  0  0  0
   -1.9452    1.5817    1.8562 C   0  0  0  0  0  0  0  0  0  0  0  0
   -1.6876    0.5673    2.2109 H   0  0  0  0  0  0  0  0  0  0  0  0
   -2.2708    2.5893    2.7761 C   0  0  0  0  0  0  0  0  0  0  0  0
   -2.2914    2.3480    3.8493 H   0  0  0  0  0  0  0  0  0  0  0  0
   -2.5470    3.8922    2.3346 C   0  0  0  0  0  0  0  0  0  0  0  0
   -2.7951    4.6802    3.0621 H   0  0  0  0  0  0  0  0  0  0  0  0
   -2.4991    4.1973    0.9628 C   0  0  0  0  0  0  0  0  0  0  0  0
   -2.7081    5.2206    0.6161 H   0  0  0  0  0  0  0  0  0  0  0  0
   -2.1918    3.1952    0.0330 C   0  0  0  0  0  0  0  0  0  0  0  0
   -2.1646    3.4365   -1.0397 H   0  0  0  0  0  0  0  0  0  0  0  0
   -2.4716   -0.6693   -2.8550 C   0  0  0  0  0  0  0  0  0  0  0  0
   -1.3983   -0.5009   -3.0766 H   0  0  0  0  0  0  0  0  0  0  0  0
   -3.2742   -0.1391   -4.0479 C   0  0  0  0  0  0  0  0  0  0  0  0
   -3.0827    0.9380   -4.2236 H   0  0  0  0  0  0  0  0  0  0  0  0
   -4.3651   -0.2713   -3.8957 H   0  0  0  0  0  0  0  0  0  0  0  0
   -3.0024   -0.6956   -4.9669 H   0  0  0  0  0  0  0  0  0  0  0  0
   -2.6471   -2.1768   -2.6539 C   0  0  0  0  0  0  0  0  0  0  0  0
   -2.0593   -2.5619   -1.7966 H   0  0  0  0  0  0  0  0  0  0  0  0
   -2.3151   -2.7105   -3.5672 H   0  0  0  0  0  0  0  0  0  0  0  0
   -3.7071   -2.4545   -2.4824 H   0  0  0  0  0  0  0  0  0  0  0  0
   -4.1283   -0.0559   -1.0400 C   0  0  0  0  0  0  0  0  0  0  0  0
   -4.6576   -0.6554   -1.8077 H   0  0  0  0  0  0  0  0  0  0  0  0
   -4.1310   -0.8878    0.2497 C   0  0  0  0  0  0  0  0  0  0  0  0
   -3.5788   -1.8421    0.1373 H   0  0  0  0  0  0  0  0  0  0  0  0
   -5.1755   -1.1266    0.5347 H   0  0  0  0  0  0  0  0  0  0  0  0
   -3.6829   -0.3367    1.1000 H   0  0  0  0  0  0  0  0  0  0  0  0
   -4.9042    1.2581   -0.9007 C   0  0  0  0  0  0  0  0  0  0  0  0
   -4.8608    1.8444   -1.8401 H   0  0  0  0  0  0  0  0  0  0  0  0
   -4.5123    1.8872   -0.0793 H   0  0  0  0  0  0  0  0  0  0  0  0
   -5.9681    1.0412   -0.6761 H   0  0  0  0  0  0  0  0  0  0  0  0
  1  4  1  1  0  0  0
  1 38  1  0  0  0  0
  2  3  1  0  0  0  0
  2 27  1  0  0  0  0
  5 59  1  0  0  0  0
  5  1  1  0  0  0  0
  6  7  1  0  0  0  0
  6  1  1  0  0  0  0
  7  2  1  0  0  0  0
  8  9  1  0  0  0  0
  8  7  2  0  0  0  0
 10  8  1  0  0  0  0
 11 10  1  0  0  0  0
 12 10  2  0  0  0  0
 12 14  1  0  0  0  0
 13 12  1  0  0  0  0
 14  6  2  0  0  0  0
 15 14  1  0  0  0  0
 16  2  1  0  0  0  0
 16 25  1  0  0  0  0
 17 16  2  0  0  0  0
 18 17  1  0  0  0  0
 19 17  1  0  0  0  0
 19 21  2  0  0  0  0
 20 19  1  0  0  0  0
 21 23  1  0  0  0  0
 22 21  1  0  0  0  0
 23 25  2  0  0  0  0
 23 24  1  0  0  0  0
 25 26  1  0  0  0  0
 27 36  1  0  0  0  0
 28 27  2  0  0  0  0
 28 30  1  0  0  0  0
 29 28  1  0  0  0  0
 30 32  2  0  0  0  0
 31 30  1  0  0  0  0
 32 34  1  0  0  0  0
 32 33  1  0  0  0  0
 34 35  1  0  0  0  0
 36 37  1  0  0  0  0
 36 34  2  0  0  0  0
 38 39  1  0  0  0  0
 39 40  1  0  0  0  0
 39 41  2  0  0  0  0
 41 42  1  0  0  0  0
 43 41  1  0  0  0  0
 43 44  1  0  0  0  0
 45 43  2  0  0  0  0
 46 45  1  0  0  0  0
 47 38  2  0  0  0  0
 47 45  1  0  0  0  0
 48 47  1  0  0  0  0
 49 55  1  0  0  0  0
 49  5  1  0  0  0  0
 50 49  1  0  0  0  0
 51 53  1  0  0  0  0
 51 49  1  0  0  0  0
 52 51  1  0  0  0  0
 54 51  1  0  0  0  0
 55 58  1  0  0  0  0
 55 56  1  0  0  0  0
 57 55  1  0  0  0  0
 59 65  1  0  0  0  0
 59 61  1  0  0  0  0
 60 59  1  0  0  0  0
 61 63  1  0  0  0  0
 61 64  1  0  0  0  0
 62 61  1  0  0  0  0
 65 68  1  0  0  0  0
 65 67  1  0  0  0  0
 66 65  1  0  0  0  0
M  END
