1,2
q = -1.0, confidence = 0.0

 33 33  0  0  1  0  0  0  0  0999 V2000
   -0.7622    2.3516   -0.5953 Se  0  0  0  0  0  1  0  0  0  0  0  0
    0.7142   -0.4484    0.0650 O   0  5  0  0  0  0  0  0  0  0  0  0
    1.5760    3.7886   -0.0220 N   0  0  0  0  0  0  0  0  0  0  0  0
    1.9821    1.5398   -0.0605 N   0  0  0  0  0  0  0  0  0  0  0  0
    1.8079    0.2284   -0.0441 C   0  0  0  0  0  0  0  0  0  0  0  0
    1.0984    2.5315   -0.1668 C   0  0  2  0  0  3  0  0  0  0  0  0
    3.0478   -0.6049   -0.1211 C   0  0  0  0  0  0  0  0  0  0  0  0
    0.7196    4.9772   -0.1204 C   0  0  0  0  0  0  0  0  0  0  0  0
   -0.0713    4.7726   -0.8717 H   0  0  0  0  0  0  0  0  0  0  0  0
    1.3446    5.7876   -0.5460 H   0  0  0  0  0  0  0  0  0  0  0  0
    2.9618   -1.9687   -0.4788 C   0  0  0  0  0  0  0  0  0  0  0  0
    1.9805   -2.4006   -0.7184 H   0  0  0  0  0  0  0  0  0  0  0  0
    4.1146   -2.7550   -0.5585 C   0  0  0  0  0  0  0  0  0  0  0  0
    4.0877   -3.8150   -0.8442 H   0  0  0  0  0  0  0  0  0  0  0  0
    3.0041    3.9909    0.2967 C   0  0  0  0  0  0  0  0  0  0  0  0
    3.2490    5.0267   -0.0088 H   0  0  0  0  0  0  0  0  0  0  0  0
    3.5842    3.3004   -0.3460 H   0  0  0  0  0  0  0  0  0  0  0  0
    5.3500   -2.1631   -0.2685 C   0  0  0  0  0  0  0  0  0  0  0  0
    3.3535    3.7614    1.7661 C   0  0  0  0  0  0  0  0  0  0  0  0
    3.1217    2.7215    2.0680 H   0  0  0  0  0  0  0  0  0  0  0  0
    2.8047    4.4511    2.4361 H   0  0  0  0  0  0  0  0  0  0  0  0
    4.4376    3.9307    1.9210 H   0  0  0  0  0  0  0  0  0  0  0  0
    5.4687   -0.8137    0.0863 C   0  0  0  0  0  0  0  0  0  0  0  0
    6.4651   -0.4055    0.3019 H   0  0  0  0  0  0  0  0  0  0  0  0
    4.3103   -0.0340    0.1523 C   0  0  0  0  0  0  0  0  0  0  0  0
    4.3652    1.0277    0.4272 H   0  0  0  0  0  0  0  0  0  0  0  0
    0.1025    5.4108    1.2092 C   0  0  0  0  0  0  0  0  0  0  0  0
   -0.5122    4.5983    1.6441 H   0  0  0  0  0  0  0  0  0  0  0  0
   -0.5520    6.2900    1.0485 H   0  0  0  0  0  0  0  0  0  0  0  0
    0.8788    5.6980    1.9445 H   0  0  0  0  0  0  0  0  0  0  0  0
    6.4366   -4.1816   -0.6460 O   0  0  0  0  0  0  0  0  0  0  0  0
    7.6495   -2.4449   -0.0949 O   0  0  0  0  0  0  0  0  0  0  0  0
    6.5828   -3.0000   -0.3432 N   0  0  0  0  0  0  0  0  0  0  0  0
  3 15  1  0  0  0  0
  4  5  2  0  0  0  0
  5  2  1  0  0  0  0
  6  1  1  6  0  0  0
  6  4  1  0  0  0  0
  6  3  1  0  0  0  0
  7  5  1  0  0  0  0
  7 25  1  0  0  0  0
  8  3  1  0  0  0  0
  8 27  1  0  0  0  0
  9  8  1  0  0  0  0
 10  8  1  0  0  0  0
 11  7  2  0  0  0  0
 12 11  1  0  0  0  0
 13 11  1  0  0  0  0
 13 18  2  0  0  0  0
 14 13  1  0  0  0  0
 15 19  1  0  0  0  0
 16 15  1  0  0  0  0
 17 15  1  0  0  0  0
 18 23  1  0  0  0  0
 19 22  1  0  0  0  0
 19 20  1  0  0  0  0
 19 21  1  0  0  0  0
 23 25  2  0  0  0  0
 23 24  1  0  0  0  0
 25 26  1  0  0  0  0
 27 28  1  0  0  0  0
 27 30  1  0  0  0  0
 29 27  1  0  0  0  0
 31 33  2  0  0  0  0
 33 18  1  0  0  0  0
 33 32  2  0  0  0  0
M  CHG  1   2  -1
M  END
