1,2
q = -2.0, confidence = 0.596

 14 13  0  0  0  0  0  0  0  0999 V2000
    3.0674   -0.2557   -0.0011 Se  0  0  0  0  0  1  0  0  0  0  0  0
    0.9900   -2.4840    0.1249 O   0  5  0  0  0  0  0  0  0  0  0  0
    4.9771   -3.9080   -0.0212 O   0  0  0  0  0  0  0  0  0  0  0  0
    2.2187   -2.9783    0.0896 C   0  0  0  0  0  0  0  0  0  0  0  0
    3.3473   -2.1727    0.0196 C   0  0  0  0  0  0  0  0  0  0  0  0
    4.7173   -2.6955   -0.0302 C   0  0  0  0  0  0  0  0  0  0  0  0
    5.8521   -1.6781   -0.0956 C   0  0  0  0  0  0  0  0  0  0  0  0
    2.2553   -4.4831    0.1274 C   0  0  0  0  0  0  0  0  0  0  0  0
    6.8152   -2.2195   -0.1306 H   0  0  0  0  0  0  0  0  0  0  0  0
    5.7528   -1.0293   -0.9915 H   0  0  0  0  0  0  0  0  0  0  0  0
    5.8320   -1.0042    0.7870 H   0  0  0  0  0  0  0  0  0  0  0  0
    1.2185   -4.8641    0.2002 H   0  0  0  0  0  0  0  0  0  0  0  0
    2.7522   -4.8872   -0.7766 H   0  0  0  0  0  0  0  0  0  0  0  0
    2.8683   -4.8452    0.9759 H   0  0  0  0  0  0  0  0  0  0  0  0
  1  5  1  0  0  0  0
  4  2  1  0  0  0  0
  4  8  1  0  0  0  0
  5  4  2  0  0  0  0
  6  3  2  0  0  0  0
  6  5  1  0  0  0  0
  7  6  1  0  0  0  0
  7 11  1  0  0  0  0
  8 12  1  0  0  0  0
  8 14  1  0  0  0  0
  9  7  1  0  0  0  0
 10  7  1  0  0  0  0
 13  8  1  0  0  0  0
M  CHG  1   2  -1
M  END
