1,8,9,10
 OpenBabel05122313063D

 46 45  0  0  0  0  0  0  0  0999 V2000
    0.9860    0.0446   -0.0222 Si  0  0  0  0  0  0  0  0  0  0  0  0
    2.0100   -0.9373   -1.9111 Si  0  0  0  0  0  0  0  0  0  0  0  0
    1.8941    2.2238    0.0882 Si  0  0  0  0  0  0  0  0  0  0  0  0
    2.0238   -1.1241    1.7690 Si  0  0  0  0  0  0  0  0  0  0  0  0
   -1.4687    1.1594    2.9843 O   0  0  0  0  0  1  0  0  0  0  0  0
   -1.6620   -0.7639   -3.1268 O   0  0  0  0  0  1  0  0  0  0  0  0
   -1.2261   -3.1213    0.8630 O   0  0  0  0  0  1  0  0  0  0  0  0
   -1.5671    0.6702    1.9263 C   0  0  0  0  0  2  0  0  0  0  0  0
   -1.6896   -0.5377   -1.9781 C   0  0  0  0  0  2  0  0  0  0  0  0
   -1.4055   -2.0055    0.5606 C   0  0  0  0  0  2  0  0  0  0  0  0
    1.7900    0.1469   -3.4670 C   0  0  0  0  0  0  0  0  0  0  0  0
    2.2468   -0.3410   -4.3553 H   0  0  0  0  0  0  0  0  0  0  0  0
    2.2717    1.1374   -3.3336 H   0  0  0  0  0  0  0  0  0  0  0  0
    0.7145    0.3113   -3.6782 H   0  0  0  0  0  0  0  0  0  0  0  0
    3.8952   -1.2058   -1.7055 C   0  0  0  0  0  0  0  0  0  0  0  0
    4.3285   -1.6320   -2.6366 H   0  0  0  0  0  0  0  0  0  0  0  0
    4.1142   -1.9087   -0.8761 H   0  0  0  0  0  0  0  0  0  0  0  0
    4.4181   -0.2538   -1.4852 H   0  0  0  0  0  0  0  0  0  0  0  0
    1.2626   -2.6497   -2.2984 C   0  0  0  0  0  0  0  0  0  0  0  0
    0.2013   -2.5535   -2.6001 H   0  0  0  0  0  0  0  0  0  0  0  0
    1.3041   -3.3139   -1.4122 H   0  0  0  0  0  0  0  0  0  0  0  0
    1.8154   -3.1400   -3.1289 H   0  0  0  0  0  0  0  0  0  0  0  0
    3.7834    2.3278   -0.2129 C   0  0  0  0  0  0  0  0  0  0  0  0
    4.0235    2.0542   -1.2612 H   0  0  0  0  0  0  0  0  0  0  0  0
    4.3587    1.6567    0.4537 H   0  0  0  0  0  0  0  0  0  0  0  0
    4.1365    3.3692   -0.0474 H   0  0  0  0  0  0  0  0  0  0  0  0
    1.1448    3.3984   -1.2143 C   0  0  0  0  0  0  0  0  0  0  0  0
    1.6912    4.3666   -1.2065 H   0  0  0  0  0  0  0  0  0  0  0  0
    0.0741    3.6021   -1.0259 H   0  0  0  0  0  0  0  0  0  0  0  0
    1.2286    2.9650   -2.2318 H   0  0  0  0  0  0  0  0  0  0  0  0
    1.5551    2.9740    1.8108 C   0  0  0  0  0  0  0  0  0  0  0  0
    2.0715    2.3947    2.6042 H   0  0  0  0  0  0  0  0  0  0  0  0
    0.4706    2.9521    2.0400 H   0  0  0  0  0  0  0  0  0  0  0  0
    1.9054    4.0272    1.8683 H   0  0  0  0  0  0  0  0  0  0  0  0
    3.7922   -0.5110    2.1719 C   0  0  0  0  0  0  0  0  0  0  0  0
    4.2310   -1.1262    2.9874 H   0  0  0  0  0  0  0  0  0  0  0  0
    3.7861    0.5461    2.5078 H   0  0  0  0  0  0  0  0  0  0  0  0
    4.4585   -0.5833    1.2887 H   0  0  0  0  0  0  0  0  0  0  0  0
    2.1933   -2.9957    1.4158 C   0  0  0  0  0  0  0  0  0  0  0  0
    2.6537   -3.5039    2.2910 H   0  0  0  0  0  0  0  0  0  0  0  0
    2.8325   -3.1934    0.5317 H   0  0  0  0  0  0  0  0  0  0  0  0
    1.2014   -3.4537    1.2318 H   0  0  0  0  0  0  0  0  0  0  0  0
    1.0410   -0.9939    3.3975 C   0  0  0  0  0  0  0  0  0  0  0  0
    0.0396   -1.4566    3.2868 H   0  0  0  0  0  0  0  0  0  0  0  0
    0.8857    0.0597    3.7033 H   0  0  0  0  0  0  0  0  0  0  0  0
    1.5791   -1.5234    4.2133 H   0  0  0  0  0  0  0  0  0  0  0  0
  1  3  1  0  0  0  0
  1  4  1  0  0  0  0
  1 10  1  0  0  0  0
  1  8  1  0  0  0  0
  1  9  1  0  0  0  0
  2 15  1  0  0  0  0
  2  1  1  0  0  0  0
  3 31  1  0  0  0  0
  4 35  1  0  0  0  0
  4 43  1  0  0  0  0
  6  9  1  0  0  0  0
  8  5  1  0  0  0  0
 10  7  1  0  0  0  0
 11 13  1  0  0  0  0
 11  2  1  0  0  0  0
 12 11  1  0  0  0  0
 14 11  1  0  0  0  0
 15 18  1  0  0  0  0
 15 17  1  0  0  0  0
 16 15  1  0  0  0  0
 19  2  1  0  0  0  0
 19 21  1  0  0  0  0
 20 19  1  0  0  0  0
 22 19  1  0  0  0  0
 23 26  1  0  0  0  0
 23  3  1  0  0  0  0
 23 25  1  0  0  0  0
 24 23  1  0  0  0  0
 27 28  1  0  0  0  0
 27 29  1  0  0  0  0
 27  3  1  0  0  0  0
 30 27  1  0  0  0  0
 31 34  1  0  0  0  0
 31 33  1  0  0  0  0
 31 32  1  0  0  0  0
 35 37  1  0  0  0  0
 35 36  1  0  0  0  0
 38 35  1  0  0  0  0
 39  4  1  0  0  0  0
 39 40  1  0  0  0  0
 41 39  1  0  0  0  0
 42 39  1  0  0  0  0
 43 45  1  0  0  0  0
 43 46  1  0  0  0  0
 44 43  1  0  0  0  0
M  HYD  6   5   0   6   0   7   0   8   0   9   0  10   0
M  ZBO  3   3   0   4   0   5   0
M  END
