2
q = -1.0, confidence = 0.004

 21 21  0  0  1  0  0  0  0  0999 V2000
    1.4103    0.3204   -1.6838 O   0  0  0  0  0  0  0  0  0  0  0  0
    1.9201    0.1756   -0.5937 C   0  0  0  0  0  3  0  0  0  0  0  0
    3.4216   -0.0389   -0.3796 C   0  0  1  0  0  0  0  0  0  0  0  0
    4.0612   -0.6690   -1.6483 C   0  0  0  0  0  0  0  0  0  0  0  0
    5.2016   -1.6668   -1.3135 C   0  0  0  0  0  0  0  0  0  0  0  0
    6.0474   -1.0442   -0.2965 C   0  0  0  0  0  0  0  0  0  0  0  0
    6.3487   -0.2638    0.6003 C   0  0  0  0  0  0  0  0  0  0  0  0
    6.2203    0.8932    1.4835 C   0  0  0  0  0  0  0  0  0  0  0  0
    4.7262    1.3244    1.4870 C   0  0  0  0  0  0  0  0  0  0  0  0
    4.0502    1.3225    0.0968 C   0  0  0  0  0  0  0  0  0  0  0  0
    3.5214   -0.7636    0.4516 H   0  0  0  0  0  0  0  0  0  0  0  0
    4.4536    0.1407   -2.2974 H   0  0  0  0  0  0  0  0  0  0  0  0
    3.2870   -1.1948   -2.2394 H   0  0  0  0  0  0  0  0  0  0  0  0
    4.7656   -2.6135   -0.9230 H   0  0  0  0  0  0  0  0  0  0  0  0
    5.7552   -1.9382   -2.2371 H   0  0  0  0  0  0  0  0  0  0  0  0
    6.8536    1.7266    1.1052 H   0  0  0  0  0  0  0  0  0  0  0  0
    6.5643    0.6928    2.5204 H   0  0  0  0  0  0  0  0  0  0  0  0
    4.1622    0.6531    2.1689 H   0  0  0  0  0  0  0  0  0  0  0  0
    4.6533    2.3393    1.9305 H   0  0  0  0  0  0  0  0  0  0  0  0
    4.7791    1.6508   -0.6727 H   0  0  0  0  0  0  0  0  0  0  0  0
    3.2640    2.1027    0.0902 H   0  0  0  0  0  0  0  0  0  0  0  0
  1  2  2  0  0  0  0
  2  3  1  0  0  0  0
  3 10  1  0  0  0  0
  3 11  1  1  0  0  0
  4  5  1  0  0  0  0
  4  3  1  0  0  0  0
  5 14  1  0  0  0  0
  5  6  1  0  0  0  0
  6  7  3  0  0  0  0
  7  8  1  0  0  0  0
  8  9  1  0  0  0  0
  8 17  1  0  0  0  0
  9 19  1  0  0  0  0
  9 18  1  0  0  0  0
 10  9  1  0  0  0  0
 12  4  1  0  0  0  0
 13  4  1  0  0  0  0
 15  5  1  0  0  0  0
 16  8  1  0  0  0  0
 20 10  1  0  0  0  0
 21 10  1  0  0  0  0
M  END
