3
q = 0.0, confidence = 0.998

 47 50  0  0  1  0  0  0  0  0999 V2000
   -0.3788   -2.1917   -0.1236 S   0  0  0  0  0  0  0  0  0  0  0  0
    1.1216   -0.1666   -0.0325 N   0  0  0  0  0  0  0  0  0  0  0  0
   -1.1780   -0.6446   -0.0204 C   0  0  0  0  0  3  0  0  0  0  0  0
    1.2109   -1.5201   -0.1074 C   0  0  2  0  0  3  0  0  0  0  0  0
   -0.1910    0.3464    0.0228 C   0  0  0  0  0  0  0  0  0  0  0  0
    2.4253   -2.3350   -0.1675 C   0  0  0  0  0  0  0  0  0  0  0  0
    2.4155   -3.6038    0.4671 C   0  0  0  0  0  0  0  0  0  0  0  0
    1.5174   -3.9250    1.0162 H   0  0  0  0  0  0  0  0  0  0  0  0
    3.5399   -4.4347    0.4213 C   0  0  0  0  0  0  0  0  0  0  0  0
    3.5133   -5.4121    0.9257 H   0  0  0  0  0  0  0  0  0  0  0  0
    4.6983   -4.0186   -0.2550 C   0  0  0  0  0  0  0  0  0  0  0  0
    5.5845   -4.6698   -0.2871 H   0  0  0  0  0  0  0  0  0  0  0  0
    4.7167   -2.7688   -0.8946 C   0  0  0  0  0  0  0  0  0  0  0  0
    5.6147   -2.4410   -1.4393 H   0  0  0  0  0  0  0  0  0  0  0  0
    3.5949   -1.9321   -0.8588 C   0  0  0  0  0  0  0  0  0  0  0  0
    3.6224   -0.9687   -1.3828 H   0  0  0  0  0  0  0  0  0  0  0  0
   -0.4521    1.7995    0.1039 C   0  0  0  0  0  0  0  0  0  0  0  0
    0.2324    2.6489    1.0021 C   0  0  0  0  0  0  0  0  0  0  0  0
    0.9860    2.2370    1.6856 H   0  0  0  0  0  0  0  0  0  0  0  0
   -0.0620    4.0182    1.0512 C   0  0  0  0  0  0  0  0  0  0  0  0
    0.4765    4.6624    1.7625 H   0  0  0  0  0  0  0  0  0  0  0  0
   -1.0478    4.5622    0.2135 C   0  0  0  0  0  0  0  0  0  0  0  0
   -1.2797    5.6371    0.2579 H   0  0  0  0  0  0  0  0  0  0  0  0
   -1.7463    3.7248   -0.6709 C   0  0  0  0  0  0  0  0  0  0  0  0
   -2.5308    4.1373   -1.3225 H   0  0  0  0  0  0  0  0  0  0  0  0
   -1.4526    2.3567   -0.7273 C   0  0  0  0  0  0  0  0  0  0  0  0
   -2.0037    1.6978   -1.4143 H   0  0  0  0  0  0  0  0  0  0  0  0
    2.2968    0.6757    0.0007 C   0  0  0  0  0  0  0  0  0  0  0  0
    2.6218    1.4265   -1.1507 C   0  0  0  0  0  0  0  0  0  0  0  0
    3.7754    2.2270   -1.0932 C   0  0  0  0  0  0  0  0  0  0  0  0
    4.0510    2.8160   -1.9824 H   0  0  0  0  0  0  0  0  0  0  0  0
    4.5845    2.2933    0.0571 C   0  0  0  0  0  0  0  0  0  0  0  0
    4.2188    1.5222    1.1759 C   0  0  0  0  0  0  0  0  0  0  0  0
    4.8398    1.5608    2.0849 H   0  0  0  0  0  0  0  0  0  0  0  0
    3.0768    0.7026    1.1771 C   0  0  0  0  0  0  0  0  0  0  0  0
    1.7748    1.3665   -2.3931 C   0  0  0  0  0  0  0  0  0  0  0  0
    1.4605    0.3302   -2.6316 H   0  0  0  0  0  0  0  0  0  0  0  0
    2.3196    1.7758   -3.2641 H   0  0  0  0  0  0  0  0  0  0  0  0
    0.8437    1.9580   -2.2644 H   0  0  0  0  0  0  0  0  0  0  0  0
    5.7937    3.1920    0.0973 C   0  0  0  0  0  0  0  0  0  0  0  0
    6.2865    3.2578   -0.8927 H   0  0  0  0  0  0  0  0  0  0  0  0
    6.5405    2.8422    0.8362 H   0  0  0  0  0  0  0  0  0  0  0  0
    5.5052    4.2258    0.3851 H   0  0  0  0  0  0  0  0  0  0  0  0
    2.7047   -0.1125    2.3875 C   0  0  0  0  0  0  0  0  0  0  0  0
    2.9878   -1.1784    2.2555 H   0  0  0  0  0  0  0  0  0  0  0  0
    1.6128   -0.0942    2.5800 H   0  0  0  0  0  0  0  0  0  0  0  0
    3.2230    0.2620    3.2900 H   0  0  0  0  0  0  0  0  0  0  0  0
  1  4  1  0  0  0  0
  1  3  1  0  0  0  0
  2 28  1  0  0  0  0
  2  5  1  0  0  0  0
  3  5  2  0  0  0  0
  4  6  1  6  0  0  0
  4  2  1  0  0  0  0
  5 17  1  0  0  0  0
  6  7  1  0  0  0  0
  7  8  1  0  0  0  0
  9  7  2  0  0  0  0
  9 10  1  0  0  0  0
 11  9  1  0  0  0  0
 12 11  1  0  0  0  0
 13 15  1  0  0  0  0
 13 11  2  0  0  0  0
 14 13  1  0  0  0  0
 15  6  2  0  0  0  0
 16 15  1  0  0  0  0
 17 18  1  0  0  0  0
 18 20  2  0  0  0  0
 18 19  1  0  0  0  0
 20 21  1  0  0  0  0
 22 23  1  0  0  0  0
 22 20  1  0  0  0  0
 24 22  2  0  0  0  0
 25 24  1  0  0  0  0
 26 24  1  0  0  0  0
 26 17  2  0  0  0  0
 27 26  1  0  0  0  0
 28 35  1  0  0  0  0
 29 30  1  0  0  0  0
 29 28  2  0  0  0  0
 30 32  2  0  0  0  0
 31 30  1  0  0  0  0
 32 40  1  0  0  0  0
 32 33  1  0  0  0  0
 33 35  2  0  0  0  0
 33 34  1  0  0  0  0
 35 44  1  0  0  0  0
 36 39  1  0  0  0  0
 36 29  1  0  0  0  0
 37 36  1  0  0  0  0
 38 36  1  0  0  0  0
 40 43  1  0  0  0  0
 40 42  1  0  0  0  0
 41 40  1  0  0  0  0
 44 46  1  0  0  0  0
 44 47  1  0  0  0  0
 45 44  1  0  0  0  0
M  END
