3
q = 0.0, confidence = 0.974

 44 46  0  0  1  0  0  0  0  0999 V2000
   -0.3504   -0.1356   -0.2220 C   0  0  0  0  0  3  0  0  0  0  0  0
    0.3371   -0.7092   -0.8631 H   0  0  0  0  0  0  0  0  0  0  0  0
   -1.2493    0.7534   -0.9227 C   0  0  0  0  0  3  0  0  0  0  0  0
   -1.1988    0.9391   -2.0047 H   0  0  0  0  0  0  0  0  0  0  0  0
   -2.2541    1.3256   -0.0833 C   0  0  1  0  0  3  0  0  0  0  0  0
   -3.2313    2.1786   -0.4678 O   0  0  0  0  0  0  0  0  0  0  0  0
   -3.4664    2.3175   -1.8635 C   0  0  0  0  0  0  0  0  0  0  0  0
   -2.6090    2.8032   -2.3784 H   0  0  0  0  0  0  0  0  0  0  0  0
   -3.6608    1.3272   -2.3316 H   0  0  0  0  0  0  0  0  0  0  0  0
   -4.3615    2.9566   -1.9705 H   0  0  0  0  0  0  0  0  0  0  0  0
   -2.2436    0.8291    1.2677 C   0  0  0  0  0  3  0  0  0  0  0  0
   -3.1451    1.0734    1.8536 H   0  0  0  0  0  0  0  0  0  0  0  0
   -0.9372    0.7686    2.0323 C   0  0  0  0  0  0  0  0  0  0  0  0
   -1.0602    0.0904    2.9011 H   0  0  0  0  0  0  0  0  0  0  0  0
   -0.7093    1.7689    2.4659 H   0  0  0  0  0  0  0  0  0  0  0  0
    0.2294    0.2656    1.1380 C   0  0  1  0  0  0  0  0  0  0  0  0
    0.9367   -0.9285    1.8119 C   0  0  0  0  0  0  0  0  0  0  0  0
    1.3631   -0.5632    2.7719 H   0  0  0  0  0  0  0  0  0  0  0  0
    0.1971   -1.7081    2.0754 H   0  0  0  0  0  0  0  0  0  0  0  0
    2.0414   -1.5356    0.9511 C   0  0  0  0  0  0  0  0  0  0  0  0
    2.6647   -2.2139    1.5700 H   0  0  0  0  0  0  0  0  0  0  0  0
    1.5975   -2.2035    0.1777 H   0  0  0  0  0  0  0  0  0  0  0  0
    2.9203   -0.4968    0.2920 C   0  0  0  0  0  0  0  0  0  0  0  0
    4.1238   -0.9369   -0.3931 C   0  0  0  0  0  0  0  0  0  0  0  0
    4.9669   -0.2221   -0.9655 O   0  0  0  0  0  0  0  0  0  0  0  0
    4.2737   -2.2956   -0.3674 O   0  0  0  0  0  0  0  0  0  0  0  0
    5.4352   -2.7953   -1.0264 C   0  0  0  0  0  0  0  0  0  0  0  0
    6.3618   -2.3815   -0.5776 H   0  0  0  0  0  0  0  0  0  0  0  0
    5.4332   -2.5280   -2.1033 H   0  0  0  0  0  0  0  0  0  0  0  0
    5.4084   -3.8935   -0.9054 H   0  0  0  0  0  0  0  0  0  0  0  0
    2.5915    0.8626    0.2956 C   0  0  0  0  0  0  0  0  0  0  0  0
    1.3231    1.3750    0.9751 C   0  0  1  0  0  0  0  0  0  0  0  0
    1.6312    1.6294    2.0175 H   0  0  0  0  0  0  0  0  0  0  0  0
    0.8484    2.6915    0.3415 C   0  0  0  0  0  0  0  0  0  0  0  0
    0.5042    2.5139   -0.6992 H   0  0  0  0  0  0  0  0  0  0  0  0
   -0.0244    3.0873    0.8985 H   0  0  0  0  0  0  0  0  0  0  0  0
    1.9928    3.7041    0.3233 C   0  0  0  0  0  0  0  0  0  0  0  0
    1.6577    4.6878   -0.0636 H   0  0  0  0  0  0  0  0  0  0  0  0
    2.3644    3.8702    1.3578 H   0  0  0  0  0  0  0  0  0  0  0  0
    3.1174    3.1675   -0.5550 C   0  0  0  0  0  0  0  0  0  0  0  0
    2.8170    3.2646   -1.6282 H   0  0  0  0  0  0  0  0  0  0  0  0
    4.0400    3.7744   -0.4359 H   0  0  0  0  0  0  0  0  0  0  0  0
    3.4296    1.7857   -0.2477 N   0  0  0  0  0  0  0  0  0  0  0  0
    4.2607    1.3420   -0.6916 H   0  0  0  0  0  0  0  0  0  0  0  0
  2  1  1  0  0  0  0
  3  1  1  0  0  0  0
  3  5  1  0  0  0  0
  4  3  1  0  0  0  0
  5  6  1  6  0  0  0
  5 11  1  0  0  0  0
  7  6  1  0  0  0  0
  8  7  1  0  0  0  0
  9  7  1  0  0  0  0
 10  7  1  0  0  0  0
 11 12  1  0  0  0  0
 11 13  1  0  0  0  0
 13 15  1  0  0  0  0
 13 14  1  0  0  0  0
 16  1  1  6  0  0  0
 16 17  1  0  0  0  0
 16 13  1  0  0  0  0
 17 19  1  0  0  0  0
 17 18  1  0  0  0  0
 20 21  1  0  0  0  0
 20 17  1  0  0  0  0
 22 20  1  0  0  0  0
 23 31  2  0  0  0  0
 23 20  1  0  0  0  0
 24 26  1  0  0  0  0
 24 23  1  0  0  0  0
 25 24  2  0  0  0  0
 27 30  1  0  0  0  0
 27 28  1  0  0  0  0
 27 26  1  0  0  0  0
 29 27  1  0  0  0  0
 31 32  1  0  0  0  0
 32 16  1  0  0  0  0
 32 33  1  1  0  0  0
 34 36  1  0  0  0  0
 34 32  1  0  0  0  0
 35 34  1  0  0  0  0
 37 34  1  0  0  0  0
 37 39  1  0  0  0  0
 38 37  1  0  0  0  0
 40 42  1  0  0  0  0
 40 43  1  0  0  0  0
 40 37  1  0  0  0  0
 41 40  1  0  0  0  0
 43 31  1  0  0  0  0
 44 43  1  0  0  0  0
M  END
