1
q = 0.0, confidence = 0.996

 33 35  0  0  0  0  0  0  0  0999 V2000
   -0.8343   -1.8791   -0.0585 C   0  0  0  0  0  2  0  0  0  0  0  0
   -1.9778   -2.3071    0.5501 N   0  0  0  0  0  0  0  0  0  0  0  0
   -2.1972   -3.6535    0.3073 C   0  0  0  0  0  0  0  0  0  0  0  0
   -3.0807   -4.1807    0.6777 H   0  0  0  0  0  0  0  0  0  0  0  0
   -1.1515   -4.0882   -0.4647 C   0  0  0  0  0  0  0  0  0  0  0  0
   -0.3357   -2.9866   -0.6826 N   0  0  0  0  0  0  0  0  0  0  0  0
    0.9306   -3.0112   -1.4231 C   0  0  0  0  0  0  0  0  0  0  0  0
    0.8957   -3.8839   -2.1032 H   0  0  0  0  0  0  0  0  0  0  0  0
    0.9920   -2.0900   -2.0306 H   0  0  0  0  0  0  0  0  0  0  0  0
    2.1407   -3.0779   -0.5079 C   0  0  0  0  0  0  0  0  0  0  0  0
    2.8323   -1.9355   -0.3412 N   0  0  0  0  0  0  0  0  0  0  0  0
    3.8811   -1.9468    0.4994 C   0  0  0  0  0  0  0  0  0  0  0  0
    4.2914   -3.0878    1.2056 C   0  0  0  0  0  0  0  0  0  0  0  0
    3.5773   -4.2798    1.0210 C   0  0  0  0  0  0  0  0  0  0  0  0
    2.4817   -4.2758    0.1478 C   0  0  0  0  0  0  0  0  0  0  0  0
    1.8975   -5.1927   -0.0245 H   0  0  0  0  0  0  0  0  0  0  0  0
    3.8703   -5.2006    1.5474 H   0  0  0  0  0  0  0  0  0  0  0  0
    5.1572   -3.0385    1.8818 H   0  0  0  0  0  0  0  0  0  0  0  0
    4.4214   -0.9938    0.6200 H   0  0  0  0  0  0  0  0  0  0  0  0
   -0.9351   -5.0734   -0.8880 H   0  0  0  0  0  0  0  0  0  0  0  0
   -2.9044   -1.4353    1.2569 C   0  0  0  0  0  0  0  0  0  0  0  0
   -3.0029   -1.7689    2.3100 H   0  0  0  0  0  0  0  0  0  0  0  0
   -2.4596   -0.4152    1.2548 H   0  0  0  0  0  0  0  0  0  0  0  0
   -4.2650   -1.3529    0.5854 C   0  0  0  0  0  0  0  0  0  0  0  0
   -4.3251   -1.6684   -0.7176 N   0  0  0  0  0  0  0  0  0  0  0  0
   -5.5020   -1.5292   -1.3507 C   0  0  0  0  0  0  0  0  0  0  0  0
   -6.6663   -1.0611   -0.7215 C   0  0  0  0  0  0  0  0  0  0  0  0
   -6.5993   -0.7406    0.6433 C   0  0  0  0  0  0  0  0  0  0  0  0
   -5.3795   -0.8938    1.3143 C   0  0  0  0  0  0  0  0  0  0  0  0
   -5.2886   -0.6555    2.3850 H   0  0  0  0  0  0  0  0  0  0  0  0
   -7.4897   -0.3807    1.1806 H   0  0  0  0  0  0  0  0  0  0  0  0
   -7.6045   -0.9613   -1.2866 H   0  0  0  0  0  0  0  0  0  0  0  0
   -5.5169   -1.8055   -2.4197 H   0  0  0  0  0  0  0  0  0  0  0  0
  1  2  1  0  0  0  0
  2 21  1  0  0  0  0
  3  2  1  0  0  0  0
  3  4  1  0  0  0  0
  5  3  2  0  0  0  0
  6  5  1  0  0  0  0
  6  1  1  0  0  0  0
  7  6  1  0  0  0  0
  7 10  1  0  0  0  0
  8  7  1  0  0  0  0
  9  7  1  0  0  0  0
 10 11  2  0  0  0  0
 10 15  1  0  0  0  0
 11 12  1  0  0  0  0
 12 19  1  0  0  0  0
 12 13  2  0  0  0  0
 13 18  1  0  0  0  0
 14 13  1  0  0  0  0
 14 17  1  0  0  0  0
 15 14  2  0  0  0  0
 16 15  1  0  0  0  0
 20  5  1  0  0  0  0
 21 22  1  0  0  0  0
 23 21  1  0  0  0  0
 24 21  1  0  0  0  0
 24 29  1  0  0  0  0
 25 24  2  0  0  0  0
 26 27  2  0  0  0  0
 26 25  1  0  0  0  0
 27 28  1  0  0  0  0
 28 31  1  0  0  0  0
 28 29  2  0  0  0  0
 29 30  1  0  0  0  0
 32 27  1  0  0  0  0
 33 26  1  0  0  0  0
M  END
