36
q = 0.0, confidence = 0.984

 65 67  0  0  0  0  0  0  0  0999 V2000
   -0.3977    1.4508    1.2298 N   0  0  0  0  0  0  0  0  0  0  0  0
   -2.1317    0.2351    0.7756 N   0  0  0  0  0  0  0  0  0  0  0  0
   -3.5947   -0.2822   -1.1252 C   0  0  0  0  0  0  0  0  0  0  0  0
   -4.5039   -1.1664   -1.7323 C   0  0  0  0  0  0  0  0  0  0  0  0
   -4.9566   -0.8991   -2.6973 H   0  0  0  0  0  0  0  0  0  0  0  0
   -4.8431   -2.3834   -1.1254 C   0  0  0  0  0  0  0  0  0  0  0  0
   -5.5596   -3.0589   -1.6173 H   0  0  0  0  0  0  0  0  0  0  0  0
   -4.2661   -2.7475    0.0947 C   0  0  0  0  0  0  0  0  0  0  0  0
   -4.5260   -3.7126    0.5535 H   0  0  0  0  0  0  0  0  0  0  0  0
   -3.3401   -1.9071    0.7442 C   0  0  0  0  0  0  0  0  0  0  0  0
   -3.0353   -0.6757    0.1190 C   0  0  0  0  0  0  0  0  0  0  0  0
   -3.2448    1.0594   -1.7618 C   0  0  0  0  0  0  0  0  0  0  0  0
   -2.1717    1.2389   -1.5447 H   0  0  0  0  0  0  0  0  0  0  0  0
   -3.3967    1.0735   -3.2874 C   0  0  0  0  0  0  0  0  0  0  0  0
   -2.8637    0.2253   -3.7609 H   0  0  0  0  0  0  0  0  0  0  0  0
   -2.9788    2.0134   -3.7012 H   0  0  0  0  0  0  0  0  0  0  0  0
   -4.4600    1.0258   -3.6018 H   0  0  0  0  0  0  0  0  0  0  0  0
   -4.0516    2.2080   -1.1264 C   0  0  0  0  0  0  0  0  0  0  0  0
   -5.1380    2.0725   -1.3083 H   0  0  0  0  0  0  0  0  0  0  0  0
   -3.7510    3.1834   -1.5626 H   0  0  0  0  0  0  0  0  0  0  0  0
   -3.8948    2.2683   -0.0319 H   0  0  0  0  0  0  0  0  0  0  0  0
   -2.7233   -2.3197    2.0745 C   0  0  0  0  0  0  0  0  0  0  0  0
   -1.8273   -1.6863    2.2336 H   0  0  0  0  0  0  0  0  0  0  0  0
   -3.7128   -2.0839    3.2308 C   0  0  0  0  0  0  0  0  0  0  0  0
   -4.0457   -1.0282    3.2904 H   0  0  0  0  0  0  0  0  0  0  0  0
   -3.2466   -2.3477    4.2021 H   0  0  0  0  0  0  0  0  0  0  0  0
   -4.6213   -2.7104    3.1096 H   0  0  0  0  0  0  0  0  0  0  0  0
   -2.2272   -3.7730    2.0631 C   0  0  0  0  0  0  0  0  0  0  0  0
   -3.0609   -4.4995    1.9678 H   0  0  0  0  0  0  0  0  0  0  0  0
   -1.7019   -3.9968    3.0135 H   0  0  0  0  0  0  0  0  0  0  0  0
   -1.5063   -3.9297    1.2383 H   0  0  0  0  0  0  0  0  0  0  0  0
   -2.4779    1.0395    1.8628 C   0  0  0  0  0  0  0  0  0  0  0  0
   -3.4684    0.9948    2.3224 H   0  0  0  0  0  0  0  0  0  0  0  0
   -1.3808    1.8052    2.1513 C   0  0  0  0  0  0  0  0  0  0  0  0
   -1.2118    2.5622    2.9213 H   0  0  0  0  0  0  0  0  0  0  0  0
   -0.8439    0.4712    0.3795 C   0  0  0  0  0  2  0  0  0  0  0  0
    0.9044    2.0604    1.1051 C   0  0  0  0  0  0  0  0  0  0  0  0
    1.0469    3.1468    0.2037 C   0  0  0  0  0  0  0  0  0  0  0  0
    2.3287    3.7099    0.0651 C   0  0  0  0  0  0  0  0  0  0  0  0
    2.4794    4.5508   -0.6266 H   0  0  0  0  0  0  0  0  0  0  0  0
    3.4178    3.2096    0.7911 C   0  0  0  0  0  0  0  0  0  0  0  0
    4.4135    3.6613    0.6642 H   0  0  0  0  0  0  0  0  0  0  0  0
    3.2458    2.1361    1.6720 C   0  0  0  0  0  0  0  0  0  0  0  0
    4.1089    1.7458    2.2298 H   0  0  0  0  0  0  0  0  0  0  0  0
    1.9856    1.5319    1.8505 C   0  0  0  0  0  0  0  0  0  0  0  0
   -0.1455    3.7000   -0.5690 C   0  0  0  0  0  0  0  0  0  0  0  0
   -0.8368    2.8504   -0.7481 H   0  0  0  0  0  0  0  0  0  0  0  0
    0.2305    4.2831   -1.9383 C   0  0  0  0  0  0  0  0  0  0  0  0
    0.7883    5.2374   -1.8424 H   0  0  0  0  0  0  0  0  0  0  0  0
   -0.6851    4.5019   -2.5240 H   0  0  0  0  0  0  0  0  0  0  0  0
    0.8580    3.5864   -2.5288 H   0  0  0  0  0  0  0  0  0  0  0  0
   -0.9063    4.7503    0.2636 C   0  0  0  0  0  0  0  0  0  0  0  0
   -1.2564    4.3378    1.2290 H   0  0  0  0  0  0  0  0  0  0  0  0
   -1.7961    5.1166   -0.2887 H   0  0  0  0  0  0  0  0  0  0  0  0
   -0.2546    5.6213    0.4825 H   0  0  0  0  0  0  0  0  0  0  0  0
    1.7998    0.3808    2.8279 C   0  0  0  0  0  0  0  0  0  0  0  0
    0.9262   -0.2089    2.4826 H   0  0  0  0  0  0  0  0  0  0  0  0
    2.9863   -0.5915    2.8430 C   0  0  0  0  0  0  0  0  0  0  0  0
    3.2081   -0.9633    1.8243 H   0  0  0  0  0  0  0  0  0  0  0  0
    2.7349   -1.4735    3.4646 H   0  0  0  0  0  0  0  0  0  0  0  0
    3.9024   -0.1335    3.2723 H   0  0  0  0  0  0  0  0  0  0  0  0
    1.5034    0.9201    4.2401 C   0  0  0  0  0  0  0  0  0  0  0  0
    2.3560    1.5182    4.6252 H   0  0  0  0  0  0  0  0  0  0  0  0
    1.3286    0.0820    4.9452 H   0  0  0  0  0  0  0  0  0  0  0  0
    0.6051    1.5693    4.2578 H   0  0  0  0  0  0  0  0  0  0  0  0
  1 34  1  0  0  0  0
  2 32  1  0  0  0  0
  3 11  1  0  0  0  0
  4  6  1  0  0  0  0
  4  3  2  0  0  0  0
  5  4  1  0  0  0  0
  6  8  2  0  0  0  0
  7  6  1  0  0  0  0
  8  9  1  0  0  0  0
  8 10  1  0  0  0  0
 10 22  1  0  0  0  0
 11 10  2  0  0  0  0
 11  2  1  0  0  0  0
 12 13  1  0  0  0  0
 12 18  1  0  0  0  0
 12  3  1  0  0  0  0
 14 12  1  0  0  0  0
 15 14  1  0  0  0  0
 16 14  1  0  0  0  0
 17 14  1  0  0  0  0
 18 21  1  0  0  0  0
 19 18  1  0  0  0  0
 20 18  1  0  0  0  0
 22 23  1  0  0  0  0
 22 24  1  0  0  0  0
 24 25  1  0  0  0  0
 24 26  1  0  0  0  0
 27 24  1  0  0  0  0
 28 22  1  0  0  0  0
 28 30  1  0  0  0  0
 29 28  1  0  0  0  0
 31 28  1  0  0  0  0
 32 34  2  0  0  0  0
 32 33  1  0  0  0  0
 34 35  1  0  0  0  0
 36  2  1  0  0  0  0
 36  1  1  0  0  0  0
 37  1  1  0  0  0  0
 37 45  1  0  0  0  0
 38 37  2  0  0  0  0
 39 38  1  0  0  0  0
 39 41  2  0  0  0  0
 40 39  1  0  0  0  0
 41 43  1  0  0  0  0
 42 41  1  0  0  0  0
 43 45  2  0  0  0  0
 43 44  1  0  0  0  0
 45 56  1  0  0  0  0
 46 38  1  0  0  0  0
 46 52  1  0  0  0  0
 47 46  1  0  0  0  0
 48 49  1  0  0  0  0
 48 46  1  0  0  0  0
 50 48  1  0  0  0  0
 51 48  1  0  0  0  0
 52 55  1  0  0  0  0
 52 53  1  0  0  0  0
 54 52  1  0  0  0  0
 56 58  1  0  0  0  0
 56 62  1  0  0  0  0
 57 56  1  0  0  0  0
 58 61  1  0  0  0  0
 58 60  1  0  0  0  0
 59 58  1  0  0  0  0
 62 65  1  0  0  0  0
 62 63  1  0  0  0  0
 62 64  1  0  0  0  0
M  END
