3
q = 0.0, confidence = 0.984

 49 51  0  0  0  0  0  0  0  0999 V2000
   -2.6750    0.4391   -0.0988 N   0  0  0  0  0  0  0  0  0  0  0  0
   -1.4419    2.2618   -0.0209 N   0  0  0  0  0  0  0  0  0  0  0  0
   -1.4111    0.9106   -0.0235 C   0  0  0  0  0  2  0  0  0  0  0  0
   -2.8225    2.7823    0.0167 C   0  0  0  0  0  0  0  0  0  0  0  0
   -2.9628    3.5796   -0.7387 H   0  0  0  0  0  0  0  0  0  0  0  0
   -3.0275    3.2197    1.0182 H   0  0  0  0  0  0  0  0  0  0  0  0
   -3.6600    1.5258   -0.2660 C   0  0  0  0  0  0  0  0  0  0  0  0
   -4.5073    1.3991    0.4355 H   0  0  0  0  0  0  0  0  0  0  0  0
   -4.0664    1.5025   -1.3007 H   0  0  0  0  0  0  0  0  0  0  0  0
   -0.3150    3.1428    0.0895 C   0  0  0  0  0  0  0  0  0  0  0  0
    0.2770    3.3630    1.3557 C   0  0  0  0  0  0  0  0  0  0  0  0
    1.3777    4.2369    1.4212 C   0  0  0  0  0  0  0  0  0  0  0  0
    1.8525    4.4114    2.4002 H   0  0  0  0  0  0  0  0  0  0  0  0
    1.8772    4.8982    0.2854 C   0  0  0  0  0  0  0  0  0  0  0  0
    1.2281    4.6890   -0.9453 C   0  0  0  0  0  0  0  0  0  0  0  0
    1.5911    5.2130   -1.8442 H   0  0  0  0  0  0  0  0  0  0  0  0
    0.1292    3.8226   -1.0699 C   0  0  0  0  0  0  0  0  0  0  0  0
   -0.2500    2.6988    2.5987 C   0  0  0  0  0  0  0  0  0  0  0  0
    0.1934    3.1533    3.5048 H   0  0  0  0  0  0  0  0  0  0  0  0
   -0.0319    1.6088    2.6117 H   0  0  0  0  0  0  0  0  0  0  0  0
   -1.3534    2.7881    2.6771 H   0  0  0  0  0  0  0  0  0  0  0  0
   -0.5513    3.6258   -2.3991 C   0  0  0  0  0  0  0  0  0  0  0  0
   -0.6224    2.5474   -2.6447 H   0  0  0  0  0  0  0  0  0  0  0  0
    0.0138    4.1261   -3.2080 H   0  0  0  0  0  0  0  0  0  0  0  0
   -1.5790    4.0493   -2.4049 H   0  0  0  0  0  0  0  0  0  0  0  0
    3.0875    5.7930    0.3790 C   0  0  0  0  0  0  0  0  0  0  0  0
    4.0181    5.2197    0.1775 H   0  0  0  0  0  0  0  0  0  0  0  0
    3.1912    6.2375    1.3885 H   0  0  0  0  0  0  0  0  0  0  0  0
    3.0468    6.6164   -0.3613 H   0  0  0  0  0  0  0  0  0  0  0  0
   -3.0750   -0.9363   -0.1790 C   0  0  0  0  0  0  0  0  0  0  0  0
   -3.6501   -1.5437    0.9634 C   0  0  0  0  0  0  0  0  0  0  0  0
   -4.0499   -2.8865    0.8636 C   0  0  0  0  0  0  0  0  0  0  0  0
   -4.4854   -3.3736    1.7509 H   0  0  0  0  0  0  0  0  0  0  0  0
   -3.9021   -3.6235   -0.3261 C   0  0  0  0  0  0  0  0  0  0  0  0
   -3.3649   -2.9711   -1.4493 C   0  0  0  0  0  0  0  0  0  0  0  0
   -3.2686   -3.5218   -2.3990 H   0  0  0  0  0  0  0  0  0  0  0  0
   -2.9533   -1.6261   -1.4078 C   0  0  0  0  0  0  0  0  0  0  0  0
   -3.8216   -0.7803    2.2499 C   0  0  0  0  0  0  0  0  0  0  0  0
   -2.8554   -0.3337    2.5615 H   0  0  0  0  0  0  0  0  0  0  0  0
   -4.1724   -1.4477    3.0595 H   0  0  0  0  0  0  0  0  0  0  0  0
   -4.5664    0.0388    2.1516 H   0  0  0  0  0  0  0  0  0  0  0  0
   -2.4099   -0.9539   -2.6400 C   0  0  0  0  0  0  0  0  0  0  0  0
   -2.6235   -1.5569   -3.5428 H   0  0  0  0  0  0  0  0  0  0  0  0
   -1.3116   -0.7989   -2.5773 H   0  0  0  0  0  0  0  0  0  0  0  0
   -2.8498    0.0536   -2.7898 H   0  0  0  0  0  0  0  0  0  0  0  0
   -4.2934   -5.0786   -0.3855 C   0  0  0  0  0  0  0  0  0  0  0  0
   -4.5028   -5.4049   -1.4230 H   0  0  0  0  0  0  0  0  0  0  0  0
   -5.1896   -5.2871    0.2323 H   0  0  0  0  0  0  0  0  0  0  0  0
   -3.4753   -5.7228    0.0031 H   0  0  0  0  0  0  0  0  0  0  0  0
  1  3  1  0  0  0  0
  2  4  1  0  0  0  0
  2 10  1  0  0  0  0
  3  2  1  0  0  0  0
  4  6  1  0  0  0  0
  5  4  1  0  0  0  0
  7  1  1  0  0  0  0
  7  4  1  0  0  0  0
  7  8  1  0  0  0  0
  9  7  1  0  0  0  0
 10 11  1  0  0  0  0
 11 12  2  0  0  0  0
 11 18  1  0  0  0  0
 12 13  1  0  0  0  0
 14 26  1  0  0  0  0
 14 12  1  0  0  0  0
 15 14  2  0  0  0  0
 16 15  1  0  0  0  0
 17 15  1  0  0  0  0
 17 10  2  0  0  0  0
 18 20  1  0  0  0  0
 18 21  1  0  0  0  0
 18 19  1  0  0  0  0
 22 17  1  0  0  0  0
 23 22  1  0  0  0  0
 24 22  1  0  0  0  0
 25 22  1  0  0  0  0
 26 28  1  0  0  0  0
 27 26  1  0  0  0  0
 29 26  1  0  0  0  0
 30  1  1  0  0  0  0
 30 31  1  0  0  0  0
 31 38  1  0  0  0  0
 32 31  2  0  0  0  0
 32 33  1  0  0  0  0
 34 32  1  0  0  0  0
 35 37  1  0  0  0  0
 35 34  2  0  0  0  0
 36 35  1  0  0  0  0
 37 30  2  0  0  0  0
 38 39  1  0  0  0  0
 38 40  1  0  0  0  0
 41 38  1  0  0  0  0
 42 44  1  0  0  0  0
 42 37  1  0  0  0  0
 43 42  1  0  0  0  0
 45 42  1  0  0  0  0
 46 34  1  0  0  0  0
 46 49  1  0  0  0  0
 46 48  1  0  0  0  0
 47 46  1  0  0  0  0
M  END
