5
q = 0.0, confidence = 0.996

 43 44  0  0  0  0  0  0  0  0999 V2000
    8.7573   -1.5708    0.4055 O   0  0  0  0  0  0  0  0  0  0  0  0
   -1.0829    1.0167   -0.3129 N   0  0  0  0  0  2  0  0  0  0  0  0
    3.9412   -0.5480   -0.1624 N   0  0  0  0  0  0  0  0  0  0  0  0
    6.7266    0.0696   -0.4182 N   0  0  0  0  0  0  0  0  0  0  0  0
   -2.0010    0.2766   -0.4374 C   0  0  0  0  0  1  0  0  0  0  0  0
    0.1491    1.6989   -0.1555 C   0  0  0  0  0  0  0  0  0  0  0  0
    0.0087    2.4914    0.6102 H   0  0  0  0  0  0  0  0  0  0  0  0
    0.3843    2.2112   -1.1146 H   0  0  0  0  0  0  0  0  0  0  0  0
    1.2830    0.7487    0.2468 C   0  0  0  0  0  0  0  0  0  0  0  0
    1.0687    0.3577    1.2639 H   0  0  0  0  0  0  0  0  0  0  0  0
    2.2186    1.3383    0.3352 H   0  0  0  0  0  0  0  0  0  0  0  0
    1.5090   -0.4153   -0.7189 C   0  0  0  0  0  0  0  0  0  0  0  0
    0.6072   -1.0615   -0.7725 H   0  0  0  0  0  0  0  0  0  0  0  0
    1.6589   -0.0261   -1.7501 H   0  0  0  0  0  0  0  0  0  0  0  0
    2.6950   -1.2913   -0.3003 C   0  0  0  0  0  0  0  0  0  0  0  0
    2.4685   -1.7412    0.6912 H   0  0  0  0  0  0  0  0  0  0  0  0
    2.7951   -2.1515   -1.0145 H   0  0  0  0  0  0  0  0  0  0  0  0
    4.5133   -0.1358   -1.4379 C   0  0  0  0  0  0  0  0  0  0  0  0
    3.7566    0.4305   -2.0183 H   0  0  0  0  0  0  0  0  0  0  0  0
    4.8113   -1.0248   -2.0569 H   0  0  0  0  0  0  0  0  0  0  0  0
    5.7382    0.7552   -1.2317 C   0  0  0  0  0  0  0  0  0  0  0  0
    6.1837    0.9925   -2.2182 H   0  0  0  0  0  0  0  0  0  0  0  0
    5.4060    1.7208   -0.7669 H   0  0  0  0  0  0  0  0  0  0  0  0
    6.1653   -0.3634    0.8614 C   0  0  0  0  0  0  0  0  0  0  0  0
    6.9303   -0.9286    1.4210 H   0  0  0  0  0  0  0  0  0  0  0  0
    5.8636    0.5255    1.4728 H   0  0  0  0  0  0  0  0  0  0  0  0
    4.9428   -1.2459    0.6349 C   0  0  0  0  0  0  0  0  0  0  0  0
    5.2772   -2.1987    0.1433 H   0  0  0  0  0  0  0  0  0  0  0  0
    4.4963   -1.5137    1.6156 H   0  0  0  0  0  0  0  0  0  0  0  0
    8.0545    0.5353   -0.4433 C   0  0  0  0  0  0  0  0  0  0  0  0
    8.3986    1.8113   -0.9362 C   0  0  0  0  0  0  0  0  0  0  0  0
    7.5989    2.4915   -1.2597 H   0  0  0  0  0  0  0  0  0  0  0  0
    9.7342    2.2415   -1.0121 C   0  0  0  0  0  0  0  0  0  0  0  0
    9.9614    3.2435   -1.4053 H   0  0  0  0  0  0  0  0  0  0  0  0
   10.7614    1.4014   -0.5738 C   0  0  0  0  0  0  0  0  0  0  0  0
   11.8115    1.7261   -0.6197 H   0  0  0  0  0  0  0  0  0  0  0  0
   10.4519    0.1226   -0.0751 C   0  0  0  0  0  0  0  0  0  0  0  0
   11.2654   -0.5396    0.2494 H   0  0  0  0  0  0  0  0  0  0  0  0
    9.1216   -0.3225   -0.0191 C   0  0  0  0  0  0  0  0  0  0  0  0
    9.7728   -2.4786    0.7838 C   0  0  0  0  0  0  0  0  0  0  0  0
    9.2625   -3.4190    1.0641 H   0  0  0  0  0  0  0  0  0  0  0  0
   10.3589   -2.1111    1.6563 H   0  0  0  0  0  0  0  0  0  0  0  0
   10.4762   -2.6842   -0.0540 H   0  0  0  0  0  0  0  0  0  0  0  0
  1 40  1  0  0  0  0
  2  6  1  0  0  0  0
  3 27  1  0  0  0  0
  4 24  1  0  0  0  0
  5  2  1  0  0  0  0
  6  9  1  0  0  0  0
  6  7  1  0  0  0  0
  8  6  1  0  0  0  0
  9 11  1  0  0  0  0
  9 10  1  0  0  0  0
 12 15  1  0  0  0  0
 12  9  1  0  0  0  0
 13 12  1  0  0  0  0
 14 12  1  0  0  0  0
 15  3  1  0  0  0  0
 15 16  1  0  0  0  0
 17 15  1  0  0  0  0
 18 21  1  0  0  0  0
 18  3  1  0  0  0  0
 19 18  1  0  0  0  0
 20 18  1  0  0  0  0
 21 23  1  0  0  0  0
 21  4  1  0  0  0  0
 22 21  1  0  0  0  0
 24 25  1  0  0  0  0
 24 26  1  0  0  0  0
 27 24  1  0  0  0  0
 27 29  1  0  0  0  0
 28 27  1  0  0  0  0
 30  4  1  0  0  0  0
 30 39  1  0  0  0  0
 31 30  2  0  0  0  0
 32 31  1  0  0  0  0
 33 31  1  0  0  0  0
 33 35  2  0  0  0  0
 34 33  1  0  0  0  0
 35 37  1  0  0  0  0
 36 35  1  0  0  0  0
 37 39  2  0  0  0  0
 37 38  1  0  0  0  0
 39  1  1  0  0  0  0
 40 41  1  0  0  0  0
 40 42  1  0  0  0  0
 43 40  1  0  0  0  0
M  END
