6
q = 0.0, confidence = 1.0

 49 50  0  0  1  0  0  0  0  0999 V2000
    2.8780    1.5281   -0.5390 Si  0  0  0  0  0  0  0  0  0  0  0  0
   -2.6808   -1.4678   -0.7233 C   0  0  2  0  0  0  0  0  0  0  0  0
   -3.7482   -0.6875    0.0559 C   0  0  0  0  0  0  0  0  0  0  0  0
   -3.8860    0.7542   -0.4311 C   0  0  0  0  0  0  0  0  0  0  0  0
   -2.5694    1.4955   -0.5678 C   0  0  0  0  0  0  0  0  0  0  0  0
   -0.0299    1.3247   -0.5048 C   0  0  0  0  0  3  0  0  0  0  0  0
    1.2005    0.6232   -0.6628 C   0  0  0  0  0  0  0  0  0  0  0  0
    1.1200   -0.7920   -0.8526 C   0  0  0  0  0  0  0  0  0  0  0  0
   -0.1388   -1.4753   -0.8340 C   0  0  0  0  0  0  0  0  0  0  0  0
   -1.3576   -0.7305   -0.6855 C   0  0  0  0  0  0  0  0  0  0  0  0
   -1.3188    0.7038   -0.6015 C   0  0  1  0  0  3  0  0  0  0  0  0
   -2.5660    2.8447   -0.7520 C   0  0  0  0  0  0  0  0  0  0  0  0
   -3.7981    3.6996   -0.7786 C   0  0  0  0  0  0  0  0  0  0  0  0
   -3.0760   -1.7427   -2.1864 C   0  0  0  0  0  0  0  0  0  0  0  0
    0.3934   -3.6667   -0.0362 C   0  0  0  0  0  0  0  0  0  0  0  0
    2.4470   -2.0952   -2.3051 C   0  0  0  0  0  0  0  0  0  0  0  0
    2.5028    3.2990    0.0117 C   0  0  0  0  0  0  0  0  0  0  0  0
    3.6628    1.5476   -2.2638 C   0  0  0  0  0  0  0  0  0  0  0  0
    4.0465    0.7164    0.6954 C   0  0  0  0  0  0  0  0  0  0  0  0
   -0.2313   -2.8284   -1.0175 O   0  0  0  0  0  0  0  0  0  0  0  0
    2.2892   -1.4960   -1.0144 O   0  0  0  0  0  0  0  0  0  0  0  0
   -2.5252   -2.4479   -0.2294 H   0  0  0  0  0  0  0  0  0  0  0  0
   -3.4828   -0.6937    1.1309 H   0  0  0  0  0  0  0  0  0  0  0  0
   -4.7231   -1.2096   -0.0311 H   0  0  0  0  0  0  0  0  0  0  0  0
   -4.4040    0.7768   -1.4172 H   0  0  0  0  0  0  0  0  0  0  0  0
   -4.5552    1.3180    0.2522 H   0  0  0  0  0  0  0  0  0  0  0  0
    0.0105    2.4029   -0.3054 H   0  0  0  0  0  0  0  0  0  0  0  0
   -1.6077    3.3582   -0.9286 H   0  0  0  0  0  0  0  0  0  0  0  0
   -4.4085    3.5134   -1.6914 H   0  0  0  0  0  0  0  0  0  0  0  0
   -3.5496    4.7776   -0.7652 H   0  0  0  0  0  0  0  0  0  0  0  0
   -4.4693    3.4935    0.0830 H   0  0  0  0  0  0  0  0  0  0  0  0
   -4.0421   -2.2853   -2.2315 H   0  0  0  0  0  0  0  0  0  0  0  0
   -2.3078   -2.3646   -2.6856 H   0  0  0  0  0  0  0  0  0  0  0  0
   -3.1826   -0.8034   -2.7659 H   0  0  0  0  0  0  0  0  0  0  0  0
    1.4832   -3.4761    0.0380 H   0  0  0  0  0  0  0  0  0  0  0  0
    0.2107   -4.7079   -0.3609 H   0  0  0  0  0  0  0  0  0  0  0  0
   -0.0670   -3.4938    0.9592 H   0  0  0  0  0  0  0  0  0  0  0  0
    1.6376   -2.8236   -2.5198 H   0  0  0  0  0  0  0  0  0  0  0  0
    3.4226   -2.6152   -2.2888 H   0  0  0  0  0  0  0  0  0  0  0  0
    2.4608   -1.3194   -3.1013 H   0  0  0  0  0  0  0  0  0  0  0  0
    1.9760    3.3125    0.9880 H   0  0  0  0  0  0  0  0  0  0  0  0
    1.8869    3.8524   -0.7265 H   0  0  0  0  0  0  0  0  0  0  0  0
    3.4528    3.8585    0.1361 H   0  0  0  0  0  0  0  0  0  0  0  0
    4.5788    2.1742   -2.2649 H   0  0  0  0  0  0  0  0  0  0  0  0
    2.9666    1.9600   -3.0223 H   0  0  0  0  0  0  0  0  0  0  0  0
    3.9547    0.5263   -2.5812 H   0  0  0  0  0  0  0  0  0  0  0  0
    5.0411    1.2068    0.6499 H   0  0  0  0  0  0  0  0  0  0  0  0
    4.1710   -0.3610    0.4748 H   0  0  0  0  0  0  0  0  0  0  0  0
    3.6612    0.8089    1.7297 H   0  0  0  0  0  0  0  0  0  0  0  0
  1 17  1  0  0  0  0
  1 19  1  0  0  0  0
  2 10  1  0  0  0  0
  2 22  1  1  0  0  0
  2  3  1  0  0  0  0
  3 23  1  0  0  0  0
  4  3  1  0  0  0  0
  4 26  1  0  0  0  0
  5  4  1  0  0  0  0
  6 27  1  0  0  0  0
  7  1  1  0  0  0  0
  7  6  1  0  0  0  0
  8  9  1  0  0  0  0
  8  7  2  0  0  0  0
  9 10  2  0  0  0  0
 11 10  1  1  0  0  0
 11  5  1  0  0  0  0
 11  6  1  0  0  0  0
 12  5  2  0  0  0  0
 13 30  1  0  0  0  0
 13 12  1  0  0  0  0
 13 31  1  0  0  0  0
 14  2  1  0  0  0  0
 15 35  1  0  0  0  0
 15 37  1  0  0  0  0
 16 39  1  0  0  0  0
 16 21  1  0  0  0  0
 17 43  1  0  0  0  0
 17 41  1  0  0  0  0
 18  1  1  0  0  0  0
 19 49  1  0  0  0  0
 20  9  1  0  0  0  0
 20 15  1  0  0  0  0
 21  8  1  0  0  0  0
 24  3  1  0  0  0  0
 25  4  1  0  0  0  0
 28 12  1  0  0  0  0
 29 13  1  0  0  0  0
 32 14  1  0  0  0  0
 33 14  1  0  0  0  0
 34 14  1  0  0  0  0
 36 15  1  0  0  0  0
 38 16  1  0  0  0  0
 40 16  1  0  0  0  0
 42 17  1  0  0  0  0
 44 18  1  0  0  0  0
 45 18  1  0  0  0  0
 46 18  1  0  0  0  0
 47 19  1  0  0  0  0
 48 19  1  0  0  0  0
M  END
