2
q = -1.0, confidence = 0.308

  6  5  0  0  0  0  0  0  0  0999 V2000
    1.9085   -2.6028   -0.6153 O   0  0  0  0  0  0  0  0  0  0  0  0
    1.5090   -1.5675   -1.1343 C   0  0  0  0  0  3  0  0  0  0  0  0
    1.4938   -1.4790   -2.6536 C   0  0  0  0  0  0  0  0  0  0  0  0
    1.8421   -2.4286   -3.1085 H   0  0  0  0  0  0  0  0  0  0  0  0
    2.1435   -0.6412   -2.9808 H   0  0  0  0  0  0  0  0  0  0  0  0
    0.4703   -1.2363   -3.0063 H   0  0  0  0  0  0  0  0  0  0  0  0
  2  1  2  0  0  0  0
  3  2  1  0  0  0  0
  4  3  1  0  0  0  0
  5  3  1  0  0  0  0
  6  3  1  0  0  0  0
M  END
