2
q = 0.0, confidence = 0.978

 18 18  0  0  0  0  0  0  0  0999 V2000
   -1.5124   -1.4502    1.3037 N   0  0  0  0  0  0  0  0  0  0  0  0
   -0.2047   -1.1859    1.2504 C   0  0  0  0  0  2  0  0  0  0  0  0
    0.6093   -2.1605    2.0374 C   0  0  0  0  0  0  0  0  0  0  0  0
   -2.5930   -0.7621    0.6663 C   0  0  0  0  0  0  0  0  0  0  0  0
   -3.3681   -1.4474   -0.2847 C   0  0  0  0  0  0  0  0  0  0  0  0
   -4.4329   -0.7885   -0.9148 C   0  0  0  0  0  0  0  0  0  0  0  0
   -4.7236    0.5467   -0.5937 C   0  0  0  0  0  0  0  0  0  0  0  0
   -3.9579    1.2188    0.3724 C   0  0  0  0  0  0  0  0  0  0  0  0
   -2.8958    0.5663    1.0125 C   0  0  0  0  0  0  0  0  0  0  0  0
   -1.7979   -2.2878    1.8332 H   0  0  0  0  0  0  0  0  0  0  0  0
    1.2288   -1.6353    2.7907 H   0  0  0  0  0  0  0  0  0  0  0  0
    0.0109   -2.9499    2.5463 H   0  0  0  0  0  0  0  0  0  0  0  0
    1.3229   -2.6281    1.3123 H   0  0  0  0  0  0  0  0  0  0  0  0
   -3.1150   -2.4861   -0.5452 H   0  0  0  0  0  0  0  0  0  0  0  0
   -5.0310   -1.3188   -1.6706 H   0  0  0  0  0  0  0  0  0  0  0  0
   -5.5531    1.0652   -1.0970 H   0  0  0  0  0  0  0  0  0  0  0  0
   -4.1889    2.2620    0.6343 H   0  0  0  0  0  0  0  0  0  0  0  0
   -2.2960    1.0811    1.7746 H   0  0  0  0  0  0  0  0  0  0  0  0
  1 10  1  0  0  0  0
  2  1  1  0  0  0  0
  2  3  1  0  0  0  0
  3 12  1  0  0  0  0
  3 11  1  0  0  0  0
  4  9  1  0  0  0  0
  4  1  1  0  0  0  0
  5  4  2  0  0  0  0
  6  7  2  0  0  0  0
  6  5  1  0  0  0  0
  7  8  1  0  0  0  0
  8 17  1  0  0  0  0
  8  9  2  0  0  0  0
  9 18  1  0  0  0  0
 13  3  1  0  0  0  0
 14  5  1  0  0  0  0
 15  6  1  0  0  0  0
 16  7  1  0  0  0  0
M  END
