1
q = 0.0, confidence = 0.788

  6  5  0  0  0  0  0  0  0  0999 V2000
    1.6738   -0.3381   -2.4472 C   0  0  0  0  0  3  0  0  0  0  0  0
    1.2109    1.0390   -2.2089 C   0  0  0  0  0  3  0  0  0  0  0  0
    2.7342   -0.5112   -2.7002 H   0  0  0  0  0  0  0  0  0  0  0  0
    1.0130   -1.0449   -2.9812 H   0  0  0  0  0  0  0  0  0  0  0  0
    0.1976    1.2979   -2.5690 H   0  0  0  0  0  0  0  0  0  0  0  0
    1.9110    1.8791   -2.3608 H   0  0  0  0  0  0  0  0  0  0  0  0
  1  2  1  0  0  0  0
  3  1  1  0  0  0  0
  4  1  1  0  0  0  0
  5  2  1  0  0  0  0
  6  2  1  0  0  0  0
M  END
