4
q = -1.0, confidence = 0.004

 13 12  0  0  1  0  0  0  0  0999 V2000
   -1.4486    2.0014   -1.2991 S   0  0  0  0  0  1  0  0  0  0  0  0
    0.5038    4.0728   -0.0936 O   0  0  0  0  0  0  0  0  0  0  0  0
    0.2426    1.7811   -0.6401 C   0  0  1  0  0  3  0  0  0  0  0  0
    1.2143    1.3924   -1.6144 C   0  0  0  0  0  3  0  0  0  0  0  0
    2.2522    1.7449   -1.4988 H   0  0  0  0  0  0  0  0  0  0  0  0
    0.8918    1.1727   -2.6438 H   0  0  0  0  0  0  0  0  0  0  0  0
    0.5734    2.7696    0.4536 C   0  0  0  0  0  0  0  0  0  0  0  0
   -0.1461    2.6507    1.2961 H   0  0  0  0  0  0  0  0  0  0  0  0
    1.5943    2.5641    0.8528 H   0  0  0  0  0  0  0  0  0  0  0  0
    0.4516    5.0814    0.8870 C   0  0  0  0  0  0  0  0  0  0  0  0
    0.3875    6.0551    0.3638 H   0  0  0  0  0  0  0  0  0  0  0  0
    1.3621    5.0887    1.5366 H   0  0  0  0  0  0  0  0  0  0  0  0
   -0.4399    4.9736    1.5513 H   0  0  0  0  0  0  0  0  0  0  0  0
  2  7  1  0  0  0  0
  2 10  1  0  0  0  0
  3  1  1  6  0  0  0
  3  7  1  0  0  0  0
  4  5  1  0  0  0  0
  4  3  1  0  0  0  0
  6  4  1  0  0  0  0
  7  9  1  0  0  0  0
  7  8  1  0  0  0  0
 10 12  1  0  0  0  0
 10 13  1  0  0  0  0
 11 10  1  0  0  0  0
M  END
