3
q = -1.0, confidence = 0.008

 16 16  0  0  0  0  0  0  0  0999 V2000
    4.8668    0.2201    2.3437 N   0  0  0  0  0  0  0  0  0  0  0  0
    6.2181   -1.6606    2.4918 O   0  0  0  0  0  0  0  0  0  0  0  0
    1.4697   -0.2402    1.7924 C   0  0  0  0  0  3  0  0  0  0  0  0
    2.5067   -0.3868    2.4510 C   0  0  0  0  0  0  0  0  0  0  0  0
    3.8031   -0.4906    3.1041 C   0  0  0  0  0  0  0  0  0  0  0  0
    3.7873   -0.0863    4.1413 H   0  0  0  0  0  0  0  0  0  0  0  0
    4.1673   -1.5375    3.1748 H   0  0  0  0  0  0  0  0  0  0  0  0
    4.6311    1.4807    1.8766 C   0  0  0  0  0  0  0  0  0  0  0  0
    3.6346    1.8858    2.1089 H   0  0  0  0  0  0  0  0  0  0  0  0
    5.5634    2.1654    1.1273 C   0  0  0  0  0  0  0  0  0  0  0  0
    5.3344    3.1731    0.7605 H   0  0  0  0  0  0  0  0  0  0  0  0
    6.7944    1.5160    0.8297 C   0  0  0  0  0  0  0  0  0  0  0  0
    7.5529    2.0358    0.2227 H   0  0  0  0  0  0  0  0  0  0  0  0
    7.0384    0.2374    1.2836 C   0  0  0  0  0  0  0  0  0  0  0  0
    7.9737   -0.2942    1.0601 H   0  0  0  0  0  0  0  0  0  0  0  0
    6.0747   -0.5018    2.0794 C   0  0  0  0  0  0  0  0  0  0  0  0
  1  5  1  0  0  0  0
  3  4  3  0  0  0  0
  4  5  1  0  0  0  0
  5  7  1  0  0  0  0
  5  6  1  0  0  0  0
  8  9  1  0  0  0  0
  8  1  1  0  0  0  0
 10  8  2  0  0  0  0
 11 10  1  0  0  0  0
 12 10  1  0  0  0  0
 12 14  2  0  0  0  0
 13 12  1  0  0  0  0
 14 16  1  0  0  0  0
 15 14  1  0  0  0  0
 16  1  1  0  0  0  0
 16  2  2  0  0  0  0
M  END
