6
q = 0.0, confidence = 0.904

 13 12  0  0  1  0  0  0  0  0999 V2000
   -0.0763    2.6665   -1.3243 C   0  0  0  0  0  3  0  0  0  0  0  0
   -1.1019    3.0405   -1.1946 H   0  0  0  0  0  0  0  0  0  0  0  0
    0.2622    2.5619   -2.3652 H   0  0  0  0  0  0  0  0  0  0  0  0
    0.9146    2.8636   -0.3254 C   0  0  0  0  0  3  0  0  0  0  0  0
    1.9784    2.9281   -0.6050 H   0  0  0  0  0  0  0  0  0  0  0  0
    0.5959    2.7595    1.0885 C   0  0  1  0  0  3  0  0  0  0  0  0
   -0.7993    2.4837    1.3725 C   0  0  0  0  0  3  0  0  0  0  0  0
   -1.5862    3.0426    0.8406 H   0  0  0  0  0  0  0  0  0  0  0  0
   -1.0464    2.2338    2.4181 H   0  0  0  0  0  0  0  0  0  0  0  0
    1.6467    2.9011    2.1559 C   0  0  0  0  0  0  0  0  0  0  0  0
    1.4428    2.2089    2.9967 H   0  0  0  0  0  0  0  0  0  0  0  0
    2.6575    2.6882    1.7571 H   0  0  0  0  0  0  0  0  0  0  0  0
    1.6512    3.9336    2.5667 H   0  0  0  0  0  0  0  0  0  0  0  0
  1  2  1  0  0  0  0
  1  4  1  0  0  0  0
  3  1  1  0  0  0  0
  5  4  1  0  0  0  0
  6  4  1  6  0  0  0
  6  7  1  0  0  0  0
  6 10  1  0  0  0  0
  7  9  1  0  0  0  0
  8  7  1  0  0  0  0
 10 13  1  0  0  0  0
 10 11  1  0  0  0  0
 12 10  1  0  0  0  0
M  END
