30
q = -1.0, confidence = 0.006

 56 58  0  0  0  0  0  0  0  0999 V2000
    0.7909    0.2623    0.1733 P   0  0  2  0  0  0  0  0  0  0  0  0
    0.9379   -1.8476    2.1414 O   0  0  0  0  0  0  0  0  0  0  0  0
    2.8107   -0.6033   -1.9927 O   0  0  0  0  0  0  0  0  0  0  0  0
    3.5039    1.4589    0.1183 O   0  0  0  0  0  0  0  0  0  0  0  0
   -0.6694    1.6636   -2.1865 O   0  0  0  0  0  0  0  0  0  0  0  0
   -3.5613    1.2930    1.5867 O   0  0  0  0  0  0  0  0  0  0  0  0
   -3.8848    2.8770    0.0011 O   0  0  0  0  0  0  0  0  0  0  0  0
    1.0310    1.1011    1.8048 C   0  0  0  0  0  0  0  0  0  0  0  0
    0.0888    2.0744    2.1886 C   0  0  0  0  0  0  0  0  0  0  0  0
    0.2364    2.7613    3.4031 C   0  0  0  0  0  0  0  0  0  0  0  0
    1.3248    2.4828    4.2422 C   0  0  0  0  0  0  0  0  0  0  0  0
    2.2716    1.5191    3.8568 C   0  0  0  0  0  0  0  0  0  0  0  0
    2.1312    0.8336    2.6426 C   0  0  0  0  0  0  0  0  0  0  0  0
    1.9780   -1.1365    0.1549 C   0  0  0  0  0  0  0  0  0  0  0  0
    1.9417   -2.0442    1.2501 C   0  0  0  0  0  0  0  0  0  0  0  0
    2.8911   -3.0779    1.3710 C   0  0  0  0  0  0  0  0  0  0  0  0
    3.8452   -3.2456    0.3608 C   0  0  0  0  0  0  0  0  0  0  0  0
    3.8555   -2.4247   -0.7737 C   0  0  0  0  0  0  0  0  0  0  0  0
    2.9094   -1.3865   -0.8901 C   0  0  0  0  0  0  0  0  0  0  0  0
    0.9582   -2.5283    3.3914 C   0  0  0  0  0  0  0  0  0  0  0  0
    3.8320   -0.6402   -2.9806 C   0  0  0  0  0  0  0  0  0  0  0  0
    1.4208    1.5610   -0.9794 C   0  0  0  0  0  0  0  0  0  0  0  0
    2.7547    2.0478   -0.8408 C   0  0  0  0  0  0  0  0  0  0  0  0
    3.2434    3.0518   -1.6987 C   0  0  0  0  0  0  0  0  0  0  0  0
    2.4223    3.5668   -2.7120 C   0  0  0  0  0  0  0  0  0  0  0  0
    1.1121    3.1045   -2.8737 C   0  0  0  0  0  0  0  0  0  0  0  0
    0.6261    2.1187   -2.0023 C   0  0  0  0  0  0  0  0  0  0  0  0
    4.8156    1.9366    0.3817 C   0  0  0  0  0  0  0  0  0  0  0  0
   -1.6180    2.1433   -1.3036 C   0  0  0  0  0  0  0  0  0  0  0  0
   -2.1108    1.3467   -0.3317 C   0  0  0  0  0  3  0  0  0  0  0  0
   -3.2326    1.8105    0.5260 C   0  0  0  0  0  0  0  0  0  0  0  0
   -4.9544    3.4069    0.8012 C   0  0  0  0  0  0  0  0  0  0  0  0
   -0.7657    2.2997    1.5363 H   0  0  0  0  0  0  0  0  0  0  0  0
   -0.5104    3.5148    3.6937 H   0  0  0  0  0  0  0  0  0  0  0  0
    1.4379    3.0170    5.1973 H   0  0  0  0  0  0  0  0  0  0  0  0
    3.1313    1.2995    4.5080 H   0  0  0  0  0  0  0  0  0  0  0  0
    2.8851    0.0935    2.3405 H   0  0  0  0  0  0  0  0  0  0  0  0
    2.8769   -3.7546    2.2341 H   0  0  0  0  0  0  0  0  0  0  0  0
    4.5873   -4.0530    0.4481 H   0  0  0  0  0  0  0  0  0  0  0  0
    4.5885   -2.6024   -1.5700 H   0  0  0  0  0  0  0  0  0  0  0  0
    1.8972   -2.3185    3.9457 H   0  0  0  0  0  0  0  0  0  0  0  0
    0.0979   -2.1356    3.9618 H   0  0  0  0  0  0  0  0  0  0  0  0
    0.8429   -3.6257    3.2602 H   0  0  0  0  0  0  0  0  0  0  0  0
    3.5854    0.1618   -3.6999 H   0  0  0  0  0  0  0  0  0  0  0  0
    4.8306   -0.4409   -2.5363 H   0  0  0  0  0  0  0  0  0  0  0  0
    3.8555   -1.6160   -3.5118 H   0  0  0  0  0  0  0  0  0  0  0  0
    4.2685    3.4266   -1.5867 H   0  0  0  0  0  0  0  0  0  0  0  0
    2.8151    4.3464   -3.3814 H   0  0  0  0  0  0  0  0  0  0  0  0
    0.4476    3.4954   -3.6561 H   0  0  0  0  0  0  0  0  0  0  0  0
    5.4867    1.7899   -0.4922 H   0  0  0  0  0  0  0  0  0  0  0  0
    4.8082    3.0108    0.6638 H   0  0  0  0  0  0  0  0  0  0  0  0
    5.1927    1.3401    1.2321 H   0  0  0  0  0  0  0  0  0  0  0  0
   -1.9486    3.1831   -1.4805 H   0  0  0  0  0  0  0  0  0  0  0  0
   -4.5754    3.7601    1.7809 H   0  0  0  0  0  0  0  0  0  0  0  0
   -5.3769    4.2476    0.2238 H   0  0  0  0  0  0  0  0  0  0  0  0
   -5.7263    2.6333    0.9845 H   0  0  0  0  0  0  0  0  0  0  0  0
  1 22  1  6  0  0  0
  1  8  1  0  0  0  0
  2 20  1  0  0  0  0
  3 19  1  0  0  0  0
  4 28  1  0  0  0  0
  5 27  1  0  0  0  0
  5 29  1  0  0  0  0
  7 31  1  0  0  0  0
  7 32  1  0  0  0  0
  8  9  2  0  0  0  0
  8 13  1  0  0  0  0
  9 10  1  0  0  0  0
 10 34  1  0  0  0  0
 10 11  2  0  0  0  0
 11 35  1  0  0  0  0
 12 11  1  0  0  0  0
 12 36  1  0  0  0  0
 13 12  2  0  0  0  0
 14  1  1  0  0  0  0
 14 15  1  0  0  0  0
 15 16  2  0  0  0  0
 15  2  1  0  0  0  0
 16 38  1  0  0  0  0
 17 39  1  0  0  0  0
 17 16  1  0  0  0  0
 18 17  2  0  0  0  0
 19 18  1  0  0  0  0
 19 14  2  0  0  0  0
 20 41  1  0  0  0  0
 20 42  1  0  0  0  0
 21 45  1  0  0  0  0
 21  3  1  0  0  0  0
 22 23  1  0  0  0  0
 23  4  1  0  0  0  0
 24 47  1  0  0  0  0
 24 23  2  0  0  0  0
 25 24  1  0  0  0  0
 26 25  2  0  0  0  0
 26 27  1  0  0  0  0
 27 22  2  0  0  0  0
 28 51  1  0  0  0  0
 28 52  1  0  0  0  0
 29 30  2  0  0  0  0
 30 31  1  0  0  0  0
 31  6  2  0  0  0  0
 32 56  1  0  0  0  0
 32 54  1  0  0  0  0
 33  9  1  0  0  0  0
 37 13  1  0  0  0  0
 40 18  1  0  0  0  0
 43 20  1  0  0  0  0
 44 21  1  0  0  0  0
 46 21  1  0  0  0  0
 48 25  1  0  0  0  0
 49 26  1  0  0  0  0
 50 28  1  0  0  0  0
 53 29  1  0  0  0  0
 55 32  1  0  0  0  0
M  END
