1
q = 0.0, confidence = 0.996

 38 41  0  0  1  0  0  0  0  0999 V2000
    1.0031   -0.6135   -0.3890 C   0  0  0  0  0  3  0  0  0  0  0  0
    3.1322   -1.3244   -0.1705 N   0  0  0  0  0  0  0  0  0  0  0  0
    1.0690   -1.9854   -0.6195 N   0  0  0  0  0  0  0  0  0  0  0  0
    2.3481   -2.4371   -0.4887 C   0  0  1  0  0  3  0  0  0  0  0  0
    4.3050   -3.8371   -0.4574 C   0  0  0  0  0  0  0  0  0  0  0  0
    4.7811   -4.8223   -0.5573 H   0  0  0  0  0  0  0  0  0  0  0  0
    4.4965   -1.4506   -0.0314 C   0  0  0  0  0  0  0  0  0  0  0  0
    5.0438   -0.5224    0.1719 H   0  0  0  0  0  0  0  0  0  0  0  0
    5.0898   -2.6903   -0.1684 C   0  0  0  0  0  0  0  0  0  0  0  0
    6.1795   -2.7677   -0.0548 H   0  0  0  0  0  0  0  0  0  0  0  0
    2.9285   -3.7085   -0.6275 C   0  0  0  0  0  0  0  0  0  0  0  0
    2.2954   -4.5707   -0.8735 H   0  0  0  0  0  0  0  0  0  0  0  0
    2.3069   -0.1962   -0.1012 C   0  0  0  0  0  0  0  0  0  0  0  0
    2.2368    2.2407   -0.5400 C   0  0  0  0  0  0  0  0  0  0  0  0
    1.5127    2.0293   -1.3418 H   0  0  0  0  0  0  0  0  0  0  0  0
    2.7723    1.1601    0.2009 C   0  0  0  0  0  0  0  0  0  0  0  0
    3.5243    3.7991    0.7775 C   0  0  0  0  0  0  0  0  0  0  0  0
    3.6820    1.4381    1.2464 C   0  0  0  0  0  0  0  0  0  0  0  0
    4.0614    0.6238    1.8814 H   0  0  0  0  0  0  0  0  0  0  0  0
    4.0667    2.7537    1.5345 C   0  0  0  0  0  0  0  0  0  0  0  0
    4.7626    2.9848    2.3532 H   0  0  0  0  0  0  0  0  0  0  0  0
    3.8903    5.0646    1.0515 F   0  0  0  0  0  0  0  0  0  0  0  0
   -0.0815   -2.8027   -1.0321 C   0  0  0  0  0  0  0  0  0  0  0  0
    0.2583   -3.8564   -1.0708 H   0  0  0  0  0  0  0  0  0  0  0  0
   -0.3561   -2.4763   -2.0558 H   0  0  0  0  0  0  0  0  0  0  0  0
   -1.2688   -2.6459   -0.1082 C   0  0  0  0  0  0  0  0  0  0  0  0
   -2.4959   -2.1761   -0.6172 C   0  0  0  0  0  0  0  0  0  0  0  0
   -2.5738   -1.9183   -1.6839 H   0  0  0  0  0  0  0  0  0  0  0  0
   -3.5950   -1.9827    0.2300 C   0  0  0  0  0  0  0  0  0  0  0  0
   -4.5534   -1.6000   -0.1481 H   0  0  0  0  0  0  0  0  0  0  0  0
   -3.4448   -2.2391    1.5971 C   0  0  0  0  0  0  0  0  0  0  0  0
   -2.2388   -2.7093    2.1302 C   0  0  0  0  0  0  0  0  0  0  0  0
   -2.1583   -2.8839    3.2120 H   0  0  0  0  0  0  0  0  0  0  0  0
   -1.1572   -2.9195    1.2675 C   0  0  0  0  0  0  0  0  0  0  0  0
   -0.1961   -3.2594    1.6838 H   0  0  0  0  0  0  0  0  0  0  0  0
   -4.4849   -2.0153    2.4246 F   0  0  0  0  0  0  0  0  0  0  0  0
    2.6078    3.5582   -0.2539 C   0  0  0  0  0  0  0  0  0  0  0  0
    2.1970    4.4056   -0.8208 H   0  0  0  0  0  0  0  0  0  0  0  0
  1 13  2  0  0  0  0
  2 13  1  0  0  0  0
  2  7  1  0  0  0  0
  3  4  1  0  0  0  0
  3  1  1  0  0  0  0
  4 11  1  6  0  0  0
  4  2  1  0  0  0  0
  5  9  1  0  0  0  0
  6  5  1  0  0  0  0
  7  8  1  0  0  0  0
  9 10  1  0  0  0  0
  9  7  2  0  0  0  0
 11  5  2  0  0  0  0
 12 11  1  0  0  0  0
 13 16  1  0  0  0  0
 14 37  2  0  0  0  0
 14 16  1  0  0  0  0
 15 14  1  0  0  0  0
 16 18  2  0  0  0  0
 17 22  1  0  0  0  0
 17 20  2  0  0  0  0
 18 20  1  0  0  0  0
 18 19  1  0  0  0  0
 20 21  1  0  0  0  0
 23  3  1  0  0  0  0
 23 26  1  0  0  0  0
 24 23  1  0  0  0  0
 25 23  1  0  0  0  0
 26 34  1  0  0  0  0
 27 26  2  0  0  0  0
 27 29  1  0  0  0  0
 28 27  1  0  0  0  0
 29 31  2  0  0  0  0
 30 29  1  0  0  0  0
 31 32  1  0  0  0  0
 31 36  1  0  0  0  0
 32 33  1  0  0  0  0
 34 35  1  0  0  0  0
 34 32  2  0  0  0  0
 37 17  1  0  0  0  0
 38 37  1  0  0  0  0
M  END
