6
q = 0.0, confidence = 0.994

 38 41  0  0  1  0  0  0  0  0999 V2000
    2.7819   -1.8495   -0.5514 C   0  0  2  0  0  3  0  0  0  0  0  0
   -0.7587   -2.6375   -0.2684 C   0  0  0  0  0  0  0  0  0  0  0  0
    3.3829   -0.6574   -0.1377 N   0  0  0  0  0  0  0  0  0  0  0  0
    3.5502   -3.0063   -0.7619 C   0  0  0  0  0  0  0  0  0  0  0  0
    3.0585   -3.9341   -1.0819 H   0  0  0  0  0  0  0  0  0  0  0  0
    1.1743   -0.2598   -0.3646 C   0  0  0  0  0  3  0  0  0  0  0  0
    2.6485    1.7125    0.3936 C   0  0  0  0  0  0  0  0  0  0  0  0
   -0.6144   -2.9942    1.0849 C   0  0  0  0  0  0  0  0  0  0  0  0
    0.3854   -3.2102    1.4924 H   0  0  0  0  0  0  0  0  0  0  0  0
    3.6834    3.3791    1.8514 C   0  0  0  0  0  0  0  0  0  0  0  0
    4.3399    3.6190    2.7015 H   0  0  0  0  0  0  0  0  0  0  0  0
    1.4514   -1.5868   -0.6847 N   0  0  0  0  0  0  0  0  0  0  0  0
    3.0131    4.4050    1.1673 C   0  0  0  0  0  0  0  0  0  0  0  0
    3.1548    5.4538    1.4693 H   0  0  0  0  0  0  0  0  0  0  0  0
    4.7485   -0.5866    0.0260 C   0  0  0  0  0  0  0  0  0  0  0  0
    5.1451    0.3964    0.3067 H   0  0  0  0  0  0  0  0  0  0  0  0
    2.3952    0.3270   -0.0141 C   0  0  0  0  0  0  0  0  0  0  0  0
    5.5249   -1.7101   -0.1806 C   0  0  0  0  0  0  0  0  0  0  0  0
    6.6120   -1.6306   -0.0452 H   0  0  0  0  0  0  0  0  0  0  0  0
    3.5000    2.0418    1.4728 C   0  0  0  0  0  0  0  0  0  0  0  0
    3.9845    1.2447    2.0566 H   0  0  0  0  0  0  0  0  0  0  0  0
    4.9275   -2.9384   -0.5665 C   0  0  0  0  0  0  0  0  0  0  0  0
    5.5489   -3.8313   -0.7214 H   0  0  0  0  0  0  0  0  0  0  0  0
    1.9705    2.7529   -0.2838 C   0  0  0  0  0  0  0  0  0  0  0  0
    1.2936    2.4937   -1.1124 H   0  0  0  0  0  0  0  0  0  0  0  0
   -2.0408   -2.3275   -0.7636 C   0  0  0  0  0  0  0  0  0  0  0  0
   -2.1511   -2.0043   -1.8095 H   0  0  0  0  0  0  0  0  0  0  0  0
    2.1523    4.0855    0.1044 C   0  0  0  0  0  0  0  0  0  0  0  0
    1.6155    4.8836   -0.4305 H   0  0  0  0  0  0  0  0  0  0  0  0
    0.4444   -2.5365   -1.1796 C   0  0  0  0  0  0  0  0  0  0  0  0
    0.9436   -3.5190   -1.2929 H   0  0  0  0  0  0  0  0  0  0  0  0
    0.1290   -2.1764   -2.1801 H   0  0  0  0  0  0  0  0  0  0  0  0
   -1.7214   -3.0228    1.9407 C   0  0  0  0  0  0  0  0  0  0  0  0
   -1.6218   -3.2649    3.0077 H   0  0  0  0  0  0  0  0  0  0  0  0
   -3.1624   -2.3739    0.0750 C   0  0  0  0  0  0  0  0  0  0  0  0
   -4.1666   -2.1181   -0.2912 H   0  0  0  0  0  0  0  0  0  0  0  0
   -2.9829   -2.7081    1.4217 C   0  0  0  0  0  0  0  0  0  0  0  0
   -4.0511   -2.7149    2.2438 F   0  0  0  0  0  0  0  0  0  0  0  0
  1  4  1  6  0  0  0
  1  3  1  0  0  0  0
  2  8  1  0  0  0  0
  3 17  1  0  0  0  0
  3 15  1  0  0  0  0
  4 22  2  0  0  0  0
  5  4  1  0  0  0  0
  6 17  2  0  0  0  0
  7 20  1  0  0  0  0
  8  9  1  0  0  0  0
  8 33  2  0  0  0  0
 10 11  1  0  0  0  0
 12  1  1  0  0  0  0
 12  6  1  0  0  0  0
 13 14  1  0  0  0  0
 13 10  1  0  0  0  0
 15 16  1  0  0  0  0
 17  7  1  0  0  0  0
 18 19  1  0  0  0  0
 18 15  2  0  0  0  0
 20 10  2  0  0  0  0
 20 21  1  0  0  0  0
 22 18  1  0  0  0  0
 23 22  1  0  0  0  0
 24 28  1  0  0  0  0
 24  7  2  0  0  0  0
 25 24  1  0  0  0  0
 26  2  2  0  0  0  0
 26 35  1  0  0  0  0
 27 26  1  0  0  0  0
 28 13  2  0  0  0  0
 29 28  1  0  0  0  0
 30 12  1  0  0  0  0
 30  2  1  0  0  0  0
 31 30  1  0  0  0  0
 32 30  1  0  0  0  0
 33 34  1  0  0  0  0
 35 37  2  0  0  0  0
 36 35  1  0  0  0  0
 37 33  1  0  0  0  0
 37 38  1  0  0  0  0
M  END
