14
q = 0.0, confidence = 0.998

 58 59  0  0  0  0  0  0  0  0999 V2000
    0.0144   -0.9383    0.3139 N   0  0  0  0  0  0  0  0  0  0  0  0
    1.9299   -0.7533   -1.2439 C   0  0  0  0  0  0  0  0  0  0  0  0
    3.2921   -0.4527   -1.4354 C   0  0  0  0  0  0  0  0  0  0  0  0
    3.7338   -0.5859   -2.4344 H   0  0  0  0  0  0  0  0  0  0  0  0
    4.0838    0.0351   -0.3906 C   0  0  0  0  0  0  0  0  0  0  0  0
    5.1478    0.2577   -0.5625 H   0  0  0  0  0  0  0  0  0  0  0  0
    2.1537   -0.0028    1.1111 C   0  0  0  0  0  0  0  0  0  0  0  0
    0.4210   -2.7133    2.0608 C   0  0  0  0  0  0  0  0  0  0  0  0
    1.5088   -2.7411    1.8516 H   0  0  0  0  0  0  0  0  0  0  0  0
    0.1102   -3.7267    2.3834 H   0  0  0  0  0  0  0  0  0  0  0  0
    0.2420   -2.0198    2.9029 H   0  0  0  0  0  0  0  0  0  0  0  0
    3.5095    0.2801    0.8615 C   0  0  0  0  0  0  0  0  0  0  0  0
    4.1211    0.7210    1.6628 H   0  0  0  0  0  0  0  0  0  0  0  0
   -0.9821   -0.0908    0.0790 C   0  0  0  0  0  2  0  0  0  0  0  0
    1.0755   -1.1259   -2.4505 C   0  0  0  0  0  0  0  0  0  0  0  0
    0.0792   -1.4311   -2.0796 H   0  0  0  0  0  0  0  0  0  0  0  0
   -2.2984   -0.7828    0.3958 C   0  0  0  0  0  0  0  0  0  0  0  0
    1.3895   -0.5726    0.0575 C   0  0  0  0  0  0  0  0  0  0  0  0
    1.5322    0.4278    2.4348 C   0  0  0  0  0  0  0  0  0  0  0  0
    0.5144   -0.0040    2.4867 H   0  0  0  0  0  0  0  0  0  0  0  0
    1.6558   -2.2937   -3.2624 C   0  0  0  0  0  0  0  0  0  0  0  0
    2.6246   -2.0244   -3.7309 H   0  0  0  0  0  0  0  0  0  0  0  0
    0.9645   -2.5732   -4.0833 H   0  0  0  0  0  0  0  0  0  0  0  0
    1.8259   -3.1926   -2.6365 H   0  0  0  0  0  0  0  0  0  0  0  0
   -2.4935    0.7313    2.4992 C   0  0  0  0  0  0  0  0  0  0  0  0
   -2.0744   -0.0508    3.1666 H   0  0  0  0  0  0  0  0  0  0  0  0
   -3.2038    1.3298    3.1033 H   0  0  0  0  0  0  0  0  0  0  0  0
   -1.6634    1.4007    2.1945 H   0  0  0  0  0  0  0  0  0  0  0  0
   -0.3792   -2.3181    0.8156 C   0  0  0  0  0  0  0  0  0  0  0  0
   -1.8796   -2.0912    1.1199 C   0  0  0  0  0  0  0  0  0  0  0  0
   -2.4881   -2.9607    0.8044 H   0  0  0  0  0  0  0  0  0  0  0  0
   -2.0200   -1.9821    2.2133 H   0  0  0  0  0  0  0  0  0  0  0  0
    2.3191   -0.0630    3.6591 C   0  0  0  0  0  0  0  0  0  0  0  0
    2.4608   -1.1621    3.6492 H   0  0  0  0  0  0  0  0  0  0  0  0
    1.7855    0.2075    4.5929 H   0  0  0  0  0  0  0  0  0  0  0  0
    3.3240    0.4038    3.7134 H   0  0  0  0  0  0  0  0  0  0  0  0
   -0.1456   -3.3729   -0.2770 C   0  0  0  0  0  0  0  0  0  0  0  0
   -0.7448   -3.1733   -1.1850 H   0  0  0  0  0  0  0  0  0  0  0  0
   -0.4358   -4.3694    0.1107 H   0  0  0  0  0  0  0  0  0  0  0  0
    0.9230   -3.4189   -0.5640 H   0  0  0  0  0  0  0  0  0  0  0  0
    1.3627    1.9590    2.4568 C   0  0  0  0  0  0  0  0  0  0  0  0
    2.3474    2.4689    2.4134 H   0  0  0  0  0  0  0  0  0  0  0  0
    0.8559    2.2781    3.3908 H   0  0  0  0  0  0  0  0  0  0  0  0
    0.7586    2.3211    1.6007 H   0  0  0  0  0  0  0  0  0  0  0  0
   -2.9904   -1.0536   -0.9737 C   0  0  0  0  0  0  0  0  0  0  0  0
   -3.0417   -0.0855   -1.5169 H   0  0  0  0  0  0  0  0  0  0  0  0
   -2.3211   -1.6973   -1.5840 H   0  0  0  0  0  0  0  0  0  0  0  0
    0.8555    0.1146   -3.3374 C   0  0  0  0  0  0  0  0  0  0  0  0
    0.3817    0.9436   -2.7734 H   0  0  0  0  0  0  0  0  0  0  0  0
    0.1949   -0.1340   -4.1934 H   0  0  0  0  0  0  0  0  0  0  0  0
    1.8166    0.4879   -3.7474 H   0  0  0  0  0  0  0  0  0  0  0  0
   -3.1857    0.1372    1.2715 C   0  0  0  0  0  0  0  0  0  0  0  0
   -3.5486    0.9674    0.6268 H   0  0  0  0  0  0  0  0  0  0  0  0
   -4.0863   -0.4352    1.5803 H   0  0  0  0  0  0  0  0  0  0  0  0
   -4.3787   -1.6889   -0.8973 C   0  0  0  0  0  0  0  0  0  0  0  0
   -4.3687   -2.6485   -0.3395 H   0  0  0  0  0  0  0  0  0  0  0  0
   -4.7619   -1.9044   -1.9146 H   0  0  0  0  0  0  0  0  0  0  0  0
   -5.1140   -1.0233   -0.4037 H   0  0  0  0  0  0  0  0  0  0  0  0
  1 29  1  0  0  0  0
  2 18  1  0  0  0  0
  3  2  2  0  0  0  0
  3  5  1  0  0  0  0
  4  3  1  0  0  0  0
  5 12  2  0  0  0  0
  6  5  1  0  0  0  0
  7 19  1  0  0  0  0
  8 10  1  0  0  0  0
  8 11  1  0  0  0  0
  9  8  1  0  0  0  0
 12  7  1  0  0  0  0
 12 13  1  0  0  0  0
 14  1  1  0  0  0  0
 14 17  1  0  0  0  0
 15 16  1  0  0  0  0
 15  2  1  0  0  0  0
 17 30  1  0  0  0  0
 17 52  1  0  0  0  0
 18  1  1  0  0  0  0
 18  7  2  0  0  0  0
 19 41  1  0  0  0  0
 19 20  1  0  0  0  0
 19 33  1  0  0  0  0
 21 24  1  0  0  0  0
 21 15  1  0  0  0  0
 22 21  1  0  0  0  0
 23 21  1  0  0  0  0
 25 27  1  0  0  0  0
 25 26  1  0  0  0  0
 28 25  1  0  0  0  0
 29 30  1  0  0  0  0
 29  8  1  0  0  0  0
 30 32  1  0  0  0  0
 31 30  1  0  0  0  0
 33 36  1  0  0  0  0
 33 35  1  0  0  0  0
 34 33  1  0  0  0  0
 37 39  1  0  0  0  0
 37 29  1  0  0  0  0
 38 37  1  0  0  0  0
 40 37  1  0  0  0  0
 41 43  1  0  0  0  0
 42 41  1  0  0  0  0
 44 41  1  0  0  0  0
 45 55  1  0  0  0  0
 45 17  1  0  0  0  0
 46 45  1  0  0  0  0
 47 45  1  0  0  0  0
 48 49  1  0  0  0  0
 48 15  1  0  0  0  0
 50 48  1  0  0  0  0
 51 48  1  0  0  0  0
 52 54  1  0  0  0  0
 52 25  1  0  0  0  0
 53 52  1  0  0  0  0
 55 58  1  0  0  0  0
 55 56  1  0  0  0  0
 57 55  1  0  0  0  0
M  END
