3
q = 0.0, confidence = 0.976

 61 66  0  0  0  0  0  0  0  0999 V2000
    1.3009    0.5970    0.1943 N   0  0  0  0  0  0  0  0  0  0  0  0
   -0.6223    1.3414    0.9129 N   0  0  0  0  0  0  0  0  0  0  0  0
   -0.0393    0.3148    0.2258 C   0  0  0  0  0  2  0  0  0  0  0  0
    1.5811    1.7980    0.8542 C   0  0  0  0  0  0  0  0  0  0  0  0
    2.7639    2.5190    1.0931 C   0  0  0  0  0  0  0  0  0  0  0  0
    3.7371    2.1594    0.7363 H   0  0  0  0  0  0  0  0  0  0  0  0
    2.6468    3.7311    1.7878 C   0  0  0  0  0  0  0  0  0  0  0  0
    3.5538    4.3204    1.9872 H   0  0  0  0  0  0  0  0  0  0  0  0
    1.3950    4.2197    2.2238 C   0  0  0  0  0  0  0  0  0  0  0  0
    1.3456    5.1819    2.7544 H   0  0  0  0  0  0  0  0  0  0  0  0
    0.2120    3.5076    1.9834 C   0  0  0  0  0  0  0  0  0  0  0  0
   -0.7644    3.8983    2.3011 H   0  0  0  0  0  0  0  0  0  0  0  0
    0.3287    2.2872    1.3020 C   0  0  0  0  0  0  0  0  0  0  0  0
    2.2720   -0.3651   -0.3752 C   0  0  0  0  0  0  0  0  0  0  0  0
    1.6599   -0.9357   -1.1082 H   0  0  0  0  0  0  0  0  0  0  0  0
    2.7241   -1.3633    0.6788 C   0  0  0  0  0  0  0  0  0  0  0  0
    2.3832   -2.7204    0.5228 C   0  0  0  0  0  0  0  0  0  0  0  0
    1.8008   -3.0388   -0.3569 H   0  0  0  0  0  0  0  0  0  0  0  0
    2.7562   -3.6651    1.4916 C   0  0  0  0  0  0  0  0  0  0  0  0
    2.4766   -4.7205    1.3560 H   0  0  0  0  0  0  0  0  0  0  0  0
    3.4700   -3.2614    2.6295 C   0  0  0  0  0  0  0  0  0  0  0  0
    3.7604   -4.0005    3.3917 H   0  0  0  0  0  0  0  0  0  0  0  0
    3.8078   -1.9080    2.7964 C   0  0  0  0  0  0  0  0  0  0  0  0
    4.3634   -1.5836    3.6894 H   0  0  0  0  0  0  0  0  0  0  0  0
    3.4376   -0.9641    1.8278 C   0  0  0  0  0  0  0  0  0  0  0  0
    3.7052    0.0929    1.9723 H   0  0  0  0  0  0  0  0  0  0  0  0
    3.3655    0.3483   -1.1613 C   0  0  0  0  0  0  0  0  0  0  0  0
    4.7206   -0.0117   -1.0506 C   0  0  0  0  0  0  0  0  0  0  0  0
    5.0146   -0.8137   -0.3586 H   0  0  0  0  0  0  0  0  0  0  0  0
    5.6960    0.6459   -1.8187 C   0  0  0  0  0  0  0  0  0  0  0  0
    6.7525    0.3538   -1.7200 H   0  0  0  0  0  0  0  0  0  0  0  0
    5.3281    1.6671   -2.7063 C   0  0  0  0  0  0  0  0  0  0  0  0
    6.0937    2.1839   -3.3045 H   0  0  0  0  0  0  0  0  0  0  0  0
    3.9743    2.0215   -2.8330 C   0  0  0  0  0  0  0  0  0  0  0  0
    3.6740    2.8155   -3.5335 H   0  0  0  0  0  0  0  0  0  0  0  0
    3.0013    1.3640   -2.0703 C   0  0  0  0  0  0  0  0  0  0  0  0
    1.9418    1.6458   -2.1719 H   0  0  0  0  0  0  0  0  0  0  0  0
   -2.0720    1.5331    1.1262 C   0  0  0  0  0  0  0  0  0  0  0  0
   -2.1461    2.0580    2.1018 H   0  0  0  0  0  0  0  0  0  0  0  0
   -2.6590    2.4530    0.0660 C   0  0  0  0  0  0  0  0  0  0  0  0
   -3.5679    3.4578    0.4440 C   0  0  0  0  0  0  0  0  0  0  0  0
   -3.8253    3.5842    1.5081 H   0  0  0  0  0  0  0  0  0  0  0  0
   -4.1513    4.2924   -0.5212 C   0  0  0  0  0  0  0  0  0  0  0  0
   -4.8593    5.0760   -0.2116 H   0  0  0  0  0  0  0  0  0  0  0  0
   -3.8279    4.1296   -1.8772 C   0  0  0  0  0  0  0  0  0  0  0  0
   -4.2825    4.7844   -2.6359 H   0  0  0  0  0  0  0  0  0  0  0  0
   -2.9215    3.1283   -2.2616 C   0  0  0  0  0  0  0  0  0  0  0  0
   -2.6670    2.9916   -3.3234 H   0  0  0  0  0  0  0  0  0  0  0  0
   -2.3396    2.2939   -1.2962 C   0  0  0  0  0  0  0  0  0  0  0  0
   -1.6382    1.5016   -1.6028 H   0  0  0  0  0  0  0  0  0  0  0  0
   -2.7928    0.1975    1.2928 C   0  0  0  0  0  0  0  0  0  0  0  0
   -3.7973   -0.2317    0.4075 C   0  0  0  0  0  0  0  0  0  0  0  0
   -4.0880    0.4045   -0.4401 H   0  0  0  0  0  0  0  0  0  0  0  0
   -4.4131   -1.4810    0.5879 C   0  0  0  0  0  0  0  0  0  0  0  0
   -5.1748   -1.8186   -0.1296 H   0  0  0  0  0  0  0  0  0  0  0  0
   -4.0374   -2.3064    1.6552 C   0  0  0  0  0  0  0  0  0  0  0  0
   -4.5056   -3.2936    1.7807 H   0  0  0  0  0  0  0  0  0  0  0  0
   -3.0495   -1.8742    2.5563 C   0  0  0  0  0  0  0  0  0  0  0  0
   -2.7485   -2.5174    3.3968 H   0  0  0  0  0  0  0  0  0  0  0  0
   -2.4352   -0.6290    2.3789 C   0  0  0  0  0  0  0  0  0  0  0  0
   -1.6472   -0.3015    3.0757 H   0  0  0  0  0  0  0  0  0  0  0  0
  1  3  1  0  0  0  0
  1  4  1  0  0  0  0
  2 38  1  0  0  0  0
  2 13  1  0  0  0  0
  3  2  1  0  0  0  0
  4  5  2  0  0  0  0
  4 13  1  0  0  0  0
  5  7  1  0  0  0  0
  6  5  1  0  0  0  0
  7  8  1  0  0  0  0
  7  9  2  0  0  0  0
  9 10  1  0  0  0  0
 11  9  1  0  0  0  0
 11 12  1  0  0  0  0
 13 11  2  0  0  0  0
 14  1  1  0  0  0  0
 14 16  1  0  0  0  0
 15 14  1  0  0  0  0
 16 25  1  0  0  0  0
 17 16  2  0  0  0  0
 17 19  1  0  0  0  0
 18 17  1  0  0  0  0
 19 21  2  0  0  0  0
 20 19  1  0  0  0  0
 21 23  1  0  0  0  0
 21 22  1  0  0  0  0
 23 24  1  0  0  0  0
 25 26  1  0  0  0  0
 25 23  2  0  0  0  0
 27 28  1  0  0  0  0
 27 14  1  0  0  0  0
 28 29  1  0  0  0  0
 30 31  1  0  0  0  0
 30 28  2  0  0  0  0
 32 30  1  0  0  0  0
 33 32  1  0  0  0  0
 34 32  2  0  0  0  0
 34 36  1  0  0  0  0
 35 34  1  0  0  0  0
 36 27  2  0  0  0  0
 37 36  1  0  0  0  0
 38 51  1  0  0  0  0
 38 39  1  0  0  0  0
 40 41  1  0  0  0  0
 40 38  1  0  0  0  0
 41 42  1  0  0  0  0
 43 44  1  0  0  0  0
 43 41  2  0  0  0  0
 45 43  1  0  0  0  0
 46 45  1  0  0  0  0
 47 45  2  0  0  0  0
 47 49  1  0  0  0  0
 48 47  1  0  0  0  0
 49 40  2  0  0  0  0
 50 49  1  0  0  0  0
 51 60  1  0  0  0  0
 52 54  1  0  0  0  0
 52 51  2  0  0  0  0
 53 52  1  0  0  0  0
 54 56  2  0  0  0  0
 55 54  1  0  0  0  0
 56 57  1  0  0  0  0
 56 58  1  0  0  0  0
 58 59  1  0  0  0  0
 60 58  2  0  0  0  0
 60 61  1  0  0  0  0
M  END
