4
q = 0.0, confidence = 0.998

 62 64  0  0  0  0  0  0  0  0999 V2000
    2.5570   -2.1500   -0.2443 N   0  0  0  0  0  0  0  0  0  0  0  0
    0.8837   -1.5924   -1.4907 N   0  0  0  0  0  0  0  0  0  0  0  0
   -0.8081   -0.3032    0.1225 N   0  0  0  0  0  0  0  0  0  0  0  0
    2.0216   -1.0922   -0.9207 C   0  0  0  0  0  2  0  0  0  0  0  0
    1.7541   -3.2776   -0.3563 C   0  0  0  0  0  0  0  0  0  0  0  0
    2.0037   -4.2349    0.1085 H   0  0  0  0  0  0  0  0  0  0  0  0
    0.6888   -2.9211   -1.1414 C   0  0  0  0  0  0  0  0  0  0  0  0
   -0.1753   -3.4996   -1.4816 H   0  0  0  0  0  0  0  0  0  0  0  0
   -0.1253   -0.7690   -2.1226 C   0  0  0  0  0  0  0  0  0  0  0  0
   -0.6013   -1.3377   -2.9441 H   0  0  0  0  0  0  0  0  0  0  0  0
    0.3806    0.1073   -2.5809 H   0  0  0  0  0  0  0  0  0  0  0  0
   -1.1584   -0.2572   -1.1113 C   0  0  0  0  0  0  0  0  0  0  0  0
    3.7521   -2.0264    0.6161 C   0  0  0  0  0  0  0  0  0  0  0  0
    4.2986   -1.1574    0.1922 H   0  0  0  0  0  0  0  0  0  0  0  0
    4.6378   -3.2671    0.5234 C   0  0  0  0  0  0  0  0  0  0  0  0
    4.8871   -3.5084   -0.5286 H   0  0  0  0  0  0  0  0  0  0  0  0
    4.1602   -4.1549    0.9871 H   0  0  0  0  0  0  0  0  0  0  0  0
    5.5840   -3.0850    1.0686 H   0  0  0  0  0  0  0  0  0  0  0  0
    3.3295   -1.6838    2.0473 C   0  0  0  0  0  0  0  0  0  0  0  0
    2.7212   -0.7577    2.0599 H   0  0  0  0  0  0  0  0  0  0  0  0
    4.2234   -1.5208    2.6808 H   0  0  0  0  0  0  0  0  0  0  0  0
    2.7304   -2.5035    2.4944 H   0  0  0  0  0  0  0  0  0  0  0  0
   -2.4397    0.2752   -1.6624 C   0  0  0  0  0  0  0  0  0  0  0  0
   -3.0672    1.3998   -1.0778 C   0  0  0  0  0  0  0  0  0  0  0  0
   -2.5917    1.9071   -0.2289 H   0  0  0  0  0  0  0  0  0  0  0  0
   -4.2858    1.8749   -1.5767 C   0  0  0  0  0  0  0  0  0  0  0  0
   -4.7525    2.7573   -1.1143 H   0  0  0  0  0  0  0  0  0  0  0  0
   -4.9123    1.2290   -2.6554 C   0  0  0  0  0  0  0  0  0  0  0  0
   -5.8744    1.6000   -3.0396 H   0  0  0  0  0  0  0  0  0  0  0  0
   -4.3045    0.1084   -3.2411 C   0  0  0  0  0  0  0  0  0  0  0  0
   -4.7896   -0.4078   -4.0832 H   0  0  0  0  0  0  0  0  0  0  0  0
   -3.0751   -0.3580   -2.7551 C   0  0  0  0  0  0  0  0  0  0  0  0
   -2.6246   -1.2480   -3.2192 H   0  0  0  0  0  0  0  0  0  0  0  0
   -1.5692    0.0795    1.2341 C   0  0  0  0  0  0  0  0  0  0  0  0
   -1.0366    1.1242    2.0487 C   0  0  0  0  0  0  0  0  0  0  0  0
   -1.7425    1.4945    3.2042 C   0  0  0  0  0  0  0  0  0  0  0  0
   -1.3512    2.3088    3.8318 H   0  0  0  0  0  0  0  0  0  0  0  0
   -2.9257    0.8384    3.5743 C   0  0  0  0  0  0  0  0  0  0  0  0
   -3.4648    1.1405    4.4848 H   0  0  0  0  0  0  0  0  0  0  0  0
   -3.4069   -0.2161    2.7897 C   0  0  0  0  0  0  0  0  0  0  0  0
   -4.3196   -0.7486    3.1006 H   0  0  0  0  0  0  0  0  0  0  0  0
   -2.7516   -0.6198    1.6112 C   0  0  0  0  0  0  0  0  0  0  0  0
    0.2402    1.8293    1.6172 C   0  0  0  0  0  0  0  0  0  0  0  0
    0.8193    1.0791    1.0294 H   0  0  0  0  0  0  0  0  0  0  0  0
   -0.0494    3.0026    0.6619 C   0  0  0  0  0  0  0  0  0  0  0  0
   -0.5929    2.6698   -0.2452 H   0  0  0  0  0  0  0  0  0  0  0  0
    0.9026    3.4598    0.3227 H   0  0  0  0  0  0  0  0  0  0  0  0
   -0.6669    3.7761    1.1653 H   0  0  0  0  0  0  0  0  0  0  0  0
    1.1291    2.2883    2.7781 C   0  0  0  0  0  0  0  0  0  0  0  0
    1.3329    1.4624    3.4902 H   0  0  0  0  0  0  0  0  0  0  0  0
    0.6729    3.1243    3.3486 H   0  0  0  0  0  0  0  0  0  0  0  0
    2.0946    2.6542    2.3739 H   0  0  0  0  0  0  0  0  0  0  0  0
   -3.2708   -1.8251    0.8342 C   0  0  0  0  0  0  0  0  0  0  0  0
   -2.6761   -1.9163   -0.0956 H   0  0  0  0  0  0  0  0  0  0  0  0
   -4.7399   -1.6633    0.4122 C   0  0  0  0  0  0  0  0  0  0  0  0
   -4.8868   -0.7431   -0.1868 H   0  0  0  0  0  0  0  0  0  0  0  0
   -5.4125   -1.6059    1.2929 H   0  0  0  0  0  0  0  0  0  0  0  0
   -5.0694   -2.5284   -0.1992 H   0  0  0  0  0  0  0  0  0  0  0  0
   -3.0466   -3.1221    1.6331 C   0  0  0  0  0  0  0  0  0  0  0  0
   -1.9741   -3.2561    1.8800 H   0  0  0  0  0  0  0  0  0  0  0  0
   -3.3841   -4.0080    1.0554 H   0  0  0  0  0  0  0  0  0  0  0  0
   -3.6110   -3.1077    2.5883 H   0  0  0  0  0  0  0  0  0  0  0  0
  1 13  1  0  0  0  0
  2  7  1  0  0  0  0
  2  4  1  0  0  0  0
  3 34  1  0  0  0  0
  4  1  1  0  0  0  0
  5  1  1  0  0  0  0
  5  6  1  0  0  0  0
  7  5  2  0  0  0  0
  8  7  1  0  0  0  0
  9  2  1  0  0  0  0
  9 12  1  0  0  0  0
 10  9  1  0  0  0  0
 11  9  1  0  0  0  0
 12  3  2  0  0  0  0
 13 19  1  0  0  0  0
 14 13  1  0  0  0  0
 15 13  1  0  0  0  0
 15 17  1  0  0  0  0
 15 18  1  0  0  0  0
 16 15  1  0  0  0  0
 19 20  1  0  0  0  0
 19 22  1  0  0  0  0
 19 21  1  0  0  0  0
 23 12  1  0  0  0  0
 23 24  1  0  0  0  0
 24 25  1  0  0  0  0
 26 27  1  0  0  0  0
 26 24  2  0  0  0  0
 28 26  1  0  0  0  0
 29 28  1  0  0  0  0
 30 32  1  0  0  0  0
 30 28  2  0  0  0  0
 31 30  1  0  0  0  0
 32 23  2  0  0  0  0
 33 32  1  0  0  0  0
 34 42  2  0  0  0  0
 34 35  1  0  0  0  0
 35 36  2  0  0  0  0
 36 38  1  0  0  0  0
 36 37  1  0  0  0  0
 38 39  1  0  0  0  0
 40 41  1  0  0  0  0
 40 38  2  0  0  0  0
 42 40  1  0  0  0  0
 43 35  1  0  0  0  0
 43 49  1  0  0  0  0
 44 43  1  0  0  0  0
 45 48  1  0  0  0  0
 45 43  1  0  0  0  0
 46 45  1  0  0  0  0
 47 45  1  0  0  0  0
 49 51  1  0  0  0  0
 49 50  1  0  0  0  0
 52 49  1  0  0  0  0
 53 42  1  0  0  0  0
 53 59  1  0  0  0  0
 54 53  1  0  0  0  0
 55 53  1  0  0  0  0
 55 57  1  0  0  0  0
 56 55  1  0  0  0  0
 58 55  1  0  0  0  0
 59 60  1  0  0  0  0
 59 62  1  0  0  0  0
 61 59  1  0  0  0  0
M  END
