1
q = 0.0, confidence = 0.996

 24 24  0  0  0  0  0  0  0  0999 V2000
   -0.7005    1.4895    0.1306 C   0  0  0  0  0  2  0  0  0  0  0  0
   -1.8211    3.4148    0.5988 C   0  0  0  0  0  0  0  0  0  0  0  0
   -1.9822    4.3983    1.0500 H   0  0  0  0  0  0  0  0  0  0  0  0
   -2.6132    2.6674   -0.2329 C   0  0  0  0  0  0  0  0  0  0  0  0
   -3.6054    2.8672   -0.6481 H   0  0  0  0  0  0  0  0  0  0  0  0
   -2.4366    0.3623   -1.2627 C   0  0  0  0  0  0  0  0  0  0  0  0
   -1.5547   -0.2491   -1.5432 H   0  0  0  0  0  0  0  0  0  0  0  0
   -2.9036    0.7446   -2.1950 H   0  0  0  0  0  0  0  0  0  0  0  0
   -3.4188   -0.4831   -0.4510 C   0  0  0  0  0  0  0  0  0  0  0  0
   -2.9075   -0.7960    0.4853 H   0  0  0  0  0  0  0  0  0  0  0  0
   -4.2918    0.1387   -0.1518 H   0  0  0  0  0  0  0  0  0  0  0  0
   -3.8933   -1.7191   -1.2190 C   0  0  0  0  0  0  0  0  0  0  0  0
   -3.0047   -2.3217   -1.5109 H   0  0  0  0  0  0  0  0  0  0  0  0
   -4.3754   -1.4069   -2.1729 H   0  0  0  0  0  0  0  0  0  0  0  0
   -4.8564   -2.5878   -0.4094 C   0  0  0  0  0  0  0  0  0  0  0  0
   -4.3801   -2.9414    0.5280 H   0  0  0  0  0  0  0  0  0  0  0  0
   -5.1794   -3.4809   -0.9806 H   0  0  0  0  0  0  0  0  0  0  0  0
   -5.7688   -2.0228   -0.1256 H   0  0  0  0  0  0  0  0  0  0  0  0
    0.4382    3.0798    1.6737 C   0  0  0  0  0  0  0  0  0  0  0  0
    1.1982    2.2752    1.6329 H   0  0  0  0  0  0  0  0  0  0  0  0
    0.0869    3.1916    2.7184 H   0  0  0  0  0  0  0  0  0  0  0  0
    0.8803    4.0353    1.3281 H   0  0  0  0  0  0  0  0  0  0  0  0
   -1.9109    1.5008   -0.5101 N   0  0  0  0  0  0  0  0  0  0  0  0
   -0.6603    2.6788    0.8094 N   0  0  0  0  0  0  0  0  0  0  0  0
  1 24  1  0  0  0  0
  2 24  1  0  0  0  0
  2  3  1  0  0  0  0
  4  2  2  0  0  0  0
  5  4  1  0  0  0  0
  6 23  1  0  0  0  0
  6  9  1  0  0  0  0
  7  6  1  0  0  0  0
  8  6  1  0  0  0  0
  9 11  1  0  0  0  0
  9 10  1  0  0  0  0
 12  9  1  0  0  0  0
 12 15  1  0  0  0  0
 13 12  1  0  0  0  0
 14 12  1  0  0  0  0
 15 18  1  0  0  0  0
 15 16  1  0  0  0  0
 17 15  1  0  0  0  0
 19 21  1  0  0  0  0
 20 19  1  0  0  0  0
 22 19  1  0  0  0  0
 23  4  1  0  0  0  0
 23  1  1  0  0  0  0
 24 19  1  0  0  0  0
M  END
