1
q = 0.0, confidence = 0.986

 27 27  0  0  0  0  0  0  0  0999 V2000
   -2.4399    1.0526    0.0042 C   0  0  0  0  0  2  0  0  0  0  0  0
   -2.9497    1.9575   -0.8065 N   0  0  0  0  0  0  0  0  0  0  0  0
   -4.3545    2.4200   -0.7529 C   0  0  0  0  0  0  0  0  0  0  0  0
   -4.3269    3.5289   -0.7805 H   0  0  0  0  0  0  0  0  0  0  0  0
   -4.7671    2.1237    0.2296 H   0  0  0  0  0  0  0  0  0  0  0  0
   -5.2175    1.8763   -1.8886 C   0  0  0  0  0  0  0  0  0  0  0  0
   -4.8039    2.1307   -2.8847 H   0  0  0  0  0  0  0  0  0  0  0  0
   -6.2341    2.3128   -1.8261 H   0  0  0  0  0  0  0  0  0  0  0  0
   -5.3133    0.7754   -1.8254 H   0  0  0  0  0  0  0  0  0  0  0  0
   -2.0854    2.6650   -1.7792 C   0  0  0  0  0  0  0  0  0  0  0  0
   -2.6866    2.8246   -2.6984 H   0  0  0  0  0  0  0  0  0  0  0  0
   -1.2654    1.9675   -2.0351 H   0  0  0  0  0  0  0  0  0  0  0  0
   -1.5385    3.9803   -1.2327 C   0  0  0  0  0  0  0  0  0  0  0  0
   -2.3427    4.7138   -1.0187 H   0  0  0  0  0  0  0  0  0  0  0  0
   -0.8594    4.4329   -1.9823 H   0  0  0  0  0  0  0  0  0  0  0  0
   -0.9663    3.7946   -0.3006 H   0  0  0  0  0  0  0  0  0  0  0  0
   -3.3221    0.3077    0.9263 C   0  0  0  0  0  0  0  0  0  0  0  0
   -4.1773   -0.7009    0.4220 C   0  0  0  0  0  0  0  0  0  0  0  0
   -4.2079   -0.8966   -0.6603 H   0  0  0  0  0  0  0  0  0  0  0  0
   -4.9373   -1.4873    1.2993 C   0  0  0  0  0  0  0  0  0  0  0  0
   -5.5858   -2.2788    0.8937 H   0  0  0  0  0  0  0  0  0  0  0  0
   -4.8633   -1.2747    2.6845 C   0  0  0  0  0  0  0  0  0  0  0  0
   -5.4620   -1.8919    3.3715 H   0  0  0  0  0  0  0  0  0  0  0  0
   -4.0100   -0.2777    3.1895 C   0  0  0  0  0  0  0  0  0  0  0  0
   -3.9396   -0.1118    4.2755 H   0  0  0  0  0  0  0  0  0  0  0  0
   -3.2314    0.5022    2.3251 C   0  0  0  0  0  0  0  0  0  0  0  0
   -2.5238    1.2574    2.7021 H   0  0  0  0  0  0  0  0  0  0  0  0
  1 17  1  0  0  0  0
  2  3  1  0  0  0  0
  2  1  1  0  0  0  0
  3  5  1  0  0  0  0
  4  3  1  0  0  0  0
  6  8  1  0  0  0  0
  6  9  1  0  0  0  0
  6  3  1  0  0  0  0
  7  6  1  0  0  0  0
 10 13  1  0  0  0  0
 10  2  1  0  0  0  0
 11 10  1  0  0  0  0
 12 10  1  0  0  0  0
 13 14  1  0  0  0  0
 13 16  1  0  0  0  0
 15 13  1  0  0  0  0
 17 26  1  0  0  0  0
 18 17  2  0  0  0  0
 18 20  1  0  0  0  0
 19 18  1  0  0  0  0
 20 22  2  0  0  0  0
 21 20  1  0  0  0  0
 22 24  1  0  0  0  0
 22 23  1  0  0  0  0
 24 25  1  0  0  0  0
 26 27  1  0  0  0  0
 26 24  2  0  0  0  0
M  END
