1
q = -1.0, confidence = 0.004

 17 17  0  0  0  0  0  0  0  0999 V2000
    0.6904   -0.0001   -0.1660 C   0  0  0  0  0  3  0  0  0  0  0  0
    0.9973   -0.0001   -1.2327 H   0  0  0  0  0  0  0  0  0  0  0  0
    1.6912    0.0000    0.7629 C   0  0  0  0  0  0  0  0  0  0  0  0
    1.4337    0.0000    1.8381 H   0  0  0  0  0  0  0  0  0  0  0  0
    3.1305    0.0000    0.4924 C   0  0  0  0  0  0  0  0  0  0  0  0
    4.0429    0.0004    1.5826 C   0  0  0  0  0  0  0  0  0  0  0  0
    3.6408    0.0007    2.6080 H   0  0  0  0  0  0  0  0  0  0  0  0
    5.4240    0.0004    1.3859 C   0  0  0  0  0  0  0  0  0  0  0  0
    6.1360    0.0007    2.2219 H   0  0  0  0  0  0  0  0  0  0  0  0
    5.9224    0.0000    0.0740 C   0  0  0  0  0  0  0  0  0  0  0  0
    5.0559   -0.0004   -1.0330 C   0  0  0  0  0  0  0  0  0  0  0  0
    5.4907   -0.0007   -2.0415 H   0  0  0  0  0  0  0  0  0  0  0  0
    3.6792   -0.0004   -0.8204 C   0  0  0  0  0  0  0  0  0  0  0  0
    3.0026   -0.0007   -1.6878 H   0  0  0  0  0  0  0  0  0  0  0  0
    7.3760    0.0000   -0.1466 N   0  0  0  0  0  0  0  0  0  0  0  0
    7.7787   -0.0005   -1.3141 O   0  0  0  0  0  0  0  0  0  0  0  0
    8.1073    0.0004    0.8486 O   0  0  0  0  0  0  0  0  0  0  0  0
  1  3  2  0  0  0  0
  2  1  1  0  0  0  0
  3  4  1  0  0  0  0
  5  3  1  0  0  0  0
  5  6  1  0  0  0  0
  6  7  1  0  0  0  0
  8  6  2  0  0  0  0
  8  9  1  0  0  0  0
 10  8  1  0  0  0  0
 11 13  1  0  0  0  0
 11 10  2  0  0  0  0
 12 11  1  0  0  0  0
 13  5  2  0  0  0  0
 14 13  1  0  0  0  0
 15 10  1  0  0  0  0
 15 17  2  0  0  0  0
 16 15  2  0  0  0  0
M  END
