1
q = 0.0, confidence = 0.998

 42 43  0  0  0  0  0  0  0  0999 V2000
   -0.3307    1.5170    0.2974 C   0  0  0  0  0  2  0  0  0  0  0  0
    0.9983    3.3422    0.6730 C   0  0  0  0  0  0  0  0  0  0  0  0
    1.9394    3.8934    0.7550 H   0  0  0  0  0  0  0  0  0  0  0  0
   -0.3022    3.7407    0.8421 C   0  0  0  0  0  0  0  0  0  0  0  0
   -0.7239    4.7145    1.1096 H   0  0  0  0  0  0  0  0  0  0  0  0
   -2.5450    2.5879    0.7289 C   0  0  0  0  0  0  0  0  0  0  0  0
   -2.8991    3.6370    0.7163 H   0  0  0  0  0  0  0  0  0  0  0  0
   -2.8222    2.1696    1.7193 H   0  0  0  0  0  0  0  0  0  0  0  0
   -3.2639    1.8385   -0.3931 C   0  0  0  0  0  0  0  0  0  0  0  0
   -4.3460    2.1226   -0.3436 H   0  0  0  0  0  0  0  0  0  0  0  0
   -2.8744    2.1935   -1.3691 H   0  0  0  0  0  0  0  0  0  0  0  0
   -3.7551   -0.2064   -1.5740 C   0  0  0  0  0  0  0  0  0  0  0  0
   -3.6581   -1.3074   -1.5292 H   0  0  0  0  0  0  0  0  0  0  0  0
   -3.2331    0.1672   -2.4754 H   0  0  0  0  0  0  0  0  0  0  0  0
   -4.8380    0.0623   -1.6434 H   0  0  0  0  0  0  0  0  0  0  0  0
   -3.7651   -0.2218    0.8313 C   0  0  0  0  0  0  0  0  0  0  0  0
   -4.8444    0.0598    0.8999 H   0  0  0  0  0  0  0  0  0  0  0  0
   -3.2427    0.1102    1.7477 H   0  0  0  0  0  0  0  0  0  0  0  0
   -3.6821   -1.3245    0.7736 H   0  0  0  0  0  0  0  0  0  0  0  0
    2.1045    1.1697    0.0645 C   0  0  0  0  0  0  0  0  0  0  0  0
    2.5524    1.0612   -1.2679 C   0  0  0  0  0  0  0  0  0  0  0  0
    3.6504    0.2191   -1.5193 C   0  0  0  0  0  0  0  0  0  0  0  0
    4.0150    0.1175   -2.5541 H   0  0  0  0  0  0  0  0  0  0  0  0
    4.2787   -0.5078   -0.4906 C   0  0  0  0  0  0  0  0  0  0  0  0
    3.7870   -0.3763    0.8214 C   0  0  0  0  0  0  0  0  0  0  0  0
    4.2423   -0.9636    1.6334 H   0  0  0  0  0  0  0  0  0  0  0  0
    2.6995    0.4577    1.1271 C   0  0  0  0  0  0  0  0  0  0  0  0
    1.8279    1.7685   -2.3825 C   0  0  0  0  0  0  0  0  0  0  0  0
    2.3510    1.6361   -3.3482 H   0  0  0  0  0  0  0  0  0  0  0  0
    1.7226    2.8560   -2.1901 H   0  0  0  0  0  0  0  0  0  0  0  0
    0.7982    1.3605   -2.4827 H   0  0  0  0  0  0  0  0  0  0  0  0
    2.1342    0.5379    2.5185 C   0  0  0  0  0  0  0  0  0  0  0  0
    2.0183    1.5864    2.8617 H   0  0  0  0  0  0  0  0  0  0  0  0
    2.7734   -0.0039    3.2389 H   0  0  0  0  0  0  0  0  0  0  0  0
    1.1304    0.0655    2.5442 H   0  0  0  0  0  0  0  0  0  0  0  0
    5.4318   -1.4351   -0.7811 C   0  0  0  0  0  0  0  0  0  0  0  0
    5.1573   -2.4873   -0.5574 H   0  0  0  0  0  0  0  0  0  0  0  0
    6.3132   -1.1941   -0.1518 H   0  0  0  0  0  0  0  0  0  0  0  0
    5.7439   -1.3837   -1.8420 H   0  0  0  0  0  0  0  0  0  0  0  0
    0.9567    1.9918    0.3416 N   0  0  0  0  0  0  0  0  0  0  0  0
   -1.0916    2.6183    0.6045 N   0  0  0  0  0  0  0  0  0  0  0  0
   -3.1388    0.3712   -0.3656 N   0  0  0  0  0  0  0  0  0  0  0  0
  1 40  1  0  0  0  0
  1 41  1  0  0  0  0
  2  3  1  0  0  0  0
  2  4  2  0  0  0  0
  4  5  1  0  0  0  0
  6  8  1  0  0  0  0
  7  6  1  0  0  0  0
  9 42  1  0  0  0  0
  9 10  1  0  0  0  0
  9  6  1  0  0  0  0
 11  9  1  0  0  0  0
 12 13  1  0  0  0  0
 12 42  1  0  0  0  0
 14 12  1  0  0  0  0
 15 12  1  0  0  0  0
 16 17  1  0  0  0  0
 16 18  1  0  0  0  0
 19 16  1  0  0  0  0
 20 40  1  0  0  0  0
 20 27  1  0  0  0  0
 21 20  2  0  0  0  0
 22 21  1  0  0  0  0
 22 24  2  0  0  0  0
 23 22  1  0  0  0  0
 24 25  1  0  0  0  0
 25 27  2  0  0  0  0
 25 26  1  0  0  0  0
 27 32  1  0  0  0  0
 28 30  1  0  0  0  0
 28 21  1  0  0  0  0
 29 28  1  0  0  0  0
 31 28  1  0  0  0  0
 32 35  1  0  0  0  0
 32 33  1  0  0  0  0
 32 34  1  0  0  0  0
 36 37  1  0  0  0  0
 36 24  1  0  0  0  0
 36 38  1  0  0  0  0
 39 36  1  0  0  0  0
 40  2  1  0  0  0  0
 41  6  1  0  0  0  0
 41  4  1  0  0  0  0
 42 16  1  0  0  0  0
M  END
