5
q = 0.0, confidence = 0.992

 45 45  0  0  1  0  0  0  0  0999 V2000
    1.8180    0.6548    0.0960 P   0  0  0  0  0  0  0  0  0  0  0  0
    2.9893   -0.7568    0.0124 C   0  0  0  0  0  0  0  0  0  0  0  0
    2.3989   -2.0368   -0.1369 C   0  0  0  0  0  0  0  0  0  0  0  0
    0.9412   -2.2030   -0.4862 C   0  0  1  0  0  3  0  0  0  0  0  0
    0.5453   -1.7229   -1.7725 C   0  0  0  0  0  3  0  0  0  0  0  0
   -0.3593   -2.1363   -2.2503 H   0  0  0  0  0  0  0  0  0  0  0  0
    1.3017   -1.2962   -2.4502 H   0  0  0  0  0  0  0  0  0  0  0  0
    0.1780   -3.3023    0.2193 C   0  0  0  0  0  0  0  0  0  0  0  0
   -0.8179   -3.4489   -0.2338 H   0  0  0  0  0  0  0  0  0  0  0  0
    0.0411   -3.0665    1.2923 H   0  0  0  0  0  0  0  0  0  0  0  0
    0.7295   -4.2624    0.1470 H   0  0  0  0  0  0  0  0  0  0  0  0
    3.2294   -3.1761   -0.0678 C   0  0  0  0  0  0  0  0  0  0  0  0
    2.7883   -4.1770   -0.1779 H   0  0  0  0  0  0  0  0  0  0  0  0
    4.6136   -3.0506    0.1018 C   0  0  0  0  0  0  0  0  0  0  0  0
    5.2412   -3.9535    0.1419 H   0  0  0  0  0  0  0  0  0  0  0  0
    5.1988   -1.7792    0.2067 C   0  0  0  0  0  0  0  0  0  0  0  0
    6.2866   -1.6746    0.3324 H   0  0  0  0  0  0  0  0  0  0  0  0
    4.3864   -0.6393    0.1687 C   0  0  0  0  0  0  0  0  0  0  0  0
    4.8475    0.3510    0.2800 H   0  0  0  0  0  0  0  0  0  0  0  0
    1.8118    1.1786    1.9374 C   0  0  0  0  0  0  0  0  0  0  0  0
    1.0872    2.5255    2.1051 C   0  0  0  0  0  0  0  0  0  0  0  0
    0.9807    2.7272    3.1916 H   0  0  0  0  0  0  0  0  0  0  0  0
    0.0749    2.5121    1.6630 H   0  0  0  0  0  0  0  0  0  0  0  0
    1.6623    3.3673    1.6725 H   0  0  0  0  0  0  0  0  0  0  0  0
    3.2321    1.2674    2.5210 C   0  0  0  0  0  0  0  0  0  0  0  0
    3.8695    2.0103    2.0057 H   0  0  0  0  0  0  0  0  0  0  0  0
    3.7492    0.2893    2.5174 H   0  0  0  0  0  0  0  0  0  0  0  0
    3.1445    1.5899    3.5798 H   0  0  0  0  0  0  0  0  0  0  0  0
    1.0370    0.0655    2.6737 C   0  0  0  0  0  0  0  0  0  0  0  0
    1.0430    0.2946    3.7599 H   0  0  0  0  0  0  0  0  0  0  0  0
    1.5177   -0.9251    2.5408 H   0  0  0  0  0  0  0  0  0  0  0  0
   -0.0196   -0.0164    2.3493 H   0  0  0  0  0  0  0  0  0  0  0  0
    2.3909    2.0154   -1.1032 C   0  0  0  0  0  0  0  0  0  0  0  0
    1.1981    2.9553   -1.3648 C   0  0  0  0  0  0  0  0  0  0  0  0
    1.5318    3.7585   -2.0546 H   0  0  0  0  0  0  0  0  0  0  0  0
    0.8171    3.4397   -0.4469 H   0  0  0  0  0  0  0  0  0  0  0  0
    0.3544    2.4247   -1.8463 H   0  0  0  0  0  0  0  0  0  0  0  0
    3.5916    2.8232   -0.5829 C   0  0  0  0  0  0  0  0  0  0  0  0
    3.8689    3.5716   -1.3548 H   0  0  0  0  0  0  0  0  0  0  0  0
    4.4878    2.1998   -0.4006 H   0  0  0  0  0  0  0  0  0  0  0  0
    3.3538    3.3809    0.3425 H   0  0  0  0  0  0  0  0  0  0  0  0
    2.7588    1.3082   -2.4205 C   0  0  0  0  0  0  0  0  0  0  0  0
    1.8940    0.7482   -2.8275 H   0  0  0  0  0  0  0  0  0  0  0  0
    3.6144    0.6139   -2.3085 H   0  0  0  0  0  0  0  0  0  0  0  0
    3.0362    2.0768   -3.1715 H   0  0  0  0  0  0  0  0  0  0  0  0
  1 20  1  0  0  0  0
  2  1  1  0  0  0  0
  2 18  1  0  0  0  0
  3 12  1  0  0  0  0
  3  2  2  0  0  0  0
  4  5  1  6  0  0  0
  4  3  1  0  0  0  0
  4  8  1  0  0  0  0
  6  5  1  0  0  0  0
  7  5  1  0  0  0  0
  8 10  1  0  0  0  0
  9  8  1  0  0  0  0
 11  8  1  0  0  0  0
 12 14  2  0  0  0  0
 13 12  1  0  0  0  0
 14 15  1  0  0  0  0
 14 16  1  0  0  0  0
 16 17  1  0  0  0  0
 18 16  2  0  0  0  0
 18 19  1  0  0  0  0
 20 21  1  0  0  0  0
 20 25  1  0  0  0  0
 20 29  1  0  0  0  0
 21 22  1  0  0  0  0
 23 21  1  0  0  0  0
 24 21  1  0  0  0  0
 25 28  1  0  0  0  0
 26 25  1  0  0  0  0
 27 25  1  0  0  0  0
 29 30  1  0  0  0  0
 31 29  1  0  0  0  0
 32 29  1  0  0  0  0
 33 38  1  0  0  0  0
 33  1  1  0  0  0  0
 34 33  1  0  0  0  0
 34 36  1  0  0  0  0
 35 34  1  0  0  0  0
 37 34  1  0  0  0  0
 38 40  1  0  0  0  0
 38 41  1  0  0  0  0
 39 38  1  0  0  0  0
 42 44  1  0  0  0  0
 42 33  1  0  0  0  0
 43 42  1  0  0  0  0
 45 42  1  0  0  0  0
M  END
