2
q = 0.0, confidence = 0.656

 15 14  0  0  0  0  0  0  0  0999 V2000
   -1.2659   -2.3019    2.4420 Si  0  0  0  0  0  0  0  0  0  0  0  0
    0.1174   -1.2582    1.7284 C   0  0  0  0  0  2  0  0  0  0  0  0
    1.1144   -1.3911    2.2192 H   0  0  0  0  0  0  0  0  0  0  0  0
   -0.9844   -2.4773    4.3107 C   0  0  0  0  0  0  0  0  0  0  0  0
   -1.7652   -3.1166    4.7729 H   0  0  0  0  0  0  0  0  0  0  0  0
   -1.0134   -1.4869    4.8095 H   0  0  0  0  0  0  0  0  0  0  0  0
    0.0025   -2.9367    4.5260 H   0  0  0  0  0  0  0  0  0  0  0  0
   -1.2208   -4.0334    1.6589 C   0  0  0  0  0  0  0  0  0  0  0  0
   -1.3889   -3.9764    0.5642 H   0  0  0  0  0  0  0  0  0  0  0  0
   -2.0119   -4.6806    2.0923 H   0  0  0  0  0  0  0  0  0  0  0  0
   -0.2435   -4.5300    1.8290 H   0  0  0  0  0  0  0  0  0  0  0  0
   -2.9699   -1.5431    2.1378 C   0  0  0  0  0  0  0  0  0  0  0  0
   -3.2135   -1.4718    1.0601 H   0  0  0  0  0  0  0  0  0  0  0  0
   -3.0398   -0.5220    2.5624 H   0  0  0  0  0  0  0  0  0  0  0  0
   -3.7466   -2.1692    2.6245 H   0  0  0  0  0  0  0  0  0  0  0  0
  1  4  1  0  0  0  0
  2  3  1  0  0  0  0
  2  1  1  0  0  0  0
  4  7  1  0  0  0  0
  4  5  1  0  0  0  0
  4  6  1  0  0  0  0
  8 11  1  0  0  0  0
  8 10  1  0  0  0  0
  8  1  1  0  0  0  0
  9  8  1  0  0  0  0
 12  1  1  0  0  0  0
 12 14  1  0  0  0  0
 12 15  1  0  0  0  0
 13 12  1  0  0  0  0
M  END
