1
q = 0.0, confidence = 0.774

 15 14  0  0  0  0  0  0  0  0999 V2000
    0.5439   -0.6010    1.8295 C   0  0  0  0  0  2  0  0  0  0  0  0
    1.6570   -0.6018    1.9864 H   0  0  0  0  0  0  0  0  0  0  0  0
   -0.2169   -0.9303    3.1027 C   0  0  0  0  0  0  0  0  0  0  0  0
   -1.7382   -0.9312    2.8850 C   0  0  0  0  0  0  0  0  0  0  0  0
   -2.0368   -1.6856    2.1321 H   0  0  0  0  0  0  0  0  0  0  0  0
   -2.0956    0.0533    2.5269 H   0  0  0  0  0  0  0  0  0  0  0  0
   -2.2621   -1.1650    3.8343 H   0  0  0  0  0  0  0  0  0  0  0  0
    0.1436    0.1242    4.1741 C   0  0  0  0  0  0  0  0  0  0  0  0
    1.2371    0.1512    4.3620 H   0  0  0  0  0  0  0  0  0  0  0  0
   -0.3607   -0.1057    5.1362 H   0  0  0  0  0  0  0  0  0  0  0  0
   -0.1737    1.1361    3.8517 H   0  0  0  0  0  0  0  0  0  0  0  0
    0.2268   -2.3277    3.5930 C   0  0  0  0  0  0  0  0  0  0  0  0
   -0.0393   -3.1070    2.8507 H   0  0  0  0  0  0  0  0  0  0  0  0
   -0.2704   -2.5832    4.5523 H   0  0  0  0  0  0  0  0  0  0  0  0
    1.3235   -2.3696    3.7573 H   0  0  0  0  0  0  0  0  0  0  0  0
  1  2  1  0  0  0  0
  1  3  1  0  0  0  0
  3 12  1  0  0  0  0
  3  8  1  0  0  0  0
  4  3  1  0  0  0  0
  4  7  1  0  0  0  0
  5  4  1  0  0  0  0
  6  4  1  0  0  0  0
  8  9  1  0  0  0  0
  8 10  1  0  0  0  0
 11  8  1  0  0  0  0
 12 15  1  0  0  0  0
 12 14  1  0  0  0  0
 13 12  1  0  0  0  0
M  END
