4
q = -1.0, confidence = 0.244

 42 44  0  0  0  0  0  0  0  0999 V2000
   -2.6244   -0.8355   -0.3621 P   0  0  0  0  0  4  0  0  0  0  0  0
   -1.5653   -0.2359   -1.6472 C   0  0  0  0  0  3  0  0  0  0  0  0
   -1.8657   -0.6154   -2.6413 H   0  0  0  0  0  0  0  0  0  0  0  0
   -0.7193    0.9501   -1.5539 C   0  0  0  0  0  3  0  0  0  0  0  0
   -0.5172    1.4105   -2.5425 H   0  0  0  0  0  0  0  0  0  0  0  0
   -0.8612    1.9791   -0.4639 C   0  0  0  0  0  0  0  0  0  0  0  0
   -1.8857    2.9497   -0.5414 C   0  0  0  0  0  0  0  0  0  0  0  0
   -2.5719    2.9414   -1.4024 H   0  0  0  0  0  0  0  0  0  0  0  0
   -2.0408    3.9223    0.4583 C   0  0  0  0  0  0  0  0  0  0  0  0
   -2.8504    4.6644    0.3777 H   0  0  0  0  0  0  0  0  0  0  0  0
   -1.1625    3.9537    1.5538 C   0  0  0  0  0  0  0  0  0  0  0  0
   -1.2814    4.7176    2.3376 H   0  0  0  0  0  0  0  0  0  0  0  0
   -0.1333    3.0034    1.6383 C   0  0  0  0  0  0  0  0  0  0  0  0
    0.5591    3.0065    2.4941 H   0  0  0  0  0  0  0  0  0  0  0  0
    0.0111    2.0289    0.6417 C   0  0  0  0  0  0  0  0  0  0  0  0
    0.7956    1.2636    0.7174 H   0  0  0  0  0  0  0  0  0  0  0  0
   -4.3206   -0.1380   -0.4458 C   0  0  0  0  0  0  0  0  0  0  0  0
   -4.6491    0.7625   -1.4755 C   0  0  0  0  0  0  0  0  0  0  0  0
   -3.8750    1.0598   -2.1994 H   0  0  0  0  0  0  0  0  0  0  0  0
   -5.9535    1.2713   -1.5757 C   0  0  0  0  0  0  0  0  0  0  0  0
   -6.2048    1.9767   -2.3821 H   0  0  0  0  0  0  0  0  0  0  0  0
   -6.9327    0.8813   -0.6496 C   0  0  0  0  0  0  0  0  0  0  0  0
   -7.9550    1.2814   -0.7277 H   0  0  0  0  0  0  0  0  0  0  0  0
   -6.6097   -0.0215    0.3780 C   0  0  0  0  0  0  0  0  0  0  0  0
   -7.3768   -0.3280    1.1051 H   0  0  0  0  0  0  0  0  0  0  0  0
   -5.3088   -0.5327    0.4809 C   0  0  0  0  0  0  0  0  0  0  0  0
   -5.0585   -1.2311    1.2948 H   0  0  0  0  0  0  0  0  0  0  0  0
   -2.0062   -0.4967    1.3152 C   0  0  0  0  0  0  0  0  0  0  0  0
   -2.5902    0.5117    2.1069 C   0  0  0  0  0  0  0  0  0  0  0  0
   -3.4458    1.0899    1.7306 H   0  0  0  0  0  0  0  0  0  0  0  0
   -2.0446    0.8093    3.3636 C   0  0  0  0  0  0  0  0  0  0  0  0
   -2.4902    1.6102    3.9718 H   0  0  0  0  0  0  0  0  0  0  0  0
   -0.9190    0.1097    3.8251 C   0  0  0  0  0  0  0  0  0  0  0  0
   -0.4802    0.3568    4.8039 H   0  0  0  0  0  0  0  0  0  0  0  0
   -0.3404   -0.8972    3.0357 C   0  0  0  0  0  0  0  0  0  0  0  0
    0.5542   -1.4327    3.3844 H   0  0  0  0  0  0  0  0  0  0  0  0
   -0.8806   -1.2108    1.7809 C   0  0  0  0  0  0  0  0  0  0  0  0
   -0.4038   -1.9839    1.1534 H   0  0  0  0  0  0  0  0  0  0  0  0
   -2.8247   -2.6282   -0.5761 C   0  0  0  0  0  0  0  0  0  0  0  0
   -3.2808   -2.8090   -1.5688 H   0  0  0  0  0  0  0  0  0  0  0  0
   -3.4827   -3.0307    0.2170 H   0  0  0  0  0  0  0  0  0  0  0  0
   -1.8146   -3.1010   -0.5491 H   0  0  0  0  0  0  0  0  0  0  0  0
  1 28  1  0  0  0  0
  2  4  1  0  0  0  0
  2  1  1  0  0  0  0
  3  2  1  0  0  0  0
  4  6  1  0  0  0  0
  5  4  1  0  0  0  0
  6 15  1  0  0  0  0
  7  6  2  0  0  0  0
  7  9  1  0  0  0  0
  8  7  1  0  0  0  0
  9 11  2  0  0  0  0
 10  9  1  0  0  0  0
 11 13  1  0  0  0  0
 11 12  1  0  0  0  0
 13 14  1  0  0  0  0
 15 16  1  0  0  0  0
 15 13  2  0  0  0  0
 17  1  1  0  0  0  0
 17 26  1  0  0  0  0
 18 17  2  0  0  0  0
 19 18  1  0  0  0  0
 20 18  1  0  0  0  0
 20 22  2  0  0  0  0
 21 20  1  0  0  0  0
 22 24  1  0  0  0  0
 23 22  1  0  0  0  0
 24 26  2  0  0  0  0
 24 25  1  0  0  0  0
 26 27  1  0  0  0  0
 28 37  2  0  0  0  0
 28 29  1  0  0  0  0
 29 31  2  0  0  0  0
 30 29  1  0  0  0  0
 31 33  1  0  0  0  0
 31 32  1  0  0  0  0
 33 34  1  0  0  0  0
 35 36  1  0  0  0  0
 35 33  2  0  0  0  0
 37 35  1  0  0  0  0
 38 37  1  0  0  0  0
 39 42  1  0  0  0  0
 39  1  1  0  0  0  0
 39 41  1  0  0  0  0
 40 39  1  0  0  0  0
M  END
