6
q = -1.0, confidence = 0.0

 30 30  0  0  0  0  0  0  0  0999 V2000
    2.3981   -0.0359   -0.3620 C   0  0  0  0  0  0  0  0  0  0  0  0
    2.1902    0.9770   -1.3538 C   0  0  0  0  0  0  0  0  0  0  0  0
    2.7423    1.9202   -1.4222 H   0  0  0  0  0  0  0  0  0  0  0  0
    1.1536    0.5563   -2.2297 C   0  0  0  0  0  0  0  0  0  0  0  0
    0.7587    1.1263   -3.0773 H   0  0  0  0  0  0  0  0  0  0  0  0
    0.6695   -0.7013   -1.7677 C   0  0  0  0  0  3  0  0  0  0  0  0
   -0.1339   -1.2911   -2.2240 H   0  0  0  0  0  0  0  0  0  0  0  0
    1.4384   -1.0637   -0.6158 C   0  0  0  0  0  0  0  0  0  0  0  0
    1.3376   -1.9985   -0.0518 H   0  0  0  0  0  0  0  0  0  0  0  0
    3.5543   -0.1285    0.6248 C   0  0  0  0  0  0  0  0  0  0  0  0
    3.0791   -0.5730    2.0199 C   0  0  0  0  0  0  0  0  0  0  0  0
    3.9497   -0.6994    2.6898 H   0  0  0  0  0  0  0  0  0  0  0  0
    2.5456   -1.5458    1.9814 H   0  0  0  0  0  0  0  0  0  0  0  0
    2.4000    0.1882    2.4509 H   0  0  0  0  0  0  0  0  0  0  0  0
    4.3355    1.1917    0.7154 C   0  0  0  0  0  0  0  0  0  0  0  0
    4.7767    1.4463   -0.2670 H   0  0  0  0  0  0  0  0  0  0  0  0
    5.1654    1.0821    1.4379 H   0  0  0  0  0  0  0  0  0  0  0  0
    3.6726    2.0138    1.0436 H   0  0  0  0  0  0  0  0  0  0  0  0
    4.5059   -1.2265    0.0469 C   0  0  0  0  0  0  0  0  0  0  0  0
    3.9492   -2.2001   -0.0432 H   0  0  0  0  0  0  0  0  0  0  0  0
    6.4779   -2.3985    0.5875 C   0  0  0  0  0  0  0  0  0  0  0  0
    5.9686   -3.3920    0.5399 H   0  0  0  0  0  0  0  0  0  0  0  0
    7.2549   -2.4338    1.3745 H   0  0  0  0  0  0  0  0  0  0  0  0
    6.9617   -2.2049   -0.3946 H   0  0  0  0  0  0  0  0  0  0  0  0
    4.4945   -1.5934   -2.3335 C   0  0  0  0  0  0  0  0  0  0  0  0
    4.5420   -2.6952   -2.1621 H   0  0  0  0  0  0  0  0  0  0  0  0
    5.1331   -1.3470   -3.2044 H   0  0  0  0  0  0  0  0  0  0  0  0
    3.4434   -1.3232   -2.5812 H   0  0  0  0  0  0  0  0  0  0  0  0
    5.5738   -1.3685    0.9354 O   0  0  0  0  0  0  0  0  0  0  0  0
    4.9976   -0.8656   -1.2308 O   0  0  0  0  0  0  0  0  0  0  0  0
  1 10  1  0  0  0  0
  2  1  1  0  0  0  0
  3  2  1  0  0  0  0
  4  6  1  0  0  0  0
  4  2  2  0  0  0  0
  5  4  1  0  0  0  0
  6  8  1  0  0  0  0
  7  6  1  0  0  0  0
  8  1  2  0  0  0  0
  8  9  1  0  0  0  0
 10 15  1  0  0  0  0
 10 11  1  0  0  0  0
 11 14  1  0  0  0  0
 11 12  1  0  0  0  0
 13 11  1  0  0  0  0
 15 18  1  0  0  0  0
 15 17  1  0  0  0  0
 16 15  1  0  0  0  0
 19 10  1  0  0  0  0
 19 29  1  0  0  0  0
 20 19  1  0  0  0  0
 21 29  1  0  0  0  0
 21 23  1  0  0  0  0
 22 21  1  0  0  0  0
 24 21  1  0  0  0  0
 25 26  1  0  0  0  0
 25 30  1  0  0  0  0
 27 25  1  0  0  0  0
 28 25  1  0  0  0  0
 30 19  1  0  0  0  0
M  END
