1
q = -1.0, confidence = 0.002

 15 14  0  0  0  0  0  0  0  0999 V2000
    0.0738    1.7644    0.6319 C   0  0  0  0  0  3  0  0  0  0  0  0
    0.1704    2.9017    0.1324 C   0  0  0  0  0  0  0  0  0  0  0  0
    0.3149    4.2198   -0.5112 C   0  0  0  0  0  0  0  0  0  0  0  0
    1.0974    4.0607   -1.8383 C   0  0  0  0  0  0  0  0  0  0  0  0
    2.0979    3.6205   -1.6560 H   0  0  0  0  0  0  0  0  0  0  0  0
    1.2311    5.0447   -2.3358 H   0  0  0  0  0  0  0  0  0  0  0  0
    0.5537    3.3935   -2.5379 H   0  0  0  0  0  0  0  0  0  0  0  0
    1.0893    5.1818    0.4206 C   0  0  0  0  0  0  0  0  0  0  0  0
    0.5561    5.3076    1.3840 H   0  0  0  0  0  0  0  0  0  0  0  0
    1.2030    6.1807   -0.0515 H   0  0  0  0  0  0  0  0  0  0  0  0
    2.1002    4.7822    0.6374 H   0  0  0  0  0  0  0  0  0  0  0  0
   -1.0879    4.8014   -0.8059 C   0  0  0  0  0  0  0  0  0  0  0  0
   -1.6683    4.1232   -1.4633 H   0  0  0  0  0  0  0  0  0  0  0  0
   -1.0031    5.7894   -1.3059 H   0  0  0  0  0  0  0  0  0  0  0  0
   -1.6657    4.9314    0.1308 H   0  0  0  0  0  0  0  0  0  0  0  0
  2  1  3  0  0  0  0
  3  2  1  0  0  0  0
  3  8  1  0  0  0  0
  4  5  1  0  0  0  0
  4  3  1  0  0  0  0
  6  4  1  0  0  0  0
  7  4  1  0  0  0  0
  8 11  1  0  0  0  0
  8  9  1  0  0  0  0
 10  8  1  0  0  0  0
 12  3  1  0  0  0  0
 12 15  1  0  0  0  0
 13 12  1  0  0  0  0
 14 12  1  0  0  0  0
M  END
