2
q = -1.0, confidence = 0.27

 12 11  0  0  1  0  0  0  0  0999 V2000
   -1.0067   -3.9029    0.6392 O   0  0  0  0  0  0  0  0  0  0  0  0
    0.9559   -3.0295   -1.2327 C   0  0  0  0  0  3  0  0  0  0  0  0
   -0.4362   -3.1677   -1.5414 C   0  0  0  0  0  3  0  0  0  0  0  0
   -1.4157   -3.4158   -0.5606 C   0  0  1  0  0  3  0  0  0  0  0  0
   -2.8862   -3.4264   -0.8325 C   0  0  0  0  0  0  0  0  0  0  0  0
   -1.7866   -4.0606    1.2061 H   0  0  0  0  0  0  0  0  0  0  0  0
    1.3731   -3.5268   -0.3417 H   0  0  0  0  0  0  0  0  0  0  0  0
    1.6626   -2.8992   -2.0652 H   0  0  0  0  0  0  0  0  0  0  0  0
   -0.8065   -2.9603   -2.5577 H   0  0  0  0  0  0  0  0  0  0  0  0
   -3.2529   -4.4758   -0.8622 H   0  0  0  0  0  0  0  0  0  0  0  0
   -3.1275   -2.9410   -1.7942 H   0  0  0  0  0  0  0  0  0  0  0  0
   -3.4445   -2.8916   -0.0361 H   0  0  0  0  0  0  0  0  0  0  0  0
  1  6  1  0  0  0  0
  2  7  1  0  0  0  0
  3  2  1  0  0  0  0
  4  3  1  6  0  0  0
  4  1  1  0  0  0  0
  5  4  1  0  0  0  0
  5 12  1  0  0  0  0
  8  2  1  0  0  0  0
  9  3  1  0  0  0  0
 10  5  1  0  0  0  0
 11  5  1  0  0  0  0
M  END
