1
q = 0.0, confidence = 0.9

  4  3  0  0  0  0  0  0  0  0999 V2000
    0.2691   -2.2220   -0.2715 C   0  0  0  0  0  1  0  0  0  0  0  0
    0.4736   -3.4012   -0.8389 C   0  0  0  0  0  3  0  0  0  0  0  0
   -0.3632   -3.9990   -1.2388 H   0  0  0  0  0  0  0  0  0  0  0  0
    1.4936   -3.8187   -0.9086 H   0  0  0  0  0  0  0  0  0  0  0  0
  2  1  1  0  0  0  0
  3  2  1  0  0  0  0
  4  2  1  0  0  0  0
M  END
