1
q = -1.0, confidence = 0.12

  3  2  0  0  0  0  0  0  0  0999 V2000
   -0.2151   -2.2927   -0.6974 C   0  0  0  0  0  3  0  0  0  0  0  0
   -0.3342   -3.2066   -1.5317 C   0  0  0  0  0  0  0  0  0  0  0  0
   -0.4407   -4.0197   -2.2352 H   0  0  0  0  0  0  0  0  0  0  0  0
  2  1  3  0  0  0  0
  3  2  1  0  0  0  0
M  END
