4
q = -1.0, confidence = 0.0

 30 30  0  0  0  0  0  0  0  0999 V2000
    3.2406    0.6269    0.4514 N   0  0  0  0  0  0  0  0  0  0  0  0
    0.0211   -0.8939   -1.0627 C   0  0  0  0  0  3  0  0  0  0  0  0
   -0.6569   -1.8325   -0.2515 C   0  0  0  0  0  3  0  0  0  0  0  0
   -0.8141   -1.5865    1.1503 C   0  0  0  0  0  3  0  0  0  0  0  0
   -0.3023   -0.3438    1.6500 C   0  0  0  0  0  3  0  0  0  0  0  0
    0.3613    0.5524    0.7867 C   0  0  0  0  0  3  0  0  0  0  0  0
    1.0438    0.0613   -0.4753 C   0  0  0  0  0  0  0  0  0  0  0  0
    2.5229   -0.4453   -0.2920 C   0  0  0  0  0  0  0  0  0  0  0  0
    3.1238   -0.7248   -1.6866 C   0  0  0  0  0  0  0  0  0  0  0  0
    2.5459   -1.7443    0.5249 C   0  0  0  0  0  0  0  0  0  0  0  0
    4.4952    0.2514    1.0796 C   0  0  0  0  0  0  0  0  0  0  0  0
    3.3899    1.8915   -0.2501 C   0  0  0  0  0  0  0  0  0  0  0  0
   -0.0180   -1.0384   -2.1532 H   0  0  0  0  0  0  0  0  0  0  0  0
   -1.1786   -2.6879   -0.7080 H   0  0  0  0  0  0  0  0  0  0  0  0
   -1.3564   -2.2860    1.7991 H   0  0  0  0  0  0  0  0  0  0  0  0
   -0.5520   -0.0387    2.6780 H   0  0  0  0  0  0  0  0  0  0  0  0
    0.6012    1.5547    1.1689 H   0  0  0  0  0  0  0  0  0  0  0  0
    1.1033    0.9178   -1.1757 H   0  0  0  0  0  0  0  0  0  0  0  0
    2.5892   -1.5590   -2.1841 H   0  0  0  0  0  0  0  0  0  0  0  0
    4.1917   -1.0140   -1.6107 H   0  0  0  0  0  0  0  0  0  0  0  0
    3.0542    0.1594   -2.3514 H   0  0  0  0  0  0  0  0  0  0  0  0
    3.5587   -2.1903    0.5521 H   0  0  0  0  0  0  0  0  0  0  0  0
    2.2077   -1.5723    1.5651 H   0  0  0  0  0  0  0  0  0  0  0  0
    1.8742   -2.4906    0.0619 H   0  0  0  0  0  0  0  0  0  0  0  0
    4.8750    1.1161    1.6615 H   0  0  0  0  0  0  0  0  0  0  0  0
    5.3072   -0.0343    0.3579 H   0  0  0  0  0  0  0  0  0  0  0  0
    4.3625   -0.5846    1.7906 H   0  0  0  0  0  0  0  0  0  0  0  0
    2.4275    2.2446   -0.6674 H   0  0  0  0  0  0  0  0  0  0  0  0
    4.1332    1.8689   -1.0896 H   0  0  0  0  0  0  0  0  0  0  0  0
    3.7347    2.6657    0.4663 H   0  0  0  0  0  0  0  0  0  0  0  0
  1 11  1  0  0  0  0
  2  7  1  0  0  0  0
  2  3  1  0  0  0  0
  3  4  1  0  0  0  0
  4  5  1  0  0  0  0
  4 15  1  0  0  0  0
  5 16  1  0  0  0  0
  6 17  1  0  0  0  0
  6  5  1  0  0  0  0
  7  8  1  0  0  0  0
  7  6  1  0  0  0  0
  8  1  1  0  0  0  0
  8 10  1  0  0  0  0
  9 20  1  0  0  0  0
  9  8  1  0  0  0  0
 10 22  1  0  0  0  0
 10 23  1  0  0  0  0
 11 25  1  0  0  0  0
 11 27  1  0  0  0  0
 12  1  1  0  0  0  0
 12 30  1  0  0  0  0
 13  2  1  0  0  0  0
 14  3  1  0  0  0  0
 18  7  1  0  0  0  0
 19  9  1  0  0  0  0
 21  9  1  0  0  0  0
 24 10  1  0  0  0  0
 26 11  1  0  0  0  0
 28 12  1  0  0  0  0
 29 12  1  0  0  0  0
M  END
