3
q = 0.0, confidence = 0.994

 69 70  0  0  0  0  0  0  0  0999 V2000
    0.2248    0.5850    0.9772 N   0  0  0  0  0  0  0  0  0  0  0  0
    1.4877   -0.4043   -0.7726 N   0  0  0  0  0  0  0  0  0  0  0  0
    0.3070   -0.0342   -0.2246 C   0  0  0  0  0  2  0  0  0  0  0  0
    1.3099    0.8238    1.9448 C   0  0  0  0  0  0  0  0  0  0  0  0
    1.8167   -0.1170    2.2208 H   0  0  0  0  0  0  0  0  0  0  0  0
    0.8521    1.2544    2.8518 H   0  0  0  0  0  0  0  0  0  0  0  0
    2.0703    1.5287    1.5609 H   0  0  0  0  0  0  0  0  0  0  0  0
    1.4998   -1.0667   -2.0849 C   0  0  0  0  0  0  0  0  0  0  0  0
    1.6208   -2.1622   -1.9696 H   0  0  0  0  0  0  0  0  0  0  0  0
    2.3365   -0.6607   -2.6851 H   0  0  0  0  0  0  0  0  0  0  0  0
    0.5294   -0.8801   -2.5918 H   0  0  0  0  0  0  0  0  0  0  0  0
   -1.0716    1.1007    1.3959 C   0  0  0  0  0  0  0  0  0  0  0  0
   -1.9672    0.2521    2.0976 C   0  0  0  0  0  0  0  0  0  0  0  0
   -3.2117    0.7897    2.4775 C   0  0  0  0  0  0  0  0  0  0  0  0
   -3.9327    0.1480    3.0042 H   0  0  0  0  0  0  0  0  0  0  0  0
   -3.5470    2.1185    2.1963 C   0  0  0  0  0  0  0  0  0  0  0  0
   -4.5313    2.5124    2.4922 H   0  0  0  0  0  0  0  0  0  0  0  0
   -2.6233    2.9527    1.5575 C   0  0  0  0  0  0  0  0  0  0  0  0
   -2.8823    4.0042    1.3654 H   0  0  0  0  0  0  0  0  0  0  0  0
   -1.3624    2.4711    1.1589 C   0  0  0  0  0  0  0  0  0  0  0  0
   -1.5922   -1.1669    2.5044 C   0  0  0  0  0  0  0  0  0  0  0  0
   -0.8021   -1.5196    1.8128 H   0  0  0  0  0  0  0  0  0  0  0  0
   -1.0197   -1.1807    3.9354 C   0  0  0  0  0  0  0  0  0  0  0  0
   -0.1418   -0.5133    4.0427 H   0  0  0  0  0  0  0  0  0  0  0  0
   -0.7014   -2.2061    4.2149 H   0  0  0  0  0  0  0  0  0  0  0  0
   -1.7813   -0.8474    4.6711 H   0  0  0  0  0  0  0  0  0  0  0  0
   -2.7564   -2.1582    2.3774 C   0  0  0  0  0  0  0  0  0  0  0  0
   -3.5484   -1.9715    3.1324 H   0  0  0  0  0  0  0  0  0  0  0  0
   -2.3892   -3.1925    2.5281 H   0  0  0  0  0  0  0  0  0  0  0  0
   -3.2081   -2.1108    1.3683 H   0  0  0  0  0  0  0  0  0  0  0  0
   -0.3325    3.4366    0.5788 C   0  0  0  0  0  0  0  0  0  0  0  0
    0.4296    2.8305    0.0468 H   0  0  0  0  0  0  0  0  0  0  0  0
   -0.9074    4.4444   -0.4282 C   0  0  0  0  0  0  0  0  0  0  0  0
   -1.4676    3.9465   -1.2396 H   0  0  0  0  0  0  0  0  0  0  0  0
   -0.0836    5.0321   -0.8827 H   0  0  0  0  0  0  0  0  0  0  0  0
   -1.5852    5.1717    0.0642 H   0  0  0  0  0  0  0  0  0  0  0  0
    0.3702    4.1989    1.7221 C   0  0  0  0  0  0  0  0  0  0  0  0
   -0.3660    4.8127    2.2811 H   0  0  0  0  0  0  0  0  0  0  0  0
    1.1452    4.8836    1.3207 H   0  0  0  0  0  0  0  0  0  0  0  0
    0.8548    3.5211    2.4503 H   0  0  0  0  0  0  0  0  0  0  0  0
    2.8149   -0.3138   -0.1926 C   0  0  0  0  0  0  0  0  0  0  0  0
    3.3077   -1.4061    0.5657 C   0  0  0  0  0  0  0  0  0  0  0  0
    4.6127   -1.3061    1.0853 C   0  0  0  0  0  0  0  0  0  0  0  0
    5.0135   -2.1339    1.6901 H   0  0  0  0  0  0  0  0  0  0  0  0
    5.4049   -0.1775    0.8436 C   0  0  0  0  0  0  0  0  0  0  0  0
    6.4221   -0.1190    1.2600 H   0  0  0  0  0  0  0  0  0  0  0  0
    4.9071    0.8741    0.0638 C   0  0  0  0  0  0  0  0  0  0  0  0
    5.5402    1.7534   -0.1300 H   0  0  0  0  0  0  0  0  0  0  0  0
    3.6078    0.8273   -0.4755 C   0  0  0  0  0  0  0  0  0  0  0  0
    2.4770   -2.6589    0.8102 C   0  0  0  0  0  0  0  0  0  0  0  0
    1.4664   -2.4968    0.3842 H   0  0  0  0  0  0  0  0  0  0  0  0
    2.2863   -2.9655    2.3047 C   0  0  0  0  0  0  0  0  0  0  0  0
    3.2466   -3.1970    2.8111 H   0  0  0  0  0  0  0  0  0  0  0  0
    1.6212   -3.8440    2.4268 H   0  0  0  0  0  0  0  0  0  0  0  0
    1.8140   -2.1203    2.8448 H   0  0  0  0  0  0  0  0  0  0  0  0
    3.0847   -3.8680    0.0767 C   0  0  0  0  0  0  0  0  0  0  0  0
    4.0749   -4.1455    0.4955 H   0  0  0  0  0  0  0  0  0  0  0  0
    3.2246   -3.6593   -1.0028 H   0  0  0  0  0  0  0  0  0  0  0  0
    2.4148   -4.7467    0.1680 H   0  0  0  0  0  0  0  0  0  0  0  0
    3.0968    1.9750   -1.3394 C   0  0  0  0  0  0  0  0  0  0  0  0
    2.0140    1.8037   -1.5118 H   0  0  0  0  0  0  0  0  0  0  0  0
    3.7930    1.9839   -2.7131 C   0  0  0  0  0  0  0  0  0  0  0  0
    4.8827    2.1630   -2.6035 H   0  0  0  0  0  0  0  0  0  0  0  0
    3.3797    2.7871   -3.3565 H   0  0  0  0  0  0  0  0  0  0  0  0
    3.6661    1.0208   -3.2460 H   0  0  0  0  0  0  0  0  0  0  0  0
    3.2487    3.3399   -0.6476 C   0  0  0  0  0  0  0  0  0  0  0  0
    2.7937    3.3442    0.3620 H   0  0  0  0  0  0  0  0  0  0  0  0
    2.7549    4.1336   -1.2443 H   0  0  0  0  0  0  0  0  0  0  0  0
    4.3147    3.6254   -0.5355 H   0  0  0  0  0  0  0  0  0  0  0  0
  1 12  1  0  0  0  0
  1  4  1  0  0  0  0
  2  3  1  0  0  0  0
  2 41  1  0  0  0  0
  3  1  1  0  0  0  0
  4  5  1  0  0  0  0
  4  6  1  0  0  0  0
  7  4  1  0  0  0  0
  8  9  1  0  0  0  0
  8  2  1  0  0  0  0
 10  8  1  0  0  0  0
 11  8  1  0  0  0  0
 12 13  1  0  0  0  0
 13 14  2  0  0  0  0
 13 21  1  0  0  0  0
 14 15  1  0  0  0  0
 16 14  1  0  0  0  0
 16 17  1  0  0  0  0
 18 16  2  0  0  0  0
 19 18  1  0  0  0  0
 20 12  2  0  0  0  0
 20 18  1  0  0  0  0
 21 23  1  0  0  0  0
 22 21  1  0  0  0  0
 23 24  1  0  0  0  0
 23 25  1  0  0  0  0
 23 26  1  0  0  0  0
 27 21  1  0  0  0  0
 27 29  1  0  0  0  0
 27 28  1  0  0  0  0
 30 27  1  0  0  0  0
 31 20  1  0  0  0  0
 31 37  1  0  0  0  0
 32 31  1  0  0  0  0
 33 36  1  0  0  0  0
 33 31  1  0  0  0  0
 34 33  1  0  0  0  0
 35 33  1  0  0  0  0
 37 38  1  0  0  0  0
 37 40  1  0  0  0  0
 39 37  1  0  0  0  0
 41 42  1  0  0  0  0
 42 50  1  0  0  0  0
 42 43  2  0  0  0  0
 43 44  1  0  0  0  0
 45 43  1  0  0  0  0
 45 46  1  0  0  0  0
 47 45  2  0  0  0  0
 48 47  1  0  0  0  0
 49 41  2  0  0  0  0
 49 47  1  0  0  0  0
 50 52  1  0  0  0  0
 51 50  1  0  0  0  0
 52 54  1  0  0  0  0
 52 53  1  0  0  0  0
 52 55  1  0  0  0  0
 56 59  1  0  0  0  0
 56 57  1  0  0  0  0
 56 50  1  0  0  0  0
 58 56  1  0  0  0  0
 60 66  1  0  0  0  0
 60 49  1  0  0  0  0
 61 60  1  0  0  0  0
 62 63  1  0  0  0  0
 62 60  1  0  0  0  0
 64 62  1  0  0  0  0
 65 62  1  0  0  0  0
 66 69  1  0  0  0  0
 66 67  1  0  0  0  0
 68 66  1  0  0  0  0
M  END
