1
q = 0.0, confidence = 0.906

  9  8  0  0  0  0  0  0  0  0999 V2000
   -1.9600   -0.8929   -1.0928 C   0  0  0  0  0  3  0  0  0  0  0  0
   -2.5974   -0.0891   -1.4963 H   0  0  0  0  0  0  0  0  0  0  0  0
   -1.5705   -1.6121   -1.8301 H   0  0  0  0  0  0  0  0  0  0  0  0
   -2.0401   -1.2299    0.2742 C   0  0  0  0  0  3  0  0  0  0  0  0
   -1.6300   -2.2141    0.5695 H   0  0  0  0  0  0  0  0  0  0  0  0
   -2.9945   -0.6370    1.2672 C   0  0  0  0  0  0  0  0  0  0  0  0
   -2.5319   -0.5484    2.2703 H   0  0  0  0  0  0  0  0  0  0  0  0
   -3.8592   -1.3287    1.3730 H   0  0  0  0  0  0  0  0  0  0  0  0
   -3.3638    0.3549    0.9521 H   0  0  0  0  0  0  0  0  0  0  0  0
  1  4  1  0  0  0  0
  2  1  1  0  0  0  0
  3  1  1  0  0  0  0
  4  5  1  0  0  0  0
  4  6  1  0  0  0  0
  6  8  1  0  0  0  0
  6  7  1  0  0  0  0
  9  6  1  0  0  0  0
M  END
