1
q = -1.0, confidence = 0.0

 13 12  0  0  0  0  0  0  0  0999 V2000
   -2.6262    0.1160    0.6862 C   0  0  0  0  0  3  0  0  0  0  0  0
   -2.7776   -0.6420    1.4924 H   0  0  0  0  0  0  0  0  0  0  0  0
   -2.8364    1.0933    1.1836 H   0  0  0  0  0  0  0  0  0  0  0  0
   -3.6981   -0.0915   -0.3962 C   0  0  0  0  0  0  0  0  0  0  0  0
   -3.5671   -1.1101   -0.8337 H   0  0  0  0  0  0  0  0  0  0  0  0
   -3.5842    0.9027   -1.5597 C   0  0  0  0  0  0  0  0  0  0  0  0
   -3.7802    1.9402   -1.2157 H   0  0  0  0  0  0  0  0  0  0  0  0
   -4.3186    0.6803   -2.3618 H   0  0  0  0  0  0  0  0  0  0  0  0
   -2.5680    0.8863   -2.0051 H   0  0  0  0  0  0  0  0  0  0  0  0
   -5.1160   -0.0600    0.2003 C   0  0  0  0  0  0  0  0  0  0  0  0
   -5.3266    0.9342    0.6500 H   0  0  0  0  0  0  0  0  0  0  0  0
   -5.2340   -0.8166    1.0030 H   0  0  0  0  0  0  0  0  0  0  0  0
   -5.8940   -0.2527   -0.5691 H   0  0  0  0  0  0  0  0  0  0  0  0
  1  3  1  0  0  0  0
  1  2  1  0  0  0  0
  4 10  1  0  0  0  0
  4  1  1  0  0  0  0
  5  4  1  0  0  0  0
  6  7  1  0  0  0  0
  6  4  1  0  0  0  0
  8  6  1  0  0  0  0
  9  6  1  0  0  0  0
 10 11  1  0  0  0  0
 10 12  1  0  0  0  0
 13 10  1  0  0  0  0
M  END
