3
q = 0.0, confidence = 1.0

 27 28  0  0  0  0  0  0  0  0999 V2000
   -1.5661   -0.7098   -1.0655 N   0  0  0  0  0  0  0  0  0  0  0  0
   -2.4070    0.1549    0.7668 N   0  0  0  0  0  0  0  0  0  0  0  0
   -1.3563    0.2514   -0.1096 C   0  0  0  0  0  2  0  0  0  0  0  0
   -3.2853   -0.8514    0.3725 C   0  0  0  0  0  0  0  0  0  0  0  0
   -4.4877   -1.3163    0.9224 C   0  0  0  0  0  0  0  0  0  0  0  0
   -4.9159   -0.8675    1.8290 H   0  0  0  0  0  0  0  0  0  0  0  0
   -5.1289   -2.3693    0.2521 C   0  0  0  0  0  0  0  0  0  0  0  0
   -6.0766   -2.7606    0.6499 H   0  0  0  0  0  0  0  0  0  0  0  0
   -4.5903   -2.9305   -0.9269 C   0  0  0  0  0  0  0  0  0  0  0  0
   -5.1267   -3.7502   -1.4268 H   0  0  0  0  0  0  0  0  0  0  0  0
   -3.3880   -2.4620   -1.4797 C   0  0  0  0  0  0  0  0  0  0  0  0
   -2.9761   -2.8975   -2.4006 H   0  0  0  0  0  0  0  0  0  0  0  0
   -2.7432   -1.4147   -0.8071 C   0  0  0  0  0  0  0  0  0  0  0  0
   -2.6426    1.0324    1.9027 C   0  0  0  0  0  0  0  0  0  0  0  0
   -1.7478    1.6628    2.0483 H   0  0  0  0  0  0  0  0  0  0  0  0
   -2.8394    0.4296    2.8114 H   0  0  0  0  0  0  0  0  0  0  0  0
   -3.5026    1.7005    1.6904 H   0  0  0  0  0  0  0  0  0  0  0  0
   -0.6842   -0.9658   -2.1975 C   0  0  0  0  0  0  0  0  0  0  0  0
   -0.0461   -0.0673   -2.3027 H   0  0  0  0  0  0  0  0  0  0  0  0
   -1.3105   -1.0303   -3.1127 H   0  0  0  0  0  0  0  0  0  0  0  0
    0.1671   -2.2295   -2.0332 C   0  0  0  0  0  0  0  0  0  0  0  0
    0.7575   -2.1460   -1.0981 H   0  0  0  0  0  0  0  0  0  0  0  0
   -0.4999   -3.1069   -1.8943 H   0  0  0  0  0  0  0  0  0  0  0  0
    1.0969   -2.4587   -3.2230 C   0  0  0  0  0  0  0  0  0  0  0  0
    0.5301   -2.5804   -4.1693 H   0  0  0  0  0  0  0  0  0  0  0  0
    1.7135   -3.3672   -3.0796 H   0  0  0  0  0  0  0  0  0  0  0  0
    1.7926   -1.6057   -3.3607 H   0  0  0  0  0  0  0  0  0  0  0  0
  1 13  1  0  0  0  0
  1  3  1  0  0  0  0
  2 14  1  0  0  0  0
  3  2  1  0  0  0  0
  4  2  1  0  0  0  0
  4  5  1  0  0  0  0
  5  6  1  0  0  0  0
  7  8  1  0  0  0  0
  7  5  2  0  0  0  0
  9  7  1  0  0  0  0
 10  9  1  0  0  0  0
 11  9  2  0  0  0  0
 11 13  1  0  0  0  0
 12 11  1  0  0  0  0
 13  4  2  0  0  0  0
 14 15  1  0  0  0  0
 14 16  1  0  0  0  0
 17 14  1  0  0  0  0
 18 21  1  0  0  0  0
 18  1  1  0  0  0  0
 19 18  1  0  0  0  0
 20 18  1  0  0  0  0
 21 23  1  0  0  0  0
 21 22  1  0  0  0  0
 24 26  1  0  0  0  0
 24 21  1  0  0  0  0
 25 24  1  0  0  0  0
 27 24  1  0  0  0  0
M  END
