1
q = 0.0, confidence = 0.992

 23 22  0  0  1  0  0  0  0  0999 V2000
   -0.1559    1.3121   -0.6483 C   0  0  0  0  0  2  0  0  0  0  0  0
    0.3344    2.4235   -1.5163 C   0  0  0  0  0  0  0  0  0  0  0  0
   -2.2558    0.5861    0.5273 C   0  0  1  0  0  0  0  0  0  0  0  0
   -2.5635    1.2126    1.8969 C   0  0  0  0  0  0  0  0  0  0  0  0
   -3.5602    0.3446   -0.2359 C   0  0  0  0  0  0  0  0  0  0  0  0
   -5.4737   -1.0629   -0.3660 C   0  0  0  0  0  0  0  0  0  0  0  0
   -6.5870   -0.3020    0.3318 C   0  0  0  0  0  0  0  0  0  0  0  0
   -1.4258    1.4533   -0.2975 N   0  0  0  0  0  0  0  0  0  0  0  0
   -3.9816    1.0891   -1.1044 O   0  0  0  0  0  0  0  0  0  0  0  0
   -4.1789   -0.7561    0.2170 O   0  0  0  0  0  0  0  0  0  0  0  0
   -1.9717    2.2193   -0.7257 H   0  0  0  0  0  0  0  0  0  0  0  0
   -1.7314   -0.3783    0.6573 H   0  0  0  0  0  0  0  0  0  0  0  0
    0.7016    2.0259   -2.4832 H   0  0  0  0  0  0  0  0  0  0  0  0
    1.2302    2.8489   -1.0004 H   0  0  0  0  0  0  0  0  0  0  0  0
   -0.4202    3.2175   -1.7098 H   0  0  0  0  0  0  0  0  0  0  0  0
   -3.0977    2.1763    1.7746 H   0  0  0  0  0  0  0  0  0  0  0  0
   -3.2040    0.5284    2.4854 H   0  0  0  0  0  0  0  0  0  0  0  0
   -1.6284    1.3906    2.4590 H   0  0  0  0  0  0  0  0  0  0  0  0
   -5.5770   -2.1573   -0.2388 H   0  0  0  0  0  0  0  0  0  0  0  0
   -5.4367   -0.8214   -1.4470 H   0  0  0  0  0  0  0  0  0  0  0  0
   -6.5901   -0.5074    1.4207 H   0  0  0  0  0  0  0  0  0  0  0  0
   -7.5686   -0.6117   -0.0796 H   0  0  0  0  0  0  0  0  0  0  0  0
   -6.4791    0.7884    0.1710 H   0  0  0  0  0  0  0  0  0  0  0  0
  1  8  1  0  0  0  0
  2 14  1  0  0  0  0
  2  1  1  0  0  0  0
  3 12  1  1  0  0  0
  3  4  1  0  0  0  0
  4 18  1  0  0  0  0
  4 17  1  0  0  0  0
  5 10  1  0  0  0  0
  5  3  1  0  0  0  0
  6 19  1  0  0  0  0
  6 10  1  0  0  0  0
  6  7  1  0  0  0  0
  7 21  1  0  0  0  0
  8  3  1  0  0  0  0
  9  5  2  0  0  0  0
 11  8  1  0  0  0  0
 13  2  1  0  0  0  0
 15  2  1  0  0  0  0
 16  4  1  0  0  0  0
 20  6  1  0  0  0  0
 22  7  1  0  0  0  0
 23  7  1  0  0  0  0
M  END
