1
q = -1.0, confidence = 0.006

  9  9  0  0  0  0  0  0  0  0999 V2000
    2.4600   -0.3769   -0.0017 C   0  0  0  0  0  1  0  0  0  0  0  0
    3.8482   -0.1630   -0.1223 C   0  0  0  0  0  0  0  0  0  0  0  0
    4.5228    1.4363    0.2217 S   0  0  0  0  0  0  0  0  0  0  0  0
    6.1214    0.9147   -0.1792 C   0  0  0  0  0  0  0  0  0  0  0  0
    6.9624    1.6159   -0.1092 H   0  0  0  0  0  0  0  0  0  0  0  0
    6.1516   -0.4199   -0.5544 C   0  0  0  0  0  0  0  0  0  0  0  0
    7.0757   -0.9409   -0.8410 H   0  0  0  0  0  0  0  0  0  0  0  0
    4.8708   -1.0328   -0.5253 C   0  0  0  0  0  0  0  0  0  0  0  0
    4.6654   -2.0790   -0.7872 H   0  0  0  0  0  0  0  0  0  0  0  0
  2  1  1  0  0  0  0
  2  3  1  0  0  0  0
  4  5  1  0  0  0  0
  4  3  1  0  0  0  0
  6  8  1  0  0  0  0
  6  4  2  0  0  0  0
  7  6  1  0  0  0  0
  8  2  2  0  0  0  0
  9  8  1  0  0  0  0
M  END
