4
q = -1.0, confidence = 0.014

 29 31  0  0  0  0  0  0  0  0999 V2000
   -1.4197   -2.5422    0.1188 C   0  0  0  0  0  0  0  0  0  0  0  0
   -2.4279   -1.4781    0.2589 C   0  0  0  0  0  0  0  0  0  0  0  0
   -2.0932   -0.6993    1.4078 C   0  0  0  0  0  0  0  0  0  0  0  0
   -0.7887   -1.1003    1.8459 C   0  0  0  0  0  3  0  0  0  0  0  0
   -0.4065   -2.3162    1.1190 C   0  0  0  0  0  0  0  0  0  0  0  0
    0.7181   -3.1610    1.1982 C   0  0  0  0  0  0  0  0  0  0  0  0
    0.8258   -4.2190    0.2815 C   0  0  0  0  0  0  0  0  0  0  0  0
   -0.1537   -4.4245   -0.7143 C   0  0  0  0  0  0  0  0  0  0  0  0
   -1.2770   -3.5863   -0.8122 C   0  0  0  0  0  0  0  0  0  0  0  0
   -3.6640   -1.3632   -0.5879 C   0  0  0  0  0  0  0  0  0  0  0  0
   -4.5246   -0.1702   -0.2384 C   0  0  0  0  0  0  0  0  0  0  0  0
   -5.6450   -0.3047    0.6038 C   0  0  0  0  0  0  0  0  0  0  0  0
   -6.4101    0.8154    0.9666 C   0  0  0  0  0  0  0  0  0  0  0  0
   -6.0593    2.0891    0.4928 C   0  0  0  0  0  0  0  0  0  0  0  0
   -4.9423    2.2332   -0.3468 C   0  0  0  0  0  0  0  0  0  0  0  0
   -4.1793    1.1138   -0.7101 C   0  0  0  0  0  0  0  0  0  0  0  0
   -2.7013    0.1164    1.8166 H   0  0  0  0  0  0  0  0  0  0  0  0
   -0.2410   -0.6880    2.7021 H   0  0  0  0  0  0  0  0  0  0  0  0
    1.4929   -2.9875    1.9593 H   0  0  0  0  0  0  0  0  0  0  0  0
    1.6917   -4.8962    0.3350 H   0  0  0  0  0  0  0  0  0  0  0  0
   -0.0358   -5.2570   -1.4245 H   0  0  0  0  0  0  0  0  0  0  0  0
   -2.0255   -3.7372   -1.6038 H   0  0  0  0  0  0  0  0  0  0  0  0
   -3.3380   -1.3036   -1.6494 H   0  0  0  0  0  0  0  0  0  0  0  0
   -4.2478   -2.3038   -0.4808 H   0  0  0  0  0  0  0  0  0  0  0  0
   -5.9218   -1.3030    0.9799 H   0  0  0  0  0  0  0  0  0  0  0  0
   -7.2858    0.6916    1.6223 H   0  0  0  0  0  0  0  0  0  0  0  0
   -6.6582    2.9686    0.7752 H   0  0  0  0  0  0  0  0  0  0  0  0
   -4.6628    3.2289   -0.7251 H   0  0  0  0  0  0  0  0  0  0  0  0
   -3.2989    1.2159   -1.3648 H   0  0  0  0  0  0  0  0  0  0  0  0
  1  2  1  0  0  0  0
  1  5  1  0  0  0  0
  2  3  2  0  0  0  0
  3 17  1  0  0  0  0
  3  4  1  0  0  0  0
  4 18  1  0  0  0  0
  5  6  2  0  0  0  0
  5  4  1  0  0  0  0
  6 19  1  0  0  0  0
  7 20  1  0  0  0  0
  7  6  1  0  0  0  0
  8  7  2  0  0  0  0
  9  8  1  0  0  0  0
  9  1  2  0  0  0  0
 10 24  1  0  0  0  0
 10 11  1  0  0  0  0
 10  2  1  0  0  0  0
 11 12  1  0  0  0  0
 12 13  2  0  0  0  0
 12 25  1  0  0  0  0
 13 26  1  0  0  0  0
 14 27  1  0  0  0  0
 14 13  1  0  0  0  0
 15 14  2  0  0  0  0
 16 15  1  0  0  0  0
 16 11  2  0  0  0  0
 21  8  1  0  0  0  0
 22  9  1  0  0  0  0
 23 10  1  0  0  0  0
 28 15  1  0  0  0  0
 29 16  1  0  0  0  0
M  END
