3
q = 0.0, confidence = 0.982

 39 42  0  0  0  0  0  0  0  0999 V2000
   -1.0089    0.9001   -0.6727 N   0  0  0  0  0  0  0  0  0  0  0  0
   -1.7970    1.7527   -1.3750 N   0  0  0  0  0  2  0  0  0  0  0  0
    0.3442    0.9699   -0.5177 C   0  0  0  0  0  3  0  0  0  0  0  0
   -1.2280    2.7830   -1.9458 C   0  0  0  0  0  0  0  0  0  0  0  0
   -1.9039    3.4425   -2.5164 H   0  0  0  0  0  0  0  0  0  0  0  0
    0.1717    3.0742   -1.8448 C   0  0  0  0  0  0  0  0  0  0  0  0
    0.7690    4.2229   -2.4202 C   0  0  0  0  0  0  0  0  0  0  0  0
    0.1445    4.9322   -2.9851 H   0  0  0  0  0  0  0  0  0  0  0  0
    2.1338    4.4446   -2.2576 C   0  0  0  0  0  0  0  0  0  0  0  0
    2.6021    5.3367   -2.7004 H   0  0  0  0  0  0  0  0  0  0  0  0
    2.9234    3.5332   -1.5140 C   0  0  0  0  0  0  0  0  0  0  0  0
    3.9975    3.7290   -1.3783 H   0  0  0  0  0  0  0  0  0  0  0  0
    2.3496    2.3994   -0.9454 C   0  0  0  0  0  0  0  0  0  0  0  0
    2.9340    1.6884   -0.3406 H   0  0  0  0  0  0  0  0  0  0  0  0
    0.9640    2.1422   -1.1084 C   0  0  0  0  0  0  0  0  0  0  0  0
   -1.7783   -0.1888   -0.0018 C   0  0  0  0  0  0  0  0  0  0  0  0
   -1.0398   -0.5877    0.7317 H   0  0  0  0  0  0  0  0  0  0  0  0
   -2.9603    0.3943    0.7612 C   0  0  0  0  0  0  0  0  0  0  0  0
   -4.2785    0.2917    0.2814 C   0  0  0  0  0  0  0  0  0  0  0  0
   -4.4729   -0.2353   -0.6642 H   0  0  0  0  0  0  0  0  0  0  0  0
   -5.3394    0.8567    1.0045 C   0  0  0  0  0  0  0  0  0  0  0  0
   -6.3680    0.7711    0.6217 H   0  0  0  0  0  0  0  0  0  0  0  0
   -5.0908    1.5293    2.2114 C   0  0  0  0  0  0  0  0  0  0  0  0
   -5.9244    1.9707    2.7791 H   0  0  0  0  0  0  0  0  0  0  0  0
   -3.7756    1.6335    2.6933 C   0  0  0  0  0  0  0  0  0  0  0  0
   -3.5733    2.1552    3.6412 H   0  0  0  0  0  0  0  0  0  0  0  0
   -2.7130    1.0683    1.9741 C   0  0  0  0  0  0  0  0  0  0  0  0
   -1.6776    1.1482    2.3476 H   0  0  0  0  0  0  0  0  0  0  0  0
   -2.1347   -1.3252   -0.9432 C   0  0  0  0  0  0  0  0  0  0  0  0
   -2.2974   -1.1640   -2.3313 C   0  0  0  0  0  0  0  0  0  0  0  0
   -2.1772   -0.1689   -2.7819 H   0  0  0  0  0  0  0  0  0  0  0  0
   -2.6176   -2.2655   -3.1423 C   0  0  0  0  0  0  0  0  0  0  0  0
   -2.7353   -2.1245   -4.2275 H   0  0  0  0  0  0  0  0  0  0  0  0
   -2.7883   -3.5375   -2.5765 C   0  0  0  0  0  0  0  0  0  0  0  0
   -3.0359   -4.3995   -3.2142 H   0  0  0  0  0  0  0  0  0  0  0  0
   -2.6429   -3.7027   -1.1889 C   0  0  0  0  0  0  0  0  0  0  0  0
   -2.7764   -4.6955   -0.7329 H   0  0  0  0  0  0  0  0  0  0  0  0
   -2.3180   -2.6048   -0.3813 C   0  0  0  0  0  0  0  0  0  0  0  0
   -2.2024   -2.7352    0.7060 H   0  0  0  0  0  0  0  0  0  0  0  0
  1  3  1  0  0  0  0
  1 16  1  0  0  0  0
  2  1  1  0  0  0  0
  4  6  2  0  0  0  0
  4  2  1  0  0  0  0
  5  4  1  0  0  0  0
  6 15  1  0  0  0  0
  7  9  2  0  0  0  0
  7  6  1  0  0  0  0
  8  7  1  0  0  0  0
  9 11  1  0  0  0  0
 10  9  1  0  0  0  0
 11 12  1  0  0  0  0
 11 13  2  0  0  0  0
 13 14  1  0  0  0  0
 15 13  1  0  0  0  0
 15  3  2  0  0  0  0
 16 17  1  0  0  0  0
 16 18  1  0  0  0  0
 18 27  1  0  0  0  0
 19 18  2  0  0  0  0
 19 21  1  0  0  0  0
 20 19  1  0  0  0  0
 21 23  2  0  0  0  0
 22 21  1  0  0  0  0
 23 25  1  0  0  0  0
 23 24  1  0  0  0  0
 25 26  1  0  0  0  0
 27 28  1  0  0  0  0
 27 25  2  0  0  0  0
 29 38  1  0  0  0  0
 29 16  1  0  0  0  0
 30 29  2  0  0  0  0
 31 30  1  0  0  0  0
 32 34  2  0  0  0  0
 32 30  1  0  0  0  0
 33 32  1  0  0  0  0
 34 36  1  0  0  0  0
 35 34  1  0  0  0  0
 36 37  1  0  0  0  0
 36 38  2  0  0  0  0
 38 39  1  0  0  0  0
M  END
