3
q = 0.0, confidence = 0.99

 28 29  0  0  0  0  0  0  0  0999 V2000
   -1.6606    1.3769   -0.3670 N   0  0  0  0  0  0  0  0  0  0  0  0
   -2.9318    1.4560   -0.8372 N   0  0  0  0  0  2  0  0  0  0  0  0
   -1.0235    0.2149   -0.0182 C   0  0  0  0  0  3  0  0  0  0  0  0
   -3.6533    0.3719   -0.9365 C   0  0  0  0  0  0  0  0  0  0  0  0
   -4.6617    0.5100   -1.3636 H   0  0  0  0  0  0  0  0  0  0  0  0
   -3.2127   -0.9106   -0.4855 C   0  0  0  0  0  0  0  0  0  0  0  0
   -4.0356   -2.0646   -0.4901 C   0  0  0  0  0  0  0  0  0  0  0  0
   -5.0596   -1.9964   -0.8890 H   0  0  0  0  0  0  0  0  0  0  0  0
   -3.5432   -3.2616    0.0200 C   0  0  0  0  0  0  0  0  0  0  0  0
   -4.1763   -4.1619    0.0223 H   0  0  0  0  0  0  0  0  0  0  0  0
   -2.2320   -3.3213    0.5538 C   0  0  0  0  0  0  0  0  0  0  0  0
   -1.8609   -4.2647    0.9813 H   0  0  0  0  0  0  0  0  0  0  0  0
   -1.4115   -2.1971    0.5515 C   0  0  0  0  0  0  0  0  0  0  0  0
   -0.3957   -2.2159    0.9768 H   0  0  0  0  0  0  0  0  0  0  0  0
   -1.1055    2.7778   -0.0541 C   0  0  0  0  0  0  0  0  0  0  0  0
   -1.8984    3.8326   -0.8396 C   0  0  0  0  0  0  0  0  0  0  0  0
   -1.4220    4.8154   -0.6530 H   0  0  0  0  0  0  0  0  0  0  0  0
   -2.9556    3.8879   -0.5279 H   0  0  0  0  0  0  0  0  0  0  0  0
   -1.8713    3.6342   -1.9286 H   0  0  0  0  0  0  0  0  0  0  0  0
    0.3710    2.9095   -0.4274 C   0  0  0  0  0  0  0  0  0  0  0  0
    0.7298    3.8995   -0.0850 H   0  0  0  0  0  0  0  0  0  0  0  0
    0.5232    2.8421   -1.5222 H   0  0  0  0  0  0  0  0  0  0  0  0
    0.9939    2.1258    0.0619 H   0  0  0  0  0  0  0  0  0  0  0  0
   -1.3097    2.9685    1.4591 C   0  0  0  0  0  0  0  0  0  0  0  0
   -0.7295    2.2193    2.0365 H   0  0  0  0  0  0  0  0  0  0  0  0
   -2.3836    2.8702    1.7165 H   0  0  0  0  0  0  0  0  0  0  0  0
   -0.9770    3.9844    1.7512 H   0  0  0  0  0  0  0  0  0  0  0  0
   -1.8771   -0.9665    0.0122 C   0  0  0  0  0  0  0  0  0  0  0  0
  1 15  1  0  0  0  0
  1  3  1  0  0  0  0
  2  1  1  0  0  0  0
  3 28  2  0  0  0  0
  4  2  1  0  0  0  0
  4  6  2  0  0  0  0
  5  4  1  0  0  0  0
  6 28  1  0  0  0  0
  7  6  1  0  0  0  0
  7  9  2  0  0  0  0
  8  7  1  0  0  0  0
  9 10  1  0  0  0  0
  9 11  1  0  0  0  0
 11 12  1  0  0  0  0
 13 11  2  0  0  0  0
 13 14  1  0  0  0  0
 15 24  1  0  0  0  0
 16 17  1  0  0  0  0
 16 18  1  0  0  0  0
 16 15  1  0  0  0  0
 19 16  1  0  0  0  0
 20 21  1  0  0  0  0
 20 15  1  0  0  0  0
 20 23  1  0  0  0  0
 22 20  1  0  0  0  0
 24 26  1  0  0  0  0
 24 27  1  0  0  0  0
 24 25  1  0  0  0  0
 28 13  1  0  0  0  0
M  END
