1
q = 0.0, confidence = 0.996

 36 38  0  0  0  0  0  0  0  0999 V2000
    0.5622   -0.5454   -0.6800 C   0  0  0  0  0  2  0  0  0  0  0  0
   -0.4263   -1.4960   -0.5527 N   0  0  0  0  0  0  0  0  0  0  0  0
    1.6630   -1.2529   -1.0824 N   0  0  0  0  0  0  0  0  0  0  0  0
    0.0605   -2.7620   -0.8728 C   0  0  0  0  0  0  0  0  0  0  0  0
   -0.5660   -3.6558   -0.8107 H   0  0  0  0  0  0  0  0  0  0  0  0
    1.3806   -2.6059   -1.1988 C   0  0  0  0  0  0  0  0  0  0  0  0
    2.1410   -3.3393   -1.4824 H   0  0  0  0  0  0  0  0  0  0  0  0
   -1.7773   -1.2358   -0.1643 C   0  0  0  0  0  0  0  0  0  0  0  0
   -2.0554   -0.4169    0.9465 C   0  0  0  0  0  0  0  0  0  0  0  0
   -1.2280    0.0283    1.5168 H   0  0  0  0  0  0  0  0  0  0  0  0
   -3.3787   -0.1715    1.3138 C   0  0  0  0  0  0  0  0  0  0  0  0
   -3.5877    0.4760    2.1788 H   0  0  0  0  0  0  0  0  0  0  0  0
   -4.4518   -0.7479    0.5919 C   0  0  0  0  0  0  0  0  0  0  0  0
   -4.1611   -1.5750   -0.5137 C   0  0  0  0  0  0  0  0  0  0  0  0
   -4.9660   -2.0317   -1.1043 H   0  0  0  0  0  0  0  0  0  0  0  0
   -2.8317   -1.8098   -0.8902 C   0  0  0  0  0  0  0  0  0  0  0  0
   -2.6163   -2.4285   -1.7740 H   0  0  0  0  0  0  0  0  0  0  0  0
   -6.0800   -0.3634    1.1611 S   0  0  0  0  0  0  0  0  0  0  0  0
   -7.1496   -1.2498   -0.0030 C   0  0  0  0  0  0  0  0  0  0  0  0
   -7.0154   -0.8860   -1.0411 H   0  0  0  0  0  0  0  0  0  0  0  0
   -8.1845   -1.0290    0.3200 H   0  0  0  0  0  0  0  0  0  0  0  0
   -6.9886   -2.3454    0.0416 H   0  0  0  0  0  0  0  0  0  0  0  0
    2.9925   -0.6652   -1.2773 C   0  0  0  0  0  0  0  0  0  0  0  0
    2.8254    0.4246   -1.3956 H   0  0  0  0  0  0  0  0  0  0  0  0
    3.4093   -1.0588   -2.2253 H   0  0  0  0  0  0  0  0  0  0  0  0
    3.9240   -0.9520   -0.1185 C   0  0  0  0  0  0  0  0  0  0  0  0
    5.0430   -1.7882   -0.2831 C   0  0  0  0  0  0  0  0  0  0  0  0
    5.2550   -2.2256   -1.2724 H   0  0  0  0  0  0  0  0  0  0  0  0
    5.8945   -2.0604    0.7998 C   0  0  0  0  0  0  0  0  0  0  0  0
    6.7694   -2.7131    0.6587 H   0  0  0  0  0  0  0  0  0  0  0  0
    5.6289   -1.4991    2.0575 C   0  0  0  0  0  0  0  0  0  0  0  0
    6.2953   -1.7104    2.9075 H   0  0  0  0  0  0  0  0  0  0  0  0
    4.5127   -0.6623    2.2286 C   0  0  0  0  0  0  0  0  0  0  0  0
    4.3050   -0.2134    3.2117 H   0  0  0  0  0  0  0  0  0  0  0  0
    3.6644   -0.3887    1.1476 C   0  0  0  0  0  0  0  0  0  0  0  0
    2.7901    0.2707    1.2765 H   0  0  0  0  0  0  0  0  0  0  0  0
  1  2  1  0  0  0  0
  2  8  1  0  0  0  0
  3  1  1  0  0  0  0
  4  5  1  0  0  0  0
  4  2  1  0  0  0  0
  6  3  1  0  0  0  0
  6  4  2  0  0  0  0
  7  6  1  0  0  0  0
  8  9  1  0  0  0  0
  9 11  2  0  0  0  0
  9 10  1  0  0  0  0
 11 12  1  0  0  0  0
 13 18  1  0  0  0  0
 13 11  1  0  0  0  0
 14 13  2  0  0  0  0
 15 14  1  0  0  0  0
 16 14  1  0  0  0  0
 16  8  2  0  0  0  0
 17 16  1  0  0  0  0
 19 22  1  0  0  0  0
 19 21  1  0  0  0  0
 19 18  1  0  0  0  0
 20 19  1  0  0  0  0
 23  3  1  0  0  0  0
 23 26  1  0  0  0  0
 24 23  1  0  0  0  0
 25 23  1  0  0  0  0
 26 35  1  0  0  0  0
 27 26  2  0  0  0  0
 27 29  1  0  0  0  0
 28 27  1  0  0  0  0
 29 31  2  0  0  0  0
 30 29  1  0  0  0  0
 31 33  1  0  0  0  0
 31 32  1  0  0  0  0
 33 34  1  0  0  0  0
 35 36  1  0  0  0  0
 35 33  2  0  0  0  0
M  END
