3
q = 0.0, confidence = 0.998

 44 47  0  0  0  0  0  0  0  0999 V2000
    0.3935   -0.9113   -1.4027 N   0  0  0  0  0  0  0  0  0  0  0  0
   -1.4245   -1.7089   -0.5503 N   0  0  0  0  0  0  0  0  0  0  0  0
   -0.7865   -0.5319   -0.8253 C   0  0  0  0  0  2  0  0  0  0  0  0
    0.5003   -2.2923   -1.4729 C   0  0  0  0  0  0  0  0  0  0  0  0
    1.3808   -2.7936   -1.8855 H   0  0  0  0  0  0  0  0  0  0  0  0
   -0.6560   -2.7989   -0.9367 C   0  0  0  0  0  0  0  0  0  0  0  0
   -0.9856   -3.8338   -0.8081 H   0  0  0  0  0  0  0  0  0  0  0  0
   -2.7413   -1.7830    0.0973 C   0  0  0  0  0  0  0  0  0  0  0  0
   -3.0537   -0.7204    0.1984 H   0  0  0  0  0  0  0  0  0  0  0  0
   -3.7709   -2.5116   -0.7769 C   0  0  0  0  0  0  0  0  0  0  0  0
   -3.4336   -3.5583   -0.9501 H   0  0  0  0  0  0  0  0  0  0  0  0
   -3.8246   -2.0204   -1.7704 H   0  0  0  0  0  0  0  0  0  0  0  0
   -5.1443   -2.5260   -0.0925 C   0  0  0  0  0  0  0  0  0  0  0  0
   -5.5241   -1.4826   -0.0219 H   0  0  0  0  0  0  0  0  0  0  0  0
   -5.8719   -3.0801   -0.7203 H   0  0  0  0  0  0  0  0  0  0  0  0
   -5.0667   -3.1340    1.3142 C   0  0  0  0  0  0  0  0  0  0  0  0
   -6.0621   -3.1007    1.8032 H   0  0  0  0  0  0  0  0  0  0  0  0
   -4.7937   -4.2106    1.2336 H   0  0  0  0  0  0  0  0  0  0  0  0
   -4.0245   -2.4113    2.1779 C   0  0  0  0  0  0  0  0  0  0  0  0
   -3.9476   -2.8841    3.1785 H   0  0  0  0  0  0  0  0  0  0  0  0
   -4.3541   -1.3632    2.3529 H   0  0  0  0  0  0  0  0  0  0  0  0
   -2.6468   -2.3937    1.5028 C   0  0  0  0  0  0  0  0  0  0  0  0
   -1.9149   -1.8153    2.1037 H   0  0  0  0  0  0  0  0  0  0  0  0
   -2.2545   -3.4327    1.4249 H   0  0  0  0  0  0  0  0  0  0  0  0
    1.4477    0.0231   -1.8098 C   0  0  0  0  0  0  0  0  0  0  0  0
    0.9679    1.0221   -1.8498 H   0  0  0  0  0  0  0  0  0  0  0  0
    1.7768   -0.2427   -2.8339 H   0  0  0  0  0  0  0  0  0  0  0  0
    2.6181    0.0205   -0.8519 C   0  0  0  0  0  0  0  0  0  0  0  0
    3.8603   -0.4646   -1.2403 C   0  0  0  0  0  0  0  0  0  0  0  0
    4.0106   -0.8384   -2.2667 H   0  0  0  0  0  0  0  0  0  0  0  0
    4.9649   -0.4851   -0.3388 C   0  0  0  0  0  0  0  0  0  0  0  0
    6.2481   -0.9760   -0.7181 C   0  0  0  0  0  0  0  0  0  0  0  0
    6.3911   -1.3491   -1.7445 H   0  0  0  0  0  0  0  0  0  0  0  0
    7.3005   -0.9836    0.1857 C   0  0  0  0  0  0  0  0  0  0  0  0
    8.2866   -1.3645   -0.1202 H   0  0  0  0  0  0  0  0  0  0  0  0
    7.1132   -0.4987    1.5083 C   0  0  0  0  0  0  0  0  0  0  0  0
    7.9558   -0.5082    2.2161 H   0  0  0  0  0  0  0  0  0  0  0  0
    5.8762   -0.0134    1.9075 C   0  0  0  0  0  0  0  0  0  0  0  0
    5.7281    0.3652    2.9308 H   0  0  0  0  0  0  0  0  0  0  0  0
    4.7744    0.0073    1.0039 C   0  0  0  0  0  0  0  0  0  0  0  0
    3.4884    0.5017    1.3769 C   0  0  0  0  0  0  0  0  0  0  0  0
    3.3446    0.8873    2.3982 H   0  0  0  0  0  0  0  0  0  0  0  0
    2.4375    0.5100    0.4769 C   0  0  0  0  0  0  0  0  0  0  0  0
    1.4512    0.9006    0.7763 H   0  0  0  0  0  0  0  0  0  0  0  0
  1  3  1  0  0  0  0
  2  8  1  0  0  0  0
  3  2  1  0  0  0  0
  4  1  1  0  0  0  0
  4  6  2  0  0  0  0
  5  4  1  0  0  0  0
  6  7  1  0  0  0  0
  6  2  1  0  0  0  0
  8  9  1  0  0  0  0
  8 22  1  0  0  0  0
 10 13  1  0  0  0  0
 10  8  1  0  0  0  0
 11 10  1  0  0  0  0
 12 10  1  0  0  0  0
 13 14  1  0  0  0  0
 13 16  1  0  0  0  0
 15 13  1  0  0  0  0
 16 17  1  0  0  0  0
 16 19  1  0  0  0  0
 18 16  1  0  0  0  0
 19 21  1  0  0  0  0
 19 20  1  0  0  0  0
 22 23  1  0  0  0  0
 22 19  1  0  0  0  0
 24 22  1  0  0  0  0
 25  1  1  0  0  0  0
 25 28  1  0  0  0  0
 26 25  1  0  0  0  0
 27 25  1  0  0  0  0
 28 43  1  0  0  0  0
 29 28  2  0  0  0  0
 29 31  1  0  0  0  0
 30 29  1  0  0  0  0
 31 40  1  0  0  0  0
 32 31  2  0  0  0  0
 32 34  1  0  0  0  0
 33 32  1  0  0  0  0
 34 36  2  0  0  0  0
 35 34  1  0  0  0  0
 36 38  1  0  0  0  0
 36 37  1  0  0  0  0
 38 39  1  0  0  0  0
 40 41  1  0  0  0  0
 40 38  2  0  0  0  0
 41 42  1  0  0  0  0
 43 44  1  0  0  0  0
 43 41  2  0  0  0  0
M  END
