14
q = -2.0, confidence = 0.564

 33 32  0  0  1  0  0  0  0  0999 V2000
   -0.3043    0.4903    1.6438 S   0  0  0  0  0  0  0  0  0  0  0  0
   -0.3269   -1.1218   -1.1717 S   0  0  0  0  0  0  0  0  0  0  0  0
   -0.6237    2.6263   -0.8501 Si  0  0  0  0  0  0  0  0  0  0  0  0
   -3.0004    0.8077    2.7686 O   0  0  0  0  0  0  0  0  0  0  0  0
   -4.1126   -0.4778    1.2561 O   0  0  0  0  0  0  0  0  0  0  0  0
   -3.6432   -0.2467   -1.7191 O   0  0  0  0  0  0  0  0  0  0  0  0
   -3.3355   -2.3904   -1.0391 O   0  0  0  0  0  0  0  0  0  0  0  0
   -1.8100   -0.1382    0.9247 C   0  0  2  0  0  3  0  0  0  0  0  0
   -1.7683   -0.7740   -0.3056 C   0  0  0  0  0  0  0  0  0  0  0  0
   -2.9921    0.1252    1.7510 C   0  0  0  0  0  0  0  0  0  0  0  0
   -5.3233   -0.1733    1.9489 C   0  0  0  0  0  0  0  0  0  0  0  0
   -3.0280   -1.0808   -1.0792 C   0  0  0  0  0  0  0  0  0  0  0  0
   -4.5151   -2.7567   -1.7657 C   0  0  0  0  0  0  0  0  0  0  0  0
    0.3819    1.5894    0.3991 C   0  0  0  0  0  3  0  0  0  0  0  0
   -0.5136    1.9808   -2.6232 C   0  0  0  0  0  0  0  0  0  0  0  0
    0.2566    4.3113   -0.7885 C   0  0  0  0  0  0  0  0  0  0  0  0
   -2.4335    2.8332   -0.3378 C   0  0  0  0  0  0  0  0  0  0  0  0
   -6.1265   -0.7100    1.4123 H   0  0  0  0  0  0  0  0  0  0  0  0
   -5.5207    0.9182    1.9429 H   0  0  0  0  0  0  0  0  0  0  0  0
   -5.2729   -0.5090    3.0046 H   0  0  0  0  0  0  0  0  0  0  0  0
   -5.4046   -2.2456   -1.3442 H   0  0  0  0  0  0  0  0  0  0  0  0
   -4.6131   -3.8514   -1.6589 H   0  0  0  0  0  0  0  0  0  0  0  0
   -4.4257   -2.4750   -2.8341 H   0  0  0  0  0  0  0  0  0  0  0  0
    1.0856    2.2620    0.9361 H   0  0  0  0  0  0  0  0  0  0  0  0
   -0.7988    2.7872   -3.3305 H   0  0  0  0  0  0  0  0  0  0  0  0
   -1.1917    1.1204   -2.7795 H   0  0  0  0  0  0  0  0  0  0  0  0
    0.5182    1.6516   -2.8622 H   0  0  0  0  0  0  0  0  0  0  0  0
    0.2046    4.7574    0.2262 H   0  0  0  0  0  0  0  0  0  0  0  0
   -0.2073    5.0269   -1.4986 H   0  0  0  0  0  0  0  0  0  0  0  0
    1.3279    4.2111   -1.0630 H   0  0  0  0  0  0  0  0  0  0  0  0
   -3.0363    1.9682   -0.6801 H   0  0  0  0  0  0  0  0  0  0  0  0
   -2.8493    3.7495   -0.8067 H   0  0  0  0  0  0  0  0  0  0  0  0
   -2.5395    2.9275    0.7620 H   0  0  0  0  0  0  0  0  0  0  0  0
  2  9  2  0  0  0  0
  3 16  1  0  0  0  0
  3 17  1  0  0  0  0
  3 14  1  0  0  0  0
  5 10  1  0  0  0  0
  5 11  1  0  0  0  0
  6 12  2  0  0  0  0
  8  9  1  6  0  0  0
  8  1  1  0  0  0  0
  8 10  1  0  0  0  0
 10  4  2  0  0  0  0
 11 20  1  0  0  0  0
 12  7  1  0  0  0  0
 12  9  1  0  0  0  0
 13 22  1  0  0  0  0
 13 21  1  0  0  0  0
 13  7  1  0  0  0  0
 14 24  1  0  0  0  0
 14  1  1  0  0  0  0
 15  3  1  0  0  0  0
 16 28  1  0  0  0  0
 17 33  1  0  0  0  0
 18 11  1  0  0  0  0
 19 11  1  0  0  0  0
 23 13  1  0  0  0  0
 25 15  1  0  0  0  0
 26 15  1  0  0  0  0
 27 15  1  0  0  0  0
 29 16  1  0  0  0  0
 30 16  1  0  0  0  0
 31 17  1  0  0  0  0
 32 17  1  0  0  0  0
M  END
