13
q = -2.0, confidence = 0.532

 21 20  0  0  1  0  0  0  0  0999 V2000
    0.5380    1.6374   -0.2534 S   0  0  0  0  0  0  0  0  0  0  0  0
    0.4142   -1.6099   -0.3809 S   0  0  0  0  0  0  0  0  0  0  0  0
    4.3919    0.7367    0.0701 O   0  0  0  0  0  0  0  0  0  0  0  0
    3.1614    2.6474    0.1694 O   0  0  0  0  0  0  0  0  0  0  0  0
    3.6390   -1.9163   -1.4788 O   0  0  0  0  0  0  0  0  0  0  0  0
    3.5777   -1.9954    0.7960 O   0  0  0  0  0  0  0  0  0  0  0  0
    2.0125    0.6271   -0.1763 C   0  0  2  0  0  3  0  0  0  0  0  0
    1.8971   -0.7490   -0.2918 C   0  0  0  0  0  0  0  0  0  0  0  0
    3.3025    1.2958    0.0254 C   0  0  0  0  0  0  0  0  0  0  0  0
    4.3784    3.3608    0.3903 C   0  0  0  0  0  0  0  0  0  0  0  0
    3.1446   -1.5989   -0.4170 C   0  0  0  0  0  0  0  0  0  0  0  0
    4.8360   -2.6796    0.7878 C   0  0  0  0  0  0  0  0  0  0  0  0
   -0.2860    1.0563   -1.7458 C   0  0  0  0  0  3  0  0  0  0  0  0
    4.8816    3.0153    1.3168 H   0  0  0  0  0  0  0  0  0  0  0  0
    4.0980    4.4257    0.4805 H   0  0  0  0  0  0  0  0  0  0  0  0
    5.0829    3.2175   -0.4544 H   0  0  0  0  0  0  0  0  0  0  0  0
    4.8125   -3.5518    0.1042 H   0  0  0  0  0  0  0  0  0  0  0  0
    5.0168   -3.0040    1.8281 H   0  0  0  0  0  0  0  0  0  0  0  0
    5.6345   -1.9857    0.4552 H   0  0  0  0  0  0  0  0  0  0  0  0
    0.4004    0.5185   -2.4239 H   0  0  0  0  0  0  0  0  0  0  0  0
   -0.8713    1.8555   -2.2387 H   0  0  0  0  0  0  0  0  0  0  0  0
  1  7  1  0  0  0  0
  2  8  2  0  0  0  0
  4 10  1  0  0  0  0
  5 11  2  0  0  0  0
  7  8  1  1  0  0  0
  7  9  1  0  0  0  0
  9  3  2  0  0  0  0
  9  4  1  0  0  0  0
 10 15  1  0  0  0  0
 10 14  1  0  0  0  0
 11  8  1  0  0  0  0
 11  6  1  0  0  0  0
 12  6  1  0  0  0  0
 12 18  1  0  0  0  0
 13  1  1  0  0  0  0
 16 10  1  0  0  0  0
 17 12  1  0  0  0  0
 19 12  1  0  0  0  0
 20 13  1  0  0  0  0
 21 13  1  0  0  0  0
M  END
