16
q = 0.0, confidence = 0.956

 16 15  0  0  0  0  0  0  0  0999 V2000
   -1.6501    4.7090   -0.4853 C   0  0  0  0  0  0  0  0  0  0  0  0
   -1.3015    5.1068    0.4880 H   0  0  0  0  0  0  0  0  0  0  0  0
   -2.6000    5.2216   -0.7426 H   0  0  0  0  0  0  0  0  0  0  0  0
   -0.8962    4.9863   -1.2486 H   0  0  0  0  0  0  0  0  0  0  0  0
   -1.8503    3.1900   -0.4305 C   0  0  0  0  0  0  0  0  0  0  0  0
   -2.2722    2.8479   -1.4014 H   0  0  0  0  0  0  0  0  0  0  0  0
   -2.6418    2.9569    0.3144 H   0  0  0  0  0  0  0  0  0  0  0  0
   -0.6391    2.3746   -0.1292 C   0  0  0  0  0  3  0  0  0  0  0  0
    1.6501    4.7090    0.4851 C   0  0  0  0  0  0  0  0  0  0  0  0
    1.3015    5.1068   -0.4881 H   0  0  0  0  0  0  0  0  0  0  0  0
    2.6000    5.2216    0.7424 H   0  0  0  0  0  0  0  0  0  0  0  0
    0.8961    4.9864    1.2484 H   0  0  0  0  0  0  0  0  0  0  0  0
    1.8503    3.1901    0.4304 C   0  0  0  0  0  0  0  0  0  0  0  0
    2.2722    2.8480    1.4012 H   0  0  0  0  0  0  0  0  0  0  0  0
    2.6418    2.9569   -0.3146 H   0  0  0  0  0  0  0  0  0  0  0  0
    0.6391    2.3746    0.1291 C   0  0  0  0  0  3  0  0  0  0  0  0
  1  5  1  0  0  0  0
  1  2  1  0  0  0  0
  3  1  1  0  0  0  0
  4  1  1  0  0  0  0
  5  8  1  0  0  0  0
  5  7  1  0  0  0  0
  6  5  1  0  0  0  0
  8 16  2  0  0  0  0
  9 11  1  0  0  0  0
  9 12  1  0  0  0  0
 10  9  1  0  0  0  0
 13  9  1  0  0  0  0
 13 14  1  0  0  0  0
 15 13  1  0  0  0  0
 16 13  1  0  0  0  0
M  END
