5
q = 0.0, confidence = 0.966

 46 47  0  0  0  0  0  0  0  0999 V2000
   -6.1091    0.2567    1.5509 O   0  0  0  0  0  0  0  0  0  0  0  0
    4.2543    2.2632   -0.1466 N   0  0  0  0  0  2  0  0  0  0  0  0
   -1.9681    2.4641   -0.0780 N   0  0  0  0  0  0  0  0  0  0  0  0
   -4.1377    0.6044   -0.3225 N   0  0  0  0  0  0  0  0  0  0  0  0
    3.6320    1.2245   -0.0682 C   0  0  0  0  0  1  0  0  0  0  0  0
    4.1437    3.6609   -0.4327 C   0  0  0  0  0  0  0  0  0  0  0  0
    4.9203    3.9396   -1.1785 H   0  0  0  0  0  0  0  0  0  0  0  0
    4.3845    4.2385    0.4894 H   0  0  0  0  0  0  0  0  0  0  0  0
    2.7461    4.0329   -0.9532 C   0  0  0  0  0  0  0  0  0  0  0  0
    2.5493    3.4033   -1.8480 H   0  0  0  0  0  0  0  0  0  0  0  0
    2.7639    5.0851   -1.3096 H   0  0  0  0  0  0  0  0  0  0  0  0
    1.6275    3.8210    0.0816 C   0  0  0  0  0  0  0  0  0  0  0  0
    1.4950    4.7411    0.6931 H   0  0  0  0  0  0  0  0  0  0  0  0
    1.9333    3.0254    0.7942 H   0  0  0  0  0  0  0  0  0  0  0  0
    0.2991    3.3921   -0.5440 C   0  0  0  0  0  0  0  0  0  0  0  0
   -0.0673    4.1476   -1.2727 H   0  0  0  0  0  0  0  0  0  0  0  0
    0.4907    2.4666   -1.1276 H   0  0  0  0  0  0  0  0  0  0  0  0
   -0.7936    3.1193    0.4923 C   0  0  0  0  0  0  0  0  0  0  0  0
   -0.3598    2.5125    1.3322 H   0  0  0  0  0  0  0  0  0  0  0  0
   -1.1266    4.0799    0.9413 H   0  0  0  0  0  0  0  0  0  0  0  0
   -3.1657    2.6007    0.7377 C   0  0  0  0  0  0  0  0  0  0  0  0
   -3.3493    3.6780    0.9331 H   0  0  0  0  0  0  0  0  0  0  0  0
   -3.0547    2.0906    1.7342 H   0  0  0  0  0  0  0  0  0  0  0  0
   -4.3774    2.0079    0.0243 C   0  0  0  0  0  0  0  0  0  0  0  0
   -5.2633    2.0733    0.6789 H   0  0  0  0  0  0  0  0  0  0  0  0
   -4.5767    2.6023   -0.9030 H   0  0  0  0  0  0  0  0  0  0  0  0
   -2.9298    0.4499   -1.1165 C   0  0  0  0  0  0  0  0  0  0  0  0
   -3.0198    0.9338   -2.1234 H   0  0  0  0  0  0  0  0  0  0  0  0
   -2.7435   -0.6319   -1.2781 H   0  0  0  0  0  0  0  0  0  0  0  0
   -1.7393    1.0612   -0.3823 C   0  0  0  0  0  0  0  0  0  0  0  0
   -1.5632    0.4699    0.5606 H   0  0  0  0  0  0  0  0  0  0  0  0
   -0.8283    0.9534   -1.0039 H   0  0  0  0  0  0  0  0  0  0  0  0
   -5.2380   -0.2196   -0.6101 C   0  0  0  0  0  0  0  0  0  0  0  0
   -5.3462   -0.9400   -1.8192 C   0  0  0  0  0  0  0  0  0  0  0  0
   -4.5770   -0.8008   -2.5910 H   0  0  0  0  0  0  0  0  0  0  0  0
   -6.4183   -1.8127   -2.0711 C   0  0  0  0  0  0  0  0  0  0  0  0
   -6.4646   -2.3550   -3.0274 H   0  0  0  0  0  0  0  0  0  0  0  0
   -7.4267   -1.9708   -1.1166 C   0  0  0  0  0  0  0  0  0  0  0  0
   -8.2774   -2.6432   -1.3022 H   0  0  0  0  0  0  0  0  0  0  0  0
   -7.3507   -1.2661    0.0993 C   0  0  0  0  0  0  0  0  0  0  0  0
   -8.1361   -1.4089    0.8534 H   0  0  0  0  0  0  0  0  0  0  0  0
   -6.2698   -0.4117    0.3677 C   0  0  0  0  0  0  0  0  0  0  0  0
   -7.0756    0.0762    2.5652 C   0  0  0  0  0  0  0  0  0  0  0  0
   -6.7443    0.6882    3.4250 H   0  0  0  0  0  0  0  0  0  0  0  0
   -7.1473   -0.9881    2.8848 H   0  0  0  0  0  0  0  0  0  0  0  0
   -8.0864    0.4178    2.2463 H   0  0  0  0  0  0  0  0  0  0  0  0
  1 43  1  0  0  0  0
  2  5  1  0  0  0  0
  3 18  1  0  0  0  0
  3 21  1  0  0  0  0
  4 24  1  0  0  0  0
  6  2  1  0  0  0  0
  6  8  1  0  0  0  0
  7  6  1  0  0  0  0
  9  6  1  0  0  0  0
  9 12  1  0  0  0  0
 10  9  1  0  0  0  0
 11  9  1  0  0  0  0
 12 13  1  0  0  0  0
 12 14  1  0  0  0  0
 15 12  1  0  0  0  0
 15 18  1  0  0  0  0
 16 15  1  0  0  0  0
 17 15  1  0  0  0  0
 18 20  1  0  0  0  0
 18 19  1  0  0  0  0
 21 22  1  0  0  0  0
 21 23  1  0  0  0  0
 24 25  1  0  0  0  0
 24 21  1  0  0  0  0
 26 24  1  0  0  0  0
 27 30  1  0  0  0  0
 27  4  1  0  0  0  0
 28 27  1  0  0  0  0
 29 27  1  0  0  0  0
 30  3  1  0  0  0  0
 30 31  1  0  0  0  0
 32 30  1  0  0  0  0
 33  4  1  0  0  0  0
 33 42  1  0  0  0  0
 34 33  2  0  0  0  0
 35 34  1  0  0  0  0
 36 34  1  0  0  0  0
 36 38  2  0  0  0  0
 37 36  1  0  0  0  0
 38 40  1  0  0  0  0
 39 38  1  0  0  0  0
 40 42  2  0  0  0  0
 40 41  1  0  0  0  0
 42  1  1  0  0  0  0
 43 45  1  0  0  0  0
 43 44  1  0  0  0  0
 46 43  1  0  0  0  0
M  END
