24
q = 0.0, confidence = 0.976

 38 40  0  0  1  0  0  0  0  0999 V2000
   -0.1943   -0.7283    1.9993 O   0  0  0  0  0  0  0  0  0  0  0  0
    2.8271    1.7150   -1.1090 O   0  0  0  0  0  0  0  0  0  0  0  0
   -0.6360    2.6287    1.2270 O   0  0  0  0  0  0  0  0  0  0  0  0
    0.4935    2.5185    0.4498 C   0  0  0  0  0  0  0  0  0  0  0  0
    1.3292    1.3187    0.7235 C   0  0  2  0  0  0  0  0  0  0  0  0
    1.3429    1.1574    1.8230 H   0  0  0  0  0  0  0  0  0  0  0  0
    2.7975    1.3659    0.2763 C   0  0  1  0  0  0  0  0  0  0  0  0
    3.4018    2.0954    0.8679 H   0  0  0  0  0  0  0  0  0  0  0  0
    3.2314   -0.0637    0.5027 C   0  0  0  0  0  0  0  0  0  0  0  0
    2.0486   -0.9857    0.2755 C   0  0  1  0  0  0  0  0  0  0  0  0
    1.9188   -1.6370    1.1687 H   0  0  0  0  0  0  0  0  0  0  0  0
    0.5412    3.5678   -0.4422 C   0  0  0  0  0  0  0  0  0  0  0  0
    1.3193    3.7161   -1.1954 H   0  0  0  0  0  0  0  0  0  0  0  0
    4.8500   -1.8952    0.9712 C   0  0  0  0  0  0  0  0  0  0  0  0
    5.7105   -2.1369    1.6175 H   0  0  0  0  0  0  0  0  0  0  0  0
    3.3904   -2.7541   -0.8903 C   0  0  0  0  0  0  0  0  0  0  0  0
    3.4963   -3.4314   -1.7552 H   0  0  0  0  0  0  0  0  0  0  0  0
    4.3627   -2.9072    0.1681 C   0  0  0  0  0  0  0  0  0  0  0  0
    4.8710   -3.8841    0.2347 H   0  0  0  0  0  0  0  0  0  0  0  0
    4.4551   -0.5083    0.9098 C   0  0  0  0  0  0  0  0  0  0  0  0
    5.2094    0.2422    1.2050 H   0  0  0  0  0  0  0  0  0  0  0  0
   -1.3070    3.7488    0.8250 C   0  0  0  0  0  0  0  0  0  0  0  0
   -2.2435    3.9547    1.3522 H   0  0  0  0  0  0  0  0  0  0  0  0
   -0.4660   -0.5155    0.7219 C   0  0  0  0  0  2  0  0  0  0  0  0
    4.1265    1.7998   -1.6550 C   0  0  0  0  0  0  0  0  0  0  0  0
    4.0153    2.1228   -2.7078 H   0  0  0  0  0  0  0  0  0  0  0  0
    4.6573    0.8205   -1.6329 H   0  0  0  0  0  0  0  0  0  0  0  0
    4.7548    2.5485   -1.1140 H   0  0  0  0  0  0  0  0  0  0  0  0
    0.8275   -0.0336    0.0918 C   0  0  1  0  0  0  0  0  0  0  0  0
    0.6694    0.1476   -0.9852 H   0  0  0  0  0  0  0  0  0  0  0  0
   -0.6253    4.3685   -0.1940 C   0  0  0  0  0  0  0  0  0  0  0  0
   -0.9246    5.2841   -0.7155 H   0  0  0  0  0  0  0  0  0  0  0  0
    2.3880   -1.8294   -0.9250 C   0  0  0  0  0  0  0  0  0  0  0  0
    1.7950   -1.6993   -1.8445 H   0  0  0  0  0  0  0  0  0  0  0  0
   -1.1601   -1.1590    2.9629 C   0  0  0  0  0  0  0  0  0  0  0  0
   -0.6810   -1.0196    3.9488 H   0  0  0  0  0  0  0  0  0  0  0  0
   -1.3993   -2.2278    2.8095 H   0  0  0  0  0  0  0  0  0  0  0  0
   -2.0821   -0.5537    2.8958 H   0  0  0  0  0  0  0  0  0  0  0  0
  1 35  1  0  0  0  0
  2  7  1  0  0  0  0
  4  5  1  0  0  0  0
  4  3  1  0  0  0  0
  5  6  1  1  0  0  0
  7  9  1  0  0  0  0
  7  5  1  0  0  0  0
  7  8  1  1  0  0  0
  9 20  2  0  0  0  0
 10  9  1  0  0  0  0
 10 11  1  1  0  0  0
 12 31  1  0  0  0  0
 12  4  2  0  0  0  0
 13 12  1  0  0  0  0
 14 15  1  0  0  0  0
 16 18  1  0  0  0  0
 17 16  1  0  0  0  0
 18 19  1  0  0  0  0
 18 14  2  0  0  0  0
 20 14  1  0  0  0  0
 20 21  1  0  0  0  0
 22  3  1  0  0  0  0
 22 23  1  0  0  0  0
 24  1  1  0  0  0  0
 25 27  1  0  0  0  0
 25 28  1  0  0  0  0
 25  2  1  0  0  0  0
 26 25  1  0  0  0  0
 29 30  1  6  0  0  0
 29 10  1  0  0  0  0
 29 24  1  0  0  0  0
 29  5  1  0  0  0  0
 31 22  2  0  0  0  0
 32 31  1  0  0  0  0
 33 16  2  0  0  0  0
 33 10  1  0  0  0  0
 34 33  1  0  0  0  0
 35 36  1  0  0  0  0
 37 35  1  0  0  0  0
 38 35  1  0  0  0  0
M  END
