25
q = 0.0, confidence = 0.948

 34 34  0  0  1  0  0  0  0  0999 V2000
   -1.9796    0.1537    0.2556 P   0  0  0  0  0  0  0  0  0  0  0  0
   -0.9262    0.0631   -1.0397 O   0  0  0  0  0  0  0  0  0  0  0  0
   -1.3023    0.3066    1.5896 O   0  0  0  0  0  0  0  0  0  0  0  0
   -2.9624    1.3727   -0.3851 N   0  0  0  0  0  0  0  0  0  0  0  0
   -2.9765   -1.2018    0.2118 N   0  0  0  0  0  0  0  0  0  0  0  0
    0.3024   -0.5882   -0.9563 C   0  0  2  0  0  3  0  0  0  0  0  0
   -2.3763    2.5474   -1.0241 C   0  0  0  0  0  0  0  0  0  0  0  0
   -3.1331    3.0061   -1.6955 H   0  0  0  0  0  0  0  0  0  0  0  0
   -1.5045    2.2508   -1.6319 H   0  0  0  0  0  0  0  0  0  0  0  0
   -2.0473    3.3176   -0.2897 H   0  0  0  0  0  0  0  0  0  0  0  0
   -4.1883    1.6511    0.3564 C   0  0  0  0  0  0  0  0  0  0  0  0
   -4.0341    2.3914    1.1756 H   0  0  0  0  0  0  0  0  0  0  0  0
   -4.5789    0.7161    0.8013 H   0  0  0  0  0  0  0  0  0  0  0  0
   -4.9579    2.0553   -0.3355 H   0  0  0  0  0  0  0  0  0  0  0  0
   -3.6270   -1.6206   -1.0168 C   0  0  0  0  0  0  0  0  0  0  0  0
   -3.1203   -2.5015   -1.4767 H   0  0  0  0  0  0  0  0  0  0  0  0
   -3.6177   -0.7888   -1.7458 H   0  0  0  0  0  0  0  0  0  0  0  0
   -4.6864   -1.9003   -0.8226 H   0  0  0  0  0  0  0  0  0  0  0  0
   -2.9431   -2.1665    1.2981 C   0  0  0  0  0  0  0  0  0  0  0  0
   -3.9752   -2.4219    1.6258 H   0  0  0  0  0  0  0  0  0  0  0  0
   -2.3917   -1.7282    2.1506 H   0  0  0  0  0  0  0  0  0  0  0  0
   -2.4371   -3.1138    0.9962 H   0  0  0  0  0  0  0  0  0  0  0  0
    1.2824   -0.0792   -1.8775 C   0  0  0  0  0  3  0  0  0  0  0  0
    1.0406    0.7264   -2.5859 H   0  0  0  0  0  0  0  0  0  0  0  0
    2.5910   -0.6136   -1.7169 C   0  0  0  0  0  3  0  0  0  0  0  0
    3.4420   -0.2334   -2.3017 H   0  0  0  0  0  0  0  0  0  0  0  0
    2.7128   -1.5870   -0.6641 C   0  0  0  0  0  3  0  0  0  0  0  0
    3.7362   -1.8869   -0.3851 H   0  0  0  0  0  0  0  0  0  0  0  0
    1.6513   -2.6613   -0.5027 C   0  0  0  0  0  0  0  0  0  0  0  0
    1.7833   -3.1640    0.4759 H   0  0  0  0  0  0  0  0  0  0  0  0
    1.8075   -3.4478   -1.2753 H   0  0  0  0  0  0  0  0  0  0  0  0
    0.2350   -2.0646   -0.6119 C   0  0  0  0  0  0  0  0  0  0  0  0
   -0.3766   -2.5836   -1.3843 H   0  0  0  0  0  0  0  0  0  0  0  0
   -0.3067   -2.1755    0.3481 H   0  0  0  0  0  0  0  0  0  0  0  0
  1  3  2  0  0  0  0
  2  1  1  0  0  0  0
  4  1  1  0  0  0  0
  4 11  1  0  0  0  0
  5  1  1  0  0  0  0
  5 19  1  0  0  0  0
  6  2  1  6  0  0  0
  6 32  1  0  0  0  0
  7  4  1  0  0  0  0
  7 10  1  0  0  0  0
  8  7  1  0  0  0  0
  9  7  1  0  0  0  0
 11 13  1  0  0  0  0
 11 12  1  0  0  0  0
 14 11  1  0  0  0  0
 15 18  1  0  0  0  0
 15  5  1  0  0  0  0
 16 15  1  0  0  0  0
 17 15  1  0  0  0  0
 19 20  1  0  0  0  0
 19 21  1  0  0  0  0
 22 19  1  0  0  0  0
 23 25  1  0  0  0  0
 23  6  1  0  0  0  0
 24 23  1  0  0  0  0
 25 27  1  0  0  0  0
 26 25  1  0  0  0  0
 27 29  1  0  0  0  0
 27 28  1  0  0  0  0
 29 30  1  0  0  0  0
 31 29  1  0  0  0  0
 32 29  1  0  0  0  0
 32 34  1  0  0  0  0
 33 32  1  0  0  0  0
M  END
