3
q = 0.0, confidence = 0.984

 51 52  0  0  0  0  0  0  0  0999 V2000
    0.5967    1.2085   -0.0012 N   0  0  0  0  0  0  0  0  0  0  0  0
    0.5894   -1.0854    0.3912 N   0  0  0  0  0  0  0  0  0  0  0  0
   -0.1397    0.0735    0.1760 C   0  0  0  0  0  2  0  0  0  0  0  0
    1.9644    1.2658    0.4535 C   0  0  0  0  0  0  0  0  0  0  0  0
    3.0341    1.4093   -0.4474 C   0  0  0  0  0  0  0  0  0  0  0  0
    2.8348    1.4015   -1.5280 H   0  0  0  0  0  0  0  0  0  0  0  0
    4.3450    1.5205    0.0341 C   0  0  0  0  0  0  0  0  0  0  0  0
    5.1765    1.6314   -0.6777 H   0  0  0  0  0  0  0  0  0  0  0  0
    4.5987    1.4640    1.4135 C   0  0  0  0  0  0  0  0  0  0  0  0
    5.6297    1.5448    1.7894 H   0  0  0  0  0  0  0  0  0  0  0  0
    3.5321    1.3014    2.3132 C   0  0  0  0  0  0  0  0  0  0  0  0
    3.7232    1.2590    3.3962 H   0  0  0  0  0  0  0  0  0  0  0  0
    2.2165    1.2087    1.8368 C   0  0  0  0  0  0  0  0  0  0  0  0
    1.3708    1.0917    2.5298 H   0  0  0  0  0  0  0  0  0  0  0  0
   -0.0396    2.5513   -0.3912 C   0  0  0  0  0  0  0  0  0  0  0  0
    1.0351    3.6485   -0.5077 C   0  0  0  0  0  0  0  0  0  0  0  0
    1.7571    3.4581   -1.3230 H   0  0  0  0  0  0  0  0  0  0  0  0
    1.5998    3.7970    0.4319 H   0  0  0  0  0  0  0  0  0  0  0  0
    0.5108    4.5951   -0.7411 H   0  0  0  0  0  0  0  0  0  0  0  0
   -0.7201    2.4156   -1.7624 C   0  0  0  0  0  0  0  0  0  0  0  0
   -1.5543    1.6860   -1.7379 H   0  0  0  0  0  0  0  0  0  0  0  0
    0.0129    2.0878   -2.5270 H   0  0  0  0  0  0  0  0  0  0  0  0
   -1.1323    3.3963   -2.0710 H   0  0  0  0  0  0  0  0  0  0  0  0
   -1.0170    2.9886    0.7152 C   0  0  0  0  0  0  0  0  0  0  0  0
   -1.8468    2.2649    0.8431 H   0  0  0  0  0  0  0  0  0  0  0  0
   -1.4582    3.9700    0.4532 H   0  0  0  0  0  0  0  0  0  0  0  0
   -0.4840    3.0947    1.6817 H   0  0  0  0  0  0  0  0  0  0  0  0
    1.7000   -1.3443   -0.4915 C   0  0  0  0  0  0  0  0  0  0  0  0
    2.9974   -1.6234   -0.0219 C   0  0  0  0  0  0  0  0  0  0  0  0
    3.2041   -1.5794    1.0547 H   0  0  0  0  0  0  0  0  0  0  0  0
    4.0303   -1.8947   -0.9282 C   0  0  0  0  0  0  0  0  0  0  0  0
    5.0418   -2.1029   -0.5483 H   0  0  0  0  0  0  0  0  0  0  0  0
    3.7879   -1.8700   -2.3109 C   0  0  0  0  0  0  0  0  0  0  0  0
    4.6044   -2.0758   -3.0194 H   0  0  0  0  0  0  0  0  0  0  0  0
    2.4987   -1.5791   -2.7851 C   0  0  0  0  0  0  0  0  0  0  0  0
    2.2963   -1.5625   -3.8667 H   0  0  0  0  0  0  0  0  0  0  0  0
    1.4568   -1.3279   -1.8810 C   0  0  0  0  0  0  0  0  0  0  0  0
    0.4390   -1.1123   -2.2388 H   0  0  0  0  0  0  0  0  0  0  0  0
   -0.0420   -2.3070    1.0562 C   0  0  0  0  0  0  0  0  0  0  0  0
    1.0658   -3.2451    1.5705 C   0  0  0  0  0  0  0  0  0  0  0  0
    1.6826   -3.6711    0.7579 H   0  0  0  0  0  0  0  0  0  0  0  0
    0.5766   -4.0887    2.0945 H   0  0  0  0  0  0  0  0  0  0  0  0
    1.7292   -2.7371    2.2976 H   0  0  0  0  0  0  0  0  0  0  0  0
   -0.9062   -3.0785    0.0446 C   0  0  0  0  0  0  0  0  0  0  0  0
   -0.2928   -3.4258   -0.8110 H   0  0  0  0  0  0  0  0  0  0  0  0
   -1.7312   -2.4445   -0.3411 H   0  0  0  0  0  0  0  0  0  0  0  0
   -1.3558   -3.9678    0.5288 H   0  0  0  0  0  0  0  0  0  0  0  0
   -0.8523   -1.8633    2.2862 C   0  0  0  0  0  0  0  0  0  0  0  0
   -1.1959   -2.7609    2.8363 H   0  0  0  0  0  0  0  0  0  0  0  0
   -1.7472   -1.2704    2.0146 H   0  0  0  0  0  0  0  0  0  0  0  0
   -0.2220   -1.2566    2.9673 H   0  0  0  0  0  0  0  0  0  0  0  0
  1  3  1  0  0  0  0
  1  4  1  0  0  0  0
  2 39  1  0  0  0  0
  3  2  1  0  0  0  0
  4 13  1  0  0  0  0
  5  7  1  0  0  0  0
  5  4  2  0  0  0  0
  6  5  1  0  0  0  0
  7  9  2  0  0  0  0
  8  7  1  0  0  0  0
  9 10  1  0  0  0  0
  9 11  1  0  0  0  0
 11 12  1  0  0  0  0
 13 11  2  0  0  0  0
 13 14  1  0  0  0  0
 15  1  1  0  0  0  0
 15 24  1  0  0  0  0
 16 15  1  0  0  0  0
 16 18  1  0  0  0  0
 17 16  1  0  0  0  0
 19 16  1  0  0  0  0
 20 21  1  0  0  0  0
 20 15  1  0  0  0  0
 22 20  1  0  0  0  0
 23 20  1  0  0  0  0
 24 25  1  0  0  0  0
 24 27  1  0  0  0  0
 26 24  1  0  0  0  0
 28 29  1  0  0  0  0
 28  2  1  0  0  0  0
 29 30  1  0  0  0  0
 31 32  1  0  0  0  0
 31 29  2  0  0  0  0
 33 31  1  0  0  0  0
 34 33  1  0  0  0  0
 35 33  2  0  0  0  0
 35 37  1  0  0  0  0
 36 35  1  0  0  0  0
 37 28  2  0  0  0  0
 38 37  1  0  0  0  0
 39 40  1  0  0  0  0
 39 48  1  0  0  0  0
 40 42  1  0  0  0  0
 40 43  1  0  0  0  0
 41 40  1  0  0  0  0
 44 47  1  0  0  0  0
 44 39  1  0  0  0  0
 45 44  1  0  0  0  0
 46 44  1  0  0  0  0
 48 49  1  0  0  0  0
 48 51  1  0  0  0  0
 50 48  1  0  0  0  0
M  END
