2
q = 0.0, confidence = 0.864

 25 26  0  0  0  0  0  0  0  0999 V2000
    2.5721    0.3053    2.3481 O   0  0  0  0  0  0  0  0  0  0  0  0
    1.4544    0.4108    0.2466 C   0  0  0  0  0  2  0  0  0  0  0  0
    2.6582    0.1932    1.1163 C   0  0  0  0  0  0  0  0  0  0  0  0
    1.2571    1.8359   -0.0856 C   0  0  0  0  0  0  0  0  0  0  0  0
    1.3976    2.8435    0.9051 C   0  0  0  0  0  0  0  0  0  0  0  0
    1.5991    2.5461    1.9444 H   0  0  0  0  0  0  0  0  0  0  0  0
    1.2646    4.1952    0.5652 C   0  0  0  0  0  0  0  0  0  0  0  0
    1.3522    4.9642    1.3482 H   0  0  0  0  0  0  0  0  0  0  0  0
    1.0424    4.5713   -0.7706 C   0  0  0  0  0  0  0  0  0  0  0  0
    0.9573    5.6360   -1.0374 H   0  0  0  0  0  0  0  0  0  0  0  0
    0.9231    3.5832   -1.7610 C   0  0  0  0  0  0  0  0  0  0  0  0
    0.7390    3.8692   -2.8075 H   0  0  0  0  0  0  0  0  0  0  0  0
    1.0024    2.2273   -1.4237 C   0  0  0  0  0  0  0  0  0  0  0  0
    0.8820    1.4437   -2.1854 H   0  0  0  0  0  0  0  0  0  0  0  0
    3.9555   -0.1368    0.4461 C   0  0  0  0  0  0  0  0  0  0  0  0
    4.0529   -0.2918   -0.9546 C   0  0  0  0  0  0  0  0  0  0  0  0
    3.1491   -0.2112   -1.5788 H   0  0  0  0  0  0  0  0  0  0  0  0
    5.2934   -0.5818   -1.5386 C   0  0  0  0  0  0  0  0  0  0  0  0
    5.3674   -0.7055   -2.6296 H   0  0  0  0  0  0  0  0  0  0  0  0
    6.4375   -0.7214   -0.7342 C   0  0  0  0  0  0  0  0  0  0  0  0
    7.4092   -0.9528   -1.1971 H   0  0  0  0  0  0  0  0  0  0  0  0
    6.3438   -0.5666    0.6605 C   0  0  0  0  0  0  0  0  0  0  0  0
    7.2416   -0.6749    1.2882 H   0  0  0  0  0  0  0  0  0  0  0  0
    5.1080   -0.2728    1.2480 C   0  0  0  0  0  0  0  0  0  0  0  0
    4.9989   -0.1396    2.3349 H   0  0  0  0  0  0  0  0  0  0  0  0
  2  3  1  0  0  0  0
  3  1  2  0  0  0  0
  4  2  1  0  0  0  0
  4  5  1  0  0  0  0
  5  6  1  0  0  0  0
  7  5  2  0  0  0  0
  7  8  1  0  0  0  0
  9  7  1  0  0  0  0
 10  9  1  0  0  0  0
 11 13  1  0  0  0  0
 11  9  2  0  0  0  0
 12 11  1  0  0  0  0
 13  4  2  0  0  0  0
 14 13  1  0  0  0  0
 15  3  1  0  0  0  0
 15 24  1  0  0  0  0
 16 15  2  0  0  0  0
 17 16  1  0  0  0  0
 18 16  1  0  0  0  0
 18 20  2  0  0  0  0
 19 18  1  0  0  0  0
 20 22  1  0  0  0  0
 21 20  1  0  0  0  0
 22 24  2  0  0  0  0
 22 23  1  0  0  0  0
 24 25  1  0  0  0  0
M  END
