1
q = -1.0, confidence = 0.0

 13 13  0  0  0  0  0  0  0  0999 V2000
    0.1806    1.2599   -0.2343 C   0  0  0  0  0  3  0  0  0  0  0  0
   -0.0989    1.8670   -1.4883 C   0  0  0  0  0  0  0  0  0  0  0  0
   -0.5003    1.2581   -2.3150 H   0  0  0  0  0  0  0  0  0  0  0  0
    0.1106    3.2330   -1.7095 C   0  0  0  0  0  0  0  0  0  0  0  0
   -0.1120    3.6782   -2.6949 H   0  0  0  0  0  0  0  0  0  0  0  0
    0.5974    4.0620   -0.6768 C   0  0  0  0  0  0  0  0  0  0  0  0
    0.8768    3.4823    0.5816 C   0  0  0  0  0  0  0  0  0  0  0  0
    1.2592    4.1400    1.3785 H   0  0  0  0  0  0  0  0  0  0  0  0
    0.6790    2.1161    0.7888 C   0  0  0  0  0  0  0  0  0  0  0  0
    0.9275    1.6964    1.7776 H   0  0  0  0  0  0  0  0  0  0  0  0
    0.8105    5.5020   -0.9056 C   0  0  0  0  0  0  0  0  0  0  0  0
    0.5529    5.8400   -1.9585 H   0  0  0  0  0  0  0  0  0  0  0  0
    1.2233    6.3004   -0.0748 O   0  0  0  0  0  0  0  0  0  0  0  0
  1  9  1  0  0  0  0
  2  1  2  0  0  0  0
  3  2  1  0  0  0  0
  4  2  1  0  0  0  0
  4  6  2  0  0  0  0
  5  4  1  0  0  0  0
  6  7  1  0  0  0  0
  7  9  2  0  0  0  0
  7  8  1  0  0  0  0
  9 10  1  0  0  0  0
 11  6  1  0  0  0  0
 11 13  2  0  0  0  0
 12 11  1  0  0  0  0
M  END
