1
q = -1.0, confidence = 0.01

 11 11  0  0  0  0  0  0  0  0999 V2000
   -0.0193    1.2620   -0.0007 C   0  0  0  0  0  3  0  0  0  0  0  0
   -0.4183    2.0084    1.1359 C   0  0  0  0  0  0  0  0  0  0  0  0
   -0.7388    1.4871    2.0532 H   0  0  0  0  0  0  0  0  0  0  0  0
   -0.4379    3.4131    1.1498 C   0  0  0  0  0  0  0  0  0  0  0  0
   -0.7504    3.9656    2.0483 H   0  0  0  0  0  0  0  0  0  0  0  0
   -0.0647    4.1176   -0.0042 C   0  0  0  0  0  0  0  0  0  0  0  0
    0.3308    3.4224   -1.1566 C   0  0  0  0  0  0  0  0  0  0  0  0
    0.6256    3.9824   -2.0565 H   0  0  0  0  0  0  0  0  0  0  0  0
    0.3558    2.0178   -1.1392 C   0  0  0  0  0  0  0  0  0  0  0  0
    0.6925    1.5047   -2.0553 H   0  0  0  0  0  0  0  0  0  0  0  0
   -0.0925    5.8715   -0.0064 Cl  0  0  0  0  0  0  0  0  0  0  0  0
  1  2  1  0  0  0  0
  2  4  2  0  0  0  0
  2  3  1  0  0  0  0
  4  5  1  0  0  0  0
  6  4  1  0  0  0  0
  7  9  1  0  0  0  0
  7  6  2  0  0  0  0
  8  7  1  0  0  0  0
  9  1  2  0  0  0  0
 10  9  1  0  0  0  0
 11  6  1  0  0  0  0
M  END
