3
q = 0.0, confidence = 0.986

 33 33  0  0  1  0  0  0  0  0999 V2000
    0.7497    1.9884    0.3960 O   0  0  0  0  0  0  0  0  0  0  0  0
   -2.5192   -1.3957    1.6640 C   0  0  0  0  0  3  0  0  0  0  0  0
   -2.5926    0.0226    1.8747 C   0  0  0  0  0  3  0  0  0  0  0  0
   -1.3900    0.7701    1.7122 C   0  0  0  0  0  3  0  0  0  0  0  0
   -0.2105    0.0391    1.3580 C   0  0  0  0  0  3  0  0  0  0  0  0
    1.0796    0.7579    1.0083 C   0  0  1  0  0  0  0  0  0  0  0  0
    1.8139    2.9283    0.3250 C   0  0  0  0  0  0  0  0  0  0  0  0
    1.2981    4.1768   -0.3658 C   0  0  0  0  0  0  0  0  0  0  0  0
    1.9962   -0.1210    0.1581 C   0  0  0  0  0  0  0  0  0  0  0  0
    1.9548    0.0042   -1.2424 C   0  0  0  0  0  0  0  0  0  0  0  0
    2.7249   -0.8283   -2.0651 C   0  0  0  0  0  0  0  0  0  0  0  0
    3.5502   -1.8020   -1.4855 C   0  0  0  0  0  0  0  0  0  0  0  0
    3.6036   -1.9237   -0.0901 C   0  0  0  0  0  0  0  0  0  0  0  0
    2.8389   -1.0933    0.7540 C   0  0  0  0  0  0  0  0  0  0  0  0
    2.9371   -1.2533    2.2529 C   0  0  0  0  0  0  0  0  0  0  0  0
   -1.6841   -1.9787    2.0838 H   0  0  0  0  0  0  0  0  0  0  0  0
   -3.4643   -1.9553    1.5909 H   0  0  0  0  0  0  0  0  0  0  0  0
   -3.5508    0.5467    2.0163 H   0  0  0  0  0  0  0  0  0  0  0  0
   -1.3938    1.8700    1.7104 H   0  0  0  0  0  0  0  0  0  0  0  0
   -0.0324   -0.9370    1.8365 H   0  0  0  0  0  0  0  0  0  0  0  0
    2.1801    3.1607    1.3562 H   0  0  0  0  0  0  0  0  0  0  0  0
    2.6774    2.4957   -0.2334 H   0  0  0  0  0  0  0  0  0  0  0  0
    1.6033    0.9703    1.9775 H   0  0  0  0  0  0  0  0  0  0  0  0
    2.1003    4.9365   -0.4465 H   0  0  0  0  0  0  0  0  0  0  0  0
    0.9361    3.9350   -1.3847 H   0  0  0  0  0  0  0  0  0  0  0  0
    0.4527    4.6180    0.1992 H   0  0  0  0  0  0  0  0  0  0  0  0
    1.3000    0.7685   -1.6847 H   0  0  0  0  0  0  0  0  0  0  0  0
    2.6750   -0.7187   -3.1590 H   0  0  0  0  0  0  0  0  0  0  0  0
    4.1571   -2.4670   -2.1184 H   0  0  0  0  0  0  0  0  0  0  0  0
    4.2577   -2.6837    0.3662 H   0  0  0  0  0  0  0  0  0  0  0  0
    1.9692   -1.5434    2.7126 H   0  0  0  0  0  0  0  0  0  0  0  0
    3.2503   -0.3103    2.7494 H   0  0  0  0  0  0  0  0  0  0  0  0
    3.6760   -2.0326    2.5201 H   0  0  0  0  0  0  0  0  0  0  0  0
  1  6  1  0  0  0  0
  2  3  1  0  0  0  0
  2 16  1  0  0  0  0
  3 18  1  0  0  0  0
  4  3  1  0  0  0  0
  5  4  1  0  0  0  0
  5 20  1  0  0  0  0
  6  5  1  0  0  0  0
  6 23  1  1  0  0  0
  7  1  1  0  0  0  0
  7 21  1  0  0  0  0
  8 26  1  0  0  0  0
  8  7  1  0  0  0  0
  9 14  1  0  0  0  0
  9  6  1  0  0  0  0
 10  9  2  0  0  0  0
 11 12  2  0  0  0  0
 11 10  1  0  0  0  0
 12 13  1  0  0  0  0
 13 30  1  0  0  0  0
 13 14  2  0  0  0  0
 14 15  1  0  0  0  0
 15 33  1  0  0  0  0
 15 31  1  0  0  0  0
 15 32  1  0  0  0  0
 17  2  1  0  0  0  0
 19  4  1  0  0  0  0
 22  7  1  0  0  0  0
 24  8  1  0  0  0  0
 25  8  1  0  0  0  0
 27 10  1  0  0  0  0
 28 11  1  0  0  0  0
 29 12  1  0  0  0  0
M  END
