3
q = 0.0, confidence = 0.986

 46 47  0  0  1  0  0  0  0  0999 V2000
    2.6424   -1.8273    0.4564 O   0  0  0  0  0  0  0  0  0  0  0  0
   -0.1733    0.3149   -0.7967 C   0  0  0  0  0  3  0  0  0  0  0  0
   -1.4920    0.1648   -1.3552 C   0  0  0  0  0  3  0  0  0  0  0  0
   -2.3072   -0.8200   -0.7189 C   0  0  1  0  0  3  0  0  0  0  0  0
   -1.6390   -1.4654    0.3865 C   0  0  0  0  0  3  0  0  0  0  0  0
   -0.2058   -1.9404    0.2712 C   0  0  0  0  0  0  0  0  0  0  0  0
    0.6635   -0.9374   -0.5346 C   0  0  2  0  0  0  0  0  0  0  0  0
    1.9409   -0.6022    0.2984 C   0  0  2  0  0  0  0  0  0  0  0  0
    2.8197    0.4919   -0.2889 C   0  0  0  0  0  0  0  0  0  0  0  0
    2.6253    1.8372    0.0821 C   0  0  0  0  0  0  0  0  0  0  0  0
    3.4067    2.8569   -0.4823 C   0  0  0  0  0  0  0  0  0  0  0  0
    4.4060    2.5415   -1.4166 C   0  0  0  0  0  0  0  0  0  0  0  0
    4.6223    1.2013   -1.7760 C   0  0  0  0  0  0  0  0  0  0  0  0
    3.8349    0.1843   -1.2163 C   0  0  0  0  0  0  0  0  0  0  0  0
    3.5759   -1.8252    1.5276 C   0  0  0  0  0  0  0  0  0  0  0  0
    4.2525   -3.1822    1.5795 C   0  0  0  0  0  0  0  0  0  0  0  0
    3.5038   -3.9878    1.7181 H   0  0  0  0  0  0  0  0  0  0  0  0
    4.9740   -3.2258    2.4192 H   0  0  0  0  0  0  0  0  0  0  0  0
    4.8014   -3.3827    0.6376 H   0  0  0  0  0  0  0  0  0  0  0  0
    1.0668   -1.5360   -1.9004 C   0  0  0  0  0  0  0  0  0  0  0  0
   -3.7239   -1.1642   -1.1397 C   0  0  0  0  0  0  0  0  0  0  0  0
   -4.4642   -0.0213   -1.8397 C   0  0  0  0  0  0  0  0  0  0  0  0
   -3.6767   -2.4279   -2.0194 C   0  0  0  0  0  0  0  0  0  0  0  0
    0.4012    1.1890   -1.1437 H   0  0  0  0  0  0  0  0  0  0  0  0
   -1.8886    0.8223   -2.1424 H   0  0  0  0  0  0  0  0  0  0  0  0
   -2.2849   -2.0755    1.0429 H   0  0  0  0  0  0  0  0  0  0  0  0
   -0.1880   -2.9434   -0.2105 H   0  0  0  0  0  0  0  0  0  0  0  0
    0.2205   -2.0956    1.2825 H   0  0  0  0  0  0  0  0  0  0  0  0
    1.5914   -0.2468    1.2946 H   0  0  0  0  0  0  0  0  0  0  0  0
    1.8523    2.0852    0.8267 H   0  0  0  0  0  0  0  0  0  0  0  0
    3.2400    3.9031   -0.1832 H   0  0  0  0  0  0  0  0  0  0  0  0
    5.0238    3.3393   -1.8564 H   0  0  0  0  0  0  0  0  0  0  0  0
    5.4139    0.9459   -2.4973 H   0  0  0  0  0  0  0  0  0  0  0  0
    4.0094   -0.8693   -1.4800 H   0  0  0  0  0  0  0  0  0  0  0  0
    3.0465   -1.6068    2.4881 H   0  0  0  0  0  0  0  0  0  0  0  0
    4.3301   -1.0142    1.3859 H   0  0  0  0  0  0  0  0  0  0  0  0
    1.5874   -0.7890   -2.5321 H   0  0  0  0  0  0  0  0  0  0  0  0
    1.7403   -2.4030   -1.7552 H   0  0  0  0  0  0  0  0  0  0  0  0
    0.1623   -1.8725   -2.4454 H   0  0  0  0  0  0  0  0  0  0  0  0
   -4.2789   -1.4223   -0.2108 H   0  0  0  0  0  0  0  0  0  0  0  0
   -4.0135    0.2101   -2.8270 H   0  0  0  0  0  0  0  0  0  0  0  0
   -5.5220   -0.2968   -2.0209 H   0  0  0  0  0  0  0  0  0  0  0  0
   -4.4495    0.9044   -1.2309 H   0  0  0  0  0  0  0  0  0  0  0  0
   -3.1135   -2.2332   -2.9560 H   0  0  0  0  0  0  0  0  0  0  0  0
   -3.1798   -3.2687   -1.4951 H   0  0  0  0  0  0  0  0  0  0  0  0
   -4.6995   -2.7527   -2.2986 H   0  0  0  0  0  0  0  0  0  0  0  0
  1 15  1  0  0  0  0
  2  7  1  0  0  0  0
  3  2  1  0  0  0  0
  3  4  1  0  0  0  0
  4 21  1  1  0  0  0
  4  5  1  0  0  0  0
  5 26  1  0  0  0  0
  6  5  1  0  0  0  0
  6 28  1  0  0  0  0
  7 20  1  6  0  0  0
  7  6  1  0  0  0  0
  7  8  1  0  0  0  0
  8  1  1  0  0  0  0
  8 29  1  1  0  0  0
  9 10  1  0  0  0  0
  9  8  1  0  0  0  0
 10 30  1  0  0  0  0
 11 31  1  0  0  0  0
 11 10  2  0  0  0  0
 12 11  1  0  0  0  0
 13 12  2  0  0  0  0
 13 14  1  0  0  0  0
 14  9  2  0  0  0  0
 15 16  1  0  0  0  0
 15 35  1  0  0  0  0
 16 17  1  0  0  0  0
 16 18  1  0  0  0  0
 19 16  1  0  0  0  0
 20 38  1  0  0  0  0
 21 40  1  0  0  0  0
 22 43  1  0  0  0  0
 22 21  1  0  0  0  0
 23 45  1  0  0  0  0
 23 21  1  0  0  0  0
 24  2  1  0  0  0  0
 25  3  1  0  0  0  0
 27  6  1  0  0  0  0
 32 12  1  0  0  0  0
 33 13  1  0  0  0  0
 34 14  1  0  0  0  0
 36 15  1  0  0  0  0
 37 20  1  0  0  0  0
 39 20  1  0  0  0  0
 41 22  1  0  0  0  0
 42 22  1  0  0  0  0
 44 23  1  0  0  0  0
 46 23  1  0  0  0  0
M  END
