1
q = 0.0, confidence = 0.958

 11 10  0  0  0  0  0  0  0  0999 V2000
    0.7571    1.7329    0.5530 C   0  0  0  0  0  1  0  0  0  0  0  0
    1.3052    2.9247    0.8601 C   0  0  0  0  0  0  0  0  0  0  0  0
    1.5193    3.1099    1.9291 H   0  0  0  0  0  0  0  0  0  0  0  0
    1.6335    3.9986   -0.0888 C   0  0  0  0  0  0  0  0  0  0  0  0
    1.3561    3.9568   -1.4221 C   0  0  0  0  0  3  0  0  0  0  0  0
    1.6419    4.7909   -2.0805 H   0  0  0  0  0  0  0  0  0  0  0  0
    0.8534    3.0901   -1.8780 H   0  0  0  0  0  0  0  0  0  0  0  0
    2.3224    5.1970    0.5231 C   0  0  0  0  0  0  0  0  0  0  0  0
    3.2827    4.9024    0.9987 H   0  0  0  0  0  0  0  0  0  0  0  0
    1.6993    5.6454    1.3266 H   0  0  0  0  0  0  0  0  0  0  0  0
    2.5334    5.9802   -0.2301 H   0  0  0  0  0  0  0  0  0  0  0  0
  1  2  1  0  0  0  0
  2  3  1  0  0  0  0
  4  8  1  0  0  0  0
  4  2  2  0  0  0  0
  5  4  1  0  0  0  0
  6  5  1  0  0  0  0
  7  5  1  0  0  0  0
  8  9  1  0  0  0  0
  8 10  1  0  0  0  0
 11  8  1  0  0  0  0
M  END
