2
q = 0.0, confidence = 1.0

 20 20  0  0  0  0  0  0  0  0999 V2000
   -2.3462   -1.6993   -0.6241 O   0  0  0  0  0  0  0  0  0  0  0  0
   -0.0000   -0.4737    1.9921 C   0  0  0  0  0  3  0  0  0  0  0  0
   -0.0001   -1.6143   -0.5945 C   0  0  0  0  0  3  0  0  0  0  0  0
   -1.2365   -1.3690    0.0711 C   0  0  0  0  0  0  0  0  0  0  0  0
   -1.2443   -0.7819    1.3724 C   0  0  0  0  0  0  0  0  0  0  0  0
   -3.6100   -1.2582   -0.1416 C   0  0  0  0  0  0  0  0  0  0  0  0
   -0.0002   -2.0166   -1.6142 H   0  0  0  0  0  0  0  0  0  0  0  0
    0.0000    0.0112    2.9786 H   0  0  0  0  0  0  0  0  0  0  0  0
   -2.1823   -0.5210    1.8746 H   0  0  0  0  0  0  0  0  0  0  0  0
   -4.3541   -1.5858   -0.8898 H   0  0  0  0  0  0  0  0  0  0  0  0
   -3.8585   -1.7173    0.8398 H   0  0  0  0  0  0  0  0  0  0  0  0
   -3.6430   -0.1513   -0.0574 H   0  0  0  0  0  0  0  0  0  0  0  0
    1.2363   -1.3692    0.0710 C   0  0  0  0  0  0  0  0  0  0  0  0
    2.3459   -1.6998   -0.6241 O   0  0  0  0  0  0  0  0  0  0  0  0
    3.6098   -1.2586   -0.1418 C   0  0  0  0  0  0  0  0  0  0  0  0
    4.3538   -1.5863   -0.8900 H   0  0  0  0  0  0  0  0  0  0  0  0
    3.8584   -1.7177    0.8397 H   0  0  0  0  0  0  0  0  0  0  0  0
    3.6427   -0.1517   -0.0576 H   0  0  0  0  0  0  0  0  0  0  0  0
    1.2442   -0.7822    1.3724 C   0  0  0  0  0  0  0  0  0  0  0  0
    2.1822   -0.5215    1.8747 H   0  0  0  0  0  0  0  0  0  0  0  0
  1  6  1  0  0  0  0
  1  4  1  0  0  0  0
  2  8  1  0  0  0  0
  3 13  1  0  0  0  0
  3  4  1  0  0  0  0
  4  5  2  0  0  0  0
  5  9  1  0  0  0  0
  5  2  1  0  0  0  0
  6 12  1  0  0  0  0
  6 11  1  0  0  0  0
  7  3  1  0  0  0  0
 10  6  1  0  0  0  0
 13 19  2  0  0  0  0
 14 15  1  0  0  0  0
 14 13  1  0  0  0  0
 15 18  1  0  0  0  0
 15 17  1  0  0  0  0
 16 15  1  0  0  0  0
 19 20  1  0  0  0  0
 19  2  1  0  0  0  0
M  END
