5
q = -1.0, confidence = 0.0

 36 39  0  0  1  0  0  0  0  0999 V2000
    2.5853   -1.3820    0.1955 C   0  0  0  0  0  0  0  0  0  0  0  0
   -0.7028   -0.1246    1.5799 C   0  0  0  0  0  0  0  0  0  0  0  0
    2.8151   -2.7068   -0.2370 C   0  0  0  0  0  0  0  0  0  0  0  0
    1.9680   -3.3958   -0.3705 H   0  0  0  0  0  0  0  0  0  0  0  0
    0.0102   -1.4661   -0.1842 C   0  0  0  0  0  3  0  0  0  0  0  0
    0.0131   -2.2056   -0.9926 H   0  0  0  0  0  0  0  0  0  0  0  0
   -1.1637   -0.9789    0.4780 C   0  0  1  0  0  3  0  0  0  0  0  0
    1.2020   -0.9347    0.4598 C   0  0  1  0  0  3  0  0  0  0  0  0
   -2.5357   -1.4443    0.1859 C   0  0  0  0  0  0  0  0  0  0  0  0
   -1.4002    0.6491    2.5606 C   0  0  0  0  0  0  0  0  0  0  0  0
   -2.4954    0.7290    2.5316 H   0  0  0  0  0  0  0  0  0  0  0  0
    1.4620    0.4473    2.6734 C   0  0  0  0  0  0  0  0  0  0  0  0
    2.5535    0.3452    2.7349 H   0  0  0  0  0  0  0  0  0  0  0  0
    0.7502    1.1412    3.6379 C   0  0  0  0  0  0  0  0  0  0  0  0
    1.2835    1.6002    4.4835 H   0  0  0  0  0  0  0  0  0  0  0  0
   -3.5015   -1.5504    1.2112 C   0  0  0  0  0  0  0  0  0  0  0  0
   -3.2382   -1.2908    2.2458 H   0  0  0  0  0  0  0  0  0  0  0  0
    3.6931   -0.5235    0.3803 C   0  0  0  0  0  0  0  0  0  0  0  0
    3.5327    0.5223    0.6786 H   0  0  0  0  0  0  0  0  0  0  0  0
   -0.6707    1.2698    3.5623 C   0  0  0  0  0  0  0  0  0  0  0  0
   -1.1967    1.8524    4.3330 H   0  0  0  0  0  0  0  0  0  0  0  0
   -5.1261   -2.4339   -0.3712 C   0  0  0  0  0  0  0  0  0  0  0  0
   -6.1344   -2.8161   -0.5881 H   0  0  0  0  0  0  0  0  0  0  0  0
   -2.8857   -1.8607   -1.1207 C   0  0  0  0  0  0  0  0  0  0  0  0
   -2.1449   -1.7899   -1.9319 H   0  0  0  0  0  0  0  0  0  0  0  0
    4.1197   -3.1634   -0.4686 C   0  0  0  0  0  0  0  0  0  0  0  0
    4.2830   -4.2004   -0.7971 H   0  0  0  0  0  0  0  0  0  0  0  0
    5.2124   -2.3041   -0.2777 C   0  0  0  0  0  0  0  0  0  0  0  0
    6.2358   -2.6629   -0.4619 H   0  0  0  0  0  0  0  0  0  0  0  0
   -4.1682   -2.3478   -1.3962 C   0  0  0  0  0  0  0  0  0  0  0  0
   -4.4243   -2.6643   -2.4182 H   0  0  0  0  0  0  0  0  0  0  0  0
    4.9948   -0.9825    0.1452 C   0  0  0  0  0  0  0  0  0  0  0  0
    5.8468   -0.3008    0.2849 H   0  0  0  0  0  0  0  0  0  0  0  0
   -4.7859   -2.0407    0.9315 C   0  0  0  0  0  0  0  0  0  0  0  0
   -5.5225   -2.1264    1.7439 H   0  0  0  0  0  0  0  0  0  0  0  0
    0.7468   -0.1593    1.6031 C   0  0  0  0  0  0  0  0  0  0  0  0
  1 18  1  0  0  0  0
  2 36  2  0  0  0  0
  2 10  1  0  0  0  0
  3  1  2  0  0  0  0
  4  3  1  0  0  0  0
  5  8  1  0  0  0  0
  5  7  1  0  0  0  0
  6  5  1  0  0  0  0
  7  9  1  1  0  0  0
  7  2  1  0  0  0  0
  8  1  1  1  0  0  0
  8 36  1  0  0  0  0
  9 16  1  0  0  0  0
 10 20  2  0  0  0  0
 11 10  1  0  0  0  0
 12 13  1  0  0  0  0
 12 14  2  0  0  0  0
 14 15  1  0  0  0  0
 16 17  1  0  0  0  0
 18 19  1  0  0  0  0
 20 14  1  0  0  0  0
 20 21  1  0  0  0  0
 22 34  1  0  0  0  0
 23 22  1  0  0  0  0
 24  9  2  0  0  0  0
 25 24  1  0  0  0  0
 26 28  2  0  0  0  0
 26  3  1  0  0  0  0
 27 26  1  0  0  0  0
 28 32  1  0  0  0  0
 29 28  1  0  0  0  0
 30 24  1  0  0  0  0
 30 22  2  0  0  0  0
 31 30  1  0  0  0  0
 32 33  1  0  0  0  0
 32 18  2  0  0  0  0
 34 16  2  0  0  0  0
 34 35  1  0  0  0  0
 36 12  1  0  0  0  0
M  END
