6
q = 0.0, confidence = 0.862

  8  7  0  0  0  0  0  0  0  0999 V2000
   -3.7400    0.2878    1.8515 F   0  0  0  0  0  0  0  0  0  0  0  0
   -1.9570    1.2283    2.7126 F   0  0  0  0  0  0  0  0  0  0  0  0
   -3.6280   -1.7167   -1.2931 F   0  0  0  0  0  0  0  0  0  0  0  0
   -1.8106   -1.9634   -2.4902 F   0  0  0  0  0  0  0  0  0  0  0  0
   -2.4267    0.4924    1.6858 C   0  0  0  0  0  0  0  0  0  0  0  0
   -1.6736    0.0575    0.6781 C   0  0  0  0  0  0  0  0  0  0  0  0
   -1.6348   -0.6544   -0.5299 C   0  0  0  0  0  0  0  0  0  0  0  0
   -2.3283   -1.4032   -1.3838 C   0  0  0  0  0  0  0  0  0  0  0  0
  4  8  1  0  0  0  0
  5  1  1  0  0  0  0
  5  2  1  0  0  0  0
  6  5  2  0  0  0  0
  7  6  1  0  0  0  0
  8  3  1  0  0  0  0
  8  7  2  0  0  0  0
M  END
