1
q = 0.0, confidence = 0.622

 13 12  0  0  0  0  0  0  0  0999 V2000
   -1.8263   -0.0052   -0.4747 C   0  0  0  0  0  2  0  0  0  0  0  0
   -1.8019   -0.0048   -1.5794 H   0  0  0  0  0  0  0  0  0  0  0  0
   -3.1516   -0.0090    0.0826 C   0  0  0  0  0  0  0  0  0  0  0  0
   -3.2221   -0.0106    1.1806 H   0  0  0  0  0  0  0  0  0  0  0  0
   -4.3258   -0.0102   -0.6376 C   0  0  0  0  0  0  0  0  0  0  0  0
   -4.4139   -0.0081   -2.1371 C   0  0  0  0  0  0  0  0  0  0  0  0
   -4.9845    0.8790   -2.4883 H   0  0  0  0  0  0  0  0  0  0  0  0
   -4.9824   -0.8955   -2.4909 H   0  0  0  0  0  0  0  0  0  0  0  0
   -3.4310   -0.0061   -2.6420 H   0  0  0  0  0  0  0  0  0  0  0  0
   -5.6435   -0.0137    0.0807 C   0  0  0  0  0  0  0  0  0  0  0  0
   -5.5177   -0.0154    1.1793 H   0  0  0  0  0  0  0  0  0  0  0  0
   -6.2479   -0.9015   -0.2093 H   0  0  0  0  0  0  0  0  0  0  0  0
   -6.2507    0.8733   -0.2061 H   0  0  0  0  0  0  0  0  0  0  0  0
  1  3  1  0  0  0  0
  2  1  1  0  0  0  0
  3  4  1  0  0  0  0
  5 10  1  0  0  0  0
  5  3  2  0  0  0  0
  6  5  1  0  0  0  0
  7  6  1  0  0  0  0
  8  6  1  0  0  0  0
  9  6  1  0  0  0  0
 10 11  1  0  0  0  0
 12 10  1  0  0  0  0
 13 10  1  0  0  0  0
M  END
