1
q = -1.0, confidence = 0.0

 13 13  0  0  0  0  0  0  0  0999 V2000
   -0.9906   -0.7524   -0.1298 C   0  0  0  0  0  3  0  0  0  0  0  0
   -2.0478   -1.3970   -0.0488 C   0  0  0  0  0  0  0  0  0  0  0  0
   -3.2828   -2.1075    0.0458 C   0  0  0  0  0  0  0  0  0  0  0  0
   -4.3600   -1.5954    0.8178 C   0  0  0  0  0  0  0  0  0  0  0  0
   -5.5736   -2.2881    0.9026 C   0  0  0  0  0  0  0  0  0  0  0  0
   -5.7446   -3.5067    0.2244 C   0  0  0  0  0  0  0  0  0  0  0  0
   -4.6878   -4.0284   -0.5406 C   0  0  0  0  0  0  0  0  0  0  0  0
   -3.4716   -3.3413   -0.6309 C   0  0  0  0  0  0  0  0  0  0  0  0
   -4.2254   -0.6433    1.3525 H   0  0  0  0  0  0  0  0  0  0  0  0
   -6.3959   -1.8733    1.5057 H   0  0  0  0  0  0  0  0  0  0  0  0
   -6.6997   -4.0493    0.2928 H   0  0  0  0  0  0  0  0  0  0  0  0
   -4.8142   -4.9835   -1.0736 H   0  0  0  0  0  0  0  0  0  0  0  0
   -2.6424   -3.7470   -1.2291 H   0  0  0  0  0  0  0  0  0  0  0  0
  1  2  3  0  0  0  0
  2  3  1  0  0  0  0
  3  4  1  0  0  0  0
  4  5  2  0  0  0  0
  4  9  1  0  0  0  0
  5 10  1  0  0  0  0
  6 11  1  0  0  0  0
  6  5  1  0  0  0  0
  7  6  2  0  0  0  0
  8  7  1  0  0  0  0
  8  3  2  0  0  0  0
 12  7  1  0  0  0  0
 13  8  1  0  0  0  0
M  END
