11
q = 0.0, confidence = 0.966

 46 47  0  0  0  0  0  0  0  0999 V2000
   -5.0914    1.0544    0.6536 S   0  0  0  0  0  0  0  0  0  0  0  0
   -3.4270    0.6176    0.7139 O   0  0  0  0  0  0  0  0  0  0  0  0
   -5.3309    1.8351   -0.5700 O   0  0  0  0  0  1  0  0  0  0  0  0
   -5.3985    1.5064    2.0110 O   0  0  0  0  0  1  0  0  0  0  0  0
   -3.1675    3.2767    0.9060 O   0  0  0  0  0  0  0  0  0  0  0  0
   -1.3825    4.0697   -0.2348 O   0  0  0  0  0  0  0  0  0  0  0  0
   -2.6628    0.7073   -0.4338 C   0  0  0  0  0  0  0  0  0  0  0  0
   -2.0905    1.8976   -0.7943 C   0  0  0  0  0  0  0  0  0  0  0  0
   -1.1184    2.0284   -1.9443 C   0  0  0  0  0  0  0  0  0  0  0  0
    0.3570    1.7921   -1.5081 C   0  0  0  0  0  0  0  0  0  0  0  0
    0.5671    0.3218   -1.2822 C   0  0  0  0  0  3  0  0  0  0  0  0
    0.2079   -0.3691   -0.0971 C   0  0  0  0  0  3  0  0  0  0  0  0
   -0.3754   -1.7576   -0.1393 C   0  0  0  0  0  0  0  0  0  0  0  0
   -1.9225   -1.7134   -0.1672 C   0  0  0  0  0  0  0  0  0  0  0  0
   -2.5214   -0.6367   -1.1044 C   0  0  0  0  0  0  0  0  0  0  0  0
   -5.7907   -0.5792    0.4284 C   0  0  0  0  0  0  0  0  0  0  0  0
   -6.2788   -0.9508   -0.8309 C   0  0  0  0  0  0  0  0  0  0  0  0
   -6.7909   -2.2451   -1.0020 C   0  0  0  0  0  0  0  0  0  0  0  0
   -6.8176   -3.1678    0.0632 C   0  0  0  0  0  0  0  0  0  0  0  0
   -6.3235   -2.7548    1.3218 C   0  0  0  0  0  0  0  0  0  0  0  0
   -5.8147   -1.4670    1.5159 C   0  0  0  0  0  0  0  0  0  0  0  0
   -7.3736   -4.5562   -0.1190 C   0  0  0  0  0  0  0  0  0  0  0  0
   -2.3120    3.1089    0.0551 C   0  0  0  0  0  0  0  0  0  0  0  0
   -1.4828    5.2591    0.5514 C   0  0  0  0  0  0  0  0  0  0  0  0
   -1.1988    3.0488   -2.3628 H   0  0  0  0  0  0  0  0  0  0  0  0
   -1.3824    1.3251   -2.7600 H   0  0  0  0  0  0  0  0  0  0  0  0
    1.0368    2.1527   -2.3073 H   0  0  0  0  0  0  0  0  0  0  0  0
    0.5740    2.3750   -0.5933 H   0  0  0  0  0  0  0  0  0  0  0  0
    0.5713   -0.2879   -2.2065 H   0  0  0  0  0  0  0  0  0  0  0  0
   -0.0472    0.2431    0.7874 H   0  0  0  0  0  0  0  0  0  0  0  0
   -0.0474   -2.3462    0.7430 H   0  0  0  0  0  0  0  0  0  0  0  0
    0.0159   -2.2808   -1.0348 H   0  0  0  0  0  0  0  0  0  0  0  0
   -2.2940   -2.7126   -0.4742 H   0  0  0  0  0  0  0  0  0  0  0  0
   -2.3242   -1.5368    0.8517 H   0  0  0  0  0  0  0  0  0  0  0  0
   -1.9436   -0.5623   -2.0448 H   0  0  0  0  0  0  0  0  0  0  0  0
   -3.5491   -0.9561   -1.3841 H   0  0  0  0  0  0  0  0  0  0  0  0
   -6.2572   -0.2243   -1.6558 H   0  0  0  0  0  0  0  0  0  0  0  0
   -7.1805   -2.5457   -1.9871 H   0  0  0  0  0  0  0  0  0  0  0  0
   -6.3434   -3.4599    2.1677 H   0  0  0  0  0  0  0  0  0  0  0  0
   -5.4413   -1.1397    2.4969 H   0  0  0  0  0  0  0  0  0  0  0  0
   -6.6594   -5.3261    0.2384 H   0  0  0  0  0  0  0  0  0  0  0  0
   -7.6075   -4.7690   -1.1795 H   0  0  0  0  0  0  0  0  0  0  0  0
   -8.3075   -4.6898    0.4667 H   0  0  0  0  0  0  0  0  0  0  0  0
   -2.4802    5.7288    0.4331 H   0  0  0  0  0  0  0  0  0  0  0  0
   -0.6878    5.9346    0.1879 H   0  0  0  0  0  0  0  0  0  0  0  0
   -1.3359    5.0338    1.6272 H   0  0  0  0  0  0  0  0  0  0  0  0
  1  2  1  0  0  0  0
  1  4  1  0  0  0  0
  3  1  1  0  0  0  0
  6 23  1  0  0  0  0
  6 24  1  0  0  0  0
  7  2  1  0  0  0  0
  8  7  2  0  0  0  0
  8 23  1  0  0  0  0
  9 10  1  0  0  0  0
  9  8  1  0  0  0  0
 10 11  1  0  0  0  0
 10 28  1  0  0  0  0
 11 12  1  0  0  0  0
 12 30  1  0  0  0  0
 13 12  1  0  0  0  0
 13 31  1  0  0  0  0
 14 13  1  0  0  0  0
 14 34  1  0  0  0  0
 15  7  1  0  0  0  0
 15 14  1  0  0  0  0
 16  1  1  0  0  0  0
 16 21  1  0  0  0  0
 17 16  2  0  0  0  0
 18 17  1  0  0  0  0
 18 19  2  0  0  0  0
 19 20  1  0  0  0  0
 20 21  2  0  0  0  0
 20 39  1  0  0  0  0
 21 40  1  0  0  0  0
 22 19  1  0  0  0  0
 22 41  1  0  0  0  0
 22 43  1  0  0  0  0
 23  5  2  0  0  0  0
 24 46  1  0  0  0  0
 25  9  1  0  0  0  0
 26  9  1  0  0  0  0
 27 10  1  0  0  0  0
 29 11  1  0  0  0  0
 32 13  1  0  0  0  0
 33 14  1  0  0  0  0
 35 15  1  0  0  0  0
 36 15  1  0  0  0  0
 37 17  1  0  0  0  0
 38 18  1  0  0  0  0
 42 22  1  0  0  0  0
 44 24  1  0  0  0  0
 45 24  1  0  0  0  0
M  END
