17
q = 0.0, confidence = 0.992

 35 37  0  0  0  0  0  0  0  0999 V2000
    1.4048    2.7705   -0.8536 N   0  0  0  0  0  0  0  0  0  0  0  0
   -0.7270    3.0084   -0.5811 N   0  0  0  0  0  0  0  0  0  0  0  0
    2.8607    1.9282    1.5493 C   0  0  0  0  0  0  0  0  0  0  0  0
    1.7608    1.9219    1.5988 H   0  0  0  0  0  0  0  0  0  0  0  0
    3.6112    1.7826    2.7264 C   0  0  0  0  0  0  0  0  0  0  0  0
    3.0958    1.6655    3.6916 H   0  0  0  0  0  0  0  0  0  0  0  0
    5.0145    1.7913    2.6756 C   0  0  0  0  0  0  0  0  0  0  0  0
    5.6020    1.6815    3.5991 H   0  0  0  0  0  0  0  0  0  0  0  0
    5.6640    1.9562    1.4414 C   0  0  0  0  0  0  0  0  0  0  0  0
    6.7632    1.9803    1.3949 H   0  0  0  0  0  0  0  0  0  0  0  0
    4.9133    2.1049    0.2653 C   0  0  0  0  0  0  0  0  0  0  0  0
    5.4286    2.2359   -0.6996 H   0  0  0  0  0  0  0  0  0  0  0  0
    3.5063    2.0852    0.3082 C   0  0  0  0  0  0  0  0  0  0  0  0
    2.7241    2.1577   -0.9889 C   0  0  0  0  0  0  0  0  0  0  0  0
    3.2944    2.7137   -1.7590 H   0  0  0  0  0  0  0  0  0  0  0  0
    2.5516    1.1338   -1.3850 H   0  0  0  0  0  0  0  0  0  0  0  0
    0.2459    2.0592   -0.7476 C   0  0  0  0  0  2  0  0  0  0  0  0
   -0.1817    4.2886   -0.5904 C   0  0  0  0  0  0  0  0  0  0  0  0
   -0.7946    5.1850   -0.4591 H   0  0  0  0  0  0  0  0  0  0  0  0
    1.1710    4.1349   -0.7544 C   0  0  0  0  0  0  0  0  0  0  0  0
    1.9758    4.8747   -0.7993 H   0  0  0  0  0  0  0  0  0  0  0  0
   -2.1219    2.7099   -0.4344 C   0  0  0  0  0  0  0  0  0  0  0  0
   -2.5373    1.7506    0.5050 C   0  0  0  0  0  0  0  0  0  0  0  0
   -1.7968    1.2624    1.1555 H   0  0  0  0  0  0  0  0  0  0  0  0
   -3.8969    1.4359    0.6187 C   0  0  0  0  0  0  0  0  0  0  0  0
   -4.2112    0.6803    1.3541 H   0  0  0  0  0  0  0  0  0  0  0  0
   -4.8659    2.0771   -0.1820 C   0  0  0  0  0  0  0  0  0  0  0  0
   -4.4244    3.0455   -1.1081 C   0  0  0  0  0  0  0  0  0  0  0  0
   -5.1590    3.5544   -1.7510 H   0  0  0  0  0  0  0  0  0  0  0  0
   -3.0662    3.3629   -1.2422 C   0  0  0  0  0  0  0  0  0  0  0  0
   -2.7365    4.0976   -1.9917 H   0  0  0  0  0  0  0  0  0  0  0  0
   -6.3286    1.7546   -0.0267 C   0  0  0  0  0  0  0  0  0  0  0  0
   -6.8932    1.9459   -0.9597 H   0  0  0  0  0  0  0  0  0  0  0  0
   -6.7864    2.3826    0.7673 H   0  0  0  0  0  0  0  0  0  0  0  0
   -6.4785    0.6978    0.2687 H   0  0  0  0  0  0  0  0  0  0  0  0
  1 20  1  0  0  0  0
  1 17  1  0  0  0  0
  2 22  1  0  0  0  0
  3  4  1  0  0  0  0
  3  5  1  0  0  0  0
  5  6  1  0  0  0  0
  7  5  2  0  0  0  0
  7  8  1  0  0  0  0
  9  7  1  0  0  0  0
 10  9  1  0  0  0  0
 11 13  1  0  0  0  0
 11  9  2  0  0  0  0
 12 11  1  0  0  0  0
 13  3  2  0  0  0  0
 14  1  1  0  0  0  0
 14 13  1  0  0  0  0
 15 14  1  0  0  0  0
 16 14  1  0  0  0  0
 17  2  1  0  0  0  0
 18  2  1  0  0  0  0
 18 19  1  0  0  0  0
 20 18  2  0  0  0  0
 21 20  1  0  0  0  0
 22 23  1  0  0  0  0
 23 25  2  0  0  0  0
 23 24  1  0  0  0  0
 25 26  1  0  0  0  0
 27 32  1  0  0  0  0
 27 25  1  0  0  0  0
 28 27  2  0  0  0  0
 29 28  1  0  0  0  0
 30 28  1  0  0  0  0
 30 22  2  0  0  0  0
 31 30  1  0  0  0  0
 32 35  1  0  0  0  0
 32 34  1  0  0  0  0
 33 32  1  0  0  0  0
M  END
