7
q = 0.0, confidence = 0.998

 30 33  0  0  0  0  0  0  0  0999 V2000
    2.6145    1.3972   -1.2213 C   0  0  0  0  0  0  0  0  0  0  0  0
    3.2538    2.2678   -1.0178 H   0  0  0  0  0  0  0  0  0  0  0  0
    3.1629    0.2396   -1.8108 C   0  0  0  0  0  0  0  0  0  0  0  0
    4.2317    0.1992   -2.0606 H   0  0  0  0  0  0  0  0  0  0  0  0
    2.3331   -0.9076   -2.0086 C   0  0  0  0  0  3  0  0  0  0  0  0
    2.7625   -1.8342   -2.4131 H   0  0  0  0  0  0  0  0  0  0  0  0
    0.9784   -0.8794   -1.6125 C   0  0  0  0  0  3  0  0  0  0  0  0
    0.3786   -1.7908   -1.7227 H   0  0  0  0  0  0  0  0  0  0  0  0
    0.3820    0.3077   -1.0501 C   0  0  0  0  0  0  0  0  0  0  0  0
    1.2194    1.4673   -0.8639 C   0  0  0  0  0  0  0  0  0  0  0  0
   -1.0215    0.3627   -0.6274 C   0  0  0  0  0  0  0  0  0  0  0  0
   -1.5292    1.5908   -0.0505 C   0  0  0  0  0  0  0  0  0  0  0  0
   -0.6465    2.7214    0.1072 C   0  0  0  0  0  0  0  0  0  0  0  0
   -1.0562    3.6408    0.5527 H   0  0  0  0  0  0  0  0  0  0  0  0
    0.6662    2.6624   -0.2659 C   0  0  0  0  0  0  0  0  0  0  0  0
    1.3331    3.5258   -0.1252 H   0  0  0  0  0  0  0  0  0  0  0  0
   -1.8917   -0.7234   -0.7626 C   0  0  0  0  0  0  0  0  0  0  0  0
   -1.5362   -1.6713   -1.1907 H   0  0  0  0  0  0  0  0  0  0  0  0
   -3.2460   -0.6612   -0.3533 C   0  0  0  0  0  0  0  0  0  0  0  0
   -3.7517    0.5667    0.2210 C   0  0  0  0  0  0  0  0  0  0  0  0
   -2.8687    1.6623    0.3547 C   0  0  0  0  0  0  0  0  0  0  0  0
   -3.2433    2.6002    0.7946 H   0  0  0  0  0  0  0  0  0  0  0  0
   -4.1313   -1.7744   -0.4866 C   0  0  0  0  0  0  0  0  0  0  0  0
   -3.7435   -2.7093   -0.9203 H   0  0  0  0  0  0  0  0  0  0  0  0
   -5.4507   -1.6833   -0.0767 C   0  0  0  0  0  0  0  0  0  0  0  0
   -6.1216   -2.5489   -0.1840 H   0  0  0  0  0  0  0  0  0  0  0  0
   -5.9489   -0.4731    0.4874 C   0  0  0  0  0  0  0  0  0  0  0  0
   -6.9997   -0.4164    0.8093 H   0  0  0  0  0  0  0  0  0  0  0  0
   -5.1189    0.6252    0.6330 C   0  0  0  0  0  0  0  0  0  0  0  0
   -5.4995    1.5612    1.0704 H   0  0  0  0  0  0  0  0  0  0  0  0
  1  2  1  0  0  0  0
  1 10  1  0  0  0  0
  3  1  2  0  0  0  0
  4  3  1  0  0  0  0
  5  3  1  0  0  0  0
  5  7  1  0  0  0  0
  6  5  1  0  0  0  0
  7  9  1  0  0  0  0
  8  7  1  0  0  0  0
  9 10  2  0  0  0  0
  9 11  1  0  0  0  0
 10 15  1  0  0  0  0
 11 12  1  0  0  0  0
 12 13  1  0  0  0  0
 12 21  2  0  0  0  0
 13 14  1  0  0  0  0
 15 16  1  0  0  0  0
 15 13  2  0  0  0  0
 17 11  2  0  0  0  0
 17 19  1  0  0  0  0
 18 17  1  0  0  0  0
 19 20  1  0  0  0  0
 20 21  1  0  0  0  0
 20 29  2  0  0  0  0
 21 22  1  0  0  0  0
 23 19  2  0  0  0  0
 23 25  1  0  0  0  0
 24 23  1  0  0  0  0
 25 27  2  0  0  0  0
 26 25  1  0  0  0  0
 27 29  1  0  0  0  0
 27 28  1  0  0  0  0
 29 30  1  0  0  0  0
M  END
