3
q = -1.0, confidence = 0.028

 18 17  0  0  1  0  0  0  0  0999 V2000
    0.4208    1.4396   -1.8862 C   0  0  0  0  0  3  0  0  0  0  0  0
   -1.0097    1.3655   -1.8469 C   0  0  1  0  0  3  0  0  0  0  0  0
   -1.7656    0.1469   -1.8299 C   0  0  0  0  0  3  0  0  0  0  0  0
   -1.3263   -1.2232   -1.8010 C   0  0  1  0  0  3  0  0  0  0  0  0
    0.0356   -1.6469   -1.8077 C   0  0  0  0  0  3  0  0  0  0  0  0
   -1.7907    2.6575   -1.7250 C   0  0  0  0  0  0  0  0  0  0  0  0
   -2.4076   -2.2767   -1.6840 C   0  0  0  0  0  0  0  0  0  0  0  0
    0.8582    2.4461   -1.7886 H   0  0  0  0  0  0  0  0  0  0  0  0
    0.9952    0.7716   -2.5448 H   0  0  0  0  0  0  0  0  0  0  0  0
   -2.8550    0.2815   -1.7339 H   0  0  0  0  0  0  0  0  0  0  0  0
    0.2268   -2.7233   -1.6766 H   0  0  0  0  0  0  0  0  0  0  0  0
    0.7812   -1.1311   -2.4251 H   0  0  0  0  0  0  0  0  0  0  0  0
   -2.7866    2.5153   -1.2611 H   0  0  0  0  0  0  0  0  0  0  0  0
   -1.2368    3.4123   -1.1314 H   0  0  0  0  0  0  0  0  0  0  0  0
   -1.9438    3.0972   -2.7346 H   0  0  0  0  0  0  0  0  0  0  0  0
   -2.6760   -2.6425   -2.6990 H   0  0  0  0  0  0  0  0  0  0  0  0
   -3.3318   -1.8951   -1.2077 H   0  0  0  0  0  0  0  0  0  0  0  0
   -2.0582   -3.1572   -1.1100 H   0  0  0  0  0  0  0  0  0  0  0  0
  1  8  1  0  0  0  0
  2  1  1  1  0  0  0
  2  3  1  0  0  0  0
  2  6  1  0  0  0  0
  3 10  1  0  0  0  0
  4  3  1  1  0  0  0
  4  7  1  0  0  0  0
  5  4  1  0  0  0  0
  5 11  1  0  0  0  0
  6 13  1  0  0  0  0
  6 14  1  0  0  0  0
  7 17  1  0  0  0  0
  7 18  1  0  0  0  0
  9  1  1  0  0  0  0
 12  5  1  0  0  0  0
 15  6  1  0  0  0  0
 16  7  1  0  0  0  0
M  END
