4
q = 0.0, confidence = 0.982

 21 21  0  0  1  0  0  0  0  0999 V2000
   -0.7757   -1.5873    2.2699 C   0  0  0  0  0  0  0  0  0  0  0  0
    0.5938   -1.9970    2.1502 C   0  0  0  0  0  0  0  0  0  0  0  0
    1.3239   -1.6849    2.9116 H   0  0  0  0  0  0  0  0  0  0  0  0
   -1.7235   -1.9973    1.2737 C   0  0  0  0  0  3  0  0  0  0  0  0
   -2.7640   -1.6466    1.3353 H   0  0  0  0  0  0  0  0  0  0  0  0
   -1.3112   -2.7856    0.1510 C   0  0  2  0  0  3  0  0  0  0  0  0
    0.0631   -3.1710    0.0395 C   0  0  0  0  0  0  0  0  0  0  0  0
    0.3975   -3.7268   -0.8484 H   0  0  0  0  0  0  0  0  0  0  0  0
    1.0207   -2.7829    1.0313 C   0  0  0  0  0  0  0  0  0  0  0  0
    2.4513   -3.2198    0.8871 C   0  0  0  0  0  0  0  0  0  0  0  0
    3.1367   -2.6466    1.5375 H   0  0  0  0  0  0  0  0  0  0  0  0
    2.8002   -3.1388   -0.1602 H   0  0  0  0  0  0  0  0  0  0  0  0
    2.5284   -4.2878    1.1803 H   0  0  0  0  0  0  0  0  0  0  0  0
   -1.2322   -0.7573    3.4354 C   0  0  0  0  0  0  0  0  0  0  0  0
   -1.6577   -1.4282    4.2108 H   0  0  0  0  0  0  0  0  0  0  0  0
   -2.0279   -0.0471    3.1413 H   0  0  0  0  0  0  0  0  0  0  0  0
   -0.3990   -0.1988    3.9011 H   0  0  0  0  0  0  0  0  0  0  0  0
   -2.2891   -3.1527   -0.9240 C   0  0  0  0  0  0  0  0  0  0  0  0
   -2.6957   -4.1641   -0.7125 H   0  0  0  0  0  0  0  0  0  0  0  0
   -1.8022   -3.1786   -1.9163 H   0  0  0  0  0  0  0  0  0  0  0  0
   -3.1361   -2.4435   -0.9679 H   0  0  0  0  0  0  0  0  0  0  0  0
  1 14  1  0  0  0  0
  2  1  2  0  0  0  0
  2  3  1  0  0  0  0
  4  5  1  0  0  0  0
  4  1  1  0  0  0  0
  6 18  1  6  0  0  0
  6  4  1  0  0  0  0
  7  6  1  0  0  0  0
  7  9  2  0  0  0  0
  8  7  1  0  0  0  0
  9  2  1  0  0  0  0
 10  9  1  0  0  0  0
 10 13  1  0  0  0  0
 10 11  1  0  0  0  0
 12 10  1  0  0  0  0
 14 17  1  0  0  0  0
 14 15  1  0  0  0  0
 16 14  1  0  0  0  0
 18 19  1  0  0  0  0
 20 18  1  0  0  0  0
 21 18  1  0  0  0  0
M  END
