2
q = 0.0, confidence = 0.548

 24 23  0  0  0  0  0  0  0  0999 V2000
   -0.3126   -1.4547    2.5774 Si  0  0  0  0  0  0  0  0  0  0  0  0
    0.7529   -0.6137    1.2815 C   0  0  0  0  0  2  0  0  0  0  0  0
    1.8190   -0.4203    1.5590 H   0  0  0  0  0  0  0  0  0  0  0  0
   -2.1620   -1.1302    2.2999 C   0  0  0  0  0  0  0  0  0  0  0  0
   -2.7072   -1.7401    3.0549 H   0  0  0  0  0  0  0  0  0  0  0  0
   -2.4467   -1.5574    1.3157 H   0  0  0  0  0  0  0  0  0  0  0  0
   -2.5909    0.3394    2.3865 C   0  0  0  0  0  0  0  0  0  0  0  0
   -2.3993    0.7649    3.3936 H   0  0  0  0  0  0  0  0  0  0  0  0
   -2.0365    0.9673    1.6615 H   0  0  0  0  0  0  0  0  0  0  0  0
   -3.6723    0.4679    2.1730 H   0  0  0  0  0  0  0  0  0  0  0  0
    0.2214   -0.7704    4.2771 C   0  0  0  0  0  0  0  0  0  0  0  0
    0.0900    0.3341    4.2512 H   0  0  0  0  0  0  0  0  0  0  0  0
    1.3162   -0.9349    4.3858 H   0  0  0  0  0  0  0  0  0  0  0  0
   -0.5359   -1.3737    5.4674 C   0  0  0  0  0  0  0  0  0  0  0  0
   -0.2005   -0.9510    6.4377 H   0  0  0  0  0  0  0  0  0  0  0  0
   -1.6279   -1.1899    5.3921 H   0  0  0  0  0  0  0  0  0  0  0  0
   -0.3976   -2.4737    5.5257 H   0  0  0  0  0  0  0  0  0  0  0  0
   -0.0166   -3.3398    2.5279 C   0  0  0  0  0  0  0  0  0  0  0  0
   -0.7560   -3.8115    3.2133 H   0  0  0  0  0  0  0  0  0  0  0  0
   -0.2910   -3.6914    1.5090 H   0  0  0  0  0  0  0  0  0  0  0  0
    1.4059   -3.7831    2.8885 C   0  0  0  0  0  0  0  0  0  0  0  0
    1.5350   -4.8836    2.8201 H   0  0  0  0  0  0  0  0  0  0  0  0
    1.6770   -3.4863    3.9229 H   0  0  0  0  0  0  0  0  0  0  0  0
    2.1593   -3.3239    2.2150 H   0  0  0  0  0  0  0  0  0  0  0  0
  1 11  1  0  0  0  0
  2  3  1  0  0  0  0
  2  1  1  0  0  0  0
  4  7  1  0  0  0  0
  4  1  1  0  0  0  0
  4  5  1  0  0  0  0
  6  4  1  0  0  0  0
  7  8  1  0  0  0  0
  9  7  1  0  0  0  0
 10  7  1  0  0  0  0
 11 13  1  0  0  0  0
 11 14  1  0  0  0  0
 12 11  1  0  0  0  0
 14 17  1  0  0  0  0
 14 15  1  0  0  0  0
 16 14  1  0  0  0  0
 18  1  1  0  0  0  0
 18 21  1  0  0  0  0
 18 19  1  0  0  0  0
 20 18  1  0  0  0  0
 21 23  1  0  0  0  0
 22 21  1  0  0  0  0
 24 21  1  0  0  0  0
M  END
