1
q = -1.0, confidence = 0.0

 12 12  0  0  0  0  0  0  0  0999 V2000
   -0.0013   -0.0004   -1.5115 C   0  0  0  0  0  1  0  0  0  0  0  0
   -0.0026   -0.0005   -2.9475 C   0  0  0  0  0  0  0  0  0  0  0  0
   -1.2225    0.0452   -3.6767 C   0  0  0  0  0  0  0  0  0  0  0  0
   -2.1679    0.0857   -3.1156 H   0  0  0  0  0  0  0  0  0  0  0  0
   -1.2188    0.0439   -5.0759 C   0  0  0  0  0  0  0  0  0  0  0  0
   -2.1736    0.0795   -5.6231 H   0  0  0  0  0  0  0  0  0  0  0  0
   -0.0049   -0.0007   -5.7838 C   0  0  0  0  0  0  0  0  0  0  0  0
   -0.0058   -0.0008   -6.8843 H   0  0  0  0  0  0  0  0  0  0  0  0
    1.2102   -0.0452   -5.0779 C   0  0  0  0  0  0  0  0  0  0  0  0
    2.1640   -0.0808   -5.6267 H   0  0  0  0  0  0  0  0  0  0  0  0
    1.2161   -0.0463   -3.6787 C   0  0  0  0  0  0  0  0  0  0  0  0
    2.1626   -0.0866   -3.1192 H   0  0  0  0  0  0  0  0  0  0  0  0
  2  1  1  0  0  0  0
  3  4  1  0  0  0  0
  3  2  1  0  0  0  0
  5  3  2  0  0  0  0
  6  5  1  0  0  0  0
  7  9  2  0  0  0  0
  7  5  1  0  0  0  0
  8  7  1  0  0  0  0
  9 11  1  0  0  0  0
 10  9  1  0  0  0  0
 11 12  1  0  0  0  0
 11  2  2  0  0  0  0
M  END
