4
q = 0.0, confidence = 0.996

 14 15  0  0  0  0  0  0  0  0999 V2000
    0.0006    2.1699    1.1354 O   0  0  0  0  0  0  0  0  0  0  0  0
    0.0002    2.2091   -1.0428 N   0  0  0  0  0  0  0  0  0  0  0  0
   -0.0000    1.8595   -2.0021 H   0  0  0  0  0  0  0  0  0  0  0  0
    0.0003    1.3896    0.0295 C   0  0  0  0  0  2  0  0  0  0  0  0
    0.0008    3.5014    0.7497 C   0  0  0  0  0  0  0  0  0  0  0  0
    0.0006    3.5504   -0.6532 C   0  0  0  0  0  0  0  0  0  0  0  0
    0.0007    4.7685   -1.3407 C   0  0  0  0  0  0  0  0  0  0  0  0
    0.0005    4.8183   -2.4380 H   0  0  0  0  0  0  0  0  0  0  0  0
    0.0011    5.9270   -0.5475 C   0  0  0  0  0  0  0  0  0  0  0  0
    0.0012    6.9106   -1.0392 H   0  0  0  0  0  0  0  0  0  0  0  0
    0.0013    5.8657    0.8645 C   0  0  0  0  0  0  0  0  0  0  0  0
    0.0016    6.8016    1.4418 H   0  0  0  0  0  0  0  0  0  0  0  0
    0.0012    4.6391    1.5519 C   0  0  0  0  0  0  0  0  0  0  0  0
    0.0014    4.5758    2.6483 H   0  0  0  0  0  0  0  0  0  0  0  0
  2  6  1  0  0  0  0
  2  4  1  0  0  0  0
  3  2  1  0  0  0  0
  4  1  1  0  0  0  0
  5  1  1  0  0  0  0
  5 13  1  0  0  0  0
  6  5  2  0  0  0  0
  7  6  1  0  0  0  0
  7  9  2  0  0  0  0
  8  7  1  0  0  0  0
  9 11  1  0  0  0  0
 10  9  1  0  0  0  0
 11 12  1  0  0  0  0
 11 13  2  0  0  0  0
 13 14  1  0  0  0  0
M  END
