5
q = 0.0, confidence = 0.968

 16 15  0  0  0  0  0  0  0  0999 V2000
   -2.9387    2.2164    1.6281 O   0  0  0  0  0  0  0  0  0  0  0  0
   -4.2092    1.7365   -0.1910 O   0  0  0  0  0  0  0  0  0  0  0  0
   -3.5250   -2.8865   -0.0628 O   0  0  0  0  0  0  0  0  0  0  0  0
   -3.2907   -1.9571   -2.1309 O   0  0  0  0  0  0  0  0  0  0  0  0
   -2.3669    0.3807    0.1955 C   0  0  0  0  0  3  0  0  0  0  0  0
   -2.4074   -0.8196   -0.3064 C   0  0  0  0  0  3  0  0  0  0  0  0
   -3.1695    1.5206    0.6454 C   0  0  0  0  0  0  0  0  0  0  0  0
   -5.0375    2.8598    0.1398 C   0  0  0  0  0  0  0  0  0  0  0  0
   -5.4949    2.7305    1.1411 H   0  0  0  0  0  0  0  0  0  0  0  0
   -5.8175    2.9004   -0.6405 H   0  0  0  0  0  0  0  0  0  0  0  0
   -4.4444    3.7966    0.1459 H   0  0  0  0  0  0  0  0  0  0  0  0
   -3.1361   -1.9909   -0.7923 C   0  0  0  0  0  0  0  0  0  0  0  0
   -3.8524   -3.1437   -2.7061 C   0  0  0  0  0  0  0  0  0  0  0  0
   -3.1858   -4.0106   -2.5236 H   0  0  0  0  0  0  0  0  0  0  0  0
   -3.9350   -2.9460   -3.7893 H   0  0  0  0  0  0  0  0  0  0  0  0
   -4.8481   -3.3646   -2.2722 H   0  0  0  0  0  0  0  0  0  0  0  0
  2  8  1  0  0  0  0
  2  7  1  0  0  0  0
  4 12  1  0  0  0  0
  5  7  1  0  0  0  0
  6  5  2  0  0  0  0
  7  1  2  0  0  0  0
  8 11  1  0  0  0  0
  8  9  1  0  0  0  0
 10  8  1  0  0  0  0
 12  6  1  0  0  0  0
 12  3  2  0  0  0  0
 13 14  1  0  0  0  0
 13 16  1  0  0  0  0
 13  4  1  0  0  0  0
 15 13  1  0  0  0  0
M  END
