3
q = 0.0, confidence = 0.938

  4  3  0  0  0  0  0  0  0  0999 V2000
    0.3165    0.2125    2.4085 C   0  0  0  0  0  3  0  0  0  0  0  0
    0.0221   -0.1282    3.4085 H   0  0  0  0  0  0  0  0  0  0  0  0
    1.1441    1.0249    1.7579 C   0  0  0  0  0  3  0  0  0  0  0  0
    1.9539    1.7411    1.9496 H   0  0  0  0  0  0  0  0  0  0  0  0
  1  2  1  0  0  0  0
  3  4  1  0  0  0  0
  3  1  2  0  0  0  0
M  END
