4
q = 0.0, confidence = 0.996

 62 68  0  0  0  0  0  0  0  0999 V2000
   -0.6550   -0.8707   -1.0827 N   0  0  0  0  0  0  0  0  0  0  0  0
    0.2092   -2.8321   -0.6138 N   0  0  0  0  0  0  0  0  0  0  0  0
   -0.4238   -0.0240    2.1040 N   0  0  0  0  0  0  0  0  0  0  0  0
    0.5088   -1.5014   -0.7137 C   0  0  0  0  0  2  0  0  0  0  0  0
   -1.1306   -3.0620   -0.9294 C   0  0  0  0  0  0  0  0  0  0  0  0
   -1.6891   -1.8017   -1.2455 C   0  0  0  0  0  0  0  0  0  0  0  0
   -3.0180   -1.6810   -1.6703 C   0  0  0  0  0  0  0  0  0  0  0  0
   -3.4487   -0.7085   -1.9374 H   0  0  0  0  0  0  0  0  0  0  0  0
   -3.7787   -2.8574   -1.7231 C   0  0  0  0  0  0  0  0  0  0  0  0
   -4.8310   -2.7948   -2.0361 H   0  0  0  0  0  0  0  0  0  0  0  0
   -3.2290   -4.1129   -1.3800 C   0  0  0  0  0  0  0  0  0  0  0  0
   -3.8614   -5.0113   -1.4326 H   0  0  0  0  0  0  0  0  0  0  0  0
   -1.8888   -4.2399   -0.9853 C   0  0  0  0  0  0  0  0  0  0  0  0
   -1.4529   -5.2174   -0.7362 H   0  0  0  0  0  0  0  0  0  0  0  0
   -0.7633    0.5574   -1.1982 C   0  0  0  0  0  0  0  0  0  0  0  0
    0.0102    1.1973   -2.2044 C   0  0  0  0  0  0  0  0  0  0  0  0
    0.6246    0.5785   -2.8729 H   0  0  0  0  0  0  0  0  0  0  0  0
   -0.0173    2.5737   -2.3268 C   0  0  0  0  0  0  0  0  0  0  0  0
    0.5828    3.0730   -3.1021 H   0  0  0  0  0  0  0  0  0  0  0  0
   -0.8111    3.3636   -1.4460 C   0  0  0  0  0  0  0  0  0  0  0  0
   -0.8378    4.7867   -1.5361 C   0  0  0  0  0  0  0  0  0  0  0  0
   -0.2381    5.2749   -2.3198 H   0  0  0  0  0  0  0  0  0  0  0  0
   -1.5916    5.5422   -0.6516 C   0  0  0  0  0  0  0  0  0  0  0  0
   -1.5995    6.6398   -0.7302 H   0  0  0  0  0  0  0  0  0  0  0  0
   -2.3483    4.9012    0.3654 C   0  0  0  0  0  0  0  0  0  0  0  0
   -2.9366    5.5064    1.0715 H   0  0  0  0  0  0  0  0  0  0  0  0
   -2.3492    3.5185    0.4754 C   0  0  0  0  0  0  0  0  0  0  0  0
   -2.9341    3.0205    1.2621 H   0  0  0  0  0  0  0  0  0  0  0  0
   -1.5939    2.7105   -0.4260 C   0  0  0  0  0  0  0  0  0  0  0  0
   -1.5684    1.2758   -0.3045 C   0  0  0  0  0  0  0  0  0  0  0  0
   -2.3764    0.5480    0.7185 C   0  0  0  0  0  0  0  0  0  0  0  0
   -3.7956    0.4373    0.5110 C   0  0  0  0  0  0  0  0  0  0  0  0
   -4.4874    1.1726   -0.5048 C   0  0  0  0  0  0  0  0  0  0  0  0
   -3.9277    1.8787   -1.1330 H   0  0  0  0  0  0  0  0  0  0  0  0
   -5.8506    1.0111   -0.7139 C   0  0  0  0  0  0  0  0  0  0  0  0
   -6.3496    1.5983   -1.5002 H   0  0  0  0  0  0  0  0  0  0  0  0
   -6.6060    0.1023    0.0720 C   0  0  0  0  0  0  0  0  0  0  0  0
   -7.6861   -0.0143   -0.1016 H   0  0  0  0  0  0  0  0  0  0  0  0
   -5.9657   -0.6371    1.0562 C   0  0  0  0  0  0  0  0  0  0  0  0
   -6.5290   -1.3570    1.6710 H   0  0  0  0  0  0  0  0  0  0  0  0
   -4.5699   -0.4958    1.2931 C   0  0  0  0  0  0  0  0  0  0  0  0
   -3.8905   -1.2940    2.2558 C   0  0  0  0  0  0  0  0  0  0  0  0
   -4.4663   -2.0354    2.8317 H   0  0  0  0  0  0  0  0  0  0  0  0
   -2.5398   -1.1485    2.4860 C   0  0  0  0  0  0  0  0  0  0  0  0
   -2.0607   -1.7698    3.2525 H   0  0  0  0  0  0  0  0  0  0  0  0
   -1.7493   -0.1878    1.7622 C   0  0  0  0  0  0  0  0  0  0  0  0
    0.2416   -0.9022    3.0721 C   0  0  0  0  0  0  0  0  0  0  0  0
    0.2417   -1.9552    2.7154 H   0  0  0  0  0  0  0  0  0  0  0  0
   -0.2839   -0.8850    4.0573 H   0  0  0  0  0  0  0  0  0  0  0  0
    1.6476   -0.3145    3.2038 C   0  0  0  0  0  0  0  0  0  0  0  0
    2.3012   -0.6933    2.3896 H   0  0  0  0  0  0  0  0  0  0  0  0
    2.1228   -0.5688    4.1709 H   0  0  0  0  0  0  0  0  0  0  0  0
    1.4079    1.1870    3.0096 C   0  0  0  0  0  0  0  0  0  0  0  0
    2.3249    1.7301    2.7087 H   0  0  0  0  0  0  0  0  0  0  0  0
    1.0197    1.6436    3.9446 H   0  0  0  0  0  0  0  0  0  0  0  0
    0.3385    1.2239    1.9108 C   0  0  0  0  0  0  0  0  0  0  0  0
   -0.3366    2.0999    1.9863 H   0  0  0  0  0  0  0  0  0  0  0  0
    0.8209    1.2525    0.9084 H   0  0  0  0  0  0  0  0  0  0  0  0
    1.1517   -3.8711   -0.2430 C   0  0  0  0  0  0  0  0  0  0  0  0
    2.1320   -3.3952   -0.0540 H   0  0  0  0  0  0  0  0  0  0  0  0
    1.2535   -4.6117   -1.0616 H   0  0  0  0  0  0  0  0  0  0  0  0
    0.8093   -4.3905    0.6746 H   0  0  0  0  0  0  0  0  0  0  0  0
  1  4  1  0  0  0  0
  2 59  1  0  0  0  0
  3 47  1  0  0  0  0
  4  2  1  0  0  0  0
  5  2  1  0  0  0  0
  6  1  1  0  0  0  0
  6  5  2  0  0  0  0
  7  6  1  0  0  0  0
  8  7  1  0  0  0  0
  9  7  2  0  0  0  0
  9 11  1  0  0  0  0
 10  9  1  0  0  0  0
 11 13  2  0  0  0  0
 12 11  1  0  0  0  0
 13  5  1  0  0  0  0
 13 14  1  0  0  0  0
 15  1  1  0  0  0  0
 15 30  1  0  0  0  0
 16 15  2  0  0  0  0
 17 16  1  0  0  0  0
 18 16  1  0  0  0  0
 18 20  2  0  0  0  0
 19 18  1  0  0  0  0
 20 29  1  0  0  0  0
 21 20  1  0  0  0  0
 21 23  2  0  0  0  0
 22 21  1  0  0  0  0
 23 25  1  0  0  0  0
 24 23  1  0  0  0  0
 25 27  2  0  0  0  0
 25 26  1  0  0  0  0
 27 28  1  0  0  0  0
 29 30  2  0  0  0  0
 29 27  1  0  0  0  0
 30 31  1  0  0  0  0
 31 46  1  0  0  0  0
 32 31  2  0  0  0  0
 32 41  1  0  0  0  0
 33 32  1  0  0  0  0
 34 33  1  0  0  0  0
 35 33  2  0  0  0  0
 35 37  1  0  0  0  0
 36 35  1  0  0  0  0
 37 39  2  0  0  0  0
 38 37  1  0  0  0  0
 39 41  1  0  0  0  0
 39 40  1  0  0  0  0
 41 42  2  0  0  0  0
 42 44  1  0  0  0  0
 42 43  1  0  0  0  0
 44 45  1  0  0  0  0
 46  3  1  0  0  0  0
 46 44  2  0  0  0  0
 47 50  1  0  0  0  0
 47 49  1  0  0  0  0
 48 47  1  0  0  0  0
 50 52  1  0  0  0  0
 51 50  1  0  0  0  0
 53 50  1  0  0  0  0
 53 55  1  0  0  0  0
 54 53  1  0  0  0  0
 56 57  1  0  0  0  0
 56  3  1  0  0  0  0
 56 53  1  0  0  0  0
 58 56  1  0  0  0  0
 59 60  1  0  0  0  0
 59 62  1  0  0  0  0
 61 59  1  0  0  0  0
M  END
