3
q = 0.0, confidence = 0.948

 18 17  0  0  1  0  0  0  0  0999 V2000
    2.4157    2.8131   -0.0381 C   0  0  0  0  0  0  0  0  0  0  0  0
    2.1073    1.5197    0.1898 C   0  0  0  0  0  0  0  0  0  0  0  0
    1.1801    0.7273   -0.6372 C   0  0  2  0  0  3  0  0  0  0  0  0
    0.1275    1.3380   -1.4145 C   0  0  0  0  0  3  0  0  0  0  0  0
    1.9947    3.3682   -0.8912 H   0  0  0  0  0  0  0  0  0  0  0  0
    3.1102    3.3548    0.6211 H   0  0  0  0  0  0  0  0  0  0  0  0
    2.5811    1.0081    1.0423 H   0  0  0  0  0  0  0  0  0  0  0  0
   -0.0410    2.4160   -1.2686 H   0  0  0  0  0  0  0  0  0  0  0  0
   -0.0921    0.9831   -2.4327 H   0  0  0  0  0  0  0  0  0  0  0  0
    2.4217   -2.8081   -0.0373 C   0  0  0  0  0  0  0  0  0  0  0  0
    2.1105   -1.5154    0.1903 C   0  0  0  0  0  0  0  0  0  0  0  0
    1.1816   -0.7252   -0.6368 C   0  0  1  0  0  3  0  0  0  0  0  0
    0.1302   -1.3384   -1.4139 C   0  0  0  0  0  3  0  0  0  0  0  0
    2.0018   -3.3643   -0.8902 H   0  0  0  0  0  0  0  0  0  0  0  0
    3.1175   -3.3481    0.6219 H   0  0  0  0  0  0  0  0  0  0  0  0
    2.5833   -1.0025    1.0427 H   0  0  0  0  0  0  0  0  0  0  0  0
   -0.0362   -2.4166   -1.2672 H   0  0  0  0  0  0  0  0  0  0  0  0
   -0.0901   -0.9845   -2.4321 H   0  0  0  0  0  0  0  0  0  0  0  0
  1  2  2  0  0  0  0
  1  6  1  0  0  0  0
  2  7  1  0  0  0  0
  3  4  1  1  0  0  0
  3 12  1  0  0  0  0
  3  2  1  0  0  0  0
  4  8  1  0  0  0  0
  5  1  1  0  0  0  0
  9  4  1  0  0  0  0
 10 11  2  0  0  0  0
 10 15  1  0  0  0  0
 11 16  1  0  0  0  0
 12 13  1  1  0  0  0
 12 11  1  0  0  0  0
 13 17  1  0  0  0  0
 14 10  1  0  0  0  0
 18 13  1  0  0  0  0
M  END
