7
q = 0.0, confidence = 0.974

 23 22  0  0  1  0  0  0  0  0999 V2000
    2.4629   -1.3668   -1.1796 C   0  0  0  0  0  0  0  0  0  0  0  0
    1.1556   -1.6815   -0.4900 C   0  0  0  0  0  3  0  0  0  0  0  0
    1.0338   -1.7747    0.9197 C   0  0  0  0  0  3  0  0  0  0  0  0
    0.1023   -2.7217    1.6338 C   0  0  0  0  0  0  0  0  0  0  0  0
    2.8341    0.9344   -0.7827 C   0  0  1  0  0  0  0  0  0  0  0  0
    1.5882    1.3397   -0.0161 C   0  0  0  0  0  3  0  0  0  0  0  0
    1.3782    1.0711    1.3590 C   0  0  0  0  0  3  0  0  0  0  0  0
    4.0054    1.8561   -0.4407 C   0  0  0  0  0  0  0  0  0  0  0  0
    3.2635   -0.3996   -0.5290 O   0  0  0  0  0  0  0  0  0  0  0  0
    2.2662   -1.0581   -2.2359 H   0  0  0  0  0  0  0  0  0  0  0  0
    3.0775   -2.2956   -1.2226 H   0  0  0  0  0  0  0  0  0  0  0  0
    0.4588   -2.2797   -1.1081 H   0  0  0  0  0  0  0  0  0  0  0  0
    1.9270   -1.4835    1.5008 H   0  0  0  0  0  0  0  0  0  0  0  0
   -0.2739   -2.2834    2.5815 H   0  0  0  0  0  0  0  0  0  0  0  0
    0.6464   -3.6549    1.9038 H   0  0  0  0  0  0  0  0  0  0  0  0
   -0.7662   -2.9930    1.0053 H   0  0  0  0  0  0  0  0  0  0  0  0
    2.6063    1.0291   -1.8747 H   0  0  0  0  0  0  0  0  0  0  0  0
    1.0960    2.2355   -0.4400 H   0  0  0  0  0  0  0  0  0  0  0  0
    0.7760    1.7706    1.9626 H   0  0  0  0  0  0  0  0  0  0  0  0
    2.1124    0.4706    1.9204 H   0  0  0  0  0  0  0  0  0  0  0  0
    3.7432    2.9149   -0.6331 H   0  0  0  0  0  0  0  0  0  0  0  0
    4.2652    1.7516    0.6316 H   0  0  0  0  0  0  0  0  0  0  0  0
    4.8929    1.5900   -1.0477 H   0  0  0  0  0  0  0  0  0  0  0  0
  1  9  1  0  0  0  0
  1  2  1  0  0  0  0
  2  3  1  0  0  0  0
  3 13  1  0  0  0  0
  3  4  1  0  0  0  0
  4 15  1  0  0  0  0
  4 14  1  0  0  0  0
  5 17  1  6  0  0  0
  5  9  1  0  0  0  0
  5  8  1  0  0  0  0
  5  6  1  0  0  0  0
  6  7  1  0  0  0  0
  7 20  1  0  0  0  0
  7 19  1  0  0  0  0
  8 22  1  0  0  0  0
 10  1  1  0  0  0  0
 11  1  1  0  0  0  0
 12  2  1  0  0  0  0
 16  4  1  0  0  0  0
 18  6  1  0  0  0  0
 21  8  1  0  0  0  0
 23  8  1  0  0  0  0
M  END
