2
q = -1.0, confidence = 0.032

 10  9  0  0  0  0  0  0  0  0999 V2000
    1.2693   -2.8067   -1.7015 C   0  0  0  0  0  0  0  0  0  0  0  0
    0.0005   -2.3255   -0.9780 C   0  0  0  0  0  3  0  0  0  0  0  0
   -1.2682   -2.8074   -1.7010 C   0  0  0  0  0  0  0  0  0  0  0  0
    2.2025   -2.5298   -1.1659 H   0  0  0  0  0  0  0  0  0  0  0  0
   -2.2013   -2.5311   -1.1651 H   0  0  0  0  0  0  0  0  0  0  0  0
    1.3336   -2.3703   -2.7221 H   0  0  0  0  0  0  0  0  0  0  0  0
    0.0009   -2.7751    0.0486 H   0  0  0  0  0  0  0  0  0  0  0  0
   -1.2864   -3.9169   -1.8281 H   0  0  0  0  0  0  0  0  0  0  0  0
   -1.3331   -2.3711   -2.7216 H   0  0  0  0  0  0  0  0  0  0  0  0
    1.2882   -3.9161   -1.8285 H   0  0  0  0  0  0  0  0  0  0  0  0
  1  4  1  0  0  0  0
  1  2  1  0  0  0  0
  2  7  1  0  0  0  0
  3  5  1  0  0  0  0
  3  2  1  0  0  0  0
  6  1  1  0  0  0  0
  8  3  1  0  0  0  0
  9  3  1  0  0  0  0
 10  1  1  0  0  0  0
M  END
