4
q = -1.0, confidence = 0.0

 22 22  0  0  0  0  0  0  0  0999 V2000
    2.8260   -0.5304   -0.5265 C   0  0  0  0  0  0  0  0  0  0  0  0
    3.0754   -1.9202   -0.2633 C   0  0  0  0  0  0  0  0  0  0  0  0
    2.3263   -2.6955   -1.1788 C   0  0  0  0  0  0  0  0  0  0  0  0
    1.5957   -1.7988   -2.0207 C   0  0  0  0  0  3  0  0  0  0  0  0
    1.9319   -0.4688   -1.6376 C   0  0  0  0  0  0  0  0  0  0  0  0
    3.4543    0.6324    0.1870 C   0  0  0  0  0  0  0  0  0  0  0  0
    4.8659    0.9604   -0.3270 C   0  0  0  0  0  0  0  0  0  0  0  0
    5.5116    2.1444    0.3977 C   0  0  0  0  0  0  0  0  0  0  0  0
    6.9173    2.4731   -0.1057 C   0  0  0  0  0  0  0  0  0  0  0  0
    3.6877   -2.3043    0.5616 H   0  0  0  0  0  0  0  0  0  0  0  0
    2.2498   -3.7885   -1.1931 H   0  0  0  0  0  0  0  0  0  0  0  0
    0.8947   -2.0886   -2.8129 H   0  0  0  0  0  0  0  0  0  0  0  0
    1.5383    0.4521   -2.0834 H   0  0  0  0  0  0  0  0  0  0  0  0
    2.8071    1.5286    0.0744 H   0  0  0  0  0  0  0  0  0  0  0  0
    3.4878    0.4137    1.2751 H   0  0  0  0  0  0  0  0  0  0  0  0
    4.8212    1.1678   -1.4195 H   0  0  0  0  0  0  0  0  0  0  0  0
    5.5105    0.0598   -0.2200 H   0  0  0  0  0  0  0  0  0  0  0  0
    4.8557    3.0376    0.2912 H   0  0  0  0  0  0  0  0  0  0  0  0
    5.5427    1.9280    1.4887 H   0  0  0  0  0  0  0  0  0  0  0  0
    7.3588    3.3334    0.4368 H   0  0  0  0  0  0  0  0  0  0  0  0
    6.9097    2.7272   -1.1865 H   0  0  0  0  0  0  0  0  0  0  0  0
    7.6029    1.6095    0.0227 H   0  0  0  0  0  0  0  0  0  0  0  0
  1  2  1  0  0  0  0
  1  6  1  0  0  0  0
  2 10  1  0  0  0  0
  3  2  2  0  0  0  0
  4  5  1  0  0  0  0
  4  3  1  0  0  0  0
  5  1  2  0  0  0  0
  6 15  1  0  0  0  0
  7 17  1  0  0  0  0
  7  6  1  0  0  0  0
  7  8  1  0  0  0  0
  8 19  1  0  0  0  0
  9 22  1  0  0  0  0
  9  8  1  0  0  0  0
  9 20  1  0  0  0  0
 11  3  1  0  0  0  0
 12  4  1  0  0  0  0
 13  5  1  0  0  0  0
 14  6  1  0  0  0  0
 16  7  1  0  0  0  0
 18  8  1  0  0  0  0
 21  9  1  0  0  0  0
M  END
