3
q = 0.0, confidence = 0.99

 30 31  0  0  0  0  0  0  0  0999 V2000
   -3.0774   -0.4775    1.0100 N   0  3  0  0  0  0  0  0  0  0  0  0
   -2.5199   -0.8109    0.1627 H   0  0  0  0  0  0  0  0  0  0  0  0
   -1.1250    1.5512   -0.5368 C   0  0  0  0  0  3  0  0  0  0  0  0
   -1.0150    2.4989   -1.5805 C   0  0  0  0  0  0  0  0  0  0  0  0
   -0.2624    2.3477   -2.3701 H   0  0  0  0  0  0  0  0  0  0  0  0
   -1.8381    3.6359   -1.6299 C   0  0  0  0  0  0  0  0  0  0  0  0
   -1.7231    4.3564   -2.4542 H   0  0  0  0  0  0  0  0  0  0  0  0
   -2.8007    3.8562   -0.6323 C   0  0  0  0  0  0  0  0  0  0  0  0
   -3.4392    4.7513   -0.6589 H   0  0  0  0  0  0  0  0  0  0  0  0
   -2.9448    2.9168    0.3962 C   0  0  0  0  0  0  0  0  0  0  0  0
   -3.7035    3.0765    1.1801 H   0  0  0  0  0  0  0  0  0  0  0  0
   -2.1282    1.7655    0.4483 C   0  0  0  0  0  0  0  0  0  0  0  0
   -2.3554    0.7473    1.5336 C   0  0  0  0  0  0  0  0  0  0  0  0
   -2.9654    1.1472    2.3679 H   0  0  0  0  0  0  0  0  0  0  0  0
   -1.3926    0.3712    1.9337 H   0  0  0  0  0  0  0  0  0  0  0  0
   -4.4649   -0.1792    0.5137 C   0  0  0  0  0  0  0  0  0  0  0  0
   -4.3736    0.6539   -0.2085 H   0  0  0  0  0  0  0  0  0  0  0  0
   -5.0462    0.1803    1.3891 H   0  0  0  0  0  0  0  0  0  0  0  0
   -5.0933   -1.4196   -0.1133 C   0  0  0  0  0  0  0  0  0  0  0  0
   -6.1198   -1.1583   -0.4397 H   0  0  0  0  0  0  0  0  0  0  0  0
   -4.5262   -1.6822   -1.0322 H   0  0  0  0  0  0  0  0  0  0  0  0
   -5.1012   -2.6017    0.8619 C   0  0  0  0  0  0  0  0  0  0  0  0
   -5.7794   -2.3785    1.7151 H   0  0  0  0  0  0  0  0  0  0  0  0
   -5.5045   -3.5079    0.3684 H   0  0  0  0  0  0  0  0  0  0  0  0
   -3.6851   -2.8671    1.3850 C   0  0  0  0  0  0  0  0  0  0  0  0
   -3.0312   -3.2159    0.5569 H   0  0  0  0  0  0  0  0  0  0  0  0
   -3.6807   -3.6649    2.1547 H   0  0  0  0  0  0  0  0  0  0  0  0
   -3.0673   -1.6117    1.9946 C   0  0  0  0  0  0  0  0  0  0  0  0
   -3.6263   -1.2674    2.8900 H   0  0  0  0  0  0  0  0  0  0  0  0
   -2.0106   -1.7710    2.2857 H   0  0  0  0  0  0  0  0  0  0  0  0
  1 13  1  0  0  0  0
  1 28  1  0  0  0  0
  2  1  1  0  0  0  0
  3 12  1  0  0  0  0
  4  3  2  0  0  0  0
  5  4  1  0  0  0  0
  6  4  1  0  0  0  0
  6  8  2  0  0  0  0
  7  6  1  0  0  0  0
  8 10  1  0  0  0  0
  9  8  1  0  0  0  0
 10 12  2  0  0  0  0
 10 11  1  0  0  0  0
 12 13  1  0  0  0  0
 13 15  1  0  0  0  0
 13 14  1  0  0  0  0
 16  1  1  0  0  0  0
 16 18  1  0  0  0  0
 17 16  1  0  0  0  0
 19 16  1  0  0  0  0
 19 22  1  0  0  0  0
 20 19  1  0  0  0  0
 21 19  1  0  0  0  0
 22 25  1  0  0  0  0
 22 23  1  0  0  0  0
 24 22  1  0  0  0  0
 25 28  1  0  0  0  0
 25 27  1  0  0  0  0
 26 25  1  0  0  0  0
 28 30  1  0  0  0  0
 28 29  1  0  0  0  0
M  CHG  1   1   1
M  END
