1
q = 0.0, confidence = 1.0

 27 28  0  0  0  0  0  0  0  0999 V2000
    1.5089   -0.8699   -0.2131 C   0  0  0  0  0  3  0  0  0  0  0  0
    2.6792   -0.0914   -0.2831 C   0  0  0  0  0  0  0  0  0  0  0  0
    2.8331    1.3633   -0.1656 C   0  0  0  0  0  0  0  0  0  0  0  0
    1.8774    2.1969   -0.7931 C   0  0  0  0  0  0  0  0  0  0  0  0
    1.0612    1.7347   -1.3715 H   0  0  0  0  0  0  0  0  0  0  0  0
    1.9829    3.5889   -0.6820 C   0  0  0  0  0  0  0  0  0  0  0  0
    1.2361    4.2283   -1.1763 H   0  0  0  0  0  0  0  0  0  0  0  0
    3.0329    4.1677    0.0499 C   0  0  0  0  0  0  0  0  0  0  0  0
    3.1101    5.2623    0.1352 H   0  0  0  0  0  0  0  0  0  0  0  0
    3.9802    3.3458    0.6803 C   0  0  0  0  0  0  0  0  0  0  0  0
    4.7945    3.7924    1.2706 H   0  0  0  0  0  0  0  0  0  0  0  0
    3.8811    1.9514    0.5776 C   0  0  0  0  0  0  0  0  0  0  0  0
    4.6011    1.3165    1.1145 H   0  0  0  0  0  0  0  0  0  0  0  0
    1.9644   -2.1425   -0.4412 N   0  0  0  0  0  0  0  0  0  0  0  0
    1.1544   -3.3645   -0.4342 C   0  0  0  0  0  0  0  0  0  0  0  0
    1.6345   -4.0637   -1.1460 H   0  0  0  0  0  0  0  0  0  0  0  0
    0.1694   -3.0614   -0.8407 H   0  0  0  0  0  0  0  0  0  0  0  0
    1.0296   -3.9556    0.9660 C   0  0  0  0  0  0  0  0  0  0  0  0
    2.0207   -4.2652    1.3530 H   0  0  0  0  0  0  0  0  0  0  0  0
    0.3729   -4.8472    0.9348 H   0  0  0  0  0  0  0  0  0  0  0  0
    0.5918   -3.2092    1.6599 H   0  0  0  0  0  0  0  0  0  0  0  0
    3.2772   -2.2367   -0.6351 N   0  0  0  0  0  2  0  0  0  0  0  0
    3.6996   -0.9841   -0.5412 N   0  0  0  0  0  0  0  0  0  0  0  0
    5.1127   -0.7161   -0.7573 C   0  0  0  0  0  0  0  0  0  0  0  0
    5.5151   -1.5156   -1.4036 H   0  0  0  0  0  0  0  0  0  0  0  0
    5.6623   -0.7071    0.2040 H   0  0  0  0  0  0  0  0  0  0  0  0
    5.2212    0.2677   -1.2484 H   0  0  0  0  0  0  0  0  0  0  0  0
  2  1  2  0  0  0  0
  2  3  1  0  0  0  0
  3 12  1  0  0  0  0
  4  6  1  0  0  0  0
  4  3  2  0  0  0  0
  5  4  1  0  0  0  0
  6  8  2  0  0  0  0
  7  6  1  0  0  0  0
  8  9  1  0  0  0  0
  8 10  1  0  0  0  0
 10 11  1  0  0  0  0
 12 10  2  0  0  0  0
 12 13  1  0  0  0  0
 14 15  1  0  0  0  0
 14  1  1  0  0  0  0
 15 18  1  0  0  0  0
 16 15  1  0  0  0  0
 17 15  1  0  0  0  0
 18 19  1  0  0  0  0
 18 21  1  0  0  0  0
 20 18  1  0  0  0  0
 22 23  1  0  0  0  0
 22 14  1  0  0  0  0
 23  2  1  0  0  0  0
 24 23  1  0  0  0  0
 24 26  1  0  0  0  0
 25 24  1  0  0  0  0
 27 24  1  0  0  0  0
M  END
