7
q = -1.0, confidence = 0.0

 33 33  0  0  0  0  0  0  0  0999 V2000
    2.3389   -0.9395   -0.5424 S   0  0  0  0  0  0  0  0  0  0  0  0
    1.2073    1.5689    0.6316 S   0  0  0  0  0  0  0  0  0  0  0  0
   -2.6073   -0.5421    2.0270 O   0  0  0  0  0  0  0  0  0  0  0  0
    3.7658    1.2839   -0.0710 N   0  0  0  0  0  0  0  0  0  0  0  0
   -1.2502    0.8975    0.8403 N   0  0  0  0  0  2  0  0  0  0  0  0
   -2.4724    0.3394    1.1761 C   0  0  0  0  0  0  0  0  0  0  0  0
   -0.1678    0.3192    0.4721 C   0  0  0  0  0  2  0  0  0  0  0  0
    2.5572    0.6753   -0.0133 C   0  0  0  0  0  0  0  0  0  0  0  0
    4.9294    0.5887   -0.6350 C   0  0  0  0  0  0  0  0  0  0  0  0
    5.6892   -0.2347    0.4043 C   0  0  0  0  0  0  0  0  0  0  0  0
    3.9776    2.6500    0.4207 C   0  0  0  0  0  0  0  0  0  0  0  0
    3.7279    3.7178   -0.6440 C   0  0  0  0  0  0  0  0  0  0  0  0
   -3.6492    0.9424    0.4600 C   0  0  0  0  0  0  0  0  0  0  0  0
   -3.5019    1.9986   -0.4625 C   0  0  0  0  0  0  0  0  0  0  0  0
   -4.6208    2.5022   -1.1408 C   0  0  0  0  0  0  0  0  0  0  0  0
   -5.8938    1.9594   -0.8970 C   0  0  0  0  0  0  0  0  0  0  0  0
   -6.0464    0.9121    0.0286 C   0  0  0  0  0  0  0  0  0  0  0  0
   -4.9294    0.4065    0.7049 C   0  0  0  0  0  0  0  0  0  0  0  0
   -2.4986    2.4190   -0.6277 H   0  0  0  0  0  0  0  0  0  0  0  0
   -4.5028    3.3276   -1.8596 H   0  0  0  0  0  0  0  0  0  0  0  0
   -6.7722    2.3569   -1.4284 H   0  0  0  0  0  0  0  0  0  0  0  0
   -7.0446    0.4900    0.2218 H   0  0  0  0  0  0  0  0  0  0  0  0
   -5.0128   -0.4110    1.4366 H   0  0  0  0  0  0  0  0  0  0  0  0
    4.5705   -0.0610   -1.4594 H   0  0  0  0  0  0  0  0  0  0  0  0
    5.5834    1.3616   -1.0889 H   0  0  0  0  0  0  0  0  0  0  0  0
    3.3154    2.8092    1.2970 H   0  0  0  0  0  0  0  0  0  0  0  0
    5.0201    2.7041    0.7981 H   0  0  0  0  0  0  0  0  0  0  0  0
    5.0322   -1.0192    0.8278 H   0  0  0  0  0  0  0  0  0  0  0  0
    6.0600    0.4009    1.2337 H   0  0  0  0  0  0  0  0  0  0  0  0
    6.5631   -0.7299   -0.0639 H   0  0  0  0  0  0  0  0  0  0  0  0
    3.9224    4.7264   -0.2279 H   0  0  0  0  0  0  0  0  0  0  0  0
    2.6759    3.6841   -0.9893 H   0  0  0  0  0  0  0  0  0  0  0  0
    4.3901    3.5764   -1.5219 H   0  0  0  0  0  0  0  0  0  0  0  0
  1  8  2  0  0  0  0
  4  8  1  0  0  0  0
  4 11  1  0  0  0  0
  5  6  1  0  0  0  0
  6  3  2  0  0  0  0
  7  2  1  0  0  0  0
  7  5  1  0  0  0  0
  8  2  1  0  0  0  0
  9  4  1  0  0  0  0
  9 10  1  0  0  0  0
 10 28  1  0  0  0  0
 10 29  1  0  0  0  0
 11 27  1  0  0  0  0
 11 26  1  0  0  0  0
 12 31  1  0  0  0  0
 12 11  1  0  0  0  0
 13 18  1  0  0  0  0
 13  6  1  0  0  0  0
 14 13  2  0  0  0  0
 15 16  2  0  0  0  0
 15 14  1  0  0  0  0
 16 17  1  0  0  0  0
 17 22  1  0  0  0  0
 17 18  2  0  0  0  0
 18 23  1  0  0  0  0
 19 14  1  0  0  0  0
 20 15  1  0  0  0  0
 21 16  1  0  0  0  0
 24  9  1  0  0  0  0
 25  9  1  0  0  0  0
 30 10  1  0  0  0  0
 32 12  1  0  0  0  0
 33 12  1  0  0  0  0
M  END
