10
q = 0.0, confidence = 0.994

 57 59  0  0  0  0  0  0  0  0999 V2000
    5.1122   -0.4271    1.4403 F   0  0  0  0  0  0  0  0  0  0  0  0
    3.6938   -1.4471    2.7313 F   0  0  0  0  0  0  0  0  0  0  0  0
    3.2945    0.5857    2.0905 F   0  0  0  0  0  0  0  0  0  0  0  0
    3.1592   -2.9445   -1.1678 F   0  0  0  0  0  0  0  0  0  0  0  0
    4.3583   -3.1585    0.6401 F   0  0  0  0  0  0  0  0  0  0  0  0
    4.9400   -1.7284   -0.8904 F   0  0  0  0  0  0  0  0  0  0  0  0
    1.7740   -1.6652    0.9218 O   0  0  0  0  0  0  0  0  0  0  0  0
    0.3751   -0.8624   -1.1891 N   0  0  0  0  0  0  0  0  0  0  0  0
   -1.6095   -1.5926   -0.7196 N   0  0  0  0  0  0  0  0  0  0  0  0
   -0.8126   -0.4728   -0.6040 C   0  0  0  0  0  2  0  0  0  0  0  0
    1.5068    0.0061   -1.3821 C   0  0  0  0  0  0  0  0  0  0  0  0
    1.3877    0.9486   -2.4378 C   0  0  0  0  0  0  0  0  0  0  0  0
    0.2025    0.9415   -3.3614 C   0  0  0  0  0  0  0  0  0  0  0  0
    0.4187    1.5316   -4.2717 H   0  0  0  0  0  0  0  0  0  0  0  0
   -0.7047    1.3683   -2.8754 H   0  0  0  0  0  0  0  0  0  0  0  0
   -0.0702   -0.0885   -3.6672 H   0  0  0  0  0  0  0  0  0  0  0  0
    2.4167    1.8858   -2.6234 C   0  0  0  0  0  0  0  0  0  0  0  0
    2.3113    2.6261   -3.4325 H   0  0  0  0  0  0  0  0  0  0  0  0
    3.5696    1.8941   -1.8236 C   0  0  0  0  0  0  0  0  0  0  0  0
    4.6366    2.9426   -2.0047 C   0  0  0  0  0  0  0  0  0  0  0  0
    4.7757    3.2027   -3.0727 H   0  0  0  0  0  0  0  0  0  0  0  0
    5.6111    2.6122   -1.5960 H   0  0  0  0  0  0  0  0  0  0  0  0
    4.3571    3.8796   -1.4769 H   0  0  0  0  0  0  0  0  0  0  0  0
    3.7019    0.8931   -0.8496 C   0  0  0  0  0  0  0  0  0  0  0  0
    4.6328    0.8611   -0.2712 H   0  0  0  0  0  0  0  0  0  0  0  0
    2.6947   -0.0608   -0.6015 C   0  0  0  0  0  0  0  0  0  0  0  0
    2.9908   -1.1622    0.4404 C   0  0  0  0  0  0  0  0  0  0  0  0
    1.6390   -2.9917    1.4378 C   0  0  0  0  0  0  0  0  0  0  0  0
    0.6197   -3.0269    1.8639 H   0  0  0  0  0  0  0  0  0  0  0  0
    2.3728   -3.2224    2.2325 H   0  0  0  0  0  0  0  0  0  0  0  0
    1.7077   -3.7486    0.6294 H   0  0  0  0  0  0  0  0  0  0  0  0
    3.7892   -0.5963    1.6893 C   0  0  0  0  0  0  0  0  0  0  0  0
    3.8856   -2.2601   -0.2523 C   0  0  0  0  0  0  0  0  0  0  0  0
    0.3047   -2.1645   -1.6784 C   0  0  0  0  0  0  0  0  0  0  0  0
    1.1462   -2.6356   -2.1879 H   0  0  0  0  0  0  0  0  0  0  0  0
   -0.9420   -2.6285   -1.3714 C   0  0  0  0  0  0  0  0  0  0  0  0
   -1.4194   -3.5951   -1.5542 H   0  0  0  0  0  0  0  0  0  0  0  0
   -2.9993   -1.6813   -0.3493 C   0  0  0  0  0  0  0  0  0  0  0  0
   -3.3584   -1.9157    0.9938 C   0  0  0  0  0  0  0  0  0  0  0  0
   -2.3439   -2.1867    2.0741 C   0  0  0  0  0  0  0  0  0  0  0  0
   -2.4961   -3.2007    2.4993 H   0  0  0  0  0  0  0  0  0  0  0  0
   -2.4445   -1.4668    2.9106 H   0  0  0  0  0  0  0  0  0  0  0  0
   -1.3087   -2.1222    1.6959 H   0  0  0  0  0  0  0  0  0  0  0  0
   -4.7301   -1.9588    1.3130 C   0  0  0  0  0  0  0  0  0  0  0  0
   -5.0222   -2.1294    2.3620 H   0  0  0  0  0  0  0  0  0  0  0  0
   -5.7265   -1.8072    0.3373 C   0  0  0  0  0  0  0  0  0  0  0  0
   -7.1890   -1.8099    0.7036 C   0  0  0  0  0  0  0  0  0  0  0  0
   -7.3574   -2.2142    1.7206 H   0  0  0  0  0  0  0  0  0  0  0  0
   -7.7873   -2.4097   -0.0117 H   0  0  0  0  0  0  0  0  0  0  0  0
   -7.6018   -0.7787    0.6822 H   0  0  0  0  0  0  0  0  0  0  0  0
   -5.3233   -1.6447   -1.0026 C   0  0  0  0  0  0  0  0  0  0  0  0
   -6.0889   -1.5523   -1.7894 H   0  0  0  0  0  0  0  0  0  0  0  0
   -3.9725   -1.5840   -1.3765 C   0  0  0  0  0  0  0  0  0  0  0  0
   -3.5796   -1.4121   -2.8187 C   0  0  0  0  0  0  0  0  0  0  0  0
   -3.0127   -0.4646   -2.9364 H   0  0  0  0  0  0  0  0  0  0  0  0
   -4.4763   -1.3608   -3.4642 H   0  0  0  0  0  0  0  0  0  0  0  0
   -2.9420   -2.2442   -3.1813 H   0  0  0  0  0  0  0  0  0  0  0  0
  1 32  1  0  0  0  0
  4 33  1  0  0  0  0
  6 33  1  0  0  0  0
  7 28  1  0  0  0  0
  8 10  1  0  0  0  0
  9 10  1  0  0  0  0
  9 38  1  0  0  0  0
 11  8  1  0  0  0  0
 11 26  1  0  0  0  0
 12 11  2  0  0  0  0
 13 15  1  0  0  0  0
 13 12  1  0  0  0  0
 14 13  1  0  0  0  0
 16 13  1  0  0  0  0
 17 12  1  0  0  0  0
 17 19  2  0  0  0  0
 18 17  1  0  0  0  0
 19 24  1  0  0  0  0
 20 19  1  0  0  0  0
 20 22  1  0  0  0  0
 20 23  1  0  0  0  0
 21 20  1  0  0  0  0
 24 26  2  0  0  0  0
 24 25  1  0  0  0  0
 26 27  1  0  0  0  0
 27  7  1  0  0  0  0
 27 32  1  0  0  0  0
 28 29  1  0  0  0  0
 28 30  1  0  0  0  0
 31 28  1  0  0  0  0
 32  3  1  0  0  0  0
 32  2  1  0  0  0  0
 33 27  1  0  0  0  0
 33  5  1  0  0  0  0
 34 36  2  0  0  0  0
 34  8  1  0  0  0  0
 35 34  1  0  0  0  0
 36  9  1  0  0  0  0
 37 36  1  0  0  0  0
 38 39  1  0  0  0  0
 39 44  2  0  0  0  0
 39 40  1  0  0  0  0
 40 41  1  0  0  0  0
 40 42  1  0  0  0  0
 43 40  1  0  0  0  0
 44 45  1  0  0  0  0
 46 47  1  0  0  0  0
 46 44  1  0  0  0  0
 47 48  1  0  0  0  0
 49 47  1  0  0  0  0
 50 47  1  0  0  0  0
 51 46  2  0  0  0  0
 52 51  1  0  0  0  0
 53 51  1  0  0  0  0
 53 38  2  0  0  0  0
 54 53  1  0  0  0  0
 55 54  1  0  0  0  0
 56 54  1  0  0  0  0
 57 54  1  0  0  0  0
M  END
