5
q = 0.0, confidence = 0.89

 10 10  0  0  0  0  0  0  0  0999 V2000
   -2.1771    2.2816   -0.2316 O   0  0  0  0  0  0  0  0  0  0  0  0
   -0.9991    2.0456   -0.0471 C   0  0  0  0  0  0  0  0  0  0  0  0
    0.1379    1.9634   -1.0497 C   0  0  0  0  0  3  0  0  0  0  0  0
    1.3665    2.0716   -0.3470 C   0  0  0  0  0  3  0  0  0  0  0  0
    1.0933    1.8424    1.0620 C   0  0  0  0  0  3  0  0  0  0  0  0
   -0.3038    1.5987    1.2133 C   0  0  0  0  0  3  0  0  0  0  0  0
    0.0092    2.0842   -2.1332 H   0  0  0  0  0  0  0  0  0  0  0  0
    2.3511    2.3000   -0.7757 H   0  0  0  0  0  0  0  0  0  0  0  0
    1.8342    1.8981    1.8699 H   0  0  0  0  0  0  0  0  0  0  0  0
   -0.8141    1.4892    2.1792 H   0  0  0  0  0  0  0  0  0  0  0  0
  1  2  2  0  0  0  0
  2  6  1  0  0  0  0
  3  4  1  0  0  0  0
  3  2  1  0  0  0  0
  4  5  1  0  0  0  0
  5  6  1  0  0  0  0
  5  9  1  0  0  0  0
  6 10  1  0  0  0  0
  7  3  1  0  0  0  0
  8  4  1  0  0  0  0
M  END
