1
q = 0.0, confidence = 0.934

 13 13  0  0  0  0  0  0  0  0999 V2000
    0.3963    0.8146   -0.0025 C   0  0  0  0  0  2  0  0  0  0  0  0
    0.3080    2.1856   -0.0036 F   0  0  0  0  0  0  0  0  0  0  0  0
    1.8292    0.4525   -0.0017 C   0  0  0  0  0  0  0  0  0  0  0  0
    2.2598   -0.8988   -0.0013 C   0  0  0  0  0  0  0  0  0  0  0  0
    3.6206   -1.2186   -0.0004 C   0  0  0  0  0  0  0  0  0  0  0  0
    4.5902   -0.2015    0.0002 C   0  0  0  0  0  0  0  0  0  0  0  0
    4.1843    1.1428   -0.0002 C   0  0  0  0  0  0  0  0  0  0  0  0
    2.8238    1.4672   -0.0012 C   0  0  0  0  0  0  0  0  0  0  0  0
    1.5232   -1.7111   -0.0019 H   0  0  0  0  0  0  0  0  0  0  0  0
    3.9285   -2.2749   -0.0002 H   0  0  0  0  0  0  0  0  0  0  0  0
    5.6607   -0.4574    0.0009 H   0  0  0  0  0  0  0  0  0  0  0  0
    4.9363    1.9465    0.0002 H   0  0  0  0  0  0  0  0  0  0  0  0
    2.5094    2.5188   -0.0015 H   0  0  0  0  0  0  0  0  0  0  0  0
  1  3  1  0  0  0  0
  2  1  1  0  0  0  0
  3  4  2  0  0  0  0
  3  8  1  0  0  0  0
  4  5  1  0  0  0  0
  5 10  1  0  0  0  0
  5  6  2  0  0  0  0
  6 11  1  0  0  0  0
  7  6  1  0  0  0  0
  7 12  1  0  0  0  0
  8  7  2  0  0  0  0
  9  4  1  0  0  0  0
 13  8  1  0  0  0  0
M  END
