5
q = 0.0, confidence = 0.996

 44 45  0  0  1  0  0  0  0  0999 V2000
    1.2914    2.8440   -1.2101 N   0  0  0  0  0  0  0  0  0  0  0  0
   -0.6240    2.0685   -0.5551 N   0  0  0  0  0  0  0  0  0  0  0  0
   -2.7817    1.3347   -0.0262 N   0  0  0  0  0  0  0  0  0  0  0  0
   -0.9754   -0.2153   -0.4254 N   0  0  0  0  0  2  0  0  0  0  0  0
    0.7027    1.7362   -0.6980 C   0  0  0  0  0  2  0  0  0  0  0  0
    0.3472    3.8714   -1.3488 C   0  0  0  0  0  0  0  0  0  0  0  0
    0.6206    4.8548   -1.7438 H   0  0  0  0  0  0  0  0  0  0  0  0
   -0.8645    3.3868   -0.9368 C   0  0  0  0  0  0  0  0  0  0  0  0
   -1.8635    3.8292   -0.8983 H   0  0  0  0  0  0  0  0  0  0  0  0
    2.6789    2.9172   -1.6511 C   0  0  0  0  0  0  0  0  0  0  0  0
    3.2923    3.5060   -0.9412 H   0  0  0  0  0  0  0  0  0  0  0  0
    2.7194    3.3966   -2.6469 H   0  0  0  0  0  0  0  0  0  0  0  0
    3.0619    1.8842   -1.7408 H   0  0  0  0  0  0  0  0  0  0  0  0
   -1.5337    1.0249   -0.2985 C   0  0  0  0  0  0  0  0  0  0  0  0
   -3.6410    0.3022    0.1494 C   0  0  0  0  0  0  0  0  0  0  0  0
   -3.2057   -1.0008   -0.1394 C   0  0  0  0  0  0  0  0  0  0  0  0
   -3.9201   -1.8278   -0.1248 H   0  0  0  0  0  0  0  0  0  0  0  0
   -1.8667   -1.2534   -0.5089 C   0  0  1  0  0  3  0  0  0  0  0  0
   -5.0460    0.6583    0.6183 C   0  0  0  0  0  0  0  0  0  0  0  0
   -5.6705    1.6244   -0.4152 C   0  0  0  0  0  0  0  0  0  0  0  0
   -5.7865    1.1347   -1.4029 H   0  0  0  0  0  0  0  0  0  0  0  0
   -5.0418    2.5260   -0.5446 H   0  0  0  0  0  0  0  0  0  0  0  0
   -6.6740    1.9428   -0.0699 H   0  0  0  0  0  0  0  0  0  0  0  0
   -4.9080    1.3761    1.9827 C   0  0  0  0  0  0  0  0  0  0  0  0
   -4.2634    2.2718    1.8941 H   0  0  0  0  0  0  0  0  0  0  0  0
   -4.4704    0.7030    2.7480 H   0  0  0  0  0  0  0  0  0  0  0  0
   -5.9068    1.6961    2.3399 H   0  0  0  0  0  0  0  0  0  0  0  0
   -5.9353   -0.5842    0.7740 C   0  0  0  0  0  0  0  0  0  0  0  0
   -6.9366   -0.2810    1.1369 H   0  0  0  0  0  0  0  0  0  0  0  0
   -5.5213   -1.3022    1.5105 H   0  0  0  0  0  0  0  0  0  0  0  0
   -6.0827   -1.1135   -0.1891 H   0  0  0  0  0  0  0  0  0  0  0  0
   -1.5029   -2.5646   -1.2216 C   0  0  0  0  0  0  0  0  0  0  0  0
   -2.6192   -3.6166   -1.0693 C   0  0  0  0  0  0  0  0  0  0  0  0
   -2.3035   -4.5455   -1.5819 H   0  0  0  0  0  0  0  0  0  0  0  0
   -3.5731   -3.3026   -1.5363 H   0  0  0  0  0  0  0  0  0  0  0  0
   -2.8101   -3.8722   -0.0071 H   0  0  0  0  0  0  0  0  0  0  0  0
   -0.1781   -3.2131   -0.7965 C   0  0  0  0  0  0  0  0  0  0  0  0
    0.6735   -2.5174   -0.8889 H   0  0  0  0  0  0  0  0  0  0  0  0
    0.0278   -4.0667   -1.4714 H   0  0  0  0  0  0  0  0  0  0  0  0
   -0.2385   -3.6084    0.2327 H   0  0  0  0  0  0  0  0  0  0  0  0
   -1.4031   -2.1490   -2.7193 C   0  0  0  0  0  0  0  0  0  0  0  0
   -0.5355   -1.4818   -2.8869 H   0  0  0  0  0  0  0  0  0  0  0  0
   -2.3286   -1.6441   -3.0621 H   0  0  0  0  0  0  0  0  0  0  0  0
   -1.2648   -3.0621   -3.3326 H   0  0  0  0  0  0  0  0  0  0  0  0
  1  5  1  0  0  0  0
  2 14  1  0  0  0  0
  3 15  1  0  0  0  0
  4 14  1  0  0  0  0
  5  2  1  0  0  0  0
  6  1  1  0  0  0  0
  6  8  2  0  0  0  0
  7  6  1  0  0  0  0
  8  9  1  0  0  0  0
  8  2  1  0  0  0  0
 10  1  1  0  0  0  0
 10 11  1  0  0  0  0
 12 10  1  0  0  0  0
 13 10  1  0  0  0  0
 14  3  2  0  0  0  0
 15 19  1  0  0  0  0
 16 17  1  0  0  0  0
 16 15  2  0  0  0  0
 18 32  1  6  0  0  0
 18  4  1  0  0  0  0
 18 16  1  0  0  0  0
 19 28  1  0  0  0  0
 19 24  1  0  0  0  0
 20 23  1  0  0  0  0
 20 19  1  0  0  0  0
 21 20  1  0  0  0  0
 22 20  1  0  0  0  0
 24 27  1  0  0  0  0
 24 26  1  0  0  0  0
 25 24  1  0  0  0  0
 28 29  1  0  0  0  0
 28 30  1  0  0  0  0
 31 28  1  0  0  0  0
 32 33  1  0  0  0  0
 32 37  1  0  0  0  0
 33 36  1  0  0  0  0
 34 33  1  0  0  0  0
 35 33  1  0  0  0  0
 37 40  1  0  0  0  0
 38 37  1  0  0  0  0
 39 37  1  0  0  0  0
 41 32  1  0  0  0  0
 42 41  1  0  0  0  0
 43 41  1  0  0  0  0
 44 41  1  0  0  0  0
M  END
