4
q = 0.0, confidence = 0.984

 31 30  0  0  0  0  0  0  0  0999 V2000
   -2.5032   -0.5951   -0.1366 N   0  0  0  0  0  0  0  0  0  0  0  0
   -3.4898   -0.3276   -0.0574 H   0  0  0  0  0  0  0  0  0  0  0  0
   -1.9870    1.6156    0.2412 N   0  0  0  0  0  0  0  0  0  0  0  0
   -1.5628    0.3527    0.0062 C   0  0  0  0  0  2  0  0  0  0  0  0
   -2.3073   -2.0499   -0.4080 C   0  0  0  0  0  0  0  0  0  0  0  0
   -1.6244   -2.2501   -1.7710 C   0  0  0  0  0  0  0  0  0  0  0  0
   -1.5170   -3.3309   -1.9886 H   0  0  0  0  0  0  0  0  0  0  0  0
   -0.6116   -1.7965   -1.7684 H   0  0  0  0  0  0  0  0  0  0  0  0
   -2.2170   -1.7821   -2.5826 H   0  0  0  0  0  0  0  0  0  0  0  0
   -3.7214   -2.6519   -0.4390 C   0  0  0  0  0  0  0  0  0  0  0  0
   -3.6677   -3.7377   -0.6442 H   0  0  0  0  0  0  0  0  0  0  0  0
   -4.3387   -2.1882   -1.2369 H   0  0  0  0  0  0  0  0  0  0  0  0
   -4.2365   -2.5179    0.5352 H   0  0  0  0  0  0  0  0  0  0  0  0
   -1.4898   -2.7031    0.7190 C   0  0  0  0  0  0  0  0  0  0  0  0
   -1.4060   -3.7933    0.5428 H   0  0  0  0  0  0  0  0  0  0  0  0
   -1.9743   -2.5405    1.7026 H   0  0  0  0  0  0  0  0  0  0  0  0
   -0.4617   -2.2879    0.7605 H   0  0  0  0  0  0  0  0  0  0  0  0
   -1.0183    2.7084    0.4319 C   0  0  0  0  0  0  0  0  0  0  0  0
   -0.1008    2.2688    0.8726 H   0  0  0  0  0  0  0  0  0  0  0  0
   -1.4433    3.4035    1.1866 H   0  0  0  0  0  0  0  0  0  0  0  0
   -0.6785    3.4408   -0.8626 C   0  0  0  0  0  0  0  0  0  0  0  0
    0.0252    4.2720   -0.6584 H   0  0  0  0  0  0  0  0  0  0  0  0
   -1.5795    3.8672   -1.3501 H   0  0  0  0  0  0  0  0  0  0  0  0
   -0.1894    2.7447   -1.5737 H   0  0  0  0  0  0  0  0  0  0  0  0
   -3.4027    1.9963    0.3055 C   0  0  0  0  0  0  0  0  0  0  0  0
   -3.9683    1.4409   -0.4757 H   0  0  0  0  0  0  0  0  0  0  0  0
   -3.4747    3.0613    0.0070 H   0  0  0  0  0  0  0  0  0  0  0  0
   -4.0240    1.7884    1.6893 C   0  0  0  0  0  0  0  0  0  0  0  0
   -5.0866    2.1034    1.6927 H   0  0  0  0  0  0  0  0  0  0  0  0
   -3.4875    2.3842    2.4541 H   0  0  0  0  0  0  0  0  0  0  0  0
   -3.9770    0.7263    2.0024 H   0  0  0  0  0  0  0  0  0  0  0  0
  1  2  1  0  0  0  0
  1  4  1  0  0  0  0
  3 25  1  0  0  0  0
  3 18  1  0  0  0  0
  4  3  1  0  0  0  0
  5  1  1  0  0  0  0
  5 14  1  0  0  0  0
  6  8  1  0  0  0  0
  6  5  1  0  0  0  0
  7  6  1  0  0  0  0
  9  6  1  0  0  0  0
 10  5  1  0  0  0  0
 10 13  1  0  0  0  0
 11 10  1  0  0  0  0
 12 10  1  0  0  0  0
 14 17  1  0  0  0  0
 14 16  1  0  0  0  0
 15 14  1  0  0  0  0
 18 19  1  0  0  0  0
 18 20  1  0  0  0  0
 21 22  1  0  0  0  0
 21 18  1  0  0  0  0
 23 21  1  0  0  0  0
 24 21  1  0  0  0  0
 25 28  1  0  0  0  0
 26 25  1  0  0  0  0
 27 25  1  0  0  0  0
 28 29  1  0  0  0  0
 28 31  1  0  0  0  0
 28 30  1  0  0  0  0
M  END
