3
q = 0.0, confidence = 0.964

 46 48  0  0  1  0  0  0  0  0999 V2000
   -1.1714   -0.3271   -0.3084 C   0  0  0  0  0  3  0  0  0  0  0  0
   -0.5928   -1.1201   -0.8083 H   0  0  0  0  0  0  0  0  0  0  0  0
   -1.5142   -0.5479    1.0729 C   0  0  0  0  0  3  0  0  0  0  0  0
   -1.1576   -1.4087    1.6577 H   0  0  0  0  0  0  0  0  0  0  0  0
   -2.4761    0.3661    1.5923 C   0  0  0  0  0  3  0  0  0  0  0  0
   -2.9108    0.2417    2.5958 H   0  0  0  0  0  0  0  0  0  0  0  0
   -2.9280    1.3529    0.6479 C   0  0  0  0  0  3  0  0  0  0  0  0
   -3.8147    1.9418    0.9359 H   0  0  0  0  0  0  0  0  0  0  0  0
   -1.9329    2.0668   -0.2444 C   0  0  0  0  0  0  0  0  0  0  0  0
   -1.4446    2.8777    0.3430 H   0  0  0  0  0  0  0  0  0  0  0  0
   -2.4574    2.5812   -1.0721 H   0  0  0  0  0  0  0  0  0  0  0  0
   -0.8824    1.0822   -0.8056 C   0  0  1  0  0  0  0  0  0  0  0  0
   -0.9195    1.0843   -1.9130 H   0  0  0  0  0  0  0  0  0  0  0  0
    0.5605    1.4885   -0.4131 C   0  0  2  0  0  0  0  0  0  0  0  0
    0.5970    1.6179    0.6963 H   0  0  0  0  0  0  0  0  0  0  0  0
    0.9291    2.8398   -1.0421 C   0  0  0  0  0  0  0  0  0  0  0  0
    0.2559    3.4708   -1.8318 O   0  0  0  0  0  0  0  0  0  0  0  0
    2.1450    3.2495   -0.6016 O   0  0  0  0  0  0  0  0  0  0  0  0
    2.6192    4.4803   -1.1643 C   0  0  0  0  0  0  0  0  0  0  0  0
    3.6081    4.6652   -0.7089 H   0  0  0  0  0  0  0  0  0  0  0  0
    1.9235    5.3124   -0.9351 H   0  0  0  0  0  0  0  0  0  0  0  0
    2.7098    4.3967   -2.2658 H   0  0  0  0  0  0  0  0  0  0  0  0
    1.5073    0.5179   -0.9170 N   0  0  0  0  0  0  0  0  0  0  0  0
    2.2698   -0.1786   -0.1386 C   0  0  0  0  0  0  0  0  0  0  0  0
    2.2924   -0.0568    1.3572 C   0  0  0  0  0  0  0  0  0  0  0  0
    1.8790   -1.1461    2.1541 C   0  0  0  0  0  0  0  0  0  0  0  0
    1.5807   -2.0873    1.6669 H   0  0  0  0  0  0  0  0  0  0  0  0
    1.8456   -1.0333    3.5512 C   0  0  0  0  0  0  0  0  0  0  0  0
    1.5147   -1.8876    4.1614 H   0  0  0  0  0  0  0  0  0  0  0  0
    2.2390    0.1645    4.1704 C   0  0  0  0  0  0  0  0  0  0  0  0
    2.2183    0.2513    5.2674 H   0  0  0  0  0  0  0  0  0  0  0  0
    2.6618    1.2486    3.3855 C   0  0  0  0  0  0  0  0  0  0  0  0
    2.9749    2.1879    3.8665 H   0  0  0  0  0  0  0  0  0  0  0  0
    2.6852    1.1431    1.9864 C   0  0  0  0  0  0  0  0  0  0  0  0
    3.0029    1.9936    1.3652 H   0  0  0  0  0  0  0  0  0  0  0  0
    3.1583   -1.1999   -0.7671 C   0  0  0  0  0  0  0  0  0  0  0  0
    2.9858   -1.5301   -2.1311 C   0  0  0  0  0  0  0  0  0  0  0  0
    2.1869   -1.0164   -2.6853 H   0  0  0  0  0  0  0  0  0  0  0  0
    3.8123   -2.4768   -2.7432 C   0  0  0  0  0  0  0  0  0  0  0  0
    3.6626   -2.7296   -3.8041 H   0  0  0  0  0  0  0  0  0  0  0  0
    4.8320   -3.1078   -2.0071 C   0  0  0  0  0  0  0  0  0  0  0  0
    5.4816   -3.8538   -2.4899 H   0  0  0  0  0  0  0  0  0  0  0  0
    5.0184   -2.7813   -0.6555 C   0  0  0  0  0  0  0  0  0  0  0  0
    5.8192   -3.2651   -0.0759 H   0  0  0  0  0  0  0  0  0  0  0  0
    4.1870   -1.8353   -0.0375 C   0  0  0  0  0  0  0  0  0  0  0  0
    4.3435   -1.5778    1.0201 H   0  0  0  0  0  0  0  0  0  0  0  0
  1  3  1  0  0  0  0
  2  1  1  0  0  0  0
  3  5  1  0  0  0  0
  3  4  1  0  0  0  0
  5  6  1  0  0  0  0
  7  8  1  0  0  0  0
  7  5  1  0  0  0  0
  9 10  1  0  0  0  0
  9  7  1  0  0  0  0
 11  9  1  0  0  0  0
 12 13  1  6  0  0  0
 12 14  1  0  0  0  0
 12  1  1  0  0  0  0
 12  9  1  0  0  0  0
 14 15  1  1  0  0  0
 16 18  1  0  0  0  0
 16 14  1  0  0  0  0
 17 16  2  0  0  0  0
 19 21  1  0  0  0  0
 19 20  1  0  0  0  0
 19 18  1  0  0  0  0
 22 19  1  0  0  0  0
 23 14  1  0  0  0  0
 23 24  2  0  0  0  0
 24 25  1  0  0  0  0
 25 34  2  0  0  0  0
 25 26  1  0  0  0  0
 26 28  2  0  0  0  0
 27 26  1  0  0  0  0
 28 29  1  0  0  0  0
 28 30  1  0  0  0  0
 30 31  1  0  0  0  0
 32 33  1  0  0  0  0
 32 30  2  0  0  0  0
 34 32  1  0  0  0  0
 35 34  1  0  0  0  0
 36 24  1  0  0  0  0
 36 45  1  0  0  0  0
 37 36  2  0  0  0  0
 38 37  1  0  0  0  0
 39 37  1  0  0  0  0
 39 41  2  0  0  0  0
 40 39  1  0  0  0  0
 41 43  1  0  0  0  0
 42 41  1  0  0  0  0
 43 44  1  0  0  0  0
 43 45  2  0  0  0  0
 45 46  1  0  0  0  0
M  END
