2
q = -1.0, confidence = 0.0

 46 50  0  0  1  0  0  0  0  0999 V2000
   -0.6979   -1.1911    1.4630 C   0  0  0  0  0  0  0  0  0  0  0  0
   -1.1718    0.0573    0.8714 C   0  0  2  0  0  3  0  0  0  0  0  0
    0.0030    0.8517    0.5561 C   0  0  0  0  0  0  0  0  0  0  0  0
    1.1968    0.0777    0.8489 C   0  0  0  0  0  0  0  0  0  0  0  0
    0.7540   -1.1790    1.4472 C   0  0  0  0  0  0  0  0  0  0  0  0
   -2.5856    0.4944    0.7938 C   0  0  0  0  0  0  0  0  0  0  0  0
   -3.4071    0.4057    1.9394 C   0  0  0  0  0  0  0  0  0  0  0  0
   -2.9887    0.0023    2.8739 H   0  0  0  0  0  0  0  0  0  0  0  0
   -4.7387    0.8468    1.9003 C   0  0  0  0  0  0  0  0  0  0  0  0
   -5.3652    0.7689    2.8019 H   0  0  0  0  0  0  0  0  0  0  0  0
   -5.2670    1.3905    0.7199 C   0  0  0  0  0  0  0  0  0  0  0  0
   -6.3115    1.7357    0.6886 H   0  0  0  0  0  0  0  0  0  0  0  0
   -4.4564    1.4866   -0.4238 C   0  0  0  0  0  0  0  0  0  0  0  0
   -4.8645    1.9053   -1.3561 H   0  0  0  0  0  0  0  0  0  0  0  0
   -3.1307    1.0381   -0.3899 C   0  0  0  0  0  0  0  0  0  0  0  0
   -2.5007    1.0964   -1.2897 H   0  0  0  0  0  0  0  0  0  0  0  0
    0.0002    2.2654    0.1077 C   0  0  0  0  0  0  0  0  0  0  0  0
   -0.8558    3.1950    0.7376 C   0  0  0  0  0  0  0  0  0  0  0  0
   -1.5381    2.8546    1.5292 H   0  0  0  0  0  0  0  0  0  0  0  0
   -0.8339    4.5469    0.3665 C   0  0  0  0  0  0  0  0  0  0  0  0
   -1.5075    5.2587    0.8672 H   0  0  0  0  0  0  0  0  0  0  0  0
    0.0408    4.9900   -0.6374 C   0  0  0  0  0  0  0  0  0  0  0  0
    0.0535    6.0503   -0.9319 H   0  0  0  0  0  0  0  0  0  0  0  0
    0.8996    4.0730   -1.2652 C   0  0  0  0  0  0  0  0  0  0  0  0
    1.5875    4.4105   -2.0548 H   0  0  0  0  0  0  0  0  0  0  0  0
    0.8821    2.7228   -0.8952 C   0  0  0  0  0  0  0  0  0  0  0  0
    1.5550    2.0084   -1.3903 H   0  0  0  0  0  0  0  0  0  0  0  0
    2.5951    0.5713    0.8632 C   0  0  0  0  0  0  0  0  0  0  0  0
    2.9024    1.7729    1.5397 C   0  0  0  0  0  0  0  0  0  0  0  0
    2.0929    2.3442    2.0171 H   0  0  0  0  0  0  0  0  0  0  0  0
    4.2228    2.2381    1.6054 C   0  0  0  0  0  0  0  0  0  0  0  0
    4.4423    3.1788    2.1329 H   0  0  0  0  0  0  0  0  0  0  0  0
    5.2607    1.5076    1.0056 C   0  0  0  0  0  0  0  0  0  0  0  0
    6.2971    1.8741    1.0565 H   0  0  0  0  0  0  0  0  0  0  0  0
    4.9678    0.3086    0.3368 C   0  0  0  0  0  0  0  0  0  0  0  0
    5.7731   -0.2676   -0.1436 H   0  0  0  0  0  0  0  0  0  0  0  0
    3.6463   -0.1544    0.2622 C   0  0  0  0  0  0  0  0  0  0  0  0
    3.4201   -1.0778   -0.2900 H   0  0  0  0  0  0  0  0  0  0  0  0
    1.4814   -2.2788    1.9923 C   0  0  0  0  0  0  0  0  0  0  0  0
    2.5805   -2.2545    1.9985 H   0  0  0  0  0  0  0  0  0  0  0  0
    0.7757   -3.3437    2.5307 C   0  0  0  0  0  0  0  0  0  0  0  0
    1.3239   -4.1902    2.9704 H   0  0  0  0  0  0  0  0  0  0  0  0
   -0.6507   -3.3718    2.5177 C   0  0  0  0  0  0  0  0  0  0  0  0
   -1.1728   -4.2447    2.9369 H   0  0  0  0  0  0  0  0  0  0  0  0
   -1.3896   -2.3268    1.9842 C   0  0  0  0  0  0  0  0  0  0  0  0
   -2.4886   -2.3498    1.9719 H   0  0  0  0  0  0  0  0  0  0  0  0
  1 45  1  0  0  0  0
  2  6  1  1  0  0  0
  2  1  1  0  0  0  0
  3  4  2  0  0  0  0
  3  2  1  0  0  0  0
  4 28  1  0  0  0  0
  4  5  1  0  0  0  0
  5  1  2  0  0  0  0
  5 39  1  0  0  0  0
  6  7  1  0  0  0  0
  7  8  1  0  0  0  0
  9  7  2  0  0  0  0
  9 10  1  0  0  0  0
 11  9  1  0  0  0  0
 12 11  1  0  0  0  0
 13 15  1  0  0  0  0
 13 11  2  0  0  0  0
 14 13  1  0  0  0  0
 15  6  2  0  0  0  0
 16 15  1  0  0  0  0
 17  3  1  0  0  0  0
 17 18  1  0  0  0  0
 18 19  1  0  0  0  0
 20 18  2  0  0  0  0
 20 21  1  0  0  0  0
 22 20  1  0  0  0  0
 23 22  1  0  0  0  0
 24 26  1  0  0  0  0
 24 22  2  0  0  0  0
 25 24  1  0  0  0  0
 26 17  2  0  0  0  0
 27 26  1  0  0  0  0
 28 29  1  0  0  0  0
 29 31  2  0  0  0  0
 29 30  1  0  0  0  0
 31 32  1  0  0  0  0
 33 34  1  0  0  0  0
 33 31  1  0  0  0  0
 35 33  2  0  0  0  0
 36 35  1  0  0  0  0
 37 35  1  0  0  0  0
 37 28  2  0  0  0  0
 38 37  1  0  0  0  0
 39 40  1  0  0  0  0
 39 41  2  0  0  0  0
 41 42  1  0  0  0  0
 43 41  1  0  0  0  0
 43 44  1  0  0  0  0
 45 43  2  0  0  0  0
 46 45  1  0  0  0  0
M  END
