1
q = 0.0, confidence = 0.872

  3  2  0  0  0  0  0  0  0  0999 V2000
   -0.1216   -2.0096   -1.0466 C   0  0  0  0  0  0  0  0  0  0  0  0
   -0.2515   -2.2626   -2.2287 O   0  5  0  0  0  0  0  0  0  0  0  0
   -0.0281   -2.6001    0.0656 O   0  0  0  0  0  0  0  0  0  0  0  0
  1  3  2  0  0  0  0
  2  1  1  0  0  0  0
M  CHG  1   2  -1
M  END
