2
q = 0.0, confidence = 0.988

 31 32  0  0  0  0  0  0  0  0999 V2000
    2.6057    2.3373   -0.7009 N   0  0  0  0  0  0  0  0  0  0  0  0
    0.1918    0.9851   -0.4458 C   0  0  0  0  0  2  0  0  0  0  0  0
    1.6448    4.1217    0.3984 O   0  0  0  0  0  0  0  0  0  0  0  0
    2.5841   -1.6210   -0.6105 C   0  0  0  0  0  0  0  0  0  0  0  0
    0.3043    2.3341   -0.2020 N   0  0  0  0  0  0  0  0  0  0  0  0
    1.5545    3.0308   -0.1482 C   0  0  0  0  0  0  0  0  0  0  0  0
    2.3379    1.2283   -1.5822 C   0  0  0  0  0  0  0  0  0  0  0  0
    2.0736    1.5714   -2.6176 H   0  0  0  0  0  0  0  0  0  0  0  0
    3.2488    0.5999   -1.6535 H   0  0  0  0  0  0  0  0  0  0  0  0
    4.8919   -2.7045    0.5938 C   0  0  0  0  0  0  0  0  0  0  0  0
    5.7925   -3.1265    1.0655 H   0  0  0  0  0  0  0  0  0  0  0  0
    1.2545    0.4165   -1.0473 N   0  0  0  0  0  0  0  0  0  0  0  0
    3.5131   -2.3518   -1.3755 C   0  0  0  0  0  0  0  0  0  0  0  0
    3.3328   -2.4984   -2.4532 H   0  0  0  0  0  0  0  0  0  0  0  0
   -0.8006    3.0490    0.4460 C   0  0  0  0  0  0  0  0  0  0  0  0
   -1.6769    2.3737    0.4500 H   0  0  0  0  0  0  0  0  0  0  0  0
   -1.0202    3.9838   -0.1039 H   0  0  0  0  0  0  0  0  0  0  0  0
   -0.5294    3.3029    1.4877 H   0  0  0  0  0  0  0  0  0  0  0  0
    1.3476   -1.0324   -1.2509 C   0  0  0  0  0  0  0  0  0  0  0  0
    1.3350   -1.2566   -2.3405 H   0  0  0  0  0  0  0  0  0  0  0  0
    0.4121   -1.4460   -0.8050 H   0  0  0  0  0  0  0  0  0  0  0  0
    3.9687   -1.9743    1.3623 C   0  0  0  0  0  0  0  0  0  0  0  0
    4.1405   -1.8295    2.4398 H   0  0  0  0  0  0  0  0  0  0  0  0
    4.6613   -2.8953   -0.7768 C   0  0  0  0  0  0  0  0  0  0  0  0
    5.3795   -3.4660   -1.3853 H   0  0  0  0  0  0  0  0  0  0  0  0
    2.8198   -1.4344    0.7682 C   0  0  0  0  0  0  0  0  0  0  0  0
    2.0844   -0.8770    1.3736 H   0  0  0  0  0  0  0  0  0  0  0  0
    3.9349    2.9152   -0.6931 C   0  0  0  0  0  0  0  0  0  0  0  0
    3.9302    3.7690    0.0078 H   0  0  0  0  0  0  0  0  0  0  0  0
    4.2290    3.2872   -1.7003 H   0  0  0  0  0  0  0  0  0  0  0  0
    4.6781    2.1609   -0.3607 H   0  0  0  0  0  0  0  0  0  0  0  0
  1 28  1  0  0  0  0
  1  6  1  0  0  0  0
  2  5  1  0  0  0  0
  4 26  1  0  0  0  0
  5  6  1  0  0  0  0
  5 15  1  0  0  0  0
  6  3  2  0  0  0  0
  7 12  1  0  0  0  0
  7  1  1  0  0  0  0
  8  7  1  0  0  0  0
  9  7  1  0  0  0  0
 10 11  1  0  0  0  0
 10 22  1  0  0  0  0
 12  2  1  0  0  0  0
 13 24  1  0  0  0  0
 13  4  2  0  0  0  0
 14 13  1  0  0  0  0
 15 16  1  0  0  0  0
 15 18  1  0  0  0  0
 17 15  1  0  0  0  0
 19 12  1  0  0  0  0
 19 21  1  0  0  0  0
 19  4  1  0  0  0  0
 20 19  1  0  0  0  0
 22 23  1  0  0  0  0
 24 10  2  0  0  0  0
 25 24  1  0  0  0  0
 26 22  2  0  0  0  0
 26 27  1  0  0  0  0
 28 31  1  0  0  0  0
 28 29  1  0  0  0  0
 30 28  1  0  0  0  0
M  END
