19
q = -1.0, confidence = 0.04

 56 61  0  0  0  0  0  0  0  0999 V2000
   -0.3075   -0.1228    0.0395 P   0  0  0  0  0  0  0  0  0  0  0  0
   -1.5188    1.0819    0.3429 C   0  0  0  0  0  0  0  0  0  0  0  0
   -2.8969    0.7363    0.2948 C   0  0  0  0  0  0  0  0  0  0  0  0
   -3.3792   -0.5920    0.0758 C   0  0  0  0  0  0  0  0  0  0  0  0
   -2.5531   -1.7225   -0.1478 C   0  0  0  0  0  0  0  0  0  0  0  0
   -3.1077   -3.1356   -0.2196 C   0  0  0  0  0  0  0  0  0  0  0  0
   -3.1925   -3.5100    0.8270 H   0  0  0  0  0  0  0  0  0  0  0  0
   -4.1398   -3.1311   -0.6206 H   0  0  0  0  0  0  0  0  0  0  0  0
   -2.2222   -4.0926   -1.0332 C   0  0  0  0  0  0  0  0  0  0  0  0
   -2.5849   -5.1339   -0.9170 H   0  0  0  0  0  0  0  0  0  0  0  0
   -2.3352   -3.8467   -2.1151 H   0  0  0  0  0  0  0  0  0  0  0  0
   -0.7502   -4.0033   -0.6854 C   0  0  0  0  0  0  0  0  0  0  0  0
    0.1276   -5.0937   -0.7378 C   0  0  0  0  0  0  0  0  0  0  0  0
   -0.2553   -6.0976   -0.9812 H   0  0  0  0  0  0  0  0  0  0  0  0
    1.4935   -4.8994   -0.4643 C   0  0  0  0  0  0  0  0  0  0  0  0
    2.1783   -5.7624   -0.4692 H   0  0  0  0  0  0  0  0  0  0  0  0
    2.0021   -3.6189   -0.1837 C   0  0  0  0  0  0  0  0  0  0  0  0
    3.0721   -3.5156    0.0453 H   0  0  0  0  0  0  0  0  0  0  0  0
    1.1654   -2.4835   -0.1659 C   0  0  0  0  0  3  0  0  0  0  0  0
   -0.2312   -2.7241   -0.3646 C   0  0  0  0  0  0  0  0  0  0  0  0
   -1.1528   -1.6071   -0.2120 C   0  0  0  0  0  0  0  0  0  0  0  0
   -3.9160    1.8336    0.5240 C   0  0  0  0  0  0  0  0  0  0  0  0
   -4.6245    1.5565    1.3297 H   0  0  0  0  0  0  0  0  0  0  0  0
   -4.5329    2.0010   -0.3828 H   0  0  0  0  0  0  0  0  0  0  0  0
   -3.4326    2.7899    0.7925 H   0  0  0  0  0  0  0  0  0  0  0  0
   -1.0359    2.4657    0.6296 C   0  0  0  0  0  0  0  0  0  0  0  0
   -0.9749    3.4303   -0.4351 C   0  0  0  0  0  0  0  0  0  0  0  0
   -1.3682    3.1137   -1.7711 C   0  0  0  0  0  0  0  0  0  0  0  0
   -1.7366    2.1000   -1.9859 H   0  0  0  0  0  0  0  0  0  0  0  0
   -1.2817    4.0579   -2.7849 C   0  0  0  0  0  0  0  0  0  0  0  0
   -1.5862    3.7908   -3.8084 H   0  0  0  0  0  0  0  0  0  0  0  0
   -0.8032    5.3673   -2.5121 C   0  0  0  0  0  0  0  0  0  0  0  0
   -0.7397    6.1080   -3.3235 H   0  0  0  0  0  0  0  0  0  0  0  0
   -0.4167    5.7081   -1.2245 C   0  0  0  0  0  0  0  0  0  0  0  0
   -0.0423    6.7198   -1.0024 H   0  0  0  0  0  0  0  0  0  0  0  0
   -0.4873    4.7606   -0.1615 C   0  0  0  0  0  0  0  0  0  0  0  0
   -0.0748    5.0766    1.1643 C   0  0  0  0  0  0  0  0  0  0  0  0
    0.2944    6.0916    1.3790 H   0  0  0  0  0  0  0  0  0  0  0  0
   -0.1315    4.1239    2.1668 C   0  0  0  0  0  0  0  0  0  0  0  0
    0.1935    4.3830    3.1867 H   0  0  0  0  0  0  0  0  0  0  0  0
   -0.6067    2.8003    1.9242 C   0  0  0  0  0  0  0  0  0  0  0  0
   -0.6365    1.7945    3.0447 C   0  0  0  0  0  0  0  0  0  0  0  0
   -1.6008    1.2491    3.0755 H   0  0  0  0  0  0  0  0  0  0  0  0
   -0.4784    2.2844    4.0248 H   0  0  0  0  0  0  0  0  0  0  0  0
    0.1528    1.0177    2.9212 H   0  0  0  0  0  0  0  0  0  0  0  0
   -4.8618   -0.8116    0.1173 C   0  0  0  0  0  0  0  0  0  0  0  0
   -5.4955   -1.2034    1.3149 C   0  0  0  0  0  0  0  0  0  0  0  0
   -4.8869   -1.3398    2.2224 H   0  0  0  0  0  0  0  0  0  0  0  0
   -6.8814   -1.4195    1.3544 C   0  0  0  0  0  0  0  0  0  0  0  0
   -7.3601   -1.7261    2.2971 H   0  0  0  0  0  0  0  0  0  0  0  0
   -7.6551   -1.2473    0.1959 C   0  0  0  0  0  0  0  0  0  0  0  0
   -8.7421   -1.4174    0.2263 H   0  0  0  0  0  0  0  0  0  0  0  0
   -7.0352   -0.8588   -1.0023 C   0  0  0  0  0  0  0  0  0  0  0  0
   -7.6351   -0.7245   -1.9155 H   0  0  0  0  0  0  0  0  0  0  0  0
   -5.6493   -0.6423   -1.0404 C   0  0  0  0  0  0  0  0  0  0  0  0
   -5.1609   -0.3414   -1.9805 H   0  0  0  0  0  0  0  0  0  0  0  0
  1  2  1  0  0  0  0
  2 26  1  0  0  0  0
  3  2  2  0  0  0  0
  3 22  1  0  0  0  0
  4 46  1  0  0  0  0
  4  3  1  0  0  0  0
  5  4  2  0  0  0  0
  6  5  1  0  0  0  0
  6  7  1  0  0  0  0
  8  6  1  0  0  0  0
  9 10  1  0  0  0  0
  9 12  1  0  0  0  0
  9  6  1  0  0  0  0
 11  9  1  0  0  0  0
 12 20  1  0  0  0  0
 13 12  2  0  0  0  0
 13 15  1  0  0  0  0
 14 13  1  0  0  0  0
 15 17  2  0  0  0  0
 16 15  1  0  0  0  0
 17 19  1  0  0  0  0
 17 18  1  0  0  0  0
 20 21  1  0  0  0  0
 20 19  2  0  0  0  0
 21  5  1  0  0  0  0
 21  1  2  0  0  0  0
 22 25  1  0  0  0  0
 22 23  1  0  0  0  0
 24 22  1  0  0  0  0
 26 41  1  0  0  0  0
 27 36  1  0  0  0  0
 27 26  2  0  0  0  0
 28 27  1  0  0  0  0
 29 28  1  0  0  0  0
 30 32  1  0  0  0  0
 30 28  2  0  0  0  0
 31 30  1  0  0  0  0
 32 34  2  0  0  0  0
 33 32  1  0  0  0  0
 34 35  1  0  0  0  0
 34 36  1  0  0  0  0
 36 37  2  0  0  0  0
 37 38  1  0  0  0  0
 37 39  1  0  0  0  0
 39 40  1  0  0  0  0
 41 39  2  0  0  0  0
 41 42  1  0  0  0  0
 42 43  1  0  0  0  0
 42 44  1  0  0  0  0
 45 42  1  0  0  0  0
 46 47  1  0  0  0  0
 47 49  2  0  0  0  0
 47 48  1  0  0  0  0
 49 50  1  0  0  0  0
 51 52  1  0  0  0  0
 51 49  1  0  0  0  0
 53 51  2  0  0  0  0
 54 53  1  0  0  0  0
 55 53  1  0  0  0  0
 55 46  2  0  0  0  0
 56 55  1  0  0  0  0
M  END
