4
q = 0.0, confidence = 0.996

 48 49  0  0  0  0  0  0  0  0999 V2000
    1.8760    0.2047   -1.5842 C   0  0  0  0  0  0  0  0  0  0  0  0
    0.7049   -0.4726   -2.0958 C   0  0  0  0  0  0  0  0  0  0  0  0
   -0.0983    0.1180   -2.5623 H   0  0  0  0  0  0  0  0  0  0  0  0
    0.5616   -1.8894   -1.9955 C   0  0  0  0  0  3  0  0  0  0  0  0
   -0.3555   -2.3776   -2.3537 H   0  0  0  0  0  0  0  0  0  0  0  0
    1.6058   -2.6764   -1.3891 C   0  0  0  0  0  0  0  0  0  0  0  0
    1.4590   -3.7560   -1.2441 H   0  0  0  0  0  0  0  0  0  0  0  0
    2.7311   -2.0347   -0.8371 C   0  0  0  0  0  0  0  0  0  0  0  0
    3.4631   -2.6076   -0.2519 H   0  0  0  0  0  0  0  0  0  0  0  0
    2.8299   -0.5952   -0.8847 C   0  0  0  0  0  3  0  0  0  0  0  0
    3.6591   -0.0999   -0.3591 H   0  0  0  0  0  0  0  0  0  0  0  0
    2.0407    1.6920   -1.7229 C   0  0  0  0  0  0  0  0  0  0  0  0
    1.5189    2.0423   -2.6381 H   0  0  0  0  0  0  0  0  0  0  0  0
    3.1133    1.9449   -1.8538 H   0  0  0  0  0  0  0  0  0  0  0  0
    1.3741    2.7408   -0.2634 Si  0  0  0  0  0  0  0  0  0  0  0  0
    1.3631    4.5468   -0.8292 C   0  0  0  0  0  0  0  0  0  0  0  0
    0.9834    5.2108   -0.0256 H   0  0  0  0  0  0  0  0  0  0  0  0
    0.7217    4.6929   -1.7225 H   0  0  0  0  0  0  0  0  0  0  0  0
    2.3879    4.8863   -1.0859 H   0  0  0  0  0  0  0  0  0  0  0  0
    2.4378    2.5246    1.2692 C   0  0  0  0  0  0  0  0  0  0  0  0
    3.4765    2.8608    1.0703 H   0  0  0  0  0  0  0  0  0  0  0  0
    2.4619    1.4629    1.6019 H   0  0  0  0  0  0  0  0  0  0  0  0
    2.0425    3.1383    2.1052 H   0  0  0  0  0  0  0  0  0  0  0  0
   -0.4302    2.2003    0.0146 C   0  0  0  0  0  0  0  0  0  0  0  0
   -0.9509    2.9403    0.6584 H   0  0  0  0  0  0  0  0  0  0  0  0
   -0.9368    2.2262   -0.9748 H   0  0  0  0  0  0  0  0  0  0  0  0
   -0.6721    0.5141    0.7365 P   0  0  1  0  0  0  0  0  0  0  0  0
   -0.6879    0.7988    2.5474 C   0  0  0  0  0  0  0  0  0  0  0  0
    0.3203    1.1032    2.8788 H   0  0  0  0  0  0  0  0  0  0  0  0
   -0.9165   -0.1729    3.0246 H   0  0  0  0  0  0  0  0  0  0  0  0
   -1.4440    1.5606    2.8192 H   0  0  0  0  0  0  0  0  0  0  0  0
   -2.4660    0.1090    0.3739 C   0  0  0  0  0  0  0  0  0  0  0  0
   -2.6419   -0.7522    1.0555 H   0  0  0  0  0  0  0  0  0  0  0  0
   -3.4450    1.2463    0.7112 C   0  0  0  0  0  0  0  0  0  0  0  0
   -3.2320    2.1263    0.0641 H   0  0  0  0  0  0  0  0  0  0  0  0
   -3.3156    1.5852    1.7596 H   0  0  0  0  0  0  0  0  0  0  0  0
   -4.8998    0.8062    0.4829 C   0  0  0  0  0  0  0  0  0  0  0  0
   -5.1475   -0.0093    1.1983 H   0  0  0  0  0  0  0  0  0  0  0  0
   -5.5883    1.6464    0.7129 H   0  0  0  0  0  0  0  0  0  0  0  0
   -5.1168    0.3055   -0.9497 C   0  0  0  0  0  0  0  0  0  0  0  0
   -4.9687    1.1525   -1.6580 H   0  0  0  0  0  0  0  0  0  0  0  0
   -6.1641   -0.0361   -1.0871 H   0  0  0  0  0  0  0  0  0  0  0  0
   -4.1341   -0.8193   -1.2941 C   0  0  0  0  0  0  0  0  0  0  0  0
   -4.3503   -1.7058   -0.6576 H   0  0  0  0  0  0  0  0  0  0  0  0
   -4.2693   -1.1490   -2.3457 H   0  0  0  0  0  0  0  0  0  0  0  0
   -2.6764   -0.3991   -1.0593 C   0  0  0  0  0  0  0  0  0  0  0  0
   -2.4041    0.4013   -1.7868 H   0  0  0  0  0  0  0  0  0  0  0  0
   -2.0002   -1.2583   -1.2311 H   0  0  0  0  0  0  0  0  0  0  0  0
  1 10  1  0  0  0  0
  2  4  1  0  0  0  0
  2  1  2  0  0  0  0
  3  2  1  0  0  0  0
  4  6  1  0  0  0  0
  5  4  1  0  0  0  0
  6  7  1  0  0  0  0
  6  8  2  0  0  0  0
  8  9  1  0  0  0  0
 10  8  1  0  0  0  0
 10 11  1  0  0  0  0
 12  1  1  0  0  0  0
 12 15  1  0  0  0  0
 13 12  1  0  0  0  0
 14 12  1  0  0  0  0
 15 24  1  0  0  0  0
 15 20  1  0  0  0  0
 16 15  1  0  0  0  0
 16 17  1  0  0  0  0
 18 16  1  0  0  0  0
 19 16  1  0  0  0  0
 20 22  1  0  0  0  0
 20 23  1  0  0  0  0
 21 20  1  0  0  0  0
 24 25  1  0  0  0  0
 26 24  1  0  0  0  0
 27 24  1  6  0  0  0
 27 28  1  0  0  0  0
 28 31  1  0  0  0  0
 28 29  1  0  0  0  0
 28 30  1  0  0  0  0
 32 34  1  0  0  0  0
 32 27  1  0  0  0  0
 32 33  1  0  0  0  0
 34 36  1  0  0  0  0
 35 34  1  0  0  0  0
 37 34  1  0  0  0  0
 37 39  1  0  0  0  0
 37 38  1  0  0  0  0
 40 37  1  0  0  0  0
 41 40  1  0  0  0  0
 42 40  1  0  0  0  0
 43 46  1  0  0  0  0
 43 40  1  0  0  0  0
 43 44  1  0  0  0  0
 45 43  1  0  0  0  0
 46 32  1  0  0  0  0
 47 46  1  0  0  0  0
 48 46  1  0  0  0  0
M  END
