3
q = 0.0, confidence = 0.986

 54 58  0  0  1  0  0  0  0  0999 V2000
   -0.4296   -2.8156   -1.1786 O   0  0  0  0  0  0  0  0  0  0  0  0
    1.1214   -1.1899   -0.4876 C   0  0  1  0  0  3  0  0  0  0  0  0
    1.6122    0.0744   -0.9953 C   0  0  0  0  0  3  0  0  0  0  0  0
    0.9605    1.2962   -0.6835 C   0  0  1  0  0  3  0  0  0  0  0  0
   -0.2126    1.2445    0.1776 C   0  0  0  0  0  3  0  0  0  0  0  0
   -1.4392    0.4473    0.0110 C   0  0  0  0  0  0  0  0  0  0  0  0
   -1.5068   -0.8178   -0.5415 C   0  0  0  0  0  0  0  0  0  0  0  0
   -0.3039   -1.6613   -0.7649 C   0  0  0  0  0  0  0  0  0  0  0  0
    2.0947   -2.3392   -0.4901 C   0  0  0  0  0  0  0  0  0  0  0  0
    3.1163   -2.4533   -1.4527 C   0  0  0  0  0  0  0  0  0  0  0  0
    4.0295   -3.5191   -1.4140 C   0  0  0  0  0  0  0  0  0  0  0  0
    3.9334   -4.4943   -0.4126 C   0  0  0  0  0  0  0  0  0  0  0  0
    2.9086   -4.4012    0.5446 C   0  0  0  0  0  0  0  0  0  0  0  0
    1.9995   -3.3393    0.5027 C   0  0  0  0  0  0  0  0  0  0  0  0
    1.5297    2.6013   -1.1213 C   0  0  0  0  0  0  0  0  0  0  0  0
    0.6666    3.6081   -1.6004 C   0  0  0  0  0  0  0  0  0  0  0  0
    1.1777    4.8361   -2.0464 C   0  0  0  0  0  0  0  0  0  0  0  0
    2.5597    5.0746   -2.0185 C   0  0  0  0  0  0  0  0  0  0  0  0
    3.4286    4.0788   -1.5400 C   0  0  0  0  0  0  0  0  0  0  0  0
    2.9184    2.8543   -1.0927 C   0  0  0  0  0  0  0  0  0  0  0  0
   -2.6649    1.1069    0.5500 C   0  0  0  0  0  0  0  0  0  0  0  0
   -3.5050    0.4113    1.4489 C   0  0  0  0  0  0  0  0  0  0  0  0
   -4.6379    1.0287    1.9912 C   0  0  0  0  0  0  0  0  0  0  0  0
   -4.9615    2.3500    1.6402 C   0  0  0  0  0  0  0  0  0  0  0  0
   -4.1321    3.0551    0.7547 C   0  0  0  0  0  0  0  0  0  0  0  0
   -2.9871    2.4431    0.2254 C   0  0  0  0  0  0  0  0  0  0  0  0
   -2.8133   -1.4376   -0.8947 C   0  0  0  0  0  0  0  0  0  0  0  0
   -3.1728   -2.7314   -0.4544 C   0  0  0  0  0  0  0  0  0  0  0  0
   -4.4217   -3.2757   -0.7827 C   0  0  0  0  0  0  0  0  0  0  0  0
   -5.3300   -2.5482   -1.5683 C   0  0  0  0  0  0  0  0  0  0  0  0
   -4.9783   -1.2687   -2.0267 C   0  0  0  0  0  0  0  0  0  0  0  0
   -3.7330   -0.7215   -1.6931 C   0  0  0  0  0  0  0  0  0  0  0  0
    2.5736    0.1214   -1.5288 H   0  0  0  0  0  0  0  0  0  0  0  0
   -0.4279    2.2162    0.6497 H   0  0  0  0  0  0  0  0  0  0  0  0
    3.1943   -1.7145   -2.2646 H   0  0  0  0  0  0  0  0  0  0  0  0
    4.8179   -3.5871   -2.1791 H   0  0  0  0  0  0  0  0  0  0  0  0
    4.6510   -5.3278   -0.3783 H   0  0  0  0  0  0  0  0  0  0  0  0
    2.8187   -5.1636    1.3332 H   0  0  0  0  0  0  0  0  0  0  0  0
    1.2015   -3.2733    1.2569 H   0  0  0  0  0  0  0  0  0  0  0  0
   -0.4157    3.4136   -1.6427 H   0  0  0  0  0  0  0  0  0  0  0  0
    0.4906    5.6098   -2.4210 H   0  0  0  0  0  0  0  0  0  0  0  0
    2.9616    6.0390   -2.3636 H   0  0  0  0  0  0  0  0  0  0  0  0
    4.5125    4.2648   -1.5013 H   0  0  0  0  0  0  0  0  0  0  0  0
    3.5970    2.0909   -0.6816 H   0  0  0  0  0  0  0  0  0  0  0  0
   -3.2516   -0.6220    1.7253 H   0  0  0  0  0  0  0  0  0  0  0  0
   -5.2745    0.4729    2.6960 H   0  0  0  0  0  0  0  0  0  0  0  0
   -5.8570    2.8314    2.0614 H   0  0  0  0  0  0  0  0  0  0  0  0
   -4.3769    4.0906    0.4734 H   0  0  0  0  0  0  0  0  0  0  0  0
   -2.3461    3.0033   -0.4723 H   0  0  0  0  0  0  0  0  0  0  0  0
   -2.4691   -3.3082    0.1604 H   0  0  0  0  0  0  0  0  0  0  0  0
   -4.6877   -4.2809   -0.4214 H   0  0  0  0  0  0  0  0  0  0  0  0
   -6.3087   -2.9803   -1.8275 H   0  0  0  0  0  0  0  0  0  0  0  0
   -5.6776   -0.6929   -2.6521 H   0  0  0  0  0  0  0  0  0  0  0  0
   -3.4586    0.2801   -2.0559 H   0  0  0  0  0  0  0  0  0  0  0  0
  1  8  2  0  0  0  0
  2  9  1  6  0  0  0
  3  4  1  0  0  0  0
  3  2  1  0  0  0  0
  4 15  1  1  0  0  0
  4  5  1  0  0  0  0
  5 34  1  0  0  0  0
  6  5  1  0  0  0  0
  6 21  1  0  0  0  0
  7  6  2  0  0  0  0
  8  7  1  0  0  0  0
  8  2  1  0  0  0  0
  9 14  1  0  0  0  0
 10 11  1  0  0  0  0
 10  9  2  0  0  0  0
 11 12  2  0  0  0  0
 12 37  1  0  0  0  0
 12 13  1  0  0  0  0
 13 38  1  0  0  0  0
 14 13  2  0  0  0  0
 14 39  1  0  0  0  0
 15 20  1  0  0  0  0
 16 15  2  0  0  0  0
 17 18  2  0  0  0  0
 17 16  1  0  0  0  0
 18 19  1  0  0  0  0
 19 43  1  0  0  0  0
 19 20  2  0  0  0  0
 20 44  1  0  0  0  0
 21 22  1  0  0  0  0
 22 45  1  0  0  0  0
 22 23  2  0  0  0  0
 23 46  1  0  0  0  0
 24 23  1  0  0  0  0
 24 47  1  0  0  0  0
 25 24  2  0  0  0  0
 26 21  2  0  0  0  0
 26 25  1  0  0  0  0
 27  7  1  0  0  0  0
 27 28  1  0  0  0  0
 28 50  1  0  0  0  0
 29 28  2  0  0  0  0
 29 51  1  0  0  0  0
 30 29  1  0  0  0  0
 31 32  1  0  0  0  0
 31 30  2  0  0  0  0
 32 27  2  0  0  0  0
 33  3  1  0  0  0  0
 35 10  1  0  0  0  0
 36 11  1  0  0  0  0
 40 16  1  0  0  0  0
 41 17  1  0  0  0  0
 42 18  1  0  0  0  0
 48 25  1  0  0  0  0
 49 26  1  0  0  0  0
 52 30  1  0  0  0  0
 53 31  1  0  0  0  0
 54 32  1  0  0  0  0
M  END
