2
q = -1.0, confidence = 0.0

 15 15  0  0  0  0  0  0  0  0999 V2000
   -5.6167   -0.5449   -0.8619 O   0  0  0  0  0  0  0  0  0  0  0  0
   -1.4102   -0.5466   -0.2631 C   0  0  0  0  0  3  0  0  0  0  0  0
   -2.0279   -0.2843   -1.5154 C   0  0  0  0  0  0  0  0  0  0  0  0
   -3.4177   -0.2958   -1.6910 C   0  0  0  0  0  0  0  0  0  0  0  0
   -4.2701   -0.5674   -0.6017 C   0  0  0  0  0  0  0  0  0  0  0  0
   -3.6983   -0.8434    0.6542 C   0  0  0  0  0  0  0  0  0  0  0  0
   -2.2956   -0.8358    0.8011 C   0  0  0  0  0  0  0  0  0  0  0  0
   -6.4973   -0.8181    0.2034 C   0  0  0  0  0  0  0  0  0  0  0  0
   -1.4010   -0.0743   -2.3977 H   0  0  0  0  0  0  0  0  0  0  0  0
   -3.8748   -0.0948   -2.6721 H   0  0  0  0  0  0  0  0  0  0  0  0
   -4.3285   -1.0737    1.5251 H   0  0  0  0  0  0  0  0  0  0  0  0
   -1.8883   -1.0693    1.7996 H   0  0  0  0  0  0  0  0  0  0  0  0
   -6.3935   -0.0830    1.0356 H   0  0  0  0  0  0  0  0  0  0  0  0
   -6.3468   -1.8396    0.6240 H   0  0  0  0  0  0  0  0  0  0  0  0
   -7.5233   -0.7495   -0.2058 H   0  0  0  0  0  0  0  0  0  0  0  0
  1  5  1  0  0  0  0
  1  8  1  0  0  0  0
  2  7  1  0  0  0  0
  3  2  2  0  0  0  0
  4  3  1  0  0  0  0
  4  5  2  0  0  0  0
  5  6  1  0  0  0  0
  6  7  2  0  0  0  0
  6 11  1  0  0  0  0
  7 12  1  0  0  0  0
  8 14  1  0  0  0  0
  8 13  1  0  0  0  0
  9  3  1  0  0  0  0
 10  4  1  0  0  0  0
 15  8  1  0  0  0  0
M  END
