1
q = -1.0, confidence = 0.008

 13 12  0  0  1  0  0  0  0  0999 V2000
   -1.3238    0.3611    0.3904 C   0  0  1  0  0  0  0  0  0  0  0  0
   -1.6282   -0.5204    1.6344 C   0  0  0  0  0  0  0  0  0  0  0  0
   -2.3697    0.1864   -0.7458 C   0  0  0  0  0  0  0  0  0  0  0  0
   -3.8962    0.3024   -0.4029 C   0  0  0  0  0  0  0  0  0  0  0  0
   -1.5464    1.6831    0.8359 F   0  0  0  0  0  0  0  0  0  0  0  0
   -0.5639   -0.5768    2.4770 F   0  0  0  0  0  0  0  0  0  0  0  0
   -2.6485    0.0003    2.3590 F   0  0  0  0  0  0  0  0  0  0  0  0
   -1.9555   -1.7741    1.2949 F   0  0  0  0  0  0  0  0  0  0  0  0
   -2.1524    1.1852   -1.6591 F   0  0  0  0  0  0  0  0  0  0  0  0
   -2.2107   -1.0074   -1.3702 F   0  0  0  0  0  0  0  0  0  0  0  0
   -4.5933    0.3194   -1.5548 F   0  0  0  0  0  0  0  0  0  0  0  0
   -4.3153   -0.7482    0.3202 F   0  0  0  0  0  0  0  0  0  0  0  0
   -4.1630    1.4329    0.2695 F   0  0  0  0  0  0  0  0  0  0  0  0
  1  5  1  1  0  0  0
  1  2  1  0  0  0  0
  2  7  1  0  0  0  0
  2  6  1  0  0  0  0
  3  4  1  0  0  0  0
  3  1  1  0  0  0  0
  4 13  1  0  0  0  0
  4 12  1  0  0  0  0
  8  2  1  0  0  0  0
  9  3  1  0  0  0  0
 10  3  1  0  0  0  0
 11  4  1  0  0  0  0
M  END
