3
q = 0.0, confidence = 0.992

 33 33  0  0  0  0  0  0  0  0999 V2000
    1.9436   -1.0589   -0.1319 N   0  0  0  0  0  0  0  0  0  0  0  0
    1.8784    1.1179   -0.1692 N   0  0  0  0  0  0  0  0  0  0  0  0
    1.0861    0.0065   -0.0410 C   0  0  0  0  0  2  0  0  0  0  0  0
    3.2656   -0.6240   -0.2983 C   0  0  0  0  0  0  0  0  0  0  0  0
    3.2241    0.7575   -0.3193 C   0  0  0  0  0  0  0  0  0  0  0  0
    1.4425   -2.4336    0.0711 C   0  0  0  0  0  0  0  0  0  0  0  0
    1.8160   -3.3815   -1.0690 C   0  0  0  0  0  0  0  0  0  0  0  0
    1.7998   -2.9535    1.4655 C   0  0  0  0  0  0  0  0  0  0  0  0
    4.4466   -1.5226   -0.4585 C   0  0  0  0  0  0  0  0  0  0  0  0
    4.3503    1.7206   -0.4976 C   0  0  0  0  0  0  0  0  0  0  0  0
    1.2922    2.4657   -0.0194 C   0  0  0  0  0  0  0  0  0  0  0  0
    1.6433    3.4064   -1.1720 C   0  0  0  0  0  0  0  0  0  0  0  0
    1.5738    3.0360    1.3725 C   0  0  0  0  0  0  0  0  0  0  0  0
    0.3385   -2.2792    0.0541 H   0  0  0  0  0  0  0  0  0  0  0  0
    2.8835   -3.6773   -1.0552 H   0  0  0  0  0  0  0  0  0  0  0  0
    1.5905   -2.9244   -2.0528 H   0  0  0  0  0  0  0  0  0  0  0  0
    1.2171   -4.3096   -0.9812 H   0  0  0  0  0  0  0  0  0  0  0  0
    1.3798   -2.2765    2.2356 H   0  0  0  0  0  0  0  0  0  0  0  0
    2.8942   -3.0440    1.6200 H   0  0  0  0  0  0  0  0  0  0  0  0
    1.3533   -3.9565    1.6173 H   0  0  0  0  0  0  0  0  0  0  0  0
    5.3802   -0.9322   -0.3982 H   0  0  0  0  0  0  0  0  0  0  0  0
    4.4503   -2.0460   -1.4376 H   0  0  0  0  0  0  0  0  0  0  0  0
    4.4942   -2.3000    0.3301 H   0  0  0  0  0  0  0  0  0  0  0  0
    4.3309    2.2170   -1.4903 H   0  0  0  0  0  0  0  0  0  0  0  0
    5.3171    1.1897   -0.4139 H   0  0  0  0  0  0  0  0  0  0  0  0
    4.3431    2.5201    0.2701 H   0  0  0  0  0  0  0  0  0  0  0  0
    0.1999    2.2408   -0.0651 H   0  0  0  0  0  0  0  0  0  0  0  0
    2.6869    3.7759   -1.1313 H   0  0  0  0  0  0  0  0  0  0  0  0
    0.9805    4.2932   -1.1299 H   0  0  0  0  0  0  0  0  0  0  0  0
    1.4831    2.9103   -2.1499 H   0  0  0  0  0  0  0  0  0  0  0  0
    2.6566    3.1845    1.5615 H   0  0  0  0  0  0  0  0  0  0  0  0
    1.1598    2.3539    2.1417 H   0  0  0  0  0  0  0  0  0  0  0  0
    1.0726    4.0181    1.4852 H   0  0  0  0  0  0  0  0  0  0  0  0
  1  3  1  0  0  0  0
  1  6  1  0  0  0  0
  2  3  1  0  0  0  0
  2 11  1  0  0  0  0
  4  1  1  0  0  0  0
  5  4  2  0  0  0  0
  5  2  1  0  0  0  0
  6  8  1  0  0  0  0
  7 15  1  0  0  0  0
  7 17  1  0  0  0  0
  7  6  1  0  0  0  0
  8 20  1  0  0  0  0
  8 19  1  0  0  0  0
  8 18  1  0  0  0  0
  9 21  1  0  0  0  0
  9  4  1  0  0  0  0
  9 23  1  0  0  0  0
 10 25  1  0  0  0  0
 10  5  1  0  0  0  0
 10 26  1  0  0  0  0
 11 13  1  0  0  0  0
 12 28  1  0  0  0  0
 12 29  1  0  0  0  0
 12 11  1  0  0  0  0
 13 33  1  0  0  0  0
 13 31  1  0  0  0  0
 13 32  1  0  0  0  0
 14  6  1  0  0  0  0
 16  7  1  0  0  0  0
 22  9  1  0  0  0  0
 24 10  1  0  0  0  0
 27 11  1  0  0  0  0
 30 12  1  0  0  0  0
M  END
