24
q = 0.0, confidence = 0.986

 30 30  0  0  1  0  0  0  0  0999 V2000
   -3.4454   -1.2204   -0.0710 N   0  0  0  0  0  0  0  0  0  0  0  0
   -3.3281    0.9543   -0.2059 N   0  0  0  0  0  0  0  0  0  0  0  0
   -2.6338   -0.1922   -0.4522 C   0  0  1  0  0  3  0  0  0  0  0  0
   -4.6614   -0.7233    0.4122 C   0  0  0  0  0  0  0  0  0  0  0  0
   -4.5856    0.6516    0.3270 C   0  0  0  0  0  0  0  0  0  0  0  0
   -3.0737   -2.6263   -0.1136 C   0  0  0  0  0  0  0  0  0  0  0  0
   -3.1654   -3.0366   -1.1385 H   0  0  0  0  0  0  0  0  0  0  0  0
   -3.7332   -3.1968    0.5631 H   0  0  0  0  0  0  0  0  0  0  0  0
   -2.0286   -2.7355    0.2306 H   0  0  0  0  0  0  0  0  0  0  0  0
   -5.7608   -1.6014    0.9018 C   0  0  0  0  0  0  0  0  0  0  0  0
   -5.4645   -2.1852    1.7992 H   0  0  0  0  0  0  0  0  0  0  0  0
   -6.0955   -2.3238    0.1283 H   0  0  0  0  0  0  0  0  0  0  0  0
   -6.6361   -0.9886    1.1849 H   0  0  0  0  0  0  0  0  0  0  0  0
   -5.5789    1.6991    0.6933 C   0  0  0  0  0  0  0  0  0  0  0  0
   -6.5198    1.2308    1.0358 H   0  0  0  0  0  0  0  0  0  0  0  0
   -5.8226    2.3572   -0.1663 H   0  0  0  0  0  0  0  0  0  0  0  0
   -5.2131    2.3501    1.5153 H   0  0  0  0  0  0  0  0  0  0  0  0
   -2.8347    2.3050   -0.4590 C   0  0  0  0  0  0  0  0  0  0  0  0
   -1.7276    2.3517   -0.3296 H   0  0  0  0  0  0  0  0  0  0  0  0
   -3.3070    2.9988    0.2587 H   0  0  0  0  0  0  0  0  0  0  0  0
   -3.0864    2.6262   -1.4897 H   0  0  0  0  0  0  0  0  0  0  0  0
   -1.2057   -0.2442   -0.8792 C   0  0  1  0  0  0  0  0  0  0  0  0
   -0.9662    0.7786   -1.2375 H   0  0  0  0  0  0  0  0  0  0  0  0
   -0.3202   -0.4651    0.3739 C   0  0  0  0  0  3  0  0  0  0  0  0
   -0.3592   -1.5356    0.6941 H   0  0  0  0  0  0  0  0  0  0  0  0
   -0.7022    0.1505    1.2193 H   0  0  0  0  0  0  0  0  0  0  0  0
   -0.8852   -1.1992   -2.0359 C   0  0  0  0  0  0  0  0  0  0  0  0
   -0.8949   -2.2661   -1.7361 H   0  0  0  0  0  0  0  0  0  0  0  0
    0.1471   -0.9710   -2.3692 H   0  0  0  0  0  0  0  0  0  0  0  0
   -1.5732   -1.0682   -2.8966 H   0  0  0  0  0  0  0  0  0  0  0  0
  1  4  1  0  0  0  0
  2  5  1  0  0  0  0
  3 22  1  1  0  0  0
  3  2  1  0  0  0  0
  3  1  1  0  0  0  0
  4 10  1  0  0  0  0
  5  4  2  0  0  0  0
  5 14  1  0  0  0  0
  6  1  1  0  0  0  0
  6  9  1  0  0  0  0
  6  8  1  0  0  0  0
  7  6  1  0  0  0  0
 10 13  1  0  0  0  0
 10 11  1  0  0  0  0
 12 10  1  0  0  0  0
 14 15  1  0  0  0  0
 14 17  1  0  0  0  0
 16 14  1  0  0  0  0
 18 19  1  0  0  0  0
 18  2  1  0  0  0  0
 18 20  1  0  0  0  0
 21 18  1  0  0  0  0
 22 23  1  6  0  0  0
 22 24  1  0  0  0  0
 24 25  1  0  0  0  0
 24 26  1  0  0  0  0
 27 28  1  0  0  0  0
 27 22  1  0  0  0  0
 29 27  1  0  0  0  0
 30 27  1  0  0  0  0
M  END
