1
q = 0.0, confidence = 0.99

 19 19  0  0  0  0  0  0  0  0999 V2000
    0.2030   -1.9025   -1.8429 C   0  0  0  0  0  3  0  0  0  0  0  0
    0.7521   -2.2325   -0.5860 C   0  0  0  0  0  3  0  0  0  0  0  0
    2.1076   -1.8895   -0.1173 C   0  0  0  0  0  0  0  0  0  0  0  0
    3.1152   -1.3955   -0.9797 C   0  0  0  0  0  0  0  0  0  0  0  0
    4.3680   -1.0303   -0.4774 C   0  0  0  0  0  0  0  0  0  0  0  0
    4.6715   -1.1484    0.8991 C   0  0  0  0  0  0  0  0  0  0  0  0
    3.6672   -1.6528    1.7540 C   0  0  0  0  0  0  0  0  0  0  0  0
    2.4131   -2.0226    1.2579 C   0  0  0  0  0  0  0  0  0  0  0  0
    6.0363   -0.7974    1.4247 C   0  0  0  0  0  0  0  0  0  0  0  0
   -0.6686   -2.4546   -2.2256 H   0  0  0  0  0  0  0  0  0  0  0  0
    0.8226   -1.4211   -2.6178 H   0  0  0  0  0  0  0  0  0  0  0  0
    0.2172   -2.9653    0.0427 H   0  0  0  0  0  0  0  0  0  0  0  0
    2.9275   -1.3243   -2.0622 H   0  0  0  0  0  0  0  0  0  0  0  0
    5.1432   -0.6641   -1.1686 H   0  0  0  0  0  0  0  0  0  0  0  0
    3.8793   -1.7636    2.8286 H   0  0  0  0  0  0  0  0  0  0  0  0
    1.6447   -2.4122    1.9439 H   0  0  0  0  0  0  0  0  0  0  0  0
    6.5204   -0.0060    0.8202 H   0  0  0  0  0  0  0  0  0  0  0  0
    6.7039   -1.6855    1.3896 H   0  0  0  0  0  0  0  0  0  0  0  0
    5.9977   -0.4645    2.4799 H   0  0  0  0  0  0  0  0  0  0  0  0
  1  2  1  0  0  0  0
  2  3  1  0  0  0  0
  2 12  1  0  0  0  0
  3  8  1  0  0  0  0
  4  5  1  0  0  0  0
  4  3  2  0  0  0  0
  5  6  2  0  0  0  0
  6  9  1  0  0  0  0
  6  7  1  0  0  0  0
  7 15  1  0  0  0  0
  8  7  2  0  0  0  0
  8 16  1  0  0  0  0
  9 19  1  0  0  0  0
 10  1  1  0  0  0  0
 11  1  1  0  0  0  0
 13  4  1  0  0  0  0
 14  5  1  0  0  0  0
 17  9  1  0  0  0  0
 18  9  1  0  0  0  0
M  END
