19
q = 0.0, confidence = 1.0

 47 49  0  0  0  0  0  0  0  0999 V2000
   -8.5908   -0.9922    0.1672 S   0  0  0  0  0  0  0  0  0  0  0  0
    0.8172   -0.6989   -0.0134 N   0  0  0  0  0  0  0  0  0  0  0  0
    1.4002    1.4219    0.0816 N   0  0  0  0  0  0  0  0  0  0  0  0
   -0.3718    0.0310    0.0446 C   0  0  0  0  0  0  0  0  0  0  0  0
    0.0054    1.3978    0.1033 C   0  0  0  0  0  0  0  0  0  0  0  0
   -5.9499   -1.2625    0.7355 C   0  0  0  0  0  0  0  0  0  0  0  0
   -6.2725   -2.1843    1.2439 H   0  0  0  0  0  0  0  0  0  0  0  0
    0.9525   -2.1673   -0.0879 C   0  0  0  0  0  0  0  0  0  0  0  0
    2.0532   -2.3175   -0.1028 H   0  0  0  0  0  0  0  0  0  0  0  0
   -2.7120    0.6477    0.1031 C   0  0  0  0  0  0  0  0  0  0  0  0
   -0.9728    2.4045    0.1643 C   0  0  0  0  0  0  0  0  0  0  0  0
   -0.7056    3.4670    0.2227 H   0  0  0  0  0  0  0  0  0  0  0  0
   -4.6006   -0.9076    0.7336 C   0  0  0  0  0  0  0  0  0  0  0  0
   -3.8811   -1.5523    1.2608 H   0  0  0  0  0  0  0  0  0  0  0  0
   -6.9123   -0.4399    0.1031 C   0  0  0  0  0  0  0  0  0  0  0  0
   -4.1476    0.2783    0.1067 C   0  0  0  0  0  0  0  0  0  0  0  0
   -2.3150    2.0121    0.1647 C   0  0  0  0  0  0  0  0  0  0  0  0
   -3.0913    2.7866    0.2441 H   0  0  0  0  0  0  0  0  0  0  0  0
    1.8977    0.1458    0.0103 C   0  0  0  0  0  2  0  0  0  0  0  0
    2.0702    3.4916   -1.1132 C   0  0  0  0  0  0  0  0  0  0  0  0
    2.2223    2.8983   -2.0360 H   0  0  0  0  0  0  0  0  0  0  0  0
    2.8127    4.3133   -1.1075 H   0  0  0  0  0  0  0  0  0  0  0  0
    1.0615    3.9483   -1.1552 H   0  0  0  0  0  0  0  0  0  0  0  0
    0.3810   -2.7126   -1.3987 C   0  0  0  0  0  0  0  0  0  0  0  0
   -0.7176   -2.5871   -1.4686 H   0  0  0  0  0  0  0  0  0  0  0  0
    0.6026   -3.7949   -1.4768 H   0  0  0  0  0  0  0  0  0  0  0  0
    0.8451   -2.2042   -2.2663 H   0  0  0  0  0  0  0  0  0  0  0  0
    0.3983   -2.8412    1.1694 C   0  0  0  0  0  0  0  0  0  0  0  0
    0.8721   -2.4203    2.0777 H   0  0  0  0  0  0  0  0  0  0  0  0
    0.6220   -3.9254    1.1368 H   0  0  0  0  0  0  0  0  0  0  0  0
   -0.6996   -2.7261    1.2643 H   0  0  0  0  0  0  0  0  0  0  0  0
   -6.4757    0.7452   -0.5254 C   0  0  0  0  0  0  0  0  0  0  0  0
   -7.1883    1.4058   -1.0373 H   0  0  0  0  0  0  0  0  0  0  0  0
   -5.1184    1.0906   -0.5178 C   0  0  0  0  0  0  0  0  0  0  0  0
   -4.8038    2.0063   -1.0410 H   0  0  0  0  0  0  0  0  0  0  0  0
    2.2663    2.6166    0.1268 C   0  0  0  0  0  0  0  0  0  0  0  0
    3.2900    2.1869    0.0883 H   0  0  0  0  0  0  0  0  0  0  0  0
   -1.7196   -0.3542    0.0412 C   0  0  0  0  0  0  0  0  0  0  0  0
   -2.0094   -1.4089   -0.0383 H   0  0  0  0  0  0  0  0  0  0  0  0
   -9.4948    0.3146   -0.7050 C   0  0  0  0  0  0  0  0  0  0  0  0
   -9.1753    0.4000   -1.7627 H   0  0  0  0  0  0  0  0  0  0  0  0
   -9.3920    1.2937   -0.1963 H   0  0  0  0  0  0  0  0  0  0  0  0
  -10.5577    0.0085   -0.6779 H   0  0  0  0  0  0  0  0  0  0  0  0
    2.1128    3.3627    1.4541 C   0  0  0  0  0  0  0  0  0  0  0  0
    1.1067    3.8107    1.5753 H   0  0  0  0  0  0  0  0  0  0  0  0
    2.8557    4.1826    1.5059 H   0  0  0  0  0  0  0  0  0  0  0  0
    2.2950    2.6804    2.3072 H   0  0  0  0  0  0  0  0  0  0  0  0
  2 19  1  0  0  0  0
  2  4  1  0  0  0  0
  3  5  1  0  0  0  0
  3 36  1  0  0  0  0
  4  5  1  0  0  0  0
  5 11  2  0  0  0  0
  6  7  1  0  0  0  0
  8  2  1  0  0  0  0
  8 28  1  0  0  0  0
  9  8  1  0  0  0  0
 10 16  1  0  0  0  0
 10 17  2  0  0  0  0
 11 17  1  0  0  0  0
 11 12  1  0  0  0  0
 13  6  1  0  0  0  0
 13 14  1  0  0  0  0
 15  1  1  0  0  0  0
 15  6  2  0  0  0  0
 16 13  2  0  0  0  0
 17 18  1  0  0  0  0
 19  3  1  0  0  0  0
 20 22  1  0  0  0  0
 20 36  1  0  0  0  0
 21 20  1  0  0  0  0
 23 20  1  0  0  0  0
 24  8  1  0  0  0  0
 25 24  1  0  0  0  0
 26 24  1  0  0  0  0
 27 24  1  0  0  0  0
 28 31  1  0  0  0  0
 28 29  1  0  0  0  0
 30 28  1  0  0  0  0
 32 34  2  0  0  0  0
 32 15  1  0  0  0  0
 33 32  1  0  0  0  0
 34 16  1  0  0  0  0
 35 34  1  0  0  0  0
 36 44  1  0  0  0  0
 37 36  1  0  0  0  0
 38  4  2  0  0  0  0
 38 10  1  0  0  0  0
 39 38  1  0  0  0  0
 40 43  1  0  0  0  0
 40 42  1  0  0  0  0
 40  1  1  0  0  0  0
 41 40  1  0  0  0  0
 44 46  1  0  0  0  0
 44 45  1  0  0  0  0
 44 47  1  0  0  0  0
M  END
