2
q = 0.0, confidence = 0.866

 13 12  0  0  0  0  0  0  0  0999 V2000
   -0.5869   -1.4060   -2.0263 C   0  0  0  0  0  3  0  0  0  0  0  0
    0.4380   -2.1404   -1.3344 C   0  0  0  0  0  3  0  0  0  0  0  0
    0.2322   -2.4824    0.0378 C   0  0  0  0  0  3  0  0  0  0  0  0
   -0.9849   -2.0875    0.6806 C   0  0  0  0  0  3  0  0  0  0  0  0
   -1.1808   -2.2651    2.1668 C   0  0  0  0  0  0  0  0  0  0  0  0
   -1.6422   -1.7104   -1.9141 H   0  0  0  0  0  0  0  0  0  0  0  0
   -0.3406   -1.0126   -3.0279 H   0  0  0  0  0  0  0  0  0  0  0  0
    1.4274   -2.3256   -1.7842 H   0  0  0  0  0  0  0  0  0  0  0  0
    1.0706   -2.9103    0.6137 H   0  0  0  0  0  0  0  0  0  0  0  0
   -1.9150   -2.1830    0.0903 H   0  0  0  0  0  0  0  0  0  0  0  0
   -0.2368   -2.1323    2.7322 H   0  0  0  0  0  0  0  0  0  0  0  0
   -1.5758   -3.2764    2.4131 H   0  0  0  0  0  0  0  0  0  0  0  0
   -1.9108   -1.5309    2.5654 H   0  0  0  0  0  0  0  0  0  0  0  0
  1  6  1  0  0  0  0
  1  2  1  0  0  0  0
  2  3  1  0  0  0  0
  3  9  1  0  0  0  0
  3  4  1  0  0  0  0
  4  5  1  0  0  0  0
  5 12  1  0  0  0  0
  5 13  1  0  0  0  0
  5 11  1  0  0  0  0
  7  1  1  0  0  0  0
  8  2  1  0  0  0  0
 10  4  1  0  0  0  0
M  END
