5
q = -1.0, confidence = 0.002

 40 41  0  0  1  0  0  0  0  0999 V2000
    0.9585    0.9712    3.3924 Si  0  0  0  0  0  0  0  0  0  0  0  0
    3.9442    0.3900   -1.5577 Si  0  0  0  0  0  0  0  0  0  0  0  0
    1.3950   -1.1479    1.3959 C   0  0  0  0  0  0  0  0  0  0  0  0
    1.2244    0.2767    1.6489 C   0  0  2  0  0  3  0  0  0  0  0  0
    2.0332    0.9267    0.6578 C   0  0  0  0  0  3  0  0  0  0  0  0
    2.1597    2.0151    0.5793 H   0  0  0  0  0  0  0  0  0  0  0  0
    2.6317   -0.0076   -0.2449 C   0  0  2  0  0  3  0  0  0  0  0  0
    2.2709   -1.3167    0.2557 C   0  0  0  0  0  0  0  0  0  0  0  0
    2.6617   -2.6251   -0.1510 C   0  0  0  0  0  0  0  0  0  0  0  0
    3.3007   -2.7601   -1.0345 H   0  0  0  0  0  0  0  0  0  0  0  0
    2.2365   -3.7158    0.5905 C   0  0  0  0  0  0  0  0  0  0  0  0
    2.5479   -4.7295    0.2972 H   0  0  0  0  0  0  0  0  0  0  0  0
    1.4011   -3.5500    1.7349 C   0  0  0  0  0  0  0  0  0  0  0  0
    1.0962   -4.4362    2.3116 H   0  0  0  0  0  0  0  0  0  0  0  0
    0.9704   -2.2920    2.1304 C   0  0  0  0  0  0  0  0  0  0  0  0
    0.3491   -2.1694    3.0275 H   0  0  0  0  0  0  0  0  0  0  0  0
   -0.6510    0.4573    4.2544 C   0  0  0  0  0  0  0  0  0  0  0  0
   -0.8109   -0.6384    4.2196 H   0  0  0  0  0  0  0  0  0  0  0  0
   -1.5579    0.9431    3.8456 H   0  0  0  0  0  0  0  0  0  0  0  0
   -0.5794    0.7468    5.3236 H   0  0  0  0  0  0  0  0  0  0  0  0
    1.1521    2.8514    3.4004 C   0  0  0  0  0  0  0  0  0  0  0  0
    1.1231    3.2177    4.4475 H   0  0  0  0  0  0  0  0  0  0  0  0
    0.3600    3.3790    2.8372 H   0  0  0  0  0  0  0  0  0  0  0  0
    2.1316    3.1460    2.9716 H   0  0  0  0  0  0  0  0  0  0  0  0
    2.3900    0.2334    4.3935 C   0  0  0  0  0  0  0  0  0  0  0  0
    2.3385   -0.8738    4.4187 H   0  0  0  0  0  0  0  0  0  0  0  0
    2.3747    0.6038    5.4395 H   0  0  0  0  0  0  0  0  0  0  0  0
    3.3631    0.5137    3.9411 H   0  0  0  0  0  0  0  0  0  0  0  0
    4.2080    2.2606   -1.5890 C   0  0  0  0  0  0  0  0  0  0  0  0
    4.5249    2.6375   -0.5947 H   0  0  0  0  0  0  0  0  0  0  0  0
    3.2775    2.7834   -1.8852 H   0  0  0  0  0  0  0  0  0  0  0  0
    5.0022    2.5232   -2.3179 H   0  0  0  0  0  0  0  0  0  0  0  0
    5.5442   -0.4391   -0.9579 C   0  0  0  0  0  0  0  0  0  0  0  0
    5.4443   -1.5414   -0.8952 H   0  0  0  0  0  0  0  0  0  0  0  0
    5.8279   -0.0686    0.0484 H   0  0  0  0  0  0  0  0  0  0  0  0
    6.3790   -0.2138   -1.6539 H   0  0  0  0  0  0  0  0  0  0  0  0
    3.4940   -0.2769   -3.2636 C   0  0  0  0  0  0  0  0  0  0  0  0
    3.2683   -1.3611   -3.2301 H   0  0  0  0  0  0  0  0  0  0  0  0
    4.3346   -0.1158   -3.9700 H   0  0  0  0  0  0  0  0  0  0  0  0
    2.5950    0.2391   -3.6536 H   0  0  0  0  0  0  0  0  0  0  0  0
  1 21  1  0  0  0  0
  1 17  1  0  0  0  0
  1 25  1  0  0  0  0
  2 33  1  0  0  0  0
  3  4  1  0  0  0  0
  3 15  1  0  0  0  0
  4  1  1  1  0  0  0
  5  4  1  0  0  0  0
  6  5  1  0  0  0  0
  7  2  1  1  0  0  0
  7  8  1  0  0  0  0
  7  5  1  0  0  0  0
  8  3  2  0  0  0  0
  9  8  1  0  0  0  0
  9 11  2  0  0  0  0
 10  9  1  0  0  0  0
 11 13  1  0  0  0  0
 12 11  1  0  0  0  0
 13 15  2  0  0  0  0
 13 14  1  0  0  0  0
 15 16  1  0  0  0  0
 17 20  1  0  0  0  0
 18 17  1  0  0  0  0
 19 17  1  0  0  0  0
 21 22  1  0  0  0  0
 23 21  1  0  0  0  0
 24 21  1  0  0  0  0
 25 26  1  0  0  0  0
 25 27  1  0  0  0  0
 28 25  1  0  0  0  0
 29  2  1  0  0  0  0
 29 30  1  0  0  0  0
 31 29  1  0  0  0  0
 32 29  1  0  0  0  0
 33 34  1  0  0  0  0
 33 35  1  0  0  0  0
 36 33  1  0  0  0  0
 37 38  1  0  0  0  0
 37  2  1  0  0  0  0
 39 37  1  0  0  0  0
 40 37  1  0  0  0  0
M  END
