4
q = 0.0, confidence = 0.974

 15 15  0  0  0  0  0  0  0  0999 V2000
   -1.7828    0.5548   -2.8039 C   0  0  0  0  0  0  0  0  0  0  0  0
   -0.4125    0.2446   -3.0424 C   0  0  0  0  0  3  0  0  0  0  0  0
    0.2720    1.0375   -3.3791 H   0  0  0  0  0  0  0  0  0  0  0  0
    0.0878   -1.0858   -2.8788 C   0  0  0  0  0  3  0  0  0  0  0  0
    1.1484   -1.2861   -3.0866 H   0  0  0  0  0  0  0  0  0  0  0  0
   -0.7692   -2.1556   -2.4927 C   0  0  0  0  0  0  0  0  0  0  0  0
   -0.3897   -3.1838   -2.4206 H   0  0  0  0  0  0  0  0  0  0  0  0
   -2.1142   -1.8476   -2.1761 C   0  0  0  0  0  0  0  0  0  0  0  0
   -2.7988   -2.6399   -1.8421 H   0  0  0  0  0  0  0  0  0  0  0  0
   -2.6003   -0.5079   -2.3049 C   0  0  0  0  0  0  0  0  0  0  0  0
   -3.6522   -0.3017   -2.0575 H   0  0  0  0  0  0  0  0  0  0  0  0
   -2.3420    1.9180   -3.0948 C   0  0  0  0  0  0  0  0  0  0  0  0
   -2.6666    1.9788   -4.1553 H   0  0  0  0  0  0  0  0  0  0  0  0
   -1.5850    2.7102   -2.9352 H   0  0  0  0  0  0  0  0  0  0  0  0
   -3.2235    2.1430   -2.4661 H   0  0  0  0  0  0  0  0  0  0  0  0
  1 10  2  0  0  0  0
  2  4  1  0  0  0  0
  2  1  1  0  0  0  0
  3  2  1  0  0  0  0
  4  6  1  0  0  0  0
  5  4  1  0  0  0  0
  6  7  1  0  0  0  0
  6  8  2  0  0  0  0
  8  9  1  0  0  0  0
 10  8  1  0  0  0  0
 10 11  1  0  0  0  0
 12 14  1  0  0  0  0
 12  1  1  0  0  0  0
 12 15  1  0  0  0  0
 13 12  1  0  0  0  0
M  END
