3
q = -1.0, confidence = 0.0

 30 31  0  0  1  0  0  0  0  0999 V2000
   -3.9671   -1.4830   -0.8692 O   0  0  0  0  0  0  0  0  0  0  0  0
   -5.0111    0.3845   -0.1008 O   0  0  0  0  0  0  0  0  0  0  0  0
   -0.3448    0.8025   -0.5287 C   0  0  0  0  0  3  0  0  0  0  0  0
   -0.3016    0.4448   -1.5774 H   0  0  0  0  0  0  0  0  0  0  0  0
   -0.4270    2.3644   -0.4911 C   0  0  1  0  0  0  0  0  0  0  0  0
   -0.3148    2.7547   -1.5275 H   0  0  0  0  0  0  0  0  0  0  0  0
   -1.8883    2.5809   -0.0059 C   0  0  2  0  0  0  0  0  0  0  0  0
   -2.0811    3.6211    0.3238 H   0  0  0  0  0  0  0  0  0  0  0  0
   -2.0381    1.4874    1.0681 C   0  0  0  0  0  0  0  0  0  0  0  0
   -3.0719    1.4074    1.4594 H   0  0  0  0  0  0  0  0  0  0  0  0
   -1.3282    1.5682    1.9102 H   0  0  0  0  0  0  0  0  0  0  0  0
   -1.6721    0.3378    0.1113 C   0  0  1  0  0  0  0  0  0  0  0  0
   -1.6592   -0.6854    0.5285 H   0  0  0  0  0  0  0  0  0  0  0  0
   -2.7510    0.5362   -1.0161 C   0  0  2  0  0  0  0  0  0  0  0  0
   -2.4046    0.0639   -1.9570 H   0  0  0  0  0  0  0  0  0  0  0  0
   -2.8674    2.0850   -1.0955 C   0  0  0  0  0  0  0  0  0  0  0  0
   -2.6159    2.4743   -2.1024 H   0  0  0  0  0  0  0  0  0  0  0  0
   -3.9057    2.3867   -0.8557 H   0  0  0  0  0  0  0  0  0  0  0  0
   -4.0437   -0.1487   -0.6166 C   0  0  0  0  0  0  0  0  0  0  0  0
   -5.0829   -2.2835   -0.4215 C   0  0  0  0  0  0  0  0  0  0  0  0
   -5.0710   -3.1755   -1.0785 H   0  0  0  0  0  0  0  0  0  0  0  0
   -6.0207   -1.7164   -0.5917 H   0  0  0  0  0  0  0  0  0  0  0  0
    0.5971    3.0868    0.3927 C   0  0  0  0  0  0  0  0  0  0  0  0
    0.4176    4.1818    0.3765 H   0  0  0  0  0  0  0  0  0  0  0  0
    1.6324    2.9093    0.0350 H   0  0  0  0  0  0  0  0  0  0  0  0
    0.5525    2.7326    1.4405 H   0  0  0  0  0  0  0  0  0  0  0  0
   -4.9385   -2.6639    1.0432 C   0  0  0  0  0  0  0  0  0  0  0  0
   -3.9784   -3.1866    1.2262 H   0  0  0  0  0  0  0  0  0  0  0  0
   -5.7645   -3.3388    1.3463 H   0  0  0  0  0  0  0  0  0  0  0  0
   -4.9798   -1.7619    1.6843 H   0  0  0  0  0  0  0  0  0  0  0  0
  1 19  1  0  0  0  0
  1 20  1  0  0  0  0
  3  5  1  0  0  0  0
  3 12  1  0  0  0  0
  4  3  1  0  0  0  0
  5  6  1  6  0  0  0
  5  7  1  0  0  0  0
  5 23  1  0  0  0  0
  7  8  1  1  0  0  0
  7  9  1  0  0  0  0
  9 10  1  0  0  0  0
  9 11  1  0  0  0  0
 12 13  1  1  0  0  0
 12  9  1  0  0  0  0
 14 15  1  6  0  0  0
 14 19  1  0  0  0  0
 14 12  1  0  0  0  0
 16 14  1  0  0  0  0
 16 18  1  0  0  0  0
 16  7  1  0  0  0  0
 17 16  1  0  0  0  0
 19  2  2  0  0  0  0
 20 27  1  0  0  0  0
 21 20  1  0  0  0  0
 22 20  1  0  0  0  0
 23 26  1  0  0  0  0
 24 23  1  0  0  0  0
 25 23  1  0  0  0  0
 27 28  1  0  0  0  0
 27 29  1  0  0  0  0
 27 30  1  0  0  0  0
M  END
