3
q = 0.0, confidence = 0.972

 41 43  0  0  0  0  0  0  0  0999 V2000
    0.1605   -2.2402    0.1503 N   0  0  0  0  0  0  0  0  0  0  0  0
   -1.8771   -1.5088    0.0100 N   0  0  0  0  0  0  0  0  0  0  0  0
   -0.5757   -1.0905    0.0320 C   0  0  0  0  0  2  0  0  0  0  0  0
   -0.6684   -3.3587    0.2007 C   0  0  0  0  0  0  0  0  0  0  0  0
   -0.2648   -4.3703    0.2984 H   0  0  0  0  0  0  0  0  0  0  0  0
   -1.9540   -2.8975    0.1105 C   0  0  0  0  0  0  0  0  0  0  0  0
   -2.9147   -3.4197    0.1049 H   0  0  0  0  0  0  0  0  0  0  0  0
   -3.0273   -0.6459   -0.0953 C   0  0  0  0  0  0  0  0  0  0  0  0
   -3.7157   -0.2977    1.0893 C   0  0  0  0  0  0  0  0  0  0  0  0
   -4.8344    0.5470    0.9595 C   0  0  0  0  0  0  0  0  0  0  0  0
   -5.3845    0.8422    1.8661 H   0  0  0  0  0  0  0  0  0  0  0  0
   -5.2454    1.0114   -0.2969 C   0  0  0  0  0  0  0  0  0  0  0  0
   -6.1205    1.6743   -0.3760 H   0  0  0  0  0  0  0  0  0  0  0  0
   -4.5573    0.6245   -1.4540 C   0  0  0  0  0  0  0  0  0  0  0  0
   -4.8938    0.9750   -2.4418 H   0  0  0  0  0  0  0  0  0  0  0  0
   -3.4343   -0.2226   -1.3809 C   0  0  0  0  0  0  0  0  0  0  0  0
   -2.7005   -0.6597   -2.6180 C   0  0  0  0  0  0  0  0  0  0  0  0
   -1.6926   -0.1916   -2.6760 H   0  0  0  0  0  0  0  0  0  0  0  0
   -3.2657   -0.3856   -3.5286 H   0  0  0  0  0  0  0  0  0  0  0  0
   -2.5356   -1.7570   -2.6284 H   0  0  0  0  0  0  0  0  0  0  0  0
   -3.2553   -0.7879    2.4348 C   0  0  0  0  0  0  0  0  0  0  0  0
   -3.9699   -0.4950    3.2267 H   0  0  0  0  0  0  0  0  0  0  0  0
   -2.2627   -0.3473    2.6743 H   0  0  0  0  0  0  0  0  0  0  0  0
   -3.1428   -1.8912    2.4612 H   0  0  0  0  0  0  0  0  0  0  0  0
    1.6006   -2.2780    0.2178 C   0  0  0  0  0  0  0  0  0  0  0  0
    2.2203   -2.0591    1.4702 C   0  0  0  0  0  0  0  0  0  0  0  0
    3.6291   -2.0403    1.4977 C   0  0  0  0  0  0  0  0  0  0  0  0
    4.1383   -1.8644    2.4578 H   0  0  0  0  0  0  0  0  0  0  0  0
    4.3765   -2.2566    0.3325 C   0  0  0  0  0  0  0  0  0  0  0  0
    5.4762   -2.2363    0.3751 H   0  0  0  0  0  0  0  0  0  0  0  0
    3.7306   -2.5253   -0.8816 C   0  0  0  0  0  0  0  0  0  0  0  0
    4.3197   -2.7217   -1.7905 H   0  0  0  0  0  0  0  0  0  0  0  0
    2.3252   -2.5507   -0.9655 C   0  0  0  0  0  0  0  0  0  0  0  0
    1.6249   -2.8340   -2.2657 C   0  0  0  0  0  0  0  0  0  0  0  0
    0.8650   -3.6353   -2.1632 H   0  0  0  0  0  0  0  0  0  0  0  0
    2.3485   -3.1409   -3.0440 H   0  0  0  0  0  0  0  0  0  0  0  0
    1.1003   -1.9176   -2.6139 H   0  0  0  0  0  0  0  0  0  0  0  0
    1.4126   -1.8597    2.7220 C   0  0  0  0  0  0  0  0  0  0  0  0
    0.9127   -0.8649    2.7248 H   0  0  0  0  0  0  0  0  0  0  0  0
    2.0558   -1.9289    3.6195 H   0  0  0  0  0  0  0  0  0  0  0  0
    0.6068   -2.6168    2.8116 H   0  0  0  0  0  0  0  0  0  0  0  0
  1  4  1  0  0  0  0
  1 25  1  0  0  0  0
  2  3  1  0  0  0  0
  2  6  1  0  0  0  0
  3  1  1  0  0  0  0
  4  5  1  0  0  0  0
  6  4  2  0  0  0  0
  7  6  1  0  0  0  0
  8  2  1  0  0  0  0
  8  9  1  0  0  0  0
  9 21  1  0  0  0  0
 10  9  2  0  0  0  0
 10 11  1  0  0  0  0
 12 10  1  0  0  0  0
 13 12  1  0  0  0  0
 14 16  1  0  0  0  0
 14 12  2  0  0  0  0
 15 14  1  0  0  0  0
 16  8  2  0  0  0  0
 17 16  1  0  0  0  0
 18 17  1  0  0  0  0
 19 17  1  0  0  0  0
 20 17  1  0  0  0  0
 21 24  1  0  0  0  0
 21 23  1  0  0  0  0
 21 22  1  0  0  0  0
 25 26  1  0  0  0  0
 26 27  2  0  0  0  0
 26 38  1  0  0  0  0
 27 28  1  0  0  0  0
 29 30  1  0  0  0  0
 29 27  1  0  0  0  0
 31 29  2  0  0  0  0
 32 31  1  0  0  0  0
 33 31  1  0  0  0  0
 33 25  2  0  0  0  0
 34 35  1  0  0  0  0
 34 33  1  0  0  0  0
 36 34  1  0  0  0  0
 37 34  1  0  0  0  0
 38 39  1  0  0  0  0
 38 41  1  0  0  0  0
 38 40  1  0  0  0  0
M  END
