3
q = 0.0, confidence = 0.876

 50 51  0  0  1  0  0  0  0  0999 V2000
   -0.6386    0.7180   -0.5381 C   0  0  0  0  0  0  0  0  0  0  0  0
    0.8400    0.7600   -0.6100 C   0  0  1  0  0  3  0  0  0  0  0  0
    0.8541   -0.7475   -0.6647 C   0  0  1  0  0  3  0  0  0  0  0  0
   -0.6354   -0.7286   -0.5718 C   0  0  0  0  0  0  0  0  0  0  0  0
   -1.8576   -1.4866   -0.5665 C   0  0  0  0  0  0  0  0  0  0  0  0
   -3.0346   -0.7271   -0.6264 C   0  0  0  0  0  0  0  0  0  0  0  0
   -3.0349    0.7300   -0.6058 C   0  0  0  0  0  0  0  0  0  0  0  0
   -1.8545    1.4845   -0.5671 C   0  0  0  0  0  0  0  0  0  0  0  0
   -1.8436    2.9898   -0.5355 C   0  0  0  0  0  0  0  0  0  0  0  0
   -1.0098    3.4016   -1.1318 H   0  0  0  0  0  0  0  0  0  0  0  0
   -1.7151    3.3640    0.5038 H   0  0  0  0  0  0  0  0  0  0  0  0
   -2.7739    3.4320   -0.9325 H   0  0  0  0  0  0  0  0  0  0  0  0
   -4.3871    1.4046   -0.5883 C   0  0  0  0  0  0  0  0  0  0  0  0
   -5.0080    1.0265    0.2499 H   0  0  0  0  0  0  0  0  0  0  0  0
   -4.9632    1.1995   -1.5153 H   0  0  0  0  0  0  0  0  0  0  0  0
   -4.3225    2.4987   -0.4716 H   0  0  0  0  0  0  0  0  0  0  0  0
   -4.3830   -1.4068   -0.7013 C   0  0  0  0  0  0  0  0  0  0  0  0
   -4.9920   -0.9955   -1.5315 H   0  0  0  0  0  0  0  0  0  0  0  0
   -4.9780   -1.2508    0.2244 H   0  0  0  0  0  0  0  0  0  0  0  0
   -4.3060   -2.4940   -0.8677 H   0  0  0  0  0  0  0  0  0  0  0  0
   -1.8757   -2.9897   -0.4724 C   0  0  0  0  0  0  0  0  0  0  0  0
   -1.0524   -3.3538    0.1649 H   0  0  0  0  0  0  0  0  0  0  0  0
   -1.7629   -3.4790   -1.4633 H   0  0  0  0  0  0  0  0  0  0  0  0
   -2.8158   -3.3618   -0.0279 H   0  0  0  0  0  0  0  0  0  0  0  0
    1.8501   -1.7800   -1.1820 C   0  0  0  0  0  0  0  0  0  0  0  0
    3.1797   -1.7607   -0.4021 C   0  0  0  0  0  0  0  0  0  0  0  0
    3.6506   -0.7653   -0.3791 H   0  0  0  0  0  0  0  0  0  0  0  0
    3.8981   -2.4657   -0.8686 H   0  0  0  0  0  0  0  0  0  0  0  0
    3.0143   -2.0809    0.6449 H   0  0  0  0  0  0  0  0  0  0  0  0
    2.0952   -1.4956   -2.6843 C   0  0  0  0  0  0  0  0  0  0  0  0
    2.7642   -2.2661   -3.1199 H   0  0  0  0  0  0  0  0  0  0  0  0
    2.5648   -0.5073   -2.8480 H   0  0  0  0  0  0  0  0  0  0  0  0
    1.1399   -1.5126   -3.2472 H   0  0  0  0  0  0  0  0  0  0  0  0
    1.2950   -3.2101   -1.0686 C   0  0  0  0  0  0  0  0  0  0  0  0
    0.4027   -3.3573   -1.7033 H   0  0  0  0  0  0  0  0  0  0  0  0
    1.0383   -3.4641   -0.0220 H   0  0  0  0  0  0  0  0  0  0  0  0
    2.0674   -3.9296   -1.4076 H   0  0  0  0  0  0  0  0  0  0  0  0
    1.7516    1.9249   -0.9883 C   0  0  0  0  0  0  0  0  0  0  0  0
    1.3481    2.3708   -2.4173 C   0  0  0  0  0  0  0  0  0  0  0  0
    1.9673    3.2313   -2.7443 H   0  0  0  0  0  0  0  0  0  0  0  0
    0.2841    2.6713   -2.4729 H   0  0  0  0  0  0  0  0  0  0  0  0
    1.4957    1.5462   -3.1430 H   0  0  0  0  0  0  0  0  0  0  0  0
    1.5734    3.0914    0.0095 C   0  0  0  0  0  0  0  0  0  0  0  0
    0.5157    3.3454    0.1870 H   0  0  0  0  0  0  0  0  0  0  0  0
    2.0845    3.9990   -0.3727 H   0  0  0  0  0  0  0  0  0  0  0  0
    2.0199    2.8335    0.9889 H   0  0  0  0  0  0  0  0  0  0  0  0
    3.2553    1.5953   -1.0068 C   0  0  0  0  0  0  0  0  0  0  0  0
    3.5145    0.8290   -1.7602 H   0  0  0  0  0  0  0  0  0  0  0  0
    3.6161    1.2585   -0.0172 H   0  0  0  0  0  0  0  0  0  0  0  0
    3.8181    2.5144   -1.2678 H   0  0  0  0  0  0  0  0  0  0  0  0
  2 38  1  6  0  0  0
  2  1  1  0  0  0  0
  3 25  1  6  0  0  0
  3  2  1  0  0  0  0
  3  4  1  0  0  0  0
  4  5  1  0  0  0  0
  4  1  2  0  0  0  0
  5 21  1  0  0  0  0
  6  7  1  0  0  0  0
  6  5  2  0  0  0  0
  7 13  1  0  0  0  0
  7  8  2  0  0  0  0
  8  1  1  0  0  0  0
  8  9  1  0  0  0  0
  9 11  1  0  0  0  0
 10  9  1  0  0  0  0
 12  9  1  0  0  0  0
 13 16  1  0  0  0  0
 13 14  1  0  0  0  0
 15 13  1  0  0  0  0
 17  6  1  0  0  0  0
 17 19  1  0  0  0  0
 18 17  1  0  0  0  0
 20 17  1  0  0  0  0
 21 24  1  0  0  0  0
 21 22  1  0  0  0  0
 23 21  1  0  0  0  0
 25 34  1  0  0  0  0
 25 26  1  0  0  0  0
 26 27  1  0  0  0  0
 26 29  1  0  0  0  0
 28 26  1  0  0  0  0
 30 25  1  0  0  0  0
 31 30  1  0  0  0  0
 32 30  1  0  0  0  0
 33 30  1  0  0  0  0
 34 36  1  0  0  0  0
 35 34  1  0  0  0  0
 37 34  1  0  0  0  0
 38 43  1  0  0  0  0
 39 38  1  0  0  0  0
 40 39  1  0  0  0  0
 41 39  1  0  0  0  0
 42 39  1  0  0  0  0
 43 44  1  0  0  0  0
 43 46  1  0  0  0  0
 45 43  1  0  0  0  0
 47 38  1  0  0  0  0
 47 49  1  0  0  0  0
 48 47  1  0  0  0  0
 50 47  1  0  0  0  0
M  END
