2
q = 0.0, confidence = 0.92

 12 11  0  0  0  0  0  0  0  0999 V2000
   -1.7126   -2.7439   -0.6671 C   0  0  0  0  0  3  0  0  0  0  0  0
   -1.0958   -1.8491   -1.5242 C   0  0  0  0  0  3  0  0  0  0  0  0
   -3.1090   -2.4910   -0.1617 C   0  0  0  0  0  0  0  0  0  0  0  0
   -1.1711   -4.1184   -0.3926 C   0  0  0  0  0  0  0  0  0  0  0  0
   -0.2207   -2.1655   -2.1135 H   0  0  0  0  0  0  0  0  0  0  0  0
   -1.6591   -0.9734   -1.8896 H   0  0  0  0  0  0  0  0  0  0  0  0
   -3.8204   -3.1261   -0.7365 H   0  0  0  0  0  0  0  0  0  0  0  0
   -3.4308   -1.4388   -0.2852 H   0  0  0  0  0  0  0  0  0  0  0  0
   -3.2284   -2.7925    0.8997 H   0  0  0  0  0  0  0  0  0  0  0  0
   -1.8055   -4.8746   -0.9084 H   0  0  0  0  0  0  0  0  0  0  0  0
   -0.1239   -4.2284   -0.7280 H   0  0  0  0  0  0  0  0  0  0  0  0
   -1.2116   -4.3588    0.6910 H   0  0  0  0  0  0  0  0  0  0  0  0
  1  4  1  0  0  0  0
  1  3  1  0  0  0  0
  2  1  1  0  0  0  0
  3  9  1  0  0  0  0
  4 12  1  0  0  0  0
  5  2  1  0  0  0  0
  6  2  1  0  0  0  0
  7  3  1  0  0  0  0
  8  3  1  0  0  0  0
 10  4  1  0  0  0  0
 11  4  1  0  0  0  0
M  END
