3
q = 0.0, confidence = 0.788

  3  2  0  0  0  0  0  0  0  0999 V2000
   -3.7027    1.3362    0.6002 F   0  0  0  0  0  0  0  0  0  0  0  0
   -1.8511    2.0314    1.3921 F   0  0  0  0  0  0  0  0  0  0  0  0
   -2.3964    1.0170    0.6724 C   0  0  0  0  0  0  0  0  0  0  0  0
  1  3  1  0  0  0  0
  3  2  1  0  0  0  0
M  END
