7
q = -1.0, confidence = 0.006

 54 57  0  0  1  0  0  0  0  0999 V2000
   -0.6211    0.3439   -2.9040 Cl  0  0  0  0  0  0  0  0  0  0  0  0
   -1.6532    0.2945    2.9024 O   0  0  0  0  0  0  0  0  0  0  0  0
    1.6513   -2.1870    0.1490 N   0  0  0  0  0  0  0  0  0  0  0  0
    2.1542   -0.3393   -1.2759 N   0  0  0  0  0  0  0  0  0  0  0  0
   -0.8755    0.4007   -1.1594 C   0  0  1  0  0  3  0  0  0  0  0  0
   -0.0726   -0.4270   -0.3234 C   0  0  2  0  0  3  0  0  0  0  0  0
   -0.3540   -0.4290    1.0744 C   0  0  0  0  0  3  0  0  0  0  0  0
   -1.3986    0.4121    1.5793 C   0  0  1  0  0  3  0  0  0  0  0  0
   -2.1572    1.1722    0.6523 C   0  0  0  0  0  3  0  0  0  0  0  0
   -1.4624    1.6844   -0.6092 C   0  0  1  0  0  0  0  0  0  0  0  0
   -0.4962    2.8436   -0.3837 C   0  0  0  0  0  0  0  0  0  0  0  0
    0.8826    2.7221   -0.6392 C   0  0  0  0  0  0  0  0  0  0  0  0
    1.7448    3.8019   -0.3868 C   0  0  0  0  0  0  0  0  0  0  0  0
    1.2459    5.0099    0.1232 C   0  0  0  0  0  0  0  0  0  0  0  0
   -0.1308    5.1393    0.3721 C   0  0  0  0  0  0  0  0  0  0  0  0
   -0.9935    4.0644    0.1159 C   0  0  0  0  0  0  0  0  0  0  0  0
   -2.7885    0.9651    3.4326 C   0  0  0  0  0  0  0  0  0  0  0  0
    1.0868   -1.2756   -0.8745 C   0  0  2  0  0  0  0  0  0  0  0  0
    1.4909   -3.6104   -0.0767 C   0  0  0  0  0  0  0  0  0  0  0  0
    2.8362   -0.7104   -2.5098 C   0  0  0  0  0  0  0  0  0  0  0  0
    3.0203   -1.7509    0.4103 C   0  0  1  0  0  0  0  0  0  0  0  0
    2.9859   -0.2930   -0.0647 C   0  0  1  0  0  0  0  0  0  0  0  0
    4.3748    0.3242   -0.1107 C   0  0  0  0  0  0  0  0  0  0  0  0
    4.9782    0.2300    1.3054 C   0  0  0  0  0  0  0  0  0  0  0  0
    4.9537   -1.2017    1.8730 C   0  0  0  0  0  0  0  0  0  0  0  0
    3.5492   -1.8343    1.8403 C   0  0  0  0  0  0  0  0  0  0  0  0
    0.2238   -1.0905    1.7320 H   0  0  0  0  0  0  0  0  0  0  0  0
   -3.0599    1.6928    0.9989 H   0  0  0  0  0  0  0  0  0  0  0  0
   -2.2562    2.0166   -1.3094 H   0  0  0  0  0  0  0  0  0  0  0  0
    1.2871    1.7785   -1.0457 H   0  0  0  0  0  0  0  0  0  0  0  0
    2.8214    3.6950   -0.5950 H   0  0  0  0  0  0  0  0  0  0  0  0
    1.9255    5.8526    0.3221 H   0  0  0  0  0  0  0  0  0  0  0  0
   -0.5346    6.0856    0.7638 H   0  0  0  0  0  0  0  0  0  0  0  0
   -2.0735    4.1746    0.3082 H   0  0  0  0  0  0  0  0  0  0  0  0
   -2.7692    0.7874    4.5230 H   0  0  0  0  0  0  0  0  0  0  0  0
   -3.7323    0.5506    3.0168 H   0  0  0  0  0  0  0  0  0  0  0  0
   -2.7464    2.0586    3.2371 H   0  0  0  0  0  0  0  0  0  0  0  0
    0.7256   -1.8301   -1.7647 H   0  0  0  0  0  0  0  0  0  0  0  0
    0.4295   -3.8665   -0.2481 H   0  0  0  0  0  0  0  0  0  0  0  0
    1.8235   -4.1714    0.8206 H   0  0  0  0  0  0  0  0  0  0  0  0
    2.0844   -3.9879   -0.9505 H   0  0  0  0  0  0  0  0  0  0  0  0
    3.5890    0.0609   -2.7646 H   0  0  0  0  0  0  0  0  0  0  0  0
    3.3517   -1.7026   -2.4801 H   0  0  0  0  0  0  0  0  0  0  0  0
    2.0945   -0.7290   -3.3313 H   0  0  0  0  0  0  0  0  0  0  0  0
    3.7395   -2.3161   -0.2446 H   0  0  0  0  0  0  0  0  0  0  0  0
    2.3987    0.2813    0.6910 H   0  0  0  0  0  0  0  0  0  0  0  0
    5.0204   -0.2214   -0.8319 H   0  0  0  0  0  0  0  0  0  0  0  0
    4.3263    1.3814   -0.4467 H   0  0  0  0  0  0  0  0  0  0  0  0
    6.0180    0.6169    1.3011 H   0  0  0  0  0  0  0  0  0  0  0  0
    4.4004    0.8981    1.9820 H   0  0  0  0  0  0  0  0  0  0  0  0
    5.3501   -1.2023    2.9093 H   0  0  0  0  0  0  0  0  0  0  0  0
    5.6463   -1.8380    1.2778 H   0  0  0  0  0  0  0  0  0  0  0  0
    3.5861   -2.8835    2.2015 H   0  0  0  0  0  0  0  0  0  0  0  0
    2.8570   -1.2832    2.5142 H   0  0  0  0  0  0  0  0  0  0  0  0
  2 17  1  0  0  0  0
  3 21  1  0  0  0  0
  4 18  1  0  0  0  0
  4 22  1  0  0  0  0
  5  1  1  6  0  0  0
  5 10  1  0  0  0  0
  5  6  1  0  0  0  0
  6  7  1  1  0  0  0
  7  8  1  0  0  0  0
  7 27  1  0  0  0  0
  8  2  1  6  0  0  0
  9 28  1  0  0  0  0
  9  8  1  0  0  0  0
 10 29  1  6  0  0  0
 10 11  1  0  0  0  0
 10  9  1  0  0  0  0
 11 16  1  0  0  0  0
 12 13  1  0  0  0  0
 12 11  2  0  0  0  0
 13 14  2  0  0  0  0
 14 32  1  0  0  0  0
 14 15  1  0  0  0  0
 15 33  1  0  0  0  0
 16 34  1  0  0  0  0
 16 15  2  0  0  0  0
 17 35  1  0  0  0  0
 18 38  1  6  0  0  0
 18  6  1  0  0  0  0
 18  3  1  0  0  0  0
 19  3  1  0  0  0  0
 19 40  1  0  0  0  0
 20 43  1  0  0  0  0
 20  4  1  0  0  0  0
 21 45  1  6  0  0  0
 21 26  1  0  0  0  0
 22 21  1  0  0  0  0
 22 46  1  1  0  0  0
 23 22  1  0  0  0  0
 23 24  1  0  0  0  0
 24 25  1  0  0  0  0
 24 50  1  0  0  0  0
 25 51  1  0  0  0  0
 26 25  1  0  0  0  0
 26 53  1  0  0  0  0
 26 54  1  0  0  0  0
 30 12  1  0  0  0  0
 31 13  1  0  0  0  0
 36 17  1  0  0  0  0
 37 17  1  0  0  0  0
 39 19  1  0  0  0  0
 41 19  1  0  0  0  0
 42 20  1  0  0  0  0
 44 20  1  0  0  0  0
 47 23  1  0  0  0  0
 48 23  1  0  0  0  0
 49 24  1  0  0  0  0
 52 25  1  0  0  0  0
M  END
