3
q = -1.0, confidence = 0.0

 33 33  0  0  0  0  0  0  0  0999 V2000
   -3.6866   -1.7063   -1.3644 N   0  0  0  0  0  0  0  0  0  0  0  0
    1.9427   -0.6942    2.3010 N   0  0  0  0  0  0  0  0  0  0  0  0
   -0.7984   -0.8233    0.9264 C   0  0  0  0  0  3  0  0  0  0  0  0
   -2.0363   -1.3236    0.4739 C   0  0  0  0  0  0  0  0  0  0  0  0
   -3.0440   -1.5870    1.4220 C   0  0  0  0  0  0  0  0  0  0  0  0
   -2.8276   -1.3520    2.7856 C   0  0  0  0  0  0  0  0  0  0  0  0
   -1.5880   -0.8651    3.2190 C   0  0  0  0  0  0  0  0  0  0  0  0
   -0.5552   -0.5935    2.2975 C   0  0  0  0  0  0  0  0  0  0  0  0
   -2.2846   -1.6199   -0.9952 C   0  0  0  0  0  0  0  0  0  0  0  0
   -3.9008   -2.4738   -2.5754 C   0  0  0  0  0  0  0  0  0  0  0  0
   -4.3353   -0.4107   -1.4125 C   0  0  0  0  0  0  0  0  0  0  0  0
    0.7520   -0.0118    2.8002 C   0  0  0  0  0  0  0  0  0  0  0  0
    2.0040   -2.0924    2.6956 C   0  0  0  0  0  0  0  0  0  0  0  0
    3.1515    0.0346    2.6304 C   0  0  0  0  0  0  0  0  0  0  0  0
   -3.9990   -1.9878    1.0486 H   0  0  0  0  0  0  0  0  0  0  0  0
   -3.6238   -1.5629    3.5158 H   0  0  0  0  0  0  0  0  0  0  0  0
   -1.4025   -0.6890    4.2909 H   0  0  0  0  0  0  0  0  0  0  0  0
   -1.7287   -0.8615   -1.6158 H   0  0  0  0  0  0  0  0  0  0  0  0
   -1.7858   -2.5866   -1.2225 H   0  0  0  0  0  0  0  0  0  0  0  0
   -3.4499   -2.0006   -3.4901 H   0  0  0  0  0  0  0  0  0  0  0  0
   -4.9881   -2.5895   -2.7638 H   0  0  0  0  0  0  0  0  0  0  0  0
   -3.4603   -3.4854   -2.4689 H   0  0  0  0  0  0  0  0  0  0  0  0
   -4.2117    0.1162   -0.4452 H   0  0  0  0  0  0  0  0  0  0  0  0
   -5.4221   -0.5302   -1.6003 H   0  0  0  0  0  0  0  0  0  0  0  0
   -3.9191    0.2585   -2.2148 H   0  0  0  0  0  0  0  0  0  0  0  0
    0.8228    1.0484    2.4692 H   0  0  0  0  0  0  0  0  0  0  0  0
    0.7294    0.0051    3.9225 H   0  0  0  0  0  0  0  0  0  0  0  0
    2.8756   -2.5784    2.2134 H   0  0  0  0  0  0  0  0  0  0  0  0
    1.0976   -2.6226    2.3458 H   0  0  0  0  0  0  0  0  0  0  0  0
    2.0947   -2.2238    3.8062 H   0  0  0  0  0  0  0  0  0  0  0  0
    3.3390    0.1075    3.7356 H   0  0  0  0  0  0  0  0  0  0  0  0
    3.0904    1.0685    2.2313 H   0  0  0  0  0  0  0  0  0  0  0  0
    4.0321   -0.4681    2.1793 H   0  0  0  0  0  0  0  0  0  0  0  0
  1  9  1  0  0  0  0
  2 14  1  0  0  0  0
  2 13  1  0  0  0  0
  2 12  1  0  0  0  0
  3  8  1  0  0  0  0
  4  3  2  0  0  0  0
  4  5  1  0  0  0  0
  5  6  2  0  0  0  0
  6  7  1  0  0  0  0
  6 16  1  0  0  0  0
  7 17  1  0  0  0  0
  8 12  1  0  0  0  0
  8  7  2  0  0  0  0
  9  4  1  0  0  0  0
 10 22  1  0  0  0  0
 10  1  1  0  0  0  0
 11  1  1  0  0  0  0
 11 23  1  0  0  0  0
 12 27  1  0  0  0  0
 13 30  1  0  0  0  0
 14 31  1  0  0  0  0
 15  5  1  0  0  0  0
 18  9  1  0  0  0  0
 19  9  1  0  0  0  0
 20 10  1  0  0  0  0
 21 10  1  0  0  0  0
 24 11  1  0  0  0  0
 25 11  1  0  0  0  0
 26 12  1  0  0  0  0
 28 13  1  0  0  0  0
 29 13  1  0  0  0  0
 32 14  1  0  0  0  0
 33 14  1  0  0  0  0
M  END
