2
q = -1.0, confidence = 0.006

 19 19  0  0  0  0  0  0  0  0999 V2000
   -1.8069   -0.0023   -1.5768 O   0  0  0  0  0  0  0  0  0  0  0  0
   -2.2245   -0.0005   -0.3943 C   0  0  0  0  0  3  0  0  0  0  0  0
   -3.6537    0.0000    0.0448 C   0  0  0  0  0  0  0  0  0  0  0  0
   -4.3693    1.2741   -0.4606 C   0  0  0  0  0  0  0  0  0  0  0  0
   -5.8492    1.2665   -0.0612 C   0  0  0  0  0  0  0  0  0  0  0  0
   -6.5616   -0.0014   -0.5498 C   0  0  0  0  0  0  0  0  0  0  0  0
   -5.8489   -1.2675   -0.0569 C   0  0  0  0  0  0  0  0  0  0  0  0
   -4.3690   -1.2760   -0.4563 C   0  0  0  0  0  0  0  0  0  0  0  0
   -3.6620    0.0019    1.1553 H   0  0  0  0  0  0  0  0  0  0  0  0
   -4.2738    1.3132   -1.5677 H   0  0  0  0  0  0  0  0  0  0  0  0
   -3.8561    2.1716   -0.0593 H   0  0  0  0  0  0  0  0  0  0  0  0
   -6.3500    2.1737   -0.4592 H   0  0  0  0  0  0  0  0  0  0  0  0
   -5.9273    1.3284    1.0474 H   0  0  0  0  0  0  0  0  0  0  0  0
   -6.5790   -0.0033   -1.6631 H   0  0  0  0  0  0  0  0  0  0  0  0
   -7.6217   -0.0010   -0.2204 H   0  0  0  0  0  0  0  0  0  0  0  0
   -5.9270   -1.3257    1.0519 H   0  0  0  0  0  0  0  0  0  0  0  0
   -6.3494   -2.1761   -0.4519 H   0  0  0  0  0  0  0  0  0  0  0  0
   -3.8555   -2.1720   -0.0520 H   0  0  0  0  0  0  0  0  0  0  0  0
   -4.2734   -1.3188   -1.5632 H   0  0  0  0  0  0  0  0  0  0  0  0
  1  2  2  0  0  0  0
  2  3  1  0  0  0  0
  3  9  1  0  0  0  0
  4  5  1  0  0  0  0
  4 11  1  0  0  0  0
  4  3  1  0  0  0  0
  5 13  1  0  0  0  0
  6 15  1  0  0  0  0
  6  5  1  0  0  0  0
  6  7  1  0  0  0  0
  7 16  1  0  0  0  0
  8  7  1  0  0  0  0
  8 18  1  0  0  0  0
  8  3  1  0  0  0  0
 10  4  1  0  0  0  0
 12  5  1  0  0  0  0
 14  6  1  0  0  0  0
 17  7  1  0  0  0  0
 19  8  1  0  0  0  0
M  END
