1
q = 0.0, confidence = 0.948

  7  6  0  0  0  0  0  0  0  0999 V2000
    0.6992   -0.2500    1.6065 C   0  0  0  0  0  1  0  0  0  0  0  0
    1.3108   -0.7694    2.6602 C   0  0  0  0  0  3  0  0  0  0  0  0
    2.8028   -0.8963    2.8638 C   0  0  0  0  0  0  0  0  0  0  0  0
    0.6496   -1.1214    3.4774 H   0  0  0  0  0  0  0  0  0  0  0  0
    3.3708   -0.4873    2.0063 H   0  0  0  0  0  0  0  0  0  0  0  0
    3.1242   -0.3488    3.7737 H   0  0  0  0  0  0  0  0  0  0  0  0
    3.0978   -1.9578    3.0006 H   0  0  0  0  0  0  0  0  0  0  0  0
  1  2  1  0  0  0  0
  2  3  1  0  0  0  0
  2  4  1  0  0  0  0
  3  7  1  0  0  0  0
  3  6  1  0  0  0  0
  5  3  1  0  0  0  0
M  END
