1
q = 0.0, confidence = 1.0

 31 31  0  0  0  0  0  0  0  0999 V2000
   -1.9424    0.0001   -0.0297 C   0  0  0  0  0  1  0  0  0  0  0  0
   -3.1244    0.0001   -0.0360 N   0  0  0  0  0  2  0  0  0  0  0  0
   -4.4982    0.0000   -0.0418 C   0  0  0  0  0  0  0  0  0  0  0  0
   -5.1740    1.2524   -0.0505 C   0  0  0  0  0  0  0  0  0  0  0  0
   -6.5767    1.2258   -0.0696 C   0  0  0  0  0  0  0  0  0  0  0  0
   -7.2585   -0.0001   -0.0779 C   0  0  0  0  0  0  0  0  0  0  0  0
   -9.1598   -0.0002   -0.1079 Br  0  0  0  0  0  0  0  0  0  0  0  0
   -6.5765   -1.2259   -0.0696 C   0  0  0  0  0  0  0  0  0  0  0  0
   -5.1739   -1.2524   -0.0505 C   0  0  0  0  0  0  0  0  0  0  0  0
   -4.3831   -2.5497    0.0117 C   0  0  0  0  0  0  0  0  0  0  0  0
   -5.1220   -3.7514   -0.5857 C   0  0  0  0  0  0  0  0  0  0  0  0
   -5.4749   -3.5486   -1.6166 H   0  0  0  0  0  0  0  0  0  0  0  0
   -5.9989   -4.0460    0.0274 H   0  0  0  0  0  0  0  0  0  0  0  0
   -4.4442   -4.6269   -0.6228 H   0  0  0  0  0  0  0  0  0  0  0  0
   -3.9444   -2.8315    1.4634 C   0  0  0  0  0  0  0  0  0  0  0  0
   -3.2915   -3.7262    1.4985 H   0  0  0  0  0  0  0  0  0  0  0  0
   -4.8277   -3.0111    2.1104 H   0  0  0  0  0  0  0  0  0  0  0  0
   -3.3686   -1.9881    1.8916 H   0  0  0  0  0  0  0  0  0  0  0  0
   -3.4554   -2.3961   -0.5818 H   0  0  0  0  0  0  0  0  0  0  0  0
   -7.1453   -2.1645   -0.0815 H   0  0  0  0  0  0  0  0  0  0  0  0
   -7.1455    2.1643   -0.0816 H   0  0  0  0  0  0  0  0  0  0  0  0
   -4.3833    2.5498    0.0116 C   0  0  0  0  0  0  0  0  0  0  0  0
   -3.9447    2.8317    1.4632 C   0  0  0  0  0  0  0  0  0  0  0  0
   -3.3688    1.9883    1.8916 H   0  0  0  0  0  0  0  0  0  0  0  0
   -4.8280    3.0112    2.1103 H   0  0  0  0  0  0  0  0  0  0  0  0
   -3.2918    3.7264    1.4984 H   0  0  0  0  0  0  0  0  0  0  0  0
   -5.1223    3.7513   -0.5859 C   0  0  0  0  0  0  0  0  0  0  0  0
   -4.4447    4.6269   -0.6229 H   0  0  0  0  0  0  0  0  0  0  0  0
   -5.9993    4.0459    0.0273 H   0  0  0  0  0  0  0  0  0  0  0  0
   -5.4753    3.5485   -1.6167 H   0  0  0  0  0  0  0  0  0  0  0  0
   -3.4556    2.3963   -0.5819 H   0  0  0  0  0  0  0  0  0  0  0  0
  2  1  1  0  0  0  0
  3  2  1  0  0  0  0
  4  3  2  0  0  0  0
  4 22  1  0  0  0  0
  5  4  1  0  0  0  0
  6  5  2  0  0  0  0
  6  8  1  0  0  0  0
  7  6  1  0  0  0  0
  8  9  2  0  0  0  0
  9  3  1  0  0  0  0
  9 10  1  0  0  0  0
 10 15  1  0  0  0  0
 11 10  1  0  0  0  0
 11 13  1  0  0  0  0
 12 11  1  0  0  0  0
 14 11  1  0  0  0  0
 15 16  1  0  0  0  0
 15 18  1  0  0  0  0
 15 17  1  0  0  0  0
 19 10  1  0  0  0  0
 20  8  1  0  0  0  0
 21  5  1  0  0  0  0
 22 23  1  0  0  0  0
 23 26  1  0  0  0  0
 23 24  1  0  0  0  0
 23 25  1  0  0  0  0
 27 22  1  0  0  0  0
 27 29  1  0  0  0  0
 28 27  1  0  0  0  0
 30 27  1  0  0  0  0
 31 22  1  0  0  0  0
M  END
