7
q = 0.0, confidence = 0.996

 18 19  0  0  1  0  0  0  0  0999 V2000
    2.2558    1.4618    0.4223 S   0  0  0  0  0  0  0  0  0  0  0  0
    2.1783   -1.5026    0.2325 S   0  0  0  0  0  0  0  0  0  0  0  0
   -0.6887   -1.1931    1.6448 C   0  0  0  0  0  0  0  0  0  0  0  0
   -2.0082   -0.7377    1.8905 C   0  0  0  0  0  0  0  0  0  0  0  0
   -2.0014    0.7035    1.9048 C   0  0  0  0  0  0  0  0  0  0  0  0
   -0.6796    1.1532    1.6660 C   0  0  0  0  0  0  0  0  0  0  0  0
    0.1702   -0.0231    1.4992 C   0  0  2  0  0  3  0  0  0  0  0  0
    1.3459   -0.0171    0.7057 C   0  0  0  0  0  3  0  0  0  0  0  0
    3.2406    0.7183   -0.9290 C   0  0  0  0  0  0  0  0  0  0  0  0
    3.6610   -0.6658   -0.4556 C   0  0  0  0  0  0  0  0  0  0  0  0
   -0.3616   -2.2368    1.5677 H   0  0  0  0  0  0  0  0  0  0  0  0
   -2.8884   -1.3744    2.0349 H   0  0  0  0  0  0  0  0  0  0  0  0
   -2.8763    1.3444    2.0628 H   0  0  0  0  0  0  0  0  0  0  0  0
   -0.3449    2.1948    1.5994 H   0  0  0  0  0  0  0  0  0  0  0  0
    4.1116    1.3775   -1.1145 H   0  0  0  0  0  0  0  0  0  0  0  0
    2.6096    0.6744   -1.8403 H   0  0  0  0  0  0  0  0  0  0  0  0
    4.0315   -1.2935   -1.2908 H   0  0  0  0  0  0  0  0  0  0  0  0
    4.4395   -0.6066    0.3320 H   0  0  0  0  0  0  0  0  0  0  0  0
  1  8  1  0  0  0  0
  2  8  1  0  0  0  0
  3  4  2  0  0  0  0
  4  5  1  0  0  0  0
  4 12  1  0  0  0  0
  5 13  1  0  0  0  0
  6  5  2  0  0  0  0
  7  8  1  6  0  0  0
  7  3  1  0  0  0  0
  7  6  1  0  0  0  0
  9 10  1  0  0  0  0
  9  1  1  0  0  0  0
 10  2  1  0  0  0  0
 10 18  1  0  0  0  0
 11  3  1  0  0  0  0
 14  6  1  0  0  0  0
 15  9  1  0  0  0  0
 16  9  1  0  0  0  0
 17 10  1  0  0  0  0
M  END
