1
q = 0.0, confidence = 1.0

 35 35  0  0  0  0  0  0  0  0999 V2000
   -2.9204   -0.6106    0.0375 C   0  0  0  0  0  2  0  0  0  0  0  0
   -3.7463   -1.6624    0.0358 N   0  0  0  0  0  0  0  0  0  0  0  0
   -3.2093   -3.0337    0.0652 C   0  0  0  0  0  0  0  0  0  0  0  0
   -2.1933   -2.9962   -0.3774 H   0  0  0  0  0  0  0  0  0  0  0  0
   -3.8350   -3.6526   -0.6112 H   0  0  0  0  0  0  0  0  0  0  0  0
   -3.1622   -3.6234    1.4708 C   0  0  0  0  0  0  0  0  0  0  0  0
   -2.4893   -3.0278    2.1201 H   0  0  0  0  0  0  0  0  0  0  0  0
   -2.7795   -4.6624    1.4354 H   0  0  0  0  0  0  0  0  0  0  0  0
   -4.1646   -3.6534    1.9438 H   0  0  0  0  0  0  0  0  0  0  0  0
   -5.2130   -1.5278    0.0170 C   0  0  0  0  0  0  0  0  0  0  0  0
   -5.6337   -2.4385    0.4865 H   0  0  0  0  0  0  0  0  0  0  0  0
   -5.5069   -0.6925    0.6896 H   0  0  0  0  0  0  0  0  0  0  0  0
   -5.7773   -1.3387   -1.3917 C   0  0  0  0  0  0  0  0  0  0  0  0
   -5.3804   -0.4243   -1.8763 H   0  0  0  0  0  0  0  0  0  0  0  0
   -6.8812   -1.2563   -1.3551 H   0  0  0  0  0  0  0  0  0  0  0  0
   -5.5222   -2.2006   -2.0394 H   0  0  0  0  0  0  0  0  0  0  0  0
   -3.4231    0.6399    0.0231 N   0  0  0  0  0  0  0  0  0  0  0  0
   -4.4371    0.8039    0.0254 H   0  0  0  0  0  0  0  0  0  0  0  0
   -2.5602    1.7966    0.0593 C   0  0  0  0  0  0  0  0  0  0  0  0
   -2.0163    2.2824   -1.1543 C   0  0  0  0  0  0  0  0  0  0  0  0
   -1.1266    3.3708   -1.0824 C   0  0  0  0  0  0  0  0  0  0  0  0
   -0.6699    3.7502   -2.0086 H   0  0  0  0  0  0  0  0  0  0  0  0
   -0.8136    3.9633    0.1476 C   0  0  0  0  0  0  0  0  0  0  0  0
   -0.1164    4.8135    0.1821 H   0  0  0  0  0  0  0  0  0  0  0  0
   -1.3859    3.4803    1.3326 C   0  0  0  0  0  0  0  0  0  0  0  0
   -1.1445    3.9558    2.2958 H   0  0  0  0  0  0  0  0  0  0  0  0
   -2.2663    2.3815    1.3138 C   0  0  0  0  0  0  0  0  0  0  0  0
   -2.3517    1.6338   -2.4712 C   0  0  0  0  0  0  0  0  0  0  0  0
   -3.4474    1.5757   -2.6362 H   0  0  0  0  0  0  0  0  0  0  0  0
   -1.9674    0.5920   -2.5162 H   0  0  0  0  0  0  0  0  0  0  0  0
   -1.9054    2.1941   -3.3132 H   0  0  0  0  0  0  0  0  0  0  0  0
   -2.8435    1.8149    2.5844 C   0  0  0  0  0  0  0  0  0  0  0  0
   -3.9523    1.7801    2.5605 H   0  0  0  0  0  0  0  0  0  0  0  0
   -2.5452    2.4184    3.4617 H   0  0  0  0  0  0  0  0  0  0  0  0
   -2.4957    0.7730    2.7525 H   0  0  0  0  0  0  0  0  0  0  0  0
  2  1  1  0  0  0  0
  2  3  1  0  0  0  0
  3  6  1  0  0  0  0
  4  3  1  0  0  0  0
  5  3  1  0  0  0  0
  6  9  1  0  0  0  0
  6  7  1  0  0  0  0
  8  6  1  0  0  0  0
 10  2  1  0  0  0  0
 10 11  1  0  0  0  0
 10 12  1  0  0  0  0
 13 15  1  0  0  0  0
 13 10  1  0  0  0  0
 14 13  1  0  0  0  0
 16 13  1  0  0  0  0
 17 18  1  0  0  0  0
 17  1  1  0  0  0  0
 17 19  1  0  0  0  0
 19 27  1  0  0  0  0
 20 21  1  0  0  0  0
 20 19  2  0  0  0  0
 21 23  2  0  0  0  0
 22 21  1  0  0  0  0
 23 24  1  0  0  0  0
 23 25  1  0  0  0  0
 25 26  1  0  0  0  0
 27 25  2  0  0  0  0
 27 32  1  0  0  0  0
 28 20  1  0  0  0  0
 29 28  1  0  0  0  0
 30 28  1  0  0  0  0
 31 28  1  0  0  0  0
 32 35  1  0  0  0  0
 32 34  1  0  0  0  0
 33 32  1  0  0  0  0
M  END
