1
q = 0.0, confidence = 0.938

 11 10  0  0  0  0  0  0  0  0999 V2000
   -0.6969   -1.2461   -0.6307 C   0  0  0  0  0  1  0  0  0  0  0  0
   -1.6720   -1.7908   -1.0436 N   0  0  0  0  0  2  0  0  0  0  0  0
   -3.0579   -2.0844   -1.0820 C   0  0  0  0  0  0  0  0  0  0  0  0
   -3.3670   -2.4423   -0.0749 H   0  0  0  0  0  0  0  0  0  0  0  0
   -3.2544   -2.9096   -1.7987 H   0  0  0  0  0  0  0  0  0  0  0  0
   -3.8971   -0.8585   -1.4942 C   0  0  0  0  0  0  0  0  0  0  0  0
   -3.6274   -0.5563   -2.5242 H   0  0  0  0  0  0  0  0  0  0  0  0
   -4.9685   -1.1655   -1.5039 H   0  0  0  0  0  0  0  0  0  0  0  0
   -3.6803    0.3203   -0.6625 N   0  0  0  0  0  0  0  0  0  0  0  0
   -4.0395    0.2834    0.5198 N   0  0  0  0  0  4  0  0  0  0  0  0
   -4.3294    0.4006    1.6264 N   0  0  0  0  0  2  0  0  0  0  0  0
  2  1  1  0  0  0  0
  3  2  1  0  0  0  0
  3  4  1  0  0  0  0
  5  3  1  0  0  0  0
  6  3  1  0  0  0  0
  6  9  1  0  0  0  0
  7  6  1  0  0  0  0
  8  6  1  0  0  0  0
  9 10  2  0  0  0  0
 10 11  2  0  0  0  0
M  END
