2
q = -1.0, confidence = 0.004

 18 17  0  0  0  0  0  0  0  0999 V2000
    2.0223    0.1403    0.9410 O   0  0  0  0  0  0  0  0  0  0  0  0
    1.7880   -0.0789   -0.2448 C   0  0  0  0  0  3  0  0  0  0  0  0
    2.7070    0.5309   -1.3081 C   0  0  0  0  0  0  0  0  0  0  0  0
    2.9097   -0.2416   -2.0805 H   0  0  0  0  0  0  0  0  0  0  0  0
    2.0842    1.2946   -1.8252 H   0  0  0  0  0  0  0  0  0  0  0  0
    3.9961    1.1502   -0.7661 C   0  0  0  0  0  0  0  0  0  0  0  0
    4.4744    1.7542   -1.5681 H   0  0  0  0  0  0  0  0  0  0  0  0
    3.7331    1.8547    0.0514 H   0  0  0  0  0  0  0  0  0  0  0  0
    4.9956    0.1160   -0.2399 C   0  0  0  0  0  0  0  0  0  0  0  0
    5.2402   -0.6072   -1.0521 H   0  0  0  0  0  0  0  0  0  0  0  0
    4.5059   -0.4736    0.5655 H   0  0  0  0  0  0  0  0  0  0  0  0
    6.2916    0.7255    0.3011 C   0  0  0  0  0  0  0  0  0  0  0  0
    6.7745    1.3311   -0.4986 H   0  0  0  0  0  0  0  0  0  0  0  0
    6.0402    1.4465    1.1106 H   0  0  0  0  0  0  0  0  0  0  0  0
    7.2804   -0.3153    0.8275 C   0  0  0  0  0  0  0  0  0  0  0  0
    8.2061    0.1532    1.2189 H   0  0  0  0  0  0  0  0  0  0  0  0
    6.8340   -0.9128    1.6500 H   0  0  0  0  0  0  0  0  0  0  0  0
    7.5785   -1.0281    0.0298 H   0  0  0  0  0  0  0  0  0  0  0  0
  2  1  2  0  0  0  0
  3  6  1  0  0  0  0
  3  2  1  0  0  0  0
  4  3  1  0  0  0  0
  5  3  1  0  0  0  0
  6  9  1  0  0  0  0
  6  8  1  0  0  0  0
  7  6  1  0  0  0  0
  9 12  1  0  0  0  0
  9 11  1  0  0  0  0
 10  9  1  0  0  0  0
 12 15  1  0  0  0  0
 12 14  1  0  0  0  0
 13 12  1  0  0  0  0
 15 16  1  0  0  0  0
 15 17  1  0  0  0  0
 18 15  1  0  0  0  0
M  END
