3
q = -1.0, confidence = 0.0

 13 12  0  0  0  0  0  0  0  0999 V2000
   -3.3140    1.1305   -1.5505 O   0  0  0  0  0  0  0  0  0  0  0  0
   -3.7295   -0.8636   -0.5537 O   0  0  0  0  0  0  0  0  0  0  0  0
   -2.3852    0.6998    0.6386 C   0  0  0  0  0  3  0  0  0  0  0  0
   -2.9569    0.1395    1.9305 C   0  0  0  0  0  0  0  0  0  0  0  0
   -3.1694    0.3849   -0.5925 C   0  0  0  0  0  0  0  0  0  0  0  0
   -4.3733   -1.2741   -1.7607 C   0  0  0  0  0  0  0  0  0  0  0  0
   -2.3192    1.8024    0.6822 H   0  0  0  0  0  0  0  0  0  0  0  0
   -3.9712    0.5598    2.1124 H   0  0  0  0  0  0  0  0  0  0  0  0
   -3.0651   -0.9609    1.8945 H   0  0  0  0  0  0  0  0  0  0  0  0
   -2.3267    0.4048    2.8000 H   0  0  0  0  0  0  0  0  0  0  0  0
   -5.1064   -0.5164   -2.1031 H   0  0  0  0  0  0  0  0  0  0  0  0
   -4.8808   -2.2298   -1.5318 H   0  0  0  0  0  0  0  0  0  0  0  0
   -3.6164   -1.4226   -2.5586 H   0  0  0  0  0  0  0  0  0  0  0  0
  1  5  2  0  0  0  0
  3  7  1  0  0  0  0
  3  4  1  0  0  0  0
  4  8  1  0  0  0  0
  4 10  1  0  0  0  0
  5  2  1  0  0  0  0
  5  3  1  0  0  0  0
  6 12  1  0  0  0  0
  6  2  1  0  0  0  0
  9  4  1  0  0  0  0
 11  6  1  0  0  0  0
 13  6  1  0  0  0  0
M  END
