2
q = 0.0, confidence = 0.98

 53 55  0  0  0  0  0  0  0  0999 V2000
    1.1315    1.2396    0.0576 N   0  0  0  0  0  0  0  0  0  0  0  0
    0.0255    0.4379    0.0311 C   0  0  0  0  0  2  0  0  0  0  0  0
   -1.0227    1.3144   -0.0037 N   0  0  0  0  0  0  0  0  0  0  0  0
   -0.5896    2.6496    0.0017 C   0  0  0  0  0  0  0  0  0  0  0  0
    0.7861    2.6026    0.0478 C   0  0  0  0  0  0  0  0  0  0  0  0
   -1.5408    3.7940   -0.0549 C   0  0  0  0  0  0  0  0  0  0  0  0
   -0.9921    4.7542   -0.0563 H   0  0  0  0  0  0  0  0  0  0  0  0
   -2.2380    3.7969    0.8088 H   0  0  0  0  0  0  0  0  0  0  0  0
   -2.1675    3.7544   -0.9702 H   0  0  0  0  0  0  0  0  0  0  0  0
    1.8094    3.6830    0.1091 C   0  0  0  0  0  0  0  0  0  0  0  0
    1.3225    4.6760    0.1212 H   0  0  0  0  0  0  0  0  0  0  0  0
    2.5007    3.6479   -0.7582 H   0  0  0  0  0  0  0  0  0  0  0  0
    2.4373    3.5944    1.0201 H   0  0  0  0  0  0  0  0  0  0  0  0
   -2.3961    0.8963    0.0014 C   0  0  0  0  0  0  0  0  0  0  0  0
   -3.0634    0.7927    1.2407 C   0  0  0  0  0  0  0  0  0  0  0  0
   -4.3977    0.3472    1.2326 C   0  0  0  0  0  0  0  0  0  0  0  0
   -4.9319    0.2514    2.1916 H   0  0  0  0  0  0  0  0  0  0  0  0
   -5.0617    0.0203    0.0360 C   0  0  0  0  0  0  0  0  0  0  0  0
   -4.3627    0.1601   -1.1783 C   0  0  0  0  0  0  0  0  0  0  0  0
   -4.8713   -0.0823   -2.1253 H   0  0  0  0  0  0  0  0  0  0  0  0
   -3.0271    0.5972   -1.2277 C   0  0  0  0  0  0  0  0  0  0  0  0
   -2.3636    1.1499    2.5266 C   0  0  0  0  0  0  0  0  0  0  0  0
   -1.3475    0.7107    2.5671 H   0  0  0  0  0  0  0  0  0  0  0  0
   -2.9360    0.7953    3.4045 H   0  0  0  0  0  0  0  0  0  0  0  0
   -2.2381    2.2490    2.6308 H   0  0  0  0  0  0  0  0  0  0  0  0
   -6.4833   -0.4840    0.0465 C   0  0  0  0  0  0  0  0  0  0  0  0
   -6.9615   -0.3442    1.0352 H   0  0  0  0  0  0  0  0  0  0  0  0
   -6.5221   -1.5678   -0.1939 H   0  0  0  0  0  0  0  0  0  0  0  0
   -7.1032    0.0341   -0.7131 H   0  0  0  0  0  0  0  0  0  0  0  0
   -2.2850    0.7213   -2.5288 C   0  0  0  0  0  0  0  0  0  0  0  0
   -2.9725    0.6169   -3.3892 H   0  0  0  0  0  0  0  0  0  0  0  0
   -1.4942   -0.0611   -2.6116 H   0  0  0  0  0  0  0  0  0  0  0  0
   -1.7654    1.6981   -2.6127 H   0  0  0  0  0  0  0  0  0  0  0  0
    2.4844    0.7579    0.1114 C   0  0  0  0  0  0  0  0  0  0  0  0
    3.2417    0.6975   -1.0801 C   0  0  0  0  0  0  0  0  0  0  0  0
    4.5685    0.2424   -0.9809 C   0  0  0  0  0  0  0  0  0  0  0  0
    5.1730    0.1834   -1.9003 H   0  0  0  0  0  0  0  0  0  0  0  0
    5.1385   -0.1476    0.2452 C   0  0  0  0  0  0  0  0  0  0  0  0
    4.3489   -0.0628    1.4065 C   0  0  0  0  0  0  0  0  0  0  0  0
    4.7800   -0.3553    2.3775 H   0  0  0  0  0  0  0  0  0  0  0  0
    3.0188    0.3909    1.3650 C   0  0  0  0  0  0  0  0  0  0  0  0
    2.6336    1.0516   -2.4082 C   0  0  0  0  0  0  0  0  0  0  0  0
    3.4033    1.0870   -3.2019 H   0  0  0  0  0  0  0  0  0  0  0  0
    2.1071    2.0274   -2.3866 H   0  0  0  0  0  0  0  0  0  0  0  0
    1.8752    0.2802   -2.6773 H   0  0  0  0  0  0  0  0  0  0  0  0
    6.5525   -0.6694    0.3034 C   0  0  0  0  0  0  0  0  0  0  0  0
    6.5946   -1.7322   -0.0182 H   0  0  0  0  0  0  0  0  0  0  0  0
    6.9673   -0.6181    1.3289 H   0  0  0  0  0  0  0  0  0  0  0  0
    7.2247   -0.1026   -0.3716 H   0  0  0  0  0  0  0  0  0  0  0  0
    2.1772    0.4674    2.6117 C   0  0  0  0  0  0  0  0  0  0  0  0
    1.7022    1.4635    2.7296 H   0  0  0  0  0  0  0  0  0  0  0  0
    2.7791    0.2588    3.5160 H   0  0  0  0  0  0  0  0  0  0  0  0
    1.3492   -0.2698    2.5612 H   0  0  0  0  0  0  0  0  0  0  0  0
  1 34  1  0  0  0  0
  2  1  1  0  0  0  0
  3 14  1  0  0  0  0
  3  4  1  0  0  0  0
  3  2  1  0  0  0  0
  4  5  2  0  0  0  0
  5  1  1  0  0  0  0
  5 10  1  0  0  0  0
  6  4  1  0  0  0  0
  6  8  1  0  0  0  0
  7  6  1  0  0  0  0
  9  6  1  0  0  0  0
 10 11  1  0  0  0  0
 10 13  1  0  0  0  0
 12 10  1  0  0  0  0
 14 15  1  0  0  0  0
 15 22  1  0  0  0  0
 16 15  2  0  0  0  0
 16 17  1  0  0  0  0
 18 26  1  0  0  0  0
 18 16  1  0  0  0  0
 19 18  2  0  0  0  0
 20 19  1  0  0  0  0
 21 19  1  0  0  0  0
 21 14  2  0  0  0  0
 22 23  1  0  0  0  0
 22 25  1  0  0  0  0
 22 24  1  0  0  0  0
 26 27  1  0  0  0  0
 28 26  1  0  0  0  0
 29 26  1  0  0  0  0
 30 21  1  0  0  0  0
 31 30  1  0  0  0  0
 32 30  1  0  0  0  0
 33 30  1  0  0  0  0
 34 41  1  0  0  0  0
 35 36  1  0  0  0  0
 35 34  2  0  0  0  0
 36 38  2  0  0  0  0
 37 36  1  0  0  0  0
 38 46  1  0  0  0  0
 38 39  1  0  0  0  0
 39 40  1  0  0  0  0
 41 39  2  0  0  0  0
 41 50  1  0  0  0  0
 42 44  1  0  0  0  0
 42 35  1  0  0  0  0
 43 42  1  0  0  0  0
 45 42  1  0  0  0  0
 46 48  1  0  0  0  0
 47 46  1  0  0  0  0
 49 46  1  0  0  0  0
 50 51  1  0  0  0  0
 50 52  1  0  0  0  0
 53 50  1  0  0  0  0
M  END
