8
q = 0.0, confidence = 0.992

 36 36  0  0  1  0  0  0  0  0999 V2000
   -3.3799    1.1382   -0.8673 N   0  0  0  0  0  0  0  0  0  0  0  0
   -3.3798   -1.0717   -0.9447 N   0  0  0  0  0  0  0  0  0  0  0  0
   -2.9572    0.0084   -0.1959 C   0  0  1  0  0  3  0  0  0  0  0  0
   -4.0259    0.7547   -2.0360 C   0  0  0  0  0  0  0  0  0  0  0  0
   -4.4186    1.4684   -2.7590 H   0  0  0  0  0  0  0  0  0  0  0  0
   -4.0260   -0.6073   -2.0837 C   0  0  0  0  0  0  0  0  0  0  0  0
   -4.4188   -1.2686   -2.8548 H   0  0  0  0  0  0  0  0  0  0  0  0
   -2.1761   -0.0344    1.0139 C   0  0  0  0  0  3  0  0  0  0  0  0
   -2.3386   -0.9500    1.6000 H   0  0  0  0  0  0  0  0  0  0  0  0
   -2.3366    0.8381    1.6631 H   0  0  0  0  0  0  0  0  0  0  0  0
   -3.2866    2.5614   -0.3877 C   0  0  0  0  0  0  0  0  0  0  0  0
   -1.8238    2.9581   -0.1353 C   0  0  0  0  0  0  0  0  0  0  0  0
   -1.3287    2.3332    0.6313 H   0  0  0  0  0  0  0  0  0  0  0  0
   -1.7907    4.0146    0.1968 H   0  0  0  0  0  0  0  0  0  0  0  0
   -1.2338    2.8494   -1.0654 H   0  0  0  0  0  0  0  0  0  0  0  0
   -4.1604    2.7137    0.8725 C   0  0  0  0  0  0  0  0  0  0  0  0
   -5.2125    2.4447    0.6502 H   0  0  0  0  0  0  0  0  0  0  0  0
   -4.1352    3.7665    1.2161 H   0  0  0  0  0  0  0  0  0  0  0  0
   -3.8087    2.0783    1.7058 H   0  0  0  0  0  0  0  0  0  0  0  0
   -3.8440    3.4919   -1.4782 C   0  0  0  0  0  0  0  0  0  0  0  0
   -4.9176    3.3106   -1.6838 H   0  0  0  0  0  0  0  0  0  0  0  0
   -3.2699    3.4062   -2.4216 H   0  0  0  0  0  0  0  0  0  0  0  0
   -3.7477    4.5349   -1.1221 H   0  0  0  0  0  0  0  0  0  0  0  0
   -3.2854   -2.5249   -0.5662 C   0  0  0  0  0  0  0  0  0  0  0  0
   -4.1588   -2.7662    0.6803 C   0  0  0  0  0  0  0  0  0  0  0  0
   -5.2115   -2.4844    0.4773 H   0  0  0  0  0  0  0  0  0  0  0  0
   -3.8083   -2.1895    1.5557 H   0  0  0  0  0  0  0  0  0  0  0  0
   -4.1315   -3.8402    0.9499 H   0  0  0  0  0  0  0  0  0  0  0  0
   -1.8221   -2.9367   -0.3431 C   0  0  0  0  0  0  0  0  0  0  0  0
   -1.3273   -2.3671    0.4658 H   0  0  0  0  0  0  0  0  0  0  0  0
   -1.2331   -2.7611   -1.2635 H   0  0  0  0  0  0  0  0  0  0  0  0
   -1.7874   -4.0141   -0.0869 H   0  0  0  0  0  0  0  0  0  0  0  0
   -3.8422   -3.3769   -1.7193 C   0  0  0  0  0  0  0  0  0  0  0  0
   -4.9158   -3.1822   -1.9120 H   0  0  0  0  0  0  0  0  0  0  0  0
   -3.7454   -4.4423   -1.4371 H   0  0  0  0  0  0  0  0  0  0  0  0
   -3.2679   -3.2251   -2.6543 H   0  0  0  0  0  0  0  0  0  0  0  0
  1 11  1  0  0  0  0
  1  3  1  0  0  0  0
  2 24  1  0  0  0  0
  2  3  1  0  0  0  0
  3  8  1  6  0  0  0
  4  1  1  0  0  0  0
  5  4  1  0  0  0  0
  6  4  2  0  0  0  0
  6  2  1  0  0  0  0
  7  6  1  0  0  0  0
  8  9  1  0  0  0  0
  8 10  1  0  0  0  0
 11 12  1  0  0  0  0
 11 16  1  0  0  0  0
 12 14  1  0  0  0  0
 12 13  1  0  0  0  0
 15 12  1  0  0  0  0
 16 18  1  0  0  0  0
 16 19  1  0  0  0  0
 17 16  1  0  0  0  0
 20 23  1  0  0  0  0
 20 11  1  0  0  0  0
 21 20  1  0  0  0  0
 22 20  1  0  0  0  0
 24 29  1  0  0  0  0
 24 25  1  0  0  0  0
 25 28  1  0  0  0  0
 25 27  1  0  0  0  0
 26 25  1  0  0  0  0
 29 32  1  0  0  0  0
 29 30  1  0  0  0  0
 31 29  1  0  0  0  0
 33 35  1  0  0  0  0
 33 24  1  0  0  0  0
 34 33  1  0  0  0  0
 36 33  1  0  0  0  0
M  END
