4
q = 0.0, confidence = 0.998

 61 65  0  0  1  0  0  0  0  0999 V2000
    0.8680   -1.0181    0.6454 N   0  0  0  0  0  0  0  0  0  0  0  0
    0.5485   -2.3482    0.4114 C   0  0  0  0  0  0  0  0  0  0  0  0
    1.1334   -3.1697    0.8346 H   0  0  0  0  0  0  0  0  0  0  0  0
    0.0000   -0.1826    0.0000 C   0  0  0  0  0  2  0  0  0  0  0  0
    1.9591   -0.5428    1.5207 C   0  0  2  0  0  0  0  0  0  0  0  0
    2.1135    0.5055    1.1928 H   0  0  0  0  0  0  0  0  0  0  0  0
    3.2233   -1.3496    1.2398 C   0  0  0  0  0  0  0  0  0  0  0  0
    3.7949   -2.1734    2.2266 C   0  0  0  0  0  0  0  0  0  0  0  0
    3.3542   -2.2005    3.2331 H   0  0  0  0  0  0  0  0  0  0  0  0
    4.9161   -2.9722    1.9525 C   0  0  0  0  0  0  0  0  0  0  0  0
    5.3455   -3.6037    2.7448 H   0  0  0  0  0  0  0  0  0  0  0  0
    5.4767   -2.9641    0.6690 C   0  0  0  0  0  0  0  0  0  0  0  0
    6.3529   -3.5891    0.4394 H   0  0  0  0  0  0  0  0  0  0  0  0
    4.9203   -2.1450   -0.3243 C   0  0  0  0  0  0  0  0  0  0  0  0
    5.3631   -2.1191   -1.3316 H   0  0  0  0  0  0  0  0  0  0  0  0
    3.8062   -1.3239   -0.0591 C   0  0  0  0  0  0  0  0  0  0  0  0
    3.2611   -0.4706   -1.1554 C   0  0  0  0  0  0  0  0  0  0  0  0
    2.7216   -1.0675   -2.3151 C   0  0  0  0  0  0  0  0  0  0  0  0
    2.6927   -2.1655   -2.3888 H   0  0  0  0  0  0  0  0  0  0  0  0
    2.2118   -0.2751   -3.3542 C   0  0  0  0  0  0  0  0  0  0  0  0
    1.7930   -0.7563   -4.2515 H   0  0  0  0  0  0  0  0  0  0  0  0
    2.2257    1.1247   -3.2466 C   0  0  0  0  0  0  0  0  0  0  0  0
    1.8111    1.7477   -4.0534 H   0  0  0  0  0  0  0  0  0  0  0  0
    2.7639    1.7296   -2.1003 C   0  0  0  0  0  0  0  0  0  0  0  0
    2.7634    2.8247   -1.9992 H   0  0  0  0  0  0  0  0  0  0  0  0
    3.2863    0.9372   -1.0678 C   0  0  0  0  0  0  0  0  0  0  0  0
    3.7227    1.4200   -0.1802 H   0  0  0  0  0  0  0  0  0  0  0  0
    1.4863   -0.5071    2.9730 C   0  0  0  0  0  0  0  0  0  0  0  0
    1.2082   -1.5138    3.3448 H   0  0  0  0  0  0  0  0  0  0  0  0
    0.5934    0.1427    3.0420 H   0  0  0  0  0  0  0  0  0  0  0  0
    2.2759   -0.0925    3.6291 H   0  0  0  0  0  0  0  0  0  0  0  0
   -0.8680   -1.0180   -0.6454 N   0  0  0  0  0  0  0  0  0  0  0  0
   -0.5487   -2.3481   -0.4113 C   0  0  0  0  0  0  0  0  0  0  0  0
   -1.1337   -3.1696   -0.8344 H   0  0  0  0  0  0  0  0  0  0  0  0
   -1.9591   -0.5426   -1.5206 C   0  0  2  0  0  0  0  0  0  0  0  0
   -2.1136    0.5056   -1.1926 H   0  0  0  0  0  0  0  0  0  0  0  0
   -3.2234   -1.3494   -1.2399 C   0  0  0  0  0  0  0  0  0  0  0  0
   -3.7949   -2.1730   -2.2268 C   0  0  0  0  0  0  0  0  0  0  0  0
   -3.3541   -2.2002   -3.2333 H   0  0  0  0  0  0  0  0  0  0  0  0
   -4.9163   -2.9718   -1.9529 C   0  0  0  0  0  0  0  0  0  0  0  0
   -5.3456   -3.6032   -2.7453 H   0  0  0  0  0  0  0  0  0  0  0  0
   -5.4770   -2.9636   -0.6695 C   0  0  0  0  0  0  0  0  0  0  0  0
   -6.3533   -3.5886   -0.4401 H   0  0  0  0  0  0  0  0  0  0  0  0
   -4.9206   -2.1447    0.3239 C   0  0  0  0  0  0  0  0  0  0  0  0
   -5.3636   -2.1188    1.3312 H   0  0  0  0  0  0  0  0  0  0  0  0
   -3.8064   -1.3237    0.0590 C   0  0  0  0  0  0  0  0  0  0  0  0
   -3.2612   -0.4706    1.1554 C   0  0  0  0  0  0  0  0  0  0  0  0
   -2.7217   -1.0678    2.3149 C   0  0  0  0  0  0  0  0  0  0  0  0
   -2.6928   -2.1658    2.3885 H   0  0  0  0  0  0  0  0  0  0  0  0
   -2.2118   -0.2755    3.3541 C   0  0  0  0  0  0  0  0  0  0  0  0
   -1.7930   -0.7569    4.2513 H   0  0  0  0  0  0  0  0  0  0  0  0
   -2.2256    1.1243    3.2467 C   0  0  0  0  0  0  0  0  0  0  0  0
   -1.8109    1.7471    4.0535 H   0  0  0  0  0  0  0  0  0  0  0  0
   -2.7638    1.7294    2.1005 C   0  0  0  0  0  0  0  0  0  0  0  0
   -2.7631    2.8245    1.9995 H   0  0  0  0  0  0  0  0  0  0  0  0
   -3.2863    0.9372    1.0680 C   0  0  0  0  0  0  0  0  0  0  0  0
   -3.7227    1.4201    0.1804 H   0  0  0  0  0  0  0  0  0  0  0  0
   -1.4863   -0.5067   -2.9729 C   0  0  0  0  0  0  0  0  0  0  0  0
   -1.2081   -1.5133   -3.3449 H   0  0  0  0  0  0  0  0  0  0  0  0
   -0.5933    0.1431   -3.0417 H   0  0  0  0  0  0  0  0  0  0  0  0
   -2.2758   -0.0920   -3.6289 H   0  0  0  0  0  0  0  0  0  0  0  0
  1  5  1  0  0  0  0
  2  1  1  0  0  0  0
  2  3  1  0  0  0  0
  4  1  1  0  0  0  0
  5  6  1  6  0  0  0
  5 28  1  0  0  0  0
  7  5  1  0  0  0  0
  7  8  1  0  0  0  0
  8  9  1  0  0  0  0
 10  8  2  0  0  0  0
 10 11  1  0  0  0  0
 12 10  1  0  0  0  0
 13 12  1  0  0  0  0
 14 16  1  0  0  0  0
 14 12  2  0  0  0  0
 15 14  1  0  0  0  0
 16  7  2  0  0  0  0
 17 26  1  0  0  0  0
 17 16  1  0  0  0  0
 18 17  2  0  0  0  0
 19 18  1  0  0  0  0
 20 22  2  0  0  0  0
 20 18  1  0  0  0  0
 21 20  1  0  0  0  0
 22 24  1  0  0  0  0
 23 22  1  0  0  0  0
 24 25  1  0  0  0  0
 24 26  2  0  0  0  0
 26 27  1  0  0  0  0
 28 30  1  0  0  0  0
 28 29  1  0  0  0  0
 28 31  1  0  0  0  0
 32 33  1  0  0  0  0
 32  4  1  0  0  0  0
 33  2  2  0  0  0  0
 34 33  1  0  0  0  0
 35 37  1  0  0  0  0
 35 36  1  1  0  0  0
 35 32  1  0  0  0  0
 37 46  1  0  0  0  0
 38 40  1  0  0  0  0
 38 37  2  0  0  0  0
 39 38  1  0  0  0  0
 40 42  2  0  0  0  0
 41 40  1  0  0  0  0
 42 43  1  0  0  0  0
 42 44  1  0  0  0  0
 44 45  1  0  0  0  0
 46 44  2  0  0  0  0
 46 47  1  0  0  0  0
 47 48  1  0  0  0  0
 48 49  1  0  0  0  0
 48 50  2  0  0  0  0
 50 51  1  0  0  0  0
 52 50  1  0  0  0  0
 52 53  1  0  0  0  0
 54 52  2  0  0  0  0
 55 54  1  0  0  0  0
 56 47  2  0  0  0  0
 56 54  1  0  0  0  0
 57 56  1  0  0  0  0
 58 35  1  0  0  0  0
 59 58  1  0  0  0  0
 60 58  1  0  0  0  0
 61 58  1  0  0  0  0
M  END
