2
q = -1.0, confidence = 0.026

 35 37  0  0  0  0  0  0  0  0999 V2000
    7.0469   -0.1353    0.0169 N   0  0  0  0  0  0  0  0  0  0  0  0
    0.1195    0.0754   -0.0220 C   0  0  0  0  0  3  0  0  0  0  0  0
    1.3567    0.0349   -0.0168 C   0  0  0  0  0  0  0  0  0  0  0  0
    2.7803   -0.0089   -0.0102 C   0  0  0  0  0  0  0  0  0  0  0  0
    3.4797   -1.1948    0.3389 C   0  0  0  0  0  0  0  0  0  0  0  0
    2.9023   -2.0884    0.6174 H   0  0  0  0  0  0  0  0  0  0  0  0
    4.8738   -1.2363    0.3548 C   0  0  0  0  0  0  0  0  0  0  0  0
    5.3938   -2.1612    0.6426 H   0  0  0  0  0  0  0  0  0  0  0  0
    5.6327   -0.0943    0.0066 C   0  0  0  0  0  0  0  0  0  0  0  0
    4.9475    1.0906   -0.3511 C   0  0  0  0  0  0  0  0  0  0  0  0
    5.5253    1.9827   -0.6322 H   0  0  0  0  0  0  0  0  0  0  0  0
    3.5535    1.1326   -0.3516 C   0  0  0  0  0  0  0  0  0  0  0  0
    3.0339    2.0591   -0.6364 H   0  0  0  0  0  0  0  0  0  0  0  0
    7.7298   -1.3038   -0.4094 C   0  0  0  0  0  0  0  0  0  0  0  0
    7.2753   -2.0315   -1.5320 C   0  0  0  0  0  0  0  0  0  0  0  0
    6.3879   -1.6800   -2.0778 H   0  0  0  0  0  0  0  0  0  0  0  0
    7.9501   -3.1878   -1.9430 C   0  0  0  0  0  0  0  0  0  0  0  0
    7.5835   -3.7421   -2.8205 H   0  0  0  0  0  0  0  0  0  0  0  0
    9.0943   -3.6301   -1.2583 C   0  0  0  0  0  0  0  0  0  0  0  0
    9.6250   -4.5353   -1.5886 H   0  0  0  0  0  0  0  0  0  0  0  0
    9.5529   -2.9032   -0.1472 C   0  0  0  0  0  0  0  0  0  0  0  0
   10.4436   -3.2419    0.4041 H   0  0  0  0  0  0  0  0  0  0  0  0
    8.8761   -1.7550    0.2826 C   0  0  0  0  0  0  0  0  0  0  0  0
    9.2297   -1.1951    1.1603 H   0  0  0  0  0  0  0  0  0  0  0  0
    7.7884    0.9915    0.4577 C   0  0  0  0  0  0  0  0  0  0  0  0
    8.9678    1.3803   -0.2161 C   0  0  0  0  0  0  0  0  0  0  0  0
    9.3019    0.8046   -1.0913 H   0  0  0  0  0  0  0  0  0  0  0  0
    9.7015    2.4874    0.2283 C   0  0  0  0  0  0  0  0  0  0  0  0
   10.6174    2.7778   -0.3089 H   0  0  0  0  0  0  0  0  0  0  0  0
    9.2683    3.2346    1.3361 C   0  0  0  0  0  0  0  0  0  0  0  0
    9.8440    4.1075    1.6778 H   0  0  0  0  0  0  0  0  0  0  0  0
    8.0917    2.8543    2.0029 C   0  0  0  0  0  0  0  0  0  0  0  0
    7.7442    3.4251    2.8777 H   0  0  0  0  0  0  0  0  0  0  0  0
    7.3594    1.7391    1.5772 C   0  0  0  0  0  0  0  0  0  0  0  0
    6.4459    1.4358    2.1088 H   0  0  0  0  0  0  0  0  0  0  0  0
  1 25  1  0  0  0  0
  2  3  3  0  0  0  0
  3  4  1  0  0  0  0
  4  5  1  0  0  0  0
  5  7  2  0  0  0  0
  5  6  1  0  0  0  0
  7  8  1  0  0  0  0
  9  1  1  0  0  0  0
  9  7  1  0  0  0  0
 10  9  2  0  0  0  0
 11 10  1  0  0  0  0
 12 10  1  0  0  0  0
 12  4  2  0  0  0  0
 13 12  1  0  0  0  0
 14  1  1  0  0  0  0
 14 23  1  0  0  0  0
 15 14  2  0  0  0  0
 16 15  1  0  0  0  0
 17 15  1  0  0  0  0
 17 19  2  0  0  0  0
 18 17  1  0  0  0  0
 19 21  1  0  0  0  0
 20 19  1  0  0  0  0
 21 23  2  0  0  0  0
 21 22  1  0  0  0  0
 23 24  1  0  0  0  0
 25 34  1  0  0  0  0
 26 28  1  0  0  0  0
 26 25  2  0  0  0  0
 27 26  1  0  0  0  0
 28 30  2  0  0  0  0
 29 28  1  0  0  0  0
 30 31  1  0  0  0  0
 30 32  1  0  0  0  0
 32 33  1  0  0  0  0
 34 32  2  0  0  0  0
 34 35  1  0  0  0  0
M  END
