42
q = 0.0, confidence = 0.962

 48 51  0  0  0  0  0  0  0  0999 V2000
    3.2743    0.9056   -0.8322 O   0  0  0  0  0  0  0  0  0  0  0  0
   -3.9245   -2.1370   -1.0829 C   0  0  0  0  0  0  0  0  0  0  0  0
    1.5306   -2.0478    0.7665 C   0  0  0  0  0  0  0  0  0  0  0  0
    2.0784   -2.8645    1.2744 H   0  0  0  0  0  0  0  0  0  0  0  0
    1.6059   -1.1280    1.3825 H   0  0  0  0  0  0  0  0  0  0  0  0
    2.1239   -1.8061   -0.6310 C   0  0  0  0  0  0  0  0  0  0  0  0
    2.0635   -2.7325   -1.2368 H   0  0  0  0  0  0  0  0  0  0  0  0
    1.5634   -1.0020   -1.1506 H   0  0  0  0  0  0  0  0  0  0  0  0
   -4.0930   -1.1927    1.1997 C   0  0  0  0  0  0  0  0  0  0  0  0
   -3.3667   -1.8567    0.1868 C   0  0  0  0  0  0  0  0  0  0  0  0
   -3.1753   -2.9391   -2.1140 C   0  0  0  0  0  0  0  0  0  0  0  0
   -3.6963   -2.9062   -3.0892 H   0  0  0  0  0  0  0  0  0  0  0  0
   -3.0833   -4.0047   -1.8154 H   0  0  0  0  0  0  0  0  0  0  0  0
   -2.1515   -2.5396   -2.2622 H   0  0  0  0  0  0  0  0  0  0  0  0
   -3.5301   -1.0026    2.5801 C   0  0  0  0  0  0  0  0  0  0  0  0
   -4.3224   -0.7022    3.2914 H   0  0  0  0  0  0  0  0  0  0  0  0
   -2.7354   -0.2260    2.5998 H   0  0  0  0  0  0  0  0  0  0  0  0
   -3.0529   -1.9292    2.9586 H   0  0  0  0  0  0  0  0  0  0  0  0
    3.5129   -1.4064   -0.5398 N   0  0  0  0  0  0  0  0  0  0  0  0
    4.4162   -3.5228   -0.1500 O   0  0  0  0  0  0  0  0  0  0  0  0
    5.8102   -1.4972   -0.2550 C   0  0  0  0  0  0  0  0  0  0  0  0
   -5.9575   -0.9369   -0.3887 C   0  0  0  0  0  0  0  0  0  0  0  0
   -5.3843   -0.7334    0.8783 C   0  0  0  0  0  0  0  0  0  0  0  0
   -5.9629   -0.2091    1.6559 H   0  0  0  0  0  0  0  0  0  0  0  0
   -5.2185   -1.6572   -1.3454 C   0  0  0  0  0  0  0  0  0  0  0  0
   -5.6598   -1.8527   -2.3358 H   0  0  0  0  0  0  0  0  0  0  0  0
    4.5614   -2.3201   -0.2951 C   0  0  0  0  0  0  0  0  0  0  0  0
    5.4556   -0.1520   -0.4580 C   0  0  0  0  0  0  0  0  0  0  0  0
    3.9712   -0.0759   -0.6376 C   0  0  0  0  0  0  0  0  0  0  0  0
    6.4148    0.8608   -0.4684 C   0  0  0  0  0  0  0  0  0  0  0  0
    6.1223    1.9091   -0.6273 H   0  0  0  0  0  0  0  0  0  0  0  0
    7.1372   -1.8786   -0.0548 C   0  0  0  0  0  0  0  0  0  0  0  0
    7.4006   -2.9347    0.1035 H   0  0  0  0  0  0  0  0  0  0  0  0
   -7.3237   -0.3929   -0.7222 C   0  0  0  0  0  0  0  0  0  0  0  0
   -7.2409    0.5528   -1.2999 H   0  0  0  0  0  0  0  0  0  0  0  0
   -7.9112   -0.1718    0.1902 H   0  0  0  0  0  0  0  0  0  0  0  0
   -7.9046   -1.1011   -1.3465 H   0  0  0  0  0  0  0  0  0  0  0  0
    8.1131   -0.8623   -0.0638 C   0  0  0  0  0  0  0  0  0  0  0  0
    9.1709   -1.1231    0.0913 H   0  0  0  0  0  0  0  0  0  0  0  0
    7.7577    0.4852   -0.2671 C   0  0  0  0  0  0  0  0  0  0  0  0
    8.5435    1.2556   -0.2674 H   0  0  0  0  0  0  0  0  0  0  0  0
   -0.8978   -1.5426    0.4710 C   0  0  0  0  0  2  0  0  0  0  0  0
   -2.0298   -2.3186    0.4641 N   0  0  0  0  0  0  0  0  0  0  0  0
    0.1242   -2.4236    0.7032 N   0  0  0  0  0  0  0  0  0  0  0  0
   -0.3538   -3.7218    0.8386 C   0  0  0  0  0  0  0  0  0  0  0  0
    0.3114   -4.5670    1.0375 H   0  0  0  0  0  0  0  0  0  0  0  0
   -1.7126   -3.6565    0.6933 C   0  0  0  0  0  0  0  0  0  0  0  0
   -2.4849   -4.4285    0.7426 H   0  0  0  0  0  0  0  0  0  0  0  0
  1 29  2  0  0  0  0
  2 10  1  0  0  0  0
  3  4  1  0  0  0  0
  3  5  1  0  0  0  0
  6 19  1  0  0  0  0
  6  3  1  0  0  0  0
  7  6  1  0  0  0  0
  8  6  1  0  0  0  0
  9 15  1  0  0  0  0
 10 43  1  0  0  0  0
 10  9  2  0  0  0  0
 11 13  1  0  0  0  0
 11  2  1  0  0  0  0
 12 11  1  0  0  0  0
 14 11  1  0  0  0  0
 15 17  1  0  0  0  0
 15 18  1  0  0  0  0
 15 16  1  0  0  0  0
 19 27  1  0  0  0  0
 21 32  1  0  0  0  0
 22 23  2  0  0  0  0
 23  9  1  0  0  0  0
 23 24  1  0  0  0  0
 25  2  2  0  0  0  0
 25 22  1  0  0  0  0
 26 25  1  0  0  0  0
 27 21  1  0  0  0  0
 27 20  2  0  0  0  0
 28 21  2  0  0  0  0
 29 19  1  0  0  0  0
 29 28  1  0  0  0  0
 30 28  1  0  0  0  0
 30 40  2  0  0  0  0
 31 30  1  0  0  0  0
 32 33  1  0  0  0  0
 34 22  1  0  0  0  0
 34 36  1  0  0  0  0
 35 34  1  0  0  0  0
 37 34  1  0  0  0  0
 38 32  2  0  0  0  0
 38 39  1  0  0  0  0
 40 38  1  0  0  0  0
 41 40  1  0  0  0  0
 42 44  1  0  0  0  0
 43 42  1  0  0  0  0
 43 47  1  0  0  0  0
 44  3  1  0  0  0  0
 44 45  1  0  0  0  0
 45 46  1  0  0  0  0
 47 48  1  0  0  0  0
 47 45  2  0  0  0  0
M  END
