1
q = 0.0, confidence = 0.958

  7  6  0  0  0  0  0  0  0  0999 V2000
   -0.8394   -0.7647   -0.4947 C   0  0  0  0  0  1  0  0  0  0  0  0
   -3.2987   -1.0636   -0.5487 C   0  0  0  0  0  0  0  0  0  0  0  0
   -3.5868   -1.8636    0.1707 H   0  0  0  0  0  0  0  0  0  0  0  0
   -3.9357   -1.2112   -1.4472 H   0  0  0  0  0  0  0  0  0  0  0  0
   -3.6156    0.2475    0.0462 C   0  0  0  0  0  0  0  0  0  0  0  0
   -1.9127   -1.1745   -0.8980 N   0  0  0  0  0  2  0  0  0  0  0  0
   -3.7814    1.3134    0.5014 N   0  0  0  0  0  0  0  0  0  0  0  0
  2  5  1  0  0  0  0
  2  3  1  0  0  0  0
  4  2  1  0  0  0  0
  5  7  3  0  0  0  0
  6  2  1  0  0  0  0
  6  1  1  0  0  0  0
M  END
