3
q = 0.0, confidence = 0.554

 16 16  0  0  0  0  0  0  0  0999 V2000
    2.2275   -1.5344    1.5789 C   0  0  0  0  0  3  0  0  0  0  0  0
    3.4539   -1.4760    0.8448 C   0  0  0  0  0  3  0  0  0  0  0  0
    3.5683   -1.4772   -0.5823 C   0  0  0  0  0  3  0  0  0  0  0  0
    2.4734   -1.5375   -1.5004 C   0  0  0  0  0  3  0  0  0  0  0  0
    1.3690   -2.4805   -1.6716 C   0  0  0  0  0  0  0  0  0  0  0  0
    0.6125   -3.2407   -0.8179 C   0  0  0  0  0  0  0  0  0  0  0  0
    0.4963   -3.2379    0.6176 C   0  0  0  0  0  0  0  0  0  0  0  0
    1.1089   -2.4756    1.5787 C   0  0  0  0  0  0  0  0  0  0  0  0
    2.3632   -1.1188    2.5933 H   0  0  0  0  0  0  0  0  0  0  0  0
    4.3680   -1.2168    1.4080 H   0  0  0  0  0  0  0  0  0  0  0  0
    4.5604   -1.2189   -0.9935 H   0  0  0  0  0  0  0  0  0  0  0  0
    2.7666   -1.1252   -2.4823 H   0  0  0  0  0  0  0  0  0  0  0  0
    1.0900   -2.5904   -2.7346 H   0  0  0  0  0  0  0  0  0  0  0  0
   -0.1079   -3.9084   -1.3202 H   0  0  0  0  0  0  0  0  0  0  0  0
   -0.2942   -3.9056    1.0009 H   0  0  0  0  0  0  0  0  0  0  0  0
    0.6655   -2.5812    2.5848 H   0  0  0  0  0  0  0  0  0  0  0  0
  1  9  1  0  0  0  0
  2 10  1  0  0  0  0
  2  1  1  0  0  0  0
  3  2  1  0  0  0  0
  4  3  1  0  0  0  0
  5  4  1  0  0  0  0
  5  6  2  0  0  0  0
  6  7  1  0  0  0  0
  7 15  1  0  0  0  0
  7  8  2  0  0  0  0
  8  1  1  0  0  0  0
  8 16  1  0  0  0  0
 11  3  1  0  0  0  0
 12  4  1  0  0  0  0
 13  5  1  0  0  0  0
 14  6  1  0  0  0  0
M  END
