1
q = 0.0, confidence = 0.99

 18 19  0  0  0  0  0  0  0  0999 V2000
    0.5660   -0.9441    0.3750 C   0  0  0  0  0  1  0  0  0  0  0  0
   -0.4503   -1.4925    0.6323 N   0  0  0  0  0  2  0  0  0  0  0  0
   -1.7385   -2.0038    0.9504 C   0  0  0  0  0  0  0  0  0  0  0  0
   -1.8033   -3.0722    0.6587 H   0  0  0  0  0  0  0  0  0  0  0  0
   -1.8830   -1.9199    2.0494 H   0  0  0  0  0  0  0  0  0  0  0  0
   -2.7867   -1.3229    0.2446 N   0  0  0  0  0  0  0  0  0  0  0  0
   -3.4927   -1.9905   -0.7416 N   0  0  0  0  0  0  0  0  0  0  0  0
   -4.3537   -1.1835   -1.2548 N   0  0  0  0  0  0  0  0  0  0  0  0
   -4.2400    0.0548   -0.6420 C   0  0  0  0  0  0  0  0  0  0  0  0
   -4.9439    1.2569   -0.8532 C   0  0  0  0  0  0  0  0  0  0  0  0
   -5.7371    1.3121   -1.6116 H   0  0  0  0  0  0  0  0  0  0  0  0
   -4.5847    2.3539   -0.0678 C   0  0  0  0  0  0  0  0  0  0  0  0
   -5.1063    3.3127   -0.2033 H   0  0  0  0  0  0  0  0  0  0  0  0
   -3.5520    2.2674    0.9039 C   0  0  0  0  0  0  0  0  0  0  0  0
   -3.2987    3.1614    1.4930 H   0  0  0  0  0  0  0  0  0  0  0  0
   -2.8423    1.0835    1.1300 C   0  0  0  0  0  0  0  0  0  0  0  0
   -2.0361    1.0310    1.8755 H   0  0  0  0  0  0  0  0  0  0  0  0
   -3.2140   -0.0189    0.3398 C   0  0  0  0  0  0  0  0  0  0  0  0
  1  2  1  0  0  0  0
  2  3  1  0  0  0  0
  3  5  1  0  0  0  0
  4  3  1  0  0  0  0
  6 18  1  0  0  0  0
  6  3  1  0  0  0  0
  7  6  1  0  0  0  0
  8  7  2  0  0  0  0
  8  9  1  0  0  0  0
  9 18  1  0  0  0  0
 10  9  2  0  0  0  0
 10 12  1  0  0  0  0
 11 10  1  0  0  0  0
 12 14  2  0  0  0  0
 13 12  1  0  0  0  0
 14 16  1  0  0  0  0
 14 15  1  0  0  0  0
 16 17  1  0  0  0  0
 18 16  2  0  0  0  0
M  END
