1
q = 0.0, confidence = 0.998

 35 35  0  0  0  0  0  0  0  0999 V2000
    0.3899    1.0196   -0.0314 C   0  0  0  0  0  2  0  0  0  0  0  0
    1.3299    1.9829    0.1144 N   0  0  0  0  0  0  0  0  0  0  0  0
   -0.9004    1.4080   -0.0449 N   0  0  0  0  0  0  0  0  0  0  0  0
   -1.1434    2.3928    0.1064 H   0  0  0  0  0  0  0  0  0  0  0  0
    2.7585    1.6344    0.1148 C   0  0  0  0  0  0  0  0  0  0  0  0
    3.3044    2.4509   -0.4045 H   0  0  0  0  0  0  0  0  0  0  0  0
    2.8738    0.7183   -0.4988 H   0  0  0  0  0  0  0  0  0  0  0  0
    3.3129    1.4018    1.5172 C   0  0  0  0  0  0  0  0  0  0  0  0
    4.3950    1.1677    1.4694 H   0  0  0  0  0  0  0  0  0  0  0  0
    2.7946    0.5432    1.9896 H   0  0  0  0  0  0  0  0  0  0  0  0
    3.1862    2.2917    2.1680 H   0  0  0  0  0  0  0  0  0  0  0  0
    1.0089    3.4015    0.2995 C   0  0  0  0  0  0  0  0  0  0  0  0
    1.8506    3.8638    0.8528 H   0  0  0  0  0  0  0  0  0  0  0  0
    0.1333    3.4949    0.9803 H   0  0  0  0  0  0  0  0  0  0  0  0
    0.7654    4.1448   -1.0166 C   0  0  0  0  0  0  0  0  0  0  0  0
    0.5419    5.2137   -0.8271 H   0  0  0  0  0  0  0  0  0  0  0  0
   -0.0831    3.7079   -1.5799 H   0  0  0  0  0  0  0  0  0  0  0  0
    1.6601    4.0917   -1.6684 H   0  0  0  0  0  0  0  0  0  0  0  0
   -2.0418    0.4920   -0.0878 C   0  0  0  0  0  0  0  0  0  0  0  0
   -1.6926   -0.4045   -0.6464 H   0  0  0  0  0  0  0  0  0  0  0  0
   -3.2079    1.1331   -0.8501 C   0  0  0  0  0  0  0  0  0  0  0  0
   -2.8768    1.4116   -1.8726 H   0  0  0  0  0  0  0  0  0  0  0  0
   -3.5003    2.0787   -0.3350 H   0  0  0  0  0  0  0  0  0  0  0  0
   -4.4192    0.1922   -0.9025 C   0  0  0  0  0  0  0  0  0  0  0  0
   -5.2616    0.6893   -1.4266 H   0  0  0  0  0  0  0  0  0  0  0  0
   -4.1547   -0.6999   -1.5123 H   0  0  0  0  0  0  0  0  0  0  0  0
   -4.8443   -0.2628    0.5000 C   0  0  0  0  0  0  0  0  0  0  0  0
   -5.6950   -0.9722    0.4310 H   0  0  0  0  0  0  0  0  0  0  0  0
   -5.2162    0.6168    1.0730 H   0  0  0  0  0  0  0  0  0  0  0  0
   -3.6731   -0.9016    1.2576 C   0  0  0  0  0  0  0  0  0  0  0  0
   -3.3701   -1.8417    0.7454 H   0  0  0  0  0  0  0  0  0  0  0  0
   -3.9811   -1.1927    2.2829 H   0  0  0  0  0  0  0  0  0  0  0  0
   -2.4650    0.0403    1.3193 C   0  0  0  0  0  0  0  0  0  0  0  0
   -2.7151    0.9421    1.9242 H   0  0  0  0  0  0  0  0  0  0  0  0
   -1.5979   -0.4521    1.8074 H   0  0  0  0  0  0  0  0  0  0  0  0
  1  2  1  0  0  0  0
  2  5  1  0  0  0  0
  2 12  1  0  0  0  0
  3  1  1  0  0  0  0
  3  4  1  0  0  0  0
  5  8  1  0  0  0  0
  6  5  1  0  0  0  0
  7  5  1  0  0  0  0
  8 10  1  0  0  0  0
  8 11  1  0  0  0  0
  9  8  1  0  0  0  0
 12 13  1  0  0  0  0
 12 14  1  0  0  0  0
 15 16  1  0  0  0  0
 15 12  1  0  0  0  0
 17 15  1  0  0  0  0
 18 15  1  0  0  0  0
 19  3  1  0  0  0  0
 19 33  1  0  0  0  0
 20 19  1  0  0  0  0
 21 23  1  0  0  0  0
 21 19  1  0  0  0  0
 22 21  1  0  0  0  0
 24 21  1  0  0  0  0
 24 27  1  0  0  0  0
 25 24  1  0  0  0  0
 26 24  1  0  0  0  0
 27 29  1  0  0  0  0
 27 30  1  0  0  0  0
 28 27  1  0  0  0  0
 30 33  1  0  0  0  0
 30 32  1  0  0  0  0
 31 30  1  0  0  0  0
 33 35  1  0  0  0  0
 33 34  1  0  0  0  0
M  END
