1
q = 0.0, confidence = 0.996

 31 30  0  0  0  0  0  0  0  0999 V2000
   -0.0001    1.1305    0.0002 C   0  0  0  0  0  2  0  0  0  0  0  0
   -1.1324    1.8590   -0.0001 N   0  0  0  0  0  0  0  0  0  0  0  0
   -1.0362    2.8830   -0.0009 H   0  0  0  0  0  0  0  0  0  0  0  0
    1.1319    1.8593   -0.0000 N   0  0  0  0  0  0  0  0  0  0  0  0
    1.0355    2.8833   -0.0009 H   0  0  0  0  0  0  0  0  0  0  0  0
   -2.5497    1.3979   -0.0001 C   0  0  0  0  0  0  0  0  0  0  0  0
   -2.8465    0.5794   -1.2677 C   0  0  0  0  0  0  0  0  0  0  0  0
   -2.2293   -0.3418   -1.2928 H   0  0  0  0  0  0  0  0  0  0  0  0
   -2.6283    1.1712   -2.1792 H   0  0  0  0  0  0  0  0  0  0  0  0
   -3.9136    0.2822   -1.2866 H   0  0  0  0  0  0  0  0  0  0  0  0
   -3.3971    2.6809    0.0000 C   0  0  0  0  0  0  0  0  0  0  0  0
   -3.1968    3.2949    0.9029 H   0  0  0  0  0  0  0  0  0  0  0  0
   -4.4733    2.4243    0.0000 H   0  0  0  0  0  0  0  0  0  0  0  0
   -3.1969    3.2950   -0.9028 H   0  0  0  0  0  0  0  0  0  0  0  0
   -2.8466    0.5793    1.2675 C   0  0  0  0  0  0  0  0  0  0  0  0
   -2.6285    1.1711    2.1791 H   0  0  0  0  0  0  0  0  0  0  0  0
   -2.2293   -0.3419    1.2926 H   0  0  0  0  0  0  0  0  0  0  0  0
   -3.9136    0.2820    1.2863 H   0  0  0  0  0  0  0  0  0  0  0  0
    2.5493    1.3985   -0.0001 C   0  0  0  0  0  0  0  0  0  0  0  0
    3.3965    2.6816   -0.0000 C   0  0  0  0  0  0  0  0  0  0  0  0
    3.1961    3.2957   -0.9029 H   0  0  0  0  0  0  0  0  0  0  0  0
    4.4727    2.4253   -0.0001 H   0  0  0  0  0  0  0  0  0  0  0  0
    3.1962    3.2956    0.9029 H   0  0  0  0  0  0  0  0  0  0  0  0
    2.8464    0.5800    1.2675 C   0  0  0  0  0  0  0  0  0  0  0  0
    2.6282    1.1717    2.1791 H   0  0  0  0  0  0  0  0  0  0  0  0
    3.9135    0.2829    1.2862 H   0  0  0  0  0  0  0  0  0  0  0  0
    2.2293   -0.3414    1.2926 H   0  0  0  0  0  0  0  0  0  0  0  0
    2.8462    0.5800   -1.2677 C   0  0  0  0  0  0  0  0  0  0  0  0
    2.6280    1.1718   -2.1793 H   0  0  0  0  0  0  0  0  0  0  0  0
    2.2290   -0.3413   -1.2927 H   0  0  0  0  0  0  0  0  0  0  0  0
    3.9133    0.2828   -1.2866 H   0  0  0  0  0  0  0  0  0  0  0  0
  2  1  1  0  0  0  0
  3  2  1  0  0  0  0
  4  1  1  0  0  0  0
  5  4  1  0  0  0  0
  6  2  1  0  0  0  0
  6 11  1  0  0  0  0
  6 15  1  0  0  0  0
  7  6  1  0  0  0  0
  8  7  1  0  0  0  0
  9  7  1  0  0  0  0
 10  7  1  0  0  0  0
 11 13  1  0  0  0  0
 11 12  1  0  0  0  0
 14 11  1  0  0  0  0
 15 18  1  0  0  0  0
 15 17  1  0  0  0  0
 15 16  1  0  0  0  0
 19  4  1  0  0  0  0
 19 20  1  0  0  0  0
 19 24  1  0  0  0  0
 20 23  1  0  0  0  0
 21 20  1  0  0  0  0
 22 20  1  0  0  0  0
 24 26  1  0  0  0  0
 24 27  1  0  0  0  0
 24 25  1  0  0  0  0
 28 19  1  0  0  0  0
 29 28  1  0  0  0  0
 30 28  1  0  0  0  0
 31 28  1  0  0  0  0
M  END
