2
q = -1.0, confidence = 0.02

 15 15  0  0  0  0  0  0  0  0999 V2000
   -1.1945   -1.2087   -1.1455 C   0  0  0  0  0  3  0  0  0  0  0  0
   -0.7602    0.0018   -1.7790 C   0  0  0  0  0  3  0  0  0  0  0  0
   -1.1948    1.2111   -1.1434 C   0  0  0  0  0  3  0  0  0  0  0  0
   -2.6108    1.2849   -0.5954 C   0  0  0  0  0  0  0  0  0  0  0  0
   -3.0634   -0.0003    0.1137 C   0  0  0  0  0  0  0  0  0  0  0  0
   -2.6102   -1.2842   -0.5976 C   0  0  0  0  0  0  0  0  0  0  0  0
   -0.8009   -2.1543   -1.5579 H   0  0  0  0  0  0  0  0  0  0  0  0
   -0.1076    0.0028   -2.6662 H   0  0  0  0  0  0  0  0  0  0  0  0
   -0.8022    2.1575   -1.5546 H   0  0  0  0  0  0  0  0  0  0  0  0
   -2.7194    2.1500    0.0905 H   0  0  0  0  0  0  0  0  0  0  0  0
   -3.2785    1.4967   -1.4635 H   0  0  0  0  0  0  0  0  0  0  0  0
   -2.6529   -0.0012    1.1430 H   0  0  0  0  0  0  0  0  0  0  0  0
   -4.1674   -0.0007    0.2247 H   0  0  0  0  0  0  0  0  0  0  0  0
   -2.7183   -2.1505    0.0869 H   0  0  0  0  0  0  0  0  0  0  0  0
   -3.2780   -1.4950   -1.4660 H   0  0  0  0  0  0  0  0  0  0  0  0
  1  6  1  0  0  0  0
  2  1  1  0  0  0  0
  2  3  1  0  0  0  0
  3  4  1  0  0  0  0
  4 10  1  0  0  0  0
  4  5  1  0  0  0  0
  5 13  1  0  0  0  0
  5 12  1  0  0  0  0
  6 14  1  0  0  0  0
  6  5  1  0  0  0  0
  7  1  1  0  0  0  0
  8  2  1  0  0  0  0
  9  3  1  0  0  0  0
 11  4  1  0  0  0  0
 15  6  1  0  0  0  0
M  END
