9
q = -1.0, confidence = 0.0

 21 22  0  0  0  0  0  0  0  0999 V2000
    1.3881    1.6578    0.1495 O   0  0  0  0  0  0  0  0  0  0  0  0
    2.7038    1.2162    0.1272 C   0  0  0  0  0  0  0  0  0  0  0  0
    3.7930    2.0735    0.2157 C   0  0  0  0  0  0  0  0  0  0  0  0
    5.1041    1.5247    0.1792 C   0  0  0  0  0  0  0  0  0  0  0  0
    5.2986    0.1592    0.0612 C   0  0  0  0  0  0  0  0  0  0  0  0
    4.3507   -2.1424   -0.1376 C   0  0  0  0  0  0  0  0  0  0  0  0
    3.2385   -2.9683   -0.2103 C   0  0  0  0  0  0  0  0  0  0  0  0
    1.9247   -2.4314   -0.1736 C   0  0  0  0  0  0  0  0  0  0  0  0
    1.6882   -1.0584   -0.0639 C   0  0  0  0  0  3  0  0  0  0  0  0
    2.8455   -0.2006    0.0091 C   0  0  0  0  0  0  0  0  0  0  0  0
    4.1864   -0.7329   -0.0251 C   0  0  0  0  0  0  0  0  0  0  0  0
    1.1261    2.9757    0.6121 C   0  0  0  0  0  0  0  0  0  0  0  0
    3.6620    3.1601    0.3017 H   0  0  0  0  0  0  0  0  0  0  0  0
    5.9669    2.2047    0.2452 H   0  0  0  0  0  0  0  0  0  0  0  0
    6.3161   -0.2603    0.0347 H   0  0  0  0  0  0  0  0  0  0  0  0
    5.3692   -2.5597   -0.1653 H   0  0  0  0  0  0  0  0  0  0  0  0
    1.0803   -3.1341   -0.2395 H   0  0  0  0  0  0  0  0  0  0  0  0
    3.3716   -4.0585   -0.2988 H   0  0  0  0  0  0  0  0  0  0  0  0
    0.0380    3.0393    0.7896 H   0  0  0  0  0  0  0  0  0  0  0  0
    1.4259    3.7359   -0.1414 H   0  0  0  0  0  0  0  0  0  0  0  0
    1.6619    3.1712    1.5649 H   0  0  0  0  0  0  0  0  0  0  0  0
  1 12  1  0  0  0  0
  2  1  1  0  0  0  0
  2  3  1  0  0  0  0
  3 13  1  0  0  0  0
  4  3  2  0  0  0  0
  4 14  1  0  0  0  0
  5  4  1  0  0  0  0
  6 11  1  0  0  0  0
  7  8  1  0  0  0  0
  7  6  2  0  0  0  0
  8  9  2  0  0  0  0
  9 10  1  0  0  0  0
 10  2  2  0  0  0  0
 11 10  1  0  0  0  0
 11  5  2  0  0  0  0
 12 19  1  0  0  0  0
 12 21  1  0  0  0  0
 15  5  1  0  0  0  0
 16  6  1  0  0  0  0
 17  8  1  0  0  0  0
 18  7  1  0  0  0  0
 20 12  1  0  0  0  0
M  END
