5
q = 0.0, confidence = 0.998

 44 46  0  0  1  0  0  0  0  0999 V2000
    0.9384    0.8686   -1.1552 S   0  0  0  0  0  0  0  0  0  0  0  0
   -2.5834   -0.7276   -1.3382 N   0  0  0  0  0  0  0  0  0  0  0  0
   -2.3247    1.1773   -0.3529 N   0  0  0  0  0  0  0  0  0  0  0  0
   -1.6801    2.1701    0.3615 N   0  0  1  0  0  0  0  0  0  0  0  0
   -1.7810   -0.0756   -0.4503 C   0  0  0  0  0  2  0  0  0  0  0  0
   -3.4517    1.3136   -1.1701 C   0  0  0  0  0  0  0  0  0  0  0  0
   -4.0423    2.2320   -1.2297 H   0  0  0  0  0  0  0  0  0  0  0  0
   -3.6137    0.0992   -1.7812 C   0  0  0  0  0  0  0  0  0  0  0  0
   -4.3806   -0.2405   -2.4837 H   0  0  0  0  0  0  0  0  0  0  0  0
   -2.3065   -2.0897   -1.8448 C   0  0  0  0  0  0  0  0  0  0  0  0
   -1.4487   -2.4232   -1.2222 H   0  0  0  0  0  0  0  0  0  0  0  0
   -1.8556   -2.0274   -3.3057 C   0  0  0  0  0  0  0  0  0  0  0  0
   -2.6680   -1.6657   -3.9684 H   0  0  0  0  0  0  0  0  0  0  0  0
   -1.5633   -3.0370   -3.6541 H   0  0  0  0  0  0  0  0  0  0  0  0
   -0.9845   -1.3526   -3.4215 H   0  0  0  0  0  0  0  0  0  0  0  0
   -3.5003   -3.0151   -1.6149 C   0  0  0  0  0  0  0  0  0  0  0  0
   -3.8035   -3.0277   -0.5493 H   0  0  0  0  0  0  0  0  0  0  0  0
   -3.2360   -4.0485   -1.9115 H   0  0  0  0  0  0  0  0  0  0  0  0
   -4.3787   -2.7133   -2.2212 H   0  0  0  0  0  0  0  0  0  0  0  0
   -0.7454    3.0169   -0.4202 C   0  0  1  0  0  0  0  0  0  0  0  0
   -1.0591    3.0478   -1.4885 H   0  0  0  0  0  0  0  0  0  0  0  0
   -0.8900    4.4090    0.2452 C   0  0  0  0  0  0  0  0  0  0  0  0
    0.0746    4.9463    0.3265 H   0  0  0  0  0  0  0  0  0  0  0  0
   -1.5626    5.0393   -0.3701 H   0  0  0  0  0  0  0  0  0  0  0  0
   -1.5404    4.1186    1.6096 C   0  0  0  0  0  0  0  0  0  0  0  0
   -2.0595    4.9970    2.0364 H   0  0  0  0  0  0  0  0  0  0  0  0
   -0.7825    3.7811    2.3459 H   0  0  0  0  0  0  0  0  0  0  0  0
   -2.4923    2.9713    1.2828 C   0  0  0  0  0  0  0  0  0  0  0  0
   -2.7870    2.3651    2.1634 H   0  0  0  0  0  0  0  0  0  0  0  0
   -3.4248    3.3606    0.8049 H   0  0  0  0  0  0  0  0  0  0  0  0
    0.7012    2.5097   -0.3428 C   0  0  0  0  0  0  0  0  0  0  0  0
    1.0183    2.4370    0.7158 H   0  0  0  0  0  0  0  0  0  0  0  0
    1.3713    3.2054   -0.8874 H   0  0  0  0  0  0  0  0  0  0  0  0
    2.7264    0.7114   -1.1959 C   0  0  0  0  0  0  0  0  0  0  0  0
    3.5994    1.4047   -0.3379 C   0  0  0  0  0  0  0  0  0  0  0  0
    3.2211    2.1187    0.4061 H   0  0  0  0  0  0  0  0  0  0  0  0
    4.9826    1.1835   -0.4399 C   0  0  0  0  0  0  0  0  0  0  0  0
    5.6659    1.7309    0.2263 H   0  0  0  0  0  0  0  0  0  0  0  0
    5.4920    0.2725   -1.3768 C   0  0  0  0  0  0  0  0  0  0  0  0
    6.5764    0.1039   -1.4482 H   0  0  0  0  0  0  0  0  0  0  0  0
    4.6140   -0.4174   -2.2287 C   0  0  0  0  0  0  0  0  0  0  0  0
    5.0071   -1.1250   -2.9737 H   0  0  0  0  0  0  0  0  0  0  0  0
    3.2324   -0.1970   -2.1474 C   0  0  0  0  0  0  0  0  0  0  0  0
    2.5435   -0.7216   -2.8274 H   0  0  0  0  0  0  0  0  0  0  0  0
  1 31  1  0  0  0  0
  2  5  1  0  0  0  0
  4  3  1  6  0  0  0
  4 28  1  0  0  0  0
  5  3  1  0  0  0  0
  6  3  1  0  0  0  0
  7  6  1  0  0  0  0
  8  2  1  0  0  0  0
  8  6  2  0  0  0  0
  9  8  1  0  0  0  0
 10 16  1  0  0  0  0
 10  2  1  0  0  0  0
 10 11  1  0  0  0  0
 12 10  1  0  0  0  0
 13 12  1  0  0  0  0
 14 12  1  0  0  0  0
 15 12  1  0  0  0  0
 16 17  1  0  0  0  0
 18 16  1  0  0  0  0
 19 16  1  0  0  0  0
 20 21  1  6  0  0  0
 20 31  1  0  0  0  0
 20 22  1  0  0  0  0
 20  4  1  0  0  0  0
 22 23  1  0  0  0  0
 22 25  1  0  0  0  0
 24 22  1  0  0  0  0
 25 26  1  0  0  0  0
 25 27  1  0  0  0  0
 28 25  1  0  0  0  0
 28 29  1  0  0  0  0
 30 28  1  0  0  0  0
 31 32  1  0  0  0  0
 33 31  1  0  0  0  0
 34  1  1  0  0  0  0
 34 35  1  0  0  0  0
 35 36  1  0  0  0  0
 37 35  2  0  0  0  0
 37 38  1  0  0  0  0
 39 37  1  0  0  0  0
 40 39  1  0  0  0  0
 41 43  1  0  0  0  0
 41 39  2  0  0  0  0
 42 41  1  0  0  0  0
 43 34  2  0  0  0  0
 44 43  1  0  0  0  0
M  END
