4
q = 0.0, confidence = 0.97

 17 16  0  0  0  0  0  0  0  0999 V2000
   -2.2334   -3.4737    0.7310 C   0  0  0  0  0  0  0  0  0  0  0  0
   -3.1425   -2.6782   -0.2187 C   0  0  0  0  0  0  0  0  0  0  0  0
   -2.9626   -1.2151   -0.1518 C   0  0  0  0  0  2  0  0  0  0  0  0
   -3.1737    0.0379   -0.0895 C   0  0  0  0  0  2  0  0  0  0  0  0
   -3.9210    1.2745   -0.0224 C   0  0  0  0  0  0  0  0  0  0  0  0
   -3.2984    2.4782    0.0350 C   0  0  0  0  0  0  0  0  0  0  0  0
   -5.4249    1.1138   -0.0201 C   0  0  0  0  0  0  0  0  0  0  0  0
   -2.4399   -4.5580    0.6392 H   0  0  0  0  0  0  0  0  0  0  0  0
   -1.1660   -3.2975    0.4934 H   0  0  0  0  0  0  0  0  0  0  0  0
   -2.4061   -3.1782    1.7849 H   0  0  0  0  0  0  0  0  0  0  0  0
   -2.9616   -3.0049   -1.2668 H   0  0  0  0  0  0  0  0  0  0  0  0
   -4.2143   -2.8942   -0.0110 H   0  0  0  0  0  0  0  0  0  0  0  0
   -2.2010    2.5615    0.0320 H   0  0  0  0  0  0  0  0  0  0  0  0
   -3.8908    3.4047    0.0872 H   0  0  0  0  0  0  0  0  0  0  0  0
   -5.9301    2.0969    0.0329 H   0  0  0  0  0  0  0  0  0  0  0  0
   -5.7550    0.5000    0.8438 H   0  0  0  0  0  0  0  0  0  0  0  0
   -5.7672    0.5892   -0.9363 H   0  0  0  0  0  0  0  0  0  0  0  0
  1 10  1  0  0  0  0
  2  3  1  0  0  0  0
  2 12  1  0  0  0  0
  2  1  1  0  0  0  0
  3  4  1  0  0  0  0
  4  5  1  0  0  0  0
  5  7  1  0  0  0  0
  5  6  2  0  0  0  0
  6 14  1  0  0  0  0
  7 15  1  0  0  0  0
  7 16  1  0  0  0  0
  8  1  1  0  0  0  0
  9  1  1  0  0  0  0
 11  2  1  0  0  0  0
 13  6  1  0  0  0  0
 17  7  1  0  0  0  0
M  END
