2
q = nan, confidence = 0.0

 11 10  0  0  0  0  0  0  0  0999 V2000
   -0.0014   -1.8285    1.7517 P   0  0  0  0  0  0  0  0  0  0  0  0
    0.0003   -0.1116    2.1462 C   0  0  0  0  0  2  0  0  0  0  0  0
   -1.4105   -2.7520    2.5638 C   0  0  0  0  0  0  0  0  0  0  0  0
    1.4059   -2.7549    2.5636 C   0  0  0  0  0  0  0  0  0  0  0  0
    0.0010    0.3220    3.1626 H   0  0  0  0  0  0  0  0  0  0  0  0
   -2.3462   -2.1773    2.4364 H   0  0  0  0  0  0  0  0  0  0  0  0
   -1.2230   -2.8748    3.6509 H   0  0  0  0  0  0  0  0  0  0  0  0
   -1.5480   -3.7577    2.1142 H   0  0  0  0  0  0  0  0  0  0  0  0
    2.3423   -2.1811    2.4376 H   0  0  0  0  0  0  0  0  0  0  0  0
    1.2175   -2.8789    3.6504 H   0  0  0  0  0  0  0  0  0  0  0  0
    1.5425   -3.7602    2.1128 H   0  0  0  0  0  0  0  0  0  0  0  0
  1  2  1  0  0  0  0
  1  4  1  0  0  0  0
  1  3  1  0  0  0  0
  2  5  1  0  0  0  0
  3  7  1  0  0  0  0
  4 10  1  0  0  0  0
  6  3  1  0  0  0  0
  8  3  1  0  0  0  0
  9  4  1  0  0  0  0
 11  4  1  0  0  0  0
M  END
