3
q = -1.0, confidence = 0.0

 16 16  0  0  0  0  0  0  0  0999 V2000
   -1.7473    0.0001    3.4934 C   0  0  0  0  0  0  0  0  0  0  0  0
   -1.6468   -0.0003    2.1754 C   0  0  0  0  0  0  0  0  0  0  0  0
   -1.5148   -0.0003    0.8615 C   0  0  0  0  0  3  0  0  0  0  0  0
   -2.6391   -0.0002   -0.1000 C   0  0  0  0  0  0  0  0  0  0  0  0
   -3.9858   -0.0004    0.3424 C   0  0  0  0  0  0  0  0  0  0  0  0
   -5.0418   -0.0003   -0.5756 C   0  0  0  0  0  0  0  0  0  0  0  0
   -4.7853    0.0000   -1.9589 C   0  0  0  0  0  0  0  0  0  0  0  0
   -3.4587    0.0002   -2.4154 C   0  0  0  0  0  0  0  0  0  0  0  0
   -2.3991    0.0001   -1.4957 C   0  0  0  0  0  0  0  0  0  0  0  0
   -1.8013    0.9380    4.0765 H   0  0  0  0  0  0  0  0  0  0  0  0
   -1.8011   -0.9375    4.0770 H   0  0  0  0  0  0  0  0  0  0  0  0
   -4.1912   -0.0006    1.4242 H   0  0  0  0  0  0  0  0  0  0  0  0
   -6.0798   -0.0004   -0.2100 H   0  0  0  0  0  0  0  0  0  0  0  0
   -5.6190    0.0001   -2.6766 H   0  0  0  0  0  0  0  0  0  0  0  0
   -3.2467    0.0004   -3.4954 H   0  0  0  0  0  0  0  0  0  0  0  0
   -1.3523    0.0002   -1.8470 H   0  0  0  0  0  0  0  0  0  0  0  0
  1 10  1  0  0  0  0
  1 11  1  0  0  0  0
  2  1  2  0  0  0  0
  3  2  2  0  0  0  0
  4  5  1  0  0  0  0
  4  3  1  0  0  0  0
  5 12  1  0  0  0  0
  6 13  1  0  0  0  0
  6  5  2  0  0  0  0
  7  6  1  0  0  0  0
  8  7  2  0  0  0  0
  8  9  1  0  0  0  0
  9  4  2  0  0  0  0
 14  7  1  0  0  0  0
 15  8  1  0  0  0  0
 16  9  1  0  0  0  0
M  END
