1
q = 0.0, confidence = 0.998

 47 48  0  0  0  0  0  0  0  0999 V2000
    0.0573   -0.3460   -0.7226 C   0  0  0  0  0  2  0  0  0  0  0  0
   -0.7397    0.6881   -0.4478 N   0  0  0  0  0  0  0  0  0  0  0  0
   -1.7315    0.5642   -0.6975 H   0  0  0  0  0  0  0  0  0  0  0  0
   -0.5699   -1.4588   -1.1884 N   0  0  0  0  0  0  0  0  0  0  0  0
    0.0588   -2.1559   -1.6372 H   0  0  0  0  0  0  0  0  0  0  0  0
   -1.9323   -1.5209   -1.3810 N   0  0  0  0  0  0  0  0  0  0  0  0
   -2.3002   -1.4625   -2.3369 H   0  0  0  0  0  0  0  0  0  0  0  0
   -2.7371   -2.0763   -0.3874 C   0  0  0  0  0  0  0  0  0  0  0  0
   -2.3500   -2.3207    0.7449 O   0  0  0  0  0  0  0  0  0  0  0  0
   -3.9781   -2.2339   -0.8879 O   0  0  0  0  0  0  0  0  0  0  0  0
   -5.0951   -2.6606   -0.0165 C   0  0  0  0  0  0  0  0  0  0  0  0
   -4.8276   -4.0759    0.5032 C   0  0  0  0  0  0  0  0  0  0  0  0
   -3.9433   -4.0929    1.1657 H   0  0  0  0  0  0  0  0  0  0  0  0
   -4.6582   -4.7720   -0.3422 H   0  0  0  0  0  0  0  0  0  0  0  0
   -5.7075   -4.4349    1.0730 H   0  0  0  0  0  0  0  0  0  0  0  0
   -5.2779   -1.6476    1.1182 C   0  0  0  0  0  0  0  0  0  0  0  0
   -4.4141   -1.6617    1.8078 H   0  0  0  0  0  0  0  0  0  0  0  0
   -6.1928   -1.8950    1.6920 H   0  0  0  0  0  0  0  0  0  0  0  0
   -5.3969   -0.6246    0.7082 H   0  0  0  0  0  0  0  0  0  0  0  0
   -6.2905   -2.6391   -0.9696 C   0  0  0  0  0  0  0  0  0  0  0  0
   -6.1248   -3.3307   -1.8187 H   0  0  0  0  0  0  0  0  0  0  0  0
   -6.4506   -1.6204   -1.3741 H   0  0  0  0  0  0  0  0  0  0  0  0
   -7.2078   -2.9532   -0.4349 H   0  0  0  0  0  0  0  0  0  0  0  0
   -0.3590    2.0456   -0.0606 C   0  0  0  0  0  0  0  0  0  0  0  0
    0.7487    2.0854   -0.1550 H   0  0  0  0  0  0  0  0  0  0  0  0
   -0.7711    2.3856    1.3628 C   0  0  0  0  0  0  0  0  0  0  0  0
   -0.2376    3.5457    1.9613 C   0  0  0  0  0  0  0  0  0  0  0  0
    0.4755    4.1630    1.3928 H   0  0  0  0  0  0  0  0  0  0  0  0
   -0.6043    3.9134    3.2623 C   0  0  0  0  0  0  0  0  0  0  0  0
   -0.1723    4.8179    3.7169 H   0  0  0  0  0  0  0  0  0  0  0  0
   -1.5182    3.1285    3.9871 C   0  0  0  0  0  0  0  0  0  0  0  0
   -1.8057    3.4158    5.0098 H   0  0  0  0  0  0  0  0  0  0  0  0
   -2.0582    1.9763    3.3984 C   0  0  0  0  0  0  0  0  0  0  0  0
   -2.7717    1.3518    3.9575 H   0  0  0  0  0  0  0  0  0  0  0  0
   -1.6863    1.6070    2.0941 C   0  0  0  0  0  0  0  0  0  0  0  0
   -2.0960    0.6859    1.6534 H   0  0  0  0  0  0  0  0  0  0  0  0
   -0.9564    3.0120   -1.0905 C   0  0  0  0  0  0  0  0  0  0  0  0
   -0.3174    3.1610   -2.3386 C   0  0  0  0  0  0  0  0  0  0  0  0
    0.6296    2.6242   -2.5170 H   0  0  0  0  0  0  0  0  0  0  0  0
   -0.8790    3.9865   -3.3226 C   0  0  0  0  0  0  0  0  0  0  0  0
   -0.3667    4.1038   -4.2900 H   0  0  0  0  0  0  0  0  0  0  0  0
   -2.0852    4.6647   -3.0777 C   0  0  0  0  0  0  0  0  0  0  0  0
   -2.5231    5.3130   -3.8522 H   0  0  0  0  0  0  0  0  0  0  0  0
   -2.7267    4.5160   -1.8388 C   0  0  0  0  0  0  0  0  0  0  0  0
   -3.6695    5.0475   -1.6370 H   0  0  0  0  0  0  0  0  0  0  0  0
   -2.1639    3.6951   -0.8480 C   0  0  0  0  0  0  0  0  0  0  0  0
   -2.6623    3.5940    0.1283 H   0  0  0  0  0  0  0  0  0  0  0  0
  1  2  1  0  0  0  0
  2 24  1  0  0  0  0
  3  2  1  0  0  0  0
  4  1  1  0  0  0  0
  5  4  1  0  0  0  0
  6  4  1  0  0  0  0
  6  8  1  0  0  0  0
  7  6  1  0  0  0  0
  8  9  2  0  0  0  0
 10  8  1  0  0  0  0
 10 11  1  0  0  0  0
 11 12  1  0  0  0  0
 11 16  1  0  0  0  0
 12 15  1  0  0  0  0
 12 13  1  0  0  0  0
 14 12  1  0  0  0  0
 16 18  1  0  0  0  0
 16 17  1  0  0  0  0
 19 16  1  0  0  0  0
 20 23  1  0  0  0  0
 20 11  1  0  0  0  0
 21 20  1  0  0  0  0
 22 20  1  0  0  0  0
 24 26  1  0  0  0  0
 25 24  1  0  0  0  0
 26 27  2  0  0  0  0
 26 35  1  0  0  0  0
 27 29  1  0  0  0  0
 28 27  1  0  0  0  0
 29 30  1  0  0  0  0
 29 31  2  0  0  0  0
 31 32  1  0  0  0  0
 33 34  1  0  0  0  0
 33 31  1  0  0  0  0
 35 33  2  0  0  0  0
 36 35  1  0  0  0  0
 37 46  1  0  0  0  0
 37 24  1  0  0  0  0
 38 37  2  0  0  0  0
 39 38  1  0  0  0  0
 40 42  2  0  0  0  0
 40 38  1  0  0  0  0
 41 40  1  0  0  0  0
 42 44  1  0  0  0  0
 43 42  1  0  0  0  0
 44 45  1  0  0  0  0
 44 46  2  0  0  0  0
 46 47  1  0  0  0  0
M  END
