1
q = 0.0, confidence = 0.624

  3  2  0  0  0  0  0  0  0  0999 V2000
    0.0000   -0.3831   -1.8602 C   0  0  0  0  0  2  0  0  0  0  0  0
    0.9161   -0.4892   -2.4826 H   0  0  0  0  0  0  0  0  0  0  0  0
   -0.9161   -0.4892   -2.4826 H   0  0  0  0  0  0  0  0  0  0  0  0
  2  1  1  0  0  0  0
  3  1  1  0  0  0  0
M  END
