5
q = 0.0, confidence = 0.99

 57 62  0  0  0  0  0  0  0  0999 V2000
    0.9475   -0.7136   -0.0806 C   0  0  0  0  0  0  0  0  0  0  0  0
    4.5272   -1.4315   -0.0241 N   0  0  0  0  0  0  0  0  0  0  0  0
    4.5149    1.4649    0.0176 N   0  0  0  0  0  0  0  0  0  0  0  0
   -0.3893   -1.1042   -0.0872 N   0  0  0  0  0  0  0  0  0  0  0  0
   -1.2211   -0.0076   -0.0529 C   0  0  0  0  0  2  0  0  0  0  0  0
   -0.8823    2.4687    0.0373 C   0  0  0  0  0  0  0  0  0  0  0  0
   -0.3413    2.9756    0.8645 H   0  0  0  0  0  0  0  0  0  0  0  0
   -1.9492    2.3867    0.3365 H   0  0  0  0  0  0  0  0  0  0  0  0
   -0.3979    1.0963   -0.0471 N   0  0  0  0  0  0  0  0  0  0  0  0
   -0.8591   -2.4834   -0.0252 C   0  0  0  0  0  0  0  0  0  0  0  0
   -1.9322   -2.4194    0.2543 H   0  0  0  0  0  0  0  0  0  0  0  0
   -0.3310   -2.9889    0.8114 H   0  0  0  0  0  0  0  0  0  0  0  0
    0.9415    0.7172   -0.0559 C   0  0  0  0  0  0  0  0  0  0  0  0
    5.6231    0.7534    0.0264 C   0  0  0  0  0  0  0  0  0  0  0  0
    2.1177    1.4535   -0.0202 C   0  0  0  0  0  0  0  0  0  0  0  0
    2.1468    2.5506    0.0059 H   0  0  0  0  0  0  0  0  0  0  0  0
    5.6293   -0.7113    0.0056 C   0  0  0  0  0  0  0  0  0  0  0  0
    3.3547   -0.7184   -0.0339 C   0  0  0  0  0  0  0  0  0  0  0  0
    2.1303   -1.4398   -0.0654 C   0  0  0  0  0  0  0  0  0  0  0  0
    2.1701   -2.5369   -0.0732 H   0  0  0  0  0  0  0  0  0  0  0  0
   -0.6798   -3.2600   -1.3314 C   0  0  0  0  0  0  0  0  0  0  0  0
   -1.1563   -2.6889   -2.1573 H   0  0  0  0  0  0  0  0  0  0  0  0
    0.3986   -3.3318   -1.5916 H   0  0  0  0  0  0  0  0  0  0  0  0
    3.3484    0.7423   -0.0123 C   0  0  0  0  0  0  0  0  0  0  0  0
    9.2362    0.0355    0.0773 C   0  0  0  0  0  0  0  0  0  0  0  0
    7.8214    0.0298    0.0531 C   0  0  0  0  0  0  0  0  0  0  0  0
   -0.7477    3.2530   -1.2696 C   0  0  0  0  0  0  0  0  0  0  0  0
    0.3237    3.3591   -1.5473 H   0  0  0  0  0  0  0  0  0  0  0  0
   -1.2201    2.6662   -2.0867 H   0  0  0  0  0  0  0  0  0  0  0  0
    7.0324   -1.1579    0.0231 C   0  0  0  0  0  0  0  0  0  0  0  0
    7.0224    1.2112    0.0566 C   0  0  0  0  0  0  0  0  0  0  0  0
    9.8573    1.3225    0.1064 C   0  0  0  0  0  0  0  0  0  0  0  0
   10.9557    1.3970    0.1264 H   0  0  0  0  0  0  0  0  0  0  0  0
    7.6745   -2.3909    0.0171 C   0  0  0  0  0  0  0  0  0  0  0  0
    7.0990   -3.3280   -0.0051 H   0  0  0  0  0  0  0  0  0  0  0  0
   -1.2903   -4.6621   -1.2559 C   0  0  0  0  0  0  0  0  0  0  0  0
   -2.3695   -4.5719   -0.9995 H   0  0  0  0  0  0  0  0  0  0  0  0
   -0.8280   -5.2197   -0.4114 H   0  0  0  0  0  0  0  0  0  0  0  0
    9.8682   -1.2466    0.0702 C   0  0  0  0  0  0  0  0  0  0  0  0
   10.9672   -1.3123    0.0884 H   0  0  0  0  0  0  0  0  0  0  0  0
    7.6540    2.4493    0.0854 C   0  0  0  0  0  0  0  0  0  0  0  0
    7.0705    3.3817    0.0897 H   0  0  0  0  0  0  0  0  0  0  0  0
    9.1002   -2.4128    0.0410 C   0  0  0  0  0  0  0  0  0  0  0  0
    9.6127   -3.3869    0.0367 H   0  0  0  0  0  0  0  0  0  0  0  0
    9.0794    2.4825    0.1100 C   0  0  0  0  0  0  0  0  0  0  0  0
    9.5837    3.4607    0.1332 H   0  0  0  0  0  0  0  0  0  0  0  0
   -1.1306   -5.4578   -2.5512 C   0  0  0  0  0  0  0  0  0  0  0  0
   -0.0605   -5.5911   -2.8137 H   0  0  0  0  0  0  0  0  0  0  0  0
   -1.6173   -4.9397   -3.4037 H   0  0  0  0  0  0  0  0  0  0  0  0
   -1.5834   -6.4661   -2.4697 H   0  0  0  0  0  0  0  0  0  0  0  0
   -1.4040    4.6334   -1.1825 C   0  0  0  0  0  0  0  0  0  0  0  0
   -2.4748    4.5053   -0.9075 H   0  0  0  0  0  0  0  0  0  0  0  0
   -0.9466    5.2069   -0.3458 H   0  0  0  0  0  0  0  0  0  0  0  0
   -1.2948    5.4344   -2.4798 C   0  0  0  0  0  0  0  0  0  0  0  0
   -1.7809    6.4263   -2.3899 H   0  0  0  0  0  0  0  0  0  0  0  0
   -1.7780    4.8996   -3.3240 H   0  0  0  0  0  0  0  0  0  0  0  0
   -0.2348    5.6048   -2.7613 H   0  0  0  0  0  0  0  0  0  0  0  0
  1 19  2  0  0  0  0
  1 13  1  0  0  0  0
  2 17  1  0  0  0  0
  3 14  1  0  0  0  0
  4  1  1  0  0  0  0
  4  5  1  0  0  0  0
  4 10  1  0  0  0  0
  5  9  1  0  0  0  0
  6  8  1  0  0  0  0
  6  7  1  0  0  0  0
  9  6  1  0  0  0  0
 10 11  1  0  0  0  0
 10 12  1  0  0  0  0
 13  9  1  0  0  0  0
 13 15  2  0  0  0  0
 14 31  1  0  0  0  0
 15 24  1  0  0  0  0
 15 16  1  0  0  0  0
 17 30  1  0  0  0  0
 17 14  2  0  0  0  0
 18  2  2  0  0  0  0
 18 24  1  0  0  0  0
 19 18  1  0  0  0  0
 20 19  1  0  0  0  0
 21 36  1  0  0  0  0
 21 10  1  0  0  0  0
 22 21  1  0  0  0  0
 23 21  1  0  0  0  0
 24  3  2  0  0  0  0
 25 32  1  0  0  0  0
 26 31  1  0  0  0  0
 26 25  2  0  0  0  0
 27 51  1  0  0  0  0
 27  6  1  0  0  0  0
 28 27  1  0  0  0  0
 29 27  1  0  0  0  0
 30 26  1  0  0  0  0
 31 41  2  0  0  0  0
 32 45  2  0  0  0  0
 32 33  1  0  0  0  0
 34 30  2  0  0  0  0
 34 43  1  0  0  0  0
 35 34  1  0  0  0  0
 36 37  1  0  0  0  0
 36 38  1  0  0  0  0
 39 25  1  0  0  0  0
 39 40  1  0  0  0  0
 41 42  1  0  0  0  0
 41 45  1  0  0  0  0
 43 39  2  0  0  0  0
 44 43  1  0  0  0  0
 45 46  1  0  0  0  0
 47 50  1  0  0  0  0
 47 36  1  0  0  0  0
 48 47  1  0  0  0  0
 49 47  1  0  0  0  0
 51 52  1  0  0  0  0
 51 53  1  0  0  0  0
 54 55  1  0  0  0  0
 54 51  1  0  0  0  0
 56 54  1  0  0  0  0
 57 54  1  0  0  0  0
M  END
