4
q = -1.0, confidence = 0.0

 41 44  0  0  0  0  0  0  0  0999 V2000
   -0.8661   -0.7586    2.0304 O   0  0  0  0  0  0  0  0  0  0  0  0
    0.1527   -0.8723   -0.1052 C   0  0  0  0  0  0  0  0  0  0  0  0
    0.4366   -0.5447   -1.4794 C   0  0  0  0  0  0  0  0  0  0  0  0
    1.5549   -1.3366   -1.8774 C   0  0  0  0  0  3  0  0  0  0  0  0
    2.0527   -1.2779   -2.8535 H   0  0  0  0  0  0  0  0  0  0  0  0
    1.9311   -2.1717   -0.7885 C   0  0  0  0  0  0  0  0  0  0  0  0
    2.7720   -2.8747   -0.7725 H   0  0  0  0  0  0  0  0  0  0  0  0
    1.0671   -1.9111    0.3152 C   0  0  0  0  0  0  0  0  0  0  0  0
   -0.3212    0.3706   -2.3892 C   0  0  0  0  0  0  0  0  0  0  0  0
    0.2199    0.4955   -3.3458 H   0  0  0  0  0  0  0  0  0  0  0  0
   -0.4747    1.3723   -1.9477 H   0  0  0  0  0  0  0  0  0  0  0  0
   -1.3217   -0.0589   -2.6060 H   0  0  0  0  0  0  0  0  0  0  0  0
    1.1382   -2.6489    1.6188 C   0  0  0  0  0  0  0  0  0  0  0  0
    0.2166   -3.2436    1.7779 H   0  0  0  0  0  0  0  0  0  0  0  0
    1.2217   -1.9549    2.4737 H   0  0  0  0  0  0  0  0  0  0  0  0
    2.0059   -3.3365    1.6179 H   0  0  0  0  0  0  0  0  0  0  0  0
   -1.0601   -0.3784    0.6729 C   0  0  0  0  0  0  0  0  0  0  0  0
   -1.3712    1.1184    0.5136 C   0  0  0  0  0  0  0  0  0  0  0  0
   -0.6169    2.2069    0.9519 C   0  0  0  0  0  0  0  0  0  0  0  0
    0.3437    2.0519    1.4629 H   0  0  0  0  0  0  0  0  0  0  0  0
   -1.1097    3.5049    0.7146 C   0  0  0  0  0  0  0  0  0  0  0  0
   -0.5220    4.3759    1.0409 H   0  0  0  0  0  0  0  0  0  0  0  0
   -2.3382    3.6974    0.0584 C   0  0  0  0  0  0  0  0  0  0  0  0
   -2.7033    4.7195   -0.1242 H   0  0  0  0  0  0  0  0  0  0  0  0
   -3.1102    2.5989   -0.3599 C   0  0  0  0  0  0  0  0  0  0  0  0
   -4.0771    2.7546   -0.8622 H   0  0  0  0  0  0  0  0  0  0  0  0
   -2.6242    1.3054   -0.1201 C   0  0  0  0  0  0  0  0  0  0  0  0
   -3.2058   -0.0146   -0.4185 C   0  0  0  0  0  0  0  0  0  0  0  0
   -4.7181   -1.7418   -1.1772 C   0  0  0  0  0  0  0  0  0  0  0  0
   -5.6615   -2.0411   -1.6585 H   0  0  0  0  0  0  0  0  0  0  0  0
   -4.4127   -0.3766   -1.0372 C   0  0  0  0  0  0  0  0  0  0  0  0
   -5.1102    0.3912   -1.4051 H   0  0  0  0  0  0  0  0  0  0  0  0
   -3.8329   -2.7309   -0.7102 C   0  0  0  0  0  0  0  0  0  0  0  0
   -4.0919   -3.7939   -0.8277 H   0  0  0  0  0  0  0  0  0  0  0  0
   -2.6172   -2.3695   -0.0983 C   0  0  0  0  0  0  0  0  0  0  0  0
   -1.9160   -3.1390    0.2595 H   0  0  0  0  0  0  0  0  0  0  0  0
   -2.3159   -1.0144    0.0413 C   0  0  0  0  0  0  0  0  0  0  0  0
   -1.9266   -0.4396    2.9130 C   0  0  0  0  0  0  0  0  0  0  0  0
   -2.0933    0.6582    2.9892 H   0  0  0  0  0  0  0  0  0  0  0  0
   -1.6295   -0.8253    3.9067 H   0  0  0  0  0  0  0  0  0  0  0  0
   -2.8843   -0.9214    2.6104 H   0  0  0  0  0  0  0  0  0  0  0  0
  1 38  1  0  0  0  0
  2  8  1  0  0  0  0
  2 17  1  0  0  0  0
  3  2  2  0  0  0  0
  4  3  1  0  0  0  0
  4  6  1  0  0  0  0
  5  4  1  0  0  0  0
  6  7  1  0  0  0  0
  6  8  2  0  0  0  0
  8 13  1  0  0  0  0
  9 11  1  0  0  0  0
  9  3  1  0  0  0  0
 10  9  1  0  0  0  0
 12  9  1  0  0  0  0
 13 14  1  0  0  0  0
 13 15  1  0  0  0  0
 16 13  1  0  0  0  0
 17  1  1  0  0  0  0
 18 17  1  0  0  0  0
 18 19  1  0  0  0  0
 19 20  1  0  0  0  0
 21 19  2  0  0  0  0
 21 22  1  0  0  0  0
 23 21  1  0  0  0  0
 24 23  1  0  0  0  0
 25 27  1  0  0  0  0
 25 23  2  0  0  0  0
 26 25  1  0  0  0  0
 27 18  2  0  0  0  0
 28 27  1  0  0  0  0
 28 37  1  0  0  0  0
 29 31  1  0  0  0  0
 29 33  2  0  0  0  0
 30 29  1  0  0  0  0
 31 28  2  0  0  0  0
 32 31  1  0  0  0  0
 33 35  1  0  0  0  0
 34 33  1  0  0  0  0
 35 37  2  0  0  0  0
 35 36  1  0  0  0  0
 37 17  1  0  0  0  0
 38 39  1  0  0  0  0
 38 40  1  0  0  0  0
 41 38  1  0  0  0  0
M  END
