1
q = 0.0, confidence = 0.978

 26 27  0  0  0  0  0  0  0  0999 V2000
    0.6397   -2.4987   -0.3260 C   0  0  0  0  0  3  0  0  0  0  0  0
    0.6882   -2.7508   -1.4000 H   0  0  0  0  0  0  0  0  0  0  0  0
   -0.6411   -2.4983    0.3250 C   0  0  0  0  0  3  0  0  0  0  0  0
   -0.6898   -2.7500    1.3991 H   0  0  0  0  0  0  0  0  0  0  0  0
    1.9241   -2.6169    0.3852 C   0  0  0  0  0  0  0  0  0  0  0  0
    2.0538   -2.4354    1.7883 C   0  0  0  0  0  0  0  0  0  0  0  0
    1.1563   -2.2483    2.3966 H   0  0  0  0  0  0  0  0  0  0  0  0
    3.3086   -2.4607    2.4108 C   0  0  0  0  0  0  0  0  0  0  0  0
    3.3737   -2.3085    3.4996 H   0  0  0  0  0  0  0  0  0  0  0  0
    4.4796   -2.6698    1.6614 C   0  0  0  0  0  0  0  0  0  0  0  0
    5.4635   -2.6842    2.1534 H   0  0  0  0  0  0  0  0  0  0  0  0
    4.3707   -2.8663    0.2739 C   0  0  0  0  0  0  0  0  0  0  0  0
    5.2747   -3.0418   -0.3303 H   0  0  0  0  0  0  0  0  0  0  0  0
    3.1165   -2.8437   -0.3496 C   0  0  0  0  0  0  0  0  0  0  0  0
    3.0445   -2.9955   -1.4388 H   0  0  0  0  0  0  0  0  0  0  0  0
   -1.9256   -2.6163   -0.3861 C   0  0  0  0  0  0  0  0  0  0  0  0
   -2.0554   -2.4341   -1.7891 C   0  0  0  0  0  0  0  0  0  0  0  0
   -1.1579   -2.2466   -2.3973 H   0  0  0  0  0  0  0  0  0  0  0  0
   -3.3101   -2.4590   -2.4115 C   0  0  0  0  0  0  0  0  0  0  0  0
   -3.3754   -2.3063   -3.5003 H   0  0  0  0  0  0  0  0  0  0  0  0
   -4.4811   -2.6686   -1.6621 C   0  0  0  0  0  0  0  0  0  0  0  0
   -5.4651   -2.6827   -2.1541 H   0  0  0  0  0  0  0  0  0  0  0  0
   -4.3722   -2.8657   -0.2748 C   0  0  0  0  0  0  0  0  0  0  0  0
   -5.2761   -3.0416    0.3294 H   0  0  0  0  0  0  0  0  0  0  0  0
   -3.1179   -2.8435    0.3487 C   0  0  0  0  0  0  0  0  0  0  0  0
   -3.0459   -2.9958    1.4378 H   0  0  0  0  0  0  0  0  0  0  0  0
  1  3  1  0  0  0  0
  1  5  1  0  0  0  0
  2  1  1  0  0  0  0
  3  4  1  0  0  0  0
  5  6  1  0  0  0  0
  6  7  1  0  0  0  0
  6  8  2  0  0  0  0
  8  9  1  0  0  0  0
 10 11  1  0  0  0  0
 10  8  1  0  0  0  0
 12 10  2  0  0  0  0
 13 12  1  0  0  0  0
 14 12  1  0  0  0  0
 14  5  2  0  0  0  0
 15 14  1  0  0  0  0
 16  3  1  0  0  0  0
 16 25  1  0  0  0  0
 17 16  2  0  0  0  0
 18 17  1  0  0  0  0
 19 17  1  0  0  0  0
 19 21  2  0  0  0  0
 20 19  1  0  0  0  0
 21 23  1  0  0  0  0
 22 21  1  0  0  0  0
 23 24  1  0  0  0  0
 23 25  2  0  0  0  0
 25 26  1  0  0  0  0
M  END
