4
q = -1.0, confidence = 0.002

 15 15  0  0  0  0  0  0  0  0999 V2000
    2.9558    1.7292   -1.6753 O   0  0  0  0  0  0  0  0  0  0  0  0
   -1.5020    2.5951   -0.7965 O   0  0  0  0  0  0  0  0  0  0  0  0
    2.0810    2.0728   -0.8646 C   0  0  0  0  0  0  0  0  0  0  0  0
    0.6682    1.6013   -0.9609 C   0  0  0  0  0  3  0  0  0  0  0  0
    0.3800    1.3545   -2.0033 H   0  0  0  0  0  0  0  0  0  0  0  0
   -0.3863    2.4579   -0.3096 C   0  0  0  0  0  0  0  0  0  0  0  0
    0.0054    3.1749    0.9848 C   0  0  0  0  0  0  0  0  0  0  0  0
   -0.1219    4.2622    0.7863 H   0  0  0  0  0  0  0  0  0  0  0  0
   -0.7550    2.9091    1.7462 H   0  0  0  0  0  0  0  0  0  0  0  0
    1.4261    2.8723    1.4649 C   0  0  0  0  0  0  0  0  0  0  0  0
    1.7121    3.5555    2.2903 H   0  0  0  0  0  0  0  0  0  0  0  0
    1.4635    1.8378    1.8726 H   0  0  0  0  0  0  0  0  0  0  0  0
    2.4233    2.9850    0.3084 C   0  0  0  0  0  0  0  0  0  0  0  0
    3.4702    2.7766    0.6090 H   0  0  0  0  0  0  0  0  0  0  0  0
    2.4233    4.0239   -0.0964 H   0  0  0  0  0  0  0  0  0  0  0  0
  1  3  2  0  0  0  0
  2  6  2  0  0  0  0
  3 13  1  0  0  0  0
  4  3  1  0  0  0  0
  4  6  1  0  0  0  0
  5  4  1  0  0  0  0
  6  7  1  0  0  0  0
  7 10  1  0  0  0  0
  7  9  1  0  0  0  0
  8  7  1  0  0  0  0
 10 12  1  0  0  0  0
 10 11  1  0  0  0  0
 13 14  1  0  0  0  0
 13 10  1  0  0  0  0
 15 13  1  0  0  0  0
M  END
