4
q = 0.0, confidence = 0.998

 41 42  0  0  0  0  0  0  0  0999 V2000
    6.1328    1.4291   -1.4016 S   0  0  0  0  0  0  0  0  0  0  0  0
   -0.5690    3.0665    0.4983 N   0  0  0  0  0  0  0  0  0  0  0  0
    0.9697    2.6630   -0.9746 N   0  0  0  0  0  0  0  0  0  0  0  0
    0.0945    2.0418   -0.1287 C   0  0  0  0  0  2  0  0  0  0  0  0
   -0.1111    4.2970    0.0341 C   0  0  0  0  0  0  0  0  0  0  0  0
   -0.5063    5.2508    0.3849 H   0  0  0  0  0  0  0  0  0  0  0  0
    0.8635    4.0418   -0.8909 C   0  0  0  0  0  0  0  0  0  0  0  0
    1.4821    4.7190   -1.4866 H   0  0  0  0  0  0  0  0  0  0  0  0
   -1.6715    2.9059    1.5066 C   0  0  0  0  0  0  0  0  0  0  0  0
   -1.1931    1.9601    2.6164 C   0  0  0  0  0  0  0  0  0  0  0  0
   -0.3108    2.3743    3.1418 H   0  0  0  0  0  0  0  0  0  0  0  0
   -2.0090    1.8041    3.3493 H   0  0  0  0  0  0  0  0  0  0  0  0
   -0.8868    0.9814    2.1990 H   0  0  0  0  0  0  0  0  0  0  0  0
   -2.9054    2.3481    0.7841 C   0  0  0  0  0  0  0  0  0  0  0  0
   -2.6717    1.3831    0.2963 H   0  0  0  0  0  0  0  0  0  0  0  0
   -3.7381    2.2090    1.5016 H   0  0  0  0  0  0  0  0  0  0  0  0
   -3.2494    3.0432   -0.0076 H   0  0  0  0  0  0  0  0  0  0  0  0
   -2.0078    4.2703    2.1259 C   0  0  0  0  0  0  0  0  0  0  0  0
   -2.4250    4.9794    1.3838 H   0  0  0  0  0  0  0  0  0  0  0  0
   -2.7834    4.1163    2.9001 H   0  0  0  0  0  0  0  0  0  0  0  0
   -1.1286    4.7315    2.6185 H   0  0  0  0  0  0  0  0  0  0  0  0
    1.9823    1.9712   -1.7637 C   0  0  0  0  0  0  0  0  0  0  0  0
    1.6640    0.9115   -1.8129 H   0  0  0  0  0  0  0  0  0  0  0  0
    1.9626    2.3766   -2.7974 H   0  0  0  0  0  0  0  0  0  0  0  0
    3.3773    2.0882   -1.1396 C   0  0  0  0  0  0  0  0  0  0  0  0
    3.2970    1.7917   -0.0741 H   0  0  0  0  0  0  0  0  0  0  0  0
    3.7247    3.1424   -1.1624 H   0  0  0  0  0  0  0  0  0  0  0  0
    4.3839    1.2023   -1.8747 C   0  0  0  0  0  0  0  0  0  0  0  0
    4.1259    0.1285   -1.7705 H   0  0  0  0  0  0  0  0  0  0  0  0
    4.3801    1.4279   -2.9625 H   0  0  0  0  0  0  0  0  0  0  0  0
    6.3353    0.4172    0.0479 C   0  0  0  0  0  0  0  0  0  0  0  0
    5.2762   -0.1278    0.8006 C   0  0  0  0  0  0  0  0  0  0  0  0
    4.2246    0.0625    0.5501 H   0  0  0  0  0  0  0  0  0  0  0  0
    5.5492   -0.9166    1.9287 C   0  0  0  0  0  0  0  0  0  0  0  0
    4.6986   -1.3228    2.4977 H   0  0  0  0  0  0  0  0  0  0  0  0
    6.8702   -1.1638    2.3300 C   0  0  0  0  0  0  0  0  0  0  0  0
    7.0783   -1.7790    3.2181 H   0  0  0  0  0  0  0  0  0  0  0  0
    7.9268   -0.6103    1.5862 C   0  0  0  0  0  0  0  0  0  0  0  0
    8.9701   -0.7942    1.8861 H   0  0  0  0  0  0  0  0  0  0  0  0
    7.6674    0.1700    0.4524 C   0  0  0  0  0  0  0  0  0  0  0  0
    8.5010    0.5859   -0.1349 H   0  0  0  0  0  0  0  0  0  0  0  0
  1 31  1  0  0  0  0
  2  9  1  0  0  0  0
  3  7  1  0  0  0  0
  3  4  1  0  0  0  0
  4  2  1  0  0  0  0
  5  6  1  0  0  0  0
  5  2  1  0  0  0  0
  7  5  2  0  0  0  0
  8  7  1  0  0  0  0
  9 18  1  0  0  0  0
  9 10  1  0  0  0  0
 10 11  1  0  0  0  0
 10 12  1  0  0  0  0
 13 10  1  0  0  0  0
 14 16  1  0  0  0  0
 14  9  1  0  0  0  0
 15 14  1  0  0  0  0
 17 14  1  0  0  0  0
 18 21  1  0  0  0  0
 18 20  1  0  0  0  0
 19 18  1  0  0  0  0
 22 25  1  0  0  0  0
 22  3  1  0  0  0  0
 23 22  1  0  0  0  0
 24 22  1  0  0  0  0
 25 26  1  0  0  0  0
 27 25  1  0  0  0  0
 28 29  1  0  0  0  0
 28  1  1  0  0  0  0
 28 25  1  0  0  0  0
 30 28  1  0  0  0  0
 31 40  2  0  0  0  0
 31 32  1  0  0  0  0
 32 34  2  0  0  0  0
 33 32  1  0  0  0  0
 34 36  1  0  0  0  0
 34 35  1  0  0  0  0
 36 37  1  0  0  0  0
 38 39  1  0  0  0  0
 38 36  2  0  0  0  0
 40 38  1  0  0  0  0
 41 40  1  0  0  0  0
M  END
