2
q = -1.0, confidence = 0.034

 15 15  0  0  0  0  0  0  0  0999 V2000
    2.3546   -2.2318   -0.0014 S   0  0  0  0  0  0  0  0  0  0  0  0
    1.0325   -1.1695   -0.0010 C   0  0  0  0  0  1  0  0  0  0  0  0
    3.8395   -1.2363   -0.0007 C   0  0  0  0  0  0  0  0  0  0  0  0
    3.8331    0.1726   -0.0011 C   0  0  0  0  0  0  0  0  0  0  0  0
    5.0461    0.8669   -0.0006 C   0  0  0  0  0  0  0  0  0  0  0  0
    6.2491    0.1474    0.0003 C   0  0  0  0  0  0  0  0  0  0  0  0
    6.2705   -1.2553    0.0007 C   0  0  0  0  0  0  0  0  0  0  0  0
    5.0592   -1.9499    0.0003 C   0  0  0  0  0  0  0  0  0  0  0  0
    7.5304    0.8850    0.0008 N   0  0  0  0  0  0  0  0  0  0  0  0
    8.5676    0.2195    0.0016 O   0  0  0  0  0  0  0  0  0  0  0  0
    7.4770    2.1157    0.0004 O   0  0  0  0  0  0  0  0  0  0  0  0
    2.8807    0.7177   -0.0019 H   0  0  0  0  0  0  0  0  0  0  0  0
    5.0824    1.9644   -0.0010 H   0  0  0  0  0  0  0  0  0  0  0  0
    7.2389   -1.7729    0.0015 H   0  0  0  0  0  0  0  0  0  0  0  0
    5.0549   -3.0506    0.0007 H   0  0  0  0  0  0  0  0  0  0  0  0
  1  2  1  0  0  0  0
  1  3  1  0  0  0  0
  3  8  1  0  0  0  0
  4  3  2  0  0  0  0
  4  5  1  0  0  0  0
  5  6  2  0  0  0  0
  6  7  1  0  0  0  0
  6  9  1  0  0  0  0
  7 14  1  0  0  0  0
  8 15  1  0  0  0  0
  8  7  2  0  0  0  0
  9 10  2  0  0  0  0
 11  9  2  0  0  0  0
 12  4  1  0  0  0  0
 13  5  1  0  0  0  0
M  END
