3
q = 0.0, confidence = 0.95

 14 14  0  0  0  0  0  0  0  0999 V2000
   -4.7047    0.4261    1.3339 C   0  0  0  0  0  0  0  0  0  0  0  0
   -4.7958    0.8576    2.3431 H   0  0  0  0  0  0  0  0  0  0  0  0
   -0.9333    0.5903   -0.9442 C   0  0  0  0  0  1  0  0  0  0  0  0
   -3.3600    0.0366   -0.6781 C   0  0  0  0  0  0  0  0  0  0  0  0
   -4.4659   -0.6441   -1.2418 C   0  0  0  0  0  0  0  0  0  0  0  0
   -4.3738   -1.0656   -2.2556 H   0  0  0  0  0  0  0  0  0  0  0  0
   -2.1061    0.1641   -1.4346 C   0  0  0  0  0  3  0  0  0  0  0  0
   -2.1349   -0.1217   -2.5047 H   0  0  0  0  0  0  0  0  0  0  0  0
   -5.6640   -0.7915   -0.5296 C   0  0  0  0  0  0  0  0  0  0  0  0
   -6.5086   -1.3266   -0.9913 H   0  0  0  0  0  0  0  0  0  0  0  0
   -5.7912   -0.2622    0.7647 C   0  0  0  0  0  0  0  0  0  0  0  0
   -6.7322   -0.3771    1.3236 H   0  0  0  0  0  0  0  0  0  0  0  0
   -3.5088    0.5794    0.6241 C   0  0  0  0  0  0  0  0  0  0  0  0
   -2.6667    1.1377    1.0623 H   0  0  0  0  0  0  0  0  0  0  0  0
  1  2  1  0  0  0  0
  4 13  1  0  0  0  0
  5  4  2  0  0  0  0
  5  9  1  0  0  0  0
  6  5  1  0  0  0  0
  7  3  1  0  0  0  0
  7  4  1  0  0  0  0
  8  7  1  0  0  0  0
  9 11  2  0  0  0  0
 10  9  1  0  0  0  0
 11 12  1  0  0  0  0
 11  1  1  0  0  0  0
 13 14  1  0  0  0  0
 13  1  2  0  0  0  0
M  END
