4
q = -1.0, confidence = 0.0

 41 43  0  0  0  0  0  0  0  0999 V2000
    1.2397   -0.0837    0.3545 As  0  0  0  0  0  0  0  0  0  0  0  0
   -1.7382    0.6467    0.0118 As  0  0  1  0  0  0  0  0  0  0  0  0
   -0.3777    0.5016    1.3829 C   0  0  0  0  0  0  0  0  0  0  0  0
   -0.9605    1.6371   -1.4144 C   0  0  0  0  0  3  0  0  0  0  0  0
    2.6391    0.3066    1.6731 C   0  0  0  0  0  0  0  0  0  0  0  0
    3.9718    0.3227    1.2159 C   0  0  0  0  0  0  0  0  0  0  0  0
    5.0186    0.5851    2.1126 C   0  0  0  0  0  0  0  0  0  0  0  0
    4.7452    0.8404    3.4659 C   0  0  0  0  0  0  0  0  0  0  0  0
    3.4186    0.8328    3.9229 C   0  0  0  0  0  0  0  0  0  0  0  0
    2.3677    0.5663    3.0302 C   0  0  0  0  0  0  0  0  0  0  0  0
    1.0659   -2.0317    0.6010 C   0  0  0  0  0  0  0  0  0  0  0  0
    1.0189   -2.6054    1.8861 C   0  0  0  0  0  0  0  0  0  0  0  0
    0.8364   -3.9888    2.0325 C   0  0  0  0  0  0  0  0  0  0  0  0
    0.7120   -4.8062    0.8961 C   0  0  0  0  0  0  0  0  0  0  0  0
    0.7764   -4.2371   -0.3846 C   0  0  0  0  0  0  0  0  0  0  0  0
    0.9543   -2.8520   -0.5342 C   0  0  0  0  0  0  0  0  0  0  0  0
   -2.1728   -1.1644   -0.4914 C   0  0  0  0  0  0  0  0  0  0  0  0
   -2.3283   -2.1496    0.5044 C   0  0  0  0  0  0  0  0  0  0  0  0
   -2.6125   -3.4709    0.1354 C   0  0  0  0  0  0  0  0  0  0  0  0
   -2.7390   -3.8096   -1.2220 C   0  0  0  0  0  0  0  0  0  0  0  0
   -2.5879   -2.8266   -2.2114 C   0  0  0  0  0  0  0  0  0  0  0  0
   -2.3089   -1.4999   -1.8494 C   0  0  0  0  0  0  0  0  0  0  0  0
    4.1981    0.1416    0.1546 H   0  0  0  0  0  0  0  0  0  0  0  0
    6.0562    0.5980    1.7459 H   0  0  0  0  0  0  0  0  0  0  0  0
    5.5681    1.0519    4.1654 H   0  0  0  0  0  0  0  0  0  0  0  0
    3.1969    1.0392    4.9813 H   0  0  0  0  0  0  0  0  0  0  0  0
    1.3331    0.5700    3.4056 H   0  0  0  0  0  0  0  0  0  0  0  0
    1.1397   -1.9743    2.7810 H   0  0  0  0  0  0  0  0  0  0  0  0
    0.8009   -4.4329    3.0394 H   0  0  0  0  0  0  0  0  0  0  0  0
    0.5724   -5.8920    1.0119 H   0  0  0  0  0  0  0  0  0  0  0  0
    0.6845   -4.8723   -1.2786 H   0  0  0  0  0  0  0  0  0  0  0  0
    0.9918   -2.4099   -1.5392 H   0  0  0  0  0  0  0  0  0  0  0  0
   -2.2120   -1.8972    1.5690 H   0  0  0  0  0  0  0  0  0  0  0  0
   -2.7163   -4.2427    0.9120 H   0  0  0  0  0  0  0  0  0  0  0  0
   -2.9485   -4.8510   -1.5097 H   0  0  0  0  0  0  0  0  0  0  0  0
   -2.6723   -3.0903   -3.2759 H   0  0  0  0  0  0  0  0  0  0  0  0
   -2.1715   -0.7397   -2.6305 H   0  0  0  0  0  0  0  0  0  0  0  0
   -0.1955    1.5203    1.7796 H   0  0  0  0  0  0  0  0  0  0  0  0
   -0.6910   -0.1753    2.1996 H   0  0  0  0  0  0  0  0  0  0  0  0
   -1.6063    1.4632   -2.2997 H   0  0  0  0  0  0  0  0  0  0  0  0
   -1.0871    2.7011   -1.1237 H   0  0  0  0  0  0  0  0  0  0  0  0
  1 11  1  0  0  0  0
  1  3  1  0  0  0  0
  1  5  1  0  0  0  0
  2  4  1  6  0  0  0
  2  3  1  0  0  0  0
  3 38  1  0  0  0  0
  3 39  1  0  0  0  0
  4 41  1  0  0  0  0
  5 10  1  0  0  0  0
  6  5  2  0  0  0  0
  6  7  1  0  0  0  0
  7  8  2  0  0  0  0
  8  9  1  0  0  0  0
  8 25  1  0  0  0  0
  9 26  1  0  0  0  0
 10 27  1  0  0  0  0
 10  9  2  0  0  0  0
 11 12  1  0  0  0  0
 12 13  2  0  0  0  0
 12 28  1  0  0  0  0
 13 29  1  0  0  0  0
 14 30  1  0  0  0  0
 14 13  1  0  0  0  0
 15 14  2  0  0  0  0
 16 15  1  0  0  0  0
 16 11  2  0  0  0  0
 17  2  1  0  0  0  0
 17 18  1  0  0  0  0
 18 33  1  0  0  0  0
 19 18  2  0  0  0  0
 19 34  1  0  0  0  0
 20 19  1  0  0  0  0
 21 22  1  0  0  0  0
 21 20  2  0  0  0  0
 22 17  2  0  0  0  0
 23  6  1  0  0  0  0
 24  7  1  0  0  0  0
 31 15  1  0  0  0  0
 32 16  1  0  0  0  0
 35 20  1  0  0  0  0
 36 21  1  0  0  0  0
 37 22  1  0  0  0  0
 40  4  1  0  0  0  0
M  END
