3
q = -1.0, confidence = 0.036

 50 51  0  0  1  0  0  0  0  0999 V2000
   -2.8643    0.1413   -0.2675 Si  0  0  0  0  0  0  0  0  0  0  0  0
   -1.4650    1.3781   -0.6025 C   0  0  2  0  0  3  0  0  0  0  0  0
   -0.4931    1.2426   -1.6954 C   0  0  1  0  0  3  0  0  0  0  0  0
    0.7015    1.9737   -1.3061 C   0  0  2  0  0  3  0  0  0  0  0  0
    0.4920    2.5153   -0.0108 C   0  0  0  0  0  0  0  0  0  0  0  0
   -0.8158    2.1492    0.4326 C   0  0  0  0  0  0  0  0  0  0  0  0
   -1.7107   -1.2052    0.4191 C   0  0  0  0  0  0  0  0  0  0  0  0
   -0.9851   -2.1472   -0.4041 C   0  0  0  0  0  0  0  0  0  0  0  0
    0.2336   -2.4922    0.2635 C   0  0  0  0  0  0  0  0  0  0  0  0
    0.2707   -1.8046    1.5149 C   0  0  0  0  0  0  0  0  0  0  0  0
   -0.9058   -0.9989    1.6194 C   0  0  2  0  0  3  0  0  0  0  0  0
   -0.3105   -0.0251   -2.3629 C   0  0  0  0  0  3  0  0  0  0  0  0
    0.5800   -0.1290   -3.0068 H   0  0  0  0  0  0  0  0  0  0  0  0
   -1.1789   -0.5917   -2.7212 H   0  0  0  0  0  0  0  0  0  0  0  0
    1.9486    2.1453   -2.1174 C   0  0  0  0  0  0  0  0  0  0  0  0
    2.0259    3.1921   -2.4830 H   0  0  0  0  0  0  0  0  0  0  0  0
    1.9563    1.4857   -3.0048 H   0  0  0  0  0  0  0  0  0  0  0  0
    2.8595    1.9245   -1.5246 H   0  0  0  0  0  0  0  0  0  0  0  0
    1.4368    3.4167    0.7182 C   0  0  0  0  0  0  0  0  0  0  0  0
    2.4876    3.2153    0.4369 H   0  0  0  0  0  0  0  0  0  0  0  0
    1.3482    3.3120    1.8174 H   0  0  0  0  0  0  0  0  0  0  0  0
    1.2196    4.4809    0.4759 H   0  0  0  0  0  0  0  0  0  0  0  0
   -1.4370    2.7586    1.6563 C   0  0  0  0  0  0  0  0  0  0  0  0
   -0.8084    2.6321    2.5597 H   0  0  0  0  0  0  0  0  0  0  0  0
   -2.4387    2.3525    1.8727 H   0  0  0  0  0  0  0  0  0  0  0  0
   -1.5573    3.8535    1.5032 H   0  0  0  0  0  0  0  0  0  0  0  0
   -1.4802   -2.8601   -1.6285 C   0  0  0  0  0  0  0  0  0  0  0  0
   -0.6898   -2.9827   -2.3944 H   0  0  0  0  0  0  0  0  0  0  0  0
   -2.3379   -2.3488   -2.0973 H   0  0  0  0  0  0  0  0  0  0  0  0
   -1.8247   -3.8786   -1.3465 H   0  0  0  0  0  0  0  0  0  0  0  0
    1.2497   -3.4855   -0.2070 C   0  0  0  0  0  0  0  0  0  0  0  0
    2.2772   -3.1774    0.0686 H   0  0  0  0  0  0  0  0  0  0  0  0
    1.2217   -3.6173   -1.3059 H   0  0  0  0  0  0  0  0  0  0  0  0
    1.0629   -4.4827    0.2485 H   0  0  0  0  0  0  0  0  0  0  0  0
    1.3409   -1.9527    2.5497 C   0  0  0  0  0  0  0  0  0  0  0  0
    1.1558   -2.8504    3.1793 H   0  0  0  0  0  0  0  0  0  0  0  0
    1.3862   -1.0781    3.2263 H   0  0  0  0  0  0  0  0  0  0  0  0
    2.3390   -2.0633    2.0840 H   0  0  0  0  0  0  0  0  0  0  0  0
   -1.2911   -0.2906    2.8871 C   0  0  0  0  0  0  0  0  0  0  0  0
   -1.6217   -1.0304    3.6483 H   0  0  0  0  0  0  0  0  0  0  0  0
   -2.1214    0.4173    2.7429 H   0  0  0  0  0  0  0  0  0  0  0  0
   -0.4436    0.2708    3.3283 H   0  0  0  0  0  0  0  0  0  0  0  0
   -4.2120    0.7061    0.9395 C   0  0  0  0  0  0  0  0  0  0  0  0
   -5.0187   -0.0566    0.9235 H   0  0  0  0  0  0  0  0  0  0  0  0
   -4.6509    1.6652    0.5953 H   0  0  0  0  0  0  0  0  0  0  0  0
   -3.8968    0.8260    1.9916 H   0  0  0  0  0  0  0  0  0  0  0  0
   -3.8277   -0.2860   -1.8393 C   0  0  0  0  0  0  0  0  0  0  0  0
   -3.2006   -0.4382   -2.7367 H   0  0  0  0  0  0  0  0  0  0  0  0
   -4.5073    0.5653   -2.0535 H   0  0  0  0  0  0  0  0  0  0  0  0
   -4.4572   -1.1866   -1.6880 H   0  0  0  0  0  0  0  0  0  0  0  0
  1  7  1  0  0  0  0
  1 43  1  0  0  0  0
  2  1  1  1  0  0  0
  2  6  1  0  0  0  0
  3 12  1  1  0  0  0
  3  4  1  0  0  0  0
  3  2  1  0  0  0  0
  4 15  1  6  0  0  0
  4  5  1  0  0  0  0
  5  6  2  0  0  0  0
  5 19  1  0  0  0  0
  6 23  1  0  0  0  0
  7 11  1  0  0  0  0
  8  9  1  0  0  0  0
  8  7  2  0  0  0  0
  9 10  2  0  0  0  0
 10 11  1  0  0  0  0
 10 35  1  0  0  0  0
 11 39  1  1  0  0  0
 13 12  1  0  0  0  0
 14 12  1  0  0  0  0
 15 18  1  0  0  0  0
 16 15  1  0  0  0  0
 17 15  1  0  0  0  0
 19 21  1  0  0  0  0
 20 19  1  0  0  0  0
 22 19  1  0  0  0  0
 23 25  1  0  0  0  0
 23 24  1  0  0  0  0
 26 23  1  0  0  0  0
 27 30  1  0  0  0  0
 27  8  1  0  0  0  0
 28 27  1  0  0  0  0
 29 27  1  0  0  0  0
 31 32  1  0  0  0  0
 31 34  1  0  0  0  0
 31  9  1  0  0  0  0
 33 31  1  0  0  0  0
 35 36  1  0  0  0  0
 35 37  1  0  0  0  0
 38 35  1  0  0  0  0
 39 42  1  0  0  0  0
 39 40  1  0  0  0  0
 41 39  1  0  0  0  0
 43 46  1  0  0  0  0
 44 43  1  0  0  0  0
 45 43  1  0  0  0  0
 47 50  1  0  0  0  0
 47  1  1  0  0  0  0
 48 47  1  0  0  0  0
 49 47  1  0  0  0  0
M  END
