6
q = 0.0, confidence = 1.0

 43 47  0  0  1  0  0  0  0  0999 V2000
   -3.1558   -1.8528    0.1233 N   0  0  0  0  0  0  0  0  0  0  0  0
    2.7089    2.2943   -0.2566 O   0  0  0  0  0  0  0  0  0  0  0  0
    0.1755    2.1547    1.0273 O   0  0  0  0  0  0  0  0  0  0  0  0
   -1.3334    4.3383    0.7255 O   0  0  0  0  0  0  0  0  0  0  0  0
    0.9511   -0.5128   -2.0546 C   0  0  0  0  0  3  0  0  0  0  0  0
    2.0012    0.3662   -1.6595 C   0  0  0  0  0  3  0  0  0  0  0  0
    1.8296    1.3274   -0.6019 C   0  0  0  0  0  0  0  0  0  0  0  0
    0.5990    1.2718    0.0930 C   0  0  0  0  0  0  0  0  0  0  0  0
   -1.2758    1.9518    1.2036 C   0  0  1  0  0  0  0  0  0  0  0  0
   -1.9974    3.1189    0.4816 C   0  0  2  0  0  0  0  0  0  0  0  0
   -2.2271    2.8268   -0.9884 C   0  0  0  0  0  0  0  0  0  0  0  0
   -2.6218    1.6064   -1.4031 C   0  0  0  0  0  0  0  0  0  0  0  0
   -2.8088   -0.9421   -0.9701 C   0  0  2  0  0  0  0  0  0  0  0  0
   -1.5015   -1.3198   -1.7530 C   0  0  0  0  0  0  0  0  0  0  0  0
   -0.2752   -0.5573   -1.3188 C   0  0  0  0  0  0  0  0  0  0  0  0
   -0.3702    0.2804   -0.1898 C   0  0  0  0  0  0  0  0  0  0  0  0
   -1.6131    0.5439    0.6352 C   0  0  2  0  0  0  0  0  0  0  0  0
   -2.7771    0.4965   -0.3964 C   0  0  1  0  0  0  0  0  0  0  0  0
   -1.9109   -0.4745    1.7511 C   0  0  0  0  0  0  0  0  0  0  0  0
   -2.1677   -1.8727    1.1986 C   0  0  0  0  0  0  0  0  0  0  0  0
   -3.5360   -3.1822   -0.3085 C   0  0  0  0  0  0  0  0  0  0  0  0
    4.0335    2.2045   -0.7679 C   0  0  0  0  0  0  0  0  0  0  0  0
    1.1065   -1.1893   -2.9062 H   0  0  0  0  0  0  0  0  0  0  0  0
    2.9461    0.3441   -2.2169 H   0  0  0  0  0  0  0  0  0  0  0  0
   -1.4450    2.0246    2.2944 H   0  0  0  0  0  0  0  0  0  0  0  0
   -3.0004    3.2023    0.9651 H   0  0  0  0  0  0  0  0  0  0  0  0
   -2.1194    3.6798   -1.6772 H   0  0  0  0  0  0  0  0  0  0  0  0
   -2.8406    1.4105   -2.4662 H   0  0  0  0  0  0  0  0  0  0  0  0
   -3.6473   -0.9962   -1.6967 H   0  0  0  0  0  0  0  0  0  0  0  0
   -1.6436   -1.1186   -2.8356 H   0  0  0  0  0  0  0  0  0  0  0  0
   -1.3353   -2.4152   -1.6761 H   0  0  0  0  0  0  0  0  0  0  0  0
   -3.7381    0.6186    0.1537 H   0  0  0  0  0  0  0  0  0  0  0  0
   -2.8147   -0.1170    2.2902 H   0  0  0  0  0  0  0  0  0  0  0  0
   -1.0766   -0.5059    2.4775 H   0  0  0  0  0  0  0  0  0  0  0  0
   -1.1961   -2.3238    0.8732 H   0  0  0  0  0  0  0  0  0  0  0  0
   -2.5525   -2.5255    2.0097 H   0  0  0  0  0  0  0  0  0  0  0  0
   -3.9508   -3.7480    0.5509 H   0  0  0  0  0  0  0  0  0  0  0  0
   -2.6905   -3.7937   -0.7223 H   0  0  0  0  0  0  0  0  0  0  0  0
   -4.3232   -3.1187   -1.0877 H   0  0  0  0  0  0  0  0  0  0  0  0
    4.0606    2.3410   -1.8715 H   0  0  0  0  0  0  0  0  0  0  0  0
    4.5014    1.2322   -0.5027 H   0  0  0  0  0  0  0  0  0  0  0  0
    4.6020    3.0247   -0.2935 H   0  0  0  0  0  0  0  0  0  0  0  0
   -0.3795    4.1352    0.6325 H   0  0  0  0  0  0  0  0  0  0  0  0
  1 20  1  0  0  0  0
  3  9  1  0  0  0  0
  5  6  1  0  0  0  0
  5 15  1  0  0  0  0
  6  7  1  0  0  0  0
  7  2  1  0  0  0  0
  7  8  2  0  0  0  0
  8  3  1  0  0  0  0
  9 25  1  1  0  0  0
 10  4  1  0  0  0  0
 10 26  1  1  0  0  0
 10  9  1  0  0  0  0
 11 10  1  0  0  0  0
 12 11  2  0  0  0  0
 12 18  1  0  0  0  0
 13 29  1  6  0  0  0
 13 18  1  0  0  0  0
 13  1  1  0  0  0  0
 14 31  1  0  0  0  0
 14 15  1  0  0  0  0
 14 13  1  0  0  0  0
 15 16  2  0  0  0  0
 16  8  1  0  0  0  0
 17 16  1  6  0  0  0
 17  9  1  0  0  0  0
 17 19  1  0  0  0  0
 18 32  1  1  0  0  0
 18 17  1  0  0  0  0
 19 33  1  0  0  0  0
 19 34  1  0  0  0  0
 20 19  1  0  0  0  0
 20 36  1  0  0  0  0
 21  1  1  0  0  0  0
 21 37  1  0  0  0  0
 22 41  1  0  0  0  0
 22 42  1  0  0  0  0
 22  2  1  0  0  0  0
 23  5  1  0  0  0  0
 24  6  1  0  0  0  0
 27 11  1  0  0  0  0
 28 12  1  0  0  0  0
 30 14  1  0  0  0  0
 35 20  1  0  0  0  0
 38 21  1  0  0  0  0
 39 21  1  0  0  0  0
 40 22  1  0  0  0  0
 43  4  1  0  0  0  0
M  END
