5
q = -1.0, confidence = 0.0

 30 32  0  0  1  0  0  0  0  0999 V2000
   -6.0135    0.3549    0.2731 O   0  0  0  0  0  0  0  0  0  0  0  0
    1.7492    1.5176   -1.0079 C   0  0  0  0  0  0  0  0  0  0  0  0
   -1.9017    0.5659   -0.5475 C   0  0  0  0  0  0  0  0  0  0  0  0
   -4.6814    0.3538    0.0014 C   0  0  0  0  0  0  0  0  0  0  0  0
    0.2257    0.0400   -1.9587 C   0  0  0  0  0  3  0  0  0  0  0  0
   -0.2380   -0.6864   -2.6376 H   0  0  0  0  0  0  0  0  0  0  0  0
   -0.4648    0.6921   -0.8731 C   0  0  1  0  0  3  0  0  0  0  0  0
   -3.8997   -0.8079   -0.1738 C   0  0  0  0  0  0  0  0  0  0  0  0
   -4.3442   -1.8081   -0.0873 H   0  0  0  0  0  0  0  0  0  0  0  0
   -2.5287   -0.6912   -0.4389 C   0  0  0  0  0  0  0  0  0  0  0  0
   -1.9211   -1.6038   -0.5385 H   0  0  0  0  0  0  0  0  0  0  0  0
   -2.7014    1.7208   -0.3755 C   0  0  0  0  0  0  0  0  0  0  0  0
   -2.2450    2.7166   -0.4791 H   0  0  0  0  0  0  0  0  0  0  0  0
   -4.0663    1.6203   -0.1024 C   0  0  0  0  0  0  0  0  0  0  0  0
   -4.6909    2.5156    0.0295 H   0  0  0  0  0  0  0  0  0  0  0  0
    1.5854    0.4940   -2.0246 C   0  0  0  0  0  3  0  0  0  0  0  0
    2.3300    0.2018   -2.7732 H   0  0  0  0  0  0  0  0  0  0  0  0
    0.4887    1.6342   -0.2872 C   0  0  0  0  0  0  0  0  0  0  0  0
    0.3805    2.5533    0.8013 C   0  0  0  0  0  0  0  0  0  0  0  0
   -0.5610    2.6256    1.3640 H   0  0  0  0  0  0  0  0  0  0  0  0
    2.8577    2.3365   -0.6349 C   0  0  0  0  0  0  0  0  0  0  0  0
    3.8100    2.2493   -1.1781 H   0  0  0  0  0  0  0  0  0  0  0  0
    2.7001    3.2461    0.3991 C   0  0  0  0  0  0  0  0  0  0  0  0
    3.5422    3.8942    0.6842 H   0  0  0  0  0  0  0  0  0  0  0  0
    1.4710    3.3491    1.1165 C   0  0  0  0  0  0  0  0  0  0  0  0
    1.3940    4.0694    1.9446 H   0  0  0  0  0  0  0  0  0  0  0  0
   -6.6784   -0.8894    0.3882 C   0  0  0  0  0  0  0  0  0  0  0  0
   -6.6223   -1.4789   -0.5545 H   0  0  0  0  0  0  0  0  0  0  0  0
   -7.7379   -0.6593    0.6050 H   0  0  0  0  0  0  0  0  0  0  0  0
   -6.2654   -1.5055    1.2182 H   0  0  0  0  0  0  0  0  0  0  0  0
  1 27  1  0  0  0  0
  2 21  2  0  0  0  0
  2 18  1  0  0  0  0
  3 10  2  0  0  0  0
  3 12  1  0  0  0  0
  4  1  1  0  0  0  0
  5  7  1  0  0  0  0
  6  5  1  0  0  0  0
  7  3  1  6  0  0  0
  7 18  1  0  0  0  0
  8  9  1  0  0  0  0
  8  4  2  0  0  0  0
 10  8  1  0  0  0  0
 11 10  1  0  0  0  0
 12 14  2  0  0  0  0
 13 12  1  0  0  0  0
 14  4  1  0  0  0  0
 14 15  1  0  0  0  0
 16  5  1  0  0  0  0
 16  2  1  0  0  0  0
 17 16  1  0  0  0  0
 18 19  2  0  0  0  0
 19 25  1  0  0  0  0
 19 20  1  0  0  0  0
 21 23  1  0  0  0  0
 22 21  1  0  0  0  0
 23 24  1  0  0  0  0
 23 25  2  0  0  0  0
 25 26  1  0  0  0  0
 27 29  1  0  0  0  0
 27 30  1  0  0  0  0
 28 27  1  0  0  0  0
M  END
