1
q = 0.0, confidence = 0.996

 24 24  0  0  0  0  0  0  0  0999 V2000
   -1.6976    0.9172   -0.4472 C   0  0  0  0  0  2  0  0  0  0  0  0
   -2.2870    1.8167    0.4013 N   0  0  0  0  0  0  0  0  0  0  0  0
   -1.8937    1.4370   -1.6993 N   0  0  0  0  0  0  0  0  0  0  0  0
   -1.3633    0.8399   -2.9285 C   0  0  0  0  0  0  0  0  0  0  0  0
   -0.7796   -0.0435   -2.5912 H   0  0  0  0  0  0  0  0  0  0  0  0
   -0.6475    1.5616   -3.3748 H   0  0  0  0  0  0  0  0  0  0  0  0
   -2.5831    2.6399   -1.6346 C   0  0  0  0  0  0  0  0  0  0  0  0
   -2.8367    3.2214   -2.5256 H   0  0  0  0  0  0  0  0  0  0  0  0
   -2.2928    1.6956    1.8745 C   0  0  0  0  0  0  0  0  0  0  0  0
   -1.7691    0.7314    2.0538 H   0  0  0  0  0  0  0  0  0  0  0  0
   -2.8313    2.8814   -0.3092 C   0  0  0  0  0  0  0  0  0  0  0  0
   -3.3490    3.7130    0.1767 H   0  0  0  0  0  0  0  0  0  0  0  0
   -2.4463    0.4412   -3.9236 C   0  0  0  0  0  0  0  0  0  0  0  0
   -1.9805   -0.0030   -4.8248 H   0  0  0  0  0  0  0  0  0  0  0  0
   -3.0462    1.3119   -4.2562 H   0  0  0  0  0  0  0  0  0  0  0  0
   -3.1397   -0.3070   -3.4909 H   0  0  0  0  0  0  0  0  0  0  0  0
   -3.7236    1.6107    2.4087 C   0  0  0  0  0  0  0  0  0  0  0  0
   -4.2765    2.5585    2.2472 H   0  0  0  0  0  0  0  0  0  0  0  0
   -3.7083    1.4180    3.4990 H   0  0  0  0  0  0  0  0  0  0  0  0
   -4.2934    0.7955    1.9210 H   0  0  0  0  0  0  0  0  0  0  0  0
   -1.4889    2.8281    2.5163 C   0  0  0  0  0  0  0  0  0  0  0  0
   -0.4469    2.8487    2.1428 H   0  0  0  0  0  0  0  0  0  0  0  0
   -1.4451    2.6825    3.6128 H   0  0  0  0  0  0  0  0  0  0  0  0
   -1.9560    3.8161    2.3270 H   0  0  0  0  0  0  0  0  0  0  0  0
  1  2  1  0  0  0  0
  2  9  1  0  0  0  0
  3  7  1  0  0  0  0
  3  1  1  0  0  0  0
  4  5  1  0  0  0  0
  4  3  1  0  0  0  0
  6  4  1  0  0  0  0
  7 11  2  0  0  0  0
  8  7  1  0  0  0  0
  9 10  1  0  0  0  0
  9 17  1  0  0  0  0
  9 21  1  0  0  0  0
 11 12  1  0  0  0  0
 11  2  1  0  0  0  0
 13 16  1  0  0  0  0
 13  4  1  0  0  0  0
 14 13  1  0  0  0  0
 15 13  1  0  0  0  0
 17 19  1  0  0  0  0
 18 17  1  0  0  0  0
 20 17  1  0  0  0  0
 21 23  1  0  0  0  0
 22 21  1  0  0  0  0
 24 21  1  0  0  0  0
M  END
