7
q = 0.0, confidence = 0.614

 50 57  0  0  1  0  0  0  0  0999 V2000
    1.7026    0.1426   -0.1618 P   0  0  0  0  0  0  0  0  0  0  0  0
   -2.1467    1.1613   -1.3876 C   0  0  2  0  0  0  0  0  0  0  0  0
   -2.5070    0.0234   -0.1813 C   0  0  1  0  0  0  0  0  0  0  0  0
   -0.6573    1.5154   -1.4584 C   0  0  0  0  0  0  0  0  0  0  0  0
   -0.4254    1.8083   -2.5058 H   0  0  0  0  0  0  0  0  0  0  0  0
   -0.4858    2.4060   -0.8252 H   0  0  0  0  0  0  0  0  0  0  0  0
    0.1420    0.3197   -0.9817 C   0  0  0  0  0  3  0  0  0  0  0  0
    0.0598   -0.5190   -1.6962 H   0  0  0  0  0  0  0  0  0  0  0  0
    2.8729   -0.8398   -1.1863 C   0  0  0  0  0  0  0  0  0  0  0  0
    2.7722   -0.8606   -2.5912 C   0  0  0  0  0  0  0  0  0  0  0  0
    1.9898   -0.2680   -3.0905 H   0  0  0  0  0  0  0  0  0  0  0  0
    3.6636   -1.6365   -3.3477 C   0  0  0  0  0  0  0  0  0  0  0  0
    3.5798   -1.6496   -4.4450 H   0  0  0  0  0  0  0  0  0  0  0  0
    4.6602   -2.3917   -2.7084 C   0  0  0  0  0  0  0  0  0  0  0  0
    5.3559   -3.0017   -3.3041 H   0  0  0  0  0  0  0  0  0  0  0  0
    4.7645   -2.3730   -1.3079 C   0  0  0  0  0  0  0  0  0  0  0  0
    5.5408   -2.9686   -0.8040 H   0  0  0  0  0  0  0  0  0  0  0  0
    3.8704   -1.6048   -0.5479 C   0  0  0  0  0  0  0  0  0  0  0  0
    3.9424   -1.6028    0.5516 H   0  0  0  0  0  0  0  0  0  0  0  0
    2.5967    1.7143    0.1473 C   0  0  0  0  0  0  0  0  0  0  0  0
    2.3686    2.8629   -0.6377 C   0  0  0  0  0  0  0  0  0  0  0  0
    1.6329    2.8358   -1.4528 H   0  0  0  0  0  0  0  0  0  0  0  0
    3.0952    4.0387   -0.3936 C   0  0  0  0  0  0  0  0  0  0  0  0
    2.9063    4.9315   -1.0087 H   0  0  0  0  0  0  0  0  0  0  0  0
    4.0632    4.0750    0.6219 C   0  0  0  0  0  0  0  0  0  0  0  0
    4.6305    4.9987    0.8104 H   0  0  0  0  0  0  0  0  0  0  0  0
    4.3111    2.9276    1.3928 C   0  0  0  0  0  0  0  0  0  0  0  0
    5.0766    2.9468    2.1831 H   0  0  0  0  0  0  0  0  0  0  0  0
    3.5792    1.7549    1.1602 C   0  0  0  0  0  0  0  0  0  0  0  0
    3.7818    0.8564    1.7651 H   0  0  0  0  0  0  0  0  0  0  0  0
   -2.9569    1.6832    0.0041 B   0  0  2  0  0  0  0  0  0  0  0  0
   -2.3682    2.4016    0.7656 H   0  0  0  0  0  0  0  0  0  0  0  0
   -3.3798    2.3209   -1.5988 B   0  0  2  0  0  0  0  0  0  0  0  0
   -3.0377    3.4496   -1.8625 H   0  0  0  0  0  0  0  0  0  0  0  0
   -3.1538    1.0111   -2.7658 B   0  0  0  0  0  0  0  0  0  0  0  0
   -2.6513    1.2281   -3.8431 H   0  0  0  0  0  0  0  0  0  0  0  0
   -2.5875   -0.4070   -1.8583 B   0  0  2  0  0  0  0  0  0  0  0  0
   -1.7626   -1.1348   -2.3468 H   0  0  0  0  0  0  0  0  0  0  0  0
   -4.0814    0.3946    0.4205 B   0  0  1  0  0  0  0  0  0  0  0  0
   -4.3186    0.1566    1.5819 H   0  0  0  0  0  0  0  0  0  0  0  0
   -4.6619    1.8384   -0.4579 B   0  0  0  0  0  0  0  0  0  0  0  0
   -5.3582    2.6658    0.0846 H   0  0  0  0  0  0  0  0  0  0  0  0
   -4.7902    1.4083   -2.1903 B   0  0  0  0  0  0  0  0  0  0  0  0
   -5.5997    1.9251   -2.9264 H   0  0  0  0  0  0  0  0  0  0  0  0
   -4.2849   -0.2997   -2.3610 B   0  0  1  0  0  0  0  0  0  0  0  0
   -4.7051   -1.0492   -3.2128 H   0  0  0  0  0  0  0  0  0  0  0  0
   -3.8528   -0.9044   -0.7373 B   0  0  2  0  0  0  0  0  0  0  0  0
   -3.9341   -2.0626   -0.4048 H   0  0  0  0  0  0  0  0  0  0  0  0
   -5.2282    0.2157   -0.9364 B   0  0  1  0  0  0  0  0  0  0  0  0
   -6.3638   -0.1559   -0.7448 H   0  0  0  0  0  0  0  0  0  0  0  0
  1 20  1  0  0  0  0
  2  4  1  6  0  0  0
  2  3  1  0  0  0  0
  2 31  1  0  0  0  0
  3 31  1  0  0  0  0
  3 39  1  0  0  0  0
  4  7  1  0  0  0  0
  4  6  1  0  0  0  0
  5  4  1  0  0  0  0
  7  1  1  0  0  0  0
  8  7  1  0  0  0  0
  9 18  1  0  0  0  0
  9  1  1  0  0  0  0
 10  9  2  0  0  0  0
 11 10  1  0  0  0  0
 12 14  2  0  0  0  0
 12 10  1  0  0  0  0
 13 12  1  0  0  0  0
 14 16  1  0  0  0  0
 15 14  1  0  0  0  0
 16 17  1  0  0  0  0
 16 18  2  0  0  0  0
 18 19  1  0  0  0  0
 20 29  1  0  0  0  0
 21 23  1  0  0  0  0
 21 20  2  0  0  0  0
 22 21  1  0  0  0  0
 23 25  2  0  0  0  0
 24 23  1  0  0  0  0
 25 26  1  0  0  0  0
 25 27  1  0  0  0  0
 27 28  1  0  0  0  0
 29 27  2  0  0  0  0
 29 30  1  0  0  0  0
 31 39  1  0  0  0  0
 31 32  1  0  0  0  0
 33 41  1  0  0  0  0
 34 33  1  0  0  0  0
 35 45  1  0  0  0  0
 35 33  1  0  0  0  0
 36 35  1  0  0  0  0
 37  2  1  0  0  0  0
 37 47  1  0  0  0  0
 38 37  1  0  0  0  0
 39 40  1  0  0  0  0
 41 42  1  0  0  0  0
 43 33  1  0  0  0  0
 43 49  1  0  0  0  0
 44 43  1  0  0  0  0
 45 37  1  0  0  0  0
 45 49  1  0  0  0  0
 46 45  1  0  0  0  0
 47 48  1  0  0  0  0
 47  3  1  0  0  0  0
 47 39  1  0  0  0  0
 49 50  1  0  0  0  0
 49 41  1  0  0  0  0
M  END
