5
q = -1.0, confidence = 0.0

 16 16  0  0  1  0  0  0  0  0999 V2000
    2.0688   -0.2525   -0.0705 C   0  0  1  0  0  3  0  0  0  0  0  0
    2.1761    0.9309   -0.8928 C   0  0  0  0  0  0  0  0  0  0  0  0
    1.3055    0.8123   -2.0065 C   0  0  0  0  0  0  0  0  0  0  0  0
    0.6027   -0.4281   -1.9113 C   0  0  0  0  0  3  0  0  0  0  0  0
    1.1206   -1.1096   -0.7468 C   0  0  0  0  0  3  0  0  0  0  0  0
    2.9445   -0.5917    1.0990 C   0  0  0  0  0  0  0  0  0  0  0  0
    4.3642   -0.9957    0.7220 C   0  0  0  0  0  0  0  0  0  0  0  0
    4.4549   -2.8513   -0.4423 I   0  0  0  0  0  0  0  0  0  0  0  0
    2.8077    1.7988   -0.6779 H   0  0  0  0  0  0  0  0  0  0  0  0
    1.1536    1.5750   -2.7761 H   0  0  0  0  0  0  0  0  0  0  0  0
   -0.1142   -0.8178   -2.6424 H   0  0  0  0  0  0  0  0  0  0  0  0
    0.9219   -2.1474   -0.4688 H   0  0  0  0  0  0  0  0  0  0  0  0
    2.4725   -1.3883    1.7090 H   0  0  0  0  0  0  0  0  0  0  0  0
    3.0167    0.3117    1.7487 H   0  0  0  0  0  0  0  0  0  0  0  0
    4.9888   -1.1935    1.6119 H   0  0  0  0  0  0  0  0  0  0  0  0
    4.8611   -0.2423    0.0832 H   0  0  0  0  0  0  0  0  0  0  0  0
  1  6  1  6  0  0  0
  2  9  1  0  0  0  0
  2  1  1  0  0  0  0
  3  4  1  0  0  0  0
  3  2  2  0  0  0  0
  4  5  1  0  0  0  0
  5 12  1  0  0  0  0
  5  1  1  0  0  0  0
  6 13  1  0  0  0  0
  6 14  1  0  0  0  0
  7  6  1  0  0  0  0
  7 15  1  0  0  0  0
  8  7  1  0  0  0  0
 10  3  1  0  0  0  0
 11  4  1  0  0  0  0
 16  7  1  0  0  0  0
M  END
