2
q = 0.0, confidence = 0.948

  7  6  0  0  0  0  0  0  0  0999 V2000
    0.6413    1.4197   -0.3308 C   0  0  0  0  0  0  0  0  0  0  0  0
    1.2718    0.1970   -0.0809 C   0  0  0  0  0  0  0  0  0  0  0  0
    2.4577   -0.4001   -0.0906 C   0  0  0  0  0  0  0  0  0  0  0  0
    0.7940    2.4812    0.4962 F   0  0  0  0  0  0  0  0  0  0  0  0
    0.5530    1.9105   -1.5987 F   0  0  0  0  0  0  0  0  0  0  0  0
    3.6159    0.1875   -0.3798 F   0  0  0  0  0  0  0  0  0  0  0  0
    2.6591   -1.6885    0.1850 F   0  0  0  0  0  0  0  0  0  0  0  0
  1  2  1  0  0  0  0
  1  4  1  0  0  0  0
  3  2  2  0  0  0  0
  3  7  1  0  0  0  0
  5  1  1  0  0  0  0
  6  3  1  0  0  0  0
M  END
