2
q = -1.0, confidence = 0.316

  3  2  0  0  0  0  0  0  0  0999 V2000
   -1.2567   -2.3992    3.5693 O   0  0  0  0  0  0  0  0  0  0  0  0
   -0.7889   -1.7444    2.7038 C   0  0  0  0  0  3  0  0  0  0  0  0
   -1.5520   -0.8173    1.9850 H   0  0  0  0  0  0  0  0  0  0  0  0
  2  1  2  0  0  0  0
  3  2  1  0  0  0  0
M  END
