2
q = -1.0, confidence = 0.012

 54 55  0  0  1  0  0  0  0  0999 V2000
   -0.1675   -0.5482    1.2008 C   0  0  0  0  0  0  0  0  0  0  0  0
   -1.0728    0.4023    1.8074 C   0  0  0  0  0  3  0  0  0  0  0  0
   -0.8981    1.4787    1.8977 H   0  0  0  0  0  0  0  0  0  0  0  0
   -2.2150   -0.3189    2.2960 C   0  0  0  0  0  0  0  0  0  0  0  0
   -3.0703    0.1161    2.8264 H   0  0  0  0  0  0  0  0  0  0  0  0
   -2.0327   -1.7084    1.9991 C   0  0  0  0  0  0  0  0  0  0  0  0
   -2.7328   -2.5180    2.2369 H   0  0  0  0  0  0  0  0  0  0  0  0
   -0.7948   -1.8473    1.3100 C   0  0  0  0  0  0  0  0  0  0  0  0
   -0.3799   -2.7732    0.9004 H   0  0  0  0  0  0  0  0  0  0  0  0
    1.0600   -0.2306    0.4622 C   0  0  2  0  0  3  0  0  0  0  0  0
    1.1052    1.0440   -0.0049 O   0  0  0  0  0  0  0  0  0  0  0  0
    2.0385   -1.1571    0.1331 C   0  0  0  0  0  0  0  0  0  0  0  0
    2.8715   -1.0957   -1.0877 C   0  0  0  0  0  0  0  0  0  0  0  0
    2.6612   -0.1586   -2.2412 C   0  0  0  0  0  0  0  0  0  0  0  0
    3.1173    0.8404   -2.0867 H   0  0  0  0  0  0  0  0  0  0  0  0
    1.5839    0.0241   -2.4273 H   0  0  0  0  0  0  0  0  0  0  0  0
    3.0974   -0.5733   -3.1712 H   0  0  0  0  0  0  0  0  0  0  0  0
    3.6845   -2.2146   -1.0692 C   0  0  0  0  0  0  0  0  0  0  0  0
    4.6372   -2.6763   -2.1261 C   0  0  0  0  0  0  0  0  0  0  0  0
    4.3879   -3.6981   -2.4870 H   0  0  0  0  0  0  0  0  0  0  0  0
    5.6780   -2.7333   -1.7379 H   0  0  0  0  0  0  0  0  0  0  0  0
    4.6495   -2.0015   -3.0032 H   0  0  0  0  0  0  0  0  0  0  0  0
    3.4477   -2.9646    0.1772 C   0  0  0  0  0  0  0  0  0  0  0  0
    4.2451   -4.1665    0.5726 C   0  0  0  0  0  0  0  0  0  0  0  0
    5.3367   -3.9552    0.5721 H   0  0  0  0  0  0  0  0  0  0  0  0
    4.0962   -5.0048   -0.1435 H   0  0  0  0  0  0  0  0  0  0  0  0
    3.9703   -4.5411    1.5773 H   0  0  0  0  0  0  0  0  0  0  0  0
    2.4288   -2.3591    0.8928 C   0  0  1  0  0  3  0  0  0  0  0  0
    2.0178   -2.7131    2.2964 C   0  0  0  0  0  0  0  0  0  0  0  0
    1.2406   -3.5066    2.3475 H   0  0  0  0  0  0  0  0  0  0  0  0
    1.6104   -1.8385    2.8403 H   0  0  0  0  0  0  0  0  0  0  0  0
    2.8834   -3.0873    2.8807 H   0  0  0  0  0  0  0  0  0  0  0  0
    2.1380    2.2799    0.6424 Si  0  0  0  0  0  0  0  0  0  0  0  0
    1.9741    2.2143    2.5214 C   0  0  0  0  0  0  0  0  0  0  0  0
    0.9553    2.4543    2.8822 H   0  0  0  0  0  0  0  0  0  0  0  0
    2.6788    2.9309    2.9905 H   0  0  0  0  0  0  0  0  0  0  0  0
    2.2373    1.2000    2.8873 H   0  0  0  0  0  0  0  0  0  0  0  0
    3.9465    1.9909    0.2074 C   0  0  0  0  0  0  0  0  0  0  0  0
    4.5896    2.5911    0.8831 H   0  0  0  0  0  0  0  0  0  0  0  0
    4.1879    2.2726   -0.8357 H   0  0  0  0  0  0  0  0  0  0  0  0
    4.2065    0.9209    0.3412 H   0  0  0  0  0  0  0  0  0  0  0  0
    1.4082    3.8603   -0.1355 C   0  0  0  0  0  0  0  0  0  0  0  0
   -0.0695    4.0041    0.2769 C   0  0  0  0  0  0  0  0  0  0  0  0
   -0.1889    4.0943    1.3771 H   0  0  0  0  0  0  0  0  0  0  0  0
   -0.6740    3.1406   -0.0670 H   0  0  0  0  0  0  0  0  0  0  0  0
   -0.5087    4.9206   -0.1748 H   0  0  0  0  0  0  0  0  0  0  0  0
    2.2201    5.0678    0.3726 C   0  0  0  0  0  0  0  0  0  0  0  0
    3.2913    4.9977    0.0897 H   0  0  0  0  0  0  0  0  0  0  0  0
    2.1669    5.1733    1.4767 H   0  0  0  0  0  0  0  0  0  0  0  0
    1.8257    6.0107   -0.0667 H   0  0  0  0  0  0  0  0  0  0  0  0
    1.5055    3.7640   -1.6706 C   0  0  0  0  0  0  0  0  0  0  0  0
    2.5550    3.6618   -2.0164 H   0  0  0  0  0  0  0  0  0  0  0  0
    1.0950    4.6865   -2.1378 H   0  0  0  0  0  0  0  0  0  0  0  0
    0.9284    2.9041   -2.0645 H   0  0  0  0  0  0  0  0  0  0  0  0
  1  8  2  0  0  0  0
  1  2  1  0  0  0  0
  2  3  1  0  0  0  0
  2  4  1  0  0  0  0
  4  5  1  0  0  0  0
  6  7  1  0  0  0  0
  6  4  2  0  0  0  0
  8  6  1  0  0  0  0
  9  8  1  0  0  0  0
 10 11  1  6  0  0  0
 10  1  1  0  0  0  0
 11 33  1  0  0  0  0
 12 10  1  0  0  0  0
 12 28  1  0  0  0  0
 13 18  1  0  0  0  0
 13 12  2  0  0  0  0
 14 15  1  0  0  0  0
 14 13  1  0  0  0  0
 16 14  1  0  0  0  0
 17 14  1  0  0  0  0
 18 23  2  0  0  0  0
 19 21  1  0  0  0  0
 19 18  1  0  0  0  0
 20 19  1  0  0  0  0
 22 19  1  0  0  0  0
 23 24  1  0  0  0  0
 23 28  1  0  0  0  0
 24 27  1  0  0  0  0
 25 24  1  0  0  0  0
 26 24  1  0  0  0  0
 28 29  1  1  0  0  0
 29 30  1  0  0  0  0
 29 31  1  0  0  0  0
 29 32  1  0  0  0  0
 33 34  1  0  0  0  0
 34 35  1  0  0  0  0
 34 37  1  0  0  0  0
 34 36  1  0  0  0  0
 38 41  1  0  0  0  0
 38 33  1  0  0  0  0
 38 39  1  0  0  0  0
 40 38  1  0  0  0  0
 42 43  1  0  0  0  0
 42 47  1  0  0  0  0
 42 33  1  0  0  0  0
 43 44  1  0  0  0  0
 45 43  1  0  0  0  0
 46 43  1  0  0  0  0
 47 49  1  0  0  0  0
 48 47  1  0  0  0  0
 50 47  1  0  0  0  0
 51 42  1  0  0  0  0
 52 51  1  0  0  0  0
 53 51  1  0  0  0  0
 54 51  1  0  0  0  0
M  END
