2
q = 0.0, confidence = 1.0

 22 22  0  0  0  0  0  0  0  0999 V2000
    1.5495   -1.2707    0.1556 N   0  0  0  0  0  2  0  0  0  0  0  0
    0.4290   -1.0009    0.4448 C   0  0  0  0  0  1  0  0  0  0  0  0
    2.9232   -1.2481    0.0477 C   0  0  0  0  0  0  0  0  0  0  0  0
    3.5634   -2.0783   -0.9043 C   0  0  0  0  0  0  0  0  0  0  0  0
    4.9607   -1.9900   -1.0102 C   0  0  0  0  0  0  0  0  0  0  0  0
    5.4756   -2.6257   -1.7482 H   0  0  0  0  0  0  0  0  0  0  0  0
    5.7167   -1.1218   -0.1996 C   0  0  0  0  0  0  0  0  0  0  0  0
    5.0389   -0.3273    0.7470 C   0  0  0  0  0  0  0  0  0  0  0  0
    5.6169    0.3487    1.3977 H   0  0  0  0  0  0  0  0  0  0  0  0
    3.6444   -0.3678    0.9024 C   0  0  0  0  0  0  0  0  0  0  0  0
    2.7563   -3.0201   -1.7563 C   0  0  0  0  0  0  0  0  0  0  0  0
    2.1626   -3.7172   -1.1291 H   0  0  0  0  0  0  0  0  0  0  0  0
    3.4080   -3.6193   -2.4193 H   0  0  0  0  0  0  0  0  0  0  0  0
    2.0287   -2.4719   -2.3895 H   0  0  0  0  0  0  0  0  0  0  0  0
    7.2189   -1.0643   -0.3114 C   0  0  0  0  0  0  0  0  0  0  0  0
    7.7001   -1.6145    0.5255 H   0  0  0  0  0  0  0  0  0  0  0  0
    7.5906   -0.0208   -0.2638 H   0  0  0  0  0  0  0  0  0  0  0  0
    7.5781   -1.5173   -1.2556 H   0  0  0  0  0  0  0  0  0  0  0  0
    2.9211    0.4795    1.9068 C   0  0  0  0  0  0  0  0  0  0  0  0
    2.2375   -0.1192    2.5470 H   0  0  0  0  0  0  0  0  0  0  0  0
    2.2665    1.2189    1.3980 H   0  0  0  0  0  0  0  0  0  0  0  0
    3.6322    1.0304    2.5499 H   0  0  0  0  0  0  0  0  0  0  0  0
  1  2  1  0  0  0  0
  3  1  1  0  0  0  0
  3 10  1  0  0  0  0
  4  3  2  0  0  0  0
  5  4  1  0  0  0  0
  5  7  2  0  0  0  0
  6  5  1  0  0  0  0
  7  8  1  0  0  0  0
  8 10  2  0  0  0  0
  8  9  1  0  0  0  0
 10 19  1  0  0  0  0
 11 12  1  0  0  0  0
 11  4  1  0  0  0  0
 13 11  1  0  0  0  0
 14 11  1  0  0  0  0
 15 17  1  0  0  0  0
 15  7  1  0  0  0  0
 15 16  1  0  0  0  0
 18 15  1  0  0  0  0
 19 20  1  0  0  0  0
 19 22  1  0  0  0  0
 21 19  1  0  0  0  0
M  END
