9
q = 0.0, confidence = 0.982

 47 49  0  0  1  0  0  0  0  0999 V2000
    0.0551   -0.2854    0.6324 C   0  0  1  0  0  3  0  0  0  0  0  0
    0.8361   -1.5024    0.4938 C   0  0  0  0  0  0  0  0  0  0  0  0
    1.8959   -1.6864    1.4300 C   0  0  0  0  0  0  0  0  0  0  0  0
    2.5498   -2.5629    1.3341 H   0  0  0  0  0  0  0  0  0  0  0  0
    2.1919   -0.7392    2.4600 C   0  0  0  0  0  0  0  0  0  0  0  0
    3.0561   -0.9030    3.1189 H   0  0  0  0  0  0  0  0  0  0  0  0
    1.3995    0.4197    2.6031 C   0  0  0  0  0  0  0  0  0  0  0  0
    1.6354    1.1718    3.3680 H   0  0  0  0  0  0  0  0  0  0  0  0
    0.3402    0.6482    1.6743 C   0  0  0  0  0  3  0  0  0  0  0  0
   -0.2251    1.5893    1.7270 H   0  0  0  0  0  0  0  0  0  0  0  0
   -1.2584    0.1380   -0.5855 P   0  0  0  0  0  0  0  0  0  0  0  0
   -1.0172   -0.4410   -1.9707 O   0  0  0  0  0  0  0  0  0  0  0  0
   -2.8270   -0.4332    0.1674 C   0  0  0  0  0  0  0  0  0  0  0  0
   -2.9940   -0.6476    1.5492 C   0  0  0  0  0  0  0  0  0  0  0  0
   -2.1528   -0.4845    2.2402 H   0  0  0  0  0  0  0  0  0  0  0  0
   -4.2316   -1.0882    2.0449 C   0  0  0  0  0  0  0  0  0  0  0  0
   -4.3592   -1.2601    3.1245 H   0  0  0  0  0  0  0  0  0  0  0  0
   -5.3007   -1.3173    1.1643 C   0  0  0  0  0  0  0  0  0  0  0  0
   -6.2690   -1.6657    1.5548 H   0  0  0  0  0  0  0  0  0  0  0  0
   -5.1332   -1.1109   -0.2154 C   0  0  0  0  0  0  0  0  0  0  0  0
   -5.9686   -1.2997   -0.9067 H   0  0  0  0  0  0  0  0  0  0  0  0
   -3.8995   -0.6730   -0.7156 C   0  0  0  0  0  0  0  0  0  0  0  0
   -3.7454   -0.5283   -1.7961 H   0  0  0  0  0  0  0  0  0  0  0  0
   -1.3380    1.9639   -0.5804 C   0  0  0  0  0  0  0  0  0  0  0  0
   -2.1428    2.6984    0.3130 C   0  0  0  0  0  0  0  0  0  0  0  0
   -2.7992    2.1730    1.0243 H   0  0  0  0  0  0  0  0  0  0  0  0
   -2.1118    4.1015    0.2874 C   0  0  0  0  0  0  0  0  0  0  0  0
   -2.7405    4.6761    0.9845 H   0  0  0  0  0  0  0  0  0  0  0  0
   -1.2834    4.7692   -0.6289 C   0  0  0  0  0  0  0  0  0  0  0  0
   -1.2553    5.8694   -0.6427 H   0  0  0  0  0  0  0  0  0  0  0  0
   -0.4972    4.0365   -1.5334 C   0  0  0  0  0  0  0  0  0  0  0  0
    0.1461    4.5601   -2.2562 H   0  0  0  0  0  0  0  0  0  0  0  0
   -0.5281    2.6354   -1.5185 C   0  0  0  0  0  0  0  0  0  0  0  0
    0.0695    2.0498   -2.2325 H   0  0  0  0  0  0  0  0  0  0  0  0
    0.5466   -2.9475   -0.7703 Si  0  0  0  0  0  0  0  0  0  0  0  0
   -1.2776   -3.4423   -0.7637 C   0  0  0  0  0  0  0  0  0  0  0  0
   -1.3757   -4.4571   -1.2026 H   0  0  0  0  0  0  0  0  0  0  0  0
   -1.8707   -2.7365   -1.3742 H   0  0  0  0  0  0  0  0  0  0  0  0
   -1.7022   -3.4710    0.2602 H   0  0  0  0  0  0  0  0  0  0  0  0
    1.1858   -2.6076   -2.5052 C   0  0  0  0  0  0  0  0  0  0  0  0
    1.0060   -3.5047   -3.1339 H   0  0  0  0  0  0  0  0  0  0  0  0
    2.2741   -2.4002   -2.5026 H   0  0  0  0  0  0  0  0  0  0  0  0
    0.6515   -1.7436   -2.9406 H   0  0  0  0  0  0  0  0  0  0  0  0
    1.5306   -4.4164   -0.0705 C   0  0  0  0  0  0  0  0  0  0  0  0
    1.3225   -5.3047   -0.7029 H   0  0  0  0  0  0  0  0  0  0  0  0
    1.2408   -4.6729    0.9690 H   0  0  0  0  0  0  0  0  0  0  0  0
    2.6275   -4.2521   -0.0995 H   0  0  0  0  0  0  0  0  0  0  0  0
  1 11  1  6  0  0  0
  1  9  1  0  0  0  0
  2  1  1  0  0  0  0
  2  3  2  0  0  0  0
  3  5  1  0  0  0  0
  4  3  1  0  0  0  0
  5  7  2  0  0  0  0
  5  6  1  0  0  0  0
  7  8  1  0  0  0  0
  9 10  1  0  0  0  0
  9  7  1  0  0  0  0
 11 24  1  0  0  0  0
 11 13  1  0  0  0  0
 12 11  2  0  0  0  0
 13 14  1  0  0  0  0
 14 16  2  0  0  0  0
 14 15  1  0  0  0  0
 16 17  1  0  0  0  0
 18 19  1  0  0  0  0
 18 16  1  0  0  0  0
 20 18  2  0  0  0  0
 21 20  1  0  0  0  0
 22 20  1  0  0  0  0
 22 13  2  0  0  0  0
 23 22  1  0  0  0  0
 24 25  1  0  0  0  0
 25 26  1  0  0  0  0
 27 25  2  0  0  0  0
 27 28  1  0  0  0  0
 29 27  1  0  0  0  0
 30 29  1  0  0  0  0
 31 33  1  0  0  0  0
 31 29  2  0  0  0  0
 32 31  1  0  0  0  0
 33 24  2  0  0  0  0
 34 33  1  0  0  0  0
 35 36  1  0  0  0  0
 35 44  1  0  0  0  0
 35  2  1  0  0  0  0
 36 39  1  0  0  0  0
 37 36  1  0  0  0  0
 38 36  1  0  0  0  0
 40 42  1  0  0  0  0
 40 35  1  0  0  0  0
 41 40  1  0  0  0  0
 43 40  1  0  0  0  0
 44 46  1  0  0  0  0
 45 44  1  0  0  0  0
 47 44  1  0  0  0  0
M  END
