4
q = 0.0, confidence = 1.0

 38 39  0  0  0  0  0  0  0  0999 V2000
   -0.7933    1.0033   -0.8049 N   0  0  0  0  0  0  0  0  0  0  0  0
    0.8671    2.0862    0.0869 N   0  0  0  0  0  0  0  0  0  0  0  0
   -4.1610    1.0052   -0.9011 O   0  0  0  0  0  0  0  0  0  0  0  0
    0.4786    0.8360   -0.3289 C   0  0  0  0  0  2  0  0  0  0  0  0
   -1.2063    2.3184   -0.6808 C   0  0  0  0  0  0  0  0  0  0  0  0
   -2.2080    2.6360   -0.9816 H   0  0  0  0  0  0  0  0  0  0  0  0
   -0.1589    3.0028   -0.1230 C   0  0  0  0  0  0  0  0  0  0  0  0
   -0.0735    4.0609    0.1276 H   0  0  0  0  0  0  0  0  0  0  0  0
   -1.6402   -0.0923   -1.2981 C   0  0  0  0  0  0  0  0  0  0  0  0
   -0.9493   -0.8879   -1.6348 H   0  0  0  0  0  0  0  0  0  0  0  0
   -2.2062    0.2894   -2.1684 H   0  0  0  0  0  0  0  0  0  0  0  0
   -2.5803   -0.6247   -0.2412 C   0  0  0  0  0  0  0  0  0  0  0  0
   -2.1992   -1.6882    0.5918 C   0  0  0  0  0  0  0  0  0  0  0  0
   -1.1994   -2.1323    0.4544 H   0  0  0  0  0  0  0  0  0  0  0  0
   -3.0627   -2.1777    1.5846 C   0  0  0  0  0  0  0  0  0  0  0  0
   -2.7469   -3.0127    2.2264 H   0  0  0  0  0  0  0  0  0  0  0  0
   -4.3268   -1.5951    1.7430 C   0  0  0  0  0  0  0  0  0  0  0  0
   -5.0166   -1.9699    2.5145 H   0  0  0  0  0  0  0  0  0  0  0  0
   -4.7335   -0.5287    0.9237 C   0  0  0  0  0  0  0  0  0  0  0  0
   -5.7282   -0.0860    1.0652 H   0  0  0  0  0  0  0  0  0  0  0  0
   -3.8595   -0.0372   -0.0644 C   0  0  0  0  0  0  0  0  0  0  0  0
   -5.4551    1.5768   -0.8291 C   0  0  0  0  0  0  0  0  0  0  0  0
   -6.2490    0.8246   -1.0324 H   0  0  0  0  0  0  0  0  0  0  0  0
   -5.4950    2.3616   -1.6072 H   0  0  0  0  0  0  0  0  0  0  0  0
   -5.6485    2.0408    0.1638 H   0  0  0  0  0  0  0  0  0  0  0  0
    2.2087    2.4074    0.6854 C   0  0  0  0  0  0  0  0  0  0  0  0
    2.3714    1.6045    1.9872 C   0  0  0  0  0  0  0  0  0  0  0  0
    1.5666    1.8554    2.7067 H   0  0  0  0  0  0  0  0  0  0  0  0
    3.3478    1.8419    2.4531 H   0  0  0  0  0  0  0  0  0  0  0  0
    2.3358    0.5148    1.7868 H   0  0  0  0  0  0  0  0  0  0  0  0
    3.3039    2.0482   -0.3329 C   0  0  0  0  0  0  0  0  0  0  0  0
    3.2854    0.9656   -0.5704 H   0  0  0  0  0  0  0  0  0  0  0  0
    4.2985    2.2956    0.0871 H   0  0  0  0  0  0  0  0  0  0  0  0
    3.1672    2.6168   -1.2743 H   0  0  0  0  0  0  0  0  0  0  0  0
    2.2790    3.9082    0.9997 C   0  0  0  0  0  0  0  0  0  0  0  0
    2.1711    4.5308    0.0892 H   0  0  0  0  0  0  0  0  0  0  0  0
    3.2725    4.1267    1.4350 H   0  0  0  0  0  0  0  0  0  0  0  0
    1.5169    4.2156    1.7433 H   0  0  0  0  0  0  0  0  0  0  0  0
  1  5  1  0  0  0  0
  1  4  1  0  0  0  0
  2 26  1  0  0  0  0
  3 22  1  0  0  0  0
  3 21  1  0  0  0  0
  4  2  1  0  0  0  0
  5  7  2  0  0  0  0
  6  5  1  0  0  0  0
  7  2  1  0  0  0  0
  7  8  1  0  0  0  0
  9  1  1  0  0  0  0
  9 12  1  0  0  0  0
 10  9  1  0  0  0  0
 11  9  1  0  0  0  0
 12 21  2  0  0  0  0
 12 13  1  0  0  0  0
 13 15  2  0  0  0  0
 14 13  1  0  0  0  0
 15 17  1  0  0  0  0
 15 16  1  0  0  0  0
 17 18  1  0  0  0  0
 19 20  1  0  0  0  0
 19 17  2  0  0  0  0
 21 19  1  0  0  0  0
 22 25  1  0  0  0  0
 23 22  1  0  0  0  0
 24 22  1  0  0  0  0
 26 35  1  0  0  0  0
 26 27  1  0  0  0  0
 27 29  1  0  0  0  0
 27 28  1  0  0  0  0
 30 27  1  0  0  0  0
 31 33  1  0  0  0  0
 31 26  1  0  0  0  0
 32 31  1  0  0  0  0
 34 31  1  0  0  0  0
 35 37  1  0  0  0  0
 35 38  1  0  0  0  0
 36 35  1  0  0  0  0
M  END
