3
q = 0.0, confidence = 0.978

 56 61  0  0  1  0  0  0  0  0999 V2000
    0.4071   -1.0024   -0.5987 N   0  0  0  0  0  0  0  0  0  0  0  0
    0.2474    1.1773   -0.6850 N   0  0  0  0  0  0  0  0  0  0  0  0
   -0.5073    0.0262   -0.6796 C   0  0  0  0  0  2  0  0  0  0  0  0
    1.6160    0.8867   -0.6244 C   0  0  0  0  0  0  0  0  0  0  0  0
    1.7221   -0.5069   -0.5570 C   0  0  0  0  0  0  0  0  0  0  0  0
    3.0038   -1.1695   -0.4502 C   0  0  0  0  0  0  0  0  0  0  0  0
    3.1862   -2.5566   -0.1960 C   0  0  0  0  0  0  0  0  0  0  0  0
    2.3213   -3.1944   -0.0007 H   0  0  0  0  0  0  0  0  0  0  0  0
    4.4515   -3.1311   -0.1454 C   0  0  0  0  0  0  0  0  0  0  0  0
    4.5493   -4.2078    0.0582 H   0  0  0  0  0  0  0  0  0  0  0  0
    5.5945   -2.3328   -0.3441 C   0  0  0  0  0  0  0  0  0  0  0  0
    6.5999   -2.7787   -0.3180 H   0  0  0  0  0  0  0  0  0  0  0  0
    5.4463   -0.9652   -0.5465 C   0  0  0  0  0  0  0  0  0  0  0  0
    6.3525   -0.3575   -0.6625 H   0  0  0  0  0  0  0  0  0  0  0  0
    4.1730   -0.3367   -0.5847 C   0  0  0  0  0  0  0  0  0  0  0  0
    4.0550    1.1190   -0.7022 C   0  0  0  0  0  0  0  0  0  0  0  0
    5.2051    1.9439   -0.8189 C   0  0  0  0  0  0  0  0  0  0  0  0
    6.1982    1.4817   -0.8839 H   0  0  0  0  0  0  0  0  0  0  0  0
    5.1232    3.3317   -0.8446 C   0  0  0  0  0  0  0  0  0  0  0  0
    6.0391    3.9344   -0.9358 H   0  0  0  0  0  0  0  0  0  0  0  0
    3.8657    3.9553   -0.7312 C   0  0  0  0  0  0  0  0  0  0  0  0
    3.7861    5.0523   -0.7136 H   0  0  0  0  0  0  0  0  0  0  0  0
    2.7130    3.1830   -0.6356 C   0  0  0  0  0  0  0  0  0  0  0  0
    1.7579    3.7007   -0.5208 H   0  0  0  0  0  0  0  0  0  0  0  0
    2.7661    1.7606   -0.6521 C   0  0  0  0  0  0  0  0  0  0  0  0
   -0.0134   -2.4125   -0.6009 C   0  0  2  0  0  0  0  0  0  0  0  0
   -1.1157   -2.3400   -0.7373 H   0  0  0  0  0  0  0  0  0  0  0  0
    0.2006   -3.0833    0.7476 C   0  0  0  0  0  0  0  0  0  0  0  0
    0.0187   -4.4764    0.8820 C   0  0  0  0  0  0  0  0  0  0  0  0
   -0.2094   -5.0848   -0.0051 H   0  0  0  0  0  0  0  0  0  0  0  0
    0.1180   -5.0995    2.1349 C   0  0  0  0  0  0  0  0  0  0  0  0
   -0.0296   -6.1875    2.2122 H   0  0  0  0  0  0  0  0  0  0  0  0
    0.4031   -4.3449    3.2834 C   0  0  0  0  0  0  0  0  0  0  0  0
    0.4849   -4.8350    4.2651 H   0  0  0  0  0  0  0  0  0  0  0  0
    0.5856   -2.9589    3.1642 C   0  0  0  0  0  0  0  0  0  0  0  0
    0.8153   -2.3532    4.0541 H   0  0  0  0  0  0  0  0  0  0  0  0
    0.4827   -2.3365    1.9116 C   0  0  0  0  0  0  0  0  0  0  0  0
    0.6401   -1.2507    1.8344 H   0  0  0  0  0  0  0  0  0  0  0  0
    0.4594   -3.1397   -1.8656 C   0  0  0  0  0  0  0  0  0  0  0  0
    0.0643   -2.5830   -2.7357 H   0  0  0  0  0  0  0  0  0  0  0  0
    0.0124   -4.1508   -1.9065 H   0  0  0  0  0  0  0  0  0  0  0  0
    1.5575   -3.2355   -1.9491 H   0  0  0  0  0  0  0  0  0  0  0  0
   -0.3358    2.5094   -0.6552 C   0  0  0  0  0  0  0  0  0  0  0  0
   -1.3720    2.4033   -1.0448 H   0  0  0  0  0  0  0  0  0  0  0  0
    0.1772    3.1379   -1.4092 H   0  0  0  0  0  0  0  0  0  0  0  0
   -0.3358    3.1627    0.7080 C   0  0  0  0  0  0  0  0  0  0  0  0
   -0.9396    4.4312    0.8422 C   0  0  0  0  0  0  0  0  0  0  0  0
   -1.3689    4.9207   -0.0466 H   0  0  0  0  0  0  0  0  0  0  0  0
   -1.0110    5.0623    2.0916 C   0  0  0  0  0  0  0  0  0  0  0  0
   -1.4895    6.0497    2.1776 H   0  0  0  0  0  0  0  0  0  0  0  0
   -0.4787    4.4360    3.2314 C   0  0  0  0  0  0  0  0  0  0  0  0
   -0.5361    4.9300    4.2129 H   0  0  0  0  0  0  0  0  0  0  0  0
    0.1300    3.1787    3.1067 C   0  0  0  0  0  0  0  0  0  0  0  0
    0.5579    2.6824    3.9910 H   0  0  0  0  0  0  0  0  0  0  0  0
    0.2030    2.5478    1.8542 C   0  0  0  0  0  0  0  0  0  0  0  0
    0.6932    1.5666    1.7671 H   0  0  0  0  0  0  0  0  0  0  0  0
  1  5  1  0  0  0  0
  2  3  1  0  0  0  0
  2 43  1  0  0  0  0
  2  4  1  0  0  0  0
  3  1  1  0  0  0  0
  4  5  1  0  0  0  0
  5  6  2  0  0  0  0
  6  7  1  0  0  0  0
  7  9  2  0  0  0  0
  7  8  1  0  0  0  0
  9 10  1  0  0  0  0
 11 12  1  0  0  0  0
 11  9  1  0  0  0  0
 13 11  2  0  0  0  0
 14 13  1  0  0  0  0
 15 13  1  0  0  0  0
 15  6  1  0  0  0  0
 16 25  1  0  0  0  0
 16 15  2  0  0  0  0
 17 16  1  0  0  0  0
 18 17  1  0  0  0  0
 19 17  2  0  0  0  0
 19 21  1  0  0  0  0
 20 19  1  0  0  0  0
 21 22  1  0  0  0  0
 21 23  2  0  0  0  0
 23 24  1  0  0  0  0
 25 23  1  0  0  0  0
 25  4  2  0  0  0  0
 26 27  1  6  0  0  0
 26  1  1  0  0  0  0
 26 28  1  0  0  0  0
 28 29  2  0  0  0  0
 28 37  1  0  0  0  0
 29 31  1  0  0  0  0
 30 29  1  0  0  0  0
 31 32  1  0  0  0  0
 31 33  2  0  0  0  0
 33 34  1  0  0  0  0
 35 33  1  0  0  0  0
 35 36  1  0  0  0  0
 37 35  2  0  0  0  0
 38 37  1  0  0  0  0
 39 26  1  0  0  0  0
 40 39  1  0  0  0  0
 41 39  1  0  0  0  0
 42 39  1  0  0  0  0
 43 46  1  0  0  0  0
 44 43  1  0  0  0  0
 45 43  1  0  0  0  0
 46 47  2  0  0  0  0
 46 55  1  0  0  0  0
 47 49  1  0  0  0  0
 48 47  1  0  0  0  0
 49 50  1  0  0  0  0
 49 51  2  0  0  0  0
 51 52  1  0  0  0  0
 53 51  1  0  0  0  0
 53 54  1  0  0  0  0
 55 53  2  0  0  0  0
 56 55  1  0  0  0  0
M  END
