1
q = 0.0, confidence = 0.996

 29 29  0  0  0  0  0  0  0  0999 V2000
   -0.3320    1.0129   -0.0000 C   0  0  0  0  0  3  0  0  0  0  0  0
   -1.0238    2.3496    0.0000 C   0  0  0  0  0  0  0  0  0  0  0  0
   -2.3668    2.5373    0.0000 C   0  0  0  0  0  3  0  0  0  0  0  0
   -0.6262    4.7266   -0.0000 C   0  0  0  0  0  0  0  0  0  0  0  0
    2.0786    0.2411    0.0000 C   0  0  0  0  0  0  0  0  0  0  0  0
    2.9322    0.3921    1.2702 C   0  0  0  0  0  0  0  0  0  0  0  0
    4.0847   -0.6198    1.2679 C   0  0  0  0  0  0  0  0  0  0  0  0
    4.9407   -0.5022    0.0000 C   0  0  0  0  0  0  0  0  0  0  0  0
    1.2915    2.1874    0.0000 H   0  0  0  0  0  0  0  0  0  0  0  0
    1.6286   -0.7667    0.0000 H   0  0  0  0  0  0  0  0  0  0  0  0
    3.3381    1.4289    1.3140 H   0  0  0  0  0  0  0  0  0  0  0  0
    2.2891    0.2544    2.1628 H   0  0  0  0  0  0  0  0  0  0  0  0
    4.7079   -0.4830    2.1756 H   0  0  0  0  0  0  0  0  0  0  0  0
    3.6572   -1.6447    1.3355 H   0  0  0  0  0  0  0  0  0  0  0  0
    5.4604    0.4827    0.0000 H   0  0  0  0  0  0  0  0  0  0  0  0
    5.7374   -1.2746    0.0000 H   0  0  0  0  0  0  0  0  0  0  0  0
   -2.8166    3.5381    0.0001 H   0  0  0  0  0  0  0  0  0  0  0  0
   -3.0452    1.6817    0.0001 H   0  0  0  0  0  0  0  0  0  0  0  0
    0.2569    5.3920   -0.0000 H   0  0  0  0  0  0  0  0  0  0  0  0
   -1.2410    4.9312    0.9045 H   0  0  0  0  0  0  0  0  0  0  0  0
    0.9835    1.1999    0.0000 N   0  0  0  0  0  0  0  0  0  0  0  0
   -0.1335    3.4003   -0.0000 O   0  0  0  0  0  0  0  0  0  0  0  0
    2.9322    0.3921   -1.2702 C   0  0  0  0  0  0  0  0  0  0  0  0
    4.0847   -0.6199   -1.2678 C   0  0  0  0  0  0  0  0  0  0  0  0
   -1.2410    4.9312   -0.9045 H   0  0  0  0  0  0  0  0  0  0  0  0
    3.3381    1.4289   -1.3140 H   0  0  0  0  0  0  0  0  0  0  0  0
    2.2891    0.2544   -2.1628 H   0  0  0  0  0  0  0  0  0  0  0  0
    4.7079   -0.4831   -2.1756 H   0  0  0  0  0  0  0  0  0  0  0  0
    3.6572   -1.6447   -1.3355 H   0  0  0  0  0  0  0  0  0  0  0  0
  1 21  1  0  0  0  0
  1  2  2  0  0  0  0
  2  3  1  0  0  0  0
  3 17  1  0  0  0  0
  3 18  1  0  0  0  0
  4 20  1  0  0  0  0
  5 10  1  0  0  0  0
  5  6  1  0  0  0  0
  6 11  1  0  0  0  0
  6 12  1  0  0  0  0
  7  6  1  0  0  0  0
  7 14  1  0  0  0  0
  7 13  1  0  0  0  0
  8 16  1  0  0  0  0
  8  7  1  0  0  0  0
 15  8  1  0  0  0  0
 19  4  1  0  0  0  0
 21  5  1  0  0  0  0
 21  9  1  0  0  0  0
 22  4  1  0  0  0  0
 22  2  1  0  0  0  0
 23 24  1  0  0  0  0
 23  5  1  0  0  0  0
 24  8  1  0  0  0  0
 25  4  1  0  0  0  0
 26 23  1  0  0  0  0
 27 23  1  0  0  0  0
 28 24  1  0  0  0  0
 29 24  1  0  0  0  0
M  END
