31
q = 0.0, confidence = 0.956

 66 65  0  0  0  0  0  0  0  0999 V2000
    2.3694   -0.0581   -0.2204 P   0  0  0  0  0  0  0  0  0  0  0  0
    3.1574    1.6822   -0.2742 C   0  0  0  0  0  0  0  0  0  0  0  0
    4.3706    1.7668   -1.2148 C   0  0  0  0  0  0  0  0  0  0  0  0
    5.2269    1.1633   -0.8635 H   0  0  0  0  0  0  0  0  0  0  0  0
    4.7103    2.8233   -1.2704 H   0  0  0  0  0  0  0  0  0  0  0  0
    4.1279    1.4500   -2.2491 H   0  0  0  0  0  0  0  0  0  0  0  0
    3.5436    2.1205    1.1491 C   0  0  0  0  0  0  0  0  0  0  0  0
    4.4241    1.5678    1.5308 H   0  0  0  0  0  0  0  0  0  0  0  0
    2.6965    1.9873    1.8516 H   0  0  0  0  0  0  0  0  0  0  0  0
    3.8145    3.1978    1.1338 H   0  0  0  0  0  0  0  0  0  0  0  0
    2.0459    2.6190   -0.7906 C   0  0  0  0  0  0  0  0  0  0  0  0
    1.7012    2.3464   -1.8087 H   0  0  0  0  0  0  0  0  0  0  0  0
    2.4448    3.6548   -0.8406 H   0  0  0  0  0  0  0  0  0  0  0  0
    1.1705    2.6063   -0.1125 H   0  0  0  0  0  0  0  0  0  0  0  0
    3.5028   -1.3594    0.5895 C   0  0  0  0  0  0  0  0  0  0  0  0
    2.8646   -2.7282    0.2918 C   0  0  0  0  0  0  0  0  0  0  0  0
    2.8744   -2.9805   -0.7872 H   0  0  0  0  0  0  0  0  0  0  0  0
    1.8182   -2.7680    0.6544 H   0  0  0  0  0  0  0  0  0  0  0  0
    3.4419   -3.5152    0.8209 H   0  0  0  0  0  0  0  0  0  0  0  0
    4.9491   -1.3390    0.0782 C   0  0  0  0  0  0  0  0  0  0  0  0
    5.0034   -1.4234   -1.0264 H   0  0  0  0  0  0  0  0  0  0  0  0
    5.5042   -2.2017    0.5059 H   0  0  0  0  0  0  0  0  0  0  0  0
    5.4864   -0.4212    0.3850 H   0  0  0  0  0  0  0  0  0  0  0  0
    3.4423   -1.1322    2.1134 C   0  0  0  0  0  0  0  0  0  0  0  0
    3.9853   -0.2227    2.4281 H   0  0  0  0  0  0  0  0  0  0  0  0
    3.9088   -1.9976    2.6303 H   0  0  0  0  0  0  0  0  0  0  0  0
    2.3937   -1.0371    2.4611 H   0  0  0  0  0  0  0  0  0  0  0  0
    2.0485   -0.4833   -2.0141 C   0  0  0  0  0  0  0  0  0  0  0  0
    2.4021    0.3229   -2.6841 H   0  0  0  0  0  0  0  0  0  0  0  0
    2.5182   -1.4310   -2.3511 H   0  0  0  0  0  0  0  0  0  0  0  0
    0.5204   -0.5465   -1.9324 C   0  0  0  0  0  3  0  0  0  0  0  0
   -0.0394    0.0553   -2.6708 H   0  0  0  0  0  0  0  0  0  0  0  0
   -0.0762   -1.7072   -1.3361 C   0  0  0  0  0  3  0  0  0  0  0  0
    0.5611   -2.5743   -1.0949 H   0  0  0  0  0  0  0  0  0  0  0  0
   -2.2327    0.0552   -0.1630 P   0  0  0  0  0  0  0  0  0  0  0  0
   -3.2690   -0.8164    1.1927 C   0  0  0  0  0  0  0  0  0  0  0  0
   -4.5748   -1.4243    0.6555 C   0  0  0  0  0  0  0  0  0  0  0  0
   -4.3806   -2.2491   -0.0577 H   0  0  0  0  0  0  0  0  0  0  0  0
   -5.2284   -0.6774    0.1645 H   0  0  0  0  0  0  0  0  0  0  0  0
   -5.1447   -1.8564    1.5058 H   0  0  0  0  0  0  0  0  0  0  0  0
   -3.5586    0.1677    2.3385 C   0  0  0  0  0  0  0  0  0  0  0  0
   -2.6345    0.6777    2.6766 H   0  0  0  0  0  0  0  0  0  0  0  0
   -3.9705   -0.4021    3.1986 H   0  0  0  0  0  0  0  0  0  0  0  0
   -4.3128    0.9286    2.0583 H   0  0  0  0  0  0  0  0  0  0  0  0
   -4.3858    1.7403   -1.0360 C   0  0  0  0  0  0  0  0  0  0  0  0
   -4.5804    1.0189   -1.8554 H   0  0  0  0  0  0  0  0  0  0  0  0
   -4.7008    2.7440   -1.3946 H   0  0  0  0  0  0  0  0  0  0  0  0
   -5.0384    1.4785   -0.1804 H   0  0  0  0  0  0  0  0  0  0  0  0
   -2.9041    1.7830   -0.6361 C   0  0  0  0  0  0  0  0  0  0  0  0
   -2.6730    2.7782    0.5162 C   0  0  0  0  0  0  0  0  0  0  0  0
   -1.6412    2.7073    0.9147 H   0  0  0  0  0  0  0  0  0  0  0  0
   -3.3696    2.6188    1.3579 H   0  0  0  0  0  0  0  0  0  0  0  0
   -2.8394    3.8087    0.1367 H   0  0  0  0  0  0  0  0  0  0  0  0
   -2.0444    2.2473   -1.8290 C   0  0  0  0  0  0  0  0  0  0  0  0
   -2.1988    1.6333   -2.7389 H   0  0  0  0  0  0  0  0  0  0  0  0
   -0.9666    2.2284   -1.5690 H   0  0  0  0  0  0  0  0  0  0  0  0
   -2.3239    3.2897   -2.0896 H   0  0  0  0  0  0  0  0  0  0  0  0
   -2.3667   -1.9459    1.7349 C   0  0  0  0  0  0  0  0  0  0  0  0
   -1.4221   -1.5376    2.1461 H   0  0  0  0  0  0  0  0  0  0  0  0
   -2.1192   -2.6953    0.9591 H   0  0  0  0  0  0  0  0  0  0  0  0
   -2.9081   -2.4728    2.5499 H   0  0  0  0  0  0  0  0  0  0  0  0
   -2.5055   -0.9849   -1.6832 C   0  0  0  0  0  0  0  0  0  0  0  0
   -3.5252   -1.3844   -1.8200 H   0  0  0  0  0  0  0  0  0  0  0  0
   -2.2461   -0.3535   -2.5563 H   0  0  0  0  0  0  0  0  0  0  0  0
   -1.4921   -2.1206   -1.5501 C   0  0  0  0  0  0  0  0  0  0  0  0
   -1.8390   -3.2978   -1.5198 O   0  0  0  0  0  0  0  0  0  0  0  0
  1 15  1  0  0  0  0
  2  1  1  0  0  0  0
  2  7  1  0  0  0  0
  3  4  1  0  0  0  0
  3  2  1  0  0  0  0
  5  3  1  0  0  0  0
  6  3  1  0  0  0  0
  7  8  1  0  0  0  0
  7  9  1  0  0  0  0
 10  7  1  0  0  0  0
 11  2  1  0  0  0  0
 11 14  1  0  0  0  0
 12 11  1  0  0  0  0
 13 11  1  0  0  0  0
 15 24  1  0  0  0  0
 16 15  1  0  0  0  0
 16 18  1  0  0  0  0
 16 19  1  0  0  0  0
 17 16  1  0  0  0  0
 20 23  1  0  0  0  0
 20 22  1  0  0  0  0
 20 15  1  0  0  0  0
 21 20  1  0  0  0  0
 24 25  1  0  0  0  0
 24 27  1  0  0  0  0
 24 26  1  0  0  0  0
 28 31  1  0  0  0  0
 28  1  1  0  0  0  0
 29 28  1  0  0  0  0
 30 28  1  0  0  0  0
 31 33  1  0  0  0  0
 32 31  1  0  0  0  0
 33 34  1  0  0  0  0
 35 36  1  0  0  0  0
 36 58  1  0  0  0  0
 36 41  1  0  0  0  0
 37 36  1  0  0  0  0
 37 40  1  0  0  0  0
 38 37  1  0  0  0  0
 39 37  1  0  0  0  0
 41 42  1  0  0  0  0
 41 43  1  0  0  0  0
 44 41  1  0  0  0  0
 45 49  1  0  0  0  0
 45 48  1  0  0  0  0
 46 45  1  0  0  0  0
 47 45  1  0  0  0  0
 49 35  1  0  0  0  0
 49 50  1  0  0  0  0
 50 51  1  0  0  0  0
 50 52  1  0  0  0  0
 53 50  1  0  0  0  0
 54 56  1  0  0  0  0
 54 49  1  0  0  0  0
 55 54  1  0  0  0  0
 57 54  1  0  0  0  0
 58 59  1  0  0  0  0
 58 61  1  0  0  0  0
 60 58  1  0  0  0  0
 62 65  1  0  0  0  0
 62 35  1  0  0  0  0
 63 62  1  0  0  0  0
 64 62  1  0  0  0  0
 65 66  2  0  0  0  0
 65 33  1  0  0  0  0
M  END
