5
q = 0.0, confidence = 0.992

 27 28  0  0  0  0  0  0  0  0999 V2000
   -6.1111   -0.8590   -0.3208 Br  0  0  0  0  0  0  0  0  0  0  0  0
    0.3944   -3.0357    0.0671 N   0  0  0  0  0  0  0  0  0  0  0  0
   -1.6599   -2.5316   -0.2074 N   0  0  0  0  0  0  0  0  0  0  0  0
   -1.6324   -3.8989   -0.2275 N   0  0  0  0  0  0  0  0  0  0  0  0
   -0.4505   -1.9559   -0.0274 C   0  0  0  0  0  2  0  0  0  0  0  0
   -0.3625   -4.1866   -0.0649 C   0  0  0  0  0  0  0  0  0  0  0  0
    0.0564   -5.1978   -0.0188 H   0  0  0  0  0  0  0  0  0  0  0  0
    1.8107   -2.9446    0.2460 C   0  0  0  0  0  0  0  0  0  0  0  0
    2.6666   -3.6435   -0.6188 C   0  0  0  0  0  0  0  0  0  0  0  0
    2.2464   -4.2494   -1.4347 H   0  0  0  0  0  0  0  0  0  0  0  0
    4.0548   -3.5190   -0.4559 C   0  0  0  0  0  0  0  0  0  0  0  0
    4.7311   -4.0563   -1.1373 H   0  0  0  0  0  0  0  0  0  0  0  0
    4.5772   -2.6923    0.5512 C   0  0  0  0  0  0  0  0  0  0  0  0
    5.6649   -2.5702    0.6599 H   0  0  0  0  0  0  0  0  0  0  0  0
    3.7083   -1.9990    1.4110 C   0  0  0  0  0  0  0  0  0  0  0  0
    4.1192   -1.3446    2.1939 H   0  0  0  0  0  0  0  0  0  0  0  0
    2.3194   -2.1252    1.2693 C   0  0  0  0  0  0  0  0  0  0  0  0
    1.6225   -1.5906    1.9332 H   0  0  0  0  0  0  0  0  0  0  0  0
   -2.9183   -1.8042   -0.3094 C   0  0  0  0  0  0  0  0  0  0  0  0
   -3.5276   -2.2796   -1.1014 H   0  0  0  0  0  0  0  0  0  0  0  0
   -2.6475   -0.7816   -0.6390 H   0  0  0  0  0  0  0  0  0  0  0  0
   -3.6644   -1.7511    1.0272 C   0  0  0  0  0  0  0  0  0  0  0  0
   -4.0923   -2.7459    1.2677 H   0  0  0  0  0  0  0  0  0  0  0  0
   -2.9257   -1.4915    1.8193 H   0  0  0  0  0  0  0  0  0  0  0  0
   -4.7216   -0.6665    1.0766 C   0  0  0  0  0  0  0  0  0  0  0  0
   -4.2844    0.3367    0.9114 H   0  0  0  0  0  0  0  0  0  0  0  0
   -5.2712   -0.6724    2.0347 H   0  0  0  0  0  0  0  0  0  0  0  0
  1 25  1  0  0  0  0
  2  8  1  0  0  0  0
  3  5  1  0  0  0  0
  4  3  1  0  0  0  0
  4  6  2  0  0  0  0
  5  2  1  0  0  0  0
  6  7  1  0  0  0  0
  6  2  1  0  0  0  0
  8 17  1  0  0  0  0
  9 11  1  0  0  0  0
  9  8  2  0  0  0  0
 10  9  1  0  0  0  0
 11 13  2  0  0  0  0
 12 11  1  0  0  0  0
 13 14  1  0  0  0  0
 13 15  1  0  0  0  0
 15 16  1  0  0  0  0
 17 15  2  0  0  0  0
 17 18  1  0  0  0  0
 19  3  1  0  0  0  0
 19 22  1  0  0  0  0
 20 19  1  0  0  0  0
 21 19  1  0  0  0  0
 22 25  1  0  0  0  0
 22 23  1  0  0  0  0
 22 24  1  0  0  0  0
 25 27  1  0  0  0  0
 26 25  1  0  0  0  0
M  END
