7
q = 0.0, confidence = 0.976

 24 23  0  0  0  0  0  0  0  0999 V2000
    2.2796   -1.2496    1.2677 O   0  0  0  0  0  0  0  0  0  0  0  0
    3.0727   -0.7345   -0.8067 O   0  0  0  0  0  0  0  0  0  0  0  0
   -1.8535   -1.2886   -1.7099 O   0  0  0  0  0  0  0  0  0  0  0  0
   -2.6904   -1.5624    0.3820 O   0  0  0  0  0  0  0  0  0  0  0  0
   -0.4506   -0.9019    0.2274 C   0  0  0  0  0  3  0  0  0  0  0  0
   -0.3763   -1.2986    1.2517 H   0  0  0  0  0  0  0  0  0  0  0  0
    0.7564   -0.6389   -0.5013 C   0  0  0  0  0  3  0  0  0  0  0  0
    0.7261   -0.6749   -1.6014 H   0  0  0  0  0  0  0  0  0  0  0  0
    2.0788   -0.9154    0.1086 C   0  0  0  0  0  0  0  0  0  0  0  0
    4.4163   -0.9584   -0.3322 C   0  0  0  0  0  0  0  0  0  0  0  0
    4.4959   -0.5785    0.7072 H   0  0  0  0  0  0  0  0  0  0  0  0
    5.0554   -0.3438   -0.9967 H   0  0  0  0  0  0  0  0  0  0  0  0
    4.7964   -2.4294   -0.3968 C   0  0  0  0  0  0  0  0  0  0  0  0
    5.8581   -2.5622   -0.1058 H   0  0  0  0  0  0  0  0  0  0  0  0
    4.6652   -2.8288   -1.4223 H   0  0  0  0  0  0  0  0  0  0  0  0
    4.1716   -3.0207    0.3002 H   0  0  0  0  0  0  0  0  0  0  0  0
   -1.6962   -1.2597   -0.4954 C   0  0  0  0  0  0  0  0  0  0  0  0
   -3.9566   -1.9154   -0.2062 C   0  0  0  0  0  0  0  0  0  0  0  0
   -3.8130   -2.7884   -0.8781 H   0  0  0  0  0  0  0  0  0  0  0  0
   -4.3017   -1.0785   -0.8519 H   0  0  0  0  0  0  0  0  0  0  0  0
   -4.9277   -2.2105    0.9185 C   0  0  0  0  0  0  0  0  0  0  0  0
   -5.9169   -2.4892    0.5045 H   0  0  0  0  0  0  0  0  0  0  0  0
   -5.0614   -1.3255    1.5721 H   0  0  0  0  0  0  0  0  0  0  0  0
   -4.5650   -3.0490    1.5455 H   0  0  0  0  0  0  0  0  0  0  0  0
  2 10  1  0  0  0  0
  2  9  1  0  0  0  0
  3 17  2  0  0  0  0
  5  6  1  0  0  0  0
  7  9  1  0  0  0  0
  7  5  1  0  0  0  0
  8  7  1  0  0  0  0
  9  1  2  0  0  0  0
 10 11  1  0  0  0  0
 12 10  1  0  0  0  0
 13 10  1  0  0  0  0
 13 14  1  0  0  0  0
 13 16  1  0  0  0  0
 15 13  1  0  0  0  0
 17  5  1  0  0  0  0
 17  4  1  0  0  0  0
 18  4  1  0  0  0  0
 18 21  1  0  0  0  0
 19 18  1  0  0  0  0
 20 18  1  0  0  0  0
 21 24  1  0  0  0  0
 21 23  1  0  0  0  0
 22 21  1  0  0  0  0
M  END
