6
q = 0.0, confidence = 1.0

 46 48  0  0  0  0  0  0  0  0999 V2000
   -0.1972    1.5817    0.3888 N   0  0  0  0  0  0  0  0  0  0  0  0
   -1.0891    2.0787    0.2301 H   0  0  0  0  0  0  0  0  0  0  0  0
   -1.5046   -0.2427   -0.0138 N   0  0  0  0  0  0  0  0  0  0  0  0
   -1.6161   -1.2626    0.1429 H   0  0  0  0  0  0  0  0  0  0  0  0
   -2.5575    0.5869   -0.2058 N   0  0  0  0  0  0  0  0  0  0  0  0
   -0.2783    0.2564    0.2957 C   0  0  0  0  0  2  0  0  0  0  0  0
    0.9715    2.3663    0.7611 C   0  0  0  0  0  0  0  0  0  0  0  0
    1.7625    1.6322    1.0203 H   0  0  0  0  0  0  0  0  0  0  0  0
    1.4625    3.2340   -0.4086 C   0  0  0  0  0  0  0  0  0  0  0  0
    0.6401    3.9194   -0.7163 H   0  0  0  0  0  0  0  0  0  0  0  0
    1.6803    2.5836   -1.2802 H   0  0  0  0  0  0  0  0  0  0  0  0
    2.6954    4.0531   -0.0062 C   0  0  0  0  0  0  0  0  0  0  0  0
    3.0216    4.6922   -0.8528 H   0  0  0  0  0  0  0  0  0  0  0  0
    3.5384    3.3555    0.2018 H   0  0  0  0  0  0  0  0  0  0  0  0
    2.4228    4.9034    1.2416 C   0  0  0  0  0  0  0  0  0  0  0  0
    3.3374    5.4564    1.5402 H   0  0  0  0  0  0  0  0  0  0  0  0
    1.6575    5.6739    0.9962 H   0  0  0  0  0  0  0  0  0  0  0  0
    1.9165    4.0412    2.4055 C   0  0  0  0  0  0  0  0  0  0  0  0
    2.7249    3.3474    2.7274 H   0  0  0  0  0  0  0  0  0  0  0  0
    1.6813    4.6730    3.2866 H   0  0  0  0  0  0  0  0  0  0  0  0
    0.6843    3.2177    2.0079 C   0  0  0  0  0  0  0  0  0  0  0  0
   -0.1689    3.9008    1.7909 H   0  0  0  0  0  0  0  0  0  0  0  0
    0.3638    2.5537    2.8367 H   0  0  0  0  0  0  0  0  0  0  0  0
   -3.7631    0.0920   -0.3226 C   0  0  0  0  0  0  0  0  0  0  0  0
   -4.8517    1.0500   -0.6273 C   0  0  0  0  0  0  0  0  0  0  0  0
   -6.1981    0.7292   -0.3383 C   0  0  0  0  0  0  0  0  0  0  0  0
   -6.4372   -0.2454    0.1114 H   0  0  0  0  0  0  0  0  0  0  0  0
   -7.2230    1.6484   -0.6023 C   0  0  0  0  0  0  0  0  0  0  0  0
   -8.2647    1.3850   -0.3643 H   0  0  0  0  0  0  0  0  0  0  0  0
   -6.9238    2.8996   -1.1628 C   0  0  0  0  0  0  0  0  0  0  0  0
   -7.7300    3.6182   -1.3748 H   0  0  0  0  0  0  0  0  0  0  0  0
   -4.5633    2.3142   -1.1942 C   0  0  0  0  0  0  0  0  0  0  0  0
   -3.5182    2.5556   -1.4349 H   0  0  0  0  0  0  0  0  0  0  0  0
   -4.0771   -1.3598   -0.1850 C   0  0  0  0  0  0  0  0  0  0  0  0
   -4.7576   -2.0349   -1.2245 C   0  0  0  0  0  0  0  0  0  0  0  0
   -5.0697   -1.4738   -2.1182 H   0  0  0  0  0  0  0  0  0  0  0  0
   -5.0228   -3.4064   -1.1244 C   0  0  0  0  0  0  0  0  0  0  0  0
   -5.5447   -3.9228   -1.9442 H   0  0  0  0  0  0  0  0  0  0  0  0
   -5.5885    3.2279   -1.4577 C   0  0  0  0  0  0  0  0  0  0  0  0
   -5.3484    4.2038   -1.9070 H   0  0  0  0  0  0  0  0  0  0  0  0
   -4.6171   -4.1223    0.0149 C   0  0  0  0  0  0  0  0  0  0  0  0
   -4.8197   -5.2015    0.0887 H   0  0  0  0  0  0  0  0  0  0  0  0
   -3.9483   -3.4601    1.0547 C   0  0  0  0  0  0  0  0  0  0  0  0
   -3.6145   -4.0126    1.9451 H   0  0  0  0  0  0  0  0  0  0  0  0
   -3.6828   -2.0863    0.9612 C   0  0  0  0  0  0  0  0  0  0  0  0
   -3.1483   -1.5856    1.7818 H   0  0  0  0  0  0  0  0  0  0  0  0
  1  7  1  0  0  0  0
  2  1  1  0  0  0  0
  3  4  1  0  0  0  0
  3  6  1  0  0  0  0
  5  3  1  0  0  0  0
  6  1  1  0  0  0  0
  7  8  1  0  0  0  0
  7 21  1  0  0  0  0
  9 12  1  0  0  0  0
  9  7  1  0  0  0  0
 10  9  1  0  0  0  0
 11  9  1  0  0  0  0
 12 14  1  0  0  0  0
 12 15  1  0  0  0  0
 13 12  1  0  0  0  0
 15 16  1  0  0  0  0
 15 18  1  0  0  0  0
 17 15  1  0  0  0  0
 18 19  1  0  0  0  0
 18 20  1  0  0  0  0
 21 18  1  0  0  0  0
 21 23  1  0  0  0  0
 22 21  1  0  0  0  0
 24  5  2  0  0  0  0
 24 34  1  0  0  0  0
 25 26  1  0  0  0  0
 25 24  1  0  0  0  0
 26 27  1  0  0  0  0
 28 29  1  0  0  0  0
 28 26  2  0  0  0  0
 30 28  1  0  0  0  0
 31 30  1  0  0  0  0
 32 25  2  0  0  0  0
 33 32  1  0  0  0  0
 34 45  1  0  0  0  0
 35 37  1  0  0  0  0
 35 34  2  0  0  0  0
 36 35  1  0  0  0  0
 37 41  2  0  0  0  0
 38 37  1  0  0  0  0
 39 32  1  0  0  0  0
 39 30  2  0  0  0  0
 40 39  1  0  0  0  0
 41 42  1  0  0  0  0
 41 43  1  0  0  0  0
 43 44  1  0  0  0  0
 45 43  2  0  0  0  0
 45 46  1  0  0  0  0
M  END
