6
q = -1.0, confidence = 0.0

 31 32  0  0  0  0  0  0  0  0999 V2000
    2.4542   -0.0437    0.4070 C   0  0  0  0  0  0  0  0  0  0  0  0
    2.0333   -1.3067    0.9056 C   0  0  0  0  0  0  0  0  0  0  0  0
    2.2836   -1.7163    1.8908 H   0  0  0  0  0  0  0  0  0  0  0  0
    1.1831   -1.9219   -0.0650 C   0  0  0  0  0  0  0  0  0  0  0  0
    0.6820   -2.8898    0.0435 H   0  0  0  0  0  0  0  0  0  0  0  0
    1.0556   -1.0283   -1.1567 C   0  0  0  0  0  3  0  0  0  0  0  0
    0.4823   -1.2090   -2.0723 H   0  0  0  0  0  0  0  0  0  0  0  0
    1.8027    0.1517   -0.8486 C   0  0  0  0  0  0  0  0  0  0  0  0
    1.9261    1.0329   -1.4894 H   0  0  0  0  0  0  0  0  0  0  0  0
    3.4788    0.8700    1.0154 C   0  0  0  0  0  0  0  0  0  0  0  0
    3.5745    0.6322    2.0944 H   0  0  0  0  0  0  0  0  0  0  0  0
    3.1195    1.9156    0.9625 H   0  0  0  0  0  0  0  0  0  0  0  0
    4.8180    0.7466    0.3098 C   0  0  0  0  0  0  0  0  0  0  0  0
    5.4941   -0.4956    0.2792 C   0  0  0  0  0  0  0  0  0  0  0  0
    5.0320   -1.3626    0.7710 H   0  0  0  0  0  0  0  0  0  0  0  0
    6.7259   -0.6390   -0.3712 C   0  0  0  0  0  0  0  0  0  0  0  0
    7.4381   -1.7948   -0.4479 O   0  0  0  0  0  0  0  0  0  0  0  0
    6.8973   -2.9456    0.1673 C   0  0  0  0  0  0  0  0  0  0  0  0
    6.7723   -2.8109    1.2660 H   0  0  0  0  0  0  0  0  0  0  0  0
    7.6164   -3.7659   -0.0144 H   0  0  0  0  0  0  0  0  0  0  0  0
    5.9104   -3.2254   -0.2669 H   0  0  0  0  0  0  0  0  0  0  0  0
    7.3166    0.4915   -1.0184 C   0  0  0  0  0  0  0  0  0  0  0  0
    8.5138    0.2630   -1.6225 O   0  0  0  0  0  0  0  0  0  0  0  0
    9.1416    1.3472   -2.2733 C   0  0  0  0  0  0  0  0  0  0  0  0
    8.5200    1.7515   -3.1048 H   0  0  0  0  0  0  0  0  0  0  0  0
   10.0890    0.9577   -2.6904 H   0  0  0  0  0  0  0  0  0  0  0  0
    9.3717    2.1796   -1.5694 H   0  0  0  0  0  0  0  0  0  0  0  0
    6.6436    1.7203   -0.9885 C   0  0  0  0  0  0  0  0  0  0  0  0
    7.0820    2.5995   -1.4792 H   0  0  0  0  0  0  0  0  0  0  0  0
    5.4024    1.8440   -0.3320 C   0  0  0  0  0  0  0  0  0  0  0  0
    4.8928    2.8197   -0.3196 H   0  0  0  0  0  0  0  0  0  0  0  0
  1  2  1  0  0  0  0
  1 10  1  0  0  0  0
  2  3  1  0  0  0  0
  4  5  1  0  0  0  0
  4  2  2  0  0  0  0
  6  8  1  0  0  0  0
  6  4  1  0  0  0  0
  7  6  1  0  0  0  0
  8  1  2  0  0  0  0
  9  8  1  0  0  0  0
 10 11  1  0  0  0  0
 12 10  1  0  0  0  0
 13 10  1  0  0  0  0
 14 13  1  0  0  0  0
 14 15  1  0  0  0  0
 16 14  2  0  0  0  0
 17 16  1  0  0  0  0
 17 18  1  0  0  0  0
 18 19  1  0  0  0  0
 20 18  1  0  0  0  0
 21 18  1  0  0  0  0
 22 28  2  0  0  0  0
 22 16  1  0  0  0  0
 23 22  1  0  0  0  0
 24 23  1  0  0  0  0
 24 27  1  0  0  0  0
 25 24  1  0  0  0  0
 26 24  1  0  0  0  0
 28 30  1  0  0  0  0
 29 28  1  0  0  0  0
 30 31  1  0  0  0  0
 30 13  2  0  0  0  0
M  END
