10
q = 0.0, confidence = 0.976

 17 17  0  0  0  0  0  0  0  0999 V2000
   -3.5332   -1.4420    1.4608 C   0  0  0  0  0  0  0  0  0  0  0  0
   -2.6910   -1.7247    2.1265 H   0  0  0  0  0  0  0  0  0  0  0  0
   -3.5295   -2.1389    0.5995 H   0  0  0  0  0  0  0  0  0  0  0  0
   -4.8561   -1.4476    2.1998 C   0  0  0  0  0  0  0  0  0  0  0  0
   -5.0578   -2.4621    2.5964 H   0  0  0  0  0  0  0  0  0  0  0  0
   -5.6891   -1.1671    1.5253 H   0  0  0  0  0  0  0  0  0  0  0  0
   -4.8427   -0.7393    3.0521 H   0  0  0  0  0  0  0  0  0  0  0  0
   -3.3051   -0.1061    0.9798 O   0  0  0  0  0  0  0  0  0  0  0  0
   -1.5816    2.2073   -1.0313 O   0  0  0  0  0  0  0  0  0  0  0  0
   -2.3354    0.1786    0.0901 C   0  0  0  0  0  2  0  0  0  0  0  0
   -3.2154    2.6052    0.4610 C   0  0  0  0  0  0  0  0  0  0  0  0
   -3.9793    2.4278    1.2243 H   0  0  0  0  0  0  0  0  0  0  0  0
   -2.4224    1.6133   -0.1217 C   0  0  0  0  0  0  0  0  0  0  0  0
   -2.8293    3.8419   -0.1248 C   0  0  0  0  0  0  0  0  0  0  0  0
   -3.2316    4.8389    0.0855 H   0  0  0  0  0  0  0  0  0  0  0  0
   -1.8298    3.5327   -1.0309 C   0  0  0  0  0  0  0  0  0  0  0  0
   -1.2150    4.1291   -1.7127 H   0  0  0  0  0  0  0  0  0  0  0  0
  1  2  1  0  0  0  0
  1  4  1  0  0  0  0
  3  1  1  0  0  0  0
  4  5  1  0  0  0  0
  4  7  1  0  0  0  0
  6  4  1  0  0  0  0
  8  1  1  0  0  0  0
  9 16  1  0  0  0  0
  9 13  1  0  0  0  0
 10  8  1  0  0  0  0
 11 12  1  0  0  0  0
 13 10  1  0  0  0  0
 13 11  2  0  0  0  0
 14 15  1  0  0  0  0
 14 11  1  0  0  0  0
 16 14  2  0  0  0  0
 17 16  1  0  0  0  0
M  END
