1
q = 0.0, confidence = 0.932

 30 31  0  0  0  0  0  0  0  0999 V2000
   -1.1512    0.7829   -0.0631 C   0  0  0  0  0  3  0  0  0  0  0  0
   -1.2860   -0.5305   -0.1596 C   0  0  0  0  0  3  0  0  0  0  0  0
   -1.8685    2.0347   -0.1294 C   0  0  0  0  0  0  0  0  0  0  0  0
   -1.2993    3.2390    0.3542 C   0  0  0  0  0  0  0  0  0  0  0  0
   -1.9952    4.4527    0.2945 C   0  0  0  0  0  0  0  0  0  0  0  0
   -3.2867    4.5295   -0.2632 C   0  0  0  0  0  0  0  0  0  0  0  0
   -3.8562    3.3330   -0.7574 C   0  0  0  0  0  0  0  0  0  0  0  0
   -3.1733    2.1171   -0.6916 C   0  0  0  0  0  0  0  0  0  0  0  0
   -4.0397    5.8331   -0.3412 C   0  0  0  0  0  0  0  0  0  0  0  0
   -2.2475   -1.6036   -0.2520 C   0  0  0  0  0  0  0  0  0  0  0  0
   -1.8886   -2.8736   -0.7670 C   0  0  0  0  0  0  0  0  0  0  0  0
   -2.8150   -3.9206   -0.8386 C   0  0  0  0  0  0  0  0  0  0  0  0
   -4.1396   -3.7607   -0.3839 C   0  0  0  0  0  0  0  0  0  0  0  0
   -4.5013   -2.4984    0.1393 C   0  0  0  0  0  0  0  0  0  0  0  0
   -3.5872   -1.4438    0.1999 C   0  0  0  0  0  0  0  0  0  0  0  0
   -5.1419   -4.8847   -0.4531 C   0  0  0  0  0  0  0  0  0  0  0  0
   -0.2920    3.1958    0.7924 H   0  0  0  0  0  0  0  0  0  0  0  0
   -1.5238    5.3686    0.6867 H   0  0  0  0  0  0  0  0  0  0  0  0
   -4.8621    3.3627   -1.2078 H   0  0  0  0  0  0  0  0  0  0  0  0
   -3.6352    1.2036   -1.0948 H   0  0  0  0  0  0  0  0  0  0  0  0
   -3.4584    6.6676    0.0973 H   0  0  0  0  0  0  0  0  0  0  0  0
   -5.0090    5.7762    0.1982 H   0  0  0  0  0  0  0  0  0  0  0  0
   -4.2773    6.1032   -1.3922 H   0  0  0  0  0  0  0  0  0  0  0  0
   -0.8597   -3.0138   -1.1276 H   0  0  0  0  0  0  0  0  0  0  0  0
   -2.5038   -4.8926   -1.2549 H   0  0  0  0  0  0  0  0  0  0  0  0
   -5.5285   -2.3436    0.5088 H   0  0  0  0  0  0  0  0  0  0  0  0
   -3.8941   -0.4733    0.6187 H   0  0  0  0  0  0  0  0  0  0  0  0
   -5.9850   -4.6357   -1.1327 H   0  0  0  0  0  0  0  0  0  0  0  0
   -5.5882   -5.0954    0.5416 H   0  0  0  0  0  0  0  0  0  0  0  0
   -4.6803   -5.8213   -0.8223 H   0  0  0  0  0  0  0  0  0  0  0  0
  2  1  2  0  0  0  0
  3  1  1  0  0  0  0
  3  4  1  0  0  0  0
  4 17  1  0  0  0  0
  5  4  2  0  0  0  0
  5 18  1  0  0  0  0
  6  5  1  0  0  0  0
  7  8  1  0  0  0  0
  7  6  2  0  0  0  0
  8  3  2  0  0  0  0
  9  6  1  0  0  0  0
  9 21  1  0  0  0  0
  9 22  1  0  0  0  0
 10  2  1  0  0  0  0
 10 15  1  0  0  0  0
 11 10  2  0  0  0  0
 12 11  1  0  0  0  0
 12 13  2  0  0  0  0
 13 14  1  0  0  0  0
 14 15  2  0  0  0  0
 14 26  1  0  0  0  0
 15 27  1  0  0  0  0
 16 13  1  0  0  0  0
 16 29  1  0  0  0  0
 19  7  1  0  0  0  0
 20  8  1  0  0  0  0
 23  9  1  0  0  0  0
 24 11  1  0  0  0  0
 25 12  1  0  0  0  0
 28 16  1  0  0  0  0
 30 16  1  0  0  0  0
M  END
