2
q = 0.0, confidence = 0.988

 20 20  0  0  0  0  0  0  0  0999 V2000
    1.0603    0.6855   -0.8339 C   0  0  0  0  0  3  0  0  0  0  0  0
    0.8699   -0.7310   -0.8734 C   0  0  0  0  0  3  0  0  0  0  0  0
    1.5288   -1.7563   -0.0250 C   0  0  0  0  0  0  0  0  0  0  0  0
    2.7962   -1.8497    0.4481 C   0  0  0  0  0  0  0  0  0  0  0  0
    4.0295   -1.0161    0.2123 C   0  0  0  0  0  0  0  0  0  0  0  0
    4.0253    0.0186   -0.9239 C   0  0  0  0  0  0  0  0  0  0  0  0
    3.4669    1.3925   -0.5353 C   0  0  0  0  0  0  0  0  0  0  0  0
    2.0606    1.3533    0.0834 C   0  0  0  0  0  0  0  0  0  0  0  0
    0.8897    1.2211   -1.7858 H   0  0  0  0  0  0  0  0  0  0  0  0
    0.4980   -1.1295   -1.8365 H   0  0  0  0  0  0  0  0  0  0  0  0
    0.8659   -2.5994    0.2435 H   0  0  0  0  0  0  0  0  0  0  0  0
    2.9875   -2.7274    1.0923 H   0  0  0  0  0  0  0  0  0  0  0  0
    4.3233   -0.5204    1.1692 H   0  0  0  0  0  0  0  0  0  0  0  0
    4.8533   -1.7417    0.0292 H   0  0  0  0  0  0  0  0  0  0  0  0
    3.4652   -0.3946   -1.7899 H   0  0  0  0  0  0  0  0  0  0  0  0
    5.0680    0.1567   -1.2793 H   0  0  0  0  0  0  0  0  0  0  0  0
    3.4582    2.0497   -1.4327 H   0  0  0  0  0  0  0  0  0  0  0  0
    4.1572    1.8761    0.1907 H   0  0  0  0  0  0  0  0  0  0  0  0
    2.0854    0.8131    1.0522 H   0  0  0  0  0  0  0  0  0  0  0  0
    1.7415    2.3909    0.3116 H   0  0  0  0  0  0  0  0  0  0  0  0
  1  8  1  0  0  0  0
  2  1  1  0  0  0  0
  2  3  1  0  0  0  0
  3 11  1  0  0  0  0
  3  4  2  0  0  0  0
  4 12  1  0  0  0  0
  5  4  1  0  0  0  0
  5 13  1  0  0  0  0
  6  7  1  0  0  0  0
  6  5  1  0  0  0  0
  7  8  1  0  0  0  0
  7 18  1  0  0  0  0
  8 20  1  0  0  0  0
  8 19  1  0  0  0  0
  9  1  1  0  0  0  0
 10  2  1  0  0  0  0
 14  5  1  0  0  0  0
 15  6  1  0  0  0  0
 16  6  1  0  0  0  0
 17  7  1  0  0  0  0
M  END
