1
q = -2.0, confidence = 0.778

 30 32  0  0  1  0  0  0  0  0999 V2000
    0.3968   -0.7789    1.1888 C   0  0  2  0  0  3  0  0  0  0  0  0
    0.0736   -1.4423    2.4973 C   0  0  0  0  0  0  0  0  0  0  0  0
    0.5602   -1.5392   -0.0473 C   0  0  1  0  0  0  0  0  0  0  0  0
    0.2150   -3.0183   -0.1208 C   0  0  0  0  0  0  0  0  0  0  0  0
    0.6783    0.7218    1.0024 B   0  0  0  0  0  0  0  0  0  0  0  0
    0.6806    1.0982   -0.7855 B   0  0  2  0  0  0  0  0  0  0  0  0
    0.6538   -0.6121   -1.4549 B   0  0  0  0  0  2  0  0  0  0  0  0
    2.1720   -1.2720   -0.7175 B   0  0  0  0  0  0  0  0  0  0  0  0
    2.1333    0.3641   -1.4875 B   0  0  2  0  0  0  0  0  0  0  0  0
    2.9589   -0.1159   -0.0988 C   0  0  2  0  0  0  0  0  0  0  0  0
    4.4465   -0.0726    0.1022 C   0  0  0  0  0  0  0  0  0  0  0  0
    2.1241    1.0801    0.0896 C   0  0  2  0  0  0  0  0  0  0  0  0
    2.7669    2.4175    0.4067 C   0  0  0  0  0  0  0  0  0  0  0  0
   -0.3712   -0.7229    3.2127 H   0  0  0  0  0  0  0  0  0  0  0  0
   -0.6006   -2.3201    2.4124 H   0  0  0  0  0  0  0  0  0  0  0  0
    1.0169   -1.8095    2.9606 H   0  0  0  0  0  0  0  0  0  0  0  0
    0.1031   -3.3448   -1.1721 H   0  0  0  0  0  0  0  0  0  0  0  0
    1.0213   -3.6326    0.3309 H   0  0  0  0  0  0  0  0  0  0  0  0
   -0.7218   -3.2566    0.4208 H   0  0  0  0  0  0  0  0  0  0  0  0
    4.9279   -0.9657   -0.3391 H   0  0  0  0  0  0  0  0  0  0  0  0
    4.9215    0.8317   -0.3316 H   0  0  0  0  0  0  0  0  0  0  0  0
    4.6797   -0.0707    1.1891 H   0  0  0  0  0  0  0  0  0  0  0  0
    2.0086    3.2210    0.4379 H   0  0  0  0  0  0  0  0  0  0  0  0
    3.2663    2.3866    1.3960 H   0  0  0  0  0  0  0  0  0  0  0  0
    3.5272    2.6915   -0.3520 H   0  0  0  0  0  0  0  0  0  0  0  0
    0.3845    2.1851   -1.2425 H   0  0  0  0  0  0  0  0  0  0  0  0
    0.2889   -1.0940   -2.5092 H   0  0  0  0  0  0  0  0  0  0  0  0
    2.6901    0.8499   -2.4456 H   0  0  0  0  0  0  0  0  0  0  0  0
    0.4458    1.5702    1.8461 H   0  0  0  0  0  0  0  0  0  0  0  0
    2.6933   -2.2627   -1.1837 H   0  0  0  0  0  0  0  0  0  0  0  0
  1  2  1  1  0  0  0
  2 16  1  0  0  0  0
  2 14  1  0  0  0  0
  3  7  1  6  0  0  0
  3  1  1  0  0  0  0
  4  3  1  0  0  0  0
  4 18  1  0  0  0  0
  4 19  1  0  0  0  0
  5  1  1  0  0  0  0
  5 29  1  0  0  0  0
  6 26  1  6  0  0  0
  6 12  1  0  0  0  0
  6  5  1  0  0  0  0
  8 10  1  0  0  0  0
  8  3  1  0  0  0  0
  9 28  1  6  0  0  0
  9  6  1  0  0  0  0
  9 10  1  0  0  0  0
  9 12  1  0  0  0  0
 10 12  1  0  0  0  0
 10 11  1  1  0  0  0
 11 22  1  0  0  0  0
 12 13  1  1  0  0  0
 13 23  1  0  0  0  0
 13 24  1  0  0  0  0
 15  2  1  0  0  0  0
 17  4  1  0  0  0  0
 20 11  1  0  0  0  0
 21 11  1  0  0  0  0
 25 13  1  0  0  0  0
 27  7  1  0  0  0  0
 30  8  1  0  0  0  0
M  END
