4
q = 0.0, confidence = 0.996

 39 40  0  0  0  0  0  0  0  0999 V2000
   -3.3585   -4.2912   -0.0275 O   0  0  0  0  0  0  0  0  0  0  0  0
   -0.8752   -2.8522    0.2324 N   0  0  0  0  0  0  0  0  0  0  0  0
    1.0623   -2.7364   -0.7133 N   0  0  0  0  0  0  0  0  0  0  0  0
    0.0628   -1.9613   -0.2064 C   0  0  0  0  0  2  0  0  0  0  0  0
   -0.4610   -4.1651    0.0258 C   0  0  0  0  0  0  0  0  0  0  0  0
   -1.1007   -5.0122    0.2819 H   0  0  0  0  0  0  0  0  0  0  0  0
    0.7690   -4.0893   -0.5726 C   0  0  0  0  0  0  0  0  0  0  0  0
    1.4550   -4.8723   -0.9073 H   0  0  0  0  0  0  0  0  0  0  0  0
    2.2929   -2.2069   -1.2819 C   0  0  0  0  0  0  0  0  0  0  0  0
    2.0895   -1.1328   -1.4817 H   0  0  0  0  0  0  0  0  0  0  0  0
    2.4667   -2.6866   -2.2665 H   0  0  0  0  0  0  0  0  0  0  0  0
    3.5037   -2.3699   -0.3861 C   0  0  0  0  0  0  0  0  0  0  0  0
    3.3801   -2.3790    1.0162 C   0  0  0  0  0  0  0  0  0  0  0  0
    2.3872   -2.2863    1.4833 H   0  0  0  0  0  0  0  0  0  0  0  0
    4.5241   -2.4590    1.8244 C   0  0  0  0  0  0  0  0  0  0  0  0
    4.4124   -2.4558    2.9192 H   0  0  0  0  0  0  0  0  0  0  0  0
    5.8012   -2.5249    1.2450 C   0  0  0  0  0  0  0  0  0  0  0  0
    6.6966   -2.5853    1.8820 H   0  0  0  0  0  0  0  0  0  0  0  0
    5.9301   -2.5153   -0.1536 C   0  0  0  0  0  0  0  0  0  0  0  0
    6.9265   -2.5724   -0.6179 H   0  0  0  0  0  0  0  0  0  0  0  0
    4.7862   -2.4436   -0.9629 C   0  0  0  0  0  0  0  0  0  0  0  0
    4.8902   -2.4414   -2.0601 H   0  0  0  0  0  0  0  0  0  0  0  0
   -2.1302   -2.4230    0.8268 C   0  0  0  0  0  0  0  0  0  0  0  0
   -2.1452   -1.3214    0.7493 H   0  0  0  0  0  0  0  0  0  0  0  0
   -2.1443   -2.6686    1.9115 H   0  0  0  0  0  0  0  0  0  0  0  0
   -3.3594   -3.0870    0.1801 C   0  0  0  0  0  0  0  0  0  0  0  0
   -4.5328   -2.1793   -0.2065 C   0  0  0  0  0  0  0  0  0  0  0  0
   -5.7671   -3.0413   -0.5025 C   0  0  0  0  0  0  0  0  0  0  0  0
   -5.5406   -3.8099   -1.2654 H   0  0  0  0  0  0  0  0  0  0  0  0
   -6.5947   -2.4038   -0.8723 H   0  0  0  0  0  0  0  0  0  0  0  0
   -6.1150   -3.5687    0.4084 H   0  0  0  0  0  0  0  0  0  0  0  0
   -4.0731   -1.4444   -1.4915 C   0  0  0  0  0  0  0  0  0  0  0  0
   -3.1431   -0.8579   -1.3472 H   0  0  0  0  0  0  0  0  0  0  0  0
   -4.8650   -0.7363   -1.8083 H   0  0  0  0  0  0  0  0  0  0  0  0
   -3.8966   -2.1637   -2.3158 H   0  0  0  0  0  0  0  0  0  0  0  0
   -4.8456   -1.1576    0.9052 C   0  0  0  0  0  0  0  0  0  0  0  0
   -5.0952   -1.6586    1.8629 H   0  0  0  0  0  0  0  0  0  0  0  0
   -5.7168   -0.5414    0.6060 H   0  0  0  0  0  0  0  0  0  0  0  0
   -4.0139   -0.4491    1.0827 H   0  0  0  0  0  0  0  0  0  0  0  0
  1 26  2  0  0  0  0
  2 23  1  0  0  0  0
  3  7  1  0  0  0  0
  3  4  1  0  0  0  0
  4  2  1  0  0  0  0
  5  2  1  0  0  0  0
  5  6  1  0  0  0  0
  7  5  2  0  0  0  0
  8  7  1  0  0  0  0
  9  3  1  0  0  0  0
  9 12  1  0  0  0  0
 10  9  1  0  0  0  0
 11  9  1  0  0  0  0
 12 13  1  0  0  0  0
 13 14  1  0  0  0  0
 13 15  2  0  0  0  0
 15 16  1  0  0  0  0
 17 15  1  0  0  0  0
 17 18  1  0  0  0  0
 19 17  2  0  0  0  0
 20 19  1  0  0  0  0
 21 12  2  0  0  0  0
 21 19  1  0  0  0  0
 22 21  1  0  0  0  0
 23 25  1  0  0  0  0
 24 23  1  0  0  0  0
 26 23  1  0  0  0  0
 27 26  1  0  0  0  0
 27 36  1  0  0  0  0
 28 27  1  0  0  0  0
 28 31  1  0  0  0  0
 29 28  1  0  0  0  0
 30 28  1  0  0  0  0
 32 33  1  0  0  0  0
 32 27  1  0  0  0  0
 34 32  1  0  0  0  0
 35 32  1  0  0  0  0
 36 39  1  0  0  0  0
 36 37  1  0  0  0  0
 38 36  1  0  0  0  0
M  END
