3
q = 0.0, confidence = 0.992

 27 29  0  0  0  0  0  0  0  0999 V2000
    1.1449   -2.1289    1.4063 S   0  0  0  0  0  0  0  0  0  0  0  0
    1.7180   -0.4709   -0.4384 N   0  0  0  0  0  0  0  0  0  0  0  0
    0.6553   -0.9233    0.2613 C   0  0  0  0  0  2  0  0  0  0  0  0
    2.9567   -1.0428   -0.1068 C   0  0  0  0  0  0  0  0  0  0  0  0
    4.2120   -0.7486   -0.6663 C   0  0  0  0  0  0  0  0  0  0  0  0
    4.3191    0.0249   -1.4376 H   0  0  0  0  0  0  0  0  0  0  0  0
    5.3250   -1.4540   -0.1922 C   0  0  0  0  0  0  0  0  0  0  0  0
    6.3169   -1.2368   -0.6146 H   0  0  0  0  0  0  0  0  0  0  0  0
    5.1966   -2.4295    0.8185 C   0  0  0  0  0  0  0  0  0  0  0  0
    6.0883   -2.9672    1.1729 H   0  0  0  0  0  0  0  0  0  0  0  0
    3.9478   -2.7208    1.3826 C   0  0  0  0  0  0  0  0  0  0  0  0
    3.8443   -3.4777    2.1731 H   0  0  0  0  0  0  0  0  0  0  0  0
    2.8288   -2.0175    0.9112 C   0  0  0  0  0  0  0  0  0  0  0  0
    1.5975    0.5540   -1.4869 C   0  0  0  0  0  0  0  0  0  0  0  0
    0.5117    0.6368   -1.6968 H   0  0  0  0  0  0  0  0  0  0  0  0
    2.0748    0.1572   -2.4051 H   0  0  0  0  0  0  0  0  0  0  0  0
    2.1991    1.8849   -1.0896 C   0  0  0  0  0  0  0  0  0  0  0  0
    3.0576    2.5637   -1.9749 C   0  0  0  0  0  0  0  0  0  0  0  0
    3.3067    2.1085   -2.9476 H   0  0  0  0  0  0  0  0  0  0  0  0
    3.5933    3.8146   -1.6312 C   0  0  0  0  0  0  0  0  0  0  0  0
    4.2633    4.3350   -2.3326 H   0  0  0  0  0  0  0  0  0  0  0  0
    3.2785    4.3945   -0.3929 C   0  0  0  0  0  0  0  0  0  0  0  0
    3.7013    5.3729   -0.1182 H   0  0  0  0  0  0  0  0  0  0  0  0
    2.4219    3.7212    0.4937 C   0  0  0  0  0  0  0  0  0  0  0  0
    2.1655    4.1716    1.4646 H   0  0  0  0  0  0  0  0  0  0  0  0
    1.8806    2.4740    0.1504 C   0  0  0  0  0  0  0  0  0  0  0  0
    1.1968    1.9622    0.8489 H   0  0  0  0  0  0  0  0  0  0  0  0
  2  4  1  0  0  0  0
  2  3  1  0  0  0  0
  3  1  1  0  0  0  0
  4 13  1  0  0  0  0
  5  7  1  0  0  0  0
  5  4  2  0  0  0  0
  6  5  1  0  0  0  0
  7  9  2  0  0  0  0
  8  7  1  0  0  0  0
  9 10  1  0  0  0  0
  9 11  1  0  0  0  0
 11 12  1  0  0  0  0
 13 11  2  0  0  0  0
 13  1  1  0  0  0  0
 14 17  1  0  0  0  0
 14  2  1  0  0  0  0
 15 14  1  0  0  0  0
 16 14  1  0  0  0  0
 17 26  1  0  0  0  0
 18 20  1  0  0  0  0
 18 17  2  0  0  0  0
 19 18  1  0  0  0  0
 20 22  2  0  0  0  0
 21 20  1  0  0  0  0
 22 23  1  0  0  0  0
 22 24  1  0  0  0  0
 24 25  1  0  0  0  0
 26 24  2  0  0  0  0
 26 27  1  0  0  0  0
M  END
