1
q = -1.0, confidence = 0.002

 25 25  0  0  0  0  0  0  0  0999 V2000
   -0.4412    1.0577   -1.7012 C   0  0  0  0  0  3  0  0  0  0  0  0
   -1.3222    2.0056   -1.1050 C   0  0  0  0  0  0  0  0  0  0  0  0
   -1.4351    3.2979   -1.6636 C   0  0  0  0  0  0  0  0  0  0  0  0
   -2.1481    4.0201   -1.2489 H   0  0  0  0  0  0  0  0  0  0  0  0
   -0.6665    3.6570   -2.7796 C   0  0  0  0  0  0  0  0  0  0  0  0
   -0.7674    4.6682   -3.2005 H   0  0  0  0  0  0  0  0  0  0  0  0
    0.2080    2.7319   -3.3667 C   0  0  0  0  0  0  0  0  0  0  0  0
    0.8099    3.0116   -4.2442 H   0  0  0  0  0  0  0  0  0  0  0  0
    0.3135    1.4374   -2.8232 C   0  0  0  0  0  0  0  0  0  0  0  0
    1.0214    0.7233   -3.2742 H   0  0  0  0  0  0  0  0  0  0  0  0
   -2.6705    2.1620    1.0404 C   0  0  0  0  0  0  0  0  0  0  0  0
   -3.4075    1.3648    1.9360 C   0  0  0  0  0  3  0  0  0  0  0  0
   -3.8609    1.8625    2.8026 H   0  0  0  0  0  0  0  0  0  0  0  0
   -3.6252   -0.0407    1.7608 C   0  0  0  0  0  0  0  0  0  0  0  0
   -2.5277    3.6373    1.2693 C   0  0  0  0  0  0  0  0  0  0  0  0
   -3.2356    4.2089    0.6334 H   0  0  0  0  0  0  0  0  0  0  0  0
   -1.5037    3.9867    1.0349 H   0  0  0  0  0  0  0  0  0  0  0  0
   -2.7606    3.8805    2.3218 H   0  0  0  0  0  0  0  0  0  0  0  0
   -4.4539   -0.7928    2.7790 C   0  0  0  0  0  0  0  0  0  0  0  0
   -3.8190   -1.5585    3.2727 H   0  0  0  0  0  0  0  0  0  0  0  0
   -5.2630   -1.3441    2.2586 H   0  0  0  0  0  0  0  0  0  0  0  0
   -4.8966   -0.1392    3.5527 H   0  0  0  0  0  0  0  0  0  0  0  0
   -2.0841    1.5515   -0.0158 N   0  0  0  0  0  4  0  0  0  0  0  0
   -2.2541    0.5109    0.0310 H   0  0  0  0  0  0  0  0  0  0  0  0
   -3.1315   -0.7002    0.7894 O   0  0  0  0  0  0  0  0  0  0  0  0
  1  2  1  0  0  0  0
  2 23  1  0  0  0  0
  3  4  1  0  0  0  0
  3  2  2  0  0  0  0
  5  3  1  0  0  0  0
  6  5  1  0  0  0  0
  7  9  1  0  0  0  0
  7  5  2  0  0  0  0
  8  7  1  0  0  0  0
  9  1  2  0  0  0  0
 10  9  1  0  0  0  0
 11 15  1  0  0  0  0
 11 12  1  0  0  0  0
 12 13  1  0  0  0  0
 14 12  1  0  0  0  0
 14 19  1  0  0  0  0
 15 18  1  0  0  0  0
 16 15  1  0  0  0  0
 17 15  1  0  0  0  0
 19 20  1  0  0  0  0
 19 22  1  0  0  0  0
 21 19  1  0  0  0  0
 23 24  1  0  0  0  0
 23 11  2  0  0  0  0
 25 14  2  0  0  0  0
M  END
