2
q = 0.0, confidence = 1.0

 51 53  0  0  0  0  0  0  0  0999 V2000
    0.7236   -1.4386   -0.5269 C   0  0  0  0  0  0  0  0  0  0  0  0
   -0.5857    0.6433   -0.3921 C   0  0  0  0  0  2  0  0  0  0  0  0
    1.1106    2.1491   -0.5087 N   0  0  0  0  0  0  0  0  0  0  0  0
    2.0586   -0.3359    2.0355 N   0  0  0  0  0  0  0  0  0  0  0  0
    0.6166   -0.0046   -0.5733 N   0  0  0  0  0  0  0  0  0  0  0  0
    0.5988   -2.1700   -1.7164 C   0  0  0  0  0  0  0  0  0  0  0  0
    0.4291   -1.6320   -2.6601 H   0  0  0  0  0  0  0  0  0  0  0  0
    0.8955   -2.0743    0.7225 C   0  0  0  0  0  0  0  0  0  0  0  0
    3.0834    0.7110   -0.7269 C   0  0  0  0  0  0  0  0  0  0  0  0
    5.8883    0.3956   -0.8581 C   0  0  0  0  0  0  0  0  0  0  0  0
    6.9804    0.2691   -0.9046 H   0  0  0  0  0  0  0  0  0  0  0  0
   -0.2297    1.9542   -0.3708 N   0  0  0  0  0  0  0  0  0  0  0  0
    0.9368   -1.2630    2.0000 C   0  0  0  0  0  0  0  0  0  0  0  0
   -0.0039   -0.6726    2.0581 H   0  0  0  0  0  0  0  0  0  0  0  0
    0.9231   -1.9620    2.8775 H   0  0  0  0  0  0  0  0  0  0  0  0
    1.6371    0.9423   -0.6178 C   0  0  0  0  0  0  0  0  0  0  0  0
    0.8784   -4.2217   -0.4554 C   0  0  0  0  0  0  0  0  0  0  0  0
    0.9427   -5.3194   -0.4194 H   0  0  0  0  0  0  0  0  0  0  0  0
    3.3410   -0.9936    2.1907 C   0  0  0  0  0  0  0  0  0  0  0  0
    4.1610   -0.2631    2.0373 H   0  0  0  0  0  0  0  0  0  0  0  0
    3.4552   -1.7873    1.4260 H   0  0  0  0  0  0  0  0  0  0  0  0
    3.4729   -1.4654    3.2009 H   0  0  0  0  0  0  0  0  0  0  0  0
    3.6463   -0.4745   -1.2465 C   0  0  0  0  0  0  0  0  0  0  0  0
    3.0006   -1.2840   -1.6085 H   0  0  0  0  0  0  0  0  0  0  0  0
    3.9460    1.7433   -0.2886 C   0  0  0  0  0  0  0  0  0  0  0  0
    3.5017    2.6664    0.1095 H   0  0  0  0  0  0  0  0  0  0  0  0
    0.9786   -3.4775    0.7299 C   0  0  0  0  0  0  0  0  0  0  0  0
    1.1111   -3.9918    1.6945 H   0  0  0  0  0  0  0  0  0  0  0  0
    5.0390   -0.6268   -1.3064 C   0  0  0  0  0  0  0  0  0  0  0  0
    5.4624   -1.5575   -1.7131 H   0  0  0  0  0  0  0  0  0  0  0  0
   -1.1444    3.1281   -0.1731 C   0  0  0  0  0  0  0  0  0  0  0  0
    5.3342    1.5844   -0.3526 C   0  0  0  0  0  0  0  0  0  0  0  0
    5.9915    2.3943   -0.0017 H   0  0  0  0  0  0  0  0  0  0  0  0
    0.6818   -3.5689   -1.6814 C   0  0  0  0  0  0  0  0  0  0  0  0
    0.5818   -4.1471   -2.6116 H   0  0  0  0  0  0  0  0  0  0  0  0
   -0.3206    4.4148   -0.2993 C   0  0  0  0  0  0  0  0  0  0  0  0
    0.4717    4.4700    0.4701 H   0  0  0  0  0  0  0  0  0  0  0  0
   -1.0030    5.2768   -0.1684 H   0  0  0  0  0  0  0  0  0  0  0  0
    0.1626    4.4925   -1.2914 H   0  0  0  0  0  0  0  0  0  0  0  0
    1.8726    0.7752    2.9452 C   0  0  0  0  0  0  0  0  0  0  0  0
    0.9218    1.2987    2.7156 H   0  0  0  0  0  0  0  0  0  0  0  0
    2.7013    1.5021    2.8176 H   0  0  0  0  0  0  0  0  0  0  0  0
    1.8469    0.4746    4.0265 H   0  0  0  0  0  0  0  0  0  0  0  0
   -1.7551    3.0220    1.2349 C   0  0  0  0  0  0  0  0  0  0  0  0
   -2.3413    2.0873    1.3439 H   0  0  0  0  0  0  0  0  0  0  0  0
   -2.4295    3.8816    1.4154 H   0  0  0  0  0  0  0  0  0  0  0  0
   -0.9598    3.0349    2.0074 H   0  0  0  0  0  0  0  0  0  0  0  0
   -2.2337    3.0880   -1.2568 C   0  0  0  0  0  0  0  0  0  0  0  0
   -1.7830    3.1350   -2.2680 H   0  0  0  0  0  0  0  0  0  0  0  0
   -2.9087    3.9571   -1.1331 H   0  0  0  0  0  0  0  0  0  0  0  0
   -2.8391    2.1625   -1.1823 H   0  0  0  0  0  0  0  0  0  0  0  0
  1  8  1  0  0  0  0
  2 12  1  0  0  0  0
  3 12  1  0  0  0  0
  4 19  1  0  0  0  0
  4 40  1  0  0  0  0
  5  1  1  0  0  0  0
  5  2  1  0  0  0  0
  6 34  1  0  0  0  0
  6  1  2  0  0  0  0
  7  6  1  0  0  0  0
  8 27  2  0  0  0  0
  8 13  1  0  0  0  0
  9 16  1  0  0  0  0
  9 25  1  0  0  0  0
 10 32  1  0  0  0  0
 11 10  1  0  0  0  0
 12 31  1  0  0  0  0
 13  4  1  0  0  0  0
 13 14  1  0  0  0  0
 13 15  1  0  0  0  0
 16  5  1  0  0  0  0
 16  3  2  0  0  0  0
 17 18  1  0  0  0  0
 17 27  1  0  0  0  0
 19 22  1  0  0  0  0
 20 19  1  0  0  0  0
 21 19  1  0  0  0  0
 23  9  2  0  0  0  0
 24 23  1  0  0  0  0
 25 26  1  0  0  0  0
 27 28  1  0  0  0  0
 29 23  1  0  0  0  0
 29 10  2  0  0  0  0
 30 29  1  0  0  0  0
 31 44  1  0  0  0  0
 32 25  2  0  0  0  0
 32 33  1  0  0  0  0
 34 17  2  0  0  0  0
 35 34  1  0  0  0  0
 36 31  1  0  0  0  0
 36 38  1  0  0  0  0
 36 37  1  0  0  0  0
 39 36  1  0  0  0  0
 40 43  1  0  0  0  0
 41 40  1  0  0  0  0
 42 40  1  0  0  0  0
 44 45  1  0  0  0  0
 44 46  1  0  0  0  0
 44 47  1  0  0  0  0
 48 51  1  0  0  0  0
 48 50  1  0  0  0  0
 48 31  1  0  0  0  0
 49 48  1  0  0  0  0
M  END
