7
q = 0.0, confidence = 0.99

 17 16  0  0  0  0  0  0  0  0999 V2000
   -2.3438    2.9468    2.3150 O   0  0  0  0  0  0  0  0  0  0  0  0
   -1.5530    2.6871    2.8227 H   0  0  0  0  0  0  0  0  0  0  0  0
   -2.3594   -1.3058   -1.5990 N   0  0  0  0  0  0  0  0  0  0  0  0
   -1.6098   -1.7528   -2.1263 H   0  0  0  0  0  0  0  0  0  0  0  0
   -2.9611   -0.1061    0.2635 N   0  0  0  0  0  0  0  0  0  0  0  0
   -3.9325   -0.1398   -0.0660 H   0  0  0  0  0  0  0  0  0  0  0  0
   -1.9953   -0.6708   -0.4728 C   0  0  0  0  0  2  0  0  0  0  0  0
   -3.7185   -1.4361   -2.1079 C   0  0  0  0  0  0  0  0  0  0  0  0
   -3.7009   -2.0021   -3.0556 H   0  0  0  0  0  0  0  0  0  0  0  0
   -4.3693   -1.9858   -1.3939 H   0  0  0  0  0  0  0  0  0  0  0  0
   -4.1709   -0.4421   -2.3146 H   0  0  0  0  0  0  0  0  0  0  0  0
   -2.7258    0.6919    1.4620 C   0  0  0  0  0  0  0  0  0  0  0  0
   -3.6281    0.6453    2.1030 H   0  0  0  0  0  0  0  0  0  0  0  0
   -1.8901    0.2301    2.0292 H   0  0  0  0  0  0  0  0  0  0  0  0
   -2.4044    2.1663    1.1515 C   0  0  0  0  0  0  0  0  0  0  0  0
   -3.2130    2.5904    0.5187 H   0  0  0  0  0  0  0  0  0  0  0  0
   -1.4654    2.2030    0.5406 H   0  0  0  0  0  0  0  0  0  0  0  0
  1  2  1  0  0  0  0
  3  7  1  0  0  0  0
  4  3  1  0  0  0  0
  5 12  1  0  0  0  0
  6  5  1  0  0  0  0
  7  5  1  0  0  0  0
  8  3  1  0  0  0  0
  8 10  1  0  0  0  0
  9  8  1  0  0  0  0
 11  8  1  0  0  0  0
 12 14  1  0  0  0  0
 12 13  1  0  0  0  0
 15 12  1  0  0  0  0
 15  1  1  0  0  0  0
 16 15  1  0  0  0  0
 17 15  1  0  0  0  0
M  END
