5
q = -1.0, confidence = 0.004

 16 16  0  0  1  0  0  0  0  0999 V2000
    4.5192   -0.0718    1.6756 O   0  0  0  0  0  0  0  0  0  0  0  0
    4.7489    0.1378   -0.5792 O   0  0  0  0  0  0  0  0  0  0  0  0
    4.1579   -0.3471    0.5432 C   0  0  0  0  0  0  0  0  0  0  0  0
    5.7746    1.1051   -0.3483 C   0  0  0  0  0  0  0  0  0  0  0  0
    3.0252   -1.2378    0.2135 C   0  0  1  0  0  3  0  0  0  0  0  0
    2.1027   -1.7584    1.1935 C   0  0  0  0  0  0  0  0  0  0  0  0
    1.0933   -2.4817    0.4937 C   0  0  0  0  0  0  0  0  0  0  0  0
    1.3919   -2.4529   -0.9135 C   0  0  0  0  0  0  0  0  0  0  0  0
    2.5749   -1.6706   -1.0883 C   0  0  0  0  0  0  0  0  0  0  0  0
    2.1981   -1.6010    2.2736 H   0  0  0  0  0  0  0  0  0  0  0  0
    0.2268   -2.9793    0.9478 H   0  0  0  0  0  0  0  0  0  0  0  0
    0.8037   -2.9306   -1.7050 H   0  0  0  0  0  0  0  0  0  0  0  0
    3.0752   -1.4279   -2.0313 H   0  0  0  0  0  0  0  0  0  0  0  0
    6.1655    1.3829   -1.3434 H   0  0  0  0  0  0  0  0  0  0  0  0
    5.3575    1.9969    0.1627 H   0  0  0  0  0  0  0  0  0  0  0  0
    6.5833    0.6875    0.2853 H   0  0  0  0  0  0  0  0  0  0  0  0
  2  4  1  0  0  0  0
  2  3  1  0  0  0  0
  3  1  2  0  0  0  0
  4 15  1  0  0  0  0
  4 16  1  0  0  0  0
  5  3  1  6  0  0  0
  5  6  1  0  0  0  0
  6 10  1  0  0  0  0
  7 11  1  0  0  0  0
  7  6  2  0  0  0  0
  8  7  1  0  0  0  0
  9  8  2  0  0  0  0
  9  5  1  0  0  0  0
 12  8  1  0  0  0  0
 13  9  1  0  0  0  0
 14  4  1  0  0  0  0
M  END
