5
q = -1.0, confidence = 0.0

 25 24  0  0  0  0  0  0  0  0999 V2000
    3.2054   -1.4049    0.5974 O   0  0  0  0  0  0  0  0  0  0  0  0
    2.0169   -0.6270    2.3745 O   0  0  0  0  0  0  0  0  0  0  0  0
    3.7506    1.9775    0.5797 O   0  0  0  0  0  0  0  0  0  0  0  0
    4.0863    2.1190   -1.6637 O   0  0  0  0  0  0  0  0  0  0  0  0
    1.5043    0.2879    0.2676 C   0  0  0  0  0  3  0  0  0  0  0  0
    2.3438   -0.6624    1.0562 C   0  0  0  0  0  0  0  0  0  0  0  0
    2.6957   -1.5625    3.2309 C   0  0  0  0  0  0  0  0  0  0  0  0
    4.0421   -1.0226    3.6866 C   0  0  0  0  0  0  0  0  0  0  0  0
    2.2561    0.7985   -0.9468 C   0  0  0  0  0  0  0  0  0  0  0  0
    3.4253    1.6835   -0.5574 C   0  0  0  0  0  0  0  0  0  0  0  0
    5.2221    2.9768   -1.4297 C   0  0  0  0  0  0  0  0  0  0  0  0
    4.8015    4.4276   -1.2536 C   0  0  0  0  0  0  0  0  0  0  0  0
    1.2147    1.1236    0.9299 H   0  0  0  0  0  0  0  0  0  0  0  0
    2.0018   -1.7122    4.0820 H   0  0  0  0  0  0  0  0  0  0  0  0
    2.8095   -2.5225    2.6876 H   0  0  0  0  0  0  0  0  0  0  0  0
    4.5161   -1.7247    4.4027 H   0  0  0  0  0  0  0  0  0  0  0  0
    3.9260   -0.0395    4.1847 H   0  0  0  0  0  0  0  0  0  0  0  0
    4.7175   -0.8980    2.8183 H   0  0  0  0  0  0  0  0  0  0  0  0
    2.6728   -0.0422   -1.5378 H   0  0  0  0  0  0  0  0  0  0  0  0
    1.6088    1.3738   -1.6371 H   0  0  0  0  0  0  0  0  0  0  0  0
    5.7661    2.6147   -0.5333 H   0  0  0  0  0  0  0  0  0  0  0  0
    5.8639    2.8454   -2.3234 H   0  0  0  0  0  0  0  0  0  0  0  0
    5.6955    5.0771   -1.1593 H   0  0  0  0  0  0  0  0  0  0  0  0
    4.1932    4.5439   -0.3357 H   0  0  0  0  0  0  0  0  0  0  0  0
    4.2086    4.7773   -2.1224 H   0  0  0  0  0  0  0  0  0  0  0  0
  1  6  2  0  0  0  0
  2  7  1  0  0  0  0
  4 11  1  0  0  0  0
  4 10  1  0  0  0  0
  5 13  1  0  0  0  0
  5  6  1  0  0  0  0
  6  2  1  0  0  0  0
  7  8  1  0  0  0  0
  7 14  1  0  0  0  0
  8 17  1  0  0  0  0
  8 16  1  0  0  0  0
  9 10  1  0  0  0  0
  9  5  1  0  0  0  0
 10  3  2  0  0  0  0
 11 12  1  0  0  0  0
 11 21  1  0  0  0  0
 12 23  1  0  0  0  0
 12 24  1  0  0  0  0
 15  7  1  0  0  0  0
 18  8  1  0  0  0  0
 19  9  1  0  0  0  0
 20  9  1  0  0  0  0
 22 11  1  0  0  0  0
 25 12  1  0  0  0  0
M  END
