4
q = 0.0, confidence = 0.994

 62 64  0  0  1  0  0  0  0  0999 V2000
   -0.7055    0.1706   -0.6579 C   0  0  0  0  0  0  0  0  0  0  0  0
   -0.4847    1.5733   -0.5166 C   0  0  0  0  0  0  0  0  0  0  0  0
    0.8656    2.0820   -0.5087 C   0  0  2  0  0  3  0  0  0  0  0  0
    1.9595    1.1642   -0.5909 C   0  0  1  0  0  3  0  0  0  0  0  0
    1.7696   -0.2722   -0.6915 C   0  0  0  0  0  0  0  0  0  0  0  0
    2.8535   -1.2664   -0.6419 C   0  0  0  0  0  0  0  0  0  0  0  0
    4.1922   -0.9606   -0.2771 C   0  0  0  0  0  0  0  0  0  0  0  0
    4.4398    0.0590    0.0362 H   0  0  0  0  0  0  0  0  0  0  0  0
    5.1806   -1.9447   -0.2568 C   0  0  0  0  0  0  0  0  0  0  0  0
    6.2026   -1.6719    0.0468 H   0  0  0  0  0  0  0  0  0  0  0  0
    4.8805   -3.2784   -0.6026 C   0  0  0  0  0  0  0  0  0  0  0  0
    5.6674   -4.0473   -0.5929 H   0  0  0  0  0  0  0  0  0  0  0  0
    3.5701   -3.6149   -0.9271 C   0  0  0  0  0  0  0  0  0  0  0  0
    3.3031   -4.6563   -1.1650 H   0  0  0  0  0  0  0  0  0  0  0  0
    2.5420   -2.6379   -0.9342 C   0  0  0  0  0  0  0  0  0  0  0  0
    1.1801   -3.0263   -1.1903 C   0  0  0  0  0  0  0  0  0  0  0  0
    0.9769   -4.0776   -1.4466 H   0  0  0  0  0  0  0  0  0  0  0  0
    0.1524   -2.1342   -1.0822 C   0  0  0  0  0  0  0  0  0  0  0  0
   -0.8859   -2.4364   -1.2574 H   0  0  0  0  0  0  0  0  0  0  0  0
    0.4064   -0.7424   -0.8027 C   0  0  0  0  0  0  0  0  0  0  0  0
   -1.9710   -0.2988   -0.7730 O   0  0  0  0  0  0  0  0  0  0  0  0
   -3.1368   -0.9973    0.3046 Si  0  0  0  0  0  0  0  0  0  0  0  0
   -3.2508   -0.0501    1.9257 C   0  0  0  0  0  0  0  0  0  0  0  0
   -3.2892    1.0488    1.8019 H   0  0  0  0  0  0  0  0  0  0  0  0
   -2.4005   -0.2885    2.5915 H   0  0  0  0  0  0  0  0  0  0  0  0
   -4.1810   -0.3654    2.4438 H   0  0  0  0  0  0  0  0  0  0  0  0
   -2.7136   -2.7961    0.6684 C   0  0  0  0  0  0  0  0  0  0  0  0
   -2.7320   -3.4332   -0.2384 H   0  0  0  0  0  0  0  0  0  0  0  0
   -3.4681   -3.1970    1.3769 H   0  0  0  0  0  0  0  0  0  0  0  0
   -1.7240   -2.8893    1.1556 H   0  0  0  0  0  0  0  0  0  0  0  0
   -4.7539   -0.8710   -0.7158 C   0  0  0  0  0  0  0  0  0  0  0  0
   -5.2258    0.5935   -0.7785 C   0  0  0  0  0  0  0  0  0  0  0  0
   -4.4787    1.2473   -1.2692 H   0  0  0  0  0  0  0  0  0  0  0  0
   -5.4299    1.0071    0.2306 H   0  0  0  0  0  0  0  0  0  0  0  0
   -6.1690    0.6707   -1.3639 H   0  0  0  0  0  0  0  0  0  0  0  0
   -4.5095   -1.4019   -2.1407 C   0  0  0  0  0  0  0  0  0  0  0  0
   -3.7328   -0.8120   -2.6673 H   0  0  0  0  0  0  0  0  0  0  0  0
   -5.4454   -1.3487   -2.7401 H   0  0  0  0  0  0  0  0  0  0  0  0
   -4.1816   -2.4625   -2.1380 H   0  0  0  0  0  0  0  0  0  0  0  0
   -5.8343   -1.7248   -0.0217 C   0  0  0  0  0  0  0  0  0  0  0  0
   -6.0235   -1.3962    1.0220 H   0  0  0  0  0  0  0  0  0  0  0  0
   -5.5648   -2.8003    0.0054 H   0  0  0  0  0  0  0  0  0  0  0  0
   -6.7990   -1.6403   -0.5692 H   0  0  0  0  0  0  0  0  0  0  0  0
   -1.6860    2.4901   -0.5089 C   0  0  0  0  0  0  0  0  0  0  0  0
   -1.4227    3.4602   -0.0478 H   0  0  0  0  0  0  0  0  0  0  0  0
   -2.4725    2.0492    0.1312 H   0  0  0  0  0  0  0  0  0  0  0  0
   -2.2464    2.6999   -1.9242 C   0  0  0  0  0  0  0  0  0  0  0  0
   -3.1376    3.3582   -1.9010 H   0  0  0  0  0  0  0  0  0  0  0  0
   -2.5443    1.7326   -2.3737 H   0  0  0  0  0  0  0  0  0  0  0  0
   -1.4986    3.1634   -2.5973 H   0  0  0  0  0  0  0  0  0  0  0  0
    1.1682    3.5565   -0.3274 C   0  0  0  0  0  0  0  0  0  0  0  0
    2.1887    3.6351    0.0914 H   0  0  0  0  0  0  0  0  0  0  0  0
    0.4866    3.9666    0.4445 H   0  0  0  0  0  0  0  0  0  0  0  0
    1.0715    4.4038   -1.6041 C   0  0  0  0  0  0  0  0  0  0  0  0
    1.3712    5.4505   -1.3971 H   0  0  0  0  0  0  0  0  0  0  0  0
    0.0428    4.4263   -2.0133 H   0  0  0  0  0  0  0  0  0  0  0  0
    1.7362    4.0179   -2.4030 H   0  0  0  0  0  0  0  0  0  0  0  0
    3.2279    1.6988   -0.5918 O   0  0  0  0  0  0  0  0  0  0  0  0
    3.8077    1.7885   -1.8945 C   0  0  0  0  0  0  0  0  0  0  0  0
    4.8034    2.2525   -1.7658 H   0  0  0  0  0  0  0  0  0  0  0  0
    3.1908    2.4245   -2.5655 H   0  0  0  0  0  0  0  0  0  0  0  0
    3.9310    0.7861   -2.3595 H   0  0  0  0  0  0  0  0  0  0  0  0
  1  2  2  0  0  0  0
  2 44  1  0  0  0  0
  2  3  1  0  0  0  0
  3 51  1  1  0  0  0
  4 58  1  6  0  0  0
  4  3  1  0  0  0  0
  5  6  1  0  0  0  0
  5  4  1  0  0  0  0
  6  7  1  0  0  0  0
  7  9  2  0  0  0  0
  7  8  1  0  0  0  0
  9 10  1  0  0  0  0
 11 12  1  0  0  0  0
 11  9  1  0  0  0  0
 13 11  2  0  0  0  0
 14 13  1  0  0  0  0
 15 13  1  0  0  0  0
 15  6  2  0  0  0  0
 16 18  2  0  0  0  0
 16 15  1  0  0  0  0
 17 16  1  0  0  0  0
 18 20  1  0  0  0  0
 19 18  1  0  0  0  0
 20  5  2  0  0  0  0
 20  1  1  0  0  0  0
 21  1  1  0  0  0  0
 21 22  1  0  0  0  0
 22 27  1  0  0  0  0
 22 23  1  0  0  0  0
 23 26  1  0  0  0  0
 23 25  1  0  0  0  0
 24 23  1  0  0  0  0
 27 30  1  0  0  0  0
 27 29  1  0  0  0  0
 28 27  1  0  0  0  0
 31 40  1  0  0  0  0
 31 22  1  0  0  0  0
 32 31  1  0  0  0  0
 32 34  1  0  0  0  0
 33 32  1  0  0  0  0
 35 32  1  0  0  0  0
 36 39  1  0  0  0  0
 36 31  1  0  0  0  0
 37 36  1  0  0  0  0
 38 36  1  0  0  0  0
 40 42  1  0  0  0  0
 40 41  1  0  0  0  0
 43 40  1  0  0  0  0
 44 45  1  0  0  0  0
 44 46  1  0  0  0  0
 47 48  1  0  0  0  0
 47 44  1  0  0  0  0
 49 47  1  0  0  0  0
 50 47  1  0  0  0  0
 51 52  1  0  0  0  0
 51 53  1  0  0  0  0
 54 55  1  0  0  0  0
 54 51  1  0  0  0  0
 56 54  1  0  0  0  0
 57 54  1  0  0  0  0
 59 60  1  0  0  0  0
 59 58  1  0  0  0  0
 61 59  1  0  0  0  0
 62 59  1  0  0  0  0
M  END
