3
q = 0.0, confidence = 0.998

 55 59  0  0  0  0  0  0  0  0999 V2000
    1.5180    0.8853    0.1011 N   0  0  0  0  0  0  0  0  0  0  0  0
   -0.2813    2.0947    0.2397 N   0  0  0  0  0  0  0  0  0  0  0  0
    0.1554    0.7997    0.1048 C   0  0  0  0  0  2  0  0  0  0  0  0
    1.9259    2.2127    0.2346 C   0  0  0  0  0  0  0  0  0  0  0  0
    2.9839    2.4856    0.2539 H   0  0  0  0  0  0  0  0  0  0  0  0
    0.7959    2.9726    0.3216 C   0  0  0  0  0  0  0  0  0  0  0  0
    0.6511    4.0504    0.4343 H   0  0  0  0  0  0  0  0  0  0  0  0
   -1.6591    2.5218    0.2720 C   0  0  0  0  0  0  0  0  0  0  0  0
   -2.2770    2.9105   -0.9390 C   0  0  0  0  0  0  0  0  0  0  0  0
   -3.6272    3.3013   -0.8830 C   0  0  0  0  0  0  0  0  0  0  0  0
   -4.1273    3.5971   -1.8192 H   0  0  0  0  0  0  0  0  0  0  0  0
   -4.3444    3.3404    0.3265 C   0  0  0  0  0  0  0  0  0  0  0  0
   -3.6630    3.0230    1.5154 C   0  0  0  0  0  0  0  0  0  0  0  0
   -4.1917    3.0976    2.4792 H   0  0  0  0  0  0  0  0  0  0  0  0
   -2.3139    2.6251    1.5208 C   0  0  0  0  0  0  0  0  0  0  0  0
   -1.5164    2.9339   -2.2357 C   0  0  0  0  0  0  0  0  0  0  0  0
   -2.1267    3.3824   -3.0420 H   0  0  0  0  0  0  0  0  0  0  0  0
   -1.2290    1.9055   -2.5451 H   0  0  0  0  0  0  0  0  0  0  0  0
   -0.5767    3.5174   -2.1472 H   0  0  0  0  0  0  0  0  0  0  0  0
   -5.8051    3.7148    0.3496 C   0  0  0  0  0  0  0  0  0  0  0  0
   -6.4458    2.8089    0.2844 H   0  0  0  0  0  0  0  0  0  0  0  0
   -6.0748    4.3672   -0.5041 H   0  0  0  0  0  0  0  0  0  0  0  0
   -6.0790    4.2376    1.2874 H   0  0  0  0  0  0  0  0  0  0  0  0
   -1.5930    2.3487    2.8103 C   0  0  0  0  0  0  0  0  0  0  0  0
   -0.6337    2.9030    2.8680 H   0  0  0  0  0  0  0  0  0  0  0  0
   -1.3423    1.2697    2.9043 H   0  0  0  0  0  0  0  0  0  0  0  0
   -2.2140    2.6386    3.6785 H   0  0  0  0  0  0  0  0  0  0  0  0
    2.5561   -0.1784   -0.0414 C   0  0  0  0  0  0  0  0  0  0  0  0
    3.5331   -0.0910    1.1327 C   0  0  0  0  0  0  0  0  0  0  0  0
    3.2608   -0.2617    2.4909 C   0  0  0  0  0  0  0  0  0  0  0  0
    2.2312   -0.4579    2.8332 H   0  0  0  0  0  0  0  0  0  0  0  0
    4.3325   -0.1747    3.4004 C   0  0  0  0  0  0  0  0  0  0  0  0
    4.1450   -0.3030    4.4772 H   0  0  0  0  0  0  0  0  0  0  0  0
    5.6416    0.0720    2.9457 C   0  0  0  0  0  0  0  0  0  0  0  0
    6.4661    0.1322    3.6724 H   0  0  0  0  0  0  0  0  0  0  0  0
    5.9107    0.2438    1.5767 C   0  0  0  0  0  0  0  0  0  0  0  0
    6.9372    0.4371    1.2295 H   0  0  0  0  0  0  0  0  0  0  0  0
    4.8453    0.1654    0.6653 C   0  0  0  0  0  0  0  0  0  0  0  0
    4.8000    0.3198   -0.8002 C   0  0  0  0  0  0  0  0  0  0  0  0
    5.8081    0.5932   -1.7387 C   0  0  0  0  0  0  0  0  0  0  0  0
    6.8551    0.7171   -1.4223 H   0  0  0  0  0  0  0  0  0  0  0  0
    5.4547    0.7078   -3.0944 C   0  0  0  0  0  0  0  0  0  0  0  0
    6.2335    0.9232   -3.8418 H   0  0  0  0  0  0  0  0  0  0  0  0
    4.1188    0.5517   -3.5095 C   0  0  0  0  0  0  0  0  0  0  0  0
    3.8650    0.6479   -4.5760 H   0  0  0  0  0  0  0  0  0  0  0  0
    3.1041    0.2704   -2.5744 C   0  0  0  0  0  0  0  0  0  0  0  0
    2.0547    0.1417   -2.8876 H   0  0  0  0  0  0  0  0  0  0  0  0
    3.4601    0.1576   -1.2295 C   0  0  0  0  0  0  0  0  0  0  0  0
    1.9647   -1.5974   -0.1730 C   0  0  0  0  0  0  0  0  0  0  0  0
    1.3413   -1.7937    0.7231 H   0  0  0  0  0  0  0  0  0  0  0  0
    1.2826   -1.6073   -1.0479 H   0  0  0  0  0  0  0  0  0  0  0  0
    3.0271   -2.6861   -0.3237 C   0  0  0  0  0  0  0  0  0  0  0  0
    2.5351   -3.6744   -0.4136 H   0  0  0  0  0  0  0  0  0  0  0  0
    3.6478   -2.5363   -1.2298 H   0  0  0  0  0  0  0  0  0  0  0  0
    3.7064   -2.7260    0.5514 H   0  0  0  0  0  0  0  0  0  0  0  0
  1  3  1  0  0  0  0
  1  4  1  0  0  0  0
  2  8  1  0  0  0  0
  2  6  1  0  0  0  0
  3  2  1  0  0  0  0
  4  5  1  0  0  0  0
  4  6  2  0  0  0  0
  6  7  1  0  0  0  0
  8 15  1  0  0  0  0
  9 10  1  0  0  0  0
  9  8  2  0  0  0  0
 10 12  2  0  0  0  0
 11 10  1  0  0  0  0
 12 20  1  0  0  0  0
 12 13  1  0  0  0  0
 13 15  2  0  0  0  0
 13 14  1  0  0  0  0
 15 24  1  0  0  0  0
 16 19  1  0  0  0  0
 16  9  1  0  0  0  0
 17 16  1  0  0  0  0
 18 16  1  0  0  0  0
 20 23  1  0  0  0  0
 21 20  1  0  0  0  0
 22 20  1  0  0  0  0
 24 25  1  0  0  0  0
 24 26  1  0  0  0  0
 24 27  1  0  0  0  0
 28  1  1  0  0  0  0
 28 29  1  0  0  0  0
 29 30  1  0  0  0  0
 30 31  1  0  0  0  0
 30 32  2  0  0  0  0
 32 33  1  0  0  0  0
 34 32  1  0  0  0  0
 34 35  1  0  0  0  0
 36 34  2  0  0  0  0
 37 36  1  0  0  0  0
 38 29  2  0  0  0  0
 38 36  1  0  0  0  0
 39 38  1  0  0  0  0
 40 41  1  0  0  0  0
 40 39  2  0  0  0  0
 42 40  1  0  0  0  0
 43 42  1  0  0  0  0
 44 42  2  0  0  0  0
 44 46  1  0  0  0  0
 45 44  1  0  0  0  0
 46 48  2  0  0  0  0
 47 46  1  0  0  0  0
 48 39  1  0  0  0  0
 48 28  1  0  0  0  0
 49 28  1  0  0  0  0
 49 50  1  0  0  0  0
 51 49  1  0  0  0  0
 52 49  1  0  0  0  0
 52 55  1  0  0  0  0
 53 52  1  0  0  0  0
 54 52  1  0  0  0  0
M  END
