3
q = 0.0, confidence = 0.99

 33 35  0  0  1  0  0  0  0  0999 V2000
    0.5234   -0.9799    1.0593 C   0  0  1  0  0  0  0  0  0  0  0  0
   -0.0682    0.3053    0.5442 C   0  0  0  0  0  3  0  0  0  0  0  0
   -0.2122    0.6701   -0.8484 C   0  0  0  0  0  3  0  0  0  0  0  0
   -1.0233   -0.1214   -1.7044 C   0  0  0  0  0  3  0  0  0  0  0  0
   -1.7080   -1.2795   -1.1838 C   0  0  0  0  0  3  0  0  0  0  0  0
   -1.0911   -2.4896   -0.5182 C   0  0  0  0  0  0  0  0  0  0  0  0
    0.1889   -2.2805    0.2696 C   0  0  1  0  0  0  0  0  0  0  0  0
    1.5154   -2.0952   -0.4668 C   0  0  0  0  0  0  0  0  0  0  0  0
    1.9120   -2.4624   -1.5511 O   0  0  0  0  0  0  0  0  0  0  0  0
    2.0641   -1.1439    0.6243 C   0  0  2  0  0  0  0  0  0  0  0  0
    2.8714   -1.9375    1.6701 C   0  0  0  0  0  0  0  0  0  0  0  0
    2.8182    0.0980    0.1948 C   0  0  0  0  0  0  0  0  0  0  0  0
    3.3535    0.2329   -1.1014 C   0  0  0  0  0  0  0  0  0  0  0  0
    4.0357    1.4037   -1.4714 C   0  0  0  0  0  0  0  0  0  0  0  0
    4.1939    2.4544   -0.5559 C   0  0  0  0  0  0  0  0  0  0  0  0
    3.6716    2.3256    0.7418 C   0  0  0  0  0  0  0  0  0  0  0  0
    2.9953    1.1556    1.1135 C   0  0  0  0  0  0  0  0  0  0  0  0
    0.3677   -1.0530    2.1534 H   0  0  0  0  0  0  0  0  0  0  0  0
    0.2659    1.1548    1.1639 H   0  0  0  0  0  0  0  0  0  0  0  0
    0.1583    1.6411   -1.2139 H   0  0  0  0  0  0  0  0  0  0  0  0
   -1.2704    0.2736   -2.7034 H   0  0  0  0  0  0  0  0  0  0  0  0
   -2.5675   -1.5833   -1.8081 H   0  0  0  0  0  0  0  0  0  0  0  0
   -0.8510   -3.2277   -1.3193 H   0  0  0  0  0  0  0  0  0  0  0  0
   -1.8609   -2.9764    0.1153 H   0  0  0  0  0  0  0  0  0  0  0  0
    0.3341   -3.1453    0.9527 H   0  0  0  0  0  0  0  0  0  0  0  0
    3.0889   -1.2966    2.5480 H   0  0  0  0  0  0  0  0  0  0  0  0
    3.8375   -2.2661    1.2387 H   0  0  0  0  0  0  0  0  0  0  0  0
    2.3257   -2.8346    2.0259 H   0  0  0  0  0  0  0  0  0  0  0  0
    3.2312   -0.5919   -1.8175 H   0  0  0  0  0  0  0  0  0  0  0  0
    4.4475    1.4925   -2.4885 H   0  0  0  0  0  0  0  0  0  0  0  0
    4.7262    3.3718   -0.8496 H   0  0  0  0  0  0  0  0  0  0  0  0
    3.7926    3.1421    1.4701 H   0  0  0  0  0  0  0  0  0  0  0  0
    2.5924    1.0644    2.1350 H   0  0  0  0  0  0  0  0  0  0  0  0
  1 18  1  1  0  0  0
  2  1  1  0  0  0  0
  2 19  1  0  0  0  0
  3  2  1  0  0  0  0
  4  5  1  0  0  0  0
  4  3  1  0  0  0  0
  5  6  1  0  0  0  0
  6 24  1  0  0  0  0
  6  7  1  0  0  0  0
  7 25  1  1  0  0  0
  7  1  1  0  0  0  0
  8  7  1  0  0  0  0
  8 10  1  0  0  0  0
  9  8  2  0  0  0  0
 10  1  1  0  0  0  0
 10 11  1  1  0  0  0
 11 28  1  0  0  0  0
 11 26  1  0  0  0  0
 12 10  1  0  0  0  0
 12 17  1  0  0  0  0
 13 12  2  0  0  0  0
 14 13  1  0  0  0  0
 14 15  2  0  0  0  0
 15 16  1  0  0  0  0
 16 17  2  0  0  0  0
 16 32  1  0  0  0  0
 17 33  1  0  0  0  0
 20  3  1  0  0  0  0
 21  4  1  0  0  0  0
 22  5  1  0  0  0  0
 23  6  1  0  0  0  0
 27 11  1  0  0  0  0
 29 13  1  0  0  0  0
 30 14  1  0  0  0  0
 31 15  1  0  0  0  0
M  END
