7
q = -1.0, confidence = 0.002

 11 10  0  0  0  0  0  0  0  0999 V2000
   -1.3394    0.7396    3.3480 F   0  0  0  0  0  0  0  0  0  0  0  0
   -2.5657    0.8022    1.5243 F   0  0  0  0  0  0  0  0  0  0  0  0
   -1.0831   -1.9688    3.1830 F   0  0  0  0  0  0  0  0  0  0  0  0
   -3.1522   -1.2758    3.1075 F   0  0  0  0  0  0  0  0  0  0  0  0
   -2.1571   -1.9456    1.1982 O   0  0  0  0  0  0  0  0  0  0  0  0
   -2.7500   -3.2425    1.2743 C   0  0  0  0  0  0  0  0  0  0  0  0
   -1.4761    0.1410    2.1134 C   0  0  0  0  0  3  0  0  0  0  0  0
   -1.9818   -1.2979    2.3850 C   0  0  0  0  0  0  0  0  0  0  0  0
   -2.7658   -3.6282    0.2391 H   0  0  0  0  0  0  0  0  0  0  0  0
   -3.7876   -3.1837    1.6615 H   0  0  0  0  0  0  0  0  0  0  0  0
   -2.1526   -3.9172    1.9225 H   0  0  0  0  0  0  0  0  0  0  0  0
  2  7  1  0  0  0  0
  5  6  1  0  0  0  0
  5  8  1  0  0  0  0
  6 10  1  0  0  0  0
  6 11  1  0  0  0  0
  7  8  1  0  0  0  0
  7  1  1  0  0  0  0
  8  4  1  0  0  0  0
  8  3  1  0  0  0  0
  9  6  1  0  0  0  0
M  END
