2
q = 0.0, confidence = 0.96

 25 26  0  0  0  0  0  0  0  0999 V2000
    0.3825   -1.2721    2.6337 O   0  0  0  0  0  0  0  0  0  0  0  0
    0.1349   -0.6320    1.6477 C   0  0  0  0  0  3  0  0  0  0  0  0
    0.6053    0.5004    0.8674 C   0  0  0  0  0  3  0  0  0  0  0  0
   -0.4381    1.3883    0.3441 C   0  0  0  0  0  0  0  0  0  0  0  0
   -1.3306    2.1375    1.1837 C   0  0  0  0  0  0  0  0  0  0  0  0
   -2.4199    2.7987    0.6452 C   0  0  0  0  0  0  0  0  0  0  0  0
   -2.6866    2.7444   -0.7537 C   0  0  0  0  0  0  0  0  0  0  0  0
   -1.8318    2.0509   -1.5962 C   0  0  0  0  0  0  0  0  0  0  0  0
   -0.7011    1.3545   -1.0750 C   0  0  0  0  0  0  0  0  0  0  0  0
    2.0157    0.5435    0.4257 C   0  0  0  0  0  0  0  0  0  0  0  0
    2.9432   -0.4645    0.7934 C   0  0  0  0  0  0  0  0  0  0  0  0
    4.2800   -0.3971    0.3833 C   0  0  0  0  0  0  0  0  0  0  0  0
    4.7355    0.6774   -0.3991 C   0  0  0  0  0  0  0  0  0  0  0  0
    3.8348    1.6960   -0.7487 C   0  0  0  0  0  0  0  0  0  0  0  0
    2.4963    1.6361   -0.3387 C   0  0  0  0  0  0  0  0  0  0  0  0
   -1.1264    2.1688    2.2640 H   0  0  0  0  0  0  0  0  0  0  0  0
   -3.0865    3.3775    1.3024 H   0  0  0  0  0  0  0  0  0  0  0  0
   -3.5579    3.2763   -1.1638 H   0  0  0  0  0  0  0  0  0  0  0  0
   -2.0003    2.0569   -2.6843 H   0  0  0  0  0  0  0  0  0  0  0  0
    0.0937    1.0328   -1.7616 H   0  0  0  0  0  0  0  0  0  0  0  0
    2.6114   -1.3037    1.4218 H   0  0  0  0  0  0  0  0  0  0  0  0
    4.9774   -1.1942    0.6839 H   0  0  0  0  0  0  0  0  0  0  0  0
    5.7864    0.7269   -0.7210 H   0  0  0  0  0  0  0  0  0  0  0  0
    4.1795    2.5579   -1.3407 H   0  0  0  0  0  0  0  0  0  0  0  0
    1.8109    2.4558   -0.5976 H   0  0  0  0  0  0  0  0  0  0  0  0
  2  1  2  0  0  0  0
  3  2  1  0  0  0  0
  4  3  1  0  0  0  0
  4  5  1  0  0  0  0
  5 16  1  0  0  0  0
  6  5  2  0  0  0  0
  6 17  1  0  0  0  0
  7  6  1  0  0  0  0
  8  9  1  0  0  0  0
  8  7  2  0  0  0  0
  9  4  2  0  0  0  0
 10 11  1  0  0  0  0
 10  3  1  0  0  0  0
 11 21  1  0  0  0  0
 12 22  1  0  0  0  0
 12 11  2  0  0  0  0
 13 12  1  0  0  0  0
 14 13  2  0  0  0  0
 14 15  1  0  0  0  0
 15 10  2  0  0  0  0
 18  7  1  0  0  0  0
 19  8  1  0  0  0  0
 20  9  1  0  0  0  0
 23 13  1  0  0  0  0
 24 14  1  0  0  0  0
 25 15  1  0  0  0  0
M  END
