8
q = 0.0, confidence = 0.996

 70 75  0  0  0  0  0  0  0  0999 V2000
    2.3576   -0.0675   -0.0236 P   0  0  0  0  0  0  0  0  0  0  0  0
    2.9127    1.5736    0.5579 C   0  0  0  0  0  0  0  0  0  0  0  0
    1.9099    2.5568    0.4089 C   0  0  0  0  0  0  0  0  0  0  0  0
    2.1680    3.8651    0.8548 C   0  0  0  0  0  0  0  0  0  0  0  0
    3.4066    4.1796    1.4381 C   0  0  0  0  0  0  0  0  0  0  0  0
    4.4007    3.1971    1.5728 C   0  0  0  0  0  0  0  0  0  0  0  0
    4.1549    1.8862    1.1332 C   0  0  0  0  0  0  0  0  0  0  0  0
    0.6387    2.2035   -0.3009 C   0  0  0  0  0  3  0  0  0  0  0  0
    3.0881   -0.3259   -1.6818 C   0  0  0  0  0  0  0  0  0  0  0  0
    2.5593   -1.3531   -2.4938 C   0  0  0  0  0  0  0  0  0  0  0  0
    3.1136   -1.5897   -3.7595 C   0  0  0  0  0  0  0  0  0  0  0  0
    4.1728   -0.7969   -4.2299 C   0  0  0  0  0  0  0  0  0  0  0  0
    4.6826    0.2386   -3.4310 C   0  0  0  0  0  0  0  0  0  0  0  0
    4.1432    0.4766   -2.1576 C   0  0  0  0  0  0  0  0  0  0  0  0
    3.1561   -1.3122    1.0534 C   0  0  0  0  0  0  0  0  0  0  0  0
    3.5658   -2.5535    0.5264 C   0  0  0  0  0  0  0  0  0  0  0  0
    4.1440   -3.5160    1.3657 C   0  0  0  0  0  0  0  0  0  0  0  0
    4.3177   -3.2494    2.7325 C   0  0  0  0  0  0  0  0  0  0  0  0
    3.9067   -2.0152    3.2605 C   0  0  0  0  0  0  0  0  0  0  0  0
    3.3206   -1.0496    2.4307 C   0  0  0  0  0  0  0  0  0  0  0  0
    1.3914    4.6381    0.7493 H   0  0  0  0  0  0  0  0  0  0  0  0
    3.5945    5.2028    1.7974 H   0  0  0  0  0  0  0  0  0  0  0  0
    5.3671    3.4490    2.0347 H   0  0  0  0  0  0  0  0  0  0  0  0
    4.9165    1.1020    1.2593 H   0  0  0  0  0  0  0  0  0  0  0  0
    1.7053   -1.9472   -2.1334 H   0  0  0  0  0  0  0  0  0  0  0  0
    2.6996   -2.3908   -4.3902 H   0  0  0  0  0  0  0  0  0  0  0  0
    4.5978   -0.9811   -5.2284 H   0  0  0  0  0  0  0  0  0  0  0  0
    5.5064    0.8685   -3.7999 H   0  0  0  0  0  0  0  0  0  0  0  0
    4.5423    1.2913   -1.5352 H   0  0  0  0  0  0  0  0  0  0  0  0
    3.4404   -2.7688   -0.5435 H   0  0  0  0  0  0  0  0  0  0  0  0
    4.4604   -4.4823    0.9449 H   0  0  0  0  0  0  0  0  0  0  0  0
    4.7732   -4.0065    3.3890 H   0  0  0  0  0  0  0  0  0  0  0  0
    4.0341   -1.8017    4.3326 H   0  0  0  0  0  0  0  0  0  0  0  0
    2.9710   -0.0974    2.8510 H   0  0  0  0  0  0  0  0  0  0  0  0
    0.6726    2.3199   -1.4014 H   0  0  0  0  0  0  0  0  0  0  0  0
   -2.3576   -0.0675    0.0236 P   0  0  0  0  0  0  0  0  0  0  0  0
   -0.6388    2.2036    0.2994 C   0  0  0  0  0  3  0  0  0  0  0  0
   -2.9127    1.5731   -0.5590 C   0  0  0  0  0  0  0  0  0  0  0  0
   -3.0880   -0.3248    1.6820 C   0  0  0  0  0  0  0  0  0  0  0  0
   -3.1561   -1.3130   -1.0525 C   0  0  0  0  0  0  0  0  0  0  0  0
   -1.9100    2.5565   -0.4107 C   0  0  0  0  0  0  0  0  0  0  0  0
   -0.6726    2.3208    1.3998 H   0  0  0  0  0  0  0  0  0  0  0  0
   -4.1550    1.8854   -1.1345 C   0  0  0  0  0  0  0  0  0  0  0  0
   -2.5590   -1.3513    2.4948 C   0  0  0  0  0  0  0  0  0  0  0  0
   -4.1431    0.4780    2.1573 C   0  0  0  0  0  0  0  0  0  0  0  0
   -3.5658   -2.5540   -0.5246 C   0  0  0  0  0  0  0  0  0  0  0  0
   -3.3207   -1.0513   -2.4300 C   0  0  0  0  0  0  0  0  0  0  0  0
   -2.1681    3.8645   -0.8573 C   0  0  0  0  0  0  0  0  0  0  0  0
   -4.4008    3.1959   -1.5750 C   0  0  0  0  0  0  0  0  0  0  0  0
   -4.9166    1.1010   -1.2601 H   0  0  0  0  0  0  0  0  0  0  0  0
   -3.1132   -1.5869    3.7608 C   0  0  0  0  0  0  0  0  0  0  0  0
   -1.7050   -1.9455    2.1349 H   0  0  0  0  0  0  0  0  0  0  0  0
   -4.6824    0.2409    3.4309 C   0  0  0  0  0  0  0  0  0  0  0  0
   -4.5424    1.2921    1.5343 H   0  0  0  0  0  0  0  0  0  0  0  0
   -4.1441   -3.5170   -1.3633 C   0  0  0  0  0  0  0  0  0  0  0  0
   -3.4404   -2.7685    0.5454 H   0  0  0  0  0  0  0  0  0  0  0  0
   -3.9069   -2.0175   -3.2591 C   0  0  0  0  0  0  0  0  0  0  0  0
   -2.9711   -0.0994   -2.8509 H   0  0  0  0  0  0  0  0  0  0  0  0
   -3.4068    4.1786   -1.4408 C   0  0  0  0  0  0  0  0  0  0  0  0
   -1.3915    4.6376   -0.7524 H   0  0  0  0  0  0  0  0  0  0  0  0
   -5.3672    3.4475   -2.0370 H   0  0  0  0  0  0  0  0  0  0  0  0
   -4.1725   -0.7939    4.2306 C   0  0  0  0  0  0  0  0  0  0  0  0
   -2.6990   -2.3875    4.3920 H   0  0  0  0  0  0  0  0  0  0  0  0
   -5.5062    0.8710    3.7994 H   0  0  0  0  0  0  0  0  0  0  0  0
   -4.3179   -3.2513   -2.7302 C   0  0  0  0  0  0  0  0  0  0  0  0
   -4.4604   -4.4830   -0.9418 H   0  0  0  0  0  0  0  0  0  0  0  0
   -4.0344   -1.8047   -4.3313 H   0  0  0  0  0  0  0  0  0  0  0  0
   -3.5947    5.2015   -1.8008 H   0  0  0  0  0  0  0  0  0  0  0  0
   -4.5974   -0.9774    5.2293 H   0  0  0  0  0  0  0  0  0  0  0  0
   -4.7734   -4.0089   -3.3862 H   0  0  0  0  0  0  0  0  0  0  0  0
  1  2  1  0  0  0  0
  1 15  1  0  0  0  0
  2  7  1  0  0  0  0
  3  2  2  0  0  0  0
  3  4  1  0  0  0  0
  4  5  2  0  0  0  0
  5  6  1  0  0  0  0
  5 22  1  0  0  0  0
  6 23  1  0  0  0  0
  7 24  1  0  0  0  0
  7  6  2  0  0  0  0
  8 37  1  0  0  0  0
  8  3  1  0  0  0  0
  9  1  1  0  0  0  0
 10 25  1  0  0  0  0
 10  9  2  0  0  0  0
 11 10  1  0  0  0  0
 12 11  2  0  0  0  0
 12 13  1  0  0  0  0
 13 14  2  0  0  0  0
 14  9  1  0  0  0  0
 14 29  1  0  0  0  0
 15 20  1  0  0  0  0
 16 15  2  0  0  0  0
 16 17  1  0  0  0  0
 17 18  2  0  0  0  0
 18 19  1  0  0  0  0
 18 32  1  0  0  0  0
 19 33  1  0  0  0  0
 20 34  1  0  0  0  0
 20 19  2  0  0  0  0
 21  4  1  0  0  0  0
 26 11  1  0  0  0  0
 27 12  1  0  0  0  0
 28 13  1  0  0  0  0
 30 16  1  0  0  0  0
 31 17  1  0  0  0  0
 35  8  1  0  0  0  0
 36 39  1  0  0  0  0
 37 42  1  0  0  0  0
 38 41  1  0  0  0  0
 38 36  1  0  0  0  0
 39 45  2  0  0  0  0
 39 44  1  0  0  0  0
 40 46  1  0  0  0  0
 40 36  1  0  0  0  0
 41 37  1  0  0  0  0
 43 38  2  0  0  0  0
 44 51  2  0  0  0  0
 45 53  1  0  0  0  0
 46 56  1  0  0  0  0
 47 40  2  0  0  0  0
 48 60  1  0  0  0  0
 48 41  2  0  0  0  0
 49 59  2  0  0  0  0
 49 43  1  0  0  0  0
 50 43  1  0  0  0  0
 51 62  1  0  0  0  0
 51 63  1  0  0  0  0
 52 44  1  0  0  0  0
 53 64  1  0  0  0  0
 53 62  2  0  0  0  0
 54 45  1  0  0  0  0
 55 66  1  0  0  0  0
 55 46  2  0  0  0  0
 57 65  2  0  0  0  0
 57 47  1  0  0  0  0
 58 47  1  0  0  0  0
 59 48  1  0  0  0  0
 61 49  1  0  0  0  0
 62 69  1  0  0  0  0
 65 55  1  0  0  0  0
 67 57  1  0  0  0  0
 68 59  1  0  0  0  0
 70 65  1  0  0  0  0
M  END
