3
q = 0.0, confidence = 1.0

 34 36  0  0  1  0  0  0  0  0999 V2000
   -1.8948   -1.1346    0.2868 N   0  0  0  0  0  0  0  0  0  0  0  0
   -3.1618    0.5377   -0.3923 N   0  0  0  0  0  0  0  0  0  0  0  0
   -0.9990   -0.1230   -0.0750 C   0  0  0  0  0  3  0  0  0  0  0  0
   -3.2100   -0.7325    0.0909 C   0  0  1  0  0  3  0  0  0  0  0  0
   -1.8096    0.9278   -0.5025 C   0  0  0  0  0  0  0  0  0  0  0  0
   -1.6133   -2.3900    0.7694 C   0  0  0  0  0  0  0  0  0  0  0  0
   -0.5425   -2.6059    0.8853 H   0  0  0  0  0  0  0  0  0  0  0  0
   -2.6455   -3.2573    1.0489 C   0  0  0  0  0  0  0  0  0  0  0  0
   -2.4013   -4.2576    1.4329 H   0  0  0  0  0  0  0  0  0  0  0  0
   -4.0114   -2.8833    0.8443 C   0  0  0  0  0  0  0  0  0  0  0  0
   -5.1131   -3.8588    1.1534 C   0  0  0  0  0  0  0  0  0  0  0  0
   -6.1127   -3.4338    0.9430 H   0  0  0  0  0  0  0  0  0  0  0  0
   -5.0863   -4.1631    2.2208 H   0  0  0  0  0  0  0  0  0  0  0  0
   -5.0007   -4.7873    0.5552 H   0  0  0  0  0  0  0  0  0  0  0  0
   -4.2822   -1.6024    0.3587 C   0  0  0  0  0  0  0  0  0  0  0  0
   -5.3142   -1.2671    0.1880 H   0  0  0  0  0  0  0  0  0  0  0  0
   -4.3460    1.2903   -0.8002 C   0  0  0  0  0  0  0  0  0  0  0  0
   -4.9797    0.6168   -1.4149 H   0  0  0  0  0  0  0  0  0  0  0  0
   -3.9950    2.0984   -1.4697 H   0  0  0  0  0  0  0  0  0  0  0  0
   -5.1422    1.8585    0.3739 C   0  0  0  0  0  0  0  0  0  0  0  0
   -5.5147    1.0578    1.0428 H   0  0  0  0  0  0  0  0  0  0  0  0
   -6.0168    2.4252   -0.0020 H   0  0  0  0  0  0  0  0  0  0  0  0
   -4.5238    2.5439    0.9858 H   0  0  0  0  0  0  0  0  0  0  0  0
   -1.3691    2.2361   -1.0021 C   0  0  0  0  0  0  0  0  0  0  0  0
   -1.9401    3.4506   -0.5577 C   0  0  0  0  0  0  0  0  0  0  0  0
   -2.7344    3.4381    0.2023 H   0  0  0  0  0  0  0  0  0  0  0  0
   -1.4609    4.6792   -1.0325 C   0  0  0  0  0  0  0  0  0  0  0  0
   -1.9085    5.6158   -0.6670 H   0  0  0  0  0  0  0  0  0  0  0  0
   -0.3991    4.7161   -1.9498 C   0  0  0  0  0  0  0  0  0  0  0  0
   -0.0208    5.6821   -2.3175 H   0  0  0  0  0  0  0  0  0  0  0  0
    0.1831    3.5153   -2.3880 C   0  0  0  0  0  0  0  0  0  0  0  0
    1.0175    3.5347   -3.1054 H   0  0  0  0  0  0  0  0  0  0  0  0
   -0.2949    2.2843   -1.9219 C   0  0  0  0  0  0  0  0  0  0  0  0
    0.1541    1.3402   -2.2670 H   0  0  0  0  0  0  0  0  0  0  0  0
  1  6  1  0  0  0  0
  2  4  1  0  0  0  0
  3  1  1  0  0  0  0
  4  1  1  0  0  0  0
  4 15  1  6  0  0  0
  5  2  1  0  0  0  0
  5  3  2  0  0  0  0
  6  7  1  0  0  0  0
  6  8  2  0  0  0  0
  8  9  1  0  0  0  0
 10  8  1  0  0  0  0
 10 11  1  0  0  0  0
 11 13  1  0  0  0  0
 12 11  1  0  0  0  0
 14 11  1  0  0  0  0
 15 10  2  0  0  0  0
 16 15  1  0  0  0  0
 17  2  1  0  0  0  0
 17 20  1  0  0  0  0
 18 17  1  0  0  0  0
 19 17  1  0  0  0  0
 20 23  1  0  0  0  0
 20 21  1  0  0  0  0
 22 20  1  0  0  0  0
 24 25  1  0  0  0  0
 24  5  1  0  0  0  0
 25 26  1  0  0  0  0
 27 28  1  0  0  0  0
 27 25  2  0  0  0  0
 29 27  1  0  0  0  0
 30 29  1  0  0  0  0
 31 29  2  0  0  0  0
 31 33  1  0  0  0  0
 32 31  1  0  0  0  0
 33 24  2  0  0  0  0
 34 33  1  0  0  0  0
M  END
