1
q = -1.0, confidence = 0.036

 13 12  0  0  0  0  0  0  0  0999 V2000
   -2.7443   -0.8746   -0.4396 C   0  0  0  0  0  3  0  0  0  0  0  0
   -2.9522   -1.9287    0.6557 C   0  0  0  0  0  0  0  0  0  0  0  0
   -2.8633   -1.5014    1.6784 H   0  0  0  0  0  0  0  0  0  0  0  0
   -2.2110   -2.7536    0.5830 H   0  0  0  0  0  0  0  0  0  0  0  0
   -3.9684   -2.3995    0.5930 H   0  0  0  0  0  0  0  0  0  0  0  0
   -2.8999   -1.5513   -1.8100 C   0  0  0  0  0  0  0  0  0  0  0  0
   -3.9121   -2.0204   -1.9276 H   0  0  0  0  0  0  0  0  0  0  0  0
   -2.1531   -2.3606   -1.9634 H   0  0  0  0  0  0  0  0  0  0  0  0
   -2.7803   -0.8300   -2.6475 H   0  0  0  0  0  0  0  0  0  0  0  0
   -3.8213    0.2068   -0.3054 C   0  0  0  0  0  0  0  0  0  0  0  0
   -4.8524   -0.2189   -0.4219 H   0  0  0  0  0  0  0  0  0  0  0  0
   -3.7161    1.0052   -1.0719 H   0  0  0  0  0  0  0  0  0  0  0  0
   -3.8067    0.7003    0.6923 H   0  0  0  0  0  0  0  0  0  0  0  0
  1 10  1  0  0  0  0
  1  2  1  0  0  0  0
  2  3  1  0  0  0  0
  4  2  1  0  0  0  0
  5  2  1  0  0  0  0
  6  1  1  0  0  0  0
  7  6  1  0  0  0  0
  8  6  1  0  0  0  0
  9  6  1  0  0  0  0
 10 13  1  0  0  0  0
 11 10  1  0  0  0  0
 12 10  1  0  0  0  0
M  END
