5
q = 0.0, confidence = 0.972

 27 28  0  0  1  0  0  0  0  0999 V2000
    2.7733   -2.1893   -1.3901 O   0  0  0  0  0  0  0  0  0  0  0  0
    3.2467    2.5527   -0.9904 O   0  0  0  0  0  0  0  0  0  0  0  0
    3.6091   -3.1169    2.3902 N   0  0  0  0  0  0  0  0  0  0  0  0
    1.5219    0.3083    1.1429 C   0  0  0  0  0  3  0  0  0  0  0  0
    1.4652   -0.9241    0.3586 C   0  0  0  0  0  3  0  0  0  0  0  0
    1.1764   -1.8379    0.9117 H   0  0  0  0  0  0  0  0  0  0  0  0
    2.7502   -1.1037   -0.4744 C   0  0  1  0  0  0  0  0  0  0  0  0
    3.9273   -1.1862    0.6249 C   0  0  1  0  0  0  0  0  0  0  0  0
    4.8690   -1.3634    0.0663 H   0  0  0  0  0  0  0  0  0  0  0  0
    3.9834    0.1795    1.3920 C   0  0  0  0  0  0  0  0  0  0  0  0
    3.8808    0.0071    2.4815 H   0  0  0  0  0  0  0  0  0  0  0  0
    4.9604    0.6728    1.2215 H   0  0  0  0  0  0  0  0  0  0  0  0
    2.8234    1.0916    0.8947 C   0  0  1  0  0  0  0  0  0  0  0  0
    3.0525    1.2758   -0.5769 C   0  0  0  0  0  0  0  0  0  0  0  0
    3.0488    0.1294   -1.2940 C   0  0  0  0  0  0  0  0  0  0  0  0
    3.1659    0.0236   -2.3783 H   0  0  0  0  0  0  0  0  0  0  0  0
    2.5631   -3.5006   -0.8990 C   0  0  0  0  0  0  0  0  0  0  0  0
    2.3927   -4.1425   -1.7859 H   0  0  0  0  0  0  0  0  0  0  0  0
    1.6728   -3.5792   -0.2382 H   0  0  0  0  0  0  0  0  0  0  0  0
    3.4434   -3.8928   -0.3450 H   0  0  0  0  0  0  0  0  0  0  0  0
    3.7561   -2.2759    1.5850 C   0  0  0  0  0  0  0  0  0  0  0  0
    3.4931    2.7274   -2.3824 C   0  0  0  0  0  0  0  0  0  0  0  0
    3.6434    3.8110   -2.5435 H   0  0  0  0  0  0  0  0  0  0  0  0
    2.6263    2.3719   -2.9772 H   0  0  0  0  0  0  0  0  0  0  0  0
    4.4090    2.1753   -2.6906 H   0  0  0  0  0  0  0  0  0  0  0  0
    1.3248    0.2153    2.2275 H   0  0  0  0  0  0  0  0  0  0  0  0
    2.8598    2.0696    1.4149 H   0  0  0  0  0  0  0  0  0  0  0  0
  1 17  1  0  0  0  0
  2 14  1  0  0  0  0
  4 26  1  0  0  0  0
  5  6  1  0  0  0  0
  5  4  1  0  0  0  0
  7  1  1  6  0  0  0
  7  5  1  0  0  0  0
  7  8  1  0  0  0  0
  8  9  1  6  0  0  0
  8 10  1  0  0  0  0
  8 21  1  0  0  0  0
 10 11  1  0  0  0  0
 12 10  1  0  0  0  0
 13  4  1  0  0  0  0
 13 10  1  0  0  0  0
 13 27  1  1  0  0  0
 14 13  1  0  0  0  0
 15 14  2  0  0  0  0
 15  7  1  0  0  0  0
 16 15  1  0  0  0  0
 17 20  1  0  0  0  0
 17 19  1  0  0  0  0
 18 17  1  0  0  0  0
 21  3  3  0  0  0  0
 22  2  1  0  0  0  0
 23 22  1  0  0  0  0
 24 22  1  0  0  0  0
 25 22  1  0  0  0  0
M  END
