4
q = 0.0, confidence = 0.99

 22 22  0  0  0  0  0  0  0  0999 V2000
    4.0202   -2.2228    0.2173 O   0  0  0  0  0  0  0  0  0  0  0  0
    3.3908   -1.4749   -0.5110 C   0  0  0  0  0  0  0  0  0  0  0  0
    1.9212   -1.4756   -0.6551 C   0  0  0  0  0  3  0  0  0  0  0  0
    1.3040   -0.7890   -1.7736 C   0  0  0  0  0  3  0  0  0  0  0  0
   -0.1057   -0.5854   -1.7381 C   0  0  0  0  0  3  0  0  0  0  0  0
   -0.8400   -1.0473   -0.5879 C   0  0  0  0  0  3  0  0  0  0  0  0
   -2.2620   -0.7243   -0.3466 C   0  0  0  0  0  0  0  0  0  0  0  0
   -2.9492    0.3030   -1.0342 C   0  0  0  0  0  0  0  0  0  0  0  0
   -4.3000    0.5646   -0.7713 C   0  0  0  0  0  0  0  0  0  0  0  0
   -4.9961   -0.1884    0.1880 C   0  0  0  0  0  0  0  0  0  0  0  0
   -4.3272   -1.2101    0.8813 C   0  0  0  0  0  0  0  0  0  0  0  0
   -2.9782   -1.4741    0.6151 C   0  0  0  0  0  0  0  0  0  0  0  0
    3.9181   -0.6912   -1.1439 H   0  0  0  0  0  0  0  0  0  0  0  0
    1.4291   -2.3499   -0.1975 H   0  0  0  0  0  0  0  0  0  0  0  0
    1.9039   -0.3758   -2.6000 H   0  0  0  0  0  0  0  0  0  0  0  0
   -0.5881    0.0029   -2.5339 H   0  0  0  0  0  0  0  0  0  0  0  0
   -0.5218   -2.0024   -0.1409 H   0  0  0  0  0  0  0  0  0  0  0  0
   -2.4238    0.9162   -1.7816 H   0  0  0  0  0  0  0  0  0  0  0  0
   -4.8136    1.3692   -1.3191 H   0  0  0  0  0  0  0  0  0  0  0  0
   -6.0559    0.0221    0.3957 H   0  0  0  0  0  0  0  0  0  0  0  0
   -4.8617   -1.8074    1.6355 H   0  0  0  0  0  0  0  0  0  0  0  0
   -2.4579   -2.2765    1.1619 H   0  0  0  0  0  0  0  0  0  0  0  0
  2  1  2  0  0  0  0
  3  2  1  0  0  0  0
  3 14  1  0  0  0  0
  4  5  1  0  0  0  0
  4  3  1  0  0  0  0
  5  6  1  0  0  0  0
  6  7  1  0  0  0  0
  6 17  1  0  0  0  0
  7 12  1  0  0  0  0
  8  9  1  0  0  0  0
  8  7  2  0  0  0  0
  9 10  2  0  0  0  0
 10 20  1  0  0  0  0
 10 11  1  0  0  0  0
 11 21  1  0  0  0  0
 12 11  2  0  0  0  0
 12 22  1  0  0  0  0
 13  2  1  0  0  0  0
 15  4  1  0  0  0  0
 16  5  1  0  0  0  0
 18  8  1  0  0  0  0
 19  9  1  0  0  0  0
M  END
