31
q = 0.0, confidence = 0.972

 61 66  0  0  0  0  0  0  0  0999 V2000
   -0.0720   -1.1646   -0.3333 N   0  0  0  0  0  0  0  0  0  0  0  0
    7.3640    0.4235    1.3138 N   0  0  0  0  0  0  0  0  0  0  0  0
   -2.1680   -0.8132   -0.7641 N   0  0  0  0  0  0  0  0  0  0  0  0
    6.4867   -1.2628    0.0762 N   0  0  0  0  0  0  0  0  0  0  0  0
    5.9705    0.5288    1.2819 O   0  0  0  0  0  0  0  0  0  0  0  0
    7.6150   -0.6530    0.5838 C   0  0  0  0  0  0  0  0  0  0  0  0
    5.5153   -0.5031    0.5301 C   0  0  0  0  0  0  0  0  0  0  0  0
    9.0112   -1.1718    0.3239 C   0  0  0  0  0  0  0  0  0  0  0  0
    9.2421   -1.1707   -1.2032 C   0  0  0  0  0  0  0  0  0  0  0  0
    8.4719   -1.7773   -1.7186 H   0  0  0  0  0  0  0  0  0  0  0  0
   10.2397   -1.5953   -1.4357 H   0  0  0  0  0  0  0  0  0  0  0  0
    9.2014   -0.1408   -1.6113 H   0  0  0  0  0  0  0  0  0  0  0  0
   10.0516   -0.2834    1.0236 C   0  0  0  0  0  0  0  0  0  0  0  0
    9.9986    0.7612    0.6598 H   0  0  0  0  0  0  0  0  0  0  0  0
   11.0706   -0.6722    0.8257 H   0  0  0  0  0  0  0  0  0  0  0  0
    9.8915   -0.2622    2.1192 H   0  0  0  0  0  0  0  0  0  0  0  0
    9.0900   -2.6180    0.8598 C   0  0  0  0  0  0  0  0  0  0  0  0
    8.9396   -2.6446    1.9579 H   0  0  0  0  0  0  0  0  0  0  0  0
   10.0865   -3.0506    0.6372 H   0  0  0  0  0  0  0  0  0  0  0  0
    8.3160   -3.2553    0.3889 H   0  0  0  0  0  0  0  0  0  0  0  0
    4.0780   -0.6502    0.3211 C   0  0  0  0  0  0  0  0  0  0  0  0
    3.6069   -1.7306   -0.4559 C   0  0  0  0  0  0  0  0  0  0  0  0
    4.3371   -2.4267   -0.8922 H   0  0  0  0  0  0  0  0  0  0  0  0
    2.2375   -1.8919   -0.6763 C   0  0  0  0  0  0  0  0  0  0  0  0
    1.8711   -2.7134   -1.3088 H   0  0  0  0  0  0  0  0  0  0  0  0
    1.3258   -0.9792   -0.1131 C   0  0  0  0  0  0  0  0  0  0  0  0
    1.7845    0.0954    0.6705 C   0  0  0  0  0  0  0  0  0  0  0  0
    1.0613    0.7947    1.1125 H   0  0  0  0  0  0  0  0  0  0  0  0
    3.1560    0.2619    0.8792 C   0  0  0  0  0  0  0  0  0  0  0  0
    3.5204    1.1019    1.4867 H   0  0  0  0  0  0  0  0  0  0  0  0
   -0.9686   -0.1669   -0.6544 C   0  0  0  0  0  2  0  0  0  0  0  0
   -0.7142   -2.4004   -0.2550 C   0  0  0  0  0  0  0  0  0  0  0  0
   -0.1835   -3.3144    0.0244 H   0  0  0  0  0  0  0  0  0  0  0  0
   -2.0371   -2.1735   -0.5194 C   0  0  0  0  0  0  0  0  0  0  0  0
   -2.8951   -2.8522   -0.5300 H   0  0  0  0  0  0  0  0  0  0  0  0
   -3.4389   -0.1506   -1.1013 C   0  0  0  0  0  0  0  0  0  0  0  0
   -3.7193   -0.4431   -2.1302 H   0  0  0  0  0  0  0  0  0  0  0  0
   -3.2113    0.9320   -1.1367 H   0  0  0  0  0  0  0  0  0  0  0  0
   -4.5345   -0.4717   -0.1106 C   0  0  0  0  0  0  0  0  0  0  0  0
   -5.4993   -1.4754   -0.4068 C   0  0  0  0  0  0  0  0  0  0  0  0
   -5.5070   -2.2354   -1.6268 C   0  0  0  0  0  0  0  0  0  0  0  0
   -4.7409   -2.0488   -2.3926 H   0  0  0  0  0  0  0  0  0  0  0  0
   -6.4603   -3.2066   -1.8702 C   0  0  0  0  0  0  0  0  0  0  0  0
   -6.4356   -3.7676   -2.8167 H   0  0  0  0  0  0  0  0  0  0  0  0
   -7.4785   -3.4870   -0.9114 C   0  0  0  0  0  0  0  0  0  0  0  0
   -8.2317   -4.2604   -1.1228 H   0  0  0  0  0  0  0  0  0  0  0  0
   -7.5107   -2.7853    0.2762 C   0  0  0  0  0  0  0  0  0  0  0  0
   -8.2884   -2.9906    1.0282 H   0  0  0  0  0  0  0  0  0  0  0  0
   -6.5365   -1.7758    0.5697 C   0  0  0  0  0  0  0  0  0  0  0  0
   -6.5607   -1.0766    1.7885 C   0  0  0  0  0  0  0  0  0  0  0  0
   -7.3485   -1.3091    2.5226 H   0  0  0  0  0  0  0  0  0  0  0  0
   -5.6043   -0.0944    2.1001 C   0  0  0  0  0  0  0  0  0  0  0  0
   -5.6370    0.6042    3.3508 C   0  0  0  0  0  0  0  0  0  0  0  0
   -6.4366    0.3564    4.0660 H   0  0  0  0  0  0  0  0  0  0  0  0
   -4.6925    1.5642    3.6532 C   0  0  0  0  0  0  0  0  0  0  0  0
   -4.7281    2.0952    4.6162 H   0  0  0  0  0  0  0  0  0  0  0  0
   -3.6658    1.8715    2.7119 C   0  0  0  0  0  0  0  0  0  0  0  0
   -2.9147    2.6388    2.9530 H   0  0  0  0  0  0  0  0  0  0  0  0
   -3.6011    1.2206    1.4940 C   0  0  0  0  0  0  0  0  0  0  0  0
   -2.7867    1.4852    0.8026 H   0  0  0  0  0  0  0  0  0  0  0  0
   -4.5628    0.2173    1.1352 C   0  0  0  0  0  0  0  0  0  0  0  0
  1 32  1  0  0  0  0
  1 26  1  0  0  0  0
  3 31  1  0  0  0  0
  3 34  1  0  0  0  0
  4  7  2  0  0  0  0
  4  6  1  0  0  0  0
  5  2  1  0  0  0  0
  6  2  2  0  0  0  0
  7  5  1  0  0  0  0
  8  6  1  0  0  0  0
  8 17  1  0  0  0  0
  8 13  1  0  0  0  0
  9  8  1  0  0  0  0
 10  9  1  0  0  0  0
 11  9  1  0  0  0  0
 12  9  1  0  0  0  0
 13 16  1  0  0  0  0
 14 13  1  0  0  0  0
 15 13  1  0  0  0  0
 17 18  1  0  0  0  0
 19 17  1  0  0  0  0
 20 17  1  0  0  0  0
 21  7  1  0  0  0  0
 21 29  1  0  0  0  0
 22 21  2  0  0  0  0
 23 22  1  0  0  0  0
 24 22  1  0  0  0  0
 24 26  2  0  0  0  0
 25 24  1  0  0  0  0
 26 27  1  0  0  0  0
 27 29  2  0  0  0  0
 27 28  1  0  0  0  0
 29 30  1  0  0  0  0
 31  1  1  0  0  0  0
 32 33  1  0  0  0  0
 34 32  2  0  0  0  0
 35 34  1  0  0  0  0
 36  3  1  0  0  0  0
 36 39  1  0  0  0  0
 37 36  1  0  0  0  0
 38 36  1  0  0  0  0
 39 61  1  0  0  0  0
 40 39  2  0  0  0  0
 40 49  1  0  0  0  0
 41 40  1  0  0  0  0
 42 41  1  0  0  0  0
 43 41  2  0  0  0  0
 43 45  1  0  0  0  0
 44 43  1  0  0  0  0
 45 47  2  0  0  0  0
 46 45  1  0  0  0  0
 47 49  1  0  0  0  0
 47 48  1  0  0  0  0
 49 50  2  0  0  0  0
 50 52  1  0  0  0  0
 50 51  1  0  0  0  0
 52 53  1  0  0  0  0
 53 55  2  0  0  0  0
 53 54  1  0  0  0  0
 55 56  1  0  0  0  0
 57 58  1  0  0  0  0
 57 55  1  0  0  0  0
 59 57  2  0  0  0  0
 60 59  1  0  0  0  0
 61 59  1  0  0  0  0
 61 52  2  0  0  0  0
M  END
