1
q = 0.0, confidence = 0.994

 31 31  0  0  0  0  0  0  0  0999 V2000
    0.7330   -1.7346   -0.2707 C   0  0  0  0  0  2  0  0  0  0  0  0
    2.1198   -3.4185   -0.9320 C   0  0  0  0  0  0  0  0  0  0  0  0
    3.0012   -3.8551   -1.4078 H   0  0  0  0  0  0  0  0  0  0  0  0
    1.1218   -3.9758   -0.1770 C   0  0  0  0  0  0  0  0  0  0  0  0
    0.9348   -5.0131    0.1152 H   0  0  0  0  0  0  0  0  0  0  0  0
    2.7080   -1.0658   -1.6259 C   0  0  0  0  0  0  0  0  0  0  0  0
    3.0860   -1.4857   -2.5798 H   0  0  0  0  0  0  0  0  0  0  0  0
    2.0675   -0.1924   -1.8597 H   0  0  0  0  0  0  0  0  0  0  0  0
    3.8690   -0.6511   -0.7359 C   0  0  0  0  0  0  0  0  0  0  0  0
    3.4669   -0.2712    0.2353 H   0  0  0  0  0  0  0  0  0  0  0  0
    4.4228    0.1910   -1.2236 H   0  0  0  0  0  0  0  0  0  0  0  0
    5.6559   -1.5664    0.4850 C   0  0  0  0  0  0  0  0  0  0  0  0
    5.1671   -1.3541    1.4660 H   0  0  0  0  0  0  0  0  0  0  0  0
    6.2552   -2.4930    0.5772 H   0  0  0  0  0  0  0  0  0  0  0  0
    6.3479   -0.7186    0.2567 H   0  0  0  0  0  0  0  0  0  0  0  0
   -0.9133   -3.0772    1.0277 C   0  0  0  0  0  0  0  0  0  0  0  0
   -0.7873   -3.9757    1.6665 H   0  0  0  0  0  0  0  0  0  0  0  0
   -0.9454   -2.1985    1.7051 H   0  0  0  0  0  0  0  0  0  0  0  0
   -2.1900   -3.1667    0.1909 C   0  0  0  0  0  0  0  0  0  0  0  0
   -2.1396   -4.0588   -0.4716 H   0  0  0  0  0  0  0  0  0  0  0  0
   -2.2267   -2.2846   -0.4852 H   0  0  0  0  0  0  0  0  0  0  0  0
   -3.4535   -3.2198    1.0524 C   0  0  0  0  0  0  0  0  0  0  0  0
   -3.4228   -4.1154    1.7126 H   0  0  0  0  0  0  0  0  0  0  0  0
   -3.4576   -2.3453    1.7416 H   0  0  0  0  0  0  0  0  0  0  0  0
   -4.7398   -3.2270    0.2260 C   0  0  0  0  0  0  0  0  0  0  0  0
   -4.7784   -4.1050   -0.4516 H   0  0  0  0  0  0  0  0  0  0  0  0
   -5.6420   -3.2598    0.8695 H   0  0  0  0  0  0  0  0  0  0  0  0
   -4.8098   -2.3201   -0.4100 H   0  0  0  0  0  0  0  0  0  0  0  0
    1.8542   -2.0564   -0.9865 N   0  0  0  0  0  0  0  0  0  0  0  0
    0.2930   -2.9323    0.2208 N   0  0  0  0  0  0  0  0  0  0  0  0
    4.7093   -1.7680   -0.5389 O   0  0  0  0  0  0  0  0  0  0  0  0
  1 30  1  0  0  0  0
  2  4  2  0  0  0  0
  3  2  1  0  0  0  0
  4  5  1  0  0  0  0
  4 30  1  0  0  0  0
  6 29  1  0  0  0  0
  6  9  1  0  0  0  0
  7  6  1  0  0  0  0
  8  6  1  0  0  0  0
  9 31  1  0  0  0  0
  9 10  1  0  0  0  0
 11  9  1  0  0  0  0
 12 14  1  0  0  0  0
 12 13  1  0  0  0  0
 15 12  1  0  0  0  0
 16 17  1  0  0  0  0
 16 18  1  0  0  0  0
 19 16  1  0  0  0  0
 19 22  1  0  0  0  0
 20 19  1  0  0  0  0
 21 19  1  0  0  0  0
 22 23  1  0  0  0  0
 22 24  1  0  0  0  0
 25 27  1  0  0  0  0
 25 22  1  0  0  0  0
 26 25  1  0  0  0  0
 28 25  1  0  0  0  0
 29  2  1  0  0  0  0
 29  1  1  0  0  0  0
 30 16  1  0  0  0  0
 31 12  1  0  0  0  0
M  END
