1
q = -1.0, confidence = 0.0

 30 32  0  0  0  0  0  0  0  0999 V2000
   -2.4131   -1.2191    0.4751 C   0  0  0  0  0  3  0  0  0  0  0  0
   -1.6300   -3.5833    1.0221 C   0  0  0  0  0  0  0  0  0  0  0  0
   -2.1756   -4.5449    0.9266 H   0  0  0  0  0  0  0  0  0  0  0  0
   -1.3311   -3.4756    2.0863 H   0  0  0  0  0  0  0  0  0  0  0  0
   -0.3994   -3.5572    0.1413 C   0  0  0  0  0  0  0  0  0  0  0  0
   -5.2649    3.1834   -0.5589 C   0  0  0  0  0  0  0  0  0  0  0  0
   -5.6662    4.1879   -0.7636 H   0  0  0  0  0  0  0  0  0  0  0  0
   -4.2327    0.5919   -0.0289 C   0  0  0  0  0  0  0  0  0  0  0  0
    1.9074   -3.4627   -1.4888 C   0  0  0  0  0  0  0  0  0  0  0  0
    2.8038   -3.3983   -2.1232 H   0  0  0  0  0  0  0  0  0  0  0  0
   -3.3705    1.6790   -0.2987 C   0  0  0  0  0  0  0  0  0  0  0  0
   -2.2816    1.5082   -0.3134 H   0  0  0  0  0  0  0  0  0  0  0  0
   -0.5167   -3.4559   -1.2601 C   0  0  0  0  0  0  0  0  0  0  0  0
   -1.5183   -3.3887   -1.7120 H   0  0  0  0  0  0  0  0  0  0  0  0
   -6.1341    2.1095   -0.3022 C   0  0  0  0  0  0  0  0  0  0  0  0
   -7.2233    2.2718   -0.3043 H   0  0  0  0  0  0  0  0  0  0  0  0
    2.0338   -3.5829   -0.0977 C   0  0  0  0  0  0  0  0  0  0  0  0
    3.0323   -3.6246    0.3642 H   0  0  0  0  0  0  0  0  0  0  0  0
    0.8858   -3.6295    0.7104 C   0  0  0  0  0  0  0  0  0  0  0  0
    0.9839   -3.7114    1.8052 H   0  0  0  0  0  0  0  0  0  0  0  0
   -5.6273    0.8301   -0.0408 C   0  0  0  0  0  0  0  0  0  0  0  0
   -6.2977   -0.0176    0.1615 H   0  0  0  0  0  0  0  0  0  0  0  0
   -3.8782    2.9586   -0.5573 C   0  0  0  0  0  0  0  0  0  0  0  0
   -3.1809    3.7853   -0.7675 H   0  0  0  0  0  0  0  0  0  0  0  0
    0.6278   -3.4061   -2.0666 C   0  0  0  0  0  0  0  0  0  0  0  0
    0.5231   -3.3100   -3.1580 H   0  0  0  0  0  0  0  0  0  0  0  0
   -4.5947   -1.8291    0.3504 N   0  0  0  0  0  0  0  0  0  0  0  0
   -2.6083   -2.5612    0.6826 N   0  0  0  0  0  0  0  0  0  0  0  0
   -3.9241   -2.9137    0.6053 N   0  0  0  0  0  0  0  0  0  0  0  0
   -3.7302   -0.7609    0.2561 C   0  0  0  0  0  0  0  0  0  0  0  0
  1 28  1  0  0  0  0
  2  4  1  0  0  0  0
  3  2  1  0  0  0  0
  5 19  1  0  0  0  0
  5  2  1  0  0  0  0
  6 23  2  0  0  0  0
  6 15  1  0  0  0  0
  7  6  1  0  0  0  0
  8 30  1  0  0  0  0
  9 17  1  0  0  0  0
 10  9  1  0  0  0  0
 11  8  2  0  0  0  0
 12 11  1  0  0  0  0
 13  5  2  0  0  0  0
 14 13  1  0  0  0  0
 15 21  2  0  0  0  0
 16 15  1  0  0  0  0
 17 18  1  0  0  0  0
 17 19  2  0  0  0  0
 19 20  1  0  0  0  0
 21  8  1  0  0  0  0
 21 22  1  0  0  0  0
 23 11  1  0  0  0  0
 24 23  1  0  0  0  0
 25  9  2  0  0  0  0
 25 13  1  0  0  0  0
 26 25  1  0  0  0  0
 27 29  2  0  0  0  0
 28  2  1  0  0  0  0
 29 28  1  0  0  0  0
 30 27  1  0  0  0  0
 30  1  2  0  0  0  0
M  END
