3
q = -1.0, confidence = 0.0

 20 20  0  0  1  0  0  0  0  0999 V2000
    3.0667   -0.4261   -2.1237 O   0  0  0  0  0  0  0  0  0  0  0  0
    0.7837   -1.7111   -1.5598 O   0  0  0  0  0  0  0  0  0  0  0  0
    0.8880   -1.3894   -0.3647 C   0  0  0  0  0  3  0  0  0  0  0  0
    2.2430   -0.8893    0.1317 C   0  0  0  0  0  0  0  0  0  0  0  0
    3.4028   -1.0153   -0.8855 C   0  0  2  0  0  0  0  0  0  0  0  0
    4.6442   -0.3525   -0.3208 C   0  0  0  0  0  0  0  0  0  0  0  0
    5.4070   -0.9873    0.6783 C   0  0  0  0  0  0  0  0  0  0  0  0
    6.5178   -0.3461    1.2456 C   0  0  0  0  0  0  0  0  0  0  0  0
    6.8840    0.9399    0.8151 C   0  0  0  0  0  0  0  0  0  0  0  0
    6.1326    1.5747   -0.1867 C   0  0  0  0  0  0  0  0  0  0  0  0
    5.0187    0.9339   -0.7505 C   0  0  0  0  0  0  0  0  0  0  0  0
    5.1299   -2.0009    1.0120 H   0  0  0  0  0  0  0  0  0  0  0  0
    7.1063   -0.8558    2.0241 H   0  0  0  0  0  0  0  0  0  0  0  0
    7.7580    1.4429    1.2565 H   0  0  0  0  0  0  0  0  0  0  0  0
    6.4191    2.5796   -0.5346 H   0  0  0  0  0  0  0  0  0  0  0  0
    2.4912   -1.4012    1.0837 H   0  0  0  0  0  0  0  0  0  0  0  0
    2.1039    0.1812    0.3989 H   0  0  0  0  0  0  0  0  0  0  0  0
    4.4206    1.4105   -1.5395 H   0  0  0  0  0  0  0  0  0  0  0  0
    2.1993   -0.8429   -2.3405 H   0  0  0  0  0  0  0  0  0  0  0  0
    3.6186   -2.1082   -1.0117 H   0  0  0  0  0  0  0  0  0  0  0  0
  1  5  1  0  0  0  0
  2  3  2  0  0  0  0
  3  4  1  0  0  0  0
  4 17  1  0  0  0  0
  4 16  1  0  0  0  0
  5 20  1  6  0  0  0
  5  6  1  0  0  0  0
  5  4  1  0  0  0  0
  6  7  1  0  0  0  0
  7 12  1  0  0  0  0
  7  8  2  0  0  0  0
  8 13  1  0  0  0  0
  9  8  1  0  0  0  0
  9 14  1  0  0  0  0
 10  9  2  0  0  0  0
 11  6  2  0  0  0  0
 11 10  1  0  0  0  0
 15 10  1  0  0  0  0
 18 11  1  0  0  0  0
 19  1  1  0  0  0  0
M  END
