2
q = 0.0, confidence = 0.884

 15 15  0  0  1  0  0  0  0  0999 V2000
   -0.2555   -0.4698   -1.7208 C   0  0  0  0  0  3  0  0  0  0  0  0
   -0.5901    0.8533   -1.3156 C   0  0  0  0  0  3  0  0  0  0  0  0
   -1.0801    0.9537    0.0352 C   0  0  0  0  0  3  0  0  0  0  0  0
   -2.1289   -0.0477    0.5356 C   0  0  2  0  0  0  0  0  0  0  0  0
   -1.7579   -1.4900    0.0899 C   0  0  0  0  0  0  0  0  0  0  0  0
   -0.4764   -1.4779   -0.7188 C   0  0  0  0  0  3  0  0  0  0  0  0
   -3.4667    0.3560    0.0781 C   0  0  0  0  0  0  0  0  0  0  0  0
   -4.5213    0.6975   -0.3027 N   0  0  0  0  0  0  0  0  0  0  0  0
    0.2415   -0.6718   -2.6817 H   0  0  0  0  0  0  0  0  0  0  0  0
   -0.3802    1.7279   -1.9490 H   0  0  0  0  0  0  0  0  0  0  0  0
   -1.1799    1.9654    0.4596 H   0  0  0  0  0  0  0  0  0  0  0  0
   -2.1487    0.0009    1.6450 H   0  0  0  0  0  0  0  0  0  0  0  0
   -2.5773   -1.9359   -0.5150 H   0  0  0  0  0  0  0  0  0  0  0  0
   -1.6387   -2.1389    0.9793 H   0  0  0  0  0  0  0  0  0  0  0  0
   -0.0406   -2.4717   -0.9133 H   0  0  0  0  0  0  0  0  0  0  0  0
  1  2  1  0  0  0  0
  1  6  1  0  0  0  0
  2  3  1  0  0  0  0
  3 11  1  0  0  0  0
  3  4  1  0  0  0  0
  4 12  1  1  0  0  0
  5  4  1  0  0  0  0
  5 14  1  0  0  0  0
  6  5  1  0  0  0  0
  7  4  1  0  0  0  0
  8  7  3  0  0  0  0
  9  1  1  0  0  0  0
 10  2  1  0  0  0  0
 13  5  1  0  0  0  0
 15  6  1  0  0  0  0
M  END
