3
q = 0.0, confidence = 0.984

 70 72  0  0  1  0  0  0  0  0999 V2000
    0.0721   -0.4568   -0.2983 C   0  0  0  0  0  0  0  0  0  0  0  0
   -0.2196    0.8542    0.1987 C   0  0  0  0  0  0  0  0  0  0  0  0
   -1.5168    1.4280   -0.0182 C   0  0  2  0  0  3  0  0  0  0  0  0
   -2.4834    0.6949   -0.7743 C   0  0  0  0  0  0  0  0  0  0  0  0
   -2.1957   -0.6159   -1.2720 C   0  0  0  0  0  0  0  0  0  0  0  0
   -3.2467   -1.3350   -2.0961 C   0  0  0  0  0  0  0  0  0  0  0  0
   -4.0622   -1.6774   -1.4256 H   0  0  0  0  0  0  0  0  0  0  0  0
   -3.7080   -0.5905   -2.7773 H   0  0  0  0  0  0  0  0  0  0  0  0
   -2.6983   -2.5414   -2.8627 C   0  0  0  0  0  0  0  0  0  0  0  0
   -3.5425   -3.1333   -3.2708 H   0  0  0  0  0  0  0  0  0  0  0  0
   -2.1005   -2.1986   -3.7363 H   0  0  0  0  0  0  0  0  0  0  0  0
   -1.8134   -3.3919   -1.9498 C   0  0  0  0  0  0  0  0  0  0  0  0
   -1.4940   -4.3238   -2.4588 H   0  0  0  0  0  0  0  0  0  0  0  0
   -2.3909   -3.6979   -1.0506 H   0  0  0  0  0  0  0  0  0  0  0  0
   -0.5822   -2.5912   -1.5255 C   0  0  0  0  0  0  0  0  0  0  0  0
    0.0033   -3.1258   -0.7547 H   0  0  0  0  0  0  0  0  0  0  0  0
    0.0979   -2.4779   -2.3993 H   0  0  0  0  0  0  0  0  0  0  0  0
   -0.9176   -1.2086   -1.0189 C   0  0  1  0  0  3  0  0  0  0  0  0
    3.9187    0.2769   -0.2132 C   0  0  0  0  0  0  0  0  0  0  0  0
    4.9881   -0.0093   -0.2925 H   0  0  0  0  0  0  0  0  0  0  0  0
    3.7382    0.6559    0.8113 H   0  0  0  0  0  0  0  0  0  0  0  0
    3.7360    1.0999   -0.9290 H   0  0  0  0  0  0  0  0  0  0  0  0
    2.7791   -1.4605   -2.4785 C   0  0  0  0  0  0  0  0  0  0  0  0
    2.1922   -0.6313   -2.9244 H   0  0  0  0  0  0  0  0  0  0  0  0
    2.3196   -2.4247   -2.7711 H   0  0  0  0  0  0  0  0  0  0  0  0
    3.8021   -1.4220   -2.9058 H   0  0  0  0  0  0  0  0  0  0  0  0
    3.4765   -2.7455    0.3552 C   0  0  0  0  0  0  0  0  0  0  0  0
    2.5087   -3.9325    0.2027 C   0  0  0  0  0  0  0  0  0  0  0  0
    2.3402   -4.2065   -0.8598 H   0  0  0  0  0  0  0  0  0  0  0  0
    1.5272   -3.7129    0.6673 H   0  0  0  0  0  0  0  0  0  0  0  0
    2.9224   -4.8308    0.7122 H   0  0  0  0  0  0  0  0  0  0  0  0
    4.8598   -3.1316   -0.2054 C   0  0  0  0  0  0  0  0  0  0  0  0
    5.2716   -4.0010    0.3534 H   0  0  0  0  0  0  0  0  0  0  0  0
    5.5981   -2.3078   -0.1134 H   0  0  0  0  0  0  0  0  0  0  0  0
    4.8095   -3.4232   -1.2754 H   0  0  0  0  0  0  0  0  0  0  0  0
    3.5928   -2.3785    1.8484 C   0  0  0  0  0  0  0  0  0  0  0  0
    2.6090   -2.0924    2.2725 H   0  0  0  0  0  0  0  0  0  0  0  0
    4.3008   -1.5415    2.0193 H   0  0  0  0  0  0  0  0  0  0  0  0
    3.9658   -3.2507    2.4298 H   0  0  0  0  0  0  0  0  0  0  0  0
    0.8363    1.6325    0.9106 C   0  0  0  0  0  0  0  0  0  0  0  0
    1.5991    2.6099    0.2183 C   0  0  0  0  0  0  0  0  0  0  0  0
    2.5075    3.4251    0.9240 C   0  0  0  0  0  0  0  0  0  0  0  0
    3.0728    4.1881    0.3710 H   0  0  0  0  0  0  0  0  0  0  0  0
    2.7088    3.2407    2.2968 C   0  0  0  0  0  0  0  0  0  0  0  0
    3.4328    3.8699    2.8358 H   0  0  0  0  0  0  0  0  0  0  0  0
    1.9875    2.2468    2.9772 C   0  0  0  0  0  0  0  0  0  0  0  0
    2.1430    2.0887    4.0551 H   0  0  0  0  0  0  0  0  0  0  0  0
    1.0497    1.4621    2.2903 C   0  0  0  0  0  0  0  0  0  0  0  0
    0.4521    0.7053    2.8179 H   0  0  0  0  0  0  0  0  0  0  0  0
    1.5156    2.7125   -1.2692 C   0  0  0  0  0  0  0  0  0  0  0  0
    1.7648    4.1329   -3.1330 C   0  0  0  0  0  0  0  0  0  0  0  0
    2.0128    5.1921   -3.3219 H   0  0  0  0  0  0  0  0  0  0  0  0
    0.7641    3.8897   -3.5434 H   0  0  0  0  0  0  0  0  0  0  0  0
    2.5087    3.4658   -3.6132 H   0  0  0  0  0  0  0  0  0  0  0  0
   -1.8734    2.8114    0.4817 C   0  0  0  0  0  0  0  0  0  0  0  0
   -1.2322    3.0599    1.3497 H   0  0  0  0  0  0  0  0  0  0  0  0
   -2.9135    2.7903    0.8599 H   0  0  0  0  0  0  0  0  0  0  0  0
   -1.7547    3.8939   -0.6000 C   0  0  0  0  0  0  0  0  0  0  0  0
   -2.1152    4.8671   -0.2107 H   0  0  0  0  0  0  0  0  0  0  0  0
   -2.3680    3.6305   -1.4839 H   0  0  0  0  0  0  0  0  0  0  0  0
   -0.7079    4.0408   -0.9293 H   0  0  0  0  0  0  0  0  0  0  0  0
   -4.8200    0.9797   -0.3040 C   0  0  0  0  0  0  0  0  0  0  0  0
   -4.6237    1.1323    0.7784 H   0  0  0  0  0  0  0  0  0  0  0  0
   -5.1410   -0.0730   -0.4519 H   0  0  0  0  0  0  0  0  0  0  0  0
   -5.6298    1.6563   -0.6373 H   0  0  0  0  0  0  0  0  0  0  0  0
    2.8467   -1.2186   -0.6130 Si  0  0  0  0  0  0  0  0  0  0  0  0
    1.2535   -1.0229   -0.0060 O   0  0  0  0  0  0  0  0  0  0  0  0
    1.2783    1.7847   -2.0282 O   0  0  0  0  0  0  0  0  0  0  0  0
    1.7771    3.9704   -1.7092 O   0  0  0  0  0  0  0  0  0  0  0  0
   -3.6723    1.3101   -1.0859 O   0  0  0  0  0  0  0  0  0  0  0  0
  1 67  1  0  0  0  0
  1  2  2  0  0  0  0
  2 40  1  0  0  0  0
  3  2  1  0  0  0  0
  3 55  1  6  0  0  0
  4  3  1  0  0  0  0
  5  4  2  0  0  0  0
  6  7  1  0  0  0  0
  6  5  1  0  0  0  0
  8  6  1  0  0  0  0
  9  6  1  0  0  0  0
  9 12  1  0  0  0  0
 10  9  1  0  0  0  0
 11  9  1  0  0  0  0
 12 15  1  0  0  0  0
 12 14  1  0  0  0  0
 13 12  1  0  0  0  0
 15 18  1  0  0  0  0
 15 16  1  0  0  0  0
 17 15  1  0  0  0  0
 18  5  1  6  0  0  0
 18  1  1  0  0  0  0
 19 21  1  0  0  0  0
 20 19  1  0  0  0  0
 22 19  1  0  0  0  0
 23 66  1  0  0  0  0
 24 23  1  0  0  0  0
 25 23  1  0  0  0  0
 26 23  1  0  0  0  0
 27 36  1  0  0  0  0
 28 27  1  0  0  0  0
 28 30  1  0  0  0  0
 28 31  1  0  0  0  0
 29 28  1  0  0  0  0
 32 34  1  0  0  0  0
 32 33  1  0  0  0  0
 32 27  1  0  0  0  0
 35 32  1  0  0  0  0
 36 38  1  0  0  0  0
 36 37  1  0  0  0  0
 36 39  1  0  0  0  0
 40 48  1  0  0  0  0
 41 40  2  0  0  0  0
 41 42  1  0  0  0  0
 42 44  2  0  0  0  0
 43 42  1  0  0  0  0
 44 45  1  0  0  0  0
 44 46  1  0  0  0  0
 46 47  1  0  0  0  0
 48 49  1  0  0  0  0
 48 46  2  0  0  0  0
 50 41  1  0  0  0  0
 51 69  1  0  0  0  0
 52 51  1  0  0  0  0
 53 51  1  0  0  0  0
 54 51  1  0  0  0  0
 55 57  1  0  0  0  0
 55 56  1  0  0  0  0
 58 59  1  0  0  0  0
 58 55  1  0  0  0  0
 60 58  1  0  0  0  0
 61 58  1  0  0  0  0
 62 63  1  0  0  0  0
 64 62  1  0  0  0  0
 65 62  1  0  0  0  0
 66 19  1  0  0  0  0
 66 67  1  0  0  0  0
 66 27  1  0  0  0  0
 68 50  2  0  0  0  0
 69 50  1  0  0  0  0
 70  4  1  0  0  0  0
 70 62  1  0  0  0  0
M  END
