2
q = -2.0, confidence = 0.74

 20 20  0  0  1  0  0  0  0  0999 V2000
   -1.1194   -1.3036   -0.6515 C   0  0  1  0  0  0  0  0  0  0  0  0
   -0.9448   -0.1812   -1.5790 C   0  0  0  0  0  3  0  0  0  0  0  0
   -1.2100   -0.8300    0.9749 B   0  0  1  0  0  0  0  0  0  0  0  0
   -1.2196    0.9976    0.8233 B   0  0  0  0  0  0  0  0  0  0  0  0
   -2.7474    0.0701    1.1811 B   0  0  0  0  0  0  0  0  0  0  0  0
   -1.0956    1.2314   -0.9651 B   0  0  0  0  0  0  0  0  0  0  0  0
   -2.7227    1.4207    0.0009 B   0  0  0  0  0  2  0  0  0  0  0  0
   -3.8002    0.0253   -0.1883 B   0  0  0  0  0  0  0  0  0  0  0  0
   -2.7030   -1.3564    0.0941 B   0  0  0  0  0  0  0  0  0  0  0  0
   -0.9417   -1.6210    1.8553 H   0  0  0  0  0  0  0  0  0  0  0  0
   -0.9392    1.8456    1.6473 H   0  0  0  0  0  0  0  0  0  0  0  0
   -3.2579    0.1036    2.2779 H   0  0  0  0  0  0  0  0  0  0  0  0
   -0.8266   -2.3206   -0.9589 H   0  0  0  0  0  0  0  0  0  0  0  0
   -0.6461   -0.4049   -2.6175 H   0  0  0  0  0  0  0  0  0  0  0  0
   -0.8067    2.2501   -1.5652 H   0  0  0  0  0  0  0  0  0  0  0  0
   -3.2119    2.5190    0.1415 H   0  0  0  0  0  0  0  0  0  0  0  0
   -5.0078    0.0078   -0.1700 H   0  0  0  0  0  0  0  0  0  0  0  0
   -3.1393   -2.4577    0.3426 H   0  0  0  0  0  0  0  0  0  0  0  0
   -3.3340    0.9080   -1.0855 H   0  0  0  0  0  0  0  0  0  0  0  0
   -3.4078   -0.9731   -0.9914 H   0  0  0  0  0  0  0  0  0  0  0  0
  1 13  1  6  0  0  0
  1  9  1  0  0  0  0
  1  3  1  0  0  0  0
  2  6  1  0  0  0  0
  2  1  1  0  0  0  0
  3  5  1  0  0  0  0
  3 10  1  1  0  0  0
  4 11  1  0  0  0  0
  5 12  1  0  0  0  0
  6  4  1  0  0  0  0
  7 16  1  0  0  0  0
  7  4  1  0  0  0  0
  8 17  1  0  0  0  0
  8  5  1  0  0  0  0
  9 18  1  0  0  0  0
  9  3  1  0  0  0  0
 14  2  1  0  0  0  0
 15  6  1  0  0  0  0
 19  8  1  0  0  0  0
 20  8  1  0  0  0  0
M  END
