7
q = 0.0, confidence = 1.0

 49 52  0  0  1  0  0  0  0  0999 V2000
   -1.3071    0.2772   -0.8049 P   0  0  0  0  0  0  0  0  0  0  0  0
    0.0534    0.1593    0.4730 C   0  0  0  0  0  0  0  0  0  0  0  0
    0.7531   -1.0695    0.6408 C   0  0  1  0  0  3  0  0  0  0  0  0
    1.8639   -1.1757    1.5361 C   0  0  0  0  0  0  0  0  0  0  0  0
    2.2757   -0.0741    2.3223 C   0  0  0  0  0  0  0  0  0  0  0  0
    3.1436   -0.1441    2.9917 H   0  0  0  0  0  0  0  0  0  0  0  0
    1.5699    1.1585    2.1660 C   0  0  0  0  0  3  0  0  0  0  0  0
    1.8965    2.0450    2.7283 H   0  0  0  0  0  0  0  0  0  0  0  0
    0.4690    1.2754    1.2755 C   0  0  0  0  0  0  0  0  0  0  0  0
   -0.0341    2.2437    1.1583 H   0  0  0  0  0  0  0  0  0  0  0  0
    0.4372   -2.4347    0.0562 C   0  0  2  0  0  0  0  0  0  0  0  0
   -0.3294   -2.8665    0.7421 H   0  0  0  0  0  0  0  0  0  0  0  0
    1.7693   -3.2149    0.2600 C   0  0  0  0  0  0  0  0  0  0  0  0
    1.6137   -4.3067    0.3516 H   0  0  0  0  0  0  0  0  0  0  0  0
    2.4284   -3.0396   -0.6132 H   0  0  0  0  0  0  0  0  0  0  0  0
    2.4048   -2.5880    1.5185 C   0  0  0  0  0  0  0  0  0  0  0  0
    2.0597   -3.1056    2.4409 H   0  0  0  0  0  0  0  0  0  0  0  0
    3.5122   -2.6219    1.5206 H   0  0  0  0  0  0  0  0  0  0  0  0
   -1.9581    1.9705   -0.3916 C   0  0  0  0  0  0  0  0  0  0  0  0
   -1.4096    3.0496   -1.1207 C   0  0  0  0  0  0  0  0  0  0  0  0
   -0.6368    2.8538   -1.8812 H   0  0  0  0  0  0  0  0  0  0  0  0
   -1.8376    4.3639   -0.8783 C   0  0  0  0  0  0  0  0  0  0  0  0
   -1.3947    5.1957   -1.4472 H   0  0  0  0  0  0  0  0  0  0  0  0
   -2.8367    4.6145    0.0762 C   0  0  0  0  0  0  0  0  0  0  0  0
   -3.1801    5.6442    0.2593 H   0  0  0  0  0  0  0  0  0  0  0  0
   -3.4022    3.5456    0.7903 C   0  0  0  0  0  0  0  0  0  0  0  0
   -4.1909    3.7362    1.5346 H   0  0  0  0  0  0  0  0  0  0  0  0
   -2.9645    2.2318    0.5616 C   0  0  0  0  0  0  0  0  0  0  0  0
   -3.4093    1.4002    1.1288 H   0  0  0  0  0  0  0  0  0  0  0  0
   -2.5883   -0.8018   -0.0197 C   0  0  0  0  0  0  0  0  0  0  0  0
   -2.5660   -1.2217    1.3270 C   0  0  0  0  0  0  0  0  0  0  0  0
   -1.7665   -0.8703    1.9972 H   0  0  0  0  0  0  0  0  0  0  0  0
   -3.5595   -2.0823    1.8225 C   0  0  0  0  0  0  0  0  0  0  0  0
   -3.5268   -2.4048    2.8748 H   0  0  0  0  0  0  0  0  0  0  0  0
   -4.5954   -2.5236    0.9841 C   0  0  0  0  0  0  0  0  0  0  0  0
   -5.3738   -3.1969    1.3742 H   0  0  0  0  0  0  0  0  0  0  0  0
   -4.6336   -2.1004   -0.3548 C   0  0  0  0  0  0  0  0  0  0  0  0
   -5.4432   -2.4410   -1.0184 H   0  0  0  0  0  0  0  0  0  0  0  0
   -3.6340   -1.2527   -0.8534 C   0  0  0  0  0  0  0  0  0  0  0  0
   -3.6546   -0.9388   -1.9094 H   0  0  0  0  0  0  0  0  0  0  0  0
   -0.1845   -2.4062   -1.2512 N   0  0  0  0  0  0  0  0  0  0  0  0
   -1.0757   -3.5134   -1.5309 C   0  0  0  0  0  0  0  0  0  0  0  0
   -1.6770   -3.2859   -2.4351 H   0  0  0  0  0  0  0  0  0  0  0  0
   -1.7827   -3.6561   -0.6889 H   0  0  0  0  0  0  0  0  0  0  0  0
   -0.5440   -4.4829   -1.7166 H   0  0  0  0  0  0  0  0  0  0  0  0
    0.6686   -2.0547   -2.3715 C   0  0  0  0  0  0  0  0  0  0  0  0
    0.0441   -1.6886   -3.2121 H   0  0  0  0  0  0  0  0  0  0  0  0
    1.2882   -2.9092   -2.7433 H   0  0  0  0  0  0  0  0  0  0  0  0
    1.3488   -1.2326   -2.0806 H   0  0  0  0  0  0  0  0  0  0  0  0
  1 19  1  0  0  0  0
  1 30  1  0  0  0  0
  1  2  1  0  0  0  0
  2  9  2  0  0  0  0
  3  2  1  1  0  0  0
  3  4  1  0  0  0  0
  4  5  2  0  0  0  0
  5  6  1  0  0  0  0
  7  5  1  0  0  0  0
  7  8  1  0  0  0  0
  9  7  1  0  0  0  0
 10  9  1  0  0  0  0
 11 13  1  0  0  0  0
 11  3  1  0  0  0  0
 11 12  1  1  0  0  0
 13 14  1  0  0  0  0
 13 16  1  0  0  0  0
 15 13  1  0  0  0  0
 16 18  1  0  0  0  0
 16  4  1  0  0  0  0
 16 17  1  0  0  0  0
 19 28  1  0  0  0  0
 20 22  1  0  0  0  0
 20 19  2  0  0  0  0
 21 20  1  0  0  0  0
 22 24  2  0  0  0  0
 23 22  1  0  0  0  0
 24 25  1  0  0  0  0
 24 26  1  0  0  0  0
 26 27  1  0  0  0  0
 28 26  2  0  0  0  0
 28 29  1  0  0  0  0
 30 31  1  0  0  0  0
 31 33  2  0  0  0  0
 31 32  1  0  0  0  0
 33 34  1  0  0  0  0
 35 36  1  0  0  0  0
 35 33  1  0  0  0  0
 37 35  2  0  0  0  0
 38 37  1  0  0  0  0
 39 37  1  0  0  0  0
 39 30  2  0  0  0  0
 40 39  1  0  0  0  0
 41 11  1  0  0  0  0
 42 41  1  0  0  0  0
 42 44  1  0  0  0  0
 43 42  1  0  0  0  0
 45 42  1  0  0  0  0
 46 49  1  0  0  0  0
 46 41  1  0  0  0  0
 47 46  1  0  0  0  0
 48 46  1  0  0  0  0
M  END
