9
q = 0.0, confidence = 0.986

 11 11  0  0  0  0  0  0  0  0999 V2000
    0.0000    2.5561    1.5361 S   0  0  0  0  0  0  0  0  0  0  0  0
   -0.0001    2.5436   -0.9852 N   0  0  0  0  0  0  0  0  0  0  0  0
   -0.0001    3.8917   -0.6386 C   0  0  0  0  0  0  0  0  0  0  0  0
   -0.0002    4.6504   -1.4303 H   0  0  0  0  0  0  0  0  0  0  0  0
   -0.0001    2.1223   -2.3864 C   0  0  0  0  0  0  0  0  0  0  0  0
    0.0005    1.0188   -2.4072 H   0  0  0  0  0  0  0  0  0  0  0  0
    0.9104    2.5026   -2.8886 H   0  0  0  0  0  0  0  0  0  0  0  0
   -0.9113    2.5015   -2.8882 H   0  0  0  0  0  0  0  0  0  0  0  0
   -0.0000    1.6597    0.0400 C   0  0  0  0  0  2  0  0  0  0  0  0
   -0.0002    4.0929    0.7098 C   0  0  0  0  0  0  0  0  0  0  0  0
   -0.0002    5.0472    1.2490 H   0  0  0  0  0  0  0  0  0  0  0  0
  2  3  1  0  0  0  0
  2  9  1  0  0  0  0
  3 10  2  0  0  0  0
  4  3  1  0  0  0  0
  5  2  1  0  0  0  0
  6  5  1  0  0  0  0
  7  5  1  0  0  0  0
  8  5  1  0  0  0  0
  9  1  1  0  0  0  0
 10 11  1  0  0  0  0
 10  1  1  0  0  0  0
M  END
