1
q = -1.0, confidence = 0.026

 17 17  0  0  0  0  0  0  0  0999 V2000
   -1.0592    1.2261   -1.2288 C   0  0  0  0  0  3  0  0  0  0  0  0
   -1.9071    0.4701   -2.2664 C   0  0  0  0  0  0  0  0  0  0  0  0
   -1.9084    2.2639   -0.4744 C   0  0  0  0  0  0  0  0  0  0  0  0
   -0.2342    1.7686   -1.7710 H   0  0  0  0  0  0  0  0  0  0  0  0
   -2.6508    1.4254   -3.2185 C   0  0  0  0  0  0  0  0  0  0  0  0
   -1.2721   -0.2282   -2.8512 H   0  0  0  0  0  0  0  0  0  0  0  0
   -2.6561   -0.1575   -1.7310 H   0  0  0  0  0  0  0  0  0  0  0  0
   -2.6514    3.2151   -1.4311 C   0  0  0  0  0  0  0  0  0  0  0  0
   -2.6581    1.7282    0.1519 H   0  0  0  0  0  0  0  0  0  0  0  0
   -1.2750    2.8498    0.2248 H   0  0  0  0  0  0  0  0  0  0  0  0
   -3.5005    2.4395   -2.4443 C   0  0  0  0  0  0  0  0  0  0  0  0
   -1.9044    1.9717   -3.8380 H   0  0  0  0  0  0  0  0  0  0  0  0
   -3.2808    0.8455   -3.9262 H   0  0  0  0  0  0  0  0  0  0  0  0
   -3.2817    3.9235   -0.8524 H   0  0  0  0  0  0  0  0  0  0  0  0
   -1.9047    3.8340   -1.9778 H   0  0  0  0  0  0  0  0  0  0  0  0
   -4.0057    3.1383   -3.1444 H   0  0  0  0  0  0  0  0  0  0  0  0
   -4.3103    1.8991   -1.9034 H   0  0  0  0  0  0  0  0  0  0  0  0
  1  3  1  0  0  0  0
  2  7  1  0  0  0  0
  2  1  1  0  0  0  0
  3  9  1  0  0  0  0
  3 10  1  0  0  0  0
  4  1  1  0  0  0  0
  5 11  1  0  0  0  0
  5  2  1  0  0  0  0
  6  2  1  0  0  0  0
  8 14  1  0  0  0  0
  8  3  1  0  0  0  0
 11 17  1  0  0  0  0
 11  8  1  0  0  0  0
 12  5  1  0  0  0  0
 13  5  1  0  0  0  0
 15  8  1  0  0  0  0
 16 11  1  0  0  0  0
M  END
