7
q = -1.0, confidence = 0.0

 17 17  0  0  0  0  0  0  0  0999 V2000
    3.4174    2.8842   -2.1002 F   0  0  0  0  0  0  0  0  0  0  0  0
    3.4429    3.5116   -0.0145 F   0  0  0  0  0  0  0  0  0  0  0  0
    5.1939    2.5306   -0.8761 F   0  0  0  0  0  0  0  0  0  0  0  0
    5.4343   -1.5717    1.8202 F   0  0  0  0  0  0  0  0  0  0  0  0
    3.7192   -2.9237    1.9292 F   0  0  0  0  0  0  0  0  0  0  0  0
    4.9334   -2.8394    0.1201 F   0  0  0  0  0  0  0  0  0  0  0  0
    1.3111   -0.2193   -0.1434 C   0  0  0  0  0  3  0  0  0  0  0  0
    1.8900    0.9743   -0.5983 C   0  0  0  0  0  0  0  0  0  0  0  0
    1.2766    1.7520   -1.0762 H   0  0  0  0  0  0  0  0  0  0  0  0
    3.2730    1.1924   -0.4454 C   0  0  0  0  0  0  0  0  0  0  0  0
    4.0875    0.2150    0.1384 C   0  0  0  0  0  0  0  0  0  0  0  0
    5.1635    0.3932    0.2655 H   0  0  0  0  0  0  0  0  0  0  0  0
    3.5102   -0.9954    0.5567 C   0  0  0  0  0  0  0  0  0  0  0  0
    2.1307   -1.2178    0.4151 C   0  0  0  0  0  0  0  0  0  0  0  0
    1.6999   -2.1777    0.7305 H   0  0  0  0  0  0  0  0  0  0  0  0
    3.8423    2.5264   -0.8642 C   0  0  0  0  0  0  0  0  0  0  0  0
    4.3983   -2.0856    1.1118 C   0  0  0  0  0  0  0  0  0  0  0  0
  1 16  1  0  0  0  0
  3 16  1  0  0  0  0
  6 17  1  0  0  0  0
  7 14  1  0  0  0  0
  8 10  1  0  0  0  0
  8  7  2  0  0  0  0
  9  8  1  0  0  0  0
 10 11  2  0  0  0  0
 11 12  1  0  0  0  0
 11 13  1  0  0  0  0
 13 17  1  0  0  0  0
 14 13  2  0  0  0  0
 14 15  1  0  0  0  0
 16 10  1  0  0  0  0
 16  2  1  0  0  0  0
 17  4  1  0  0  0  0
 17  5  1  0  0  0  0
M  END
