1
q = 0.0, confidence = 1.0

 31 31  0  0  0  0  0  0  0  0999 V2000
   -1.4190   -0.7445   -0.7238 C   0  0  0  0  0  1  0  0  0  0  0  0
   -2.4185   -0.1311   -0.5617 N   0  0  0  0  0  2  0  0  0  0  0  0
   -3.5999    0.5561   -0.3971 C   0  0  0  0  0  0  0  0  0  0  0  0
   -4.5555    0.0452    0.5229 C   0  0  0  0  0  0  0  0  0  0  0  0
   -5.7441    0.7785    0.6767 C   0  0  0  0  0  0  0  0  0  0  0  0
   -6.5093    0.4216    1.3800 H   0  0  0  0  0  0  0  0  0  0  0  0
   -5.9707    1.9530   -0.0544 C   0  0  0  0  0  0  0  0  0  0  0  0
   -6.9108    2.5083    0.0835 H   0  0  0  0  0  0  0  0  0  0  0  0
   -5.0151    2.4220   -0.9673 C   0  0  0  0  0  0  0  0  0  0  0  0
   -5.2177    3.3365   -1.5419 H   0  0  0  0  0  0  0  0  0  0  0  0
   -3.8059    1.7356   -1.1645 C   0  0  0  0  0  0  0  0  0  0  0  0
   -4.2835   -1.2614    1.2495 C   0  0  0  0  0  0  0  0  0  0  0  0
   -3.2051   -1.2585    1.5157 H   0  0  0  0  0  0  0  0  0  0  0  0
   -2.7325    2.2059   -2.1360 C   0  0  0  0  0  0  0  0  0  0  0  0
   -2.3192    1.2924   -2.6174 H   0  0  0  0  0  0  0  0  0  0  0  0
   -4.5205   -2.4668    0.3151 C   0  0  0  0  0  0  0  0  0  0  0  0
   -5.5766   -2.4958   -0.0239 H   0  0  0  0  0  0  0  0  0  0  0  0
   -4.3077   -3.4121    0.8548 H   0  0  0  0  0  0  0  0  0  0  0  0
   -3.8640   -2.4500   -0.5777 H   0  0  0  0  0  0  0  0  0  0  0  0
   -5.0724   -1.4082    2.5544 C   0  0  0  0  0  0  0  0  0  0  0  0
   -4.9346   -0.5328    3.2207 H   0  0  0  0  0  0  0  0  0  0  0  0
   -4.7308   -2.3099    3.1008 H   0  0  0  0  0  0  0  0  0  0  0  0
   -6.1597   -1.5345    2.3705 H   0  0  0  0  0  0  0  0  0  0  0  0
   -3.2651    3.1137   -3.2495 C   0  0  0  0  0  0  0  0  0  0  0  0
   -4.1143    2.6483   -3.7879 H   0  0  0  0  0  0  0  0  0  0  0  0
   -2.4644    3.3180   -3.9879 H   0  0  0  0  0  0  0  0  0  0  0  0
   -3.6032    4.0950   -2.8563 H   0  0  0  0  0  0  0  0  0  0  0  0
   -1.5707    2.8846   -1.3840 C   0  0  0  0  0  0  0  0  0  0  0  0
   -1.9169    3.8073   -0.8741 H   0  0  0  0  0  0  0  0  0  0  0  0
   -0.7634    3.1627   -2.0917 H   0  0  0  0  0  0  0  0  0  0  0  0
   -1.1319    2.2159   -0.6183 H   0  0  0  0  0  0  0  0  0  0  0  0
  1  2  1  0  0  0  0
  2  3  1  0  0  0  0
  3  4  1  0  0  0  0
  4  5  2  0  0  0  0
  4 12  1  0  0  0  0
  5  6  1  0  0  0  0
  7  8  1  0  0  0  0
  7  5  1  0  0  0  0
  9  7  2  0  0  0  0
 10  9  1  0  0  0  0
 11  9  1  0  0  0  0
 11  3  2  0  0  0  0
 12 13  1  0  0  0  0
 12 20  1  0  0  0  0
 14 28  1  0  0  0  0
 14 11  1  0  0  0  0
 15 14  1  0  0  0  0
 16 18  1  0  0  0  0
 16 12  1  0  0  0  0
 17 16  1  0  0  0  0
 19 16  1  0  0  0  0
 20 22  1  0  0  0  0
 20 21  1  0  0  0  0
 23 20  1  0  0  0  0
 24 27  1  0  0  0  0
 24 14  1  0  0  0  0
 25 24  1  0  0  0  0
 26 24  1  0  0  0  0
 28 29  1  0  0  0  0
 28 31  1  0  0  0  0
 30 28  1  0  0  0  0
M  END
