3
q = 0.0, confidence = 0.95

 39 40  0  0  1  0  0  0  0  0999 V2000
   -0.9635    1.3063    1.6261 N   0  0  0  0  0  0  0  0  0  0  0  0
   -1.2948   -0.8358    1.6926 N   0  0  0  0  0  0  0  0  0  0  0  0
   -0.5063    0.1256    1.1167 C   0  0  0  0  0  2  0  0  0  0  0  0
   -2.2441   -0.2664    2.5305 C   0  0  0  0  0  0  0  0  0  0  0  0
   -2.9822   -0.8629    3.0743 H   0  0  0  0  0  0  0  0  0  0  0  0
   -2.0263    1.0854    2.4953 C   0  0  0  0  0  0  0  0  0  0  0  0
   -2.5363    1.9039    3.0115 H   0  0  0  0  0  0  0  0  0  0  0  0
   -1.2110   -2.2330    1.3020 C   0  0  0  0  0  0  0  0  0  0  0  0
   -1.9451   -2.8094    1.8939 H   0  0  0  0  0  0  0  0  0  0  0  0
   -0.1948   -2.6125    1.5290 H   0  0  0  0  0  0  0  0  0  0  0  0
   -1.5167   -2.4018   -0.2018 C   0  0  1  0  0  0  0  0  0  0  0  0
   -1.4861   -3.4923   -0.4060 H   0  0  0  0  0  0  0  0  0  0  0  0
   -2.9068   -1.8895   -0.5340 C   0  0  0  0  0  0  0  0  0  0  0  0
   -3.1390   -0.5534   -0.9182 C   0  0  0  0  0  0  0  0  0  0  0  0
   -2.3005    0.1457   -1.0729 H   0  0  0  0  0  0  0  0  0  0  0  0
   -4.4504   -0.1002   -1.1322 C   0  0  0  0  0  0  0  0  0  0  0  0
   -4.6173    0.9430   -1.4396 H   0  0  0  0  0  0  0  0  0  0  0  0
   -5.5387   -0.9679   -0.9595 C   0  0  0  0  0  0  0  0  0  0  0  0
   -6.5648   -0.6098   -1.1304 H   0  0  0  0  0  0  0  0  0  0  0  0
   -5.3127   -2.3006   -0.5787 C   0  0  0  0  0  0  0  0  0  0  0  0
   -6.1596   -2.9918   -0.4551 H   0  0  0  0  0  0  0  0  0  0  0  0
   -4.0044   -2.7579   -0.3684 C   0  0  0  0  0  0  0  0  0  0  0  0
   -3.8346   -3.8081   -0.0793 H   0  0  0  0  0  0  0  0  0  0  0  0
   -0.4849    2.6350    1.2370 C   0  0  0  0  0  0  0  0  0  0  0  0
    0.4154    2.4659    0.6197 H   0  0  0  0  0  0  0  0  0  0  0  0
   -0.1829    3.1795    2.1566 H   0  0  0  0  0  0  0  0  0  0  0  0
   -1.5184    3.4291    0.4376 C   0  0  0  0  0  0  0  0  0  0  0  0
   -2.4053    3.6511    1.0711 H   0  0  0  0  0  0  0  0  0  0  0  0
   -1.8650    2.7915   -0.4024 H   0  0  0  0  0  0  0  0  0  0  0  0
   -0.9322    4.7296   -0.1184 C   0  0  0  0  0  0  0  0  0  0  0  0
   -0.5197    5.3407    0.7152 H   0  0  0  0  0  0  0  0  0  0  0  0
   -0.0689    4.4743   -0.7718 H   0  0  0  0  0  0  0  0  0  0  0  0
   -1.9506    5.5506   -0.9089 C   0  0  0  0  0  0  0  0  0  0  0  0
   -1.4990    6.4794   -1.3092 H   0  0  0  0  0  0  0  0  0  0  0  0
   -2.8133    5.8446   -0.2761 H   0  0  0  0  0  0  0  0  0  0  0  0
   -2.3485    4.9739   -1.7692 H   0  0  0  0  0  0  0  0  0  0  0  0
   -0.4403   -1.7466   -1.0194 N   0  0  0  0  0  0  0  0  0  0  0  0
   -0.8609   -1.1885   -1.7859 H   0  0  0  0  0  0  0  0  0  0  0  0
    0.1292   -2.4704   -1.4769 H   0  0  0  0  0  0  0  0  0  0  0  0
  1  6  1  0  0  0  0
  2  4  1  0  0  0  0
  3  1  1  0  0  0  0
  3  2  1  0  0  0  0
  4  5  1  0  0  0  0
  6  4  2  0  0  0  0
  6  7  1  0  0  0  0
  8 10  1  0  0  0  0
  8  2  1  0  0  0  0
  8  9  1  0  0  0  0
 11 12  1  6  0  0  0
 11  8  1  0  0  0  0
 13 22  1  0  0  0  0
 13 11  1  0  0  0  0
 14 13  2  0  0  0  0
 15 14  1  0  0  0  0
 16 18  2  0  0  0  0
 16 14  1  0  0  0  0
 17 16  1  0  0  0  0
 18 20  1  0  0  0  0
 19 18  1  0  0  0  0
 20 21  1  0  0  0  0
 20 22  2  0  0  0  0
 22 23  1  0  0  0  0
 24  1  1  0  0  0  0
 24 26  1  0  0  0  0
 25 24  1  0  0  0  0
 27 28  1  0  0  0  0
 27 24  1  0  0  0  0
 29 27  1  0  0  0  0
 30 27  1  0  0  0  0
 30 31  1  0  0  0  0
 32 30  1  0  0  0  0
 33 35  1  0  0  0  0
 33 30  1  0  0  0  0
 34 33  1  0  0  0  0
 36 33  1  0  0  0  0
 37 11  1  0  0  0  0
 38 37  1  0  0  0  0
 39 37  1  0  0  0  0
M  END
