1
q = 0.0, confidence = 0.954

 37 36  0  0  0  0  0  0  0  0999 V2000
   -0.3141    0.8751   -0.0996 C   0  0  0  0  0  2  0  0  0  0  0  0
   -0.5580    2.1974   -0.1623 O   0  0  0  0  0  0  0  0  0  0  0  0
    0.5472    3.1239   -0.2771 C   0  0  0  0  0  0  0  0  0  0  0  0
   -0.0292    4.5217   -0.3428 C   0  0  0  0  0  0  0  0  0  0  0  0
    0.9157    0.4854   -0.1580 N   0  0  0  0  0  2  0  0  0  0  0  0
    2.0554   -0.0655   -0.0192 C   0  0  0  0  0  3  0  0  0  0  0  0
    2.7375   -0.5892   -1.3131 C   0  0  0  0  0  0  0  0  0  0  0  0
    4.2746   -0.4839   -1.3116 C   0  0  0  0  0  0  0  0  0  0  0  0
    2.2157    0.2064   -2.5283 C   0  0  0  0  0  0  0  0  0  0  0  0
    2.3136   -2.0704   -1.4920 C   0  0  0  0  0  0  0  0  0  0  0  0
    2.6329   -0.1832    1.4184 C   0  0  0  0  0  0  0  0  0  0  0  0
    1.5433    0.1703    2.4500 C   0  0  0  0  0  0  0  0  0  0  0  0
    3.1275   -1.6129    1.7294 C   0  0  0  0  0  0  0  0  0  0  0  0
    3.7868    0.8369    1.5846 C   0  0  0  0  0  0  0  0  0  0  0  0
    1.1322    2.8700   -1.1883 H   0  0  0  0  0  0  0  0  0  0  0  0
    1.2214    2.9943    0.5989 H   0  0  0  0  0  0  0  0  0  0  0  0
   -0.6073    4.7522    0.5734 H   0  0  0  0  0  0  0  0  0  0  0  0
    0.7850    5.2668   -0.4397 H   0  0  0  0  0  0  0  0  0  0  0  0
   -0.7054    4.6261   -1.2137 H   0  0  0  0  0  0  0  0  0  0  0  0
    4.7528   -1.0619   -0.4998 H   0  0  0  0  0  0  0  0  0  0  0  0
    4.6140    0.5682   -1.2414 H   0  0  0  0  0  0  0  0  0  0  0  0
    4.6564   -0.8912   -2.2693 H   0  0  0  0  0  0  0  0  0  0  0  0
    2.6953   -0.1763   -3.4507 H   0  0  0  0  0  0  0  0  0  0  0  0
    2.4628    1.2841   -2.4403 H   0  0  0  0  0  0  0  0  0  0  0  0
    2.6766   -2.7182   -0.6738 H   0  0  0  0  0  0  0  0  0  0  0  0
    1.2127   -2.1668   -1.5452 H   0  0  0  0  0  0  0  0  0  0  0  0
    0.6763   -0.5116    2.3838 H   0  0  0  0  0  0  0  0  0  0  0  0
    1.9669    0.0850    3.4697 H   0  0  0  0  0  0  0  0  0  0  0  0
    1.1696    1.2058    2.3290 H   0  0  0  0  0  0  0  0  0  0  0  0
    3.4571    1.8609    1.3139 H   0  0  0  0  0  0  0  0  0  0  0  0
    4.6766    0.5888    0.9806 H   0  0  0  0  0  0  0  0  0  0  0  0
    1.1218    0.1058   -2.6520 H   0  0  0  0  0  0  0  0  0  0  0  0
    3.9502   -1.9412    1.0678 H   0  0  0  0  0  0  0  0  0  0  0  0
    2.2991   -2.3434    1.6534 H   0  0  0  0  0  0  0  0  0  0  0  0
    2.7345   -2.4525   -2.4444 H   0  0  0  0  0  0  0  0  0  0  0  0
    3.5113   -1.6398    2.7693 H   0  0  0  0  0  0  0  0  0  0  0  0
    4.0976    0.8567    2.6489 H   0  0  0  0  0  0  0  0  0  0  0  0
  2  1  1  0  0  0  0
  3  2  1  0  0  0  0
  3 16  1  0  0  0  0
  4  3  1  0  0  0  0
  4 17  1  0  0  0  0
  5  1  1  0  0  0  0
  5  6  1  0  0  0  0
  6 11  1  0  0  0  0
  7  8  1  0  0  0  0
  7  6  1  0  0  0  0
  8 21  1  0  0  0  0
  8 20  1  0  0  0  0
  9 24  1  0  0  0  0
  9  7  1  0  0  0  0
 10  7  1  0  0  0  0
 10 25  1  0  0  0  0
 11 14  1  0  0  0  0
 11 13  1  0  0  0  0
 11 12  1  0  0  0  0
 12 28  1  0  0  0  0
 13 36  1  0  0  0  0
 14 37  1  0  0  0  0
 15  3  1  0  0  0  0
 18  4  1  0  0  0  0
 19  4  1  0  0  0  0
 22  8  1  0  0  0  0
 23  9  1  0  0  0  0
 26 10  1  0  0  0  0
 27 12  1  0  0  0  0
 29 12  1  0  0  0  0
 30 14  1  0  0  0  0
 31 14  1  0  0  0  0
 32  9  1  0  0  0  0
 33 13  1  0  0  0  0
 34 13  1  0  0  0  0
 35 10  1  0  0  0  0
M  END
