1
q = -1.0, confidence = 0.01

 27 27  0  0  0  0  0  0  0  0999 V2000
    0.2487    1.6283   -0.1848 C   0  0  0  0  0  2  0  0  0  0  0  0
    1.0947    0.6437   -0.8254 C   0  0  0  0  0  3  0  0  0  0  0  0
    0.1565    3.1152   -0.4446 C   0  0  0  0  0  0  0  0  0  0  0  0
   -0.7851    3.8214    0.5441 C   0  0  0  0  0  0  0  0  0  0  0  0
   -0.4147    3.2703   -1.8798 C   0  0  0  0  0  0  0  0  0  0  0  0
    1.5489    3.7827   -0.3956 C   0  0  0  0  0  0  0  0  0  0  0  0
    2.5690    0.6617   -0.6484 C   0  0  0  0  0  0  0  0  0  0  0  0
    3.4161    0.2507   -1.7039 C   0  0  0  0  0  0  0  0  0  0  0  0
    4.8111    0.2522   -1.5636 C   0  0  0  0  0  0  0  0  0  0  0  0
    5.4038    0.6770   -0.3626 C   0  0  0  0  0  0  0  0  0  0  0  0
    4.5777    1.0926    0.6963 C   0  0  0  0  0  0  0  0  0  0  0  0
    3.1848    1.0741    0.5570 C   0  0  0  0  0  0  0  0  0  0  0  0
    0.7935    0.3259   -1.8401 H   0  0  0  0  0  0  0  0  0  0  0  0
   -1.7821    3.3425    0.5341 H   0  0  0  0  0  0  0  0  0  0  0  0
   -0.9068    4.8890    0.2677 H   0  0  0  0  0  0  0  0  0  0  0  0
   -0.3841    3.7838    1.5760 H   0  0  0  0  0  0  0  0  0  0  0  0
   -0.4577    4.3472   -2.1459 H   0  0  0  0  0  0  0  0  0  0  0  0
   -1.4359    2.8494   -1.9408 H   0  0  0  0  0  0  0  0  0  0  0  0
    0.2256    2.7530   -2.6210 H   0  0  0  0  0  0  0  0  0  0  0  0
    2.2482    3.3229   -1.1195 H   0  0  0  0  0  0  0  0  0  0  0  0
    2.0042    3.7016    0.6109 H   0  0  0  0  0  0  0  0  0  0  0  0
    1.4495    4.8606   -0.6411 H   0  0  0  0  0  0  0  0  0  0  0  0
    2.9608   -0.0790   -2.6511 H   0  0  0  0  0  0  0  0  0  0  0  0
    5.4433   -0.0803   -2.4019 H   0  0  0  0  0  0  0  0  0  0  0  0
    6.4987    0.6810   -0.2514 H   0  0  0  0  0  0  0  0  0  0  0  0
    5.0262    1.4254    1.6457 H   0  0  0  0  0  0  0  0  0  0  0  0
    2.5421    1.3686    1.4001 H   0  0  0  0  0  0  0  0  0  0  0  0
  2  7  1  0  0  0  0
  2  1  1  0  0  0  0
  3  6  1  0  0  0  0
  3  1  1  0  0  0  0
  3  4  1  0  0  0  0
  4 16  1  0  0  0  0
  5  3  1  0  0  0  0
  6 21  1  0  0  0  0
  7 12  1  0  0  0  0
  8  9  1  0  0  0  0
  8  7  2  0  0  0  0
  9 10  2  0  0  0  0
 10 25  1  0  0  0  0
 10 11  1  0  0  0  0
 11 26  1  0  0  0  0
 12 11  2  0  0  0  0
 12 27  1  0  0  0  0
 13  2  1  0  0  0  0
 14  4  1  0  0  0  0
 15  4  1  0  0  0  0
 17  5  1  0  0  0  0
 18  5  1  0  0  0  0
 19  5  1  0  0  0  0
 20  6  1  0  0  0  0
 22  6  1  0  0  0  0
 23  8  1  0  0  0  0
 24  9  1  0  0  0  0
M  END
