1
q = -1.0, confidence = 0.0

 15 15  0  0  0  0  0  0  0  0999 V2000
   -2.9407   -0.1210   -0.0073 C   0  0  0  0  0  3  0  0  0  0  0  0
   -3.6500   -1.3451   -0.0372 C   0  0  0  0  0  0  0  0  0  0  0  0
   -3.0994   -2.2990   -0.0610 H   0  0  0  0  0  0  0  0  0  0  0  0
   -5.0516   -1.3791   -0.0366 C   0  0  0  0  0  0  0  0  0  0  0  0
   -5.5750   -2.3496   -0.0602 H   0  0  0  0  0  0  0  0  0  0  0  0
   -5.8185   -0.1919   -0.0060 C   0  0  0  0  0  0  0  0  0  0  0  0
   -5.1151    1.0357    0.0242 C   0  0  0  0  0  0  0  0  0  0  0  0
   -5.6746    1.9840    0.0489 H   0  0  0  0  0  0  0  0  0  0  0  0
   -3.7163    1.0668    0.0234 C   0  0  0  0  0  0  0  0  0  0  0  0
   -3.2135    2.0468    0.0480 H   0  0  0  0  0  0  0  0  0  0  0  0
   -7.2856   -0.2823   -0.0067 C   0  0  0  0  0  0  0  0  0  0  0  0
   -7.6787   -1.3149   -0.0317 H   0  0  0  0  0  0  0  0  0  0  0  0
   -8.1771    0.7326    0.0193 C   0  0  0  0  0  0  0  0  0  0  0  0
   -9.2595    0.5352    0.0156 H   0  0  0  0  0  0  0  0  0  0  0  0
   -7.8665    1.7892    0.0449 H   0  0  0  0  0  0  0  0  0  0  0  0
  1  9  1  0  0  0  0
  2  4  1  0  0  0  0
  2  1  2  0  0  0  0
  3  2  1  0  0  0  0
  4  6  2  0  0  0  0
  5  4  1  0  0  0  0
  6  7  1  0  0  0  0
  7  8  1  0  0  0  0
  9  7  2  0  0  0  0
  9 10  1  0  0  0  0
 11  6  1  0  0  0  0
 11 13  2  0  0  0  0
 12 11  1  0  0  0  0
 13 15  1  0  0  0  0
 14 13  1  0  0  0  0
M  END
