4
q = -2.0, confidence = 0.694

 20 20  0  0  1  0  0  0  0  0999 V2000
   -1.6499    1.5383    0.4614 C   0  0  2  0  0  3  0  0  0  0  0  0
   -1.7573    1.2377   -0.9746 C   0  0  0  0  0  0  0  0  0  0  0  0
   -2.5931    0.0787   -0.6662 C   0  0  0  0  0  0  0  0  0  0  0  0
   -2.4819    0.3666    0.7690 C   0  0  2  0  0  3  0  0  0  0  0  0
   -1.2699    2.7396    1.2535 C   0  0  0  0  0  0  0  0  0  0  0  0
   -0.9339    2.4610    2.2731 H   0  0  0  0  0  0  0  0  0  0  0  0
   -0.4691    3.3260    0.7598 H   0  0  0  0  0  0  0  0  0  0  0  0
   -2.1419    3.4209    1.3732 H   0  0  0  0  0  0  0  0  0  0  0  0
   -1.3733    1.9446   -2.2281 C   0  0  0  0  0  0  0  0  0  0  0  0
   -1.2527    1.2368   -3.0744 H   0  0  0  0  0  0  0  0  0  0  0  0
   -0.4191    2.4966   -2.1056 H   0  0  0  0  0  0  0  0  0  0  0  0
   -2.1465    2.6845   -2.5330 H   0  0  0  0  0  0  0  0  0  0  0  0
   -3.3836   -0.8893   -1.4747 C   0  0  0  0  0  0  0  0  0  0  0  0
   -3.5223   -1.8469   -0.9333 H   0  0  0  0  0  0  0  0  0  0  0  0
   -2.8963   -1.1092   -2.4471 H   0  0  0  0  0  0  0  0  0  0  0  0
   -4.3964   -0.4895   -1.7011 H   0  0  0  0  0  0  0  0  0  0  0  0
   -3.1683   -0.1177    1.9958 C   0  0  0  0  0  0  0  0  0  0  0  0
   -2.5249    0.0170    2.8874 H   0  0  0  0  0  0  0  0  0  0  0  0
   -3.4111   -1.1953    1.9227 H   0  0  0  0  0  0  0  0  0  0  0  0
   -4.1175    0.4367    2.1685 H   0  0  0  0  0  0  0  0  0  0  0  0
  1  4  1  0  0  0  0
  1  5  1  6  0  0  0
  2  3  2  0  0  0  0
  2  1  1  0  0  0  0
  3  4  1  0  0  0  0
  4 17  1  6  0  0  0
  5  8  1  0  0  0  0
  5  6  1  0  0  0  0
  7  5  1  0  0  0  0
  9 11  1  0  0  0  0
  9  2  1  0  0  0  0
 10  9  1  0  0  0  0
 12  9  1  0  0  0  0
 13 14  1  0  0  0  0
 13  3  1  0  0  0  0
 15 13  1  0  0  0  0
 16 13  1  0  0  0  0
 17 20  1  0  0  0  0
 17 18  1  0  0  0  0
 19 17  1  0  0  0  0
M  END
