4
q = -1.0, confidence = 0.0

 14 15  0  0  0  0  0  0  0  0999 V2000
   -3.3670    0.1026    2.1769 O   0  0  0  0  0  0  0  0  0  0  0  0
   -1.9966    0.0946    1.9398 C   0  0  0  0  0  0  0  0  0  0  0  0
   -1.3901    0.1474    2.8516 H   0  0  0  0  0  0  0  0  0  0  0  0
   -1.6549    0.0333    0.6083 C   0  0  0  0  0  3  0  0  0  0  0  0
   -2.9481    0.0003   -0.0682 C   0  0  0  0  0  0  0  0  0  0  0  0
   -3.3660   -0.0589   -1.4163 C   0  0  0  0  0  0  0  0  0  0  0  0
   -2.6108   -0.0905   -2.2164 H   0  0  0  0  0  0  0  0  0  0  0  0
   -4.7374   -0.0745   -1.7035 C   0  0  0  0  0  0  0  0  0  0  0  0
   -5.0733   -0.1202   -2.7508 H   0  0  0  0  0  0  0  0  0  0  0  0
   -5.7044   -0.0318   -0.6710 C   0  0  0  0  0  0  0  0  0  0  0  0
   -6.7743   -0.0454   -0.9288 H   0  0  0  0  0  0  0  0  0  0  0  0
   -5.3226    0.0289    0.6782 C   0  0  0  0  0  0  0  0  0  0  0  0
   -6.0598    0.0639    1.4933 H   0  0  0  0  0  0  0  0  0  0  0  0
   -3.9492    0.0439    0.9425 C   0  0  0  0  0  0  0  0  0  0  0  0
  2  1  1  0  0  0  0
  2  3  1  0  0  0  0
  4  2  2  0  0  0  0
  5  4  1  0  0  0  0
  5 14  1  0  0  0  0
  6  5  2  0  0  0  0
  7  6  1  0  0  0  0
  8  6  1  0  0  0  0
  8 10  2  0  0  0  0
  9  8  1  0  0  0  0
 10 12  1  0  0  0  0
 11 10  1  0  0  0  0
 12 14  2  0  0  0  0
 12 13  1  0  0  0  0
 14  1  1  0  0  0  0
M  END
