4
q = -1.0, confidence = 0.042

  5  4  0  0  0  0  0  0  0  0999 V2000
   -0.2711   -0.0302    4.1651 F   0  0  0  0  0  0  0  0  0  0  0  0
   -3.0819   -0.2517    1.9850 F   0  0  0  0  0  0  0  0  0  0  0  0
   -3.0135   -0.2348    4.1827 F   0  0  0  0  0  0  0  0  0  0  0  0
   -0.9339   -0.0862    2.9620 C   0  0  0  0  0  0  0  0  0  0  0  0
   -2.2797   -0.1844    3.0649 C   0  0  0  0  0  0  0  0  0  0  0  0
  2  5  1  0  0  0  0
  4  5  2  0  0  0  0
  4  1  1  0  0  0  0
  5  3  1  0  0  0  0
M  END
