18
q = 0.0, confidence = 0.882

 42 44  0  0  1  0  0  0  0  0999 V2000
    2.4368   -1.2298    2.4480 O   0  0  0  0  0  0  0  0  0  0  0  0
    1.4790    0.6707   -0.3978 C   0  0  2  0  0  3  0  0  0  0  0  0
    1.7865    1.8781   -1.2345 C   0  0  0  0  0  0  0  0  0  0  0  0
    3.2783    1.9380   -1.6328 C   0  0  0  0  0  0  0  0  0  0  0  0
    4.2953    1.6716   -0.5142 C   0  0  0  0  0  0  0  0  0  0  0  0
    4.2178    2.6008    0.7194 C   0  0  0  0  0  0  0  0  0  0  0  0
    3.5683    2.0139    1.9813 C   0  0  0  0  0  0  0  0  0  0  0  0
    2.0475    1.7555    1.9266 C   0  0  0  0  0  0  0  0  0  0  0  0
    1.6682    0.6191    1.0293 C   0  0  2  0  0  3  0  0  0  0  0  0
    1.9202   -0.8064    1.4197 C   0  0  0  0  0  0  0  0  0  0  0  0
    1.2911   -1.5612    0.2982 C   0  0  2  0  0  3  0  0  0  0  0  0
    1.3093   -3.0573    0.2495 C   0  0  0  0  0  0  0  0  0  0  0  0
    2.7604   -3.5760    0.1350 C   0  0  0  0  0  0  0  0  0  0  0  0
    3.6067   -2.9210   -0.9664 C   0  0  0  0  0  0  0  0  0  0  0  0
    3.0132   -2.9523   -2.3946 C   0  0  0  0  0  0  0  0  0  0  0  0
    2.4290   -1.6316   -2.9217 C   0  0  0  0  0  0  0  0  0  0  0  0
    1.1102   -1.1368   -2.2897 C   0  0  0  0  0  0  0  0  0  0  0  0
    1.2182   -0.6934   -0.8556 C   0  0  2  0  0  3  0  0  0  0  0  0
    1.1632    1.9002   -2.1489 H   0  0  0  0  0  0  0  0  0  0  0  0
    1.5189    2.7834   -0.6528 H   0  0  0  0  0  0  0  0  0  0  0  0
    3.4649    2.9419   -2.0713 H   0  0  0  0  0  0  0  0  0  0  0  0
    3.4607    1.2120   -2.4528 H   0  0  0  0  0  0  0  0  0  0  0  0
    4.2203    0.6115   -0.1831 H   0  0  0  0  0  0  0  0  0  0  0  0
    5.3029    1.7566   -0.9710 H   0  0  0  0  0  0  0  0  0  0  0  0
    5.2487    2.9005    0.9999 H   0  0  0  0  0  0  0  0  0  0  0  0
    3.7068    3.5514    0.4442 H   0  0  0  0  0  0  0  0  0  0  0  0
    3.7483    2.7121    2.8256 H   0  0  0  0  0  0  0  0  0  0  0  0
    4.0732    1.0638    2.2586 H   0  0  0  0  0  0  0  0  0  0  0  0
    1.5208    2.6852    1.6220 H   0  0  0  0  0  0  0  0  0  0  0  0
    1.7038    1.5055    2.9517 H   0  0  0  0  0  0  0  0  0  0  0  0
    0.8487   -3.4685    1.1706 H   0  0  0  0  0  0  0  0  0  0  0  0
    0.7076   -3.4283   -0.6048 H   0  0  0  0  0  0  0  0  0  0  0  0
    2.7139   -4.6733   -0.0339 H   0  0  0  0  0  0  0  0  0  0  0  0
    3.2626   -3.4234    1.1115 H   0  0  0  0  0  0  0  0  0  0  0  0
    4.5924   -3.4302   -0.9682 H   0  0  0  0  0  0  0  0  0  0  0  0
    3.8318   -1.8678   -0.6855 H   0  0  0  0  0  0  0  0  0  0  0  0
    3.8109   -3.2514   -3.1056 H   0  0  0  0  0  0  0  0  0  0  0  0
    2.2450   -3.7541   -2.4721 H   0  0  0  0  0  0  0  0  0  0  0  0
    2.2381   -1.7422   -4.0101 H   0  0  0  0  0  0  0  0  0  0  0  0
    3.1985   -0.8346   -2.8304 H   0  0  0  0  0  0  0  0  0  0  0  0
    0.7185   -0.2900   -2.8913 H   0  0  0  0  0  0  0  0  0  0  0  0
    0.3494   -1.9423   -2.3740 H   0  0  0  0  0  0  0  0  0  0  0  0
  2  3  1  6  0  0  0
  2  9  1  0  0  0  0
  3 20  1  0  0  0  0
  4  3  1  0  0  0  0
  4  5  1  0  0  0  0
  5 23  1  0  0  0  0
  5  6  1  0  0  0  0
  6 25  1  0  0  0  0
  6  7  1  0  0  0  0
  7 28  1  0  0  0  0
  7 27  1  0  0  0  0
  8  7  1  0  0  0  0
  8 30  1  0  0  0  0
  9 10  1  6  0  0  0
  9  8  1  0  0  0  0
 10  1  2  0  0  0  0
 11 10  1  6  0  0  0
 12 11  1  0  0  0  0
 12 31  1  0  0  0  0
 13 12  1  0  0  0  0
 13 34  1  0  0  0  0
 14 36  1  0  0  0  0
 14 13  1  0  0  0  0
 15 14  1  0  0  0  0
 16 40  1  0  0  0  0
 16 15  1  0  0  0  0
 16 17  1  0  0  0  0
 18 17  1  6  0  0  0
 18  2  1  0  0  0  0
 18 11  1  0  0  0  0
 19  3  1  0  0  0  0
 21  4  1  0  0  0  0
 22  4  1  0  0  0  0
 24  5  1  0  0  0  0
 26  6  1  0  0  0  0
 29  8  1  0  0  0  0
 32 12  1  0  0  0  0
 33 13  1  0  0  0  0
 35 14  1  0  0  0  0
 37 15  1  0  0  0  0
 38 15  1  0  0  0  0
 39 16  1  0  0  0  0
 41 17  1  0  0  0  0
 42 17  1  0  0  0  0
M  END
