3
q = 0.0, confidence = 0.966

 34 38  0  0  1  0  0  0  0  0999 V2000
    0.1683   -0.9236   -0.7105 C   0  0  0  0  0  0  0  0  0  0  0  0
   -0.7338   -1.7628   -1.4303 C   0  0  0  0  0  0  0  0  0  0  0  0
   -1.6134   -2.6150   -0.7156 C   0  0  0  0  0  3  0  0  0  0  0  0
   -1.6132   -2.6151    0.7163 C   0  0  0  0  0  0  0  0  0  0  0  0
   -0.7336   -1.7625    1.4305 C   0  0  0  0  0  0  0  0  0  0  0  0
    0.1685   -0.9235    0.7104 C   0  0  1  0  0  3  0  0  0  0  0  0
    1.0346    1.3747   -0.7062 C   0  0  0  0  0  0  0  0  0  0  0  0
    0.8415    2.5634   -1.4144 C   0  0  0  0  0  0  0  0  0  0  0  0
    0.6465    3.7614   -0.7014 C   0  0  0  0  0  0  0  0  0  0  0  0
    0.6462    3.7613    0.7011 C   0  0  0  0  0  0  0  0  0  0  0  0
    0.8409    2.5634    1.4141 C   0  0  0  0  0  0  0  0  0  0  0  0
    1.0344    1.3747    0.7059 C   0  0  0  0  0  0  0  0  0  0  0  0
    2.5558   -0.5360   -0.7076 C   0  0  0  0  0  0  0  0  0  0  0  0
    3.6778   -0.9777   -1.4136 C   0  0  0  0  0  0  0  0  0  0  0  0
    4.8093   -1.4215   -0.7015 C   0  0  0  0  0  0  0  0  0  0  0  0
    4.8094   -1.4214    0.7010 C   0  0  0  0  0  0  0  0  0  0  0  0
    3.6780   -0.9775    1.4133 C   0  0  0  0  0  0  0  0  0  0  0  0
    2.5559   -0.5359    0.7073 C   0  0  0  0  0  0  0  0  0  0  0  0
    1.2456   -0.0135   -1.3026 C   0  0  1  0  0  0  0  0  0  0  0  0
    1.2458   -0.0133    1.3024 C   0  0  2  0  0  0  0  0  0  0  0  0
   -0.7643   -1.7284   -2.5283 H   0  0  0  0  0  0  0  0  0  0  0  0
   -2.3342   -3.2390   -1.2612 H   0  0  0  0  0  0  0  0  0  0  0  0
   -2.3339   -3.2390    1.2621 H   0  0  0  0  0  0  0  0  0  0  0  0
   -0.7639   -1.7278    2.5285 H   0  0  0  0  0  0  0  0  0  0  0  0
    0.8265    2.5591   -2.5147 H   0  0  0  0  0  0  0  0  0  0  0  0
    0.4869    4.7015   -1.2503 H   0  0  0  0  0  0  0  0  0  0  0  0
    0.4862    4.7014    1.2499 H   0  0  0  0  0  0  0  0  0  0  0  0
    0.8255    2.5591    2.5144 H   0  0  0  0  0  0  0  0  0  0  0  0
    3.6767   -0.9760   -2.5147 H   0  0  0  0  0  0  0  0  0  0  0  0
    5.6971   -1.7699   -1.2504 H   0  0  0  0  0  0  0  0  0  0  0  0
    5.6973   -1.7697    1.2499 H   0  0  0  0  0  0  0  0  0  0  0  0
    3.6770   -0.9756    2.5143 H   0  0  0  0  0  0  0  0  0  0  0  0
    1.2389   -0.0149   -2.4074 H   0  0  0  0  0  0  0  0  0  0  0  0
    1.2391   -0.0148    2.4072 H   0  0  0  0  0  0  0  0  0  0  0  0
  2  3  1  0  0  0  0
  2  1  2  0  0  0  0
  3  4  1  0  0  0  0
  4 23  1  0  0  0  0
  4  5  2  0  0  0  0
  5 24  1  0  0  0  0
  6  1  1  6  0  0  0
  6 20  1  0  0  0  0
  6  5  1  0  0  0  0
  7 12  1  0  0  0  0
  8  7  2  0  0  0  0
  8  9  1  0  0  0  0
  9 10  2  0  0  0  0
 10 27  1  0  0  0  0
 10 11  1  0  0  0  0
 11 28  1  0  0  0  0
 12 20  1  0  0  0  0
 12 11  2  0  0  0  0
 13 18  1  0  0  0  0
 14 13  2  0  0  0  0
 14 15  1  0  0  0  0
 15 16  2  0  0  0  0
 16 31  1  0  0  0  0
 16 17  1  0  0  0  0
 17 32  1  0  0  0  0
 18 20  1  0  0  0  0
 18 17  2  0  0  0  0
 19 33  1  6  0  0  0
 19  1  1  0  0  0  0
 19 13  1  0  0  0  0
 19  7  1  0  0  0  0
 20 34  1  1  0  0  0
 21  2  1  0  0  0  0
 22  3  1  0  0  0  0
 25  8  1  0  0  0  0
 26  9  1  0  0  0  0
 29 14  1  0  0  0  0
 30 15  1  0  0  0  0
M  END
