3
q = 0.0, confidence = 0.988

 59 61  0  0  1  0  0  0  0  0999 V2000
    0.9876    0.5206    0.5995 N   0  0  0  0  0  0  0  0  0  0  0  0
    1.0981   -1.5215   -0.2133 N   0  0  0  0  0  0  0  0  0  0  0  0
    0.2773   -0.4828    0.0319 C   0  0  0  0  0  2  0  0  0  0  0  0
    2.5042   -1.2227    0.1109 C   0  0  2  0  0  0  0  0  0  0  0  0
    2.9114   -2.0373    0.7443 H   0  0  0  0  0  0  0  0  0  0  0  0
    2.3649    0.0891    0.9085 C   0  0  0  0  0  0  0  0  0  0  0  0
    2.4696   -0.0664    2.0032 H   0  0  0  0  0  0  0  0  0  0  0  0
    3.1048    0.8521    0.6012 H   0  0  0  0  0  0  0  0  0  0  0  0
    0.4868    1.8027    1.0174 C   0  0  0  0  0  0  0  0  0  0  0  0
   -0.2201    1.9117    2.2452 C   0  0  0  0  0  0  0  0  0  0  0  0
   -0.6845    3.1847    2.6283 C   0  0  0  0  0  0  0  0  0  0  0  0
   -1.2417    3.2887    3.5708 H   0  0  0  0  0  0  0  0  0  0  0  0
   -0.4418    4.3145    1.8411 C   0  0  0  0  0  0  0  0  0  0  0  0
   -0.8158    5.2998    2.1595 H   0  0  0  0  0  0  0  0  0  0  0  0
    0.2874    4.1920    0.6539 C   0  0  0  0  0  0  0  0  0  0  0  0
    0.4872    5.0858    0.0446 H   0  0  0  0  0  0  0  0  0  0  0  0
    0.7690    2.9439    0.2177 C   0  0  0  0  0  0  0  0  0  0  0  0
   -0.4180    0.7305    3.1846 C   0  0  0  0  0  0  0  0  0  0  0  0
   -0.2688   -0.2021    2.6055 H   0  0  0  0  0  0  0  0  0  0  0  0
   -1.8389    0.6597    3.7612 C   0  0  0  0  0  0  0  0  0  0  0  0
   -2.0508    1.5018    4.4528 H   0  0  0  0  0  0  0  0  0  0  0  0
   -1.9699   -0.2827    4.3285 H   0  0  0  0  0  0  0  0  0  0  0  0
   -2.5950    0.6631    2.9526 H   0  0  0  0  0  0  0  0  0  0  0  0
    0.6311    0.7679    4.3130 C   0  0  0  0  0  0  0  0  0  0  0  0
    1.6667    0.7883    3.9166 H   0  0  0  0  0  0  0  0  0  0  0  0
    0.5314   -0.1225    4.9673 H   0  0  0  0  0  0  0  0  0  0  0  0
    0.5042    1.6719    4.9449 H   0  0  0  0  0  0  0  0  0  0  0  0
    1.6183    2.8746   -1.0458 C   0  0  0  0  0  0  0  0  0  0  0  0
    1.6586    1.8105   -1.3570 H   0  0  0  0  0  0  0  0  0  0  0  0
    1.0162    3.6641   -2.2181 C   0  0  0  0  0  0  0  0  0  0  0  0
   -0.0251    3.3450   -2.4128 H   0  0  0  0  0  0  0  0  0  0  0  0
    1.6069    3.4853   -3.1395 H   0  0  0  0  0  0  0  0  0  0  0  0
    1.0290    4.7574   -2.0282 H   0  0  0  0  0  0  0  0  0  0  0  0
    3.0486    3.3712   -0.7547 C   0  0  0  0  0  0  0  0  0  0  0  0
    3.0375    4.4412   -0.4605 H   0  0  0  0  0  0  0  0  0  0  0  0
    3.6878    3.2800   -1.6577 H   0  0  0  0  0  0  0  0  0  0  0  0
    3.5347    2.8129    0.0704 H   0  0  0  0  0  0  0  0  0  0  0  0
    0.7054   -2.7866   -0.8194 C   0  0  0  0  0  0  0  0  0  0  0  0
    1.1708   -2.8902   -1.8242 H   0  0  0  0  0  0  0  0  0  0  0  0
   -0.3944   -2.7262   -0.9597 H   0  0  0  0  0  0  0  0  0  0  0  0
    1.0589   -3.9518    0.0632 C   0  0  0  0  0  0  0  0  0  0  0  0
    0.5615   -3.9482    1.0496 H   0  0  0  0  0  0  0  0  0  0  0  0
    1.9026   -4.9380   -0.2858 C   0  0  0  0  0  0  0  0  0  0  0  0
    2.3975   -4.9476   -1.2725 H   0  0  0  0  0  0  0  0  0  0  0  0
    2.1155   -5.7821    0.3885 H   0  0  0  0  0  0  0  0  0  0  0  0
    3.3718   -1.1060   -1.1629 C   0  0  0  0  0  0  0  0  0  0  0  0
    2.9777   -0.2794   -1.7894 H   0  0  0  0  0  0  0  0  0  0  0  0
    3.2544   -2.0413   -1.7481 H   0  0  0  0  0  0  0  0  0  0  0  0
    4.8298   -0.8934   -0.8353 C   0  0  0  0  0  0  0  0  0  0  0  0
    5.4431    0.3634   -1.0042 C   0  0  0  0  0  0  0  0  0  0  0  0
    4.8600    1.1957   -1.4267 H   0  0  0  0  0  0  0  0  0  0  0  0
    6.7868    0.5630   -0.6491 C   0  0  0  0  0  0  0  0  0  0  0  0
    7.2480    1.5521   -0.7923 H   0  0  0  0  0  0  0  0  0  0  0  0
    7.5389   -0.4947   -0.1167 C   0  0  0  0  0  0  0  0  0  0  0  0
    8.5924   -0.3405    0.1614 H   0  0  0  0  0  0  0  0  0  0  0  0
    6.9405   -1.7542    0.0539 C   0  0  0  0  0  0  0  0  0  0  0  0
    7.5256   -2.5915    0.4641 H   0  0  0  0  0  0  0  0  0  0  0  0
    5.5989   -1.9503   -0.3025 C   0  0  0  0  0  0  0  0  0  0  0  0
    5.1377   -2.9431   -0.1722 H   0  0  0  0  0  0  0  0  0  0  0  0
  1  6  1  0  0  0  0
  1  9  1  0  0  0  0
  2  3  1  0  0  0  0
  2  4  1  0  0  0  0
  3  1  1  0  0  0  0
  4  5  1  1  0  0  0
  4  6  1  0  0  0  0
  6  7  1  0  0  0  0
  8  6  1  0  0  0  0
  9 10  1  0  0  0  0
 10 11  2  0  0  0  0
 10 18  1  0  0  0  0
 11 12  1  0  0  0  0
 13 14  1  0  0  0  0
 13 11  1  0  0  0  0
 15 13  2  0  0  0  0
 16 15  1  0  0  0  0
 17 15  1  0  0  0  0
 17  9  2  0  0  0  0
 18 20  1  0  0  0  0
 18 24  1  0  0  0  0
 19 18  1  0  0  0  0
 20 22  1  0  0  0  0
 20 21  1  0  0  0  0
 23 20  1  0  0  0  0
 24 27  1  0  0  0  0
 24 26  1  0  0  0  0
 25 24  1  0  0  0  0
 28 34  1  0  0  0  0
 28 17  1  0  0  0  0
 29 28  1  0  0  0  0
 30 33  1  0  0  0  0
 30 28  1  0  0  0  0
 31 30  1  0  0  0  0
 32 30  1  0  0  0  0
 34 35  1  0  0  0  0
 34 37  1  0  0  0  0
 36 34  1  0  0  0  0
 38  2  1  0  0  0  0
 38 41  1  0  0  0  0
 39 38  1  0  0  0  0
 40 38  1  0  0  0  0
 41 42  1  0  0  0  0
 43 41  2  0  0  0  0
 43 45  1  0  0  0  0
 44 43  1  0  0  0  0
 46 49  1  0  0  0  0
 46  4  1  0  0  0  0
 47 46  1  0  0  0  0
 48 46  1  0  0  0  0
 49 58  1  0  0  0  0
 50 49  2  0  0  0  0
 50 52  1  0  0  0  0
 51 50  1  0  0  0  0
 52 54  2  0  0  0  0
 53 52  1  0  0  0  0
 54 56  1  0  0  0  0
 54 55  1  0  0  0  0
 56 57  1  0  0  0  0
 58 59  1  0  0  0  0
 58 56  2  0  0  0  0
M  END
