4
q = -1.0, confidence = 0.0

 17 17  0  0  0  0  0  0  0  0999 V2000
   -4.3724    2.0212    2.4789 O   0  0  0  0  0  0  0  0  0  0  0  0
   -5.2272    2.4457    2.2523 H   0  0  0  0  0  0  0  0  0  0  0  0
   -2.0496    2.2775    2.0541 C   0  0  0  0  0  0  0  0  0  0  0  0
    2.0230    0.8262    2.2487 C   0  0  0  0  0  3  0  0  0  0  0  0
    2.2252    0.1411    3.0933 H   0  0  0  0  0  0  0  0  0  0  0  0
    2.7717    1.6435    2.2510 H   0  0  0  0  0  0  0  0  0  0  0  0
   -3.7280    3.7801    1.2129 O   0  0  0  0  0  0  0  0  0  0  0  0
   -3.4283    2.7875    1.8658 C   0  0  0  0  0  0  0  0  0  0  0  0
   -0.4539    0.5514    2.6981 C   0  0  0  0  0  0  0  0  0  0  0  0
   -0.2493   -0.4572    3.0883 H   0  0  0  0  0  0  0  0  0  0  0  0
    0.6367    1.3512    2.2666 C   0  0  0  0  0  0  0  0  0  0  0  0
   -1.7710    1.0028    2.6007 C   0  0  0  0  0  0  0  0  0  0  0  0
   -2.6040    0.3648    2.9286 H   0  0  0  0  0  0  0  0  0  0  0  0
   -0.9748    3.0983    1.6547 C   0  0  0  0  0  0  0  0  0  0  0  0
   -1.2017    4.0954    1.2488 H   0  0  0  0  0  0  0  0  0  0  0  0
    0.3403    2.6472    1.7740 C   0  0  0  0  0  0  0  0  0  0  0  0
    1.1703    3.3001    1.4615 H   0  0  0  0  0  0  0  0  0  0  0  0
  2  1  1  0  0  0  0
  3 12  1  0  0  0  0
  4  6  1  0  0  0  0
  4 11  1  0  0  0  0
  4  5  1  0  0  0  0
  7  8  2  0  0  0  0
  8  3  1  0  0  0  0
  8  1  1  0  0  0  0
  9 10  1  0  0  0  0
 11  9  1  0  0  0  0
 12  9  2  0  0  0  0
 12 13  1  0  0  0  0
 14 16  1  0  0  0  0
 14  3  2  0  0  0  0
 15 14  1  0  0  0  0
 16 11  2  0  0  0  0
 17 16  1  0  0  0  0
M  END
