1
q = -1.0, confidence = 0.014

  6  5  0  0  0  0  0  0  0  0999 V2000
    2.0202    1.8113   -0.2343 C   0  0  0  0  0  3  0  0  0  0  0  0
    1.3666    2.9988   -0.1890 C   0  0  0  0  0  0  0  0  0  0  0  0
    3.4363    1.8283   -0.4237 C   0  0  0  0  0  0  0  0  0  0  0  0
    4.6040    1.7552   -0.5758 N   0  0  0  0  0  0  0  0  0  0  0  0
    1.9074    3.9551   -0.3016 H   0  0  0  0  0  0  0  0  0  0  0  0
    0.2764    3.0519   -0.0365 H   0  0  0  0  0  0  0  0  0  0  0  0
  1  2  2  0  0  0  0
  2  6  1  0  0  0  0
  3  1  1  0  0  0  0
  4  3  3  0  0  0  0
  5  2  1  0  0  0  0
M  END
