3
q = 0.0, confidence = 0.938

 11 10  0  0  1  0  0  0  0  0999 V2000
   -1.8416   -1.8945    0.6611 S   0  0  0  0  0  0  0  0  0  0  0  0
   -0.9084   -1.2704   -2.0101 S   0  0  0  0  0  1  0  0  0  0  0  0
   -2.2307   -0.9974   -0.8867 C   0  0  1  0  0  3  0  0  0  0  0  0
   -3.6557   -0.8594   -1.3445 C   0  0  0  0  0  0  0  0  0  0  0  0
   -3.1822   -1.4374    1.8239 C   0  0  0  0  0  0  0  0  0  0  0  0
   -4.0444   -1.8274   -1.7250 H   0  0  0  0  0  0  0  0  0  0  0  0
   -2.7749   -1.5657    2.8449 H   0  0  0  0  0  0  0  0  0  0  0  0
   -4.3270   -0.4972   -0.5414 H   0  0  0  0  0  0  0  0  0  0  0  0
   -3.6852   -0.1254   -2.1736 H   0  0  0  0  0  0  0  0  0  0  0  0
   -3.4623   -0.3775    1.6805 H   0  0  0  0  0  0  0  0  0  0  0  0
   -4.0524   -2.1054    1.6814 H   0  0  0  0  0  0  0  0  0  0  0  0
  1  5  1  0  0  0  0
  3  2  1  6  0  0  0
  3  1  1  0  0  0  0
  4  3  1  0  0  0  0
  4  8  1  0  0  0  0
  5  7  1  0  0  0  0
  6  4  1  0  0  0  0
  9  4  1  0  0  0  0
 10  5  1  0  0  0  0
 11  5  1  0  0  0  0
M  END
