3
q = 0.0, confidence = 1.0

 31 33  0  0  0  0  0  0  0  0999 V2000
   -0.6082   -2.6097   -0.0592 N   0  0  0  0  0  0  0  0  0  0  0  0
    1.1736   -2.3325   -1.1194 N   0  0  0  0  0  0  0  0  0  0  0  0
    1.2628   -1.3883   -0.1112 C   0  0  0  0  0  3  0  0  0  0  0  0
    0.0662   -3.0637   -1.1087 N   0  0  0  0  0  2  0  0  0  0  0  0
   -0.4603   -0.8484    1.7506 C   0  0  0  0  0  0  0  0  0  0  0  0
   -0.0300    0.2291    3.8981 C   0  0  0  0  0  0  0  0  0  0  0  0
    0.6664    0.4765    4.7137 H   0  0  0  0  0  0  0  0  0  0  0  0
   -1.8064   -0.4226    1.8253 C   0  0  0  0  0  0  0  0  0  0  0  0
   -2.5038   -0.6692    1.0121 H   0  0  0  0  0  0  0  0  0  0  0  0
   -2.1312   -3.6256    1.5733 C   0  0  0  0  0  0  0  0  0  0  0  0
   -1.3751   -3.4808    2.3572 H   0  0  0  0  0  0  0  0  0  0  0  0
   -2.2541    0.3208    2.9258 C   0  0  0  0  0  0  0  0  0  0  0  0
   -3.3046    0.6465    2.9695 H   0  0  0  0  0  0  0  0  0  0  0  0
   -2.7989   -3.4123   -0.7732 C   0  0  0  0  0  0  0  0  0  0  0  0
   -2.5479   -3.0859   -1.7918 H   0  0  0  0  0  0  0  0  0  0  0  0
    0.4256   -0.5123    2.7994 C   0  0  0  0  0  0  0  0  0  0  0  0
    1.4739   -0.8408    2.7310 H   0  0  0  0  0  0  0  0  0  0  0  0
   -1.8617   -3.2231    0.2553 C   0  0  0  0  0  0  0  0  0  0  0  0
   -4.3197   -4.4054    0.8460 C   0  0  0  0  0  0  0  0  0  0  0  0
   -5.2889   -4.8702    1.0801 H   0  0  0  0  0  0  0  0  0  0  0  0
    0.0612   -1.5901    0.5972 C   0  0  0  0  0  0  0  0  0  0  0  0
   -3.3699   -4.2132    1.8628 C   0  0  0  0  0  0  0  0  0  0  0  0
   -3.5893   -4.5327    2.8923 H   0  0  0  0  0  0  0  0  0  0  0  0
   -1.3682    0.6506    3.9649 C   0  0  0  0  0  0  0  0  0  0  0  0
   -1.7220    1.2325    4.8292 H   0  0  0  0  0  0  0  0  0  0  0  0
    2.1580   -2.5871   -2.1626 C   0  0  0  0  0  0  0  0  0  0  0  0
    3.1528   -2.6330   -1.6703 H   0  0  0  0  0  0  0  0  0  0  0  0
    2.1518   -1.7461   -2.8807 H   0  0  0  0  0  0  0  0  0  0  0  0
    1.8840   -3.5297   -2.6667 H   0  0  0  0  0  0  0  0  0  0  0  0
   -4.0297   -4.0107   -0.4703 C   0  0  0  0  0  0  0  0  0  0  0  0
   -4.7694   -4.1657   -1.2697 H   0  0  0  0  0  0  0  0  0  0  0  0
  1 18  1  0  0  0  0
  1 21  1  0  0  0  0
  2  4  1  0  0  0  0
  2  3  1  0  0  0  0
  3 21  2  0  0  0  0
  4  1  1  0  0  0  0
  5  8  2  0  0  0  0
  5 16  1  0  0  0  0
  6 24  1  0  0  0  0
  6  7  1  0  0  0  0
  8 12  1  0  0  0  0
  9  8  1  0  0  0  0
 10 22  1  0  0  0  0
 10 11  1  0  0  0  0
 12 13  1  0  0  0  0
 12 24  2  0  0  0  0
 14 30  2  0  0  0  0
 14 18  1  0  0  0  0
 15 14  1  0  0  0  0
 16  6  2  0  0  0  0
 17 16  1  0  0  0  0
 18 10  2  0  0  0  0
 19 20  1  0  0  0  0
 19 22  2  0  0  0  0
 21  5  1  0  0  0  0
 22 23  1  0  0  0  0
 24 25  1  0  0  0  0
 26 27  1  0  0  0  0
 26  2  1  0  0  0  0
 28 26  1  0  0  0  0
 29 26  1  0  0  0  0
 30 19  1  0  0  0  0
 31 30  1  0  0  0  0
M  END
