4
q = 0.0, confidence = 0.978

 51 55  0  0  1  0  0  0  0  0999 V2000
    1.6756    1.1191    0.3449 C   0  0  1  0  0  0  0  0  0  0  0  0
    0.4085    1.6174   -0.3468 C   0  0  2  0  0  3  0  0  0  0  0  0
   -0.1528    0.5555   -1.1229 C   0  0  0  0  0  3  0  0  0  0  0  0
    0.3542   -0.6919   -0.5905 C   0  0  2  0  0  3  0  0  0  0  0  0
    1.1843   -0.3358    0.5659 C   0  0  1  0  0  3  0  0  0  0  0  0
    2.9763    1.2322   -0.4398 C   0  0  0  0  0  0  0  0  0  0  0  0
    4.2011    1.2854    0.2554 C   0  0  0  0  0  0  0  0  0  0  0  0
    5.4225    1.3008   -0.4338 C   0  0  0  0  0  0  0  0  0  0  0  0
    5.4373    1.2671   -1.8372 C   0  0  0  0  0  0  0  0  0  0  0  0
    4.2231    1.2221   -2.5416 C   0  0  0  0  0  0  0  0  0  0  0  0
    3.0036    1.2044   -1.8483 C   0  0  0  0  0  0  0  0  0  0  0  0
    0.0915    3.0360   -0.5763 C   0  0  0  0  0  0  0  0  0  0  0  0
   -1.1573    3.4241   -1.1228 C   0  0  0  0  0  0  0  0  0  0  0  0
   -1.4551    4.7744   -1.3390 C   0  0  0  0  0  0  0  0  0  0  0  0
   -0.5186    5.7718   -1.0138 C   0  0  0  0  0  0  0  0  0  0  0  0
    0.7192    5.4014   -0.4666 C   0  0  0  0  0  0  0  0  0  0  0  0
    1.0216    4.0493   -0.2460 C   0  0  0  0  0  0  0  0  0  0  0  0
    0.2871   -2.0090   -1.2584 C   0  0  0  0  0  0  0  0  0  0  0  0
    0.3904   -2.0756   -2.6657 C   0  0  0  0  0  0  0  0  0  0  0  0
    0.3765   -3.3089   -3.3335 C   0  0  0  0  0  0  0  0  0  0  0  0
    0.2711   -4.5049   -2.6065 C   0  0  0  0  0  0  0  0  0  0  0  0
    0.1833   -4.4527   -1.2043 C   0  0  0  0  0  0  0  0  0  0  0  0
    0.1902   -3.2204   -0.5378 C   0  0  0  0  0  0  0  0  0  0  0  0
    2.0787   -1.3209    1.2379 C   0  0  0  0  0  0  0  0  0  0  0  0
    1.9226   -1.6942    2.5881 C   0  0  0  0  0  0  0  0  0  0  0  0
    2.8058   -2.6000    3.1958 C   0  0  0  0  0  0  0  0  0  0  0  0
    3.8640   -3.1545    2.4592 C   0  0  0  0  0  0  0  0  0  0  0  0
    4.0299   -2.7974    1.1114 C   0  0  0  0  0  0  0  0  0  0  0  0
    3.1480   -1.8905    0.5076 C   0  0  0  0  0  0  0  0  0  0  0  0
    4.1911    1.3003    1.3571 H   0  0  0  0  0  0  0  0  0  0  0  0
    6.3686    1.3375    0.1280 H   0  0  0  0  0  0  0  0  0  0  0  0
    6.3937    1.2802   -2.3819 H   0  0  0  0  0  0  0  0  0  0  0  0
    4.2257    1.2044   -3.6424 H   0  0  0  0  0  0  0  0  0  0  0  0
    2.0561    1.1727   -2.4063 H   0  0  0  0  0  0  0  0  0  0  0  0
   -1.9102    2.6517   -1.3426 H   0  0  0  0  0  0  0  0  0  0  0  0
   -2.4333    5.0543   -1.7598 H   0  0  0  0  0  0  0  0  0  0  0  0
   -0.7562    6.8330   -1.1826 H   0  0  0  0  0  0  0  0  0  0  0  0
    1.4620    6.1725   -0.2106 H   0  0  0  0  0  0  0  0  0  0  0  0
    2.0022    3.7702    0.1669 H   0  0  0  0  0  0  0  0  0  0  0  0
    0.4885   -1.1425   -3.2400 H   0  0  0  0  0  0  0  0  0  0  0  0
    0.4534   -3.3348   -4.4315 H   0  0  0  0  0  0  0  0  0  0  0  0
    0.2607   -5.4739   -3.1283 H   0  0  0  0  0  0  0  0  0  0  0  0
    0.1047   -5.3840   -0.6224 H   0  0  0  0  0  0  0  0  0  0  0  0
    0.1031   -3.1802    0.5570 H   0  0  0  0  0  0  0  0  0  0  0  0
    1.0780   -1.2748    3.1520 H   0  0  0  0  0  0  0  0  0  0  0  0
    2.6618   -2.8795    4.2511 H   0  0  0  0  0  0  0  0  0  0  0  0
    4.5556   -3.8681    2.9330 H   0  0  0  0  0  0  0  0  0  0  0  0
    4.8525   -3.2310    0.5221 H   0  0  0  0  0  0  0  0  0  0  0  0
    3.2779   -1.6183   -0.5501 H   0  0  0  0  0  0  0  0  0  0  0  0
    1.8307    1.6129    1.3268 H   0  0  0  0  0  0  0  0  0  0  0  0
   -0.7793    0.6563   -2.0158 H   0  0  0  0  0  0  0  0  0  0  0  0
  1  5  1  0  0  0  0
  1 50  1  1  0  0  0
  2 12  1  6  0  0  0
  2  1  1  0  0  0  0
  3  4  1  0  0  0  0
  3  2  1  0  0  0  0
  4 18  1  6  0  0  0
  4  5  1  0  0  0  0
  5 24  1  6  0  0  0
  6  7  1  0  0  0  0
  6  1  1  0  0  0  0
  7 30  1  0  0  0  0
  8 31  1  0  0  0  0
  8  7  2  0  0  0  0
  9  8  1  0  0  0  0
 10 11  1  0  0  0  0
 10  9  2  0  0  0  0
 11  6  2  0  0  0  0
 12 17  1  0  0  0  0
 13 12  2  0  0  0  0
 14 13  1  0  0  0  0
 14 15  2  0  0  0  0
 15 16  1  0  0  0  0
 16 17  2  0  0  0  0
 16 38  1  0  0  0  0
 17 39  1  0  0  0  0
 18 23  1  0  0  0  0
 19 18  2  0  0  0  0
 20 19  1  0  0  0  0
 20 21  2  0  0  0  0
 21 22  1  0  0  0  0
 22 43  1  0  0  0  0
 22 23  2  0  0  0  0
 23 44  1  0  0  0  0
 24 25  1  0  0  0  0
 25 45  1  0  0  0  0
 25 26  2  0  0  0  0
 26 46  1  0  0  0  0
 27 47  1  0  0  0  0
 27 26  1  0  0  0  0
 28 27  2  0  0  0  0
 29 28  1  0  0  0  0
 29 24  2  0  0  0  0
 32  9  1  0  0  0  0
 33 10  1  0  0  0  0
 34 11  1  0  0  0  0
 35 13  1  0  0  0  0
 36 14  1  0  0  0  0
 37 15  1  0  0  0  0
 40 19  1  0  0  0  0
 41 20  1  0  0  0  0
 42 21  1  0  0  0  0
 48 28  1  0  0  0  0
 49 29  1  0  0  0  0
 51  3  1  0  0  0  0
M  END
