1
q = -1.0, confidence = 0.008

 17 18  0  0  1  0  0  0  0  0999 V2000
   -1.5343    1.3222    0.4789 C   0  0  0  0  0  3  0  0  0  0  0  0
   -1.3993    2.8244    0.2187 C   0  0  0  0  0  0  0  0  0  0  0  0
   -2.5986    3.4137    1.0185 C   0  0  2  0  0  0  0  0  0  0  0  0
   -2.8563    2.4305    2.1829 C   0  0  2  0  0  0  0  0  0  0  0  0
   -1.8341    1.2657    1.9808 C   0  0  0  0  0  0  0  0  0  0  0  0
   -3.8736    3.3606    0.1899 C   0  0  0  0  0  0  0  0  0  0  0  0
   -4.2783    1.9427    1.9643 C   0  0  0  0  0  0  0  0  0  0  0  0
   -4.7983    2.4992    0.7954 O   0  0  0  0  0  0  0  0  0  0  0  0
   -4.1280    3.9075   -0.8500 O   0  0  0  0  0  0  0  0  0  0  0  0
   -4.9228    1.1614    2.6172 O   0  0  0  0  0  0  0  0  0  0  0  0
   -2.4489    0.9844   -0.0623 H   0  0  0  0  0  0  0  0  0  0  0  0
   -1.4396    3.1124   -0.8502 H   0  0  0  0  0  0  0  0  0  0  0  0
   -0.4517    3.2159    0.6404 H   0  0  0  0  0  0  0  0  0  0  0  0
   -2.4297    4.4660    1.3230 H   0  0  0  0  0  0  0  0  0  0  0  0
   -2.7907    2.8716    3.1969 H   0  0  0  0  0  0  0  0  0  0  0  0
   -0.9206    1.4771    2.5709 H   0  0  0  0  0  0  0  0  0  0  0  0
   -2.2414    0.2961    2.3285 H   0  0  0  0  0  0  0  0  0  0  0  0
  1  5  1  0  0  0  0
  2  1  1  0  0  0  0
  2 13  1  0  0  0  0
  2  3  1  0  0  0  0
  3 14  1  1  0  0  0
  3  4  1  0  0  0  0
  4 15  1  1  0  0  0
  5  4  1  0  0  0  0
  5 17  1  0  0  0  0
  5 16  1  0  0  0  0
  6  8  1  0  0  0  0
  6  3  1  0  0  0  0
  7  4  1  0  0  0  0
  7 10  2  0  0  0  0
  8  7  1  0  0  0  0
  9  6  2  0  0  0  0
 11  1  1  0  0  0  0
 12  2  1  0  0  0  0
M  END
