4
q = 0.0, confidence = 1.0

 26 26  0  0  0  0  0  0  0  0999 V2000
    0.8882    2.4014   -0.0355 N   0  0  0  0  0  0  0  0  0  0  0  0
    1.7085    0.6777   -1.0571 N   0  0  0  0  0  0  0  0  0  0  0  0
    3.9082   -0.9392    0.0453 N   0  0  0  0  0  0  0  0  0  0  0  0
    0.6166    1.0986   -0.3461 C   0  0  0  0  0  2  0  0  0  0  0  0
    2.1358    2.7826   -0.5223 C   0  0  0  0  0  0  0  0  0  0  0  0
    2.5397    3.7884   -0.3755 H   0  0  0  0  0  0  0  0  0  0  0  0
    2.6592    1.6862   -1.1545 C   0  0  0  0  0  0  0  0  0  0  0  0
    3.6180    1.5351   -1.6559 H   0  0  0  0  0  0  0  0  0  0  0  0
    0.0172    3.2383    0.7712 C   0  0  0  0  0  0  0  0  0  0  0  0
   -0.8611    2.6275    1.0554 H   0  0  0  0  0  0  0  0  0  0  0  0
   -0.3111    4.1315    0.2024 H   0  0  0  0  0  0  0  0  0  0  0  0
    0.5400    3.5591    1.6937 H   0  0  0  0  0  0  0  0  0  0  0  0
    1.9336   -0.7105   -1.4447 C   0  0  0  0  0  0  0  0  0  0  0  0
    2.5282   -0.7139   -2.3812 H   0  0  0  0  0  0  0  0  0  0  0  0
    0.9427   -1.1591   -1.6556 H   0  0  0  0  0  0  0  0  0  0  0  0
    2.6195   -1.5002   -0.3222 C   0  0  0  0  0  0  0  0  0  0  0  0
    2.6841   -2.5762   -0.6358 H   0  0  0  0  0  0  0  0  0  0  0  0
    1.9465   -1.4561    0.5593 H   0  0  0  0  0  0  0  0  0  0  0  0
    4.9942   -1.3600   -0.8134 C   0  0  0  0  0  0  0  0  0  0  0  0
    5.9172   -0.7923   -0.5736 H   0  0  0  0  0  0  0  0  0  0  0  0
    5.2364   -2.4544   -0.7229 H   0  0  0  0  0  0  0  0  0  0  0  0
    4.7523   -1.1643   -1.8792 H   0  0  0  0  0  0  0  0  0  0  0  0
    4.2171   -1.0648    1.4593 C   0  0  0  0  0  0  0  0  0  0  0  0
    5.1144   -0.4591    1.7050 H   0  0  0  0  0  0  0  0  0  0  0  0
    4.4269   -2.1212    1.7775 H   0  0  0  0  0  0  0  0  0  0  0  0
    3.3646   -0.6895    2.0597 H   0  0  0  0  0  0  0  0  0  0  0  0
  1  9  1  0  0  0  0
  2  4  1  0  0  0  0
  3 23  1  0  0  0  0
  4  1  1  0  0  0  0
  5  6  1  0  0  0  0
  5  1  1  0  0  0  0
  7  2  1  0  0  0  0
  7  5  2  0  0  0  0
  8  7  1  0  0  0  0
  9 10  1  0  0  0  0
  9 12  1  0  0  0  0
 11  9  1  0  0  0  0
 13  2  1  0  0  0  0
 13 16  1  0  0  0  0
 14 13  1  0  0  0  0
 15 13  1  0  0  0  0
 16  3  1  0  0  0  0
 16 18  1  0  0  0  0
 17 16  1  0  0  0  0
 19 21  1  0  0  0  0
 19 20  1  0  0  0  0
 19  3  1  0  0  0  0
 22 19  1  0  0  0  0
 23 24  1  0  0  0  0
 23 25  1  0  0  0  0
 23 26  1  0  0  0  0
M  END
