5
q = 0.0, confidence = 0.994

 27 28  0  0  1  0  0  0  0  0999 V2000
   -0.1084    1.3968   -0.1081 O   0  0  0  0  0  0  0  0  0  0  0  0
    2.1939    1.6858   -0.3786 O   0  0  0  0  0  0  0  0  0  0  0  0
    1.2250   -0.3899   -1.2067 C   0  0  2  0  0  0  0  0  0  0  0  0
    0.0884   -1.2598   -0.6561 C   0  0  0  0  0  3  0  0  0  0  0  0
    0.1592   -1.1334    0.7884 C   0  0  0  0  0  3  0  0  0  0  0  0
    1.3176   -0.1760    1.0699 C   0  0  1  0  0  0  0  0  0  0  0  0
    2.5874   -0.9353    0.6909 C   0  0  0  0  0  0  0  0  0  0  0  0
    2.5194   -1.0880   -0.7932 C   0  0  0  0  0  0  0  0  0  0  0  0
    1.2024    0.7534   -0.1648 C   0  0  0  0  0  0  0  0  0  0  0  0
    3.5401   -1.3634    1.5434 C   0  0  0  0  0  0  0  0  0  0  0  0
    3.3854   -1.7131   -1.6145 C   0  0  0  0  0  0  0  0  0  0  0  0
   -0.3379    2.3876   -1.1239 C   0  0  0  0  0  0  0  0  0  0  0  0
    2.5793    2.4599    0.7563 C   0  0  0  0  0  0  0  0  0  0  0  0
    1.1723   -0.0899   -2.2689 H   0  0  0  0  0  0  0  0  0  0  0  0
   -0.1440   -2.2045   -1.1694 H   0  0  0  0  0  0  0  0  0  0  0  0
    0.0057   -1.9755    1.4798 H   0  0  0  0  0  0  0  0  0  0  0  0
    1.3213    0.3095    2.0620 H   0  0  0  0  0  0  0  0  0  0  0  0
    3.4664   -1.1647    2.6236 H   0  0  0  0  0  0  0  0  0  0  0  0
    4.4175   -1.9282    1.1920 H   0  0  0  0  0  0  0  0  0  0  0  0
    4.2843   -2.2183   -1.2282 H   0  0  0  0  0  0  0  0  0  0  0  0
    3.2215   -1.7355   -2.7025 H   0  0  0  0  0  0  0  0  0  0  0  0
   -1.3241    2.8321   -0.9045 H   0  0  0  0  0  0  0  0  0  0  0  0
    0.4521    3.1602   -1.0769 H   0  0  0  0  0  0  0  0  0  0  0  0
   -0.3504    1.9337   -2.1362 H   0  0  0  0  0  0  0  0  0  0  0  0
    1.6998    2.9008    1.2736 H   0  0  0  0  0  0  0  0  0  0  0  0
    3.2228    3.2754    0.3769 H   0  0  0  0  0  0  0  0  0  0  0  0
    3.1625    1.8481    1.4776 H   0  0  0  0  0  0  0  0  0  0  0  0
  2  9  1  0  0  0  0
  2 13  1  0  0  0  0
  3 14  1  6  0  0  0
  3  8  1  0  0  0  0
  3  4  1  0  0  0  0
  3  9  1  0  0  0  0
  4  5  1  0  0  0  0
  5  6  1  0  0  0  0
  5 16  1  0  0  0  0
  6 17  1  1  0  0  0
  7  6  1  0  0  0  0
  7 10  2  0  0  0  0
  8  7  1  0  0  0  0
  9  1  1  0  0  0  0
  9  6  1  0  0  0  0
 10 18  1  0  0  0  0
 11 20  1  0  0  0  0
 11  8  2  0  0  0  0
 12 23  1  0  0  0  0
 12 22  1  0  0  0  0
 12  1  1  0  0  0  0
 13 25  1  0  0  0  0
 13 27  1  0  0  0  0
 15  4  1  0  0  0  0
 19 10  1  0  0  0  0
 21 11  1  0  0  0  0
 24 12  1  0  0  0  0
 26 13  1  0  0  0  0
M  END
