3
q = 0.0, confidence = 0.998

 40 43  0  0  0  0  0  0  0  0999 V2000
    1.6188   -1.5874   -0.2711 N   0  0  0  0  0  0  0  0  0  0  0  0
    1.3213    0.7244   -0.1458 N   0  0  0  0  0  0  0  0  0  0  0  0
    0.7650   -0.5301   -0.1155 C   0  0  0  0  0  2  0  0  0  0  0  0
    1.0754   -2.9352   -0.1454 C   0  0  0  0  0  0  0  0  0  0  0  0
   -0.0267   -2.8373   -0.0429 H   0  0  0  0  0  0  0  0  0  0  0  0
    1.4946   -3.4258    0.7561 H   0  0  0  0  0  0  0  0  0  0  0  0
    1.3134   -3.5403   -1.0433 H   0  0  0  0  0  0  0  0  0  0  0  0
    3.0174   -1.4599   -0.3821 C   0  0  0  0  0  0  0  0  0  0  0  0
    3.8640   -2.5650   -0.5167 C   0  0  0  0  0  0  0  0  0  0  0  0
    3.4616   -3.5839   -0.5407 H   0  0  0  0  0  0  0  0  0  0  0  0
    5.2636   -2.3709   -0.6177 C   0  0  0  0  0  0  0  0  0  0  0  0
    5.9114   -3.2540   -0.7266 H   0  0  0  0  0  0  0  0  0  0  0  0
    5.8251   -1.1045   -0.5708 C   0  0  0  0  0  0  0  0  0  0  0  0
    6.9146   -0.9680   -0.6387 H   0  0  0  0  0  0  0  0  0  0  0  0
    4.9940    0.0443   -0.4210 C   0  0  0  0  0  0  0  0  0  0  0  0
    5.5084    1.3705   -0.3376 C   0  0  0  0  0  0  0  0  0  0  0  0
    6.5958    1.5239   -0.4023 H   0  0  0  0  0  0  0  0  0  0  0  0
    4.6484    2.4456   -0.1642 C   0  0  0  0  0  0  0  0  0  0  0  0
    5.0550    3.4652   -0.0838 H   0  0  0  0  0  0  0  0  0  0  0  0
    3.2469    2.2662   -0.0850 C   0  0  0  0  0  0  0  0  0  0  0  0
    2.5865    3.1296    0.0599 H   0  0  0  0  0  0  0  0  0  0  0  0
    2.7108    0.9801   -0.1889 C   0  0  0  0  0  0  0  0  0  0  0  0
    3.5714   -0.1454   -0.3386 C   0  0  0  0  0  0  0  0  0  0  0  0
    0.4263    1.8451    0.0357 C   0  0  0  0  0  0  0  0  0  0  0  0
    0.1982    2.7423   -1.0182 C   0  0  0  0  0  0  0  0  0  0  0  0
    0.7164    2.5976   -1.9780 H   0  0  0  0  0  0  0  0  0  0  0  0
   -0.7023    3.8105   -0.8466 C   0  0  0  0  0  0  0  0  0  0  0  0
   -1.3501    3.9502    0.3985 C   0  0  0  0  0  0  0  0  0  0  0  0
   -2.0664    4.7766    0.5362 H   0  0  0  0  0  0  0  0  0  0  0  0
   -1.1035    3.0740    1.4722 C   0  0  0  0  0  0  0  0  0  0  0  0
   -0.1869    2.0229    1.2814 C   0  0  0  0  0  0  0  0  0  0  0  0
    0.0740    1.3301    2.0915 H   0  0  0  0  0  0  0  0  0  0  0  0
   -1.0027    4.7467   -1.9906 C   0  0  0  0  0  0  0  0  0  0  0  0
   -0.0916    4.9819   -2.5762 H   0  0  0  0  0  0  0  0  0  0  0  0
   -1.4421    5.6991   -1.6358 H   0  0  0  0  0  0  0  0  0  0  0  0
   -1.7303    4.2888   -2.6955 H   0  0  0  0  0  0  0  0  0  0  0  0
   -1.8046    3.2209    2.7982 C   0  0  0  0  0  0  0  0  0  0  0  0
   -1.0776    3.3615    3.6250 H   0  0  0  0  0  0  0  0  0  0  0  0
   -2.3830    2.3032    3.0354 H   0  0  0  0  0  0  0  0  0  0  0  0
   -2.5018    4.0807    2.8049 H   0  0  0  0  0  0  0  0  0  0  0  0
  1  4  1  0  0  0  0
  1  3  1  0  0  0  0
  2  3  1  0  0  0  0
  2 24  1  0  0  0  0
  4  5  1  0  0  0  0
  4  6  1  0  0  0  0
  7  4  1  0  0  0  0
  8 23  1  0  0  0  0
  8  1  1  0  0  0  0
  9  8  2  0  0  0  0
 10  9  1  0  0  0  0
 11 13  2  0  0  0  0
 11  9  1  0  0  0  0
 12 11  1  0  0  0  0
 13 15  1  0  0  0  0
 14 13  1  0  0  0  0
 15 23  2  0  0  0  0
 15 16  1  0  0  0  0
 16 18  2  0  0  0  0
 17 16  1  0  0  0  0
 18 20  1  0  0  0  0
 18 19  1  0  0  0  0
 20 21  1  0  0  0  0
 22  2  1  0  0  0  0
 22 20  2  0  0  0  0
 23 22  1  0  0  0  0
 24 31  1  0  0  0  0
 25 27  1  0  0  0  0
 25 24  2  0  0  0  0
 26 25  1  0  0  0  0
 27 28  2  0  0  0  0
 28 29  1  0  0  0  0
 28 30  1  0  0  0  0
 30 37  1  0  0  0  0
 31 30  2  0  0  0  0
 31 32  1  0  0  0  0
 33 35  1  0  0  0  0
 33 27  1  0  0  0  0
 34 33  1  0  0  0  0
 36 33  1  0  0  0  0
 37 40  1  0  0  0  0
 37 39  1  0  0  0  0
 37 38  1  0  0  0  0
M  END
