4
q = 0.0, confidence = 1.0

 44 47  0  0  0  0  0  0  0  0999 V2000
   -1.6284   -3.4187   -0.6329 O   0  0  0  0  0  0  0  0  0  0  0  0
   -1.8018   -1.1732    0.0113 N   0  0  0  0  0  0  0  0  0  0  0  0
   -1.1273    1.0495   -0.1941 N   0  0  0  0  0  0  0  0  0  0  0  0
   -0.7794   -0.2584    0.0069 C   0  0  0  0  0  2  0  0  0  0  0  0
   -1.4799   -2.5171    0.4440 C   0  0  0  0  0  0  0  0  0  0  0  0
   -0.4230   -2.4936    0.8073 H   0  0  0  0  0  0  0  0  0  0  0  0
   -2.1597   -2.7892    1.2880 H   0  0  0  0  0  0  0  0  0  0  0  0
   -3.1621   -0.8403   -0.1793 C   0  0  0  0  0  0  0  0  0  0  0  0
   -4.1700   -1.8058   -0.2377 C   0  0  0  0  0  0  0  0  0  0  0  0
   -3.9138   -2.8713   -0.2208 H   0  0  0  0  0  0  0  0  0  0  0  0
   -5.5199   -1.3988   -0.3695 C   0  0  0  0  0  0  0  0  0  0  0  0
   -6.3017   -2.1724   -0.4099 H   0  0  0  0  0  0  0  0  0  0  0  0
   -5.8701   -0.0590   -0.4518 C   0  0  0  0  0  0  0  0  0  0  0  0
   -6.9237    0.2429   -0.5477 H   0  0  0  0  0  0  0  0  0  0  0  0
   -4.8639    0.9498   -0.4222 C   0  0  0  0  0  0  0  0  0  0  0  0
   -5.1514    2.3437   -0.5097 C   0  0  0  0  0  0  0  0  0  0  0  0
   -6.1991    2.6647   -0.6079 H   0  0  0  0  0  0  0  0  0  0  0  0
   -4.1249    3.2760   -0.4685 C   0  0  0  0  0  0  0  0  0  0  0  0
   -4.3577    4.3500   -0.5281 H   0  0  0  0  0  0  0  0  0  0  0  0
   -2.7696    2.8802   -0.3542 C   0  0  0  0  0  0  0  0  0  0  0  0
   -1.9715    3.6322   -0.3266 H   0  0  0  0  0  0  0  0  0  0  0  0
   -2.4570    1.5220   -0.2783 C   0  0  0  0  0  0  0  0  0  0  0  0
   -3.4915    0.5419   -0.2951 C   0  0  0  0  0  0  0  0  0  0  0  0
   -0.0549    2.0200   -0.1474 C   0  0  0  0  0  0  0  0  0  0  0  0
    0.3995    2.6278   -1.3283 C   0  0  0  0  0  0  0  0  0  0  0  0
   -0.0634    2.3612   -2.2896 H   0  0  0  0  0  0  0  0  0  0  0  0
    1.4543    3.5557   -1.2749 C   0  0  0  0  0  0  0  0  0  0  0  0
    2.0158    3.8641   -0.0173 C   0  0  0  0  0  0  0  0  0  0  0  0
    2.8499    4.5831    0.0319 H   0  0  0  0  0  0  0  0  0  0  0  0
    1.5379    3.2919    1.1768 C   0  0  0  0  0  0  0  0  0  0  0  0
    0.4734    2.3748    1.0998 C   0  0  0  0  0  0  0  0  0  0  0  0
    0.0448    1.9095    1.9981 H   0  0  0  0  0  0  0  0  0  0  0  0
   -1.2901   -4.7377   -0.2591 C   0  0  0  0  0  0  0  0  0  0  0  0
   -1.9470   -5.1224    0.5583 H   0  0  0  0  0  0  0  0  0  0  0  0
   -0.2316   -4.8120    0.0874 H   0  0  0  0  0  0  0  0  0  0  0  0
   -1.4197   -5.3790   -1.1513 H   0  0  0  0  0  0  0  0  0  0  0  0
    2.0110    4.1635   -2.5380 C   0  0  0  0  0  0  0  0  0  0  0  0
    1.2620    4.1711   -3.3537 H   0  0  0  0  0  0  0  0  0  0  0  0
    2.8864    3.5823   -2.9017 H   0  0  0  0  0  0  0  0  0  0  0  0
    2.3580    5.2030   -2.3747 H   0  0  0  0  0  0  0  0  0  0  0  0
    2.1553    3.6126    2.5141 C   0  0  0  0  0  0  0  0  0  0  0  0
    2.6320    2.7080    2.9479 H   0  0  0  0  0  0  0  0  0  0  0  0
    1.3896    3.9504    3.2422 H   0  0  0  0  0  0  0  0  0  0  0  0
    2.9279    4.4014    2.4348 H   0  0  0  0  0  0  0  0  0  0  0  0
  1 33  1  0  0  0  0
  1  5  1  0  0  0  0
  2  5  1  0  0  0  0
  3 24  1  0  0  0  0
  3  4  1  0  0  0  0
  4  2  1  0  0  0  0
  5  6  1  0  0  0  0
  5  7  1  0  0  0  0
  8  2  1  0  0  0  0
  9 10  1  0  0  0  0
  9  8  1  0  0  0  0
 11  9  2  0  0  0  0
 12 11  1  0  0  0  0
 13 15  2  0  0  0  0
 13 11  1  0  0  0  0
 14 13  1  0  0  0  0
 15 23  1  0  0  0  0
 16 18  2  0  0  0  0
 16 15  1  0  0  0  0
 17 16  1  0  0  0  0
 18 20  1  0  0  0  0
 19 18  1  0  0  0  0
 20 21  1  0  0  0  0
 20 22  2  0  0  0  0
 22  3  1  0  0  0  0
 23 22  1  0  0  0  0
 23  8  2  0  0  0  0
 24 31  1  0  0  0  0
 25 27  1  0  0  0  0
 25 24  2  0  0  0  0
 26 25  1  0  0  0  0
 27 28  2  0  0  0  0
 28 29  1  0  0  0  0
 28 30  1  0  0  0  0
 30 41  1  0  0  0  0
 31 30  2  0  0  0  0
 31 32  1  0  0  0  0
 33 35  1  0  0  0  0
 33 34  1  0  0  0  0
 36 33  1  0  0  0  0
 37 40  1  0  0  0  0
 37 27  1  0  0  0  0
 38 37  1  0  0  0  0
 39 37  1  0  0  0  0
 41 42  1  0  0  0  0
 41 43  1  0  0  0  0
 44 41  1  0  0  0  0
M  END
