2
q = -1.0, confidence = 0.004

 16 16  0  0  0  0  0  0  0  0999 V2000
    0.8563   -2.1766   -0.4300 Se  0  0  0  0  0  1  0  0  0  0  0  0
    1.2561   -0.3639   -0.1026 C   0  0  0  0  0  3  0  0  0  0  0  0
   -0.1809    2.1388   -0.5317 Se  0  0  0  0  0  1  0  0  0  0  0  0
    2.4084    0.3798   -0.0837 C   0  0  0  0  0  0  0  0  0  0  0  0
    2.1789    2.2785    0.0144 Se  0  0  0  0  0  0  0  0  0  0  0  0
    3.7953   -0.1066   -0.2090 C   0  0  0  0  0  0  0  0  0  0  0  0
    4.8634    0.5958    0.4030 C   0  0  0  0  0  0  0  0  0  0  0  0
    4.6457    1.5028    0.9895 H   0  0  0  0  0  0  0  0  0  0  0  0
    6.1830    0.1413    0.2956 C   0  0  0  0  0  0  0  0  0  0  0  0
    6.9925    0.7009    0.7886 H   0  0  0  0  0  0  0  0  0  0  0  0
    6.4722   -1.0251   -0.4312 C   0  0  0  0  0  0  0  0  0  0  0  0
    7.5092   -1.3838   -0.5157 H   0  0  0  0  0  0  0  0  0  0  0  0
    5.4261   -1.7270   -1.0516 C   0  0  0  0  0  0  0  0  0  0  0  0
    5.6419   -2.6340   -1.6370 H   0  0  0  0  0  0  0  0  0  0  0  0
    4.1040   -1.2785   -0.9414 C   0  0  0  0  0  0  0  0  0  0  0  0
    3.2969   -1.8228   -1.4528 H   0  0  0  0  0  0  0  0  0  0  0  0
  1  2  1  0  0  0  0
  2  4  2  0  0  0  0
  3  5  1  0  0  0  0
  4  5  1  0  0  0  0
  6  4  1  0  0  0  0
  6  7  1  0  0  0  0
  7  8  1  0  0  0  0
  9  7  2  0  0  0  0
  9 10  1  0  0  0  0
 11  9  1  0  0  0  0
 12 11  1  0  0  0  0
 13 15  1  0  0  0  0
 13 11  2  0  0  0  0
 14 13  1  0  0  0  0
 15  6  2  0  0  0  0
 16 15  1  0  0  0  0
M  END
