2
q = -1.0, confidence = 0.0

 24 24  0  0  0  0  0  0  0  0999 V2000
   -0.2903   -2.7865    1.5764 O   0  0  0  0  0  0  0  0  0  0  0  0
    0.0266   -2.4434    0.4440 C   0  0  0  0  0  3  0  0  0  0  0  0
    1.4134   -2.6992   -0.0893 C   0  0  0  0  0  0  0  0  0  0  0  0
    2.4786   -2.1328    0.5537 C   0  0  0  0  0  0  0  0  0  0  0  0
    2.4184   -1.3508    1.8372 C   0  0  0  0  0  0  0  0  0  0  0  0
    1.5388   -3.5701   -1.3106 C   0  0  0  0  0  0  0  0  0  0  0  0
    4.1177   -2.4475   -0.0970 S   0  0  0  0  0  0  0  0  0  0  0  0
    4.8238   -0.8076   -0.1493 C   0  0  0  0  0  0  0  0  0  0  0  0
    4.0608    0.3117   -0.5428 C   0  0  0  0  0  0  0  0  0  0  0  0
    4.6547    1.5811   -0.5772 C   0  0  0  0  0  0  0  0  0  0  0  0
    6.0143    1.7402   -0.2610 C   0  0  0  0  0  0  0  0  0  0  0  0
    6.7786    0.6201    0.1036 C   0  0  0  0  0  0  0  0  0  0  0  0
    6.1861   -0.6496    0.1748 C   0  0  0  0  0  0  0  0  0  0  0  0
    3.0016    0.1810   -0.8099 H   0  0  0  0  0  0  0  0  0  0  0  0
    4.0437    2.4533   -0.8557 H   0  0  0  0  0  0  0  0  0  0  0  0
    6.4764    2.7383   -0.2955 H   0  0  0  0  0  0  0  0  0  0  0  0
    7.8440    0.7359    0.3561 H   0  0  0  0  0  0  0  0  0  0  0  0
    6.7731   -1.5240    0.4946 H   0  0  0  0  0  0  0  0  0  0  0  0
    2.8153   -1.9703    2.6684 H   0  0  0  0  0  0  0  0  0  0  0  0
    3.0450   -0.4391    1.7818 H   0  0  0  0  0  0  0  0  0  0  0  0
    1.3857   -1.0583    2.0956 H   0  0  0  0  0  0  0  0  0  0  0  0
    0.5687   -3.6604   -1.8354 H   0  0  0  0  0  0  0  0  0  0  0  0
    1.8586   -4.5946   -1.0230 H   0  0  0  0  0  0  0  0  0  0  0  0
    2.2998   -3.1732   -2.0134 H   0  0  0  0  0  0  0  0  0  0  0  0
  2  1  2  0  0  0  0
  3  2  1  0  0  0  0
  3  4  2  0  0  0  0
  4  5  1  0  0  0  0
  5 21  1  0  0  0  0
  5 19  1  0  0  0  0
  6 23  1  0  0  0  0
  6  3  1  0  0  0  0
  7  4  1  0  0  0  0
  8  7  1  0  0  0  0
  8 13  1  0  0  0  0
  9  8  2  0  0  0  0
 10  9  1  0  0  0  0
 10 11  2  0  0  0  0
 11 12  1  0  0  0  0
 12 13  2  0  0  0  0
 12 17  1  0  0  0  0
 13 18  1  0  0  0  0
 14  9  1  0  0  0  0
 15 10  1  0  0  0  0
 16 11  1  0  0  0  0
 20  5  1  0  0  0  0
 22  6  1  0  0  0  0
 24  6  1  0  0  0  0
M  END
