4
q = 0.0, confidence = 0.978

 33 33  0  0  1  0  0  0  0  0999 V2000
   -1.5489   -3.6278   -0.3144 C   0  0  0  0  0  0  0  0  0  0  0  0
   -0.5138   -2.5485   -0.5641 C   0  0  0  0  0  0  0  0  0  0  0  0
   -1.1305   -1.2673   -0.3661 O   0  0  0  0  0  0  0  0  0  0  0  0
   -0.4099   -0.1634   -0.1251 C   0  0  0  0  0  3  0  0  0  0  0  0
   -1.2270    1.0058   -0.0075 C   0  0  0  0  0  0  0  0  0  0  0  0
   -2.6243    1.1270    0.0021 C   0  0  2  0  0  3  0  0  0  0  0  0
   -3.5407   -0.0332    0.1418 C   0  0  0  0  0  0  0  0  0  0  0  0
   -4.2690   -0.6439   -1.0426 C   0  0  0  0  0  0  0  0  0  0  0  0
   -5.2929   -1.5904   -0.3734 C   0  0  0  0  0  0  0  0  0  0  0  0
   -4.7289   -1.8735    1.0415 C   0  0  0  0  0  0  0  0  0  0  0  0
   -3.7970   -0.7136    1.2811 C   0  0  0  0  0  0  0  0  0  0  0  0
   -3.2113    2.3549   -0.1317 N   0  0  0  0  0  0  0  0  0  0  0  0
   -4.6204    2.5933    0.1367 C   0  0  0  0  0  0  0  0  0  0  0  0
   -2.4126    3.5373   -0.4179 C   0  0  0  0  0  0  0  0  0  0  0  0
   -1.9076   -3.5992    0.7336 H   0  0  0  0  0  0  0  0  0  0  0  0
   -1.1004   -4.6238   -0.4987 H   0  0  0  0  0  0  0  0  0  0  0  0
   -2.4231   -3.5152   -0.9866 H   0  0  0  0  0  0  0  0  0  0  0  0
    0.3526   -2.6458    0.1189 H   0  0  0  0  0  0  0  0  0  0  0  0
   -0.1276   -2.5902   -1.6044 H   0  0  0  0  0  0  0  0  0  0  0  0
   -0.6559    1.9382    0.0687 H   0  0  0  0  0  0  0  0  0  0  0  0
   -3.5242   -1.1894   -1.6641 H   0  0  0  0  0  0  0  0  0  0  0  0
   -4.7372    0.1123   -1.7077 H   0  0  0  0  0  0  0  0  0  0  0  0
   -6.2679   -1.0681   -0.2794 H   0  0  0  0  0  0  0  0  0  0  0  0
   -5.4761   -2.5118   -0.9601 H   0  0  0  0  0  0  0  0  0  0  0  0
   -4.1530   -2.8276    1.0750 H   0  0  0  0  0  0  0  0  0  0  0  0
   -5.5210   -1.9696    1.8137 H   0  0  0  0  0  0  0  0  0  0  0  0
   -3.3292   -0.4922    2.2523 H   0  0  0  0  0  0  0  0  0  0  0  0
   -5.1126    1.6497    0.4301 H   0  0  0  0  0  0  0  0  0  0  0  0
   -5.1290    3.0106   -0.7587 H   0  0  0  0  0  0  0  0  0  0  0  0
   -4.7417    3.3190    0.9706 H   0  0  0  0  0  0  0  0  0  0  0  0
   -1.8759    3.9074    0.4842 H   0  0  0  0  0  0  0  0  0  0  0  0
   -3.0780    4.3429   -0.7806 H   0  0  0  0  0  0  0  0  0  0  0  0
   -1.6591    3.3188   -1.2002 H   0  0  0  0  0  0  0  0  0  0  0  0
  1 15  1  0  0  0  0
  2  3  1  0  0  0  0
  2  1  1  0  0  0  0
  2 18  1  0  0  0  0
  3  4  1  0  0  0  0
  4  5  2  0  0  0  0
  5 20  1  0  0  0  0
  6  5  1  6  0  0  0
  6  7  1  0  0  0  0
  7 11  2  0  0  0  0
  8  9  1  0  0  0  0
  8  7  1  0  0  0  0
  9 23  1  0  0  0  0
  9 10  1  0  0  0  0
 10 25  1  0  0  0  0
 10 11  1  0  0  0  0
 10 26  1  0  0  0  0
 11 27  1  0  0  0  0
 12  6  1  0  0  0  0
 12 13  1  0  0  0  0
 13 28  1  0  0  0  0
 13 30  1  0  0  0  0
 14 12  1  0  0  0  0
 14 31  1  0  0  0  0
 16  1  1  0  0  0  0
 17  1  1  0  0  0  0
 19  2  1  0  0  0  0
 21  8  1  0  0  0  0
 22  8  1  0  0  0  0
 24  9  1  0  0  0  0
 29 13  1  0  0  0  0
 32 14  1  0  0  0  0
 33 14  1  0  0  0  0
M  END
