3
q = 0.0, confidence = 0.972

 15 15  0  0  0  0  0  0  0  0999 V2000
    3.7050   -1.4669    0.3299 N   0  0  0  0  0  0  0  0  0  0  0  0
    2.5997   -1.8104    0.9679 C   0  0  0  0  0  3  0  0  0  0  0  0
    1.6294   -0.8757    1.4637 C   0  0  0  0  0  3  0  0  0  0  0  0
    1.9481    0.5618    1.3880 C   0  0  0  0  0  3  0  0  0  0  0  0
    3.2452    0.8634    0.7902 C   0  0  0  0  0  0  0  0  0  0  0  0
    4.0304   -0.1085    0.2419 C   0  0  0  0  0  0  0  0  0  0  0  0
    4.9890    0.0938   -0.2524 H   0  0  0  0  0  0  0  0  0  0  0  0
    4.6909   -2.5307   -0.3134 B   0  0  0  0  0  0  0  0  0  0  0  0
    5.8116   -2.3322    0.1741 H   0  0  0  0  0  0  0  0  0  0  0  0
    4.2391   -3.6515   -0.0526 H   0  0  0  0  0  0  0  0  0  0  0  0
    4.7044   -2.2997   -1.5295 H   0  0  0  0  0  0  0  0  0  0  0  0
    2.4656   -2.8929    1.1130 H   0  0  0  0  0  0  0  0  0  0  0  0
    0.9768   -1.2493    2.2702 H   0  0  0  0  0  0  0  0  0  0  0  0
    1.6423    1.2045    2.2313 H   0  0  0  0  0  0  0  0  0  0  0  0
    3.6180    1.9001    0.7802 H   0  0  0  0  0  0  0  0  0  0  0  0
  1  2  1  0  0  0  0
  2 12  1  0  0  0  0
  2  3  1  0  0  0  0
  3 13  1  0  0  0  0
  4  3  1  0  0  0  0
  4 14  1  0  0  0  0
  5  4  1  0  0  0  0
  6  1  1  0  0  0  0
  6  5  2  0  0  0  0
  7  6  1  0  0  0  0
  8 10  1  0  0  0  0
  8  9  1  0  0  0  0
  8  1  1  0  0  0  0
 11  8  1  0  0  0  0
 15  5  1  0  0  0  0
M  END
