5
q = 0.0, confidence = 0.968

 26 26  0  0  1  0  0  0  0  0999 V2000
   -3.6150    1.1962   -1.7844 O   0  0  0  0  0  0  0  0  0  0  0  0
   -5.9171   -0.2525    1.2959 O   0  0  0  0  0  0  0  0  0  0  0  0
   -3.0557   -0.5082   -0.3606 N   0  0  0  0  0  0  0  0  0  0  0  0
   -2.6460    0.4459    0.6855 C   0  0  2  0  0  0  0  0  0  0  0  0
   -1.2593    0.1143    1.2091 C   0  0  0  0  0  3  0  0  0  0  0  0
   -0.9538   -1.2971    1.3922 C   0  0  0  0  0  3  0  0  0  0  0  0
   -1.9019   -2.2582    0.8058 C   0  0  0  0  0  0  0  0  0  0  0  0
   -2.8778   -1.8709   -0.0601 C   0  0  0  0  0  0  0  0  0  0  0  0
   -3.5657   -2.5822   -0.5345 H   0  0  0  0  0  0  0  0  0  0  0  0
   -3.5526   -0.0208   -1.5583 C   0  0  0  0  0  0  0  0  0  0  0  0
   -4.0097   -1.0465   -2.5722 C   0  0  0  0  0  0  0  0  0  0  0  0
   -4.3764   -0.5026   -3.4595 H   0  0  0  0  0  0  0  0  0  0  0  0
   -4.8265   -1.6781   -2.1670 H   0  0  0  0  0  0  0  0  0  0  0  0
   -3.1639   -1.7017   -2.8586 H   0  0  0  0  0  0  0  0  0  0  0  0
   -3.6854    0.4295    1.8419 C   0  0  0  0  0  0  0  0  0  0  0  0
   -5.1081    0.6639    1.3439 C   0  0  0  0  0  0  0  0  0  0  0  0
   -5.4408    2.0565    0.8434 C   0  0  0  0  0  0  0  0  0  0  0  0
   -6.5334    2.1558    0.7093 H   0  0  0  0  0  0  0  0  0  0  0  0
   -4.9427    2.1929   -0.1420 H   0  0  0  0  0  0  0  0  0  0  0  0
   -5.0552    2.8453    1.5204 H   0  0  0  0  0  0  0  0  0  0  0  0
   -2.6657    1.4414    0.2084 H   0  0  0  0  0  0  0  0  0  0  0  0
   -0.9562    0.7905    2.0309 H   0  0  0  0  0  0  0  0  0  0  0  0
   -0.4811   -1.6183    2.3363 H   0  0  0  0  0  0  0  0  0  0  0  0
   -1.8340   -3.3257    1.0666 H   0  0  0  0  0  0  0  0  0  0  0  0
   -3.6583   -0.5554    2.3474 H   0  0  0  0  0  0  0  0  0  0  0  0
   -3.3942    1.2171    2.5681 H   0  0  0  0  0  0  0  0  0  0  0  0
  1 10  2  0  0  0  0
  2 16  2  0  0  0  0
  3  8  1  0  0  0  0
  3  4  1  0  0  0  0
  4 21  1  6  0  0  0
  4  5  1  0  0  0  0
  4 15  1  0  0  0  0
  5  6  1  0  0  0  0
  5 22  1  0  0  0  0
  6 23  1  0  0  0  0
  7 24  1  0  0  0  0
  7  6  1  0  0  0  0
  8  7  2  0  0  0  0
  9  8  1  0  0  0  0
 10  3  1  0  0  0  0
 11 13  1  0  0  0  0
 11 10  1  0  0  0  0
 12 11  1  0  0  0  0
 14 11  1  0  0  0  0
 15 25  1  0  0  0  0
 15 26  1  0  0  0  0
 16 15  1  0  0  0  0
 17 16  1  0  0  0  0
 17 20  1  0  0  0  0
 18 17  1  0  0  0  0
 19 17  1  0  0  0  0
M  END
