7
q = -1.0, confidence = 0.154

 17 17  0  0  0  0  0  0  0  0999 V2000
    4.0450    2.2408    0.1151 O   0  0  0  0  0  0  0  0  0  0  0  0
    3.4509    0.1850   -0.7147 N   0  0  0  0  0  0  0  0  0  0  0  0
    3.5292   -1.2279   -0.6928 C   0  0  0  0  0  0  0  0  0  0  0  0
    4.4701   -1.6585   -0.3360 H   0  0  0  0  0  0  0  0  0  0  0  0
    2.4773   -1.9710   -1.1170 C   0  0  0  0  0  0  0  0  0  0  0  0
    2.5906   -3.0652   -1.1279 H   0  0  0  0  0  0  0  0  0  0  0  0
    1.2174   -1.3554   -1.5764 C   0  0  0  0  0  3  0  0  0  0  0  0
    1.3527    0.0603   -1.9381 C   0  0  0  0  0  0  0  0  0  0  0  0
    2.4127    0.7773   -1.3820 C   0  0  0  0  0  0  0  0  0  0  0  0
    2.5172    1.8638   -1.5030 H   0  0  0  0  0  0  0  0  0  0  0  0
    4.3202    1.0561    0.0480 C   0  0  0  0  0  0  0  0  0  0  0  0
    5.5088    0.4150    0.7052 C   0  0  0  0  0  0  0  0  0  0  0  0
    6.1044    1.2118    1.1819 H   0  0  0  0  0  0  0  0  0  0  0  0
    6.1400   -0.1331   -0.0228 H   0  0  0  0  0  0  0  0  0  0  0  0
    5.1744   -0.3022    1.4817 H   0  0  0  0  0  0  0  0  0  0  0  0
    0.6195   -1.9722   -2.2628 H   0  0  0  0  0  0  0  0  0  0  0  0
    0.7338    0.5455   -2.7069 H   0  0  0  0  0  0  0  0  0  0  0  0
  2  3  1  0  0  0  0
  2 11  1  0  0  0  0
  3  4  1  0  0  0  0
  5  3  2  0  0  0  0
  6  5  1  0  0  0  0
  7  5  1  0  0  0  0
  8  7  1  0  0  0  0
  8  9  2  0  0  0  0
  9  2  1  0  0  0  0
 10  9  1  0  0  0  0
 11  1  2  0  0  0  0
 11 12  1  0  0  0  0
 12 13  1  0  0  0  0
 12 15  1  0  0  0  0
 14 12  1  0  0  0  0
 16  7  1  0  0  0  0
 17  8  1  0  0  0  0
M  END
