3
q = 0.0, confidence = 0.992

 31 33  0  0  1  0  0  0  0  0999 V2000
   -1.6372   -0.4630    0.8456 C   0  0  0  0  0  0  0  0  0  0  0  0
   -0.4877   -0.8336    1.5719 C   0  0  0  0  0  3  0  0  0  0  0  0
    0.4560   -1.4581    0.6236 C   0  0  1  0  0  3  0  0  0  0  0  0
   -0.1946   -1.4523   -0.7026 C   0  0  0  0  0  3  0  0  0  0  0  0
   -1.4550   -0.8352   -0.5423 C   0  0  0  0  0  0  0  0  0  0  0  0
   -2.8030   -0.6797   -1.2034 C   0  0  1  0  0  0  0  0  0  0  0  0
   -3.6639   -1.8490   -0.6195 C   0  0  0  0  0  0  0  0  0  0  0  0
   -3.8602   -1.4476    0.8791 C   0  0  0  0  0  0  0  0  0  0  0  0
   -3.0909   -0.0899    0.9994 C   0  0  2  0  0  0  0  0  0  0  0  0
   -3.3832    0.5152   -0.4000 C   0  0  0  0  0  0  0  0  0  0  0  0
    1.8488   -1.3751    0.9097 C   0  0  0  0  0  3  0  0  0  0  0  0
    2.7434   -2.4779   -1.0976 C   0  0  0  0  0  0  0  0  0  0  0  0
    4.2215   -1.3215    0.5059 C   0  0  0  0  0  0  0  0  0  0  0  0
    2.9041   -1.8647    0.2082 N   0  0  0  0  0  0  0  0  0  0  0  0
   -0.2982   -0.7076    2.6450 H   0  0  0  0  0  0  0  0  0  0  0  0
    0.2168   -1.8505   -1.6343 H   0  0  0  0  0  0  0  0  0  0  0  0
   -2.8129   -0.5981   -2.3051 H   0  0  0  0  0  0  0  0  0  0  0  0
   -4.6340   -1.9028   -1.1529 H   0  0  0  0  0  0  0  0  0  0  0  0
   -3.1624   -2.8287   -0.7407 H   0  0  0  0  0  0  0  0  0  0  0  0
   -4.9314   -1.2934    1.1183 H   0  0  0  0  0  0  0  0  0  0  0  0
   -3.4675   -2.2063    1.5834 H   0  0  0  0  0  0  0  0  0  0  0  0
   -3.3594    0.5220    1.8791 H   0  0  0  0  0  0  0  0  0  0  0  0
   -4.4678    0.6574   -0.5802 H   0  0  0  0  0  0  0  0  0  0  0  0
   -2.8498    1.4652   -0.5840 H   0  0  0  0  0  0  0  0  0  0  0  0
    2.1172   -1.0146    1.9157 H   0  0  0  0  0  0  0  0  0  0  0  0
    1.8909   -3.1825   -1.0807 H   0  0  0  0  0  0  0  0  0  0  0  0
    3.6605   -3.0485   -1.3402 H   0  0  0  0  0  0  0  0  0  0  0  0
    2.5799   -1.7227   -1.8986 H   0  0  0  0  0  0  0  0  0  0  0  0
    4.4226   -0.4062   -0.0960 H   0  0  0  0  0  0  0  0  0  0  0  0
    4.2824   -1.0484    1.5766 H   0  0  0  0  0  0  0  0  0  0  0  0
    5.0030   -2.0751    0.2844 H   0  0  0  0  0  0  0  0  0  0  0  0
  1  9  1  0  0  0  0
  1  2  1  0  0  0  0
  2 15  1  0  0  0  0
  3 11  1  6  0  0  0
  3  2  1  0  0  0  0
  4  5  1  0  0  0  0
  4  3  1  0  0  0  0
  5  1  2  0  0  0  0
  6 17  1  6  0  0  0
  6  7  1  0  0  0  0
  6  5  1  0  0  0  0
  6 10  1  0  0  0  0
  7  8  1  0  0  0  0
  8  9  1  0  0  0  0
  8 20  1  0  0  0  0
  8 21  1  0  0  0  0
  9 22  1  1  0  0  0
 10  9  1  0  0  0  0
 11 25  1  0  0  0  0
 12 26  1  0  0  0  0
 12 14  1  0  0  0  0
 13 30  1  0  0  0  0
 14 13  1  0  0  0  0
 14 11  1  0  0  0  0
 16  4  1  0  0  0  0
 18  7  1  0  0  0  0
 19  7  1  0  0  0  0
 23 10  1  0  0  0  0
 24 10  1  0  0  0  0
 27 12  1  0  0  0  0
 28 12  1  0  0  0  0
 29 13  1  0  0  0  0
 31 13  1  0  0  0  0
M  END
