1
q = 0.0, confidence = 0.982

 17 18  0  0  1  0  0  0  0  0999 V2000
   -1.8561    0.3736   -1.5371 C   0  0  0  0  0  3  0  0  0  0  0  0
   -2.1708    0.0659   -0.1950 C   0  0  2  0  0  3  0  0  0  0  0  0
   -2.8681   -1.1438    0.4242 C   0  0  2  0  0  0  0  0  0  0  0  0
   -4.0272   -0.1110    0.6301 C   0  0  0  0  0  0  0  0  0  0  0  0
   -2.8535    0.8913    0.8942 C   0  0  1  0  0  0  0  0  0  0  0  0
   -2.2398    0.3202    2.1881 C   0  0  0  0  0  0  0  0  0  0  0  0
   -2.2488   -1.2050    1.8348 C   0  0  0  0  0  0  0  0  0  0  0  0
   -1.9321   -0.4132   -2.3054 H   0  0  0  0  0  0  0  0  0  0  0  0
   -1.9135    1.4204   -1.8777 H   0  0  0  0  0  0  0  0  0  0  0  0
   -2.9880   -2.0839   -0.1406 H   0  0  0  0  0  0  0  0  0  0  0  0
   -4.7162   -0.3023    1.4796 H   0  0  0  0  0  0  0  0  0  0  0  0
   -4.5901    0.1067   -0.2968 H   0  0  0  0  0  0  0  0  0  0  0  0
   -2.9577    1.9854    0.7984 H   0  0  0  0  0  0  0  0  0  0  0  0
   -2.8592    0.5636    3.0746 H   0  0  0  0  0  0  0  0  0  0  0  0
   -1.2205    0.7189    2.3543 H   0  0  0  0  0  0  0  0  0  0  0  0
   -2.8686   -1.8086    2.5277 H   0  0  0  0  0  0  0  0  0  0  0  0
   -1.2332   -1.6447    1.8021 H   0  0  0  0  0  0  0  0  0  0  0  0
  2  1  1  6  0  0  0
  2  3  1  0  0  0  0
  2  5  1  0  0  0  0
  3 10  1  6  0  0  0
  3  4  1  0  0  0  0
  3  7  1  0  0  0  0
  4  5  1  0  0  0  0
  4 11  1  0  0  0  0
  5 13  1  6  0  0  0
  5  6  1  0  0  0  0
  6 15  1  0  0  0  0
  6 14  1  0  0  0  0
  7  6  1  0  0  0  0
  7 16  1  0  0  0  0
  8  1  1  0  0  0  0
  9  1  1  0  0  0  0
 12  4  1  0  0  0  0
 17  7  1  0  0  0  0
M  END
