13
q = -2.0, confidence = 0.86

 42 46  0  0  1  0  0  0  0  0999 V2000
    0.6299    0.1063    2.9811 C   0  0  0  0  0  0  0  0  0  0  0  0
    0.9767    0.8457    3.7362 H   0  0  0  0  0  0  0  0  0  0  0  0
    0.9979   -0.8779    3.3369 H   0  0  0  0  0  0  0  0  0  0  0  0
   -0.9133    0.0870    2.9276 C   0  0  0  0  0  0  0  0  0  0  0  0
   -1.3282   -0.3195    3.8765 H   0  0  0  0  0  0  0  0  0  0  0  0
   -1.3006    1.1234    2.8495 H   0  0  0  0  0  0  0  0  0  0  0  0
    1.2385    0.3929    1.6304 C   0  0  0  0  0  0  0  0  0  0  0  0
    1.1303    1.6276    0.8921 C   0  0  0  0  0  0  0  0  0  0  0  0
    1.8743    1.5090   -0.3519 C   0  0  0  0  0  0  0  0  0  0  0  0
    2.5080    0.2044   -0.3540 C   0  0  0  0  0  0  0  0  0  0  0  0
    2.1400   -0.4553    0.8895 C   0  0  0  0  0  0  0  0  0  0  0  0
   -1.3964   -0.7029    1.7385 C   0  0  2  0  0  3  0  0  0  0  0  0
   -0.8921   -1.9718    1.3090 C   0  0  0  0  0  3  0  0  0  0  0  0
   -0.0952   -2.5383    1.8074 H   0  0  0  0  0  0  0  0  0  0  0  0
   -1.5283   -2.3656    0.0998 C   0  0  0  0  0  3  0  0  0  0  0  0
   -1.3413   -3.2896   -0.4573 H   0  0  0  0  0  0  0  0  0  0  0  0
   -2.5160   -1.3730   -0.2119 C   0  0  0  0  0  0  0  0  0  0  0  0
   -2.4336   -0.3343    0.8069 C   0  0  0  0  0  0  0  0  0  0  0  0
    0.4460    2.8457    1.1755 C   0  0  0  0  0  0  0  0  0  0  0  0
   -0.1113    2.9635    2.1163 H   0  0  0  0  0  0  0  0  0  0  0  0
    0.5262    3.8950    0.2678 C   0  0  0  0  0  0  0  0  0  0  0  0
    0.0144    4.8435    0.4911 H   0  0  0  0  0  0  0  0  0  0  0  0
    1.2577    3.7734   -0.9484 C   0  0  0  0  0  0  0  0  0  0  0  0
    1.2939    4.6250   -1.6436 H   0  0  0  0  0  0  0  0  0  0  0  0
    1.9268    2.5954   -1.2608 C   0  0  0  0  0  3  0  0  0  0  0  0
    2.4967    2.5043   -2.1977 H   0  0  0  0  0  0  0  0  0  0  0  0
    3.4026   -0.4201   -1.2611 C   0  0  0  0  0  0  0  0  0  0  0  0
    3.6954    0.0951   -2.1883 H   0  0  0  0  0  0  0  0  0  0  0  0
    3.8996   -1.6824   -0.9636 C   0  0  0  0  0  0  0  0  0  0  0  0
    4.5943   -2.1768   -1.6582 H   0  0  0  0  0  0  0  0  0  0  0  0
    3.5196   -2.3479    0.2381 C   0  0  0  0  0  0  0  0  0  0  0  0
    3.9319   -3.3463    0.4498 H   0  0  0  0  0  0  0  0  0  0  0  0
    2.6527   -1.7614    1.1517 C   0  0  0  0  0  0  0  0  0  0  0  0
    2.3972   -2.2797    2.0883 H   0  0  0  0  0  0  0  0  0  0  0  0
   -3.4726   -1.2627   -1.2617 C   0  0  0  0  0  0  0  0  0  0  0  0
   -3.5396   -2.0477   -2.0298 H   0  0  0  0  0  0  0  0  0  0  0  0
   -4.3215   -0.1661   -1.2838 C   0  0  0  0  0  0  0  0  0  0  0  0
   -5.0747   -0.0752   -2.0809 H   0  0  0  0  0  0  0  0  0  0  0  0
   -4.2362    0.8573   -0.2902 C   0  0  0  0  0  0  0  0  0  0  0  0
   -4.9240    1.7145   -0.3463 H   0  0  0  0  0  0  0  0  0  0  0  0
   -3.3061    0.7913    0.7361 C   0  0  0  0  0  0  0  0  0  0  0  0
   -3.2514    1.5842    1.4971 H   0  0  0  0  0  0  0  0  0  0  0  0
  1  3  1  0  0  0  0
  1  2  1  0  0  0  0
  4  1  1  0  0  0  0
  4  5  1  0  0  0  0
  6  4  1  0  0  0  0
  7  1  1  0  0  0  0
  8 19  2  0  0  0  0
  8  7  1  0  0  0  0
  9  8  1  0  0  0  0
 10  9  2  0  0  0  0
 10 11  1  0  0  0  0
 11 33  1  0  0  0  0
 11  7  2  0  0  0  0
 12  4  1  6  0  0  0
 13 12  1  0  0  0  0
 13 14  1  0  0  0  0
 15 13  1  0  0  0  0
 16 15  1  0  0  0  0
 17 15  1  0  0  0  0
 17 18  1  0  0  0  0
 18 12  1  0  0  0  0
 19 20  1  0  0  0  0
 21 22  1  0  0  0  0
 21 19  1  0  0  0  0
 23 21  2  0  0  0  0
 24 23  1  0  0  0  0
 25 23  1  0  0  0  0
 25  9  1  0  0  0  0
 26 25  1  0  0  0  0
 27 29  2  0  0  0  0
 27 10  1  0  0  0  0
 28 27  1  0  0  0  0
 29 31  1  0  0  0  0
 30 29  1  0  0  0  0
 31 32  1  0  0  0  0
 31 33  2  0  0  0  0
 33 34  1  0  0  0  0
 35 17  2  0  0  0  0
 36 35  1  0  0  0  0
 37 35  1  0  0  0  0
 37 39  2  0  0  0  0
 38 37  1  0  0  0  0
 39 41  1  0  0  0  0
 40 39  1  0  0  0  0
 41 18  2  0  0  0  0
 41 42  1  0  0  0  0
M  END
