8
q = 0.0, confidence = 0.99

 23 22  0  0  1  0  0  0  0  0999 V2000
    3.5776   -0.1728   -1.0610 O   0  0  0  0  0  0  0  0  0  0  0  0
   -3.3345   -1.3097    0.2257 O   0  0  0  0  0  0  0  0  0  0  0  0
   -3.2097    0.5692   -1.0486 O   0  0  0  0  0  0  0  0  0  0  0  0
    3.3520   -1.5689    0.9398 C   0  0  0  0  0  0  0  0  0  0  0  0
    2.9526   -1.3262   -0.5156 C   0  0  1  0  0  0  0  0  0  0  0  0
    1.4570   -1.1947   -0.7025 C   0  0  0  0  0  3  0  0  0  0  0  0
    0.9219   -0.3613   -1.7390 C   0  0  0  0  0  3  0  0  0  0  0  0
   -0.4841   -0.1506   -1.7540 C   0  0  0  0  0  3  0  0  0  0  0  0
   -1.2609   -0.8160   -0.7429 C   0  0  0  0  0  3  0  0  0  0  0  0
   -2.6788   -0.4193   -0.5659 C   0  0  0  0  0  0  0  0  0  0  0  0
   -4.7062   -0.9947    0.4835 C   0  0  0  0  0  0  0  0  0  0  0  0
    2.8248   -2.4500    1.3572 H   0  0  0  0  0  0  0  0  0  0  0  0
    3.0981   -0.6894    1.5638 H   0  0  0  0  0  0  0  0  0  0  0  0
    4.4425   -1.7618    1.0226 H   0  0  0  0  0  0  0  0  0  0  0  0
    4.4854   -0.1292   -0.7122 H   0  0  0  0  0  0  0  0  0  0  0  0
    3.2569   -2.2322   -1.1068 H   0  0  0  0  0  0  0  0  0  0  0  0
    0.9125   -2.1154   -0.4343 H   0  0  0  0  0  0  0  0  0  0  0  0
    1.5898    0.2152   -2.3956 H   0  0  0  0  0  0  0  0  0  0  0  0
   -0.9586    0.5738   -2.4331 H   0  0  0  0  0  0  0  0  0  0  0  0
   -1.0383   -1.8536   -0.4524 H   0  0  0  0  0  0  0  0  0  0  0  0
   -4.7994    0.0003    0.9645 H   0  0  0  0  0  0  0  0  0  0  0  0
   -5.0827   -1.7859    1.1561 H   0  0  0  0  0  0  0  0  0  0  0  0
   -5.2928   -0.9760   -0.4576 H   0  0  0  0  0  0  0  0  0  0  0  0
  1 15  1  0  0  0  0
  1  5  1  0  0  0  0
  2 11  1  0  0  0  0
  3 10  2  0  0  0  0
  4 14  1  0  0  0  0
  4 12  1  0  0  0  0
  4 13  1  0  0  0  0
  5 16  1  6  0  0  0
  5  4  1  0  0  0  0
  6  5  1  0  0  0  0
  6 17  1  0  0  0  0
  7  6  1  0  0  0  0
  8  7  1  0  0  0  0
  8  9  1  0  0  0  0
  9 10  1  0  0  0  0
  9 20  1  0  0  0  0
 10  2  1  0  0  0  0
 11 21  1  0  0  0  0
 11 22  1  0  0  0  0
 18  7  1  0  0  0  0
 19  8  1  0  0  0  0
 23 11  1  0  0  0  0
M  END
