3
q = -2.0, confidence = 0.716

  5  6  0  0  1  0  0  0  0  0999 V2000
    2.3135    0.7248   -0.9371 C   0  0  0  0  0  0  0  0  0  0  0  0
    1.8201   -0.5572   -1.2461 C   0  0  2  0  0  0  0  0  0  0  0  0
    1.2285   -1.7368   -0.7655 C   0  0  0  0  0  0  0  0  0  0  0  0
    1.7636   -1.2588    0.6139 C   0  0  0  0  0  0  0  0  0  0  0  0
    2.3100   -0.0788    0.2081 C   0  0  2  0  0  0  0  0  0  0  0  0
  2  1  1  1  0  0  0
  2  3  1  0  0  0  0
  2  5  1  0  0  0  0
  3  4  1  0  0  0  0
  5  1  1  1  0  0  0
  5  4  1  0  0  0  0
M  END
