1
q = 0.0, confidence = 0.982

 13 13  0  0  0  0  0  0  0  0999 V2000
   -0.6276   -1.4059    0.0671 C   0  0  0  0  0  1  0  0  0  0  0  0
   -2.8072   -2.7612    0.3938 C   0  0  0  0  0  0  0  0  0  0  0  0
   -3.5533   -2.5316    1.7006 C   0  0  0  0  0  0  0  0  0  0  0  0
   -4.0880   -1.9361    0.4230 C   0  0  0  0  0  0  0  0  0  0  0  0
   -2.7981   -4.1360   -0.2501 C   0  0  0  0  0  0  0  0  0  0  0  0
   -1.6173   -2.0475    0.2243 N   0  0  0  0  0  2  0  0  0  0  0  0
   -3.0850   -1.8527    2.4288 H   0  0  0  0  0  0  0  0  0  0  0  0
   -4.9749   -2.3886   -0.0467 H   0  0  0  0  0  0  0  0  0  0  0  0
   -4.0622   -3.4044    2.1378 H   0  0  0  0  0  0  0  0  0  0  0  0
   -3.9873   -0.8493    0.2794 H   0  0  0  0  0  0  0  0  0  0  0  0
   -3.7671   -4.6430   -0.0809 H   0  0  0  0  0  0  0  0  0  0  0  0
   -2.6310   -4.0553   -1.3427 H   0  0  0  0  0  0  0  0  0  0  0  0
   -1.9940   -4.7648    0.1815 H   0  0  0  0  0  0  0  0  0  0  0  0
  1  6  1  0  0  0  0
  2  4  1  0  0  0  0
  2  3  1  0  0  0  0
  3  9  1  0  0  0  0
  3  7  1  0  0  0  0
  4  3  1  0  0  0  0
  5 11  1  0  0  0  0
  5 13  1  0  0  0  0
  5  2  1  0  0  0  0
  6  2  1  0  0  0  0
  8  4  1  0  0  0  0
 10  4  1  0  0  0  0
 12  5  1  0  0  0  0
M  END
