1
q = -1.0, confidence = 0.048

 51 51  0  0  1  0  0  0  0  0999 V2000
   -2.1817    0.8737   -0.5947 C   0  0  0  0  0  3  0  0  0  0  0  0
   -2.9596    1.1094   -1.5141 O   0  0  0  0  0  0  0  0  0  0  0  0
    0.2966    0.1398    0.2686 P   0  0  2  0  0  0  0  0  0  0  0  0
    0.9182   -0.9037   -2.5837 Si  0  0  0  0  0  0  0  0  0  0  0  0
    1.0456    0.4964   -3.8509 C   0  0  0  0  0  0  0  0  0  0  0  0
    2.0168   -2.3676   -3.0621 C   0  0  0  0  0  0  0  0  0  0  0  0
   -0.8558   -1.5167   -2.7709 C   0  0  0  0  0  0  0  0  0  0  0  0
    1.4416   -0.3582   -0.9213 N   0  0  0  0  0  0  0  0  0  0  0  0
    3.2315   -0.1254   -0.6765 Si  0  0  0  0  0  0  0  0  0  0  0  0
    4.0345    0.5301   -2.2655 C   0  0  0  0  0  0  0  0  0  0  0  0
    4.0929   -1.7465   -0.2200 C   0  0  0  0  0  0  0  0  0  0  0  0
    3.6475    1.1875    0.6212 C   0  0  0  0  0  0  0  0  0  0  0  0
    1.1378   -0.1759    1.8913 C   0  0  0  0  0  0  0  0  0  0  0  0
    1.1811    0.8734    2.8311 C   0  0  0  0  0  0  0  0  0  0  0  0
    1.8225    0.7031    4.0655 C   0  0  0  0  0  0  0  0  0  0  0  0
    2.4337   -0.5210    4.3768 C   0  0  0  0  0  0  0  0  0  0  0  0
    2.3991   -1.5711    3.4456 C   0  0  0  0  0  0  0  0  0  0  0  0
    1.7566   -1.4030    2.2108 C   0  0  0  0  0  0  0  0  0  0  0  0
   -0.8793   -2.6040    0.5668 C   0  0  0  0  0  0  0  0  0  0  0  0
   -1.0872   -1.1366    0.2771 C   0  0  1  0  0  3  0  0  0  0  0  0
   -2.2731   -0.5399    0.0117 C   0  0  2  0  0  3  0  0  0  0  0  0
   -3.6543   -1.1708    0.0824 C   0  0  0  0  0  0  0  0  0  0  0  0
   -0.8814   -2.8734    1.8885 F   0  0  0  0  0  0  0  0  0  0  0  0
   -1.8035   -3.3957   -0.0206 F   0  0  0  0  0  0  0  0  0  0  0  0
    0.3284   -3.0257    0.0722 F   0  0  0  0  0  0  0  0  0  0  0  0
   -3.9698   -1.8181   -1.0600 F   0  0  0  0  0  0  0  0  0  0  0  0
   -3.7475   -2.0513    1.1079 F   0  0  0  0  0  0  0  0  0  0  0  0
   -4.5930   -0.2259    0.2976 F   0  0  0  0  0  0  0  0  0  0  0  0
    2.0214    1.0115   -3.8859 H   0  0  0  0  0  0  0  0  0  0  0  0
    0.2591    1.2517   -3.6573 H   0  0  0  0  0  0  0  0  0  0  0  0
    0.8492    0.0729   -4.8582 H   0  0  0  0  0  0  0  0  0  0  0  0
    1.7153   -2.7178   -4.0709 H   0  0  0  0  0  0  0  0  0  0  0  0
    1.8490   -3.2013   -2.3504 H   0  0  0  0  0  0  0  0  0  0  0  0
    3.1010   -2.1509   -3.0937 H   0  0  0  0  0  0  0  0  0  0  0  0
   -1.1231   -2.4019   -2.1675 H   0  0  0  0  0  0  0  0  0  0  0  0
   -0.9099   -1.8233   -3.8384 H   0  0  0  0  0  0  0  0  0  0  0  0
   -1.6248   -0.7361   -2.6216 H   0  0  0  0  0  0  0  0  0  0  0  0
    3.9117   -0.1087   -3.1597 H   0  0  0  0  0  0  0  0  0  0  0  0
    5.1227    0.6028   -2.0568 H   0  0  0  0  0  0  0  0  0  0  0  0
    3.6796    1.5505   -2.5147 H   0  0  0  0  0  0  0  0  0  0  0  0
    5.1759   -1.6592   -0.4469 H   0  0  0  0  0  0  0  0  0  0  0  0
    3.6931   -2.6075   -0.7885 H   0  0  0  0  0  0  0  0  0  0  0  0
    3.9924   -1.9673    0.8595 H   0  0  0  0  0  0  0  0  0  0  0  0
    3.6467    0.7939    1.6540 H   0  0  0  0  0  0  0  0  0  0  0  0
    2.9604    2.0543    0.5825 H   0  0  0  0  0  0  0  0  0  0  0  0
    4.6692    1.5571    0.3932 H   0  0  0  0  0  0  0  0  0  0  0  0
    0.7280    1.8395    2.5690 H   0  0  0  0  0  0  0  0  0  0  0  0
    1.8487    1.5351    4.7852 H   0  0  0  0  0  0  0  0  0  0  0  0
    2.9379   -0.6578    5.3455 H   0  0  0  0  0  0  0  0  0  0  0  0
    2.8749   -2.5351    3.6818 H   0  0  0  0  0  0  0  0  0  0  0  0
    1.7498   -2.2304    1.4930 H   0  0  0  0  0  0  0  0  0  0  0  0
  2  1  2  0  0  0  0
  3  8  1  6  0  0  0
  3 20  1  0  0  0  0
  3 13  1  0  0  0  0
  4  8  1  0  0  0  0
  5 30  1  0  0  0  0
  5  4  1  0  0  0  0
  6  4  1  0  0  0  0
  6 33  1  0  0  0  0
  7 37  1  0  0  0  0
  7  4  1  0  0  0  0
  7 35  1  0  0  0  0
  8  9  1  0  0  0  0
  9 11  1  0  0  0  0
  9 12  1  0  0  0  0
 10 39  1  0  0  0  0
 10  9  1  0  0  0  0
 11 43  1  0  0  0  0
 12 44  1  0  0  0  0
 13 18  2  0  0  0  0
 13 14  1  0  0  0  0
 14 15  2  0  0  0  0
 15 16  1  0  0  0  0
 15 48  1  0  0  0  0
 16 49  1  0  0  0  0
 17 50  1  0  0  0  0
 17 16  2  0  0  0  0
 18 17  1  0  0  0  0
 19 23  1  0  0  0  0
 20 19  1  1  0  0  0
 21  1  1  6  0  0  0
 21 22  1  0  0  0  0
 21 20  1  0  0  0  0
 22 28  1  0  0  0  0
 22 27  1  0  0  0  0
 24 19  1  0  0  0  0
 25 19  1  0  0  0  0
 26 22  1  0  0  0  0
 29  5  1  0  0  0  0
 31  5  1  0  0  0  0
 32  6  1  0  0  0  0
 34  6  1  0  0  0  0
 36  7  1  0  0  0  0
 38 10  1  0  0  0  0
 40 10  1  0  0  0  0
 41 11  1  0  0  0  0
 42 11  1  0  0  0  0
 45 12  1  0  0  0  0
 46 12  1  0  0  0  0
 47 14  1  0  0  0  0
 51 18  1  0  0  0  0
M  END
