1
q = 0.0, confidence = 0.954

 16 15  0  0  0  0  0  0  0  0999 V2000
    0.0341    1.6912   -0.2655 C   0  0  0  0  0  1  0  0  0  0  0  0
   -0.0520    2.9223   -0.7542 C   0  0  0  0  0  3  0  0  0  0  0  0
    0.8763    3.5245   -0.6772 H   0  0  0  0  0  0  0  0  0  0  0  0
   -1.2955    3.6575   -1.2872 C   0  0  0  0  0  0  0  0  0  0  0  0
   -0.8281    4.8981   -2.0699 C   0  0  0  0  0  0  0  0  0  0  0  0
   -0.1868    4.6106   -2.9274 H   0  0  0  0  0  0  0  0  0  0  0  0
   -0.2469    5.5858   -1.4224 H   0  0  0  0  0  0  0  0  0  0  0  0
   -1.6975    5.4595   -2.4672 H   0  0  0  0  0  0  0  0  0  0  0  0
   -2.1233    2.7520   -2.2170 C   0  0  0  0  0  0  0  0  0  0  0  0
   -3.0328    3.2840   -2.5630 H   0  0  0  0  0  0  0  0  0  0  0  0
   -2.4484    1.8256   -1.7035 H   0  0  0  0  0  0  0  0  0  0  0  0
   -1.5387    2.4604   -3.1112 H   0  0  0  0  0  0  0  0  0  0  0  0
   -2.1623    4.1012   -0.0885 C   0  0  0  0  0  0  0  0  0  0  0  0
   -1.5869    4.7448    0.6069 H   0  0  0  0  0  0  0  0  0  0  0  0
   -2.5257    3.2217    0.4824 H   0  0  0  0  0  0  0  0  0  0  0  0
   -3.0461    4.6774   -0.4332 H   0  0  0  0  0  0  0  0  0  0  0  0
  2  3  1  0  0  0  0
  2  1  1  0  0  0  0
  4  2  1  0  0  0  0
  4 13  1  0  0  0  0
  5  7  1  0  0  0  0
  5  4  1  0  0  0  0
  6  5  1  0  0  0  0
  8  5  1  0  0  0  0
  9 11  1  0  0  0  0
  9  4  1  0  0  0  0
 10  9  1  0  0  0  0
 12  9  1  0  0  0  0
 13 15  1  0  0  0  0
 13 14  1  0  0  0  0
 16 13  1  0  0  0  0
M  END
