2
q = -1.0, confidence = 0.0

 17 16  0  0  1  0  0  0  0  0999 V2000
   -4.2539    1.6908    0.1264 Cl  0  0  0  0  0  0  0  0  0  0  0  0
    0.3709   -2.8047   -0.5763 C   0  0  0  0  0  3  0  0  0  0  0  0
   -0.7905   -2.3640    0.1390 C   0  0  2  0  0  3  0  0  0  0  0  0
   -1.5271   -1.3277   -0.5323 C   0  0  0  0  0  3  0  0  0  0  0  0
   -2.6664   -0.5590    0.0907 C   0  0  0  0  0  0  0  0  0  0  0  0
   -2.8710    0.7847   -0.6015 C   0  0  0  0  0  0  0  0  0  0  0  0
   -1.0718   -2.7996    1.5531 C   0  0  0  0  0  0  0  0  0  0  0  0
    0.3468   -2.8868   -1.6770 H   0  0  0  0  0  0  0  0  0  0  0  0
    1.0982   -3.4591   -0.0687 H   0  0  0  0  0  0  0  0  0  0  0  0
   -1.5622   -1.3881   -1.6379 H   0  0  0  0  0  0  0  0  0  0  0  0
   -2.4845   -0.3799    1.1697 H   0  0  0  0  0  0  0  0  0  0  0  0
   -3.6078   -1.1522    0.0242 H   0  0  0  0  0  0  0  0  0  0  0  0
   -1.9657    1.4121   -0.4969 H   0  0  0  0  0  0  0  0  0  0  0  0
   -3.1022    0.6554   -1.6774 H   0  0  0  0  0  0  0  0  0  0  0  0
   -1.4738   -1.9773    2.1747 H   0  0  0  0  0  0  0  0  0  0  0  0
   -1.8328   -3.6096    1.5436 H   0  0  0  0  0  0  0  0  0  0  0  0
   -0.1602   -3.1976    2.0381 H   0  0  0  0  0  0  0  0  0  0  0  0
  2  9  1  0  0  0  0
  3  2  1  1  0  0  0
  3  7  1  0  0  0  0
  4  5  1  0  0  0  0
  4  3  1  0  0  0  0
  5 11  1  0  0  0  0
  6 13  1  0  0  0  0
  6  5  1  0  0  0  0
  6  1  1  0  0  0  0
  7 17  1  0  0  0  0
  7 15  1  0  0  0  0
  8  2  1  0  0  0  0
 10  4  1  0  0  0  0
 12  5  1  0  0  0  0
 14  6  1  0  0  0  0
 16  7  1  0  0  0  0
M  END
