13
q = -1.0, confidence = 0.07

 21 20  0  0  1  0  0  0  0  0999 V2000
   -1.1080   -2.0537    0.3756 C   0  0  0  0  0  3  0  0  0  0  0  0
   -0.3251   -2.8127    0.2321 H   0  0  0  0  0  0  0  0  0  0  0  0
   -2.1385   -2.4304    0.3260 H   0  0  0  0  0  0  0  0  0  0  0  0
   -0.8492    1.6411    2.2927 H   0  0  0  0  0  0  0  0  0  0  0  0
   -2.2317    1.0107    3.2037 H   0  0  0  0  0  0  0  0  0  0  0  0
   -2.5541    2.0079    1.7579 H   0  0  0  0  0  0  0  0  0  0  0  0
    2.9031   -2.9717    2.4410 H   0  0  0  0  0  0  0  0  0  0  0  0
    2.2363   -1.9289    3.7717 H   0  0  0  0  0  0  0  0  0  0  0  0
    3.0422   -1.1622    2.3634 H   0  0  0  0  0  0  0  0  0  0  0  0
   -4.6641   -1.6238    2.1470 H   0  0  0  0  0  0  0  0  0  0  0  0
   -3.7518   -0.5515    3.2713 H   0  0  0  0  0  0  0  0  0  0  0  0
   -2.9853   -2.0666    2.6515 H   0  0  0  0  0  0  0  0  0  0  0  0
   -0.8311   -0.9799    1.2982 C   0  0  2  0  0  3  0  0  0  0  0  0
   -1.9091   -0.0021    1.3319 C   0  0  2  0  0  3  0  0  0  0  0  0
   -1.8699    1.2443    2.1788 C   0  0  0  0  0  0  0  0  0  0  0  0
   -3.2111   -0.5339    1.2275 O   0  0  0  0  0  0  0  0  0  0  0  0
   -3.6610   -1.2207    2.3848 C   0  0  0  0  0  0  0  0  0  0  0  0
    0.4293   -0.8758    2.0709 C   0  0  0  0  0  0  0  0  0  0  0  0
    1.1681   -2.0233    1.9676 O   0  0  0  0  0  0  0  0  0  0  0  0
    0.8170    0.0795    2.7331 O   0  0  0  0  0  0  0  0  0  0  0  0
    2.4061   -2.0139    2.6789 C   0  0  0  0  0  0  0  0  0  0  0  0
  2  1  1  0  0  0  0
  3  1  1  0  0  0  0
  6 15  1  0  0  0  0
  7 21  1  0  0  0  0
  9 21  1  0  0  0  0
 10 17  1  0  0  0  0
 13  1  1  6  0  0  0
 13 14  1  0  0  0  0
 13 18  1  0  0  0  0
 14 16  1  1  0  0  0
 14 15  1  0  0  0  0
 15  4  1  0  0  0  0
 15  5  1  0  0  0  0
 16 17  1  0  0  0  0
 17 12  1  0  0  0  0
 17 11  1  0  0  0  0
 18 20  2  0  0  0  0
 19 18  1  0  0  0  0
 19 21  1  0  0  0  0
 21  8  1  0  0  0  0
M  END
