2
q = 0.0, confidence = 0.898

  6  5  0  0  0  0  0  0  0  0999 V2000
    0.0039    1.6687   -1.3700 N   0  0  0  0  0  2  0  0  0  0  0  0
    0.0053    2.0127   -0.1765 C   0  0  0  0  0  3  0  0  0  0  0  0
    0.0087    3.2800    0.6014 C   0  0  0  0  0  0  0  0  0  0  0  0
    0.0114    4.1693   -0.0627 H   0  0  0  0  0  0  0  0  0  0  0  0
   -0.8788    3.3228    1.2659 H   0  0  0  0  0  0  0  0  0  0  0  0
    0.8957    3.3178    1.2668 H   0  0  0  0  0  0  0  0  0  0  0  0
  1  2  2  0  0  0  0
  2  3  1  0  0  0  0
  3  5  1  0  0  0  0
  3  6  1  0  0  0  0
  4  3  1  0  0  0  0
M  END
