2
q = 0.0, confidence = 0.926

 28 30  0  0  1  0  0  0  0  0999 V2000
    2.6194    2.4477    0.3884 O   0  0  0  0  0  0  0  0  0  0  0  0
    1.8844    1.5332    0.6710 C   0  0  0  0  0  3  0  0  0  0  0  0
   -1.1161    0.0542    0.6329 C   0  0  2  0  0  3  0  0  0  0  0  0
   -1.6217   -1.3169    0.2401 C   0  0  1  0  0  0  0  0  0  0  0  0
   -3.0845   -1.4145   -0.2839 C   0  0  0  0  0  0  0  0  0  0  0  0
   -3.9966   -0.4653    0.4462 C   0  0  0  0  0  0  0  0  0  0  0  0
   -3.9013    0.8682    0.2476 C   0  0  0  0  0  0  0  0  0  0  0  0
   -2.8820    1.4318   -0.7058 C   0  0  0  0  0  0  0  0  0  0  0  0
   -1.4389    1.3376   -0.1316 C   0  0  2  0  0  0  0  0  0  0  0  0
   -0.3350    1.4496   -1.1463 C   0  0  0  0  0  3  0  0  0  0  0  0
    0.0775    0.4045   -1.9905 C   0  0  0  0  0  0  0  0  0  0  0  0
   -0.0474   -1.0313   -1.8243 C   0  0  0  0  0  0  0  0  0  0  0  0
   -0.5647   -1.7721   -0.7474 C   0  0  0  0  0  3  0  0  0  0  0  0
   -0.1741    0.1930    1.6685 C   0  0  2  0  0  3  0  0  0  0  0  0
    0.4610    0.5098    2.8912 C   0  0  0  0  0  2  0  0  0  0  0  0
    1.0869    0.9939    1.6987 C   0  0  1  0  0  3  0  0  0  0  0  0
   -1.5351   -1.9597    1.1401 H   0  0  0  0  0  0  0  0  0  0  0  0
   -3.0834   -1.1696   -1.3677 H   0  0  0  0  0  0  0  0  0  0  0  0
   -3.4263   -2.4643   -0.1982 H   0  0  0  0  0  0  0  0  0  0  0  0
   -4.7220   -0.8663    1.1721 H   0  0  0  0  0  0  0  0  0  0  0  0
   -4.5505    1.5584    0.8101 H   0  0  0  0  0  0  0  0  0  0  0  0
   -3.0912    2.4902   -0.9563 H   0  0  0  0  0  0  0  0  0  0  0  0
   -2.9094    0.8682   -1.6630 H   0  0  0  0  0  0  0  0  0  0  0  0
   -1.3197    2.1695    0.5950 H   0  0  0  0  0  0  0  0  0  0  0  0
    0.0515    2.4514   -1.3970 H   0  0  0  0  0  0  0  0  0  0  0  0
    0.7200    0.7001   -2.8349 H   0  0  0  0  0  0  0  0  0  0  0  0
    0.5253   -1.6172   -2.5608 H   0  0  0  0  0  0  0  0  0  0  0  0
   -0.3126   -2.8466   -0.7587 H   0  0  0  0  0  0  0  0  0  0  0  0
  1  2  2  0  0  0  0
  3 14  1  6  0  0  0
  4  3  1  0  0  0  0
  4 17  1  1  0  0  0
  5 19  1  0  0  0  0
  5  4  1  0  0  0  0
  5  6  1  0  0  0  0
  6 20  1  0  0  0  0
  7  6  2  0  0  0  0
  7 21  1  0  0  0  0
  8  9  1  0  0  0  0
  8  7  1  0  0  0  0
  9 24  1  1  0  0  0
  9  3  1  0  0  0  0
 10  9  1  0  0  0  0
 11 12  2  0  0  0  0
 11 10  1  0  0  0  0
 12 13  1  0  0  0  0
 13  4  1  0  0  0  0
 14 16  1  0  0  0  0
 14 15  1  1  0  0  0
 16  2  1  6  0  0  0
 16 15  1  0  0  0  0
 18  5  1  0  0  0  0
 22  8  1  0  0  0  0
 23  8  1  0  0  0  0
 25 10  1  0  0  0  0
 26 11  1  0  0  0  0
 27 12  1  0  0  0  0
 28 13  1  0  0  0  0
M  END
