26
q = 0.0, confidence = 1.0

 26 26  0  0  0  0  0  0  0  0999 V2000
    0.5675   -0.0020    0.0027 N   0  0  0  0  0  2  0  0  0  0  0  0
   -7.1480    1.2050   -0.1949 O   0  0  0  0  0  0  0  0  0  0  0  0
   -7.1719   -1.1736    0.1659 O   0  0  0  0  0  0  0  0  0  0  0  0
   -7.4123   -0.1240    0.0025 H   0  0  0  0  0  0  0  0  0  0  0  0
   -5.1954    2.5460   -0.4190 C   0  0  0  0  0  0  0  0  0  0  0  0
   -5.8891    3.2104   -0.9664 H   0  0  0  0  0  0  0  0  0  0  0  0
   -4.2411    2.4419   -0.9682 H   0  0  0  0  0  0  0  0  0  0  0  0
   -4.9676    3.0299    0.5539 H   0  0  0  0  0  0  0  0  0  0  0  0
   -5.8792    1.2200   -0.1895 C   0  0  0  0  0  0  0  0  0  0  0  0
   -5.1231   -0.0017    0.0086 C   0  0  0  0  0  0  0  0  0  0  0  0
   -5.8668   -1.1924    0.1825 C   0  0  0  0  0  0  0  0  0  0  0  0
   -5.2577   -2.5436    0.4183 C   0  0  0  0  0  0  0  0  0  0  0  0
   -5.8733   -3.0865    1.1615 H   0  0  0  0  0  0  0  0  0  0  0  0
   -4.2101   -2.4856    0.7614 H   0  0  0  0  0  0  0  0  0  0  0  0
   -5.2876   -3.1398   -0.5180 H   0  0  0  0  0  0  0  0  0  0  0  0
   -3.6395   -0.0041    0.0098 C   0  0  0  0  0  0  0  0  0  0  0  0
   -2.9091   -0.7616   -0.9373 C   0  0  0  0  0  0  0  0  0  0  0  0
   -3.4560   -1.3439   -1.6936 H   0  0  0  0  0  0  0  0  0  0  0  0
   -1.5124   -0.7728   -0.9460 C   0  0  0  0  0  0  0  0  0  0  0  0
   -0.9535   -1.3609   -1.6874 H   0  0  0  0  0  0  0  0  0  0  0  0
   -0.8073   -0.0029    0.0049 C   0  0  0  0  0  0  0  0  0  0  0  0
   -1.5104    0.7660    0.9584 C   0  0  0  0  0  0  0  0  0  0  0  0
   -0.9495    1.3532    1.6990 H   0  0  0  0  0  0  0  0  0  0  0  0
   -2.9068    0.7546    0.9540 C   0  0  0  0  0  0  0  0  0  0  0  0
   -3.4498    1.3355    1.7139 H   0  0  0  0  0  0  0  0  0  0  0  0
    1.7530   -0.0015    0.0013 C   0  0  0  0  0  1  0  0  0  0  0  0
  1 21  1  0  0  0  0
  2  9  2  0  0  0  0
  3 11  1  0  0  0  0
  4  3  1  0  0  0  0
  5  9  1  0  0  0  0
  5  8  1  0  0  0  0
  6  5  1  0  0  0  0
  7  5  1  0  0  0  0
  9 10  1  0  0  0  0
 10 16  1  0  0  0  0
 10 11  2  0  0  0  0
 11 12  1  0  0  0  0
 12 14  1  0  0  0  0
 12 13  1  0  0  0  0
 15 12  1  0  0  0  0
 16 24  1  0  0  0  0
 17 16  2  0  0  0  0
 18 17  1  0  0  0  0
 19 17  1  0  0  0  0
 19 21  2  0  0  0  0
 20 19  1  0  0  0  0
 21 22  1  0  0  0  0
 22 23  1  0  0  0  0
 24 22  2  0  0  0  0
 24 25  1  0  0  0  0
 26  1  1  0  0  0  0
M  END
