1
q = 0.0, confidence = 0.998

 33 34  0  0  0  0  0  0  0  0999 V2000
    3.1382   -0.0015    0.0000 C   0  0  0  0  0  1  0  0  0  0  0  0
    0.5813    0.1124   -0.0237 C   0  0  0  0  0  0  0  0  0  0  0  0
   -0.0767    1.2996    0.3670 C   0  0  0  0  0  0  0  0  0  0  0  0
    0.5179    2.1655    0.6904 H   0  0  0  0  0  0  0  0  0  0  0  0
   -1.4708    1.3504    0.3517 C   0  0  0  0  0  0  0  0  0  0  0  0
   -1.9711    2.2702    0.6873 H   0  0  0  0  0  0  0  0  0  0  0  0
   -2.2516    0.2384   -0.0506 C   0  0  0  0  0  0  0  0  0  0  0  0
   -1.5650   -0.9385   -0.4400 C   0  0  0  0  0  0  0  0  0  0  0  0
   -2.1387   -1.8098   -0.7874 H   0  0  0  0  0  0  0  0  0  0  0  0
   -0.1720   -1.0119   -0.4284 C   0  0  0  0  0  0  0  0  0  0  0  0
    0.3495   -1.9271   -0.7419 H   0  0  0  0  0  0  0  0  0  0  0  0
   -3.7285    0.3042   -0.0632 C   0  0  0  0  0  0  0  0  0  0  0  0
   -4.4096    1.5211   -0.3197 C   0  0  0  0  0  0  0  0  0  0  0  0
   -3.8333    2.4308   -0.5449 H   0  0  0  0  0  0  0  0  0  0  0  0
   -5.8007    1.5868   -0.3341 C   0  0  0  0  0  0  0  0  0  0  0  0
   -6.3270    2.5280   -0.5485 H   0  0  0  0  0  0  0  0  0  0  0  0
   -6.5742    0.4300   -0.0842 C   0  0  0  0  0  0  0  0  0  0  0  0
   -5.9167   -0.7918    0.1769 C   0  0  0  0  0  0  0  0  0  0  0  0
   -6.4864   -1.7059    0.3886 H   0  0  0  0  0  0  0  0  0  0  0  0
   -4.5170   -0.8410    0.1816 C   0  0  0  0  0  0  0  0  0  0  0  0
   -4.0270   -1.7980    0.4161 H   0  0  0  0  0  0  0  0  0  0  0  0
   -8.7604   -0.5365    0.1159 C   0  0  0  0  0  0  0  0  0  0  0  0
   -8.5534   -0.9658    1.1247 H   0  0  0  0  0  0  0  0  0  0  0  0
   -8.5441   -1.3340   -0.6337 H   0  0  0  0  0  0  0  0  0  0  0  0
  -10.2080   -0.0810    0.0135 C   0  0  0  0  0  0  0  0  0  0  0  0
  -10.3713    0.7348    0.7491 H   0  0  0  0  0  0  0  0  0  0  0  0
  -10.3635    0.3690   -0.9898 H   0  0  0  0  0  0  0  0  0  0  0  0
  -11.1944   -1.2242    0.2497 C   0  0  0  0  0  0  0  0  0  0  0  0
  -11.0618   -2.0385   -0.4928 H   0  0  0  0  0  0  0  0  0  0  0  0
  -12.2411   -0.8712    0.1708 H   0  0  0  0  0  0  0  0  0  0  0  0
  -11.0694   -1.6700    1.2584 H   0  0  0  0  0  0  0  0  0  0  0  0
    1.9542    0.0513   -0.0109 N   0  0  0  0  0  2  0  0  0  0  0  0
   -7.9187    0.5914   -0.1161 O   0  0  0  0  0  0  0  0  0  0  0  0
  2 32  1  0  0  0  0
  2  3  1  0  0  0  0
  3  4  1  0  0  0  0
  5  3  2  0  0  0  0
  5  6  1  0  0  0  0
  7  5  1  0  0  0  0
  8 10  1  0  0  0  0
  8  7  2  0  0  0  0
  9  8  1  0  0  0  0
 10  2  2  0  0  0  0
 11 10  1  0  0  0  0
 12  7  1  0  0  0  0
 12 20  1  0  0  0  0
 13 12  2  0  0  0  0
 14 13  1  0  0  0  0
 15 13  1  0  0  0  0
 15 17  2  0  0  0  0
 16 15  1  0  0  0  0
 17 18  1  0  0  0  0
 18 20  2  0  0  0  0
 18 19  1  0  0  0  0
 20 21  1  0  0  0  0
 22 23  1  0  0  0  0
 24 22  1  0  0  0  0
 25 22  1  0  0  0  0
 25 28  1  0  0  0  0
 25 26  1  0  0  0  0
 27 25  1  0  0  0  0
 28 31  1  0  0  0  0
 29 28  1  0  0  0  0
 30 28  1  0  0  0  0
 32  1  1  0  0  0  0
 33 17  1  0  0  0  0
 33 22  1  0  0  0  0
M  END
