1
q = 0.0, confidence = 0.906

 24 24  0  0  1  0  0  0  0  0999 V2000
    1.2985   -1.7040    0.2031 C   0  0  1  0  0  3  0  0  0  0  0  0
    0.1299   -2.2496    0.8683 C   0  0  0  0  0  3  0  0  0  0  0  0
   -0.0358   -2.2039    1.9492 H   0  0  0  0  0  0  0  0  0  0  0  0
   -0.7749   -2.7563   -0.1022 C   0  0  0  0  0  0  0  0  0  0  0  0
   -1.7521   -3.2125    0.0950 H   0  0  0  0  0  0  0  0  0  0  0  0
   -0.1780   -2.5950   -1.3788 C   0  0  0  0  0  0  0  0  0  0  0  0
   -0.6264   -2.8773   -2.3395 H   0  0  0  0  0  0  0  0  0  0  0  0
    1.0928   -1.9870   -1.2058 C   0  0  0  0  0  3  0  0  0  0  0  0
    1.7404   -1.6668   -2.0237 H   0  0  0  0  0  0  0  0  0  0  0  0
    1.8003   -0.4405    0.6951 C   0  0  0  0  0  3  0  0  0  0  0  0
    1.6150   -0.3056    1.7769 H   0  0  0  0  0  0  0  0  0  0  0  0
    3.1088    0.2498    0.2848 C   0  0  0  0  0  0  0  0  0  0  0  0
    4.1828   -0.1825    1.3131 C   0  0  0  0  0  0  0  0  0  0  0  0
    5.1596    0.2960    1.0887 H   0  0  0  0  0  0  0  0  0  0  0  0
    4.3258   -1.2822    1.2962 H   0  0  0  0  0  0  0  0  0  0  0  0
    3.8916    0.1066    2.3442 H   0  0  0  0  0  0  0  0  0  0  0  0
    2.9315    1.7781    0.3575 C   0  0  0  0  0  0  0  0  0  0  0  0
    3.8916    2.2963    0.1533 H   0  0  0  0  0  0  0  0  0  0  0  0
    2.5876    2.0965    1.3631 H   0  0  0  0  0  0  0  0  0  0  0  0
    2.1856    2.1124   -0.3889 H   0  0  0  0  0  0  0  0  0  0  0  0
    3.6134   -0.1176   -1.1209 C   0  0  0  0  0  0  0  0  0  0  0  0
    4.5675    0.4116   -1.3222 H   0  0  0  0  0  0  0  0  0  0  0  0
    2.8875    0.1839   -1.9006 H   0  0  0  0  0  0  0  0  0  0  0  0
    3.8128   -1.2041   -1.2109 H   0  0  0  0  0  0  0  0  0  0  0  0
  1 10  1  6  0  0  0
  1  2  1  0  0  0  0
  2  3  1  0  0  0  0
  4  5  1  0  0  0  0
  4  2  1  0  0  0  0
  6  8  1  0  0  0  0
  6  4  2  0  0  0  0
  7  6  1  0  0  0  0
  8  1  1  0  0  0  0
  9  8  1  0  0  0  0
 10 11  1  0  0  0  0
 12 17  1  0  0  0  0
 12 10  1  0  0  0  0
 12 13  1  0  0  0  0
 13 16  1  0  0  0  0
 14 13  1  0  0  0  0
 15 13  1  0  0  0  0
 17 19  1  0  0  0  0
 18 17  1  0  0  0  0
 20 17  1  0  0  0  0
 21 12  1  0  0  0  0
 22 21  1  0  0  0  0
 23 21  1  0  0  0  0
 24 21  1  0  0  0  0
M  END
