6
q = 0.0, confidence = 0.96

 37 37  0  0  1  0  0  0  0  0999 V2000
   -0.0012   -1.3148    1.3700 S   0  0  0  0  0  0  0  0  0  0  0  0
   -2.7293   -0.4584    1.3283 N   0  0  0  0  0  0  0  0  0  0  0  0
    2.7116   -0.4183    1.3363 N   0  0  0  0  0  0  0  0  0  0  0  0
   -1.3927   -0.0937    0.9873 B   0  0  0  0  0  0  0  0  0  0  0  0
    1.3693   -0.0666    0.9956 B   0  0  0  0  0  0  0  0  0  0  0  0
   -0.7504    1.0987    0.2263 C   0  0  2  0  0  3  0  0  0  0  0  0
    0.7079    1.1213    0.2431 C   0  0  0  0  0  0  0  0  0  0  0  0
   -1.5584    2.2269   -0.3938 C   0  0  0  0  0  0  0  0  0  0  0  0
   -1.9076    3.3416    0.6040 C   0  0  0  0  0  0  0  0  0  0  0  0
    1.4874    2.2992   -0.3158 C   0  0  0  0  0  0  0  0  0  0  0  0
    1.8913    3.3076    0.7717 C   0  0  0  0  0  0  0  0  0  0  0  0
    3.0577   -1.7325    1.8548 C   0  0  0  0  0  0  0  0  0  0  0  0
    3.8805    0.3030    0.8634 C   0  0  0  0  0  0  0  0  0  0  0  0
   -3.0786   -1.7990    1.7708 C   0  0  0  0  0  0  0  0  0  0  0  0
   -3.8999    0.3209    0.9644 C   0  0  0  0  0  0  0  0  0  0  0  0
   -2.4905    1.8101   -0.8250 H   0  0  0  0  0  0  0  0  0  0  0  0
   -1.0221    2.6737   -1.2559 H   0  0  0  0  0  0  0  0  0  0  0  0
   -2.5615    4.1056    0.1366 H   0  0  0  0  0  0  0  0  0  0  0  0
   -2.4319    2.9435    1.4970 H   0  0  0  0  0  0  0  0  0  0  0  0
   -0.9983    3.8560    0.9709 H   0  0  0  0  0  0  0  0  0  0  0  0
    2.3956    1.9311   -0.8344 H   0  0  0  0  0  0  0  0  0  0  0  0
    0.9053    2.8274   -1.0981 H   0  0  0  0  0  0  0  0  0  0  0  0
    2.4841    4.1413    0.3435 H   0  0  0  0  0  0  0  0  0  0  0  0
    2.4979    2.8305    1.5682 H   0  0  0  0  0  0  0  0  0  0  0  0
    1.0028    3.7440    1.2688 H   0  0  0  0  0  0  0  0  0  0  0  0
    2.1905   -2.2025    2.3551 H   0  0  0  0  0  0  0  0  0  0  0  0
    3.4004   -2.4225    1.0472 H   0  0  0  0  0  0  0  0  0  0  0  0
    3.8821   -1.6504    2.5966 H   0  0  0  0  0  0  0  0  0  0  0  0
    4.3029   -0.1543   -0.0632 H   0  0  0  0  0  0  0  0  0  0  0  0
    4.6821    0.2860    1.6343 H   0  0  0  0  0  0  0  0  0  0  0  0
    3.6460    1.3577    0.6485 H   0  0  0  0  0  0  0  0  0  0  0  0
   -2.1958   -2.3223    2.1830 H   0  0  0  0  0  0  0  0  0  0  0  0
   -3.8578   -1.7567    2.5635 H   0  0  0  0  0  0  0  0  0  0  0  0
   -3.4819   -2.4192    0.9355 H   0  0  0  0  0  0  0  0  0  0  0  0
   -3.6542    1.3891    0.8506 H   0  0  0  0  0  0  0  0  0  0  0  0
   -4.6755    0.2377    1.7572 H   0  0  0  0  0  0  0  0  0  0  0  0
   -4.3620   -0.0359    0.0129 H   0  0  0  0  0  0  0  0  0  0  0  0
  2 14  1  0  0  0  0
  3 12  1  0  0  0  0
  4  2  1  0  0  0  0
  4  1  1  0  0  0  0
  5  3  1  0  0  0  0
  5  1  1  0  0  0  0
  6  8  1  1  0  0  0
  6  7  1  0  0  0  0
  6  4  1  0  0  0  0
  7  5  2  0  0  0  0
  8  9  1  0  0  0  0
  9 20  1  0  0  0  0
  9 19  1  0  0  0  0
 10  7  1  0  0  0  0
 10 11  1  0  0  0  0
 11 25  1  0  0  0  0
 11 24  1  0  0  0  0
 12 26  1  0  0  0  0
 12 28  1  0  0  0  0
 13  3  1  0  0  0  0
 13 30  1  0  0  0  0
 14 32  1  0  0  0  0
 14 33  1  0  0  0  0
 15  2  1  0  0  0  0
 15 36  1  0  0  0  0
 16  8  1  0  0  0  0
 17  8  1  0  0  0  0
 18  9  1  0  0  0  0
 21 10  1  0  0  0  0
 22 10  1  0  0  0  0
 23 11  1  0  0  0  0
 27 12  1  0  0  0  0
 29 13  1  0  0  0  0
 31 13  1  0  0  0  0
 34 14  1  0  0  0  0
 35 15  1  0  0  0  0
 37 15  1  0  0  0  0
M  END
