7
q = 0.0, confidence = 0.986

 22 24  0  0  0  0  0  0  0  0999 V2000
    2.3940   -0.8922    0.1940 N   0  0  0  0  0  0  0  0  0  0  0  0
    0.6328   -0.1702   -1.0542 C   0  0  0  0  0  0  0  0  0  0  0  0
   -0.3384    0.5265   -1.8482 C   0  0  0  0  0  0  0  0  0  0  0  0
   -0.1174    1.5211   -2.2592 H   0  0  0  0  0  0  0  0  0  0  0  0
   -1.5680   -0.1118   -2.1398 C   0  0  0  0  0  0  0  0  0  0  0  0
   -2.3150    0.3990   -2.7619 H   0  0  0  0  0  0  0  0  0  0  0  0
   -1.8986   -1.3647   -1.5233 C   0  0  0  0  0  3  0  0  0  0  0  0
   -2.8981   -1.7921   -1.6837 H   0  0  0  0  0  0  0  0  0  0  0  0
   -1.0007   -2.0098   -0.6392 C   0  0  0  0  0  3  0  0  0  0  0  0
   -1.2945   -2.9368   -0.1292 H   0  0  0  0  0  0  0  0  0  0  0  0
    0.3221   -1.4677   -0.4696 C   0  0  0  0  0  0  0  0  0  0  0  0
    1.4385   -1.8765    0.2871 C   0  0  0  0  0  0  0  0  0  0  0  0
    1.5979   -2.7665    0.9019 H   0  0  0  0  0  0  0  0  0  0  0  0
    3.6400   -0.8463    0.7841 C   0  0  0  0  0  0  0  0  0  0  0  0
    3.9098   -1.7102    1.4059 H   0  0  0  0  0  0  0  0  0  0  0  0
    4.4625    0.2433    0.5803 C   0  0  0  0  0  0  0  0  0  0  0  0
    5.4488    0.2513    1.0646 H   0  0  0  0  0  0  0  0  0  0  0  0
    4.0426    1.3317   -0.2319 C   0  0  0  0  0  0  0  0  0  0  0  0
    4.7019    2.1971   -0.3832 H   0  0  0  0  0  0  0  0  0  0  0  0
    2.7835    1.2878   -0.8231 C   0  0  0  0  0  0  0  0  0  0  0  0
    2.4149    2.1126   -1.4489 H   0  0  0  0  0  0  0  0  0  0  0  0
    1.9431    0.1814   -0.6117 C   0  0  0  0  0  0  0  0  0  0  0  0
  1 12  1  0  0  0  0
  1 14  1  0  0  0  0
  2 22  2  0  0  0  0
  2 11  1  0  0  0  0
  3  2  1  0  0  0  0
  4  3  1  0  0  0  0
  5  3  2  0  0  0  0
  5  7  1  0  0  0  0
  6  5  1  0  0  0  0
  7  9  1  0  0  0  0
  8  7  1  0  0  0  0
  9 11  1  0  0  0  0
  9 10  1  0  0  0  0
 11 12  2  0  0  0  0
 12 13  1  0  0  0  0
 14 15  1  0  0  0  0
 16 14  2  0  0  0  0
 16 17  1  0  0  0  0
 18 16  1  0  0  0  0
 19 18  1  0  0  0  0
 20 22  1  0  0  0  0
 20 18  2  0  0  0  0
 21 20  1  0  0  0  0
 22  1  1  0  0  0  0
M  END
