5
q = 0.0, confidence = 0.98

 33 33  0  0  0  0  0  0  0  0999 V2000
    1.8792    1.2618   -0.1062 P   0  0  0  0  0  0  0  0  0  0  0  0
    2.0814    1.2987   -1.6051 O   0  0  0  0  0  0  0  0  0  0  0  0
    2.2315    2.6860    0.6419 O   0  0  0  0  0  0  0  0  0  0  0  0
    2.8545    0.2585    0.7346 O   0  0  0  0  0  0  0  0  0  0  0  0
    0.2416    0.8045    0.4692 C   0  0  0  0  0  3  0  0  0  0  0  0
    0.0889    1.1281    1.5118 H   0  0  0  0  0  0  0  0  0  0  0  0
   -0.8637    0.8959   -0.4558 C   0  0  0  0  0  3  0  0  0  0  0  0
   -0.5640    1.0121   -1.5128 H   0  0  0  0  0  0  0  0  0  0  0  0
   -2.1716    1.5233   -0.1487 C   0  0  0  0  0  0  0  0  0  0  0  0
   -3.0392    1.8528   -1.2135 C   0  0  0  0  0  0  0  0  0  0  0  0
   -2.7247    1.6312   -2.2460 H   0  0  0  0  0  0  0  0  0  0  0  0
   -4.2830    2.4531   -0.9749 C   0  0  0  0  0  0  0  0  0  0  0  0
   -4.9415    2.7011   -1.8215 H   0  0  0  0  0  0  0  0  0  0  0  0
   -4.6863    2.7397    0.3385 C   0  0  0  0  0  0  0  0  0  0  0  0
   -5.6623    3.2103    0.5300 H   0  0  0  0  0  0  0  0  0  0  0  0
   -3.8326    2.4188    1.4076 C   0  0  0  0  0  0  0  0  0  0  0  0
   -4.1396    2.6371    2.4418 H   0  0  0  0  0  0  0  0  0  0  0  0
   -2.5907    1.8191    1.1677 C   0  0  0  0  0  0  0  0  0  0  0  0
   -1.9402    1.5631    2.0179 H   0  0  0  0  0  0  0  0  0  0  0  0
    4.2833    0.4278    0.6086 C   0  0  0  0  0  0  0  0  0  0  0  0
    4.6029    1.2436    1.2923 H   0  0  0  0  0  0  0  0  0  0  0  0
    4.5262    0.7395   -0.4308 H   0  0  0  0  0  0  0  0  0  0  0  0
    4.9557   -0.8844    0.9591 C   0  0  0  0  0  0  0  0  0  0  0  0
    6.0578   -0.7710    0.9275 H   0  0  0  0  0  0  0  0  0  0  0  0
    4.6697   -1.6809    0.2431 H   0  0  0  0  0  0  0  0  0  0  0  0
    4.6673   -1.2123    1.9775 H   0  0  0  0  0  0  0  0  0  0  0  0
    1.8052    3.9182    0.0190 C   0  0  0  0  0  0  0  0  0  0  0  0
    1.6741    4.6368    0.8539 H   0  0  0  0  0  0  0  0  0  0  0  0
    0.8086    3.7801   -0.4573 H   0  0  0  0  0  0  0  0  0  0  0  0
    2.8234    4.4175   -0.9922 C   0  0  0  0  0  0  0  0  0  0  0  0
    2.5052    5.3948   -1.4092 H   0  0  0  0  0  0  0  0  0  0  0  0
    2.9207    3.6886   -1.8199 H   0  0  0  0  0  0  0  0  0  0  0  0
    3.8147    4.5502   -0.5141 H   0  0  0  0  0  0  0  0  0  0  0  0
  1  5  1  0  0  0  0
  1  3  1  0  0  0  0
  1  4  1  0  0  0  0
  2  1  2  0  0  0  0
  5  6  1  0  0  0  0
  7  9  1  0  0  0  0
  7  5  1  0  0  0  0
  8  7  1  0  0  0  0
  9 18  1  0  0  0  0
 10 12  1  0  0  0  0
 10  9  2  0  0  0  0
 11 10  1  0  0  0  0
 12 14  2  0  0  0  0
 13 12  1  0  0  0  0
 14 15  1  0  0  0  0
 14 16  1  0  0  0  0
 16 17  1  0  0  0  0
 18 16  2  0  0  0  0
 18 19  1  0  0  0  0
 20  4  1  0  0  0  0
 20 23  1  0  0  0  0
 20 21  1  0  0  0  0
 22 20  1  0  0  0  0
 23 26  1  0  0  0  0
 24 23  1  0  0  0  0
 25 23  1  0  0  0  0
 27  3  1  0  0  0  0
 27 28  1  0  0  0  0
 29 27  1  0  0  0  0
 30 33  1  0  0  0  0
 30 27  1  0  0  0  0
 31 30  1  0  0  0  0
 32 30  1  0  0  0  0
M  END
