5
q = 0.0, confidence = 0.996

 39 39  0  0  0  0  0  0  0  0999 V2000
    1.3748    1.0369    0.1006 P   0  0  0  0  0  4  0  0  0  0  0  0
    2.2463    0.5765    1.3879 O   0  0  0  0  0  0  0  0  0  0  0  0
    2.3169    0.6122   -1.1372 O   0  0  0  0  0  0  0  0  0  0  0  0
    1.4388    2.6737    0.0985 O   0  0  0  0  0  0  0  0  0  0  0  0
   -0.2835    0.4807    0.0672 C   0  0  0  0  0  3  0  0  0  0  0  0
   -1.1962    1.5180    0.0295 C   0  0  0  0  0  0  0  0  0  0  0  0
   -0.8163    2.5526   -0.0637 H   0  0  0  0  0  0  0  0  0  0  0  0
   -2.6607    1.4615    0.0512 C   0  0  0  0  0  0  0  0  0  0  0  0
   -3.4012    0.4073    0.6406 C   0  0  0  0  0  0  0  0  0  0  0  0
   -2.8607   -0.4133    1.1261 H   0  0  0  0  0  0  0  0  0  0  0  0
   -4.8006    0.4280    0.6431 C   0  0  0  0  0  0  0  0  0  0  0  0
   -5.3536   -0.3957    1.1208 H   0  0  0  0  0  0  0  0  0  0  0  0
   -5.5015    1.4933    0.0511 C   0  0  0  0  0  0  0  0  0  0  0  0
   -6.6021    1.5007    0.0482 H   0  0  0  0  0  0  0  0  0  0  0  0
   -4.7845    2.5572   -0.5208 C   0  0  0  0  0  0  0  0  0  0  0  0
   -5.3215    3.4045   -0.9745 H   0  0  0  0  0  0  0  0  0  0  0  0
   -3.3846    2.5466   -0.5074 C   0  0  0  0  0  0  0  0  0  0  0  0
   -2.8253    3.3877   -0.9479 H   0  0  0  0  0  0  0  0  0  0  0  0
    1.6326    0.5081    2.7070 C   0  0  0  0  0  0  0  0  0  0  0  0
    0.5881    0.1496    2.6012 H   0  0  0  0  0  0  0  0  0  0  0  0
    1.6064    1.5378    3.1242 H   0  0  0  0  0  0  0  0  0  0  0  0
    2.4534   -0.4318    3.5625 C   0  0  0  0  0  0  0  0  0  0  0  0
    2.0102   -0.4926    4.5763 H   0  0  0  0  0  0  0  0  0  0  0  0
    3.4982   -0.0747    3.6591 H   0  0  0  0  0  0  0  0  0  0  0  0
    2.4655   -1.4456    3.1192 H   0  0  0  0  0  0  0  0  0  0  0  0
    3.5710   -0.1249   -1.0680 C   0  0  0  0  0  0  0  0  0  0  0  0
    3.6407   -0.6366   -0.0904 H   0  0  0  0  0  0  0  0  0  0  0  0
    4.3875    0.6259   -1.1400 H   0  0  0  0  0  0  0  0  0  0  0  0
    3.6268   -1.1122   -2.2132 C   0  0  0  0  0  0  0  0  0  0  0  0
    4.6095   -1.6250   -2.2109 H   0  0  0  0  0  0  0  0  0  0  0  0
    3.5015   -0.6042   -3.1901 H   0  0  0  0  0  0  0  0  0  0  0  0
    2.8380   -1.8801   -2.1044 H   0  0  0  0  0  0  0  0  0  0  0  0
    2.7040    3.3692    0.0198 C   0  0  0  0  0  0  0  0  0  0  0  0
    3.5156    2.7167    0.4091 H   0  0  0  0  0  0  0  0  0  0  0  0
    2.6150    4.2301    0.7141 H   0  0  0  0  0  0  0  0  0  0  0  0
    2.9850    3.8320   -1.3984 C   0  0  0  0  0  0  0  0  0  0  0  0
    3.9327    4.4068   -1.4337 H   0  0  0  0  0  0  0  0  0  0  0  0
    2.1689    4.4857   -1.7647 H   0  0  0  0  0  0  0  0  0  0  0  0
    3.0694    2.9655   -2.0826 H   0  0  0  0  0  0  0  0  0  0  0  0
  1  2  1  0  0  0  0
  2 19  1  0  0  0  0
  3 26  1  0  0  0  0
  3  1  1  0  0  0  0
  4  1  1  0  0  0  0
  5  1  1  0  0  0  0
  6  8  1  0  0  0  0
  6  5  2  0  0  0  0
  7  6  1  0  0  0  0
  8  9  1  0  0  0  0
  9 11  2  0  0  0  0
  9 10  1  0  0  0  0
 11 12  1  0  0  0  0
 13 11  1  0  0  0  0
 14 13  1  0  0  0  0
 15 17  1  0  0  0  0
 15 13  2  0  0  0  0
 16 15  1  0  0  0  0
 17  8  2  0  0  0  0
 18 17  1  0  0  0  0
 19 21  1  0  0  0  0
 19 22  1  0  0  0  0
 20 19  1  0  0  0  0
 22 24  1  0  0  0  0
 22 23  1  0  0  0  0
 25 22  1  0  0  0  0
 26 27  1  0  0  0  0
 28 26  1  0  0  0  0
 29 30  1  0  0  0  0
 29 32  1  0  0  0  0
 29 26  1  0  0  0  0
 31 29  1  0  0  0  0
 33  4  1  0  0  0  0
 33 34  1  0  0  0  0
 33 35  1  0  0  0  0
 36 33  1  0  0  0  0
 37 36  1  0  0  0  0
 38 36  1  0  0  0  0
 39 36  1  0  0  0  0
M  END
