41
q = 0.0, confidence = 1.0

 56 58  0  0  1  0  0  0  0  0999 V2000
   -1.2005    0.0599    0.5593 P   0  0  0  0  0  0  0  0  0  0  0  0
    1.8448    1.4719    0.5384 N   0  0  0  0  0  0  0  0  0  0  0  0
   -1.9610    1.7389    0.4944 C   0  0  0  0  0  0  0  0  0  0  0  0
   -1.4840    2.6747   -0.4425 C   0  0  0  0  0  0  0  0  0  0  0  0
   -0.6650    2.3738   -1.1143 H   0  0  0  0  0  0  0  0  0  0  0  0
   -2.0346    3.9644   -0.5017 C   0  0  0  0  0  0  0  0  0  0  0  0
   -1.6581    4.6902   -1.2385 H   0  0  0  0  0  0  0  0  0  0  0  0
   -3.0653    4.3258    0.3799 C   0  0  0  0  0  0  0  0  0  0  0  0
   -3.4980    5.3365    0.3373 H   0  0  0  0  0  0  0  0  0  0  0  0
   -3.5489    3.3945    1.3152 C   0  0  0  0  0  0  0  0  0  0  0  0
   -4.3598    3.6759    2.0037 H   0  0  0  0  0  0  0  0  0  0  0  0
   -3.0039    2.1039    1.3719 C   0  0  0  0  0  0  0  0  0  0  0  0
   -3.4017    1.3758    2.0958 H   0  0  0  0  0  0  0  0  0  0  0  0
   -2.6486   -1.0435    0.2978 C   0  0  0  0  0  0  0  0  0  0  0  0
   -3.7550   -0.6476   -0.4814 C   0  0  0  0  0  0  0  0  0  0  0  0
   -3.7971    0.3667   -0.9056 H   0  0  0  0  0  0  0  0  0  0  0  0
   -4.8166   -1.5400   -0.6980 C   0  0  0  0  0  0  0  0  0  0  0  0
   -5.6780   -1.2251   -1.3058 H   0  0  0  0  0  0  0  0  0  0  0  0
   -4.7867   -2.8244   -0.1311 C   0  0  0  0  0  0  0  0  0  0  0  0
   -5.6230   -3.5195   -0.2982 H   0  0  0  0  0  0  0  0  0  0  0  0
   -3.6950   -3.2148    0.6620 C   0  0  0  0  0  0  0  0  0  0  0  0
   -3.6759   -4.2152    1.1198 H   0  0  0  0  0  0  0  0  0  0  0  0
   -2.6280   -2.3306    0.8739 C   0  0  0  0  0  0  0  0  0  0  0  0
   -1.7705   -2.6371    1.4931 H   0  0  0  0  0  0  0  0  0  0  0  0
   -0.8140   -0.2155    2.3126 C   0  0  0  0  0  0  0  0  0  0  0  0
   -1.5528   -0.0329    3.1103 H   0  0  0  0  0  0  0  0  0  0  0  0
    0.4622   -0.5793    2.5701 C   0  0  0  0  0  0  0  0  0  0  0  0
    0.9944   -0.7922    3.9690 C   0  0  0  0  0  0  0  0  0  0  0  0
    0.1835   -0.6610    4.7122 H   0  0  0  0  0  0  0  0  0  0  0  0
    1.7475    0.0053    4.1667 H   0  0  0  0  0  0  0  0  0  0  0  0
    1.6825   -2.1586    4.1257 C   0  0  0  0  0  0  0  0  0  0  0  0
    2.1320   -2.2385    5.1361 H   0  0  0  0  0  0  0  0  0  0  0  0
    0.9170   -2.9618    4.0541 H   0  0  0  0  0  0  0  0  0  0  0  0
    2.7368   -2.3570    3.0372 C   0  0  0  0  0  0  0  0  0  0  0  0
    3.2081   -3.3573    3.1274 H   0  0  0  0  0  0  0  0  0  0  0  0
    3.5525   -1.6111    3.1662 H   0  0  0  0  0  0  0  0  0  0  0  0
    2.1231   -2.1977    1.6373 C   0  0  0  0  0  0  0  0  0  0  0  0
    2.8975   -2.3386    0.8602 H   0  0  0  0  0  0  0  0  0  0  0  0
    1.3673   -2.9967    1.4785 H   0  0  0  0  0  0  0  0  0  0  0  0
    1.4411   -0.8408    1.4464 C   0  0  2  0  0  3  0  0  0  0  0  0
    2.2782    0.1457    0.8142 C   0  0  0  0  0  3  0  0  0  0  0  0
    3.3215   -0.0941    0.5439 H   0  0  0  0  0  0  0  0  0  0  0  0
    2.8434    2.2334   -0.2688 C   0  0  0  0  0  0  0  0  0  0  0  0
    3.1582    1.5621   -1.0858 H   0  0  0  0  0  0  0  0  0  0  0  0
    3.7405    2.4160    0.3629 H   0  0  0  0  0  0  0  0  0  0  0  0
    2.3243    3.5483   -0.8289 C   0  0  0  0  0  0  0  0  0  0  0  0
    3.0668    3.9573   -1.5416 H   0  0  0  0  0  0  0  0  0  0  0  0
    2.1693    4.3156   -0.0464 H   0  0  0  0  0  0  0  0  0  0  0  0
    1.3713    3.4098   -1.3732 H   0  0  0  0  0  0  0  0  0  0  0  0
    1.2594    2.3058    1.6270 C   0  0  0  0  0  0  0  0  0  0  0  0
    0.4877    1.7091    2.1321 H   0  0  0  0  0  0  0  0  0  0  0  0
    0.7313    3.1490    1.1456 H   0  0  0  0  0  0  0  0  0  0  0  0
    2.2910    2.7937    2.6409 C   0  0  0  0  0  0  0  0  0  0  0  0
    1.7690    3.2980    3.4777 H   0  0  0  0  0  0  0  0  0  0  0  0
    3.0103    3.5223    2.2177 H   0  0  0  0  0  0  0  0  0  0  0  0
    2.8674    1.9473    3.0675 H   0  0  0  0  0  0  0  0  0  0  0  0
  1 25  1  0  0  0  0
  2 41  1  0  0  0  0
  2 50  1  0  0  0  0
  3  1  1  0  0  0  0
  3 12  1  0  0  0  0
  4  3  2  0  0  0  0
  5  4  1  0  0  0  0
  6  4  1  0  0  0  0
  6  8  2  0  0  0  0
  7  6  1  0  0  0  0
  8 10  1  0  0  0  0
  9  8  1  0  0  0  0
 10 12  2  0  0  0  0
 10 11  1  0  0  0  0
 12 13  1  0  0  0  0
 14  1  1  0  0  0  0
 14 23  1  0  0  0  0
 15 14  2  0  0  0  0
 16 15  1  0  0  0  0
 17 15  1  0  0  0  0
 17 19  2  0  0  0  0
 18 17  1  0  0  0  0
 19 21  1  0  0  0  0
 20 19  1  0  0  0  0
 21 23  2  0  0  0  0
 21 22  1  0  0  0  0
 23 24  1  0  0  0  0
 25 27  2  0  0  0  0
 25 26  1  0  0  0  0
 27 28  1  0  0  0  0
 28 31  1  0  0  0  0
 28 30  1  0  0  0  0
 28 29  1  0  0  0  0
 31 32  1  0  0  0  0
 33 31  1  0  0  0  0
 34 35  1  0  0  0  0
 34 36  1  0  0  0  0
 34 31  1  0  0  0  0
 37 34  1  0  0  0  0
 38 37  1  0  0  0  0
 39 37  1  0  0  0  0
 40 41  1  1  0  0  0
 40 37  1  0  0  0  0
 40 27  1  0  0  0  0
 42 41  1  0  0  0  0
 43 45  1  0  0  0  0
 43  2  1  0  0  0  0
 44 43  1  0  0  0  0
 46 43  1  0  0  0  0
 46 48  1  0  0  0  0
 47 46  1  0  0  0  0
 49 46  1  0  0  0  0
 50 51  1  0  0  0  0
 50 53  1  0  0  0  0
 52 50  1  0  0  0  0
 53 56  1  0  0  0  0
 53 54  1  0  0  0  0
 55 53  1  0  0  0  0
M  END
