19
q = 0.0, confidence = 0.954

 24 24  0  0  1  0  0  0  0  0999 V2000
    1.4561   -1.5064   -1.2105 B   0  0  0  0  0  0  0  0  0  0  0  0
    2.4645    0.6124    0.5362 B   0  0  0  0  0  0  0  0  0  0  0  0
    1.1928   -2.5444   -2.0635 F   0  0  0  0  0  0  0  0  0  0  0  0
    3.1822    1.4921    1.3001 F   0  0  0  0  0  0  0  0  0  0  0  0
    1.4968   -3.1879    0.8421 C   0  0  0  0  0  0  0  0  0  0  0  0
    2.5168   -3.4983    1.1587 H   0  0  0  0  0  0  0  0  0  0  0  0
    1.1586   -3.8983    0.0674 H   0  0  0  0  0  0  0  0  0  0  0  0
    0.8451   -3.2879    1.7299 H   0  0  0  0  0  0  0  0  0  0  0  0
    1.5872   -1.7807    0.3126 C   0  0  0  0  0  0  0  0  0  0  0  0
    1.9672   -0.7156    1.1679 C   0  0  1  0  0  3  0  0  0  0  0  0
    2.1196   -0.9267    2.6531 C   0  0  0  0  0  0  0  0  0  0  0  0
    3.0831   -1.4445    2.8544 H   0  0  0  0  0  0  0  0  0  0  0  0
    1.3188   -1.5625    3.0780 H   0  0  0  0  0  0  0  0  0  0  0  0
    2.1502    0.0339    3.2006 H   0  0  0  0  0  0  0  0  0  0  0  0
    1.3708    0.1503   -3.2605 C   0  0  0  0  0  0  0  0  0  0  0  0
    2.3550    0.1508   -3.7768 H   0  0  0  0  0  0  0  0  0  0  0  0
    0.8864    1.1184   -3.4937 H   0  0  0  0  0  0  0  0  0  0  0  0
    0.7689   -0.6581   -3.7138 H   0  0  0  0  0  0  0  0  0  0  0  0
    1.5858   -0.0841   -1.7808 C   0  0  2  0  0  3  0  0  0  0  0  0
    2.1683    0.9259   -0.9469 C   0  0  0  0  0  0  0  0  0  0  0  0
    2.6061    2.2578   -1.5055 C   0  0  0  0  0  0  0  0  0  0  0  0
    3.6185    2.1273   -1.9463 H   0  0  0  0  0  0  0  0  0  0  0  0
    2.7005    3.0215   -0.7105 H   0  0  0  0  0  0  0  0  0  0  0  0
    1.9532    2.6513   -2.3069 H   0  0  0  0  0  0  0  0  0  0  0  0
  1  9  2  0  0  0  0
  2 10  1  0  0  0  0
  2  4  1  0  0  0  0
  3  1  1  0  0  0  0
  5  6  1  0  0  0  0
  5  8  1  0  0  0  0
  7  5  1  0  0  0  0
  9  5  1  0  0  0  0
  9 10  1  0  0  0  0
 10 11  1  1  0  0  0
 11 12  1  0  0  0  0
 11 13  1  0  0  0  0
 11 14  1  0  0  0  0
 16 15  1  0  0  0  0
 17 15  1  0  0  0  0
 18 15  1  0  0  0  0
 19 15  1  6  0  0  0
 19  1  1  0  0  0  0
 19 20  1  0  0  0  0
 20  2  2  0  0  0  0
 21 20  1  0  0  0  0
 21 23  1  0  0  0  0
 22 21  1  0  0  0  0
 24 21  1  0  0  0  0
M  END
