3
q = 0.0, confidence = 0.732

 32 33  0  0  0  0  0  0  0  0999 V2000
    0.6824    2.7658    0.8817 S   0  0  0  0  0  0  0  0  0  0  0  0
   -3.0365    1.9179    1.1304 S   0  0  0  0  0  0  0  0  0  0  0  0
   -0.2824    1.3591    0.7077 C   0  0  0  0  0  3  0  0  0  0  0  0
   -1.6043    1.0773    0.7918 C   0  0  0  0  0  3  0  0  0  0  0  0
    2.4227    2.1354    0.6654 C   0  0  0  0  0  0  0  0  0  0  0  0
    2.7757    1.7661    1.6475 H   0  0  0  0  0  0  0  0  0  0  0  0
    2.3626    1.2848   -0.0356 H   0  0  0  0  0  0  0  0  0  0  0  0
    3.2943    3.2423    0.1438 C   0  0  0  0  0  0  0  0  0  0  0  0
    3.4961    3.4060   -1.2423 C   0  0  0  0  0  0  0  0  0  0  0  0
    3.0289    2.6916   -1.9384 H   0  0  0  0  0  0  0  0  0  0  0  0
    4.2890    4.4547   -1.7286 C   0  0  0  0  0  0  0  0  0  0  0  0
    4.4437    4.5660   -2.8128 H   0  0  0  0  0  0  0  0  0  0  0  0
    4.8857    5.3612   -0.8368 C   0  0  0  0  0  0  0  0  0  0  0  0
    5.5073    6.1852   -1.2190 H   0  0  0  0  0  0  0  0  0  0  0  0
    4.6873    5.2102    0.5446 C   0  0  0  0  0  0  0  0  0  0  0  0
    5.1530    5.9159    1.2495 H   0  0  0  0  0  0  0  0  0  0  0  0
    3.8970    4.1578    1.0302 C   0  0  0  0  0  0  0  0  0  0  0  0
    3.7432    4.0397    2.1147 H   0  0  0  0  0  0  0  0  0  0  0  0
   -4.3467    0.5982    1.0285 C   0  0  0  0  0  0  0  0  0  0  0  0
   -3.8341   -0.2900    0.6143 H   0  0  0  0  0  0  0  0  0  0  0  0
   -4.6686    0.3799    2.0644 H   0  0  0  0  0  0  0  0  0  0  0  0
   -5.4946    1.0502    0.1689 C   0  0  0  0  0  0  0  0  0  0  0  0
   -5.3845    1.0212   -1.2378 C   0  0  0  0  0  0  0  0  0  0  0  0
   -4.4520    0.6498   -1.6912 H   0  0  0  0  0  0  0  0  0  0  0  0
   -6.4476    1.4521   -2.0420 C   0  0  0  0  0  0  0  0  0  0  0  0
   -6.3517    1.4166   -3.1382 H   0  0  0  0  0  0  0  0  0  0  0  0
   -7.6335    1.9264   -1.4552 C   0  0  0  0  0  0  0  0  0  0  0  0
   -8.4669    2.2662   -2.0889 H   0  0  0  0  0  0  0  0  0  0  0  0
   -7.7506    1.9631   -0.0576 C   0  0  0  0  0  0  0  0  0  0  0  0
   -8.6766    2.3314    0.4101 H   0  0  0  0  0  0  0  0  0  0  0  0
   -6.6866    1.5279    0.7480 C   0  0  0  0  0  0  0  0  0  0  0  0
   -6.7815    1.5534    1.8455 H   0  0  0  0  0  0  0  0  0  0  0  0
  3  4  2  0  0  0  0
  3  1  1  0  0  0  0
  4  2  1  0  0  0  0
  5  1  1  0  0  0  0
  5  6  1  0  0  0  0
  7  5  1  0  0  0  0
  8  5  1  0  0  0  0
  8 17  1  0  0  0  0
  9  8  2  0  0  0  0
 10  9  1  0  0  0  0
 11  9  1  0  0  0  0
 11 13  2  0  0  0  0
 12 11  1  0  0  0  0
 13 15  1  0  0  0  0
 14 13  1  0  0  0  0
 15 17  2  0  0  0  0
 15 16  1  0  0  0  0
 17 18  1  0  0  0  0
 19  2  1  0  0  0  0
 19 21  1  0  0  0  0
 20 19  1  0  0  0  0
 22 31  1  0  0  0  0
 22 19  1  0  0  0  0
 23 22  2  0  0  0  0
 24 23  1  0  0  0  0
 25 27  2  0  0  0  0
 25 23  1  0  0  0  0
 26 25  1  0  0  0  0
 27 29  1  0  0  0  0
 28 27  1  0  0  0  0
 29 30  1  0  0  0  0
 29 31  2  0  0  0  0
 31 32  1  0  0  0  0
M  END
