9
q = 0.0, confidence = 0.98

 16 16  0  0  0  0  0  0  0  0999 V2000
    0.9573   -1.7093   -0.6974 C   0  0  0  0  0  0  0  0  0  0  0  0
    0.0964   -2.1770   -1.2071 H   0  0  0  0  0  0  0  0  0  0  0  0
    0.9573   -1.7079    0.7001 C   0  0  0  0  0  0  0  0  0  0  0  0
    0.0963   -2.1745    1.2107 H   0  0  0  0  0  0  0  0  0  0  0  0
    2.1595   -1.4078    1.5187 C   0  0  0  0  0  0  0  0  0  0  0  0
    2.5600   -2.2134    2.1576 H   0  0  0  0  0  0  0  0  0  0  0  0
    2.7190   -0.1791    1.5298 C   0  0  0  0  0  0  0  0  0  0  0  0
    3.5872    0.0405    2.1743 H   0  0  0  0  0  0  0  0  0  0  0  0
    2.1646    0.9348    0.7162 C   0  0  0  0  0  3  0  0  0  0  0  0
    2.1190    1.9206    1.2136 H   0  0  0  0  0  0  0  0  0  0  0  0
    2.1646    0.9333   -0.7182 C   0  0  0  0  0  3  0  0  0  0  0  0
    2.1189    1.9181   -1.2176 H   0  0  0  0  0  0  0  0  0  0  0  0
    2.7190   -0.1821   -1.5297 C   0  0  0  0  0  0  0  0  0  0  0  0
    3.5873    0.0364   -2.1745 H   0  0  0  0  0  0  0  0  0  0  0  0
    2.1595   -1.4107   -1.5166 C   0  0  0  0  0  0  0  0  0  0  0  0
    2.5600   -2.2174   -2.1540 H   0  0  0  0  0  0  0  0  0  0  0  0
  1  3  2  0  0  0  0
  2  1  1  0  0  0  0
  3  4  1  0  0  0  0
  3  5  1  0  0  0  0
  5  7  2  0  0  0  0
  5  6  1  0  0  0  0
  7  8  1  0  0  0  0
  9 10  1  0  0  0  0
  9  7  1  0  0  0  0
 11  9  1  0  0  0  0
 12 11  1  0  0  0  0
 13 15  2  0  0  0  0
 13 11  1  0  0  0  0
 14 13  1  0  0  0  0
 15  1  1  0  0  0  0
 16 15  1  0  0  0  0
M  END
