3
q = 0.0, confidence = 0.954

 43 42  0  0  0  0  0  0  0  0999 V2000
    1.7719   -0.6010   -0.0151 N   0  0  0  0  0  0  0  0  0  0  0  0
    0.1410    1.2399    0.0745 N   0  0  0  0  0  0  0  0  0  0  0  0
    0.5170   -0.1533    0.0128 C   0  0  0  0  0  2  0  0  0  0  0  0
    2.9808    0.2566    0.0667 C   0  0  0  0  0  0  0  0  0  0  0  0
    3.9123   -0.1464    1.2165 C   0  0  0  0  0  0  0  0  0  0  0  0
    3.7148    0.3072   -1.2784 C   0  0  0  0  0  0  0  0  0  0  0  0
    2.0096   -2.0698   -0.1669 C   0  0  0  0  0  0  0  0  0  0  0  0
    1.5082   -2.8457    1.0527 C   0  0  0  0  0  0  0  0  0  0  0  0
    1.4634   -2.6077   -1.4915 C   0  0  0  0  0  0  0  0  0  0  0  0
    0.3101    2.0305   -1.2175 C   0  0  0  0  0  0  0  0  0  0  0  0
    1.3995    3.1144   -1.1953 C   0  0  0  0  0  0  0  0  0  0  0  0
   -0.9949    2.6542   -1.7267 C   0  0  0  0  0  0  0  0  0  0  0  0
    0.3504    2.0277    1.3419 C   0  0  0  0  0  0  0  0  0  0  0  0
    0.6108    1.1725    2.5840 C   0  0  0  0  0  0  0  0  0  0  0  0
   -0.8213    2.9767    1.6007 C   0  0  0  0  0  0  0  0  0  0  0  0
    2.5984    1.2669    0.2947 H   0  0  0  0  0  0  0  0  0  0  0  0
    3.3745   -0.1836    2.1832 H   0  0  0  0  0  0  0  0  0  0  0  0
    4.7253    0.6009    1.3078 H   0  0  0  0  0  0  0  0  0  0  0  0
    4.3903   -1.1317    1.0470 H   0  0  0  0  0  0  0  0  0  0  0  0
    3.0381    0.6291   -2.0937 H   0  0  0  0  0  0  0  0  0  0  0  0
    4.1334   -0.6827   -1.5510 H   0  0  0  0  0  0  0  0  0  0  0  0
    4.5600    1.0224   -1.2260 H   0  0  0  0  0  0  0  0  0  0  0  0
    3.1127   -2.1702   -0.2019 H   0  0  0  0  0  0  0  0  0  0  0  0
    1.9653   -2.4639    1.9871 H   0  0  0  0  0  0  0  0  0  0  0  0
    1.7720   -3.9170    0.9516 H   0  0  0  0  0  0  0  0  0  0  0  0
    0.4099   -2.7653    1.1449 H   0  0  0  0  0  0  0  0  0  0  0  0
    1.8052   -1.9912   -2.3461 H   0  0  0  0  0  0  0  0  0  0  0  0
    0.3596   -2.6244   -1.4968 H   0  0  0  0  0  0  0  0  0  0  0  0
    1.8246   -3.6438   -1.6457 H   0  0  0  0  0  0  0  0  0  0  0  0
    0.6103    1.2551   -1.9521 H   0  0  0  0  0  0  0  0  0  0  0  0
    2.3932    2.7530   -0.8728 H   0  0  0  0  0  0  0  0  0  0  0  0
    1.1177    3.9752   -0.5567 H   0  0  0  0  0  0  0  0  0  0  0  0
    1.5171    3.5060   -2.2250 H   0  0  0  0  0  0  0  0  0  0  0  0
   -1.8211    1.9234   -1.7146 H   0  0  0  0  0  0  0  0  0  0  0  0
   -0.8504    2.9977   -2.7707 H   0  0  0  0  0  0  0  0  0  0  0  0
   -1.3003    3.5316   -1.1257 H   0  0  0  0  0  0  0  0  0  0  0  0
    1.2649    2.6425    1.1837 H   0  0  0  0  0  0  0  0  0  0  0  0
    1.3140    0.3405    2.4006 H   0  0  0  0  0  0  0  0  0  0  0  0
   -0.3184    0.7406    2.9938 H   0  0  0  0  0  0  0  0  0  0  0  0
    1.0504    1.8235    3.3655 H   0  0  0  0  0  0  0  0  0  0  0  0
   -0.9189    3.7593    0.8263 H   0  0  0  0  0  0  0  0  0  0  0  0
   -0.6830    3.4860    2.5751 H   0  0  0  0  0  0  0  0  0  0  0  0
   -1.7680    2.4015    1.6336 H   0  0  0  0  0  0  0  0  0  0  0  0
  1  3  1  0  0  0  0
  1  4  1  0  0  0  0
  2 13  1  0  0  0  0
  3  2  1  0  0  0  0
  4 16  1  0  0  0  0
  4  5  1  0  0  0  0
  5 18  1  0  0  0  0
  5 17  1  0  0  0  0
  6 22  1  0  0  0  0
  6  4  1  0  0  0  0
  7  1  1  0  0  0  0
  7  8  1  0  0  0  0
  8 26  1  0  0  0  0
  8 24  1  0  0  0  0
  9  7  1  0  0  0  0
 10 11  1  0  0  0  0
 10  2  1  0  0  0  0
 11 31  1  0  0  0  0
 11 32  1  0  0  0  0
 12 34  1  0  0  0  0
 12 10  1  0  0  0  0
 12 36  1  0  0  0  0
 13 15  1  0  0  0  0
 13 14  1  0  0  0  0
 14 39  1  0  0  0  0
 14 40  1  0  0  0  0
 15 43  1  0  0  0  0
 15 42  1  0  0  0  0
 19  5  1  0  0  0  0
 20  6  1  0  0  0  0
 21  6  1  0  0  0  0
 23  7  1  0  0  0  0
 25  8  1  0  0  0  0
 27  9  1  0  0  0  0
 28  9  1  0  0  0  0
 29  9  1  0  0  0  0
 30 10  1  0  0  0  0
 33 11  1  0  0  0  0
 35 12  1  0  0  0  0
 37 13  1  0  0  0  0
 38 14  1  0  0  0  0
 41 15  1  0  0  0  0
M  END
