3
q = 0.0, confidence = 0.998

 52 55  0  0  0  0  0  0  0  0999 V2000
    0.7057    2.0068    0.3106 N   0  0  0  0  0  0  0  0  0  0  0  0
   -0.7214    0.3447   -0.5156 N   0  0  0  0  0  0  0  0  0  0  0  0
    0.4894    0.6923    0.0106 C   0  0  0  0  0  2  0  0  0  0  0  0
    2.0248    2.3218    0.9421 C   0  0  0  0  0  0  0  0  0  0  0  0
    2.5527    1.3398    0.8637 H   0  0  0  0  0  0  0  0  0  0  0  0
    1.8979    2.6066    2.4400 C   0  0  0  0  0  0  0  0  0  0  0  0
    1.4297    1.7345    2.9374 H   0  0  0  0  0  0  0  0  0  0  0  0
    1.3174    3.5183    2.6774 H   0  0  0  0  0  0  0  0  0  0  0  0
    2.9140    2.7315    2.8651 H   0  0  0  0  0  0  0  0  0  0  0  0
    2.8622    3.3264    0.1447 C   0  0  0  0  0  0  0  0  0  0  0  0
    2.8625    3.0760   -0.9343 H   0  0  0  0  0  0  0  0  0  0  0  0
    3.9091    3.2692    0.5039 H   0  0  0  0  0  0  0  0  0  0  0  0
    2.5364    4.3786    0.2455 H   0  0  0  0  0  0  0  0  0  0  0  0
   -0.2669    3.0173    0.1003 C   0  0  0  0  0  0  0  0  0  0  0  0
   -0.1138    4.3433    0.5182 C   0  0  0  0  0  0  0  0  0  0  0  0
    0.7616    4.6549    1.0930 H   0  0  0  0  0  0  0  0  0  0  0  0
   -1.0942    5.3119    0.1947 C   0  0  0  0  0  0  0  0  0  0  0  0
   -0.9403    6.3474    0.5338 H   0  0  0  0  0  0  0  0  0  0  0  0
   -2.2212    4.9840   -0.5411 C   0  0  0  0  0  0  0  0  0  0  0  0
   -2.9679    5.7481   -0.8033 H   0  0  0  0  0  0  0  0  0  0  0  0
   -2.4333    3.6391   -0.9597 C   0  0  0  0  0  0  0  0  0  0  0  0
   -3.5819    3.2334   -1.6996 C   0  0  0  0  0  0  0  0  0  0  0  0
   -4.3332    3.9907   -1.9686 H   0  0  0  0  0  0  0  0  0  0  0  0
   -3.7492    1.9065   -2.0641 C   0  0  0  0  0  0  0  0  0  0  0  0
   -4.6380    1.6009   -2.6363 H   0  0  0  0  0  0  0  0  0  0  0  0
   -2.8069    0.9171   -1.6950 C   0  0  0  0  0  0  0  0  0  0  0  0
   -2.9918   -0.1295   -1.9592 H   0  0  0  0  0  0  0  0  0  0  0  0
   -1.6742    1.2823   -0.9629 C   0  0  0  0  0  0  0  0  0  0  0  0
   -1.4514    2.6466   -0.6115 C   0  0  0  0  0  0  0  0  0  0  0  0
   -1.0143   -1.0884   -0.6721 C   0  0  0  0  0  0  0  0  0  0  0  0
   -0.1224   -1.6066   -0.2345 H   0  0  0  0  0  0  0  0  0  0  0  0
   -0.9987   -1.3181   -1.7553 H   0  0  0  0  0  0  0  0  0  0  0  0
   -2.2997   -1.6046   -0.0575 C   0  0  0  0  0  0  0  0  0  0  0  0
   -2.8149   -1.1448    1.1865 C   0  0  0  0  0  0  0  0  0  0  0  0
   -2.1411   -0.0853    2.0246 C   0  0  0  0  0  0  0  0  0  0  0  0
   -2.6203   -0.0305    3.0208 H   0  0  0  0  0  0  0  0  0  0  0  0
   -2.2262    0.9237    1.5697 H   0  0  0  0  0  0  0  0  0  0  0  0
   -1.0629   -0.2977    2.1823 H   0  0  0  0  0  0  0  0  0  0  0  0
   -4.0055   -1.7159    1.6729 C   0  0  0  0  0  0  0  0  0  0  0  0
   -4.3990   -1.3509    2.6358 H   0  0  0  0  0  0  0  0  0  0  0  0
   -4.6974   -2.7338    0.9949 C   0  0  0  0  0  0  0  0  0  0  0  0
   -5.9729   -3.3092    1.5570 C   0  0  0  0  0  0  0  0  0  0  0  0
   -6.3513   -4.1469    0.9395 H   0  0  0  0  0  0  0  0  0  0  0  0
   -6.7725   -2.5404    1.6101 H   0  0  0  0  0  0  0  0  0  0  0  0
   -5.8250   -3.6869    2.5901 H   0  0  0  0  0  0  0  0  0  0  0  0
   -4.1513   -3.1943   -0.2129 C   0  0  0  0  0  0  0  0  0  0  0  0
   -4.6576   -4.0063   -0.7600 H   0  0  0  0  0  0  0  0  0  0  0  0
   -2.9692   -2.6516   -0.7485 C   0  0  0  0  0  0  0  0  0  0  0  0
   -2.4361   -3.2166   -2.0466 C   0  0  0  0  0  0  0  0  0  0  0  0
   -3.0798   -4.0408   -2.4082 H   0  0  0  0  0  0  0  0  0  0  0  0
   -1.4073   -3.6209   -1.9390 H   0  0  0  0  0  0  0  0  0  0  0  0
   -2.3935   -2.4548   -2.8560 H   0  0  0  0  0  0  0  0  0  0  0  0
  1  4  1  0  0  0  0
  2  3  1  0  0  0  0
  3  1  1  0  0  0  0
  4  6  1  0  0  0  0
  5  4  1  0  0  0  0
  6  8  1  0  0  0  0
  6  9  1  0  0  0  0
  6  7  1  0  0  0  0
 10 13  1  0  0  0  0
 10 12  1  0  0  0  0
 10  4  1  0  0  0  0
 11 10  1  0  0  0  0
 14  1  1  0  0  0  0
 14 15  1  0  0  0  0
 15 16  1  0  0  0  0
 17 15  2  0  0  0  0
 17 18  1  0  0  0  0
 19 17  1  0  0  0  0
 20 19  1  0  0  0  0
 21 29  1  0  0  0  0
 21 19  2  0  0  0  0
 22 21  1  0  0  0  0
 23 22  1  0  0  0  0
 24 22  2  0  0  0  0
 24 26  1  0  0  0  0
 25 24  1  0  0  0  0
 26 28  2  0  0  0  0
 27 26  1  0  0  0  0
 28 29  1  0  0  0  0
 28  2  1  0  0  0  0
 29 14  2  0  0  0  0
 30  2  1  0  0  0  0
 30 31  1  0  0  0  0
 30 33  1  0  0  0  0
 32 30  1  0  0  0  0
 33 34  1  0  0  0  0
 34 39  2  0  0  0  0
 34 35  1  0  0  0  0
 35 38  1  0  0  0  0
 35 36  1  0  0  0  0
 37 35  1  0  0  0  0
 39 40  1  0  0  0  0
 41 42  1  0  0  0  0
 41 39  1  0  0  0  0
 42 44  1  0  0  0  0
 42 45  1  0  0  0  0
 43 42  1  0  0  0  0
 46 41  2  0  0  0  0
 47 46  1  0  0  0  0
 48 46  1  0  0  0  0
 48 33  2  0  0  0  0
 49 51  1  0  0  0  0
 49 48  1  0  0  0  0
 50 49  1  0  0  0  0
 52 49  1  0  0  0  0
M  END
