12
q = 0.0, confidence = 0.926

 32 33  0  0  1  0  0  0  0  0999 V2000
    2.4989   -2.5685    0.2230 O   0  0  0  0  0  0  0  0  0  0  0  0
    3.1581   -1.9716    0.6306 H   0  0  0  0  0  0  0  0  0  0  0  0
    2.3460   -1.9364   -2.2552 O   0  0  0  0  0  0  0  0  0  0  0  0
    2.8471   -2.4479   -1.5769 H   0  0  0  0  0  0  0  0  0  0  0  0
   -1.0897   -2.0964   -0.0440 O   0  0  0  0  0  0  0  0  0  0  0  0
   -1.4193   -1.6059    2.1590 O   0  0  0  0  0  0  0  0  0  0  0  0
    1.3360   -1.7670   -0.0222 C   0  0  1  0  0  0  0  0  0  0  0  0
    1.3245   -0.5718    0.9088 C   0  0  0  0  0  3  0  0  0  0  0  0
    1.3922   -0.8445    1.9755 H   0  0  0  0  0  0  0  0  0  0  0  0
    0.5637    0.6110    0.6017 C   0  0  0  0  0  3  0  0  0  0  0  0
    0.0308    1.1882    1.3711 H   0  0  0  0  0  0  0  0  0  0  0  0
    0.6610    1.0525   -0.7478 C   0  0  0  0  0  3  0  0  0  0  0  0
    0.2195    2.0065   -1.0741 H   0  0  0  0  0  0  0  0  0  0  0  0
    1.4856    0.2281   -1.5826 C   0  0  0  0  0  3  0  0  0  0  0  0
    1.7679    0.6097   -2.5773 H   0  0  0  0  0  0  0  0  0  0  0  0
    1.3432   -1.2857   -1.5210 C   0  0  1  0  0  0  0  0  0  0  0  0
    0.3515   -1.5307   -1.9747 H   0  0  0  0  0  0  0  0  0  0  0  0
    0.1591   -2.7261    0.2586 C   0  0  0  0  0  0  0  0  0  0  0  0
    0.2440   -3.6039   -0.4114 H   0  0  0  0  0  0  0  0  0  0  0  0
    0.1804   -3.0498    1.3167 H   0  0  0  0  0  0  0  0  0  0  0  0
   -1.7687   -1.5269    0.9931 C   0  0  0  0  0  0  0  0  0  0  0  0
   -2.9765   -0.7923    0.5224 C   0  0  0  0  0  0  0  0  0  0  0  0
   -3.3175   -0.6840   -0.8418 C   0  0  0  0  0  0  0  0  0  0  0  0
   -2.6843   -1.1693   -1.5969 H   0  0  0  0  0  0  0  0  0  0  0  0
   -4.4519    0.0354   -1.2325 C   0  0  0  0  0  0  0  0  0  0  0  0
   -4.7278    0.1270   -2.2922 H   0  0  0  0  0  0  0  0  0  0  0  0
   -5.2496    0.6493   -0.2502 C   0  0  0  0  0  0  0  0  0  0  0  0
   -4.9245    0.5503    1.1150 C   0  0  0  0  0  0  0  0  0  0  0  0
   -5.5641    1.0379    1.8638 H   0  0  0  0  0  0  0  0  0  0  0  0
   -3.7883   -0.1703    1.4930 C   0  0  0  0  0  0  0  0  0  0  0  0
   -3.5046   -0.2665    2.5513 H   0  0  0  0  0  0  0  0  0  0  0  0
   -6.6608    1.5469   -0.7317 Cl  0  0  0  0  0  0  0  0  0  0  0  0
  1  2  1  0  0  0  0
  3  4  1  0  0  0  0
  3 16  1  0  0  0  0
  5 18  1  0  0  0  0
  5 21  1  0  0  0  0
  7  1  1  1  0  0  0
  7 18  1  0  0  0  0
  7  8  1  0  0  0  0
  8  9  1  0  0  0  0
 10  8  1  0  0  0  0
 10 11  1  0  0  0  0
 12 10  1  0  0  0  0
 13 12  1  0  0  0  0
 14 16  1  0  0  0  0
 14 12  1  0  0  0  0
 15 14  1  0  0  0  0
 16 17  1  6  0  0  0
 16  7  1  0  0  0  0
 18 20  1  0  0  0  0
 19 18  1  0  0  0  0
 21  6  2  0  0  0  0
 22 21  1  0  0  0  0
 22 30  1  0  0  0  0
 23 22  2  0  0  0  0
 24 23  1  0  0  0  0
 25 23  1  0  0  0  0
 25 27  2  0  0  0  0
 26 25  1  0  0  0  0
 27 28  1  0  0  0  0
 28 30  2  0  0  0  0
 28 29  1  0  0  0  0
 30 31  1  0  0  0  0
 32 27  1  0  0  0  0
M  END
