1
q = -1.0, confidence = 0.0

 15 15  0  0  0  0  0  0  0  0999 V2000
   -2.1158   -0.0666   -0.0000 C   0  0  0  0  0  1  0  0  0  0  0  0
   -3.3879    0.5861   -0.0001 C   0  0  0  0  0  0  0  0  0  0  0  0
   -3.4290    2.0087   -0.0004 C   0  0  0  0  0  0  0  0  0  0  0  0
   -2.4745    2.5572   -0.0006 H   0  0  0  0  0  0  0  0  0  0  0  0
   -4.6479    2.6939   -0.0004 C   0  0  0  0  0  0  0  0  0  0  0  0
   -4.6605    3.7946   -0.0006 H   0  0  0  0  0  0  0  0  0  0  0  0
   -5.8518    1.9705   -0.0001 C   0  0  0  0  0  0  0  0  0  0  0  0
   -6.8169    2.4995   -0.0001 H   0  0  0  0  0  0  0  0  0  0  0  0
   -5.8238    0.5656    0.0001 C   0  0  0  0  0  0  0  0  0  0  0  0
   -6.7714    0.0033    0.0002 H   0  0  0  0  0  0  0  0  0  0  0  0
   -4.6165   -0.1517    0.0001 C   0  0  0  0  0  0  0  0  0  0  0  0
   -4.5965   -1.6561    0.0004 C   0  0  0  0  0  0  0  0  0  0  0  0
   -4.0578   -2.0520   -0.8847 H   0  0  0  0  0  0  0  0  0  0  0  0
   -5.6216   -2.0730   -0.0002 H   0  0  0  0  0  0  0  0  0  0  0  0
   -4.0590   -2.0516    0.8865 H   0  0  0  0  0  0  0  0  0  0  0  0
  2  1  1  0  0  0  0
  2 11  1  0  0  0  0
  3  2  2  0  0  0  0
  4  3  1  0  0  0  0
  5  3  1  0  0  0  0
  5  7  2  0  0  0  0
  6  5  1  0  0  0  0
  7  9  1  0  0  0  0
  8  7  1  0  0  0  0
  9 11  2  0  0  0  0
  9 10  1  0  0  0  0
 11 12  1  0  0  0  0
 12 15  1  0  0  0  0
 13 12  1  0  0  0  0
 14 12  1  0  0  0  0
M  END
