3
q = 0.0, confidence = 0.996

 64 65  0  0  1  0  0  0  0  0999 V2000
   -0.7253   -0.4018   -0.1586 C   0  0  0  0  0  0  0  0  0  0  0  0
   -0.4539   -1.7397    0.2547 C   0  0  0  0  0  0  0  0  0  0  0  0
    0.7987   -2.0238    0.9258 C   0  0  1  0  0  3  0  0  0  0  0  0
    1.7245   -0.9646    1.1661 C   0  0  2  0  0  3  0  0  0  0  0  0
    1.4534    0.3902    0.7416 C   0  0  0  0  0  0  0  0  0  0  0  0
    2.4071    1.4466    0.9209 C   0  0  0  0  0  0  0  0  0  0  0  0
    3.3707    1.1898    1.3742 H   0  0  0  0  0  0  0  0  0  0  0  0
    2.1402    2.7283    0.4750 C   0  0  0  0  0  0  0  0  0  0  0  0
    0.8806    3.0203   -0.1870 C   0  0  0  0  0  0  0  0  0  0  0  0
   -0.0357    2.0072   -0.3982 C   0  0  0  0  0  0  0  0  0  0  0  0
   -0.9691    2.1874   -0.9408 H   0  0  0  0  0  0  0  0  0  0  0  0
    0.2168    0.6763    0.0653 C   0  0  0  0  0  0  0  0  0  0  0  0
   -1.8779   -0.1136   -0.8035 O   0  0  0  0  0  0  0  0  0  0  0  0
   -3.4611    0.4038   -0.3818 Si  0  0  0  0  0  0  0  0  0  0  0  0
   -4.6283   -0.9562   -0.9596 C   0  0  0  0  0  0  0  0  0  0  0  0
   -4.5577   -1.8726   -0.3413 H   0  0  0  0  0  0  0  0  0  0  0  0
   -4.3828   -1.2350   -2.0042 H   0  0  0  0  0  0  0  0  0  0  0  0
   -5.6803   -0.6066   -0.9385 H   0  0  0  0  0  0  0  0  0  0  0  0
   -3.7621    1.9428   -1.4273 C   0  0  0  0  0  0  0  0  0  0  0  0
   -3.1898    2.8214   -1.0690 H   0  0  0  0  0  0  0  0  0  0  0  0
   -4.8364    2.2168   -1.4332 H   0  0  0  0  0  0  0  0  0  0  0  0
   -3.4559    1.7385   -2.4735 H   0  0  0  0  0  0  0  0  0  0  0  0
   -3.6354    0.7590    1.4982 C   0  0  0  0  0  0  0  0  0  0  0  0
   -2.7339    1.9317    1.9268 C   0  0  0  0  0  0  0  0  0  0  0  0
   -2.9539    2.8589    1.3585 H   0  0  0  0  0  0  0  0  0  0  0  0
   -1.6580    1.7048    1.7925 H   0  0  0  0  0  0  0  0  0  0  0  0
   -2.8952    2.1617    3.0034 H   0  0  0  0  0  0  0  0  0  0  0  0
   -5.1132    1.1353    1.7401 C   0  0  0  0  0  0  0  0  0  0  0  0
   -5.8049    0.3087    1.4771 H   0  0  0  0  0  0  0  0  0  0  0  0
   -5.4178    2.0317    1.1606 H   0  0  0  0  0  0  0  0  0  0  0  0
   -5.2751    1.3702    2.8154 H   0  0  0  0  0  0  0  0  0  0  0  0
   -3.2821   -0.4885    2.3299 C   0  0  0  0  0  0  0  0  0  0  0  0
   -3.9068   -1.3644    2.0582 H   0  0  0  0  0  0  0  0  0  0  0  0
   -3.4550   -0.2875    3.4106 H   0  0  0  0  0  0  0  0  0  0  0  0
   -2.2176   -0.7767    2.2149 H   0  0  0  0  0  0  0  0  0  0  0  0
   -1.4942   -2.8095   -0.0201 C   0  0  0  0  0  0  0  0  0  0  0  0
   -2.4563   -2.4558    0.4070 H   0  0  0  0  0  0  0  0  0  0  0  0
   -1.2398   -3.7222    0.5497 H   0  0  0  0  0  0  0  0  0  0  0  0
   -1.7007   -3.1756   -1.4955 C   0  0  0  0  0  0  0  0  0  0  0  0
   -2.5548   -3.8754   -1.6028 H   0  0  0  0  0  0  0  0  0  0  0  0
   -0.8001   -3.6632   -1.9132 H   0  0  0  0  0  0  0  0  0  0  0  0
   -1.9095   -2.2771   -2.1058 H   0  0  0  0  0  0  0  0  0  0  0  0
    1.1321   -3.4167    1.4152 C   0  0  0  0  0  0  0  0  0  0  0  0
    2.2311   -3.4813    1.5299 H   0  0  0  0  0  0  0  0  0  0  0  0
    0.8612   -4.1545    0.6342 H   0  0  0  0  0  0  0  0  0  0  0  0
    0.4422   -3.7782    2.7393 C   0  0  0  0  0  0  0  0  0  0  0  0
    0.7188   -4.8024    3.0600 H   0  0  0  0  0  0  0  0  0  0  0  0
   -0.6629   -3.7380    2.6550 H   0  0  0  0  0  0  0  0  0  0  0  0
    0.7297   -3.0822    3.5527 H   0  0  0  0  0  0  0  0  0  0  0  0
    2.9251   -1.2189    1.7948 O   0  0  0  0  0  0  0  0  0  0  0  0
    2.9200   -0.9442    3.1940 C   0  0  0  0  0  0  0  0  0  0  0  0
    3.9459   -1.1368    3.5611 H   0  0  0  0  0  0  0  0  0  0  0  0
    2.2104   -1.6035    3.7404 H   0  0  0  0  0  0  0  0  0  0  0  0
    2.6494    0.1146    3.4064 H   0  0  0  0  0  0  0  0  0  0  0  0
    2.9829    3.7797    0.5726 O   0  0  0  0  0  0  0  0  0  0  0  0
    4.2741    3.5389    1.1050 C   0  0  0  0  0  0  0  0  0  0  0  0
    4.8145    4.5019    1.0617 H   0  0  0  0  0  0  0  0  0  0  0  0
    4.8228    2.7783    0.5063 H   0  0  0  0  0  0  0  0  0  0  0  0
    4.2241    3.1946    2.1624 H   0  0  0  0  0  0  0  0  0  0  0  0
    0.7318    4.3069   -0.5800 O   0  0  0  0  0  0  0  0  0  0  0  0
   -0.4655    4.6515   -1.2511 C   0  0  0  0  0  0  0  0  0  0  0  0
   -0.3919    5.7276   -1.4922 H   0  0  0  0  0  0  0  0  0  0  0  0
   -1.3576    4.4813   -0.6061 H   0  0  0  0  0  0  0  0  0  0  0  0
   -0.5924    4.0717   -2.1925 H   0  0  0  0  0  0  0  0  0  0  0  0
  1 12  1  0  0  0  0
  1  2  2  0  0  0  0
  2  3  1  0  0  0  0
  3  4  1  0  0  0  0
  3 43  1  1  0  0  0
  4 50  1  6  0  0  0
  5  6  1  0  0  0  0
  5  4  1  0  0  0  0
  6  7  1  0  0  0  0
  8 55  1  0  0  0  0
  8  6  2  0  0  0  0
  9  8  1  0  0  0  0
 10  9  2  0  0  0  0
 10 12  1  0  0  0  0
 11 10  1  0  0  0  0
 12  5  2  0  0  0  0
 13 14  1  0  0  0  0
 13  1  1  0  0  0  0
 14 23  1  0  0  0  0
 15 18  1  0  0  0  0
 15 14  1  0  0  0  0
 15 16  1  0  0  0  0
 17 15  1  0  0  0  0
 19 20  1  0  0  0  0
 19 14  1  0  0  0  0
 21 19  1  0  0  0  0
 22 19  1  0  0  0  0
 23 28  1  0  0  0  0
 23 24  1  0  0  0  0
 23 32  1  0  0  0  0
 24 27  1  0  0  0  0
 25 24  1  0  0  0  0
 26 24  1  0  0  0  0
 28 31  1  0  0  0  0
 29 28  1  0  0  0  0
 30 28  1  0  0  0  0
 32 34  1  0  0  0  0
 33 32  1  0  0  0  0
 35 32  1  0  0  0  0
 36  2  1  0  0  0  0
 36 37  1  0  0  0  0
 36 38  1  0  0  0  0
 39 36  1  0  0  0  0
 40 39  1  0  0  0  0
 41 39  1  0  0  0  0
 42 39  1  0  0  0  0
 43 44  1  0  0  0  0
 43 46  1  0  0  0  0
 45 43  1  0  0  0  0
 46 47  1  0  0  0  0
 46 49  1  0  0  0  0
 48 46  1  0  0  0  0
 50 51  1  0  0  0  0
 51 54  1  0  0  0  0
 51 52  1  0  0  0  0
 51 53  1  0  0  0  0
 55 56  1  0  0  0  0
 56 59  1  0  0  0  0
 57 56  1  0  0  0  0
 58 56  1  0  0  0  0
 60  9  1  0  0  0  0
 61 63  1  0  0  0  0
 61 60  1  0  0  0  0
 62 61  1  0  0  0  0
 64 61  1  0  0  0  0
M  END
