1
q = 0.0, confidence = 0.996

 38 39  0  0  1  0  0  0  0  0999 V2000
    0.1010   -1.4102   -0.6925 C   0  0  2  0  0  3  0  0  0  0  0  0
    1.3159   -0.7421   -0.3588 C   0  0  1  0  0  3  0  0  0  0  0  0
    1.3283    0.7110   -0.3192 C   0  0  0  0  0  0  0  0  0  0  0  0
    0.1283    1.4241   -0.6097 C   0  0  0  0  0  0  0  0  0  0  0  0
   -1.1099    0.7495   -0.9530 C   0  0  0  0  0  0  0  0  0  0  0  0
   -2.3465    1.4523   -1.1377 C   0  0  0  0  0  0  0  0  0  0  0  0
   -2.3530    2.5430   -1.0122 H   0  0  0  0  0  0  0  0  0  0  0  0
   -3.5095    0.7668   -1.4351 C   0  0  0  0  0  0  0  0  0  0  0  0
   -4.4486    1.3219   -1.5773 H   0  0  0  0  0  0  0  0  0  0  0  0
   -3.5106   -0.6546   -1.5169 C   0  0  0  0  0  0  0  0  0  0  0  0
   -4.4489   -1.1879   -1.7299 H   0  0  0  0  0  0  0  0  0  0  0  0
   -2.3509   -1.3701   -1.2850 C   0  0  0  0  0  0  0  0  0  0  0  0
   -2.3516   -2.4683   -1.2829 H   0  0  0  0  0  0  0  0  0  0  0  0
   -1.1177   -0.6925   -1.0142 C   0  0  0  0  0  0  0  0  0  0  0  0
    0.0470   -2.7853   -0.6932 O   0  0  0  0  0  0  0  0  0  0  0  0
    0.2524   -3.3810   -1.9731 C   0  0  0  0  0  0  0  0  0  0  0  0
    0.1252   -4.4717   -1.8402 H   0  0  0  0  0  0  0  0  0  0  0  0
    1.2748   -3.1787   -2.3606 H   0  0  0  0  0  0  0  0  0  0  0  0
   -0.4870   -3.0165   -2.7208 H   0  0  0  0  0  0  0  0  0  0  0  0
    2.5292   -1.5786   -0.0070 C   0  0  0  0  0  0  0  0  0  0  0  0
    2.1595   -2.5799    0.2857 H   0  0  0  0  0  0  0  0  0  0  0  0
    3.0140   -1.1575    0.8960 H   0  0  0  0  0  0  0  0  0  0  0  0
    3.5673   -1.7167   -1.1298 C   0  0  0  0  0  0  0  0  0  0  0  0
    4.3767   -2.4090   -0.8238 H   0  0  0  0  0  0  0  0  0  0  0  0
    4.0374   -0.7472   -1.3838 H   0  0  0  0  0  0  0  0  0  0  0  0
    3.1169   -2.1180   -2.0601 H   0  0  0  0  0  0  0  0  0  0  0  0
    2.5628    1.4966    0.0737 C   0  0  0  0  0  0  0  0  0  0  0  0
    3.1971    0.8661    0.7254 H   0  0  0  0  0  0  0  0  0  0  0  0
    2.2337    2.3523    0.6943 H   0  0  0  0  0  0  0  0  0  0  0  0
    3.3966    2.0196   -1.1057 C   0  0  0  0  0  0  0  0  0  0  0  0
    4.3185    2.5124   -0.7375 H   0  0  0  0  0  0  0  0  0  0  0  0
    2.8389    2.7670   -1.7019 H   0  0  0  0  0  0  0  0  0  0  0  0
    3.7008    1.2078   -1.7954 H   0  0  0  0  0  0  0  0  0  0  0  0
    0.1290    2.7974   -0.5294 O   0  0  0  0  0  0  0  0  0  0  0  0
    0.1174    3.4767   -1.7847 C   0  0  0  0  0  0  0  0  0  0  0  0
    0.1352    4.5588   -1.5565 H   0  0  0  0  0  0  0  0  0  0  0  0
   -0.7938    3.2456   -2.3785 H   0  0  0  0  0  0  0  0  0  0  0  0
    1.0075    3.2191   -2.3989 H   0  0  0  0  0  0  0  0  0  0  0  0
  1 15  1  1  0  0  0
  1  2  1  0  0  0  0
  2  3  1  0  0  0  0
  2 20  1  1  0  0  0
  3 27  1  0  0  0  0
  4 34  1  0  0  0  0
  4  3  2  0  0  0  0
  5  4  1  0  0  0  0
  6  7  1  0  0  0  0
  6  5  2  0  0  0  0
  8  6  1  0  0  0  0
  9  8  1  0  0  0  0
 10  8  2  0  0  0  0
 10 12  1  0  0  0  0
 11 10  1  0  0  0  0
 12 13  1  0  0  0  0
 12 14  2  0  0  0  0
 14  5  1  0  0  0  0
 14  1  1  0  0  0  0
 16 17  1  0  0  0  0
 16 15  1  0  0  0  0
 18 16  1  0  0  0  0
 19 16  1  0  0  0  0
 20 21  1  0  0  0  0
 20 22  1  0  0  0  0
 23 24  1  0  0  0  0
 23 20  1  0  0  0  0
 25 23  1  0  0  0  0
 26 23  1  0  0  0  0
 27 29  1  0  0  0  0
 27 28  1  0  0  0  0
 30 31  1  0  0  0  0
 30 27  1  0  0  0  0
 32 30  1  0  0  0  0
 33 30  1  0  0  0  0
 35 36  1  0  0  0  0
 35 34  1  0  0  0  0
 37 35  1  0  0  0  0
 38 35  1  0  0  0  0
M  END
