10
q = 0.0, confidence = 0.928

 18 18  0  0  1  0  0  0  0  0999 V2000
    0.3838    1.5986   -1.1724 C   0  0  0  0  0  0  0  0  0  0  0  0
    0.6788    1.4674   -2.2189 H   0  0  0  0  0  0  0  0  0  0  0  0
   -0.8650    2.0865    0.7205 C   0  0  0  0  0  0  0  0  0  0  0  0
   -1.6978    2.4057    1.3579 H   0  0  0  0  0  0  0  0  0  0  0  0
   -0.8649    2.0860   -0.7221 C   0  0  0  0  0  0  0  0  0  0  0  0
   -1.6978    2.4048   -1.3597 H   0  0  0  0  0  0  0  0  0  0  0  0
    0.3838    1.5993    1.1711 C   0  0  0  0  0  0  0  0  0  0  0  0
    0.6788    1.4689    2.2178 H   0  0  0  0  0  0  0  0  0  0  0  0
    2.0237    0.0854   -0.0001 C   0  0  0  0  0  3  0  0  0  0  0  0
    1.1858    1.2381   -0.0005 C   0  0  1  0  0  3  0  0  0  0  0  0
    2.6696   -0.4176   -1.2636 C   0  0  0  0  0  0  0  0  0  0  0  0
    2.6772   -1.5258   -1.2872 H   0  0  0  0  0  0  0  0  0  0  0  0
    3.7335   -0.0910   -1.2927 H   0  0  0  0  0  0  0  0  0  0  0  0
    2.1772   -0.0644   -2.1862 H   0  0  0  0  0  0  0  0  0  0  0  0
    2.6693   -0.4169    1.2639 C   0  0  0  0  0  0  0  0  0  0  0  0
    2.6773   -1.5250    1.2878 H   0  0  0  0  0  0  0  0  0  0  0  0
    2.1765   -0.0635    2.1862 H   0  0  0  0  0  0  0  0  0  0  0  0
    3.7331   -0.0898    1.2931 H   0  0  0  0  0  0  0  0  0  0  0  0
  1  5  2  0  0  0  0
  1 10  1  0  0  0  0
  2  1  1  0  0  0  0
  3  7  2  0  0  0  0
  3  4  1  0  0  0  0
  5  3  1  0  0  0  0
  6  5  1  0  0  0  0
  7  8  1  0  0  0  0
  9 15  1  0  0  0  0
 10  9  1  1  0  0  0
 10  7  1  0  0  0  0
 11  9  1  0  0  0  0
 12 11  1  0  0  0  0
 13 11  1  0  0  0  0
 14 11  1  0  0  0  0
 15 16  1  0  0  0  0
 15 18  1  0  0  0  0
 15 17  1  0  0  0  0
M  END
