20
q = -2.0, confidence = 0.686

 68 72  0  0  1  0  0  0  0  0999 V2000
    5.1028    0.9014   -0.7600 C   0  0  0  0  0  0  0  0  0  0  0  0
    5.7861    0.4459    0.4214 C   0  0  0  0  0  3  0  0  0  0  0  0
    5.7805    0.9453    1.3996 H   0  0  0  0  0  0  0  0  0  0  0  0
    6.4837   -0.7620    0.1184 C   0  0  0  0  0  0  0  0  0  0  0  0
    7.0855   -1.3516    0.8193 H   0  0  0  0  0  0  0  0  0  0  0  0
    6.2108   -1.0958   -1.2314 C   0  0  0  0  0  0  0  0  0  0  0  0
    6.5625   -1.9888   -1.7610 H   0  0  0  0  0  0  0  0  0  0  0  0
    5.3544   -0.0846   -1.7689 C   0  0  0  0  0  0  0  0  0  0  0  0
    4.9414   -0.0821   -2.7861 H   0  0  0  0  0  0  0  0  0  0  0  0
    3.6278    2.0838   -0.7305 Si  0  0  0  0  0  0  0  0  0  0  0  0
    3.9120    3.5061    0.4646 C   0  0  0  0  0  0  0  0  0  0  0  0
    4.6764    4.2051    0.0692 H   0  0  0  0  0  0  0  0  0  0  0  0
    4.2665    3.1326    1.4462 H   0  0  0  0  0  0  0  0  0  0  0  0
    2.9706    4.0639    0.6307 H   0  0  0  0  0  0  0  0  0  0  0  0
    3.1259    2.5980   -2.4678 C   0  0  0  0  0  0  0  0  0  0  0  0
    2.1462    3.1142   -2.4586 H   0  0  0  0  0  0  0  0  0  0  0  0
    3.0416    1.7148   -3.1324 H   0  0  0  0  0  0  0  0  0  0  0  0
    3.8771    3.2844   -2.9082 H   0  0  0  0  0  0  0  0  0  0  0  0
    2.4346    0.8002   -0.0253 C   0  0  2  0  0  3  0  0  0  0  0  0
    2.4779    0.3111    1.3264 C   0  0  0  0  0  3  0  0  0  0  0  0
    2.9472    0.8189    2.1793 H   0  0  0  0  0  0  0  0  0  0  0  0
    1.7876   -0.9367    1.3841 C   0  0  0  0  0  0  0  0  0  0  0  0
    1.6586   -1.5596    2.2767 H   0  0  0  0  0  0  0  0  0  0  0  0
    1.3340   -1.2698    0.0781 C   0  0  0  0  0  0  0  0  0  0  0  0
    1.7563   -0.2050   -0.7878 C   0  0  0  0  0  3  0  0  0  0  0  0
    1.5825   -0.1781   -1.8722 H   0  0  0  0  0  0  0  0  0  0  0  0
    0.4791   -2.4362   -0.3233 C   0  0  0  0  0  0  0  0  0  0  0  0
    0.5786   -3.2477    0.4276 H   0  0  0  0  0  0  0  0  0  0  0  0
    0.8572   -2.8448   -1.2827 H   0  0  0  0  0  0  0  0  0  0  0  0
   -1.0007   -2.0235   -0.4670 C   0  0  0  0  0  0  0  0  0  0  0  0
   -1.0471   -1.1748   -1.1820 H   0  0  0  0  0  0  0  0  0  0  0  0
   -1.5612   -2.8476   -0.9523 H   0  0  0  0  0  0  0  0  0  0  0  0
   -1.6761   -1.6534    0.8677 C   0  0  0  0  0  0  0  0  0  0  0  0
   -0.8936   -1.3557    1.6006 H   0  0  0  0  0  0  0  0  0  0  0  0
   -2.1500   -2.5676    1.2826 H   0  0  0  0  0  0  0  0  0  0  0  0
   -2.7009   -0.3864    0.7845 B   0  0  0  0  0  0  0  0  0  0  0  0
   -3.3216   -0.1395    2.2546 N   0  0  0  0  0  0  0  0  0  0  0  0
   -3.4477   -1.0314    3.2080 C   0  0  0  0  0  0  0  0  0  0  0  0
   -3.0523   -2.0476    3.0759 H   0  0  0  0  0  0  0  0  0  0  0  0
   -4.1376   -0.4980    4.3662 C   0  0  0  0  0  0  0  0  0  0  0  0
   -4.3560   -1.0576    5.2837 H   0  0  0  0  0  0  0  0  0  0  0  0
   -4.4352    0.8026    4.0826 C   0  0  0  0  0  3  0  0  0  0  0  0
   -4.9473    1.5292    4.7267 H   0  0  0  0  0  0  0  0  0  0  0  0
   -3.9188    1.1075    2.7219 C   0  0  0  0  0  0  0  0  0  0  0  0
   -4.6817    1.4690    2.0006 H   0  0  0  0  0  0  0  0  0  0  0  0
   -3.1369    1.8980    2.7367 H   0  0  0  0  0  0  0  0  0  0  0  0
   -4.0518   -0.5862   -0.1493 C   0  0  0  0  0  0  0  0  0  0  0  0
   -4.8483    0.5020   -0.5485 C   0  0  0  0  0  0  0  0  0  0  0  0
   -4.5133    1.7642   -0.1704 F   0  0  0  0  0  0  0  0  0  0  0  0
   -6.0086    0.3951   -1.3287 C   0  0  0  0  0  0  0  0  0  0  0  0
   -6.7097    1.4808   -1.6766 F   0  0  0  0  0  0  0  0  0  0  0  0
   -6.4380   -0.8788   -1.7325 C   0  0  0  0  0  0  0  0  0  0  0  0
   -7.5415   -1.0164   -2.4714 F   0  0  0  0  0  0  0  0  0  0  0  0
   -5.6992   -2.0051   -1.3426 C   0  0  0  0  0  0  0  0  0  0  0  0
   -6.1060   -3.2262   -1.7070 F   0  0  0  0  0  0  0  0  0  0  0  0
   -4.5429   -1.8399   -0.5571 C   0  0  0  0  0  0  0  0  0  0  0  0
   -3.9251   -2.9861   -0.2043 F   0  0  0  0  0  0  0  0  0  0  0  0
   -1.7849    0.9238    0.3861 C   0  0  0  0  0  0  0  0  0  0  0  0
   -1.6598    1.4269   -0.9208 C   0  0  0  0  0  0  0  0  0  0  0  0
   -2.3673    0.8917   -1.9361 F   0  0  0  0  0  0  0  0  0  0  0  0
   -0.8049    2.4881   -1.2644 C   0  0  0  0  0  0  0  0  0  0  0  0
   -0.7177    2.9256   -2.5277 F   0  0  0  0  0  0  0  0  0  0  0  0
   -0.0147    3.0811   -0.2715 C   0  0  0  0  0  0  0  0  0  0  0  0
    0.8159    4.0882   -0.5860 F   0  0  0  0  0  0  0  0  0  0  0  0
   -0.0558    2.5814    1.0357 C   0  0  0  0  0  0  0  0  0  0  0  0
    0.7508    3.0925    1.9769 F   0  0  0  0  0  0  0  0  0  0  0  0
   -0.9244    1.5185    1.3250 C   0  0  0  0  0  0  0  0  0  0  0  0
   -0.8952    1.0674    2.6065 F   0  0  0  0  0  0  0  0  0  0  0  0
  1 10  1  0  0  0  0
  1  2  1  0  0  0  0
  2  3  1  0  0  0  0
  4  2  1  0  0  0  0
  4  5  1  0  0  0  0
  6  4  2  0  0  0  0
  7  6  1  0  0  0  0
  8  6  1  0  0  0  0
  8  1  2  0  0  0  0
  9  8  1  0  0  0  0
 10 11  1  0  0  0  0
 11 14  1  0  0  0  0
 11 13  1  0  0  0  0
 12 11  1  0  0  0  0
 15 16  1  0  0  0  0
 15 10  1  0  0  0  0
 17 15  1  0  0  0  0
 18 15  1  0  0  0  0
 19 10  1  6  0  0  0
 19 20  1  0  0  0  0
 20 22  1  0  0  0  0
 20 21  1  0  0  0  0
 22 23  1  0  0  0  0
 24 22  2  0  0  0  0
 25 19  1  0  0  0  0
 25 24  1  0  0  0  0
 26 25  1  0  0  0  0
 27 24  1  0  0  0  0
 27 28  1  0  0  0  0
 29 27  1  0  0  0  0
 30 27  1  0  0  0  0
 30 33  1  0  0  0  0
 31 30  1  0  0  0  0
 32 30  1  0  0  0  0
 33 35  1  0  0  0  0
 33 34  1  0  0  0  0
 36 33  1  0  0  0  0
 36 37  1  0  0  0  0
 37 44  1  0  0  0  0
 37 38  1  0  0  0  0
 38 40  2  0  0  0  0
 39 38  1  0  0  0  0
 40 41  1  0  0  0  0
 42 40  1  0  0  0  0
 42 43  1  0  0  0  0
 44 46  1  0  0  0  0
 44 42  1  0  0  0  0
 45 44  1  0  0  0  0
 47 36  1  0  0  0  0
 48 49  1  0  0  0  0
 48 47  1  0  0  0  0
 50 48  2  0  0  0  0
 51 50  1  0  0  0  0
 52 54  2  0  0  0  0
 52 50  1  0  0  0  0
 53 52  1  0  0  0  0
 54 56  1  0  0  0  0
 55 54  1  0  0  0  0
 56 57  1  0  0  0  0
 56 47  2  0  0  0  0
 58 36  1  0  0  0  0
 58 67  1  0  0  0  0
 59 58  2  0  0  0  0
 60 59  1  0  0  0  0
 61 59  1  0  0  0  0
 61 63  2  0  0  0  0
 62 61  1  0  0  0  0
 63 65  1  0  0  0  0
 64 63  1  0  0  0  0
 65 67  2  0  0  0  0
 65 66  1  0  0  0  0
 67 68  1  0  0  0  0
M  END
