20
q = -2.0, confidence = 0.67

 58 61  0  0  1  0  0  0  0  0999 V2000
   -3.3389    2.4947   -0.0386 Si  0  0  0  0  0  0  0  0  0  0  0  0
   -4.3822    0.9830    0.4018 C   0  0  0  0  0  0  0  0  0  0  0  0
   -4.9335    0.0806   -0.5754 C   0  0  0  0  0  0  0  0  0  0  0  0
   -5.1217    0.3141   -1.6319 H   0  0  0  0  0  0  0  0  0  0  0  0
   -5.2122   -1.1692    0.0533 C   0  0  0  0  0  0  0  0  0  0  0  0
   -5.6280   -2.0575   -0.4357 H   0  0  0  0  0  0  0  0  0  0  0  0
   -4.7994   -1.0789    1.4062 C   0  0  0  0  0  0  0  0  0  0  0  0
   -4.8375   -1.8837    2.1498 H   0  0  0  0  0  0  0  0  0  0  0  0
   -4.2820    0.2362    1.6200 C   0  0  0  0  0  3  0  0  0  0  0  0
   -3.8533    0.6001    2.5628 H   0  0  0  0  0  0  0  0  0  0  0  0
   -4.1015    3.4954   -1.4365 C   0  0  0  0  0  0  0  0  0  0  0  0
   -5.0497    3.9681   -1.1092 H   0  0  0  0  0  0  0  0  0  0  0  0
   -4.3258    2.8562   -2.3139 H   0  0  0  0  0  0  0  0  0  0  0  0
   -3.4097    4.2961   -1.7681 H   0  0  0  0  0  0  0  0  0  0  0  0
   -2.9310    3.5240    1.4812 C   0  0  0  0  0  0  0  0  0  0  0  0
   -2.2115    4.3290    1.2284 H   0  0  0  0  0  0  0  0  0  0  0  0
   -2.4780    2.9011    2.2785 H   0  0  0  0  0  0  0  0  0  0  0  0
   -3.8455    3.9951    1.8949 H   0  0  0  0  0  0  0  0  0  0  0  0
   -1.8502    1.4885   -0.6184 C   0  0  2  0  0  3  0  0  0  0  0  0
   -1.8379    0.6978   -1.8211 C   0  0  0  0  0  3  0  0  0  0  0  0
   -2.5077    0.8247   -2.6823 H   0  0  0  0  0  0  0  0  0  0  0  0
   -0.8002   -0.2748   -1.7203 C   0  0  0  0  0  0  0  0  0  0  0  0
   -0.5466   -1.0268   -2.4769 H   0  0  0  0  0  0  0  0  0  0  0  0
   -0.1711   -0.1415   -0.4517 C   0  0  0  0  0  0  0  0  0  0  0  0
   -0.8366    0.9334    0.2283 C   0  0  0  0  0  3  0  0  0  0  0  0
   -0.6030    1.2629    1.2498 H   0  0  0  0  0  0  0  0  0  0  0  0
    1.0141   -0.9120    0.0490 C   0  0  0  0  0  0  0  0  0  0  0  0
    1.0536   -1.8988   -0.4590 H   0  0  0  0  0  0  0  0  0  0  0  0
    0.8771   -1.1291    1.1295 H   0  0  0  0  0  0  0  0  0  0  0  0
    2.3448   -0.1679   -0.1655 C   0  0  0  0  0  0  0  0  0  0  0  0
    2.4783    0.0378   -1.2503 H   0  0  0  0  0  0  0  0  0  0  0  0
    2.2810    0.8325    0.3162 H   0  0  0  0  0  0  0  0  0  0  0  0
    3.5581   -0.9277    0.3759 C   0  0  0  0  0  0  0  0  0  0  0  0
    3.6125   -1.9514   -0.0699 H   0  0  0  0  0  0  0  0  0  0  0  0
    3.4238   -1.1519    1.4634 H   0  0  0  0  0  0  0  0  0  0  0  0
    4.9886   -0.2902    0.2328 B   0  0  0  0  0  0  0  0  0  0  0  0
    5.3351    1.0934   -0.4468 C   0  0  2  0  0  0  0  0  0  0  0  0
    4.4327    1.6646   -0.7518 H   0  0  0  0  0  0  0  0  0  0  0  0
    6.1050    0.7187   -1.7491 C   0  0  0  0  0  0  0  0  0  0  0  0
    5.3882    0.2112   -2.4342 H   0  0  0  0  0  0  0  0  0  0  0  0
    6.4156    1.6470   -2.2800 H   0  0  0  0  0  0  0  0  0  0  0  0
    7.3275   -0.1969   -1.5486 C   0  0  0  0  0  0  0  0  0  0  0  0
    8.1810    0.3986   -1.1703 H   0  0  0  0  0  0  0  0  0  0  0  0
    7.6587   -0.5797   -2.5378 H   0  0  0  0  0  0  0  0  0  0  0  0
    7.0670   -1.3901   -0.6096 C   0  0  0  0  0  0  0  0  0  0  0  0
    6.4739   -2.1535   -1.1625 H   0  0  0  0  0  0  0  0  0  0  0  0
    8.0315   -1.8874   -0.3602 H   0  0  0  0  0  0  0  0  0  0  0  0
    6.2960   -1.0475    0.6990 C   0  0  1  0  0  0  0  0  0  0  0  0
    6.0692   -2.0083    1.2106 H   0  0  0  0  0  0  0  0  0  0  0  0
    7.0733   -0.1489    1.6957 C   0  0  0  0  0  0  0  0  0  0  0  0
    6.4791   -0.0961    2.6359 H   0  0  0  0  0  0  0  0  0  0  0  0
    8.0340   -0.6354    1.9791 H   0  0  0  0  0  0  0  0  0  0  0  0
    7.3494    1.2854    1.2081 C   0  0  0  0  0  0  0  0  0  0  0  0
    7.6907    1.9009    2.0679 H   0  0  0  0  0  0  0  0  0  0  0  0
    8.2032    1.2820    0.5023 H   0  0  0  0  0  0  0  0  0  0  0  0
    6.1352    1.9697    0.5527 C   0  0  0  0  0  0  0  0  0  0  0  0
    6.4632    2.9105    0.0553 H   0  0  0  0  0  0  0  0  0  0  0  0
    5.4326    2.2884    1.3555 H   0  0  0  0  0  0  0  0  0  0  0  0
  1  2  1  0  0  0  0
  1 15  1  0  0  0  0
  2  9  1  0  0  0  0
  3  5  1  0  0  0  0
  3  2  2  0  0  0  0
  4  3  1  0  0  0  0
  5  7  2  0  0  0  0
  6  5  1  0  0  0  0
  7  9  1  0  0  0  0
  7  8  1  0  0  0  0
  9 10  1  0  0  0  0
 11 12  1  0  0  0  0
 11  1  1  0  0  0  0
 13 11  1  0  0  0  0
 14 11  1  0  0  0  0
 15 18  1  0  0  0  0
 15 17  1  0  0  0  0
 16 15  1  0  0  0  0
 19  1  1  1  0  0  0
 19 25  1  0  0  0  0
 20 22  1  0  0  0  0
 20 19  1  0  0  0  0
 21 20  1  0  0  0  0
 22 24  2  0  0  0  0
 23 22  1  0  0  0  0
 24 27  1  0  0  0  0
 24 25  1  0  0  0  0
 25 26  1  0  0  0  0
 27 29  1  0  0  0  0
 28 27  1  0  0  0  0
 30 27  1  0  0  0  0
 30 32  1  0  0  0  0
 30 33  1  0  0  0  0
 31 30  1  0  0  0  0
 33 35  1  0  0  0  0
 34 33  1  0  0  0  0
 36 33  1  0  0  0  0
 36 48  1  0  0  0  0
 37 38  1  6  0  0  0
 37 36  1  0  0  0  0
 37 56  1  0  0  0  0
 39 42  1  0  0  0  0
 39 37  1  0  0  0  0
 40 39  1  0  0  0  0
 41 39  1  0  0  0  0
 42 43  1  0  0  0  0
 42 45  1  0  0  0  0
 44 42  1  0  0  0  0
 45 47  1  0  0  0  0
 45 48  1  0  0  0  0
 46 45  1  0  0  0  0
 48 49  1  1  0  0  0
 48 50  1  0  0  0  0
 50 52  1  0  0  0  0
 50 51  1  0  0  0  0
 53 50  1  0  0  0  0
 53 54  1  0  0  0  0
 55 53  1  0  0  0  0
 56 53  1  0  0  0  0
 56 58  1  0  0  0  0
 57 56  1  0  0  0  0
M  END
