4
q = 0.0, confidence = 1.0

 35 36  0  0  0  0  0  0  0  0999 V2000
   -5.5343    0.0669   -1.0445 S   0  0  0  0  0  0  0  0  0  0  0  0
   -1.8077   -2.6159    0.2066 N   0  0  0  0  0  0  0  0  0  0  0  0
   -2.4641   -1.2447   -1.3272 N   0  0  0  0  0  0  0  0  0  0  0  0
   -1.5503   -1.3718   -0.3123 C   0  0  0  0  0  2  0  0  0  0  0  0
   -2.8354   -3.2512   -0.4809 C   0  0  0  0  0  0  0  0  0  0  0  0
   -3.1846   -4.2530   -0.2156 H   0  0  0  0  0  0  0  0  0  0  0  0
   -3.2522   -2.3793   -1.4474 C   0  0  0  0  0  0  0  0  0  0  0  0
   -4.0582   -2.4496   -2.1811 H   0  0  0  0  0  0  0  0  0  0  0  0
   -1.1013   -3.2456    1.3102 C   0  0  0  0  0  0  0  0  0  0  0  0
   -0.6340   -2.4556    1.9269 H   0  0  0  0  0  0  0  0  0  0  0  0
   -0.3346   -3.9534    0.9345 H   0  0  0  0  0  0  0  0  0  0  0  0
   -1.8247   -3.8001    1.9377 H   0  0  0  0  0  0  0  0  0  0  0  0
   -2.5816   -0.1003   -2.2385 C   0  0  0  0  0  0  0  0  0  0  0  0
   -3.2835   -0.4142   -3.0353 H   0  0  0  0  0  0  0  0  0  0  0  0
   -1.5827    0.0519   -2.6942 H   0  0  0  0  0  0  0  0  0  0  0  0
   -3.0429    1.2028   -1.6165 C   0  0  0  0  0  0  0  0  0  0  0  0
   -2.1731    2.3086   -1.6860 C   0  0  0  0  0  0  0  0  0  0  0  0
   -1.1803    2.1564   -2.1380 H   0  0  0  0  0  0  0  0  0  0  0  0
   -2.5426    3.5611   -1.1773 C   0  0  0  0  0  0  0  0  0  0  0  0
   -1.8482    4.4118   -1.2520 H   0  0  0  0  0  0  0  0  0  0  0  0
   -3.7984    3.7250   -0.5737 C   0  0  0  0  0  0  0  0  0  0  0  0
   -4.1001    4.7028   -0.1682 H   0  0  0  0  0  0  0  0  0  0  0  0
   -4.6862    2.6435   -0.5179 C   0  0  0  0  0  0  0  0  0  0  0  0
   -5.6918    2.7752   -0.0907 H   0  0  0  0  0  0  0  0  0  0  0  0
   -4.3247    1.3837   -1.0374 C   0  0  0  0  0  0  0  0  0  0  0  0
   -5.8386   -0.1724    0.7779 C   0  0  0  0  0  0  0  0  0  0  0  0
   -6.2174    0.8024    1.1529 H   0  0  0  0  0  0  0  0  0  0  0  0
   -6.9473   -1.2183    0.8913 C   0  0  0  0  0  0  0  0  0  0  0  0
   -6.6095   -2.1946    0.4856 H   0  0  0  0  0  0  0  0  0  0  0  0
   -7.8615   -0.9119    0.3448 H   0  0  0  0  0  0  0  0  0  0  0  0
   -7.2140   -1.3697    1.9572 H   0  0  0  0  0  0  0  0  0  0  0  0
   -4.5702   -0.5595    1.5265 C   0  0  0  0  0  0  0  0  0  0  0  0
   -4.7782   -0.6323    2.6149 H   0  0  0  0  0  0  0  0  0  0  0  0
   -3.7542    0.1774    1.3974 H   0  0  0  0  0  0  0  0  0  0  0  0
   -4.1948   -1.5439    1.1832 H   0  0  0  0  0  0  0  0  0  0  0  0
  1 25  1  0  0  0  0
  1 26  1  0  0  0  0
  2  9  1  0  0  0  0
  3  4  1  0  0  0  0
  4  2  1  0  0  0  0
  5  6  1  0  0  0  0
  5  2  1  0  0  0  0
  7  3  1  0  0  0  0
  7  5  2  0  0  0  0
  8  7  1  0  0  0  0
  9 10  1  0  0  0  0
  9 12  1  0  0  0  0
 11  9  1  0  0  0  0
 13 16  1  0  0  0  0
 13  3  1  0  0  0  0
 14 13  1  0  0  0  0
 15 13  1  0  0  0  0
 16 25  1  0  0  0  0
 17 16  2  0  0  0  0
 17 19  1  0  0  0  0
 18 17  1  0  0  0  0
 19 21  2  0  0  0  0
 20 19  1  0  0  0  0
 21 23  1  0  0  0  0
 21 22  1  0  0  0  0
 23 24  1  0  0  0  0
 25 23  2  0  0  0  0
 26 28  1  0  0  0  0
 26 27  1  0  0  0  0
 26 32  1  0  0  0  0
 28 31  1  0  0  0  0
 29 28  1  0  0  0  0
 30 28  1  0  0  0  0
 32 33  1  0  0  0  0
 34 32  1  0  0  0  0
 35 32  1  0  0  0  0
M  END
