4
q = 0.0, confidence = 1.0

 41 43  0  0  0  0  0  0  0  0999 V2000
    6.1788    1.0246   -0.6102 S   0  0  0  0  0  0  0  0  0  0  0  0
    0.8104   -2.8949   -0.4871 N   0  0  0  0  0  0  0  0  0  0  0  0
    2.5526   -1.5713   -0.4779 N   0  0  0  0  0  0  0  0  0  0  0  0
    1.1892   -1.5858   -0.3829 C   0  0  0  0  0  2  0  0  0  0  0  0
    1.9260   -3.7224   -0.6152 C   0  0  0  0  0  0  0  0  0  0  0  0
    2.0676   -5.1116   -0.7374 C   0  0  0  0  0  0  0  0  0  0  0  0
    1.1969   -5.7821   -0.7358 H   0  0  0  0  0  0  0  0  0  0  0  0
    3.3744   -5.6109   -0.8539 C   0  0  0  0  0  0  0  0  0  0  0  0
    3.5272   -6.6962   -0.9476 H   0  0  0  0  0  0  0  0  0  0  0  0
    4.4975   -4.7535   -0.8480 C   0  0  0  0  0  0  0  0  0  0  0  0
    5.5049   -5.1861   -0.9373 H   0  0  0  0  0  0  0  0  0  0  0  0
    4.3579   -3.3625   -0.7250 C   0  0  0  0  0  0  0  0  0  0  0  0
    5.2290   -2.6926   -0.7104 H   0  0  0  0  0  0  0  0  0  0  0  0
    3.0535   -2.8654   -0.6087 C   0  0  0  0  0  0  0  0  0  0  0  0
   -0.5648   -3.3561   -0.4286 C   0  0  0  0  0  0  0  0  0  0  0  0
   -1.2255   -2.4973   -0.6441 H   0  0  0  0  0  0  0  0  0  0  0  0
   -0.8087   -3.7425    0.5811 H   0  0  0  0  0  0  0  0  0  0  0  0
   -0.7261   -4.1449   -1.1889 H   0  0  0  0  0  0  0  0  0  0  0  0
    3.3670   -0.3664   -0.4794 C   0  0  0  0  0  0  0  0  0  0  0  0
    2.6872    0.4596   -0.7763 H   0  0  0  0  0  0  0  0  0  0  0  0
    4.1282   -0.4424   -1.2803 H   0  0  0  0  0  0  0  0  0  0  0  0
    4.0383   -0.0671    0.8452 C   0  0  0  0  0  0  0  0  0  0  0  0
    3.3960   -0.3837    2.0585 C   0  0  0  0  0  0  0  0  0  0  0  0
    2.4058   -0.8666    2.0432 H   0  0  0  0  0  0  0  0  0  0  0  0
    3.9868   -0.0690    3.2901 C   0  0  0  0  0  0  0  0  0  0  0  0
    3.4574   -0.3210    4.2213 H   0  0  0  0  0  0  0  0  0  0  0  0
    5.2396    0.5625    3.3316 C   0  0  0  0  0  0  0  0  0  0  0  0
    5.7125    0.8025    4.2961 H   0  0  0  0  0  0  0  0  0  0  0  0
    5.8920    0.8821    2.1334 C   0  0  0  0  0  0  0  0  0  0  0  0
    6.8802    1.3661    2.1410 H   0  0  0  0  0  0  0  0  0  0  0  0
    5.2977    0.5858    0.8897 C   0  0  0  0  0  0  0  0  0  0  0  0
    5.6892    2.8128   -0.8136 C   0  0  0  0  0  0  0  0  0  0  0  0
    6.0945    3.3324    0.0813 H   0  0  0  0  0  0  0  0  0  0  0  0
    6.4120    3.3125   -2.0638 C   0  0  0  0  0  0  0  0  0  0  0  0
    6.0480    2.7823   -2.9679 H   0  0  0  0  0  0  0  0  0  0  0  0
    7.5073    3.1609   -1.9901 H   0  0  0  0  0  0  0  0  0  0  0  0
    6.2218    4.3962   -2.2048 H   0  0  0  0  0  0  0  0  0  0  0  0
    4.1794    3.0168   -0.8783 C   0  0  0  0  0  0  0  0  0  0  0  0
    3.9499    4.1009   -0.9600 H   0  0  0  0  0  0  0  0  0  0  0  0
    3.6809    2.6388    0.0360 H   0  0  0  0  0  0  0  0  0  0  0  0
    3.7329    2.5057   -1.7553 H   0  0  0  0  0  0  0  0  0  0  0  0
  1 31  1  0  0  0  0
  2 15  1  0  0  0  0
  2  4  1  0  0  0  0
  3  4  1  0  0  0  0
  5 14  1  0  0  0  0
  5  2  1  0  0  0  0
  6  7  1  0  0  0  0
  6  5  2  0  0  0  0
  8 10  2  0  0  0  0
  8  6  1  0  0  0  0
  9  8  1  0  0  0  0
 10 12  1  0  0  0  0
 11 10  1  0  0  0  0
 12 13  1  0  0  0  0
 12 14  2  0  0  0  0
 14  3  1  0  0  0  0
 15 17  1  0  0  0  0
 16 15  1  0  0  0  0
 18 15  1  0  0  0  0
 19  3  1  0  0  0  0
 19 22  1  0  0  0  0
 20 19  1  0  0  0  0
 21 19  1  0  0  0  0
 22 31  2  0  0  0  0
 22 23  1  0  0  0  0
 23 25  2  0  0  0  0
 24 23  1  0  0  0  0
 25 27  1  0  0  0  0
 25 26  1  0  0  0  0
 27 28  1  0  0  0  0
 29 30  1  0  0  0  0
 29 27  2  0  0  0  0
 31 29  1  0  0  0  0
 32  1  1  0  0  0  0
 32 33  1  0  0  0  0
 34 36  1  0  0  0  0
 34 32  1  0  0  0  0
 35 34  1  0  0  0  0
 37 34  1  0  0  0  0
 38 32  1  0  0  0  0
 38 40  1  0  0  0  0
 39 38  1  0  0  0  0
 41 38  1  0  0  0  0
M  END
