1
q = -1.0, confidence = 0.0

  6  5  0  0  0  0  0  0  0  0999 V2000
    1.8147   -3.1024   -0.1258 C   0  0  0  0  0  3  0  0  0  0  0  0
    2.9219   -3.1459   -0.1409 H   0  0  0  0  0  0  0  0  0  0  0  0
    1.3006   -3.2794    1.2117 C   0  0  0  0  0  0  0  0  0  0  0  0
    1.2397   -3.9591   -1.1372 C   0  0  0  0  0  0  0  0  0  0  0  0
    0.7444   -4.6250   -1.9710 N   0  0  0  0  0  0  0  0  0  0  0  0
    0.8838   -3.3286    2.3132 N   0  0  0  0  0  0  0  0  0  0  0  0
  1  3  1  0  0  0  0
  2  1  1  0  0  0  0
  3  6  3  0  0  0  0
  4  1  1  0  0  0  0
  5  4  3  0  0  0  0
M  END
