2
q = -1.0, confidence = 0.0

 35 36  0  0  0  0  0  0  0  0999 V2000
    0.2874   -0.0680    2.2709 N   0  0  0  0  0  0  0  0  0  0  0  0
   -0.1619    0.0230    1.0461 C   0  0  0  0  0  3  0  0  0  0  0  0
   -0.4510    0.4081    3.3473 C   0  0  0  0  0  0  0  0  0  0  0  0
    0.0281    0.3970    4.6188 C   0  0  0  0  0  0  0  0  0  0  0  0
   -0.7176    0.9011    5.8129 C   0  0  0  0  0  0  0  0  0  0  0  0
   -1.3752    0.8147    0.7156 C   0  0  0  0  0  0  0  0  0  0  0  0
   -2.5486    0.4098    0.1438 C   0  0  0  0  0  0  0  0  0  0  0  0
   -3.5688    1.3999   -0.2847 C   0  0  0  0  0  0  0  0  0  0  0  0
   -3.1953    2.6672   -0.7921 C   0  0  0  0  0  0  0  0  0  0  0  0
   -4.1622    3.6067   -1.1713 C   0  0  0  0  0  0  0  0  0  0  0  0
   -5.5291    3.3015   -1.0612 C   0  0  0  0  0  0  0  0  0  0  0  0
   -5.9169    2.0437   -0.5725 C   0  0  0  0  0  0  0  0  0  0  0  0
   -4.9498    1.1030   -0.1934 C   0  0  0  0  0  0  0  0  0  0  0  0
   -2.8764   -1.0296   -0.0331 C   0  0  0  0  0  0  0  0  0  0  0  0
   -3.3410   -1.5196   -1.2749 C   0  0  0  0  0  0  0  0  0  0  0  0
   -3.6726   -2.8725   -1.4307 C   0  0  0  0  0  0  0  0  0  0  0  0
   -3.5656   -3.7578   -0.3435 C   0  0  0  0  0  0  0  0  0  0  0  0
   -3.1157   -3.2803    0.8979 C   0  0  0  0  0  0  0  0  0  0  0  0
   -2.7705   -1.9288    1.0502 C   0  0  0  0  0  0  0  0  0  0  0  0
   -1.4772    0.7986    3.1603 H   0  0  0  0  0  0  0  0  0  0  0  0
    1.0411   -0.0155    4.7744 H   0  0  0  0  0  0  0  0  0  0  0  0
   -1.7226    1.2813    5.5394 H   0  0  0  0  0  0  0  0  0  0  0  0
   -0.1702    1.7250    6.3227 H   0  0  0  0  0  0  0  0  0  0  0  0
   -0.8510    0.1061    6.5800 H   0  0  0  0  0  0  0  0  0  0  0  0
   -1.2860    1.8919    0.9461 H   0  0  0  0  0  0  0  0  0  0  0  0
   -2.1281    2.9003   -0.9166 H   0  0  0  0  0  0  0  0  0  0  0  0
   -3.8456    4.5816   -1.5730 H   0  0  0  0  0  0  0  0  0  0  0  0
   -6.2886    4.0380   -1.3645 H   0  0  0  0  0  0  0  0  0  0  0  0
   -6.9851    1.7925   -0.4830 H   0  0  0  0  0  0  0  0  0  0  0  0
   -5.2620    0.1217    0.1939 H   0  0  0  0  0  0  0  0  0  0  0  0
   -3.4232   -0.8261   -2.1247 H   0  0  0  0  0  0  0  0  0  0  0  0
   -4.0204   -3.2402   -2.4083 H   0  0  0  0  0  0  0  0  0  0  0  0
   -3.8363   -4.8179   -0.4639 H   0  0  0  0  0  0  0  0  0  0  0  0
   -3.0362   -3.9651    1.7562 H   0  0  0  0  0  0  0  0  0  0  0  0
   -2.4333   -1.5477    2.0259 H   0  0  0  0  0  0  0  0  0  0  0  0
  1  3  1  0  0  0  0
  2  1  2  0  0  0  0
  3  4  2  0  0  0  0
  4 21  1  0  0  0  0
  4  5  1  0  0  0  0
  5 23  1  0  0  0  0
  5 24  1  0  0  0  0
  6 25  1  0  0  0  0
  6  2  1  0  0  0  0
  7  6  2  0  0  0  0
  8 13  1  0  0  0  0
  8  7  1  0  0  0  0
  9  8  2  0  0  0  0
 10 11  2  0  0  0  0
 10  9  1  0  0  0  0
 11 12  1  0  0  0  0
 12 29  1  0  0  0  0
 12 13  2  0  0  0  0
 13 30  1  0  0  0  0
 14  7  1  0  0  0  0
 14 19  1  0  0  0  0
 15 14  2  0  0  0  0
 16 15  1  0  0  0  0
 16 17  2  0  0  0  0
 17 18  1  0  0  0  0
 18 19  2  0  0  0  0
 18 34  1  0  0  0  0
 19 35  1  0  0  0  0
 20  3  1  0  0  0  0
 22  5  1  0  0  0  0
 26  9  1  0  0  0  0
 27 10  1  0  0  0  0
 28 11  1  0  0  0  0
 31 15  1  0  0  0  0
 32 16  1  0  0  0  0
 33 17  1  0  0  0  0
M  END
