2
q = -2.0, confidence = 0.896

 28 30  0  0  1  0  0  0  0  0999 V2000
    1.1306    1.5522   -0.4835 C   0  0  1  0  0  3  0  0  0  0  0  0
    0.2258    1.5763   -1.6010 C   0  0  0  0  0  3  0  0  0  0  0  0
    0.4522    1.2230   -2.6145 H   0  0  0  0  0  0  0  0  0  0  0  0
   -0.9910    2.1856   -1.1793 C   0  0  0  0  0  3  0  0  0  0  0  0
   -1.8849    2.3312   -1.7958 H   0  0  0  0  0  0  0  0  0  0  0  0
   -0.8676    2.5074    0.1989 C   0  0  0  0  0  0  0  0  0  0  0  0
   -1.6473    2.9442    0.8339 H   0  0  0  0  0  0  0  0  0  0  0  0
    0.4419    2.1272    0.6239 C   0  0  0  0  0  0  0  0  0  0  0  0
    0.8394    2.2348    1.6395 H   0  0  0  0  0  0  0  0  0  0  0  0
    2.5169    0.9825   -0.5010 C   0  0  1  0  0  0  0  0  0  0  0  0
    3.1555    1.5745   -1.1907 H   0  0  0  0  0  0  0  0  0  0  0  0
    3.2650    0.7125    0.8310 C   0  0  0  0  0  0  0  0  0  0  0  0
    4.0388    1.4452    1.1314 H   0  0  0  0  0  0  0  0  0  0  0  0
    2.5634    0.5817    1.6792 H   0  0  0  0  0  0  0  0  0  0  0  0
    3.7389   -0.6453    0.2536 C   0  0  0  0  0  0  0  0  0  0  0  0
    3.7045   -1.5296    0.9193 H   0  0  0  0  0  0  0  0  0  0  0  0
    4.7527   -0.5816   -0.1874 H   0  0  0  0  0  0  0  0  0  0  0  0
    2.6405   -0.5517   -0.8423 C   0  0  1  0  0  0  0  0  0  0  0  0
    2.9696   -0.7755   -1.8769 H   0  0  0  0  0  0  0  0  0  0  0  0
    1.3710   -1.3154   -0.5626 C   0  0  0  0  0  0  0  0  0  0  0  0
    0.9147   -1.8267    0.6893 C   0  0  0  0  0  3  0  0  0  0  0  0
    1.4290   -1.7332    1.6530 H   0  0  0  0  0  0  0  0  0  0  0  0
   -0.3349   -2.4922    0.4845 C   0  0  0  0  0  0  0  0  0  0  0  0
   -0.9407   -2.9697    1.2632 H   0  0  0  0  0  0  0  0  0  0  0  0
   -0.6638   -2.3908   -0.8914 C   0  0  0  0  0  0  0  0  0  0  0  0
   -1.5709   -2.7777   -1.3681 H   0  0  0  0  0  0  0  0  0  0  0  0
    0.3651   -1.6399   -1.5344 C   0  0  0  0  0  0  0  0  0  0  0  0
    0.4128   -1.3987   -2.6038 H   0  0  0  0  0  0  0  0  0  0  0  0
  1  2  1  1  0  0  0
  1  8  1  0  0  0  0
  2  4  1  0  0  0  0
  3  2  1  0  0  0  0
  4  6  1  0  0  0  0
  5  4  1  0  0  0  0
  6  8  2  0  0  0  0
  6  7  1  0  0  0  0
  8  9  1  0  0  0  0
 10 11  1  6  0  0  0
 10  1  1  0  0  0  0
 10 12  1  0  0  0  0
 12 13  1  0  0  0  0
 12 14  1  0  0  0  0
 15 12  1  0  0  0  0
 15 16  1  0  0  0  0
 17 15  1  0  0  0  0
 18 19  1  6  0  0  0
 18 20  1  0  0  0  0
 18 10  1  0  0  0  0
 18 15  1  0  0  0  0
 20 21  1  0  0  0  0
 21 22  1  0  0  0  0
 23 21  1  0  0  0  0
 23 24  1  0  0  0  0
 25 23  2  0  0  0  0
 26 25  1  0  0  0  0
 27 25  1  0  0  0  0
 27 20  2  0  0  0  0
 28 27  1  0  0  0  0
M  END
