4
q = 0.0, confidence = 1.0

 50 53  0  0  1  0  0  0  0  0999 V2000
   -0.1590    0.6355   -0.1854 P   0  0  0  0  0  0  0  0  0  0  0  0
   -1.2341   -0.4715   -1.0515 N   0  0  0  0  0  0  0  0  0  0  0  0
   -1.1254   -1.7223   -0.2214 C   0  0  2  0  0  0  0  0  0  0  0  0
    0.3188   -2.1717   -0.4637 C   0  0  0  0  0  3  0  0  0  0  0  0
    0.7539   -1.6234   -1.7146 C   0  0  2  0  0  3  0  0  0  0  0  0
   -0.4309   -0.8151   -2.2572 C   0  0  0  0  0  0  0  0  0  0  0  0
    1.7277   -2.2403   -2.6787 C   0  0  0  0  0  0  0  0  0  0  0  0
   -2.2127   -2.7463   -0.6176 C   0  0  0  0  0  0  0  0  0  0  0  0
   -3.5844   -2.2072   -0.2927 C   0  0  0  0  0  0  0  0  0  0  0  0
   -0.2361    4.6069   -2.5764 C   0  0  0  0  0  0  0  0  0  0  0  0
   -5.3583   -1.7890    1.3415 C   0  0  0  0  0  0  0  0  0  0  0  0
   -5.4939   -0.7896   -0.8655 C   0  0  0  0  0  0  0  0  0  0  0  0
   -1.3825    2.5929   -1.8336 C   0  0  0  0  0  0  0  0  0  0  0  0
   -0.3749    1.5235    2.4448 C   0  0  0  0  0  0  0  0  0  0  0  0
   -4.2788   -1.3973   -1.2145 C   0  0  0  0  0  0  0  0  0  0  0  0
   -1.0584    1.8935    3.6124 C   0  0  0  0  0  0  0  0  0  0  0  0
   -0.2131    2.1854   -1.1608 C   0  0  0  0  0  0  0  0  0  0  0  0
   -2.4591    1.7963    3.6699 C   0  0  0  0  0  0  0  0  0  0  0  0
   -2.5067    0.9794    1.3772 C   0  0  0  0  0  0  0  0  0  0  0  0
   -1.1008    1.0719    1.3243 C   0  0  0  0  0  0  0  0  0  0  0  0
    0.9256    4.2027   -1.8985 C   0  0  0  0  0  0  0  0  0  0  0  0
   -1.3869    3.8004   -2.5465 C   0  0  0  0  0  0  0  0  0  0  0  0
    0.9439    2.9882   -1.1956 C   0  0  0  0  0  0  0  0  0  0  0  0
   -3.1794    1.3348    2.5557 C   0  0  0  0  0  0  0  0  0  0  0  0
   -4.1434   -2.3955    0.9870 C   0  0  0  0  0  0  0  0  0  0  0  0
   -6.0366   -0.9799    0.4164 C   0  0  0  0  0  0  0  0  0  0  0  0
   -1.3059   -1.4613    0.8424 H   0  0  0  0  0  0  0  0  0  0  0  0
    0.6886   -3.1267   -0.0554 H   0  0  0  0  0  0  0  0  0  0  0  0
   -1.0439   -1.4462   -2.9415 H   0  0  0  0  0  0  0  0  0  0  0  0
   -0.1483    0.0988   -2.8176 H   0  0  0  0  0  0  0  0  0  0  0  0
    2.2461   -1.4612   -3.2754 H   0  0  0  0  0  0  0  0  0  0  0  0
    1.1951   -2.9065   -3.3955 H   0  0  0  0  0  0  0  0  0  0  0  0
    2.4935   -2.8338   -2.1468 H   0  0  0  0  0  0  0  0  0  0  0  0
   -2.1267   -2.9979   -1.6945 H   0  0  0  0  0  0  0  0  0  0  0  0
   -2.0178   -3.6800   -0.0510 H   0  0  0  0  0  0  0  0  0  0  0  0
   -3.6095   -3.0194    1.7220 H   0  0  0  0  0  0  0  0  0  0  0  0
   -5.7765   -1.9483    2.3473 H   0  0  0  0  0  0  0  0  0  0  0  0
   -6.9895   -0.5022    0.6911 H   0  0  0  0  0  0  0  0  0  0  0  0
   -6.0210   -0.1596   -1.5986 H   0  0  0  0  0  0  0  0  0  0  0  0
   -3.8462   -1.2293   -2.2122 H   0  0  0  0  0  0  0  0  0  0  0  0
   -2.2773    1.9522   -1.8021 H   0  0  0  0  0  0  0  0  0  0  0  0
   -2.2955    4.1173   -3.0813 H   0  0  0  0  0  0  0  0  0  0  0  0
   -0.2454    5.5558   -3.1343 H   0  0  0  0  0  0  0  0  0  0  0  0
    1.8268    4.8342   -1.9243 H   0  0  0  0  0  0  0  0  0  0  0  0
    1.8487    2.6479   -0.6659 H   0  0  0  0  0  0  0  0  0  0  0  0
    0.7249    1.5738    2.3904 H   0  0  0  0  0  0  0  0  0  0  0  0
   -0.4938    2.2499    4.4876 H   0  0  0  0  0  0  0  0  0  0  0  0
   -2.9918    2.0762    4.5918 H   0  0  0  0  0  0  0  0  0  0  0  0
   -4.2754    1.2425    2.6001 H   0  0  0  0  0  0  0  0  0  0  0  0
   -3.0671    0.6069    0.5061 H   0  0  0  0  0  0  0  0  0  0  0  0
  1 20  1  0  0  0  0
  2  3  1  0  0  0  0
  2  1  1  0  0  0  0
  3 27  1  1  0  0  0
  4  3  1  0  0  0  0
  4 28  1  0  0  0  0
  5  7  1  6  0  0  0
  5  4  1  0  0  0  0
  6  5  1  0  0  0  0
  6  2  1  0  0  0  0
  7 33  1  0  0  0  0
  8  9  1  0  0  0  0
  8  3  1  0  0  0  0
  8 35  1  0  0  0  0
  9 25  1  0  0  0  0
 10 22  2  0  0  0  0
 10 21  1  0  0  0  0
 11 37  1  0  0  0  0
 12 26  2  0  0  0  0
 13 41  1  0  0  0  0
 13 17  2  0  0  0  0
 14 16  1  0  0  0  0
 15 12  1  0  0  0  0
 15  9  2  0  0  0  0
 16 18  2  0  0  0  0
 16 47  1  0  0  0  0
 17  1  1  0  0  0  0
 18 48  1  0  0  0  0
 19 24  2  0  0  0  0
 20 19  1  0  0  0  0
 20 14  2  0  0  0  0
 21 23  2  0  0  0  0
 22 13  1  0  0  0  0
 23 17  1  0  0  0  0
 23 45  1  0  0  0  0
 24 49  1  0  0  0  0
 24 18  1  0  0  0  0
 25 11  2  0  0  0  0
 25 36  1  0  0  0  0
 26 38  1  0  0  0  0
 26 11  1  0  0  0  0
 29  6  1  0  0  0  0
 30  6  1  0  0  0  0
 31  7  1  0  0  0  0
 32  7  1  0  0  0  0
 34  8  1  0  0  0  0
 39 12  1  0  0  0  0
 40 15  1  0  0  0  0
 42 22  1  0  0  0  0
 43 10  1  0  0  0  0
 44 21  1  0  0  0  0
 46 14  1  0  0  0  0
 50 19  1  0  0  0  0
M  END
