4
q = -1.0, confidence = 0.0

 34 36  0  0  0  0  0  0  0  0999 V2000
   -2.0830    0.2257   -1.5435 C   0  0  0  0  0  0  0  0  0  0  0  0
   -2.2323    1.2889   -0.6113 C   0  0  0  0  0  0  0  0  0  0  0  0
   -3.0924    1.4214    0.0530 H   0  0  0  0  0  0  0  0  0  0  0  0
   -1.0552    2.0897   -0.6389 C   0  0  0  0  0  3  0  0  0  0  0  0
   -0.8711    2.9839   -0.0315 H   0  0  0  0  0  0  0  0  0  0  0  0
   -0.1816    1.5426   -1.6345 C   0  0  0  0  0  0  0  0  0  0  0  0
    0.7884    1.9429   -1.9459 H   0  0  0  0  0  0  0  0  0  0  0  0
   -0.7999    0.3855   -2.1634 C   0  0  0  0  0  0  0  0  0  0  0  0
   -0.3681   -0.2946   -2.9068 H   0  0  0  0  0  0  0  0  0  0  0  0
   -3.0869   -0.8520   -1.8696 C   0  0  0  0  0  0  0  0  0  0  0  0
   -3.6342   -0.5363   -2.7874 H   0  0  0  0  0  0  0  0  0  0  0  0
   -2.5264   -1.7695   -2.1391 H   0  0  0  0  0  0  0  0  0  0  0  0
   -4.0525   -1.1354   -0.7588 C   0  0  0  0  0  0  0  0  0  0  0  0
   -3.9120   -2.1162    0.2125 C   0  0  0  0  0  0  0  0  0  0  0  0
   -3.1189   -2.8656    0.3191 H   0  0  0  0  0  0  0  0  0  0  0  0
   -4.9164   -2.0092    1.1554 N   0  0  0  0  0  0  0  0  0  0  0  0
   -5.0058   -2.7637    2.3829 C   0  0  0  0  0  0  0  0  0  0  0  0
   -4.3348   -3.6404    2.3220 H   0  0  0  0  0  0  0  0  0  0  0  0
   -6.0407   -3.1283    2.5486 H   0  0  0  0  0  0  0  0  0  0  0  0
   -4.7016   -2.1504    3.2589 H   0  0  0  0  0  0  0  0  0  0  0  0
   -5.7200   -0.9295    0.8213 C   0  0  0  0  0  0  0  0  0  0  0  0
   -5.2076   -0.3595   -0.3875 C   0  0  0  0  0  0  0  0  0  0  0  0
   -5.8412    0.7742   -0.9518 C   0  0  0  0  0  0  0  0  0  0  0  0
   -5.4457    1.2176   -1.8757 H   0  0  0  0  0  0  0  0  0  0  0  0
   -6.9636    1.3082   -0.3005 C   0  0  0  0  0  0  0  0  0  0  0  0
   -7.6624    2.4023   -0.7401 O   0  0  0  0  0  0  0  0  0  0  0  0
   -7.2200    3.0348   -1.9191 C   0  0  0  0  0  0  0  0  0  0  0  0
   -6.1799    3.4243   -1.8213 H   0  0  0  0  0  0  0  0  0  0  0  0
   -7.9047    3.8849   -2.1006 H   0  0  0  0  0  0  0  0  0  0  0  0
   -7.2527    2.3518   -2.7995 H   0  0  0  0  0  0  0  0  0  0  0  0
   -7.4577    0.7269    0.9013 C   0  0  0  0  0  0  0  0  0  0  0  0
   -8.3369    1.1929    1.3684 H   0  0  0  0  0  0  0  0  0  0  0  0
   -6.8445   -0.3897    1.4710 C   0  0  0  0  0  0  0  0  0  0  0  0
   -7.2329   -0.8216    2.4052 H   0  0  0  0  0  0  0  0  0  0  0  0
  1  2  2  0  0  0  0
  2  3  1  0  0  0  0
  4  2  1  0  0  0  0
  4  5  1  0  0  0  0
  6  4  1  0  0  0  0
  7  6  1  0  0  0  0
  8  6  2  0  0  0  0
  8  1  1  0  0  0  0
  9  8  1  0  0  0  0
 10  1  1  0  0  0  0
 10 13  1  0  0  0  0
 11 10  1  0  0  0  0
 12 10  1  0  0  0  0
 13 22  1  0  0  0  0
 13 14  2  0  0  0  0
 14 15  1  0  0  0  0
 14 16  1  0  0  0  0
 16 17  1  0  0  0  0
 17 19  1  0  0  0  0
 17 20  1  0  0  0  0
 18 17  1  0  0  0  0
 21 16  1  0  0  0  0
 21 33  1  0  0  0  0
 22 21  2  0  0  0  0
 23 22  1  0  0  0  0
 23 25  2  0  0  0  0
 24 23  1  0  0  0  0
 25 31  1  0  0  0  0
 26 25  1  0  0  0  0
 27 28  1  0  0  0  0
 27 26  1  0  0  0  0
 29 27  1  0  0  0  0
 30 27  1  0  0  0  0
 31 32  1  0  0  0  0
 31 33  2  0  0  0  0
 33 34  1  0  0  0  0
M  END
