10
q = 0.0, confidence = 0.982

 34 35  0  0  0  0  0  0  0  0999 V2000
   -1.0599    0.2167    0.7166 P   0  0  0  0  0  0  0  0  0  0  0  0
   -1.4164    0.0558    2.5265 C   0  0  0  0  0  0  0  0  0  0  0  0
   -1.8588    1.0073    2.8821 H   0  0  0  0  0  0  0  0  0  0  0  0
   -2.1889   -0.7305    2.6222 H   0  0  0  0  0  0  0  0  0  0  0  0
   -0.1088   -0.3483    3.2307 C   0  0  0  0  0  0  0  0  0  0  0  0
    0.0468    0.2626    4.1452 H   0  0  0  0  0  0  0  0  0  0  0  0
   -0.1852   -1.4024    3.5536 H   0  0  0  0  0  0  0  0  0  0  0  0
    1.1287   -0.2013    2.3552 C   0  0  0  0  0  3  0  0  0  0  0  0
    1.5312    0.8217    2.2524 H   0  0  0  0  0  0  0  0  0  0  0  0
    2.0233   -1.2688    2.1474 C   0  0  0  0  0  3  0  0  0  0  0  0
    1.7724   -2.2674    2.5389 H   0  0  0  0  0  0  0  0  0  0  0  0
    3.0916   -1.0732    1.9762 H   0  0  0  0  0  0  0  0  0  0  0  0
   -2.6082   -0.2098   -0.1665 C   0  0  0  0  0  0  0  0  0  0  0  0
   -2.7587   -1.4207   -0.8707 C   0  0  0  0  0  0  0  0  0  0  0  0
   -1.9320   -2.1436   -0.8900 H   0  0  0  0  0  0  0  0  0  0  0  0
   -3.9823   -1.7265   -1.4854 C   0  0  0  0  0  0  0  0  0  0  0  0
   -4.0938   -2.6751   -2.0313 H   0  0  0  0  0  0  0  0  0  0  0  0
   -5.0632   -0.8367   -1.3922 C   0  0  0  0  0  0  0  0  0  0  0  0
   -6.0219   -1.0810   -1.8736 H   0  0  0  0  0  0  0  0  0  0  0  0
   -4.9237    0.3622   -0.6741 C   0  0  0  0  0  0  0  0  0  0  0  0
   -5.7714    1.0582   -0.5882 H   0  0  0  0  0  0  0  0  0  0  0  0
   -3.7029    0.6794   -0.0631 C   0  0  0  0  0  0  0  0  0  0  0  0
   -3.6040    1.6257    0.4900 H   0  0  0  0  0  0  0  0  0  0  0  0
   -0.8594    2.0166    0.4017 C   0  0  0  0  0  0  0  0  0  0  0  0
   -1.2328    2.5699   -0.8443 C   0  0  0  0  0  0  0  0  0  0  0  0
   -1.7327    1.9437   -1.5989 H   0  0  0  0  0  0  0  0  0  0  0  0
   -1.0031    3.9267   -1.1168 C   0  0  0  0  0  0  0  0  0  0  0  0
   -1.3068    4.3457   -2.0876 H   0  0  0  0  0  0  0  0  0  0  0  0
   -0.3982    4.7481   -0.1517 C   0  0  0  0  0  0  0  0  0  0  0  0
   -0.2211    5.8127   -0.3652 H   0  0  0  0  0  0  0  0  0  0  0  0
   -0.0375    4.2101    1.0938 C   0  0  0  0  0  0  0  0  0  0  0  0
    0.4187    4.8523    1.8618 H   0  0  0  0  0  0  0  0  0  0  0  0
   -0.2683    2.8542    1.3720 C   0  0  0  0  0  0  0  0  0  0  0  0
    0.0073    2.4610    2.3610 H   0  0  0  0  0  0  0  0  0  0  0  0
  1  2  1  0  0  0  0
  2  4  1  0  0  0  0
  2  3  1  0  0  0  0
  2  5  1  0  0  0  0
  5  7  1  0  0  0  0
  5  6  1  0  0  0  0
  8  5  1  0  0  0  0
  9  8  1  0  0  0  0
 10  8  1  0  0  0  0
 10 11  1  0  0  0  0
 12 10  1  0  0  0  0
 13 22  1  0  0  0  0
 13  1  1  0  0  0  0
 14 13  2  0  0  0  0
 15 14  1  0  0  0  0
 16 18  2  0  0  0  0
 16 14  1  0  0  0  0
 17 16  1  0  0  0  0
 18 20  1  0  0  0  0
 19 18  1  0  0  0  0
 20 21  1  0  0  0  0
 20 22  2  0  0  0  0
 22 23  1  0  0  0  0
 24  1  1  0  0  0  0
 24 33  1  0  0  0  0
 25 24  2  0  0  0  0
 26 25  1  0  0  0  0
 27 25  1  0  0  0  0
 27 29  2  0  0  0  0
 28 27  1  0  0  0  0
 29 31  1  0  0  0  0
 30 29  1  0  0  0  0
 31 33  2  0  0  0  0
 31 32  1  0  0  0  0
 33 34  1  0  0  0  0
M  END
