12
q = -2.0, confidence = 0.874

 36 37  0  0  1  0  0  0  0  0999 V2000
    2.4166    1.4951   -0.0458 Si  0  0  0  0  0  0  0  0  0  0  0  0
    2.3747   -0.3607    0.3034 C   0  0  0  0  0  0  0  0  0  0  0  0
    1.9035   -0.9612    1.5159 C   0  0  0  0  0  3  0  0  0  0  0  0
    1.8176   -0.4608    2.4892 H   0  0  0  0  0  0  0  0  0  0  0  0
    1.5293   -2.3153    1.2523 C   0  0  0  0  0  0  0  0  0  0  0  0
    1.1153   -3.0215    1.9814 H   0  0  0  0  0  0  0  0  0  0  0  0
    1.7469   -2.5662   -0.1256 C   0  0  0  0  0  0  0  0  0  0  0  0
    1.5315   -3.5030   -0.6521 H   0  0  0  0  0  0  0  0  0  0  0  0
    2.2381   -1.3652   -0.7187 C   0  0  0  0  0  0  0  0  0  0  0  0
    2.4805   -1.2371   -1.7822 H   0  0  0  0  0  0  0  0  0  0  0  0
    0.5922    1.6002   -0.5212 C   0  0  1  0  0  3  0  0  0  0  0  0
    0.0464    1.0420   -1.7294 C   0  0  0  0  0  3  0  0  0  0  0  0
    0.6111    0.7969   -2.6391 H   0  0  0  0  0  0  0  0  0  0  0  0
   -1.3597    0.8687   -1.5630 C   0  0  0  0  0  0  0  0  0  0  0  0
   -2.0435    0.4562   -2.3129 H   0  0  0  0  0  0  0  0  0  0  0  0
   -1.7164    1.2777   -0.2482 C   0  0  0  0  0  0  0  0  0  0  0  0
   -0.5048    1.7026    0.3942 C   0  0  0  0  0  3  0  0  0  0  0  0
   -0.4411    2.0459    1.4359 H   0  0  0  0  0  0  0  0  0  0  0  0
   -3.0999    1.3360    0.3545 C   0  0  0  0  0  0  0  0  0  0  0  0
   -2.9930    1.0280    1.4175 H   0  0  0  0  0  0  0  0  0  0  0  0
   -4.0787    0.3684   -0.3190 C   0  0  0  0  0  0  0  0  0  0  0  0
   -4.2676    0.6531   -1.3753 H   0  0  0  0  0  0  0  0  0  0  0  0
   -5.0557    0.3785    0.2040 H   0  0  0  0  0  0  0  0  0  0  0  0
   -3.6919   -0.6699   -0.3074 H   0  0  0  0  0  0  0  0  0  0  0  0
   -3.6234    2.7845    0.3256 C   0  0  0  0  0  0  0  0  0  0  0  0
   -3.7425    3.1414   -0.7186 H   0  0  0  0  0  0  0  0  0  0  0  0
   -2.9303    3.4788    0.8417 H   0  0  0  0  0  0  0  0  0  0  0  0
   -4.6118    2.8522    0.8244 H   0  0  0  0  0  0  0  0  0  0  0  0
    3.5457    1.9156   -1.4896 C   0  0  0  0  0  0  0  0  0  0  0  0
    3.4508    2.9862   -1.7625 H   0  0  0  0  0  0  0  0  0  0  0  0
    3.2951    1.3136   -2.3860 H   0  0  0  0  0  0  0  0  0  0  0  0
    4.6052    1.7151   -1.2309 H   0  0  0  0  0  0  0  0  0  0  0  0
    2.7886    2.4870    1.5076 C   0  0  0  0  0  0  0  0  0  0  0  0
    2.6758    3.5733    1.3156 H   0  0  0  0  0  0  0  0  0  0  0  0
    3.8260    2.3029    1.8532 H   0  0  0  0  0  0  0  0  0  0  0  0
    2.1009    2.2143    2.3330 H   0  0  0  0  0  0  0  0  0  0  0  0
  1  2  1  0  0  0  0
  1 33  1  0  0  0  0
  2  3  1  0  0  0  0
  3  4  1  0  0  0  0
  5  3  1  0  0  0  0
  5  6  1  0  0  0  0
  7  5  2  0  0  0  0
  8  7  1  0  0  0  0
  9  7  1  0  0  0  0
  9  2  2  0  0  0  0
 10  9  1  0  0  0  0
 11  1  1  1  0  0  0
 11 17  1  0  0  0  0
 12 14  1  0  0  0  0
 12 11  1  0  0  0  0
 13 12  1  0  0  0  0
 14 16  2  0  0  0  0
 15 14  1  0  0  0  0
 16 19  1  0  0  0  0
 16 17  1  0  0  0  0
 17 18  1  0  0  0  0
 19 20  1  0  0  0  0
 21 24  1  0  0  0  0
 21 23  1  0  0  0  0
 21 19  1  0  0  0  0
 22 21  1  0  0  0  0
 25 19  1  0  0  0  0
 25 28  1  0  0  0  0
 25 27  1  0  0  0  0
 26 25  1  0  0  0  0
 29 32  1  0  0  0  0
 29  1  1  0  0  0  0
 30 29  1  0  0  0  0
 31 29  1  0  0  0  0
 33 35  1  0  0  0  0
 33 36  1  0  0  0  0
 34 33  1  0  0  0  0
M  END
