1
q = 0.0, confidence = 0.994

 38 40  0  0  0  0  0  0  0  0999 V2000
    0.0787   -0.0591   -1.1493 C   0  0  0  0  0  2  0  0  0  0  0  0
    0.4107   -0.0523   -2.4316 N   0  0  0  0  0  0  0  0  0  0  0  0
    1.3929   -0.0267   -2.7536 H   0  0  0  0  0  0  0  0  0  0  0  0
   -0.3104   -0.0758   -3.1645 H   0  0  0  0  0  0  0  0  0  0  0  0
    1.5901    0.0707    0.0415 Si  0  0  0  0  0  0  0  0  0  0  0  0
    3.1649    0.1101   -1.0251 C   0  0  0  0  0  0  0  0  0  0  0  0
    3.4689   -1.0328   -1.8071 C   0  0  0  0  0  0  0  0  0  0  0  0
    2.8218   -1.9248   -1.7480 H   0  0  0  0  0  0  0  0  0  0  0  0
    4.6001   -1.0676   -2.6376 C   0  0  0  0  0  0  0  0  0  0  0  0
    4.8170   -1.9673   -3.2339 H   0  0  0  0  0  0  0  0  0  0  0  0
    5.4620    0.0395   -2.6932 C   0  0  0  0  0  0  0  0  0  0  0  0
    6.3529    0.0137   -3.3391 H   0  0  0  0  0  0  0  0  0  0  0  0
    5.1886    1.1743   -1.9135 C   0  0  0  0  0  0  0  0  0  0  0  0
    5.8691    2.0393   -1.9429 H   0  0  0  0  0  0  0  0  0  0  0  0
    4.0510    1.2092   -1.0913 C   0  0  0  0  0  0  0  0  0  0  0  0
    3.8572    2.1040   -0.4797 H   0  0  0  0  0  0  0  0  0  0  0  0
    1.6887   -1.4595    1.1341 C   0  0  0  0  0  0  0  0  0  0  0  0
    2.5146   -1.4512    2.2817 C   0  0  0  0  0  0  0  0  0  0  0  0
    3.0622   -0.5362    2.5598 H   0  0  0  0  0  0  0  0  0  0  0  0
    2.6518   -2.5980    3.0779 C   0  0  0  0  0  0  0  0  0  0  0  0
    3.2926   -2.5709    3.9726 H   0  0  0  0  0  0  0  0  0  0  0  0
    1.9734   -3.7784    2.7337 C   0  0  0  0  0  0  0  0  0  0  0  0
    2.0772   -4.6770    3.3609 H   0  0  0  0  0  0  0  0  0  0  0  0
    1.1648   -3.8096    1.5870 C   0  0  0  0  0  0  0  0  0  0  0  0
    0.6322   -4.7319    1.3091 H   0  0  0  0  0  0  0  0  0  0  0  0
    1.0261   -2.6597    0.7951 C   0  0  0  0  0  0  0  0  0  0  0  0
    0.3781   -2.6970   -0.0930 H   0  0  0  0  0  0  0  0  0  0  0  0
    1.3646    1.6829    0.9904 C   0  0  0  0  0  0  0  0  0  0  0  0
    1.4217    2.9096    0.2870 C   0  0  0  0  0  0  0  0  0  0  0  0
    1.6237    2.9151   -0.7965 H   0  0  0  0  0  0  0  0  0  0  0  0
    1.1968    4.1292    0.9410 C   0  0  0  0  0  0  0  0  0  0  0  0
    1.2372    5.0721    0.3747 H   0  0  0  0  0  0  0  0  0  0  0  0
    0.9018    4.1437    2.3134 C   0  0  0  0  0  0  0  0  0  0  0  0
    0.7169    5.0993    2.8274 H   0  0  0  0  0  0  0  0  0  0  0  0
    0.8284    2.9361    3.0244 C   0  0  0  0  0  0  0  0  0  0  0  0
    0.5837    2.9415    4.0975 H   0  0  0  0  0  0  0  0  0  0  0  0
    1.0570    1.7163    2.3688 C   0  0  0  0  0  0  0  0  0  0  0  0
    0.9751    0.7771    2.9364 H   0  0  0  0  0  0  0  0  0  0  0  0
  1  5  1  0  0  0  0
  2  1  1  0  0  0  0
  3  2  1  0  0  0  0
  4  2  1  0  0  0  0
  5 28  1  0  0  0  0
  5 17  1  0  0  0  0
  6  5  1  0  0  0  0
  7  8  1  0  0  0  0
  7  6  2  0  0  0  0
  9  7  1  0  0  0  0
 10  9  1  0  0  0  0
 11  9  2  0  0  0  0
 11 13  1  0  0  0  0
 12 11  1  0  0  0  0
 13 15  2  0  0  0  0
 14 13  1  0  0  0  0
 15  6  1  0  0  0  0
 15 16  1  0  0  0  0
 17 18  1  0  0  0  0
 18 19  1  0  0  0  0
 18 20  2  0  0  0  0
 20 21  1  0  0  0  0
 22 20  1  0  0  0  0
 22 23  1  0  0  0  0
 24 22  2  0  0  0  0
 25 24  1  0  0  0  0
 26 17  2  0  0  0  0
 26 24  1  0  0  0  0
 27 26  1  0  0  0  0
 28 37  1  0  0  0  0
 29 31  1  0  0  0  0
 29 28  2  0  0  0  0
 30 29  1  0  0  0  0
 31 33  2  0  0  0  0
 32 31  1  0  0  0  0
 33 34  1  0  0  0  0
 33 35  1  0  0  0  0
 35 36  1  0  0  0  0
 37 38  1  0  0  0  0
 37 35  2  0  0  0  0
M  END
