2
q = 0.0, confidence = 0.982

 13 12  0  0  0  0  0  0  0  0999 V2000
    2.3516   -1.0099    0.1522 O   0  0  0  0  0  0  0  0  0  0  0  0
    0.4038   -1.3018    1.5372 C   0  0  0  0  0  3  0  0  0  0  0  0
    1.0653   -1.4515    0.2888 C   0  0  0  0  0  3  0  0  0  0  0  0
    2.6873   -0.5354   -1.1517 C   0  0  0  0  0  0  0  0  0  0  0  0
    3.9433    0.3055   -1.0271 C   0  0  0  0  0  0  0  0  0  0  0  0
    2.8267   -1.3993   -1.8491 H   0  0  0  0  0  0  0  0  0  0  0  0
    1.8472    0.0861   -1.5339 H   0  0  0  0  0  0  0  0  0  0  0  0
    4.2653    0.6803   -2.0199 H   0  0  0  0  0  0  0  0  0  0  0  0
    4.7748   -0.2797   -0.5825 H   0  0  0  0  0  0  0  0  0  0  0  0
    3.7200    1.1682   -0.3685 H   0  0  0  0  0  0  0  0  0  0  0  0
   -0.3581   -2.0435    1.8245 H   0  0  0  0  0  0  0  0  0  0  0  0
    0.9319   -0.7602    2.3386 H   0  0  0  0  0  0  0  0  0  0  0  0
    0.7399   -2.2310   -0.4313 H   0  0  0  0  0  0  0  0  0  0  0  0
  1  3  1  0  0  0  0
  2 11  1  0  0  0  0
  2 12  1  0  0  0  0
  3  2  1  0  0  0  0
  4  5  1  0  0  0  0
  4  1  1  0  0  0  0
  5  9  1  0  0  0  0
  5 10  1  0  0  0  0
  6  4  1  0  0  0  0
  7  4  1  0  0  0  0
  8  5  1  0  0  0  0
 13  3  1  0  0  0  0
M  END
