4
q = -1.0, confidence = 0.002

 18 19  0  0  0  0  0  0  0  0999 V2000
    1.1752    2.3052   -0.8400 O   0  0  0  0  0  0  0  0  0  0  0  0
    1.1700   -2.3141   -0.8209 O   0  0  0  0  0  0  0  0  0  0  0  0
    0.8248   -0.0042   -0.8792 N   0  0  0  0  0  0  0  0  0  0  0  0
   -0.5483   -0.0057   -1.2878 C   0  0  0  0  0  3  0  0  0  0  0  0
   -0.7135   -0.9261   -1.8783 H   0  0  0  0  0  0  0  0  0  0  0  0
   -0.7136    0.9044   -1.8941 H   0  0  0  0  0  0  0  0  0  0  0  0
    1.5838    1.1678   -0.6713 C   0  0  0  0  0  0  0  0  0  0  0  0
    2.9376    0.6991   -0.2373 C   0  0  0  0  0  0  0  0  0  0  0  0
    4.0747    1.4272    0.1118 C   0  0  0  0  0  0  0  0  0  0  0  0
    4.0614    2.5271    0.1005 H   0  0  0  0  0  0  0  0  0  0  0  0
    5.2261    0.7003    0.4768 C   0  0  0  0  0  0  0  0  0  0  0  0
    6.1420    1.2398    0.7619 H   0  0  0  0  0  0  0  0  0  0  0  0
    5.2246   -0.7075    0.4826 C   0  0  0  0  0  0  0  0  0  0  0  0
    6.1393   -1.2466    0.7722 H   0  0  0  0  0  0  0  0  0  0  0  0
    4.0716   -1.4349    0.1236 C   0  0  0  0  0  0  0  0  0  0  0  0
    4.0559   -2.5348    0.1215 H   0  0  0  0  0  0  0  0  0  0  0  0
    2.9361   -0.7072   -0.2315 C   0  0  0  0  0  0  0  0  0  0  0  0
    1.5813   -1.1764   -0.6614 C   0  0  0  0  0  0  0  0  0  0  0  0
  1  7  2  0  0  0  0
  2 18  2  0  0  0  0
  3  7  1  0  0  0  0
  3 18  1  0  0  0  0
  4  3  1  0  0  0  0
  5  4  1  0  0  0  0
  6  4  1  0  0  0  0
  7  8  1  0  0  0  0
  8 17  2  0  0  0  0
  8  9  1  0  0  0  0
  9 11  2  0  0  0  0
 10  9  1  0  0  0  0
 11 13  1  0  0  0  0
 11 12  1  0  0  0  0
 13 14  1  0  0  0  0
 15 13  2  0  0  0  0
 16 15  1  0  0  0  0
 17 15  1  0  0  0  0
 18 17  1  0  0  0  0
M  END
