7
q = -2.0, confidence = 0.912

 43 46  0  0  1  0  0  0  0  0999 V2000
   -1.1665   -2.2143   -2.8488 C   0  0  0  0  0  0  0  0  0  0  0  0
   -1.6247   -3.1286   -3.2454 H   0  0  0  0  0  0  0  0  0  0  0  0
   -0.9992   -0.9845   -3.5734 C   0  0  0  0  0  0  0  0  0  0  0  0
   -1.3353   -0.7911   -4.6000 H   0  0  0  0  0  0  0  0  0  0  0  0
   -0.3729   -0.0606   -2.7164 C   0  0  0  0  0  0  0  0  0  0  0  0
   -0.1409    0.9824   -2.9664 H   0  0  0  0  0  0  0  0  0  0  0  0
   -0.1823   -0.6677   -1.4173 C   0  0  1  0  0  3  0  0  0  0  0  0
   -0.6406   -2.0446   -1.5396 C   0  0  0  0  0  0  0  0  0  0  0  0
   -0.5616   -2.8177   -0.7668 H   0  0  0  0  0  0  0  0  0  0  0  0
    0.0049    1.5091    0.2700 C   0  0  0  0  0  0  0  0  0  0  0  0
   -1.1816    2.0921   -0.1671 C   0  0  0  0  0  0  0  0  0  0  0  0
   -1.7289    3.2901    0.3157 C   0  0  0  0  0  0  0  0  0  0  0  0
   -1.0314    3.9848    1.3131 C   0  0  0  0  0  0  0  0  0  0  0  0
    0.1774    3.4539    1.7996 C   0  0  0  0  0  0  0  0  0  0  0  0
    0.6533    2.2371    1.2869 C   0  0  0  0  0  0  0  0  0  0  0  0
    0.1674   -0.8757    1.2155 C   0  0  0  0  0  0  0  0  0  0  0  0
   -1.1840   -1.1343    1.4474 C   0  0  0  0  0  0  0  0  0  0  0  0
   -1.7143   -1.8623    2.5169 C   0  0  0  0  0  0  0  0  0  0  0  0
   -0.8153   -2.3525    3.4780 C   0  0  0  0  0  0  0  0  0  0  0  0
    0.5588   -2.0996    3.3246 C   0  0  0  0  0  0  0  0  0  0  0  0
    1.0243   -1.3629    2.2174 C   0  0  0  0  0  0  0  0  0  0  0  0
    2.1343   -0.0493   -0.5662 C   0  0  0  0  0  0  0  0  0  0  0  0
    2.8022   -1.2833   -0.6536 C   0  0  0  0  0  0  0  0  0  0  0  0
    4.1233   -1.4258   -1.1023 C   0  0  0  0  0  0  0  0  0  0  0  0
    4.8244   -0.2864   -1.5295 C   0  0  0  0  0  0  0  0  0  0  0  0
    4.1910    0.9646   -1.4947 C   0  0  0  0  0  0  0  0  0  0  0  0
    2.8650    1.0540   -1.0347 C   0  0  0  0  0  0  0  0  0  0  0  0
    0.5551    0.0031   -0.1257 B   0  0  0  0  0  0  0  0  0  0  0  0
   -1.9541    1.5004   -1.1636 F   0  0  0  0  0  0  0  0  0  0  0  0
   -2.8951    3.7557   -0.1555 F   0  0  0  0  0  0  0  0  0  0  0  0
   -1.5097    5.1324    1.7995 F   0  0  0  0  0  0  0  0  0  0  0  0
    0.8446    4.1043    2.7567 F   0  0  0  0  0  0  0  0  0  0  0  0
    1.7879    1.7576    1.8226 F   0  0  0  0  0  0  0  0  0  0  0  0
   -2.1323   -0.6054    0.5782 F   0  0  0  0  0  0  0  0  0  0  0  0
   -3.0341   -2.0707    2.6393 F   0  0  0  0  0  0  0  0  0  0  0  0
   -1.2622   -3.0475    4.5266 F   0  0  0  0  0  0  0  0  0  0  0  0
    1.4137   -2.5557    4.2438 F   0  0  0  0  0  0  0  0  0  0  0  0
    2.3451   -1.1480    2.1652 F   0  0  0  0  0  0  0  0  0  0  0  0
    2.1651   -2.4211   -0.2945 F   0  0  0  0  0  0  0  0  0  0  0  0
    4.7120   -2.6281   -1.1459 F   0  0  0  0  0  0  0  0  0  0  0  0
    6.0822   -0.3946   -1.9705 F   0  0  0  0  0  0  0  0  0  0  0  0
    4.8442    2.0552   -1.9171 F   0  0  0  0  0  0  0  0  0  0  0  0
    2.3086    2.2849   -1.0815 F   0  0  0  0  0  0  0  0  0  0  0  0
  1  8  2  0  0  0  0
  2  1  1  0  0  0  0
  3  1  1  0  0  0  0
  3  5  2  0  0  0  0
  4  3  1  0  0  0  0
  5  7  1  0  0  0  0
  6  5  1  0  0  0  0
  7 28  1  6  0  0  0
  8  7  1  0  0  0  0
  8  9  1  0  0  0  0
 10 15  1  0  0  0  0
 11 10  2  0  0  0  0
 11 12  1  0  0  0  0
 12 13  2  0  0  0  0
 13 31  1  0  0  0  0
 13 14  1  0  0  0  0
 14 32  1  0  0  0  0
 15 14  2  0  0  0  0
 15 33  1  0  0  0  0
 16 17  2  0  0  0  0
 16 21  1  0  0  0  0
 17 18  1  0  0  0  0
 18 35  1  0  0  0  0
 18 19  2  0  0  0  0
 19 36  1  0  0  0  0
 20 19  1  0  0  0  0
 20 37  1  0  0  0  0
 21 20  2  0  0  0  0
 22 28  1  0  0  0  0
 23 22  1  0  0  0  0
 23 39  1  0  0  0  0
 24 23  2  0  0  0  0
 25 26  2  0  0  0  0
 25 24  1  0  0  0  0
 26 27  1  0  0  0  0
 27 22  2  0  0  0  0
 28 10  1  0  0  0  0
 28 16  1  0  0  0  0
 29 11  1  0  0  0  0
 30 12  1  0  0  0  0
 34 17  1  0  0  0  0
 38 21  1  0  0  0  0
 40 24  1  0  0  0  0
 41 25  1  0  0  0  0
 42 26  1  0  0  0  0
 43 27  1  0  0  0  0
M  END
