1
q = -1.0, confidence = 0.0

 21 20  0  0  0  0  0  0  0  0999 V2000
    0.5664    1.0234   -0.1393 C   0  0  0  0  0  2  0  0  0  0  0  0
    1.8379    0.4059   -0.4785 C   0  0  0  0  0  0  0  0  0  0  0  0
    2.0278   -0.8994   -0.0296 C   0  0  0  0  0  0  0  0  0  0  0  0
    0.5907   -1.7600    0.7977 Se  0  0  0  0  0  1  0  0  0  0  0  0
    0.5452    2.3683    0.0661 N   0  0  0  0  0  0  0  0  0  0  0  0
   -0.6916    3.1252    0.1929 C   0  0  0  0  0  0  0  0  0  0  0  0
   -1.5267    2.5370   -0.2152 H   0  0  0  0  0  0  0  0  0  0  0  0
   -0.6020    4.0849   -0.3593 H   0  0  0  0  0  0  0  0  0  0  0  0
   -0.9151    3.3546    1.2581 H   0  0  0  0  0  0  0  0  0  0  0  0
    1.7239    3.1463    0.4461 C   0  0  0  0  0  0  0  0  0  0  0  0
    2.5330    2.4749    0.7795 H   0  0  0  0  0  0  0  0  0  0  0  0
    1.4536    3.8062    1.2969 H   0  0  0  0  0  0  0  0  0  0  0  0
    2.0998    3.7910   -0.3774 H   0  0  0  0  0  0  0  0  0  0  0  0
    2.9059    1.0848   -1.3164 C   0  0  0  0  0  0  0  0  0  0  0  0
    3.8000    1.4207   -0.7452 H   0  0  0  0  0  0  0  0  0  0  0  0
    2.5017    1.9681   -1.8468 H   0  0  0  0  0  0  0  0  0  0  0  0
    3.2787    0.3866   -2.0947 H   0  0  0  0  0  0  0  0  0  0  0  0
    3.3260   -1.6371   -0.1930 C   0  0  0  0  0  0  0  0  0  0  0  0
    3.5183   -1.8561   -1.2668 H   0  0  0  0  0  0  0  0  0  0  0  0
    3.3225   -2.6012    0.3494 H   0  0  0  0  0  0  0  0  0  0  0  0
    4.1878   -1.0341    0.1647 H   0  0  0  0  0  0  0  0  0  0  0  0
  1  5  1  0  0  0  0
  2  1  1  0  0  0  0
  2  3  2  0  0  0  0
  3  4  1  0  0  0  0
  5  6  1  0  0  0  0
  5 10  1  0  0  0  0
  6  9  1  0  0  0  0
  7  6  1  0  0  0  0
  8  6  1  0  0  0  0
 10 11  1  0  0  0  0
 10 12  1  0  0  0  0
 13 10  1  0  0  0  0
 14 15  1  0  0  0  0
 14  2  1  0  0  0  0
 16 14  1  0  0  0  0
 17 14  1  0  0  0  0
 18  3  1  0  0  0  0
 18 21  1  0  0  0  0
 18 20  1  0  0  0  0
 19 18  1  0  0  0  0
M  END
