1
q = -1.0, confidence = 0.002

 32 33  0  0  0  0  0  0  0  0999 V2000
   -0.4443    1.1552    1.3376 C   0  0  0  0  0  3  0  0  0  0  0  0
    0.2014    2.0365    1.2457 H   0  0  0  0  0  0  0  0  0  0  0  0
   -0.1719   -0.0182    2.1004 C   0  0  0  0  0  0  0  0  0  0  0  0
   -1.2419   -0.9379    1.9279 C   0  0  0  0  0  0  0  0  0  0  0  0
    0.7488   -0.2065    2.6683 H   0  0  0  0  0  0  0  0  0  0  0  0
   -1.2762   -1.9540    2.3320 H   0  0  0  0  0  0  0  0  0  0  0  0
   -2.2418   -0.3153    1.1049 C   0  0  0  0  0  0  0  0  0  0  0  0
   -1.7270    0.9868    0.7090 C   0  0  0  0  0  0  0  0  0  0  0  0
   -3.5004   -0.7955    0.5944 C   0  0  0  0  0  0  0  0  0  0  0  0
   -3.9501   -2.0782    0.9228 N   0  0  0  0  0  0  0  0  0  0  0  0
   -4.9180   -2.7095    0.0529 C   0  0  0  0  0  0  0  0  0  0  0  0
   -4.6182   -2.5701   -1.0034 H   0  0  0  0  0  0  0  0  0  0  0  0
   -5.9610   -2.3227    0.1860 H   0  0  0  0  0  0  0  0  0  0  0  0
   -4.9396   -3.7979    0.2661 H   0  0  0  0  0  0  0  0  0  0  0  0
   -4.0882   -2.4474    2.3218 C   0  0  0  0  0  0  0  0  0  0  0  0
   -5.1182   -2.2369    2.7056 H   0  0  0  0  0  0  0  0  0  0  0  0
   -3.3807   -1.8780    2.9491 H   0  0  0  0  0  0  0  0  0  0  0  0
   -3.8882   -3.5310    2.4633 H   0  0  0  0  0  0  0  0  0  0  0  0
   -4.1576    0.0370   -0.3163 C   0  0  0  0  0  0  0  0  0  0  0  0
   -5.1143   -0.2848   -0.7486 H   0  0  0  0  0  0  0  0  0  0  0  0
   -3.6457    1.3011   -0.7138 C   0  0  0  0  0  0  0  0  0  0  0  0
   -4.2425    1.8915   -1.4224 H   0  0  0  0  0  0  0  0  0  0  0  0
   -2.4451    1.8180   -0.2251 C   0  0  0  0  0  0  0  0  0  0  0  0
   -1.8987    3.0598   -0.6287 N   0  0  0  0  0  0  0  0  0  0  0  0
   -2.4327    3.6486   -1.8405 C   0  0  0  0  0  0  0  0  0  0  0  0
   -3.4647    4.0674   -1.7198 H   0  0  0  0  0  0  0  0  0  0  0  0
   -2.4592    2.8933   -2.6502 H   0  0  0  0  0  0  0  0  0  0  0  0
   -1.7743    4.4824   -2.1599 H   0  0  0  0  0  0  0  0  0  0  0  0
   -1.6696    4.0476    0.4194 C   0  0  0  0  0  0  0  0  0  0  0  0
   -1.2639    3.5678    1.3271 H   0  0  0  0  0  0  0  0  0  0  0  0
   -2.6100    4.5822    0.7061 H   0  0  0  0  0  0  0  0  0  0  0  0
   -0.9362    4.8052    0.0724 H   0  0  0  0  0  0  0  0  0  0  0  0
  1  3  1  0  0  0  0
  2  1  1  0  0  0  0
  3  5  1  0  0  0  0
  4  3  2  0  0  0  0
  4  6  1  0  0  0  0
  7  4  1  0  0  0  0
  8  7  1  0  0  0  0
  8  1  1  0  0  0  0
  9 10  1  0  0  0  0
  9  7  2  0  0  0  0
 10 15  1  0  0  0  0
 11 13  1  0  0  0  0
 11 14  1  0  0  0  0
 11 10  1  0  0  0  0
 12 11  1  0  0  0  0
 15 18  1  0  0  0  0
 15 16  1  0  0  0  0
 15 17  1  0  0  0  0
 19  9  1  0  0  0  0
 20 19  1  0  0  0  0
 21 19  2  0  0  0  0
 21 23  1  0  0  0  0
 22 21  1  0  0  0  0
 23  8  2  0  0  0  0
 24 23  1  0  0  0  0
 24 29  1  0  0  0  0
 25 26  1  0  0  0  0
 25 24  1  0  0  0  0
 27 25  1  0  0  0  0
 28 25  1  0  0  0  0
 29 31  1  0  0  0  0
 29 30  1  0  0  0  0
 32 29  1  0  0  0  0
M  END
