1
q = 0.0, confidence = 0.998

 24 25  0  0  1  0  0  0  0  0999 V2000
    0.6507    0.9681    0.6826 C   0  0  0  0  0  3  0  0  0  0  0  0
    0.4662    1.8339    1.3325 H   0  0  0  0  0  0  0  0  0  0  0  0
    0.6518    0.9471   -0.7123 C   0  0  0  0  0  3  0  0  0  0  0  0
    0.4669    1.7920   -1.3888 H   0  0  0  0  0  0  0  0  0  0  0  0
    1.3095   -0.3920   -1.1235 C   0  0  2  0  0  0  0  0  0  0  0  0
    1.6452   -0.4665   -2.1721 H   0  0  0  0  0  0  0  0  0  0  0  0
    0.2676   -1.4411   -0.6748 C   0  0  0  0  0  0  0  0  0  0  0  0
   -0.1769   -2.2037   -1.3282 H   0  0  0  0  0  0  0  0  0  0  0  0
    0.2685   -1.4204    0.7197 C   0  0  0  0  0  0  0  0  0  0  0  0
   -0.1763   -2.1619    1.3966 H   0  0  0  0  0  0  0  0  0  0  0  0
    1.3095   -0.3569    1.1354 C   0  0  1  0  0  0  0  0  0  0  0  0
    1.6453   -0.3985    2.1858 H   0  0  0  0  0  0  0  0  0  0  0  0
    2.3775   -0.5573    0.0088 C   0  0  2  0  0  0  0  0  0  0  0  0
    2.7510   -1.6063    0.0253 H   0  0  0  0  0  0  0  0  0  0  0  0
    3.5795    0.3968   -0.0063 C   0  0  0  0  0  0  0  0  0  0  0  0
    3.1919    1.4397   -0.0210 H   0  0  0  0  0  0  0  0  0  0  0  0
    4.4310    0.2250    1.2589 C   0  0  0  0  0  0  0  0  0  0  0  0
    4.8193   -0.8129    1.3389 H   0  0  0  0  0  0  0  0  0  0  0  0
    3.8553    0.4399    2.1812 H   0  0  0  0  0  0  0  0  0  0  0  0
    5.3053    0.9071    1.2459 H   0  0  0  0  0  0  0  0  0  0  0  0
    4.4284    0.1886   -1.2678 C   0  0  0  0  0  0  0  0  0  0  0  0
    4.8152   -0.8516   -1.3195 H   0  0  0  0  0  0  0  0  0  0  0  0
    5.3035    0.8696   -1.2754 H   0  0  0  0  0  0  0  0  0  0  0  0
    3.8512    0.3785   -2.1947 H   0  0  0  0  0  0  0  0  0  0  0  0
  1 11  1  0  0  0  0
  1  2  1  0  0  0  0
  3  1  1  0  0  0  0
  4  3  1  0  0  0  0
  5  6  1  6  0  0  0
  5  3  1  0  0  0  0
  5  7  1  0  0  0  0
  5 13  1  0  0  0  0
  7  9  2  0  0  0  0
  8  7  1  0  0  0  0
  9 11  1  0  0  0  0
  9 10  1  0  0  0  0
 11 12  1  1  0  0  0
 13 14  1  1  0  0  0
 13 11  1  0  0  0  0
 15 13  1  0  0  0  0
 15 17  1  0  0  0  0
 16 15  1  0  0  0  0
 17 18  1  0  0  0  0
 17 19  1  0  0  0  0
 20 17  1  0  0  0  0
 21 15  1  0  0  0  0
 22 21  1  0  0  0  0
 23 21  1  0  0  0  0
 24 21  1  0  0  0  0
M  END
