10
q = 0.0, confidence = 0.998

 34 35  0  0  1  0  0  0  0  0999 V2000
   -2.6616   -2.8024   -0.1242 N   0  0  0  0  0  0  0  0  0  0  0  0
   -3.3959   -3.5049   -0.2236 H   0  0  0  0  0  0  0  0  0  0  0  0
   -1.8314   -3.0413   -0.6695 H   0  0  0  0  0  0  0  0  0  0  0  0
    0.0092   -1.1031    0.6232 C   0  0  0  0  0  3  0  0  0  0  0  0
   -0.0119   -2.1641    0.9142 H   0  0  0  0  0  0  0  0  0  0  0  0
    0.3434   -0.2135    1.6547 C   0  0  0  0  0  0  0  0  0  0  0  0
    0.5614   -0.6553    2.6403 H   0  0  0  0  0  0  0  0  0  0  0  0
    0.6266    1.1981    1.5551 C   0  0  0  0  0  0  0  0  0  0  0  0
    0.9091    1.6995    2.4929 H   0  0  0  0  0  0  0  0  0  0  0  0
    0.7239    1.9815    0.3773 C   0  0  0  0  0  3  0  0  0  0  0  0
    1.0724    3.0168    0.5086 H   0  0  0  0  0  0  0  0  0  0  0  0
    0.5369    1.5404   -0.9859 C   0  0  0  0  0  3  0  0  0  0  0  0
    0.8940    2.2482   -1.7512 H   0  0  0  0  0  0  0  0  0  0  0  0
    0.1170    0.2828   -1.4405 C   0  0  0  0  0  3  0  0  0  0  0  0
    0.1921    0.1328   -2.5284 H   0  0  0  0  0  0  0  0  0  0  0  0
   -0.7042   -0.7441   -0.6799 C   0  0  2  0  0  0  0  0  0  0  0  0
   -0.6422   -1.6590   -1.3085 H   0  0  0  0  0  0  0  0  0  0  0  0
   -2.1799   -0.4196   -0.4711 C   0  0  0  0  0  0  0  0  0  0  0  0
   -3.0919   -1.4782   -0.2062 C   0  0  0  0  0  0  0  0  0  0  0  0
   -4.4504   -1.1724    0.0423 C   0  0  0  0  0  0  0  0  0  0  0  0
   -5.1447   -1.9994    0.2456 H   0  0  0  0  0  0  0  0  0  0  0  0
   -4.9018    0.1566    0.0348 C   0  0  0  0  0  0  0  0  0  0  0  0
   -4.0098    1.2278   -0.2302 C   0  0  0  0  0  0  0  0  0  0  0  0
   -2.6711    0.8988   -0.4750 C   0  0  0  0  0  0  0  0  0  0  0  0
   -1.9692    1.7186   -0.6866 H   0  0  0  0  0  0  0  0  0  0  0  0
   -4.5164    2.6442   -0.2424 C   0  0  0  0  0  0  0  0  0  0  0  0
   -3.6975    3.3572   -0.4577 H   0  0  0  0  0  0  0  0  0  0  0  0
   -4.9731    2.9212    0.7310 H   0  0  0  0  0  0  0  0  0  0  0  0
   -5.3115    2.7865   -1.0046 H   0  0  0  0  0  0  0  0  0  0  0  0
   -7.1456   -0.4910    0.5412 C   0  0  0  0  0  0  0  0  0  0  0  0
   -7.2513   -1.2033   -0.3083 H   0  0  0  0  0  0  0  0  0  0  0  0
   -8.1132    0.0199    0.7021 H   0  0  0  0  0  0  0  0  0  0  0  0
   -6.8861   -1.0688    1.4572 H   0  0  0  0  0  0  0  0  0  0  0  0
   -6.1971    0.5194    0.2682 O   0  0  0  0  0  0  0  0  0  0  0  0
  2  1  1  0  0  0  0
  3  1  1  0  0  0  0
  4  5  1  0  0  0  0
  4  6  1  0  0  0  0
  6  7  1  0  0  0  0
  8  6  2  0  0  0  0
  8  9  1  0  0  0  0
 10 11  1  0  0  0  0
 10  8  1  0  0  0  0
 12 10  1  0  0  0  0
 13 12  1  0  0  0  0
 14 12  1  0  0  0  0
 14 16  1  0  0  0  0
 15 14  1  0  0  0  0
 16 17  1  6  0  0  0
 16 18  1  0  0  0  0
 16  4  1  0  0  0  0
 18 19  1  0  0  0  0
 19  1  1  0  0  0  0
 19 20  2  0  0  0  0
 20 21  1  0  0  0  0
 22 20  1  0  0  0  0
 22 34  1  0  0  0  0
 23 22  2  0  0  0  0
 24 18  2  0  0  0  0
 24 23  1  0  0  0  0
 25 24  1  0  0  0  0
 26 23  1  0  0  0  0
 26 28  1  0  0  0  0
 27 26  1  0  0  0  0
 29 26  1  0  0  0  0
 30 32  1  0  0  0  0
 30 33  1  0  0  0  0
 31 30  1  0  0  0  0
 34 30  1  0  0  0  0
M  END
