20
q = 0.0, confidence = 0.982

 37 39  0  0  1  0  0  0  0  0999 V2000
    2.7401    2.4082    0.3882 C   0  0  0  0  0  0  0  0  0  0  0  0
    2.4134    3.1428   -0.3855 H   0  0  0  0  0  0  0  0  0  0  0  0
    3.3530    2.9914    1.1185 H   0  0  0  0  0  0  0  0  0  0  0  0
    1.5262    1.8270    1.1103 C   0  0  0  0  0  0  0  0  0  0  0  0
    0.7641    2.6233    1.2344 H   0  0  0  0  0  0  0  0  0  0  0  0
    1.8094    1.4853    2.1275 H   0  0  0  0  0  0  0  0  0  0  0  0
    0.9244    0.6109    0.3517 C   0  0  1  0  0  0  0  0  0  0  0  0
    2.0391   -0.4274    0.3026 C   0  0  0  0  0  0  0  0  0  0  0  0
    1.8402   -1.7919    0.5526 C   0  0  0  0  0  0  0  0  0  0  0  0
    0.8312   -2.1412    0.8104 H   0  0  0  0  0  0  0  0  0  0  0  0
    2.8882   -2.7232    0.4581 C   0  0  0  0  0  0  0  0  0  0  0  0
    2.6981   -3.7900    0.6446 H   0  0  0  0  0  0  0  0  0  0  0  0
    4.1693   -2.2712    0.1186 C   0  0  0  0  0  0  0  0  0  0  0  0
    5.0062   -2.9823    0.0390 H   0  0  0  0  0  0  0  0  0  0  0  0
    4.4079   -0.9079   -0.1023 C   0  0  0  0  0  0  0  0  0  0  0  0
    5.4285   -0.5726   -0.3298 H   0  0  0  0  0  0  0  0  0  0  0  0
    3.3547    0.0358   -0.0116 C   0  0  0  0  0  0  0  0  0  0  0  0
   -0.3053    0.1248    1.1215 C   0  0  0  0  0  3  0  0  0  0  0  0
   -0.0702   -0.4358    2.0413 H   0  0  0  0  0  0  0  0  0  0  0  0
   -1.4672    0.9851    1.1917 C   0  0  0  0  0  3  0  0  0  0  0  0
   -2.0392    1.1659    2.1120 H   0  0  0  0  0  0  0  0  0  0  0  0
   -1.8326    1.5397   -0.0739 C   0  0  1  0  0  3  0  0  0  0  0  0
   -1.0506    1.0496   -1.1790 C   0  0  0  0  0  3  0  0  0  0  0  0
   -1.4722    1.2731   -2.1732 H   0  0  0  0  0  0  0  0  0  0  0  0
    0.4611    1.0214   -1.0828 C   0  0  0  0  0  0  0  0  0  0  0  0
    0.8668    2.0173   -1.3673 H   0  0  0  0  0  0  0  0  0  0  0  0
    0.8647    0.3066   -1.8263 H   0  0  0  0  0  0  0  0  0  0  0  0
    4.8337    1.8600   -0.7548 C   0  0  0  0  0  0  0  0  0  0  0  0
    5.6386    1.8911    0.0215 H   0  0  0  0  0  0  0  0  0  0  0  0
    4.7094    2.8888   -1.1498 H   0  0  0  0  0  0  0  0  0  0  0  0
    5.1873    1.2201   -1.5877 H   0  0  0  0  0  0  0  0  0  0  0  0
   -3.8666    2.4829    0.6986 C   0  0  0  0  0  0  0  0  0  0  0  0
   -4.2638    1.4847    0.9877 H   0  0  0  0  0  0  0  0  0  0  0  0
   -4.6831    3.0941    0.2735 H   0  0  0  0  0  0  0  0  0  0  0  0
   -3.4634    2.9915    1.6013 H   0  0  0  0  0  0  0  0  0  0  0  0
    3.5647    1.3913   -0.2531 N   0  0  0  0  0  0  0  0  0  0  0  0
   -2.8809    2.3588   -0.3190 O   0  0  0  0  0  0  0  0  0  0  0  0
  1  4  1  0  0  0  0
  1  3  1  0  0  0  0
  2  1  1  0  0  0  0
  4  5  1  0  0  0  0
  4  6  1  0  0  0  0
  7  8  1  6  0  0  0
  7  4  1  0  0  0  0
  7 18  1  0  0  0  0
  8  9  1  0  0  0  0
  9 10  1  0  0  0  0
 11  9  2  0  0  0  0
 11 12  1  0  0  0  0
 13 11  1  0  0  0  0
 14 13  1  0  0  0  0
 15 17  1  0  0  0  0
 15 13  2  0  0  0  0
 16 15  1  0  0  0  0
 17  8  2  0  0  0  0
 18 20  1  0  0  0  0
 18 19  1  0  0  0  0
 20 21  1  0  0  0  0
 22 37  1  6  0  0  0
 22 20  1  0  0  0  0
 23 25  1  0  0  0  0
 23 22  1  0  0  0  0
 24 23  1  0  0  0  0
 25  7  1  0  0  0  0
 26 25  1  0  0  0  0
 27 25  1  0  0  0  0
 28 36  1  0  0  0  0
 28 29  1  0  0  0  0
 30 28  1  0  0  0  0
 31 28  1  0  0  0  0
 32 33  1  0  0  0  0
 32 35  1  0  0  0  0
 34 32  1  0  0  0  0
 36 17  1  0  0  0  0
 36  1  1  0  0  0  0
 37 32  1  0  0  0  0
M  END
