6
q = -2.0, confidence = 0.922

 39 41  0  0  0  0  0  0  0  0999 V2000
    0.3290   -1.8207    1.6825 S   0  0  0  0  0  1  0  0  0  0  0  0
    0.6483    1.0351   -1.8256 S   0  0  0  0  0  0  0  0  0  0  0  0
    1.6037   -0.7636    0.4286 P   0  0  0  0  0  4  0  0  0  0  0  0
   -0.2766    0.7959   -2.9774 O   0  0  0  0  0  0  0  0  0  0  0  0
    2.1203    1.0339   -2.1053 O   0  0  0  0  0  0  0  0  0  0  0  0
    0.3189   -0.0544   -0.5200 C   0  0  0  0  0  2  0  0  0  0  0  0
    2.7507   -1.8512   -0.4741 C   0  0  0  0  0  0  0  0  0  0  0  0
    3.8564   -2.4166    0.1918 C   0  0  0  0  0  0  0  0  0  0  0  0
    4.0547   -2.1653    1.2456 H   0  0  0  0  0  0  0  0  0  0  0  0
    4.7037   -3.2964   -0.4952 C   0  0  0  0  0  0  0  0  0  0  0  0
    5.5686   -3.7396    0.0214 H   0  0  0  0  0  0  0  0  0  0  0  0
    4.4510   -3.6067   -1.8424 C   0  0  0  0  0  0  0  0  0  0  0  0
    5.1210   -4.2937   -2.3817 H   0  0  0  0  0  0  0  0  0  0  0  0
    3.3515   -3.0365   -2.5041 C   0  0  0  0  0  0  0  0  0  0  0  0
    3.1610   -3.2706   -3.5623 H   0  0  0  0  0  0  0  0  0  0  0  0
    2.4961   -2.1577   -1.8243 C   0  0  0  0  0  0  0  0  0  0  0  0
    1.6436   -1.6890   -2.3373 H   0  0  0  0  0  0  0  0  0  0  0  0
    2.6431    0.4138    1.3624 C   0  0  0  0  0  0  0  0  0  0  0  0
    2.3992    0.6476    2.7301 C   0  0  0  0  0  0  0  0  0  0  0  0
    1.6398    0.0405    3.2479 H   0  0  0  0  0  0  0  0  0  0  0  0
    3.1212    1.6443    3.4039 C   0  0  0  0  0  0  0  0  0  0  0  0
    2.9357    1.8241    4.4738 H   0  0  0  0  0  0  0  0  0  0  0  0
    4.0786    2.4069    2.7156 C   0  0  0  0  0  0  0  0  0  0  0  0
    4.6429    3.1895    3.2457 H   0  0  0  0  0  0  0  0  0  0  0  0
    4.3171    2.1732    1.3506 C   0  0  0  0  0  0  0  0  0  0  0  0
    5.0616    2.7763    0.8092 H   0  0  0  0  0  0  0  0  0  0  0  0
    3.6056    1.1782    0.6663 C   0  0  0  0  0  0  0  0  0  0  0  0
    3.7569    1.0174   -0.4112 H   0  0  0  0  0  0  0  0  0  0  0  0
    0.2373    2.6981   -1.2170 C   0  0  0  0  0  0  0  0  0  0  0  0
   -0.1531    3.6576   -2.1634 C   0  0  0  0  0  0  0  0  0  0  0  0
   -0.2388    3.3651   -3.2203 H   0  0  0  0  0  0  0  0  0  0  0  0
   -0.4521    4.9586   -1.7333 C   0  0  0  0  0  0  0  0  0  0  0  0
   -0.7645    5.7178   -2.4666 H   0  0  0  0  0  0  0  0  0  0  0  0
   -0.3636    5.2900   -0.3704 C   0  0  0  0  0  0  0  0  0  0  0  0
   -0.6065    6.3101   -0.0359 H   0  0  0  0  0  0  0  0  0  0  0  0
    0.0318    4.3194    0.5655 C   0  0  0  0  0  0  0  0  0  0  0  0
    0.1031    4.5761    1.6335 H   0  0  0  0  0  0  0  0  0  0  0  0
    0.3378    3.0157    0.1449 C   0  0  0  0  0  0  0  0  0  0  0  0
    0.6323    2.2419    0.8686 H   0  0  0  0  0  0  0  0  0  0  0  0
  2 29  1  0  0  0  0
  2  6  1  0  0  0  0
  3 18  1  0  0  0  0
  3  1  1  0  0  0  0
  4  2  2  0  0  0  0
  5  2  2  0  0  0  0
  6  3  1  0  0  0  0
  7  8  1  0  0  0  0
  7  3  1  0  0  0  0
  8  9  1  0  0  0  0
 10 11  1  0  0  0  0
 10  8  2  0  0  0  0
 12 10  1  0  0  0  0
 13 12  1  0  0  0  0
 14 12  2  0  0  0  0
 14 16  1  0  0  0  0
 15 14  1  0  0  0  0
 16  7  2  0  0  0  0
 17 16  1  0  0  0  0
 18 19  1  0  0  0  0
 19 20  1  0  0  0  0
 19 21  2  0  0  0  0
 21 22  1  0  0  0  0
 23 24  1  0  0  0  0
 23 21  1  0  0  0  0
 25 23  2  0  0  0  0
 26 25  1  0  0  0  0
 27 25  1  0  0  0  0
 27 18  2  0  0  0  0
 28 27  1  0  0  0  0
 29 38  1  0  0  0  0
 30 32  1  0  0  0  0
 30 29  2  0  0  0  0
 31 30  1  0  0  0  0
 32 34  2  0  0  0  0
 33 32  1  0  0  0  0
 34 35  1  0  0  0  0
 34 36  1  0  0  0  0
 36 37  1  0  0  0  0
 38 36  2  0  0  0  0
 38 39  1  0  0  0  0
M  END
