3
q = 0.0, confidence = 0.998

 21 21  0  0  0  0  0  0  0  0999 V2000
    2.4697    0.1849    1.0567 N   0  0  0  0  0  0  0  0  0  0  0  0
    3.6677    0.6601    0.5747 N   0  0  0  0  0  0  0  0  0  0  0  0
    1.8987   -0.6616    0.1634 C   0  0  0  0  0  2  0  0  0  0  0  0
    3.8585    0.1250   -0.6756 C   0  0  0  0  0  0  0  0  0  0  0  0
    2.7795   -0.7199   -0.9552 C   0  0  0  0  0  0  0  0  0  0  0  0
    2.0238    0.4845    2.4004 C   0  0  0  0  0  0  0  0  0  0  0  0
    4.3953    1.7133    1.2418 C   0  0  0  0  0  0  0  0  0  0  0  0
    5.0466    0.4795   -1.5047 C   0  0  0  0  0  0  0  0  0  0  0  0
    2.5466   -1.5862   -2.1508 C   0  0  0  0  0  0  0  0  0  0  0  0
    1.9557    1.5767    2.5669 H   0  0  0  0  0  0  0  0  0  0  0  0
    2.6875    0.0154    3.1553 H   0  0  0  0  0  0  0  0  0  0  0  0
    1.0165    0.0372    2.4911 H   0  0  0  0  0  0  0  0  0  0  0  0
    4.6408    1.4309    2.2849 H   0  0  0  0  0  0  0  0  0  0  0  0
    3.8207    2.6646    1.2420 H   0  0  0  0  0  0  0  0  0  0  0  0
    5.3433    1.8730    0.6989 H   0  0  0  0  0  0  0  0  0  0  0  0
    6.0026    0.2573   -0.9864 H   0  0  0  0  0  0  0  0  0  0  0  0
    5.0527    1.5551   -1.7824 H   0  0  0  0  0  0  0  0  0  0  0  0
    5.0318   -0.1070   -2.4410 H   0  0  0  0  0  0  0  0  0  0  0  0
    1.5850   -1.3325   -2.6442 H   0  0  0  0  0  0  0  0  0  0  0  0
    2.4608   -2.6421   -1.8202 H   0  0  0  0  0  0  0  0  0  0  0  0
    3.3569   -1.5046   -2.9007 H   0  0  0  0  0  0  0  0  0  0  0  0
  1  6  1  0  0  0  0
  2  1  1  0  0  0  0
  2  7  1  0  0  0  0
  3  1  1  0  0  0  0
  4  2  1  0  0  0  0
  5  4  2  0  0  0  0
  5  3  1  0  0  0  0
  6 12  1  0  0  0  0
  6 10  1  0  0  0  0
  6 11  1  0  0  0  0
  7 14  1  0  0  0  0
  7 13  1  0  0  0  0
  8 16  1  0  0  0  0
  8  4  1  0  0  0  0
  9 20  1  0  0  0  0
  9  5  1  0  0  0  0
 15  7  1  0  0  0  0
 17  8  1  0  0  0  0
 18  8  1  0  0  0  0
 19  9  1  0  0  0  0
 21  9  1  0  0  0  0
M  END
