3
q = -1.0, confidence = 0.002

  5  4  0  0  0  0  0  0  0  0999 V2000
    0.9729   -3.2765   -0.3153 Cl  0  0  0  0  0  0  0  0  0  0  0  0
   -2.6491   -2.9925    0.0572 N   0  0  0  0  0  0  0  0  0  0  0  0
   -0.2071   -2.1455    0.4764 C   0  0  0  0  0  3  0  0  0  0  0  0
   -1.5422   -2.6401    0.2360 C   0  0  0  0  0  0  0  0  0  0  0  0
    0.0076   -2.2017    1.5614 H   0  0  0  0  0  0  0  0  0  0  0  0
  1  3  1  0  0  0  0
  2  4  3  0  0  0  0
  3  5  1  0  0  0  0
  4  3  1  0  0  0  0
M  END
