3
q = 0.0, confidence = 0.988

 15 15  0  0  0  0  0  0  0  0999 V2000
    4.9238    0.2271   -0.0051 O   0  0  0  0  0  0  0  0  0  0  0  0
    2.6753    0.5942   -0.0054 N   0  0  0  0  0  2  0  0  0  0  0  0
    1.7203    1.3201   -0.0074 C   0  0  0  0  0  1  0  0  0  0  0  0
    3.7926   -0.2403   -0.0044 C   0  0  0  0  0  0  0  0  0  0  0  0
    3.4722   -1.6972   -0.0021 C   0  0  0  0  0  0  0  0  0  0  0  0
    4.5556   -2.6026   -0.0010 C   0  0  0  0  0  0  0  0  0  0  0  0
    4.3148   -3.9804    0.0014 C   0  0  0  0  0  0  0  0  0  0  0  0
    2.9936   -4.4648    0.0027 C   0  0  0  0  0  0  0  0  0  0  0  0
    1.9128   -3.5681    0.0016 C   0  0  0  0  0  0  0  0  0  0  0  0
    2.1497   -2.1875   -0.0007 C   0  0  0  0  0  0  0  0  0  0  0  0
    5.5766   -2.1934   -0.0020 H   0  0  0  0  0  0  0  0  0  0  0  0
    5.1603   -4.6851    0.0022 H   0  0  0  0  0  0  0  0  0  0  0  0
    2.8078   -5.5501    0.0045 H   0  0  0  0  0  0  0  0  0  0  0  0
    0.8724   -3.9236    0.0027 H   0  0  0  0  0  0  0  0  0  0  0  0
    1.2898   -1.5038   -0.0014 H   0  0  0  0  0  0  0  0  0  0  0  0
  1  4  2  0  0  0  0
  2  4  1  0  0  0  0
  3  2  1  0  0  0  0
  4  5  1  0  0  0  0
  5  6  2  0  0  0  0
  5 10  1  0  0  0  0
  6  7  1  0  0  0  0
  7 12  1  0  0  0  0
  7  8  2  0  0  0  0
  8 13  1  0  0  0  0
  9  8  1  0  0  0  0
  9 14  1  0  0  0  0
 10  9  2  0  0  0  0
 11  6  1  0  0  0  0
 15 10  1  0  0  0  0
M  END
