5
q = -1.0, confidence = 0.0

 33 36  0  0  1  0  0  0  0  0999 V2000
    3.9439    0.2047   -0.3586 S   0  0  0  0  0  0  0  0  0  0  0  0
   -3.9528    0.1312   -0.2430 S   0  0  0  0  0  0  0  0  0  0  0  0
   -0.0183   -1.6997   -1.0447 P   0  0  0  0  0  0  0  0  0  0  0  0
   -1.2799   -0.3816   -1.0513 C   0  0  0  0  0  0  0  0  0  0  0  0
   -0.7249    0.9388   -1.0988 C   0  0  2  0  0  3  0  0  0  0  0  0
   -1.5087    2.2149   -1.3086 C   0  0  0  0  0  0  0  0  0  0  0  0
   -1.9289    2.1690   -2.3394 H   0  0  0  0  0  0  0  0  0  0  0  0
   -2.3830    2.2561   -0.6320 H   0  0  0  0  0  0  0  0  0  0  0  0
   -0.6480    3.4754   -1.1586 C   0  0  0  0  0  0  0  0  0  0  0  0
   -1.2144    4.3498   -1.5379 H   0  0  0  0  0  0  0  0  0  0  0  0
   -0.4491    3.6712   -0.0832 H   0  0  0  0  0  0  0  0  0  0  0  0
    0.6802    3.3253   -1.9040 C   0  0  0  0  0  0  0  0  0  0  0  0
    1.2551    4.2729   -1.8804 H   0  0  0  0  0  0  0  0  0  0  0  0
    0.4787    3.1038   -2.9757 H   0  0  0  0  0  0  0  0  0  0  0  0
    1.5309    2.2012   -1.2963 C   0  0  0  0  0  0  0  0  0  0  0  0
    1.9407    2.5364   -0.3211 H   0  0  0  0  0  0  0  0  0  0  0  0
    2.4119    1.9821   -1.9341 H   0  0  0  0  0  0  0  0  0  0  0  0
    0.7306    0.9260   -1.1178 C   0  0  0  0  0  0  0  0  0  0  0  0
    1.2684   -0.3991   -1.0653 C   0  0  0  0  0  0  0  0  0  0  0  0
    2.6834   -0.7691   -1.0940 C   0  0  0  0  0  0  0  0  0  0  0  0
    3.2315   -1.9282   -1.6366 C   0  0  0  0  0  0  0  0  0  0  0  0
    2.6163   -2.6834   -2.1453 H   0  0  0  0  0  0  0  0  0  0  0  0
    4.6434   -2.0188   -1.4716 C   0  0  0  0  0  0  0  0  0  0  0  0
    5.2543   -2.8543   -1.8391 H   0  0  0  0  0  0  0  0  0  0  0  0
    5.1689   -0.9334   -0.7955 C   0  0  0  0  0  0  0  0  0  0  0  0
    6.2147   -0.7355   -0.5306 H   0  0  0  0  0  0  0  0  0  0  0  0
   -2.7008   -0.7387   -1.1071 C   0  0  0  0  0  0  0  0  0  0  0  0
   -3.2545   -1.8152   -1.7937 C   0  0  0  0  0  0  0  0  0  0  0  0
   -2.6432   -2.4972   -2.4008 H   0  0  0  0  0  0  0  0  0  0  0  0
   -4.6670   -1.9231   -1.6359 C   0  0  0  0  0  0  0  0  0  0  0  0
   -5.2819   -2.7022   -2.1062 H   0  0  0  0  0  0  0  0  0  0  0  0
   -5.1856   -0.9346   -0.8213 C   0  0  0  0  0  0  0  0  0  0  0  0
   -6.2287   -0.7715   -0.5240 H   0  0  0  0  0  0  0  0  0  0  0  0
  4  3  2  0  0  0  0
  5 18  1  6  0  0  0
  5  4  1  0  0  0  0
  6  9  1  0  0  0  0
  6  5  1  0  0  0  0
  6  8  1  0  0  0  0
  7  6  1  0  0  0  0
  9 11  1  0  0  0  0
 10  9  1  0  0  0  0
 12 13  1  0  0  0  0
 12 15  1  0  0  0  0
 12  9  1  0  0  0  0
 14 12  1  0  0  0  0
 15 18  1  0  0  0  0
 15 16  1  0  0  0  0
 17 15  1  0  0  0  0
 18 19  2  0  0  0  0
 19  3  1  0  0  0  0
 20 19  1  0  0  0  0
 20  1  1  0  0  0  0
 21 23  1  0  0  0  0
 21 20  2  0  0  0  0
 22 21  1  0  0  0  0
 23 25  2  0  0  0  0
 24 23  1  0  0  0  0
 25 26  1  0  0  0  0
 25  1  1  0  0  0  0
 27  4  1  0  0  0  0
 27  2  1  0  0  0  0
 28 30  1  0  0  0  0
 28 27  2  0  0  0  0
 29 28  1  0  0  0  0
 30 32  2  0  0  0  0
 31 30  1  0  0  0  0
 32 33  1  0  0  0  0
 32  2  1  0  0  0  0
M  END
