1
q = 0.0, confidence = 0.972

 19 18  0  0  0  0  0  0  0  0999 V2000
    2.0841   -0.0718   -0.2436 C   0  0  0  0  0  3  0  0  0  0  0  0
    4.2235   -0.4619   -1.4023 C   0  0  0  0  0  0  0  0  0  0  0  0
    4.6726   -0.0958   -0.4592 H   0  0  0  0  0  0  0  0  0  0  0  0
    4.5792    0.1873   -2.2317 H   0  0  0  0  0  0  0  0  0  0  0  0
    4.6189   -1.4814   -1.6030 H   0  0  0  0  0  0  0  0  0  0  0  0
    2.7135   -0.4779   -1.3502 C   0  0  0  0  0  0  0  0  0  0  0  0
    1.9893   -0.9541   -2.5802 C   0  0  0  0  0  0  0  0  0  0  0  0
    0.8934   -0.9480   -2.4323 H   0  0  0  0  0  0  0  0  0  0  0  0
    2.3056   -1.9855   -2.8471 H   0  0  0  0  0  0  0  0  0  0  0  0
    2.2294   -0.3060   -3.4507 H   0  0  0  0  0  0  0  0  0  0  0  0
    2.0851    0.4231    1.0669 C   0  0  0  0  0  3  0  0  0  0  0  0
    2.3846   -0.4797    2.2478 C   0  0  0  0  0  0  0  0  0  0  0  0
    2.2153   -1.5446    2.0188 H   0  0  0  0  0  0  0  0  0  0  0  0
    1.7713   -0.2002    3.1281 H   0  0  0  0  0  0  0  0  0  0  0  0
    3.4510   -0.3222    2.5237 H   0  0  0  0  0  0  0  0  0  0  0  0
    2.3150    1.8941    1.3534 C   0  0  0  0  0  0  0  0  0  0  0  0
    3.3878    2.0184    1.6213 H   0  0  0  0  0  0  0  0  0  0  0  0
    1.7174    2.2255    2.2268 H   0  0  0  0  0  0  0  0  0  0  0  0
    2.0741    2.5344    0.4888 H   0  0  0  0  0  0  0  0  0  0  0  0
  1 11  1  0  0  0  0
  2  6  1  0  0  0  0
  2  3  1  0  0  0  0
  4  2  1  0  0  0  0
  5  2  1  0  0  0  0
  6  1  2  0  0  0  0
  7  8  1  0  0  0  0
  7  6  1  0  0  0  0
  9  7  1  0  0  0  0
 10  7  1  0  0  0  0
 11 16  1  0  0  0  0
 11 12  1  0  0  0  0
 12 15  1  0  0  0  0
 12 14  1  0  0  0  0
 13 12  1  0  0  0  0
 16 17  1  0  0  0  0
 16 18  1  0  0  0  0
 19 16  1  0  0  0  0
M  END
