6
q = 0.0, confidence = 0.778

  6  5  0  0  0  0  0  0  0  0999 V2000
    1.1319   -3.1604    1.3664 F   0  0  0  0  0  0  0  0  0  0  0  0
   -1.0670   -3.1698    1.4162 F   0  0  0  0  0  0  0  0  0  0  0  0
    0.0114   -2.7034    0.7205 C   0  0  0  0  0  0  0  0  0  0  0  0
   -1.1320   -3.1603   -1.3664 F   0  0  0  0  0  0  0  0  0  0  0  0
    1.0669   -3.1698   -1.4162 F   0  0  0  0  0  0  0  0  0  0  0  0
   -0.0114   -2.7034   -0.7205 C   0  0  0  0  0  0  0  0  0  0  0  0
  3  1  1  0  0  0  0
  3  2  1  0  0  0  0
  4  6  1  0  0  0  0
  5  6  1  0  0  0  0
  6  3  1  0  0  0  0
M  END
