1
q = -1.0, confidence = 0.034

 10  9  0  0  0  0  0  0  0  0999 V2000
   -2.2052   -0.7758    0.3715 C   0  0  0  0  0  3  0  0  0  0  0  0
   -3.4095   -0.6515   -0.4983 C   0  0  0  0  0  0  0  0  0  0  0  0
   -4.3341    0.3399   -0.4108 C   0  0  0  0  0  0  0  0  0  0  0  0
   -4.3970    1.4528    0.5844 C   0  0  0  0  0  0  0  0  0  0  0  0
   -2.2246   -0.3709    1.5372 O   0  0  0  0  0  0  0  0  0  0  0  0
   -3.4829   -1.3674   -1.3316 H   0  0  0  0  0  0  0  0  0  0  0  0
   -5.1251    0.3421   -1.1849 H   0  0  0  0  0  0  0  0  0  0  0  0
   -4.5495    2.4272    0.0741 H   0  0  0  0  0  0  0  0  0  0  0  0
   -3.4923    1.4988    1.2161 H   0  0  0  0  0  0  0  0  0  0  0  0
   -5.2724    1.3126    1.2570 H   0  0  0  0  0  0  0  0  0  0  0  0
  1  5  2  0  0  0  0
  2  3  2  0  0  0  0
  2  1  1  0  0  0  0
  3  4  1  0  0  0  0
  4  9  1  0  0  0  0
  4 10  1  0  0  0  0
  6  2  1  0  0  0  0
  7  3  1  0  0  0  0
  8  4  1  0  0  0  0
M  END
