6
q = -1.0, confidence = 0.03

 38 38  0  0  0  0  0  0  0  0999 V2000
    3.0253   -1.3002   -0.4564 C   0  0  0  0  0  0  0  0  0  0  0  0
    3.5411   -1.4731    0.8734 C   0  0  0  0  0  0  0  0  0  0  0  0
    2.9271   -1.5096    1.7761 H   0  0  0  0  0  0  0  0  0  0  0  0
    4.9689   -1.6178    0.7588 C   0  0  0  0  0  3  0  0  0  0  0  0
    5.6576   -1.7872    1.5946 H   0  0  0  0  0  0  0  0  0  0  0  0
    5.3312   -1.5050   -0.6158 C   0  0  0  0  0  3  0  0  0  0  0  0
    6.3438   -1.5751   -1.0289 H   0  0  0  0  0  0  0  0  0  0  0  0
    4.1288   -1.2841   -1.3764 C   0  0  0  0  0  3  0  0  0  0  0  0
    4.0583   -1.1704   -2.4644 H   0  0  0  0  0  0  0  0  0  0  0  0
    0.6169   -0.9595    0.0191 C   0  0  0  0  0  0  0  0  0  0  0  0
   -0.6692   -0.5568   -0.6917 C   0  0  0  0  0  0  0  0  0  0  0  0
   -0.7377   -1.0606   -1.6812 H   0  0  0  0  0  0  0  0  0  0  0  0
   -0.5711    0.5317   -0.9114 H   0  0  0  0  0  0  0  0  0  0  0  0
   -1.9201   -0.8105    0.1463 C   0  0  0  0  0  0  0  0  0  0  0  0
   -1.7617   -0.3646    1.1505 H   0  0  0  0  0  0  0  0  0  0  0  0
   -2.0288   -1.9031    0.3216 H   0  0  0  0  0  0  0  0  0  0  0  0
   -3.1960   -0.2557   -0.4892 C   0  0  0  0  0  0  0  0  0  0  0  0
   -3.0765    0.8376   -0.6636 H   0  0  0  0  0  0  0  0  0  0  0  0
   -3.3395   -0.7038   -1.4987 H   0  0  0  0  0  0  0  0  0  0  0  0
   -4.4514   -0.4987    0.3522 C   0  0  0  0  0  0  0  0  0  0  0  0
   -4.3088   -0.0475    1.3601 H   0  0  0  0  0  0  0  0  0  0  0  0
   -4.5690   -1.5918    0.5303 H   0  0  0  0  0  0  0  0  0  0  0  0
   -5.7278    0.0550   -0.2838 C   0  0  0  0  0  0  0  0  0  0  0  0
   -5.6159    1.1450   -0.4699 H   0  0  0  0  0  0  0  0  0  0  0  0
   -5.8831   -0.3960   -1.2869 H   0  0  0  0  0  0  0  0  0  0  0  0
   -6.9744   -0.1825    0.5641 C   0  0  0  0  0  0  0  0  0  0  0  0
   -7.1120   -1.2660    0.7786 H   0  0  0  0  0  0  0  0  0  0  0  0
   -6.8919    0.2954    1.5639 H   0  0  0  0  0  0  0  0  0  0  0  0
   -8.2480    0.3117   -0.0923 C   0  0  0  0  0  0  0  0  0  0  0  0
  -10.5579    0.6503    0.2306 C   0  0  0  0  0  0  0  0  0  0  0  0
  -10.8426    0.0373   -0.6488 H   0  0  0  0  0  0  0  0  0  0  0  0
  -10.5165    1.7110   -0.0906 H   0  0  0  0  0  0  0  0  0  0  0  0
  -11.2958    0.5231    1.0428 H   0  0  0  0  0  0  0  0  0  0  0  0
    1.6938   -1.1668   -0.8408 N   0  0  0  0  0  0  0  0  0  0  0  0
    1.5308   -1.0005   -1.8350 H   0  0  0  0  0  0  0  0  0  0  0  0
    0.7157   -1.0612    1.2347 O   0  0  0  0  0  0  0  0  0  0  0  0
   -8.3478    0.7239   -1.2327 O   0  0  0  0  0  0  0  0  0  0  0  0
   -9.2987    0.2273    0.7650 O   0  0  0  0  0  0  0  0  0  0  0  0
  1  2  2  0  0  0  0
  2  3  1  0  0  0  0
  4  2  1  0  0  0  0
  4  5  1  0  0  0  0
  6  4  1  0  0  0  0
  7  6  1  0  0  0  0
  8  6  1  0  0  0  0
  8  1  1  0  0  0  0
  9  8  1  0  0  0  0
 10 36  2  0  0  0  0
 11 10  1  0  0  0  0
 11 14  1  0  0  0  0
 12 11  1  0  0  0  0
 13 11  1  0  0  0  0
 14 16  1  0  0  0  0
 14 15  1  0  0  0  0
 17 14  1  0  0  0  0
 17 20  1  0  0  0  0
 18 17  1  0  0  0  0
 19 17  1  0  0  0  0
 20 22  1  0  0  0  0
 20 21  1  0  0  0  0
 23 20  1  0  0  0  0
 23 26  1  0  0  0  0
 24 23  1  0  0  0  0
 25 23  1  0  0  0  0
 26 27  1  0  0  0  0
 26 28  1  0  0  0  0
 29 26  1  0  0  0  0
 29 38  1  0  0  0  0
 30 38  1  0  0  0  0
 30 33  1  0  0  0  0
 31 30  1  0  0  0  0
 32 30  1  0  0  0  0
 34  1  1  0  0  0  0
 34 10  1  0  0  0  0
 35 34  1  0  0  0  0
 37 29  2  0  0  0  0
M  END
