2
q = 0.0, confidence = 0.976

 23 24  0  0  1  0  0  0  0  0999 V2000
   -0.1769   -0.8090   -1.2465 C   0  0  0  0  0  3  0  0  0  0  0  0
   -0.3712   -1.0890    0.1354 C   0  0  1  0  0  3  0  0  0  0  0  0
   -1.5489   -1.1868    1.0663 C   0  0  2  0  0  0  0  0  0  0  0  0
   -0.4787   -2.2933    0.9906 C   0  0  0  0  0  0  0  0  0  0  0  0
   -2.9364   -1.3842    0.5675 C   0  0  0  0  0  0  0  0  0  0  0  0
   -3.2212   -2.1006   -0.6172 C   0  0  0  0  0  0  0  0  0  0  0  0
   -4.5348   -2.2402   -1.0770 C   0  0  0  0  0  0  0  0  0  0  0  0
   -5.6240   -1.6685   -0.3836 C   0  0  0  0  0  0  0  0  0  0  0  0
   -5.3398   -0.9545    0.7956 C   0  0  0  0  0  0  0  0  0  0  0  0
   -4.0244   -0.8171    1.2631 C   0  0  0  0  0  0  0  0  0  0  0  0
   -7.0347   -1.8282   -0.8928 C   0  0  0  0  0  0  0  0  0  0  0  0
    0.3731   -1.5277   -1.8805 H   0  0  0  0  0  0  0  0  0  0  0  0
   -0.9326   -0.2286   -1.8026 H   0  0  0  0  0  0  0  0  0  0  0  0
   -1.4885   -0.5754    1.9818 H   0  0  0  0  0  0  0  0  0  0  0  0
    0.1680   -2.3916    1.8779 H   0  0  0  0  0  0  0  0  0  0  0  0
   -0.7700   -3.2510    0.5232 H   0  0  0  0  0  0  0  0  0  0  0  0
   -2.3955   -2.5452   -1.1938 H   0  0  0  0  0  0  0  0  0  0  0  0
   -4.7239   -2.8044   -2.0048 H   0  0  0  0  0  0  0  0  0  0  0  0
   -6.1670   -0.4977    1.3624 H   0  0  0  0  0  0  0  0  0  0  0  0
   -3.8326   -0.2551    2.1915 H   0  0  0  0  0  0  0  0  0  0  0  0
   -7.7593   -1.2682   -0.2704 H   0  0  0  0  0  0  0  0  0  0  0  0
   -7.1336   -1.4662   -1.9376 H   0  0  0  0  0  0  0  0  0  0  0  0
   -7.3464   -2.8943   -0.8943 H   0  0  0  0  0  0  0  0  0  0  0  0
  2  1  1  6  0  0  0
  2  4  1  0  0  0  0
  2  3  1  0  0  0  0
  3 14  1  1  0  0  0
  4  3  1  0  0  0  0
  4 15  1  0  0  0  0
  5  3  1  0  0  0  0
  5 10  1  0  0  0  0
  6  5  2  0  0  0  0
  7  6  1  0  0  0  0
  7  8  2  0  0  0  0
  8  9  1  0  0  0  0
  9 10  2  0  0  0  0
  9 19  1  0  0  0  0
 10 20  1  0  0  0  0
 11  8  1  0  0  0  0
 11 21  1  0  0  0  0
 12  1  1  0  0  0  0
 13  1  1  0  0  0  0
 16  4  1  0  0  0  0
 17  6  1  0  0  0  0
 18  7  1  0  0  0  0
 22 11  1  0  0  0  0
 23 11  1  0  0  0  0
M  END
