3
q = 0.0, confidence = 0.97

  9  9  0  0  0  0  0  0  0  0999 V2000
    0.0178   -3.8088    1.1343 S   0  0  0  0  0  0  0  0  0  0  0  0
    1.2933   -3.2881    0.0253 C   0  0  0  0  0  3  0  0  0  0  0  0
    0.8424   -3.0839   -1.3056 C   0  0  0  0  0  3  0  0  0  0  0  0
   -0.5915   -3.0937   -1.3724 C   0  0  0  0  0  0  0  0  0  0  0  0
   -1.1625   -3.2998   -0.0907 C   0  0  0  0  0  0  0  0  0  0  0  0
    2.3426   -3.3332    0.3471 H   0  0  0  0  0  0  0  0  0  0  0  0
    1.5219   -2.9442   -2.1565 H   0  0  0  0  0  0  0  0  0  0  0  0
   -1.1904   -2.9477   -2.2808 H   0  0  0  0  0  0  0  0  0  0  0  0
   -2.2360   -3.3651    0.1314 H   0  0  0  0  0  0  0  0  0  0  0  0
  2  6  1  0  0  0  0
  2  1  1  0  0  0  0
  3  2  1  0  0  0  0
  4  3  1  0  0  0  0
  4  5  2  0  0  0  0
  5  9  1  0  0  0  0
  5  1  1  0  0  0  0
  7  3  1  0  0  0  0
  8  4  1  0  0  0  0
M  END
