5
q = -2.0, confidence = 0.74

 56 57  0  0  1  0  0  0  0  0999 V2000
    4.6373    1.0405   -0.2685 Si  0  0  0  0  0  0  0  0  0  0  0  0
   -0.7574    3.3201    0.4650 Si  0  0  0  0  0  0  0  0  0  0  0  0
    3.0485    0.3244   -1.0062 C   0  0  0  0  0  3  0  0  0  0  0  0
    1.8434    1.0040   -0.9881 C   0  0  0  0  0  2  0  0  0  0  0  0
    0.6081    1.1560   -0.7484 C   0  0  0  0  0  2  0  0  0  0  0  0
   -0.7069    1.7951   -0.7454 C   0  0  1  0  0  0  0  0  0  0  0  0
   -1.7230    0.7260   -0.3925 C   0  0  0  0  0  0  0  0  0  0  0  0
   -1.2659   -0.5137   -0.0227 C   0  0  0  0  0  3  0  0  0  0  0  0
   -3.1597    1.1219   -0.4669 C   0  0  0  0  0  0  0  0  0  0  0  0
   -4.0417    0.9125    0.6176 C   0  0  0  0  0  0  0  0  0  0  0  0
   -5.3827    1.3134    0.5476 C   0  0  0  0  0  0  0  0  0  0  0  0
   -5.8785    1.9297   -0.6129 C   0  0  0  0  0  0  0  0  0  0  0  0
   -5.0182    2.1410   -1.7022 C   0  0  0  0  0  0  0  0  0  0  0  0
   -3.6749    1.7472   -1.6260 C   0  0  0  0  0  0  0  0  0  0  0  0
   -2.2680   -1.5877    0.2161 C   0  0  0  0  0  0  0  0  0  0  0  0
   -2.4701   -2.2186    1.4688 C   0  0  0  0  0  0  0  0  0  0  0  0
   -3.4059   -3.2512    1.6316 C   0  0  0  0  0  0  0  0  0  0  0  0
   -4.1748   -3.6959    0.5449 C   0  0  0  0  0  0  0  0  0  0  0  0
   -4.0124   -3.0702   -0.7016 C   0  0  0  0  0  0  0  0  0  0  0  0
   -3.0836   -2.0335   -0.8578 C   0  0  0  0  0  0  0  0  0  0  0  0
    4.3831    2.0027    1.3432 C   0  0  0  0  0  0  0  0  0  0  0  0
    5.3118    2.2598   -1.5569 C   0  0  0  0  0  0  0  0  0  0  0  0
    5.9145   -0.3469   -0.0637 C   0  0  0  0  0  0  0  0  0  0  0  0
   -0.9081    2.7102    2.2467 C   0  0  0  0  0  0  0  0  0  0  0  0
   -2.2386    4.4197    0.0477 C   0  0  0  0  0  0  0  0  0  0  0  0
    0.8411    4.3034    0.2236 C   0  0  0  0  0  0  0  0  0  0  0  0
   -0.9149    2.2432   -1.7468 H   0  0  0  0  0  0  0  0  0  0  0  0
    3.2926   -0.1299   -1.9887 H   0  0  0  0  0  0  0  0  0  0  0  0
   -1.9104   -1.8727    2.3472 H   0  0  0  0  0  0  0  0  0  0  0  0
   -3.5403   -3.7074    2.6250 H   0  0  0  0  0  0  0  0  0  0  0  0
   -4.9033   -4.5109    0.6715 H   0  0  0  0  0  0  0  0  0  0  0  0
   -4.6234   -3.3856   -1.5617 H   0  0  0  0  0  0  0  0  0  0  0  0
   -2.9912   -1.5312   -1.8323 H   0  0  0  0  0  0  0  0  0  0  0  0
   -3.6605    0.4267    1.5273 H   0  0  0  0  0  0  0  0  0  0  0  0
   -6.0475    1.1433    1.4085 H   0  0  0  0  0  0  0  0  0  0  0  0
   -6.9318    2.2442   -0.6683 H   0  0  0  0  0  0  0  0  0  0  0  0
   -5.3965    2.6183   -2.6194 H   0  0  0  0  0  0  0  0  0  0  0  0
   -3.0113    1.9178   -2.4880 H   0  0  0  0  0  0  0  0  0  0  0  0
   -3.1984    3.9080    0.2568 H   0  0  0  0  0  0  0  0  0  0  0  0
   -2.2372    4.7130   -1.0220 H   0  0  0  0  0  0  0  0  0  0  0  0
   -2.1989    5.3486    0.6546 H   0  0  0  0  0  0  0  0  0  0  0  0
    0.8587    5.1979    0.8796 H   0  0  0  0  0  0  0  0  0  0  0  0
    0.9420    4.6486   -0.8260 H   0  0  0  0  0  0  0  0  0  0  0  0
    1.7283    3.6818    0.4593 H   0  0  0  0  0  0  0  0  0  0  0  0
   -0.0202    2.1286    2.5604 H   0  0  0  0  0  0  0  0  0  0  0  0
   -1.8013    2.0627    2.3559 H   0  0  0  0  0  0  0  0  0  0  0  0
   -1.0184    3.5675    2.9420 H   0  0  0  0  0  0  0  0  0  0  0  0
    3.5296    2.7048    1.2453 H   0  0  0  0  0  0  0  0  0  0  0  0
    5.2890    2.6090    1.5503 H   0  0  0  0  0  0  0  0  0  0  0  0
    4.2002    1.3611    2.2261 H   0  0  0  0  0  0  0  0  0  0  0  0
    5.4664    1.7643   -2.5373 H   0  0  0  0  0  0  0  0  0  0  0  0
    6.2832    2.6903   -1.2352 H   0  0  0  0  0  0  0  0  0  0  0  0
    4.5988    3.0959   -1.7103 H   0  0  0  0  0  0  0  0  0  0  0  0
    5.6244   -1.1032    0.6928 H   0  0  0  0  0  0  0  0  0  0  0  0
    6.8985    0.0696    0.2352 H   0  0  0  0  0  0  0  0  0  0  0  0
    6.0555   -0.8778   -1.0283 H   0  0  0  0  0  0  0  0  0  0  0  0
  1 23  1  0  0  0  0
  1 21  1  0  0  0  0
  2 24  1  0  0  0  0
  3  4  1  0  0  0  0
  3  1  1  0  0  0  0
  4  5  1  0  0  0  0
  5  6  1  0  0  0  0
  6 27  1  6  0  0  0
  6  7  1  0  0  0  0
  6  2  1  0  0  0  0
  7  8  2  0  0  0  0
  8 15  1  0  0  0  0
  9  7  1  0  0  0  0
  9 10  1  0  0  0  0
 10 34  1  0  0  0  0
 11 10  2  0  0  0  0
 11 35  1  0  0  0  0
 12 11  1  0  0  0  0
 13 14  1  0  0  0  0
 13 12  2  0  0  0  0
 14  9  2  0  0  0  0
 15 16  1  0  0  0  0
 16 17  2  0  0  0  0
 16 29  1  0  0  0  0
 17 30  1  0  0  0  0
 18 31  1  0  0  0  0
 18 17  1  0  0  0  0
 19 18  2  0  0  0  0
 20 19  1  0  0  0  0
 20 15  2  0  0  0  0
 21 49  1  0  0  0  0
 21 50  1  0  0  0  0
 22 52  1  0  0  0  0
 22  1  1  0  0  0  0
 23 55  1  0  0  0  0
 23 54  1  0  0  0  0
 24 46  1  0  0  0  0
 24 45  1  0  0  0  0
 24 47  1  0  0  0  0
 25 39  1  0  0  0  0
 25  2  1  0  0  0  0
 25 41  1  0  0  0  0
 26 44  1  0  0  0  0
 26  2  1  0  0  0  0
 26 42  1  0  0  0  0
 28  3  1  0  0  0  0
 32 19  1  0  0  0  0
 33 20  1  0  0  0  0
 36 12  1  0  0  0  0
 37 13  1  0  0  0  0
 38 14  1  0  0  0  0
 40 25  1  0  0  0  0
 43 26  1  0  0  0  0
 48 21  1  0  0  0  0
 51 22  1  0  0  0  0
 53 22  1  0  0  0  0
 56 23  1  0  0  0  0
M  END
