1
q = -1.0, confidence = 0.0

 21 21  0  0  0  0  0  0  0  0999 V2000
   -1.1529   -0.4255    0.8818 C   0  0  0  0  0  1  0  0  0  0  0  0
   -2.2157   -0.9148    1.7127 C   0  0  0  0  0  0  0  0  0  0  0  0
   -3.4966   -1.2459    1.1809 C   0  0  0  0  0  0  0  0  0  0  0  0
   -4.4882   -1.7158    2.0602 C   0  0  0  0  0  0  0  0  0  0  0  0
   -5.4797   -1.9704    1.6509 H   0  0  0  0  0  0  0  0  0  0  0  0
   -4.2571   -1.8722    3.4368 C   0  0  0  0  0  0  0  0  0  0  0  0
   -2.9794   -1.5441    3.9395 C   0  0  0  0  0  0  0  0  0  0  0  0
   -2.7775   -1.6634    5.0167 H   0  0  0  0  0  0  0  0  0  0  0  0
   -1.9538   -1.0711    3.1142 C   0  0  0  0  0  0  0  0  0  0  0  0
   -3.8091   -1.1128   -0.2885 C   0  0  0  0  0  0  0  0  0  0  0  0
   -4.0746   -2.0958   -0.7307 H   0  0  0  0  0  0  0  0  0  0  0  0
   -2.9585   -0.7083   -0.8662 H   0  0  0  0  0  0  0  0  0  0  0  0
   -4.6828   -0.4487   -0.4534 H   0  0  0  0  0  0  0  0  0  0  0  0
   -5.3340   -2.3765    4.3621 C   0  0  0  0  0  0  0  0  0  0  0  0
   -5.0140   -3.3035    4.8825 H   0  0  0  0  0  0  0  0  0  0  0  0
   -6.2728   -2.5973    3.8190 H   0  0  0  0  0  0  0  0  0  0  0  0
   -5.5641   -1.6322    5.1531 H   0  0  0  0  0  0  0  0  0  0  0  0
   -0.5956   -0.7365    3.6678 C   0  0  0  0  0  0  0  0  0  0  0  0
   -0.5560   -0.8908    4.7626 H   0  0  0  0  0  0  0  0  0  0  0  0
   -0.3079    0.3113    3.4460 H   0  0  0  0  0  0  0  0  0  0  0  0
    0.1976   -1.3535    3.1969 H   0  0  0  0  0  0  0  0  0  0  0  0
  1  2  1  0  0  0  0
  2  9  1  0  0  0  0
  3  2  2  0  0  0  0
  3  4  1  0  0  0  0
  4  6  2  0  0  0  0
  5  4  1  0  0  0  0
  6  7  1  0  0  0  0
  6 14  1  0  0  0  0
  7  8  1  0  0  0  0
  9 18  1  0  0  0  0
  9  7  2  0  0  0  0
 10  3  1  0  0  0  0
 11 10  1  0  0  0  0
 12 10  1  0  0  0  0
 13 10  1  0  0  0  0
 14 15  1  0  0  0  0
 14 17  1  0  0  0  0
 16 14  1  0  0  0  0
 18 19  1  0  0  0  0
 20 18  1  0  0  0  0
 21 18  1  0  0  0  0
M  END
