2
q = 0.0, confidence = 0.954

 16 15  0  0  0  0  0  0  0  0999 V2000
    0.9656    1.1446   -0.0004 C   0  0  0  0  0  3  0  0  0  0  0  0
    1.6175   -0.0037    0.0000 C   0  0  0  0  0  3  0  0  0  0  0  0
    3.0337   -0.4729    0.0003 C   0  0  0  0  0  0  0  0  0  0  0  0
    4.0952    0.6355    0.0000 C   0  0  0  0  0  0  0  0  0  0  0  0
    5.5350    0.1152    0.0003 C   0  0  0  0  0  0  0  0  0  0  0  0
    6.5871    1.2250    0.0000 C   0  0  0  0  0  0  0  0  0  0  0  0
    1.3030    2.1990   -0.0007 H   0  0  0  0  0  0  0  0  0  0  0  0
    3.1936   -1.1437    0.8781 H   0  0  0  0  0  0  0  0  0  0  0  0
    3.1938   -1.1442   -0.8770 H   0  0  0  0  0  0  0  0  0  0  0  0
    3.9324    1.2891   -0.8860 H   0  0  0  0  0  0  0  0  0  0  0  0
    3.9323    1.2896    0.8856 H   0  0  0  0  0  0  0  0  0  0  0  0
    5.6854   -0.5423    0.8862 H   0  0  0  0  0  0  0  0  0  0  0  0
    5.6855   -0.5428   -0.8851 H   0  0  0  0  0  0  0  0  0  0  0  0
    6.4842    1.8768    0.8930 H   0  0  0  0  0  0  0  0  0  0  0  0
    7.6189    0.8183    0.0002 H   0  0  0  0  0  0  0  0  0  0  0  0
    6.4844    1.8763   -0.8934 H   0  0  0  0  0  0  0  0  0  0  0  0
  1  2  2  0  0  0  0
  2  3  1  0  0  0  0
  3  8  1  0  0  0  0
  4  3  1  0  0  0  0
  4  5  1  0  0  0  0
  4 11  1  0  0  0  0
  5 12  1  0  0  0  0
  6 15  1  0  0  0  0
  6  5  1  0  0  0  0
  6 14  1  0  0  0  0
  7  1  1  0  0  0  0
  9  3  1  0  0  0  0
 10  4  1  0  0  0  0
 13  5  1  0  0  0  0
 16  6  1  0  0  0  0
M  END
