5
q = -1.0, confidence = 0.0

 18 18  0  0  0  0  0  0  0  0999 V2000
   -3.3888   -0.0448    0.3567 N   0  0  0  0  0  0  0  0  0  0  0  0
   -4.5677    0.0254   -0.3284 N   0  0  0  0  0  0  0  0  0  0  0  0
   -4.2610    0.1418   -1.5809 N   0  0  0  0  0  0  0  0  0  0  0  0
   -2.9048    0.1445   -1.7492 N   0  0  0  0  0  0  0  0  0  0  0  0
   -2.3454    0.0226   -0.5325 C   0  0  0  0  0  3  0  0  0  0  0  0
   -3.3791   -0.2258    1.8329 C   0  0  0  0  0  0  0  0  0  0  0  0
   -4.8071   -0.0507    2.3678 C   0  0  0  0  0  0  0  0  0  0  0  0
   -5.4943   -0.8033    1.9401 H   0  0  0  0  0  0  0  0  0  0  0  0
   -5.2087    0.9483    2.1137 H   0  0  0  0  0  0  0  0  0  0  0  0
   -4.7905   -0.1599    3.4705 H   0  0  0  0  0  0  0  0  0  0  0  0
   -2.4505    0.8229    2.4648 C   0  0  0  0  0  0  0  0  0  0  0  0
   -1.4236    0.7479    2.0461 H   0  0  0  0  0  0  0  0  0  0  0  0
   -2.3951    0.6641    3.5597 H   0  0  0  0  0  0  0  0  0  0  0  0
   -2.8356    1.8449    2.2823 H   0  0  0  0  0  0  0  0  0  0  0  0
   -2.8667   -1.6406    2.1511 C   0  0  0  0  0  0  0  0  0  0  0  0
   -1.8294   -1.7649    1.7825 H   0  0  0  0  0  0  0  0  0  0  0  0
   -3.5145   -2.4054    1.6785 H   0  0  0  0  0  0  0  0  0  0  0  0
   -2.8685   -1.8113    3.2457 H   0  0  0  0  0  0  0  0  0  0  0  0
  1  6  1  0  0  0  0
  2  1  1  0  0  0  0
  3  2  2  0  0  0  0
  4  3  1  0  0  0  0
  4  5  2  0  0  0  0
  5  1  1  0  0  0  0
  6 15  1  0  0  0  0
  6  7  1  0  0  0  0
  6 11  1  0  0  0  0
  7 10  1  0  0  0  0
  8  7  1  0  0  0  0
  9  7  1  0  0  0  0
 11 13  1  0  0  0  0
 12 11  1  0  0  0  0
 14 11  1  0  0  0  0
 15 18  1  0  0  0  0
 16 15  1  0  0  0  0
 17 15  1  0  0  0  0
M  END
