4
q = 0.0, confidence = 0.986

 72 74  0  0  0  0  0  0  0  0999 V2000
    2.5379   -0.5694   -0.0916 P   0  0  0  0  0  0  0  0  0  0  0  0
   -2.5444   -0.6402   -0.0150 P   0  0  0  0  0  0  0  0  0  0  0  0
    1.3468    2.2987   -0.0619 C   0  0  0  0  0  0  0  0  0  0  0  0
    0.6777    1.5390   -1.1155 C   0  0  0  0  0  3  0  0  0  0  0  0
    1.2347    1.4163   -2.0579 H   0  0  0  0  0  0  0  0  0  0  0  0
   -0.7737    1.5093   -1.1322 C   0  0  0  0  0  3  0  0  0  0  0  0
   -1.2998    1.3414   -2.0849 H   0  0  0  0  0  0  0  0  0  0  0  0
   -1.5057    2.2560   -0.1130 C   0  0  0  0  0  0  0  0  0  0  0  0
   -0.8272    2.9623    0.8612 C   0  0  0  0  0  0  0  0  0  0  0  0
   -1.3912    3.4776    1.6534 H   0  0  0  0  0  0  0  0  0  0  0  0
    0.6108    2.9786    0.8900 C   0  0  0  0  0  0  0  0  0  0  0  0
    1.1301    3.5056    1.7048 H   0  0  0  0  0  0  0  0  0  0  0  0
    2.8234    2.2561   -0.0672 C   0  0  0  0  0  0  0  0  0  0  0  0
    3.4950    1.0120   -0.2441 C   0  0  0  0  0  0  0  0  0  0  0  0
    4.8994    1.0046   -0.3710 C   0  0  0  0  0  0  0  0  0  0  0  0
    5.4319    0.0558   -0.5304 H   0  0  0  0  0  0  0  0  0  0  0  0
    5.6409    2.1929   -0.2926 C   0  0  0  0  0  0  0  0  0  0  0  0
    6.7351    2.1645   -0.4064 H   0  0  0  0  0  0  0  0  0  0  0  0
    4.9821    3.4108   -0.0621 C   0  0  0  0  0  0  0  0  0  0  0  0
    5.5575    4.3462    0.0108 H   0  0  0  0  0  0  0  0  0  0  0  0
    3.5862    3.4392    0.0431 C   0  0  0  0  0  0  0  0  0  0  0  0
    3.0565    4.3952    0.1731 H   0  0  0  0  0  0  0  0  0  0  0  0
   -2.9800    2.1494   -0.1590 C   0  0  0  0  0  0  0  0  0  0  0  0
   -3.5882    0.8659   -0.2776 C   0  0  0  0  0  0  0  0  0  0  0  0
   -4.9883    0.7798   -0.4161 C   0  0  0  0  0  0  0  0  0  0  0  0
   -5.4712   -0.2032   -0.5194 H   0  0  0  0  0  0  0  0  0  0  0  0
   -5.7871    1.9333   -0.4161 C   0  0  0  0  0  0  0  0  0  0  0  0
   -6.8773    1.8450   -0.5375 H   0  0  0  0  0  0  0  0  0  0  0  0
   -5.1913    3.1935   -0.2515 C   0  0  0  0  0  0  0  0  0  0  0  0
   -5.8128    4.1019   -0.2402 H   0  0  0  0  0  0  0  0  0  0  0  0
   -3.7998    3.2976   -0.1276 C   0  0  0  0  0  0  0  0  0  0  0  0
   -3.3195    4.2840   -0.0396 H   0  0  0  0  0  0  0  0  0  0  0  0
    3.0185   -1.1377    1.6417 C   0  0  0  0  0  0  0  0  0  0  0  0
    2.5013   -2.1150    1.7338 H   0  0  0  0  0  0  0  0  0  0  0  0
    4.5128   -1.3590    1.8812 C   0  0  0  0  0  0  0  0  0  0  0  0
    4.9629   -2.0640    1.1540 H   0  0  0  0  0  0  0  0  0  0  0  0
    4.6622   -1.7935    2.8917 H   0  0  0  0  0  0  0  0  0  0  0  0
    5.0804   -0.4077    1.8447 H   0  0  0  0  0  0  0  0  0  0  0  0
    2.4124   -0.1657    2.6616 C   0  0  0  0  0  0  0  0  0  0  0  0
    2.8650    0.8439    2.5763 H   0  0  0  0  0  0  0  0  0  0  0  0
    2.5969   -0.5328    3.6922 H   0  0  0  0  0  0  0  0  0  0  0  0
    1.3164   -0.0731    2.5296 H   0  0  0  0  0  0  0  0  0  0  0  0
    3.3948   -1.7407   -1.2748 C   0  0  0  0  0  0  0  0  0  0  0  0
    4.4659   -1.7452   -0.9756 H   0  0  0  0  0  0  0  0  0  0  0  0
    2.8318   -3.1586   -1.1278 C   0  0  0  0  0  0  0  0  0  0  0  0
    2.9119   -3.5551   -0.0966 H   0  0  0  0  0  0  0  0  0  0  0  0
    3.3841   -3.8493   -1.7978 H   0  0  0  0  0  0  0  0  0  0  0  0
    1.7629   -3.1832   -1.4194 H   0  0  0  0  0  0  0  0  0  0  0  0
    3.2741   -1.2158   -2.7098 C   0  0  0  0  0  0  0  0  0  0  0  0
    2.2093   -1.1767   -3.0166 H   0  0  0  0  0  0  0  0  0  0  0  0
    3.8069   -1.8967   -3.4053 H   0  0  0  0  0  0  0  0  0  0  0  0
    3.7116   -0.2036   -2.8212 H   0  0  0  0  0  0  0  0  0  0  0  0
   -2.9259   -1.0592    1.7811 C   0  0  0  0  0  0  0  0  0  0  0  0
   -2.2970   -1.9615    1.9338 H   0  0  0  0  0  0  0  0  0  0  0  0
   -4.3886   -1.3788    2.0863 C   0  0  0  0  0  0  0  0  0  0  0  0
   -5.0407   -0.4933    1.9428 H   0  0  0  0  0  0  0  0  0  0  0  0
   -4.4865   -1.6909    3.1473 H   0  0  0  0  0  0  0  0  0  0  0  0
   -4.7843   -2.2067    1.4649 H   0  0  0  0  0  0  0  0  0  0  0  0
   -2.3748    0.0498    2.6840 C   0  0  0  0  0  0  0  0  0  0  0  0
   -1.2949    0.2221    2.5056 H   0  0  0  0  0  0  0  0  0  0  0  0
   -2.4973   -0.2349    3.7494 H   0  0  0  0  0  0  0  0  0  0  0  0
   -2.9091    1.0093    2.5265 H   0  0  0  0  0  0  0  0  0  0  0  0
   -3.3599   -1.9797   -1.0350 C   0  0  0  0  0  0  0  0  0  0  0  0
   -4.4198   -2.0210   -0.7008 H   0  0  0  0  0  0  0  0  0  0  0  0
   -2.6971   -3.3341   -0.7532 C   0  0  0  0  0  0  0  0  0  0  0  0
   -1.6312   -3.3169   -1.0551 H   0  0  0  0  0  0  0  0  0  0  0  0
   -3.2068   -4.1272   -1.3381 H   0  0  0  0  0  0  0  0  0  0  0  0
   -2.7465   -3.6213    0.3157 H   0  0  0  0  0  0  0  0  0  0  0  0
   -3.3127   -1.6118   -2.5221 C   0  0  0  0  0  0  0  0  0  0  0  0
   -3.8161   -0.6461   -2.7279 H   0  0  0  0  0  0  0  0  0  0  0  0
   -3.8208   -2.3962   -3.1203 H   0  0  0  0  0  0  0  0  0  0  0  0
   -2.2616   -1.5411   -2.8683 H   0  0  0  0  0  0  0  0  0  0  0  0
  1 33  1  0  0  0  0
  2 53  1  0  0  0  0
  3 11  2  0  0  0  0
  4  3  1  0  0  0  0
  5  4  1  0  0  0  0
  6  4  1  0  0  0  0
  6  8  1  0  0  0  0
  7  6  1  0  0  0  0
  8  9  2  0  0  0  0
  9 11  1  0  0  0  0
  9 10  1  0  0  0  0
 11 12  1  0  0  0  0
 13  3  1  0  0  0  0
 13 21  1  0  0  0  0
 14  1  1  0  0  0  0
 14 13  2  0  0  0  0
 15 17  2  0  0  0  0
 15 14  1  0  0  0  0
 16 15  1  0  0  0  0
 17 19  1  0  0  0  0
 18 17  1  0  0  0  0
 19 20  1  0  0  0  0
 19 21  2  0  0  0  0
 21 22  1  0  0  0  0
 23 31  1  0  0  0  0
 23  8  1  0  0  0  0
 24 23  2  0  0  0  0
 24  2  1  0  0  0  0
 25 24  1  0  0  0  0
 26 25  1  0  0  0  0
 27 25  2  0  0  0  0
 27 29  1  0  0  0  0
 28 27  1  0  0  0  0
 29 30  1  0  0  0  0
 29 31  2  0  0  0  0
 31 32  1  0  0  0  0
 33 34  1  0  0  0  0
 33 35  1  0  0  0  0
 33 39  1  0  0  0  0
 35 37  1  0  0  0  0
 36 35  1  0  0  0  0
 38 35  1  0  0  0  0
 39 41  1  0  0  0  0
 40 39  1  0  0  0  0
 42 39  1  0  0  0  0
 43 45  1  0  0  0  0
 43 44  1  0  0  0  0
 43  1  1  0  0  0  0
 45 46  1  0  0  0  0
 47 45  1  0  0  0  0
 48 45  1  0  0  0  0
 49 43  1  0  0  0  0
 50 49  1  0  0  0  0
 51 49  1  0  0  0  0
 52 49  1  0  0  0  0
 53 54  1  0  0  0  0
 53 55  1  0  0  0  0
 53 59  1  0  0  0  0
 55 57  1  0  0  0  0
 56 55  1  0  0  0  0
 58 55  1  0  0  0  0
 59 61  1  0  0  0  0
 60 59  1  0  0  0  0
 62 59  1  0  0  0  0
 63 65  1  0  0  0  0
 63 64  1  0  0  0  0
 63  2  1  0  0  0  0
 65 68  1  0  0  0  0
 66 65  1  0  0  0  0
 67 65  1  0  0  0  0
 69 63  1  0  0  0  0
 70 69  1  0  0  0  0
 71 69  1  0  0  0  0
 72 69  1  0  0  0  0
M  END
