1
q = 0.0, confidence = 0.976

 16 16  0  0  0  0  0  0  0  0999 V2000
    0.7075   -1.0194    2.3571 C   0  0  0  0  0  3  0  0  0  0  0  0
   -0.6788   -0.8352    2.4200 C   0  0  0  0  0  3  0  0  0  0  0  0
   -1.6693   -1.9801    2.4432 C   0  0  0  0  0  0  0  0  0  0  0  0
   -0.9968   -3.3647    2.4852 C   0  0  0  0  0  0  0  0  0  0  0  0
    0.3125   -3.4121    1.6870 C   0  0  0  0  0  0  0  0  0  0  0  0
    1.3189   -2.3936    2.2340 C   0  0  0  0  0  0  0  0  0  0  0  0
    1.3746   -0.1886    2.6521 H   0  0  0  0  0  0  0  0  0  0  0  0
   -1.0643    0.1559    2.7239 H   0  0  0  0  0  0  0  0  0  0  0  0
   -2.3690   -1.8884    1.5831 H   0  0  0  0  0  0  0  0  0  0  0  0
   -2.3192   -1.8446    3.3344 H   0  0  0  0  0  0  0  0  0  0  0  0
   -1.7028   -4.1395    2.1257 H   0  0  0  0  0  0  0  0  0  0  0  0
   -0.7682   -3.6231    3.5413 H   0  0  0  0  0  0  0  0  0  0  0  0
    0.7460   -4.4317    1.7103 H   0  0  0  0  0  0  0  0  0  0  0  0
    0.1087   -3.1895    0.6132 H   0  0  0  0  0  0  0  0  0  0  0  0
    1.6657   -2.7087    3.2454 H   0  0  0  0  0  0  0  0  0  0  0  0
    2.2385   -2.3474    1.6143 H   0  0  0  0  0  0  0  0  0  0  0  0
  1  2  1  0  0  0  0
  1  7  1  0  0  0  0
  2  3  1  0  0  0  0
  2  8  1  0  0  0  0
  3  4  1  0  0  0  0
  3 10  1  0  0  0  0
  4 12  1  0  0  0  0
  5 13  1  0  0  0  0
  5  6  1  0  0  0  0
  5  4  1  0  0  0  0
  6  1  1  0  0  0  0
  6 15  1  0  0  0  0
  9  3  1  0  0  0  0
 11  4  1  0  0  0  0
 14  5  1  0  0  0  0
 16  6  1  0  0  0  0
M  END
