2
q = -1.0, confidence = 0.002

 19 19  0  0  1  0  0  0  0  0999 V2000
   -2.0049    0.5251   -0.7277 C   0  0  0  0  0  0  0  0  0  0  0  0
   -2.0092    0.5244    0.7198 C   0  0  1  0  0  3  0  0  0  0  0  0
   -0.9853    1.4559    1.1557 C   0  0  0  0  0  0  0  0  0  0  0  0
   -0.7413    1.6941    2.1982 H   0  0  0  0  0  0  0  0  0  0  0  0
   -0.3672    2.0423    0.0017 C   0  0  0  0  0  0  0  0  0  0  0  0
   -0.9776    1.4555   -1.1571 C   0  0  0  0  0  0  0  0  0  0  0  0
   -0.7270    1.6938   -2.1980 H   0  0  0  0  0  0  0  0  0  0  0  0
   -2.9745   -0.1868   -1.6213 C   0  0  0  0  0  0  0  0  0  0  0  0
   -2.5260   -0.4053   -2.6090 H   0  0  0  0  0  0  0  0  0  0  0  0
   -3.3130   -1.1428   -1.1790 H   0  0  0  0  0  0  0  0  0  0  0  0
   -3.8733    0.4437   -1.7901 H   0  0  0  0  0  0  0  0  0  0  0  0
   -2.9845   -0.1874    1.6072 C   0  0  0  0  0  0  0  0  0  0  0  0
   -2.5420   -0.4068    2.5974 H   0  0  0  0  0  0  0  0  0  0  0  0
   -3.3207   -1.1431    1.1623 H   0  0  0  0  0  0  0  0  0  0  0  0
   -3.8841    0.4432    1.7711 H   0  0  0  0  0  0  0  0  0  0  0  0
    0.7039    3.0833    0.0049 C   0  0  0  0  0  0  0  0  0  0  0  0
    1.3348    3.0063    0.9095 H   0  0  0  0  0  0  0  0  0  0  0  0
    0.2382    4.0916   -0.0166 H   0  0  0  0  0  0  0  0  0  0  0  0
    1.3640    2.9814   -0.8762 H   0  0  0  0  0  0  0  0  0  0  0  0
  1  2  1  0  0  0  0
  2  3  1  0  0  0  0
  2 12  1  6  0  0  0
  3  4  1  0  0  0  0
  5 16  1  0  0  0  0
  5  3  2  0  0  0  0
  6  1  2  0  0  0  0
  6  5  1  0  0  0  0
  7  6  1  0  0  0  0
  8 10  1  0  0  0  0
  8  1  1  0  0  0  0
  9  8  1  0  0  0  0
 11  8  1  0  0  0  0
 12 15  1  0  0  0  0
 12 13  1  0  0  0  0
 14 12  1  0  0  0  0
 16 17  1  0  0  0  0
 18 16  1  0  0  0  0
 19 16  1  0  0  0  0
M  END
