1
q = 0.0, confidence = 1.0

 39 40  0  0  0  0  0  0  0  0999 V2000
    1.0193    0.0015    0.7822 C   0  0  0  0  0  3  0  0  0  0  0  0
    1.4539   -0.9885    1.6284 N   0  0  0  0  0  0  0  0  0  0  0  0
    2.7743   -1.0544    1.7742 N   0  0  0  0  0  2  0  0  0  0  0  0
    3.2261   -0.0684    1.0144 N   0  0  0  0  0  0  0  0  0  0  0  0
    4.6658    0.1167    0.9158 C   0  0  0  0  0  0  0  0  0  0  0  0
    5.0263    0.8243    1.6875 H   0  0  0  0  0  0  0  0  0  0  0  0
    4.9085    0.5145   -0.0856 H   0  0  0  0  0  0  0  0  0  0  0  0
    5.1458   -0.8662    1.0666 H   0  0  0  0  0  0  0  0  0  0  0  0
    2.2151    0.6290    0.3822 C   0  0  0  0  0  0  0  0  0  0  0  0
    2.4336    1.7959   -0.4842 C   0  0  0  0  0  0  0  0  0  0  0  0
    1.7194    1.9047   -1.6993 C   0  0  0  0  0  0  0  0  0  0  0  0
    1.0245    1.0992   -1.9863 H   0  0  0  0  0  0  0  0  0  0  0  0
    1.9045    3.0237   -2.5216 C   0  0  0  0  0  0  0  0  0  0  0  0
    1.3451    3.0960   -3.4666 H   0  0  0  0  0  0  0  0  0  0  0  0
    2.7951    4.0440   -2.1500 C   0  0  0  0  0  0  0  0  0  0  0  0
    2.9353    4.9209   -2.8002 H   0  0  0  0  0  0  0  0  0  0  0  0
    3.4997    3.9469   -0.9398 C   0  0  0  0  0  0  0  0  0  0  0  0
    4.1842    4.7515   -0.6314 H   0  0  0  0  0  0  0  0  0  0  0  0
    3.3186    2.8329   -0.1089 C   0  0  0  0  0  0  0  0  0  0  0  0
    3.8402    2.7896    0.8586 H   0  0  0  0  0  0  0  0  0  0  0  0
    0.6166   -1.9396    2.3706 C   0  0  0  0  0  0  0  0  0  0  0  0
   -0.0550   -1.3259    3.0052 H   0  0  0  0  0  0  0  0  0  0  0  0
    1.3168   -2.5073    3.0127 H   0  0  0  0  0  0  0  0  0  0  0  0
   -0.1879   -2.8547    1.4464 C   0  0  0  0  0  0  0  0  0  0  0  0
   -0.9518   -2.2377    0.9239 H   0  0  0  0  0  0  0  0  0  0  0  0
   -0.7442   -3.5665    2.0938 H   0  0  0  0  0  0  0  0  0  0  0  0
    0.6477   -3.5990    0.4055 C   0  0  0  0  0  0  0  0  0  0  0  0
    1.2223   -2.8506   -0.1798 H   0  0  0  0  0  0  0  0  0  0  0  0
    1.3961   -4.2549    0.9070 H   0  0  0  0  0  0  0  0  0  0  0  0
   -0.2114   -4.4170   -0.5623 C   0  0  0  0  0  0  0  0  0  0  0  0
   -0.8203   -5.1495    0.0131 H   0  0  0  0  0  0  0  0  0  0  0  0
   -0.9293   -3.7208   -1.0497 H   0  0  0  0  0  0  0  0  0  0  0  0
    0.5816   -5.1573   -1.6484 C   0  0  0  0  0  0  0  0  0  0  0  0
   -0.1296   -5.7629   -2.2510 H   0  0  0  0  0  0  0  0  0  0  0  0
    1.2693   -5.8917   -1.1705 H   0  0  0  0  0  0  0  0  0  0  0  0
    1.3767   -4.2391   -2.5819 C   0  0  0  0  0  0  0  0  0  0  0  0
    0.7281   -3.4493   -3.0140 H   0  0  0  0  0  0  0  0  0  0  0  0
    1.8337   -4.8081   -3.4169 H   0  0  0  0  0  0  0  0  0  0  0  0
    2.1997   -3.7199   -2.0495 H   0  0  0  0  0  0  0  0  0  0  0  0
  1  2  1  0  0  0  0
  2  3  1  0  0  0  0
  2 21  1  0  0  0  0
  4  3  1  0  0  0  0
  5  4  1  0  0  0  0
  5  8  1  0  0  0  0
  5  6  1  0  0  0  0
  7  5  1  0  0  0  0
  9  1  2  0  0  0  0
  9  4  1  0  0  0  0
 10 19  1  0  0  0  0
 10  9  1  0  0  0  0
 11 10  2  0  0  0  0
 12 11  1  0  0  0  0
 13 15  2  0  0  0  0
 13 11  1  0  0  0  0
 14 13  1  0  0  0  0
 15 17  1  0  0  0  0
 16 15  1  0  0  0  0
 17 18  1  0  0  0  0
 17 19  2  0  0  0  0
 19 20  1  0  0  0  0
 21 22  1  0  0  0  0
 21 23  1  0  0  0  0
 24 26  1  0  0  0  0
 24 21  1  0  0  0  0
 25 24  1  0  0  0  0
 27 29  1  0  0  0  0
 27 24  1  0  0  0  0
 28 27  1  0  0  0  0
 30 31  1  0  0  0  0
 30 27  1  0  0  0  0
 32 30  1  0  0  0  0
 33 35  1  0  0  0  0
 33 30  1  0  0  0  0
 34 33  1  0  0  0  0
 36 39  1  0  0  0  0
 36 33  1  0  0  0  0
 37 36  1  0  0  0  0
 38 36  1  0  0  0  0
M  END
