1
q = 0.0, confidence = 1.0

 33 34  0  0  0  0  0  0  0  0999 V2000
   -1.0956   -0.5361   -0.5184 C   0  0  0  0  0  3  0  0  0  0  0  0
   -1.5251   -1.7525   -0.9812 N   0  0  0  0  0  0  0  0  0  0  0  0
   -2.8483   -1.8925   -1.0260 N   0  0  0  0  0  2  0  0  0  0  0  0
   -3.3044   -0.7276   -0.5870 N   0  0  0  0  0  0  0  0  0  0  0  0
   -4.7438   -0.5247   -0.5477 C   0  0  0  0  0  0  0  0  0  0  0  0
   -5.2015   -1.1984   -1.2931 H   0  0  0  0  0  0  0  0  0  0  0  0
   -4.9661    0.5294   -0.7935 H   0  0  0  0  0  0  0  0  0  0  0  0
   -5.1466   -0.7586    0.4571 H   0  0  0  0  0  0  0  0  0  0  0  0
   -2.2941    0.1520   -0.2560 C   0  0  0  0  0  0  0  0  0  0  0  0
   -2.4766    1.5298    0.2119 C   0  0  0  0  0  0  0  0  0  0  0  0
   -1.6102    2.5284   -0.2929 C   0  0  0  0  0  0  0  0  0  0  0  0
   -0.8454    2.2460   -1.0337 H   0  0  0  0  0  0  0  0  0  0  0  0
   -1.7338    3.8522    0.1453 C   0  0  0  0  0  0  0  0  0  0  0  0
   -1.0556    4.6205   -0.2554 H   0  0  0  0  0  0  0  0  0  0  0  0
   -2.7160    4.2005    1.0872 C   0  0  0  0  0  0  0  0  0  0  0  0
   -2.8084    5.2420    1.4306 H   0  0  0  0  0  0  0  0  0  0  0  0
   -3.5741    3.2141    1.5974 C   0  0  0  0  0  0  0  0  0  0  0  0
   -4.3325    3.4766    2.3503 H   0  0  0  0  0  0  0  0  0  0  0  0
   -3.4551    1.8854    1.1667 C   0  0  0  0  0  0  0  0  0  0  0  0
   -4.1004    1.1137    1.6106 H   0  0  0  0  0  0  0  0  0  0  0  0
   -0.6762   -2.8698   -1.4110 C   0  0  0  0  0  0  0  0  0  0  0  0
   -0.0210   -2.4678   -2.2102 H   0  0  0  0  0  0  0  0  0  0  0  0
   -1.3670   -3.6191   -1.8432 H   0  0  0  0  0  0  0  0  0  0  0  0
    0.1544   -3.4455   -0.2630 C   0  0  0  0  0  0  0  0  0  0  0  0
    0.8743   -2.6667    0.0717 H   0  0  0  0  0  0  0  0  0  0  0  0
    0.7582   -4.2793   -0.6826 H   0  0  0  0  0  0  0  0  0  0  0  0
   -0.6609   -3.9218    0.9404 C   0  0  0  0  0  0  0  0  0  0  0  0
   -1.2908   -3.0798    1.2993 H   0  0  0  0  0  0  0  0  0  0  0  0
   -1.3588   -4.7312    0.6281 H   0  0  0  0  0  0  0  0  0  0  0  0
    0.2279   -4.3866    2.0938 C   0  0  0  0  0  0  0  0  0  0  0  0
   -0.3733   -4.7583    2.9478 H   0  0  0  0  0  0  0  0  0  0  0  0
    0.8435   -3.5386    2.4575 H   0  0  0  0  0  0  0  0  0  0  0  0
    0.9116   -5.2042    1.7816 H   0  0  0  0  0  0  0  0  0  0  0  0
  1  9  2  0  0  0  0
  2  1  1  0  0  0  0
  3  2  1  0  0  0  0
  3  4  1  0  0  0  0
  4  5  1  0  0  0  0
  4  9  1  0  0  0  0
  5  8  1  0  0  0  0
  6  5  1  0  0  0  0
  7  5  1  0  0  0  0
  9 10  1  0  0  0  0
 10 19  1  0  0  0  0
 11 13  1  0  0  0  0
 11 10  2  0  0  0  0
 12 11  1  0  0  0  0
 13 15  2  0  0  0  0
 14 13  1  0  0  0  0
 15 16  1  0  0  0  0
 15 17  1  0  0  0  0
 17 18  1  0  0  0  0
 19 17  2  0  0  0  0
 19 20  1  0  0  0  0
 21  2  1  0  0  0  0
 21 24  1  0  0  0  0
 22 21  1  0  0  0  0
 23 21  1  0  0  0  0
 24 25  1  0  0  0  0
 24 27  1  0  0  0  0
 26 24  1  0  0  0  0
 27 28  1  0  0  0  0
 27 30  1  0  0  0  0
 29 27  1  0  0  0  0
 30 32  1  0  0  0  0
 30 31  1  0  0  0  0
 33 30  1  0  0  0  0
M  END
