1
q = -1.0, confidence = 0.0

 13 12  0  0  0  0  0  0  0  0999 V2000
   -1.3681   -1.5288   -0.0792 C   0  0  0  0  0  3  0  0  0  0  0  0
   -2.8863   -1.4304   -0.2244 C   0  0  0  0  0  0  0  0  0  0  0  0
   -3.6441   -2.7483   -0.0005 C   0  0  0  0  0  0  0  0  0  0  0  0
   -5.1576   -2.6242   -0.1804 C   0  0  0  0  0  0  0  0  0  0  0  0
   -1.1175   -2.1001    0.8463 H   0  0  0  0  0  0  0  0  0  0  0  0
   -0.9624   -2.1476   -0.9115 H   0  0  0  0  0  0  0  0  0  0  0  0
   -3.3050   -0.6656    0.4668 H   0  0  0  0  0  0  0  0  0  0  0  0
   -3.1402   -1.0549   -1.2387 H   0  0  0  0  0  0  0  0  0  0  0  0
   -3.4153   -3.1253    1.0216 H   0  0  0  0  0  0  0  0  0  0  0  0
   -3.2391   -3.5165   -0.6967 H   0  0  0  0  0  0  0  0  0  0  0  0
   -5.5868   -1.8821    0.5259 H   0  0  0  0  0  0  0  0  0  0  0  0
   -5.6789   -3.5879   -0.0083 H   0  0  0  0  0  0  0  0  0  0  0  0
   -5.4150   -2.2845   -1.2061 H   0  0  0  0  0  0  0  0  0  0  0  0
  1  5  1  0  0  0  0
  2  1  1  0  0  0  0
  2  3  1  0  0  0  0
  2  7  1  0  0  0  0
  3  9  1  0  0  0  0
  4 12  1  0  0  0  0
  4  3  1  0  0  0  0
  4 11  1  0  0  0  0
  6  1  1  0  0  0  0
  8  2  1  0  0  0  0
 10  3  1  0  0  0  0
 13  4  1  0  0  0  0
M  END
