1
q = 0.0, confidence = 1.0

 32 33  0  0  0  0  0  0  0  0999 V2000
    0.0891   -1.9414   -0.3453 C   0  0  0  0  0  2  0  0  0  0  0  0
   -0.4617   -4.1381   -0.4426 C   0  0  0  0  0  0  0  0  0  0  0  0
   -1.1218   -5.0099   -0.4487 H   0  0  0  0  0  0  0  0  0  0  0  0
    0.9029   -4.0537   -0.5599 C   0  0  0  0  0  0  0  0  0  0  0  0
    1.6657   -4.8245   -0.7006 H   0  0  0  0  0  0  0  0  0  0  0  0
   -2.3399   -2.4255   -0.1241 C   0  0  0  0  0  0  0  0  0  0  0  0
   -2.2791   -1.3169   -0.0763 H   0  0  0  0  0  0  0  0  0  0  0  0
   -2.8793   -2.9401    1.2100 C   0  0  0  0  0  0  0  0  0  0  0  0
   -2.2351   -2.5954    2.0431 H   0  0  0  0  0  0  0  0  0  0  0  0
   -3.9020   -2.5457    1.3714 H   0  0  0  0  0  0  0  0  0  0  0  0
   -2.9307   -4.0489    1.2337 H   0  0  0  0  0  0  0  0  0  0  0  0
   -3.1918   -2.8130   -1.3319 C   0  0  0  0  0  0  0  0  0  0  0  0
   -3.2682   -3.9142   -1.4498 H   0  0  0  0  0  0  0  0  0  0  0  0
   -4.2181   -2.4161   -1.1999 H   0  0  0  0  0  0  0  0  0  0  0  0
   -2.7675   -2.3778   -2.2581 H   0  0  0  0  0  0  0  0  0  0  0  0
    2.5229   -2.1108   -0.5274 C   0  0  0  0  0  0  0  0  0  0  0  0
    3.4547   -2.4252    0.4690 C   0  0  0  0  0  0  0  0  0  0  0  0
    3.1995   -3.1705    1.2358 H   0  0  0  0  0  0  0  0  0  0  0  0
    4.6805   -1.7449    0.5309 C   0  0  0  0  0  0  0  0  0  0  0  0
    5.3861   -1.9890    1.3354 H   0  0  0  0  0  0  0  0  0  0  0  0
    4.9619   -0.7253   -0.4017 C   0  0  0  0  0  0  0  0  0  0  0  0
    4.0291   -0.4355   -1.4220 C   0  0  0  0  0  0  0  0  0  0  0  0
    4.2758    0.3493   -2.1515 H   0  0  0  0  0  0  0  0  0  0  0  0
    2.8157   -1.1207   -1.4848 C   0  0  0  0  0  0  0  0  0  0  0  0
    2.0708   -0.8747   -2.2562 H   0  0  0  0  0  0  0  0  0  0  0  0
    7.0488   -0.1928    0.6219 C   0  0  0  0  0  0  0  0  0  0  0  0
    7.4624   -1.2254    0.5756 H   0  0  0  0  0  0  0  0  0  0  0  0
    7.8683    0.5292    0.4490 H   0  0  0  0  0  0  0  0  0  0  0  0
    6.6250   -0.0238    1.6373 H   0  0  0  0  0  0  0  0  0  0  0  0
   -0.9352   -2.8359   -0.3170 N   0  0  0  0  0  0  0  0  0  0  0  0
    1.2188   -2.6984   -0.5072 N   0  0  0  0  0  0  0  0  0  0  0  0
    6.0901    0.0377   -0.3936 O   0  0  0  0  0  0  0  0  0  0  0  0
  1 30  1  0  0  0  0
  2 30  1  0  0  0  0
  3  2  1  0  0  0  0
  4 31  1  0  0  0  0
  4  2  2  0  0  0  0
  5  4  1  0  0  0  0
  6  7  1  0  0  0  0
  6  8  1  0  0  0  0
  8 11  1  0  0  0  0
  8 10  1  0  0  0  0
  8  9  1  0  0  0  0
 12 14  1  0  0  0  0
 12  6  1  0  0  0  0
 13 12  1  0  0  0  0
 15 12  1  0  0  0  0
 16 31  1  0  0  0  0
 16 17  1  0  0  0  0
 17 19  2  0  0  0  0
 17 18  1  0  0  0  0
 19 20  1  0  0  0  0
 21 32  1  0  0  0  0
 21 19  1  0  0  0  0
 22 21  2  0  0  0  0
 23 22  1  0  0  0  0
 24 22  1  0  0  0  0
 24 16  2  0  0  0  0
 25 24  1  0  0  0  0
 26 29  1  0  0  0  0
 27 26  1  0  0  0  0
 28 26  1  0  0  0  0
 30  6  1  0  0  0  0
 31  1  1  0  0  0  0
 32 26  1  0  0  0  0
M  END
