1
q = 0.0, confidence = 0.996

 28 29  0  0  0  0  0  0  0  0999 V2000
    0.9267    1.7779   -0.1767 C   0  0  0  0  0  2  0  0  0  0  0  0
   -1.1338    3.1676   -0.0682 C   0  0  0  0  0  0  0  0  0  0  0  0
   -1.5168    2.1251   -0.0939 H   0  0  0  0  0  0  0  0  0  0  0  0
   -1.6768    3.9132   -1.2858 C   0  0  0  0  0  0  0  0  0  0  0  0
   -1.3854    3.3882   -2.2165 H   0  0  0  0  0  0  0  0  0  0  0  0
   -1.3103    4.9601   -1.3311 H   0  0  0  0  0  0  0  0  0  0  0  0
   -2.7832    3.9443   -1.2388 H   0  0  0  0  0  0  0  0  0  0  0  0
   -1.5051    3.7939    1.2758 C   0  0  0  0  0  0  0  0  0  0  0  0
   -1.1012    4.8229    1.3764 H   0  0  0  0  0  0  0  0  0  0  0  0
   -1.1118    3.1744    2.1064 H   0  0  0  0  0  0  0  0  0  0  0  0
   -2.6071    3.8543    1.3707 H   0  0  0  0  0  0  0  0  0  0  0  0
    1.2707    4.0205   -0.2018 C   0  0  0  0  0  0  0  0  0  0  0  0
    0.9971    5.0792   -0.2086 H   0  0  0  0  0  0  0  0  0  0  0  0
    2.5014    3.4198   -0.2430 C   0  0  0  0  0  0  0  0  0  0  0  0
    3.5084    3.8397   -0.3138 H   0  0  0  0  0  0  0  0  0  0  0  0
    3.2817    1.0371   -0.2636 C   0  0  0  0  0  0  0  0  0  0  0  0
    4.3618    1.1117    0.6307 C   0  0  0  0  0  0  0  0  0  0  0  0
    4.4079    1.9317    1.3620 H   0  0  0  0  0  0  0  0  0  0  0  0
    5.3483    0.1150    0.6049 C   0  0  0  0  0  0  0  0  0  0  0  0
    6.1906    0.1665    1.3110 H   0  0  0  0  0  0  0  0  0  0  0  0
    5.2503   -0.9527   -0.3013 C   0  0  0  0  0  0  0  0  0  0  0  0
    6.0237   -1.7354   -0.3156 H   0  0  0  0  0  0  0  0  0  0  0  0
    4.1648   -1.0167   -1.1906 C   0  0  0  0  0  0  0  0  0  0  0  0
    4.0883   -1.8440   -1.9124 H   0  0  0  0  0  0  0  0  0  0  0  0
    3.1758   -0.0227   -1.1815 C   0  0  0  0  0  0  0  0  0  0  0  0
    2.3199   -0.0565   -1.8738 H   0  0  0  0  0  0  0  0  0  0  0  0
    0.3283    2.9985   -0.1654 N   0  0  0  0  0  0  0  0  0  0  0  0
    2.2695    2.0447   -0.2358 N   0  0  0  0  0  0  0  0  0  0  0  0
  1 27  1  0  0  0  0
  2  8  1  0  0  0  0
  3  2  1  0  0  0  0
  4  7  1  0  0  0  0
  4  2  1  0  0  0  0
  5  4  1  0  0  0  0
  6  4  1  0  0  0  0
  8 11  1  0  0  0  0
  8  9  1  0  0  0  0
  8 10  1  0  0  0  0
 12 27  1  0  0  0  0
 13 12  1  0  0  0  0
 14 28  1  0  0  0  0
 14 12  2  0  0  0  0
 15 14  1  0  0  0  0
 16 28  1  0  0  0  0
 16 17  1  0  0  0  0
 17 18  1  0  0  0  0
 19 17  2  0  0  0  0
 19 20  1  0  0  0  0
 21 19  1  0  0  0  0
 22 21  1  0  0  0  0
 23 25  1  0  0  0  0
 23 21  2  0  0  0  0
 24 23  1  0  0  0  0
 25 16  2  0  0  0  0
 26 25  1  0  0  0  0
 27  2  1  0  0  0  0
 28  1  1  0  0  0  0
M  END
