7
q = 0.0, confidence = 0.91

 36 38  0  0  1  0  0  0  0  0999 V2000
    2.2936    1.7822    0.0932 S   0  0  0  0  0  0  0  0  0  0  0  0
   -0.2184   -3.1459    3.0020 O   0  0  0  0  0  0  0  0  0  0  0  0
   -1.4966   -1.2794    2.6515 O   0  0  0  0  0  0  0  0  0  0  0  0
    2.0315    2.7251    1.2231 O   0  0  0  0  0  0  0  0  0  0  0  0
    1.6842    2.0646   -1.2337 O   0  0  0  0  0  0  0  0  0  0  0  0
    0.6299   -1.3227    1.8560 N   0  0  0  0  0  0  0  0  0  0  0  0
    1.7933    0.1731    0.6811 C   0  0  1  0  0  3  0  0  0  0  0  0
    2.6407   -0.9857    0.9011 C   0  0  0  0  0  3  0  0  0  0  0  0
    2.0706   -1.6140    2.1975 C   0  0  1  0  0  0  0  0  0  0  0  0
    2.3144   -0.6753    3.3703 C   0  0  0  0  0  0  0  0  0  0  0  0
    1.5372    0.4138    3.1721 C   0  0  0  0  0  0  0  0  0  0  0  0
    0.7811    0.1753    1.8757 C   0  0  2  0  0  0  0  0  0  0  0  0
   -0.3686   -2.0203    2.5767 C   0  0  0  0  0  0  0  0  0  0  0  0
   -2.6706   -1.9373    3.1706 C   0  0  0  0  0  0  0  0  0  0  0  0
    4.0700    1.6430   -0.1391 C   0  0  0  0  0  0  0  0  0  0  0  0
    4.5731    1.2408   -1.3846 C   0  0  0  0  0  0  0  0  0  0  0  0
    5.9588    1.0970   -1.5339 C   0  0  0  0  0  0  0  0  0  0  0  0
    6.8431    1.3592   -0.4656 C   0  0  0  0  0  0  0  0  0  0  0  0
    6.2999    1.7722    0.7708 C   0  0  0  0  0  0  0  0  0  0  0  0
    4.9178    1.9164    0.9437 C   0  0  0  0  0  0  0  0  0  0  0  0
    8.3330    1.2327   -0.6517 C   0  0  0  0  0  0  0  0  0  0  0  0
    3.7111   -1.0245    0.6609 H   0  0  0  0  0  0  0  0  0  0  0  0
    2.2604   -2.6902    2.3433 H   0  0  0  0  0  0  0  0  0  0  0  0
    3.0682   -0.8379    4.1519 H   0  0  0  0  0  0  0  0  0  0  0  0
    1.5087    1.3520    3.7387 H   0  0  0  0  0  0  0  0  0  0  0  0
   -0.1569    0.7201    1.6929 H   0  0  0  0  0  0  0  0  0  0  0  0
   -3.3460   -2.1801    2.3243 H   0  0  0  0  0  0  0  0  0  0  0  0
   -3.1639   -1.2233    3.8560 H   0  0  0  0  0  0  0  0  0  0  0  0
   -2.3808   -2.8584    3.7096 H   0  0  0  0  0  0  0  0  0  0  0  0
    3.8860    1.0434   -2.2197 H   0  0  0  0  0  0  0  0  0  0  0  0
    6.3641    0.7740   -2.5056 H   0  0  0  0  0  0  0  0  0  0  0  0
    6.9766    1.9855    1.6133 H   0  0  0  0  0  0  0  0  0  0  0  0
    4.4859    2.2416    1.9014 H   0  0  0  0  0  0  0  0  0  0  0  0
    8.8517    1.0424    0.3080 H   0  0  0  0  0  0  0  0  0  0  0  0
    8.7565    2.1693   -1.0741 H   0  0  0  0  0  0  0  0  0  0  0  0
    8.5881    0.4160   -1.3553 H   0  0  0  0  0  0  0  0  0  0  0  0
  1  4  2  0  0  0  0
  3 14  1  0  0  0  0
  5  1  2  0  0  0  0
  6 12  1  0  0  0  0
  6  9  1  0  0  0  0
  6 13  1  0  0  0  0
  7  1  1  1  0  0  0
  7  8  1  0  0  0  0
  7 12  1  0  0  0  0
  8  9  1  0  0  0  0
  9 23  1  1  0  0  0
  9 10  1  0  0  0  0
 10 24  1  0  0  0  0
 11 10  2  0  0  0  0
 11 25  1  0  0  0  0
 12 26  1  6  0  0  0
 12 11  1  0  0  0  0
 13  3  1  0  0  0  0
 13  2  2  0  0  0  0
 14 29  1  0  0  0  0
 14 28  1  0  0  0  0
 15  1  1  0  0  0  0
 15 20  1  0  0  0  0
 16 15  2  0  0  0  0
 17 16  1  0  0  0  0
 17 18  2  0  0  0  0
 18 19  1  0  0  0  0
 19 20  2  0  0  0  0
 19 32  1  0  0  0  0
 20 33  1  0  0  0  0
 21 18  1  0  0  0  0
 21 34  1  0  0  0  0
 22  8  1  0  0  0  0
 27 14  1  0  0  0  0
 30 16  1  0  0  0  0
 31 17  1  0  0  0  0
 35 21  1  0  0  0  0
 36 21  1  0  0  0  0
M  END
