11
q = 0.0, confidence = 0.942

 36 38  0  0  1  0  0  0  0  0999 V2000
   -4.7009   -1.0887   -0.8221 S   0  0  0  0  0  0  0  0  0  0  0  0
   -1.2064    1.8892   -2.3097 O   0  0  0  0  0  0  0  0  0  0  0  0
   -1.2418    1.7154   -0.0333 O   0  0  0  0  0  0  0  0  0  0  0  0
   -5.6222   -1.2282   -1.9709 O   0  0  0  0  0  0  0  0  0  0  0  0
   -4.7296   -2.0210    0.3369 O   0  0  0  0  0  0  0  0  0  0  0  0
   -0.8826   -0.1632   -1.2541 N   0  0  0  0  0  0  0  0  0  0  0  0
   -3.0344   -1.0523   -1.4201 C   0  0  0  0  0  0  0  0  0  0  0  0
   -2.5815   -0.9572   -2.6905 C   0  0  0  0  0  0  0  0  0  0  0  0
   -1.0589   -0.8755   -2.5741 C   0  0  2  0  0  0  0  0  0  0  0  0
   -0.5040   -2.2269   -2.0744 C   0  0  0  0  0  3  0  0  0  0  0  0
   -1.0099   -2.3623   -0.7365 C   0  0  0  0  0  3  0  0  0  0  0  0
   -1.8259   -1.0670   -0.4940 C   0  0  1  0  0  0  0  0  0  0  0  0
   -1.1222    1.2463   -1.2890 C   0  0  0  0  0  0  0  0  0  0  0  0
   -1.2903    3.1488    0.0869 C   0  0  0  0  0  0  0  0  0  0  0  0
   -4.8173    0.5957   -0.1794 C   0  0  0  0  0  0  0  0  0  0  0  0
   -5.0341    1.6522   -1.0785 C   0  0  0  0  0  0  0  0  0  0  0  0
   -5.0402    2.9627   -0.5911 C   0  0  0  0  0  0  0  0  0  0  0  0
   -4.8357    3.2352    0.7811 C   0  0  0  0  0  0  0  0  0  0  0  0
   -4.6422    2.1495    1.6592 C   0  0  0  0  0  0  0  0  0  0  0  0
   -4.6312    0.8288    1.1885 C   0  0  0  0  0  0  0  0  0  0  0  0
   -4.7973    4.6565    1.2780 C   0  0  0  0  0  0  0  0  0  0  0  0
   -3.1721   -0.9770   -3.6148 H   0  0  0  0  0  0  0  0  0  0  0  0
   -0.5187   -0.3809   -3.3977 H   0  0  0  0  0  0  0  0  0  0  0  0
   -0.2843   -3.0549   -2.7598 H   0  0  0  0  0  0  0  0  0  0  0  0
   -1.2676   -3.3099   -0.2433 H   0  0  0  0  0  0  0  0  0  0  0  0
   -1.9819   -0.7620    0.5523 H   0  0  0  0  0  0  0  0  0  0  0  0
   -1.6135    3.3513    1.1228 H   0  0  0  0  0  0  0  0  0  0  0  0
   -2.0119    3.5697   -0.6387 H   0  0  0  0  0  0  0  0  0  0  0  0
   -0.2785    3.5604   -0.0923 H   0  0  0  0  0  0  0  0  0  0  0  0
   -5.1931    1.4390   -2.1457 H   0  0  0  0  0  0  0  0  0  0  0  0
   -5.2069    3.7980   -1.2893 H   0  0  0  0  0  0  0  0  0  0  0  0
   -4.4979    2.3431    2.7337 H   0  0  0  0  0  0  0  0  0  0  0  0
   -4.4885   -0.0231    1.8678 H   0  0  0  0  0  0  0  0  0  0  0  0
   -5.6222    5.2599    0.8491 H   0  0  0  0  0  0  0  0  0  0  0  0
   -3.8487    5.1510    0.9763 H   0  0  0  0  0  0  0  0  0  0  0  0
   -4.8647    4.7092    2.3815 H   0  0  0  0  0  0  0  0  0  0  0  0
  1 15  1  0  0  0  0
  1  5  2  0  0  0  0
  2 13  2  0  0  0  0
  3 14  1  0  0  0  0
  4  1  2  0  0  0  0
  6 12  1  0  0  0  0
  7  1  1  0  0  0  0
  7 12  1  0  0  0  0
  8  9  1  0  0  0  0
  8  7  2  0  0  0  0
  9 23  1  6  0  0  0
  9 10  1  0  0  0  0
  9  6  1  0  0  0  0
 10 11  1  0  0  0  0
 11 12  1  0  0  0  0
 11 25  1  0  0  0  0
 12 26  1  1  0  0  0
 13  6  1  0  0  0  0
 13  3  1  0  0  0  0
 14 27  1  0  0  0  0
 15 20  1  0  0  0  0
 16 17  1  0  0  0  0
 16 15  2  0  0  0  0
 17 18  2  0  0  0  0
 18 21  1  0  0  0  0
 18 19  1  0  0  0  0
 19 32  1  0  0  0  0
 20 19  2  0  0  0  0
 20 33  1  0  0  0  0
 21 36  1  0  0  0  0
 22  8  1  0  0  0  0
 24 10  1  0  0  0  0
 28 14  1  0  0  0  0
 29 14  1  0  0  0  0
 30 16  1  0  0  0  0
 31 17  1  0  0  0  0
 34 21  1  0  0  0  0
 35 21  1  0  0  0  0
M  END
