1
q = 0.0, confidence = 0.996

 34 34  0  0  1  0  0  0  0  0999 V2000
   -0.4351   -0.6745    0.0501 C   0  0  2  0  0  3  0  0  0  0  0  0
   -1.2173   -1.2907   -1.0087 C   0  0  0  0  0  0  0  0  0  0  0  0
   -0.9897   -1.2621   -2.0824 H   0  0  0  0  0  0  0  0  0  0  0  0
   -2.3550   -1.9228   -0.4030 C   0  0  0  0  0  0  0  0  0  0  0  0
   -3.1516   -2.4559   -0.9360 H   0  0  0  0  0  0  0  0  0  0  0  0
   -2.2918   -1.7071    1.0175 C   0  0  0  0  0  0  0  0  0  0  0  0
   -3.0320   -2.0474    1.7518 H   0  0  0  0  0  0  0  0  0  0  0  0
   -1.1143   -0.9389    1.3076 C   0  0  0  0  0  0  0  0  0  0  0  0
   -0.7960   -0.5954    2.3006 H   0  0  0  0  0  0  0  0  0  0  0  0
    0.8005    0.1260   -0.1275 C   0  0  0  0  0  0  0  0  0  0  0  0
    0.9029    0.9014    0.6558 H   0  0  0  0  0  0  0  0  0  0  0  0
    0.8293    0.6189   -1.1181 H   0  0  0  0  0  0  0  0  0  0  0  0
    2.1227   -1.7464   -1.1166 C   0  0  0  0  0  0  0  0  0  0  0  0
    1.2335   -2.3847   -0.9733 H   0  0  0  0  0  0  0  0  0  0  0  0
    3.0409   -2.3531   -1.0393 H   0  0  0  0  0  0  0  0  0  0  0  0
    2.0763   -1.2570   -2.1064 H   0  0  0  0  0  0  0  0  0  0  0  0
    2.2329   -1.3437    1.2931 C   0  0  0  0  0  0  0  0  0  0  0  0
    1.3424   -1.9781    1.4453 H   0  0  0  0  0  0  0  0  0  0  0  0
    2.2714   -0.5588    2.0701 H   0  0  0  0  0  0  0  0  0  0  0  0
    3.1477   -1.9589    1.3346 H   0  0  0  0  0  0  0  0  0  0  0  0
    3.2693    0.2946   -0.2671 C   0  0  0  0  0  0  0  0  0  0  0  0
    3.0686    0.7738   -1.2467 H   0  0  0  0  0  0  0  0  0  0  0  0
    3.1367    1.0697    0.5126 H   0  0  0  0  0  0  0  0  0  0  0  0
    4.6827   -0.2745   -0.2328 C   0  0  0  0  0  0  0  0  0  0  0  0
    4.8032   -1.0544   -1.0125 H   0  0  0  0  0  0  0  0  0  0  0  0
    4.8855   -0.7572    0.7468 H   0  0  0  0  0  0  0  0  0  0  0  0
    5.7360    0.8259   -0.4679 C   0  0  0  0  0  0  0  0  0  0  0  0
    6.7207    0.3242   -0.5621 H   0  0  0  0  0  0  0  0  0  0  0  0
    5.5507    1.3056   -1.4540 H   0  0  0  0  0  0  0  0  0  0  0  0
    5.8105    1.8884    0.6307 C   0  0  0  0  0  0  0  0  0  0  0  0
    6.6446    2.5912    0.4397 H   0  0  0  0  0  0  0  0  0  0  0  0
    5.9875    1.4304    1.6261 H   0  0  0  0  0  0  0  0  0  0  0  0
    4.8890    2.5031    0.6996 H   0  0  0  0  0  0  0  0  0  0  0  0
    2.1297   -0.6926   -0.0520 N   0  3  0  0  0  0  0  0  0  0  0  0
  1 10  1  6  0  0  0
  1  8  1  0  0  0  0
  2  4  2  0  0  0  0
  2  1  1  0  0  0  0
  3  2  1  0  0  0  0
  4  6  1  0  0  0  0
  5  4  1  0  0  0  0
  6  8  2  0  0  0  0
  6  7  1  0  0  0  0
  8  9  1  0  0  0  0
 10 34  1  0  0  0  0
 10 11  1  0  0  0  0
 12 10  1  0  0  0  0
 13 15  1  0  0  0  0
 13 14  1  0  0  0  0
 13 34  1  0  0  0  0
 16 13  1  0  0  0  0
 17 20  1  0  0  0  0
 17 18  1  0  0  0  0
 17 19  1  0  0  0  0
 21 24  1  0  0  0  0
 21 34  1  0  0  0  0
 21 23  1  0  0  0  0
 22 21  1  0  0  0  0
 24 26  1  0  0  0  0
 25 24  1  0  0  0  0
 27 24  1  0  0  0  0
 27 30  1  0  0  0  0
 28 27  1  0  0  0  0
 29 27  1  0  0  0  0
 30 33  1  0  0  0  0
 30 32  1  0  0  0  0
 31 30  1  0  0  0  0
 34 17  1  0  0  0  0
M  CHG  1  34   1
M  END
