21
q = 0.0, confidence = 0.998

 38 40  0  0  0  0  0  0  0  0999 V2000
    1.0569    0.0440   -0.0310 P   0  0  0  0  0  0  0  0  0  0  0  0
    1.8392    0.0112   -1.6878 C   0  0  0  0  0  0  0  0  0  0  0  0
    2.6269    1.0718   -2.1769 C   0  0  0  0  0  0  0  0  0  0  0  0
    3.1646    1.0054   -3.4728 C   0  0  0  0  0  0  0  0  0  0  0  0
    2.9213   -0.1155   -4.2808 C   0  0  0  0  0  0  0  0  0  0  0  0
    2.1317   -1.1724   -3.7956 C   0  0  0  0  0  0  0  0  0  0  0  0
    1.5848   -1.1115   -2.5071 C   0  0  0  0  0  0  0  0  0  0  0  0
    2.0176   -1.1453    0.9749 C   0  0  0  0  0  0  0  0  0  0  0  0
    1.4482   -1.6094    2.1780 C   0  0  0  0  0  0  0  0  0  0  0  0
    2.1739   -2.4793    3.0027 C   0  0  0  0  0  0  0  0  0  0  0  0
    3.4634   -2.8944    2.6308 C   0  0  0  0  0  0  0  0  0  0  0  0
    4.0270   -2.4416    1.4276 C   0  0  0  0  0  0  0  0  0  0  0  0
    3.3075   -1.5684    0.5973 C   0  0  0  0  0  0  0  0  0  0  0  0
    1.4464    1.6799    0.7048 C   0  0  0  0  0  0  0  0  0  0  0  0
    2.7019    1.9880    1.2613 C   0  0  0  0  0  0  0  0  0  0  0  0
    2.8992    3.2035    1.9310 C   0  0  0  0  0  0  0  0  0  0  0  0
    1.8296    4.1043    2.0679 C   0  0  0  0  0  0  0  0  0  0  0  0
    0.5751    3.7991    1.5241 C   0  0  0  0  0  0  0  0  0  0  0  0
    0.3674    2.5962    0.8155 C   0  0  0  0  0  0  0  0  0  0  0  0
   -0.9602    2.3356    0.2025 C   0  0  0  0  0  3  0  0  0  0  0  0
   -1.1493    2.0065   -1.1433 C   0  0  0  0  0  3  0  0  0  0  0  0
    3.7782    1.8371   -3.8512 H   0  0  0  0  0  0  0  0  0  0  0  0
    3.3434   -0.1646   -5.2959 H   0  0  0  0  0  0  0  0  0  0  0  0
    1.9321   -2.0491   -4.4300 H   0  0  0  0  0  0  0  0  0  0  0  0
    0.9513   -1.9283   -2.1290 H   0  0  0  0  0  0  0  0  0  0  0  0
    3.5191    1.2531    1.1968 H   0  0  0  0  0  0  0  0  0  0  0  0
    3.8808    3.4368    2.3699 H   0  0  0  0  0  0  0  0  0  0  0  0
    1.9718    5.0497    2.6130 H   0  0  0  0  0  0  0  0  0  0  0  0
   -0.2624    4.5045    1.6380 H   0  0  0  0  0  0  0  0  0  0  0  0
   -0.2921    1.9369   -1.8338 H   0  0  0  0  0  0  0  0  0  0  0  0
   -2.1398    2.1431   -1.6022 H   0  0  0  0  0  0  0  0  0  0  0  0
   -1.8351    2.6943    0.7686 H   0  0  0  0  0  0  0  0  0  0  0  0
    0.4258   -1.3089    2.4523 H   0  0  0  0  0  0  0  0  0  0  0  0
    1.7231   -2.8455    3.9373 H   0  0  0  0  0  0  0  0  0  0  0  0
    4.0280   -3.5826    3.2780 H   0  0  0  0  0  0  0  0  0  0  0  0
    5.0332   -2.7730    1.1290 H   0  0  0  0  0  0  0  0  0  0  0  0
    3.7450   -1.2216   -0.3513 H   0  0  0  0  0  0  0  0  0  0  0  0
    2.8197    1.9512   -1.5439 H   0  0  0  0  0  0  0  0  0  0  0  0
  1 14  1  0  0  0  0
  1  8  1  0  0  0  0
  2  1  1  0  0  0  0
  3  2  1  0  0  0  0
  3 38  1  0  0  0  0
  4  3  2  0  0  0  0
  5  6  2  0  0  0  0
  5  4  1  0  0  0  0
  6  7  1  0  0  0  0
  7 25  1  0  0  0  0
  7  2  2  0  0  0  0
  8  9  1  0  0  0  0
  9 33  1  0  0  0  0
  9 10  2  0  0  0  0
 10 34  1  0  0  0  0
 11 10  1  0  0  0  0
 11 35  1  0  0  0  0
 12 11  2  0  0  0  0
 13  8  2  0  0  0  0
 13 12  1  0  0  0  0
 14 19  2  0  0  0  0
 14 15  1  0  0  0  0
 15 16  2  0  0  0  0
 16 17  1  0  0  0  0
 16 27  1  0  0  0  0
 17 28  1  0  0  0  0
 18 29  1  0  0  0  0
 18 17  2  0  0  0  0
 19 18  1  0  0  0  0
 20 32  1  0  0  0  0
 20 19  1  0  0  0  0
 21 20  1  0  0  0  0
 22  4  1  0  0  0  0
 23  5  1  0  0  0  0
 24  6  1  0  0  0  0
 26 15  1  0  0  0  0
 30 21  1  0  0  0  0
 31 21  1  0  0  0  0
 36 12  1  0  0  0  0
 37 13  1  0  0  0  0
M  END
