5
q = -1.0, confidence = 0.002

 11 10  0  0  0  0  0  0  0  0999 V2000
   -3.8636   -1.0921   -1.2202 O   0  0  0  0  0  0  0  0  0  0  0  0
   -2.1832   -1.3538   -2.7478 N   0  0  0  0  0  0  0  0  0  0  0  0
   -1.1695   -1.2701   -2.8809 H   0  0  0  0  0  0  0  0  0  0  0  0
   -2.7614   -0.8516   -3.4247 H   0  0  0  0  0  0  0  0  0  0  0  0
   -1.7082   -1.8194   -0.4008 C   0  0  0  0  0  3  0  0  0  0  0  0
   -0.9151   -2.4505   -0.8488 H   0  0  0  0  0  0  0  0  0  0  0  0
   -2.6849   -1.3832   -1.4639 C   0  0  0  0  0  0  0  0  0  0  0  0
   -2.3990   -2.5561    0.7320 C   0  0  0  0  0  0  0  0  0  0  0  0
   -1.7329   -2.7371    1.5952 H   0  0  0  0  0  0  0  0  0  0  0  0
   -2.7562   -3.5450    0.3678 H   0  0  0  0  0  0  0  0  0  0  0  0
   -3.2917   -2.0037    1.0797 H   0  0  0  0  0  0  0  0  0  0  0  0
  2  7  1  0  0  0  0
  3  2  1  0  0  0  0
  4  2  1  0  0  0  0
  5  8  1  0  0  0  0
  6  5  1  0  0  0  0
  7  1  2  0  0  0  0
  7  5  1  0  0  0  0
  8 11  1  0  0  0  0
  8  9  1  0  0  0  0
 10  8  1  0  0  0  0
M  END
