1
q = -1.0, confidence = 0.004

 26 25  0  0  1  0  0  0  0  0999 V2000
    1.7502   -0.6839    0.6746 C   0  0  0  0  0  3  0  0  0  0  0  0
    2.3218    0.1379    1.3617 O   0  0  0  0  0  0  0  0  0  0  0  0
    2.5201   -1.9527    0.2037 C   0  0  1  0  0  0  0  0  0  0  0  0
    3.8808   -1.9270    0.5342 O   0  0  0  0  0  0  0  0  0  0  0  0
    4.6513   -0.9687   -0.1778 C   0  0  0  0  0  0  0  0  0  0  0  0
    6.1204   -1.2391    0.0869 C   0  0  0  0  0  0  0  0  0  0  0  0
    1.8848   -3.2180    0.8080 C   0  0  2  0  0  0  0  0  0  0  0  0
    1.8128   -3.0062    2.2123 O   0  0  0  0  0  0  0  0  0  0  0  0
    0.9388   -3.8796    2.9034 C   0  0  0  0  0  0  0  0  0  0  0  0
    0.8923   -3.4579    4.3611 C   0  0  0  0  0  0  0  0  0  0  0  0
    2.6752   -4.4717    0.4331 C   0  0  0  0  0  0  0  0  0  0  0  0
    2.3880   -1.9941   -0.9073 H   0  0  0  0  0  0  0  0  0  0  0  0
    4.4243   -1.0340   -1.2719 H   0  0  0  0  0  0  0  0  0  0  0  0
    4.3780    0.0597    0.1455 H   0  0  0  0  0  0  0  0  0  0  0  0
    6.7507   -0.4976   -0.4439 H   0  0  0  0  0  0  0  0  0  0  0  0
    6.4072   -2.2540   -0.2548 H   0  0  0  0  0  0  0  0  0  0  0  0
    6.3363   -1.1682    1.1716 H   0  0  0  0  0  0  0  0  0  0  0  0
    0.8499   -3.2900    0.3976 H   0  0  0  0  0  0  0  0  0  0  0  0
    1.2833   -4.9397    2.8213 H   0  0  0  0  0  0  0  0  0  0  0  0
   -0.0836   -3.8353    2.4507 H   0  0  0  0  0  0  0  0  0  0  0  0
    0.2403   -4.1403    4.9423 H   0  0  0  0  0  0  0  0  0  0  0  0
    0.4942   -2.4290    4.4517 H   0  0  0  0  0  0  0  0  0  0  0  0
    1.9089   -3.4814    4.8016 H   0  0  0  0  0  0  0  0  0  0  0  0
    2.7098   -4.5897   -0.6686 H   0  0  0  0  0  0  0  0  0  0  0  0
    2.2053   -5.3823    0.8533 H   0  0  0  0  0  0  0  0  0  0  0  0
    3.7107   -4.3852    0.8126 H   0  0  0  0  0  0  0  0  0  0  0  0
  1  2  2  0  0  0  0
  3 12  1  6  0  0  0
  3  4  1  0  0  0  0
  3  1  1  0  0  0  0
  3  7  1  0  0  0  0
  5  6  1  0  0  0  0
  5 14  1  0  0  0  0
  5  4  1  0  0  0  0
  6 17  1  0  0  0  0
  7 18  1  6  0  0  0
  7  8  1  0  0  0  0
  8  9  1  0  0  0  0
  9 10  1  0  0  0  0
 10 22  1  0  0  0  0
 10 23  1  0  0  0  0
 10 21  1  0  0  0  0
 11  7  1  0  0  0  0
 11 26  1  0  0  0  0
 11 25  1  0  0  0  0
 13  5  1  0  0  0  0
 15  6  1  0  0  0  0
 16  6  1  0  0  0  0
 19  9  1  0  0  0  0
 20  9  1  0  0  0  0
 24 11  1  0  0  0  0
M  END
