1
q = -1.0, confidence = 0.0

 16 15  0  0  0  0  0  0  0  0999 V2000
    1.7281   -0.0004   -0.8005 C   0  0  0  0  0  2  0  0  0  0  0  0
    2.0919   -0.0006   -2.0362 N   0  0  0  0  0  2  0  0  0  0  0  0
    2.3732   -0.0010   -3.1695 N   0  0  0  0  0  1  0  0  0  0  0  0
    3.1774   -0.0001    0.4070 Si  0  0  0  0  0  0  0  0  0  0  0  0
    4.7474   -0.0003   -0.6668 C   0  0  0  0  0  0  0  0  0  0  0  0
    3.2430   -1.5434    1.5092 C   0  0  0  0  0  0  0  0  0  0  0  0
    5.6509   -0.0002   -0.0223 H   0  0  0  0  0  0  0  0  0  0  0  0
    4.7956    0.8934   -1.3223 H   0  0  0  0  0  0  0  0  0  0  0  0
    2.3446   -1.6077    2.1543 H   0  0  0  0  0  0  0  0  0  0  0  0
    4.1374   -1.4914    2.1652 H   0  0  0  0  0  0  0  0  0  0  0  0
    3.3247   -2.4723    0.9080 H   0  0  0  0  0  0  0  0  0  0  0  0
    3.2431    1.5436    1.5085 C   0  0  0  0  0  0  0  0  0  0  0  0
    4.7956   -0.8943   -1.3219 H   0  0  0  0  0  0  0  0  0  0  0  0
    2.3448    1.6081    2.1538 H   0  0  0  0  0  0  0  0  0  0  0  0
    4.1376    1.4920    2.1643 H   0  0  0  0  0  0  0  0  0  0  0  0
    3.3245    2.4723    0.9070 H   0  0  0  0  0  0  0  0  0  0  0  0
  1  4  1  0  0  0  0
  2  1  1  0  0  0  0
  3  2  1  0  0  0  0
  4 12  1  0  0  0  0
  4  6  1  0  0  0  0
  5  7  1  0  0  0  0
  5  4  1  0  0  0  0
  6  9  1  0  0  0  0
  6 10  1  0  0  0  0
  8  5  1  0  0  0  0
 11  6  1  0  0  0  0
 12 14  1  0  0  0  0
 12 15  1  0  0  0  0
 13  5  1  0  0  0  0
 16 12  1  0  0  0  0
M  END
