1
q = 0.0, confidence = 0.946

 18 18  0  0  0  0  0  0  0  0999 V2000
    1.1193   -1.0419    1.4433 C   0  0  0  0  0  3  0  0  0  0  0  0
    1.6378   -0.2923    0.4514 C   0  0  0  0  0  3  0  0  0  0  0  0
    2.8591    0.1919   -0.1708 C   0  0  0  0  0  0  0  0  0  0  0  0
    3.0408    1.5811   -0.3863 C   0  0  0  0  0  0  0  0  0  0  0  0
    4.2020    2.0621   -1.0043 C   0  0  0  0  0  0  0  0  0  0  0  0
    5.1965    1.1718   -1.4427 C   0  0  0  0  0  0  0  0  0  0  0  0
    5.0260   -0.2081   -1.2442 C   0  0  0  0  0  0  0  0  0  0  0  0
    3.8757   -0.6944   -0.6080 C   0  0  0  0  0  0  0  0  0  0  0  0
    1.4796   -1.7523    2.5068 O   0  0  0  0  0  0  0  0  0  0  0  0
    2.8880   -1.7757    2.7840 C   0  0  0  0  0  0  0  0  0  0  0  0
    2.2580    2.2749   -0.0463 H   0  0  0  0  0  0  0  0  0  0  0  0
    4.3306    3.1457   -1.1507 H   0  0  0  0  0  0  0  0  0  0  0  0
    6.1031    1.5522   -1.9369 H   0  0  0  0  0  0  0  0  0  0  0  0
    5.7995   -0.9139   -1.5840 H   0  0  0  0  0  0  0  0  0  0  0  0
    3.7475   -1.7771   -0.4552 H   0  0  0  0  0  0  0  0  0  0  0  0
    3.2771   -0.7463    2.9274 H   0  0  0  0  0  0  0  0  0  0  0  0
    3.4473   -2.2598    1.9560 H   0  0  0  0  0  0  0  0  0  0  0  0
    3.0168   -2.3594    3.7135 H   0  0  0  0  0  0  0  0  0  0  0  0
  1  9  1  0  0  0  0
  2  1  2  0  0  0  0
  3  2  1  0  0  0  0
  4  3  1  0  0  0  0
  4 11  1  0  0  0  0
  5  4  2  0  0  0  0
  6  7  2  0  0  0  0
  6  5  1  0  0  0  0
  7  8  1  0  0  0  0
  8 15  1  0  0  0  0
  8  3  2  0  0  0  0
  9 10  1  0  0  0  0
 10 16  1  0  0  0  0
 10 18  1  0  0  0  0
 12  5  1  0  0  0  0
 13  6  1  0  0  0  0
 14  7  1  0  0  0  0
 17 10  1  0  0  0  0
M  END
