2
q = 0.0, confidence = 0.98

 16 15  0  0  0  0  0  0  0  0999 V2000
    3.3103   -0.1924   -0.1268 P   0  0  0  0  0  4  0  0  0  0  0  0
    1.7596   -0.5025    0.7507 C   0  0  0  0  0  3  0  0  0  0  0  0
    4.6001   -1.1370    0.7660 C   0  0  0  0  0  0  0  0  0  0  0  0
    3.4202   -0.7573   -1.8433 C   0  0  0  0  0  0  0  0  0  0  0  0
    3.8545    1.5404   -0.0317 C   0  0  0  0  0  0  0  0  0  0  0  0
    1.9332   -0.0508    1.7499 H   0  0  0  0  0  0  0  0  0  0  0  0
    1.7843   -1.6054    0.8820 H   0  0  0  0  0  0  0  0  0  0  0  0
    5.5946   -0.9492    0.3151 H   0  0  0  0  0  0  0  0  0  0  0  0
    4.3759   -2.2197    0.7010 H   0  0  0  0  0  0  0  0  0  0  0  0
    4.6230   -0.8370    1.8317 H   0  0  0  0  0  0  0  0  0  0  0  0
    4.4594   -0.5956   -2.1922 H   0  0  0  0  0  0  0  0  0  0  0  0
    2.6959   -0.1870   -2.4527 H   0  0  0  0  0  0  0  0  0  0  0  0
    3.1525   -1.8288   -1.8886 H   0  0  0  0  0  0  0  0  0  0  0  0
    4.8437    1.6367   -0.5203 H   0  0  0  0  0  0  0  0  0  0  0  0
    3.9460    1.8427    1.0294 H   0  0  0  0  0  0  0  0  0  0  0  0
    3.1082    2.1668   -0.5555 H   0  0  0  0  0  0  0  0  0  0  0  0
  1  5  1  0  0  0  0
  1  2  1  0  0  0  0
  1  3  1  0  0  0  0
  2  7  1  0  0  0  0
  2  6  1  0  0  0  0
  3 10  1  0  0  0  0
  4  1  1  0  0  0  0
  5 15  1  0  0  0  0
  8  3  1  0  0  0  0
  9  3  1  0  0  0  0
 11  4  1  0  0  0  0
 12  4  1  0  0  0  0
 13  4  1  0  0  0  0
 14  5  1  0  0  0  0
 16  5  1  0  0  0  0
M  END
