3
q = -2.0, confidence = 0.816

 39 42  0  0  1  0  0  0  0  0999 V2000
    2.6995   -1.5466   -0.7836 Si  0  0  0  0  0  0  0  0  0  0  0  0
    1.4126   -1.8932    0.5530 C   0  0  1  0  0  3  0  0  0  0  0  0
    1.4165   -1.1571    1.7924 C   0  0  0  0  0  3  0  0  0  0  0  0
    2.2728   -0.5922    2.1857 H   0  0  0  0  0  0  0  0  0  0  0  0
    0.1406   -1.2023    2.4080 C   0  0  0  0  0  3  0  0  0  0  0  0
   -0.1354   -0.7398    3.3618 H   0  0  0  0  0  0  0  0  0  0  0  0
   -0.7047   -2.0212    1.5898 C   0  0  0  0  0  0  0  0  0  0  0  0
   -2.0559   -2.4465    1.7345 C   0  0  0  0  0  0  0  0  0  0  0  0
   -2.6434   -2.1264    2.6080 H   0  0  0  0  0  0  0  0  0  0  0  0
   -2.6068   -3.2736    0.7661 C   0  0  0  0  0  0  0  0  0  0  0  0
   -3.6477   -3.6157    0.8676 H   0  0  0  0  0  0  0  0  0  0  0  0
   -1.8421   -3.6995   -0.3627 C   0  0  0  0  0  0  0  0  0  0  0  0
   -2.3106   -4.3633   -1.1048 H   0  0  0  0  0  0  0  0  0  0  0  0
   -0.5265   -3.2959   -0.5394 C   0  0  0  0  0  0  0  0  0  0  0  0
    0.0528   -3.6450   -1.4054 H   0  0  0  0  0  0  0  0  0  0  0  0
    0.0812   -2.4510    0.4370 C   0  0  0  0  0  0  0  0  0  0  0  0
    2.1017    0.1930   -1.2164 C   0  0  0  0  0  0  0  0  0  0  0  0
    1.0047    0.4460   -2.1087 C   0  0  0  0  0  0  0  0  0  0  0  0
    0.6244   -0.2698   -2.8507 H   0  0  0  0  0  0  0  0  0  0  0  0
    0.4266    1.7171   -1.8479 C   0  0  0  0  0  0  0  0  0  0  0  0
   -0.4194    2.1675   -2.3787 H   0  0  0  0  0  0  0  0  0  0  0  0
    1.2042    2.3418   -0.8172 C   0  0  0  0  0  0  0  0  0  0  0  0
    1.1440    3.6322   -0.2178 C   0  0  0  0  0  0  0  0  0  0  0  0
    0.3870    4.3580   -0.5508 H   0  0  0  0  0  0  0  0  0  0  0  0
    2.0491    3.9515    0.7818 C   0  0  0  0  0  0  0  0  0  0  0  0
    2.0160    4.9461    1.2514 H   0  0  0  0  0  0  0  0  0  0  0  0
    3.0330    3.0116    1.2146 C   0  0  0  0  0  0  0  0  0  0  0  0
    3.7385    3.3023    2.0076 H   0  0  0  0  0  0  0  0  0  0  0  0
    3.1276    1.7511    0.6428 C   0  0  0  0  0  0  0  0  0  0  0  0
    3.9154    1.0533    0.9605 H   0  0  0  0  0  0  0  0  0  0  0  0
    2.2265    1.3891   -0.4047 C   0  0  2  0  0  3  0  0  0  0  0  0
    2.5523   -2.6761   -2.2866 C   0  0  0  0  0  0  0  0  0  0  0  0
    1.5695   -2.5795   -2.7880 H   0  0  0  0  0  0  0  0  0  0  0  0
    2.6877   -3.7377   -1.9960 H   0  0  0  0  0  0  0  0  0  0  0  0
    3.3367   -2.4200   -3.0277 H   0  0  0  0  0  0  0  0  0  0  0  0
    4.4492   -1.6041   -0.0823 C   0  0  0  0  0  0  0  0  0  0  0  0
    5.1685   -1.1218   -0.7751 H   0  0  0  0  0  0  0  0  0  0  0  0
    4.7606   -2.6588    0.0634 H   0  0  0  0  0  0  0  0  0  0  0  0
    4.5238   -1.0974    0.8998 H   0  0  0  0  0  0  0  0  0  0  0  0
  1 36  1  0  0  0  0
  2  1  1  6  0  0  0
  2  3  1  0  0  0  0
  3  4  1  0  0  0  0
  3  5  1  0  0  0  0
  5  6  1  0  0  0  0
  7  8  1  0  0  0  0
  7  5  1  0  0  0  0
  8  9  1  0  0  0  0
 10 11  1  0  0  0  0
 10  8  2  0  0  0  0
 12 10  1  0  0  0  0
 13 12  1  0  0  0  0
 14 12  2  0  0  0  0
 14 16  1  0  0  0  0
 15 14  1  0  0  0  0
 16  2  1  0  0  0  0
 16  7  2  0  0  0  0
 17  1  1  0  0  0  0
 18 20  1  0  0  0  0
 18 17  2  0  0  0  0
 19 18  1  0  0  0  0
 20 22  2  0  0  0  0
 21 20  1  0  0  0  0
 22 31  1  0  0  0  0
 22 23  1  0  0  0  0
 23 25  2  0  0  0  0
 24 23  1  0  0  0  0
 25 27  1  0  0  0  0
 25 26  1  0  0  0  0
 27 28  1  0  0  0  0
 29 30  1  0  0  0  0
 29 27  2  0  0  0  0
 31 17  1  6  0  0  0
 31 29  1  0  0  0  0
 32 34  1  0  0  0  0
 32  1  1  0  0  0  0
 33 32  1  0  0  0  0
 35 32  1  0  0  0  0
 36 38  1  0  0  0  0
 36 39  1  0  0  0  0
 37 36  1  0  0  0  0
M  END
