7
q = -1.0, confidence = 0.0

 32 33  0  0  1  0  0  0  0  0999 V2000
   -1.2949    1.3437   -2.1886 C   0  0  0  0  0  0  0  0  0  0  0  0
   -2.2197    1.9048   -2.3602 H   0  0  0  0  0  0  0  0  0  0  0  0
    0.0132    1.7583   -2.5466 C   0  0  0  0  0  0  0  0  0  0  0  0
    0.2786    2.7065   -3.0284 H   0  0  0  0  0  0  0  0  0  0  0  0
    0.9296    0.7397   -2.1386 C   0  0  0  0  0  3  0  0  0  0  0  0
    2.0194    0.7653   -2.2551 H   0  0  0  0  0  0  0  0  0  0  0  0
    0.1838   -0.2930   -1.5118 C   0  0  0  0  0  3  0  0  0  0  0  0
    0.5932   -1.2082   -1.0719 H   0  0  0  0  0  0  0  0  0  0  0  0
   -1.2100    0.0744   -1.5275 C   0  0  1  0  0  3  0  0  0  0  0  0
   -2.3336   -0.7052   -0.9592 C   0  0  2  0  0  3  0  0  0  0  0  0
   -3.4574   -0.0478   -0.5029 C   0  0  0  0  0  3  0  0  0  0  0  0
   -3.3555    1.0429   -0.3792 H   0  0  0  0  0  0  0  0  0  0  0  0
   -2.0917   -2.0780   -0.8133 N   0  0  0  0  0  0  0  0  0  0  0  0
   -2.6566   -2.8426    0.2770 C   0  0  0  0  0  0  0  0  0  0  0  0
   -2.8693   -2.1762    1.1337 H   0  0  0  0  0  0  0  0  0  0  0  0
   -1.9208   -3.6151    0.5934 H   0  0  0  0  0  0  0  0  0  0  0  0
   -3.6085   -3.3655    0.0213 H   0  0  0  0  0  0  0  0  0  0  0  0
   -1.5868   -2.8727   -1.9183 C   0  0  0  0  0  0  0  0  0  0  0  0
   -2.3985   -3.4752   -2.3931 H   0  0  0  0  0  0  0  0  0  0  0  0
   -0.8030   -3.5826   -1.5719 H   0  0  0  0  0  0  0  0  0  0  0  0
   -1.1495   -2.2208   -2.6959 H   0  0  0  0  0  0  0  0  0  0  0  0
   -4.7665   -0.5939   -0.1523 C   0  0  0  0  0  0  0  0  0  0  0  0
   -5.3221   -1.7359   -0.7870 C   0  0  0  0  0  0  0  0  0  0  0  0
   -4.7520   -2.2349   -1.5850 H   0  0  0  0  0  0  0  0  0  0  0  0
   -6.6019   -2.1977   -0.4537 C   0  0  0  0  0  0  0  0  0  0  0  0
   -7.0127   -3.0795   -0.9694 H   0  0  0  0  0  0  0  0  0  0  0  0
   -7.3679   -1.5328    0.5181 C   0  0  0  0  0  0  0  0  0  0  0  0
   -8.3728   -1.8979    0.7785 H   0  0  0  0  0  0  0  0  0  0  0  0
   -6.8463   -0.3847    1.1390 C   0  0  0  0  0  0  0  0  0  0  0  0
   -7.4437    0.1547    1.8901 H   0  0  0  0  0  0  0  0  0  0  0  0
   -5.5702    0.0814    0.8031 C   0  0  0  0  0  0  0  0  0  0  0  0
   -5.1696    0.9866    1.2866 H   0  0  0  0  0  0  0  0  0  0  0  0
  1  9  1  0  0  0  0
  2  1  1  0  0  0  0
  3  1  2  0  0  0  0
  3  5  1  0  0  0  0
  4  3  1  0  0  0  0
  5  7  1  0  0  0  0
  6  5  1  0  0  0  0
  7  8  1  0  0  0  0
  9  7  1  0  0  0  0
  9 10  1  1  0  0  0
 10 13  1  0  0  0  0
 10 11  1  1  0  0  0
 11 12  1  0  0  0  0
 11 22  1  0  0  0  0
 13 14  1  0  0  0  0
 14 16  1  0  0  0  0
 14 15  1  0  0  0  0
 17 14  1  0  0  0  0
 18 20  1  0  0  0  0
 18 13  1  0  0  0  0
 19 18  1  0  0  0  0
 21 18  1  0  0  0  0
 22 31  1  0  0  0  0
 23 25  1  0  0  0  0
 23 22  2  0  0  0  0
 24 23  1  0  0  0  0
 25 27  2  0  0  0  0
 26 25  1  0  0  0  0
 27 28  1  0  0  0  0
 27 29  1  0  0  0  0
 29 30  1  0  0  0  0
 31 29  2  0  0  0  0
 31 32  1  0  0  0  0
M  END
