5
q = 0.0, confidence = 0.998

 47 49  0  0  0  0  0  0  0  0999 V2000
    1.0060   -1.9509   -1.1768 N   0  0  0  0  0  0  0  0  0  0  0  0
   -0.9525   -1.6243   -0.3300 N   0  0  0  0  0  0  0  0  0  0  0  0
    3.2472   -0.7281    0.3970 N   0  0  0  0  0  0  0  0  0  0  0  0
    3.5174    0.5476    0.0268 N   0  0  0  0  0  0  0  0  0  0  0  0
    0.1359   -0.9556   -0.8240 C   0  0  0  0  0  2  0  0  0  0  0  0
   -0.7670   -3.0021   -0.3660 C   0  0  0  0  0  0  0  0  0  0  0  0
   -1.5344   -3.7026   -0.0243 H   0  0  0  0  0  0  0  0  0  0  0  0
    0.4791   -3.2090   -0.9000 C   0  0  0  0  0  0  0  0  0  0  0  0
    1.0210   -4.1351   -1.1150 H   0  0  0  0  0  0  0  0  0  0  0  0
    2.3506   -1.7104   -1.6870 C   0  0  0  0  0  0  0  0  0  0  0  0
    2.3558   -0.6979   -2.1351 H   0  0  0  0  0  0  0  0  0  0  0  0
    2.5724   -2.4545   -2.4785 H   0  0  0  0  0  0  0  0  0  0  0  0
    3.4200   -1.7717   -0.5863 C   0  0  0  0  0  0  0  0  0  0  0  0
    3.4029   -2.7536   -0.0735 H   0  0  0  0  0  0  0  0  0  0  0  0
    4.4156   -1.6492   -1.0596 H   0  0  0  0  0  0  0  0  0  0  0  0
    2.7037   -0.8185    1.6574 C   0  0  0  0  0  0  0  0  0  0  0  0
    2.6431    0.4942    2.1257 C   0  0  0  0  0  0  0  0  0  0  0  0
    2.2841    0.8199    3.1082 H   0  0  0  0  0  0  0  0  0  0  0  0
    3.1601    1.3086    1.0748 C   0  0  0  0  0  0  0  0  0  0  0  0
    2.3216   -2.1120    2.3012 C   0  0  0  0  0  0  0  0  0  0  0  0
    1.5323   -2.6503    1.7345 H   0  0  0  0  0  0  0  0  0  0  0  0
    1.9284   -1.9204    3.3165 H   0  0  0  0  0  0  0  0  0  0  0  0
    3.1867   -2.8016    2.4048 H   0  0  0  0  0  0  0  0  0  0  0  0
    3.2931    2.7968    1.0292 C   0  0  0  0  0  0  0  0  0  0  0  0
    2.3704    3.2515    0.6033 H   0  0  0  0  0  0  0  0  0  0  0  0
    4.1371    3.0879    0.3753 H   0  0  0  0  0  0  0  0  0  0  0  0
    3.4585    3.2153    2.0408 H   0  0  0  0  0  0  0  0  0  0  0  0
   -2.1462   -0.9558    0.1224 C   0  0  0  0  0  0  0  0  0  0  0  0
   -3.1774   -0.7146   -0.8106 C   0  0  0  0  0  0  0  0  0  0  0  0
   -4.3274   -0.0502   -0.3518 C   0  0  0  0  0  0  0  0  0  0  0  0
   -5.1420    0.1501   -1.0660 H   0  0  0  0  0  0  0  0  0  0  0  0
   -4.4569    0.3792    0.9821 C   0  0  0  0  0  0  0  0  0  0  0  0
   -3.3976    0.1249    1.8729 C   0  0  0  0  0  0  0  0  0  0  0  0
   -3.4774    0.4630    2.9183 H   0  0  0  0  0  0  0  0  0  0  0  0
   -2.2263   -0.5377    1.4679 C   0  0  0  0  0  0  0  0  0  0  0  0
   -3.0193   -1.1086   -2.2554 C   0  0  0  0  0  0  0  0  0  0  0  0
   -2.7531   -2.1792   -2.3719 H   0  0  0  0  0  0  0  0  0  0  0  0
   -2.2016   -0.5225   -2.7270 H   0  0  0  0  0  0  0  0  0  0  0  0
   -3.9483   -0.9189   -2.8244 H   0  0  0  0  0  0  0  0  0  0  0  0
   -1.0777   -0.7570    2.4150 C   0  0  0  0  0  0  0  0  0  0  0  0
   -0.1756   -0.2061    2.0712 H   0  0  0  0  0  0  0  0  0  0  0  0
   -0.7934   -1.8274    2.4794 H   0  0  0  0  0  0  0  0  0  0  0  0
   -1.3293   -0.4056    3.4330 H   0  0  0  0  0  0  0  0  0  0  0  0
   -5.6802    1.1354    1.4339 C   0  0  0  0  0  0  0  0  0  0  0  0
   -5.8882    0.9733    2.5097 H   0  0  0  0  0  0  0  0  0  0  0  0
   -6.5791    0.8435    0.8564 H   0  0  0  0  0  0  0  0  0  0  0  0
   -5.5384    2.2280    1.2891 H   0  0  0  0  0  0  0  0  0  0  0  0
  1  8  1  0  0  0  0
  1  5  1  0  0  0  0
  2 28  1  0  0  0  0
  3 16  1  0  0  0  0
  4  3  1  0  0  0  0
  4 19  2  0  0  0  0
  5  2  1  0  0  0  0
  6  2  1  0  0  0  0
  6  7  1  0  0  0  0
  8  6  2  0  0  0  0
  9  8  1  0  0  0  0
 10  1  1  0  0  0  0
 10 13  1  0  0  0  0
 11 10  1  0  0  0  0
 12 10  1  0  0  0  0
 13 14  1  0  0  0  0
 13  3  1  0  0  0  0
 15 13  1  0  0  0  0
 16 17  2  0  0  0  0
 16 20  1  0  0  0  0
 17 18  1  0  0  0  0
 19 17  1  0  0  0  0
 20 23  1  0  0  0  0
 20 22  1  0  0  0  0
 21 20  1  0  0  0  0
 24 19  1  0  0  0  0
 24 27  1  0  0  0  0
 25 24  1  0  0  0  0
 26 24  1  0  0  0  0
 28 35  1  0  0  0  0
 29 30  1  0  0  0  0
 29 28  2  0  0  0  0
 30 32  2  0  0  0  0
 31 30  1  0  0  0  0
 32 44  1  0  0  0  0
 32 33  1  0  0  0  0
 33 34  1  0  0  0  0
 35 33  2  0  0  0  0
 35 40  1  0  0  0  0
 36 29  1  0  0  0  0
 37 36  1  0  0  0  0
 38 36  1  0  0  0  0
 39 36  1  0  0  0  0
 40 42  1  0  0  0  0
 40 43  1  0  0  0  0
 41 40  1  0  0  0  0
 44 45  1  0  0  0  0
 46 44  1  0  0  0  0
 47 44  1  0  0  0  0
M  END
