1
q = 0.0, confidence = 1.0

 27 28  0  0  0  0  0  0  0  0999 V2000
   -1.3752   -0.3943   -0.7115 C   0  0  0  0  0  2  0  0  0  0  0  0
   -2.6394   -0.4995   -0.1462 N   0  0  0  0  0  0  0  0  0  0  0  0
   -3.1394    0.1650    0.9670 C   0  0  0  0  0  0  0  0  0  0  0  0
   -4.4152   -0.0843    1.3988 C   0  0  0  0  0  0  0  0  0  0  0  0
   -5.2547   -1.0292    0.7175 C   0  0  0  0  0  0  0  0  0  0  0  0
   -4.7733   -1.7002   -0.3843 C   0  0  0  0  0  0  0  0  0  0  0  0
   -3.4441   -1.4448   -0.8295 C   0  0  0  0  0  0  0  0  0  0  0  0
   -2.6499   -1.9255   -1.8526 C   0  0  0  0  0  0  0  0  0  0  0  0
   -1.4258   -1.2842   -1.7652 N   0  0  0  0  0  0  0  0  0  0  0  0
   -0.2698   -1.6581   -2.6590 C   0  0  0  0  0  0  0  0  0  0  0  0
   -0.7833   -2.3983   -3.9032 C   0  0  0  0  0  0  0  0  0  0  0  0
    0.4479   -0.3831   -3.1099 C   0  0  0  0  0  0  0  0  0  0  0  0
    0.6541   -2.5870   -1.8539 C   0  0  0  0  0  0  0  0  0  0  0  0
   -2.4464    0.8697    1.4384 H   0  0  0  0  0  0  0  0  0  0  0  0
   -4.7868    0.4569    2.2795 H   0  0  0  0  0  0  0  0  0  0  0  0
   -6.2759   -1.2122    1.0798 H   0  0  0  0  0  0  0  0  0  0  0  0
   -5.3822   -2.4326   -0.9319 H   0  0  0  0  0  0  0  0  0  0  0  0
   -2.8884   -2.6631   -2.6184 H   0  0  0  0  0  0  0  0  0  0  0  0
    0.0738   -2.5667   -4.5824 H   0  0  0  0  0  0  0  0  0  0  0  0
   -1.5380   -1.8045   -4.4553 H   0  0  0  0  0  0  0  0  0  0  0  0
   -1.2052   -3.3939   -3.6647 H   0  0  0  0  0  0  0  0  0  0  0  0
    1.3801   -0.6468   -3.6446 H   0  0  0  0  0  0  0  0  0  0  0  0
    0.7009    0.2477   -2.2324 H   0  0  0  0  0  0  0  0  0  0  0  0
   -0.1921    0.2131   -3.7899 H   0  0  0  0  0  0  0  0  0  0  0  0
    1.5294   -2.8777   -2.4662 H   0  0  0  0  0  0  0  0  0  0  0  0
    1.0141   -2.0857   -0.9389 H   0  0  0  0  0  0  0  0  0  0  0  0
    0.1151   -3.5085   -1.5575 H   0  0  0  0  0  0  0  0  0  0  0  0
  1  2  1  0  0  0  0
  2  3  1  0  0  0  0
  3  4  2  0  0  0  0
  3 14  1  0  0  0  0
  4 15  1  0  0  0  0
  5 16  1  0  0  0  0
  5  4  1  0  0  0  0
  6  5  2  0  0  0  0
  7  6  1  0  0  0  0
  7  2  1  0  0  0  0
  8  9  1  0  0  0  0
  8  7  2  0  0  0  0
  9  1  1  0  0  0  0
 10 13  1  0  0  0  0
 10  9  1  0  0  0  0
 11 21  1  0  0  0  0
 11 10  1  0  0  0  0
 12 10  1  0  0  0  0
 12 23  1  0  0  0  0
 13 27  1  0  0  0  0
 13 26  1  0  0  0  0
 17  6  1  0  0  0  0
 18  8  1  0  0  0  0
 19 11  1  0  0  0  0
 20 11  1  0  0  0  0
 22 12  1  0  0  0  0
 24 12  1  0  0  0  0
 25 13  1  0  0  0  0
M  END
