4
q = 0.0, confidence = 0.998

 26 27  0  0  0  0  0  0  0  0999 V2000
    3.0273   -1.7139    0.7264 N   0  0  0  0  0  0  0  0  0  0  0  0
    2.8121   -0.8754   -1.2479 N   0  0  0  0  0  0  0  0  0  0  0  0
   -3.4371    1.3630   -1.8127 N   0  0  0  0  0  0  0  0  0  0  0  0
    2.0857   -1.3740   -0.2015 C   0  0  0  0  0  2  0  0  0  0  0  0
    4.3068   -1.4239    0.2815 C   0  0  0  0  0  0  0  0  0  0  0  0
    5.1973   -1.5989    0.8919 H   0  0  0  0  0  0  0  0  0  0  0  0
    4.1712   -0.8941   -0.9745 C   0  0  0  0  0  0  0  0  0  0  0  0
    4.9222   -0.5365   -1.6852 H   0  0  0  0  0  0  0  0  0  0  0  0
    2.2274   -0.3599   -2.4942 C   0  0  0  0  0  0  0  0  0  0  0  0
    1.6422   -1.1709   -2.9702 H   0  0  0  0  0  0  0  0  0  0  0  0
    3.0698   -0.1174   -3.1694 H   0  0  0  0  0  0  0  0  0  0  0  0
    1.3549    0.8542   -2.2587 C   0  0  0  0  0  0  0  0  0  0  0  0
    1.9174    2.1097   -1.9545 C   0  0  0  0  0  0  0  0  0  0  0  0
    3.0116    2.2273   -1.9238 H   0  0  0  0  0  0  0  0  0  0  0  0
    1.0927    3.2130   -1.6902 C   0  0  0  0  0  0  0  0  0  0  0  0
    1.5437    4.1932   -1.4768 H   0  0  0  0  0  0  0  0  0  0  0  0
   -0.3019    3.0751   -1.6873 C   0  0  0  0  0  0  0  0  0  0  0  0
   -0.9522    3.9316   -1.4624 H   0  0  0  0  0  0  0  0  0  0  0  0
   -0.8752    1.8172   -1.9724 C   0  0  0  0  0  0  0  0  0  0  0  0
   -0.0402    0.7193   -2.2828 C   0  0  0  0  0  0  0  0  0  0  0  0
   -0.4967   -0.2450   -2.5471 H   0  0  0  0  0  0  0  0  0  0  0  0
    2.7394   -2.2386    2.0534 C   0  0  0  0  0  0  0  0  0  0  0  0
    1.6796   -2.5507    2.0878 H   0  0  0  0  0  0  0  0  0  0  0  0
    2.9282   -1.4580    2.8172 H   0  0  0  0  0  0  0  0  0  0  0  0
    3.3792   -3.1165    2.2633 H   0  0  0  0  0  0  0  0  0  0  0  0
   -2.2907    1.6027   -1.9021 C   0  0  0  0  0  0  0  0  0  0  0  0
  1 22  1  0  0  0  0
  2  7  1  0  0  0  0
  2  4  1  0  0  0  0
  4  1  1  0  0  0  0
  5  1  1  0  0  0  0
  5  6  1  0  0  0  0
  7  5  2  0  0  0  0
  8  7  1  0  0  0  0
  9 12  1  0  0  0  0
  9  2  1  0  0  0  0
 10  9  1  0  0  0  0
 11  9  1  0  0  0  0
 12 13  1  0  0  0  0
 13 14  1  0  0  0  0
 13 15  2  0  0  0  0
 15 17  1  0  0  0  0
 15 16  1  0  0  0  0
 17 18  1  0  0  0  0
 19 26  1  0  0  0  0
 19 17  2  0  0  0  0
 20 12  2  0  0  0  0
 20 19  1  0  0  0  0
 21 20  1  0  0  0  0
 22 23  1  0  0  0  0
 22 25  1  0  0  0  0
 22 24  1  0  0  0  0
 26  3  3  0  0  0  0
M  END
