4
q = 0.0, confidence = 0.814

 23 22  0  0  1  0  0  0  0  0999 V2000
   -1.6682    0.1337   -1.4657 C   0  0  0  0  0  3  0  0  0  0  0  0
   -1.8549   -0.9805   -0.6061 C   0  0  0  0  0  0  0  0  0  0  0  0
   -0.7358   -1.8709   -0.4549 C   0  0  0  0  0  0  0  0  0  0  0  0
    0.4737   -1.6504   -1.2375 C   0  0  0  0  0  3  0  0  0  0  0  0
    1.6952   -1.5709   -0.4925 C   0  0  2  0  0  3  0  0  0  0  0  0
    1.5733   -1.6164    0.9360 C   0  0  0  0  0  3  0  0  0  0  0  0
   -2.7075    1.2150   -1.5736 C   0  0  0  0  0  0  0  0  0  0  0  0
   -3.1169   -1.2031    0.1780 C   0  0  0  0  0  0  0  0  0  0  0  0
    3.0110   -1.3533   -1.1853 C   0  0  0  0  0  0  0  0  0  0  0  0
   -1.0466   -0.0168   -2.3627 H   0  0  0  0  0  0  0  0  0  0  0  0
   -0.8124   -2.7018    0.2636 H   0  0  0  0  0  0  0  0  0  0  0  0
    0.4686   -1.5129   -2.3304 H   0  0  0  0  0  0  0  0  0  0  0  0
    0.9521   -2.3784    1.4274 H   0  0  0  0  0  0  0  0  0  0  0  0
    2.4572   -1.3230    1.5240 H   0  0  0  0  0  0  0  0  0  0  0  0
   -3.6126    0.8164   -2.0822 H   0  0  0  0  0  0  0  0  0  0  0  0
   -2.3609    2.0720   -2.1809 H   0  0  0  0  0  0  0  0  0  0  0  0
   -3.0361    1.5961   -0.5864 H   0  0  0  0  0  0  0  0  0  0  0  0
   -3.8861   -1.6223   -0.5054 H   0  0  0  0  0  0  0  0  0  0  0  0
   -3.5305   -0.2644    0.5904 H   0  0  0  0  0  0  0  0  0  0  0  0
   -2.9724   -1.9215    1.0059 H   0  0  0  0  0  0  0  0  0  0  0  0
    3.4890   -2.3449   -1.3339 H   0  0  0  0  0  0  0  0  0  0  0  0
    3.7136   -0.7534   -0.5764 H   0  0  0  0  0  0  0  0  0  0  0  0
    2.8951   -0.8882   -2.1831 H   0  0  0  0  0  0  0  0  0  0  0  0
  1  2  1  0  0  0  0
  2  3  2  0  0  0  0
  2  8  1  0  0  0  0
  3 11  1  0  0  0  0
  4  3  1  0  0  0  0
  5  4  1  1  0  0  0
  5  6  1  0  0  0  0
  6 13  1  0  0  0  0
  6 14  1  0  0  0  0
  7  1  1  0  0  0  0
  7 17  1  0  0  0  0
  8 19  1  0  0  0  0
  8 20  1  0  0  0  0
  9 22  1  0  0  0  0
  9  5  1  0  0  0  0
 10  1  1  0  0  0  0
 12  4  1  0  0  0  0
 15  7  1  0  0  0  0
 16  7  1  0  0  0  0
 18  8  1  0  0  0  0
 21  9  1  0  0  0  0
 23  9  1  0  0  0  0
M  END
