1
q = -1.0, confidence = 0.0

 27 28  0  0  0  0  0  0  0  0999 V2000
   -1.9332   -0.3801   -1.2698 C   0  0  0  0  0  3  0  0  0  0  0  0
   -2.8635   -0.3745    0.2722 P   0  0  0  0  0  4  0  0  0  0  0  0
   -2.5272    0.1638   -2.0380 H   0  0  0  0  0  0  0  0  0  0  0  0
   -1.8837   -1.4486   -1.5715 H   0  0  0  0  0  0  0  0  0  0  0  0
   -2.2161   -1.5224    1.7621 S   0  0  0  0  0  1  0  0  0  0  0  0
   -3.0767    1.3854    0.7984 C   0  0  0  0  0  0  0  0  0  0  0  0
   -4.6264   -0.8144   -0.1482 C   0  0  0  0  0  0  0  0  0  0  0  0
   -2.6812    2.4684   -0.0084 C   0  0  0  0  0  0  0  0  0  0  0  0
   -3.6660    1.6306    2.0538 C   0  0  0  0  0  0  0  0  0  0  0  0
   -5.3903    0.0140   -0.9951 C   0  0  0  0  0  0  0  0  0  0  0  0
   -5.1882   -2.0062    0.3413 C   0  0  0  0  0  0  0  0  0  0  0  0
   -2.8882    3.7859    0.4347 C   0  0  0  0  0  0  0  0  0  0  0  0
   -2.1743    2.2771   -0.9669 H   0  0  0  0  0  0  0  0  0  0  0  0
   -3.8759    2.9455    2.4906 C   0  0  0  0  0  0  0  0  0  0  0  0
   -3.9289    0.7685    2.6882 H   0  0  0  0  0  0  0  0  0  0  0  0
   -6.6985   -0.3490   -1.3483 C   0  0  0  0  0  0  0  0  0  0  0  0
   -4.9613    0.9564   -1.3724 H   0  0  0  0  0  0  0  0  0  0  0  0
   -6.4950   -2.3727   -0.0182 C   0  0  0  0  0  0  0  0  0  0  0  0
   -4.5704   -2.6226    1.0170 H   0  0  0  0  0  0  0  0  0  0  0  0
   -3.4892    4.0272    1.6796 C   0  0  0  0  0  0  0  0  0  0  0  0
   -2.5653    4.6290   -0.1961 H   0  0  0  0  0  0  0  0  0  0  0  0
   -4.3348    3.1301    3.4749 H   0  0  0  0  0  0  0  0  0  0  0  0
   -7.2534   -1.5457   -0.8627 C   0  0  0  0  0  0  0  0  0  0  0  0
   -7.2910    0.3074   -2.0054 H   0  0  0  0  0  0  0  0  0  0  0  0
   -6.9270   -3.3097    0.3684 H   0  0  0  0  0  0  0  0  0  0  0  0
   -3.6460    5.0611    2.0261 H   0  0  0  0  0  0  0  0  0  0  0  0
   -8.2805   -1.8304   -1.1407 H   0  0  0  0  0  0  0  0  0  0  0  0
  1  2  1  0  0  0  0
  2  6  1  0  0  0  0
  2  5  1  0  0  0  0
  3  1  1  0  0  0  0
  4  1  1  0  0  0  0
  6  9  1  0  0  0  0
  7  2  1  0  0  0  0
  7 11  1  0  0  0  0
  8 12  1  0  0  0  0
  8  6  2  0  0  0  0
  9 14  2  0  0  0  0
  9 15  1  0  0  0  0
 10  7  2  0  0  0  0
 11 19  1  0  0  0  0
 12 20  2  0  0  0  0
 13  8  1  0  0  0  0
 14 22  1  0  0  0  0
 16 10  1  0  0  0  0
 16 23  2  0  0  0  0
 17 10  1  0  0  0  0
 18 11  2  0  0  0  0
 18 25  1  0  0  0  0
 20 26  1  0  0  0  0
 20 14  1  0  0  0  0
 21 12  1  0  0  0  0
 23 18  1  0  0  0  0
 24 16  1  0  0  0  0
 27 23  1  0  0  0  0
M  END
