3
q = 0.0, confidence = 0.906

 30 29  0  0  0  0  0  0  0  0999 V2000
    3.2051   -2.2066   -0.6159 Si  0  0  0  0  0  0  0  0  0  0  0  0
    2.0606   -1.5713    0.4858 O   0  0  0  0  0  0  0  0  0  0  0  0
    1.0870   -0.6574    0.1734 C   0  0  0  0  0  3  0  0  0  0  0  0
    3.9735   -0.8517   -1.6818 C   0  0  0  0  0  0  0  0  0  0  0  0
    4.4817   -3.0459    0.4797 C   0  0  0  0  0  0  0  0  0  0  0  0
    2.3418   -3.4700   -1.7243 C   0  0  0  0  0  0  0  0  0  0  0  0
    4.4745   -1.2962   -2.5664 H   0  0  0  0  0  0  0  0  0  0  0  0
    3.2058   -0.1340   -2.0322 H   0  0  0  0  0  0  0  0  0  0  0  0
    4.7298   -0.2722   -1.1168 H   0  0  0  0  0  0  0  0  0  0  0  0
    5.2550   -3.5536   -0.1328 H   0  0  0  0  0  0  0  0  0  0  0  0
    4.0002   -3.8091    1.1242 H   0  0  0  0  0  0  0  0  0  0  0  0
    4.9887   -2.3120    1.1380 H   0  0  0  0  0  0  0  0  0  0  0  0
    2.9473   -3.6981   -2.6252 H   0  0  0  0  0  0  0  0  0  0  0  0
    1.3615   -3.0729   -2.0566 H   0  0  0  0  0  0  0  0  0  0  0  0
    2.1606   -4.4203   -1.1834 H   0  0  0  0  0  0  0  0  0  0  0  0
    1.0870    0.6574   -0.1734 C   0  0  0  0  0  3  0  0  0  0  0  0
    2.0606    1.5713   -0.4857 O   0  0  0  0  0  0  0  0  0  0  0  0
    3.2053    2.2064    0.6159 Si  0  0  0  0  0  0  0  0  0  0  0  0
    3.9737    0.8515    1.6817 C   0  0  0  0  0  0  0  0  0  0  0  0
    4.4819    3.0456   -0.4798 C   0  0  0  0  0  0  0  0  0  0  0  0
    2.3423    3.4700    1.7243 C   0  0  0  0  0  0  0  0  0  0  0  0
    4.4748    1.2960    2.5663 H   0  0  0  0  0  0  0  0  0  0  0  0
    3.2059    0.1339    2.0322 H   0  0  0  0  0  0  0  0  0  0  0  0
    4.7299    0.2719    1.1166 H   0  0  0  0  0  0  0  0  0  0  0  0
    5.2553    3.5532    0.1326 H   0  0  0  0  0  0  0  0  0  0  0  0
    4.0004    3.8089   -1.1243 H   0  0  0  0  0  0  0  0  0  0  0  0
    4.9887    2.3117   -1.1382 H   0  0  0  0  0  0  0  0  0  0  0  0
    2.9479    3.6981    2.6252 H   0  0  0  0  0  0  0  0  0  0  0  0
    1.3620    3.0729    2.0569 H   0  0  0  0  0  0  0  0  0  0  0  0
    2.1609    4.4202    1.1834 H   0  0  0  0  0  0  0  0  0  0  0  0
  1  5  1  0  0  0  0
  1  2  1  0  0  0  0
  3  2  1  0  0  0  0
  4  9  1  0  0  0  0
  4  1  1  0  0  0  0
  5 11  1  0  0  0  0
  5 12  1  0  0  0  0
  6 15  1  0  0  0  0
  6  1  1  0  0  0  0
  7  4  1  0  0  0  0
  8  4  1  0  0  0  0
 10  5  1  0  0  0  0
 13  6  1  0  0  0  0
 14  6  1  0  0  0  0
 16  3  2  0  0  0  0
 17 16  1  0  0  0  0
 17 18  1  0  0  0  0
 18 19  1  0  0  0  0
 18 21  1  0  0  0  0
 19 23  1  0  0  0  0
 19 22  1  0  0  0  0
 20 25  1  0  0  0  0
 20 18  1  0  0  0  0
 21 29  1  0  0  0  0
 21 28  1  0  0  0  0
 24 19  1  0  0  0  0
 26 20  1  0  0  0  0
 27 20  1  0  0  0  0
 30 21  1  0  0  0  0
M  END
