3
q = -1.0, confidence = 0.0

 16 16  0  0  1  0  0  0  0  0999 V2000
    0.5395   -2.6689   -0.4341 Se  0  0  0  0  0  1  0  0  0  0  0  0
   -0.8373   -1.2914   -0.7968 C   0  0  1  0  0  3  0  0  0  0  0  0
   -0.6622   -0.4455   -1.9490 C   0  0  0  0  0  3  0  0  0  0  0  0
   -1.5671   -0.0829   -2.4637 H   0  0  0  0  0  0  0  0  0  0  0  0
    0.2012   -0.5893   -2.6142 H   0  0  0  0  0  0  0  0  0  0  0  0
   -2.1822   -1.7818   -0.3635 C   0  0  0  0  0  0  0  0  0  0  0  0
   -3.2169   -1.9745   -1.3050 C   0  0  0  0  0  0  0  0  0  0  0  0
   -3.0162   -1.7973   -2.3722 H   0  0  0  0  0  0  0  0  0  0  0  0
   -4.4897   -2.4049   -0.8972 C   0  0  0  0  0  0  0  0  0  0  0  0
   -5.2822   -2.5497   -1.6473 H   0  0  0  0  0  0  0  0  0  0  0  0
   -4.7478   -2.6595    0.4575 C   0  0  0  0  0  0  0  0  0  0  0  0
   -5.7452   -2.9966    0.7780 H   0  0  0  0  0  0  0  0  0  0  0  0
   -3.7169   -2.4981    1.4014 C   0  0  0  0  0  0  0  0  0  0  0  0
   -3.9056   -2.7110    2.4648 H   0  0  0  0  0  0  0  0  0  0  0  0
   -2.4465   -2.0728    0.9956 C   0  0  0  0  0  0  0  0  0  0  0  0
   -1.6327   -1.9484    1.7267 H   0  0  0  0  0  0  0  0  0  0  0  0
  2  1  1  6  0  0  0
  2  6  1  0  0  0  0
  3  2  1  0  0  0  0
  4  3  1  0  0  0  0
  5  3  1  0  0  0  0
  6 15  1  0  0  0  0
  7  9  1  0  0  0  0
  7  6  2  0  0  0  0
  8  7  1  0  0  0  0
  9 11  2  0  0  0  0
 10  9  1  0  0  0  0
 11 12  1  0  0  0  0
 11 13  1  0  0  0  0
 13 14  1  0  0  0  0
 15 13  2  0  0  0  0
 15 16  1  0  0  0  0
M  END
