11
q = 0.0, confidence = 1.0

 34 36  0  0  0  0  0  0  0  0999 V2000
   -5.6673   -1.1011    0.3691 O   0  0  0  0  0  0  0  0  0  0  0  0
   -2.8027    2.5146    0.3836 O   0  0  0  0  0  0  0  0  0  0  0  0
   -0.9467   -1.6717   -0.2597 N   0  0  0  0  0  0  0  0  0  0  0  0
   -3.4298   -1.5596    0.0313 N   0  0  0  0  0  0  0  0  0  0  0  0
   -4.2248    0.6818    0.3613 N   0  0  0  0  0  0  0  0  0  0  0  0
   -0.5208    0.4758   -0.1581 N   0  0  0  0  0  0  0  0  0  0  0  0
   -0.6724   -3.1004   -0.3791 C   0  0  0  0  0  0  0  0  0  0  0  0
    0.4209   -3.1982   -0.5176 H   0  0  0  0  0  0  0  0  0  0  0  0
   -1.1862   -3.5363   -1.2554 H   0  0  0  0  0  0  0  0  0  0  0  0
   -0.9653   -3.6424    0.5390 H   0  0  0  0  0  0  0  0  0  0  0  0
    0.0767   -0.7390   -0.3080 C   0  0  0  0  0  2  0  0  0  0  0  0
   -2.1654   -1.0337   -0.0892 C   0  0  0  0  0  0  0  0  0  0  0  0
   -3.7453   -2.9823   -0.0702 C   0  0  0  0  0  0  0  0  0  0  0  0
   -3.4584   -3.3873   -1.0591 H   0  0  0  0  0  0  0  0  0  0  0  0
   -4.8405   -3.0605    0.0487 H   0  0  0  0  0  0  0  0  0  0  0  0
   -3.2533   -3.5637    0.7324 H   0  0  0  0  0  0  0  0  0  0  0  0
   -4.5233   -0.6801    0.2612 C   0  0  0  0  0  0  0  0  0  0  0  0
   -5.3740    1.5494    0.6221 C   0  0  0  0  0  0  0  0  0  0  0  0
   -6.1244    1.4379   -0.1837 H   0  0  0  0  0  0  0  0  0  0  0  0
   -4.9964    2.5850    0.6671 H   0  0  0  0  0  0  0  0  0  0  0  0
   -5.8549    1.2691    1.5788 H   0  0  0  0  0  0  0  0  0  0  0  0
   -2.9428    1.3046    0.2519 C   0  0  0  0  0  0  0  0  0  0  0  0
   -1.9060    0.3296   -0.0256 C   0  0  0  0  0  0  0  0  0  0  0  0
    0.2161    1.7139   -0.1851 C   0  0  0  0  0  0  0  0  0  0  0  0
   -0.1976    2.7555   -1.0313 C   0  0  0  0  0  0  0  0  0  0  0  0
   -1.1121    2.6525   -1.6297 H   0  0  0  0  0  0  0  0  0  0  0  0
    0.5745    3.9221   -1.1028 C   0  0  0  0  0  0  0  0  0  0  0  0
    0.2531    4.7416   -1.7627 H   0  0  0  0  0  0  0  0  0  0  0  0
    1.7570    4.0401   -0.3527 C   0  0  0  0  0  0  0  0  0  0  0  0
    2.3654    4.9540   -0.4268 H   0  0  0  0  0  0  0  0  0  0  0  0
    2.1618    2.9900    0.4840 C   0  0  0  0  0  0  0  0  0  0  0  0
    3.0928    3.0470    1.0664 H   0  0  0  0  0  0  0  0  0  0  0  0
    1.3847    1.8270    0.5853 C   0  0  0  0  0  0  0  0  0  0  0  0
    1.7281    1.0128    1.2402 H   0  0  0  0  0  0  0  0  0  0  0  0
  3 12  1  0  0  0  0
  4 17  1  0  0  0  0
  5 18  1  0  0  0  0
  6 23  1  0  0  0  0
  7  3  1  0  0  0  0
  7 10  1  0  0  0  0
  8  7  1  0  0  0  0
  9  7  1  0  0  0  0
 11  3  1  0  0  0  0
 11  6  1  0  0  0  0
 12 23  2  0  0  0  0
 12  4  1  0  0  0  0
 13  4  1  0  0  0  0
 13 15  1  0  0  0  0
 13 16  1  0  0  0  0
 14 13  1  0  0  0  0
 17  5  1  0  0  0  0
 17  1  2  0  0  0  0
 18 20  1  0  0  0  0
 18 21  1  0  0  0  0
 19 18  1  0  0  0  0
 22  5  1  0  0  0  0
 22  2  2  0  0  0  0
 23 22  1  0  0  0  0
 24  6  1  0  0  0  0
 24 33  1  0  0  0  0
 25 24  2  0  0  0  0
 26 25  1  0  0  0  0
 27 25  1  0  0  0  0
 27 29  2  0  0  0  0
 28 27  1  0  0  0  0
 29 31  1  0  0  0  0
 30 29  1  0  0  0  0
 31 33  2  0  0  0  0
 31 32  1  0  0  0  0
 33 34  1  0  0  0  0
M  END
