3
q = 0.0, confidence = 1.0

 28 29  0  0  0  0  0  0  0  0999 V2000
    2.9848   -0.8688    0.3365 N   0  0  0  0  0  0  0  0  0  0  0  0
    2.7784    0.8712   -0.9698 N   0  0  0  0  0  0  0  0  0  0  0  0
    2.0688   -0.0350   -0.2372 C   0  0  0  0  0  2  0  0  0  0  0  0
    4.2846   -0.4937   -0.0132 C   0  0  0  0  0  0  0  0  0  0  0  0
    5.5427   -1.0267    0.3083 C   0  0  0  0  0  0  0  0  0  0  0  0
    5.6495   -1.8932    0.9738 H   0  0  0  0  0  0  0  0  0  0  0  0
    6.6583   -0.3880   -0.2479 C   0  0  0  0  0  0  0  0  0  0  0  0
    7.6638   -0.7702   -0.0198 H   0  0  0  0  0  0  0  0  0  0  0  0
    6.5248    0.7395   -1.0926 C   0  0  0  0  0  0  0  0  0  0  0  0
    7.4288    1.2101   -1.5054 H   0  0  0  0  0  0  0  0  0  0  0  0
    5.2698    1.2722   -1.4140 C   0  0  0  0  0  0  0  0  0  0  0  0
    5.1734    2.1491   -2.0691 H   0  0  0  0  0  0  0  0  0  0  0  0
    4.1504    0.6333   -0.8582 C   0  0  0  0  0  0  0  0  0  0  0  0
    2.6559   -1.9882    1.2226 C   0  0  0  0  0  0  0  0  0  0  0  0
    3.1310   -2.9098    0.8269 H   0  0  0  0  0  0  0  0  0  0  0  0
    1.5550   -2.1189    1.1458 H   0  0  0  0  0  0  0  0  0  0  0  0
    3.0637   -1.7401    2.6502 C   0  0  0  0  0  0  0  0  0  0  0  0
    2.6873   -0.8028    3.0976 H   0  0  0  0  0  0  0  0  0  0  0  0
    3.8103   -2.5865    3.3772 C   0  0  0  0  0  0  0  0  0  0  0  0
    4.1964   -3.5282    2.9510 H   0  0  0  0  0  0  0  0  0  0  0  0
    4.0544   -2.3779    4.4297 H   0  0  0  0  0  0  0  0  0  0  0  0
    2.1864    1.9888   -1.7068 C   0  0  0  0  0  0  0  0  0  0  0  0
    1.1587    1.6788   -1.9835 H   0  0  0  0  0  0  0  0  0  0  0  0
    2.7553    2.1052   -2.6514 H   0  0  0  0  0  0  0  0  0  0  0  0
    2.1709    3.2865   -0.9035 C   0  0  0  0  0  0  0  0  0  0  0  0
    1.7314    4.1030   -1.5093 H   0  0  0  0  0  0  0  0  0  0  0  0
    3.1929    3.5940   -0.6062 H   0  0  0  0  0  0  0  0  0  0  0  0
    1.5636    3.1717    0.0170 H   0  0  0  0  0  0  0  0  0  0  0  0
  1 14  1  0  0  0  0
  2 13  1  0  0  0  0
  2  3  1  0  0  0  0
  3  1  1  0  0  0  0
  4  5  1  0  0  0  0
  4  1  1  0  0  0  0
  5  6  1  0  0  0  0
  7  8  1  0  0  0  0
  7  5  2  0  0  0  0
  9  7  1  0  0  0  0
 10  9  1  0  0  0  0
 11  9  2  0  0  0  0
 11 13  1  0  0  0  0
 12 11  1  0  0  0  0
 13  4  2  0  0  0  0
 14 17  1  0  0  0  0
 15 14  1  0  0  0  0
 16 14  1  0  0  0  0
 17 18  1  0  0  0  0
 17 19  2  0  0  0  0
 19 21  1  0  0  0  0
 20 19  1  0  0  0  0
 22  2  1  0  0  0  0
 22 25  1  0  0  0  0
 23 22  1  0  0  0  0
 24 22  1  0  0  0  0
 25 27  1  0  0  0  0
 25 28  1  0  0  0  0
 26 25  1  0  0  0  0
M  END
