1
q = -1.0, confidence = 0.022

 24 24  0  0  0  0  0  0  0  0999 V2000
   -1.6788   -1.4746    0.0000 C   0  0  0  0  0  3  0  0  0  0  0  0
   -1.5014   -2.5649    0.0000 H   0  0  0  0  0  0  0  0  0  0  0  0
   -1.6341   -0.7693    1.2417 C   0  0  0  0  0  3  0  0  0  0  0  0
   -1.4536   -1.3986    2.1299 H   0  0  0  0  0  0  0  0  0  0  0  0
   -2.3656    0.5319    1.5330 C   0  0  0  0  0  0  0  0  0  0  0  0
   -1.9433    1.3642    0.9382 H   0  0  0  0  0  0  0  0  0  0  0  0
   -2.1712    0.8056    2.5886 H   0  0  0  0  0  0  0  0  0  0  0  0
   -3.8963    0.4745    1.3091 C   0  0  0  0  0  0  0  0  0  0  0  0
   -4.3559   -0.0938    2.1475 H   0  0  0  0  0  0  0  0  0  0  0  0
   -4.2939    1.5108    1.3965 H   0  0  0  0  0  0  0  0  0  0  0  0
   -4.4149   -0.1539    0.0000 C   0  0  0  0  0  0  0  0  0  0  0  0
   -4.0967   -1.2199    0.0000 H   0  0  0  0  0  0  0  0  0  0  0  0
   -5.9504   -0.1486    0.0000 C   0  0  0  0  0  0  0  0  0  0  0  0
   -6.3460    0.8896   -0.0000 H   0  0  0  0  0  0  0  0  0  0  0  0
   -6.3578   -0.6596    0.8962 H   0  0  0  0  0  0  0  0  0  0  0  0
   -1.6341   -0.7693   -1.2417 C   0  0  0  0  0  3  0  0  0  0  0  0
   -1.4536   -1.3986   -2.1299 H   0  0  0  0  0  0  0  0  0  0  0  0
   -2.3656    0.5319   -1.5330 C   0  0  0  0  0  0  0  0  0  0  0  0
   -1.9433    1.3642   -0.9382 H   0  0  0  0  0  0  0  0  0  0  0  0
   -2.1712    0.8056   -2.5886 H   0  0  0  0  0  0  0  0  0  0  0  0
   -3.8963    0.4745   -1.3091 C   0  0  0  0  0  0  0  0  0  0  0  0
   -4.3559   -0.0938   -2.1475 H   0  0  0  0  0  0  0  0  0  0  0  0
   -4.2939    1.5108   -1.3965 H   0  0  0  0  0  0  0  0  0  0  0  0
   -6.3578   -0.6596   -0.8962 H   0  0  0  0  0  0  0  0  0  0  0  0
  1  3  1  0  0  0  0
  2  1  1  0  0  0  0
  3  5  1  0  0  0  0
  3  4  1  0  0  0  0
  5  7  1  0  0  0  0
  6  5  1  0  0  0  0
  8 10  1  0  0  0  0
  8  5  1  0  0  0  0
  8  9  1  0  0  0  0
 11 13  1  0  0  0  0
 11 12  1  0  0  0  0
 11  8  1  0  0  0  0
 13 15  1  0  0  0  0
 14 13  1  0  0  0  0
 16  1  1  0  0  0  0
 17 16  1  0  0  0  0
 18 21  1  0  0  0  0
 18 16  1  0  0  0  0
 18 19  1  0  0  0  0
 20 18  1  0  0  0  0
 21 11  1  0  0  0  0
 22 21  1  0  0  0  0
 23 21  1  0  0  0  0
 24 13  1  0  0  0  0
M  END
