1
q = -1.0, confidence = 0.014

 45 47  0  0  1  0  0  0  0  0999 V2000
   -1.4548   -1.0350   -1.4520 C   0  0  2  0  0  3  0  0  0  0  0  0
   -2.2225    0.1910   -1.6181 C   0  0  0  0  0  0  0  0  0  0  0  0
   -1.4104    1.3112   -1.2443 C   0  0  0  0  0  0  0  0  0  0  0  0
   -0.0453    0.8041   -0.9823 C   0  0  0  0  0  0  0  0  0  0  0  0
    1.1562    1.5018   -0.6152 C   0  0  0  0  0  0  0  0  0  0  0  0
    2.3019    0.7085   -0.4463 C   0  0  0  0  0  0  0  0  0  0  0  0
    3.7084    1.0691   -0.1385 C   0  0  0  0  0  0  0  0  0  0  0  0
    4.4572   -0.0754   -0.0354 C   0  0  0  0  0  0  0  0  0  0  0  0
    3.5951   -1.3082   -0.2105 C   0  0  2  0  0  0  0  0  0  0  0  0
    3.9965   -1.9431   -1.0357 H   0  0  0  0  0  0  0  0  0  0  0  0
    2.2463   -0.7270   -0.5774 C   0  0  0  0  0  0  0  0  0  0  0  0
    1.1085   -1.4290   -0.9443 C   0  0  0  0  0  0  0  0  0  0  0  0
   -0.0742   -0.6395   -1.1506 C   0  0  0  0  0  0  0  0  0  0  0  0
   -1.9626   -2.3951   -1.8372 C   0  0  0  0  0  0  0  0  0  0  0  0
   -3.0668   -2.4291   -1.7780 H   0  0  0  0  0  0  0  0  0  0  0  0
   -1.5758   -3.1897   -1.1765 H   0  0  0  0  0  0  0  0  0  0  0  0
   -1.6787   -2.6497   -2.8812 H   0  0  0  0  0  0  0  0  0  0  0  0
   -3.6332    0.2575   -2.1210 C   0  0  0  0  0  0  0  0  0  0  0  0
   -4.1725    1.1360   -1.7214 H   0  0  0  0  0  0  0  0  0  0  0  0
   -4.2124   -0.6437   -1.8458 H   0  0  0  0  0  0  0  0  0  0  0  0
   -3.6376    0.3324   -3.2291 H   0  0  0  0  0  0  0  0  0  0  0  0
   -1.8726    2.7366   -1.2399 C   0  0  0  0  0  0  0  0  0  0  0  0
   -1.3443    3.3377   -2.0067 H   0  0  0  0  0  0  0  0  0  0  0  0
   -1.7021    3.1990   -0.2480 H   0  0  0  0  0  0  0  0  0  0  0  0
   -2.9557    2.7956   -1.4547 H   0  0  0  0  0  0  0  0  0  0  0  0
    1.1039    2.9858   -0.3740 C   0  0  0  0  0  0  0  0  0  0  0  0
    2.0799    3.4010   -0.0882 H   0  0  0  0  0  0  0  0  0  0  0  0
    0.3943    3.1822    0.4562 H   0  0  0  0  0  0  0  0  0  0  0  0
    0.7480    3.5419   -1.2632 H   0  0  0  0  0  0  0  0  0  0  0  0
    4.2572    2.4580    0.0092 C   0  0  0  0  0  0  0  0  0  0  0  0
    5.3574    2.4417    0.1246 H   0  0  0  0  0  0  0  0  0  0  0  0
    3.8436    2.9748    0.9001 H   0  0  0  0  0  0  0  0  0  0  0  0
    4.0245    3.0901   -0.8718 H   0  0  0  0  0  0  0  0  0  0  0  0
    5.9172   -0.2066    0.2505 C   0  0  0  0  0  0  0  0  0  0  0  0
    6.4143   -0.8542   -0.5041 H   0  0  0  0  0  0  0  0  0  0  0  0
    6.0951   -0.6899    1.2365 H   0  0  0  0  0  0  0  0  0  0  0  0
    6.4423    0.7669    0.2617 H   0  0  0  0  0  0  0  0  0  0  0  0
    3.5412   -2.1532    1.0821 C   0  0  0  0  0  0  0  0  0  0  0  0
    4.5517   -2.5100    1.3657 H   0  0  0  0  0  0  0  0  0  0  0  0
    2.8903   -3.0405    0.9678 H   0  0  0  0  0  0  0  0  0  0  0  0
    3.1398   -1.5440    1.9166 H   0  0  0  0  0  0  0  0  0  0  0  0
    1.1097   -2.9251   -1.1208 C   0  0  0  0  0  0  0  0  0  0  0  0
    2.1390   -3.3257   -1.1573 H   0  0  0  0  0  0  0  0  0  0  0  0
    0.6052   -3.2275   -2.0583 H   0  0  0  0  0  0  0  0  0  0  0  0
    0.5836   -3.4363   -0.2861 H   0  0  0  0  0  0  0  0  0  0  0  0
  1 14  1  6  0  0  0
  1 13  1  0  0  0  0
  2  1  1  0  0  0  0
  2  3  2  0  0  0  0
  3 22  1  0  0  0  0
  3  4  1  0  0  0  0
  4  5  1  0  0  0  0
  5  6  2  0  0  0  0
  5 26  1  0  0  0  0
  6  7  1  0  0  0  0
  7  8  2  0  0  0  0
  7 30  1  0  0  0  0
  8 34  1  0  0  0  0
  9 10  1  6  0  0  0
  9  8  1  0  0  0  0
  9 38  1  0  0  0  0
 11  6  1  0  0  0  0
 11  9  1  0  0  0  0
 12 11  2  0  0  0  0
 13  4  2  0  0  0  0
 13 12  1  0  0  0  0
 14 15  1  0  0  0  0
 14 16  1  0  0  0  0
 17 14  1  0  0  0  0
 18 20  1  0  0  0  0
 18 19  1  0  0  0  0
 18  2  1  0  0  0  0
 21 18  1  0  0  0  0
 22 24  1  0  0  0  0
 23 22  1  0  0  0  0
 25 22  1  0  0  0  0
 26 27  1  0  0  0  0
 26 28  1  0  0  0  0
 29 26  1  0  0  0  0
 30 31  1  0  0  0  0
 30 32  1  0  0  0  0
 33 30  1  0  0  0  0
 34 37  1  0  0  0  0
 34 36  1  0  0  0  0
 35 34  1  0  0  0  0
 38 39  1  0  0  0  0
 38 41  1  0  0  0  0
 40 38  1  0  0  0  0
 42 12  1  0  0  0  0
 42 45  1  0  0  0  0
 43 42  1  0  0  0  0
 44 42  1  0  0  0  0
M  END
