11
q = -1.0, confidence = 0.008

 18 17  0  0  0  0  0  0  0  0999 V2000
   -4.3889   -1.4712   -0.0305 C   0  0  0  0  0  0  0  0  0  0  0  0
   -5.2484   -0.2516    0.3523 C   0  0  0  0  0  0  0  0  0  0  0  0
   -4.9888    0.6248   -0.2704 H   0  0  0  0  0  0  0  0  0  0  0  0
   -5.0982    0.0202    1.4187 H   0  0  0  0  0  0  0  0  0  0  0  0
   -6.3267   -0.4753    0.2136 H   0  0  0  0  0  0  0  0  0  0  0  0
   -2.7942    0.6929   -1.2495 O   0  0  0  0  0  0  0  0  0  0  0  0
   -4.8032   -2.6723    0.8412 C   0  0  0  0  0  0  0  0  0  0  0  0
   -4.6556   -2.4572    1.9202 H   0  0  0  0  0  0  0  0  0  0  0  0
   -4.2072   -3.5757    0.5945 H   0  0  0  0  0  0  0  0  0  0  0  0
   -5.8742   -2.9197    0.6880 H   0  0  0  0  0  0  0  0  0  0  0  0
   -2.1820   -0.0720   -0.5106 C   0  0  0  0  0  3  0  0  0  0  0  0
   -4.6020   -1.8251   -1.5143 C   0  0  0  0  0  0  0  0  0  0  0  0
   -5.6644   -2.0816   -1.7073 H   0  0  0  0  0  0  0  0  0  0  0  0
   -3.9893   -2.7050   -1.8046 H   0  0  0  0  0  0  0  0  0  0  0  0
   -4.3265   -0.9752   -2.1675 H   0  0  0  0  0  0  0  0  0  0  0  0
   -2.8914   -1.1964    0.2445 C   0  0  0  0  0  0  0  0  0  0  0  0
   -2.7311   -0.9827    1.3264 H   0  0  0  0  0  0  0  0  0  0  0  0
   -2.2917   -2.1183    0.0767 H   0  0  0  0  0  0  0  0  0  0  0  0
  1 16  1  0  0  0  0
  1  2  1  0  0  0  0
  1  7  1  0  0  0  0
  2  4  1  0  0  0  0
  3  2  1  0  0  0  0
  5  2  1  0  0  0  0
  6 11  2  0  0  0  0
  7  8  1  0  0  0  0
  9  7  1  0  0  0  0
 10  7  1  0  0  0  0
 11 16  1  0  0  0  0
 12  1  1  0  0  0  0
 13 12  1  0  0  0  0
 14 12  1  0  0  0  0
 15 12  1  0  0  0  0
 16 17  1  0  0  0  0
 18 16  1  0  0  0  0
M  END
