9
q = -2.0, confidence = 0.878

 19 18  0  0  0  0  0  0  0  0999 V2000
    2.4203   -3.0830    0.0624 S   0  0  0  0  0  1  0  0  0  0  0  0
   -0.3966   -2.2603   -0.4077 S   0  0  0  0  0  0  0  0  0  0  0  0
    0.3862    2.5573    1.4081 O   0  0  0  0  0  0  0  0  0  0  0  0
    1.6066    2.4178   -0.5008 O   0  0  0  0  0  0  0  0  0  0  0  0
    3.3341    0.6459    1.3529 O   0  0  0  0  0  0  0  0  0  0  0  0
    3.7516   -0.2942   -0.6702 O   0  0  0  0  0  0  0  0  0  0  0  0
    1.2806   -1.8777   -0.0531 C   0  0  0  0  0  0  0  0  0  0  0  0
    1.5438   -0.4475    0.1581 C   0  0  0  0  0  0  0  0  0  0  0  0
    0.5142    0.4554    0.2133 C   0  0  0  0  0  3  0  0  0  0  0  0
    0.8115    1.8920    0.4766 C   0  0  0  0  0  0  0  0  0  0  0  0
    2.0493    3.7624   -0.2737 C   0  0  0  0  0  0  0  0  0  0  0  0
    2.9610    0.0199    0.3748 C   0  0  0  0  0  0  0  0  0  0  0  0
    5.1331    0.0429   -0.5160 C   0  0  0  0  0  0  0  0  0  0  0  0
    2.5834    4.0693   -1.1905 H   0  0  0  0  0  0  0  0  0  0  0  0
    1.1925    4.4364   -0.0737 H   0  0  0  0  0  0  0  0  0  0  0  0
    2.7326    3.7918    0.5990 H   0  0  0  0  0  0  0  0  0  0  0  0
    5.2568    1.1195   -0.2812 H   0  0  0  0  0  0  0  0  0  0  0  0
    5.5842   -0.5498    0.3056 H   0  0  0  0  0  0  0  0  0  0  0  0
    5.6189   -0.2065   -1.4760 H   0  0  0  0  0  0  0  0  0  0  0  0
  2  7  2  0  0  0  0
  4 11  1  0  0  0  0
  4 10  1  0  0  0  0
  6 13  1  0  0  0  0
  6 12  1  0  0  0  0
  7  1  1  0  0  0  0
  7  8  1  0  0  0  0
  8  9  2  0  0  0  0
  8 12  1  0  0  0  0
  9 10  1  0  0  0  0
 10  3  2  0  0  0  0
 11 15  1  0  0  0  0
 11 16  1  0  0  0  0
 12  5  2  0  0  0  0
 13 17  1  0  0  0  0
 13 18  1  0  0  0  0
 14 11  1  0  0  0  0
 19 13  1  0  0  0  0
M  END
