3
q = -2.0, confidence = 0.858

 18 18  0  0  1  0  0  0  0  0999 V2000
    1.2195    2.2950   -0.2284 S   0  0  0  0  0  1  0  0  0  0  0  0
   -1.2738   -1.8593    0.0742 S   0  0  0  0  0  0  0  0  0  0  0  0
   -0.5858   -0.2508   -0.0247 C   0  0  0  0  0  2  0  0  0  0  0  0
   -3.0027   -1.6869    0.3152 C   0  0  0  0  0  0  0  0  0  0  0  0
   -3.8828   -2.7010    0.0761 C   0  0  0  0  0  0  0  0  0  0  0  0
   -3.5068   -3.9575   -0.4767 C   0  0  0  0  0  0  0  0  0  0  0  0
   -3.1972   -4.9944   -0.9381 N   0  0  0  0  0  0  0  0  0  0  0  0
   -1.2016    0.9483   -0.1872 C   0  0  0  0  0  0  0  0  0  0  0  0
   -2.5625    1.6986   -0.3730 C   0  0  1  0  0  0  0  0  0  0  0  0
   -3.4870    1.6287    0.7554 C   0  0  0  0  0  0  0  0  0  0  0  0
   -4.2118    1.5348    1.6732 N   0  0  0  0  0  0  0  0  0  0  0  0
   -0.5013    2.2088   -0.2953 C   0  0  0  0  0  0  0  0  0  0  0  0
   -1.6651    2.9644   -0.4632 C   0  0  1  0  0  3  0  0  0  0  0  0
   -1.9864    4.3139   -0.6669 C   0  0  0  0  0  0  0  0  0  0  0  0
   -2.2712    5.4452   -0.8434 N   0  0  0  0  0  0  0  0  0  0  0  0
   -3.3648   -0.7419    0.7503 H   0  0  0  0  0  0  0  0  0  0  0  0
   -4.9450   -2.5571    0.3321 H   0  0  0  0  0  0  0  0  0  0  0  0
   -3.0980    1.4387   -1.3133 H   0  0  0  0  0  0  0  0  0  0  0  0
  2  4  1  0  0  0  0
  3  2  1  0  0  0  0
  4 16  1  0  0  0  0
  5  4  2  0  0  0  0
  5 17  1  0  0  0  0
  6  5  1  0  0  0  0
  7  6  3  0  0  0  0
  8  3  1  0  0  0  0
  9 18  1  6  0  0  0
  9  8  1  0  0  0  0
  9 10  1  0  0  0  0
 10 11  3  0  0  0  0
 12  1  1  0  0  0  0
 12  8  2  0  0  0  0
 13 14  1  6  0  0  0
 13  9  1  0  0  0  0
 13 12  1  0  0  0  0
 15 14  3  0  0  0  0
M  END
