2
q = 0.0, confidence = 0.98

 60 63  0  0  0  0  0  0  0  0999 V2000
   -1.1596    1.0342    0.1912 N   0  0  0  0  0  0  0  0  0  0  0  0
   -0.0286    0.2740    0.0906 C   0  0  0  0  0  2  0  0  0  0  0  0
    0.9967    1.1758    0.1206 N   0  0  0  0  0  0  0  0  0  0  0  0
    0.5240    2.4891    0.2315 C   0  0  0  0  0  0  0  0  0  0  0  0
   -0.8498    2.4000    0.2808 C   0  0  0  0  0  0  0  0  0  0  0  0
    1.4169    3.6860    0.2937 C   0  0  0  0  0  0  0  0  0  0  0  0
    2.4366    3.3737   -0.0117 H   0  0  0  0  0  0  0  0  0  0  0  0
    1.5106    4.0262    1.3513 H   0  0  0  0  0  0  0  0  0  0  0  0
    0.9541    4.8676   -0.5730 C   0  0  0  0  0  0  0  0  0  0  0  0
    0.8907    4.5356   -1.6327 H   0  0  0  0  0  0  0  0  0  0  0  0
    1.7496    5.6411   -0.5379 H   0  0  0  0  0  0  0  0  0  0  0  0
   -0.3749    5.5211   -0.1623 C   0  0  0  0  0  0  0  0  0  0  0  0
   -0.3346    5.7864    0.9193 H   0  0  0  0  0  0  0  0  0  0  0  0
   -0.4613    6.4873   -0.7028 H   0  0  0  0  0  0  0  0  0  0  0  0
   -1.6512    4.7111   -0.4385 C   0  0  0  0  0  0  0  0  0  0  0  0
   -1.6623    4.3956   -1.5051 H   0  0  0  0  0  0  0  0  0  0  0  0
   -2.5261    5.3814   -0.3062 H   0  0  0  0  0  0  0  0  0  0  0  0
   -1.8727    3.4776    0.4514 C   0  0  0  0  0  0  0  0  0  0  0  0
   -1.8918    3.7993    1.5184 H   0  0  0  0  0  0  0  0  0  0  0  0
   -2.8746    3.0463    0.2535 H   0  0  0  0  0  0  0  0  0  0  0  0
    2.3852    0.8043    0.0775 C   0  0  0  0  0  0  0  0  0  0  0  0
    3.0863    0.6670    1.2951 C   0  0  0  0  0  0  0  0  0  0  0  0
    4.4347    0.2734    1.2301 C   0  0  0  0  0  0  0  0  0  0  0  0
    4.9944    0.1459    2.1705 H   0  0  0  0  0  0  0  0  0  0  0  0
    5.0816    0.0375    0.0037 C   0  0  0  0  0  0  0  0  0  0  0  0
    4.3525    0.2270   -1.1856 C   0  0  0  0  0  0  0  0  0  0  0  0
    4.8497    0.0672   -2.1557 H   0  0  0  0  0  0  0  0  0  0  0  0
    3.0009    0.6126   -1.1803 C   0  0  0  0  0  0  0  0  0  0  0  0
    2.4300    0.9655    2.6187 C   0  0  0  0  0  0  0  0  0  0  0  0
    2.4709    2.0534    2.8443 H   0  0  0  0  0  0  0  0  0  0  0  0
    2.9409    0.4344    3.4435 H   0  0  0  0  0  0  0  0  0  0  0  0
    1.3641    0.6701    2.6341 H   0  0  0  0  0  0  0  0  0  0  0  0
    6.5144   -0.4302   -0.0394 C   0  0  0  0  0  0  0  0  0  0  0  0
    7.0656   -0.1513    0.8798 H   0  0  0  0  0  0  0  0  0  0  0  0
    7.0552   -0.0107   -0.9109 H   0  0  0  0  0  0  0  0  0  0  0  0
    6.5636   -1.5367   -0.1298 H   0  0  0  0  0  0  0  0  0  0  0  0
    2.2343    0.8131   -2.4579 C   0  0  0  0  0  0  0  0  0  0  0  0
    1.4643    0.0206   -2.5917 H   0  0  0  0  0  0  0  0  0  0  0  0
    2.9107    0.7930   -3.3328 H   0  0  0  0  0  0  0  0  0  0  0  0
    1.6903    1.7807   -2.4595 H   0  0  0  0  0  0  0  0  0  0  0  0
   -2.4982    0.5068    0.2343 C   0  0  0  0  0  0  0  0  0  0  0  0
   -3.2904    0.5553   -0.9359 C   0  0  0  0  0  0  0  0  0  0  0  0
   -4.5977    0.0460   -0.8553 C   0  0  0  0  0  0  0  0  0  0  0  0
   -5.2264    0.0681   -1.7597 H   0  0  0  0  0  0  0  0  0  0  0  0
   -5.1201   -0.4917    0.3358 C   0  0  0  0  0  0  0  0  0  0  0  0
   -4.3051   -0.4905    1.4818 C   0  0  0  0  0  0  0  0  0  0  0  0
   -4.7036   -0.8872    2.4293 H   0  0  0  0  0  0  0  0  0  0  0  0
   -2.9907    0.0087    1.4601 C   0  0  0  0  0  0  0  0  0  0  0  0
   -2.7479    1.1148   -2.2221 C   0  0  0  0  0  0  0  0  0  0  0  0
   -2.3840    2.1565   -2.1043 H   0  0  0  0  0  0  0  0  0  0  0  0
   -3.5210    1.1088   -3.0131 H   0  0  0  0  0  0  0  0  0  0  0  0
   -1.8880    0.4992   -2.5636 H   0  0  0  0  0  0  0  0  0  0  0  0
   -2.1415    0.0020    2.7037 C   0  0  0  0  0  0  0  0  0  0  0  0
   -2.7656   -0.1179    3.6093 H   0  0  0  0  0  0  0  0  0  0  0  0
   -1.5499    0.9341    2.8080 H   0  0  0  0  0  0  0  0  0  0  0  0
   -1.4150   -0.8360    2.6807 H   0  0  0  0  0  0  0  0  0  0  0  0
   -6.5104   -1.0738    0.3738 C   0  0  0  0  0  0  0  0  0  0  0  0
   -6.9370   -1.0512    1.3958 H   0  0  0  0  0  0  0  0  0  0  0  0
   -6.5004   -2.1354    0.0455 H   0  0  0  0  0  0  0  0  0  0  0  0
   -7.1997   -0.5320   -0.3037 H   0  0  0  0  0  0  0  0  0  0  0  0
  1 41  1  0  0  0  0
  1  5  1  0  0  0  0
  2  3  1  0  0  0  0
  2  1  1  0  0  0  0
  3  4  1  0  0  0  0
  4  5  2  0  0  0  0
  4  6  1  0  0  0  0
  5 18  1  0  0  0  0
  6  8  1  0  0  0  0
  7  6  1  0  0  0  0
  9 11  1  0  0  0  0
  9 12  1  0  0  0  0
  9  6  1  0  0  0  0
 10  9  1  0  0  0  0
 12 13  1  0  0  0  0
 14 12  1  0  0  0  0
 15 17  1  0  0  0  0
 15 12  1  0  0  0  0
 15 18  1  0  0  0  0
 16 15  1  0  0  0  0
 18 19  1  0  0  0  0
 20 18  1  0  0  0  0
 21  3  1  0  0  0  0
 21 22  1  0  0  0  0
 22 29  1  0  0  0  0
 23 22  2  0  0  0  0
 23 24  1  0  0  0  0
 25 23  1  0  0  0  0
 26 28  1  0  0  0  0
 26 25  2  0  0  0  0
 27 26  1  0  0  0  0
 28 21  2  0  0  0  0
 29 32  1  0  0  0  0
 29 30  1  0  0  0  0
 29 31  1  0  0  0  0
 33 25  1  0  0  0  0
 33 34  1  0  0  0  0
 35 33  1  0  0  0  0
 36 33  1  0  0  0  0
 37 28  1  0  0  0  0
 38 37  1  0  0  0  0
 39 37  1  0  0  0  0
 40 37  1  0  0  0  0
 41 48  1  0  0  0  0
 42 43  1  0  0  0  0
 42 41  2  0  0  0  0
 43 45  2  0  0  0  0
 44 43  1  0  0  0  0
 45 57  1  0  0  0  0
 45 46  1  0  0  0  0
 46 47  1  0  0  0  0
 48 46  2  0  0  0  0
 48 53  1  0  0  0  0
 49 50  1  0  0  0  0
 49 42  1  0  0  0  0
 51 49  1  0  0  0  0
 52 49  1  0  0  0  0
 53 55  1  0  0  0  0
 53 54  1  0  0  0  0
 56 53  1  0  0  0  0
 57 58  1  0  0  0  0
 59 57  1  0  0  0  0
 60 57  1  0  0  0  0
M  END
