11
q = 0.0, confidence = 0.98

 28 30  0  0  0  0  0  0  0  0999 V2000
    4.9356    3.1451   -0.1389 C   0  0  0  0  0  0  0  0  0  0  0  0
    5.8116    3.7446   -0.4296 H   0  0  0  0  0  0  0  0  0  0  0  0
    3.2106   -2.2788    1.6103 C   0  0  0  0  0  0  0  0  0  0  0  0
    2.8213   -2.2755    2.6405 H   0  0  0  0  0  0  0  0  0  0  0  0
    4.4637    3.1814    1.1833 C   0  0  0  0  0  0  0  0  0  0  0  0
    4.9689    3.8098    1.9326 H   0  0  0  0  0  0  0  0  0  0  0  0
    2.4107    0.7645   -1.7247 C   0  0  0  0  0  0  0  0  0  0  0  0
    2.1314    1.2541   -2.6741 H   0  0  0  0  0  0  0  0  0  0  0  0
    1.4265   -0.6008    0.9568 C   0  0  0  0  0  3  0  0  0  0  0  0
    0.7011   -1.0563    1.6551 H   0  0  0  0  0  0  0  0  0  0  0  0
    1.4622    0.8348    0.9314 C   0  0  0  0  0  3  0  0  0  0  0  0
    0.7594    1.3464    1.6128 H   0  0  0  0  0  0  0  0  0  0  0  0
    3.3375    2.4275    1.5470 C   0  0  0  0  0  0  0  0  0  0  0  0
    2.9537    2.4657    2.5786 H   0  0  0  0  0  0  0  0  0  0  0  0
    2.6823    1.6226    0.5969 C   0  0  0  0  0  0  0  0  0  0  0  0
    3.1578    1.5877   -0.7341 C   0  0  0  0  0  0  0  0  0  0  0  0
    2.3771   -0.6466   -1.7033 C   0  0  0  0  0  0  0  0  0  0  0  0
    2.0751   -1.1506   -2.6380 H   0  0  0  0  0  0  0  0  0  0  0  0
    4.2798    2.3552   -1.0957 C   0  0  0  0  0  0  0  0  0  0  0  0
    4.6349    2.3370   -2.1378 H   0  0  0  0  0  0  0  0  0  0  0  0
    4.1633   -2.3116   -1.0297 C   0  0  0  0  0  0  0  0  0  0  0  0
    4.5212   -2.3350   -2.0707 H   0  0  0  0  0  0  0  0  0  0  0  0
    3.0825   -1.4782   -0.6888 C   0  0  0  0  0  0  0  0  0  0  0  0
    2.6027   -1.4591    0.6413 C   0  0  0  0  0  0  0  0  0  0  0  0
    4.7740   -3.1141   -0.0538 C   0  0  0  0  0  0  0  0  0  0  0  0
    5.6183   -3.7646   -0.3284 H   0  0  0  0  0  0  0  0  0  0  0  0
    4.2964   -3.0984    1.2669 C   0  0  0  0  0  0  0  0  0  0  0  0
    4.7652   -3.7371    2.0309 H   0  0  0  0  0  0  0  0  0  0  0  0
  1  5  1  0  0  0  0
  2  1  1  0  0  0  0
  3  4  1  0  0  0  0
  5 13  2  0  0  0  0
  5  6  1  0  0  0  0
  7 17  2  0  0  0  0
  7 16  1  0  0  0  0
  8  7  1  0  0  0  0
  9 10  1  0  0  0  0
 11  9  1  0  0  0  0
 11 12  1  0  0  0  0
 13 14  1  0  0  0  0
 15 11  1  0  0  0  0
 15 13  1  0  0  0  0
 16 15  2  0  0  0  0
 17 23  1  0  0  0  0
 18 17  1  0  0  0  0
 19 16  1  0  0  0  0
 19  1  2  0  0  0  0
 20 19  1  0  0  0  0
 21 23  2  0  0  0  0
 21 25  1  0  0  0  0
 22 21  1  0  0  0  0
 23 24  1  0  0  0  0
 24  9  1  0  0  0  0
 24  3  2  0  0  0  0
 25 27  2  0  0  0  0
 26 25  1  0  0  0  0
 27  3  1  0  0  0  0
 27 28  1  0  0  0  0
M  END
