1
q = 0.0, confidence = 0.906

 36 37  0  0  1  0  0  0  0  0999 V2000
   -0.6147    0.4692    0.5801 C   0  0  0  0  0  2  0  0  0  0  0  0
    0.2465   -0.3484    1.0746 N   0  0  0  0  0  2  0  0  0  0  0  0
    1.1947   -1.2006    1.1710 C   0  0  2  0  0  3  0  0  0  0  0  0
    1.3837   -1.9190    2.2981 O   0  0  0  0  0  0  0  0  0  0  0  0
    0.4508   -1.7146    3.3606 C   0  0  0  0  0  0  0  0  0  0  0  0
    2.1687   -1.4679    0.0919 C   0  0  0  0  0  0  0  0  0  0  0  0
    3.1901   -2.4234    0.2832 C   0  0  0  0  0  0  0  0  0  0  0  0
    4.1163   -2.6701   -0.7380 C   0  0  0  0  0  0  0  0  0  0  0  0
    4.0336   -1.9703   -1.9526 C   0  0  0  0  0  0  0  0  0  0  0  0
    3.0168   -1.0201   -2.1451 C   0  0  0  0  0  0  0  0  0  0  0  0
    2.0883   -0.7680   -1.1304 C   0  0  0  0  0  0  0  0  0  0  0  0
   -0.3134    1.9639    0.8544 C   0  0  1  0  0  0  0  0  0  0  0  0
   -0.6868    2.2947    2.3082 C   0  0  0  0  0  0  0  0  0  0  0  0
    1.1206    2.2843    0.4669 C   0  0  0  0  0  0  0  0  0  0  0  0
    1.3895    2.7671   -0.8310 C   0  0  0  0  0  0  0  0  0  0  0  0
    2.7072    2.9697   -1.2658 C   0  0  0  0  0  0  0  0  0  0  0  0
    3.7823    2.6874   -0.4087 C   0  0  0  0  0  0  0  0  0  0  0  0
    3.5280    2.2181    0.8891 C   0  0  0  0  0  0  0  0  0  0  0  0
    2.2089    2.0219    1.3245 C   0  0  0  0  0  0  0  0  0  0  0  0
   -0.5816   -1.9714    3.0461 H   0  0  0  0  0  0  0  0  0  0  0  0
    0.7740   -2.3766    4.1829 H   0  0  0  0  0  0  0  0  0  0  0  0
    0.4648   -0.6564    3.6986 H   0  0  0  0  0  0  0  0  0  0  0  0
    3.2458   -2.9676    1.2354 H   0  0  0  0  0  0  0  0  0  0  0  0
    4.9096   -3.4169   -0.5841 H   0  0  0  0  0  0  0  0  0  0  0  0
    4.7645   -2.1653   -2.7519 H   0  0  0  0  0  0  0  0  0  0  0  0
    2.9468   -0.4653   -3.0923 H   0  0  0  0  0  0  0  0  0  0  0  0
    1.3033   -0.0154   -1.2834 H   0  0  0  0  0  0  0  0  0  0  0  0
   -0.9827    2.5431    0.1922 H   0  0  0  0  0  0  0  0  0  0  0  0
   -0.5189    3.3709    2.5088 H   0  0  0  0  0  0  0  0  0  0  0  0
   -1.7534    2.0656    2.4977 H   0  0  0  0  0  0  0  0  0  0  0  0
   -0.0824    1.7089    3.0291 H   0  0  0  0  0  0  0  0  0  0  0  0
    0.5506    2.9683   -1.5153 H   0  0  0  0  0  0  0  0  0  0  0  0
    2.8944    3.3463   -2.2830 H   0  0  0  0  0  0  0  0  0  0  0  0
    4.8178    2.8367   -0.7500 H   0  0  0  0  0  0  0  0  0  0  0  0
    4.3648    2.0008    1.5703 H   0  0  0  0  0  0  0  0  0  0  0  0
    2.0287    1.6557    2.3459 H   0  0  0  0  0  0  0  0  0  0  0  0
  1 12  1  0  0  0  0
  1  2  1  0  0  0  0
  3  2  1  1  0  0  0
  3  4  1  0  0  0  0
  4  5  1  0  0  0  0
  5 22  1  0  0  0  0
  5 21  1  0  0  0  0
  6  7  1  0  0  0  0
  6  3  1  0  0  0  0
  7 23  1  0  0  0  0
  8 24  1  0  0  0  0
  8  7  2  0  0  0  0
  9  8  1  0  0  0  0
 10  9  2  0  0  0  0
 10 11  1  0  0  0  0
 11  6  2  0  0  0  0
 12 28  1  6  0  0  0
 12 13  1  0  0  0  0
 13 30  1  0  0  0  0
 13 29  1  0  0  0  0
 13 31  1  0  0  0  0
 14 12  1  0  0  0  0
 14 19  1  0  0  0  0
 15 14  2  0  0  0  0
 16 15  1  0  0  0  0
 16 17  2  0  0  0  0
 17 18  1  0  0  0  0
 18 19  2  0  0  0  0
 18 35  1  0  0  0  0
 19 36  1  0  0  0  0
 20  5  1  0  0  0  0
 25  9  1  0  0  0  0
 26 10  1  0  0  0  0
 27 11  1  0  0  0  0
 32 15  1  0  0  0  0
 33 16  1  0  0  0  0
 34 17  1  0  0  0  0
M  END
