7
q = 0.0, confidence = 0.988

 71 78  0  0  1  0  0  0  0  0999 V2000
    5.8962   -1.2997   -0.0052 O   0  0  0  0  0  0  0  0  0  0  0  0
    5.8972    1.2956    0.0060 O   0  0  0  0  0  0  0  0  0  0  0  0
    0.8975   -1.1096   -0.0061 N   0  0  0  0  0  0  0  0  0  0  0  0
    0.8983    1.1092    0.0056 N   0  0  0  0  0  0  0  0  0  0  0  0
    2.2439   -0.7036   -0.0036 C   0  0  0  0  0  0  0  0  0  0  0  0
    2.2444    0.7021    0.0034 C   0  0  0  0  0  0  0  0  0  0  0  0
    0.0910    0.0001   -0.0003 C   0  0  0  0  0  2  0  0  0  0  0  0
    3.4595   -1.4238   -0.0065 C   0  0  0  0  0  0  0  0  0  0  0  0
    3.4748   -2.5155   -0.0113 H   0  0  0  0  0  0  0  0  0  0  0  0
    4.6677   -0.7188   -0.0030 C   0  0  0  0  0  0  0  0  0  0  0  0
    4.6682    0.7155    0.0034 C   0  0  0  0  0  0  0  0  0  0  0  0
    3.4606    1.4214    0.0067 C   0  0  0  0  0  0  0  0  0  0  0  0
    3.4767    2.5131    0.0114 H   0  0  0  0  0  0  0  0  0  0  0  0
    5.9597   -2.7106   -0.0119 C   0  0  0  0  0  0  0  0  0  0  0  0
    7.0328   -2.9768   -0.0130 H   0  0  0  0  0  0  0  0  0  0  0  0
    5.4784   -3.1446   -0.9182 H   0  0  0  0  0  0  0  0  0  0  0  0
    5.4781   -3.1532    0.8900 H   0  0  0  0  0  0  0  0  0  0  0  0
    5.9618    2.7064    0.0130 C   0  0  0  0  0  0  0  0  0  0  0  0
    7.0351    2.9718    0.0146 H   0  0  0  0  0  0  0  0  0  0  0  0
    5.4804    3.1406    0.9192 H   0  0  0  0  0  0  0  0  0  0  0  0
    5.4808    3.1496   -0.8890 H   0  0  0  0  0  0  0  0  0  0  0  0
    0.5050   -2.5586   -0.0155 C   0  0  2  0  0  0  0  0  0  0  0  0
    1.0628   -3.2308    1.2655 C   0  0  0  0  0  0  0  0  0  0  0  0
    2.1498   -3.0576    1.3752 H   0  0  0  0  0  0  0  0  0  0  0  0
    0.5744   -2.7524    2.1402 H   0  0  0  0  0  0  0  0  0  0  0  0
    0.7798   -4.7442    1.2347 C   0  0  2  0  0  0  0  0  0  0  0  0
    1.2266   -5.2097    2.1388 H   0  0  0  0  0  0  0  0  0  0  0  0
    1.4089   -5.3613   -0.0314 C   0  0  0  0  0  0  0  0  0  0  0  0
    2.5101   -5.2016   -0.0284 H   0  0  0  0  0  0  0  0  0  0  0  0
    1.2462   -6.4603   -0.0385 H   0  0  0  0  0  0  0  0  0  0  0  0
    0.7843   -4.7287   -1.2921 C   0  0  2  0  0  0  0  0  0  0  0  0
    1.2346   -5.1827   -2.2003 H   0  0  0  0  0  0  0  0  0  0  0  0
    1.0670   -3.2149   -1.3030 C   0  0  0  0  0  0  0  0  0  0  0  0
    0.5811   -2.7260   -2.1733 H   0  0  0  0  0  0  0  0  0  0  0  0
    2.1542   -3.0401   -1.4074 H   0  0  0  0  0  0  0  0  0  0  0  0
   -1.0198   -2.7980   -0.0198 C   0  0  0  0  0  0  0  0  0  0  0  0
   -1.4695   -2.3209   -0.9136 H   0  0  0  0  0  0  0  0  0  0  0  0
   -1.4717   -2.3335    0.8793 H   0  0  0  0  0  0  0  0  0  0  0  0
   -1.3320   -4.3104   -0.0301 C   0  0  1  0  0  0  0  0  0  0  0  0
   -2.4363   -4.4262   -0.0331 H   0  0  0  0  0  0  0  0  0  0  0  0
   -0.7361   -4.9613   -1.2893 C   0  0  0  0  0  0  0  0  0  0  0  0
   -0.9615   -6.0495   -1.3054 H   0  0  0  0  0  0  0  0  0  0  0  0
   -1.1894   -4.5186   -2.2013 H   0  0  0  0  0  0  0  0  0  0  0  0
   -0.7407   -4.9765    1.2233 C   0  0  0  0  0  0  0  0  0  0  0  0
   -1.1971   -4.5448    2.1391 H   0  0  0  0  0  0  0  0  0  0  0  0
   -0.9662   -6.0648    1.2256 H   0  0  0  0  0  0  0  0  0  0  0  0
    0.5069    2.5585    0.0150 C   0  0  1  0  0  0  0  0  0  0  0  0
    1.0691    3.2143    1.3026 C   0  0  0  0  0  0  0  0  0  0  0  0
    2.1561    3.0388    1.4073 H   0  0  0  0  0  0  0  0  0  0  0  0
    0.5827    2.7256    2.1728 H   0  0  0  0  0  0  0  0  0  0  0  0
    0.7874    4.7283    1.2917 C   0  0  1  0  0  0  0  0  0  0  0  0
    1.2377    5.1820    2.2001 H   0  0  0  0  0  0  0  0  0  0  0  0
    1.4127    5.3605    0.0313 C   0  0  0  0  0  0  0  0  0  0  0  0
    2.5139    5.2001    0.0286 H   0  0  0  0  0  0  0  0  0  0  0  0
    1.2507    6.4596    0.0384 H   0  0  0  0  0  0  0  0  0  0  0  0
    0.7836    4.7439   -1.2350 C   0  0  1  0  0  0  0  0  0  0  0  0
    1.2309    5.2091   -2.1390 H   0  0  0  0  0  0  0  0  0  0  0  0
    1.0656    3.2303   -1.2658 C   0  0  0  0  0  0  0  0  0  0  0  0
    0.5771    2.7523   -2.1407 H   0  0  0  0  0  0  0  0  0  0  0  0
    2.1524    3.0564   -1.3752 H   0  0  0  0  0  0  0  0  0  0  0  0
   -1.0178    2.7989    0.0189 C   0  0  0  0  0  0  0  0  0  0  0  0
   -1.4679    2.3221    0.9126 H   0  0  0  0  0  0  0  0  0  0  0  0
   -1.4698    2.3348   -0.8804 H   0  0  0  0  0  0  0  0  0  0  0  0
   -1.3289    4.3115    0.0292 C   0  0  2  0  0  0  0  0  0  0  0  0
   -2.4331    4.4281    0.0318 H   0  0  0  0  0  0  0  0  0  0  0  0
   -0.7368    4.9773   -1.2241 C   0  0  0  0  0  0  0  0  0  0  0  0
   -0.9616    6.0657   -1.2263 H   0  0  0  0  0  0  0  0  0  0  0  0
   -1.1932    4.5459   -2.1399 H   0  0  0  0  0  0  0  0  0  0  0  0
   -0.7329    4.9619    1.2886 C   0  0  0  0  0  0  0  0  0  0  0  0
   -1.1867    4.5195    2.2004 H   0  0  0  0  0  0  0  0  0  0  0  0
   -0.9576    6.0502    1.3047 H   0  0  0  0  0  0  0  0  0  0  0  0
  1 10  1  0  0  0  0
  2 18  1  0  0  0  0
  3  5  1  0  0  0  0
  3  7  1  0  0  0  0
  5  6  1  0  0  0  0
  6  4  1  0  0  0  0
  6 12  2  0  0  0  0
  7  4  1  0  0  0  0
  8  5  2  0  0  0  0
  8 10  1  0  0  0  0
  9  8  1  0  0  0  0
 10 11  2  0  0  0  0
 11  2  1  0  0  0  0
 11 12  1  0  0  0  0
 12 13  1  0  0  0  0
 14  1  1  0  0  0  0
 14 17  1  0  0  0  0
 15 14  1  0  0  0  0
 16 14  1  0  0  0  0
 18 19  1  0  0  0  0
 18 20  1  0  0  0  0
 21 18  1  0  0  0  0
 22  3  1  1  0  0  0
 22 23  1  0  0  0  0
 23 24  1  0  0  0  0
 23 25  1  0  0  0  0
 26 23  1  0  0  0  0
 26 27  1  1  0  0  0
 28 29  1  0  0  0  0
 28 26  1  0  0  0  0
 30 28  1  0  0  0  0
 31 32  1  6  0  0  0
 31 41  1  0  0  0  0
 31 28  1  0  0  0  0
 33 31  1  0  0  0  0
 33 22  1  0  0  0  0
 34 33  1  0  0  0  0
 35 33  1  0  0  0  0
 36 22  1  0  0  0  0
 36 38  1  0  0  0  0
 37 36  1  0  0  0  0
 39 40  1  6  0  0  0
 39 36  1  0  0  0  0
 39 44  1  0  0  0  0
 41 39  1  0  0  0  0
 42 41  1  0  0  0  0
 43 41  1  0  0  0  0
 44 46  1  0  0  0  0
 44 26  1  0  0  0  0
 44 45  1  0  0  0  0
 47  4  1  6  0  0  0
 47 61  1  0  0  0  0
 47 48  1  0  0  0  0
 48 49  1  0  0  0  0
 48 50  1  0  0  0  0
 51 48  1  0  0  0  0
 51 52  1  1  0  0  0
 53 55  1  0  0  0  0
 53 51  1  0  0  0  0
 54 53  1  0  0  0  0
 56 57  1  6  0  0  0
 56 66  1  0  0  0  0
 56 53  1  0  0  0  0
 58 56  1  0  0  0  0
 58 47  1  0  0  0  0
 59 58  1  0  0  0  0
 60 58  1  0  0  0  0
 61 64  1  0  0  0  0
 61 62  1  0  0  0  0
 63 61  1  0  0  0  0
 64 65  1  1  0  0  0
 64 69  1  0  0  0  0
 66 64  1  0  0  0  0
 67 66  1  0  0  0  0
 68 66  1  0  0  0  0
 69 51  1  0  0  0  0
 69 71  1  0  0  0  0
 69 70  1  0  0  0  0
M  END
