4
q = 0.0, confidence = 0.908

 25 26  0  0  1  0  0  0  0  0999 V2000
   -0.8249    0.0080   -1.7724 C   0  0  0  0  0  0  0  0  0  0  0  0
   -0.8608    1.1884   -0.8061 C   0  0  2  0  0  0  0  0  0  0  0  0
    0.3790    1.3857    0.0718 C   0  0  0  0  0  3  0  0  0  0  0  0
    0.6187    0.7035    1.3252 C   0  0  0  0  0  3  0  0  0  0  0  0
    0.6187   -0.7159    1.3188 C   0  0  0  0  0  3  0  0  0  0  0  0
    0.3789   -1.3865    0.0591 C   0  0  0  0  0  3  0  0  0  0  0  0
   -0.8609   -1.1812   -0.8170 C   0  0  1  0  0  0  0  0  0  0  0  0
   -2.1665   -0.8215    0.0343 C   0  0  0  0  0  0  0  0  0  0  0  0
   -2.1712   -1.3963    1.3849 C   0  0  0  0  0  0  0  0  0  0  0  0
   -2.1763   -1.8820    2.4502 N   0  0  0  0  0  0  0  0  0  0  0  0
   -3.3452   -1.3444   -0.6735 C   0  0  0  0  0  0  0  0  0  0  0  0
   -4.2417   -1.8080   -1.2673 N   0  0  0  0  0  0  0  0  0  0  0  0
   -2.1665    0.8209    0.0418 C   0  0  0  0  0  0  0  0  0  0  0  0
   -2.1712    1.3833    1.3976 C   0  0  0  0  0  0  0  0  0  0  0  0
   -2.1766    1.8592    2.4673 N   0  0  0  0  0  0  0  0  0  0  0  0
   -3.3451    1.3504   -0.6612 C   0  0  0  0  0  0  0  0  0  0  0  0
   -4.2415    1.8195   -1.2508 N   0  0  0  0  0  0  0  0  0  0  0  0
    0.0598    0.0109   -2.4275 H   0  0  0  0  0  0  0  0  0  0  0  0
   -1.7255    0.0110   -2.4215 H   0  0  0  0  0  0  0  0  0  0  0  0
   -1.0570    2.1400   -1.3341 H   0  0  0  0  0  0  0  0  0  0  0  0
    0.6779    2.4463    0.0968 H   0  0  0  0  0  0  0  0  0  0  0  0
    0.9202    1.2499    2.2317 H   0  0  0  0  0  0  0  0  0  0  0  0
    0.9201   -1.2706    2.2202 H   0  0  0  0  0  0  0  0  0  0  0  0
    0.6774   -2.4474    0.0745 H   0  0  0  0  0  0  0  0  0  0  0  0
   -1.0572   -2.1280   -1.3536 H   0  0  0  0  0  0  0  0  0  0  0  0
  1  7  1  0  0  0  0
  1  2  1  0  0  0  0
  2 20  1  6  0  0  0
  2 13  1  0  0  0  0
  2  3  1  0  0  0  0
  3 21  1  0  0  0  0
  3  4  1  0  0  0  0
  4 22  1  0  0  0  0
  5  4  1  0  0  0  0
  5 23  1  0  0  0  0
  6 24  1  0  0  0  0
  6  5  1  0  0  0  0
  7 25  1  6  0  0  0
  7  8  1  0  0  0  0
  7  6  1  0  0  0  0
  8 13  1  0  0  0  0
  8  9  1  0  0  0  0
  9 10  3  0  0  0  0
 11  8  1  0  0  0  0
 12 11  3  0  0  0  0
 13 14  1  0  0  0  0
 14 15  3  0  0  0  0
 16 13  1  0  0  0  0
 17 16  3  0  0  0  0
 18  1  1  0  0  0  0
 19  1  1  0  0  0  0
M  END
