4
q = -2.0, confidence = 0.524

 26 27  0  0  0  0  0  0  0  0999 V2000
    2.0641    1.8386   -2.1438 Br  0  0  0  0  0  0  0  0  0  0  0  0
    1.5708   -3.1214   -0.7504 S   0  0  0  0  0  0  0  0  0  0  0  0
    2.2428   -0.0365   -0.3228 P   0  0  0  0  0  4  0  0  0  0  0  0
    1.5669   -1.6015   -0.0280 C   0  0  0  0  0  3  0  0  0  0  0  0
    1.2196    0.4992    2.2870 C   0  0  0  0  0  0  0  0  0  0  0  0
    1.0518    1.3110    3.4190 C   0  0  0  0  0  0  0  0  0  0  0  0
    1.6514    2.5799    3.4783 C   0  0  0  0  0  0  0  0  0  0  0  0
    2.4100    3.0397    2.3889 C   0  0  0  0  0  0  0  0  0  0  0  0
    2.5576    2.2464    1.2420 C   0  0  0  0  0  0  0  0  0  0  0  0
    1.9670    0.9656    1.1861 C   0  0  0  0  0  0  0  0  0  0  0  0
    4.7811   -0.6222    0.7480 C   0  0  0  0  0  0  0  0  0  0  0  0
    6.1473   -0.9256    0.6612 C   0  0  0  0  0  0  0  0  0  0  0  0
    6.7835   -0.9581   -0.5909 C   0  0  0  0  0  0  0  0  0  0  0  0
    6.0534   -0.6809   -1.7577 C   0  0  0  0  0  0  0  0  0  0  0  0
    4.6883   -0.3668   -1.6791 C   0  0  0  0  0  0  0  0  0  0  0  0
    4.0510   -0.3390   -0.4243 C   0  0  0  0  0  0  0  0  0  0  0  0
    0.7736   -0.5050    2.2568 H   0  0  0  0  0  0  0  0  0  0  0  0
    0.4595    0.9357    4.2674 H   0  0  0  0  0  0  0  0  0  0  0  0
    1.5339    3.2064    4.3758 H   0  0  0  0  0  0  0  0  0  0  0  0
    2.8889    4.0302    2.4272 H   0  0  0  0  0  0  0  0  0  0  0  0
    3.1233    2.6173    0.3740 H   0  0  0  0  0  0  0  0  0  0  0  0
    4.2760   -0.6024    1.7255 H   0  0  0  0  0  0  0  0  0  0  0  0
    6.7177   -1.1417    1.5775 H   0  0  0  0  0  0  0  0  0  0  0  0
    7.8557   -1.1988   -0.6564 H   0  0  0  0  0  0  0  0  0  0  0  0
    6.5514   -0.7017   -2.7390 H   0  0  0  0  0  0  0  0  0  0  0  0
    4.1120   -0.1146   -2.5819 H   0  0  0  0  0  0  0  0  0  0  0  0
  1  3  1  0  0  0  0
  2  4  2  0  0  0  0
  3  4  1  0  0  0  0
  3 10  1  0  0  0  0
  5  6  1  0  0  0  0
  6  7  2  0  0  0  0
  6 18  1  0  0  0  0
  7 19  1  0  0  0  0
  8 20  1  0  0  0  0
  8  7  1  0  0  0  0
  9  8  2  0  0  0  0
 10  9  1  0  0  0  0
 10  5  2  0  0  0  0
 11 22  1  0  0  0  0
 12 11  1  0  0  0  0
 12 23  1  0  0  0  0
 13 12  2  0  0  0  0
 14 15  2  0  0  0  0
 14 13  1  0  0  0  0
 15 16  1  0  0  0  0
 16  3  1  0  0  0  0
 16 11  2  0  0  0  0
 17  5  1  0  0  0  0
 21  9  1  0  0  0  0
 24 13  1  0  0  0  0
 25 14  1  0  0  0  0
 26 15  1  0  0  0  0
M  END
