3
q = -1.0, confidence = 0.0

 25 27  0  0  0  0  0  0  0  0999 V2000
   -2.8789   -0.5620    2.3542 S   0  0  0  0  0  0  0  0  0  0  0  0
   -3.0265    0.1863    0.4284 P   0  0  0  0  0  4  0  0  0  0  0  0
   -2.1916   -1.3100    0.7645 C   0  0  0  0  0  2  0  0  0  0  0  0
   -5.3399    1.2792   -0.7221 C   0  0  0  0  0  0  0  0  0  0  0  0
   -6.5922    1.1695   -1.3425 C   0  0  0  0  0  0  0  0  0  0  0  0
   -7.1343   -0.0971   -1.6166 C   0  0  0  0  0  0  0  0  0  0  0  0
   -6.4273   -1.2625   -1.2729 C   0  0  0  0  0  0  0  0  0  0  0  0
   -5.1742   -1.1679   -0.6548 C   0  0  0  0  0  0  0  0  0  0  0  0
   -4.6333    0.1064   -0.3831 C   0  0  0  0  0  0  0  0  0  0  0  0
   -2.0608    2.1630   -1.2491 C   0  0  0  0  0  0  0  0  0  0  0  0
   -1.2567    3.2689   -1.5463 C   0  0  0  0  0  0  0  0  0  0  0  0
   -0.5803    3.9463   -0.5192 C   0  0  0  0  0  0  0  0  0  0  0  0
   -0.7042    3.5213    0.8122 C   0  0  0  0  0  0  0  0  0  0  0  0
   -1.4890    2.4046    1.1260 C   0  0  0  0  0  0  0  0  0  0  0  0
   -2.1699    1.7298    0.0929 C   0  0  0  0  0  0  0  0  0  0  0  0
   -4.9097    2.2687   -0.5058 H   0  0  0  0  0  0  0  0  0  0  0  0
   -7.1488    2.0793   -1.6122 H   0  0  0  0  0  0  0  0  0  0  0  0
   -8.1175   -0.1771   -2.1046 H   0  0  0  0  0  0  0  0  0  0  0  0
   -6.8541   -2.2525   -1.4922 H   0  0  0  0  0  0  0  0  0  0  0  0
   -4.5979   -2.0659   -0.3805 H   0  0  0  0  0  0  0  0  0  0  0  0
   -2.5741    1.6210   -2.0579 H   0  0  0  0  0  0  0  0  0  0  0  0
   -1.1336    3.5865   -2.5914 H   0  0  0  0  0  0  0  0  0  0  0  0
    0.0682    4.7995   -0.7652 H   0  0  0  0  0  0  0  0  0  0  0  0
   -0.1640    4.0419    1.6151 H   0  0  0  0  0  0  0  0  0  0  0  0
   -1.5637    2.0410    2.1610 H   0  0  0  0  0  0  0  0  0  0  0  0
  2  3  1  0  0  0  0
  2  1  1  0  0  0  0
  3  1  1  0  0  0  0
  4 16  1  0  0  0  0
  4  9  1  0  0  0  0
  5  4  2  0  0  0  0
  6  5  1  0  0  0  0
  6  7  2  0  0  0  0
  7  8  1  0  0  0  0
  8  9  2  0  0  0  0
  8 20  1  0  0  0  0
  9  2  1  0  0  0  0
 10 15  1  0  0  0  0
 11 10  2  0  0  0  0
 11 12  1  0  0  0  0
 12 13  2  0  0  0  0
 13 14  1  0  0  0  0
 13 24  1  0  0  0  0
 14 25  1  0  0  0  0
 15  2  1  0  0  0  0
 15 14  2  0  0  0  0
 17  5  1  0  0  0  0
 18  6  1  0  0  0  0
 19  7  1  0  0  0  0
 21 10  1  0  0  0  0
 22 11  1  0  0  0  0
 23 12  1  0  0  0  0
M  END
