5
q = 0.0, confidence = 0.992

 83 87  0  0  0  0  0  0  0  0999 V2000
    1.1348    2.1510    1.3722 C   0  0  0  0  0  0  0  0  0  0  0  0
    0.7923    3.2012    1.3677 H   0  0  0  0  0  0  0  0  0  0  0  0
    1.2890    1.9046    2.4419 H   0  0  0  0  0  0  0  0  0  0  0  0
   -0.0203    1.3964    0.8021 N   0  0  0  0  0  0  0  0  0  0  0  0
   -0.0872    0.1074    0.3960 C   0  0  0  0  0  2  0  0  0  0  0  0
    0.8771   -0.7701    0.7420 N   0  0  0  0  0  0  0  0  0  0  0  0
    1.8417   -0.6114    1.8516 C   0  0  0  0  0  0  0  0  0  0  0  0
    1.9206   -1.6008    2.3390 H   0  0  0  0  0  0  0  0  0  0  0  0
    1.3950    0.0600    2.6046 H   0  0  0  0  0  0  0  0  0  0  0  0
    3.2181   -0.1893    1.3987 C   0  0  0  0  0  0  0  0  0  0  0  0
    4.2569   -1.1078    1.5269 C   0  0  0  0  0  0  0  0  0  0  0  0
    4.0523   -2.0711    2.0195 H   0  0  0  0  0  0  0  0  0  0  0  0
    5.5515   -0.8496    1.0149 C   0  0  0  0  0  0  0  0  0  0  0  0
    6.3516   -1.5932    1.1441 H   0  0  0  0  0  0  0  0  0  0  0  0
    5.7803    0.3196    0.3127 C   0  0  0  0  0  0  0  0  0  0  0  0
    6.7637    0.5214   -0.1388 H   0  0  0  0  0  0  0  0  0  0  0  0
    4.7446    1.2846    0.1393 C   0  0  0  0  0  0  0  0  0  0  0  0
    4.9917    2.4588   -0.6280 C   0  0  0  0  0  0  0  0  0  0  0  0
    5.9859    2.5911   -1.0818 H   0  0  0  0  0  0  0  0  0  0  0  0
    4.0031    3.4107   -0.7959 C   0  0  0  0  0  0  0  0  0  0  0  0
    4.1874    4.3156   -1.3936 H   0  0  0  0  0  0  0  0  0  0  0  0
    2.7546    3.2366   -0.1534 C   0  0  0  0  0  0  0  0  0  0  0  0
    2.0021    4.0337   -0.2364 H   0  0  0  0  0  0  0  0  0  0  0  0
    2.4528    2.1087    0.6111 C   0  0  0  0  0  0  0  0  0  0  0  0
    3.4420    1.0665    0.7351 C   0  0  0  0  0  0  0  0  0  0  0  0
   -1.2530    2.1598    0.7096 C   0  0  0  0  0  0  0  0  0  0  0  0
   -1.5306    2.9277   -0.4491 C   0  0  0  0  0  0  0  0  0  0  0  0
   -2.7327    3.6597   -0.4750 C   0  0  0  0  0  0  0  0  0  0  0  0
   -2.9816    4.2500   -1.3698 H   0  0  0  0  0  0  0  0  0  0  0  0
   -3.6225    3.6361    0.6046 C   0  0  0  0  0  0  0  0  0  0  0  0
   -4.5590    4.2120    0.5582 H   0  0  0  0  0  0  0  0  0  0  0  0
   -3.3281    2.8687    1.7371 C   0  0  0  0  0  0  0  0  0  0  0  0
   -4.0406    2.8407    2.5754 H   0  0  0  0  0  0  0  0  0  0  0  0
   -2.1413    2.1170    1.8143 C   0  0  0  0  0  0  0  0  0  0  0  0
   -0.6117    2.9464   -1.6629 C   0  0  0  0  0  0  0  0  0  0  0  0
    0.2834    2.3400   -1.4155 H   0  0  0  0  0  0  0  0  0  0  0  0
   -0.1456    4.3735   -2.0001 C   0  0  0  0  0  0  0  0  0  0  0  0
    0.6240    4.3550   -2.7985 H   0  0  0  0  0  0  0  0  0  0  0  0
    0.2820    4.8930   -1.1184 H   0  0  0  0  0  0  0  0  0  0  0  0
   -0.9881    4.9958   -2.3656 H   0  0  0  0  0  0  0  0  0  0  0  0
   -1.2911    2.2940   -2.8802 C   0  0  0  0  0  0  0  0  0  0  0  0
   -1.6531    1.2720   -2.6450 H   0  0  0  0  0  0  0  0  0  0  0  0
   -0.5844    2.2257   -3.7320 H   0  0  0  0  0  0  0  0  0  0  0  0
   -2.1693    2.8849   -3.2129 H   0  0  0  0  0  0  0  0  0  0  0  0
   -1.8788    1.2343    3.0289 C   0  0  0  0  0  0  0  0  0  0  0  0
   -0.8448    0.8423    2.9411 H   0  0  0  0  0  0  0  0  0  0  0  0
   -1.9596    2.0124    4.3513 C   0  0  0  0  0  0  0  0  0  0  0  0
   -1.2661    2.8777    4.3580 H   0  0  0  0  0  0  0  0  0  0  0  0
   -1.7004    1.3548    5.2060 H   0  0  0  0  0  0  0  0  0  0  0  0
   -2.9819    2.4013    4.5356 H   0  0  0  0  0  0  0  0  0  0  0  0
   -2.8228    0.0189    3.0203 C   0  0  0  0  0  0  0  0  0  0  0  0
   -2.7404   -0.5424    2.0673 H   0  0  0  0  0  0  0  0  0  0  0  0
   -3.8807    0.3352    3.1268 H   0  0  0  0  0  0  0  0  0  0  0  0
   -2.5867   -0.6717    3.8562 H   0  0  0  0  0  0  0  0  0  0  0  0
    0.9185   -2.0476    0.0624 C   0  0  0  0  0  0  0  0  0  0  0  0
    0.3294   -3.1749    0.6909 C   0  0  0  0  0  0  0  0  0  0  0  0
    0.4380   -4.4185    0.0432 C   0  0  0  0  0  0  0  0  0  0  0  0
   -0.0199   -5.3071    0.5035 H   0  0  0  0  0  0  0  0  0  0  0  0
    1.0940   -4.5374   -1.1879 C   0  0  0  0  0  0  0  0  0  0  0  0
    1.1632   -5.5188   -1.6810 H   0  0  0  0  0  0  0  0  0  0  0  0
    1.6400   -3.4057   -1.8030 C   0  0  0  0  0  0  0  0  0  0  0  0
    2.1294   -3.5030   -2.7838 H   0  0  0  0  0  0  0  0  0  0  0  0
    1.5661   -2.1377   -1.1955 C   0  0  0  0  0  0  0  0  0  0  0  0
   -0.4575   -3.0640    1.9917 C   0  0  0  0  0  0  0  0  0  0  0  0
   -0.4795   -1.9935    2.2816 H   0  0  0  0  0  0  0  0  0  0  0  0
   -1.9201   -3.4985    1.7886 C   0  0  0  0  0  0  0  0  0  0  0  0
   -2.3960   -2.9381    0.9576 H   0  0  0  0  0  0  0  0  0  0  0  0
   -2.5092   -3.3202    2.7112 H   0  0  0  0  0  0  0  0  0  0  0  0
   -1.9914   -4.5790    1.5478 H   0  0  0  0  0  0  0  0  0  0  0  0
    0.2067   -3.8524    3.1337 C   0  0  0  0  0  0  0  0  0  0  0  0
    1.2542   -3.5303    3.3085 H   0  0  0  0  0  0  0  0  0  0  0  0
    0.2303   -4.9388    2.9097 H   0  0  0  0  0  0  0  0  0  0  0  0
   -0.3547   -3.7191    4.0811 H   0  0  0  0  0  0  0  0  0  0  0  0
    2.1055   -0.9147   -1.9254 C   0  0  0  0  0  0  0  0  0  0  0  0
    2.0663   -0.0603   -1.2229 H   0  0  0  0  0  0  0  0  0  0  0  0
    3.5707   -1.0822   -2.3539 C   0  0  0  0  0  0  0  0  0  0  0  0
    4.2178   -1.3374   -1.4924 H   0  0  0  0  0  0  0  0  0  0  0  0
    3.9504   -0.1392   -2.7974 H   0  0  0  0  0  0  0  0  0  0  0  0
    3.6868   -1.8782   -3.1184 H   0  0  0  0  0  0  0  0  0  0  0  0
    1.2013   -0.5651   -3.1204 C   0  0  0  0  0  0  0  0  0  0  0  0
    0.1493   -0.4287   -2.7979 H   0  0  0  0  0  0  0  0  0  0  0  0
    1.2141   -1.3704   -3.8836 H   0  0  0  0  0  0  0  0  0  0  0  0
    1.5412    0.3727   -3.6067 H   0  0  0  0  0  0  0  0  0  0  0  0
  1  3  1  0  0  0  0
  2  1  1  0  0  0  0
  4  1  1  0  0  0  0
  5  6  1  0  0  0  0
  5  4  1  0  0  0  0
  6  7  1  0  0  0  0
  7  8  1  0  0  0  0
  7  9  1  0  0  0  0
 10 11  1  0  0  0  0
 10  7  1  0  0  0  0
 11 12  1  0  0  0  0
 13 14  1  0  0  0  0
 13 11  2  0  0  0  0
 15 13  1  0  0  0  0
 16 15  1  0  0  0  0
 17 15  2  0  0  0  0
 17 25  1  0  0  0  0
 18 17  1  0  0  0  0
 19 18  1  0  0  0  0
 20 18  2  0  0  0  0
 20 22  1  0  0  0  0
 21 20  1  0  0  0  0
 22 24  2  0  0  0  0
 23 22  1  0  0  0  0
 24 25  1  0  0  0  0
 24  1  1  0  0  0  0
 25 10  2  0  0  0  0
 26  4  1  0  0  0  0
 26 34  1  0  0  0  0
 27 26  2  0  0  0  0
 28 27  1  0  0  0  0
 28 30  2  0  0  0  0
 29 28  1  0  0  0  0
 30 32  1  0  0  0  0
 31 30  1  0  0  0  0
 32 34  2  0  0  0  0
 32 33  1  0  0  0  0
 34 45  1  0  0  0  0
 35 36  1  0  0  0  0
 35 27  1  0  0  0  0
 37 35  1  0  0  0  0
 37 39  1  0  0  0  0
 38 37  1  0  0  0  0
 40 37  1  0  0  0  0
 41 42  1  0  0  0  0
 41 35  1  0  0  0  0
 43 41  1  0  0  0  0
 44 41  1  0  0  0  0
 45 47  1  0  0  0  0
 46 45  1  0  0  0  0
 47 48  1  0  0  0  0
 47 50  1  0  0  0  0
 47 49  1  0  0  0  0
 51 45  1  0  0  0  0
 51 53  1  0  0  0  0
 51 54  1  0  0  0  0
 52 51  1  0  0  0  0
 55 56  1  0  0  0  0
 55  6  1  0  0  0  0
 56 64  1  0  0  0  0
 57 58  1  0  0  0  0
 57 56  2  0  0  0  0
 59 57  1  0  0  0  0
 60 59  1  0  0  0  0
 61 63  1  0  0  0  0
 61 59  2  0  0  0  0
 62 61  1  0  0  0  0
 63 55  2  0  0  0  0
 64 65  1  0  0  0  0
 64 70  1  0  0  0  0
 66 64  1  0  0  0  0
 66 68  1  0  0  0  0
 67 66  1  0  0  0  0
 69 66  1  0  0  0  0
 70 71  1  0  0  0  0
 70 73  1  0  0  0  0
 72 70  1  0  0  0  0
 74 75  1  0  0  0  0
 74 63  1  0  0  0  0
 76 74  1  0  0  0  0
 76 77  1  0  0  0  0
 78 76  1  0  0  0  0
 79 76  1  0  0  0  0
 80 81  1  0  0  0  0
 80 74  1  0  0  0  0
 82 80  1  0  0  0  0
 83 80  1  0  0  0  0
M  END
