5
q = -1.0, confidence = 0.0

 34 35  0  0  1  0  0  0  0  0999 V2000
   -3.9674    0.1604   -0.0687 Si  0  0  0  0  0  0  0  0  0  0  0  0
   -0.4611    1.9548    1.2844 C   0  0  0  0  0  0  0  0  0  0  0  0
   -1.5100    0.9645    1.3785 C   0  0  0  0  0  0  0  0  0  0  0  0
   -2.2608    0.9949    0.1448 C   0  0  0  0  0  0  0  0  0  0  0  0
   -1.6150    1.9226   -0.7511 C   0  0  2  0  0  3  0  0  0  0  0  0
   -0.5368    2.5521   -0.0295 C   0  0  0  0  0  0  0  0  0  0  0  0
    0.3404    3.6224   -0.3757 C   0  0  0  0  0  0  0  0  0  0  0  0
    0.2965    4.0682   -1.3790 H   0  0  0  0  0  0  0  0  0  0  0  0
    1.2162    4.1065    0.5815 C   0  0  0  0  0  0  0  0  0  0  0  0
    1.8824    4.9472    0.3363 H   0  0  0  0  0  0  0  0  0  0  0  0
    1.2622    3.5453    1.8951 C   0  0  0  0  0  0  0  0  0  0  0  0
    1.9479    3.9792    2.6386 H   0  0  0  0  0  0  0  0  0  0  0  0
    0.4478    2.4816    2.2503 C   0  0  0  0  0  0  0  0  0  0  0  0
    0.4629    2.0836    3.2742 H   0  0  0  0  0  0  0  0  0  0  0  0
   -1.9444    0.3520    2.6783 C   0  0  0  0  0  0  0  0  0  0  0  0
   -2.6371    1.0436    3.2052 H   0  0  0  0  0  0  0  0  0  0  0  0
   -1.0887    0.1764    3.3569 H   0  0  0  0  0  0  0  0  0  0  0  0
   -2.4681   -0.6103    2.5419 H   0  0  0  0  0  0  0  0  0  0  0  0
   -2.0209    2.3153   -2.1410 C   0  0  0  0  0  0  0  0  0  0  0  0
   -2.8154    3.0919   -2.1226 H   0  0  0  0  0  0  0  0  0  0  0  0
   -2.3959    1.4497   -2.7144 H   0  0  0  0  0  0  0  0  0  0  0  0
   -1.1552    2.7261   -2.6953 H   0  0  0  0  0  0  0  0  0  0  0  0
   -3.9593   -1.6797    0.3669 C   0  0  0  0  0  0  0  0  0  0  0  0
   -4.9780   -2.0892    0.2030 H   0  0  0  0  0  0  0  0  0  0  0  0
   -3.6824   -1.8806    1.4200 H   0  0  0  0  0  0  0  0  0  0  0  0
   -3.2520   -2.2314   -0.2824 H   0  0  0  0  0  0  0  0  0  0  0  0
   -4.6913    0.3532   -1.8030 C   0  0  0  0  0  0  0  0  0  0  0  0
   -5.6982   -0.1148   -1.8068 H   0  0  0  0  0  0  0  0  0  0  0  0
   -4.0696   -0.1616   -2.5605 H   0  0  0  0  0  0  0  0  0  0  0  0
   -4.8115    1.4134   -2.0991 H   0  0  0  0  0  0  0  0  0  0  0  0
   -5.1142    1.0813    1.1344 C   0  0  0  0  0  0  0  0  0  0  0  0
   -6.1521    0.7001    1.0365 H   0  0  0  0  0  0  0  0  0  0  0  0
   -5.1287    2.1684    0.9140 H   0  0  0  0  0  0  0  0  0  0  0  0
   -4.8064    0.9527    2.1912 H   0  0  0  0  0  0  0  0  0  0  0  0
  1  4  1  0  0  0  0
  1 23  1  0  0  0  0
  1 31  1  0  0  0  0
  2  3  1  0  0  0  0
  2 13  1  0  0  0  0
  3 15  1  0  0  0  0
  4  3  2  0  0  0  0
  5 19  1  1  0  0  0
  5  6  1  0  0  0  0
  5  4  1  0  0  0  0
  6  2  2  0  0  0  0
  7  6  1  0  0  0  0
  7  9  2  0  0  0  0
  8  7  1  0  0  0  0
  9 11  1  0  0  0  0
 10  9  1  0  0  0  0
 11 13  2  0  0  0  0
 11 12  1  0  0  0  0
 13 14  1  0  0  0  0
 15 16  1  0  0  0  0
 15 17  1  0  0  0  0
 18 15  1  0  0  0  0
 19 20  1  0  0  0  0
 21 19  1  0  0  0  0
 22 19  1  0  0  0  0
 23 25  1  0  0  0  0
 24 23  1  0  0  0  0
 26 23  1  0  0  0  0
 27  1  1  0  0  0  0
 28 27  1  0  0  0  0
 29 27  1  0  0  0  0
 30 27  1  0  0  0  0
 31 34  1  0  0  0  0
 32 31  1  0  0  0  0
 33 31  1  0  0  0  0
M  END
