24
q = -1.0, confidence = 0.0

 42 44  0  0  1  0  0  0  0  0999 V2000
    6.5923   -0.1165   -1.2655 C   0  0  0  0  0  0  0  0  0  0  0  0
    6.0758   -0.6167   -2.0984 H   0  0  0  0  0  0  0  0  0  0  0  0
    7.9241    0.2902   -1.4219 C   0  0  0  0  0  0  0  0  0  0  0  0
    8.4352    0.1224   -2.3822 H   0  0  0  0  0  0  0  0  0  0  0  0
    8.6087    0.8979   -0.3573 C   0  0  0  0  0  0  0  0  0  0  0  0
    9.6547    1.2171   -0.4800 H   0  0  0  0  0  0  0  0  0  0  0  0
    7.9469    1.0946    0.8653 C   0  0  0  0  0  0  0  0  0  0  0  0
    8.4704    1.5782    1.7042 H   0  0  0  0  0  0  0  0  0  0  0  0
    6.6148    0.6884    1.0209 C   0  0  0  0  0  0  0  0  0  0  0  0
    6.0987    0.8738    1.9750 H   0  0  0  0  0  0  0  0  0  0  0  0
    5.9107    0.0744   -0.0410 C   0  0  0  0  0  0  0  0  0  0  0  0
    4.5003   -0.3549    0.1223 C   0  0  0  0  0  0  0  0  0  0  0  0
    4.0161   -0.8307    1.3625 C   0  0  0  0  0  0  0  0  0  0  0  0
    4.7072   -0.9184    2.2144 H   0  0  0  0  0  0  0  0  0  0  0  0
    2.6855   -1.2335    1.5181 C   0  0  0  0  0  0  0  0  0  0  0  0
    2.3503   -1.6282    2.4883 H   0  0  0  0  0  0  0  0  0  0  0  0
    1.7740   -1.1751    0.4386 C   0  0  0  0  0  0  0  0  0  0  0  0
    2.2534   -0.6915   -0.8051 C   0  0  0  0  0  0  0  0  0  0  0  0
    1.5464   -0.5738   -1.6419 H   0  0  0  0  0  0  0  0  0  0  0  0
    3.5863   -0.2974   -0.9560 C   0  0  0  0  0  0  0  0  0  0  0  0
    3.9170    0.1073   -1.9245 H   0  0  0  0  0  0  0  0  0  0  0  0
    0.3675   -1.5805    0.5993 C   0  0  0  0  0  0  0  0  0  0  0  0
   -0.5497   -1.1640    1.6720 C   0  0  1  0  0  3  0  0  0  0  0  0
   -1.8396   -1.7966    1.4450 C   0  0  1  0  0  3  0  0  0  0  0  0
   -1.7544   -2.5264    0.1828 C   0  0  1  0  0  3  0  0  0  0  0  0
   -0.3907   -2.3940   -0.3104 C   0  0  0  0  0  0  0  0  0  0  0  0
    0.1040   -3.0208   -1.5744 C   0  0  0  0  0  0  0  0  0  0  0  0
   -0.2046   -2.4051   -2.4480 H   0  0  0  0  0  0  0  0  0  0  0  0
   -0.3230   -4.0354   -1.7003 H   0  0  0  0  0  0  0  0  0  0  0  0
    1.2076   -3.0940   -1.5789 H   0  0  0  0  0  0  0  0  0  0  0  0
   -2.7890   -3.4389   -0.4005 C   0  0  0  0  0  0  0  0  0  0  0  0
   -3.7921   -3.2326    0.0186 H   0  0  0  0  0  0  0  0  0  0  0  0
   -2.5542   -4.5033   -0.1808 H   0  0  0  0  0  0  0  0  0  0  0  0
   -2.8512   -3.3254   -1.5001 H   0  0  0  0  0  0  0  0  0  0  0  0
   -3.0104   -1.7919    2.3766 C   0  0  0  0  0  0  0  0  0  0  0  0
   -3.9675   -1.7364    1.8228 H   0  0  0  0  0  0  0  0  0  0  0  0
   -2.9771   -0.9243    3.0622 H   0  0  0  0  0  0  0  0  0  0  0  0
   -3.0231   -2.7159    2.9936 H   0  0  0  0  0  0  0  0  0  0  0  0
   -0.1836   -0.3295    2.8609 C   0  0  0  0  0  0  0  0  0  0  0  0
    0.5936    0.4157    2.6039 H   0  0  0  0  0  0  0  0  0  0  0  0
    0.2184   -0.9598    3.6827 H   0  0  0  0  0  0  0  0  0  0  0  0
   -1.0650    0.2136    3.2517 H   0  0  0  0  0  0  0  0  0  0  0  0
  1 11  1  0  0  0  0
  2  1  1  0  0  0  0
  3  1  2  0  0  0  0
  3  5  1  0  0  0  0
  4  3  1  0  0  0  0
  5  7  2  0  0  0  0
  6  5  1  0  0  0  0
  7  9  1  0  0  0  0
  7  8  1  0  0  0  0
  9 10  1  0  0  0  0
 11 12  1  0  0  0  0
 11  9  2  0  0  0  0
 12 13  1  0  0  0  0
 13 15  2  0  0  0  0
 13 14  1  0  0  0  0
 15 16  1  0  0  0  0
 17 22  1  0  0  0  0
 17 15  1  0  0  0  0
 18 17  2  0  0  0  0
 19 18  1  0  0  0  0
 20 18  1  0  0  0  0
 20 12  2  0  0  0  0
 21 20  1  0  0  0  0
 22 23  1  0  0  0  0
 23 39  1  1  0  0  0
 24 23  1  0  0  0  0
 24 35  1  1  0  0  0
 25 31  1  1  0  0  0
 25 24  1  0  0  0  0
 26 25  1  0  0  0  0
 26 22  2  0  0  0  0
 27 26  1  0  0  0  0
 28 27  1  0  0  0  0
 29 27  1  0  0  0  0
 30 27  1  0  0  0  0
 31 33  1  0  0  0  0
 31 32  1  0  0  0  0
 34 31  1  0  0  0  0
 35 38  1  0  0  0  0
 35 37  1  0  0  0  0
 36 35  1  0  0  0  0
 39 42  1  0  0  0  0
 39 41  1  0  0  0  0
 40 39  1  0  0  0  0
M  END
