21
q = 0.0, confidence = 0.972

 45 48  0  0  0  0  0  0  0  0999 V2000
    5.0464    3.7805   -0.3617 Cl  0  0  0  0  0  0  0  0  0  0  0  0
    3.6998    1.7461    0.6241 N   0  0  0  0  0  0  0  0  0  0  0  0
    2.3551    0.1275    1.5933 N   0  0  0  0  0  0  0  0  0  0  0  0
   -0.2489   -0.5200    2.5676 N   0  0  0  0  0  0  0  0  0  0  0  0
   -1.9561    0.5521    1.7914 N   0  0  0  0  0  0  0  0  0  0  0  0
    4.7173    2.0697   -0.1294 C   0  0  0  0  0  0  0  0  0  0  0  0
    5.5883    1.1495   -0.7862 C   0  0  0  0  0  0  0  0  0  0  0  0
    6.4219    1.5164   -1.3995 H   0  0  0  0  0  0  0  0  0  0  0  0
    5.3264   -0.1986   -0.6161 C   0  0  0  0  0  0  0  0  0  0  0  0
    5.9556   -0.9600   -1.1036 H   0  0  0  0  0  0  0  0  0  0  0  0
    4.2245   -0.6056    0.1863 C   0  0  0  0  0  0  0  0  0  0  0  0
    3.4225    0.4216    0.8081 C   0  0  0  0  0  0  0  0  0  0  0  0
    3.8412   -1.9607    0.3885 C   0  0  0  0  0  0  0  0  0  0  0  0
    4.4252   -2.7686   -0.0801 H   0  0  0  0  0  0  0  0  0  0  0  0
    2.7134   -2.2336    1.1402 C   0  0  0  0  0  0  0  0  0  0  0  0
    2.3431   -3.2598    1.2761 H   0  0  0  0  0  0  0  0  0  0  0  0
    2.0053   -1.1455    1.7351 C   0  0  0  0  0  0  0  0  0  0  0  0
    0.8551   -1.4599    2.6708 C   0  0  0  0  0  0  0  0  0  0  0  0
    0.4611   -2.4739    2.4545 H   0  0  0  0  0  0  0  0  0  0  0  0
    1.2236   -1.4278    3.7171 H   0  0  0  0  0  0  0  0  0  0  0  0
   -0.9531   -0.3118    1.4104 C   0  0  0  0  0  2  0  0  0  0  0  0
   -0.7794    0.1933    3.6318 C   0  0  0  0  0  0  0  0  0  0  0  0
   -0.3437    0.1566    4.6340 H   0  0  0  0  0  0  0  0  0  0  0  0
   -1.8647    0.8684    3.1475 C   0  0  0  0  0  0  0  0  0  0  0  0
   -2.5839    1.5322    3.6343 H   0  0  0  0  0  0  0  0  0  0  0  0
   -2.9892    1.0792    0.9431 C   0  0  0  0  0  0  0  0  0  0  0  0
   -2.9245    2.4435    0.5743 C   0  0  0  0  0  0  0  0  0  0  0  0
   -3.9311    2.9430   -0.2695 C   0  0  0  0  0  0  0  0  0  0  0  0
   -3.8861    4.0000   -0.5775 H   0  0  0  0  0  0  0  0  0  0  0  0
   -4.9781    2.1286   -0.7409 C   0  0  0  0  0  0  0  0  0  0  0  0
   -5.0151    0.7848   -0.3273 C   0  0  0  0  0  0  0  0  0  0  0  0
   -5.8392    0.1377   -0.6683 H   0  0  0  0  0  0  0  0  0  0  0  0
   -4.0374    0.2318    0.5214 C   0  0  0  0  0  0  0  0  0  0  0  0
   -1.7913    3.3240    1.0383 C   0  0  0  0  0  0  0  0  0  0  0  0
   -1.7615    4.2663    0.4597 H   0  0  0  0  0  0  0  0  0  0  0  0
   -0.8098    2.8177    0.9318 H   0  0  0  0  0  0  0  0  0  0  0  0
   -1.8878    3.5925    2.1110 H   0  0  0  0  0  0  0  0  0  0  0  0
   -6.0159    2.6780   -1.6872 C   0  0  0  0  0  0  0  0  0  0  0  0
   -6.9643    2.1091   -1.6296 H   0  0  0  0  0  0  0  0  0  0  0  0
   -5.6615    2.6189   -2.7390 H   0  0  0  0  0  0  0  0  0  0  0  0
   -6.2364    3.7437   -1.4792 H   0  0  0  0  0  0  0  0  0  0  0  0
   -4.1152   -1.2015    0.9681 C   0  0  0  0  0  0  0  0  0  0  0  0
   -3.9959   -1.2889    2.0675 H   0  0  0  0  0  0  0  0  0  0  0  0
   -3.2983   -1.8163    0.5313 H   0  0  0  0  0  0  0  0  0  0  0  0
   -5.0848   -1.6520    0.6846 H   0  0  0  0  0  0  0  0  0  0  0  0
  1  6  1  0  0  0  0
  2 12  1  0  0  0  0
  3 17  1  0  0  0  0
  4 18  1  0  0  0  0
  4 22  1  0  0  0  0
  5 24  1  0  0  0  0
  6  2  2  0  0  0  0
  7  9  2  0  0  0  0
  7  6  1  0  0  0  0
  8  7  1  0  0  0  0
  9 11  1  0  0  0  0
 10  9  1  0  0  0  0
 11 13  2  0  0  0  0
 11 12  1  0  0  0  0
 12  3  2  0  0  0  0
 13 15  1  0  0  0  0
 14 13  1  0  0  0  0
 15 16  1  0  0  0  0
 15 17  2  0  0  0  0
 17 18  1  0  0  0  0
 18 20  1  0  0  0  0
 19 18  1  0  0  0  0
 21  5  1  0  0  0  0
 21  4  1  0  0  0  0
 22 23  1  0  0  0  0
 24 22  2  0  0  0  0
 24 25  1  0  0  0  0
 26  5  1  0  0  0  0
 27 26  1  0  0  0  0
 27 34  1  0  0  0  0
 28 27  2  0  0  0  0
 29 28  1  0  0  0  0
 30 31  2  0  0  0  0
 30 28  1  0  0  0  0
 31 33  1  0  0  0  0
 32 31  1  0  0  0  0
 33 26  2  0  0  0  0
 33 42  1  0  0  0  0
 34 37  1  0  0  0  0
 35 34  1  0  0  0  0
 36 34  1  0  0  0  0
 38 39  1  0  0  0  0
 38 41  1  0  0  0  0
 38 30  1  0  0  0  0
 40 38  1  0  0  0  0
 42 43  1  0  0  0  0
 44 42  1  0  0  0  0
 45 42  1  0  0  0  0
M  END
