2
q = -1.0, confidence = 0.024

 40 42  0  0  0  0  0  0  0  0999 V2000
    2.8087    3.4313   -2.0873 C   0  0  0  0  0  0  0  0  0  0  0  0
    0.1187   -0.5857   -1.3175 C   0  0  0  0  0  2  0  0  0  0  0  0
    0.6230   -1.1811   -2.5965 C   0  0  0  0  0  0  0  0  0  0  0  0
    0.8948   -0.1364   -0.4461 O   0  0  0  0  0  0  0  0  0  0  0  0
    2.4333   -0.0171   -0.0830 B   0  0  0  0  0  0  0  0  0  0  0  0
    2.9492    1.4223   -0.6522 C   0  0  0  0  0  0  0  0  0  0  0  0
    2.3568    2.1622   -1.6857 C   0  0  0  0  0  0  0  0  0  0  0  0
    3.9209    3.9971   -1.4479 C   0  0  0  0  0  0  0  0  0  0  0  0
    4.5646    3.2839   -0.4233 C   0  0  0  0  0  0  0  0  0  0  0  0
    4.0705    2.0243   -0.0530 C   0  0  0  0  0  0  0  0  0  0  0  0
    3.1905   -1.3350   -0.6678 C   0  0  0  0  0  0  0  0  0  0  0  0
    4.3610   -1.3230   -1.4446 C   0  0  0  0  0  0  0  0  0  0  0  0
    4.9699   -2.4971   -1.9275 C   0  0  0  0  0  0  0  0  0  0  0  0
    4.3986   -3.7441   -1.6341 C   0  0  0  0  0  0  0  0  0  0  0  0
    3.2275   -3.8049   -0.8600 C   0  0  0  0  0  0  0  0  0  0  0  0
    2.6609   -2.6098   -0.3972 C   0  0  0  0  0  0  0  0  0  0  0  0
    2.3240    0.0327    1.5547 C   0  0  0  0  0  0  0  0  0  0  0  0
    3.1056   -0.7271    2.4394 C   0  0  0  0  0  0  0  0  0  0  0  0
    2.9528   -0.6793    3.8368 C   0  0  0  0  0  0  0  0  0  0  0  0
    1.9895    0.1730    4.3976 C   0  0  0  0  0  0  0  0  0  0  0  0
    1.2021    0.9673    3.5514 C   0  0  0  0  0  0  0  0  0  0  0  0
    1.3878    0.8883    2.1631 C   0  0  0  0  0  0  0  0  0  0  0  0
    1.2973    1.6768   -2.3792 F   0  0  0  0  0  0  0  0  0  0  0  0
    2.1953    4.0940   -3.0759 F   0  0  0  0  0  0  0  0  0  0  0  0
    4.3723    5.1989   -1.8184 F   0  0  0  0  0  0  0  0  0  0  0  0
    5.6395    3.8057    0.1783 F   0  0  0  0  0  0  0  0  0  0  0  0
    4.7497    1.3696    0.9079 F   0  0  0  0  0  0  0  0  0  0  0  0
    4.9691   -0.1709   -1.7762 F   0  0  0  0  0  0  0  0  0  0  0  0
    6.0849   -2.4337   -2.6635 F   0  0  0  0  0  0  0  0  0  0  0  0
    4.9617   -4.8667   -2.0882 F   0  0  0  0  0  0  0  0  0  0  0  0
    2.6722   -4.9897   -0.5778 F   0  0  0  0  0  0  0  0  0  0  0  0
    1.5346   -2.7214    0.3431 F   0  0  0  0  0  0  0  0  0  0  0  0
    4.0646   -1.5511    1.9810 F   0  0  0  0  0  0  0  0  0  0  0  0
    3.7197   -1.4314    4.6346 F   0  0  0  0  0  0  0  0  0  0  0  0
    1.8297    0.2351    5.7230 F   0  0  0  0  0  0  0  0  0  0  0  0
    0.2867    1.8028    4.0764 F   0  0  0  0  0  0  0  0  0  0  0  0
    0.6018    1.6988    1.4172 F   0  0  0  0  0  0  0  0  0  0  0  0
    0.3162   -2.2465   -2.6351 H   0  0  0  0  0  0  0  0  0  0  0  0
    0.1228   -0.6740   -3.4441 H   0  0  0  0  0  0  0  0  0  0  0  0
    1.7201   -1.1011   -2.6967 H   0  0  0  0  0  0  0  0  0  0  0  0
  1  7  2  0  0  0  0
  1  8  1  0  0  0  0
  2  4  1  0  0  0  0
  3  2  1  0  0  0  0
  4  5  1  0  0  0  0
  5 17  1  0  0  0  0
  6  5  1  0  0  0  0
  6 10  2  0  0  0  0
  7  6  1  0  0  0  0
  8  9  2  0  0  0  0
  9 10  1  0  0  0  0
  9 26  1  0  0  0  0
 10 27  1  0  0  0  0
 11 16  1  0  0  0  0
 11  5  1  0  0  0  0
 12 11  2  0  0  0  0
 13 14  2  0  0  0  0
 13 12  1  0  0  0  0
 14 15  1  0  0  0  0
 15 31  1  0  0  0  0
 15 16  2  0  0  0  0
 16 32  1  0  0  0  0
 17 22  2  0  0  0  0
 17 18  1  0  0  0  0
 18 19  2  0  0  0  0
 19 20  1  0  0  0  0
 19 34  1  0  0  0  0
 20 35  1  0  0  0  0
 21 36  1  0  0  0  0
 21 20  2  0  0  0  0
 22 21  1  0  0  0  0
 23  7  1  0  0  0  0
 24  1  1  0  0  0  0
 25  8  1  0  0  0  0
 28 12  1  0  0  0  0
 29 13  1  0  0  0  0
 30 14  1  0  0  0  0
 33 18  1  0  0  0  0
 37 22  1  0  0  0  0
 38  3  1  0  0  0  0
 39  3  1  0  0  0  0
 40  3  1  0  0  0  0
M  END
