1
q = 0.0, confidence = 0.958

 22 25  0  0  0  0  0  0  0  0999 V2000
   -1.1815   -0.1425    1.5110 C   0  0  0  0  0  3  0  0  0  0  0  0
   -1.7635    0.3259    0.2839 C   0  0  0  0  0  3  0  0  0  0  0  0
   -0.8866    0.5290    2.8101 C   0  0  0  0  0  0  0  0  0  0  0  0
   -1.3162    1.5306    2.9901 H   0  0  0  0  0  0  0  0  0  0  0  0
    0.0788    0.3624    3.3164 H   0  0  0  0  0  0  0  0  0  0  0  0
   -1.8368   -0.6673    2.7477 C   0  0  0  0  0  0  0  0  0  0  0  0
   -1.4822   -1.6110    3.1973 H   0  0  0  0  0  0  0  0  0  0  0  0
   -2.9165   -0.4826    2.8846 H   0  0  0  0  0  0  0  0  0  0  0  0
   -2.4197    1.6146   -0.1113 C   0  0  0  0  0  0  0  0  0  0  0  0
   -2.7049    2.9723    0.4431 C   0  0  0  0  0  0  0  0  0  0  0  0
   -1.9274    3.4753    1.0423 H   0  0  0  0  0  0  0  0  0  0  0  0
   -3.7369    3.1991    0.7618 H   0  0  0  0  0  0  0  0  0  0  0  0
   -2.4284    2.7766   -1.0469 C   0  0  0  0  0  0  0  0  0  0  0  0
   -3.2825    2.8486   -1.7423 H   0  0  0  0  0  0  0  0  0  0  0  0
   -1.4858    3.1693   -1.4544 H   0  0  0  0  0  0  0  0  0  0  0  0
   -3.1944    0.3501   -0.1268 C   0  0  0  0  0  0  0  0  0  0  0  0
   -4.5279   -0.0986    0.3654 C   0  0  0  0  0  0  0  0  0  0  0  0
   -5.2779    0.6611    0.6464 H   0  0  0  0  0  0  0  0  0  0  0  0
   -4.5783   -1.0241    0.9638 H   0  0  0  0  0  0  0  0  0  0  0  0
   -4.1501   -0.2284   -1.1124 C   0  0  0  0  0  0  0  0  0  0  0  0
   -3.9769   -1.2362   -1.5238 H   0  0  0  0  0  0  0  0  0  0  0  0
   -4.6298    0.4661   -1.8238 H   0  0  0  0  0  0  0  0  0  0  0  0
  1  6  1  0  0  0  0
  1  3  1  0  0  0  0
  2  1  1  0  0  0  0
  3  4  1  0  0  0  0
  3  5  1  0  0  0  0
  6  3  1  0  0  0  0
  6  8  1  0  0  0  0
  6  7  1  0  0  0  0
  9  2  1  0  0  0  0
  9 10  1  0  0  0  0
 10 12  1  0  0  0  0
 10 11  1  0  0  0  0
 13  9  1  0  0  0  0
 13 10  1  0  0  0  0
 14 13  1  0  0  0  0
 15 13  1  0  0  0  0
 16  9  1  0  0  0  0
 16  2  1  0  0  0  0
 16 17  1  0  0  0  0
 17 18  1  0  0  0  0
 17 19  1  0  0  0  0
 20 16  1  0  0  0  0
 20 17  1  0  0  0  0
 21 20  1  0  0  0  0
 22 20  1  0  0  0  0
M  END
