1
q = 0.0, confidence = 0.854

 34 33  0  0  0  0  0  0  0  0999 V2000
   -0.7507    0.2155    0.1645 C   0  0  0  0  0  2  0  0  0  0  0  0
    0.4304   -0.2830   -0.0236 C   0  0  0  0  0  2  0  0  0  0  0  0
    1.3125   -1.6545   -0.6881 S   0  0  0  0  0  0  0  0  0  0  0  0
   -2.5113    0.2300    0.2402 S   0  0  0  0  0  0  0  0  0  0  0  0
    1.7771   -1.2562   -2.0460 O   0  0  0  0  0  0  0  0  0  0  0  0
    0.4659   -2.8736   -0.5367 O   0  0  0  0  0  0  0  0  0  0  0  0
   -2.9619    1.0766   -0.8998 O   0  0  0  0  0  0  0  0  0  0  0  0
   -2.8626    0.6221    1.6277 O   0  0  0  0  0  0  0  0  0  0  0  0
    2.8049   -1.8582    0.4158 C   0  0  0  0  0  0  0  0  0  0  0  0
    3.6838   -0.6185    0.2449 C   0  0  0  0  0  0  0  0  0  0  0  0
    3.9899   -0.4949   -0.8115 H   0  0  0  0  0  0  0  0  0  0  0  0
    4.5951   -0.7327    0.8672 H   0  0  0  0  0  0  0  0  0  0  0  0
    3.1516    0.2977    0.5677 H   0  0  0  0  0  0  0  0  0  0  0  0
    2.2946   -2.0307    1.8469 C   0  0  0  0  0  0  0  0  0  0  0  0
    1.7638   -1.1260    2.2053 H   0  0  0  0  0  0  0  0  0  0  0  0
    3.1583   -2.2041    2.5211 H   0  0  0  0  0  0  0  0  0  0  0  0
    1.6111   -2.8979    1.9254 H   0  0  0  0  0  0  0  0  0  0  0  0
    3.4868   -3.1251   -0.1151 C   0  0  0  0  0  0  0  0  0  0  0  0
    3.7661   -3.0069   -1.1804 H   0  0  0  0  0  0  0  0  0  0  0  0
    2.8233   -4.0056   -0.0196 H   0  0  0  0  0  0  0  0  0  0  0  0
    4.4099   -3.3098    0.4708 H   0  0  0  0  0  0  0  0  0  0  0  0
   -3.1007   -1.5231   -0.0590 C   0  0  0  0  0  0  0  0  0  0  0  0
   -2.4927   -2.4057    1.0311 C   0  0  0  0  0  0  0  0  0  0  0  0
   -1.3999   -2.5193    0.8950 H   0  0  0  0  0  0  0  0  0  0  0  0
   -2.9413   -3.4180    0.9595 H   0  0  0  0  0  0  0  0  0  0  0  0
   -2.7092   -1.9974    2.0371 H   0  0  0  0  0  0  0  0  0  0  0  0
   -2.6762   -1.9273   -1.4706 C   0  0  0  0  0  0  0  0  0  0  0  0
   -1.5782   -2.0392   -1.5510 H   0  0  0  0  0  0  0  0  0  0  0  0
   -3.0365   -1.1948   -2.2179 H   0  0  0  0  0  0  0  0  0  0  0  0
   -3.1223   -2.9157   -1.7051 H   0  0  0  0  0  0  0  0  0  0  0  0
   -4.6246   -1.3984    0.0758 C   0  0  0  0  0  0  0  0  0  0  0  0
   -5.0359   -0.6994   -0.6780 H   0  0  0  0  0  0  0  0  0  0  0  0
   -4.9082   -1.0404    1.0842 H   0  0  0  0  0  0  0  0  0  0  0  0
   -5.0770   -2.3979   -0.0859 H   0  0  0  0  0  0  0  0  0  0  0  0
  1  4  1  0  0  0  0
  2  1  1  0  0  0  0
  3  6  2  0  0  0  0
  3  2  1  0  0  0  0
  3  9  1  0  0  0  0
  4  8  2  0  0  0  0
  5  3  2  0  0  0  0
  7  4  2  0  0  0  0
  9 14  1  0  0  0  0
 10  9  1  0  0  0  0
 10 13  1  0  0  0  0
 10 12  1  0  0  0  0
 11 10  1  0  0  0  0
 14 17  1  0  0  0  0
 14 15  1  0  0  0  0
 14 16  1  0  0  0  0
 18 20  1  0  0  0  0
 18  9  1  0  0  0  0
 18 21  1  0  0  0  0
 19 18  1  0  0  0  0
 22 31  1  0  0  0  0
 22  4  1  0  0  0  0
 22 23  1  0  0  0  0
 23 26  1  0  0  0  0
 24 23  1  0  0  0  0
 25 23  1  0  0  0  0
 27 22  1  0  0  0  0
 28 27  1  0  0  0  0
 29 27  1  0  0  0  0
 30 27  1  0  0  0  0
 31 33  1  0  0  0  0
 32 31  1  0  0  0  0
 34 31  1  0  0  0  0
M  END
