1
q = 0.0, confidence = 1.0

 15 15  0  0  1  0  0  0  0  0999 V2000
   -2.9277   -0.8039    0.8173 C   0  0  1  0  0  3  0  0  0  0  0  0
   -2.5313   -0.1741    2.0378 C   0  0  0  0  0  0  0  0  0  0  0  0
   -2.8929    0.8368    2.2732 H   0  0  0  0  0  0  0  0  0  0  0  0
   -1.6558   -0.8535    2.9274 C   0  0  0  0  0  0  0  0  0  0  0  0
   -1.3354   -0.3624    3.8581 H   0  0  0  0  0  0  0  0  0  0  0  0
   -1.1688   -2.1508    2.6003 C   0  0  0  0  0  0  0  0  0  0  0  0
   -0.4713   -2.6627    3.2796 H   0  0  0  0  0  0  0  0  0  0  0  0
   -1.5782   -2.7848    1.3923 C   0  0  0  0  0  0  0  0  0  0  0  0
   -1.1985   -3.7855    1.1384 H   0  0  0  0  0  0  0  0  0  0  0  0
   -2.4536   -2.1140    0.4962 C   0  0  0  0  0  3  0  0  0  0  0  0
   -2.7562   -2.5880   -0.4483 H   0  0  0  0  0  0  0  0  0  0  0  0
   -3.9137   -0.1239   -0.0929 C   0  0  0  0  0  0  0  0  0  0  0  0
   -5.1920   -0.4676    0.2104 F   0  0  0  0  0  0  0  0  0  0  0  0
   -3.7211   -0.4550   -1.3973 F   0  0  0  0  0  0  0  0  0  0  0  0
   -3.8428    1.2309   -0.0058 F   0  0  0  0  0  0  0  0  0  0  0  0
  1 12  1  1  0  0  0
  1  2  1  0  0  0  0
  2  3  1  0  0  0  0
  2  4  2  0  0  0  0
  4  5  1  0  0  0  0
  6  4  1  0  0  0  0
  6  7  1  0  0  0  0
  8  6  2  0  0  0  0
  9  8  1  0  0  0  0
 10  1  1  0  0  0  0
 10  8  1  0  0  0  0
 11 10  1  0  0  0  0
 12 15  1  0  0  0  0
 12 13  1  0  0  0  0
 14 12  1  0  0  0  0
M  END
