1
q = 0.0, confidence = 0.988

 19 19  0  0  1  0  0  0  0  0999 V2000
    1.2187   -0.2515   -1.1709 C   0  0  0  0  0  1  0  0  0  0  0  0
    2.1615    0.4664   -1.3054 N   0  0  0  0  0  2  0  0  0  0  0  0
    3.3159    1.2925   -1.1150 C   0  0  1  0  0  0  0  0  0  0  0  0
    3.7087    1.5396   -2.1249 H   0  0  0  0  0  0  0  0  0  0  0  0
    2.9184    2.6005   -0.4069 C   0  0  0  0  0  0  0  0  0  0  0  0
    2.1516    3.1498   -0.9884 H   0  0  0  0  0  0  0  0  0  0  0  0
    3.8114    3.2453   -0.3017 H   0  0  0  0  0  0  0  0  0  0  0  0
    2.5145    2.3898    0.6023 H   0  0  0  0  0  0  0  0  0  0  0  0
    5.7293    0.5501   -0.8372 C   0  0  0  0  0  0  0  0  0  0  0  0
    5.9681    1.0782   -1.7741 H   0  0  0  0  0  0  0  0  0  0  0  0
    6.7472   -0.1035   -0.1242 C   0  0  0  0  0  0  0  0  0  0  0  0
    7.7792   -0.0849   -0.5052 H   0  0  0  0  0  0  0  0  0  0  0  0
    6.4481   -0.7832    1.0658 C   0  0  0  0  0  0  0  0  0  0  0  0
    7.2449   -1.2984    1.6226 H   0  0  0  0  0  0  0  0  0  0  0  0
    5.1269   -0.8046    1.5434 C   0  0  0  0  0  0  0  0  0  0  0  0
    4.8886   -1.3345    2.4783 H   0  0  0  0  0  0  0  0  0  0  0  0
    4.1120   -0.1484    0.8331 C   0  0  0  0  0  0  0  0  0  0  0  0
    3.0784   -0.1587    1.2097 H   0  0  0  0  0  0  0  0  0  0  0  0
    4.4061    0.5325   -0.3636 C   0  0  0  0  0  0  0  0  0  0  0  0
  2  1  1  0  0  0  0
  2  3  1  0  0  0  0
  3  4  1  6  0  0  0
  3  5  1  0  0  0  0
  3 19  1  0  0  0  0
  5  7  1  0  0  0  0
  5  8  1  0  0  0  0
  6  5  1  0  0  0  0
  9 19  2  0  0  0  0
  9 11  1  0  0  0  0
 10  9  1  0  0  0  0
 11 13  2  0  0  0  0
 12 11  1  0  0  0  0
 13 15  1  0  0  0  0
 13 14  1  0  0  0  0
 15 16  1  0  0  0  0
 17 18  1  0  0  0  0
 17 15  2  0  0  0  0
 19 17  1  0  0  0  0
M  END
