3
q = -1.0, confidence = 0.01

 20 19  0  0  0  0  0  0  0  0999 V2000
    1.4657    2.8348   -1.0953 C   0  0  0  0  0  0  0  0  0  0  0  0
    0.4279    2.1783   -0.2209 C   0  0  0  0  0  3  0  0  0  0  0  0
   -0.6945    1.4867   -0.7678 C   0  0  0  0  0  3  0  0  0  0  0  0
   -1.6153    0.8323    0.1076 C   0  0  0  0  0  3  0  0  0  0  0  0
   -2.8324    0.1055   -0.4424 C   0  0  0  0  0  0  0  0  0  0  0  0
   -3.9972    1.1021   -0.5913 C   0  0  0  0  0  0  0  0  0  0  0  0
   -3.2466   -1.0962    0.4156 C   0  0  0  0  0  0  0  0  0  0  0  0
    2.4483    2.8822   -0.5845 H   0  0  0  0  0  0  0  0  0  0  0  0
    1.6040    2.2899   -2.0506 H   0  0  0  0  0  0  0  0  0  0  0  0
    1.1747    3.8805   -1.3383 H   0  0  0  0  0  0  0  0  0  0  0  0
    0.2690    2.6628    0.7579 H   0  0  0  0  0  0  0  0  0  0  0  0
   -0.7943    1.3684   -1.8618 H   0  0  0  0  0  0  0  0  0  0  0  0
   -1.7882    1.3120    1.0881 H   0  0  0  0  0  0  0  0  0  0  0  0
   -2.5736   -0.2674   -1.4593 H   0  0  0  0  0  0  0  0  0  0  0  0
   -4.8884    0.6132   -1.0360 H   0  0  0  0  0  0  0  0  0  0  0  0
   -4.2945    1.5070    0.3989 H   0  0  0  0  0  0  0  0  0  0  0  0
   -3.7167    1.9603   -1.2346 H   0  0  0  0  0  0  0  0  0  0  0  0
   -4.1667   -1.5709    0.0182 H   0  0  0  0  0  0  0  0  0  0  0  0
   -2.4460   -1.8610    0.4510 H   0  0  0  0  0  0  0  0  0  0  0  0
   -3.4490   -0.7858    1.4615 H   0  0  0  0  0  0  0  0  0  0  0  0
  1  8  1  0  0  0  0
  1  2  1  0  0  0  0
  2 11  1  0  0  0  0
  3  2  1  0  0  0  0
  3  4  1  0  0  0  0
  4 13  1  0  0  0  0
  5  4  1  0  0  0  0
  5  7  1  0  0  0  0
  6  5  1  0  0  0  0
  6 16  1  0  0  0  0
  7 19  1  0  0  0  0
  7 20  1  0  0  0  0
  9  1  1  0  0  0  0
 10  1  1  0  0  0  0
 12  3  1  0  0  0  0
 14  5  1  0  0  0  0
 15  6  1  0  0  0  0
 17  6  1  0  0  0  0
 18  7  1  0  0  0  0
M  END
