2
q = -1.0, confidence = 0.0

 15 15  0  0  0  0  0  0  0  0999 V2000
    1.8944    0.8238    0.0000 S   0  0  0  0  0  0  0  0  0  0  0  0
    0.9710   -0.7371    0.0000 C   0  0  0  0  0  3  0  0  0  0  0  0
    1.2212   -1.3335    0.9038 H   0  0  0  0  0  0  0  0  0  0  0  0
    1.2211   -1.3335   -0.9038 H   0  0  0  0  0  0  0  0  0  0  0  0
    3.6047    0.3440    0.0000 C   0  0  0  0  0  0  0  0  0  0  0  0
    4.5678    1.3818    0.0000 C   0  0  0  0  0  0  0  0  0  0  0  0
    4.2312    2.4307    0.0000 H   0  0  0  0  0  0  0  0  0  0  0  0
    5.9344    1.0816   -0.0000 C   0  0  0  0  0  0  0  0  0  0  0  0
    6.6680    1.9031   -0.0000 H   0  0  0  0  0  0  0  0  0  0  0  0
    6.3734   -0.2548   -0.0000 C   0  0  0  0  0  0  0  0  0  0  0  0
    7.4485   -0.4883   -0.0001 H   0  0  0  0  0  0  0  0  0  0  0  0
    5.4213   -1.2851   -0.0000 C   0  0  0  0  0  0  0  0  0  0  0  0
    5.7486   -2.3369   -0.0001 H   0  0  0  0  0  0  0  0  0  0  0  0
    4.0476   -0.9959   -0.0000 C   0  0  0  0  0  0  0  0  0  0  0  0
    3.3160   -1.8161   -0.0000 H   0  0  0  0  0  0  0  0  0  0  0  0
  2  1  1  0  0  0  0
  2  3  1  0  0  0  0
  4  2  1  0  0  0  0
  5  6  1  0  0  0  0
  5  1  1  0  0  0  0
  6  7  1  0  0  0  0
  8  9  1  0  0  0  0
  8  6  2  0  0  0  0
 10 12  2  0  0  0  0
 10  8  1  0  0  0  0
 11 10  1  0  0  0  0
 12 14  1  0  0  0  0
 13 12  1  0  0  0  0
 14  5  2  0  0  0  0
 15 14  1  0  0  0  0
M  END
