1
q = 0.0, confidence = 0.934

  6  5  0  0  0  0  0  0  0  0999 V2000
    0.3057    2.5798   -0.7676 C   0  0  0  0  0  3  0  0  0  0  0  0
   -0.9932    2.3936   -0.6761 C   0  0  0  0  0  3  0  0  0  0  0  0
   -2.2840    2.8967   -0.6996 C   0  0  0  0  0  0  0  0  0  0  0  0
   -3.4585    3.2774   -0.6927 C   0  0  0  0  0  0  0  0  0  0  0  0
    1.0313    3.3815   -0.9576 H   0  0  0  0  0  0  0  0  0  0  0  0
   -4.4724    3.6487   -0.7018 H   0  0  0  0  0  0  0  0  0  0  0  0
  1  2  2  0  0  0  0
  3  4  3  0  0  0  0
  3  2  1  0  0  0  0
  5  1  1  0  0  0  0
  6  4  1  0  0  0  0
M  END
