5
q = -1.0, confidence = 0.01

 16 16  0  0  0  0  0  0  0  0999 V2000
    3.6338    0.0775    0.0558 C   0  0  0  0  0  0  0  0  0  0  0  0
    2.2021    0.5643   -0.2082 C   0  0  0  0  0  0  0  0  0  0  0  0
    1.3089    0.6055    1.0209 C   0  0  0  0  0  3  0  0  0  0  0  0
    0.8189   -0.6065    1.5728 C   0  0  0  0  0  3  0  0  0  0  0  0
    0.6237   -1.7309    0.7162 C   0  0  0  0  0  3  0  0  0  0  0  0
    0.8922   -1.5525   -0.6849 C   0  0  0  0  0  3  0  0  0  0  0  0
    1.4037   -0.3245   -1.1491 C   0  0  0  0  0  3  0  0  0  0  0  0
    3.6416   -0.9418    0.4898 H   0  0  0  0  0  0  0  0  0  0  0  0
    4.1518    0.7604    0.7583 H   0  0  0  0  0  0  0  0  0  0  0  0
    4.2165    0.0597   -0.8869 H   0  0  0  0  0  0  0  0  0  0  0  0
    2.2472    1.5837   -0.6409 H   0  0  0  0  0  0  0  0  0  0  0  0
    1.2995    1.5052    1.6569 H   0  0  0  0  0  0  0  0  0  0  0  0
    0.4797   -0.6587    2.6197 H   0  0  0  0  0  0  0  0  0  0  0  0
    0.2177   -2.6762    1.1024 H   0  0  0  0  0  0  0  0  0  0  0  0
    0.5740   -2.3329   -1.3945 H   0  0  0  0  0  0  0  0  0  0  0  0
    1.4581   -0.1597   -2.2373 H   0  0  0  0  0  0  0  0  0  0  0  0
  1  8  1  0  0  0  0
  1  9  1  0  0  0  0
  2  1  1  0  0  0  0
  2  3  1  0  0  0  0
  3  4  1  0  0  0  0
  3 12  1  0  0  0  0
  4 13  1  0  0  0  0
  5 14  1  0  0  0  0
  5  4  1  0  0  0  0
  6  5  1  0  0  0  0
  7  6  1  0  0  0  0
  7  2  1  0  0  0  0
 10  1  1  0  0  0  0
 11  2  1  0  0  0  0
 15  6  1  0  0  0  0
 16  7  1  0  0  0  0
M  END
