4
q = 0.0, confidence = 0.954

 19 18  0  0  0  0  0  0  0  0999 V2000
   -0.2210    2.3909    0.0000 O   0  0  0  0  0  0  0  0  0  0  0  0
    3.6545   -0.4360    0.0000 N   0  0  0  0  0  0  0  0  0  0  0  0
    0.6064    3.5596    0.0008 C   0  0  0  0  0  0  0  0  0  0  0  0
    0.2664    1.1345   -0.0000 C   0  0  0  0  0  2  0  0  0  0  0  0
    1.6895    1.0117   -0.0002 C   0  0  0  0  0  0  0  0  0  0  0  0
    2.3274   -0.2223    0.0002 C   0  0  0  0  0  0  0  0  0  0  0  0
    4.5917    0.6768   -0.0006 C   0  0  0  0  0  0  0  0  0  0  0  0
    4.1969   -1.7864    0.0006 C   0  0  0  0  0  0  0  0  0  0  0  0
   -0.0897    4.4178    0.0017 H   0  0  0  0  0  0  0  0  0  0  0  0
    1.2452    3.6079   -0.9064 H   0  0  0  0  0  0  0  0  0  0  0  0
    1.2459    3.6063    0.9076 H   0  0  0  0  0  0  0  0  0  0  0  0
    2.3195    1.9140   -0.0007 H   0  0  0  0  0  0  0  0  0  0  0  0
    1.7162   -1.1346    0.0008 H   0  0  0  0  0  0  0  0  0  0  0  0
    4.4524    1.3144    0.8984 H   0  0  0  0  0  0  0  0  0  0  0  0
    5.6263    0.2898   -0.0002 H   0  0  0  0  0  0  0  0  0  0  0  0
    4.4527    1.3132   -0.9004 H   0  0  0  0  0  0  0  0  0  0  0  0
    4.8223   -1.9628    0.9016 H   0  0  0  0  0  0  0  0  0  0  0  0
    3.3681   -2.5174    0.0006 H   0  0  0  0  0  0  0  0  0  0  0  0
    4.8227   -1.9633   -0.9000 H   0  0  0  0  0  0  0  0  0  0  0  0
  1  3  1  0  0  0  0
  2  6  1  0  0  0  0
  2  8  1  0  0  0  0
  3  9  1  0  0  0  0
  3 11  1  0  0  0  0
  4  1  1  0  0  0  0
  5  4  1  0  0  0  0
  5  6  2  0  0  0  0
  6 13  1  0  0  0  0
  7 15  1  0  0  0  0
  7  2  1  0  0  0  0
  7 14  1  0  0  0  0
  8 17  1  0  0  0  0
 10  3  1  0  0  0  0
 12  5  1  0  0  0  0
 16  7  1  0  0  0  0
 18  8  1  0  0  0  0
 19  8  1  0  0  0  0
M  END
