9
q = -1.0, confidence = 0.098

 13 13  0  0  1  0  0  0  0  0999 V2000
   -4.5326   -1.1548    0.2247 O   0  0  0  0  0  0  0  0  0  0  0  0
   -4.5023    1.1211    0.1836 O   0  0  0  0  0  0  0  0  0  0  0  0
   -5.3020    0.9856    0.7390 H   0  0  0  0  0  0  0  0  0  0  0  0
   -4.0343   -0.1062   -0.1318 C   0  0  0  0  0  0  0  0  0  0  0  0
   -2.1332    1.1585   -1.4711 C   0  0  0  0  0  0  0  0  0  0  0  0
   -2.4613    2.1915   -1.3071 H   0  0  0  0  0  0  0  0  0  0  0  0
   -1.0521    0.7174   -2.2998 C   0  0  0  0  0  0  0  0  0  0  0  0
   -0.3424    1.3657   -2.8301 H   0  0  0  0  0  0  0  0  0  0  0  0
   -2.8051   -0.0224   -0.9733 C   0  0  2  0  0  3  0  0  0  0  0  0
   -2.1041   -1.1802   -1.4806 C   0  0  0  0  0  0  0  0  0  0  0  0
   -2.4187   -2.2184   -1.3202 H   0  0  0  0  0  0  0  0  0  0  0  0
   -1.0342   -0.7071   -2.3050 C   0  0  0  0  0  0  0  0  0  0  0  0
   -0.3092   -1.3333   -2.8406 H   0  0  0  0  0  0  0  0  0  0  0  0
  2  3  1  0  0  0  0
  4  2  1  0  0  0  0
  4  1  2  0  0  0  0
  5  6  1  0  0  0  0
  5  9  1  0  0  0  0
  7  5  2  0  0  0  0
  8  7  1  0  0  0  0
  9  4  1  6  0  0  0
 10 11  1  0  0  0  0
 10  9  1  0  0  0  0
 12  7  1  0  0  0  0
 12 10  2  0  0  0  0
 13 12  1  0  0  0  0
M  END
