22
q = -1.0, confidence = 0.0

 29 30  0  0  1  0  0  0  0  0999 V2000
   -2.9752   -2.1294    0.4438 O   0  0  0  0  0  0  0  0  0  0  0  0
   -2.0986   -0.2029   -0.4765 N   0  0  0  0  0  0  0  0  0  0  0  0
   -2.3394    0.7151   -0.8744 H   0  0  0  0  0  0  0  0  0  0  0  0
   -0.8493   -0.6859   -0.5653 N   0  0  0  0  0  0  0  0  0  0  0  0
   -7.0164    0.9159    0.3269 N   0  0  0  0  0  0  0  0  0  0  0  0
   -3.1243   -0.9761    0.0726 C   0  0  0  0  0  0  0  0  0  0  0  0
    0.0640    0.0498   -1.1332 C   0  0  0  0  0  0  0  0  0  0  0  0
   -0.1968    1.4173   -1.7152 C   0  0  0  0  0  0  0  0  0  0  0  0
   -0.9431    1.3754   -2.5381 H   0  0  0  0  0  0  0  0  0  0  0  0
    0.7193    1.8853   -2.1143 H   0  0  0  0  0  0  0  0  0  0  0  0
   -0.5921    2.1067   -0.9372 H   0  0  0  0  0  0  0  0  0  0  0  0
   -4.4510   -0.2618    0.1454 C   0  0  0  0  0  0  0  0  0  0  0  0
   -4.6091    1.1374    0.1853 C   0  0  0  0  0  0  0  0  0  0  0  0
   -3.7456    1.8211    0.1855 H   0  0  0  0  0  0  0  0  0  0  0  0
   -5.9068    1.6676    0.2768 C   0  0  0  0  0  0  0  0  0  0  0  0
   -6.0513    2.7622    0.3182 H   0  0  0  0  0  0  0  0  0  0  0  0
   -6.8584   -0.4189    0.3036 C   0  0  0  0  0  0  0  0  0  0  0  0
   -7.7825   -1.0219    0.3537 H   0  0  0  0  0  0  0  0  0  0  0  0
   -5.6112   -1.0536    0.2233 C   0  0  0  0  0  0  0  0  0  0  0  0
   -5.5119   -2.1489    0.2231 H   0  0  0  0  0  0  0  0  0  0  0  0
    1.4150   -0.5235   -1.1486 C   0  0  1  0  0  3  0  0  0  0  0  0
    2.5729   -0.0741   -1.8888 C   0  0  0  0  0  3  0  0  0  0  0  0
    2.6107    0.7752   -2.5808 H   0  0  0  0  0  0  0  0  0  0  0  0
    3.6659   -0.9411   -1.5898 C   0  0  0  0  0  3  0  0  0  0  0  0
    4.6776   -0.8631   -2.0044 H   0  0  0  0  0  0  0  0  0  0  0  0
    3.2047   -1.9326   -0.6530 C   0  0  0  0  0  0  0  0  0  0  0  0
    3.8060   -2.7399   -0.2195 H   0  0  0  0  0  0  0  0  0  0  0  0
    1.8320   -1.6678   -0.3768 C   0  0  0  0  0  0  0  0  0  0  0  0
    1.1675   -2.2253    0.2930 H   0  0  0  0  0  0  0  0  0  0  0  0
  2  6  1  0  0  0  0
  3  2  1  0  0  0  0
  4  2  1  0  0  0  0
  6 12  1  0  0  0  0
  6  1  2  0  0  0  0
  7  4  2  0  0  0  0
  8  7  1  0  0  0  0
  8 11  1  0  0  0  0
  9  8  1  0  0  0  0
 10  8  1  0  0  0  0
 12 13  2  0  0  0  0
 12 19  1  0  0  0  0
 13 14  1  0  0  0  0
 13 15  1  0  0  0  0
 15 16  1  0  0  0  0
 15  5  2  0  0  0  0
 17  5  1  0  0  0  0
 17 18  1  0  0  0  0
 19 17  2  0  0  0  0
 20 19  1  0  0  0  0
 21  7  1  1  0  0  0
 21 28  1  0  0  0  0
 22 24  1  0  0  0  0
 22 21  1  0  0  0  0
 23 22  1  0  0  0  0
 24 26  1  0  0  0  0
 25 24  1  0  0  0  0
 26 28  2  0  0  0  0
 26 27  1  0  0  0  0
 28 29  1  0  0  0  0
M  END
