14
q = 0.0, confidence = 0.998

 31 33  0  0  1  0  0  0  0  0999 V2000
    1.3545   -0.8147   -2.0658 O   0  0  0  0  0  0  0  0  0  0  0  0
    0.6303   -1.3947    2.6281 O   0  0  0  0  0  0  0  0  0  0  0  0
    4.7455   -1.6582   -0.9355 O   0  0  0  0  0  0  0  0  0  0  0  0
    1.7532    0.5567    0.6751 O   0  0  0  0  0  0  0  0  0  0  0  0
    2.8892    2.5026    0.3199 O   0  0  0  0  0  0  0  0  0  0  0  0
    0.8393   -1.0044   -0.9750 C   0  0  0  0  0  0  0  0  0  0  0  0
    1.5316   -0.8219    0.4013 C   0  0  2  0  0  0  0  0  0  0  0  0
    0.4605   -1.2771    1.4301 C   0  0  0  0  0  0  0  0  0  0  0  0
   -0.8008   -1.5449    0.6799 C   0  0  1  0  0  3  0  0  0  0  0  0
   -2.1133   -1.7593    1.1954 C   0  0  0  0  0  0  0  0  0  0  0  0
   -3.1861   -1.8041    0.2734 C   0  0  0  0  0  0  0  0  0  0  0  0
   -2.9596   -1.6701   -1.1405 C   0  0  0  0  0  0  0  0  0  0  0  0
   -1.6545   -1.4763   -1.6525 C   0  0  0  0  0  0  0  0  0  0  0  0
   -0.5724   -1.4080   -0.7244 C   0  0  1  0  0  3  0  0  0  0  0  0
    2.8266   -1.6375    0.5226 C   0  0  0  0  0  0  0  0  0  0  0  0
    3.9674   -1.0026   -0.2668 C   0  0  0  0  0  0  0  0  0  0  0  0
    4.0778    0.5028   -0.0935 C   0  0  0  0  0  0  0  0  0  0  0  0
    2.7291    1.2214   -0.1654 C   0  0  1  0  0  0  0  0  0  0  0  0
    1.7601    3.3498    0.1393 C   0  0  0  0  0  0  0  0  0  0  0  0
   -2.2755   -1.8155    2.2804 H   0  0  0  0  0  0  0  0  0  0  0  0
   -4.2173   -1.8956    0.6425 H   0  0  0  0  0  0  0  0  0  0  0  0
   -3.8207   -1.6625   -1.8231 H   0  0  0  0  0  0  0  0  0  0  0  0
   -1.4690   -1.3197   -2.7241 H   0  0  0  0  0  0  0  0  0  0  0  0
    3.0927   -1.6283    1.6034 H   0  0  0  0  0  0  0  0  0  0  0  0
    2.6998   -2.6872    0.1962 H   0  0  0  0  0  0  0  0  0  0  0  0
    4.7860    0.9100   -0.8387 H   0  0  0  0  0  0  0  0  0  0  0  0
    4.4799    0.7044    0.9236 H   0  0  0  0  0  0  0  0  0  0  0  0
    2.3357    1.2283   -1.2118 H   0  0  0  0  0  0  0  0  0  0  0  0
    2.0821    4.3747    0.4023 H   0  0  0  0  0  0  0  0  0  0  0  0
    0.9181    3.0522    0.7997 H   0  0  0  0  0  0  0  0  0  0  0  0
    1.4049    3.3353   -0.9161 H   0  0  0  0  0  0  0  0  0  0  0  0
  1  6  2  0  0  0  0
  3 16  2  0  0  0  0
  6 14  1  0  0  0  0
  7  6  1  6  0  0  0
  7 15  1  0  0  0  0
  7  4  1  0  0  0  0
  7  8  1  0  0  0  0
  8  2  2  0  0  0  0
  9 10  1  1  0  0  0
  9  8  1  0  0  0  0
 10 20  1  0  0  0  0
 11 21  1  0  0  0  0
 11 10  2  0  0  0  0
 12 11  1  0  0  0  0
 13 12  2  0  0  0  0
 14 13  1  1  0  0  0
 14  9  1  0  0  0  0
 15 24  1  0  0  0  0
 16 17  1  0  0  0  0
 16 15  1  0  0  0  0
 17 27  1  0  0  0  0
 18 28  1  6  0  0  0
 18 17  1  0  0  0  0
 18  5  1  0  0  0  0
 18  4  1  0  0  0  0
 19  5  1  0  0  0  0
 19 29  1  0  0  0  0
 19 30  1  0  0  0  0
 22 12  1  0  0  0  0
 23 13  1  0  0  0  0
 25 15  1  0  0  0  0
 26 17  1  0  0  0  0
 31 19  1  0  0  0  0
M  END
