10
q = 0.0, confidence = 1.0

 54 57  0  0  1  0  0  0  0  0999 V2000
    5.2788    2.5645   -0.3786 F   0  0  0  0  0  0  0  0  0  0  0  0
    6.0430    0.5416   -0.5939 F   0  0  0  0  0  0  0  0  0  0  0  0
    5.2127    1.1989    1.3174 F   0  0  0  0  0  0  0  0  0  0  0  0
    4.2692    0.1415   -2.6318 F   0  0  0  0  0  0  0  0  0  0  0  0
    3.5304    2.1790   -2.3992 F   0  0  0  0  0  0  0  0  0  0  0  0
    2.1496    0.5034   -2.2547 F   0  0  0  0  0  0  0  0  0  0  0  0
    2.7611    1.8271    0.1092 O   0  0  0  0  0  0  0  0  0  0  0  0
   -0.1232    1.8881    1.0832 N   0  0  0  0  0  0  0  0  0  0  0  0
    1.3893    0.2895    1.2666 N   0  0  0  0  0  0  0  0  0  0  0  0
    0.0456    0.5387    0.9012 C   0  0  0  0  0  2  0  0  0  0  0  0
   -1.2181    2.7159    0.6747 C   0  0  0  0  0  0  0  0  0  0  0  0
   -1.2229    3.1980   -0.6568 C   0  0  0  0  0  0  0  0  0  0  0  0
   -0.1576    2.7749   -1.6330 C   0  0  0  0  0  0  0  0  0  0  0  0
   -0.2740    3.2995   -2.5998 H   0  0  0  0  0  0  0  0  0  0  0  0
   -0.2053    1.6820   -1.8257 H   0  0  0  0  0  0  0  0  0  0  0  0
    0.8666    2.9647   -1.2547 H   0  0  0  0  0  0  0  0  0  0  0  0
   -2.2912    4.0231   -1.0554 C   0  0  0  0  0  0  0  0  0  0  0  0
   -2.3148    4.3934   -2.0929 H   0  0  0  0  0  0  0  0  0  0  0  0
   -3.3287    4.3734   -0.1722 C   0  0  0  0  0  0  0  0  0  0  0  0
   -4.4808    5.2369   -0.6219 C   0  0  0  0  0  0  0  0  0  0  0  0
   -4.5777    6.1429    0.0116 H   0  0  0  0  0  0  0  0  0  0  0  0
   -5.4440    4.6901   -0.5448 H   0  0  0  0  0  0  0  0  0  0  0  0
   -4.3609    5.5664   -1.6718 H   0  0  0  0  0  0  0  0  0  0  0  0
   -3.2668    3.8987    1.1520 C   0  0  0  0  0  0  0  0  0  0  0  0
   -4.0627    4.1750    1.8624 H   0  0  0  0  0  0  0  0  0  0  0  0
   -2.2174    3.0804    1.6061 C   0  0  0  0  0  0  0  0  0  0  0  0
   -2.1645    2.5997    3.0304 C   0  0  0  0  0  0  0  0  0  0  0  0
   -3.0395    2.9609    3.6028 H   0  0  0  0  0  0  0  0  0  0  0  0
   -1.2519    2.9639    3.5481 H   0  0  0  0  0  0  0  0  0  0  0  0
   -2.1463    1.4902    3.0757 H   0  0  0  0  0  0  0  0  0  0  0  0
    1.0681    2.5516    1.6199 C   0  0  0  0  0  0  0  0  0  0  0  0
    0.9535    2.7582    2.7061 H   0  0  0  0  0  0  0  0  0  0  0  0
    1.2809    3.5000    1.0911 H   0  0  0  0  0  0  0  0  0  0  0  0
    2.1456    1.5207    1.3655 C   0  0  2  0  0  0  0  0  0  0  0  0
    2.9178    1.4441    2.1573 H   0  0  0  0  0  0  0  0  0  0  0  0
    3.6214    0.8254   -0.4136 C   0  0  0  0  0  0  0  0  0  0  0  0
    5.0701    1.2853   -0.0282 C   0  0  0  0  0  0  0  0  0  0  0  0
    3.3903    0.9136   -1.9565 C   0  0  0  0  0  0  0  0  0  0  0  0
    3.3294   -0.5873    0.0969 C   0  0  0  0  0  0  0  0  0  0  0  0
    4.1591   -1.6649   -0.2587 C   0  0  0  0  0  0  0  0  0  0  0  0
    5.0141   -1.4955   -0.9245 H   0  0  0  0  0  0  0  0  0  0  0  0
    3.9120   -2.9632    0.2162 C   0  0  0  0  0  0  0  0  0  0  0  0
    4.7676   -4.1238   -0.2219 C   0  0  0  0  0  0  0  0  0  0  0  0
    5.7582   -3.7887   -0.5861 H   0  0  0  0  0  0  0  0  0  0  0  0
    4.2811   -4.6788   -1.0526 H   0  0  0  0  0  0  0  0  0  0  0  0
    4.9267   -4.8479    0.6020 H   0  0  0  0  0  0  0  0  0  0  0  0
    2.8435   -3.1484    1.1118 C   0  0  0  0  0  0  0  0  0  0  0  0
    2.6709   -4.1470    1.5453 H   0  0  0  0  0  0  0  0  0  0  0  0
    1.9942   -2.1006    1.4949 C   0  0  0  0  0  0  0  0  0  0  0  0
    0.9001   -2.3167    2.4942 C   0  0  0  0  0  0  0  0  0  0  0  0
    1.0801   -3.2284    3.0952 H   0  0  0  0  0  0  0  0  0  0  0  0
   -0.0916   -2.4589    2.0124 H   0  0  0  0  0  0  0  0  0  0  0  0
    0.7770   -1.4488    3.1697 H   0  0  0  0  0  0  0  0  0  0  0  0
    2.2071   -0.8241    0.9253 C   0  0  0  0  0  0  0  0  0  0  0  0
  1 37  1  0  0  0  0
  2 37  1  0  0  0  0
  4 38  1  0  0  0  0
  5 38  1  0  0  0  0
  6 38  1  0  0  0  0
  7 34  1  0  0  0  0
  8 31  1  0  0  0  0
  9 34  1  0  0  0  0
 10  8  1  0  0  0  0
 10  9  1  0  0  0  0
 11  8  1  0  0  0  0
 11 26  1  0  0  0  0
 12 11  2  0  0  0  0
 13 16  1  0  0  0  0
 13 12  1  0  0  0  0
 14 13  1  0  0  0  0
 15 13  1  0  0  0  0
 17 12  1  0  0  0  0
 17 19  2  0  0  0  0
 18 17  1  0  0  0  0
 19 24  1  0  0  0  0
 20 22  1  0  0  0  0
 20 19  1  0  0  0  0
 20 21  1  0  0  0  0
 23 20  1  0  0  0  0
 24 26  2  0  0  0  0
 24 25  1  0  0  0  0
 26 27  1  0  0  0  0
 27 30  1  0  0  0  0
 27 29  1  0  0  0  0
 27 28  1  0  0  0  0
 31 32  1  0  0  0  0
 33 31  1  0  0  0  0
 34 31  1  0  0  0  0
 34 35  1  1  0  0  0
 36 37  1  0  0  0  0
 36 39  1  0  0  0  0
 36  7  1  0  0  0  0
 37  3  1  0  0  0  0
 38 36  1  0  0  0  0
 39 54  1  0  0  0  0
 40 39  2  0  0  0  0
 40 42  1  0  0  0  0
 41 40  1  0  0  0  0
 42 47  2  0  0  0  0
 43 42  1  0  0  0  0
 43 46  1  0  0  0  0
 44 43  1  0  0  0  0
 45 43  1  0  0  0  0
 47 49  1  0  0  0  0
 47 48  1  0  0  0  0
 49 50  1  0  0  0  0
 50 51  1  0  0  0  0
 50 53  1  0  0  0  0
 52 50  1  0  0  0  0
 54  9  1  0  0  0  0
 54 49  2  0  0  0  0
M  END
