10
q = -1.0, confidence = 0.0

 42 46  0  0  1  0  0  0  0  0999 V2000
   -1.3860    0.6021   -0.2480 P   0  0  0  0  0  0  0  0  0  0  0  0
   -2.3040   -0.6020    0.6416 O   0  0  0  0  0  0  0  0  0  0  0  0
   -0.4962    1.8458   -1.1234 O   0  0  0  0  0  0  0  0  0  0  0  0
   -2.8555    1.0146   -1.0879 N   0  0  0  0  0  0  0  0  0  0  0  0
   -0.8327    1.3365    1.2322 N   0  0  0  0  0  0  0  0  0  0  0  0
   -0.3654   -0.6985   -1.0077 C   0  0  2  0  0  3  0  0  0  0  0  0
    0.9487   -0.5350   -1.5631 C   0  0  0  0  0  0  0  0  0  0  0  0
    1.3934   -1.7917   -2.0574 C   0  0  0  0  0  0  0  0  0  0  0  0
    0.3394   -2.7562   -1.8368 C   0  0  0  0  0  3  0  0  0  0  0  0
   -0.7353   -2.0938   -1.1826 C   0  0  0  0  0  3  0  0  0  0  0  0
   -3.6318   -0.6209    0.3586 C   0  0  0  0  0  0  0  0  0  0  0  0
   -4.5794   -1.4466    0.9610 C   0  0  0  0  0  0  0  0  0  0  0  0
   -5.9193   -1.3365    0.5313 C   0  0  0  0  0  0  0  0  0  0  0  0
   -6.2780   -0.4170   -0.4652 C   0  0  0  0  0  0  0  0  0  0  0  0
   -5.3130    0.4188   -1.0667 C   0  0  0  0  0  0  0  0  0  0  0  0
   -3.9806    0.3046   -0.6487 C   0  0  0  0  0  0  0  0  0  0  0  0
    0.1413    2.7435   -0.3317 C   0  0  0  0  0  0  0  0  0  0  0  0
    0.9113    3.8182   -0.7757 C   0  0  0  0  0  0  0  0  0  0  0  0
    1.5447    4.6241    0.1944 C   0  0  0  0  0  0  0  0  0  0  0  0
    1.3932    4.3499    1.5617 C   0  0  0  0  0  0  0  0  0  0  0  0
    0.6034    3.2675    2.0039 C   0  0  0  0  0  0  0  0  0  0  0  0
   -0.0234    2.4641    1.0424 C   0  0  0  0  0  0  0  0  0  0  0  0
   -3.0385    2.0253   -2.1183 C   0  0  0  0  0  0  0  0  0  0  0  0
   -1.1098    0.9120    2.5970 C   0  0  0  0  0  0  0  0  0  0  0  0
    1.5273    0.3934   -1.5702 H   0  0  0  0  0  0  0  0  0  0  0  0
    2.3701   -1.9866   -2.5161 H   0  0  0  0  0  0  0  0  0  0  0  0
    0.3694   -3.8182   -2.1086 H   0  0  0  0  0  0  0  0  0  0  0  0
   -1.6808   -2.5439   -0.8620 H   0  0  0  0  0  0  0  0  0  0  0  0
   -4.2716   -2.1570    1.7413 H   0  0  0  0  0  0  0  0  0  0  0  0
   -6.6866   -1.9797    0.9867 H   0  0  0  0  0  0  0  0  0  0  0  0
   -7.3271   -0.3409   -0.7872 H   0  0  0  0  0  0  0  0  0  0  0  0
   -5.6041    1.1383   -1.8442 H   0  0  0  0  0  0  0  0  0  0  0  0
    1.0245    4.0064   -1.8526 H   0  0  0  0  0  0  0  0  0  0  0  0
    2.1655    5.4722   -0.1299 H   0  0  0  0  0  0  0  0  0  0  0  0
    1.8976    4.9835    2.3058 H   0  0  0  0  0  0  0  0  0  0  0  0
    0.4930    3.0579    3.0764 H   0  0  0  0  0  0  0  0  0  0  0  0
   -3.6965    2.8447   -1.7560 H   0  0  0  0  0  0  0  0  0  0  0  0
   -3.5142    1.5681   -3.0120 H   0  0  0  0  0  0  0  0  0  0  0  0
   -2.0644    2.4467   -2.4072 H   0  0  0  0  0  0  0  0  0  0  0  0
   -1.6256    1.7219    3.1555 H   0  0  0  0  0  0  0  0  0  0  0  0
   -1.7419    0.0125    2.5924 H   0  0  0  0  0  0  0  0  0  0  0  0
   -0.1594    0.6730    3.1208 H   0  0  0  0  0  0  0  0  0  0  0  0
  1  2  1  0  0  0  0
  1  5  1  0  0  0  0
  3 17  1  0  0  0  0
  3  1  1  0  0  0  0
  4 16  1  0  0  0  0
  4  1  1  0  0  0  0
  5 24  1  0  0  0  0
  6  7  1  6  0  0  0
  6  1  1  0  0  0  0
  8  9  1  0  0  0  0
  8  7  2  0  0  0  0
  9 10  1  0  0  0  0
 10  6  1  0  0  0  0
 10 28  1  0  0  0  0
 11  2  1  0  0  0  0
 11 12  1  0  0  0  0
 12 29  1  0  0  0  0
 13 12  2  0  0  0  0
 13 30  1  0  0  0  0
 14 13  1  0  0  0  0
 15 16  1  0  0  0  0
 15 14  2  0  0  0  0
 16 11  2  0  0  0  0
 17 22  1  0  0  0  0
 18 17  2  0  0  0  0
 18 19  1  0  0  0  0
 19 20  2  0  0  0  0
 20 21  1  0  0  0  0
 20 35  1  0  0  0  0
 21 36  1  0  0  0  0
 22  5  1  0  0  0  0
 22 21  2  0  0  0  0
 23 37  1  0  0  0  0
 23  4  1  0  0  0  0
 24 42  1  0  0  0  0
 24 40  1  0  0  0  0
 25  7  1  0  0  0  0
 26  8  1  0  0  0  0
 27  9  1  0  0  0  0
 31 14  1  0  0  0  0
 32 15  1  0  0  0  0
 33 18  1  0  0  0  0
 34 19  1  0  0  0  0
 38 23  1  0  0  0  0
 39 23  1  0  0  0  0
 41 24  1  0  0  0  0
M  END
