6
q = nan, confidence = 0.0

 62 64  0  0  1  0  0  0  0  0999 V2000
    0.1509    2.9320   -0.6267 Si  0  0  0  0  0  0  0  0  0  0  0  0
   -0.1779   -2.9266   -0.4821 Si  0  0  0  0  0  0  0  0  0  0  0  0
   -2.3189   -0.0365   -0.5879 N   0  0  0  0  0  0  0  0  0  0  0  0
    2.4151   -0.1016   -0.6220 N   0  0  0  0  0  0  0  0  0  0  0  0
    0.1204    1.0736   -0.2907 C   0  0  1  0  0  3  0  0  0  0  0  0
   -0.9676    0.0297   -0.2246 C   0  0  2  0  0  3  0  0  0  0  0  0
    0.0403   -1.0621   -0.2643 C   0  0  0  0  0  0  0  0  0  0  0  0
    1.0781   -0.0348   -0.3882 C   0  0  0  0  0  0  0  0  0  0  0  0
   -1.5951    3.6496   -0.5310 C   0  0  0  0  0  0  0  0  0  0  0  0
    0.7912    3.1894   -2.3972 C   0  0  0  0  0  0  0  0  0  0  0  0
    1.2001    3.9066    0.6169 C   0  0  0  0  0  0  0  0  0  0  0  0
   -2.0061   -3.3599   -0.2934 C   0  0  0  0  0  0  0  0  0  0  0  0
    0.3706   -3.3921   -2.2417 C   0  0  0  0  0  0  0  0  0  0  0  0
    0.7948   -3.9282    0.7991 C   0  0  0  0  0  0  0  0  0  0  0  0
   -3.3389    0.6005    0.2415 C   0  0  0  0  0  0  0  0  0  0  0  0
   -4.7254    0.0457   -0.0944 C   0  0  0  0  0  0  0  0  0  0  0  0
   -5.0305    0.2092   -1.5873 C   0  0  0  0  0  0  0  0  0  0  0  0
   -3.9300   -0.4492   -2.4254 C   0  0  0  0  0  0  0  0  0  0  0  0
   -2.5468    0.0747   -2.0299 C   0  0  0  0  0  0  0  0  0  0  0  0
    3.2509    1.0803   -0.4300 C   0  0  0  0  0  0  0  0  0  0  0  0
    4.4783    1.0470   -1.3425 C   0  0  0  0  0  0  0  0  0  0  0  0
    5.2625   -0.2575   -1.1656 C   0  0  0  0  0  0  0  0  0  0  0  0
    4.3356   -1.4605   -1.3700 C   0  0  0  0  0  0  0  0  0  0  0  0
    3.1124   -1.3748   -0.4555 C   0  0  0  0  0  0  0  0  0  0  0  0
   -2.2792    3.1946   -1.2738 H   0  0  0  0  0  0  0  0  0  0  0  0
   -1.5421    4.7384   -0.7403 H   0  0  0  0  0  0  0  0  0  0  0  0
   -2.0325    3.5202    0.4785 H   0  0  0  0  0  0  0  0  0  0  0  0
    1.8273    2.8228   -2.5434 H   0  0  0  0  0  0  0  0  0  0  0  0
    0.7738    4.2671   -2.6616 H   0  0  0  0  0  0  0  0  0  0  0  0
    0.1415    2.6512   -3.1180 H   0  0  0  0  0  0  0  0  0  0  0  0
    2.2456    3.5555    0.7091 H   0  0  0  0  0  0  0  0  0  0  0  0
    0.7355    3.8497    1.6214 H   0  0  0  0  0  0  0  0  0  0  0  0
    1.2268    4.9747    0.3152 H   0  0  0  0  0  0  0  0  0  0  0  0
   -2.3771   -3.1109    0.7195 H   0  0  0  0  0  0  0  0  0  0  0  0
   -2.1414   -4.4501   -0.4527 H   0  0  0  0  0  0  0  0  0  0  0  0
   -2.6295   -2.8131   -1.0257 H   0  0  0  0  0  0  0  0  0  0  0  0
    1.4438   -3.1866   -2.4311 H   0  0  0  0  0  0  0  0  0  0  0  0
   -0.2166   -2.8232   -2.9920 H   0  0  0  0  0  0  0  0  0  0  0  0
    0.1977   -4.4730   -2.4252 H   0  0  0  0  0  0  0  0  0  0  0  0
    1.8807   -3.7131    0.8082 H   0  0  0  0  0  0  0  0  0  0  0  0
    0.6649   -5.0124    0.5991 H   0  0  0  0  0  0  0  0  0  0  0  0
    0.4000   -3.7204    1.8137 H   0  0  0  0  0  0  0  0  0  0  0  0
   -3.0811    0.4026    1.2993 H   0  0  0  0  0  0  0  0  0  0  0  0
   -3.3556    1.7116    0.1122 H   0  0  0  0  0  0  0  0  0  0  0  0
   -5.4868    0.5640    0.5249 H   0  0  0  0  0  0  0  0  0  0  0  0
   -4.7572   -1.0318    0.1774 H   0  0  0  0  0  0  0  0  0  0  0  0
   -5.0806    1.2944   -1.8337 H   0  0  0  0  0  0  0  0  0  0  0  0
   -6.0235   -0.2175   -1.8396 H   0  0  0  0  0  0  0  0  0  0  0  0
   -3.9577   -1.5497   -2.2702 H   0  0  0  0  0  0  0  0  0  0  0  0
   -4.0923   -0.2714   -3.5091 H   0  0  0  0  0  0  0  0  0  0  0  0
   -2.4429    1.1392   -2.3749 H   0  0  0  0  0  0  0  0  0  0  0  0
   -1.7504   -0.5002   -2.5471 H   0  0  0  0  0  0  0  0  0  0  0  0
    2.6402    1.9746   -0.6374 H   0  0  0  0  0  0  0  0  0  0  0  0
    3.5671    1.1427    0.6406 H   0  0  0  0  0  0  0  0  0  0  0  0
    4.1418    1.1413   -2.3982 H   0  0  0  0  0  0  0  0  0  0  0  0
    5.1150    1.9288   -1.1239 H   0  0  0  0  0  0  0  0  0  0  0  0
    6.1208   -0.2985   -1.8670 H   0  0  0  0  0  0  0  0  0  0  0  0
    5.6892   -0.2929   -0.1383 H   0  0  0  0  0  0  0  0  0  0  0  0
    4.8682   -2.4133   -1.1724 H   0  0  0  0  0  0  0  0  0  0  0  0
    3.9908   -1.4923   -2.4267 H   0  0  0  0  0  0  0  0  0  0  0  0
    3.4198   -1.4956    0.6123 H   0  0  0  0  0  0  0  0  0  0  0  0
    2.4040   -2.1895   -0.6824 H   0  0  0  0  0  0  0  0  0  0  0  0
  1  9  1  0  0  0  0
  1 11  1  0  0  0  0
  2 12  1  0  0  0  0
  2  7  1  0  0  0  0
  2 14  1  0  0  0  0
  3 15  1  0  0  0  0
  4 24  1  0  0  0  0
  4 20  1  0  0  0  0
  4  8  1  0  0  0  0
  5  1  1  6  0  0  0
  5  6  1  0  0  0  0
  6  3  1  6  0  0  0
  7  6  1  0  0  0  0
  8  5  1  0  0  0  0
  8  7  2  0  0  0  0
  9 27  1  0  0  0  0
 10  1  1  0  0  0  0
 11 31  1  0  0  0  0
 11 32  1  0  0  0  0
 12 34  1  0  0  0  0
 13  2  1  0  0  0  0
 14 40  1  0  0  0  0
 14 42  1  0  0  0  0
 15 43  1  0  0  0  0
 16 46  1  0  0  0  0
 16 15  1  0  0  0  0
 16 45  1  0  0  0  0
 17 16  1  0  0  0  0
 18 49  1  0  0  0  0
 18 19  1  0  0  0  0
 18 17  1  0  0  0  0
 19  3  1  0  0  0  0
 20 54  1  0  0  0  0
 21 22  1  0  0  0  0
 21 56  1  0  0  0  0
 21 20  1  0  0  0  0
 22 58  1  0  0  0  0
 23 59  1  0  0  0  0
 23 22  1  0  0  0  0
 23 24  1  0  0  0  0
 24 61  1  0  0  0  0
 25  9  1  0  0  0  0
 26  9  1  0  0  0  0
 28 10  1  0  0  0  0
 29 10  1  0  0  0  0
 30 10  1  0  0  0  0
 33 11  1  0  0  0  0
 35 12  1  0  0  0  0
 36 12  1  0  0  0  0
 37 13  1  0  0  0  0
 38 13  1  0  0  0  0
 39 13  1  0  0  0  0
 41 14  1  0  0  0  0
 44 15  1  0  0  0  0
 47 17  1  0  0  0  0
 48 17  1  0  0  0  0
 50 18  1  0  0  0  0
 51 19  1  0  0  0  0
 52 19  1  0  0  0  0
 53 20  1  0  0  0  0
 55 21  1  0  0  0  0
 57 22  1  0  0  0  0
 60 23  1  0  0  0  0
 62 24  1  0  0  0  0
M  END
