6
q = -1.0, confidence = 0.02

  9  9  0  0  0  0  0  0  0  0999 V2000
    1.6230    2.3568   -0.6754 F   0  0  0  0  0  0  0  0  0  0  0  0
    3.4871   -0.1923   -1.3069 F   0  0  0  0  0  0  0  0  0  0  0  0
    3.6471    0.3601    0.8092 F   0  0  0  0  0  0  0  0  0  0  0  0
    1.5465   -1.9884   -0.6892 F   0  0  0  0  0  0  0  0  0  0  0  0
    1.6763   -1.4179    1.4241 F   0  0  0  0  0  0  0  0  0  0  0  0
    0.6092    0.1934   -0.0683 C   0  0  0  0  0  0  0  0  0  0  0  0
    1.6133    1.0676   -0.3570 C   0  0  0  0  0  0  0  0  0  0  0  0
    2.7607    0.1108   -0.1935 C   0  0  0  0  0  0  0  0  0  0  0  0
    1.6253   -0.9094    0.1600 C   0  0  0  0  0  0  0  0  0  0  0  0
  1  7  1  0  0  0  0
  2  8  1  0  0  0  0
  4  9  1  0  0  0  0
  6  9  1  0  0  0  0
  7  8  1  0  0  0  0
  7  6  2  0  0  0  0
  8  9  1  0  0  0  0
  8  3  1  0  0  0  0
  9  5  1  0  0  0  0
M  END
