1
q = 0.0, confidence = 0.924

 33 36  0  0  1  0  0  0  0  0999 V2000
    1.2160   -2.1307    0.0944 C   0  0  2  0  0  3  0  0  0  0  0  0
   -0.0096   -2.4110   -0.6293 C   0  0  0  0  0  0  0  0  0  0  0  0
   -0.2073   -2.1175   -1.6667 H   0  0  0  0  0  0  0  0  0  0  0  0
   -0.9684   -2.9470    0.2668 C   0  0  0  0  0  0  0  0  0  0  0  0
   -1.9953   -3.2382    0.0172 H   0  0  0  0  0  0  0  0  0  0  0  0
   -0.3617   -3.0629    1.5493 C   0  0  0  0  0  0  0  0  0  0  0  0
   -0.8450   -3.4389    2.4595 H   0  0  0  0  0  0  0  0  0  0  0  0
    0.9788   -2.6155    1.4416 C   0  0  0  0  0  0  0  0  0  0  0  0
    1.6702   -2.5018    2.2839 H   0  0  0  0  0  0  0  0  0  0  0  0
    1.8968   -0.8532   -0.1046 C   0  0  2  0  0  3  0  0  0  0  0  0
    2.1397   -0.3603   -1.5344 C   0  0  2  0  0  0  0  0  0  0  0  0
    1.2484   -0.5477   -2.1695 H   0  0  0  0  0  0  0  0  0  0  0  0
    3.3551   -1.1303   -2.1110 C   0  0  0  0  0  0  0  0  0  0  0  0
    3.1311   -2.2176   -2.1328 H   0  0  0  0  0  0  0  0  0  0  0  0
    3.5461   -0.8106   -3.1592 H   0  0  0  0  0  0  0  0  0  0  0  0
    4.5987   -0.8572   -1.2409 C   0  0  2  0  0  0  0  0  0  0  0  0
    5.4670   -1.4157   -1.6522 H   0  0  0  0  0  0  0  0  0  0  0  0
    4.3305   -1.3140    0.2065 C   0  0  0  0  0  0  0  0  0  0  0  0
    5.2278   -1.1285    0.8369 H   0  0  0  0  0  0  0  0  0  0  0  0
    4.1277   -2.4054    0.2359 H   0  0  0  0  0  0  0  0  0  0  0  0
    3.1144   -0.5419    0.7758 C   0  0  1  0  0  0  0  0  0  0  0  0
    2.9269   -0.8540    1.8222 H   0  0  0  0  0  0  0  0  0  0  0  0
    3.4195    0.9678    0.7619 C   0  0  0  0  0  0  0  0  0  0  0  0
    2.5595    1.5226    1.1937 H   0  0  0  0  0  0  0  0  0  0  0  0
    4.2979    1.1764    1.4100 H   0  0  0  0  0  0  0  0  0  0  0  0
    3.7020    1.4296   -0.6786 C   0  0  1  0  0  0  0  0  0  0  0  0
    3.9206    2.5193   -0.6879 H   0  0  0  0  0  0  0  0  0  0  0  0
    4.9068    0.6539   -1.2465 C   0  0  0  0  0  0  0  0  0  0  0  0
    5.1262    0.9954   -2.2815 H   0  0  0  0  0  0  0  0  0  0  0  0
    5.8148    0.8598   -0.6392 H   0  0  0  0  0  0  0  0  0  0  0  0
    2.4599    1.1476   -1.5408 C   0  0  0  0  0  0  0  0  0  0  0  0
    1.5980    1.7189   -1.1462 H   0  0  0  0  0  0  0  0  0  0  0  0
    2.6279    1.4913   -2.5846 H   0  0  0  0  0  0  0  0  0  0  0  0
  1  2  1  1  0  0  0
  1  8  1  0  0  0  0
  2  4  2  0  0  0  0
  3  2  1  0  0  0  0
  4  6  1  0  0  0  0
  5  4  1  0  0  0  0
  6  7  1  0  0  0  0
  8  6  2  0  0  0  0
  8  9  1  0  0  0  0
 10  1  1  6  0  0  0
 10 21  1  0  0  0  0
 11 12  1  6  0  0  0
 11 10  1  0  0  0  0
 13 11  1  0  0  0  0
 13 16  1  0  0  0  0
 14 13  1  0  0  0  0
 15 13  1  0  0  0  0
 16 17  1  6  0  0  0
 16 18  1  0  0  0  0
 18 20  1  0  0  0  0
 18 21  1  0  0  0  0
 18 19  1  0  0  0  0
 21 22  1  1  0  0  0
 23 21  1  0  0  0  0
 23 24  1  0  0  0  0
 23 25  1  0  0  0  0
 26 27  1  6  0  0  0
 26 23  1  0  0  0  0
 28 16  1  0  0  0  0
 28 26  1  0  0  0  0
 28 30  1  0  0  0  0
 29 28  1  0  0  0  0
 31 11  1  0  0  0  0
 31 32  1  0  0  0  0
 31 26  1  0  0  0  0
 33 31  1  0  0  0  0
M  END
