25
q = 0.0, confidence = 0.994

 56 59  0  0  1  0  0  0  0  0999 V2000
    4.7571    0.7805    0.2894 C   0  0  0  0  0  0  0  0  0  0  0  0
    5.9741    1.3512   -0.1178 C   0  0  0  0  0  0  0  0  0  0  0  0
    6.1787    2.4236    0.0200 H   0  0  0  0  0  0  0  0  0  0  0  0
    6.9187    0.5043   -0.7096 C   0  0  0  0  0  0  0  0  0  0  0  0
    7.8818    0.9206   -1.0408 H   0  0  0  0  0  0  0  0  0  0  0  0
    6.6579   -0.8760   -0.8915 C   0  0  0  0  0  0  0  0  0  0  0  0
    7.4241   -1.5096   -1.3627 H   0  0  0  0  0  0  0  0  0  0  0  0
    5.4470   -1.4433   -0.4835 C   0  0  0  0  0  0  0  0  0  0  0  0
    5.2527   -2.5166   -0.6303 H   0  0  0  0  0  0  0  0  0  0  0  0
    4.4738   -0.6169    0.1204 C   0  0  0  0  0  0  0  0  0  0  0  0
    3.1514   -0.8438    0.6494 C   0  0  0  0  0  0  0  0  0  0  0  0
    2.3185   -2.0919    0.6969 C   0  0  0  0  0  0  0  0  0  0  0  0
    2.9064   -2.9582    1.0666 H   0  0  0  0  0  0  0  0  0  0  0  0
    1.9650   -2.3640   -0.3226 H   0  0  0  0  0  0  0  0  0  0  0  0
    1.0969   -1.8811    1.6110 C   0  0  0  0  0  0  0  0  0  0  0  0
    0.3109   -2.6393    1.4342 H   0  0  0  0  0  0  0  0  0  0  0  0
    1.4007   -1.9151    2.6788 H   0  0  0  0  0  0  0  0  0  0  0  0
    2.6856    0.3857    1.0956 C   0  0  0  0  0  0  0  0  0  0  0  0
    1.3347    0.6156    1.7072 C   0  0  1  0  0  0  0  0  0  0  0  0
    1.4238    0.6535    2.8183 H   0  0  0  0  0  0  0  0  0  0  0  0
    0.4991    1.8031    1.1846 C   0  0  0  0  0  0  0  0  0  0  0  0
    1.1169    2.5076    0.5959 H   0  0  0  0  0  0  0  0  0  0  0  0
    0.0725    2.3650    2.0390 H   0  0  0  0  0  0  0  0  0  0  0  0
   -0.6534    1.1612    0.3536 C   0  0  1  0  0  0  0  0  0  0  0  0
   -0.5746   -0.3072    0.6366 C   0  0  0  0  0  2  0  0  0  0  0  0
   -1.9238    1.0422   -2.5576 C   0  0  0  0  0  0  0  0  0  0  0  0
   -2.6513    1.8577   -2.3818 H   0  0  0  0  0  0  0  0  0  0  0  0
   -2.3968    0.0752   -2.2890 H   0  0  0  0  0  0  0  0  0  0  0  0
   -1.6915    1.0160   -3.6425 H   0  0  0  0  0  0  0  0  0  0  0  0
    0.3959    3.0180   -1.9650 C   0  0  0  0  0  0  0  0  0  0  0  0
    0.4849    3.1259   -3.0663 H   0  0  0  0  0  0  0  0  0  0  0  0
    1.4136    3.1458   -1.5426 H   0  0  0  0  0  0  0  0  0  0  0  0
   -0.2525    3.8355   -1.5948 H   0  0  0  0  0  0  0  0  0  0  0  0
    0.9492    0.0090   -2.1226 C   0  0  0  0  0  0  0  0  0  0  0  0
    0.5338   -1.0134   -2.0178 H   0  0  0  0  0  0  0  0  0  0  0  0
    1.8861    0.0723   -1.5336 H   0  0  0  0  0  0  0  0  0  0  0  0
    1.2069    0.1655   -3.1906 H   0  0  0  0  0  0  0  0  0  0  0  0
   -2.6847    2.3551    3.1148 C   0  0  0  0  0  0  0  0  0  0  0  0
   -2.7522    3.4329    2.8952 H   0  0  0  0  0  0  0  0  0  0  0  0
   -2.9046    2.0363    4.1454 H   0  0  0  0  0  0  0  0  0  0  0  0
   -2.3834    1.4579    2.1605 C   0  0  0  0  0  0  0  0  0  0  0  0
   -2.3528    0.3821    2.4156 H   0  0  0  0  0  0  0  0  0  0  0  0
   -2.0680    1.7538    0.7068 C   0  0  1  0  0  0  0  0  0  0  0  0
   -2.8058    1.1816    0.1006 H   0  0  0  0  0  0  0  0  0  0  0  0
   -2.1681    3.2158    0.3629 C   0  0  0  0  0  0  0  0  0  0  0  0
   -1.3719    3.8720    0.7630 H   0  0  0  0  0  0  0  0  0  0  0  0
   -3.1582    3.7751   -0.3593 C   0  0  0  0  0  0  0  0  0  0  0  0
   -3.9614    3.1166   -0.7407 H   0  0  0  0  0  0  0  0  0  0  0  0
   -3.2694    5.2293   -0.6991 C   0  0  0  0  0  0  0  0  0  0  0  0
   -2.4313    5.8181   -0.2753 H   0  0  0  0  0  0  0  0  0  0  0  0
   -4.2208    5.6609   -0.3202 H   0  0  0  0  0  0  0  0  0  0  0  0
   -3.2784    5.3848   -1.7998 H   0  0  0  0  0  0  0  0  0  0  0  0
    3.6473    1.3587    0.8857 N   0  0  0  0  0  0  0  0  0  0  0  0
    3.5621    2.3400    1.1433 H   0  0  0  0  0  0  0  0  0  0  0  0
    0.5097   -0.5660    1.3571 N   0  0  1  0  0  0  0  0  0  0  0  0
   -0.3232    1.3022   -1.5974 Si  0  0  0  0  0  0  0  0  0  0  0  0
  1 53  1  0  0  0  0
  2  3  1  0  0  0  0
  2  1  2  0  0  0  0
  4  2  1  0  0  0  0
  5  4  1  0  0  0  0
  6  4  2  0  0  0  0
  6  8  1  0  0  0  0
  7  6  1  0  0  0  0
  8 10  2  0  0  0  0
  9  8  1  0  0  0  0
 10  1  1  0  0  0  0
 10 11  1  0  0  0  0
 11 12  1  0  0  0  0
 11 18  2  0  0  0  0
 12 13  1  0  0  0  0
 12 15  1  0  0  0  0
 14 12  1  0  0  0  0
 15 17  1  0  0  0  0
 16 15  1  0  0  0  0
 18 19  1  0  0  0  0
 19 20  1  1  0  0  0
 21 19  1  0  0  0  0
 21 23  1  0  0  0  0
 22 21  1  0  0  0  0
 24 56  1  6  0  0  0
 24 25  1  0  0  0  0
 24 43  1  0  0  0  0
 24 21  1  0  0  0  0
 26 27  1  0  0  0  0
 26 28  1  0  0  0  0
 26 56  1  0  0  0  0
 29 26  1  0  0  0  0
 30 56  1  0  0  0  0
 30 33  1  0  0  0  0
 30 32  1  0  0  0  0
 31 30  1  0  0  0  0
 34 35  1  0  0  0  0
 34 56  1  0  0  0  0
 34 36  1  0  0  0  0
 37 34  1  0  0  0  0
 38 40  1  0  0  0  0
 39 38  1  0  0  0  0
 41 42  1  0  0  0  0
 41 38  2  0  0  0  0
 43 44  1  6  0  0  0
 43 41  1  0  0  0  0
 45 43  1  0  0  0  0
 45 46  1  0  0  0  0
 47 45  2  0  0  0  0
 48 47  1  0  0  0  0
 49 47  1  0  0  0  0
 49 51  1  0  0  0  0
 49 50  1  0  0  0  0
 52 49  1  0  0  0  0
 53 18  1  0  0  0  0
 53 54  1  0  0  0  0
 55 25  1  6  0  0  0
 55 15  1  0  0  0  0
 55 19  1  0  0  0  0
M  END
