3
q = 0.0, confidence = 0.896

 20 20  0  0  0  0  0  0  0  0999 V2000
   -2.0594   -0.8466    0.6293 C   0  0  0  0  0  3  0  0  0  0  0  0
   -2.0893    0.3975    1.3625 C   0  0  0  0  0  3  0  0  0  0  0  0
   -2.5973    1.5942    0.7841 C   0  0  0  0  0  3  0  0  0  0  0  0
   -3.1827    1.5588   -0.5360 C   0  0  0  0  0  3  0  0  0  0  0  0
   -4.4543    0.7935   -0.9111 C   0  0  0  0  0  0  0  0  0  0  0  0
   -5.1517    0.0477    0.2388 C   0  0  0  0  0  0  0  0  0  0  0  0
   -4.6124   -1.3658    0.5508 C   0  0  0  0  0  0  0  0  0  0  0  0
   -3.2055   -1.6566    0.0172 C   0  0  0  0  0  0  0  0  0  0  0  0
   -1.3171   -1.5283    1.0858 H   0  0  0  0  0  0  0  0  0  0  0  0
   -1.5075    0.4886    2.2954 H   0  0  0  0  0  0  0  0  0  0  0  0
   -2.3895    2.5475    1.3001 H   0  0  0  0  0  0  0  0  0  0  0  0
   -3.1584    2.5423   -1.0366 H   0  0  0  0  0  0  0  0  0  0  0  0
   -5.1615    1.5630   -1.2890 H   0  0  0  0  0  0  0  0  0  0  0  0
   -4.2952    0.1203   -1.7807 H   0  0  0  0  0  0  0  0  0  0  0  0
   -6.2322   -0.0326   -0.0024 H   0  0  0  0  0  0  0  0  0  0  0  0
   -5.0961    0.6878    1.1435 H   0  0  0  0  0  0  0  0  0  0  0  0
   -4.6374   -1.5456    1.6466 H   0  0  0  0  0  0  0  0  0  0  0  0
   -5.2919   -2.1230    0.1036 H   0  0  0  0  0  0  0  0  0  0  0  0
   -2.9825   -2.7276    0.2092 H   0  0  0  0  0  0  0  0  0  0  0  0
   -3.2252   -1.5703   -1.0879 H   0  0  0  0  0  0  0  0  0  0  0  0
  1  9  1  0  0  0  0
  1  2  1  0  0  0  0
  2 10  1  0  0  0  0
  3 11  1  0  0  0  0
  3  2  1  0  0  0  0
  4  3  1  0  0  0  0
  5  4  1  0  0  0  0
  5  6  1  0  0  0  0
  6  7  1  0  0  0  0
  6 16  1  0  0  0  0
  7 17  1  0  0  0  0
  8 19  1  0  0  0  0
  8  7  1  0  0  0  0
  8  1  1  0  0  0  0
 12  4  1  0  0  0  0
 13  5  1  0  0  0  0
 14  5  1  0  0  0  0
 15  6  1  0  0  0  0
 18  7  1  0  0  0  0
 20  8  1  0  0  0  0
M  END
