3
q = 0.0, confidence = 0.996

 63 69  0  0  0  0  0  0  0  0999 V2000
    1.0839    0.7608   -0.4368 N   0  0  0  0  0  0  0  0  0  0  0  0
   -1.0838    0.7608   -0.4368 N   0  0  0  0  0  0  0  0  0  0  0  0
    0.0000    0.0195   -0.8326 C   0  0  0  0  0  2  0  0  0  0  0  0
    0.6843    1.9139    0.2293 C   0  0  0  0  0  0  0  0  0  0  0  0
    1.3969    2.6383    0.6302 H   0  0  0  0  0  0  0  0  0  0  0  0
   -0.6843    1.9140    0.2293 C   0  0  0  0  0  0  0  0  0  0  0  0
   -1.3968    2.6384    0.6301 H   0  0  0  0  0  0  0  0  0  0  0  0
   -2.5035    0.3039   -0.5295 C   0  0  0  0  0  0  0  0  0  0  0  0
   -3.4447    1.4901   -0.3139 C   0  0  0  0  0  0  0  0  0  0  0  0
   -3.6100    2.6249   -1.1113 C   0  0  0  0  0  0  0  0  0  0  0  0
   -3.0051    2.7671   -2.0202 H   0  0  0  0  0  0  0  0  0  0  0  0
   -4.5613    3.5901   -0.7285 C   0  0  0  0  0  0  0  0  0  0  0  0
   -4.7045    4.4907   -1.3442 H   0  0  0  0  0  0  0  0  0  0  0  0
   -5.3328    3.4083    0.4339 C   0  0  0  0  0  0  0  0  0  0  0  0
   -6.0742    4.1704    0.7183 H   0  0  0  0  0  0  0  0  0  0  0  0
   -5.1719    2.2636    1.2327 C   0  0  0  0  0  0  0  0  0  0  0  0
   -5.7839    2.1240    2.1367 H   0  0  0  0  0  0  0  0  0  0  0  0
   -4.2218    1.3011    0.8549 C   0  0  0  0  0  0  0  0  0  0  0  0
   -3.8477    0.0158    1.4671 C   0  0  0  0  0  0  0  0  0  0  0  0
   -4.3283   -0.6303    2.6166 C   0  0  0  0  0  0  0  0  0  0  0  0
   -5.1045   -0.1641    3.2425 H   0  0  0  0  0  0  0  0  0  0  0  0
   -3.8048   -1.8910    2.9496 C   0  0  0  0  0  0  0  0  0  0  0  0
   -4.1702   -2.4122    3.8475 H   0  0  0  0  0  0  0  0  0  0  0  0
   -2.8291   -2.5003    2.1401 C   0  0  0  0  0  0  0  0  0  0  0  0
   -2.4416   -3.4958    2.4038 H   0  0  0  0  0  0  0  0  0  0  0  0
   -2.3454   -1.8570    0.9847 C   0  0  0  0  0  0  0  0  0  0  0  0
   -1.5985   -2.3556    0.3414 H   0  0  0  0  0  0  0  0  0  0  0  0
   -2.8505   -0.5940    0.6674 C   0  0  0  0  0  0  0  0  0  0  0  0
   -2.7648   -0.3922   -1.8856 C   0  0  0  0  0  0  0  0  0  0  0  0
   -2.4458    0.3003   -2.6937 H   0  0  0  0  0  0  0  0  0  0  0  0
   -2.0894   -1.2777   -1.9502 H   0  0  0  0  0  0  0  0  0  0  0  0
   -4.2108   -0.8379   -2.0827 C   0  0  0  0  0  0  0  0  0  0  0  0
   -4.3177   -1.3624   -3.0522 H   0  0  0  0  0  0  0  0  0  0  0  0
   -4.9134    0.0196   -2.0783 H   0  0  0  0  0  0  0  0  0  0  0  0
   -4.5264   -1.5402   -1.2854 H   0  0  0  0  0  0  0  0  0  0  0  0
    2.5036    0.3038   -0.5295 C   0  0  0  0  0  0  0  0  0  0  0  0
    2.8505   -0.5940    0.6675 C   0  0  0  0  0  0  0  0  0  0  0  0
    2.3453   -1.8569    0.9850 C   0  0  0  0  0  0  0  0  0  0  0  0
    1.5983   -2.3555    0.3417 H   0  0  0  0  0  0  0  0  0  0  0  0
    2.8289   -2.5001    2.1404 C   0  0  0  0  0  0  0  0  0  0  0  0
    2.4413   -3.4955    2.4043 H   0  0  0  0  0  0  0  0  0  0  0  0
    3.8047   -1.8908    2.9499 C   0  0  0  0  0  0  0  0  0  0  0  0
    4.1700   -2.4119    3.8478 H   0  0  0  0  0  0  0  0  0  0  0  0
    4.3283   -0.6301    2.6168 C   0  0  0  0  0  0  0  0  0  0  0  0
    5.1044   -0.1639    3.2426 H   0  0  0  0  0  0  0  0  0  0  0  0
    3.8478    0.0159    1.4671 C   0  0  0  0  0  0  0  0  0  0  0  0
    4.2218    1.3011    0.8548 C   0  0  0  0  0  0  0  0  0  0  0  0
    5.1720    2.2635    1.2326 C   0  0  0  0  0  0  0  0  0  0  0  0
    5.7840    2.1240    2.1365 H   0  0  0  0  0  0  0  0  0  0  0  0
    5.3330    3.4082    0.4336 C   0  0  0  0  0  0  0  0  0  0  0  0
    6.0744    4.1702    0.7179 H   0  0  0  0  0  0  0  0  0  0  0  0
    4.5614    3.5899   -0.7288 C   0  0  0  0  0  0  0  0  0  0  0  0
    4.7047    4.4904   -1.3446 H   0  0  0  0  0  0  0  0  0  0  0  0
    3.6102    2.6247   -1.1115 C   0  0  0  0  0  0  0  0  0  0  0  0
    3.0052    2.7669   -2.0204 H   0  0  0  0  0  0  0  0  0  0  0  0
    3.4448    1.4900   -0.3140 C   0  0  0  0  0  0  0  0  0  0  0  0
    2.7648   -0.3925   -1.8855 C   0  0  0  0  0  0  0  0  0  0  0  0
    2.0892   -1.2778   -1.9500 H   0  0  0  0  0  0  0  0  0  0  0  0
    2.4459    0.3000   -2.6936 H   0  0  0  0  0  0  0  0  0  0  0  0
    4.2107   -0.8385   -2.0825 C   0  0  0  0  0  0  0  0  0  0  0  0
    4.3175   -1.3630   -3.0519 H   0  0  0  0  0  0  0  0  0  0  0  0
    4.5261   -1.5407   -1.2851 H   0  0  0  0  0  0  0  0  0  0  0  0
    4.9135    0.0189   -2.0780 H   0  0  0  0  0  0  0  0  0  0  0  0
  1  4  1  0  0  0  0
  2  6  1  0  0  0  0
  3  2  1  0  0  0  0
  3  1  1  0  0  0  0
  4  5  1  0  0  0  0
  6  4  2  0  0  0  0
  6  7  1  0  0  0  0
  8  2  1  0  0  0  0
  8  9  1  0  0  0  0
  8 28  1  0  0  0  0
  9 18  1  0  0  0  0
 10 12  1  0  0  0  0
 10  9  2  0  0  0  0
 11 10  1  0  0  0  0
 12 14  2  0  0  0  0
 13 12  1  0  0  0  0
 14 15  1  0  0  0  0
 14 16  1  0  0  0  0
 16 17  1  0  0  0  0
 18 16  2  0  0  0  0
 18 19  1  0  0  0  0
 19 20  1  0  0  0  0
 20 22  2  0  0  0  0
 20 21  1  0  0  0  0
 22 23  1  0  0  0  0
 24 25  1  0  0  0  0
 24 22  1  0  0  0  0
 26 24  2  0  0  0  0
 27 26  1  0  0  0  0
 28 26  1  0  0  0  0
 28 19  2  0  0  0  0
 29  8  1  0  0  0  0
 30 29  1  0  0  0  0
 31 29  1  0  0  0  0
 32 34  1  0  0  0  0
 32 29  1  0  0  0  0
 32 35  1  0  0  0  0
 33 32  1  0  0  0  0
 36  1  1  0  0  0  0
 36 56  1  0  0  0  0
 36 37  1  0  0  0  0
 37 38  2  0  0  0  0
 37 46  1  0  0  0  0
 38 40  1  0  0  0  0
 39 38  1  0  0  0  0
 40 41  1  0  0  0  0
 40 42  2  0  0  0  0
 42 43  1  0  0  0  0
 44 42  1  0  0  0  0
 44 45  1  0  0  0  0
 46 44  2  0  0  0  0
 47 48  1  0  0  0  0
 47 46  1  0  0  0  0
 48 49  1  0  0  0  0
 50 51  1  0  0  0  0
 50 48  2  0  0  0  0
 52 50  1  0  0  0  0
 53 52  1  0  0  0  0
 54 52  2  0  0  0  0
 54 56  1  0  0  0  0
 55 54  1  0  0  0  0
 56 47  2  0  0  0  0
 57 36  1  0  0  0  0
 58 57  1  0  0  0  0
 59 57  1  0  0  0  0
 60 63  1  0  0  0  0
 60 57  1  0  0  0  0
 60 62  1  0  0  0  0
 61 60  1  0  0  0  0
M  END
