12
q = 0.0, confidence = 0.968

 38 40  0  0  1  0  0  0  0  0999 V2000
   -4.3864   -0.0290    0.9591 O   0  0  0  0  0  0  0  0  0  0  0  0
    0.1775    3.8178    0.0685 N   0  0  0  0  0  0  0  0  0  0  0  0
   -2.6526    0.6042   -0.6624 C   0  0  1  0  0  0  0  0  0  0  0  0
   -2.3222    0.1883   -1.6361 H   0  0  0  0  0  0  0  0  0  0  0  0
   -2.9387    2.1076   -0.9446 C   0  0  0  0  0  0  0  0  0  0  0  0
   -3.5654    2.1853   -1.8577 H   0  0  0  0  0  0  0  0  0  0  0  0
   -3.5268    2.5431   -0.1065 H   0  0  0  0  0  0  0  0  0  0  0  0
   -1.6246    2.8604   -1.0868 C   0  0  2  0  0  0  0  0  0  0  0  0
   -0.9990    2.3551   -1.8516 H   0  0  0  0  0  0  0  0  0  0  0  0
   -0.8759    2.8096    0.2407 C   0  0  1  0  0  0  0  0  0  0  0  0
   -1.5959    3.2057    1.0221 H   0  0  0  0  0  0  0  0  0  0  0  0
   -0.5486    1.4009    0.6990 C   0  0  0  0  0  3  0  0  0  0  0  0
   -1.5459    0.3679    0.4052 C   0  0  0  0  0  3  0  0  0  0  0  0
   -1.6699    4.3698   -1.3892 C   0  0  0  0  0  0  0  0  0  0  0  0
   -1.5571    4.5782   -2.4709 H   0  0  0  0  0  0  0  0  0  0  0  0
   -2.6395    4.8051   -1.0718 H   0  0  0  0  0  0  0  0  0  0  0  0
   -0.5116    4.9661   -0.5458 C   0  0  0  0  0  0  0  0  0  0  0  0
    0.1948    5.5751   -1.1467 H   0  0  0  0  0  0  0  0  0  0  0  0
   -0.9308    5.6417    0.2457 H   0  0  0  0  0  0  0  0  0  0  0  0
    0.8757    4.1423    1.3031 C   0  0  0  0  0  0  0  0  0  0  0  0
    1.3375    3.2078    1.6848 H   0  0  0  0  0  0  0  0  0  0  0  0
    0.1421    4.4773    2.0901 H   0  0  0  0  0  0  0  0  0  0  0  0
    1.9544    5.2097    1.1392 C   0  0  0  0  0  0  0  0  0  0  0  0
    2.6902    4.9194    0.3634 H   0  0  0  0  0  0  0  0  0  0  0  0
    2.5031    5.3504    2.0918 H   0  0  0  0  0  0  0  0  0  0  0  0
    1.5272    6.1920    0.8537 H   0  0  0  0  0  0  0  0  0  0  0  0
   -3.9225   -0.1122   -0.3338 C   0  0  0  0  0  0  0  0  0  0  0  0
   -4.8207   -0.8430   -1.0838 C   0  0  0  0  0  0  0  0  0  0  0  0
   -4.7318   -1.0639   -2.1534 H   0  0  0  0  0  0  0  0  0  0  0  0
   -5.8838   -1.2334   -0.1980 C   0  0  0  0  0  0  0  0  0  0  0  0
   -6.7717   -1.8267   -0.4432 H   0  0  0  0  0  0  0  0  0  0  0  0
   -5.5743   -0.7141    1.0397 C   0  0  0  0  0  0  0  0  0  0  0  0
   -6.2385   -0.7521    2.3696 C   0  0  0  0  0  0  0  0  0  0  0  0
   -6.4786    0.2686    2.7360 H   0  0  0  0  0  0  0  0  0  0  0  0
   -5.5951   -1.2310    3.1382 H   0  0  0  0  0  0  0  0  0  0  0  0
   -7.1818   -1.3256    2.3039 H   0  0  0  0  0  0  0  0  0  0  0  0
   -0.2066    1.3825    1.7536 H   0  0  0  0  0  0  0  0  0  0  0  0
   -1.9322   -0.1832    1.2808 H   0  0  0  0  0  0  0  0  0  0  0  0
  1 32  1  0  0  0  0
  2 10  1  0  0  0  0
  2 20  1  0  0  0  0
  3  4  1  6  0  0  0
  3 27  1  0  0  0  0
  3 13  1  0  0  0  0
  5  3  1  0  0  0  0
  5  7  1  0  0  0  0
  6  5  1  0  0  0  0
  8  9  1  6  0  0  0
  8  5  1  0  0  0  0
  8 10  1  0  0  0  0
 10 12  1  0  0  0  0
 10 11  1  1  0  0  0
 12 37  1  0  0  0  0
 13 12  1  0  0  0  0
 13 38  1  0  0  0  0
 14  8  1  0  0  0  0
 14 16  1  0  0  0  0
 14 17  1  0  0  0  0
 15 14  1  0  0  0  0
 17  2  1  0  0  0  0
 17 19  1  0  0  0  0
 18 17  1  0  0  0  0
 20 21  1  0  0  0  0
 20 22  1  0  0  0  0
 23 20  1  0  0  0  0
 23 25  1  0  0  0  0
 24 23  1  0  0  0  0
 26 23  1  0  0  0  0
 27  1  1  0  0  0  0
 28 27  2  0  0  0  0
 28 30  1  0  0  0  0
 29 28  1  0  0  0  0
 30 32  2  0  0  0  0
 31 30  1  0  0  0  0
 32 33  1  0  0  0  0
 33 34  1  0  0  0  0
 33 35  1  0  0  0  0
 36 33  1  0  0  0  0
M  END
