1
q = 0.0, confidence = 0.992

 36 37  0  0  0  0  0  0  0  0999 V2000
    1.0221   -0.3885   -0.2366 C   0  0  0  0  0  3  0  0  0  0  0  0
    0.5160   -1.6392   -0.3545 O   0  0  0  0  0  0  0  0  0  0  0  0
    1.2846   -2.8442   -0.1722 C   0  0  0  0  0  0  0  0  0  0  0  0
    1.6097   -2.9011    0.8854 H   0  0  0  0  0  0  0  0  0  0  0  0
    2.1885   -2.7965   -0.8084 H   0  0  0  0  0  0  0  0  0  0  0  0
    0.3948   -4.0144   -0.5448 C   0  0  0  0  0  0  0  0  0  0  0  0
    0.9473   -4.9644   -0.4074 H   0  0  0  0  0  0  0  0  0  0  0  0
    0.0781   -3.9537   -1.6056 H   0  0  0  0  0  0  0  0  0  0  0  0
   -0.5108   -4.0530    0.0945 H   0  0  0  0  0  0  0  0  0  0  0  0
   -0.0246    0.5836   -0.3291 C   0  0  0  0  0  0  0  0  0  0  0  0
    0.2981    1.6298   -0.3736 H   0  0  0  0  0  0  0  0  0  0  0  0
   -1.4176    0.4100   -0.3098 C   0  0  0  0  0  0  0  0  0  0  0  0
   -2.2812    1.6184   -0.2884 C   0  0  0  0  0  0  0  0  0  0  0  0
   -3.4004    1.7149   -1.1461 C   0  0  0  0  0  0  0  0  0  0  0  0
   -3.6433    0.8784   -1.8177 H   0  0  0  0  0  0  0  0  0  0  0  0
   -4.1856    2.8733   -1.1553 C   0  0  0  0  0  0  0  0  0  0  0  0
   -5.0478    2.9418   -1.8355 H   0  0  0  0  0  0  0  0  0  0  0  0
   -3.8730    3.9465   -0.3035 C   0  0  0  0  0  0  0  0  0  0  0  0
   -4.4957    4.8538   -0.3086 H   0  0  0  0  0  0  0  0  0  0  0  0
   -2.7624    3.8594    0.5506 C   0  0  0  0  0  0  0  0  0  0  0  0
   -2.5128    4.6960    1.2204 H   0  0  0  0  0  0  0  0  0  0  0  0
   -1.9668    2.7050    0.5569 C   0  0  0  0  0  0  0  0  0  0  0  0
   -1.1022    2.6307    1.2337 H   0  0  0  0  0  0  0  0  0  0  0  0
   -1.9952   -0.8244   -0.3689 N   0  0  0  0  0  4  0  0  0  0  0  0
   -1.3109   -1.5671   -0.5649 H   0  0  0  0  0  0  0  0  0  0  0  0
   -3.2804   -1.2529    0.0164 C   0  0  0  0  0  0  0  0  0  0  0  0
   -3.7631   -2.4545   -0.5488 C   0  0  0  0  0  0  0  0  0  0  0  0
   -3.1445   -2.9872   -1.2880 H   0  0  0  0  0  0  0  0  0  0  0  0
   -5.0183   -2.9554   -0.1828 C   0  0  0  0  0  0  0  0  0  0  0  0
   -5.3796   -3.8920   -0.6335 H   0  0  0  0  0  0  0  0  0  0  0  0
   -5.8137   -2.2643    0.7451 C   0  0  0  0  0  0  0  0  0  0  0  0
   -6.8023   -2.6541    1.0287 H   0  0  0  0  0  0  0  0  0  0  0  0
   -5.3293   -1.0762    1.3164 C   0  0  0  0  0  0  0  0  0  0  0  0
   -5.9349   -0.5360    2.0598 H   0  0  0  0  0  0  0  0  0  0  0  0
   -4.0703   -0.5712    0.9682 C   0  0  0  0  0  0  0  0  0  0  0  0
   -3.6930    0.3431    1.4438 H   0  0  0  0  0  0  0  0  0  0  0  0
  2  1  1  0  0  0  0
  2  3  1  0  0  0  0
  3  4  1  0  0  0  0
  5  3  1  0  0  0  0
  6  7  1  0  0  0  0
  6  3  1  0  0  0  0
  6  9  1  0  0  0  0
  8  6  1  0  0  0  0
 10 12  1  0  0  0  0
 10  1  2  0  0  0  0
 11 10  1  0  0  0  0
 12 13  1  0  0  0  0
 13 22  1  0  0  0  0
 14 13  2  0  0  0  0
 15 14  1  0  0  0  0
 16 14  1  0  0  0  0
 16 18  2  0  0  0  0
 17 16  1  0  0  0  0
 18 20  1  0  0  0  0
 19 18  1  0  0  0  0
 20 22  2  0  0  0  0
 20 21  1  0  0  0  0
 22 23  1  0  0  0  0
 24 12  2  0  0  0  0
 24 26  1  0  0  0  0
 25 24  1  0  0  0  0
 26 35  1  0  0  0  0
 27 29  1  0  0  0  0
 27 26  2  0  0  0  0
 28 27  1  0  0  0  0
 29 31  2  0  0  0  0
 30 29  1  0  0  0  0
 31 32  1  0  0  0  0
 31 33  1  0  0  0  0
 33 34  1  0  0  0  0
 35 33  2  0  0  0  0
 35 36  1  0  0  0  0
M  END
