5
q = 0.0, confidence = 0.948

 10  9  0  0  0  0  0  0  0  0999 V2000
   -3.2586   -2.5792   -0.2958 N   0  0  0  0  0  0  0  0  0  0  0  0
   -3.9249    1.7633   -0.0422 N   0  0  0  0  0  0  0  0  0  0  0  0
   -0.2414   -2.2474    2.4858 N   0  0  0  0  0  0  0  0  0  0  0  0
   -0.8456    2.1133    2.5663 N   0  0  0  0  0  0  0  0  0  0  0  0
   -2.2598   -0.2289    0.2711 C   0  0  0  0  0  0  0  0  0  0  0  0
   -1.1696   -0.1312    1.2677 C   0  0  0  0  0  0  0  0  0  0  0  0
   -2.8091   -1.5278   -0.0319 C   0  0  0  0  0  0  0  0  0  0  0  0
   -3.1760    0.8725    0.1100 C   0  0  0  0  0  0  0  0  0  0  0  0
   -0.6836   -1.3113    1.9320 C   0  0  0  0  0  0  0  0  0  0  0  0
   -1.0050    1.1026    1.9900 C   0  0  0  0  0  0  0  0  0  0  0  0
  1  7  3  0  0  0  0
  2  8  3  0  0  0  0
  5  6  1  0  0  0  0
  6  9  1  0  0  0  0
  6 10  1  0  0  0  0
  7  5  1  0  0  0  0
  8  5  1  0  0  0  0
  9  3  3  0  0  0  0
 10  4  3  0  0  0  0
M  END
