29
q = 0.0, confidence = 0.916

 56 57  0  0  1  0  0  0  0  0999 V2000
   -2.2177    0.8692    3.0714 Cl  0  0  0  0  0  0  0  0  0  0  0  0
   -1.1561    0.9945    0.0760 N   0  0  0  0  0  0  0  0  0  0  0  0
   -0.2156    0.9260    1.1884 C   0  0  1  0  0  0  0  0  0  0  0  0
   -0.0703    1.9504    1.5885 H   0  0  0  0  0  0  0  0  0  0  0  0
   -0.7113    0.0712    2.3858 C   0  0  2  0  0  0  0  0  0  0  0  0
    0.0418    0.2008    3.1862 H   0  0  0  0  0  0  0  0  0  0  0  0
   -0.9617   -1.4191    2.1655 C   0  0  0  0  0  0  0  0  0  0  0  0
   -0.0160   -1.8355    1.7623 H   0  0  0  0  0  0  0  0  0  0  0  0
   -1.0787   -1.8898    3.1651 H   0  0  0  0  0  0  0  0  0  0  0  0
   -2.1565   -1.8090    1.2826 C   0  0  0  0  0  0  0  0  0  0  0  0
   -3.0881   -1.6563    1.8658 H   0  0  0  0  0  0  0  0  0  0  0  0
   -2.2425   -1.1118    0.4285 H   0  0  0  0  0  0  0  0  0  0  0  0
   -2.0944   -3.2554    0.7709 C   0  0  0  0  0  0  0  0  0  0  0  0
   -3.0911   -3.5367    0.3639 H   0  0  0  0  0  0  0  0  0  0  0  0
   -1.9156   -3.9459    1.6249 H   0  0  0  0  0  0  0  0  0  0  0  0
   -1.0316   -3.5068   -0.3134 C   0  0  0  0  0  0  0  0  0  0  0  0
   -0.9692   -4.5977   -0.5063 H   0  0  0  0  0  0  0  0  0  0  0  0
   -0.0356   -3.2353    0.0946 H   0  0  0  0  0  0  0  0  0  0  0  0
   -1.2848   -2.7592   -1.6466 C   0  0  0  0  0  0  0  0  0  0  0  0
   -1.5100   -3.4882   -2.4524 H   0  0  0  0  0  0  0  0  0  0  0  0
   -2.1949   -2.1283   -1.5541 H   0  0  0  0  0  0  0  0  0  0  0  0
   -0.1272   -1.8610   -2.1356 C   0  0  0  0  0  0  0  0  0  0  0  0
   -0.3996   -1.4324   -3.1224 H   0  0  0  0  0  0  0  0  0  0  0  0
    0.7990   -2.4490   -2.2891 H   0  0  0  0  0  0  0  0  0  0  0  0
    0.1407   -0.7359   -1.1673 C   0  0  1  0  0  3  0  0  0  0  0  0
   -0.7154    0.4230   -1.1094 C   0  0  0  0  0  3  0  0  0  0  0  0
   -1.4003    0.5744   -1.9572 H   0  0  0  0  0  0  0  0  0  0  0  0
    1.1489    0.4401    0.6780 C   0  0  2  0  0  3  0  0  0  0  0  0
    1.1903   -0.7291   -0.1861 C   0  0  1  0  0  3  0  0  0  0  0  0
    2.1857   -1.8531   -0.0721 C   0  0  0  0  0  0  0  0  0  0  0  0
    2.8581   -2.3079   -0.9767 O   0  0  0  0  0  0  0  0  0  0  0  0
    2.1805   -2.3505    1.1895 O   0  0  0  0  0  0  0  0  0  0  0  0
    3.1694   -3.3528    1.4574 C   0  0  0  0  0  0  0  0  0  0  0  0
    2.9726   -3.7098    2.4835 H   0  0  0  0  0  0  0  0  0  0  0  0
    4.1811   -2.9050    1.3905 H   0  0  0  0  0  0  0  0  0  0  0  0
    3.0964   -4.1849    0.7298 H   0  0  0  0  0  0  0  0  0  0  0  0
    2.3431    0.7070    1.5250 C   0  0  0  0  0  0  0  0  0  0  0  0
    3.4464    0.2017    1.3800 O   0  0  0  0  0  0  0  0  0  0  0  0
    2.0767    1.6162    2.5035 O   0  0  0  0  0  0  0  0  0  0  0  0
    3.1933    1.9704    3.3278 C   0  0  0  0  0  0  0  0  0  0  0  0
    2.8127    2.7058    4.0583 H   0  0  0  0  0  0  0  0  0  0  0  0
    4.0054    2.4134    2.7169 H   0  0  0  0  0  0  0  0  0  0  0  0
    3.5985    1.0788    3.8468 H   0  0  0  0  0  0  0  0  0  0  0  0
   -2.0554    2.1271   -0.0055 C   0  0  0  0  0  0  0  0  0  0  0  0
   -1.9969    2.7100    0.9313 H   0  0  0  0  0  0  0  0  0  0  0  0
   -1.7662    2.8232   -0.8298 H   0  0  0  0  0  0  0  0  0  0  0  0
   -3.5361    1.8028   -0.1945 C   0  0  0  0  0  0  0  0  0  0  0  0
   -4.4227    2.6026    0.0245 O   0  0  0  0  0  0  0  0  0  0  0  0
   -3.7395    0.5542   -0.6738 O   0  0  0  0  0  0  0  0  0  0  0  0
   -5.1227    0.1773   -0.8634 C   0  0  0  0  0  0  0  0  0  0  0  0
   -5.5951    0.8991   -1.5627 H   0  0  0  0  0  0  0  0  0  0  0  0
   -5.6506    0.2812    0.1076 H   0  0  0  0  0  0  0  0  0  0  0  0
   -5.1586   -1.2427   -1.3874 C   0  0  0  0  0  0  0  0  0  0  0  0
   -6.2084   -1.5563   -1.5520 H   0  0  0  0  0  0  0  0  0  0  0  0
   -4.6966   -1.9469   -0.6678 H   0  0  0  0  0  0  0  0  0  0  0  0
   -4.6194   -1.3283   -2.3518 H   0  0  0  0  0  0  0  0  0  0  0  0
  2  3  1  0  0  0  0
  3  4  1  1  0  0  0
  3  5  1  0  0  0  0
  5  1  1  0  0  0  0
  5  6  1  1  0  0  0
  7  5  1  0  0  0  0
  7  9  1  0  0  0  0
  8  7  1  0  0  0  0
 10 11  1  0  0  0  0
 10  7  1  0  0  0  0
 12 10  1  0  0  0  0
 13 10  1  0  0  0  0
 13 15  1  0  0  0  0
 14 13  1  0  0  0  0
 16 18  1  0  0  0  0
 16 13  1  0  0  0  0
 17 16  1  0  0  0  0
 19 21  1  0  0  0  0
 19 16  1  0  0  0  0
 20 19  1  0  0  0  0
 22 19  1  0  0  0  0
 22 25  1  0  0  0  0
 23 22  1  0  0  0  0
 24 22  1  0  0  0  0
 25 26  1  1  0  0  0
 25 29  1  0  0  0  0
 26  2  1  0  0  0  0
 27 26  1  0  0  0  0
 28  3  1  0  0  0  0
 28 37  1  1  0  0  0
 29 30  1  1  0  0  0
 29 28  1  0  0  0  0
 30 32  1  0  0  0  0
 31 30  2  0  0  0  0
 32 33  1  0  0  0  0
 33 34  1  0  0  0  0
 35 33  1  0  0  0  0
 36 33  1  0  0  0  0
 37 39  1  0  0  0  0
 38 37  2  0  0  0  0
 39 40  1  0  0  0  0
 40 43  1  0  0  0  0
 40 41  1  0  0  0  0
 42 40  1  0  0  0  0
 44  2  1  0  0  0  0
 44 45  1  0  0  0  0
 46 44  1  0  0  0  0
 47 44  1  0  0  0  0
 47 48  2  0  0  0  0
 49 47  1  0  0  0  0
 50 49  1  0  0  0  0
 50 52  1  0  0  0  0
 51 50  1  0  0  0  0
 53 50  1  0  0  0  0
 53 55  1  0  0  0  0
 54 53  1  0  0  0  0
 56 53  1  0  0  0  0
M  END
