20
q = -2.0, confidence = 0.932

 58 60  0  0  1  0  0  0  0  0999 V2000
   -1.5980    0.5122    1.9200 Si  0  0  0  0  0  0  0  0  0  0  0  0
    1.4667   -1.1612    1.8610 Si  0  0  0  0  0  0  0  0  0  0  0  0
   -1.4329   -1.2038    1.1254 C   0  0  0  0  0  0  0  0  0  0  0  0
   -2.2114   -1.7822    0.0594 C   0  0  0  0  0  0  0  0  0  0  0  0
   -3.6550   -1.5494   -0.2692 C   0  0  0  0  0  0  0  0  0  0  0  0
   -1.3906   -2.7265   -0.6427 C   0  0  0  0  0  0  0  0  0  0  0  0
   -1.8036   -3.5197   -1.8455 C   0  0  0  0  0  0  0  0  0  0  0  0
   -0.1422   -2.7986    0.0390 C   0  0  0  0  0  0  0  0  0  0  0  0
   -0.1335   -1.8725    1.1306 C   0  0  1  0  0  3  0  0  0  0  0  0
   -0.0698    1.2011    0.9986 C   0  0  2  0  0  3  0  0  0  0  0  0
   -0.0725    2.1190   -0.1155 C   0  0  0  0  0  0  0  0  0  0  0  0
   -1.0940    3.1970   -0.4143 C   0  0  0  0  0  0  0  0  0  0  0  0
   -0.8832    3.8601   -1.7796 C   0  0  0  0  0  0  0  0  0  0  0  0
   -1.0712    4.2437    0.7162 C   0  0  0  0  0  0  0  0  0  0  0  0
    1.1435    1.9392   -0.8341 C   0  0  0  0  0  0  0  0  0  0  0  0
    1.9646    0.9931   -0.1598 C   0  0  1  0  0  3  0  0  0  0  0  0
    3.4055    0.6782   -0.5055 C   0  0  0  0  0  0  0  0  0  0  0  0
    3.8328    1.2578   -1.8577 C   0  0  0  0  0  0  0  0  0  0  0  0
    4.3239    1.1723    0.6282 C   0  0  0  0  0  0  0  0  0  0  0  0
    1.2228    0.4955    0.9686 C   0  0  2  0  0  3  0  0  0  0  0  0
   -1.5084    0.5176    3.8080 C   0  0  0  0  0  0  0  0  0  0  0  0
   -3.2111    1.3707    1.4431 C   0  0  0  0  0  0  0  0  0  0  0  0
    1.6568   -1.0351    3.7369 C   0  0  0  0  0  0  0  0  0  0  0  0
    2.8903   -2.2206    1.2153 C   0  0  0  0  0  0  0  0  0  0  0  0
    0.6937   -3.4406   -0.2663 H   0  0  0  0  0  0  0  0  0  0  0  0
    1.4182    2.4730   -1.7499 H   0  0  0  0  0  0  0  0  0  0  0  0
   -4.1831   -2.5221   -0.3474 H   0  0  0  0  0  0  0  0  0  0  0  0
   -3.7718   -1.0295   -1.2433 H   0  0  0  0  0  0  0  0  0  0  0  0
   -4.1632   -0.9498    0.5053 H   0  0  0  0  0  0  0  0  0  0  0  0
   -2.4634   -4.3674   -1.5602 H   0  0  0  0  0  0  0  0  0  0  0  0
   -0.9217   -3.9342   -2.3699 H   0  0  0  0  0  0  0  0  0  0  0  0
   -2.3646   -2.8920   -2.5662 H   0  0  0  0  0  0  0  0  0  0  0  0
   -2.0974    2.7280   -0.4299 H   0  0  0  0  0  0  0  0  0  0  0  0
   -0.8993    3.1103   -2.5940 H   0  0  0  0  0  0  0  0  0  0  0  0
    0.0811    4.4081   -1.8203 H   0  0  0  0  0  0  0  0  0  0  0  0
   -1.6891    4.5949   -1.9770 H   0  0  0  0  0  0  0  0  0  0  0  0
   -1.2344    3.7796    1.7093 H   0  0  0  0  0  0  0  0  0  0  0  0
   -1.8574    5.0101    0.5577 H   0  0  0  0  0  0  0  0  0  0  0  0
   -0.0904    4.7619    0.7505 H   0  0  0  0  0  0  0  0  0  0  0  0
    3.5086   -0.4234   -0.5730 H   0  0  0  0  0  0  0  0  0  0  0  0
    3.1785    0.8904   -2.6719 H   0  0  0  0  0  0  0  0  0  0  0  0
    4.8726    0.9560   -2.0943 H   0  0  0  0  0  0  0  0  0  0  0  0
    3.8024    2.3673   -1.8509 H   0  0  0  0  0  0  0  0  0  0  0  0
    4.0376    0.7372    1.6067 H   0  0  0  0  0  0  0  0  0  0  0  0
    4.2684    2.2763    0.7275 H   0  0  0  0  0  0  0  0  0  0  0  0
    5.3796    0.8995    0.4245 H   0  0  0  0  0  0  0  0  0  0  0  0
   -2.5336    0.3881    4.2116 H   0  0  0  0  0  0  0  0  0  0  0  0
   -1.1134    1.4840    4.1826 H   0  0  0  0  0  0  0  0  0  0  0  0
   -0.8830   -0.2974    4.2129 H   0  0  0  0  0  0  0  0  0  0  0  0
   -3.4119    1.3359    0.3560 H   0  0  0  0  0  0  0  0  0  0  0  0
   -3.2025    2.4297    1.7696 H   0  0  0  0  0  0  0  0  0  0  0  0
   -4.0503    0.8707    1.9692 H   0  0  0  0  0  0  0  0  0  0  0  0
    2.7385   -0.9583    3.9721 H   0  0  0  0  0  0  0  0  0  0  0  0
    1.2645   -1.9418    4.2409 H   0  0  0  0  0  0  0  0  0  0  0  0
    1.1568   -0.1472    4.1632 H   0  0  0  0  0  0  0  0  0  0  0  0
    3.8750   -1.7884    1.4821 H   0  0  0  0  0  0  0  0  0  0  0  0
    2.8501   -2.3584    0.1175 H   0  0  0  0  0  0  0  0  0  0  0  0
    2.8243   -3.2207    1.6930 H   0  0  0  0  0  0  0  0  0  0  0  0
  1 21  1  0  0  0  0
  2 23  1  0  0  0  0
  3  9  1  0  0  0  0
  3  1  1  0  0  0  0
  4  3  2  0  0  0  0
  5  4  1  0  0  0  0
  5 29  1  0  0  0  0
  6  8  2  0  0  0  0
  6  4  1  0  0  0  0
  7 30  1  0  0  0  0
  7  6  1  0  0  0  0
  9  8  1  6  0  0  0
  9  2  1  0  0  0  0
 10 11  1  6  0  0  0
 10  1  1  0  0  0  0
 12 11  1  0  0  0  0
 12 14  1  0  0  0  0
 13 12  1  0  0  0  0
 14 39  1  0  0  0  0
 14 37  1  0  0  0  0
 15 16  1  0  0  0  0
 15 11  2  0  0  0  0
 16 17  1  1  0  0  0
 16 20  1  0  0  0  0
 17 19  1  0  0  0  0
 18 43  1  0  0  0  0
 18 17  1  0  0  0  0
 19 45  1  0  0  0  0
 19 44  1  0  0  0  0
 20 10  1  0  0  0  0
 20  2  1  6  0  0  0
 21 48  1  0  0  0  0
 21 47  1  0  0  0  0
 21 49  1  0  0  0  0
 22 51  1  0  0  0  0
 22  1  1  0  0  0  0
 22 52  1  0  0  0  0
 23 53  1  0  0  0  0
 23 55  1  0  0  0  0
 23 54  1  0  0  0  0
 24 56  1  0  0  0  0
 24 58  1  0  0  0  0
 24  2  1  0  0  0  0
 25  8  1  0  0  0  0
 26 15  1  0  0  0  0
 27  5  1  0  0  0  0
 28  5  1  0  0  0  0
 31  7  1  0  0  0  0
 32  7  1  0  0  0  0
 33 12  1  0  0  0  0
 34 13  1  0  0  0  0
 35 13  1  0  0  0  0
 36 13  1  0  0  0  0
 38 14  1  0  0  0  0
 40 17  1  0  0  0  0
 41 18  1  0  0  0  0
 42 18  1  0  0  0  0
 46 19  1  0  0  0  0
 50 22  1  0  0  0  0
 57 24  1  0  0  0  0
M  END
