6
q = 0.0, confidence = 0.968

 50 52  0  0  0  0  0  0  0  0999 V2000
   -1.2306   -0.2828    0.0592 P   0  0  0  0  0  4  0  0  0  0  0  0
    1.6461    3.1885   -1.2600 O   0  0  0  0  0  0  0  0  0  0  0  0
    2.1471    3.1978    0.9636 O   0  0  0  0  0  0  0  0  0  0  0  0
   -0.8550    3.7039    0.4980 O   0  0  0  0  0  0  0  0  0  0  0  0
   -2.5579    2.3888   -0.2195 O   0  0  0  0  0  0  0  0  0  0  0  0
    0.9068    1.3770    0.0822 C   0  0  0  0  0  3  0  0  0  0  0  0
   -0.4733    1.3536    0.1812 C   0  0  0  0  0  0  0  0  0  0  0  0
    1.5747    2.6956   -0.1451 C   0  0  0  0  0  0  0  0  0  0  0  0
    2.7917    4.4657    0.7905 C   0  0  0  0  0  0  0  0  0  0  0  0
   -1.2764    2.6029    0.1897 C   0  0  0  0  0  0  0  0  0  0  0  0
   -3.4150    3.5339   -0.2100 C   0  0  0  0  0  0  0  0  0  0  0  0
   -0.3730   -1.4206    1.1949 C   0  0  0  0  0  0  0  0  0  0  0  0
   -0.0157   -0.9433    2.4756 C   0  0  0  0  0  0  0  0  0  0  0  0
    0.6313   -1.7989    3.3752 C   0  0  0  0  0  0  0  0  0  0  0  0
    0.9345   -3.1181    3.0005 C   0  0  0  0  0  0  0  0  0  0  0  0
    0.5785   -3.5879    1.7281 C   0  0  0  0  0  0  0  0  0  0  0  0
   -0.0858   -2.7475    0.8251 C   0  0  0  0  0  0  0  0  0  0  0  0
   -1.1402   -0.8949   -1.6532 C   0  0  0  0  0  0  0  0  0  0  0  0
   -0.3580   -0.2121   -2.6066 C   0  0  0  0  0  0  0  0  0  0  0  0
   -0.2782   -0.7107   -3.9152 C   0  0  0  0  0  0  0  0  0  0  0  0
   -0.9684   -1.8787   -4.2735 C   0  0  0  0  0  0  0  0  0  0  0  0
   -1.7577   -2.5509   -3.3257 C   0  0  0  0  0  0  0  0  0  0  0  0
   -1.8508   -2.0601   -2.0163 C   0  0  0  0  0  0  0  0  0  0  0  0
   -2.9999   -0.3546    0.5282 C   0  0  0  0  0  0  0  0  0  0  0  0
   -3.3692   -0.6365    1.8575 C   0  0  0  0  0  0  0  0  0  0  0  0
   -4.7259   -0.6656    2.2164 C   0  0  0  0  0  0  0  0  0  0  0  0
   -5.7159   -0.4268    1.2522 C   0  0  0  0  0  0  0  0  0  0  0  0
   -5.3490   -0.1561   -0.0773 C   0  0  0  0  0  0  0  0  0  0  0  0
   -3.9975   -0.1159   -0.4410 C   0  0  0  0  0  0  0  0  0  0  0  0
    2.0450    5.2418    0.5262 H   0  0  0  0  0  0  0  0  0  0  0  0
    3.5537    4.4169   -0.0129 H   0  0  0  0  0  0  0  0  0  0  0  0
    3.2653    4.7029    1.7596 H   0  0  0  0  0  0  0  0  0  0  0  0
   -3.0778    4.2831   -0.9544 H   0  0  0  0  0  0  0  0  0  0  0  0
   -3.4205    4.0141    0.7889 H   0  0  0  0  0  0  0  0  0  0  0  0
   -4.4233    3.1605   -0.4653 H   0  0  0  0  0  0  0  0  0  0  0  0
   -0.1978    0.1082    2.7440 H   0  0  0  0  0  0  0  0  0  0  0  0
    0.9278   -1.4221    4.3653 H   0  0  0  0  0  0  0  0  0  0  0  0
    1.4706   -3.7774    3.6992 H   0  0  0  0  0  0  0  0  0  0  0  0
    0.8432   -4.6099    1.4210 H   0  0  0  0  0  0  0  0  0  0  0  0
   -0.3192   -3.1076   -0.1863 H   0  0  0  0  0  0  0  0  0  0  0  0
    0.1895    0.7000   -2.3276 H   0  0  0  0  0  0  0  0  0  0  0  0
    0.3367   -0.1797   -4.6566 H   0  0  0  0  0  0  0  0  0  0  0  0
   -0.8948   -2.2675   -5.3004 H   0  0  0  0  0  0  0  0  0  0  0  0
   -2.3065   -3.4621   -3.6070 H   0  0  0  0  0  0  0  0  0  0  0  0
   -2.4849   -2.5774   -1.2803 H   0  0  0  0  0  0  0  0  0  0  0  0
   -2.5994   -0.8476    2.6138 H   0  0  0  0  0  0  0  0  0  0  0  0
   -5.0072   -0.8864    3.2568 H   0  0  0  0  0  0  0  0  0  0  0  0
   -6.7792   -0.4578    1.5345 H   0  0  0  0  0  0  0  0  0  0  0  0
   -6.1228    0.0256   -0.8384 H   0  0  0  0  0  0  0  0  0  0  0  0
   -3.7124    0.1097   -1.4782 H   0  0  0  0  0  0  0  0  0  0  0  0
  1  7  1  0  0  0  0
  1 24  1  0  0  0  0
  1 12  1  0  0  0  0
  2  8  2  0  0  0  0
  5 11  1  0  0  0  0
  5 10  1  0  0  0  0
  6  7  2  0  0  0  0
  7 10  1  0  0  0  0
  8  6  1  0  0  0  0
  8  3  1  0  0  0  0
  9  3  1  0  0  0  0
  9 32  1  0  0  0  0
 10  4  2  0  0  0  0
 11 34  1  0  0  0  0
 12 13  1  0  0  0  0
 13 36  1  0  0  0  0
 13 14  2  0  0  0  0
 14 37  1  0  0  0  0
 15 14  1  0  0  0  0
 15 38  1  0  0  0  0
 16 15  2  0  0  0  0
 17 12  2  0  0  0  0
 17 16  1  0  0  0  0
 18  1  1  0  0  0  0
 19 41  1  0  0  0  0
 19 18  2  0  0  0  0
 20 19  1  0  0  0  0
 21 20  2  0  0  0  0
 21 22  1  0  0  0  0
 22 23  2  0  0  0  0
 23 18  1  0  0  0  0
 23 45  1  0  0  0  0
 24 25  1  0  0  0  0
 25 26  2  0  0  0  0
 25 46  1  0  0  0  0
 26 47  1  0  0  0  0
 27 48  1  0  0  0  0
 27 26  1  0  0  0  0
 28 27  2  0  0  0  0
 29 28  1  0  0  0  0
 29 24  2  0  0  0  0
 30  9  1  0  0  0  0
 31  9  1  0  0  0  0
 33 11  1  0  0  0  0
 35 11  1  0  0  0  0
 39 16  1  0  0  0  0
 40 17  1  0  0  0  0
 42 20  1  0  0  0  0
 43 21  1  0  0  0  0
 44 22  1  0  0  0  0
 49 28  1  0  0  0  0
 50 29  1  0  0  0  0
M  END
