28
q = -1.0, confidence = 0.076

 47 50  0  0  0  0  0  0  0  0999 V2000
    2.1785    0.1110   -0.0096 P   0  0  0  0  0  4  0  0  0  0  0  0
    2.1975   -1.1299   -1.3526 C   0  0  0  0  0  0  0  0  0  0  0  0
    3.1475   -1.0324   -2.3908 C   0  0  0  0  0  0  0  0  0  0  0  0
    3.9074   -0.2371   -2.3715 H   0  0  0  0  0  0  0  0  0  0  0  0
    1.2209   -2.1511   -1.3830 C   0  0  0  0  0  0  0  0  0  0  0  0
    0.4637   -2.1975   -0.5882 H   0  0  0  0  0  0  0  0  0  0  0  0
    2.1590   -2.9714   -3.4749 C   0  0  0  0  0  0  0  0  0  0  0  0
    2.1431   -3.6928   -4.3061 H   0  0  0  0  0  0  0  0  0  0  0  0
    3.1245   -1.9530   -3.4489 C   0  0  0  0  0  0  0  0  0  0  0  0
    3.8674   -1.8732   -4.2568 H   0  0  0  0  0  0  0  0  0  0  0  0
    1.2105   -3.0677   -2.4431 C   0  0  0  0  0  0  0  0  0  0  0  0
    0.4467   -3.8596   -2.4650 H   0  0  0  0  0  0  0  0  0  0  0  0
    4.9642    0.2962    0.3152 C   0  0  0  0  0  0  0  0  0  0  0  0
    4.9162   -0.7349    0.6978 H   0  0  0  0  0  0  0  0  0  0  0  0
    3.7858    0.9624   -0.0771 C   0  0  0  0  0  0  0  0  0  0  0  0
    6.2592    2.2753   -0.2484 C   0  0  0  0  0  0  0  0  0  0  0  0
    7.2295    2.7908   -0.3141 H   0  0  0  0  0  0  0  0  0  0  0  0
    3.8444    2.2877   -0.5488 C   0  0  0  0  0  0  0  0  0  0  0  0
    2.9070    2.7865   -0.8350 H   0  0  0  0  0  0  0  0  0  0  0  0
    6.1985    0.9546    0.2275 C   0  0  0  0  0  0  0  0  0  0  0  0
    7.1182    0.4360    0.5374 H   0  0  0  0  0  0  0  0  0  0  0  0
    5.0839    2.9397   -0.6338 C   0  0  0  0  0  0  0  0  0  0  0  0
    5.1311    3.9760   -1.0014 H   0  0  0  0  0  0  0  0  0  0  0  0
    2.1341   -0.7994    1.5727 C   0  0  0  0  0  0  0  0  0  0  0  0
   -0.2365    0.9166   -0.0382 C   0  0  0  0  0  0  0  0  0  0  0  0
    1.6540   -0.1121    2.7051 C   0  0  0  0  0  0  0  0  0  0  0  0
    1.2865    0.9200    2.5969 H   0  0  0  0  0  0  0  0  0  0  0  0
   -2.6472    1.7295   -0.1093 C   0  0  0  0  0  3  0  0  0  0  0  0
   -1.2620    2.0250   -0.1011 C   0  0  0  0  0  0  0  0  0  0  0  0
    2.5964   -2.1242    1.6919 C   0  0  0  0  0  0  0  0  0  0  0  0
    2.9552   -2.6674    0.8047 H   0  0  0  0  0  0  0  0  0  0  0  0
   -3.5794    2.7821   -0.1651 C   0  0  0  0  0  0  0  0  0  0  0  0
   -4.6591    2.5684   -0.1754 H   0  0  0  0  0  0  0  0  0  0  0  0
    2.0981   -2.0733    4.0723 C   0  0  0  0  0  0  0  0  0  0  0  0
    2.0779   -2.5750    5.0516 H   0  0  0  0  0  0  0  0  0  0  0  0
    1.6355   -0.7522    3.9510 C   0  0  0  0  0  0  0  0  0  0  0  0
    1.2513   -0.2187    4.8334 H   0  0  0  0  0  0  0  0  0  0  0  0
    2.5781   -2.7571    2.9446 C   0  0  0  0  0  0  0  0  0  0  0  0
    2.9331   -3.7946    3.0368 H   0  0  0  0  0  0  0  0  0  0  0  0
   -0.8415    3.3715   -0.1477 C   0  0  0  0  0  0  0  0  0  0  0  0
    0.2390    3.5738   -0.1373 H   0  0  0  0  0  0  0  0  0  0  0  0
   -1.7757    4.4135   -0.1989 C   0  0  0  0  0  0  0  0  0  0  0  0
   -1.4331    5.4590   -0.2317 H   0  0  0  0  0  0  0  0  0  0  0  0
   -3.1478    4.1191   -0.2087 C   0  0  0  0  0  0  0  0  0  0  0  0
   -3.8895    4.9320   -0.2506 H   0  0  0  0  0  0  0  0  0  0  0  0
   -0.6025   -0.2807    0.0926 O   0  0  0  0  0  0  0  0  0  0  0  0
    1.0616    1.3123   -0.1167 N   0  0  0  0  0  2  0  0  0  0  0  0
  1 24  1  0  0  0  0
  2  1  1  0  0  0  0
  3  4  1  0  0  0  0
  3  2  2  0  0  0  0
  5  2  1  0  0  0  0
  5  6  1  0  0  0  0
  7  9  2  0  0  0  0
  7 11  1  0  0  0  0
  8  7  1  0  0  0  0
  9  3  1  0  0  0  0
 10  9  1  0  0  0  0
 11  5  2  0  0  0  0
 12 11  1  0  0  0  0
 13 14  1  0  0  0  0
 15  1  1  0  0  0  0
 15 13  2  0  0  0  0
 16 20  2  0  0  0  0
 17 16  1  0  0  0  0
 18 15  1  0  0  0  0
 19 18  1  0  0  0  0
 20 13  1  0  0  0  0
 20 21  1  0  0  0  0
 22 18  2  0  0  0  0
 22 16  1  0  0  0  0
 23 22  1  0  0  0  0
 24 30  2  0  0  0  0
 24 26  1  0  0  0  0
 25 46  2  0  0  0  0
 26 36  2  0  0  0  0
 27 26  1  0  0  0  0
 28 29  1  0  0  0  0
 29 25  1  0  0  0  0
 30 38  1  0  0  0  0
 31 30  1  0  0  0  0
 32 28  2  0  0  0  0
 33 32  1  0  0  0  0
 34 35  1  0  0  0  0
 36 34  1  0  0  0  0
 36 37  1  0  0  0  0
 38 39  1  0  0  0  0
 38 34  2  0  0  0  0
 40 41  1  0  0  0  0
 40 29  2  0  0  0  0
 42 40  1  0  0  0  0
 43 42  1  0  0  0  0
 44 42  2  0  0  0  0
 44 32  1  0  0  0  0
 45 44  1  0  0  0  0
 47 25  1  0  0  0  0
 47  1  1  0  0  0  0
M  END
