5
q = -1.0, confidence = 0.0

 11 11  0  0  0  0  0  0  0  0999 V2000
    4.0464   -2.1836   -1.8126 F   0  0  0  0  0  0  0  0  0  0  0  0
    5.5943   -0.8469    0.0103 F   0  0  0  0  0  0  0  0  0  0  0  0
    4.4132    0.9453    1.7220 F   0  0  0  0  0  0  0  0  0  0  0  0
    1.7766    1.3989    1.6514 F   0  0  0  0  0  0  0  0  0  0  0  0
    1.4427   -0.1643   -0.1598 C   0  0  0  0  0  3  0  0  0  0  0  0
    2.0840   -1.0771   -1.0319 C   0  0  0  0  0  0  0  0  0  0  0  0
    3.4607   -1.3068   -0.9757 C   0  0  0  0  0  0  0  0  0  0  0  0
    4.2726   -0.6300   -0.0494 C   0  0  0  0  0  0  0  0  0  0  0  0
    3.6650    0.2851    0.8238 C   0  0  0  0  0  0  0  0  0  0  0  0
    2.2771    0.4991    0.7538 C   0  0  0  0  0  0  0  0  0  0  0  0
    1.4974   -1.6051   -1.7983 H   0  0  0  0  0  0  0  0  0  0  0  0
  1  7  1  0  0  0  0
  5 10  1  0  0  0  0
  6  7  1  0  0  0  0
  6  5  2  0  0  0  0
  7  8  2  0  0  0  0
  8  2  1  0  0  0  0
  8  9  1  0  0  0  0
  9  3  1  0  0  0  0
 10  9  2  0  0  0  0
 10  4  1  0  0  0  0
 11  6  1  0  0  0  0
M  END
