2
q = -1.0, confidence = 0.0

 11 11  0  0  0  0  0  0  0  0999 V2000
    2.5673    1.1638   -1.5930 F   0  0  0  0  0  0  0  0  0  0  0  0
    1.7336   -0.4172    0.0005 C   0  0  0  0  0  3  0  0  0  0  0  0
    2.8110    0.2065   -0.6543 C   0  0  0  0  0  0  0  0  0  0  0  0
    4.1527   -0.0850   -0.3789 C   0  0  0  0  0  0  0  0  0  0  0  0
    4.4554   -1.0462    0.5967 C   0  0  0  0  0  0  0  0  0  0  0  0
    3.4111   -1.6959    1.2715 C   0  0  0  0  0  0  0  0  0  0  0  0
    2.0734   -1.3869    0.9695 C   0  0  0  0  0  0  0  0  0  0  0  0
    4.9370    0.4475   -0.9368 H   0  0  0  0  0  0  0  0  0  0  0  0
    5.5053   -1.2866    0.8220 H   0  0  0  0  0  0  0  0  0  0  0  0
    3.6330   -2.4584    2.0336 H   0  0  0  0  0  0  0  0  0  0  0  0
    1.2652   -1.9219    1.4909 H   0  0  0  0  0  0  0  0  0  0  0  0
  1  3  1  0  0  0  0
  2  7  1  0  0  0  0
  3  4  1  0  0  0  0
  3  2  2  0  0  0  0
  4  5  2  0  0  0  0
  5  9  1  0  0  0  0
  5  6  1  0  0  0  0
  6 10  1  0  0  0  0
  7  6  2  0  0  0  0
  7 11  1  0  0  0  0
  8  4  1  0  0  0  0
M  END
