6
q = 0.0, confidence = 0.984

 40 42  0  0  1  0  0  0  0  0999 V2000
   -0.0791    2.9760   -0.4797 S   0  0  0  0  0  0  0  0  0  0  0  0
    0.4225    3.9085   -1.5160 O   0  0  0  0  0  0  0  0  0  0  0  0
   -1.0561    3.3998    0.5625 O   0  0  0  0  0  0  0  0  0  0  0  0
   -1.7154    0.7828   -0.5611 N   0  0  0  0  0  0  0  0  0  0  0  0
   -1.9369   -0.7261    1.1613 N   0  0  1  0  0  0  0  0  0  0  0  0
   -1.2173   -0.3158    0.0643 C   0  0  0  0  0  2  0  0  0  0  0  0
   -3.1345    1.2131   -0.4680 C   0  0  0  0  0  0  0  0  0  0  0  0
   -3.5740    1.0996   -1.4831 H   0  0  0  0  0  0  0  0  0  0  0  0
   -3.1264    2.2912   -0.2122 H   0  0  0  0  0  0  0  0  0  0  0  0
   -3.9378    0.4442    0.5900 C   0  0  2  0  0  0  0  0  0  0  0  0
   -4.7609    1.1128    0.9161 H   0  0  0  0  0  0  0  0  0  0  0  0
   -2.9237    0.2110    1.7088 C   0  0  0  0  0  0  0  0  0  0  0  0
   -2.4096    1.1507    1.9959 H   0  0  0  0  0  0  0  0  0  0  0  0
   -3.3714   -0.2425    2.6139 H   0  0  0  0  0  0  0  0  0  0  0  0
   -4.5608   -0.9229    0.2021 C   0  0  0  0  0  0  0  0  0  0  0  0
   -5.1826   -0.8107   -0.7104 H   0  0  0  0  0  0  0  0  0  0  0  0
   -5.2677   -1.1850    1.0197 H   0  0  0  0  0  0  0  0  0  0  0  0
   -3.5656   -2.0901    0.0146 C   0  0  0  0  0  0  0  0  0  0  0  0
   -4.1153   -3.0538    0.0091 H   0  0  0  0  0  0  0  0  0  0  0  0
   -3.0641   -2.0070   -0.9742 H   0  0  0  0  0  0  0  0  0  0  0  0
   -2.4550   -2.1016    1.0821 C   0  0  0  0  0  0  0  0  0  0  0  0
   -2.8286   -2.3963    2.0843 H   0  0  0  0  0  0  0  0  0  0  0  0
   -1.6260   -2.7802    0.7971 H   0  0  0  0  0  0  0  0  0  0  0  0
   -0.8920    1.5746   -1.4246 C   0  0  0  0  0  0  0  0  0  0  0  0
   -1.4816    2.0958   -2.2034 H   0  0  0  0  0  0  0  0  0  0  0  0
   -0.0783    0.9673   -1.8711 H   0  0  0  0  0  0  0  0  0  0  0  0
    1.2937    2.1476    0.3119 C   0  0  0  0  0  0  0  0  0  0  0  0
    2.4428    1.8846   -0.4518 C   0  0  0  0  0  0  0  0  0  0  0  0
    2.5404    2.3136   -1.4598 H   0  0  0  0  0  0  0  0  0  0  0  0
    3.4305    1.0557    0.0850 C   0  0  0  0  0  0  0  0  0  0  0  0
    4.3170    0.8094   -0.5182 H   0  0  0  0  0  0  0  0  0  0  0  0
    3.2889    0.4860    1.3704 C   0  0  0  0  0  0  0  0  0  0  0  0
    2.1492    0.8177    2.1313 C   0  0  0  0  0  0  0  0  0  0  0  0
    2.0333    0.3949    3.1411 H   0  0  0  0  0  0  0  0  0  0  0  0
    1.1405    1.6379    1.6084 C   0  0  0  0  0  0  0  0  0  0  0  0
    0.2365    1.8789    2.1855 H   0  0  0  0  0  0  0  0  0  0  0  0
    4.2919   -0.5179    1.8625 C   0  0  0  0  0  0  0  0  0  0  0  0
    5.3312   -0.2085    1.6337 H   0  0  0  0  0  0  0  0  0  0  0  0
    4.1081   -1.4779    1.3313 H   0  0  0  0  0  0  0  0  0  0  0  0
    4.2043   -0.6979    2.9509 H   0  0  0  0  0  0  0  0  0  0  0  0
  1 27  1  0  0  0  0
  1  3  2  0  0  0  0
  2  1  2  0  0  0  0
  4  7  1  0  0  0  0
  4  6  1  0  0  0  0
  5  6  1  6  0  0  0
  5 12  1  0  0  0  0
  7  9  1  0  0  0  0
  7 10  1  0  0  0  0
  8  7  1  0  0  0  0
 10 11  1  1  0  0  0
 10 12  1  0  0  0  0
 12 13  1  0  0  0  0
 12 14  1  0  0  0  0
 15 10  1  0  0  0  0
 15 17  1  0  0  0  0
 16 15  1  0  0  0  0
 18 15  1  0  0  0  0
 18 21  1  0  0  0  0
 19 18  1  0  0  0  0
 20 18  1  0  0  0  0
 21  5  1  0  0  0  0
 21 22  1  0  0  0  0
 23 21  1  0  0  0  0
 24  4  1  0  0  0  0
 24  1  1  0  0  0  0
 25 24  1  0  0  0  0
 26 24  1  0  0  0  0
 27 35  1  0  0  0  0
 28 30  1  0  0  0  0
 28 27  2  0  0  0  0
 29 28  1  0  0  0  0
 30 32  2  0  0  0  0
 31 30  1  0  0  0  0
 32 37  1  0  0  0  0
 32 33  1  0  0  0  0
 33 34  1  0  0  0  0
 35 33  2  0  0  0  0
 35 36  1  0  0  0  0
 37 40  1  0  0  0  0
 38 37  1  0  0  0  0
 39 37  1  0  0  0  0
M  END
