6
q = -1.0, confidence = 0.0

 10 10  0  0  0  0  0  0  0  0999 V2000
   -0.7876    1.2871   -2.1038 F   0  0  0  0  0  0  0  0  0  0  0  0
   -1.2135    3.9498   -1.7216 F   0  0  0  0  0  0  0  0  0  0  0  0
   -0.8217    5.0055    0.7994 F   0  0  0  0  0  0  0  0  0  0  0  0
    0.4378    0.9777    2.4733 F   0  0  0  0  0  0  0  0  0  0  0  0
   -0.2080    2.9608    1.6031 N   0  0  0  0  0  0  0  0  0  0  0  0
   -0.1449    0.9721    0.1750 C   0  0  0  0  0  0  0  0  0  0  0  0
   -0.5657    1.8045   -0.8737 C   0  0  0  0  0  0  0  0  0  0  0  0
   -0.8036    3.1802   -0.7043 C   0  0  0  0  0  0  0  0  0  0  0  0
   -0.6038    3.7012    0.5847 C   0  0  0  0  0  0  0  0  0  0  0  0
    0.0076    1.6723    1.3868 C   0  0  0  0  0  0  0  0  0  0  0  0
  1  7  1  0  0  0  0
  2  8  1  0  0  0  0
  6 10  2  0  0  0  0
  7  8  2  0  0  0  0
  7  6  1  0  0  0  0
  8  9  1  0  0  0  0
  9  3  1  0  0  0  0
  9  5  2  0  0  0  0
 10  5  1  0  0  0  0
 10  4  1  0  0  0  0
M  END
