26
q = -1.0, confidence = 0.0

 37 39  0  0  0  0  0  0  0  0999 V2000
    1.1499    0.0882   -0.5966 P   0  0  0  0  0  0  0  0  0  0  0  0
    2.2106    1.5539   -0.2643 C   0  0  0  0  0  0  0  0  0  0  0  0
    1.7879    2.8366   -0.6675 C   0  0  0  0  0  0  0  0  0  0  0  0
    0.8420    2.9393   -1.2216 H   0  0  0  0  0  0  0  0  0  0  0  0
    2.5620    3.9662   -0.3624 C   0  0  0  0  0  0  0  0  0  0  0  0
    2.2251    4.9630   -0.6861 H   0  0  0  0  0  0  0  0  0  0  0  0
    3.7619    3.8275    0.3534 C   0  0  0  0  0  0  0  0  0  0  0  0
    4.3674    4.7144    0.5944 H   0  0  0  0  0  0  0  0  0  0  0  0
    4.1932    2.5509    0.7515 C   0  0  0  0  0  0  0  0  0  0  0  0
    5.1391    2.4350    1.3026 H   0  0  0  0  0  0  0  0  0  0  0  0
    3.4255    1.4189    0.4411 C   0  0  0  0  0  0  0  0  0  0  0  0
    3.7776    0.4183    0.7367 H   0  0  0  0  0  0  0  0  0  0  0  0
    2.3987   -1.1398   -1.1598 C   0  0  0  0  0  0  0  0  0  0  0  0
    3.1689   -0.9067   -2.3182 C   0  0  0  0  0  0  0  0  0  0  0  0
    3.0281    0.0224   -2.8929 H   0  0  0  0  0  0  0  0  0  0  0  0
    4.1135   -1.8538   -2.7360 C   0  0  0  0  0  0  0  0  0  0  0  0
    4.7067   -1.6720   -3.6454 H   0  0  0  0  0  0  0  0  0  0  0  0
    4.3048   -3.0330   -1.9946 C   0  0  0  0  0  0  0  0  0  0  0  0
    5.0482   -3.7748   -2.3241 H   0  0  0  0  0  0  0  0  0  0  0  0
    3.5466   -3.2647   -0.8370 C   0  0  0  0  0  0  0  0  0  0  0  0
    3.6931   -4.1881   -0.2561 H   0  0  0  0  0  0  0  0  0  0  0  0
    2.5915   -2.3228   -0.4223 C   0  0  0  0  0  0  0  0  0  0  0  0
    1.9797   -2.5000    0.4757 H   0  0  0  0  0  0  0  0  0  0  0  0
   -0.0392    0.5151   -1.8692 C   0  0  0  0  0  0  0  0  0  0  0  0
    0.0703    0.8499   -2.9176 H   0  0  0  0  0  0  0  0  0  0  0  0
   -1.1720    0.2107   -1.1576 C   0  0  0  0  0  3  0  0  0  0  0  0
   -2.5393    0.3726   -1.6736 C   0  0  0  0  0  0  0  0  0  0  0  0
   -2.9351    1.5728   -2.3113 C   0  0  0  0  0  0  0  0  0  0  0  0
   -2.1982    2.3837   -2.4193 H   0  0  0  0  0  0  0  0  0  0  0  0
   -4.2475    1.7429   -2.7745 C   0  0  0  0  0  0  0  0  0  0  0  0
   -4.5395    2.6900   -3.2545 H   0  0  0  0  0  0  0  0  0  0  0  0
   -5.1885    0.7112   -2.6262 C   0  0  0  0  0  0  0  0  0  0  0  0
   -6.2188    0.8443   -2.9898 H   0  0  0  0  0  0  0  0  0  0  0  0
   -4.8049   -0.4927   -2.0101 C   0  0  0  0  0  0  0  0  0  0  0  0
   -5.5332   -1.3111   -1.9001 H   0  0  0  0  0  0  0  0  0  0  0  0
   -3.5000   -0.6557   -1.5272 C   0  0  0  0  0  0  0  0  0  0  0  0
   -3.1972   -1.5941   -1.0412 H   0  0  0  0  0  0  0  0  0  0  0  0
  1  2  1  0  0  0  0
  2 11  1  0  0  0  0
  3  5  1  0  0  0  0
  3  2  2  0  0  0  0
  4  3  1  0  0  0  0
  5  7  2  0  0  0  0
  6  5  1  0  0  0  0
  7  8  1  0  0  0  0
  7  9  1  0  0  0  0
  9 10  1  0  0  0  0
 11 12  1  0  0  0  0
 11  9  2  0  0  0  0
 13  1  1  0  0  0  0
 13 22  1  0  0  0  0
 14 13  2  0  0  0  0
 15 14  1  0  0  0  0
 16 14  1  0  0  0  0
 16 18  2  0  0  0  0
 17 16  1  0  0  0  0
 18 20  1  0  0  0  0
 19 18  1  0  0  0  0
 20 22  2  0  0  0  0
 20 21  1  0  0  0  0
 22 23  1  0  0  0  0
 24 26  2  0  0  0  0
 24  1  1  0  0  0  0
 25 24  1  0  0  0  0
 27 36  1  0  0  0  0
 27 26  1  0  0  0  0
 28 27  2  0  0  0  0
 29 28  1  0  0  0  0
 30 32  2  0  0  0  0
 30 28  1  0  0  0  0
 31 30  1  0  0  0  0
 32 34  1  0  0  0  0
 33 32  1  0  0  0  0
 34 35  1  0  0  0  0
 34 36  2  0  0  0  0
 36 37  1  0  0  0  0
M  END
