2
q = 0.0, confidence = 0.972

 39 40  0  0  1  0  0  0  0  0999 V2000
    0.7707    0.9027   -0.6454 C   0  0  0  0  0  3  0  0  0  0  0  0
    2.0231    1.6007   -0.7368 C   0  0  0  0  0  3  0  0  0  0  0  0
    3.1159    0.9003   -1.3261 C   0  0  0  0  0  3  0  0  0  0  0  0
    2.8870   -0.4394   -1.7841 C   0  0  0  0  0  3  0  0  0  0  0  0
    4.0222   -1.3186   -2.2378 C   0  0  0  0  0  0  0  0  0  0  0  0
   -0.9836    0.4443    0.9358 O   0  0  0  0  0  0  0  0  0  0  0  0
   -0.3720    1.4665    0.1602 C   0  0  2  0  0  0  0  0  0  0  0  0
   -1.4491    1.9792   -0.6763 N   0  0  0  0  0  0  0  0  0  0  0  0
   -2.6122    1.9938    0.2098 C   0  0  2  0  0  0  0  0  0  0  0  0
   -2.3964    0.6625    0.9949 C   0  0  1  0  0  0  0  0  0  0  0  0
   -1.1487    3.2278   -1.3426 C   0  0  0  0  0  0  0  0  0  0  0  0
   -3.9395    2.1326   -0.5218 C   0  0  0  0  0  0  0  0  0  0  0  0
   -3.1510   -0.5310    0.4453 C   0  0  0  0  0  0  0  0  0  0  0  0
   -2.6346   -1.2859   -0.6241 C   0  0  0  0  0  0  0  0  0  0  0  0
   -3.3672   -2.3566   -1.1561 C   0  0  0  0  0  0  0  0  0  0  0  0
   -4.6250   -2.6875   -0.6257 C   0  0  0  0  0  0  0  0  0  0  0  0
   -5.1426   -1.9458    0.4477 C   0  0  0  0  0  0  0  0  0  0  0  0
   -4.4053   -0.8781    0.9814 C   0  0  0  0  0  0  0  0  0  0  0  0
    0.4198    0.3104   -1.5077 H   0  0  0  0  0  0  0  0  0  0  0  0
    2.1794    2.5813   -0.2591 H   0  0  0  0  0  0  0  0  0  0  0  0
    4.1289    1.3342   -1.2998 H   0  0  0  0  0  0  0  0  0  0  0  0
    1.9265   -0.6436   -2.2865 H   0  0  0  0  0  0  0  0  0  0  0  0
    4.9634   -1.1033   -1.6946 H   0  0  0  0  0  0  0  0  0  0  0  0
    3.7852   -2.3908   -2.0894 H   0  0  0  0  0  0  0  0  0  0  0  0
    4.2174   -1.1785   -3.3239 H   0  0  0  0  0  0  0  0  0  0  0  0
    0.0195    2.2710    0.8527 H   0  0  0  0  0  0  0  0  0  0  0  0
   -2.5198    2.8350    0.9520 H   0  0  0  0  0  0  0  0  0  0  0  0
   -2.7001    0.8150    2.0549 H   0  0  0  0  0  0  0  0  0  0  0  0
   -0.2438    3.1114   -1.9719 H   0  0  0  0  0  0  0  0  0  0  0  0
   -1.9827    3.5169   -2.0112 H   0  0  0  0  0  0  0  0  0  0  0  0
   -0.9680    4.0757   -0.6284 H   0  0  0  0  0  0  0  0  0  0  0  0
   -4.0359    1.3561   -1.3048 H   0  0  0  0  0  0  0  0  0  0  0  0
   -4.0320    3.1308   -0.9940 H   0  0  0  0  0  0  0  0  0  0  0  0
   -4.7862    2.0197    0.1837 H   0  0  0  0  0  0  0  0  0  0  0  0
   -1.6440   -1.0312   -1.0241 H   0  0  0  0  0  0  0  0  0  0  0  0
   -2.9496   -2.9434   -1.9887 H   0  0  0  0  0  0  0  0  0  0  0  0
   -5.1969   -3.5308   -1.0419 H   0  0  0  0  0  0  0  0  0  0  0  0
   -6.1209   -2.2072    0.8794 H   0  0  0  0  0  0  0  0  0  0  0  0
   -4.8064   -0.3068    1.8347 H   0  0  0  0  0  0  0  0  0  0  0  0
  1  7  1  0  0  0  0
  2  1  1  0  0  0  0
  2 20  1  0  0  0  0
  3 21  1  0  0  0  0
  3  2  1  0  0  0  0
  4  3  1  0  0  0  0
  5 24  1  0  0  0  0
  5  4  1  0  0  0  0
  5 23  1  0  0  0  0
  6 10  1  0  0  0  0
  7 26  1  1  0  0  0
  7  6  1  0  0  0  0
  8  7  1  0  0  0  0
  8  9  1  0  0  0  0
  9 27  1  1  0  0  0
  9 10  1  0  0  0  0
 10 28  1  1  0  0  0
 11  8  1  0  0  0  0
 11 31  1  0  0  0  0
 12 34  1  0  0  0  0
 12  9  1  0  0  0  0
 13 18  1  0  0  0  0
 13 10  1  0  0  0  0
 14 13  2  0  0  0  0
 15 16  2  0  0  0  0
 15 14  1  0  0  0  0
 16 17  1  0  0  0  0
 17 38  1  0  0  0  0
 17 18  2  0  0  0  0
 18 39  1  0  0  0  0
 19  1  1  0  0  0  0
 22  4  1  0  0  0  0
 25  5  1  0  0  0  0
 29 11  1  0  0  0  0
 30 11  1  0  0  0  0
 32 12  1  0  0  0  0
 33 12  1  0  0  0  0
 35 14  1  0  0  0  0
 36 15  1  0  0  0  0
 37 16  1  0  0  0  0
M  END
