4
q = 0.0, confidence = 0.988

 29 29  0  0  0  0  0  0  0  0999 V2000
    2.9864   -2.8160    1.3487 C   0  0  0  0  0  0  0  0  0  0  0  0
    2.2568   -1.4993    1.3634 C   0  0  0  0  0  3  0  0  0  0  0  0
    2.8777   -0.3045    1.8539 C   0  0  0  0  0  3  0  0  0  0  0  0
    2.2074    0.9373    1.6618 C   0  0  0  0  0  3  0  0  0  0  0  0
    0.9112    0.9238    1.0310 C   0  0  0  0  0  3  0  0  0  0  0  0
    0.2752    2.1761    0.6516 C   0  0  0  0  0  0  0  0  0  0  0  0
   -1.0324    2.4144    0.3307 C   0  0  0  0  0  0  0  0  0  0  0  0
   -2.1449    1.4760    0.1869 C   0  0  0  0  0  0  0  0  0  0  0  0
   -3.4684    1.9622    0.3627 C   0  0  0  0  0  0  0  0  0  0  0  0
   -4.5761    1.1209    0.2522 C   0  0  0  0  0  0  0  0  0  0  0  0
   -4.3678   -0.2301   -0.0609 C   0  0  0  0  0  0  0  0  0  0  0  0
   -5.5349   -1.1312   -0.1803 N   0  0  0  0  0  0  0  0  0  0  0  0
   -5.3138   -2.3142   -0.4437 O   0  0  0  0  0  0  0  0  0  0  0  0
   -6.6512   -0.6398   -0.0063 O   0  0  0  0  0  0  0  0  0  0  0  0
   -3.0819   -0.7436   -0.2789 C   0  0  0  0  0  0  0  0  0  0  0  0
   -1.9817    0.1072   -0.1554 C   0  0  0  0  0  0  0  0  0  0  0  0
    2.6057   -3.4782    0.5461 H   0  0  0  0  0  0  0  0  0  0  0  0
    4.0764   -2.6902    1.1962 H   0  0  0  0  0  0  0  0  0  0  0  0
    2.8369   -3.3555    2.3096 H   0  0  0  0  0  0  0  0  0  0  0  0
    1.1635   -1.5883    1.4837 H   0  0  0  0  0  0  0  0  0  0  0  0
    3.9067   -0.3159    2.2488 H   0  0  0  0  0  0  0  0  0  0  0  0
    2.7063    1.8843    1.9215 H   0  0  0  0  0  0  0  0  0  0  0  0
    0.2357    0.0871    1.2649 H   0  0  0  0  0  0  0  0  0  0  0  0
    0.9354    3.0615    0.6724 H   0  0  0  0  0  0  0  0  0  0  0  0
   -1.3101    3.4729    0.1930 H   0  0  0  0  0  0  0  0  0  0  0  0
   -3.6181    3.0257    0.6040 H   0  0  0  0  0  0  0  0  0  0  0  0
   -5.6033    1.4801    0.3986 H   0  0  0  0  0  0  0  0  0  0  0  0
   -2.9707   -1.8007   -0.5546 H   0  0  0  0  0  0  0  0  0  0  0  0
   -0.9824   -0.2852   -0.3774 H   0  0  0  0  0  0  0  0  0  0  0  0
  1  2  1  0  0  0  0
  1 19  1  0  0  0  0
  2 20  1  0  0  0  0
  2  3  1  0  0  0  0
  3 21  1  0  0  0  0
  4  3  1  0  0  0  0
  4 22  1  0  0  0  0
  5 23  1  0  0  0  0
  5  4  1  0  0  0  0
  6 24  1  0  0  0  0
  6  5  1  0  0  0  0
  7  6  2  0  0  0  0
  8  7  1  0  0  0  0
  8  9  1  0  0  0  0
  9 26  1  0  0  0  0
 10  9  2  0  0  0  0
 10 27  1  0  0  0  0
 11 10  1  0  0  0  0
 12 11  1  0  0  0  0
 12 14  2  0  0  0  0
 13 12  2  0  0  0  0
 15 16  1  0  0  0  0
 15 11  2  0  0  0  0
 16  8  2  0  0  0  0
 17  1  1  0  0  0  0
 18  1  1  0  0  0  0
 25  7  1  0  0  0  0
 28 15  1  0  0  0  0
 29 16  1  0  0  0  0
M  END
