2
q = -1.0, confidence = 0.0

 37 38  0  0  1  0  0  0  0  0999 V2000
   -3.7584   -0.9389   -0.7654 Si  0  0  0  0  0  0  0  0  0  0  0  0
   -1.0542   -0.4819    0.2532 C   0  0  0  0  0  2  0  0  0  0  0  0
   -2.0620   -0.0541   -0.5802 C   0  0  1  0  0  3  0  0  0  0  0  0
   -1.3569   -1.3184    1.4454 C   0  0  0  0  0  0  0  0  0  0  0  0
   -0.5560   -2.4129    1.8468 C   0  0  0  0  0  0  0  0  0  0  0  0
   -0.8496   -3.1565    2.9950 C   0  0  0  0  0  0  0  0  0  0  0  0
   -1.9454   -2.8109    3.8053 C   0  0  0  0  0  0  0  0  0  0  0  0
   -2.7390   -1.7113    3.4457 C   0  0  0  0  0  0  0  0  0  0  0  0
   -2.4473   -0.9787    2.2854 C   0  0  0  0  0  0  0  0  0  0  0  0
   -1.8554    1.0297   -1.5845 C   0  0  0  0  0  0  0  0  0  0  0  0
   -2.7536    2.1245   -1.6232 C   0  0  0  0  0  0  0  0  0  0  0  0
   -2.6032    3.1635   -2.5544 C   0  0  0  0  0  0  0  0  0  0  0  0
   -1.5561    3.1294   -3.4887 C   0  0  0  0  0  0  0  0  0  0  0  0
   -0.6620    2.0468   -3.4749 C   0  0  0  0  0  0  0  0  0  0  0  0
   -0.8098    1.0180   -2.5344 C   0  0  0  0  0  0  0  0  0  0  0  0
   -3.6807   -2.7658   -0.2572 C   0  0  0  0  0  0  0  0  0  0  0  0
   -5.2257   -0.1182    0.1280 C   0  0  0  0  0  0  0  0  0  0  0  0
   -4.1637   -0.8966   -2.6221 C   0  0  0  0  0  0  0  0  0  0  0  0
    0.3227   -2.6692    1.2456 H   0  0  0  0  0  0  0  0  0  0  0  0
   -0.2090   -4.0098    3.2673 H   0  0  0  0  0  0  0  0  0  0  0  0
   -2.1689   -3.3868    4.7161 H   0  0  0  0  0  0  0  0  0  0  0  0
   -3.5925   -1.4157    4.0755 H   0  0  0  0  0  0  0  0  0  0  0  0
   -3.0677   -0.1131    2.0147 H   0  0  0  0  0  0  0  0  0  0  0  0
   -3.5815    2.1613   -0.8983 H   0  0  0  0  0  0  0  0  0  0  0  0
   -3.3121    4.0060   -2.5497 H   0  0  0  0  0  0  0  0  0  0  0  0
   -1.4387    3.9401   -4.2235 H   0  0  0  0  0  0  0  0  0  0  0  0
    0.1635    2.0030   -4.2025 H   0  0  0  0  0  0  0  0  0  0  0  0
   -0.1079    0.1764   -2.5294 H   0  0  0  0  0  0  0  0  0  0  0  0
   -4.5655   -3.2903   -0.6754 H   0  0  0  0  0  0  0  0  0  0  0  0
   -2.7722   -3.2513   -0.6663 H   0  0  0  0  0  0  0  0  0  0  0  0
   -3.6772   -2.9110    0.8395 H   0  0  0  0  0  0  0  0  0  0  0  0
   -6.1619   -0.6438   -0.1560 H   0  0  0  0  0  0  0  0  0  0  0  0
   -5.1341   -0.1715    1.2309 H   0  0  0  0  0  0  0  0  0  0  0  0
   -5.3443    0.9465   -0.1582 H   0  0  0  0  0  0  0  0  0  0  0  0
   -5.0964   -1.4652   -2.8190 H   0  0  0  0  0  0  0  0  0  0  0  0
   -4.3050    0.1399   -2.9869 H   0  0  0  0  0  0  0  0  0  0  0  0
   -3.3516   -1.3531   -3.2237 H   0  0  0  0  0  0  0  0  0  0  0  0
  1  3  1  0  0  0  0
  1 16  1  0  0  0  0
  1 17  1  0  0  0  0
  2  4  1  0  0  0  0
  3  2  1  6  0  0  0
  4  5  2  0  0  0  0
  4  9  1  0  0  0  0
  5  6  1  0  0  0  0
  6 20  1  0  0  0  0
  6  7  2  0  0  0  0
  7 21  1  0  0  0  0
  8  7  1  0  0  0  0
  8 22  1  0  0  0  0
  9  8  2  0  0  0  0
 10  3  1  0  0  0  0
 11 10  1  0  0  0  0
 11 24  1  0  0  0  0
 12 25  1  0  0  0  0
 12 11  2  0  0  0  0
 13 14  2  0  0  0  0
 13 12  1  0  0  0  0
 14 15  1  0  0  0  0
 15 28  1  0  0  0  0
 15 10  2  0  0  0  0
 16 31  1  0  0  0  0
 17 33  1  0  0  0  0
 18  1  1  0  0  0  0
 19  5  1  0  0  0  0
 23  9  1  0  0  0  0
 26 13  1  0  0  0  0
 27 14  1  0  0  0  0
 29 16  1  0  0  0  0
 30 16  1  0  0  0  0
 32 17  1  0  0  0  0
 34 17  1  0  0  0  0
 35 18  1  0  0  0  0
 36 18  1  0  0  0  0
 37 18  1  0  0  0  0
M  END
