1
q = -1.0, confidence = 0.01

 33 32  0  0  0  0  0  0  0  0999 V2000
    0.3608   -0.4371   -0.7189 C   0  0  0  0  0  3  0  0  0  0  0  0
    1.5902   -0.2936   -0.5638 C   0  0  0  0  0  0  0  0  0  0  0  0
    3.3719   -0.0627   -0.2100 Si  0  0  0  0  0  0  0  0  0  0  0  0
    3.5612   -0.1081    1.7085 C   0  0  0  0  0  0  0  0  0  0  0  0
    3.0057   -1.0382    1.9755 H   0  0  0  0  0  0  0  0  0  0  0  0
    5.0087   -0.2758    2.1952 C   0  0  0  0  0  0  0  0  0  0  0  0
    5.0491   -0.4043    3.2993 H   0  0  0  0  0  0  0  0  0  0  0  0
    5.6291    0.6104    1.9504 H   0  0  0  0  0  0  0  0  0  0  0  0
    5.5043   -1.1584    1.7425 H   0  0  0  0  0  0  0  0  0  0  0  0
    2.8610    1.0655    2.4083 C   0  0  0  0  0  0  0  0  0  0  0  0
    2.8397    0.9284    3.5124 H   0  0  0  0  0  0  0  0  0  0  0  0
    1.8117    1.1849    2.0671 H   0  0  0  0  0  0  0  0  0  0  0  0
    3.3853    2.0245    2.2138 H   0  0  0  0  0  0  0  0  0  0  0  0
    4.3360   -1.5380   -0.9671 C   0  0  0  0  0  0  0  0  0  0  0  0
    5.4105   -1.3766   -0.7171 H   0  0  0  0  0  0  0  0  0  0  0  0
    3.8809   -2.8639   -0.3366 C   0  0  0  0  0  0  0  0  0  0  0  0
    4.4210   -3.7281   -0.7810 H   0  0  0  0  0  0  0  0  0  0  0  0
    2.7954   -3.0281   -0.5054 H   0  0  0  0  0  0  0  0  0  0  0  0
    4.0546   -2.8940    0.7586 H   0  0  0  0  0  0  0  0  0  0  0  0
    4.1917   -1.5747   -2.4962 C   0  0  0  0  0  0  0  0  0  0  0  0
    4.7245   -2.4491   -2.9291 H   0  0  0  0  0  0  0  0  0  0  0  0
    4.6024   -0.6655   -2.9807 H   0  0  0  0  0  0  0  0  0  0  0  0
    3.1242   -1.6550   -2.7915 H   0  0  0  0  0  0  0  0  0  0  0  0
    3.9466    1.5788   -1.0290 C   0  0  0  0  0  0  0  0  0  0  0  0
    3.9451    1.3207   -2.1131 H   0  0  0  0  0  0  0  0  0  0  0  0
    5.3792    1.9777   -0.6430 C   0  0  0  0  0  0  0  0  0  0  0  0
    5.7397    2.8316   -1.2571 H   0  0  0  0  0  0  0  0  0  0  0  0
    6.1018    1.1462   -0.7777 H   0  0  0  0  0  0  0  0  0  0  0  0
    5.4392    2.2982    0.4185 H   0  0  0  0  0  0  0  0  0  0  0  0
    2.9583    2.7400   -0.8447 C   0  0  0  0  0  0  0  0  0  0  0  0
    3.2730    3.6312   -1.4310 H   0  0  0  0  0  0  0  0  0  0  0  0
    2.8904    3.0585    0.2170 H   0  0  0  0  0  0  0  0  0  0  0  0
    1.9390    2.4580   -1.1765 H   0  0  0  0  0  0  0  0  0  0  0  0
  1  2  3  0  0  0  0
  2  3  1  0  0  0  0
  3  4  1  0  0  0  0
  4  5  1  0  0  0  0
  4  6  1  0  0  0  0
  4 10  1  0  0  0  0
  6  7  1  0  0  0  0
  8  6  1  0  0  0  0
  9  6  1  0  0  0  0
 10 11  1  0  0  0  0
 12 10  1  0  0  0  0
 13 10  1  0  0  0  0
 14 15  1  0  0  0  0
 14 16  1  0  0  0  0
 14  3  1  0  0  0  0
 16 19  1  0  0  0  0
 17 16  1  0  0  0  0
 18 16  1  0  0  0  0
 20 14  1  0  0  0  0
 21 20  1  0  0  0  0
 22 20  1  0  0  0  0
 23 20  1  0  0  0  0
 24 30  1  0  0  0  0
 24 26  1  0  0  0  0
 24  3  1  0  0  0  0
 25 24  1  0  0  0  0
 26 29  1  0  0  0  0
 27 26  1  0  0  0  0
 28 26  1  0  0  0  0
 30 32  1  0  0  0  0
 31 30  1  0  0  0  0
 33 30  1  0  0  0  0
M  END
