8
q = -1.0, confidence = 0.006

 38 38  0  0  1  0  0  0  0  0999 V2000
   -4.4338   -1.0531   -0.5962 C   0  0  0  0  0  0  0  0  0  0  0  0
   -4.0125    0.0818   -0.0077 C   0  0  0  0  0  0  0  0  0  0  0  0
   -2.8574    0.1674    0.9453 C   0  0  0  0  0  0  0  0  0  0  0  0
   -1.5861    0.8920    0.3809 C   0  0  2  0  0  0  0  0  0  0  0  0
   -1.0291    0.2104   -0.8878 C   0  0  1  0  0  3  0  0  0  0  0  0
   -0.6139   -1.1593   -0.7521 C   0  0  0  0  0  0  0  0  0  0  0  0
   -0.1276   -1.6010    0.5435 C   0  0  0  0  0  0  0  0  0  0  0  0
    0.0599   -0.6109    1.5891 C   0  0  1  0  0  3  0  0  0  0  0  0
   -0.3887    0.7324    1.3435 C   0  0  2  0  0  3  0  0  0  0  0  0
   -1.9191    2.3691    0.1347 C   0  0  0  0  0  0  0  0  0  0  0  0
   -1.4097    0.7592   -2.2440 C   0  0  0  0  0  0  0  0  0  0  0  0
   -0.6590   -2.1327   -1.9054 C   0  0  0  0  0  0  0  0  0  0  0  0
    0.1865   -3.0502    0.8276 C   0  0  0  0  0  0  0  0  0  0  0  0
    0.6935   -1.0418    2.8892 C   0  0  0  0  0  0  0  0  0  0  0  0
   -0.1137    1.8212    2.3553 C   0  0  0  0  0  0  0  0  0  0  0  0
   -3.9478   -2.0203   -0.3814 H   0  0  0  0  0  0  0  0  0  0  0  0
   -5.2770   -1.0620   -1.3046 H   0  0  0  0  0  0  0  0  0  0  0  0
   -4.5340    1.0257   -0.2505 H   0  0  0  0  0  0  0  0  0  0  0  0
   -2.5651   -0.8565    1.2525 H   0  0  0  0  0  0  0  0  0  0  0  0
   -3.1663    0.7096    1.8676 H   0  0  0  0  0  0  0  0  0  0  0  0
   -2.2716    2.8515    1.0673 H   0  0  0  0  0  0  0  0  0  0  0  0
   -1.0385    2.9318   -0.2318 H   0  0  0  0  0  0  0  0  0  0  0  0
   -2.7249    2.4783   -0.6155 H   0  0  0  0  0  0  0  0  0  0  0  0
   -1.2817    1.8562   -2.2826 H   0  0  0  0  0  0  0  0  0  0  0  0
   -0.7767    0.3408   -3.0477 H   0  0  0  0  0  0  0  0  0  0  0  0
   -2.4734    0.5389   -2.4829 H   0  0  0  0  0  0  0  0  0  0  0  0
   -0.7125   -1.6105   -2.8755 H   0  0  0  0  0  0  0  0  0  0  0  0
    0.2194   -2.8049   -1.9350 H   0  0  0  0  0  0  0  0  0  0  0  0
   -1.5679   -2.7677   -1.8259 H   0  0  0  0  0  0  0  0  0  0  0  0
    0.0751   -3.6878   -0.0661 H   0  0  0  0  0  0  0  0  0  0  0  0
    1.2137   -3.1967    1.2165 H   0  0  0  0  0  0  0  0  0  0  0  0
   -0.5028   -3.4457    1.6039 H   0  0  0  0  0  0  0  0  0  0  0  0
    1.5656   -1.7066    2.7406 H   0  0  0  0  0  0  0  0  0  0  0  0
    1.0241   -0.1808    3.4944 H   0  0  0  0  0  0  0  0  0  0  0  0
   -0.0470   -1.6087    3.4948 H   0  0  0  0  0  0  0  0  0  0  0  0
    0.8651    1.6842    2.8501 H   0  0  0  0  0  0  0  0  0  0  0  0
   -0.0889    2.8177    1.8777 H   0  0  0  0  0  0  0  0  0  0  0  0
   -0.8975    1.8555    3.1458 H   0  0  0  0  0  0  0  0  0  0  0  0
  1 16  1  0  0  0  0
  1  2  2  0  0  0  0
  2  3  1  0  0  0  0
  3 19  1  0  0  0  0
  3 20  1  0  0  0  0
  4 10  1  6  0  0  0
  4  3  1  0  0  0  0
  4  9  1  0  0  0  0
  5 11  1  6  0  0  0
  5  6  1  0  0  0  0
  5  4  1  0  0  0  0
  6  7  2  0  0  0  0
  7 13  1  0  0  0  0
  7  8  1  0  0  0  0
  8 14  1  1  0  0  0
  9  8  1  0  0  0  0
  9 15  1  1  0  0  0
 10 21  1  0  0  0  0
 12 29  1  0  0  0  0
 12  6  1  0  0  0  0
 13 31  1  0  0  0  0
 13 32  1  0  0  0  0
 14 34  1  0  0  0  0
 14 35  1  0  0  0  0
 15 36  1  0  0  0  0
 15 38  1  0  0  0  0
 17  1  1  0  0  0  0
 18  2  1  0  0  0  0
 22 10  1  0  0  0  0
 23 10  1  0  0  0  0
 24 11  1  0  0  0  0
 25 11  1  0  0  0  0
 26 11  1  0  0  0  0
 27 12  1  0  0  0  0
 28 12  1  0  0  0  0
 30 13  1  0  0  0  0
 33 14  1  0  0  0  0
 37 15  1  0  0  0  0
M  END
