3
q = 0.0, confidence = 0.992

 32 33  0  0  0  0  0  0  0  0999 V2000
   -0.3384    1.9227   -0.2466 N   0  0  0  0  0  0  0  0  0  0  0  0
   -4.6566    2.6943   -0.4705 O   0  0  0  0  0  0  0  0  0  0  0  0
    0.0610    0.5880   -0.2311 C   0  0  0  0  0  2  0  0  0  0  0  0
   -1.0190   -0.3298   -0.2323 C   0  0  0  0  0  0  0  0  0  0  0  0
   -2.3642    0.0253   -0.1279 C   0  0  0  0  0  0  0  0  0  0  0  0
   -2.6842    1.4126   -0.0224 C   0  0  0  0  0  0  0  0  0  0  0  0
   -1.6513    2.3533   -0.1304 C   0  0  0  0  0  0  0  0  0  0  0  0
   -1.8990    3.8343   -0.0756 C   0  0  0  0  0  0  0  0  0  0  0  0
    0.6986    2.9563   -0.3666 C   0  0  0  0  0  0  0  0  0  0  0  0
   -4.1052    1.8684    0.2458 C   0  0  0  0  0  0  0  0  0  0  0  0
   -4.7618    1.3403    1.5064 C   0  0  0  0  0  0  0  0  0  0  0  0
   -3.4057   -1.0289   -0.1584 C   0  0  0  0  0  0  0  0  0  0  0  0
   -3.2347   -2.2174    0.5881 C   0  0  0  0  0  0  0  0  0  0  0  0
   -4.2102   -3.2227    0.5555 C   0  0  0  0  0  0  0  0  0  0  0  0
   -5.3636   -3.0629   -0.2298 C   0  0  0  0  0  0  0  0  0  0  0  0
   -5.5362   -1.8923   -0.9857 C   0  0  0  0  0  0  0  0  0  0  0  0
   -4.5671   -0.8808   -0.9508 C   0  0  0  0  0  0  0  0  0  0  0  0
   -0.7785   -1.3975   -0.3271 H   0  0  0  0  0  0  0  0  0  0  0  0
   -1.2714    4.3242    0.6954 H   0  0  0  0  0  0  0  0  0  0  0  0
   -2.9604    4.0508    0.1206 H   0  0  0  0  0  0  0  0  0  0  0  0
   -1.6550    4.3125   -1.0469 H   0  0  0  0  0  0  0  0  0  0  0  0
    1.6199    2.4670   -0.7149 H   0  0  0  0  0  0  0  0  0  0  0  0
    0.8986    3.4332    0.6130 H   0  0  0  0  0  0  0  0  0  0  0  0
    0.3935    3.7291   -1.0937 H   0  0  0  0  0  0  0  0  0  0  0  0
   -5.8609    1.4185    1.4165 H   0  0  0  0  0  0  0  0  0  0  0  0
   -4.4352    2.0006    2.3399 H   0  0  0  0  0  0  0  0  0  0  0  0
   -4.4602    0.3093    1.7656 H   0  0  0  0  0  0  0  0  0  0  0  0
   -2.3391   -2.3374    1.2170 H   0  0  0  0  0  0  0  0  0  0  0  0
   -4.0700   -4.1369    1.1517 H   0  0  0  0  0  0  0  0  0  0  0  0
   -6.1278   -3.8543   -0.2554 H   0  0  0  0  0  0  0  0  0  0  0  0
   -6.4305   -1.7677   -1.6147 H   0  0  0  0  0  0  0  0  0  0  0  0
   -4.6978    0.0233   -1.5640 H   0  0  0  0  0  0  0  0  0  0  0  0
  1  3  1  0  0  0  0
  1  7  1  0  0  0  0
  2 10  2  0  0  0  0
  4  3  1  0  0  0  0
  4  5  2  0  0  0  0
  5  6  1  0  0  0  0
  6 10  1  0  0  0  0
  7  8  1  0  0  0  0
  7  6  2  0  0  0  0
  8 20  1  0  0  0  0
  8 19  1  0  0  0  0
  9  1  1  0  0  0  0
  9 23  1  0  0  0  0
 10 11  1  0  0  0  0
 11 27  1  0  0  0  0
 11 26  1  0  0  0  0
 12  5  1  0  0  0  0
 12 13  1  0  0  0  0
 13 28  1  0  0  0  0
 14 13  2  0  0  0  0
 14 29  1  0  0  0  0
 15 14  1  0  0  0  0
 16 17  1  0  0  0  0
 16 15  2  0  0  0  0
 17 12  2  0  0  0  0
 18  4  1  0  0  0  0
 21  8  1  0  0  0  0
 22  9  1  0  0  0  0
 24  9  1  0  0  0  0
 25 11  1  0  0  0  0
 30 15  1  0  0  0  0
 31 16  1  0  0  0  0
 32 17  1  0  0  0  0
M  END
