4
q = -2.0, confidence = 0.758

 45 44  0  0  0  0  0  0  0  0999 V2000
   -1.2005   -2.6242   -0.3560 Si  0  0  0  0  0  0  0  0  0  0  0  0
    0.0373    1.5431   -0.1527 N   0  0  0  0  0  0  0  0  0  0  0  0
   -2.9704    0.7913    0.1216 N   0  0  0  0  0  0  0  0  0  0  0  0
   -0.6468    0.4643   -0.2735 C   0  0  0  0  0  3  0  0  0  0  0  0
   -2.0646    0.0968   -0.4911 C   0  0  0  0  0  0  0  0  0  0  0  0
   -2.1432   -1.1856   -1.2733 C   0  0  0  0  0  0  0  0  0  0  0  0
    0.6312   -2.3071   -0.5177 C   0  0  0  0  0  3  0  0  0  0  0  0
   -1.8217   -2.7512    1.4342 C   0  0  0  0  0  0  0  0  0  0  0  0
   -1.7641   -4.2100   -1.2479 C   0  0  0  0  0  0  0  0  0  0  0  0
   -0.3423    2.9829   -0.1852 C   0  0  0  0  0  0  0  0  0  0  0  0
   -1.2162    3.2641   -1.4182 C   0  0  0  0  0  0  0  0  0  0  0  0
   -1.1209    3.2873    1.1098 C   0  0  0  0  0  0  0  0  0  0  0  0
    0.9450    3.8182   -0.2333 C   0  0  0  0  0  0  0  0  0  0  0  0
   -4.4176    0.5127    0.1222 C   0  0  0  0  0  0  0  0  0  0  0  0
   -5.0452    1.5897    1.0310 C   0  0  0  0  0  0  0  0  0  0  0  0
   -4.7673   -0.8720    0.7025 C   0  0  0  0  0  0  0  0  0  0  0  0
   -4.9897    0.6783   -1.3025 C   0  0  0  0  0  0  0  0  0  0  0  0
   -3.1692   -1.4837   -1.5510 H   0  0  0  0  0  0  0  0  0  0  0  0
   -1.5512   -1.0712   -2.2098 H   0  0  0  0  0  0  0  0  0  0  0  0
    1.2057   -3.1147   -0.0082 H   0  0  0  0  0  0  0  0  0  0  0  0
    0.8236   -2.4580   -1.6036 H   0  0  0  0  0  0  0  0  0  0  0  0
   -1.7545   -1.7857    1.9729 H   0  0  0  0  0  0  0  0  0  0  0  0
   -1.2210   -3.4983    1.9938 H   0  0  0  0  0  0  0  0  0  0  0  0
   -2.8773   -3.0866    1.4671 H   0  0  0  0  0  0  0  0  0  0  0  0
   -1.4874   -4.1839   -2.3224 H   0  0  0  0  0  0  0  0  0  0  0  0
   -2.8630   -4.3549   -1.1803 H   0  0  0  0  0  0  0  0  0  0  0  0
   -1.2774   -5.1021   -0.8009 H   0  0  0  0  0  0  0  0  0  0  0  0
   -2.1704    2.7084   -1.3554 H   0  0  0  0  0  0  0  0  0  0  0  0
   -1.4449    4.3471   -1.4794 H   0  0  0  0  0  0  0  0  0  0  0  0
   -0.6909    2.9710   -2.3499 H   0  0  0  0  0  0  0  0  0  0  0  0
   -2.0139    2.6335    1.1621 H   0  0  0  0  0  0  0  0  0  0  0  0
   -0.4883    3.1120    2.0028 H   0  0  0  0  0  0  0  0  0  0  0  0
   -1.4344    4.3511    1.1162 H   0  0  0  0  0  0  0  0  0  0  0  0
    1.4928    3.6783   -1.1852 H   0  0  0  0  0  0  0  0  0  0  0  0
    1.6238    3.5400    0.5972 H   0  0  0  0  0  0  0  0  0  0  0  0
    0.7024    4.8948   -0.1367 H   0  0  0  0  0  0  0  0  0  0  0  0
   -4.8020    2.6022    0.6518 H   0  0  0  0  0  0  0  0  0  0  0  0
   -4.6389    1.5076    2.0588 H   0  0  0  0  0  0  0  0  0  0  0  0
   -6.1482    1.4850    1.0784 H   0  0  0  0  0  0  0  0  0  0  0  0
   -5.8666   -0.9694    0.8107 H   0  0  0  0  0  0  0  0  0  0  0  0
   -4.3126   -0.9941    1.7052 H   0  0  0  0  0  0  0  0  0  0  0  0
   -4.4167   -1.7045    0.0652 H   0  0  0  0  0  0  0  0  0  0  0  0
   -4.6004   -0.0859   -2.0019 H   0  0  0  0  0  0  0  0  0  0  0  0
   -6.0954    0.5946   -1.2838 H   0  0  0  0  0  0  0  0  0  0  0  0
   -4.7288    1.6772   -1.7069 H   0  0  0  0  0  0  0  0  0  0  0  0
  1  8  1  0  0  0  0
  3 14  1  0  0  0  0
  4  2  2  0  0  0  0
  5  4  1  0  0  0  0
  5  3  2  0  0  0  0
  6  5  1  0  0  0  0
  6  1  1  0  0  0  0
  7  1  1  0  0  0  0
  7 20  1  0  0  0  0
  8 24  1  0  0  0  0
  8 22  1  0  0  0  0
  8 23  1  0  0  0  0
  9 26  1  0  0  0  0
  9 27  1  0  0  0  0
  9  1  1  0  0  0  0
 10  2  1  0  0  0  0
 10 12  1  0  0  0  0
 11 28  1  0  0  0  0
 11 10  1  0  0  0  0
 12 33  1  0  0  0  0
 12 31  1  0  0  0  0
 12 32  1  0  0  0  0
 13 10  1  0  0  0  0
 13 36  1  0  0  0  0
 13 35  1  0  0  0  0
 14 16  1  0  0  0  0
 14 15  1  0  0  0  0
 15 39  1  0  0  0  0
 15 38  1  0  0  0  0
 16 40  1  0  0  0  0
 16 41  1  0  0  0  0
 17 44  1  0  0  0  0
 17 14  1  0  0  0  0
 18  6  1  0  0  0  0
 19  6  1  0  0  0  0
 21  7  1  0  0  0  0
 25  9  1  0  0  0  0
 29 11  1  0  0  0  0
 30 11  1  0  0  0  0
 34 13  1  0  0  0  0
 37 15  1  0  0  0  0
 42 16  1  0  0  0  0
 43 17  1  0  0  0  0
 45 17  1  0  0  0  0
M  END
