4
q = 0.0, confidence = 0.962

 21 21  0  0  1  0  0  0  0  0999 V2000
    0.6647    2.5426    1.4309 O   0  0  0  0  0  1  0  0  0  0  0  0
    0.3012    4.8215    0.6162 C   0  0  0  0  0  0  0  0  0  0  0  0
   -0.1194    3.3900    0.8111 C   0  0  2  0  0  3  0  0  0  0  0  0
   -1.4047    2.8738    0.4075 C   0  0  0  0  0  3  0  0  0  0  0  0
   -1.6800    1.5244    0.8097 C   0  0  0  0  0  3  0  0  0  0  0  0
   -2.8600    0.7469    0.4062 C   0  0  0  0  0  0  0  0  0  0  0  0
   -3.6398    1.0497   -0.7373 C   0  0  0  0  0  0  0  0  0  0  0  0
   -4.7174    0.2356   -1.1102 C   0  0  0  0  0  0  0  0  0  0  0  0
   -5.0490   -0.9005   -0.3519 C   0  0  0  0  0  0  0  0  0  0  0  0
   -4.2971   -1.2044    0.7953 C   0  0  0  0  0  0  0  0  0  0  0  0
   -3.2222   -0.3899    1.1714 C   0  0  0  0  0  0  0  0  0  0  0  0
   -2.0817    3.4769   -0.2165 H   0  0  0  0  0  0  0  0  0  0  0  0
   -1.2386    1.2288    1.7754 H   0  0  0  0  0  0  0  0  0  0  0  0
   -3.3851    1.9200   -1.3595 H   0  0  0  0  0  0  0  0  0  0  0  0
   -5.3023    0.4882   -2.0080 H   0  0  0  0  0  0  0  0  0  0  0  0
   -5.8920   -1.5413   -0.6513 H   0  0  0  0  0  0  0  0  0  0  0  0
   -4.5487   -2.0873    1.4028 H   0  0  0  0  0  0  0  0  0  0  0  0
   -2.6319   -0.6381    2.0664 H   0  0  0  0  0  0  0  0  0  0  0  0
   -0.2940    5.3220   -0.1711 H   0  0  0  0  0  0  0  0  0  0  0  0
    1.3770    4.8782    0.3644 H   0  0  0  0  0  0  0  0  0  0  0  0
    0.1494    5.3743    1.5676 H   0  0  0  0  0  0  0  0  0  0  0  0
  2  3  1  0  0  0  0
  2 21  1  0  0  0  0
  3  1  1  1  0  0  0
  4  5  1  0  0  0  0
  4  3  1  0  0  0  0
  5 13  1  0  0  0  0
  6  5  1  0  0  0  0
  6 11  1  0  0  0  0
  7  6  2  0  0  0  0
  8  7  1  0  0  0  0
  8  9  2  0  0  0  0
  9 10  1  0  0  0  0
 10 11  2  0  0  0  0
 10 17  1  0  0  0  0
 11 18  1  0  0  0  0
 12  4  1  0  0  0  0
 14  7  1  0  0  0  0
 15  8  1  0  0  0  0
 16  9  1  0  0  0  0
 19  2  1  0  0  0  0
 20  2  1  0  0  0  0
M  END
