3
q = -1.0, confidence = 0.004

 14 13  0  0  0  0  0  0  0  0999 V2000
   -2.5949    0.0110    1.4462 O   0  0  0  0  0  0  0  0  0  0  0  0
   -4.5723    0.0003    0.3349 O   0  0  0  0  0  0  0  0  0  0  0  0
   -2.4715   -0.0148   -0.8980 C   0  0  0  0  0  3  0  0  0  0  0  0
   -3.0665   -0.0322   -2.1159 C   0  0  0  0  0  0  0  0  0  0  0  0
   -3.2250   -0.0007    0.3743 C   0  0  0  0  0  0  0  0  0  0  0  0
   -5.2530    0.0147    1.6103 C   0  0  0  0  0  0  0  0  0  0  0  0
   -6.7433    0.0238    1.3425 C   0  0  0  0  0  0  0  0  0  0  0  0
   -4.1654   -0.0366   -2.2289 H   0  0  0  0  0  0  0  0  0  0  0  0
   -2.4423   -0.0418   -3.0254 H   0  0  0  0  0  0  0  0  0  0  0  0
   -4.9341   -0.8743    2.1952 H   0  0  0  0  0  0  0  0  0  0  0  0
   -4.9205    0.9069    2.1826 H   0  0  0  0  0  0  0  0  0  0  0  0
   -7.0369    0.9196    0.7601 H   0  0  0  0  0  0  0  0  0  0  0  0
   -7.3011    0.0341    2.2997 H   0  0  0  0  0  0  0  0  0  0  0  0
   -7.0501   -0.8749    0.7717 H   0  0  0  0  0  0  0  0  0  0  0  0
  2  5  1  0  0  0  0
  2  6  1  0  0  0  0
  3  5  1  0  0  0  0
  4  3  2  0  0  0  0
  5  1  2  0  0  0  0
  6 11  1  0  0  0  0
  6 10  1  0  0  0  0
  7  6  1  0  0  0  0
  7 13  1  0  0  0  0
  8  4  1  0  0  0  0
  9  4  1  0  0  0  0
 12  7  1  0  0  0  0
 14  7  1  0  0  0  0
M  END
