5
q = -1.0, confidence = 0.0

 11 11  0  0  1  0  0  0  0  0999 V2000
   -4.0455    0.5928   -0.2666 Br  0  0  0  0  0  0  0  0  0  0  0  0
   -1.9051   -1.3485   -0.3338 C   0  0  0  0  0  0  0  0  0  0  0  0
   -2.3010   -0.0628    0.4426 C   0  0  1  0  0  0  0  0  0  0  0  0
   -1.2141    0.8983    0.0648 C   0  0  0  0  0  3  0  0  0  0  0  0
   -0.6427    0.4923   -1.1979 C   0  0  0  0  0  3  0  0  0  0  0  0
   -0.7800   -0.9398   -1.2276 C   0  0  0  0  0  3  0  0  0  0  0  0
   -2.3966   -2.4545   -0.1994 O   0  0  0  0  0  0  0  0  0  0  0  0
   -2.4933   -0.2241    1.5173 H   0  0  0  0  0  0  0  0  0  0  0  0
   -1.2060    1.9421    0.4070 H   0  0  0  0  0  0  0  0  0  0  0  0
   -0.1862    1.1330   -1.9620 H   0  0  0  0  0  0  0  0  0  0  0  0
   -0.3986   -1.5907   -2.0247 H   0  0  0  0  0  0  0  0  0  0  0  0
  1  3  1  0  0  0  0
  2  7  2  0  0  0  0
  2  3  1  0  0  0  0
  3  8  1  1  0  0  0
  4  9  1  0  0  0  0
  4  3  1  0  0  0  0
  5  4  1  0  0  0  0
  6  5  1  0  0  0  0
  6  2  1  0  0  0  0
 10  5  1  0  0  0  0
 11  6  1  0  0  0  0
M  END
