4
q = -1.0, confidence = 0.004

 11 11  0  0  0  0  0  0  0  0999 V2000
    2.8195    0.3031   -0.8299 C   0  0  0  0  0  0  0  0  0  0  0  0
    2.6151   -1.2069   -1.0875 C   0  0  0  0  0  0  0  0  0  0  0  0
    1.1274   -1.2801   -1.3534 C   0  0  0  0  0  3  0  0  0  0  0  0
    0.6619    0.0054   -1.8131 C   0  0  0  0  0  3  0  0  0  0  0  0
    1.5139    0.9607   -1.1515 C   0  0  0  0  0  3  0  0  0  0  0  0
    3.8421    0.8400   -0.4363 O   0  0  0  0  0  0  0  0  0  0  0  0
    3.0016   -1.8307   -0.2577 H   0  0  0  0  0  0  0  0  0  0  0  0
    3.1907   -1.4989   -1.9962 H   0  0  0  0  0  0  0  0  0  0  0  0
    0.6140   -2.2111   -1.6330 H   0  0  0  0  0  0  0  0  0  0  0  0
   -0.1748    0.2172   -2.4906 H   0  0  0  0  0  0  0  0  0  0  0  0
    1.4096    2.0512   -1.2238 H   0  0  0  0  0  0  0  0  0  0  0  0
  1  6  2  0  0  0  0
  2  1  1  0  0  0  0
  2  7  1  0  0  0  0
  3  2  1  0  0  0  0
  4  3  1  0  0  0  0
  4  5  1  0  0  0  0
  5  1  1  0  0  0  0
  8  2  1  0  0  0  0
  9  3  1  0  0  0  0
 10  4  1  0  0  0  0
 11  5  1  0  0  0  0
M  END
