9
q = 0.0, confidence = 0.988

 50 53  0  0  0  0  0  0  0  0999 V2000
   -2.0969    0.0334   -0.1507 N   0  0  0  0  0  0  0  0  0  0  0  0
   -0.5616    1.4314   -0.8315 N   0  0  0  0  0  0  0  0  0  0  0  0
   -2.7520    1.2541   -0.3568 C   0  0  0  0  0  0  0  0  0  0  0  0
   -4.0931    1.6454   -0.2337 C   0  0  0  0  0  0  0  0  0  0  0  0
   -4.4016    2.9755   -0.5529 C   0  0  0  0  0  0  0  0  0  0  0  0
   -3.4060    3.8800   -0.9853 C   0  0  0  0  0  0  0  0  0  0  0  0
   -2.0677    3.4846   -1.1233 C   0  0  0  0  0  0  0  0  0  0  0  0
   -1.7546    2.1549   -0.8011 C   0  0  0  0  0  0  0  0  0  0  0  0
   -0.7564    0.1363   -0.4423 C   0  0  0  0  0  2  0  0  0  0  0  0
   -2.7283   -1.1651    0.3091 C   0  0  0  0  0  0  0  0  0  0  0  0
   -2.5606   -2.3620   -0.4080 C   0  0  0  0  0  0  0  0  0  0  0  0
   -3.1603   -3.5374    0.0653 C   0  0  0  0  0  0  0  0  0  0  0  0
   -3.9351   -3.5164    1.2357 C   0  0  0  0  0  0  0  0  0  0  0  0
   -4.1046   -2.3149    1.9417 C   0  0  0  0  0  0  0  0  0  0  0  0
   -3.4967   -1.1362    1.4858 C   0  0  0  0  0  0  0  0  0  0  0  0
    0.7426    1.9995   -1.2257 C   0  0  0  0  0  0  0  0  0  0  0  0
    1.8820    1.5692   -0.3269 C   0  0  0  0  0  0  0  0  0  0  0  0
    1.8495    1.9916    1.0314 C   0  0  0  0  0  0  0  0  0  0  0  0
    2.8653    1.5583    1.9148 C   0  0  0  0  0  0  0  0  0  0  0  0
    3.8859    0.7327    1.4149 C   0  0  0  0  0  0  0  0  0  0  0  0
    3.9417    0.3166    0.0783 C   0  0  0  0  0  0  0  0  0  0  0  0
    2.9255    0.7408   -0.8204 C   0  0  0  0  0  0  0  0  0  0  0  0
    0.7253    2.8528    1.5568 C   0  0  0  0  0  0  0  0  0  0  0  0
    2.8624    1.9432    3.3742 C   0  0  0  0  0  0  0  0  0  0  0  0
    5.0210   -0.6284   -0.3748 C   0  0  0  0  0  0  0  0  0  0  0  0
    3.0108    0.2420   -2.2436 C   0  0  0  0  0  0  0  0  0  0  0  0
   -4.8662    0.9364    0.0920 H   0  0  0  0  0  0  0  0  0  0  0  0
   -5.4428    3.3198   -0.4695 H   0  0  0  0  0  0  0  0  0  0  0  0
   -3.6870    4.9152   -1.2285 H   0  0  0  0  0  0  0  0  0  0  0  0
   -1.3029    4.1883   -1.4797 H   0  0  0  0  0  0  0  0  0  0  0  0
   -1.9571   -2.3645   -1.3267 H   0  0  0  0  0  0  0  0  0  0  0  0
   -3.0192   -4.4764   -0.4898 H   0  0  0  0  0  0  0  0  0  0  0  0
   -4.4047   -4.4413    1.6022 H   0  0  0  0  0  0  0  0  0  0  0  0
   -4.7007   -2.2954    2.8663 H   0  0  0  0  0  0  0  0  0  0  0  0
   -3.5946   -0.1981    2.0513 H   0  0  0  0  0  0  0  0  0  0  0  0
    0.6199    3.0997   -1.1962 H   0  0  0  0  0  0  0  0  0  0  0  0
    0.9299    1.7292   -2.2805 H   0  0  0  0  0  0  0  0  0  0  0  0
    4.6694    0.3834    2.1069 H   0  0  0  0  0  0  0  0  0  0  0  0
    0.3212    3.5508    0.7982 H   0  0  0  0  0  0  0  0  0  0  0  0
    1.0488    3.4648    2.4192 H   0  0  0  0  0  0  0  0  0  0  0  0
   -0.1328    2.2361    1.9051 H   0  0  0  0  0  0  0  0  0  0  0  0
    1.9346    1.6133    3.8872 H   0  0  0  0  0  0  0  0  0  0  0  0
    2.9310    3.0430    3.5174 H   0  0  0  0  0  0  0  0  0  0  0  0
    3.7187    1.4850    3.9049 H   0  0  0  0  0  0  0  0  0  0  0  0
    4.5668   -1.6117   -0.6292 H   0  0  0  0  0  0  0  0  0  0  0  0
    5.7702   -0.7927    0.4230 H   0  0  0  0  0  0  0  0  0  0  0  0
    5.5522   -0.2637   -1.2782 H   0  0  0  0  0  0  0  0  0  0  0  0
    3.9376    0.6048   -2.7368 H   0  0  0  0  0  0  0  0  0  0  0  0
    2.1601    0.5404   -2.8817 H   0  0  0  0  0  0  0  0  0  0  0  0
    3.0503   -0.8675   -2.2510 H   0  0  0  0  0  0  0  0  0  0  0  0
  1 10  1  0  0  0  0
  2  8  1  0  0  0  0
  2  9  1  0  0  0  0
  3  4  1  0  0  0  0
  3  1  1  0  0  0  0
  4 27  1  0  0  0  0
  5 28  1  0  0  0  0
  5  4  2  0  0  0  0
  6  5  1  0  0  0  0
  7  6  2  0  0  0  0
  7  8  1  0  0  0  0
  8  3  2  0  0  0  0
  9  1  1  0  0  0  0
 10 15  1  0  0  0  0
 11 12  1  0  0  0  0
 11 10  2  0  0  0  0
 12 13  2  0  0  0  0
 13 33  1  0  0  0  0
 13 14  1  0  0  0  0
 14 34  1  0  0  0  0
 15 14  2  0  0  0  0
 15 35  1  0  0  0  0
 16 36  1  0  0  0  0
 16  2  1  0  0  0  0
 16 17  1  0  0  0  0
 17 18  1  0  0  0  0
 18 23  1  0  0  0  0
 18 19  2  0  0  0  0
 19 24  1  0  0  0  0
 20 19  1  0  0  0  0
 20 38  1  0  0  0  0
 21 20  2  0  0  0  0
 22 17  2  0  0  0  0
 22 21  1  0  0  0  0
 23 41  1  0  0  0  0
 23 40  1  0  0  0  0
 24 43  1  0  0  0  0
 24 42  1  0  0  0  0
 24 44  1  0  0  0  0
 25 21  1  0  0  0  0
 25 46  1  0  0  0  0
 26 22  1  0  0  0  0
 29  6  1  0  0  0  0
 30  7  1  0  0  0  0
 31 11  1  0  0  0  0
 32 12  1  0  0  0  0
 37 16  1  0  0  0  0
 39 23  1  0  0  0  0
 45 25  1  0  0  0  0
 47 25  1  0  0  0  0
 48 26  1  0  0  0  0
 49 26  1  0  0  0  0
 50 26  1  0  0  0  0
M  END
