4
q = 0.0, confidence = 0.996

 50 52  0  0  0  0  0  0  0  0999 V2000
    0.9463   -1.0675   -0.0268 N   0  0  0  0  0  0  0  0  0  0  0  0
   -1.1646   -1.5705   -0.0452 N   0  0  0  0  0  0  0  0  0  0  0  0
    3.2374   -1.1745   -0.0335 N   0  0  0  0  0  0  0  0  0  0  0  0
   -0.3162   -0.4987   -0.0100 C   0  0  0  0  0  2  0  0  0  0  0  0
    0.8618   -2.4647   -0.0725 C   0  0  0  0  0  0  0  0  0  0  0  0
    1.7707   -3.0699   -0.0919 H   0  0  0  0  0  0  0  0  0  0  0  0
   -0.4654   -2.7759   -0.0836 C   0  0  0  0  0  0  0  0  0  0  0  0
   -0.9822   -3.7393   -0.1150 H   0  0  0  0  0  0  0  0  0  0  0  0
    2.2185   -0.3991   -0.0043 C   0  0  0  0  0  0  0  0  0  0  0  0
    2.2367    1.0956    0.0544 C   0  0  0  0  0  0  0  0  0  0  0  0
    3.2865    1.4406    0.0784 H   0  0  0  0  0  0  0  0  0  0  0  0
    1.6969    1.4677    0.9483 H   0  0  0  0  0  0  0  0  0  0  0  0
    1.7153    1.5372   -0.8188 H   0  0  0  0  0  0  0  0  0  0  0  0
    4.5583   -0.6901   -0.0262 C   0  0  0  0  0  0  0  0  0  0  0  0
    5.1974   -0.3880   -1.2568 C   0  0  0  0  0  0  0  0  0  0  0  0
    6.5460    0.0105   -1.2259 C   0  0  0  0  0  0  0  0  0  0  0  0
    7.0504    0.2456   -2.1764 H   0  0  0  0  0  0  0  0  0  0  0  0
    7.2466    0.1081   -0.0159 C   0  0  0  0  0  0  0  0  0  0  0  0
    8.3017    0.4197   -0.0122 H   0  0  0  0  0  0  0  0  0  0  0  0
    6.5986   -0.1974    1.1890 C   0  0  0  0  0  0  0  0  0  0  0  0
    7.1439   -0.1250    2.1432 H   0  0  0  0  0  0  0  0  0  0  0  0
    5.2521   -0.6023    1.2085 C   0  0  0  0  0  0  0  0  0  0  0  0
    4.4307   -0.4986   -2.5487 C   0  0  0  0  0  0  0  0  0  0  0  0
    3.9150   -1.4785   -2.6264 H   0  0  0  0  0  0  0  0  0  0  0  0
    5.0984   -0.3819   -3.4233 H   0  0  0  0  0  0  0  0  0  0  0  0
    3.6395    0.2782   -2.6275 H   0  0  0  0  0  0  0  0  0  0  0  0
    4.5371   -0.9332    2.4918 C   0  0  0  0  0  0  0  0  0  0  0  0
    4.0278   -1.9173    2.4231 H   0  0  0  0  0  0  0  0  0  0  0  0
    3.7452   -0.1890    2.7254 H   0  0  0  0  0  0  0  0  0  0  0  0
    5.2368   -0.9564    3.3488 H   0  0  0  0  0  0  0  0  0  0  0  0
   -2.6007   -1.4542   -0.0424 C   0  0  0  0  0  0  0  0  0  0  0  0
   -3.2752   -1.4338    1.1967 C   0  0  0  0  0  0  0  0  0  0  0  0
   -4.6763   -1.3299    1.1703 C   0  0  0  0  0  0  0  0  0  0  0  0
   -5.2223   -1.3096    2.1268 H   0  0  0  0  0  0  0  0  0  0  0  0
   -5.3938   -1.2382   -0.0371 C   0  0  0  0  0  0  0  0  0  0  0  0
   -4.6749   -1.2542   -1.2471 C   0  0  0  0  0  0  0  0  0  0  0  0
   -5.2200   -1.1739   -2.2011 H   0  0  0  0  0  0  0  0  0  0  0  0
   -3.2740   -1.3563   -1.2786 C   0  0  0  0  0  0  0  0  0  0  0  0
   -2.5096   -1.4684    2.4926 C   0  0  0  0  0  0  0  0  0  0  0  0
   -1.9060   -0.5422    2.6064 H   0  0  0  0  0  0  0  0  0  0  0  0
   -1.8004   -2.3202    2.5378 H   0  0  0  0  0  0  0  0  0  0  0  0
   -3.1933   -1.5402    3.3587 H   0  0  0  0  0  0  0  0  0  0  0  0
   -6.8931   -1.0815   -0.0335 C   0  0  0  0  0  0  0  0  0  0  0  0
   -7.3524   -1.5529    0.8573 H   0  0  0  0  0  0  0  0  0  0  0  0
   -7.3534   -1.5235   -0.9388 H   0  0  0  0  0  0  0  0  0  0  0  0
   -7.1731   -0.0063   -0.0161 H   0  0  0  0  0  0  0  0  0  0  0  0
   -2.5069   -1.3101   -2.5733 C   0  0  0  0  0  0  0  0  0  0  0  0
   -3.1898   -1.3253   -3.4429 H   0  0  0  0  0  0  0  0  0  0  0  0
   -1.7996   -2.1590   -2.6718 H   0  0  0  0  0  0  0  0  0  0  0  0
   -1.9012   -0.3800   -2.6273 H   0  0  0  0  0  0  0  0  0  0  0  0
  1  4  1  0  0  0  0
  1  9  1  0  0  0  0
  2 31  1  0  0  0  0
  2  4  1  0  0  0  0
  3 14  1  0  0  0  0
  3  9  2  0  0  0  0
  5  1  1  0  0  0  0
  6  5  1  0  0  0  0
  7  5  2  0  0  0  0
  7  2  1  0  0  0  0
  8  7  1  0  0  0  0
  9 10  1  0  0  0  0
 10 11  1  0  0  0  0
 10 12  1  0  0  0  0
 13 10  1  0  0  0  0
 14 22  1  0  0  0  0
 15 16  1  0  0  0  0
 15 14  2  0  0  0  0
 16 18  2  0  0  0  0
 17 16  1  0  0  0  0
 18 19  1  0  0  0  0
 18 20  1  0  0  0  0
 20 22  2  0  0  0  0
 20 21  1  0  0  0  0
 22 27  1  0  0  0  0
 23 15  1  0  0  0  0
 24 23  1  0  0  0  0
 25 23  1  0  0  0  0
 26 23  1  0  0  0  0
 27 29  1  0  0  0  0
 27 30  1  0  0  0  0
 28 27  1  0  0  0  0
 31 32  1  0  0  0  0
 32 39  1  0  0  0  0
 33 32  2  0  0  0  0
 33 34  1  0  0  0  0
 35 43  1  0  0  0  0
 35 33  1  0  0  0  0
 36 35  2  0  0  0  0
 37 36  1  0  0  0  0
 38 36  1  0  0  0  0
 38 31  2  0  0  0  0
 39 41  1  0  0  0  0
 39 40  1  0  0  0  0
 39 42  1  0  0  0  0
 43 46  1  0  0  0  0
 43 44  1  0  0  0  0
 45 43  1  0  0  0  0
 47 38  1  0  0  0  0
 48 47  1  0  0  0  0
 49 47  1  0  0  0  0
 50 47  1  0  0  0  0
M  END
