5
q = 0.0, confidence = 0.99

 28 29  0  0  0  0  0  0  0  0999 V2000
   -0.6911   -0.3806    0.0769 N   0  0  0  0  0  0  0  0  0  0  0  0
   -0.5652   -1.3907    0.1740 H   0  0  0  0  0  0  0  0  0  0  0  0
   -2.2144    1.3943   -0.0292 N   0  0  0  0  0  0  0  0  0  0  0  0
   -1.4352    3.5884   -0.0432 N   0  0  0  0  0  0  0  0  0  0  0  0
    0.4585    0.3929    0.0198 C   0  0  0  0  0  2  0  0  0  0  0  0
    0.1865    1.7675   -0.0503 C   0  0  0  0  0  0  0  0  0  0  0  0
    1.0302    2.4628   -0.1140 H   0  0  0  0  0  0  0  0  0  0  0  0
   -1.1506    2.2544   -0.0368 C   0  0  0  0  0  0  0  0  0  0  0  0
   -1.9675    0.1014    0.0172 C   0  0  0  0  0  0  0  0  0  0  0  0
   -3.0818   -0.8756    0.0040 C   0  0  0  0  0  0  0  0  0  0  0  0
   -2.8812   -2.2283   -0.3531 C   0  0  0  0  0  0  0  0  0  0  0  0
   -1.8905   -2.5935   -0.6672 H   0  0  0  0  0  0  0  0  0  0  0  0
   -3.9574   -3.1255   -0.3519 C   0  0  0  0  0  0  0  0  0  0  0  0
   -3.7899   -4.1743   -0.6384 H   0  0  0  0  0  0  0  0  0  0  0  0
   -5.2428   -2.6854    0.0010 C   0  0  0  0  0  0  0  0  0  0  0  0
   -6.0857   -3.3929    0.0022 H   0  0  0  0  0  0  0  0  0  0  0  0
   -5.4511   -1.3396    0.3472 C   0  0  0  0  0  0  0  0  0  0  0  0
   -6.4576   -0.9910    0.6232 H   0  0  0  0  0  0  0  0  0  0  0  0
   -4.3801   -0.4394    0.3455 C   0  0  0  0  0  0  0  0  0  0  0  0
   -4.5219    0.6163    0.6158 H   0  0  0  0  0  0  0  0  0  0  0  0
   -0.3577    4.5640   -0.0345 C   0  0  0  0  0  0  0  0  0  0  0  0
    0.3466    4.3818    0.8035 H   0  0  0  0  0  0  0  0  0  0  0  0
   -0.7889    5.5732    0.0928 H   0  0  0  0  0  0  0  0  0  0  0  0
    0.2246    4.5515   -0.9821 H   0  0  0  0  0  0  0  0  0  0  0  0
   -2.7983    4.0884   -0.1236 C   0  0  0  0  0  0  0  0  0  0  0  0
   -3.4895    3.2304   -0.1727 H   0  0  0  0  0  0  0  0  0  0  0  0
   -2.9318    4.7157   -1.0313 H   0  0  0  0  0  0  0  0  0  0  0  0
   -3.0453    4.7060    0.7665 H   0  0  0  0  0  0  0  0  0  0  0  0
  1  2  1  0  0  0  0
  3  9  2  0  0  0  0
  4  8  1  0  0  0  0
  4 21  1  0  0  0  0
  5  1  1  0  0  0  0
  6  8  2  0  0  0  0
  6  5  1  0  0  0  0
  7  6  1  0  0  0  0
  8  3  1  0  0  0  0
  9  1  1  0  0  0  0
 10  9  1  0  0  0  0
 10 19  1  0  0  0  0
 11 13  1  0  0  0  0
 11 10  2  0  0  0  0
 12 11  1  0  0  0  0
 13 15  2  0  0  0  0
 14 13  1  0  0  0  0
 15 16  1  0  0  0  0
 15 17  1  0  0  0  0
 17 18  1  0  0  0  0
 19 17  2  0  0  0  0
 19 20  1  0  0  0  0
 21 23  1  0  0  0  0
 21 22  1  0  0  0  0
 24 21  1  0  0  0  0
 25  4  1  0  0  0  0
 25 28  1  0  0  0  0
 26 25  1  0  0  0  0
 27 25  1  0  0  0  0
M  END
