6
q = 0.0, confidence = 0.956

 28 28  0  0  0  0  0  0  0  0999 V2000
    2.1435    3.3166    0.1361 N   0  0  0  0  0  0  0  0  0  0  0  0
    3.0390    1.1847    0.1028 N   0  0  0  0  0  0  0  0  0  0  0  0
    1.9645   -0.9213    0.3609 N   0  0  0  0  0  4  0  0  0  0  0  0
    1.0321   -0.4720    0.3893 H   0  0  0  0  0  0  0  0  0  0  0  0
    2.0210   -1.9353    0.2679 H   0  0  0  0  0  0  0  0  0  0  0  0
   -0.4951    0.8735    0.0130 C   0  0  0  0  0  3  0  0  0  0  0  0
    0.6043    1.4882    0.0516 C   0  0  0  0  0  0  0  0  0  0  0  0
    1.9256    1.9665    0.1019 C   0  0  0  0  0  0  0  0  0  0  0  0
    3.0414   -0.1430    0.1735 C   0  0  0  0  0  0  0  0  0  0  0  0
    4.3655   -0.8183    0.0523 C   0  0  0  0  0  0  0  0  0  0  0  0
    4.5880   -2.1089    0.5795 C   0  0  0  0  0  0  0  0  0  0  0  0
    3.7927   -2.6280    1.1366 H   0  0  0  0  0  0  0  0  0  0  0  0
    5.8384   -2.7260    0.4419 C   0  0  0  0  0  0  0  0  0  0  0  0
    6.0024   -3.7273    0.8673 H   0  0  0  0  0  0  0  0  0  0  0  0
    6.8805   -2.0634   -0.2258 C   0  0  0  0  0  0  0  0  0  0  0  0
    7.8615   -2.5499   -0.3357 H   0  0  0  0  0  0  0  0  0  0  0  0
    6.6693   -0.7759   -0.7472 C   0  0  0  0  0  0  0  0  0  0  0  0
    7.4836   -0.2534   -1.2714 H   0  0  0  0  0  0  0  0  0  0  0  0
    5.4235   -0.1543   -0.6034 C   0  0  0  0  0  0  0  0  0  0  0  0
    5.2375    0.8518   -1.0043 H   0  0  0  0  0  0  0  0  0  0  0  0
    1.0431    4.2608    0.0957 C   0  0  0  0  0  0  0  0  0  0  0  0
    0.0840    3.7111    0.0985 H   0  0  0  0  0  0  0  0  0  0  0  0
    1.1008    4.8860   -0.8215 H   0  0  0  0  0  0  0  0  0  0  0  0
    1.0836    4.9357    0.9770 H   0  0  0  0  0  0  0  0  0  0  0  0
    3.4775    3.8851    0.1947 C   0  0  0  0  0  0  0  0  0  0  0  0
    3.5700    4.5448    1.0839 H   0  0  0  0  0  0  0  0  0  0  0  0
    3.6768    4.4985   -0.7108 H   0  0  0  0  0  0  0  0  0  0  0  0
    4.2130    3.0659    0.2601 H   0  0  0  0  0  0  0  0  0  0  0  0
  1 25  1  0  0  0  0
  2  9  1  0  0  0  0
  3  4  1  0  0  0  0
  5  3  1  0  0  0  0
  6  7  3  0  0  0  0
  7  8  1  0  0  0  0
  8  2  2  0  0  0  0
  8  1  1  0  0  0  0
  9  3  2  0  0  0  0
 10  9  1  0  0  0  0
 10 11  1  0  0  0  0
 11 12  1  0  0  0  0
 13 11  2  0  0  0  0
 13 14  1  0  0  0  0
 15 13  1  0  0  0  0
 16 15  1  0  0  0  0
 17 19  1  0  0  0  0
 17 15  2  0  0  0  0
 18 17  1  0  0  0  0
 19 10  2  0  0  0  0
 20 19  1  0  0  0  0
 21 22  1  0  0  0  0
 21  1  1  0  0  0  0
 21 24  1  0  0  0  0
 23 21  1  0  0  0  0
 25 28  1  0  0  0  0
 25 26  1  0  0  0  0
 27 25  1  0  0  0  0
M  END
