2
q = 0.0, confidence = 0.966

 17 17  0  0  0  0  0  0  0  0999 V2000
    1.8695   -1.1906   -0.0445 C   0  0  0  0  0  3  0  0  0  0  0  0
    0.8619   -2.0463   -0.0487 C   0  0  0  0  0  3  0  0  0  0  0  0
    0.5779   -3.4817   -0.2040 C   0  0  0  0  0  0  0  0  0  0  0  0
    0.0185   -3.7535   -1.4230 F   0  0  0  0  0  0  0  0  0  0  0  0
    1.6865   -4.2705   -0.1084 F   0  0  0  0  0  0  0  0  0  0  0  0
   -0.3037   -3.9488    0.7282 F   0  0  0  0  0  0  0  0  0  0  0  0
    3.3213   -1.1381   -0.0039 C   0  0  0  0  0  0  0  0  0  0  0  0
    4.0641   -2.2137    0.5491 C   0  0  0  0  0  0  0  0  0  0  0  0
    3.5233   -3.0895    0.9333 H   0  0  0  0  0  0  0  0  0  0  0  0
    5.4616   -2.1623    0.6040 C   0  0  0  0  0  0  0  0  0  0  0  0
    6.0193   -3.0042    1.0429 H   0  0  0  0  0  0  0  0  0  0  0  0
    6.1544   -1.0480    0.0995 C   0  0  0  0  0  0  0  0  0  0  0  0
    7.2537   -1.0123    0.1430 H   0  0  0  0  0  0  0  0  0  0  0  0
    5.4331    0.0183   -0.4616 C   0  0  0  0  0  0  0  0  0  0  0  0
    5.9661    0.8926   -0.8665 H   0  0  0  0  0  0  0  0  0  0  0  0
    4.0337   -0.0234   -0.5052 C   0  0  0  0  0  0  0  0  0  0  0  0
    3.4644    0.8035   -0.9473 H   0  0  0  0  0  0  0  0  0  0  0  0
  1  7  1  0  0  0  0
  2  1  2  0  0  0  0
  3  5  1  0  0  0  0
  3  2  1  0  0  0  0
  3  6  1  0  0  0  0
  4  3  1  0  0  0  0
  7  8  1  0  0  0  0
  8 10  2  0  0  0  0
  8  9  1  0  0  0  0
 10 11  1  0  0  0  0
 12 13  1  0  0  0  0
 12 10  1  0  0  0  0
 14 12  2  0  0  0  0
 15 14  1  0  0  0  0
 16 14  1  0  0  0  0
 16  7  2  0  0  0  0
 17 16  1  0  0  0  0
M  END
