5
q = 0.0, confidence = 1.0

 26 27  0  0  0  0  0  0  0  0999 V2000
   -0.5399   -1.9790   -0.4298 N   0  0  0  0  0  0  0  0  0  0  0  0
   -1.4330   -2.0685    0.6232 N   0  0  0  0  0  0  0  0  0  0  0  0
    0.8226   -1.2185   -1.8739 N   0  0  0  0  0  0  0  0  0  0  0  0
    0.7768   -2.5682   -2.1058 N   0  0  0  0  0  0  0  0  0  0  0  0
    0.0353   -0.7955   -0.8531 C   0  0  0  0  0  2  0  0  0  0  0  0
   -0.0716   -3.0200   -1.2187 C   0  0  0  0  0  0  0  0  0  0  0  0
   -0.3764   -4.0669   -1.1081 H   0  0  0  0  0  0  0  0  0  0  0  0
    1.7455   -0.4121   -2.6552 C   0  0  0  0  0  0  0  0  0  0  0  0
    1.7452    0.6062   -2.2272 H   0  0  0  0  0  0  0  0  0  0  0  0
    1.4272   -0.3893   -3.7151 H   0  0  0  0  0  0  0  0  0  0  0  0
    2.7576   -0.8515   -2.5807 H   0  0  0  0  0  0  0  0  0  0  0  0
   -0.9625   -2.9210    1.7113 C   0  0  0  0  0  0  0  0  0  0  0  0
   -1.6573   -2.8385    2.5643 H   0  0  0  0  0  0  0  0  0  0  0  0
    0.0340   -2.5735    2.0469 H   0  0  0  0  0  0  0  0  0  0  0  0
   -0.9012   -3.9976    1.4307 H   0  0  0  0  0  0  0  0  0  0  0  0
   -2.8154   -2.0173    0.2765 C   0  0  0  0  0  0  0  0  0  0  0  0
   -3.2475   -2.0679   -1.0658 C   0  0  0  0  0  0  0  0  0  0  0  0
   -2.5243   -2.2034   -1.8818 H   0  0  0  0  0  0  0  0  0  0  0  0
   -4.6118   -1.9485   -1.3737 C   0  0  0  0  0  0  0  0  0  0  0  0
   -4.9274   -1.9906   -2.4269 H   0  0  0  0  0  0  0  0  0  0  0  0
   -5.5649   -1.7894   -0.3586 C   0  0  0  0  0  0  0  0  0  0  0  0
   -6.6327   -1.7010   -0.6047 H   0  0  0  0  0  0  0  0  0  0  0  0
   -5.1372   -1.7521    0.9783 C   0  0  0  0  0  0  0  0  0  0  0  0
   -5.8705   -1.6311    1.7897 H   0  0  0  0  0  0  0  0  0  0  0  0
   -3.7779   -1.8591    1.2985 C   0  0  0  0  0  0  0  0  0  0  0  0
   -3.4679   -1.8107    2.3518 H   0  0  0  0  0  0  0  0  0  0  0  0
  1  2  1  0  0  0  0
  2 12  1  0  0  0  0
  3  5  1  0  0  0  0
  4  3  1  0  0  0  0
  4  6  2  0  0  0  0
  5  1  1  0  0  0  0
  6  7  1  0  0  0  0
  6  1  1  0  0  0  0
  8 11  1  0  0  0  0
  8  9  1  0  0  0  0
  8  3  1  0  0  0  0
 10  8  1  0  0  0  0
 12 14  1  0  0  0  0
 12 13  1  0  0  0  0
 15 12  1  0  0  0  0
 16  2  1  0  0  0  0
 16 25  1  0  0  0  0
 17 16  2  0  0  0  0
 18 17  1  0  0  0  0
 19 17  1  0  0  0  0
 19 21  2  0  0  0  0
 20 19  1  0  0  0  0
 21 23  1  0  0  0  0
 22 21  1  0  0  0  0
 23 25  2  0  0  0  0
 23 24  1  0  0  0  0
 25 26  1  0  0  0  0
M  END
