5
q = 0.0, confidence = 1.0

 34 35  0  0  1  0  0  0  0  0999 V2000
    0.0874    0.4113   -0.7082 C   0  0  0  0  0  0  0  0  0  0  0  0
   -0.6992    1.0013   -1.7333 C   0  0  0  0  0  0  0  0  0  0  0  0
   -1.7181    0.2720   -2.4182 C   0  0  0  0  0  0  0  0  0  0  0  0
   -1.9347   -1.0881   -2.1085 C   0  0  0  0  0  0  0  0  0  0  0  0
   -1.1719   -1.6965   -1.0707 C   0  0  0  0  0  3  0  0  0  0  0  0
   -0.1845   -0.9667   -0.3510 C   0  0  2  0  0  3  0  0  0  0  0  0
    1.1219    1.2839   -0.0684 C   0  0  0  0  0  0  0  0  0  0  0  0
    0.6933    2.4775    0.5444 C   0  0  0  0  0  0  0  0  0  0  0  0
    1.6038    3.3768    1.1142 C   0  0  0  0  0  0  0  0  0  0  0  0
    2.9766    3.0961    1.0828 C   0  0  0  0  0  0  0  0  0  0  0  0
    3.4230    1.9212    0.4679 C   0  0  0  0  0  0  0  0  0  0  0  0
    2.5177    1.0139   -0.1185 C   0  0  0  0  0  0  0  0  0  0  0  0
    1.2373   -1.0320    1.6011 O   0  0  0  0  0  0  0  0  0  0  0  0
    0.1973   -2.9220    0.9116 O   0  0  0  0  0  0  0  0  0  0  0  0
    2.3826   -0.9639   -1.5051 O   0  0  0  0  0  0  0  0  0  0  0  0
    3.0368   -0.2061   -0.8037 C   0  0  0  0  0  0  0  0  0  0  0  0
    0.5002   -1.6030    0.8175 C   0  0  0  0  0  0  0  0  0  0  0  0
    4.3617   -0.3963   -0.5742 O   0  0  0  0  0  0  0  0  0  0  0  0
    4.9287   -1.5466   -1.2061 C   0  0  0  0  0  0  0  0  0  0  0  0
    0.7750   -3.5960    2.0346 C   0  0  0  0  0  0  0  0  0  0  0  0
   -0.5299    2.0588   -1.9778 H   0  0  0  0  0  0  0  0  0  0  0  0
   -2.3388    0.7774   -3.1706 H   0  0  0  0  0  0  0  0  0  0  0  0
   -2.7304   -1.6552   -2.6099 H   0  0  0  0  0  0  0  0  0  0  0  0
   -1.3745   -2.7309   -0.7683 H   0  0  0  0  0  0  0  0  0  0  0  0
   -0.3856    2.6843    0.5882 H   0  0  0  0  0  0  0  0  0  0  0  0
    1.2325    4.2953    1.5931 H   0  0  0  0  0  0  0  0  0  0  0  0
    3.7000    3.7904    1.5355 H   0  0  0  0  0  0  0  0  0  0  0  0
    4.4947    1.6868    0.4255 H   0  0  0  0  0  0  0  0  0  0  0  0
    5.9963   -1.5568   -0.9232 H   0  0  0  0  0  0  0  0  0  0  0  0
    4.4275   -2.4732   -0.8596 H   0  0  0  0  0  0  0  0  0  0  0  0
    4.8191   -1.4892   -2.3081 H   0  0  0  0  0  0  0  0  0  0  0  0
    0.4397   -4.6458    1.9670 H   0  0  0  0  0  0  0  0  0  0  0  0
    1.8817   -3.5373    2.0009 H   0  0  0  0  0  0  0  0  0  0  0  0
    0.4334   -3.1389    2.9851 H   0  0  0  0  0  0  0  0  0  0  0  0
  1  6  1  0  0  0  0
  1  7  1  0  0  0  0
  2  1  2  0  0  0  0
  3  4  2  0  0  0  0
  3  2  1  0  0  0  0
  4  5  1  0  0  0  0
  5 24  1  0  0  0  0
  5  6  1  0  0  0  0
  6 17  1  1  0  0  0
  7  8  1  0  0  0  0
  8 25  1  0  0  0  0
  8  9  2  0  0  0  0
  9 26  1  0  0  0  0
 10  9  1  0  0  0  0
 10 27  1  0  0  0  0
 11 10  2  0  0  0  0
 12  7  2  0  0  0  0
 12 11  1  0  0  0  0
 14 20  1  0  0  0  0
 15 16  2  0  0  0  0
 16 18  1  0  0  0  0
 16 12  1  0  0  0  0
 17 14  1  0  0  0  0
 17 13  2  0  0  0  0
 19 29  1  0  0  0  0
 19 30  1  0  0  0  0
 19 18  1  0  0  0  0
 20 34  1  0  0  0  0
 21  2  1  0  0  0  0
 22  3  1  0  0  0  0
 23  4  1  0  0  0  0
 28 11  1  0  0  0  0
 31 19  1  0  0  0  0
 32 20  1  0  0  0  0
 33 20  1  0  0  0  0
M  END
