4
q = 0.0, confidence = 0.976

 56 59  0  0  1  0  0  0  0  0999 V2000
   -0.9340    1.3558    1.2104 N   0  0  0  0  0  0  0  0  0  0  0  0
    1.1864    0.9547    1.3164 N   0  0  0  0  0  0  0  0  0  0  0  0
    2.0670    0.0307   -1.4061 N   0  0  0  0  0  0  0  0  0  0  0  0
    0.0444    0.5618    0.6615 C   0  0  0  0  0  2  0  0  0  0  0  0
    0.9392    1.9750    2.2229 C   0  0  0  0  0  0  0  0  0  0  0  0
    1.7306    2.4314    2.8244 H   0  0  0  0  0  0  0  0  0  0  0  0
   -0.4041    2.2288    2.1578 C   0  0  0  0  0  0  0  0  0  0  0  0
   -1.0308    2.9491    2.6911 H   0  0  0  0  0  0  0  0  0  0  0  0
   -2.3489    1.2671    0.9522 C   0  0  0  0  0  0  0  0  0  0  0  0
   -2.8775    1.8047   -0.2421 C   0  0  0  0  0  0  0  0  0  0  0  0
   -4.2596    1.6736   -0.4606 C   0  0  0  0  0  0  0  0  0  0  0  0
   -4.6869    2.0811   -1.3904 H   0  0  0  0  0  0  0  0  0  0  0  0
   -5.1074    1.0377    0.4667 C   0  0  0  0  0  0  0  0  0  0  0  0
   -4.5355    0.5202    1.6443 C   0  0  0  0  0  0  0  0  0  0  0  0
   -5.1804    0.0101    2.3771 H   0  0  0  0  0  0  0  0  0  0  0  0
   -3.1602    0.6252    1.9159 C   0  0  0  0  0  0  0  0  0  0  0  0
   -2.5804    0.0605    3.1881 C   0  0  0  0  0  0  0  0  0  0  0  0
   -1.6162   -0.4575    3.0114 H   0  0  0  0  0  0  0  0  0  0  0  0
   -3.2790   -0.6588    3.6545 H   0  0  0  0  0  0  0  0  0  0  0  0
   -2.3798    0.8570    3.9352 H   0  0  0  0  0  0  0  0  0  0  0  0
   -6.5897    0.9392    0.2191 C   0  0  0  0  0  0  0  0  0  0  0  0
   -7.0250    0.0376    0.6920 H   0  0  0  0  0  0  0  0  0  0  0  0
   -6.8244    0.9157   -0.8627 H   0  0  0  0  0  0  0  0  0  0  0  0
   -7.1161    1.8186    0.6482 H   0  0  0  0  0  0  0  0  0  0  0  0
   -1.9867    2.4371   -1.2757 C   0  0  0  0  0  0  0  0  0  0  0  0
   -1.3589    1.6587   -1.7657 H   0  0  0  0  0  0  0  0  0  0  0  0
   -1.2951    3.1765   -0.8249 H   0  0  0  0  0  0  0  0  0  0  0  0
   -2.5806    2.9442   -2.0583 H   0  0  0  0  0  0  0  0  0  0  0  0
    2.5101    0.4100    1.0139 C   0  0  1  0  0  0  0  0  0  0  0  0
    3.2180    0.9518    1.6757 H   0  0  0  0  0  0  0  0  0  0  0  0
    2.6021   -1.0827    1.3277 C   0  0  0  0  0  0  0  0  0  0  0  0
    1.8170   -1.6356    2.3604 C   0  0  0  0  0  0  0  0  0  0  0  0
    1.0957   -1.0016    2.8964 H   0  0  0  0  0  0  0  0  0  0  0  0
    1.9441   -2.9855    2.7139 C   0  0  0  0  0  0  0  0  0  0  0  0
    1.3244   -3.3956    3.5252 H   0  0  0  0  0  0  0  0  0  0  0  0
    2.8562   -3.8121    2.0377 C   0  0  0  0  0  0  0  0  0  0  0  0
    2.9528   -4.8730    2.3117 H   0  0  0  0  0  0  0  0  0  0  0  0
    3.6523   -3.2705    1.0181 C   0  0  0  0  0  0  0  0  0  0  0  0
    4.3821   -3.9033    0.4914 H   0  0  0  0  0  0  0  0  0  0  0  0
    3.5333   -1.9150    0.6738 C   0  0  0  0  0  0  0  0  0  0  0  0
    4.1965   -1.5138   -0.1083 H   0  0  0  0  0  0  0  0  0  0  0  0
    2.8994    0.7967   -0.4396 C   0  0  2  0  0  0  0  0  0  0  0  0
    3.9629    0.5079   -0.5695 H   0  0  0  0  0  0  0  0  0  0  0  0
    2.8117    2.2962   -0.6478 C   0  0  0  0  0  0  0  0  0  0  0  0
    3.8856    3.1071   -0.2304 C   0  0  0  0  0  0  0  0  0  0  0  0
    4.7943    2.6417    0.1852 H   0  0  0  0  0  0  0  0  0  0  0  0
    3.8147    4.5020   -0.3513 C   0  0  0  0  0  0  0  0  0  0  0  0
    4.6640    5.1221   -0.0282 H   0  0  0  0  0  0  0  0  0  0  0  0
    2.6694    5.1042   -0.8972 C   0  0  0  0  0  0  0  0  0  0  0  0
    2.6163    6.1983   -0.9985 H   0  0  0  0  0  0  0  0  0  0  0  0
    1.5984    4.3037   -1.3205 C   0  0  0  0  0  0  0  0  0  0  0  0
    0.6994    4.7673   -1.7539 H   0  0  0  0  0  0  0  0  0  0  0  0
    1.6667    2.9074   -1.1923 C   0  0  0  0  0  0  0  0  0  0  0  0
    0.8092    2.2951   -1.5062 H   0  0  0  0  0  0  0  0  0  0  0  0
    1.9484    0.5928   -2.2614 H   0  0  0  0  0  0  0  0  0  0  0  0
    2.5811   -0.8138   -1.6915 H   0  0  0  0  0  0  0  0  0  0  0  0
  1  7  1  0  0  0  0
  2  5  1  0  0  0  0
  3 42  1  0  0  0  0
  4  1  1  0  0  0  0
  4  2  1  0  0  0  0
  5  6  1  0  0  0  0
  7  5  2  0  0  0  0
  7  8  1  0  0  0  0
  9  1  1  0  0  0  0
  9 16  1  0  0  0  0
 10  9  2  0  0  0  0
 11 10  1  0  0  0  0
 11 13  2  0  0  0  0
 12 11  1  0  0  0  0
 13 14  1  0  0  0  0
 14 16  2  0  0  0  0
 14 15  1  0  0  0  0
 16 17  1  0  0  0  0
 17 19  1  0  0  0  0
 17 20  1  0  0  0  0
 18 17  1  0  0  0  0
 21 13  1  0  0  0  0
 21 24  1  0  0  0  0
 21 22  1  0  0  0  0
 23 21  1  0  0  0  0
 25 27  1  0  0  0  0
 25 10  1  0  0  0  0
 26 25  1  0  0  0  0
 28 25  1  0  0  0  0
 29  2  1  0  0  0  0
 29 31  1  0  0  0  0
 29 30  1  1  0  0  0
 31 32  1  0  0  0  0
 32 34  2  0  0  0  0
 32 33  1  0  0  0  0
 34 35  1  0  0  0  0
 36 37  1  0  0  0  0
 36 34  1  0  0  0  0
 38 36  2  0  0  0  0
 39 38  1  0  0  0  0
 40 38  1  0  0  0  0
 40 31  2  0  0  0  0
 41 40  1  0  0  0  0
 42 43  1  6  0  0  0
 42 29  1  0  0  0  0
 44 42  1  0  0  0  0
 44 45  1  0  0  0  0
 45 46  1  0  0  0  0
 47 45  2  0  0  0  0
 47 48  1  0  0  0  0
 49 47  1  0  0  0  0
 50 49  1  0  0  0  0
 51 53  1  0  0  0  0
 51 49  2  0  0  0  0
 52 51  1  0  0  0  0
 53 44  2  0  0  0  0
 54 53  1  0  0  0  0
 55  3  1  0  0  0  0
 56  3  1  0  0  0  0
M  END
