1
q = 0.0, confidence = 1.0

 45 48  0  0  1  0  0  0  0  0999 V2000
    1.1429    0.6073   -1.5861 C   0  0  0  0  0  3  0  0  0  0  0  0
    2.4809    0.2568   -1.8846 C   0  0  0  0  0  3  0  0  0  0  0  0
    3.0683   -0.8957   -1.2713 C   0  0  0  0  0  0  0  0  0  0  0  0
    2.3343   -1.5505   -0.2382 C   0  0  0  0  0  0  0  0  0  0  0  0
    0.9727   -1.2038    0.0468 C   0  0  0  0  0  0  0  0  0  0  0  0
    0.2136   -2.0420    1.0464 C   0  0  0  0  0  0  0  0  0  0  0  0
   -1.1168   -1.4340    1.4896 C   0  0  0  0  0  0  0  0  0  0  0  0
   -1.8866   -0.8891    0.2842 C   0  0  2  0  0  0  0  0  0  0  0  0
   -1.0986    0.2889   -0.3500 C   0  0  1  0  0  0  0  0  0  0  0  0
    0.3423   -0.1146   -0.6448 C   0  0  0  0  0  0  0  0  0  0  0  0
   -1.8191    0.9142   -1.5677 C   0  0  0  0  0  0  0  0  0  0  0  0
   -3.2766    1.2985   -1.2551 C   0  0  0  0  0  0  0  0  0  0  0  0
   -4.0321    0.1128   -0.6542 C   0  0  1  0  0  0  0  0  0  0  0  0
   -3.2928   -0.3890    0.6075 C   0  0  1  0  0  0  0  0  0  0  0  0
   -4.3162   -1.2908    1.3219 C   0  0  0  0  0  0  0  0  0  0  0  0
   -5.6372   -0.5112    1.1386 C   0  0  0  0  0  0  0  0  0  0  0  0
   -5.4218    0.4260   -0.0644 C   0  0  0  0  0  0  0  0  0  0  0  0
   -4.2838   -0.9868   -1.7129 C   0  0  0  0  0  0  0  0  0  0  0  0
    5.0254   -2.2449   -0.9741 C   0  0  0  0  0  0  0  0  0  0  0  0
   -6.1946    1.2642   -0.4764 O   0  0  0  0  0  0  0  0  0  0  0  0
    4.3051   -1.1953   -1.6419 O   0  0  0  0  0  0  0  0  0  0  0  0
    0.7153    1.4883   -2.0841 H   0  0  0  0  0  0  0  0  0  0  0  0
    3.0800    0.8379   -2.5987 H   0  0  0  0  0  0  0  0  0  0  0  0
    2.7919   -2.3675    0.3350 H   0  0  0  0  0  0  0  0  0  0  0  0
    0.8681   -2.2856    1.9083 H   0  0  0  0  0  0  0  0  0  0  0  0
    0.0245   -3.0125    0.5338 H   0  0  0  0  0  0  0  0  0  0  0  0
   -0.9465   -0.6182    2.2256 H   0  0  0  0  0  0  0  0  0  0  0  0
   -1.7095   -2.2080    2.0149 H   0  0  0  0  0  0  0  0  0  0  0  0
   -1.9640   -1.7054   -0.4707 H   0  0  0  0  0  0  0  0  0  0  0  0
   -1.0561    1.0787    0.4356 H   0  0  0  0  0  0  0  0  0  0  0  0
   -1.7797    0.2013   -2.4191 H   0  0  0  0  0  0  0  0  0  0  0  0
   -1.2837    1.8271   -1.9007 H   0  0  0  0  0  0  0  0  0  0  0  0
   -3.7808    1.6679   -2.1704 H   0  0  0  0  0  0  0  0  0  0  0  0
   -3.2900    2.1407   -0.5304 H   0  0  0  0  0  0  0  0  0  0  0  0
   -3.1614    0.5098    1.2593 H   0  0  0  0  0  0  0  0  0  0  0  0
   -4.0689   -1.4589    2.3881 H   0  0  0  0  0  0  0  0  0  0  0  0
   -4.3663   -2.2885    0.8384 H   0  0  0  0  0  0  0  0  0  0  0  0
   -5.8736    0.1267    2.0160 H   0  0  0  0  0  0  0  0  0  0  0  0
   -6.5316   -1.1452    0.9752 H   0  0  0  0  0  0  0  0  0  0  0  0
   -4.8986   -0.5662   -2.5329 H   0  0  0  0  0  0  0  0  0  0  0  0
   -3.3451   -1.3722   -2.1583 H   0  0  0  0  0  0  0  0  0  0  0  0
   -4.8336   -1.8555   -1.3008 H   0  0  0  0  0  0  0  0  0  0  0  0
    6.0035   -2.3039   -1.4813 H   0  0  0  0  0  0  0  0  0  0  0  0
    5.1787   -1.9923    0.0955 H   0  0  0  0  0  0  0  0  0  0  0  0
    4.4969   -3.2145   -1.0731 H   0  0  0  0  0  0  0  0  0  0  0  0
  1 10  1  0  0  0  0
  2  1  1  0  0  0  0
  2  3  1  0  0  0  0
  3  4  2  0  0  0  0
  4  5  1  0  0  0  0
  4 24  1  0  0  0  0
  5  6  1  0  0  0  0
  6  7  1  0  0  0  0
  6 25  1  0  0  0  0
  7 28  1  0  0  0  0
  7 27  1  0  0  0  0
  8 29  1  6  0  0  0
  8 14  1  0  0  0  0
  8  7  1  0  0  0  0
  9  8  1  0  0  0  0
  9 30  1  1  0  0  0
 10  9  1  0  0  0  0
 10  5  2  0  0  0  0
 11 12  1  0  0  0  0
 11  9  1  0  0  0  0
 12 13  1  0  0  0  0
 12 34  1  0  0  0  0
 13 18  1  6  0  0  0
 13 17  1  0  0  0  0
 13 14  1  0  0  0  0
 14 35  1  1  0  0  0
 14 15  1  0  0  0  0
 15 36  1  0  0  0  0
 16 15  1  0  0  0  0
 16 38  1  0  0  0  0
 17 16  1  0  0  0  0
 18 42  1  0  0  0  0
 19 44  1  0  0  0  0
 20 17  2  0  0  0  0
 21  3  1  0  0  0  0
 21 19  1  0  0  0  0
 22  1  1  0  0  0  0
 23  2  1  0  0  0  0
 26  6  1  0  0  0  0
 31 11  1  0  0  0  0
 32 11  1  0  0  0  0
 33 12  1  0  0  0  0
 37 15  1  0  0  0  0
 39 16  1  0  0  0  0
 40 18  1  0  0  0  0
 41 18  1  0  0  0  0
 43 19  1  0  0  0  0
 45 19  1  0  0  0  0
M  END
