3
q = 0.0, confidence = 0.998

 37 39  0  0  0  0  0  0  0  0999 V2000
   -0.8573    1.6150    0.1638 N   0  0  0  0  0  0  0  0  0  0  0  0
    0.7535    0.3946   -0.6965 N   0  0  0  0  0  0  0  0  0  0  0  0
   -0.5137    0.3289   -0.1773 C   0  0  0  0  0  2  0  0  0  0  0  0
    1.5729   -0.6945   -1.2166 C   0  0  0  0  0  0  0  0  0  0  0  0
    1.8990   -0.4153   -2.2404 H   0  0  0  0  0  0  0  0  0  0  0  0
    0.9124   -1.5751   -1.3274 H   0  0  0  0  0  0  0  0  0  0  0  0
    2.7781   -1.0178   -0.3543 C   0  0  0  0  0  0  0  0  0  0  0  0
    3.9049   -1.6158   -0.9501 C   0  0  0  0  0  0  0  0  0  0  0  0
    3.9150   -1.8084   -2.0351 H   0  0  0  0  0  0  0  0  0  0  0  0
    5.0164   -1.9674   -0.1709 C   0  0  0  0  0  0  0  0  0  0  0  0
    5.8915   -2.4339   -0.6472 H   0  0  0  0  0  0  0  0  0  0  0  0
    5.0159   -1.7156    1.2102 C   0  0  0  0  0  0  0  0  0  0  0  0
    5.8902   -1.9855    1.8207 H   0  0  0  0  0  0  0  0  0  0  0  0
    3.8993   -1.1113    1.8077 C   0  0  0  0  0  0  0  0  0  0  0  0
    3.8956   -0.9050    2.8883 H   0  0  0  0  0  0  0  0  0  0  0  0
    2.7846   -0.7650    1.0296 C   0  0  0  0  0  0  0  0  0  0  0  0
    1.9170   -0.2841    1.5074 H   0  0  0  0  0  0  0  0  0  0  0  0
    1.2288    1.7080   -0.6731 C   0  0  0  0  0  0  0  0  0  0  0  0
    2.4577    2.2506   -1.0777 C   0  0  0  0  0  0  0  0  0  0  0  0
    3.2634    1.6204   -1.4772 H   0  0  0  0  0  0  0  0  0  0  0  0
    2.6153    3.6326   -0.9227 C   0  0  0  0  0  0  0  0  0  0  0  0
    3.5625    4.1037   -1.2221 H   0  0  0  0  0  0  0  0  0  0  0  0
    1.5842    4.4331   -0.3802 C   0  0  0  0  0  0  0  0  0  0  0  0
    1.7454    5.5152   -0.2699 H   0  0  0  0  0  0  0  0  0  0  0  0
    0.3614    3.8856    0.0284 C   0  0  0  0  0  0  0  0  0  0  0  0
   -0.4202    4.5274    0.4520 H   0  0  0  0  0  0  0  0  0  0  0  0
    0.1959    2.4971   -0.1255 C   0  0  0  0  0  0  0  0  0  0  0  0
   -2.1635    2.0432    0.7133 C   0  0  0  0  0  0  0  0  0  0  0  0
   -2.7424    1.1053    0.7821 H   0  0  0  0  0  0  0  0  0  0  0  0
   -2.9009    2.9644   -0.2638 C   0  0  0  0  0  0  0  0  0  0  0  0
   -2.9952    2.4963   -1.2639 H   0  0  0  0  0  0  0  0  0  0  0  0
   -2.3952    3.9397   -0.3951 H   0  0  0  0  0  0  0  0  0  0  0  0
   -3.9201    3.1672    0.1191 H   0  0  0  0  0  0  0  0  0  0  0  0
   -2.0208    2.6131    2.1265 C   0  0  0  0  0  0  0  0  0  0  0  0
   -1.5070    1.8957    2.7948 H   0  0  0  0  0  0  0  0  0  0  0  0
   -3.0264    2.8088    2.5468 H   0  0  0  0  0  0  0  0  0  0  0  0
   -1.4590    3.5661    2.1455 H   0  0  0  0  0  0  0  0  0  0  0  0
  1 28  1  0  0  0  0
  2 18  1  0  0  0  0
  2  3  1  0  0  0  0
  3  1  1  0  0  0  0
  4  2  1  0  0  0  0
  4  7  1  0  0  0  0
  5  4  1  0  0  0  0
  6  4  1  0  0  0  0
  7 16  1  0  0  0  0
  8  7  2  0  0  0  0
  8 10  1  0  0  0  0
  9  8  1  0  0  0  0
 10 12  2  0  0  0  0
 11 10  1  0  0  0  0
 12 14  1  0  0  0  0
 12 13  1  0  0  0  0
 14 15  1  0  0  0  0
 16 17  1  0  0  0  0
 16 14  2  0  0  0  0
 18 27  1  0  0  0  0
 19 21  1  0  0  0  0
 19 18  2  0  0  0  0
 20 19  1  0  0  0  0
 21 23  2  0  0  0  0
 22 21  1  0  0  0  0
 23 24  1  0  0  0  0
 23 25  1  0  0  0  0
 25 26  1  0  0  0  0
 27 25  2  0  0  0  0
 27  1  1  0  0  0  0
 28 29  1  0  0  0  0
 28 34  1  0  0  0  0
 30 33  1  0  0  0  0
 30 28  1  0  0  0  0
 31 30  1  0  0  0  0
 32 30  1  0  0  0  0
 34 37  1  0  0  0  0
 34 36  1  0  0  0  0
 34 35  1  0  0  0  0
M  END
