7
q = 0.0, confidence = 1.0

 34 36  0  0  0  0  0  0  0  0999 V2000
   -0.6027    1.8705    0.1469 N   0  0  0  0  0  0  0  0  0  0  0  0
    0.7331    0.3447   -0.6881 N   0  0  0  0  0  0  0  0  0  0  0  0
    0.5937    2.5252   -0.1714 C   0  0  0  0  0  0  0  0  0  0  0  0
    2.4597   -1.4080   -0.3075 C   0  0  0  0  0  0  0  0  0  0  0  0
    2.4896   -1.1689    1.0788 C   0  0  0  0  0  0  0  0  0  0  0  0
    2.7545    1.8467   -1.1285 C   0  0  0  0  0  0  0  0  0  0  0  0
   -0.5227    0.5368   -0.1680 C   0  0  0  0  0  2  0  0  0  0  0  0
   -1.7234    2.5843    0.7662 C   0  0  0  0  0  0  0  0  0  0  0  0
    1.4537    1.5429   -0.6998 C   0  0  0  0  0  0  0  0  0  0  0  0
    1.3259   -0.8967   -1.1752 C   0  0  0  0  0  0  0  0  0  0  0  0
    3.4869   -2.1688   -0.8973 C   0  0  0  0  0  0  0  0  0  0  0  0
   -1.4846    2.9204    2.2363 C   0  0  0  0  0  0  0  0  0  0  0  0
    3.5285   -1.6887    1.8647 C   0  0  0  0  0  0  0  0  0  0  0  0
    3.1531    3.1852   -1.0187 C   0  0  0  0  0  0  0  0  0  0  0  0
    4.5221   -2.6938   -0.1100 C   0  0  0  0  0  0  0  0  0  0  0  0
    0.9912    3.8676   -0.0664 C   0  0  0  0  0  0  0  0  0  0  0  0
    2.2868    4.1766   -0.5018 C   0  0  0  0  0  0  0  0  0  0  0  0
    4.5448   -2.4545    1.2730 C   0  0  0  0  0  0  0  0  0  0  0  0
    4.1652    3.4712   -1.3392 H   0  0  0  0  0  0  0  0  0  0  0  0
   -2.3611    3.4634    2.6403 H   0  0  0  0  0  0  0  0  0  0  0  0
   -1.8886    3.5067    0.1716 H   0  0  0  0  0  0  0  0  0  0  0  0
    3.5448   -1.4923    2.9470 H   0  0  0  0  0  0  0  0  0  0  0  0
    2.6395    5.2159   -0.4355 H   0  0  0  0  0  0  0  0  0  0  0  0
    3.4321    1.0743   -1.5159 H   0  0  0  0  0  0  0  0  0  0  0  0
    3.4790   -2.3530   -1.9837 H   0  0  0  0  0  0  0  0  0  0  0  0
   -2.6230    1.9573    0.6381 H   0  0  0  0  0  0  0  0  0  0  0  0
   -0.5947    3.5651    2.3700 H   0  0  0  0  0  0  0  0  0  0  0  0
    5.3198   -3.2867   -0.5815 H   0  0  0  0  0  0  0  0  0  0  0  0
    0.3278    4.6449    0.3363 H   0  0  0  0  0  0  0  0  0  0  0  0
    5.3600   -2.8607    1.8899 H   0  0  0  0  0  0  0  0  0  0  0  0
    1.7015   -0.5626    1.5518 H   0  0  0  0  0  0  0  0  0  0  0  0
   -1.3415    2.0061    2.8428 H   0  0  0  0  0  0  0  0  0  0  0  0
    1.6851   -0.7217   -2.2109 H   0  0  0  0  0  0  0  0  0  0  0  0
    0.5106   -1.6408   -1.2453 H   0  0  0  0  0  0  0  0  0  0  0  0
  1  8  1  0  0  0  0
  2  7  1  0  0  0  0
  3 16  1  0  0  0  0
  3  1  1  0  0  0  0
  4  5  1  0  0  0  0
  5 31  1  0  0  0  0
  5 13  2  0  0  0  0
  6 14  2  0  0  0  0
  6  9  1  0  0  0  0
  7  1  1  0  0  0  0
  8 12  1  0  0  0  0
  9  2  1  0  0  0  0
  9  3  2  0  0  0  0
 10  2  1  0  0  0  0
 10  4  1  0  0  0  0
 11  4  2  0  0  0  0
 11 15  1  0  0  0  0
 12 27  1  0  0  0  0
 12 20  1  0  0  0  0
 12 32  1  0  0  0  0
 13 22  1  0  0  0  0
 14 17  1  0  0  0  0
 15 18  2  0  0  0  0
 16 29  1  0  0  0  0
 17 23  1  0  0  0  0
 17 16  2  0  0  0  0
 18 13  1  0  0  0  0
 18 30  1  0  0  0  0
 19 14  1  0  0  0  0
 21  8  1  0  0  0  0
 24  6  1  0  0  0  0
 25 11  1  0  0  0  0
 26  8  1  0  0  0  0
 28 15  1  0  0  0  0
 33 10  1  0  0  0  0
 34 10  1  0  0  0  0
M  END
