7
q = 0.0, confidence = 0.938

 34 33  0  0  0  0  0  0  0  0999 V2000
    3.2984   -0.3682    1.3253 C   0  0  0  0  0  0  0  0  0  0  0  0
    3.6573   -0.2531   -1.1677 C   0  0  0  0  0  0  0  0  0  0  0  0
    3.3527   -2.4706   -0.0461 C   0  0  0  0  0  0  0  0  0  0  0  0
    2.9162   -0.9848   -0.0355 C   0  0  0  0  0  0  0  0  0  0  0  0
    1.3949   -0.9844   -0.1971 C   0  0  0  0  0  3  0  0  0  0  0  0
    0.7147   -0.6889   -1.4178 C   0  0  0  0  0  3  0  0  0  0  0  0
   -0.7147   -0.6889   -1.4179 C   0  0  0  0  0  3  0  0  0  0  0  0
   -1.3949   -0.9844   -0.1971 C   0  0  0  0  0  3  0  0  0  0  0  0
   -2.9162   -0.9848   -0.0356 C   0  0  0  0  0  0  0  0  0  0  0  0
   -3.6573   -0.2530   -1.1677 C   0  0  0  0  0  0  0  0  0  0  0  0
   -3.2984   -0.3684    1.3253 C   0  0  0  0  0  0  0  0  0  0  0  0
   -3.3527   -2.4707   -0.0465 C   0  0  0  0  0  0  0  0  0  0  0  0
    3.0727    0.7157    1.3527 H   0  0  0  0  0  0  0  0  0  0  0  0
    2.7400   -0.8489    2.1541 H   0  0  0  0  0  0  0  0  0  0  0  0
    4.3825   -0.4992    1.5219 H   0  0  0  0  0  0  0  0  0  0  0  0
    3.3649    0.8104   -1.2484 H   0  0  0  0  0  0  0  0  0  0  0  0
    4.7495   -0.2811   -0.9792 H   0  0  0  0  0  0  0  0  0  0  0  0
    3.4833   -0.7372   -2.1502 H   0  0  0  0  0  0  0  0  0  0  0  0
    2.8836   -3.0341    0.7864 H   0  0  0  0  0  0  0  0  0  0  0  0
    3.0664   -2.9651   -0.9967 H   0  0  0  0  0  0  0  0  0  0  0  0
    4.4534   -2.5533    0.0663 H   0  0  0  0  0  0  0  0  0  0  0  0
    0.9223   -1.7266    0.4688 H   0  0  0  0  0  0  0  0  0  0  0  0
    1.2550   -0.3591   -2.3174 H   0  0  0  0  0  0  0  0  0  0  0  0
   -1.2549   -0.3591   -2.3175 H   0  0  0  0  0  0  0  0  0  0  0  0
   -0.9223   -1.7266    0.4688 H   0  0  0  0  0  0  0  0  0  0  0  0
   -3.3649    0.8105   -1.2482 H   0  0  0  0  0  0  0  0  0  0  0  0
   -3.4833   -0.7369   -2.1502 H   0  0  0  0  0  0  0  0  0  0  0  0
   -4.7495   -0.2810   -0.9792 H   0  0  0  0  0  0  0  0  0  0  0  0
   -3.0727    0.7154    1.3529 H   0  0  0  0  0  0  0  0  0  0  0  0
   -4.3825   -0.4995    1.5219 H   0  0  0  0  0  0  0  0  0  0  0  0
   -2.7400   -0.8493    2.1540 H   0  0  0  0  0  0  0  0  0  0  0  0
   -2.8836   -3.0343    0.7860 H   0  0  0  0  0  0  0  0  0  0  0  0
   -4.4533   -2.5534    0.0660 H   0  0  0  0  0  0  0  0  0  0  0  0
   -3.0664   -2.9650   -0.9971 H   0  0  0  0  0  0  0  0  0  0  0  0
  1 13  1  0  0  0  0
  1 15  1  0  0  0  0
  1 14  1  0  0  0  0
  2 17  1  0  0  0  0
  2  4  1  0  0  0  0
  3  4  1  0  0  0  0
  3 21  1  0  0  0  0
  3 19  1  0  0  0  0
  4  1  1  0  0  0  0
  5  4  1  0  0  0  0
  5 22  1  0  0  0  0
  6  5  1  0  0  0  0
  7  6  1  0  0  0  0
  7  8  1  0  0  0  0
  8  9  1  0  0  0  0
  8 25  1  0  0  0  0
  9 11  1  0  0  0  0
 10 28  1  0  0  0  0
 10  9  1  0  0  0  0
 11 29  1  0  0  0  0
 11 30  1  0  0  0  0
 11 31  1  0  0  0  0
 12  9  1  0  0  0  0
 12 33  1  0  0  0  0
 12 32  1  0  0  0  0
 16  2  1  0  0  0  0
 18  2  1  0  0  0  0
 20  3  1  0  0  0  0
 23  6  1  0  0  0  0
 24  7  1  0  0  0  0
 26 10  1  0  0  0  0
 27 10  1  0  0  0  0
 34 12  1  0  0  0  0
M  END
