6
q = -1.0, confidence = 0.092

 24 25  0  0  0  0  0  0  0  0999 V2000
   -5.4121   -0.8304    0.3276 O   0  0  0  0  0  0  0  0  0  0  0  0
   -5.3126    1.3016   -0.5111 O   0  0  0  0  0  0  0  0  0  0  0  0
   -2.8327    1.6247    0.2050 N   0  0  0  0  0  0  0  0  0  0  0  0
   -3.2703    0.2952    0.2268 C   0  0  0  0  0  0  0  0  0  0  0  0
   -2.5085   -0.6367    0.8647 C   0  0  0  0  0  0  0  0  0  0  0  0
   -1.1845   -0.3302    1.4089 C   0  0  0  0  0  3  0  0  0  0  0  0
   -0.8386    1.1256    1.4500 C   0  0  0  0  0  3  0  0  0  0  0  0
   -1.7328    2.0333    0.8392 C   0  0  0  0  0  3  0  0  0  0  0  0
   -4.6211    0.0341   -0.4573 C   0  0  0  0  0  0  0  0  0  0  0  0
   -6.0742    0.0117    1.2712 C   0  0  0  0  0  0  0  0  0  0  0  0
   -6.4006    1.2470    0.4270 C   0  0  0  0  0  0  0  0  0  0  0  0
   -4.4740   -0.5449   -1.8544 C   0  0  0  0  0  0  0  0  0  0  0  0
   -3.5099    2.2818   -0.2083 H   0  0  0  0  0  0  0  0  0  0  0  0
   -1.5823    3.1216    0.9037 H   0  0  0  0  0  0  0  0  0  0  0  0
   -0.1832    1.5311    2.2362 H   0  0  0  0  0  0  0  0  0  0  0  0
   -0.9085   -0.9148    2.3015 H   0  0  0  0  0  0  0  0  0  0  0  0
   -2.9395   -1.6433    0.9753 H   0  0  0  0  0  0  0  0  0  0  0  0
   -6.9623   -0.5235    1.6560 H   0  0  0  0  0  0  0  0  0  0  0  0
   -5.3998    0.2646    2.1230 H   0  0  0  0  0  0  0  0  0  0  0  0
   -6.4356    2.1872    1.0137 H   0  0  0  0  0  0  0  0  0  0  0  0
   -7.3586    1.1299   -0.1243 H   0  0  0  0  0  0  0  0  0  0  0  0
   -3.8411    0.1108   -2.4787 H   0  0  0  0  0  0  0  0  0  0  0  0
   -5.4781   -0.6522   -2.3058 H   0  0  0  0  0  0  0  0  0  0  0  0
   -3.9917   -1.5394   -1.7964 H   0  0  0  0  0  0  0  0  0  0  0  0
  1 10  1  0  0  0  0
  2  9  1  0  0  0  0
  2 11  1  0  0  0  0
  3  4  1  0  0  0  0
  3  8  1  0  0  0  0
  4  5  2  0  0  0  0
  5 17  1  0  0  0  0
  5  6  1  0  0  0  0
  6  7  1  0  0  0  0
  6 16  1  0  0  0  0
  7 15  1  0  0  0  0
  8 14  1  0  0  0  0
  8  7  1  0  0  0  0
  9  4  1  0  0  0  0
  9  1  1  0  0  0  0
 10 18  1  0  0  0  0
 10 19  1  0  0  0  0
 11 20  1  0  0  0  0
 11 10  1  0  0  0  0
 12 24  1  0  0  0  0
 12  9  1  0  0  0  0
 13  3  1  0  0  0  0
 21 11  1  0  0  0  0
 22 12  1  0  0  0  0
 23 12  1  0  0  0  0
M  END
