1
q = 0.0, confidence = 1.0

 24 25  0  0  0  0  0  0  0  0999 V2000
    0.4854   -0.8224   -0.5650 C   0  0  0  0  0  2  0  0  0  0  0  0
    1.6449   -0.2412   -0.9833 N   0  0  0  0  0  0  0  0  0  0  0  0
    1.5418    0.4030   -1.7695 H   0  0  0  0  0  0  0  0  0  0  0  0
    2.9348   -0.2192   -0.3741 C   0  0  0  0  0  0  0  0  0  0  0  0
    3.0664   -0.0524    1.0194 C   0  0  0  0  0  0  0  0  0  0  0  0
    2.1645    0.0302    1.6446 H   0  0  0  0  0  0  0  0  0  0  0  0
    4.3437    0.0270    1.5926 C   0  0  0  0  0  0  0  0  0  0  0  0
    4.4434    0.1540    2.6810 H   0  0  0  0  0  0  0  0  0  0  0  0
    5.4897   -0.0373    0.7841 C   0  0  0  0  0  0  0  0  0  0  0  0
    6.4894    0.0296    1.2372 H   0  0  0  0  0  0  0  0  0  0  0  0
    5.3538   -0.1801   -0.6065 C   0  0  0  0  0  0  0  0  0  0  0  0
    6.2473   -0.2269   -1.2465 H   0  0  0  0  0  0  0  0  0  0  0  0
    4.0820   -0.2756   -1.1879 C   0  0  0  0  0  0  0  0  0  0  0  0
    3.9720   -0.4034   -2.2755 H   0  0  0  0  0  0  0  0  0  0  0  0
    0.6135   -1.8936    0.2163 N   0  0  0  0  0  0  0  0  0  0  0  0
   -0.3812   -2.8374    0.7615 C   0  0  0  0  0  0  0  0  0  0  0  0
   -1.2004   -3.0727    0.0565 H   0  0  0  0  0  0  0  0  0  0  0  0
   -0.8117   -2.4908    1.7231 H   0  0  0  0  0  0  0  0  0  0  0  0
    0.7326   -3.9035    0.9029 C   0  0  0  0  0  0  0  0  0  0  0  0
    0.6369   -4.7372    0.1840 H   0  0  0  0  0  0  0  0  0  0  0  0
    0.8775   -4.3129    1.9184 H   0  0  0  0  0  0  0  0  0  0  0  0
    1.7497   -2.8229    0.4705 C   0  0  0  0  0  0  0  0  0  0  0  0
    2.4341   -2.4645    1.2660 H   0  0  0  0  0  0  0  0  0  0  0  0
    2.3488   -3.0185   -0.4411 H   0  0  0  0  0  0  0  0  0  0  0  0
  1 15  1  0  0  0  0
  2  1  1  0  0  0  0
  2  4  1  0  0  0  0
  3  2  1  0  0  0  0
  4  5  1  0  0  0  0
  5  7  2  0  0  0  0
  5  6  1  0  0  0  0
  7  8  1  0  0  0  0
  9 10  1  0  0  0  0
  9  7  1  0  0  0  0
 11  9  2  0  0  0  0
 12 11  1  0  0  0  0
 13 11  1  0  0  0  0
 13  4  2  0  0  0  0
 14 13  1  0  0  0  0
 15 22  1  0  0  0  0
 15 16  1  0  0  0  0
 16 19  1  0  0  0  0
 16 18  1  0  0  0  0
 17 16  1  0  0  0  0
 19 21  1  0  0  0  0
 20 19  1  0  0  0  0
 22 19  1  0  0  0  0
 22 23  1  0  0  0  0
 24 22  1  0  0  0  0
M  END
