7
q = 0.0, confidence = 0.97

 20 20  0  0  1  0  0  0  0  0999 V2000
    1.9297    3.4672    0.3158 O   0  0  0  0  0  0  0  0  0  0  0  0
    4.5528    0.9424    1.2343 O   0  0  0  0  0  0  0  0  0  0  0  0
    3.8216   -1.5751    0.9974 O   0  0  0  0  0  0  0  0  0  0  0  0
    4.0527    0.5835   -0.0717 C   0  0  1  0  0  0  0  0  0  0  0  0
    3.1053   -0.6047    0.2347 C   0  0  2  0  0  0  0  0  0  0  0  0
    2.8765   -1.0845   -0.7388 H   0  0  0  0  0  0  0  0  0  0  0  0
    1.8170   -0.1651    0.9592 C   0  0  0  0  0  3  0  0  0  0  0  0
    1.4089    1.2341    0.9670 C   0  0  0  0  0  3  0  0  0  0  0  0
    2.1561    2.2555    0.2213 C   0  0  0  0  0  0  0  0  0  0  0  0
    3.2756    1.7510   -0.6881 C   0  0  0  0  0  0  0  0  0  0  0  0
    3.9486    2.6111   -0.8863 H   0  0  0  0  0  0  0  0  0  0  0  0
    2.8552    1.4393   -1.6685 H   0  0  0  0  0  0  0  0  0  0  0  0
    5.2083    0.1347   -0.9686 C   0  0  0  0  0  0  0  0  0  0  0  0
    5.7076   -0.7478   -0.5245 H   0  0  0  0  0  0  0  0  0  0  0  0
    5.9501    0.9523   -1.0882 H   0  0  0  0  0  0  0  0  0  0  0  0
    4.8418   -0.1352   -1.9791 H   0  0  0  0  0  0  0  0  0  0  0  0
    5.2387    1.6231    1.1105 H   0  0  0  0  0  0  0  0  0  0  0  0
    1.7363   -0.6849    1.9304 H   0  0  0  0  0  0  0  0  0  0  0  0
    4.2926   -1.0301    1.6668 H   0  0  0  0  0  0  0  0  0  0  0  0
    0.8896    1.6373    1.8543 H   0  0  0  0  0  0  0  0  0  0  0  0
  3 19  1  0  0  0  0
  4  5  1  0  0  0  0
  4  2  1  1  0  0  0
  5  6  1  6  0  0  0
  5  7  1  0  0  0  0
  5  3  1  0  0  0  0
  7  8  1  0  0  0  0
  7 18  1  0  0  0  0
  8 20  1  0  0  0  0
  9  1  2  0  0  0  0
  9  8  1  0  0  0  0
 10  4  1  0  0  0  0
 10  9  1  0  0  0  0
 11 10  1  0  0  0  0
 12 10  1  0  0  0  0
 13 14  1  0  0  0  0
 13  4  1  0  0  0  0
 15 13  1  0  0  0  0
 16 13  1  0  0  0  0
 17  2  1  0  0  0  0
M  END
