1
q = -1.0, confidence = 0.0

 35 37  0  0  0  0  0  0  0  0999 V2000
   -0.9291   -0.7889   -0.5444 C   0  0  0  0  0  3  0  0  0  0  0  0
   -1.9477    0.1113   -0.7882 C   0  0  0  0  0  0  0  0  0  0  0  0
   -1.2312   -2.1939   -0.1861 C   0  0  0  0  0  0  0  0  0  0  0  0
   -0.8340   -2.7457    1.0552 C   0  0  0  0  0  0  0  0  0  0  0  0
   -1.0853   -4.0886    1.3661 C   0  0  0  0  0  0  0  0  0  0  0  0
   -1.7251   -4.9251    0.4351 C   0  0  0  0  0  0  0  0  0  0  0  0
   -2.1187   -4.3964   -0.8047 C   0  0  0  0  0  0  0  0  0  0  0  0
   -1.8820   -3.0479   -1.1090 C   0  0  0  0  0  0  0  0  0  0  0  0
   -3.3888   -0.2474   -0.6141 C   0  0  0  0  0  0  0  0  0  0  0  0
   -3.8722   -0.8633    0.5622 C   0  0  0  0  0  0  0  0  0  0  0  0
   -5.2251   -1.2040    0.6987 C   0  0  0  0  0  0  0  0  0  0  0  0
   -6.1318   -0.9357   -0.3391 C   0  0  0  0  0  0  0  0  0  0  0  0
   -5.6706   -0.3188   -1.5136 C   0  0  0  0  0  0  0  0  0  0  0  0
   -4.3178    0.0236   -1.6461 C   0  0  0  0  0  0  0  0  0  0  0  0
   -1.6582    1.4937   -1.2238 C   0  0  0  0  0  0  0  0  0  0  0  0
   -2.5292    2.5653   -0.9028 C   0  0  0  0  0  0  0  0  0  0  0  0
   -2.2172    3.8838   -1.2499 C   0  0  0  0  0  0  0  0  0  0  0  0
   -1.0289    4.1783   -1.9420 C   0  0  0  0  0  0  0  0  0  0  0  0
   -0.1636    3.1303   -2.2901 C   0  0  0  0  0  0  0  0  0  0  0  0
   -0.4788    1.8076   -1.9431 C   0  0  0  0  0  0  0  0  0  0  0  0
   -0.3157   -2.1036    1.7814 H   0  0  0  0  0  0  0  0  0  0  0  0
   -0.7721   -4.4868    2.3441 H   0  0  0  0  0  0  0  0  0  0  0  0
   -1.9145   -5.9825    0.6746 H   0  0  0  0  0  0  0  0  0  0  0  0
   -2.6222   -5.0399   -1.5430 H   0  0  0  0  0  0  0  0  0  0  0  0
   -2.2065   -2.6332   -2.0754 H   0  0  0  0  0  0  0  0  0  0  0  0
   -3.1703   -1.0837    1.3782 H   0  0  0  0  0  0  0  0  0  0  0  0
   -5.5742   -1.6844    1.6259 H   0  0  0  0  0  0  0  0  0  0  0  0
   -7.1938   -1.2051   -0.2331 H   0  0  0  0  0  0  0  0  0  0  0  0
   -6.3709   -0.1054   -2.3362 H   0  0  0  0  0  0  0  0  0  0  0  0
   -3.9614    0.5069   -2.5689 H   0  0  0  0  0  0  0  0  0  0  0  0
   -3.4505    2.3525   -0.3424 H   0  0  0  0  0  0  0  0  0  0  0  0
   -2.9037    4.6962   -0.9659 H   0  0  0  0  0  0  0  0  0  0  0  0
   -0.7894    5.2149   -2.2242 H   0  0  0  0  0  0  0  0  0  0  0  0
    0.7502    3.3423   -2.8675 H   0  0  0  0  0  0  0  0  0  0  0  0
    0.1623    0.9678   -2.3014 H   0  0  0  0  0  0  0  0  0  0  0  0
  1  3  1  0  0  0  0
  2  9  1  0  0  0  0
  2  1  2  0  0  0  0
  3  4  1  0  0  0  0
  4  5  2  0  0  0  0
  4 21  1  0  0  0  0
  5 22  1  0  0  0  0
  6 23  1  0  0  0  0
  6  5  1  0  0  0  0
  7  6  2  0  0  0  0
  8  7  1  0  0  0  0
  8  3  2  0  0  0  0
  9 10  1  0  0  0  0
 10 11  2  0  0  0  0
 10 26  1  0  0  0  0
 11 27  1  0  0  0  0
 12 28  1  0  0  0  0
 12 11  1  0  0  0  0
 13 12  2  0  0  0  0
 14 13  1  0  0  0  0
 14  9  2  0  0  0  0
 15 16  1  0  0  0  0
 15  2  1  0  0  0  0
 16 31  1  0  0  0  0
 17 32  1  0  0  0  0
 17 16  2  0  0  0  0
 18 17  1  0  0  0  0
 19 20  1  0  0  0  0
 19 18  2  0  0  0  0
 20 15  2  0  0  0  0
 24  7  1  0  0  0  0
 25  8  1  0  0  0  0
 29 13  1  0  0  0  0
 30 14  1  0  0  0  0
 33 18  1  0  0  0  0
 34 19  1  0  0  0  0
 35 20  1  0  0  0  0
M  END
