3
q = -1.0, confidence = 0.0

 29 29  0  0  1  0  0  0  0  0999 V2000
    1.2326   -1.5897    0.2697 S   0  0  0  0  0  0  0  0  0  0  0  0
   -0.1591    0.4625    1.6081 C   0  0  0  0  0  3  0  0  0  0  0  0
    0.3852    0.0046    0.3589 C   0  0  2  0  0  3  0  0  0  0  0  0
    0.2283    0.8430   -0.8095 C   0  0  2  0  0  3  0  0  0  0  0  0
    0.6640    0.3249   -2.1626 C   0  0  0  0  0  0  0  0  0  0  0  0
    0.3695    2.3668   -0.6561 C   0  0  0  0  0  0  0  0  0  0  0  0
    1.7984    2.8022   -0.4686 C   0  0  0  0  0  0  0  0  0  0  0  0
    2.2334    3.5834    0.5359 C   0  0  0  0  0  0  0  0  0  0  0  0
    2.9465   -1.0839    0.2254 C   0  0  0  0  0  0  0  0  0  0  0  0
    3.8552   -1.9299   -0.4443 C   0  0  0  0  0  0  0  0  0  0  0  0
    5.2188   -1.6054   -0.4796 C   0  0  0  0  0  0  0  0  0  0  0  0
    5.6844   -0.4273    0.1272 C   0  0  0  0  0  0  0  0  0  0  0  0
    4.7749    0.4183    0.7827 C   0  0  0  0  0  0  0  0  0  0  0  0
    3.4128    0.0910    0.8469 C   0  0  0  0  0  0  0  0  0  0  0  0
   -0.0941   -0.2283    2.4636 H   0  0  0  0  0  0  0  0  0  0  0  0
   -0.0986    1.5274    1.8775 H   0  0  0  0  0  0  0  0  0  0  0  0
    0.5053   -0.7646   -2.2570 H   0  0  0  0  0  0  0  0  0  0  0  0
    0.1101    0.8452   -2.9696 H   0  0  0  0  0  0  0  0  0  0  0  0
    1.7479    0.5143   -2.3244 H   0  0  0  0  0  0  0  0  0  0  0  0
   -0.0390    2.8364   -1.5777 H   0  0  0  0  0  0  0  0  0  0  0  0
   -0.2477    2.7460    0.1803 H   0  0  0  0  0  0  0  0  0  0  0  0
    2.5278    2.4420   -1.2161 H   0  0  0  0  0  0  0  0  0  0  0  0
    1.5438    3.9644    1.3085 H   0  0  0  0  0  0  0  0  0  0  0  0
    3.2915    3.8774    0.6190 H   0  0  0  0  0  0  0  0  0  0  0  0
    3.4854   -2.8379   -0.9454 H   0  0  0  0  0  0  0  0  0  0  0  0
    5.9210   -2.2731   -1.0020 H   0  0  0  0  0  0  0  0  0  0  0  0
    6.7528   -0.1678    0.0861 H   0  0  0  0  0  0  0  0  0  0  0  0
    5.1265    1.3460    1.2602 H   0  0  0  0  0  0  0  0  0  0  0  0
    2.7110    0.7555    1.3683 H   0  0  0  0  0  0  0  0  0  0  0  0
  2 16  1  0  0  0  0
  2 15  1  0  0  0  0
  3  1  1  6  0  0  0
  3  2  1  0  0  0  0
  4  5  1  6  0  0  0
  4  6  1  0  0  0  0
  4  3  1  0  0  0  0
  6  7  1  0  0  0  0
  6 21  1  0  0  0  0
  7  8  2  0  0  0  0
  8 24  1  0  0  0  0
  8 23  1  0  0  0  0
  9  1  1  0  0  0  0
  9 14  1  0  0  0  0
 10  9  2  0  0  0  0
 11 10  1  0  0  0  0
 11 12  2  0  0  0  0
 12 13  1  0  0  0  0
 13 14  2  0  0  0  0
 13 28  1  0  0  0  0
 14 29  1  0  0  0  0
 17  5  1  0  0  0  0
 18  5  1  0  0  0  0
 19  5  1  0  0  0  0
 20  6  1  0  0  0  0
 22  7  1  0  0  0  0
 25 10  1  0  0  0  0
 26 11  1  0  0  0  0
 27 12  1  0  0  0  0
M  END
