9
q = 0.0, confidence = 0.976

 61 63  0  0  1  0  0  0  0  0999 V2000
    1.0066    0.0406   -0.0680 B   0  0  0  0  0  0  0  0  0  0  0  0
   -0.4450   -0.5494   -0.3415 C   0  0  0  0  0  0  0  0  0  0  0  0
   -0.9321   -1.6949    0.3927 C   0  0  0  0  0  0  0  0  0  0  0  0
   -2.0860   -2.4113   -0.0452 C   0  0  0  0  0  0  0  0  0  0  0  0
   -2.4490   -3.2604    0.5513 H   0  0  0  0  0  0  0  0  0  0  0  0
   -2.8219   -1.9980   -1.1895 C   0  0  0  0  0  0  0  0  0  0  0  0
   -2.3691   -0.8496   -1.9007 C   0  0  0  0  0  3  0  0  0  0  0  0
   -2.9522   -0.4887   -2.7599 H   0  0  0  0  0  0  0  0  0  0  0  0
   -1.2388   -0.0939   -1.4697 C   0  0  2  0  0  3  0  0  0  0  0  0
   -0.8649    1.1195   -2.2854 C   0  0  0  0  0  0  0  0  0  0  0  0
   -1.7016    1.4101   -2.9481 H   0  0  0  0  0  0  0  0  0  0  0  0
    0.0162    0.9048   -2.9251 H   0  0  0  0  0  0  0  0  0  0  0  0
   -0.6031    1.9834   -1.6509 H   0  0  0  0  0  0  0  0  0  0  0  0
   -0.2210   -2.1956    1.6258 C   0  0  0  0  0  0  0  0  0  0  0  0
    0.2600   -1.3750    2.1892 H   0  0  0  0  0  0  0  0  0  0  0  0
    0.5776   -2.9123    1.3465 H   0  0  0  0  0  0  0  0  0  0  0  0
   -0.9290   -2.7065    2.3059 H   0  0  0  0  0  0  0  0  0  0  0  0
   -4.0284   -2.7673   -1.6545 C   0  0  0  0  0  0  0  0  0  0  0  0
   -3.7223   -3.5513   -2.3788 H   0  0  0  0  0  0  0  0  0  0  0  0
   -4.7601   -2.1066   -2.1571 H   0  0  0  0  0  0  0  0  0  0  0  0
   -4.5393   -3.2652   -0.8086 H   0  0  0  0  0  0  0  0  0  0  0  0
    1.3153    1.5868   -0.0747 C   0  0  0  0  0  0  0  0  0  0  0  0
    0.7162    2.4953    0.8413 C   0  0  0  0  0  0  0  0  0  0  0  0
    0.9227    3.8811    0.6998 C   0  0  0  0  0  0  0  0  0  0  0  0
    0.4434    4.5649    1.4197 H   0  0  0  0  0  0  0  0  0  0  0  0
    1.7234    4.4123   -0.3213 C   0  0  0  0  0  0  0  0  0  0  0  0
    2.3622    3.5038   -1.1888 C   0  0  0  0  0  0  0  0  0  0  0  0
    3.0178    3.8942   -1.9850 H   0  0  0  0  0  0  0  0  0  0  0  0
    2.1926    2.1155   -1.0753 C   0  0  0  0  0  0  0  0  0  0  0  0
   -0.0513    2.0177    2.0480 C   0  0  0  0  0  0  0  0  0  0  0  0
   -0.9917    2.5852    2.1901 H   0  0  0  0  0  0  0  0  0  0  0  0
    0.5562    2.1583    2.9676 H   0  0  0  0  0  0  0  0  0  0  0  0
   -0.3131    0.9479    1.9807 H   0  0  0  0  0  0  0  0  0  0  0  0
    1.8999    5.8989   -0.4951 C   0  0  0  0  0  0  0  0  0  0  0  0
    1.5374    6.4606    0.3874 H   0  0  0  0  0  0  0  0  0  0  0  0
    1.3342    6.2655   -1.3785 H   0  0  0  0  0  0  0  0  0  0  0  0
    2.9632    6.1657   -0.6636 H   0  0  0  0  0  0  0  0  0  0  0  0
    2.9403    1.2220   -2.0403 C   0  0  0  0  0  0  0  0  0  0  0  0
    2.2717    0.5181   -2.5767 H   0  0  0  0  0  0  0  0  0  0  0  0
    3.6876    0.5941   -1.5148 H   0  0  0  0  0  0  0  0  0  0  0  0
    3.4714    1.8221   -2.8041 H   0  0  0  0  0  0  0  0  0  0  0  0
    2.1826   -1.0092    0.0584 C   0  0  0  0  0  0  0  0  0  0  0  0
    2.3154   -2.1013   -0.8530 C   0  0  0  0  0  0  0  0  0  0  0  0
    3.3791   -3.0120   -0.7083 C   0  0  0  0  0  0  0  0  0  0  0  0
    3.4775   -3.8336   -1.4370 H   0  0  0  0  0  0  0  0  0  0  0  0
    4.3174   -2.9091    0.3307 C   0  0  0  0  0  0  0  0  0  0  0  0
    4.1790   -1.8343    1.2277 C   0  0  0  0  0  0  0  0  0  0  0  0
    4.9014   -1.7284    2.0540 H   0  0  0  0  0  0  0  0  0  0  0  0
    3.1536   -0.8829    1.1021 C   0  0  0  0  0  0  0  0  0  0  0  0
    1.3725   -2.3227   -2.0172 C   0  0  0  0  0  0  0  0  0  0  0  0
    1.8305   -2.9978   -2.7659 H   0  0  0  0  0  0  0  0  0  0  0  0
    1.1034   -1.3818   -2.5350 H   0  0  0  0  0  0  0  0  0  0  0  0
    0.4167   -2.7836   -1.6943 H   0  0  0  0  0  0  0  0  0  0  0  0
    5.4399   -3.9028    0.4835 C   0  0  0  0  0  0  0  0  0  0  0  0
    5.4103   -4.6801   -0.3043 H   0  0  0  0  0  0  0  0  0  0  0  0
    5.3931   -4.4131    1.4684 H   0  0  0  0  0  0  0  0  0  0  0  0
    6.4296   -3.4024    0.4325 H   0  0  0  0  0  0  0  0  0  0  0  0
    3.1000    0.2367    2.1168 C   0  0  0  0  0  0  0  0  0  0  0  0
    2.1133    0.3006    2.6179 H   0  0  0  0  0  0  0  0  0  0  0  0
    3.2726    1.2237    1.6436 H   0  0  0  0  0  0  0  0  0  0  0  0
    3.8651    0.0927    2.9036 H   0  0  0  0  0  0  0  0  0  0  0  0
  1 42  1  0  0  0  0
  2  1  1  0  0  0  0
  2  3  2  0  0  0  0
  3 14  1  0  0  0  0
  4  3  1  0  0  0  0
  4  5  1  0  0  0  0
  6  4  2  0  0  0  0
  7  9  1  0  0  0  0
  7  6  1  0  0  0  0
  8  7  1  0  0  0  0
  9 10  1  6  0  0  0
  9  2  1  0  0  0  0
 10 13  1  0  0  0  0
 11 10  1  0  0  0  0
 12 10  1  0  0  0  0
 14 15  1  0  0  0  0
 14 17  1  0  0  0  0
 16 14  1  0  0  0  0
 18  6  1  0  0  0  0
 18 21  1  0  0  0  0
 19 18  1  0  0  0  0
 20 18  1  0  0  0  0
 22  1  1  0  0  0  0
 22 23  1  0  0  0  0
 23 30  1  0  0  0  0
 24 23  2  0  0  0  0
 24 25  1  0  0  0  0
 26 24  1  0  0  0  0
 27 29  1  0  0  0  0
 27 26  2  0  0  0  0
 28 27  1  0  0  0  0
 29 22  2  0  0  0  0
 30 31  1  0  0  0  0
 30 32  1  0  0  0  0
 33 30  1  0  0  0  0
 34 26  1  0  0  0  0
 34 35  1  0  0  0  0
 36 34  1  0  0  0  0
 37 34  1  0  0  0  0
 38 40  1  0  0  0  0
 38 29  1  0  0  0  0
 39 38  1  0  0  0  0
 41 38  1  0  0  0  0
 42 49  1  0  0  0  0
 43 44  1  0  0  0  0
 43 42  2  0  0  0  0
 44 46  2  0  0  0  0
 45 44  1  0  0  0  0
 46 54  1  0  0  0  0
 46 47  1  0  0  0  0
 47 48  1  0  0  0  0
 49 47  2  0  0  0  0
 49 58  1  0  0  0  0
 50 53  1  0  0  0  0
 50 43  1  0  0  0  0
 51 50  1  0  0  0  0
 52 50  1  0  0  0  0
 54 56  1  0  0  0  0
 55 54  1  0  0  0  0
 57 54  1  0  0  0  0
 58 59  1  0  0  0  0
 58 61  1  0  0  0  0
 60 58  1  0  0  0  0
M  END
