4
q = 0.0, confidence = 0.986

 59 62  0  0  0  0  0  0  0  0999 V2000
   -1.0232    1.5534    1.4127 N   0  0  0  0  0  0  0  0  0  0  0  0
    0.2941   -0.0236    2.0954 N   0  0  0  0  0  0  0  0  0  0  0  0
    2.8694   -0.7315    0.9917 N   0  0  0  0  0  0  0  0  0  0  0  0
   -0.7523    0.2116    1.2401 C   0  0  0  0  0  2  0  0  0  0  0  0
   -0.1493    2.1280    2.3364 C   0  0  0  0  0  0  0  0  0  0  0  0
   -0.2220    3.1810    2.6211 H   0  0  0  0  0  0  0  0  0  0  0  0
    0.6904    1.1315    2.7533 C   0  0  0  0  0  0  0  0  0  0  0  0
    1.5311    1.1406    3.4517 H   0  0  0  0  0  0  0  0  0  0  0  0
    0.9039   -1.3355    2.2803 C   0  0  0  0  0  0  0  0  0  0  0  0
    0.0836   -2.0797    2.3016 H   0  0  0  0  0  0  0  0  0  0  0  0
    1.4032   -1.3289    3.2704 H   0  0  0  0  0  0  0  0  0  0  0  0
    1.9213   -1.6582    1.2049 C   0  0  0  0  0  0  0  0  0  0  0  0
    1.8599   -2.8702    0.4961 C   0  0  0  0  0  0  0  0  0  0  0  0
    1.0457   -3.5833    0.6910 H   0  0  0  0  0  0  0  0  0  0  0  0
    2.8400   -3.1155   -0.4761 C   0  0  0  0  0  0  0  0  0  0  0  0
    2.8244   -4.0469   -1.0625 H   0  0  0  0  0  0  0  0  0  0  0  0
    3.8233   -2.1468   -0.7092 C   0  0  0  0  0  0  0  0  0  0  0  0
    4.5917   -2.2949   -1.4815 H   0  0  0  0  0  0  0  0  0  0  0  0
    3.8095   -0.9554    0.0511 C   0  0  0  0  0  0  0  0  0  0  0  0
    4.8321    0.1137   -0.1622 C   0  0  0  0  0  0  0  0  0  0  0  0
    6.2112   -0.1636    0.0167 C   0  0  0  0  0  0  0  0  0  0  0  0
    7.1466    0.8690   -0.1913 C   0  0  0  0  0  0  0  0  0  0  0  0
    8.2165    0.6535   -0.0358 H   0  0  0  0  0  0  0  0  0  0  0  0
    6.7588    2.1609   -0.5790 C   0  0  0  0  0  0  0  0  0  0  0  0
    5.3835    2.4121   -0.7458 C   0  0  0  0  0  0  0  0  0  0  0  0
    5.0529    3.4196   -1.0485 H   0  0  0  0  0  0  0  0  0  0  0  0
    4.4124    1.4199   -0.5386 C   0  0  0  0  0  0  0  0  0  0  0  0
    6.7068   -1.5247    0.4495 C   0  0  0  0  0  0  0  0  0  0  0  0
    7.7124   -1.4475    0.9069 H   0  0  0  0  0  0  0  0  0  0  0  0
    6.7940   -2.2267   -0.4068 H   0  0  0  0  0  0  0  0  0  0  0  0
    6.0281   -2.0017    1.1832 H   0  0  0  0  0  0  0  0  0  0  0  0
    7.7736    3.2520   -0.8114 C   0  0  0  0  0  0  0  0  0  0  0  0
    8.8004    2.9143   -0.5717 H   0  0  0  0  0  0  0  0  0  0  0  0
    7.5550    4.1466   -0.1920 H   0  0  0  0  0  0  0  0  0  0  0  0
    7.7670    3.5880   -1.8699 H   0  0  0  0  0  0  0  0  0  0  0  0
    2.9525    1.7506   -0.7271 C   0  0  0  0  0  0  0  0  0  0  0  0
    2.8262    2.7700   -1.1395 H   0  0  0  0  0  0  0  0  0  0  0  0
    2.4034    1.6817    0.2334 H   0  0  0  0  0  0  0  0  0  0  0  0
    2.4569    1.0362   -1.4171 H   0  0  0  0  0  0  0  0  0  0  0  0
   -2.0977    2.2697    0.7808 C   0  0  0  0  0  0  0  0  0  0  0  0
   -1.7866    3.2137   -0.2247 C   0  0  0  0  0  0  0  0  0  0  0  0
   -2.8531    3.8719   -0.8621 C   0  0  0  0  0  0  0  0  0  0  0  0
   -2.6253    4.5984   -1.6586 H   0  0  0  0  0  0  0  0  0  0  0  0
   -4.1939    3.6191   -0.5196 C   0  0  0  0  0  0  0  0  0  0  0  0
   -4.4543    2.7046    0.5173 C   0  0  0  0  0  0  0  0  0  0  0  0
   -5.4963    2.5176    0.8229 H   0  0  0  0  0  0  0  0  0  0  0  0
   -3.4270    2.0212    1.1932 C   0  0  0  0  0  0  0  0  0  0  0  0
   -0.3591    3.4957   -0.6195 C   0  0  0  0  0  0  0  0  0  0  0  0
    0.2231    2.5608   -0.7392 H   0  0  0  0  0  0  0  0  0  0  0  0
    0.1717    4.0982    0.1473 H   0  0  0  0  0  0  0  0  0  0  0  0
   -0.3163    4.0559   -1.5726 H   0  0  0  0  0  0  0  0  0  0  0  0
   -5.3241    4.2942   -1.2553 C   0  0  0  0  0  0  0  0  0  0  0  0
   -5.0022    5.2485   -1.7161 H   0  0  0  0  0  0  0  0  0  0  0  0
   -6.1807    4.5036   -0.5843 H   0  0  0  0  0  0  0  0  0  0  0  0
   -5.7051    3.6459   -2.0737 H   0  0  0  0  0  0  0  0  0  0  0  0
   -3.7396    1.0770    2.3204 C   0  0  0  0  0  0  0  0  0  0  0  0
   -4.7833    1.2059    2.6637 H   0  0  0  0  0  0  0  0  0  0  0  0
   -3.0631    1.2386    3.1840 H   0  0  0  0  0  0  0  0  0  0  0  0
   -3.5969    0.0157    2.0218 H   0  0  0  0  0  0  0  0  0  0  0  0
  1  5  1  0  0  0  0
  2  9  1  0  0  0  0
  2  7  1  0  0  0  0
  3 12  1  0  0  0  0
  4  1  1  0  0  0  0
  4  2  1  0  0  0  0
  5  6  1  0  0  0  0
  5  7  2  0  0  0  0
  7  8  1  0  0  0  0
  9 10  1  0  0  0  0
  9 11  1  0  0  0  0
 12  9  1  0  0  0  0
 13 14  1  0  0  0  0
 13 12  2  0  0  0  0
 15 13  1  0  0  0  0
 16 15  1  0  0  0  0
 17 15  2  0  0  0  0
 17 19  1  0  0  0  0
 18 17  1  0  0  0  0
 19  3  2  0  0  0  0
 20 21  1  0  0  0  0
 20 19  1  0  0  0  0
 21 28  1  0  0  0  0
 22 23  1  0  0  0  0
 22 21  2  0  0  0  0
 24 22  1  0  0  0  0
 25 24  2  0  0  0  0
 25 27  1  0  0  0  0
 26 25  1  0  0  0  0
 27 20  2  0  0  0  0
 28 29  1  0  0  0  0
 28 31  1  0  0  0  0
 30 28  1  0  0  0  0
 32 24  1  0  0  0  0
 32 33  1  0  0  0  0
 32 34  1  0  0  0  0
 35 32  1  0  0  0  0
 36 27  1  0  0  0  0
 36 38  1  0  0  0  0
 37 36  1  0  0  0  0
 39 36  1  0  0  0  0
 40 47  1  0  0  0  0
 40  1  1  0  0  0  0
 41 40  2  0  0  0  0
 42 44  2  0  0  0  0
 42 41  1  0  0  0  0
 43 42  1  0  0  0  0
 44 45  1  0  0  0  0
 45 46  1  0  0  0  0
 45 47  2  0  0  0  0
 47 56  1  0  0  0  0
 48 41  1  0  0  0  0
 48 50  1  0  0  0  0
 49 48  1  0  0  0  0
 51 48  1  0  0  0  0
 52 54  1  0  0  0  0
 52 44  1  0  0  0  0
 53 52  1  0  0  0  0
 55 52  1  0  0  0  0
 56 57  1  0  0  0  0
 56 58  1  0  0  0  0
 59 56  1  0  0  0  0
M  END
