4
q = -1.0, confidence = 0.002

 44 46  0  0  0  0  0  0  0  0999 V2000
    0.7514    0.4894   -0.6256 P   0  0  0  0  0  0  0  0  0  0  0  0
    1.8971   -2.1819   -1.6031 Si  0  0  0  0  0  0  0  0  0  0  0  0
    0.7338   -2.6616   -0.1769 C   0  0  0  0  0  0  0  0  0  0  0  0
   -0.6492   -3.0586   -0.3002 C   0  0  0  0  0  3  0  0  0  0  0  0
   -1.2572   -3.0961    1.0143 C   0  0  0  0  0  0  0  0  0  0  0  0
   -0.2592   -2.7007    1.9535 C   0  0  0  0  0  0  0  0  0  0  0  0
    0.9654   -2.4342    1.2435 C   0  0  0  0  0  0  0  0  0  0  0  0
    3.6756   -2.1492   -0.9836 C   0  0  0  0  0  0  0  0  0  0  0  0
    1.6788   -3.3767   -3.0445 C   0  0  0  0  0  0  0  0  0  0  0  0
    1.2885   -0.4412   -2.1296 C   0  0  0  0  0  0  0  0  0  0  0  0
    0.1560    2.1263   -1.1870 C   0  0  0  0  0  0  0  0  0  0  0  0
   -0.3505    2.3198   -2.4871 C   0  0  0  0  0  0  0  0  0  0  0  0
   -0.8193    3.5835   -2.8748 C   0  0  0  0  0  0  0  0  0  0  0  0
   -0.7988    4.6528   -1.9658 C   0  0  0  0  0  0  0  0  0  0  0  0
   -0.3037    4.4590   -0.6663 C   0  0  0  0  0  0  0  0  0  0  0  0
    0.1744    3.2014   -0.2742 C   0  0  0  0  0  0  0  0  0  0  0  0
    2.3385    0.9200    0.2135 C   0  0  0  0  0  0  0  0  0  0  0  0
    3.3741    1.5144   -0.5388 C   0  0  0  0  0  0  0  0  0  0  0  0
    4.6056    1.8059    0.0633 C   0  0  0  0  0  0  0  0  0  0  0  0
    4.8087    1.5207    1.4244 C   0  0  0  0  0  0  0  0  0  0  0  0
    3.7715    0.9567    2.1825 C   0  0  0  0  0  0  0  0  0  0  0  0
    2.5379    0.6570    1.5812 C   0  0  0  0  0  0  0  0  0  0  0  0
   -1.1709   -3.2816   -1.2393 H   0  0  0  0  0  0  0  0  0  0  0  0
   -2.3016   -3.3422    1.2357 H   0  0  0  0  0  0  0  0  0  0  0  0
   -0.4103   -2.5705    3.0323 H   0  0  0  0  0  0  0  0  0  0  0  0
    1.9193   -2.1447    1.6996 H   0  0  0  0  0  0  0  0  0  0  0  0
    3.9986   -3.1648   -0.6758 H   0  0  0  0  0  0  0  0  0  0  0  0
    3.7956   -1.4651   -0.1207 H   0  0  0  0  0  0  0  0  0  0  0  0
    4.3595   -1.8010   -1.7843 H   0  0  0  0  0  0  0  0  0  0  0  0
    1.9777   -4.4045   -2.7547 H   0  0  0  0  0  0  0  0  0  0  0  0
    2.3004   -3.0708   -3.9107 H   0  0  0  0  0  0  0  0  0  0  0  0
    0.6220   -3.4068   -3.3791 H   0  0  0  0  0  0  0  0  0  0  0  0
    2.0057    0.1296   -2.7555 H   0  0  0  0  0  0  0  0  0  0  0  0
    0.3582   -0.5999   -2.7176 H   0  0  0  0  0  0  0  0  0  0  0  0
   -0.3915    1.4831   -3.1983 H   0  0  0  0  0  0  0  0  0  0  0  0
   -1.2130    3.7289   -3.8920 H   0  0  0  0  0  0  0  0  0  0  0  0
   -1.1743    5.6414   -2.2707 H   0  0  0  0  0  0  0  0  0  0  0  0
   -0.2918    5.2927    0.0518 H   0  0  0  0  0  0  0  0  0  0  0  0
    0.5529    3.0475    0.7468 H   0  0  0  0  0  0  0  0  0  0  0  0
    3.2174    1.7566   -1.6015 H   0  0  0  0  0  0  0  0  0  0  0  0
    5.4107    2.2627   -0.5321 H   0  0  0  0  0  0  0  0  0  0  0  0
    5.7762    1.7503    1.8962 H   0  0  0  0  0  0  0  0  0  0  0  0
    3.9173    0.7527    3.2541 H   0  0  0  0  0  0  0  0  0  0  0  0
    1.7072    0.2436    2.1742 H   0  0  0  0  0  0  0  0  0  0  0  0
  1 17  1  0  0  0  0
  2  8  1  0  0  0  0
  2  3  1  0  0  0  0
  3  7  2  0  0  0  0
  4  3  1  0  0  0  0
  4  5  1  0  0  0  0
  5 24  1  0  0  0  0
  5  6  2  0  0  0  0
  6 25  1  0  0  0  0
  7 26  1  0  0  0  0
  7  6  1  0  0  0  0
  8 27  1  0  0  0  0
  8 28  1  0  0  0  0
  9 30  1  0  0  0  0
  9  2  1  0  0  0  0
 10  2  1  0  0  0  0
 10  1  1  0  0  0  0
 11  1  1  0  0  0  0
 11 16  1  0  0  0  0
 12 11  2  0  0  0  0
 13 12  1  0  0  0  0
 13 14  2  0  0  0  0
 14 15  1  0  0  0  0
 15 16  2  0  0  0  0
 15 38  1  0  0  0  0
 16 39  1  0  0  0  0
 17 22  1  0  0  0  0
 18 19  1  0  0  0  0
 18 17  2  0  0  0  0
 19 20  2  0  0  0  0
 20 42  1  0  0  0  0
 20 21  1  0  0  0  0
 21 43  1  0  0  0  0
 22 44  1  0  0  0  0
 22 21  2  0  0  0  0
 23  4  1  0  0  0  0
 29  8  1  0  0  0  0
 31  9  1  0  0  0  0
 32  9  1  0  0  0  0
 33 10  1  0  0  0  0
 34 10  1  0  0  0  0
 35 12  1  0  0  0  0
 36 13  1  0  0  0  0
 37 14  1  0  0  0  0
 40 18  1  0  0  0  0
 41 19  1  0  0  0  0
M  END
