7
q = 0.0, confidence = 0.99

 27 28  0  0  1  0  0  0  0  0999 V2000
   -1.6690    0.1610    2.3945 O   0  0  0  0  0  0  0  0  0  0  0  0
   -1.6680    0.1594   -2.3949 O   0  0  0  0  0  0  0  0  0  0  0  0
   -3.4390    0.5516   -0.0010 O   0  0  0  0  0  0  0  0  0  0  0  0
   -1.3546    0.0204    1.2269 C   0  0  0  0  0  0  0  0  0  0  0  0
   -2.0374    0.7013   -0.0005 C   0  0  1  0  0  0  0  0  0  0  0  0
   -1.3539    0.0198   -1.2273 C   0  0  0  0  0  0  0  0  0  0  0  0
   -0.2551   -0.8536   -0.7136 C   0  0  1  0  0  3  0  0  0  0  0  0
    0.7661   -1.5281   -1.4477 C   0  0  0  0  0  0  0  0  0  0  0  0
    0.7756   -1.4800   -2.5453 H   0  0  0  0  0  0  0  0  0  0  0  0
    1.7814   -2.1913   -0.7176 C   0  0  0  0  0  0  0  0  0  0  0  0
    2.6135   -2.6705   -1.2522 H   0  0  0  0  0  0  0  0  0  0  0  0
    1.7811   -2.1910    0.7207 C   0  0  0  0  0  0  0  0  0  0  0  0
    2.6128   -2.6698    1.2561 H   0  0  0  0  0  0  0  0  0  0  0  0
    0.7657   -1.5263    1.4492 C   0  0  0  0  0  0  0  0  0  0  0  0
    0.7747   -1.4770    2.5468 H   0  0  0  0  0  0  0  0  0  0  0  0
   -0.2559   -0.8533    0.7142 C   0  0  1  0  0  3  0  0  0  0  0  0
   -1.7664    2.2054   -0.0003 C   0  0  0  0  0  0  0  0  0  0  0  0
   -2.2317    2.6421    0.9043 H   0  0  0  0  0  0  0  0  0  0  0  0
   -2.2287    2.6424   -0.9063 H   0  0  0  0  0  0  0  0  0  0  0  0
   -0.6832    2.4262    0.0016 H   0  0  0  0  0  0  0  0  0  0  0  0
   -3.9255   -0.7890   -0.0008 C   0  0  0  0  0  0  0  0  0  0  0  0
   -3.5581   -1.3373    0.8998 H   0  0  0  0  0  0  0  0  0  0  0  0
   -3.5587   -1.3373   -0.9016 H   0  0  0  0  0  0  0  0  0  0  0  0
   -5.4410   -0.7323   -0.0003 C   0  0  0  0  0  0  0  0  0  0  0  0
   -5.8684   -1.7545   -0.0002 H   0  0  0  0  0  0  0  0  0  0  0  0
   -5.8084   -0.1967   -0.8978 H   0  0  0  0  0  0  0  0  0  0  0  0
   -5.8078   -0.1968    0.8975 H   0  0  0  0  0  0  0  0  0  0  0  0
  2  6  2  0  0  0  0
  3 21  1  0  0  0  0
  4  1  2  0  0  0  0
  5  3  1  6  0  0  0
  5 17  1  0  0  0  0
  5  4  1  0  0  0  0
  6  7  1  0  0  0  0
  6  5  1  0  0  0  0
  7  8  1  1  0  0  0
  7 16  1  0  0  0  0
  8 10  2  0  0  0  0
  9  8  1  0  0  0  0
 10 12  1  0  0  0  0
 11 10  1  0  0  0  0
 12 13  1  0  0  0  0
 12 14  2  0  0  0  0
 14 15  1  0  0  0  0
 16  4  1  1  0  0  0
 16 14  1  0  0  0  0
 17 20  1  0  0  0  0
 17 18  1  0  0  0  0
 19 17  1  0  0  0  0
 21 24  1  0  0  0  0
 21 22  1  0  0  0  0
 23 21  1  0  0  0  0
 24 25  1  0  0  0  0
 24 27  1  0  0  0  0
 26 24  1  0  0  0  0
M  END
