1
q = -1.0, confidence = 0.02

 13 12  0  0  0  0  0  0  0  0999 V2000
    0.8712    0.5687   -0.1667 C   0  0  0  0  0  3  0  0  0  0  0  0
    1.9175   -0.2688    0.1017 C   0  0  0  0  0  0  0  0  0  0  0  0
    1.7110   -1.2493    0.5625 H   0  0  0  0  0  0  0  0  0  0  0  0
    3.3627   -0.0308   -0.1632 C   0  0  0  0  0  0  0  0  0  0  0  0
    4.2754   -1.1739    0.2742 C   0  0  0  0  0  0  0  0  0  0  0  0
    3.9910   -2.1192   -0.2338 H   0  0  0  0  0  0  0  0  0  0  0  0
    4.1724   -1.3547    1.3647 H   0  0  0  0  0  0  0  0  0  0  0  0
    5.3244   -0.9228    0.0352 H   0  0  0  0  0  0  0  0  0  0  0  0
    1.0542    1.9287   -0.7689 C   0  0  0  0  0  0  0  0  0  0  0  0
    0.3566    2.0919   -1.6170 H   0  0  0  0  0  0  0  0  0  0  0  0
    2.1030    2.0786   -1.0948 H   0  0  0  0  0  0  0  0  0  0  0  0
    0.8040    2.7115   -0.0202 H   0  0  0  0  0  0  0  0  0  0  0  0
    3.8434    0.9752   -0.6874 O   0  0  0  0  0  0  0  0  0  0  0  0
  1  2  2  0  0  0  0
  2  3  1  0  0  0  0
  4  2  1  0  0  0  0
  4  5  1  0  0  0  0
  5  7  1  0  0  0  0
  6  5  1  0  0  0  0
  8  5  1  0  0  0  0
  9  1  1  0  0  0  0
  9 12  1  0  0  0  0
 10  9  1  0  0  0  0
 11  9  1  0  0  0  0
 13  4  2  0  0  0  0
M  END
