12
q = 0.0, confidence = 0.97

 37 38  0  0  1  0  0  0  0  0999 V2000
   -2.4574   -2.3884   -1.5887 O   0  0  0  0  0  0  0  0  0  0  0  0
   -1.8313    2.2471   -1.6109 O   0  0  0  0  0  0  0  0  0  0  0  0
   -3.7834    3.4291    0.3046 O   0  0  0  0  0  0  0  0  0  0  0  0
   -2.9070    2.3648    2.1009 O   0  0  0  0  0  0  0  0  0  0  0  0
   -4.8796   -1.9353    1.4993 O   0  0  0  0  0  0  0  0  0  0  0  0
   -5.5147   -0.7212   -0.3057 O   0  0  0  0  0  0  0  0  0  0  0  0
   -2.1782   -0.0865   -1.7229 N   0  0  0  0  0  0  0  0  0  0  0  0
   -2.2586   -1.1736   -1.0440 C   0  0  0  0  0  0  0  0  0  0  0  0
   -2.1993   -1.1116    0.4520 C   0  0  1  0  0  0  0  0  0  0  0  0
   -2.3074   -2.1072    0.9204 H   0  0  0  0  0  0  0  0  0  0  0  0
   -0.9479   -0.3337    0.8675 C   0  0  0  0  0  3  0  0  0  0  0  0
   -0.8241    0.9074    0.1123 C   0  0  0  0  0  3  0  0  0  0  0  0
   -1.9998    1.0653   -0.8609 C   0  0  1  0  0  0  0  0  0  0  0  0
   -3.3312    1.1213    0.0500 C   0  0  1  0  0  0  0  0  0  0  0  0
   -4.1884    1.1899   -0.6468 H   0  0  0  0  0  0  0  0  0  0  0  0
   -3.4219   -0.1923    0.8462 C   0  0  1  0  0  0  0  0  0  0  0  0
   -3.3302    0.0155    1.9310 H   0  0  0  0  0  0  0  0  0  0  0  0
   -3.3131    2.3322    0.9501 C   0  0  0  0  0  0  0  0  0  0  0  0
   -4.7228   -0.9327    0.5946 C   0  0  0  0  0  0  0  0  0  0  0  0
   -2.5967   -2.4110   -3.0180 C   0  0  0  0  0  0  0  0  0  0  0  0
   -3.4582   -1.7841   -3.3259 H   0  0  0  0  0  0  0  0  0  0  0  0
   -2.7693   -3.4687   -3.2875 H   0  0  0  0  0  0  0  0  0  0  0  0
   -1.6742   -2.0263   -3.4942 H   0  0  0  0  0  0  0  0  0  0  0  0
   -2.8018    2.4973   -2.6172 C   0  0  0  0  0  0  0  0  0  0  0  0
   -2.9830    1.5899   -3.2302 H   0  0  0  0  0  0  0  0  0  0  0  0
   -2.3903    3.3001   -3.2597 H   0  0  0  0  0  0  0  0  0  0  0  0
   -3.7614    2.8514   -2.1801 H   0  0  0  0  0  0  0  0  0  0  0  0
   -3.6935    4.6556    1.0346 C   0  0  0  0  0  0  0  0  0  0  0  0
   -4.2332    4.5841    2.0004 H   0  0  0  0  0  0  0  0  0  0  0  0
   -4.1491    5.4301    0.3921 H   0  0  0  0  0  0  0  0  0  0  0  0
   -2.6347    4.9080    1.2477 H   0  0  0  0  0  0  0  0  0  0  0  0
   -6.0311   -2.7624    1.2988 C   0  0  0  0  0  0  0  0  0  0  0  0
   -6.9618   -2.1612    1.3341 H   0  0  0  0  0  0  0  0  0  0  0  0
   -6.0214   -3.5072    2.1145 H   0  0  0  0  0  0  0  0  0  0  0  0
   -5.9844   -3.2681    0.3128 H   0  0  0  0  0  0  0  0  0  0  0  0
   -0.8796   -0.2619    1.9680 H   0  0  0  0  0  0  0  0  0  0  0  0
   -0.6214    1.8369    0.6739 H   0  0  0  0  0  0  0  0  0  0  0  0
  1  8  1  0  0  0  0
  3 18  1  0  0  0  0
  3 28  1  0  0  0  0
  6 19  2  0  0  0  0
  7  8  2  0  0  0  0
  7 13  1  0  0  0  0
  8  9  1  0  0  0  0
  9 16  1  0  0  0  0
  9 11  1  0  0  0  0
  9 10  1  1  0  0  0
 11 36  1  0  0  0  0
 12 37  1  0  0  0  0
 12 11  1  0  0  0  0
 13  2  1  6  0  0  0
 13 14  1  0  0  0  0
 13 12  1  0  0  0  0
 14 15  1  6  0  0  0
 14 16  1  0  0  0  0
 14 18  1  0  0  0  0
 16 17  1  1  0  0  0
 18  4  2  0  0  0  0
 19 16  1  0  0  0  0
 19  5  1  0  0  0  0
 20  1  1  0  0  0  0
 21 20  1  0  0  0  0
 22 20  1  0  0  0  0
 23 20  1  0  0  0  0
 24 27  1  0  0  0  0
 24  2  1  0  0  0  0
 25 24  1  0  0  0  0
 26 24  1  0  0  0  0
 28 31  1  0  0  0  0
 28 29  1  0  0  0  0
 30 28  1  0  0  0  0
 32 33  1  0  0  0  0
 32  5  1  0  0  0  0
 32 34  1  0  0  0  0
 35 32  1  0  0  0  0
M  END
