9
q = 0.0, confidence = 0.982

 37 38  0  0  0  0  0  0  0  0999 V2000
   -3.1737    1.1539   -0.6554 S   0  0  0  0  0  0  0  0  0  0  0  0
   -2.4041    1.9221   -1.6856 O   0  0  0  0  0  1  0  0  0  0  0  0
   -4.5279    1.6245   -0.3001 O   0  0  0  0  0  1  0  0  0  0  0  0
   -2.2841    0.9222    0.6102 O   0  0  0  0  0  1  0  0  0  0  0  0
   -1.3285   -2.0110    0.3854 N   0  0  0  0  0  0  0  0  0  0  0  0
    0.5163   -0.2753    2.9089 C   0  0  0  0  0  0  0  0  0  0  0  0
    1.5509   -0.5241    2.5999 H   0  0  0  0  0  0  0  0  0  0  0  0
    0.3855   -0.5915    3.9622 H   0  0  0  0  0  0  0  0  0  0  0  0
   -0.1909   -1.3628    0.7718 C   0  0  0  0  0  2  0  0  0  0  0  0
   -0.0452    2.0490    0.4991 N   0  0  0  0  0  0  0  0  0  0  0  0
   -0.3920   -1.0706    2.0950 N   0  0  0  0  0  0  0  0  0  0  0  0
    1.6819    2.9371   -0.8829 C   0  0  0  0  0  0  0  0  0  0  0  0
    2.0022    3.3192   -1.8609 H   0  0  0  0  0  0  0  0  0  0  0  0
    0.3535    2.5604   -0.6840 C   0  0  0  0  0  3  0  0  0  0  0  0
   -0.4466    2.6133   -1.4429 H   0  0  0  0  0  0  0  0  0  0  0  0
   -2.1054   -1.1865   -1.8417 C   0  0  0  0  0  0  0  0  0  0  0  0
   -1.2983   -0.4252   -1.9034 H   0  0  0  0  0  0  0  0  0  0  0  0
   -2.2388   -1.5602   -2.8775 H   0  0  0  0  0  0  0  0  0  0  0  0
   -1.6184   -2.3720   -1.0018 C   0  0  0  0  0  0  0  0  0  0  0  0
   -2.3722   -3.1847   -0.9799 H   0  0  0  0  0  0  0  0  0  0  0  0
   -0.6851   -2.7806   -1.4367 H   0  0  0  0  0  0  0  0  0  0  0  0
    0.8021    1.8792    1.5391 C   0  0  0  0  0  0  0  0  0  0  0  0
   -3.3998   -0.5202   -1.3618 C   0  0  0  0  0  0  0  0  0  0  0  0
   -3.9486   -1.0950   -0.5893 H   0  0  0  0  0  0  0  0  0  0  0  0
   -4.1043   -0.3298   -2.1941 H   0  0  0  0  0  0  0  0  0  0  0  0
    2.5900    2.7810    0.1738 C   0  0  0  0  0  0  0  0  0  0  0  0
    3.6489    3.0445    0.0397 H   0  0  0  0  0  0  0  0  0  0  0  0
    2.1437    2.2652    1.3971 C   0  0  0  0  0  0  0  0  0  0  0  0
    2.8378    2.1302    2.2390 H   0  0  0  0  0  0  0  0  0  0  0  0
    0.2655    1.2477    2.7997 C   0  0  0  0  0  0  0  0  0  0  0  0
   -0.8227    1.4424    2.8820 H   0  0  0  0  0  0  0  0  0  0  0  0
    0.7606    1.7277    3.6676 H   0  0  0  0  0  0  0  0  0  0  0  0
   -1.6347   -1.5199    2.5201 C   0  0  0  0  0  0  0  0  0  0  0  0
   -2.2240   -2.1158    1.4385 C   0  0  0  0  0  0  0  0  0  0  0  0
   -1.9938   -1.3752    3.5427 H   0  0  0  0  0  0  0  0  0  0  0  0
   -3.1976   -2.6023    1.3337 H   0  0  0  0  0  0  0  0  0  0  0  0
   -1.1347    1.5852    0.5513 H   0  0  0  0  0  0  0  0  0  0  0  0
  1  3  1  0  0  0  0
  1  4  1  0  0  0  0
  2  1  1  0  0  0  0
  5  9  1  0  0  0  0
  5 34  1  0  0  0  0
  6  8  1  0  0  0  0
  7  6  1  0  0  0  0
  9 11  1  0  0  0  0
 10 37  1  0  0  0  0
 10 22  1  0  0  0  0
 11 33  1  0  0  0  0
 11  6  1  0  0  0  0
 12 14  1  0  0  0  0
 12 26  2  0  0  0  0
 13 12  1  0  0  0  0
 14 10  1  0  0  0  0
 15 14  1  0  0  0  0
 16 23  1  0  0  0  0
 16 19  1  0  0  0  0
 17 16  1  0  0  0  0
 18 16  1  0  0  0  0
 19 20  1  0  0  0  0
 19  5  1  0  0  0  0
 21 19  1  0  0  0  0
 22 30  1  0  0  0  0
 23  1  1  0  0  0  0
 23 24  1  0  0  0  0
 25 23  1  0  0  0  0
 26 28  1  0  0  0  0
 27 26  1  0  0  0  0
 28 22  2  0  0  0  0
 28 29  1  0  0  0  0
 30 31  1  0  0  0  0
 30  6  1  0  0  0  0
 30 32  1  0  0  0  0
 33 35  1  0  0  0  0
 34 33  2  0  0  0  0
 36 34  1  0  0  0  0
M  END
