3
q = -2.0, confidence = 0.956

 53 55  0  0  1  0  0  0  0  0999 V2000
    1.6526   -0.3897    1.0399 P   0  0  2  0  0  4  0  0  0  0  0  0
    2.1922   -0.9857    2.8405 S   0  0  0  0  0  1  0  0  0  0  0  0
    0.4842    1.0348    0.9222 C   0  0  2  0  0  3  0  0  0  0  0  0
   -0.6692    1.1520    1.7912 C   0  0  2  0  0  3  0  0  0  0  0  0
   -1.5407    2.1406    1.2254 C   0  0  0  0  0  0  0  0  0  0  0  0
   -0.9513    2.6301    0.0233 C   0  0  0  0  0  0  0  0  0  0  0  0
    0.2870    1.9374   -0.1974 C   0  0  1  0  0  3  0  0  0  0  0  0
    0.5627   -1.4925    0.0312 C   0  0  0  0  0  0  0  0  0  0  0  0
   -0.5706   -2.2101    0.6280 C   0  0  1  0  0  3  0  0  0  0  0  0
   -1.4627   -2.5566   -0.4098 C   0  0  0  0  0  0  0  0  0  0  0  0
   -0.9182   -2.0774   -1.6818 C   0  0  0  0  0  0  0  0  0  0  0  0
    0.3699   -1.4309   -1.3797 C   0  0  0  0  0  0  0  0  0  0  0  0
   -0.9346    0.5420    3.1374 C   0  0  0  0  0  0  0  0  0  0  0  0
   -2.7811    2.6459    1.8901 C   0  0  0  0  0  0  0  0  0  0  0  0
   -1.4482    3.7508   -0.8307 C   0  0  0  0  0  0  0  0  0  0  0  0
    1.1896    2.3233   -1.3353 C   0  0  0  0  0  0  0  0  0  0  0  0
   -0.7652   -2.6638    2.0441 C   0  0  0  0  0  0  0  0  0  0  0  0
   -2.6840   -3.3930   -0.2469 C   0  0  0  0  0  0  0  0  0  0  0  0
   -1.4433   -2.1247   -2.9976 C   0  0  0  0  0  2  0  0  0  0  0  0
    1.2436   -0.9349   -2.4878 C   0  0  0  0  0  0  0  0  0  0  0  0
    3.1790   -0.0335    0.1109 C   0  0  0  0  0  0  0  0  0  0  0  0
    3.8301   -1.0716   -0.5827 C   0  0  0  0  0  0  0  0  0  0  0  0
    5.1021   -0.8536   -1.1303 C   0  0  0  0  0  0  0  0  0  0  0  0
    5.7332    0.3912   -0.9742 C   0  0  0  0  0  0  0  0  0  0  0  0
    5.0968    1.4169   -0.2555 C   0  0  0  0  0  0  0  0  0  0  0  0
    3.8258    1.2052    0.2957 C   0  0  0  0  0  0  0  0  0  0  0  0
   -0.9597    1.3513    3.8979 H   0  0  0  0  0  0  0  0  0  0  0  0
   -0.1483   -0.1714    3.4352 H   0  0  0  0  0  0  0  0  0  0  0  0
   -1.9241    0.0437    3.1652 H   0  0  0  0  0  0  0  0  0  0  0  0
   -3.3912    3.2648    1.2063 H   0  0  0  0  0  0  0  0  0  0  0  0
   -2.5179    3.2672    2.7728 H   0  0  0  0  0  0  0  0  0  0  0  0
   -3.4160    1.8101    2.2432 H   0  0  0  0  0  0  0  0  0  0  0  0
   -1.4936    3.4524   -1.8978 H   0  0  0  0  0  0  0  0  0  0  0  0
   -0.7681    4.6257   -0.7535 H   0  0  0  0  0  0  0  0  0  0  0  0
   -2.4605    4.0777   -0.5293 H   0  0  0  0  0  0  0  0  0  0  0  0
    2.0948    1.7018   -1.4074 H   0  0  0  0  0  0  0  0  0  0  0  0
    1.5254    3.3734   -1.1964 H   0  0  0  0  0  0  0  0  0  0  0  0
    0.6509    2.2793   -2.3025 H   0  0  0  0  0  0  0  0  0  0  0  0
    0.0467   -2.3251    2.7102 H   0  0  0  0  0  0  0  0  0  0  0  0
   -0.7883   -3.7740    2.0633 H   0  0  0  0  0  0  0  0  0  0  0  0
   -1.7408   -2.3181    2.4417 H   0  0  0  0  0  0  0  0  0  0  0  0
   -3.3046   -3.0476    0.6025 H   0  0  0  0  0  0  0  0  0  0  0  0
   -2.3940   -4.4475   -0.0491 H   0  0  0  0  0  0  0  0  0  0  0  0
   -3.3015   -3.3730   -1.1654 H   0  0  0  0  0  0  0  0  0  0  0  0
   -2.4725   -2.5722   -2.9364 H   0  0  0  0  0  0  0  0  0  0  0  0
    1.9915   -1.7180   -2.7338 H   0  0  0  0  0  0  0  0  0  0  0  0
    1.8066   -0.0189   -2.2540 H   0  0  0  0  0  0  0  0  0  0  0  0
    0.6080   -0.7944   -3.3839 H   0  0  0  0  0  0  0  0  0  0  0  0
    3.3430   -2.0528   -0.6875 H   0  0  0  0  0  0  0  0  0  0  0  0
    5.6056   -1.6633   -1.6795 H   0  0  0  0  0  0  0  0  0  0  0  0
    6.7313    0.5597   -1.4059 H   0  0  0  0  0  0  0  0  0  0  0  0
    5.5964    2.3877   -0.1185 H   0  0  0  0  0  0  0  0  0  0  0  0
    3.3325    2.0014    0.8743 H   0  0  0  0  0  0  0  0  0  0  0  0
  1  2  1  1  0  0  0
  3  1  1  6  0  0  0
  3  4  1  0  0  0  0
  4 13  1  1  0  0  0
  5  4  1  0  0  0  0
  5 14  1  0  0  0  0
  6  5  2  0  0  0  0
  7 16  1  1  0  0  0
  7  6  1  0  0  0  0
  7  3  1  0  0  0  0
  8  9  1  0  0  0  0
  8  1  1  0  0  0  0
  9 17  1  6  0  0  0
 10 18  1  0  0  0  0
 10  9  1  0  0  0  0
 11 12  1  0  0  0  0
 11 10  2  0  0  0  0
 12  8  2  0  0  0  0
 13 29  1  0  0  0  0
 13 28  1  0  0  0  0
 13 27  1  0  0  0  0
 14 32  1  0  0  0  0
 14 31  1  0  0  0  0
 15 34  1  0  0  0  0
 15 35  1  0  0  0  0
 15  6  1  0  0  0  0
 16 37  1  0  0  0  0
 17 40  1  0  0  0  0
 17 41  1  0  0  0  0
 17 39  1  0  0  0  0
 18 43  1  0  0  0  0
 18 42  1  0  0  0  0
 19 45  1  0  0  0  0
 19 11  1  0  0  0  0
 20 47  1  0  0  0  0
 20 12  1  0  0  0  0
 21 26  1  0  0  0  0
 21  1  1  0  0  0  0
 22 21  2  0  0  0  0
 23 24  2  0  0  0  0
 23 22  1  0  0  0  0
 24 25  1  0  0  0  0
 25 52  1  0  0  0  0
 25 26  2  0  0  0  0
 26 53  1  0  0  0  0
 30 14  1  0  0  0  0
 33 15  1  0  0  0  0
 36 16  1  0  0  0  0
 38 16  1  0  0  0  0
 44 18  1  0  0  0  0
 46 20  1  0  0  0  0
 48 20  1  0  0  0  0
 49 22  1  0  0  0  0
 50 23  1  0  0  0  0
 51 24  1  0  0  0  0
M  END
