2
q = 0.0, confidence = 0.76

 15 15  0  0  0  0  0  0  0  0999 V2000
    1.6615    0.0049    1.5978 S   0  0  0  0  0  1  0  0  0  0  0  0
    1.3877    0.0128   -1.1863 C   0  0  0  0  0  2  0  0  0  0  0  0
    0.4947    0.0233   -2.2862 C   0  0  0  0  0  3  0  0  0  0  0  0
    0.3994   -0.8864   -2.9101 H   0  0  0  0  0  0  0  0  0  0  0  0
    0.4035    0.9448   -2.8929 H   0  0  0  0  0  0  0  0  0  0  0  0
    2.7727    0.0133   -0.8585 C   0  0  0  0  0  0  0  0  0  0  0  0
    3.8484    0.0183   -1.7867 C   0  0  0  0  0  0  0  0  0  0  0  0
    3.6168    0.0221   -2.8636 H   0  0  0  0  0  0  0  0  0  0  0  0
    5.1680    0.0181   -1.3321 C   0  0  0  0  0  0  0  0  0  0  0  0
    6.0027    0.0218   -2.0493 H   0  0  0  0  0  0  0  0  0  0  0  0
    5.4326    0.0129    0.0598 C   0  0  0  0  0  0  0  0  0  0  0  0
    6.4757    0.0127    0.4139 H   0  0  0  0  0  0  0  0  0  0  0  0
    4.3923    0.0082    0.9949 C   0  0  0  0  0  0  0  0  0  0  0  0
    4.6070    0.0044    2.0744 H   0  0  0  0  0  0  0  0  0  0  0  0
    3.0484    0.0085    0.5515 C   0  0  0  0  0  0  0  0  0  0  0  0
  2  6  1  0  0  0  0
  3  2  1  0  0  0  0
  4  3  1  0  0  0  0
  5  3  1  0  0  0  0
  6 15  1  0  0  0  0
  7  9  1  0  0  0  0
  7  6  2  0  0  0  0
  8  7  1  0  0  0  0
  9 11  2  0  0  0  0
 10  9  1  0  0  0  0
 11 12  1  0  0  0  0
 11 13  1  0  0  0  0
 13 14  1  0  0  0  0
 15 13  2  0  0  0  0
 15  1  1  0  0  0  0
M  END
