7
q = -2.0, confidence = 0.716

 17 16  0  0  0  0  0  0  0  0999 V2000
    0.7999    0.3117   -1.3395 S   0  0  0  0  0  1  0  0  0  0  0  0
    0.3439    4.1524   -0.1271 O   0  0  0  0  0  0  0  0  0  0  0  0
    1.8910    3.1558   -1.4750 O   0  0  0  0  0  0  0  0  0  0  0  0
   -2.8436    2.8335    0.0166 O   0  0  0  0  0  0  0  0  0  0  0  0
   -1.7450    2.5747    1.9932 O   0  0  0  0  0  0  0  0  0  0  0  0
    0.2160    1.8162   -0.5306 C   0  0  0  0  0  0  0  0  0  0  0  0
   -0.9266    1.4372    0.1052 C   0  0  0  0  0  3  0  0  0  0  0  0
    0.7970    3.1601   -0.6754 C   0  0  0  0  0  0  0  0  0  0  0  0
    2.5563    4.4162   -1.6156 C   0  0  0  0  0  0  0  0  0  0  0  0
    3.4492    4.2227   -2.2356 H   0  0  0  0  0  0  0  0  0  0  0  0
    2.8510    4.8156   -0.6247 H   0  0  0  0  0  0  0  0  0  0  0  0
    1.8935    5.1559   -2.1082 H   0  0  0  0  0  0  0  0  0  0  0  0
   -1.9242    2.3684    0.6764 C   0  0  0  0  0  0  0  0  0  0  0  0
   -2.6525    3.5069    2.5979 C   0  0  0  0  0  0  0  0  0  0  0  0
   -2.3998    3.5224    3.6724 H   0  0  0  0  0  0  0  0  0  0  0  0
   -3.7045    3.1910    2.4481 H   0  0  0  0  0  0  0  0  0  0  0  0
   -2.5187    4.5139    2.1549 H   0  0  0  0  0  0  0  0  0  0  0  0
  1  6  1  0  0  0  0
  3  8  1  0  0  0  0
  4 13  2  0  0  0  0
  5 14  1  0  0  0  0
  6  7  2  0  0  0  0
  7 13  1  0  0  0  0
  8  6  1  0  0  0  0
  8  2  2  0  0  0  0
  9  3  1  0  0  0  0
  9 11  1  0  0  0  0
 10  9  1  0  0  0  0
 12  9  1  0  0  0  0
 13  5  1  0  0  0  0
 14 15  1  0  0  0  0
 16 14  1  0  0  0  0
 17 14  1  0  0  0  0
M  END
