3
q = -1.0, confidence = 0.0

  7  6  0  0  0  0  0  0  0  0999 V2000
   -0.0132    2.6431    1.1062 S   0  0  0  0  0  0  0  0  0  0  0  0
   -0.1634    2.6107   -1.8752 S   0  0  0  0  0  0  0  0  0  0  0  0
   -0.0559    1.7927   -0.4271 C   0  0  0  0  0  3  0  0  0  0  0  0
   -0.1568    4.4004    0.6699 C   0  0  0  0  0  0  0  0  0  0  0  0
   -1.1100    4.5753    0.1316 H   0  0  0  0  0  0  0  0  0  0  0  0
   -0.1278    4.9670    1.6209 H   0  0  0  0  0  0  0  0  0  0  0  0
    0.6845    4.6929    0.0121 H   0  0  0  0  0  0  0  0  0  0  0  0
  2  3  2  0  0  0  0
  3  1  1  0  0  0  0
  4  1  1  0  0  0  0
  4  6  1  0  0  0  0
  5  4  1  0  0  0  0
  7  4  1  0  0  0  0
M  END
