5
q = 0.0, confidence = 0.948

 12 12  0  0  0  0  0  0  0  0999 V2000
   -2.3451   -0.0004   -0.5720 S   0  0  0  0  0  0  0  0  0  0  0  0
   -0.9915   -0.0003   -1.3709 O   0  0  0  0  0  0  0  0  0  0  0  0
   -1.9775   -1.2967    0.6871 C   0  0  0  0  0  0  0  0  0  0  0  0
   -0.7448   -0.7265    1.3491 C   0  0  0  0  0  3  0  0  0  0  0  0
   -0.7450    0.7264    1.3490 C   0  0  0  0  0  3  0  0  0  0  0  0
   -1.9779    1.2961    0.6869 C   0  0  0  0  0  0  0  0  0  0  0  0
   -2.8704   -1.3863    1.3488 H   0  0  0  0  0  0  0  0  0  0  0  0
   -1.8395   -2.2435    0.1275 H   0  0  0  0  0  0  0  0  0  0  0  0
   -0.3264   -1.3041    2.1886 H   0  0  0  0  0  0  0  0  0  0  0  0
   -0.3268    1.3043    2.1884 H   0  0  0  0  0  0  0  0  0  0  0  0
   -2.8708    1.3856    1.3487 H   0  0  0  0  0  0  0  0  0  0  0  0
   -1.8401    2.2430    0.1272 H   0  0  0  0  0  0  0  0  0  0  0  0
  1  6  1  0  0  0  0
  1  3  1  0  0  0  0
  2  1  2  0  0  0  0
  3  7  1  0  0  0  0
  3  4  1  0  0  0  0
  4  9  1  0  0  0  0
  5  4  1  0  0  0  0
  5 10  1  0  0  0  0
  6 11  1  0  0  0  0
  6  5  1  0  0  0  0
  8  3  1  0  0  0  0
 12  6  1  0  0  0  0
M  END
