4
q = 0.0, confidence = 0.976

 20 20  0  0  0  0  0  0  0  0999 V2000
   -0.4786    0.5310   -0.7680 C   0  0  0  0  0  3  0  0  0  0  0  0
   -1.0474   -0.0180   -1.5348 H   0  0  0  0  0  0  0  0  0  0  0  0
   -0.2778    1.5948   -0.9791 H   0  0  0  0  0  0  0  0  0  0  0  0
   -0.5339    0.1065    0.5872 C   0  0  0  0  0  3  0  0  0  0  0  0
   -0.4047    0.8026    1.4337 H   0  0  0  0  0  0  0  0  0  0  0  0
   -1.6650   -1.1874    1.0470 S   0  0  0  0  0  0  0  0  0  0  0  0
   -2.0256   -1.9954   -0.1367 O   0  0  0  0  0  1  0  0  0  0  0  0
   -1.2745   -1.8062    2.3180 O   0  0  0  0  0  1  0  0  0  0  0  0
   -3.0276   -0.2437    1.4874 O   0  0  0  0  0  0  0  0  0  0  0  0
   -3.7542    0.3506    0.4669 C   0  0  0  0  0  0  0  0  0  0  0  0
   -4.5754   -0.4205   -0.3746 C   0  0  0  0  0  0  0  0  0  0  0  0
   -4.6030   -1.5099   -0.2414 H   0  0  0  0  0  0  0  0  0  0  0  0
   -5.3295    0.2214   -1.3671 C   0  0  0  0  0  0  0  0  0  0  0  0
   -5.9742   -0.3773   -2.0285 H   0  0  0  0  0  0  0  0  0  0  0  0
   -5.2710    1.6171   -1.5171 C   0  0  0  0  0  0  0  0  0  0  0  0
   -5.8697    2.1135   -2.2954 H   0  0  0  0  0  0  0  0  0  0  0  0
   -4.4495    2.3778   -0.6691 C   0  0  0  0  0  0  0  0  0  0  0  0
   -4.4026    3.4718   -0.7799 H   0  0  0  0  0  0  0  0  0  0  0  0
   -3.6823    1.7472    0.3211 C   0  0  0  0  0  0  0  0  0  0  0  0
   -3.0309    2.3188    0.9977 H   0  0  0  0  0  0  0  0  0  0  0  0
  1  4  1  0  0  0  0
  2  1  1  0  0  0  0
  3  1  1  0  0  0  0
  4  6  1  0  0  0  0
  4  5  1  0  0  0  0
  6  9  1  0  0  0  0
  6  8  1  0  0  0  0
  7  6  1  0  0  0  0
 10  9  1  0  0  0  0
 11 12  1  0  0  0  0
 11 10  2  0  0  0  0
 13 11  1  0  0  0  0
 14 13  1  0  0  0  0
 15 13  2  0  0  0  0
 15 17  1  0  0  0  0
 16 15  1  0  0  0  0
 17 19  2  0  0  0  0
 18 17  1  0  0  0  0
 19 10  1  0  0  0  0
 19 20  1  0  0  0  0
M  END
