24
q = -1.0, confidence = 0.0

 37 39  0  0  0  0  0  0  0  0999 V2000
   -1.3294    0.3780    0.0616 P   0  0  0  0  0  0  0  0  0  0  0  0
   -2.3811   -0.1279    1.4613 C   0  0  0  0  0  0  0  0  0  0  0  0
   -2.6744    0.7533    2.5238 C   0  0  0  0  0  0  0  0  0  0  0  0
   -2.2986    1.7879    2.5008 H   0  0  0  0  0  0  0  0  0  0  0  0
   -3.4436    0.3059    3.6072 C   0  0  0  0  0  0  0  0  0  0  0  0
   -3.6691    0.9910    4.4386 H   0  0  0  0  0  0  0  0  0  0  0  0
   -3.9218   -1.0158    3.6338 C   0  0  0  0  0  0  0  0  0  0  0  0
   -4.5245   -1.3630    4.4869 H   0  0  0  0  0  0  0  0  0  0  0  0
   -3.6340   -1.8921    2.5752 C   0  0  0  0  0  0  0  0  0  0  0  0
   -4.0135   -2.9250    2.5945 H   0  0  0  0  0  0  0  0  0  0  0  0
   -2.8644   -1.4531    1.4863 C   0  0  0  0  0  0  0  0  0  0  0  0
   -2.6304   -2.1245    0.6433 H   0  0  0  0  0  0  0  0  0  0  0  0
   -2.1295    1.7471   -0.8294 C   0  0  0  0  0  0  0  0  0  0  0  0
   -3.4862    2.0673   -0.6231 C   0  0  0  0  0  0  0  0  0  0  0  0
   -4.0833    1.4997    0.1063 H   0  0  0  0  0  0  0  0  0  0  0  0
   -4.0736    3.1139   -1.3510 C   0  0  0  0  0  0  0  0  0  0  0  0
   -5.1333    3.3618   -1.1866 H   0  0  0  0  0  0  0  0  0  0  0  0
   -3.3167    3.8381   -2.2844 C   0  0  0  0  0  0  0  0  0  0  0  0
   -3.7809    4.6573   -2.8540 H   0  0  0  0  0  0  0  0  0  0  0  0
   -1.9662    3.5105   -2.4961 C   0  0  0  0  0  0  0  0  0  0  0  0
   -1.3703    4.0702   -3.2327 H   0  0  0  0  0  0  0  0  0  0  0  0
   -1.3703    2.4663   -1.7779 C   0  0  0  0  0  0  0  0  0  0  0  0
   -0.3175    2.2010   -1.9549 H   0  0  0  0  0  0  0  0  0  0  0  0
    0.3641    0.7062    0.4740 C   0  0  0  0  0  3  0  0  0  0  0  0
    0.9808    1.7150    1.1455 C   0  0  0  0  0  0  0  0  0  0  0  0
    0.3585    2.4508    1.6916 H   0  0  0  0  0  0  0  0  0  0  0  0
    2.4308    1.9291    1.2425 C   0  0  0  0  0  0  0  0  0  0  0  0
    3.3068    1.5540    0.1934 C   0  0  0  0  0  0  0  0  0  0  0  0
    2.8801    1.1436   -0.7329 H   0  0  0  0  0  0  0  0  0  0  0  0
    4.6874    1.7549    0.3094 C   0  0  0  0  0  0  0  0  0  0  0  0
    5.3507    1.4697   -0.5220 H   0  0  0  0  0  0  0  0  0  0  0  0
    5.2265    2.3372    1.4700 C   0  0  0  0  0  0  0  0  0  0  0  0
    6.3123    2.4932    1.5586 H   0  0  0  0  0  0  0  0  0  0  0  0
    4.3679    2.7395    2.5064 C   0  0  0  0  0  0  0  0  0  0  0  0
    4.7801    3.2106    3.4119 H   0  0  0  0  0  0  0  0  0  0  0  0
    2.9850    2.5475    2.3893 C   0  0  0  0  0  0  0  0  0  0  0  0
    2.3139    2.8661    3.2028 H   0  0  0  0  0  0  0  0  0  0  0  0
  1 24  1  0  0  0  0
  1  2  1  0  0  0  0
  2 11  2  0  0  0  0
  2  3  1  0  0  0  0
  3  5  2  0  0  0  0
  4  3  1  0  0  0  0
  5  7  1  0  0  0  0
  5  6  1  0  0  0  0
  7  8  1  0  0  0  0
  9 10  1  0  0  0  0
  9  7  2  0  0  0  0
 11  9  1  0  0  0  0
 12 11  1  0  0  0  0
 13 14  1  0  0  0  0
 13  1  1  0  0  0  0
 14 15  1  0  0  0  0
 16 17  1  0  0  0  0
 16 14  2  0  0  0  0
 18 16  1  0  0  0  0
 19 18  1  0  0  0  0
 20 18  2  0  0  0  0
 20 22  1  0  0  0  0
 21 20  1  0  0  0  0
 22 13  2  0  0  0  0
 23 22  1  0  0  0  0
 24 25  2  0  0  0  0
 25 27  1  0  0  0  0
 25 26  1  0  0  0  0
 27 36  1  0  0  0  0
 28 30  1  0  0  0  0
 28 27  2  0  0  0  0
 29 28  1  0  0  0  0
 30 32  2  0  0  0  0
 31 30  1  0  0  0  0
 32 33  1  0  0  0  0
 32 34  1  0  0  0  0
 34 35  1  0  0  0  0
 36 34  2  0  0  0  0
 36 37  1  0  0  0  0
M  END
