3
q = -1.0, confidence = 0.266

 40 42  0  0  0  0  0  0  0  0999 V2000
   -2.9623   -0.4909   -0.5106 P   0  0  0  0  0  4  0  0  0  0  0  0
   -1.4358    0.2662   -0.3589 C   0  0  0  0  0  2  0  0  0  0  0  0
   -0.5415    1.1902   -0.0820 C   0  0  0  0  0  2  0  0  0  0  0  0
   -0.3672    2.5431    0.4070 C   0  0  0  0  0  0  0  0  0  0  0  0
   -1.1356    3.0242    1.4984 C   0  0  0  0  0  0  0  0  0  0  0  0
   -1.8570    2.3477    1.9815 H   0  0  0  0  0  0  0  0  0  0  0  0
   -0.9624    4.3325    1.9663 C   0  0  0  0  0  0  0  0  0  0  0  0
   -1.5572    4.6898    2.8212 H   0  0  0  0  0  0  0  0  0  0  0  0
   -0.0333    5.1877    1.3480 C   0  0  0  0  0  0  0  0  0  0  0  0
    0.0992    6.2165    1.7161 H   0  0  0  0  0  0  0  0  0  0  0  0
    0.7317    4.7207    0.2663 C   0  0  0  0  0  0  0  0  0  0  0  0
    1.4711    5.3789   -0.2140 H   0  0  0  0  0  0  0  0  0  0  0  0
    0.5797    3.4069   -0.1924 C   0  0  0  0  0  0  0  0  0  0  0  0
    1.1927    3.0254   -1.0213 H   0  0  0  0  0  0  0  0  0  0  0  0
   -3.1795   -1.6848    0.8501 C   0  0  0  0  0  0  0  0  0  0  0  0
   -4.1169   -1.4703    1.8804 C   0  0  0  0  0  0  0  0  0  0  0  0
   -4.7793   -0.5922    1.8561 H   0  0  0  0  0  0  0  0  0  0  0  0
   -4.1997   -2.3831    2.9425 C   0  0  0  0  0  0  0  0  0  0  0  0
   -4.9326   -2.2179    3.7468 H   0  0  0  0  0  0  0  0  0  0  0  0
   -3.3485   -3.4990    2.9802 C   0  0  0  0  0  0  0  0  0  0  0  0
   -3.4159   -4.2125    3.8157 H   0  0  0  0  0  0  0  0  0  0  0  0
   -2.4073   -3.7015    1.9573 C   0  0  0  0  0  0  0  0  0  0  0  0
   -1.7308   -4.5689    1.9886 H   0  0  0  0  0  0  0  0  0  0  0  0
   -2.3118   -2.7987    0.8891 C   0  0  0  0  0  0  0  0  0  0  0  0
   -1.5469   -2.9502    0.1044 H   0  0  0  0  0  0  0  0  0  0  0  0
   -4.3913    0.6502   -0.4962 C   0  0  0  0  0  0  0  0  0  0  0  0
   -4.1608    2.0341   -0.3778 C   0  0  0  0  0  0  0  0  0  0  0  0
   -3.1317    2.4102   -0.2745 H   0  0  0  0  0  0  0  0  0  0  0  0
   -5.2453    2.9250   -0.3953 C   0  0  0  0  0  0  0  0  0  0  0  0
   -5.0616    4.0057   -0.3006 H   0  0  0  0  0  0  0  0  0  0  0  0
   -6.5544    2.4388   -0.5345 C   0  0  0  0  0  0  0  0  0  0  0  0
   -7.4030    3.1395   -0.5487 H   0  0  0  0  0  0  0  0  0  0  0  0
   -6.7849    1.0579   -0.6584 C   0  0  0  0  0  0  0  0  0  0  0  0
   -7.8114    0.6769   -0.7695 H   0  0  0  0  0  0  0  0  0  0  0  0
   -5.7071    0.1617   -0.6413 C   0  0  0  0  0  0  0  0  0  0  0  0
   -5.8932   -0.9200   -0.7323 H   0  0  0  0  0  0  0  0  0  0  0  0
   -3.0110   -1.4148   -2.0743 C   0  0  0  0  0  0  0  0  0  0  0  0
   -3.9451   -2.0043   -2.1442 H   0  0  0  0  0  0  0  0  0  0  0  0
   -2.1119   -2.0739   -2.1015 H   0  0  0  0  0  0  0  0  0  0  0  0
   -2.9485   -0.6867   -2.9056 H   0  0  0  0  0  0  0  0  0  0  0  0
  1 26  1  0  0  0  0
  1  2  1  0  0  0  0
  1 15  1  0  0  0  0
  2  3  1  0  0  0  0
  3  4  1  0  0  0  0
  4  5  1  0  0  0  0
  5  7  2  0  0  0  0
  5  6  1  0  0  0  0
  7  8  1  0  0  0  0
  9 10  1  0  0  0  0
  9  7  1  0  0  0  0
 11  9  2  0  0  0  0
 12 11  1  0  0  0  0
 13 11  1  0  0  0  0
 13  4  2  0  0  0  0
 14 13  1  0  0  0  0
 15 24  2  0  0  0  0
 15 16  1  0  0  0  0
 16 18  2  0  0  0  0
 17 16  1  0  0  0  0
 18 20  1  0  0  0  0
 18 19  1  0  0  0  0
 20 21  1  0  0  0  0
 22 23  1  0  0  0  0
 22 20  2  0  0  0  0
 24 22  1  0  0  0  0
 25 24  1  0  0  0  0
 26 27  1  0  0  0  0
 27 28  1  0  0  0  0
 29 27  2  0  0  0  0
 29 30  1  0  0  0  0
 31 29  1  0  0  0  0
 32 31  1  0  0  0  0
 33 35  1  0  0  0  0
 33 31  2  0  0  0  0
 34 33  1  0  0  0  0
 35 26  2  0  0  0  0
 36 35  1  0  0  0  0
 37  1  1  0  0  0  0
 38 37  1  0  0  0  0
 39 37  1  0  0  0  0
 40 37  1  0  0  0  0
M  END
