4
q = 0.0, confidence = 0.986

 39 39  0  0  1  0  0  0  0  0999 V2000
   -4.9337    0.5634   -1.8164 C   0  0  0  0  0  0  0  0  0  0  0  0
   -3.6299   -0.1438   -1.5581 C   0  0  0  0  0  3  0  0  0  0  0  0
   -3.5683   -1.3389   -0.7680 C   0  0  0  0  0  3  0  0  0  0  0  0
   -2.2883   -1.8395   -0.4022 C   0  0  0  0  0  3  0  0  0  0  0  0
   -1.1311   -1.1210   -0.8610 C   0  0  0  0  0  3  0  0  0  0  0  0
    0.1843   -1.5131   -0.2705 C   0  0  0  0  0  0  0  0  0  0  0  0
    0.2786   -2.2351    0.7303 O   0  0  0  0  0  0  0  0  0  0  0  0
    1.2945   -1.0320   -0.9131 N   0  0  0  0  0  0  0  0  0  0  0  0
    2.6190   -1.2562   -0.3607 C   0  0  2  0  0  0  0  0  0  0  0  0
    2.8527   -2.7392   -0.0240 C   0  0  0  0  0  0  0  0  0  0  0  0
    3.5160   -3.1291    0.9151 O   0  0  0  0  0  0  0  0  0  0  0  0
    2.3139   -3.5459   -0.9645 O   0  0  0  0  0  0  0  0  0  0  0  0
    2.4272   -4.9471   -0.6926 C   0  0  0  0  0  0  0  0  0  0  0  0
    2.9256   -0.3649    0.8649 C   0  0  0  0  0  0  0  0  0  0  0  0
    2.9369    1.0983    0.5009 C   0  0  0  0  0  0  0  0  0  0  0  0
    4.1266    1.7302    0.0823 C   0  0  0  0  0  0  0  0  0  0  0  0
    4.1365    3.0703   -0.3295 C   0  0  0  0  0  0  0  0  0  0  0  0
    2.9330    3.7862   -0.3283 C   0  0  0  0  0  0  0  0  0  0  0  0
    1.7329    3.1949    0.0820 C   0  0  0  0  0  0  0  0  0  0  0  0
    1.7465    1.8553    0.4964 C   0  0  0  0  0  0  0  0  0  0  0  0
    2.9327    5.0733   -0.7269 F   0  0  0  0  0  0  0  0  0  0  0  0
    1.1857   -0.3577   -1.6702 H   0  0  0  0  0  0  0  0  0  0  0  0
   -4.7775    1.6456   -1.9956 H   0  0  0  0  0  0  0  0  0  0  0  0
   -5.4261    0.1538   -2.7256 H   0  0  0  0  0  0  0  0  0  0  0  0
   -5.6428    0.4588   -0.9718 H   0  0  0  0  0  0  0  0  0  0  0  0
   -2.8877   -0.0358   -2.3672 H   0  0  0  0  0  0  0  0  0  0  0  0
   -4.4773   -1.7846   -0.3318 H   0  0  0  0  0  0  0  0  0  0  0  0
   -2.1631   -2.6739    0.3042 H   0  0  0  0  0  0  0  0  0  0  0  0
   -1.1050   -0.7263   -1.8903 H   0  0  0  0  0  0  0  0  0  0  0  0
    3.3438   -1.0128   -1.1680 H   0  0  0  0  0  0  0  0  0  0  0  0
    2.0066   -5.4666   -1.5720 H   0  0  0  0  0  0  0  0  0  0  0  0
    3.4850   -5.2388   -0.5351 H   0  0  0  0  0  0  0  0  0  0  0  0
    1.8511   -5.2060    0.2187 H   0  0  0  0  0  0  0  0  0  0  0  0
    3.9027   -0.6864    1.2734 H   0  0  0  0  0  0  0  0  0  0  0  0
    2.1629   -0.5866    1.6377 H   0  0  0  0  0  0  0  0  0  0  0  0
    5.0703    1.1614    0.0848 H   0  0  0  0  0  0  0  0  0  0  0  0
    5.0617    3.5711   -0.6491 H   0  0  0  0  0  0  0  0  0  0  0  0
    0.8044    3.7823    0.0683 H   0  0  0  0  0  0  0  0  0  0  0  0
    0.8099    1.3879    0.8354 H   0  0  0  0  0  0  0  0  0  0  0  0
  1  2  1  0  0  0  0
  1 25  1  0  0  0  0
  2  3  1  0  0  0  0
  3  4  1  0  0  0  0
  3 27  1  0  0  0  0
  4 28  1  0  0  0  0
  5  4  1  0  0  0  0
  5  6  1  0  0  0  0
  6  7  2  0  0  0  0
  8  9  1  0  0  0  0
  8  6  1  0  0  0  0
  9 30  1  6  0  0  0
  9 10  1  0  0  0  0
  9 14  1  0  0  0  0
 10 11  2  0  0  0  0
 12 13  1  0  0  0  0
 12 10  1  0  0  0  0
 13 32  1  0  0  0  0
 13 33  1  0  0  0  0
 14 34  1  0  0  0  0
 14 35  1  0  0  0  0
 15 14  1  0  0  0  0
 16 36  1  0  0  0  0
 16 15  2  0  0  0  0
 17 18  2  0  0  0  0
 17 16  1  0  0  0  0
 18 19  1  0  0  0  0
 19 20  2  0  0  0  0
 20 15  1  0  0  0  0
 20 39  1  0  0  0  0
 21 18  1  0  0  0  0
 22  8  1  0  0  0  0
 23  1  1  0  0  0  0
 24  1  1  0  0  0  0
 26  2  1  0  0  0  0
 29  5  1  0  0  0  0
 31 13  1  0  0  0  0
 37 17  1  0  0  0  0
 38 19  1  0  0  0  0
M  END
