4
q = 0.0, confidence = 0.98

 42 42  0  0  1  0  0  0  0  0999 V2000
    5.4659   -1.1384    1.7404 C   0  0  0  0  0  0  0  0  0  0  0  0
    4.1874   -1.3848    0.9832 C   0  0  0  0  0  3  0  0  0  0  0  0
    4.1741   -1.4712   -0.4492 C   0  0  0  0  0  3  0  0  0  0  0  0
    2.9130   -1.5251   -1.1092 C   0  0  0  0  0  3  0  0  0  0  0  0
    1.7420   -1.5163   -0.2782 C   0  0  0  0  0  3  0  0  0  0  0  0
    0.4118   -1.2346   -0.8961 C   0  0  0  0  0  0  0  0  0  0  0  0
    0.2794   -0.8213   -2.0529 O   0  0  0  0  0  0  0  0  0  0  0  0
   -0.6539   -1.4332   -0.0550 N   0  0  0  0  0  0  0  0  0  0  0  0
   -2.0009   -0.9648   -0.3857 C   0  0  2  0  0  0  0  0  0  0  0  0
   -2.6421   -1.8364   -1.4691 C   0  0  0  0  0  0  0  0  0  0  0  0
   -1.9494    0.5021   -0.8798 C   0  0  0  0  0  0  0  0  0  0  0  0
   -2.6242    0.9601   -1.7756 O   0  0  0  0  0  0  0  0  0  0  0  0
   -1.1195    1.2425   -0.0992 O   0  0  0  0  0  0  0  0  0  0  0  0
   -1.0465    2.6335   -0.4411 C   0  0  0  0  0  0  0  0  0  0  0  0
   -2.8054   -0.9939    0.9525 C   0  0  0  0  0  0  0  0  0  0  0  0
   -4.2116   -0.4536    0.8708 C   0  0  0  0  0  0  0  0  0  0  0  0
   -4.4614    0.9207    1.0620 C   0  0  0  0  0  0  0  0  0  0  0  0
   -5.7608    1.4366    0.9589 C   0  0  0  0  0  0  0  0  0  0  0  0
   -6.8356    0.5836    0.6633 C   0  0  0  0  0  0  0  0  0  0  0  0
   -6.6019   -0.7877    0.4768 C   0  0  0  0  0  0  0  0  0  0  0  0
   -5.3004   -1.3003    0.5813 C   0  0  0  0  0  0  0  0  0  0  0  0
    5.2732   -0.6258    2.7037 H   0  0  0  0  0  0  0  0  0  0  0  0
    5.9682   -2.1009    1.9819 H   0  0  0  0  0  0  0  0  0  0  0  0
    6.1827   -0.5189    1.1665 H   0  0  0  0  0  0  0  0  0  0  0  0
    3.4495   -1.9904    1.5357 H   0  0  0  0  0  0  0  0  0  0  0  0
    5.0979   -1.3497   -1.0382 H   0  0  0  0  0  0  0  0  0  0  0  0
    2.8165   -1.4562   -2.2033 H   0  0  0  0  0  0  0  0  0  0  0  0
    1.7326   -2.1244    0.6420 H   0  0  0  0  0  0  0  0  0  0  0  0
   -2.0088   -1.8187   -2.3747 H   0  0  0  0  0  0  0  0  0  0  0  0
   -2.7358   -2.8787   -1.1061 H   0  0  0  0  0  0  0  0  0  0  0  0
   -3.6409   -1.4446   -1.7343 H   0  0  0  0  0  0  0  0  0  0  0  0
   -0.3700    3.0932    0.3011 H   0  0  0  0  0  0  0  0  0  0  0  0
   -0.6379    2.7590   -1.4623 H   0  0  0  0  0  0  0  0  0  0  0  0
   -2.0517    3.0992   -0.3982 H   0  0  0  0  0  0  0  0  0  0  0  0
   -2.2239   -0.4087    1.6956 H   0  0  0  0  0  0  0  0  0  0  0  0
   -2.8244   -2.0510    1.2932 H   0  0  0  0  0  0  0  0  0  0  0  0
   -3.6211    1.5920    1.2989 H   0  0  0  0  0  0  0  0  0  0  0  0
   -5.9357    2.5124    1.1116 H   0  0  0  0  0  0  0  0  0  0  0  0
   -7.8563    0.9870    0.5826 H   0  0  0  0  0  0  0  0  0  0  0  0
   -7.4399   -1.4648    0.2512 H   0  0  0  0  0  0  0  0  0  0  0  0
   -5.1234   -2.3779    0.4391 H   0  0  0  0  0  0  0  0  0  0  0  0
   -0.4488   -1.6002    0.9316 H   0  0  0  0  0  0  0  0  0  0  0  0
  1 23  1  0  0  0  0
  1 22  1  0  0  0  0
  2 25  1  0  0  0  0
  2  1  1  0  0  0  0
  3  2  1  0  0  0  0
  4  3  1  0  0  0  0
  4  5  1  0  0  0  0
  5 28  1  0  0  0  0
  6  5  1  0  0  0  0
  6  8  1  0  0  0  0
  7  6  2  0  0  0  0
  8 42  1  0  0  0  0
  9 11  1  6  0  0  0
  9  8  1  0  0  0  0
  9 15  1  0  0  0  0
 10 30  1  0  0  0  0
 10  9  1  0  0  0  0
 11 13  1  0  0  0  0
 12 11  2  0  0  0  0
 14 34  1  0  0  0  0
 14 13  1  0  0  0  0
 14 32  1  0  0  0  0
 15 36  1  0  0  0  0
 15 35  1  0  0  0  0
 16 15  1  0  0  0  0
 16 17  1  0  0  0  0
 17 37  1  0  0  0  0
 18 17  2  0  0  0  0
 18 38  1  0  0  0  0
 19 18  1  0  0  0  0
 20 21  1  0  0  0  0
 20 19  2  0  0  0  0
 21 16  2  0  0  0  0
 24  1  1  0  0  0  0
 26  3  1  0  0  0  0
 27  4  1  0  0  0  0
 29 10  1  0  0  0  0
 31 10  1  0  0  0  0
 33 14  1  0  0  0  0
 39 19  1  0  0  0  0
 40 20  1  0  0  0  0
 41 21  1  0  0  0  0
M  END
