16
q = 0.0, confidence = 0.516

 37 38  0  0  1  0  0  0  0  0999 V2000
   -0.5397   -0.0987    1.3609 S   0  0  0  0  0  0  0  0  0  0  0  0
   -0.1898   -1.9045   -1.2128 S   0  0  0  0  0  0  0  0  0  0  0  0
    2.2046   -0.8564    2.3361 S   0  0  0  0  0  0  0  0  0  0  0  0
    2.5928   -2.5059   -0.6287 S   0  0  0  0  0  0  0  0  0  0  0  0
   -1.8124    2.4670    0.0435 Si  0  0  0  0  0  0  0  0  0  0  0  0
    1.0140   -0.9338    1.0632 C   0  0  1  0  0  3  0  0  0  0  0  0
    1.1214   -1.6742   -0.1082 C   0  0  0  0  0  0  0  0  0  0  0  0
    3.2187    0.6663    1.8983 C   0  0  0  0  0  0  0  0  0  0  0  0
    3.9498   -1.2778   -0.2969 C   0  0  0  0  0  0  0  0  0  0  0  0
    3.1758    1.0408    0.4416 C   0  0  0  0  0  0  0  0  0  0  0  0
    3.5311    0.1353   -0.5929 C   0  0  0  0  0  0  0  0  0  0  0  0
    3.4383    0.5516   -1.9354 C   0  0  0  0  0  0  0  0  0  0  0  0
    3.0232    1.8460   -2.2710 C   0  0  0  0  0  0  0  0  0  0  0  0
    2.6864    2.7482   -1.2510 C   0  0  0  0  0  0  0  0  0  0  0  0
    2.7564    2.3388    0.0874 C   0  0  0  0  0  0  0  0  0  0  0  0
   -0.9725    0.7849   -0.1416 C   0  0  0  0  0  3  0  0  0  0  0  0
   -3.1728    2.4790    1.3644 C   0  0  0  0  0  0  0  0  0  0  0  0
   -2.4909    2.9697   -1.6520 C   0  0  0  0  0  0  0  0  0  0  0  0
   -0.5276    3.7588    0.5711 C   0  0  0  0  0  0  0  0  0  0  0  0
    4.3045   -1.4146    0.7400 H   0  0  0  0  0  0  0  0  0  0  0  0
    4.7461   -1.6091   -0.9942 H   0  0  0  0  0  0  0  0  0  0  0  0
    2.8683    1.5126    2.5205 H   0  0  0  0  0  0  0  0  0  0  0  0
    4.2459    0.4061    2.2325 H   0  0  0  0  0  0  0  0  0  0  0  0
    2.4759    3.0408    0.8874 H   0  0  0  0  0  0  0  0  0  0  0  0
    2.3636    3.7714   -1.4968 H   0  0  0  0  0  0  0  0  0  0  0  0
    2.9622    2.1492   -3.3270 H   0  0  0  0  0  0  0  0  0  0  0  0
    3.6876   -0.1694   -2.7296 H   0  0  0  0  0  0  0  0  0  0  0  0
   -0.1025    0.8279   -0.8299 H   0  0  0  0  0  0  0  0  0  0  0  0
   -4.1058    1.9774    1.0435 H   0  0  0  0  0  0  0  0  0  0  0  0
   -3.4284    3.5299    1.6126 H   0  0  0  0  0  0  0  0  0  0  0  0
   -2.8218    1.9943    2.2990 H   0  0  0  0  0  0  0  0  0  0  0  0
   -1.6697    2.9926   -2.3979 H   0  0  0  0  0  0  0  0  0  0  0  0
   -2.9422    3.9827   -1.6133 H   0  0  0  0  0  0  0  0  0  0  0  0
   -3.2588    2.2641   -2.0263 H   0  0  0  0  0  0  0  0  0  0  0  0
   -0.0550    3.4753    1.5338 H   0  0  0  0  0  0  0  0  0  0  0  0
   -1.0035    4.7531    0.7012 H   0  0  0  0  0  0  0  0  0  0  0  0
    0.2729    3.8552   -0.1878 H   0  0  0  0  0  0  0  0  0  0  0  0
  2  7  2  0  0  0  0
  4  9  1  0  0  0  0
  4  7  1  0  0  0  0
  5 19  1  0  0  0  0
  5 17  1  0  0  0  0
  6  1  1  1  0  0  0
  6  3  1  0  0  0  0
  7  6  1  0  0  0  0
  8 23  1  0  0  0  0
  8  3  1  0  0  0  0
  8 22  1  0  0  0  0
  9 20  1  0  0  0  0
 10  8  1  0  0  0  0
 11  9  1  0  0  0  0
 11 10  2  0  0  0  0
 12 11  1  0  0  0  0
 13 12  2  0  0  0  0
 13 14  1  0  0  0  0
 14 15  2  0  0  0  0
 15 10  1  0  0  0  0
 15 24  1  0  0  0  0
 16  5  1  0  0  0  0
 16  1  1  0  0  0  0
 17 30  1  0  0  0  0
 17 31  1  0  0  0  0
 18 33  1  0  0  0  0
 18  5  1  0  0  0  0
 19 36  1  0  0  0  0
 19 35  1  0  0  0  0
 21  9  1  0  0  0  0
 25 14  1  0  0  0  0
 26 13  1  0  0  0  0
 27 12  1  0  0  0  0
 28 16  1  0  0  0  0
 29 17  1  0  0  0  0
 32 18  1  0  0  0  0
 34 18  1  0  0  0  0
 37 19  1  0  0  0  0
M  END
