6
q = -2.0, confidence = 0.622

 48 50  0  0  1  0  0  0  0  0999 V2000
   -2.5011    1.4742   -1.2238 O   0  0  0  0  0  0  0  0  0  0  0  0
   -2.6923    0.5062   -1.1358 H   0  0  0  0  0  0  0  0  0  0  0  0
   -2.4826   -1.2524   -1.2641 O   0  0  0  0  0  0  0  0  0  0  0  0
   -1.7215   -1.0203   -1.8652 H   0  0  0  0  0  0  0  0  0  0  0  0
   -0.8978    0.7901    0.4915 C   0  0  2  0  0  3  0  0  0  0  0  0
   -0.9560   -0.7176    0.5296 C   0  0  1  0  0  3  0  0  0  0  0  0
   -0.1228   -0.7143    1.7164 C   0  0  0  0  0  0  0  0  0  0  0  0
   -0.0639    0.7589    1.6838 C   0  0  0  0  0  0  0  0  0  0  0  0
    0.1695   -1.7332    2.7630 C   0  0  0  0  0  0  0  0  0  0  0  0
    1.0508   -1.4657    3.3762 H   0  0  0  0  0  0  0  0  0  0  0  0
    0.3389   -2.7362    2.3266 H   0  0  0  0  0  0  0  0  0  0  0  0
   -0.6948   -1.8170    3.4577 H   0  0  0  0  0  0  0  0  0  0  0  0
    0.3092    1.7846    2.6982 C   0  0  0  0  0  0  0  0  0  0  0  0
    0.5635    2.7545    2.2293 H   0  0  0  0  0  0  0  0  0  0  0  0
    1.1576    1.4615    3.3286 H   0  0  0  0  0  0  0  0  0  0  0  0
   -0.5518    1.9666    3.3773 H   0  0  0  0  0  0  0  0  0  0  0  0
   -1.7417    1.8971   -0.1054 C   0  0  0  0  0  0  0  0  0  0  0  0
   -2.7235    2.4184    0.9910 C   0  0  0  0  0  0  0  0  0  0  0  0
   -3.3633    1.5716    1.3199 H   0  0  0  0  0  0  0  0  0  0  0  0
   -2.1491    2.7575    1.8801 H   0  0  0  0  0  0  0  0  0  0  0  0
   -3.5759    3.5723    0.4522 C   0  0  0  0  0  0  0  0  0  0  0  0
   -4.2742    3.9312    1.2375 H   0  0  0  0  0  0  0  0  0  0  0  0
   -4.1930    3.1828   -0.3841 H   0  0  0  0  0  0  0  0  0  0  0  0
   -2.6959    4.7212   -0.0580 C   0  0  0  0  0  0  0  0  0  0  0  0
   -3.3269    5.5348   -0.4744 H   0  0  0  0  0  0  0  0  0  0  0  0
   -2.1400    5.1653    0.8003 H   0  0  0  0  0  0  0  0  0  0  0  0
   -1.6927    4.2296   -1.1105 C   0  0  0  0  0  0  0  0  0  0  0  0
   -1.0328    5.0605   -1.4387 H   0  0  0  0  0  0  0  0  0  0  0  0
   -2.2415    3.8774   -2.0086 H   0  0  0  0  0  0  0  0  0  0  0  0
   -0.8482    3.0653   -0.5829 C   0  0  0  0  0  0  0  0  0  0  0  0
   -0.2169    3.4078    0.2659 H   0  0  0  0  0  0  0  0  0  0  0  0
   -0.1672    2.6663   -1.3606 H   0  0  0  0  0  0  0  0  0  0  0  0
   -1.8693   -1.7607   -0.0711 C   0  0  0  0  0  0  0  0  0  0  0  0
   -3.0285   -2.0538    0.9100 C   0  0  0  0  0  0  0  0  0  0  0  0
   -2.5915   -2.3741    1.8799 H   0  0  0  0  0  0  0  0  0  0  0  0
   -3.5784   -1.1076    1.0960 H   0  0  0  0  0  0  0  0  0  0  0  0
   -3.9669   -3.1402    0.3713 C   0  0  0  0  0  0  0  0  0  0  0  0
   -4.7737   -3.3394    1.1075 H   0  0  0  0  0  0  0  0  0  0  0  0
   -4.4556   -2.7588   -0.5494 H   0  0  0  0  0  0  0  0  0  0  0  0
   -3.1994   -4.4279    0.0459 C   0  0  0  0  0  0  0  0  0  0  0  0
   -2.7890   -4.8589    0.9883 H   0  0  0  0  0  0  0  0  0  0  0  0
   -3.8873   -5.1923   -0.3726 H   0  0  0  0  0  0  0  0  0  0  0  0
   -2.0468   -4.1542   -0.9289 C   0  0  0  0  0  0  0  0  0  0  0  0
   -2.4635   -3.8167   -1.9012 H   0  0  0  0  0  0  0  0  0  0  0  0
   -1.4743   -5.0837   -1.1304 H   0  0  0  0  0  0  0  0  0  0  0  0
   -1.1064   -3.0670   -0.3976 C   0  0  0  0  0  0  0  0  0  0  0  0
   -0.3087   -2.8191   -1.1274 H   0  0  0  0  0  0  0  0  0  0  0  0
   -0.5970   -3.4227    0.5239 H   0  0  0  0  0  0  0  0  0  0  0  0
  1  2  1  0  0  0  0
  1 17  1  0  0  0  0
  3 33  1  0  0  0  0
  4  3  1  0  0  0  0
  5 17  1  1  0  0  0
  5  6  1  0  0  0  0
  5  8  1  0  0  0  0
  6 33  1  1  0  0  0
  6  7  1  0  0  0  0
  7  9  1  0  0  0  0
  8  7  2  0  0  0  0
  8 13  1  0  0  0  0
  9 10  1  0  0  0  0
  9 12  1  0  0  0  0
 11  9  1  0  0  0  0
 13 15  1  0  0  0  0
 13 16  1  0  0  0  0
 14 13  1  0  0  0  0
 17 18  1  0  0  0  0
 18 19  1  0  0  0  0
 18 20  1  0  0  0  0
 21 18  1  0  0  0  0
 21 22  1  0  0  0  0
 23 21  1  0  0  0  0
 24 21  1  0  0  0  0
 24 26  1  0  0  0  0
 25 24  1  0  0  0  0
 27 30  1  0  0  0  0
 27 24  1  0  0  0  0
 28 27  1  0  0  0  0
 29 27  1  0  0  0  0
 30 17  1  0  0  0  0
 30 31  1  0  0  0  0
 32 30  1  0  0  0  0
 33 34  1  0  0  0  0
 34 36  1  0  0  0  0
 34 35  1  0  0  0  0
 37 34  1  0  0  0  0
 37 38  1  0  0  0  0
 39 37  1  0  0  0  0
 40 37  1  0  0  0  0
 40 41  1  0  0  0  0
 42 40  1  0  0  0  0
 43 46  1  0  0  0  0
 43 40  1  0  0  0  0
 44 43  1  0  0  0  0
 45 43  1  0  0  0  0
 46 33  1  0  0  0  0
 46 48  1  0  0  0  0
 47 46  1  0  0  0  0
M  END
