1
q = 0.0, confidence = 0.998

 53 55  0  0  0  0  0  0  0  0999 V2000
   -0.0002    1.0446    0.0901 C   0  0  0  0  0  2  0  0  0  0  0  0
    1.0836    1.8622    0.0060 N   0  0  0  0  0  0  0  0  0  0  0  0
    0.6867    3.1835   -0.1417 C   0  0  0  0  0  0  0  0  0  0  0  0
    1.4003    4.0063   -0.2418 H   0  0  0  0  0  0  0  0  0  0  0  0
   -0.6877    3.1833   -0.1415 C   0  0  0  0  0  0  0  0  0  0  0  0
   -1.4014    4.0060   -0.2414 H   0  0  0  0  0  0  0  0  0  0  0  0
   -1.0842    1.8620    0.0064 N   0  0  0  0  0  0  0  0  0  0  0  0
    2.4605    1.3389   -0.0101 C   0  0  0  0  0  0  0  0  0  0  0  0
    2.2894    0.2465    0.0832 H   0  0  0  0  0  0  0  0  0  0  0  0
    3.1503    1.6087   -1.3679 C   0  0  0  0  0  0  0  0  0  0  0  0
    2.3743    1.9591   -2.0777 H   0  0  0  0  0  0  0  0  0  0  0  0
    3.8822    2.4406   -1.2688 H   0  0  0  0  0  0  0  0  0  0  0  0
    3.8069    0.3692   -1.9978 C   0  0  0  0  0  0  0  0  0  0  0  0
    4.1536    0.6552   -3.0139 H   0  0  0  0  0  0  0  0  0  0  0  0
    3.0035   -0.3838   -2.1568 H   0  0  0  0  0  0  0  0  0  0  0  0
    4.9804   -0.3021   -1.2634 C   0  0  0  0  0  0  0  0  0  0  0  0
    5.3519   -1.1046   -1.9342 H   0  0  0  0  0  0  0  0  0  0  0  0
    5.8315    0.4098   -1.1686 H   0  0  0  0  0  0  0  0  0  0  0  0
    4.6603   -0.9248    0.1142 C   0  0  0  0  0  0  0  0  0  0  0  0
    5.2197   -1.8777    0.2170 H   0  0  0  0  0  0  0  0  0  0  0  0
    3.5914   -1.2285    0.1390 H   0  0  0  0  0  0  0  0  0  0  0  0
    5.0151   -0.0641    1.3458 C   0  0  0  0  0  0  0  0  0  0  0  0
    6.1095   -0.1530    1.5221 H   0  0  0  0  0  0  0  0  0  0  0  0
    4.5325   -0.5056    2.2454 H   0  0  0  0  0  0  0  0  0  0  0  0
    4.6986    1.4368    1.2861 C   0  0  0  0  0  0  0  0  0  0  0  0
    5.1394    1.9172    2.1850 H   0  0  0  0  0  0  0  0  0  0  0  0
    5.2356    1.8920    0.4260 H   0  0  0  0  0  0  0  0  0  0  0  0
    3.2212    1.8352    1.2286 C   0  0  0  0  0  0  0  0  0  0  0  0
    2.6902    1.4629    2.1317 H   0  0  0  0  0  0  0  0  0  0  0  0
    3.1547    2.9457    1.2633 H   0  0  0  0  0  0  0  0  0  0  0  0
   -2.4610    1.3384   -0.0100 C   0  0  0  0  0  0  0  0  0  0  0  0
   -2.2898    0.2461    0.0851 H   0  0  0  0  0  0  0  0  0  0  0  0
   -3.1496    1.6060   -1.3688 C   0  0  0  0  0  0  0  0  0  0  0  0
   -2.3728    1.9549   -2.0785 H   0  0  0  0  0  0  0  0  0  0  0  0
   -3.8813    2.4383   -1.2717 H   0  0  0  0  0  0  0  0  0  0  0  0
   -3.8059    0.3658   -1.9975 C   0  0  0  0  0  0  0  0  0  0  0  0
   -4.1518    0.6504   -3.0142 H   0  0  0  0  0  0  0  0  0  0  0  0
   -3.0025   -0.3876   -2.1549 H   0  0  0  0  0  0  0  0  0  0  0  0
   -4.9801   -0.3044   -1.2631 C   0  0  0  0  0  0  0  0  0  0  0  0
   -5.3511   -1.1078   -1.9330 H   0  0  0  0  0  0  0  0  0  0  0  0
   -5.8312    0.4077   -1.1699 H   0  0  0  0  0  0  0  0  0  0  0  0
   -4.6610   -0.9250    0.1157 C   0  0  0  0  0  0  0  0  0  0  0  0
   -5.2205   -1.8779    0.2195 H   0  0  0  0  0  0  0  0  0  0  0  0
   -3.5922   -1.2285    0.1418 H   0  0  0  0  0  0  0  0  0  0  0  0
   -5.0169   -0.0625    1.3457 C   0  0  0  0  0  0  0  0  0  0  0  0
   -6.1115   -0.1512    1.5212 H   0  0  0  0  0  0  0  0  0  0  0  0
   -4.5352   -0.5027    2.2464 H   0  0  0  0  0  0  0  0  0  0  0  0
   -4.7003    1.4382    1.2840 C   0  0  0  0  0  0  0  0  0  0  0  0
   -5.1419    1.9200    2.1818 H   0  0  0  0  0  0  0  0  0  0  0  0
   -5.2365    1.8921    0.4227 H   0  0  0  0  0  0  0  0  0  0  0  0
   -3.2229    1.8364    1.2272 C   0  0  0  0  0  0  0  0  0  0  0  0
   -2.6927    1.4656    2.1314 H   0  0  0  0  0  0  0  0  0  0  0  0
   -3.1565    2.9470    1.2603 H   0  0  0  0  0  0  0  0  0  0  0  0
  2  1  1  0  0  0  0
  3  5  2  0  0  0  0
  3  2  1  0  0  0  0
  4  3  1  0  0  0  0
  5  7  1  0  0  0  0
  6  5  1  0  0  0  0
  7  1  1  0  0  0  0
  8  2  1  0  0  0  0
  8  9  1  0  0  0  0
  8 28  1  0  0  0  0
 10 12  1  0  0  0  0
 10  8  1  0  0  0  0
 11 10  1  0  0  0  0
 13 10  1  0  0  0  0
 13 16  1  0  0  0  0
 14 13  1  0  0  0  0
 15 13  1  0  0  0  0
 16 18  1  0  0  0  0
 16 19  1  0  0  0  0
 17 16  1  0  0  0  0
 19 21  1  0  0  0  0
 19 20  1  0  0  0  0
 19 22  1  0  0  0  0
 22 23  1  0  0  0  0
 22 24  1  0  0  0  0
 25 22  1  0  0  0  0
 25 26  1  0  0  0  0
 27 25  1  0  0  0  0
 28 30  1  0  0  0  0
 28 25  1  0  0  0  0
 28 29  1  0  0  0  0
 31  7  1  0  0  0  0
 31 32  1  0  0  0  0
 31 51  1  0  0  0  0
 33 35  1  0  0  0  0
 33 31  1  0  0  0  0
 34 33  1  0  0  0  0
 36 33  1  0  0  0  0
 36 39  1  0  0  0  0
 37 36  1  0  0  0  0
 38 36  1  0  0  0  0
 39 41  1  0  0  0  0
 39 42  1  0  0  0  0
 40 39  1  0  0  0  0
 42 44  1  0  0  0  0
 42 43  1  0  0  0  0
 42 45  1  0  0  0  0
 45 46  1  0  0  0  0
 45 47  1  0  0  0  0
 48 45  1  0  0  0  0
 48 49  1  0  0  0  0
 50 48  1  0  0  0  0
 51 53  1  0  0  0  0
 51 48  1  0  0  0  0
 51 52  1  0  0  0  0
M  END
