11
q = -1.0, confidence = 0.0

 38 39  0  0  0  0  0  0  0  0999 V2000
    1.0646   -0.0878   -0.7576 P   0  0  1  0  0  0  0  0  0  0  0  0
    1.9344   -1.6033   -0.1798 C   0  0  0  0  0  0  0  0  0  0  0  0
    1.0497   -2.5032    0.4542 C   0  0  0  0  0  0  0  0  0  0  0  0
    1.5496   -3.7569    0.8662 C   0  0  0  0  0  0  0  0  0  0  0  0
    0.8684   -4.4724    1.3534 H   0  0  0  0  0  0  0  0  0  0  0  0
    2.8965   -4.0818    0.6758 C   0  0  0  0  0  0  0  0  0  0  0  0
    3.2807   -5.0582    1.0099 H   0  0  0  0  0  0  0  0  0  0  0  0
    3.7665   -3.1636    0.0656 C   0  0  0  0  0  0  0  0  0  0  0  0
    4.8283   -3.4224   -0.0725 H   0  0  0  0  0  0  0  0  0  0  0  0
    3.3048   -1.9123   -0.3837 C   0  0  0  0  0  0  0  0  0  0  0  0
   -0.3792   -2.1058    0.7417 C   0  0  0  0  0  3  0  0  0  0  0  0
   -0.4990   -2.0621    1.8481 H   0  0  0  0  0  0  0  0  0  0  0  0
   -1.0548   -2.9122    0.3834 H   0  0  0  0  0  0  0  0  0  0  0  0
    4.2684   -0.9660   -1.0591 C   0  0  0  0  0  0  0  0  0  0  0  0
    5.3116   -1.1858   -0.7596 H   0  0  0  0  0  0  0  0  0  0  0  0
    4.0568    0.0938   -0.8177 H   0  0  0  0  0  0  0  0  0  0  0  0
    4.2211   -1.0677   -2.1642 H   0  0  0  0  0  0  0  0  0  0  0  0
    1.9760    1.3964   -0.1095 C   0  0  0  0  0  0  0  0  0  0  0  0
    2.1049    2.5927   -0.8772 C   0  0  0  0  0  0  0  0  0  0  0  0
    2.7883    3.6934   -0.3210 C   0  0  0  0  0  0  0  0  0  0  0  0
    2.8855    4.6109   -0.9223 H   0  0  0  0  0  0  0  0  0  0  0  0
    3.3193    3.6474    0.9709 C   0  0  0  0  0  0  0  0  0  0  0  0
    3.8517    4.5168    1.3853 H   0  0  0  0  0  0  0  0  0  0  0  0
    3.1306    2.4983    1.7440 C   0  0  0  0  0  0  0  0  0  0  0  0
    3.5019    2.4661    2.7803 H   0  0  0  0  0  0  0  0  0  0  0  0
    2.4536    1.3705    1.2383 C   0  0  0  0  0  0  0  0  0  0  0  0
    1.5112    2.7803   -2.2548 C   0  0  0  0  0  0  0  0  0  0  0  0
    1.4085    3.8598   -2.4768 H   0  0  0  0  0  0  0  0  0  0  0  0
    0.5096    2.3208   -2.3426 H   0  0  0  0  0  0  0  0  0  0  0  0
    2.1456    2.3417   -3.0509 H   0  0  0  0  0  0  0  0  0  0  0  0
    2.2448    0.2065    2.1767 C   0  0  0  0  0  0  0  0  0  0  0  0
    2.9721   -0.6103    1.9984 H   0  0  0  0  0  0  0  0  0  0  0  0
    1.2367   -0.2349    2.0566 H   0  0  0  0  0  0  0  0  0  0  0  0
    2.3609    0.5419    3.2254 H   0  0  0  0  0  0  0  0  0  0  0  0
    1.3583   -0.2209   -2.5814 C   0  0  0  0  0  0  0  0  0  0  0  0
    2.3811    0.0884   -2.8618 H   0  0  0  0  0  0  0  0  0  0  0  0
    0.6020    0.3482   -3.1462 H   0  0  0  0  0  0  0  0  0  0  0  0
    1.2024   -1.2908   -2.8112 H   0  0  0  0  0  0  0  0  0  0  0  0
  1 35  1  6  0  0  0
  1  2  1  0  0  0  0
  1 18  1  0  0  0  0
  2  3  1  0  0  0  0
  3 11  1  0  0  0  0
  3  4  2  0  0  0  0
  4  5  1  0  0  0  0
  6  4  1  0  0  0  0
  6  7  1  0  0  0  0
  8  6  2  0  0  0  0
  9  8  1  0  0  0  0
 10  2  2  0  0  0  0
 10  8  1  0  0  0  0
 11 12  1  0  0  0  0
 13 11  1  0  0  0  0
 14 16  1  0  0  0  0
 14 15  1  0  0  0  0
 14 10  1  0  0  0  0
 17 14  1  0  0  0  0
 18 26  1  0  0  0  0
 19 20  1  0  0  0  0
 19 18  2  0  0  0  0
 20 22  2  0  0  0  0
 21 20  1  0  0  0  0
 22 23  1  0  0  0  0
 22 24  1  0  0  0  0
 24 25  1  0  0  0  0
 26 24  2  0  0  0  0
 26 31  1  0  0  0  0
 27 19  1  0  0  0  0
 28 27  1  0  0  0  0
 29 27  1  0  0  0  0
 30 27  1  0  0  0  0
 31 34  1  0  0  0  0
 32 31  1  0  0  0  0
 33 31  1  0  0  0  0
 36 35  1  0  0  0  0
 37 35  1  0  0  0  0
 38 35  1  0  0  0  0
M  END
