2
q = -1.0, confidence = 0.1

 14 13  0  0  0  0  0  0  0  0999 V2000
   -1.0905    0.0573    3.0298 C   0  0  0  0  0  3  0  0  0  0  0  0
    0.2149   -0.4736    3.2330 C   0  0  0  0  0  3  0  0  0  0  0  0
    1.4080    0.2111    2.8546 C   0  0  0  0  0  3  0  0  0  0  0  0
    1.5313    1.7186    2.8834 C   0  0  0  0  0  0  0  0  0  0  0  0
    2.7225   -0.5289    2.8945 C   0  0  0  0  0  0  0  0  0  0  0  0
   -1.9607   -0.5905    3.2133 H   0  0  0  0  0  0  0  0  0  0  0  0
   -1.2863    1.1390    3.1137 H   0  0  0  0  0  0  0  0  0  0  0  0
    0.3071   -1.5527    3.4529 H   0  0  0  0  0  0  0  0  0  0  0  0
    0.5595    2.2463    2.8899 H   0  0  0  0  0  0  0  0  0  0  0  0
    2.0774    2.0174    3.8060 H   0  0  0  0  0  0  0  0  0  0  0  0
    2.1296    2.0897    2.0264 H   0  0  0  0  0  0  0  0  0  0  0  0
    3.2378   -0.3322    3.8603 H   0  0  0  0  0  0  0  0  0  0  0  0
    2.5960   -1.6231    2.7891 H   0  0  0  0  0  0  0  0  0  0  0  0
    3.4040   -0.1735    2.0957 H   0  0  0  0  0  0  0  0  0  0  0  0
  1  7  1  0  0  0  0
  1  6  1  0  0  0  0
  1  2  1  0  0  0  0
  2  8  1  0  0  0  0
  3  4  1  0  0  0  0
  3  5  1  0  0  0  0
  3  2  1  0  0  0  0
  4  9  1  0  0  0  0
  4 10  1  0  0  0  0
  5 12  1  0  0  0  0
 11  4  1  0  0  0  0
 13  5  1  0  0  0  0
 14  5  1  0  0  0  0
M  END
