6
q = -1.0, confidence = 0.012

 16 16  0  0  0  0  0  0  0  0999 V2000
   -3.6776   -0.9131    1.9206 Br  0  0  0  0  0  0  0  0  0  0  0  0
   -4.9325   -1.9198   -1.3117 Br  0  0  0  0  0  0  0  0  0  0  0  0
   -3.8299   -0.2739   -0.2361 Si  0  0  0  0  0  0  0  0  0  0  0  0
   -2.1344   -0.2235   -1.0247 C   0  0  0  0  0  0  0  0  0  0  0  0
   -1.1688   -1.2782   -1.0289 C   0  0  0  0  0  0  0  0  0  0  0  0
   -0.1075   -0.9219   -1.9116 C   0  0  0  0  0  3  0  0  0  0  0  0
   -0.4250    0.3447   -2.4876 C   0  0  0  0  0  0  0  0  0  0  0  0
   -1.6553    0.7837   -1.9360 C   0  0  0  0  0  0  0  0  0  0  0  0
   -4.8164    1.3010   -0.3910 C   0  0  0  0  0  0  0  0  0  0  0  0
   -1.2506   -2.2129   -0.4609 H   0  0  0  0  0  0  0  0  0  0  0  0
    0.7954   -1.5096   -2.1195 H   0  0  0  0  0  0  0  0  0  0  0  0
    0.1979    0.8988   -3.1982 H   0  0  0  0  0  0  0  0  0  0  0  0
   -2.1481    1.7400   -2.1492 H   0  0  0  0  0  0  0  0  0  0  0  0
   -4.2915    2.1253    0.1306 H   0  0  0  0  0  0  0  0  0  0  0  0
   -5.8214    1.1596    0.0514 H   0  0  0  0  0  0  0  0  0  0  0  0
   -4.9342    1.5585   -1.4631 H   0  0  0  0  0  0  0  0  0  0  0  0
  2  3  1  0  0  0  0
  3  1  1  0  0  0  0
  4  3  1  0  0  0  0
  5  4  2  0  0  0  0
  5 10  1  0  0  0  0
  6  5  1  0  0  0  0
  7  8  2  0  0  0  0
  7  6  1  0  0  0  0
  8  4  1  0  0  0  0
  9  3  1  0  0  0  0
  9 15  1  0  0  0  0
  9 14  1  0  0  0  0
 11  6  1  0  0  0  0
 12  7  1  0  0  0  0
 13  8  1  0  0  0  0
 16  9  1  0  0  0  0
M  END
