2
q = 0.0, confidence = 0.876

  8  7  0  0  0  0  0  0  0  0999 V2000
   -0.0297    1.5325    1.8633 C   0  0  0  0  0  3  0  0  0  0  0  0
   -0.0079    2.2015    0.6334 C   0  0  0  0  0  2  0  0  0  0  0  0
    0.8556    1.6228    2.5148 H   0  0  0  0  0  0  0  0  0  0  0  0
   -0.9762    1.5555    2.4310 H   0  0  0  0  0  0  0  0  0  0  0  0
    0.0297    1.5325   -1.8633 C   0  0  0  0  0  3  0  0  0  0  0  0
    0.0079    2.2015   -0.6334 C   0  0  0  0  0  2  0  0  0  0  0  0
   -0.8556    1.6228   -2.5148 H   0  0  0  0  0  0  0  0  0  0  0  0
    0.9762    1.5554   -2.4310 H   0  0  0  0  0  0  0  0  0  0  0  0
  1  4  1  0  0  0  0
  1  3  1  0  0  0  0
  2  1  1  0  0  0  0
  5  6  1  0  0  0  0
  6  2  1  0  0  0  0
  7  5  1  0  0  0  0
  8  5  1  0  0  0  0
M  END
