13
q = 0.0, confidence = 0.93

 39 41  0  0  0  0  0  0  0  0999 V2000
    0.9324    0.0723   -0.8960 P   0  0  0  0  0  0  0  0  0  0  0  0
    1.2256    2.9165    0.5077 F   0  0  0  0  0  0  0  0  0  0  0  0
    3.4627    4.3978    0.7385 F   0  0  0  0  0  0  0  0  0  0  0  0
    5.8490    3.4584   -0.2106 F   0  0  0  0  0  0  0  0  0  0  0  0
    5.9883    0.9935   -1.3897 F   0  0  0  0  0  0  0  0  0  0  0  0
    3.7485   -0.5188   -1.6367 F   0  0  0  0  0  0  0  0  0  0  0  0
    0.8682   -2.8619   -1.9473 F   0  0  0  0  0  0  0  0  0  0  0  0
    1.4178   -5.1245   -0.6033 F   0  0  0  0  0  0  0  0  0  0  0  0
    2.2682   -5.0243    1.9944 F   0  0  0  0  0  0  0  0  0  0  0  0
    2.5322   -2.6115    3.2634 F   0  0  0  0  0  0  0  0  0  0  0  0
    1.9354   -0.3159    1.9451 F   0  0  0  0  0  0  0  0  0  0  0  0
    0.6827   -0.0341   -2.3865 O   0  0  0  0  0  0  0  0  0  0  0  0
   -0.4548    0.6588    0.1046 C   0  0  0  0  0  3  0  0  0  0  0  0
   -0.1610    0.8634    1.1466 H   0  0  0  0  0  0  0  0  0  0  0  0
   -1.4416    1.5003   -0.5225 C   0  0  0  0  0  3  0  0  0  0  0  0
   -1.3678    1.5376   -1.6244 H   0  0  0  0  0  0  0  0  0  0  0  0
   -2.0124    2.7355    0.0654 C   0  0  0  0  0  0  0  0  0  0  0  0
   -1.8357    3.0955    1.4195 C   0  0  0  0  0  0  0  0  0  0  0  0
   -1.2557    2.4421    2.0882 H   0  0  0  0  0  0  0  0  0  0  0  0
   -2.3951    4.2744    1.9258 C   0  0  0  0  0  0  0  0  0  0  0  0
   -2.2454    4.5355    2.9844 H   0  0  0  0  0  0  0  0  0  0  0  0
   -3.1426    5.1226    1.0916 C   0  0  0  0  0  0  0  0  0  0  0  0
   -3.5811    6.0487    1.4927 H   0  0  0  0  0  0  0  0  0  0  0  0
   -3.3231    4.7798   -0.2574 C   0  0  0  0  0  0  0  0  0  0  0  0
   -3.9027    5.4383   -0.9223 H   0  0  0  0  0  0  0  0  0  0  0  0
   -2.7621    3.5994   -0.7629 C   0  0  0  0  0  0  0  0  0  0  0  0
   -2.9023    3.3347   -1.8233 H   0  0  0  0  0  0  0  0  0  0  0  0
    2.4093    1.1366   -0.5694 C   0  0  0  0  0  0  0  0  0  0  0  0
    2.3680    2.4079    0.0280 C   0  0  0  0  0  0  0  0  0  0  0  0
    3.5237    3.1964    0.1617 C   0  0  0  0  0  0  0  0  0  0  0  0
    4.7501    2.7164   -0.3271 C   0  0  0  0  0  0  0  0  0  0  0  0
    4.8207    1.4490   -0.9323 C   0  0  0  0  0  0  0  0  0  0  0  0
    3.6516    0.6837   -1.0547 C   0  0  0  0  0  0  0  0  0  0  0  0
    1.4170   -1.5013   -0.0551 C   0  0  0  0  0  0  0  0  0  0  0  0
    1.2939   -2.7516   -0.6841 C   0  0  0  0  0  0  0  0  0  0  0  0
    1.5708   -3.9452    0.0039 C   0  0  0  0  0  0  0  0  0  0  0  0
    2.0028   -3.8963    1.3399 C   0  0  0  0  0  0  0  0  0  0  0  0
    2.1401   -2.6579    1.9903 C   0  0  0  0  0  0  0  0  0  0  0  0
    1.8415   -1.4846    1.2843 C   0  0  0  0  0  0  0  0  0  0  0  0
  1 28  1  0  0  0  0
  1 34  1  0  0  0  0
  1 13  1  0  0  0  0
  5 32  1  0  0  0  0
  6 33  1  0  0  0  0
  7 35  1  0  0  0  0
  8 36  1  0  0  0  0
 12  1  2  0  0  0  0
 13 14  1  0  0  0  0
 15 17  1  0  0  0  0
 15 13  1  0  0  0  0
 16 15  1  0  0  0  0
 17 18  1  0  0  0  0
 18 20  2  0  0  0  0
 18 19  1  0  0  0  0
 20 21  1  0  0  0  0
 22 23  1  0  0  0  0
 22 20  1  0  0  0  0
 24 22  2  0  0  0  0
 25 24  1  0  0  0  0
 26 24  1  0  0  0  0
 26 17  2  0  0  0  0
 27 26  1  0  0  0  0
 28 29  1  0  0  0  0
 29 30  2  0  0  0  0
 29  2  1  0  0  0  0
 30  3  1  0  0  0  0
 31  4  1  0  0  0  0
 31 30  1  0  0  0  0
 32 31  2  0  0  0  0
 33 32  1  0  0  0  0
 33 28  2  0  0  0  0
 34 39  1  0  0  0  0
 35 34  2  0  0  0  0
 35 36  1  0  0  0  0
 36 37  2  0  0  0  0
 37 38  1  0  0  0  0
 37  9  1  0  0  0  0
 38 10  1  0  0  0  0
 39 11  1  0  0  0  0
 39 38  2  0  0  0  0
M  END
