1
q = 0.0, confidence = 0.978

 14 14  0  0  0  0  0  0  0  0999 V2000
    1.4775   -2.0277    1.6808 C   0  0  0  0  0  3  0  0  0  0  0  0
    0.5272   -2.2713    2.1895 H   0  0  0  0  0  0  0  0  0  0  0  0
    2.1984   -2.8611    1.7376 H   0  0  0  0  0  0  0  0  0  0  0  0
    2.0284   -0.7425    2.0538 C   0  0  0  0  0  0  0  0  0  0  0  0
    3.4234   -0.4474    1.9221 C   0  0  0  0  0  0  0  0  0  0  0  0
    4.1195   -1.2273    1.5859 H   0  0  0  0  0  0  0  0  0  0  0  0
    3.9137    0.8085    2.2108 C   0  0  0  0  0  3  0  0  0  0  0  0
    4.9771    1.0731    2.1294 H   0  0  0  0  0  0  0  0  0  0  0  0
    3.0706    1.7949    2.6358 N   0  0  0  0  0  0  0  0  0  0  0  0
    3.4529    2.7184    2.8557 H   0  0  0  0  0  0  0  0  0  0  0  0
    1.7334    1.5705    2.7987 C   0  0  0  0  0  0  0  0  0  0  0  0
    1.1343    2.4184    3.1579 H   0  0  0  0  0  0  0  0  0  0  0  0
    1.2022    0.3282    2.5272 C   0  0  0  0  0  0  0  0  0  0  0  0
    0.1251    0.1657    2.6711 H   0  0  0  0  0  0  0  0  0  0  0  0
  1  3  1  0  0  0  0
  1  4  1  0  0  0  0
  1  2  1  0  0  0  0
  4 13  1  0  0  0  0
  5  4  2  0  0  0  0
  5  7  1  0  0  0  0
  6  5  1  0  0  0  0
  7  9  1  0  0  0  0
  8  7  1  0  0  0  0
  9 11  1  0  0  0  0
  9 10  1  0  0  0  0
 11 12  1  0  0  0  0
 13 14  1  0  0  0  0
 13 11  2  0  0  0  0
M  END
