1
q = 0.0, confidence = 0.966

 47 50  0  0  1  0  0  0  0  0999 V2000
    1.0024    0.4581    0.2060 C   0  0  0  0  0  1  0  0  0  0  0  0
   -0.3271    0.6120    0.1512 C   0  0  2  0  0  3  0  0  0  0  0  0
   -1.2687   -0.6104   -0.0884 C   0  0  0  0  0  0  0  0  0  0  0  0
   -0.8688    1.9959    0.3001 C   0  0  0  0  0  0  0  0  0  0  0  0
   -0.0665    3.1186   -0.0232 C   0  0  0  0  0  0  0  0  0  0  0  0
   -0.5459    4.4248    0.1260 C   0  0  0  0  0  0  0  0  0  0  0  0
   -1.8517    4.6534    0.5895 C   0  0  0  0  0  0  0  0  0  0  0  0
   -2.6651    3.5537    0.9008 C   0  0  0  0  0  0  0  0  0  0  0  0
   -2.1842    2.2445    0.7621 C   0  0  0  0  0  0  0  0  0  0  0  0
   -1.8565   -1.1358    1.2397 C   0  0  0  0  0  0  0  0  0  0  0  0
   -1.6364   -0.4918    2.4706 C   0  0  0  0  0  0  0  0  0  0  0  0
   -2.1546   -1.0210    3.6647 C   0  0  0  0  0  0  0  0  0  0  0  0
   -2.8969   -2.2094    3.6504 C   0  0  0  0  0  0  0  0  0  0  0  0
   -3.1042   -2.8759    2.4312 C   0  0  0  0  0  0  0  0  0  0  0  0
   -2.5823   -2.3484    1.2429 C   0  0  0  0  0  0  0  0  0  0  0  0
   -0.4316   -1.7752   -0.6915 C   0  0  0  0  0  0  0  0  0  0  0  0
    0.4432   -2.4833    0.1604 C   0  0  0  0  0  0  0  0  0  0  0  0
    1.2630   -3.5087   -0.3276 C   0  0  0  0  0  0  0  0  0  0  0  0
    1.2109   -3.8701   -1.6840 C   0  0  0  0  0  0  0  0  0  0  0  0
    0.3218   -3.1983   -2.5354 C   0  0  0  0  0  0  0  0  0  0  0  0
   -0.4913   -2.1609   -2.0441 C   0  0  0  0  0  0  0  0  0  0  0  0
   -2.3580   -0.1560   -1.0896 C   0  0  0  0  0  0  0  0  0  0  0  0
   -1.9613    0.5861   -2.2245 C   0  0  0  0  0  0  0  0  0  0  0  0
   -2.8942    1.0232   -3.1724 C   0  0  0  0  0  0  0  0  0  0  0  0
   -4.2587    0.7371   -3.0032 C   0  0  0  0  0  0  0  0  0  0  0  0
   -4.6693    0.0142   -1.8756 C   0  0  0  0  0  0  0  0  0  0  0  0
   -3.7289   -0.4271   -0.9292 C   0  0  0  0  0  0  0  0  0  0  0  0
    0.9499    2.9509   -0.4073 H   0  0  0  0  0  0  0  0  0  0  0  0
    0.1055    5.2736   -0.1334 H   0  0  0  0  0  0  0  0  0  0  0  0
   -2.2337    5.6795    0.6994 H   0  0  0  0  0  0  0  0  0  0  0  0
   -3.6943    3.7112    1.2583 H   0  0  0  0  0  0  0  0  0  0  0  0
   -2.8461    1.4068    1.0137 H   0  0  0  0  0  0  0  0  0  0  0  0
   -1.0363    0.4279    2.5004 H   0  0  0  0  0  0  0  0  0  0  0  0
   -1.9659   -0.4978    4.6145 H   0  0  0  0  0  0  0  0  0  0  0  0
   -3.3005   -2.6249    4.5862 H   0  0  0  0  0  0  0  0  0  0  0  0
   -3.6663   -3.8220    2.4065 H   0  0  0  0  0  0  0  0  0  0  0  0
   -2.7181   -2.8980    0.2993 H   0  0  0  0  0  0  0  0  0  0  0  0
    0.4754   -2.2310    1.2291 H   0  0  0  0  0  0  0  0  0  0  0  0
    1.9429   -4.0299    0.3638 H   0  0  0  0  0  0  0  0  0  0  0  0
    1.8464   -4.6815   -2.0703 H   0  0  0  0  0  0  0  0  0  0  0  0
    0.2502   -3.4833   -3.5963 H   0  0  0  0  0  0  0  0  0  0  0  0
   -1.1852   -1.6555   -2.7287 H   0  0  0  0  0  0  0  0  0  0  0  0
   -0.8976    0.8372   -2.3507 H   0  0  0  0  0  0  0  0  0  0  0  0
   -2.5540    1.6026   -4.0443 H   0  0  0  0  0  0  0  0  0  0  0  0
   -4.9967    1.0862   -3.7412 H   0  0  0  0  0  0  0  0  0  0  0  0
   -5.7363   -0.2063   -1.7188 H   0  0  0  0  0  0  0  0  0  0  0  0
   -4.0801   -0.9726   -0.0432 H   0  0  0  0  0  0  0  0  0  0  0  0
  2  1  1  6  0  0  0
  2  4  1  0  0  0  0
  3  2  1  0  0  0  0
  3 10  1  0  0  0  0
  4  9  1  0  0  0  0
  5  6  1  0  0  0  0
  5  4  2  0  0  0  0
  6  7  2  0  0  0  0
  7 30  1  0  0  0  0
  7  8  1  0  0  0  0
  8 31  1  0  0  0  0
  9  8  2  0  0  0  0
  9 32  1  0  0  0  0
 10 15  2  0  0  0  0
 10 11  1  0  0  0  0
 11 33  1  0  0  0  0
 11 12  2  0  0  0  0
 12 34  1  0  0  0  0
 13 12  1  0  0  0  0
 13 35  1  0  0  0  0
 14 13  2  0  0  0  0
 15 14  1  0  0  0  0
 16  3  1  0  0  0  0
 16 17  1  0  0  0  0
 17 38  1  0  0  0  0
 18 17  2  0  0  0  0
 18 39  1  0  0  0  0
 19 18  1  0  0  0  0
 20 21  1  0  0  0  0
 20 19  2  0  0  0  0
 21 16  2  0  0  0  0
 22 27  1  0  0  0  0
 22  3  1  0  0  0  0
 23 22  2  0  0  0  0
 24 25  2  0  0  0  0
 24 23  1  0  0  0  0
 25 26  1  0  0  0  0
 26 46  1  0  0  0  0
 26 27  2  0  0  0  0
 27 47  1  0  0  0  0
 28  5  1  0  0  0  0
 29  6  1  0  0  0  0
 36 14  1  0  0  0  0
 37 15  1  0  0  0  0
 40 19  1  0  0  0  0
 41 20  1  0  0  0  0
 42 21  1  0  0  0  0
 43 23  1  0  0  0  0
 44 24  1  0  0  0  0
 45 25  1  0  0  0  0
M  END
