8
q = -1.0, confidence = 0.0

 39 41  0  0  0  0  0  0  0  0999 V2000
   -0.0889   -1.6205    0.4135 O   0  0  0  0  0  0  0  0  0  0  0  0
   -1.7938    1.5008   -0.0723 C   0  0  0  0  0  0  0  0  0  0  0  0
   -2.5749    1.3308   -1.2500 C   0  0  0  0  0  0  0  0  0  0  0  0
   -2.4661    2.2698   -2.2639 C   0  0  0  0  0  0  0  0  0  0  0  0
   -1.5777    3.3816   -2.1624 C   0  0  0  0  0  0  0  0  0  0  0  0
   -0.8059    3.5801   -1.0296 C   0  0  0  0  0  0  0  0  0  0  0  0
   -0.9282    2.6582    0.0502 C   0  0  0  0  0  0  0  0  0  0  0  0
   -0.3271    2.6186    1.3581 C   0  0  0  0  0  3  0  0  0  0  0  0
   -0.8454    1.4839    2.0341 C   0  0  0  0  0  0  0  0  0  0  0  0
   -1.6676    0.7276    1.1481 C   0  0  0  0  0  0  0  0  0  0  0  0
   -2.5075   -0.4898    1.5239 C   0  0  0  0  0  0  0  0  0  0  0  0
   -2.5112   -1.4942    0.3584 C   0  0  0  0  0  0  0  0  0  0  0  0
   -3.7029   -1.9442   -0.2473 C   0  0  0  0  0  0  0  0  0  0  0  0
   -3.7006   -2.8293   -1.3350 C   0  0  0  0  0  0  0  0  0  0  0  0
   -2.4855   -3.2867   -1.8616 C   0  0  0  0  0  0  0  0  0  0  0  0
   -1.2846   -2.8672   -1.2769 C   0  0  0  0  0  0  0  0  0  0  0  0
   -1.3057   -2.0003   -0.1755 C   0  0  0  0  0  0  0  0  0  0  0  0
   -1.9718   -1.1748    2.8037 C   0  0  0  0  0  0  0  0  0  0  0  0
   -3.9296    0.0351    1.8330 C   0  0  0  0  0  0  0  0  0  0  0  0
    0.6916   -2.7324    0.9039 C   0  0  0  0  0  0  0  0  0  0  0  0
   -3.2351    0.4610   -1.3618 H   0  0  0  0  0  0  0  0  0  0  0  0
   -3.0669    2.1489   -3.1780 H   0  0  0  0  0  0  0  0  0  0  0  0
   -1.5069    4.0894   -3.0019 H   0  0  0  0  0  0  0  0  0  0  0  0
   -0.1165    4.4320   -0.9457 H   0  0  0  0  0  0  0  0  0  0  0  0
    0.3625    3.3593    1.7760 H   0  0  0  0  0  0  0  0  0  0  0  0
   -0.5858    1.1959    3.0568 H   0  0  0  0  0  0  0  0  0  0  0  0
   -4.6664   -1.5852    0.1375 H   0  0  0  0  0  0  0  0  0  0  0  0
   -4.6548   -3.1519   -1.7774 H   0  0  0  0  0  0  0  0  0  0  0  0
   -2.4668   -3.9623   -2.7294 H   0  0  0  0  0  0  0  0  0  0  0  0
   -0.3203   -3.2031   -1.6822 H   0  0  0  0  0  0  0  0  0  0  0  0
   -2.5315   -2.1121    2.9924 H   0  0  0  0  0  0  0  0  0  0  0  0
   -0.8933   -1.4042    2.7366 H   0  0  0  0  0  0  0  0  0  0  0  0
   -2.1164   -0.5151    3.6823 H   0  0  0  0  0  0  0  0  0  0  0  0
   -3.8661    0.7860    2.6439 H   0  0  0  0  0  0  0  0  0  0  0  0
   -4.3903    0.5295    0.9561 H   0  0  0  0  0  0  0  0  0  0  0  0
   -4.5995   -0.7793    2.1764 H   0  0  0  0  0  0  0  0  0  0  0  0
    0.0435   -3.3845    1.5227 H   0  0  0  0  0  0  0  0  0  0  0  0
    1.1187   -3.3181    0.0656 H   0  0  0  0  0  0  0  0  0  0  0  0
    1.4967   -2.2944    1.5187 H   0  0  0  0  0  0  0  0  0  0  0  0
  1 20  1  0  0  0  0
  2  7  1  0  0  0  0
  2 10  1  0  0  0  0
  3  2  2  0  0  0  0
  4  5  2  0  0  0  0
  4  3  1  0  0  0  0
  5  6  1  0  0  0  0
  6 24  1  0  0  0  0
  6  7  2  0  0  0  0
  7  8  1  0  0  0  0
  8 25  1  0  0  0  0
  8  9  1  0  0  0  0
  9 26  1  0  0  0  0
 10 11  1  0  0  0  0
 10  9  2  0  0  0  0
 11 19  1  0  0  0  0
 11 18  1  0  0  0  0
 12 11  1  0  0  0  0
 13 27  1  0  0  0  0
 13 12  2  0  0  0  0
 14 13  1  0  0  0  0
 15 14  2  0  0  0  0
 15 16  1  0  0  0  0
 16 17  2  0  0  0  0
 17 12  1  0  0  0  0
 17  1  1  0  0  0  0
 18 31  1  0  0  0  0
 18 33  1  0  0  0  0
 19 36  1  0  0  0  0
 19 34  1  0  0  0  0
 20 39  1  0  0  0  0
 20 37  1  0  0  0  0
 21  3  1  0  0  0  0
 22  4  1  0  0  0  0
 23  5  1  0  0  0  0
 28 14  1  0  0  0  0
 29 15  1  0  0  0  0
 30 16  1  0  0  0  0
 32 18  1  0  0  0  0
 35 19  1  0  0  0  0
 38 20  1  0  0  0  0
M  END
