1
q = -1.0, confidence = 0.0

 15 15  0  0  0  0  0  0  0  0999 V2000
   -0.9926   -0.1222   -0.0000 C   0  0  0  0  0  3  0  0  0  0  0  0
   -2.2467   -0.0880   -0.0000 C   0  0  0  0  0  0  0  0  0  0  0  0
   -3.6036   -0.0608   -0.0000 C   0  0  0  0  0  0  0  0  0  0  0  0
   -4.8464   -0.0332    0.0000 C   0  0  0  0  0  0  0  0  0  0  0  0
   -6.2657   -0.0112   -0.0000 C   0  0  0  0  0  0  0  0  0  0  0  0
   -6.9779    1.2200   -0.0011 C   0  0  0  0  0  0  0  0  0  0  0  0
   -6.4085    2.1607   -0.0019 H   0  0  0  0  0  0  0  0  0  0  0  0
   -8.3766    1.2344   -0.0011 C   0  0  0  0  0  0  0  0  0  0  0  0
   -8.9103    2.1973   -0.0019 H   0  0  0  0  0  0  0  0  0  0  0  0
   -9.1011    0.0300   -0.0000 C   0  0  0  0  0  0  0  0  0  0  0  0
  -10.2015    0.0459   -0.0000 H   0  0  0  0  0  0  0  0  0  0  0  0
   -8.4117   -1.1949    0.0010 C   0  0  0  0  0  0  0  0  0  0  0  0
   -8.9729   -2.1420    0.0019 H   0  0  0  0  0  0  0  0  0  0  0  0
   -7.0132   -1.2213    0.0010 C   0  0  0  0  0  0  0  0  0  0  0  0
   -6.4710   -2.1780    0.0019 H   0  0  0  0  0  0  0  0  0  0  0  0
  2  1  3  0  0  0  0
  2  3  1  0  0  0  0
  3  4  3  0  0  0  0
  5  4  1  0  0  0  0
  5 14  1  0  0  0  0
  6  5  2  0  0  0  0
  7  6  1  0  0  0  0
  8  6  1  0  0  0  0
  8 10  2  0  0  0  0
  9  8  1  0  0  0  0
 10 11  1  0  0  0  0
 10 12  1  0  0  0  0
 12 13  1  0  0  0  0
 14 12  2  0  0  0  0
 14 15  1  0  0  0  0
M  END
