1
q = 0.0, confidence = 0.744

 24 26  0  0  1  0  0  0  0  0999 V2000
    0.4010   -0.0322   -0.0003 C   0  0  0  0  0  2  0  0  0  0  0  0
    1.3576    1.1511    0.0007 C   0  0  1  0  0  0  0  0  0  0  0  0
    0.7951    2.1048    0.0013 H   0  0  0  0  0  0  0  0  0  0  0  0
    2.2564    1.1012    1.2638 C   0  0  0  0  0  0  0  0  0  0  0  0
    2.9222    1.9913    1.2679 H   0  0  0  0  0  0  0  0  0  0  0  0
    1.6246    1.1635    2.1744 H   0  0  0  0  0  0  0  0  0  0  0  0
    3.0769   -0.1969    1.2617 C   0  0  1  0  0  0  0  0  0  0  0  0
    3.7170   -0.2389    2.1691 H   0  0  0  0  0  0  0  0  0  0  0  0
    2.1008   -1.3826    1.2629 C   0  0  0  0  0  0  0  0  0  0  0  0
    1.4666   -1.3596    2.1743 H   0  0  0  0  0  0  0  0  0  0  0  0
    2.6515   -2.3487    1.2692 H   0  0  0  0  0  0  0  0  0  0  0  0
    1.2007   -1.3271   -0.0008 C   0  0  2  0  0  0  0  0  0  0  0  0
    0.5443   -2.2152   -0.0013 H   0  0  0  0  0  0  0  0  0  0  0  0
    2.1008   -1.3811   -1.2647 C   0  0  0  0  0  0  0  0  0  0  0  0
    2.6515   -2.3471   -1.2722 H   0  0  0  0  0  0  0  0  0  0  0  0
    1.4664   -1.3569   -2.1760 H   0  0  0  0  0  0  0  0  0  0  0  0
    3.0768   -0.1953   -1.2621 C   0  0  1  0  0  0  0  0  0  0  0  0
    3.7169   -0.2362   -2.1695 H   0  0  0  0  0  0  0  0  0  0  0  0
    2.2564    1.1028   -1.2625 C   0  0  0  0  0  0  0  0  0  0  0  0
    1.6246    1.1663   -2.1730 H   0  0  0  0  0  0  0  0  0  0  0  0
    2.9222    1.9929   -1.2655 H   0  0  0  0  0  0  0  0  0  0  0  0
    3.9608   -0.2536   -0.0003 C   0  0  0  0  0  0  0  0  0  0  0  0
    4.6783    0.5950    0.0002 H   0  0  0  0  0  0  0  0  0  0  0  0
    4.5648   -1.1867   -0.0008 H   0  0  0  0  0  0  0  0  0  0  0  0
  1  2  1  0  0  0  0
  2  3  1  1  0  0  0
  2  4  1  0  0  0  0
  4  5  1  0  0  0  0
  4  6  1  0  0  0  0
  7  9  1  0  0  0  0
  7  4  1  0  0  0  0
  7  8  1  1  0  0  0
  9 11  1  0  0  0  0
  9 10  1  0  0  0  0
 12 13  1  6  0  0  0
 12  1  1  0  0  0  0
 12  9  1  0  0  0  0
 14 17  1  0  0  0  0
 14 12  1  0  0  0  0
 15 14  1  0  0  0  0
 16 14  1  0  0  0  0
 17 18  1  6  0  0  0
 17 22  1  0  0  0  0
 19 17  1  0  0  0  0
 19  2  1  0  0  0  0
 20 19  1  0  0  0  0
 21 19  1  0  0  0  0
 22 23  1  0  0  0  0
 22  7  1  0  0  0  0
 24 22  1  0  0  0  0
M  END
