5
q = 0.0, confidence = 0.946

 37 39  0  0  0  0  0  0  0  0999 V2000
    2.5441    3.0060    1.6074 C   0  0  0  0  0  0  0  0  0  0  0  0
    2.7383    3.7085    2.4233 H   0  0  0  0  0  0  0  0  0  0  0  0
   -4.4054    0.6839   -0.5678 N   0  0  0  0  0  2  0  0  0  0  0  0
   -4.7356   -0.3303    0.1168 N   0  0  0  0  0  2  0  0  0  0  0  0
    2.7094    1.0583    0.4473 C   0  0  0  0  0  2  0  0  0  0  0  0
    3.1023    1.7353    1.5720 N   0  0  0  0  0  0  0  0  0  0  0  0
    1.7800    3.1339    0.4771 C   0  0  0  0  0  0  0  0  0  0  0  0
    1.1609    3.9612    0.1182 H   0  0  0  0  0  0  0  0  0  0  0  0
    1.9020    1.9414   -0.2205 N   0  0  0  0  0  0  0  0  0  0  0  0
    1.1890    1.6277   -1.4626 C   0  0  0  0  0  0  0  0  0  0  0  0
    1.6959    0.7354   -1.8835 H   0  0  0  0  0  0  0  0  0  0  0  0
    1.3289    2.4710   -2.1672 H   0  0  0  0  0  0  0  0  0  0  0  0
   -0.2813    1.3576   -1.2298 C   0  0  0  0  0  0  0  0  0  0  0  0
   -1.2638    2.2318   -1.7295 C   0  0  0  0  0  0  0  0  0  0  0  0
   -0.9621    3.1155   -2.3142 H   0  0  0  0  0  0  0  0  0  0  0  0
   -2.6214    1.9802   -1.4953 C   0  0  0  0  0  0  0  0  0  0  0  0
   -3.4094    2.6458   -1.8770 H   0  0  0  0  0  0  0  0  0  0  0  0
   -3.0143    0.8493   -0.7512 C   0  0  0  0  0  0  0  0  0  0  0  0
   -6.1245   -0.5054    0.3007 C   0  0  0  0  0  0  0  0  0  0  0  0
   -7.1156    0.3585   -0.2243 C   0  0  0  0  0  0  0  0  0  0  0  0
   -6.7871    1.2250   -0.8153 H   0  0  0  0  0  0  0  0  0  0  0  0
   -8.4642    0.0901    0.0186 C   0  0  0  0  0  0  0  0  0  0  0  0
   -9.2386    0.7588   -0.3881 H   0  0  0  0  0  0  0  0  0  0  0  0
   -8.8408   -1.0338    0.7815 C   0  0  0  0  0  0  0  0  0  0  0  0
   -9.9062   -1.2382    0.9676 H   0  0  0  0  0  0  0  0  0  0  0  0
   -7.8597   -1.8927    1.3032 C   0  0  0  0  0  0  0  0  0  0  0  0
   -8.1538   -2.7705    1.8979 H   0  0  0  0  0  0  0  0  0  0  0  0
   -6.5049   -1.6303    1.0639 C   0  0  0  0  0  0  0  0  0  0  0  0
   -5.7075   -2.2797    1.4543 H   0  0  0  0  0  0  0  0  0  0  0  0
   -2.0281   -0.0351   -0.2490 C   0  0  0  0  0  0  0  0  0  0  0  0
   -2.3610   -0.9150    0.3189 H   0  0  0  0  0  0  0  0  0  0  0  0
   -0.6793    0.2198   -0.4887 C   0  0  0  0  0  0  0  0  0  0  0  0
    0.0926   -0.4688   -0.1059 H   0  0  0  0  0  0  0  0  0  0  0  0
    3.9859    1.1913    2.5917 C   0  0  0  0  0  0  0  0  0  0  0  0
    3.4668    1.1481    3.5693 H   0  0  0  0  0  0  0  0  0  0  0  0
    4.8973    1.8139    2.6854 H   0  0  0  0  0  0  0  0  0  0  0  0
    4.2713    0.1680    2.2843 H   0  0  0  0  0  0  0  0  0  0  0  0
  1  2  1  0  0  0  0
  3  4  1  0  0  0  0
  4 19  1  0  0  0  0
  5  6  1  0  0  0  0
  6  1  1  0  0  0  0
  6 34  1  0  0  0  0
  7  1  2  0  0  0  0
  8  7  1  0  0  0  0
  9  5  1  0  0  0  0
  9  7  1  0  0  0  0
 10 13  1  0  0  0  0
 10  9  1  0  0  0  0
 11 10  1  0  0  0  0
 12 10  1  0  0  0  0
 13 32  1  0  0  0  0
 14 16  1  0  0  0  0
 14 13  2  0  0  0  0
 15 14  1  0  0  0  0
 16 18  2  0  0  0  0
 17 16  1  0  0  0  0
 18  3  1  0  0  0  0
 18 30  1  0  0  0  0
 19 28  1  0  0  0  0
 20 22  1  0  0  0  0
 20 19  2  0  0  0  0
 21 20  1  0  0  0  0
 22 24  2  0  0  0  0
 23 22  1  0  0  0  0
 24 25  1  0  0  0  0
 24 26  1  0  0  0  0
 26 27  1  0  0  0  0
 28 26  2  0  0  0  0
 28 29  1  0  0  0  0
 30 31  1  0  0  0  0
 32 30  2  0  0  0  0
 32 33  1  0  0  0  0
 34 36  1  0  0  0  0
 34 35  1  0  0  0  0
 37 34  1  0  0  0  0
M  END
