3
q = -1.0, confidence = 0.0

 31 32  0  0  0  0  0  0  0  0999 V2000
   -2.2380   -0.0839    0.4068 N   0  0  0  0  0  2  0  0  0  0  0  0
   -2.8986    2.8390    2.0628 N   0  0  0  0  0  0  0  0  0  0  0  0
   -1.2961    0.4188   -0.2867 C   0  0  0  0  0  2  0  0  0  0  0  0
   -1.5672    1.6759   -1.0508 C   0  0  0  0  0  0  0  0  0  0  0  0
   -2.2675    2.7721   -0.4667 C   0  0  0  0  0  0  0  0  0  0  0  0
   -2.5362    3.9335   -1.2289 C   0  0  0  0  0  0  0  0  0  0  0  0
   -3.0631    4.7734   -0.7537 H   0  0  0  0  0  0  0  0  0  0  0  0
   -2.1335    4.0062   -2.5663 C   0  0  0  0  0  0  0  0  0  0  0  0
   -2.3535    4.9093   -3.1548 H   0  0  0  0  0  0  0  0  0  0  0  0
   -1.4471    2.9273   -3.1484 C   0  0  0  0  0  0  0  0  0  0  0  0
   -1.1350    2.9764   -4.2025 H   0  0  0  0  0  0  0  0  0  0  0  0
   -1.1549    1.7835   -2.3936 C   0  0  0  0  0  0  0  0  0  0  0  0
   -0.6235    0.9282   -2.8389 H   0  0  0  0  0  0  0  0  0  0  0  0
   -2.6486    2.7596    0.9169 C   0  0  0  0  0  0  0  0  0  0  0  0
   -2.3199   -1.2843    1.1193 C   0  0  0  0  0  0  0  0  0  0  0  0
   -3.0846   -2.3317    0.5317 C   0  0  0  0  0  0  0  0  0  0  0  0
   -3.2395   -3.5301    1.2480 C   0  0  0  0  0  0  0  0  0  0  0  0
   -3.8199   -4.3466    0.7898 H   0  0  0  0  0  0  0  0  0  0  0  0
   -2.6846   -3.6918    2.5249 C   0  0  0  0  0  0  0  0  0  0  0  0
   -2.8233   -4.6347    3.0750 H   0  0  0  0  0  0  0  0  0  0  0  0
   -1.9701   -2.6355    3.1047 C   0  0  0  0  0  0  0  0  0  0  0  0
   -1.5507   -2.7439    4.1178 H   0  0  0  0  0  0  0  0  0  0  0  0
   -1.7763   -1.4192    2.4248 C   0  0  0  0  0  0  0  0  0  0  0  0
   -1.0244   -0.2868    3.0715 C   0  0  0  0  0  0  0  0  0  0  0  0
   -0.8692   -0.4812    4.1503 H   0  0  0  0  0  0  0  0  0  0  0  0
   -1.5668    0.6751    2.9662 H   0  0  0  0  0  0  0  0  0  0  0  0
   -0.0242   -0.1578    2.6079 H   0  0  0  0  0  0  0  0  0  0  0  0
   -3.6994   -2.1365   -0.8263 C   0  0  0  0  0  0  0  0  0  0  0  0
   -2.9142   -2.0935   -1.6114 H   0  0  0  0  0  0  0  0  0  0  0  0
   -4.2455   -1.1711   -0.8746 H   0  0  0  0  0  0  0  0  0  0  0  0
   -4.3979   -2.9589   -1.0729 H   0  0  0  0  0  0  0  0  0  0  0  0
  1 15  1  0  0  0  0
  3  1  1  0  0  0  0
  4  5  1  0  0  0  0
  4  3  1  0  0  0  0
  5 14  1  0  0  0  0
  6  7  1  0  0  0  0
  6  5  2  0  0  0  0
  8  6  1  0  0  0  0
  9  8  1  0  0  0  0
 10  8  2  0  0  0  0
 10 12  1  0  0  0  0
 11 10  1  0  0  0  0
 12  4  2  0  0  0  0
 13 12  1  0  0  0  0
 14  2  3  0  0  0  0
 15 23  1  0  0  0  0
 16 15  2  0  0  0  0
 16 17  1  0  0  0  0
 17 19  2  0  0  0  0
 18 17  1  0  0  0  0
 19 20  1  0  0  0  0
 19 21  1  0  0  0  0
 21 22  1  0  0  0  0
 23 24  1  0  0  0  0
 23 21  2  0  0  0  0
 24 25  1  0  0  0  0
 26 24  1  0  0  0  0
 27 24  1  0  0  0  0
 28 16  1  0  0  0  0
 29 28  1  0  0  0  0
 30 28  1  0  0  0  0
 31 28  1  0  0  0  0
M  END
