6
q = 0.0, confidence = 0.996

 40 43  0  0  0  0  0  0  0  0999 V2000
    2.3121   -2.2369   -0.2659 N   0  0  0  0  0  0  0  0  0  0  0  0
    2.7836   -0.1426   -0.6509 N   0  0  0  0  0  0  0  0  0  0  0  0
    0.7605   -2.8269    2.2458 C   0  0  0  0  0  0  0  0  0  0  0  0
    1.7145   -2.3036    2.4117 H   0  0  0  0  0  0  0  0  0  0  0  0
    2.3096    1.8114    1.5420 N   0  0  0  0  0  0  0  0  0  0  0  0
    1.7600   -0.9881   -0.3314 C   0  0  0  0  0  2  0  0  0  0  0  0
    3.9923   -0.8323   -0.7636 C   0  0  0  0  0  0  0  0  0  0  0  0
    3.6862   -2.1940   -0.5286 C   0  0  0  0  0  0  0  0  0  0  0  0
    4.6785   -3.1842   -0.5884 C   0  0  0  0  0  0  0  0  0  0  0  0
    4.4533   -4.2466   -0.4201 H   0  0  0  0  0  0  0  0  0  0  0  0
    5.9843   -2.7613   -0.8737 C   0  0  0  0  0  0  0  0  0  0  0  0
    6.7899   -3.5081   -0.9240 H   0  0  0  0  0  0  0  0  0  0  0  0
    6.2900   -1.3995   -1.0976 C   0  0  0  0  0  0  0  0  0  0  0  0
    7.3285   -1.1107   -1.3150 H   0  0  0  0  0  0  0  0  0  0  0  0
    5.2991   -0.4096   -1.0476 C   0  0  0  0  0  0  0  0  0  0  0  0
    5.5405    0.6489   -1.2150 H   0  0  0  0  0  0  0  0  0  0  0  0
    1.5442   -3.4718   -0.0959 C   0  0  0  0  0  0  0  0  0  0  0  0
    2.2773   -4.2738    0.1267 H   0  0  0  0  0  0  0  0  0  0  0  0
    1.0662   -3.7362   -1.0623 H   0  0  0  0  0  0  0  0  0  0  0  0
    0.5006   -3.4336    0.9996 C   0  0  0  0  0  0  0  0  0  0  0  0
   -0.7269   -4.0935    0.8023 C   0  0  0  0  0  0  0  0  0  0  0  0
   -0.9456   -4.5590   -0.1719 H   0  0  0  0  0  0  0  0  0  0  0  0
   -1.6720   -4.1654    1.8379 C   0  0  0  0  0  0  0  0  0  0  0  0
   -2.6213   -4.6972    1.6723 H   0  0  0  0  0  0  0  0  0  0  0  0
   -1.4085   -3.5569    3.0753 C   0  0  0  0  0  0  0  0  0  0  0  0
   -2.1481   -3.6114    3.8882 H   0  0  0  0  0  0  0  0  0  0  0  0
   -0.1918   -2.8823    3.2735 C   0  0  0  0  0  0  0  0  0  0  0  0
    0.0218   -2.4029    4.2404 H   0  0  0  0  0  0  0  0  0  0  0  0
    2.6408    1.2997   -0.8135 C   0  0  0  0  0  0  0  0  0  0  0  0
    1.5788    1.4958   -1.0609 H   0  0  0  0  0  0  0  0  0  0  0  0
    3.2530    1.6188   -1.6784 H   0  0  0  0  0  0  0  0  0  0  0  0
    3.0168    2.0848    0.4303 C   0  0  0  0  0  0  0  0  0  0  0  0
    4.0317    3.0577    0.3988 C   0  0  0  0  0  0  0  0  0  0  0  0
    4.5836    3.2553   -0.5328 H   0  0  0  0  0  0  0  0  0  0  0  0
    4.3171    3.7750    1.5697 C   0  0  0  0  0  0  0  0  0  0  0  0
    5.1042    4.5440    1.5765 H   0  0  0  0  0  0  0  0  0  0  0  0
    3.5851    3.4880    2.7298 C   0  0  0  0  0  0  0  0  0  0  0  0
    3.7761    4.0198    3.6732 H   0  0  0  0  0  0  0  0  0  0  0  0
    2.5939    2.4945    2.6613 C   0  0  0  0  0  0  0  0  0  0  0  0
    1.9958    2.2406    3.5542 H   0  0  0  0  0  0  0  0  0  0  0  0
  1 17  1  0  0  0  0
  2  6  1  0  0  0  0
  3  4  1  0  0  0  0
  3 27  1  0  0  0  0
  5 39  1  0  0  0  0
  6  1  1  0  0  0  0
  7  2  1  0  0  0  0
  7  8  1  0  0  0  0
  8  1  1  0  0  0  0
  9  8  2  0  0  0  0
  9 10  1  0  0  0  0
 11  9  1  0  0  0  0
 12 11  1  0  0  0  0
 13 15  1  0  0  0  0
 13 11  2  0  0  0  0
 14 13  1  0  0  0  0
 15  7  2  0  0  0  0
 16 15  1  0  0  0  0
 17 18  1  0  0  0  0
 17 20  1  0  0  0  0
 19 17  1  0  0  0  0
 20  3  2  0  0  0  0
 21 20  1  0  0  0  0
 21 23  2  0  0  0  0
 22 21  1  0  0  0  0
 23 25  1  0  0  0  0
 24 23  1  0  0  0  0
 25 27  2  0  0  0  0
 25 26  1  0  0  0  0
 27 28  1  0  0  0  0
 29  2  1  0  0  0  0
 29 32  1  0  0  0  0
 30 29  1  0  0  0  0
 31 29  1  0  0  0  0
 32  5  2  0  0  0  0
 33 32  1  0  0  0  0
 33 35  2  0  0  0  0
 34 33  1  0  0  0  0
 35 36  1  0  0  0  0
 35 37  1  0  0  0  0
 37 38  1  0  0  0  0
 39 37  2  0  0  0  0
 39 40  1  0  0  0  0
M  END
