3
q = -2.0, confidence = 0.912

 63 68  0  0  1  0  0  0  0  0999 V2000
   -1.3958    0.0137    2.3444 Si  0  0  0  0  0  0  0  0  0  0  0  0
    3.5810    0.3548    0.3674 N   0  0  0  0  0  0  0  0  0  0  0  0
    0.2046    0.8277    1.7631 C   0  0  1  0  0  3  0  0  0  0  0  0
    1.4157    0.0545    1.5152 C   0  0  0  0  0  0  0  0  0  0  0  0
    1.6471   -0.9161    1.9620 H   0  0  0  0  0  0  0  0  0  0  0  0
   -3.4618   -0.5184   -0.7248 N   0  0  0  0  0  0  0  0  0  0  0  0
    2.3448    0.7999    0.7238 C   0  0  0  0  0  0  0  0  0  0  0  0
    2.1024    3.1785   -0.3928 C   0  0  0  0  0  0  0  0  0  0  0  0
    3.0404    3.1557   -0.9600 H   0  0  0  0  0  0  0  0  0  0  0  0
    1.2902    4.3003   -0.4476 C   0  0  0  0  0  0  0  0  0  0  0  0
    1.5915    5.1602   -1.0640 H   0  0  0  0  0  0  0  0  0  0  0  0
    0.0755    4.3618    0.2951 C   0  0  0  0  0  0  0  0  0  0  0  0
   -0.5312    5.2793    0.2574 H   0  0  0  0  0  0  0  0  0  0  0  0
   -0.3555    3.2893    1.0570 C   0  0  0  0  0  0  0  0  0  0  0  0
   -1.2970    3.3495    1.6171 H   0  0  0  0  0  0  0  0  0  0  0  0
    0.4299    2.1014    1.1109 C   0  0  0  0  0  0  0  0  0  0  0  0
    1.7039    2.0660    0.4047 C   0  0  0  0  0  0  0  0  0  0  0  0
   -1.6105   -1.1915    0.8765 C   0  0  0  0  0  0  0  0  0  0  0  0
   -2.2753   -1.1026   -0.4214 C   0  0  0  0  0  0  0  0  0  0  0  0
   -1.4376   -1.7230   -1.4194 C   0  0  0  0  0  0  0  0  0  0  0  0
   -1.6482   -1.7783   -2.4920 H   0  0  0  0  0  0  0  0  0  0  0  0
    0.5502   -3.4035   -1.2045 C   0  0  0  0  0  3  0  0  0  0  0  0
    0.6472   -3.5958   -2.2823 H   0  0  0  0  0  0  0  0  0  0  0  0
    1.3569   -4.0590   -0.2821 C   0  0  0  0  0  0  0  0  0  0  0  0
    2.1063   -4.7849   -0.6319 H   0  0  0  0  0  0  0  0  0  0  0  0
    1.2076   -3.8243    1.1128 C   0  0  0  0  0  0  0  0  0  0  0  0
    1.8298   -4.3865    1.8256 H   0  0  0  0  0  0  0  0  0  0  0  0
    0.2818   -2.9026    1.5913 C   0  0  0  0  0  0  0  0  0  0  0  0
    0.1648   -2.7530    2.6722 H   0  0  0  0  0  0  0  0  0  0  0  0
   -0.5436   -2.1896    0.6754 C   0  0  0  0  0  0  0  0  0  0  0  0
   -0.4305   -2.4875   -0.7347 C   0  0  0  0  0  0  0  0  0  0  0  0
   -2.7387    1.3111    2.6176 C   0  0  0  0  0  0  0  0  0  0  0  0
   -3.6813    0.8490    2.9720 H   0  0  0  0  0  0  0  0  0  0  0  0
   -2.9551    1.9163    1.7184 H   0  0  0  0  0  0  0  0  0  0  0  0
   -2.3786    1.9940    3.4148 H   0  0  0  0  0  0  0  0  0  0  0  0
   -1.1734   -0.8866    3.9969 C   0  0  0  0  0  0  0  0  0  0  0  0
   -1.2933   -0.1554    4.8227 H   0  0  0  0  0  0  0  0  0  0  0  0
   -0.1689   -1.3389    4.1048 H   0  0  0  0  0  0  0  0  0  0  0  0
   -1.9324   -1.6849    4.1280 H   0  0  0  0  0  0  0  0  0  0  0  0
    3.9334   -1.0592    0.5142 C   0  0  0  0  0  0  0  0  0  0  0  0
    3.0668   -1.7041    0.2495 H   0  0  0  0  0  0  0  0  0  0  0  0
    4.2142   -1.2914    1.5690 H   0  0  0  0  0  0  0  0  0  0  0  0
    5.1061   -1.2474   -0.4562 C   0  0  0  0  0  0  0  0  0  0  0  0
    5.8051   -2.0438   -0.1349 H   0  0  0  0  0  0  0  0  0  0  0  0
    4.7070   -1.5184   -1.4550 H   0  0  0  0  0  0  0  0  0  0  0  0
    5.7471    0.1465   -0.5105 C   0  0  0  0  0  0  0  0  0  0  0  0
    6.3777    0.3083   -1.4061 H   0  0  0  0  0  0  0  0  0  0  0  0
    6.3804    0.3166    0.3858 H   0  0  0  0  0  0  0  0  0  0  0  0
    4.5300    1.0785   -0.4786 C   0  0  0  0  0  0  0  0  0  0  0  0
    4.7655    2.0738   -0.0474 H   0  0  0  0  0  0  0  0  0  0  0  0
    4.1139    1.2285   -1.5006 H   0  0  0  0  0  0  0  0  0  0  0  0
   -4.4658   -0.0712    0.2326 C   0  0  0  0  0  0  0  0  0  0  0  0
   -4.3004    0.9870    0.5291 H   0  0  0  0  0  0  0  0  0  0  0  0
   -4.4233   -0.6909    1.1522 H   0  0  0  0  0  0  0  0  0  0  0  0
   -5.7757   -0.1938   -0.5540 C   0  0  0  0  0  0  0  0  0  0  0  0
   -6.1359   -1.2441   -0.5368 H   0  0  0  0  0  0  0  0  0  0  0  0
   -6.5793    0.4498   -0.1464 H   0  0  0  0  0  0  0  0  0  0  0  0
   -5.3333    0.1971   -1.9721 C   0  0  0  0  0  0  0  0  0  0  0  0
   -5.2228    1.2992   -2.0441 H   0  0  0  0  0  0  0  0  0  0  0  0
   -6.0384   -0.1236   -2.7628 H   0  0  0  0  0  0  0  0  0  0  0  0
   -3.9595   -0.4727   -2.1036 C   0  0  0  0  0  0  0  0  0  0  0  0
   -4.0439   -1.5074   -2.5119 H   0  0  0  0  0  0  0  0  0  0  0  0
   -3.2585    0.0948   -2.7499 H   0  0  0  0  0  0  0  0  0  0  0  0
  1 32  1  0  0  0  0
  1 36  1  0  0  0  0
  2 40  1  0  0  0  0
  2  7  1  0  0  0  0
  3  1  1  6  0  0  0
  4  3  1  0  0  0  0
  4  5  1  0  0  0  0
  6 19  1  0  0  0  0
  6 52  1  0  0  0  0
  7  4  2  0  0  0  0
  8 17  1  0  0  0  0
  9  8  1  0  0  0  0
 10  8  2  0  0  0  0
 10 12  1  0  0  0  0
 11 10  1  0  0  0  0
 12 14  2  0  0  0  0
 13 12  1  0  0  0  0
 14 16  1  0  0  0  0
 14 15  1  0  0  0  0
 16  3  1  0  0  0  0
 17  7  1  0  0  0  0
 17 16  2  0  0  0  0
 18  1  1  0  0  0  0
 19 18  2  0  0  0  0
 20 31  2  0  0  0  0
 20 19  1  0  0  0  0
 21 20  1  0  0  0  0
 22 31  1  0  0  0  0
 22 24  1  0  0  0  0
 23 22  1  0  0  0  0
 24 26  2  0  0  0  0
 25 24  1  0  0  0  0
 26 28  1  0  0  0  0
 26 27  1  0  0  0  0
 28 29  1  0  0  0  0
 30 18  1  0  0  0  0
 30 28  2  0  0  0  0
 31 30  1  0  0  0  0
 32 33  1  0  0  0  0
 32 35  1  0  0  0  0
 34 32  1  0  0  0  0
 36 38  1  0  0  0  0
 36 39  1  0  0  0  0
 36 37  1  0  0  0  0
 40 42  1  0  0  0  0
 41 40  1  0  0  0  0
 43 44  1  0  0  0  0
 43 40  1  0  0  0  0
 45 43  1  0  0  0  0
 46 49  1  0  0  0  0
 46 43  1  0  0  0  0
 46 48  1  0  0  0  0
 47 46  1  0  0  0  0
 49 50  1  0  0  0  0
 49  2  1  0  0  0  0
 51 49  1  0  0  0  0
 52 53  1  0  0  0  0
 52 54  1  0  0  0  0
 55 56  1  0  0  0  0
 55 57  1  0  0  0  0
 55 52  1  0  0  0  0
 58 55  1  0  0  0  0
 59 58  1  0  0  0  0
 60 58  1  0  0  0  0
 61 58  1  0  0  0  0
 61  6  1  0  0  0  0
 62 61  1  0  0  0  0
 63 61  1  0  0  0  0
M  END
