1
q = 0.0, confidence = 0.994

 56 58  0  0  0  0  0  0  0  0999 V2000
   -0.0525    0.5843    0.8379 C   0  0  0  0  0  2  0  0  0  0  0  0
    0.9355    1.2083    1.5278 N   0  0  0  0  0  0  0  0  0  0  0  0
    2.3021    0.9472    1.1789 C   0  0  0  0  0  0  0  0  0  0  0  0
    3.0754    0.0090    1.8767 C   0  0  0  0  0  0  0  0  0  0  0  0
    4.4252   -0.1830    1.5447 C   0  0  0  0  0  0  0  0  0  0  0  0
    4.9985    0.5727    0.5119 C   0  0  0  0  0  0  0  0  0  0  0  0
    4.2421    1.5315   -0.1835 C   0  0  0  0  0  0  0  0  0  0  0  0
    2.8919    1.7378    0.1570 C   0  0  0  0  0  0  0  0  0  0  0  0
    2.0748    2.6555   -0.4373 O   0  0  0  0  0  0  0  0  0  0  0  0
    2.6104    3.4525   -1.4784 C   0  0  0  0  0  0  0  0  0  0  0  0
    0.6979    2.1938    2.5907 C   0  0  0  0  0  0  0  0  0  0  0  0
   -0.6514    1.9033    3.2323 C   0  0  0  0  0  0  0  0  0  0  0  0
   -1.7172    1.9059    2.1479 C   0  0  0  0  0  0  0  0  0  0  0  0
   -1.3273    1.0018    1.0532 N   0  0  0  0  0  0  0  0  0  0  0  0
   -2.3701    0.7030    0.1024 C   0  0  0  0  0  0  0  0  0  0  0  0
   -3.2106   -0.4209    0.2930 C   0  0  0  0  0  0  0  0  0  0  0  0
   -4.2351   -0.6440   -0.6480 C   0  0  0  0  0  0  0  0  0  0  0  0
   -4.4306    0.2215   -1.7301 C   0  0  0  0  0  0  0  0  0  0  0  0
   -3.5995    1.3364   -1.8911 C   0  0  0  0  0  0  0  0  0  0  0  0
   -2.5563    1.6011   -0.9836 C   0  0  0  0  0  0  0  0  0  0  0  0
   -1.6814    2.8366   -1.1816 C   0  0  0  0  0  0  0  0  0  0  0  0
   -1.0511    2.8929   -2.5831 C   0  0  0  0  0  0  0  0  0  0  0  0
   -2.4799    4.1215   -0.8919 C   0  0  0  0  0  0  0  0  0  0  0  0
   -3.0452   -1.3634    1.4740 C   0  0  0  0  0  0  0  0  0  0  0  0
   -2.8985   -2.8228    1.0185 C   0  0  0  0  0  0  0  0  0  0  0  0
   -4.2014   -1.2007    2.4766 C   0  0  0  0  0  0  0  0  0  0  0  0
    2.5735   -0.6016    2.6413 H   0  0  0  0  0  0  0  0  0  0  0  0
    5.0214   -0.9336    2.0834 H   0  0  0  0  0  0  0  0  0  0  0  0
    6.0535    0.4224    0.2364 H   0  0  0  0  0  0  0  0  0  0  0  0
    4.7129    2.1178   -0.9836 H   0  0  0  0  0  0  0  0  0  0  0  0
    1.7963    4.1244   -1.8060 H   0  0  0  0  0  0  0  0  0  0  0  0
    3.4714    4.0644   -1.1288 H   0  0  0  0  0  0  0  0  0  0  0  0
    2.9351    2.8327   -2.3437 H   0  0  0  0  0  0  0  0  0  0  0  0
    1.5227    2.1010    3.3249 H   0  0  0  0  0  0  0  0  0  0  0  0
    0.7366    3.2264    2.1732 H   0  0  0  0  0  0  0  0  0  0  0  0
   -0.6123    0.9041    3.7141 H   0  0  0  0  0  0  0  0  0  0  0  0
   -0.8903    2.6577    4.0071 H   0  0  0  0  0  0  0  0  0  0  0  0
   -2.6935    1.5540    2.5397 H   0  0  0  0  0  0  0  0  0  0  0  0
   -1.8773    2.9354    1.7542 H   0  0  0  0  0  0  0  0  0  0  0  0
   -4.8926   -1.5180   -0.5247 H   0  0  0  0  0  0  0  0  0  0  0  0
   -5.2376    0.0273   -2.4532 H   0  0  0  0  0  0  0  0  0  0  0  0
   -3.7591    2.0147   -2.7433 H   0  0  0  0  0  0  0  0  0  0  0  0
   -0.8432    2.7794   -0.4588 H   0  0  0  0  0  0  0  0  0  0  0  0
   -0.4099    3.7932   -2.6802 H   0  0  0  0  0  0  0  0  0  0  0  0
   -0.4256    2.0015   -2.7837 H   0  0  0  0  0  0  0  0  0  0  0  0
   -1.8209    2.9549   -3.3794 H   0  0  0  0  0  0  0  0  0  0  0  0
   -1.8284    5.0169   -0.9643 H   0  0  0  0  0  0  0  0  0  0  0  0
   -2.9315    4.1055    0.1204 H   0  0  0  0  0  0  0  0  0  0  0  0
   -3.3086    4.2478   -1.6194 H   0  0  0  0  0  0  0  0  0  0  0  0
   -2.0967   -1.1035    1.9850 H   0  0  0  0  0  0  0  0  0  0  0  0
   -2.6505   -3.4685    1.8839 H   0  0  0  0  0  0  0  0  0  0  0  0
   -2.0696   -2.9131    0.2898 H   0  0  0  0  0  0  0  0  0  0  0  0
   -3.8289   -3.2112    0.5530 H   0  0  0  0  0  0  0  0  0  0  0  0
   -4.0417   -1.8529    3.3595 H   0  0  0  0  0  0  0  0  0  0  0  0
   -4.2913   -0.1553    2.8376 H   0  0  0  0  0  0  0  0  0  0  0  0
   -5.1763   -1.4782    2.0230 H   0  0  0  0  0  0  0  0  0  0  0  0
  1 14  1  0  0  0  0
  1  2  1  0  0  0  0
  2 11  1  0  0  0  0
  3  2  1  0  0  0  0
  3  4  1  0  0  0  0
  4 27  1  0  0  0  0
  5  4  2  0  0  0  0
  5 28  1  0  0  0  0
  6  5  1  0  0  0  0
  7  8  1  0  0  0  0
  7  6  2  0  0  0  0
  8  3  2  0  0  0  0
  9  8  1  0  0  0  0
 10 32  1  0  0  0  0
 10  9  1  0  0  0  0
 11 12  1  0  0  0  0
 11 34  1  0  0  0  0
 12 36  1  0  0  0  0
 12 37  1  0  0  0  0
 13 38  1  0  0  0  0
 13 12  1  0  0  0  0
 14 13  1  0  0  0  0
 15 16  1  0  0  0  0
 15 14  1  0  0  0  0
 16 24  1  0  0  0  0
 17 40  1  0  0  0  0
 17 16  2  0  0  0  0
 18 17  1  0  0  0  0
 19 18  2  0  0  0  0
 19 20  1  0  0  0  0
 20 15  2  0  0  0  0
 21 20  1  0  0  0  0
 21 23  1  0  0  0  0
 21 43  1  0  0  0  0
 22 21  1  0  0  0  0
 23 48  1  0  0  0  0
 24 50  1  0  0  0  0
 24 26  1  0  0  0  0
 25 24  1  0  0  0  0
 25 51  1  0  0  0  0
 26 55  1  0  0  0  0
 26 54  1  0  0  0  0
 29  6  1  0  0  0  0
 30  7  1  0  0  0  0
 31 10  1  0  0  0  0
 33 10  1  0  0  0  0
 35 11  1  0  0  0  0
 39 13  1  0  0  0  0
 41 18  1  0  0  0  0
 42 19  1  0  0  0  0
 44 22  1  0  0  0  0
 45 22  1  0  0  0  0
 46 22  1  0  0  0  0
 47 23  1  0  0  0  0
 49 23  1  0  0  0  0
 52 25  1  0  0  0  0
 53 25  1  0  0  0  0
 56 26  1  0  0  0  0
M  END
