5
q = -1.0, confidence = 0.188

 29 30  0  0  0  0  0  0  0  0999 V2000
   -1.0851    1.1913   -1.1268 N   0  0  0  0  0  0  0  0  0  0  0  0
   -0.3011    2.4421    0.4564 N   0  0  0  0  0  0  0  0  0  0  0  0
   -3.1529   -0.8586   -0.5842 N   0  0  0  0  0  0  0  0  0  0  0  0
   -5.2778   -0.5286   -0.1883 N   0  0  0  0  0  0  0  0  0  0  0  0
   -0.0537    1.2776   -0.2183 C   0  0  0  0  0  2  0  0  0  0  0  0
   -1.9547    2.2767   -1.0093 C   0  0  0  0  0  0  0  0  0  0  0  0
   -2.8261    2.4086   -1.6578 H   0  0  0  0  0  0  0  0  0  0  0  0
   -1.4514    3.0675   -0.0119 C   0  0  0  0  0  0  0  0  0  0  0  0
   -1.8029    4.0235    0.3878 H   0  0  0  0  0  0  0  0  0  0  0  0
   -1.2905    0.0460   -1.9966 C   0  0  0  0  0  0  0  0  0  0  0  0
   -0.3041   -0.2714   -2.3908 H   0  0  0  0  0  0  0  0  0  0  0  0
   -1.9265    0.3630   -2.8473 H   0  0  0  0  0  0  0  0  0  0  0  0
   -1.8894   -1.1654   -1.2669 C   0  0  0  0  0  0  0  0  0  0  0  0
   -2.0670   -1.9911   -1.9823 H   0  0  0  0  0  0  0  0  0  0  0  0
   -1.1807   -1.5100   -0.4810 H   0  0  0  0  0  0  0  0  0  0  0  0
   -4.3885   -0.9267   -1.1199 C   0  0  0  0  0  3  0  0  0  0  0  0
   -4.6330   -1.2665   -2.1319 H   0  0  0  0  0  0  0  0  0  0  0  0
   -3.2490   -0.3983    0.7197 C   0  0  0  0  0  0  0  0  0  0  0  0
   -2.3407   -0.3172    1.3479 H   0  0  0  0  0  0  0  0  0  0  0  0
   -4.5876   -0.1940    0.9673 C   0  0  0  0  0  0  0  0  0  0  0  0
   -5.1026    0.1484    1.8702 H   0  0  0  0  0  0  0  0  0  0  0  0
    0.5296    2.9376    1.5465 C   0  0  0  0  0  0  0  0  0  0  0  0
    1.2656    2.1485    1.7907 H   0  0  0  0  0  0  0  0  0  0  0  0
   -0.0949    3.1390    2.4377 H   0  0  0  0  0  0  0  0  0  0  0  0
    1.0575    3.8647    1.2480 H   0  0  0  0  0  0  0  0  0  0  0  0
   -6.7304   -0.4904   -0.3529 C   0  0  0  0  0  0  0  0  0  0  0  0
   -7.1026    0.5315   -0.1501 H   0  0  0  0  0  0  0  0  0  0  0  0
   -7.2066   -1.2018    0.3484 H   0  0  0  0  0  0  0  0  0  0  0  0
   -6.9900   -0.7725   -1.3884 H   0  0  0  0  0  0  0  0  0  0  0  0
  1  6  1  0  0  0  0
  1  5  1  0  0  0  0
  2 22  1  0  0  0  0
  3 18  1  0  0  0  0
  4 20  1  0  0  0  0
  5  2  1  0  0  0  0
  6  8  2  0  0  0  0
  7  6  1  0  0  0  0
  8  9  1  0  0  0  0
  8  2  1  0  0  0  0
 10 13  1  0  0  0  0
 10  1  1  0  0  0  0
 11 10  1  0  0  0  0
 12 10  1  0  0  0  0
 13  3  1  0  0  0  0
 13 15  1  0  0  0  0
 14 13  1  0  0  0  0
 16  3  1  0  0  0  0
 16  4  1  0  0  0  0
 17 16  1  0  0  0  0
 18 20  2  0  0  0  0
 18 19  1  0  0  0  0
 20 21  1  0  0  0  0
 22 23  1  0  0  0  0
 22 24  1  0  0  0  0
 25 22  1  0  0  0  0
 26  4  1  0  0  0  0
 26 27  1  0  0  0  0
 26 28  1  0  0  0  0
 29 26  1  0  0  0  0
M  END
