5
q = -1.0, confidence = 0.22

 47 48  0  0  0  0  0  0  0  0999 V2000
   -0.6234   -1.9045   -1.1656 N   0  0  0  0  0  0  0  0  0  0  0  0
   -2.6946   -2.0233   -0.5266 N   0  0  0  0  0  0  0  0  0  0  0  0
    2.7600   -1.1505    0.1916 N   0  0  0  0  0  0  0  0  0  0  0  0
    4.7952   -0.3496    0.0638 N   0  0  0  0  0  0  0  0  0  0  0  0
   -1.6264   -1.1654   -0.5745 C   0  0  0  0  0  2  0  0  0  0  0  0
   -1.0557   -3.1878   -1.4836 C   0  0  0  0  0  0  0  0  0  0  0  0
   -0.4139   -3.9317   -1.9650 H   0  0  0  0  0  0  0  0  0  0  0  0
   -2.3616   -3.2555   -1.0899 C   0  0  0  0  0  0  0  0  0  0  0  0
   -3.0748   -4.0777   -1.1743 H   0  0  0  0  0  0  0  0  0  0  0  0
    0.7497   -1.4464   -1.2312 C   0  0  0  0  0  0  0  0  0  0  0  0
    0.7041   -0.3390   -1.1662 H   0  0  0  0  0  0  0  0  0  0  0  0
    1.2008   -1.7426   -2.2008 H   0  0  0  0  0  0  0  0  0  0  0  0
    1.5664   -1.9714   -0.0338 C   0  0  0  0  0  0  0  0  0  0  0  0
    0.9389   -1.8778    0.8799 H   0  0  0  0  0  0  0  0  0  0  0  0
    1.8825   -3.0245   -0.1605 H   0  0  0  0  0  0  0  0  0  0  0  0
    3.9867   -1.3533   -0.3314 C   0  0  0  0  0  3  0  0  0  0  0  0
    4.2693   -2.2016   -0.9595 H   0  0  0  0  0  0  0  0  0  0  0  0
    2.7740    0.0186    0.9359 C   0  0  0  0  0  0  0  0  0  0  0  0
    1.8646    0.3454    1.4712 H   0  0  0  0  0  0  0  0  0  0  0  0
    4.0537    0.5167    0.8560 C   0  0  0  0  0  0  0  0  0  0  0  0
    4.4888    1.4098    1.3120 H   0  0  0  0  0  0  0  0  0  0  0  0
   -4.0811   -1.7246   -0.0201 C   0  0  0  0  0  0  0  0  0  0  0  0
   -4.0308   -0.6046    1.0231 C   0  0  0  0  0  0  0  0  0  0  0  0
   -3.4404   -0.9020    1.9104 H   0  0  0  0  0  0  0  0  0  0  0  0
   -5.0632   -0.3629    1.3417 H   0  0  0  0  0  0  0  0  0  0  0  0
   -3.5683    0.3206    0.6074 H   0  0  0  0  0  0  0  0  0  0  0  0
   -4.9516   -1.3244   -1.2235 C   0  0  0  0  0  0  0  0  0  0  0  0
   -5.9939   -1.1472   -0.8944 H   0  0  0  0  0  0  0  0  0  0  0  0
   -4.9655   -2.1223   -1.9927 H   0  0  0  0  0  0  0  0  0  0  0  0
   -4.5769   -0.3945   -1.6929 H   0  0  0  0  0  0  0  0  0  0  0  0
   -4.6450   -2.9918    0.6473 C   0  0  0  0  0  0  0  0  0  0  0  0
   -3.9586   -3.3697    1.4300 H   0  0  0  0  0  0  0  0  0  0  0  0
   -4.8517   -3.8051   -0.0756 H   0  0  0  0  0  0  0  0  0  0  0  0
   -5.6085   -2.7405    1.1302 H   0  0  0  0  0  0  0  0  0  0  0  0
    6.2573   -0.1795   -0.2661 C   0  0  0  0  0  0  0  0  0  0  0  0
    7.0397   -0.1965    1.0569 C   0  0  0  0  0  0  0  0  0  0  0  0
    6.8897   -1.1510    1.5985 H   0  0  0  0  0  0  0  0  0  0  0  0
    6.7439    0.6365    1.7238 H   0  0  0  0  0  0  0  0  0  0  0  0
    8.1204   -0.0857    0.8446 H   0  0  0  0  0  0  0  0  0  0  0  0
    6.4165    1.1631   -0.9975 C   0  0  0  0  0  0  0  0  0  0  0  0
    5.8203    1.1838   -1.9309 H   0  0  0  0  0  0  0  0  0  0  0  0
    7.4806    1.3106   -1.2640 H   0  0  0  0  0  0  0  0  0  0  0  0
    6.1106    2.0186   -0.3646 H   0  0  0  0  0  0  0  0  0  0  0  0
    6.7070   -1.3342   -1.1669 C   0  0  0  0  0  0  0  0  0  0  0  0
    6.1569   -1.3512   -2.1290 H   0  0  0  0  0  0  0  0  0  0  0  0
    6.6072   -2.3176   -0.6655 H   0  0  0  0  0  0  0  0  0  0  0  0
    7.7782   -1.1978   -1.4059 H   0  0  0  0  0  0  0  0  0  0  0  0
  1  5  1  0  0  0  0
  2 22  1  0  0  0  0
  3 18  1  0  0  0  0
  4 20  1  0  0  0  0
  5  2  1  0  0  0  0
  6  1  1  0  0  0  0
  6  8  2  0  0  0  0
  7  6  1  0  0  0  0
  8  2  1  0  0  0  0
  9  8  1  0  0  0  0
 10 11  1  0  0  0  0
 10  1  1  0  0  0  0
 10 13  1  0  0  0  0
 12 10  1  0  0  0  0
 13  3  1  0  0  0  0
 13 14  1  0  0  0  0
 15 13  1  0  0  0  0
 16  4  1  0  0  0  0
 16  3  1  0  0  0  0
 17 16  1  0  0  0  0
 18 19  1  0  0  0  0
 20 18  2  0  0  0  0
 20 21  1  0  0  0  0
 22 31  1  0  0  0  0
 22 23  1  0  0  0  0
 23 25  1  0  0  0  0
 23 24  1  0  0  0  0
 26 23  1  0  0  0  0
 27 28  1  0  0  0  0
 27 22  1  0  0  0  0
 29 27  1  0  0  0  0
 30 27  1  0  0  0  0
 31 34  1  0  0  0  0
 31 32  1  0  0  0  0
 33 31  1  0  0  0  0
 35  4  1  0  0  0  0
 35 36  1  0  0  0  0
 36 37  1  0  0  0  0
 36 38  1  0  0  0  0
 39 36  1  0  0  0  0
 40 43  1  0  0  0  0
 40 35  1  0  0  0  0
 41 40  1  0  0  0  0
 42 40  1  0  0  0  0
 44 46  1  0  0  0  0
 44 35  1  0  0  0  0
 45 44  1  0  0  0  0
 47 44  1  0  0  0  0
M  END
