2
q = 0.0, confidence = 0.974

 20 21  0  0  1  0  0  0  0  0999 V2000
   -1.2433   -0.1276   -1.8227 C   0  0  2  0  0  3  0  0  0  0  0  0
   -0.1637   -1.0716   -2.1084 C   0  0  0  0  0  3  0  0  0  0  0  0
    0.4801   -0.9293   -2.9908 H   0  0  0  0  0  0  0  0  0  0  0  0
   -0.1949   -2.3437   -1.4541 C   0  0  0  0  0  0  0  0  0  0  0  0
    0.6397   -3.0410   -1.6231 H   0  0  0  0  0  0  0  0  0  0  0  0
   -1.2411   -2.7353   -0.6262 C   0  0  0  0  0  0  0  0  0  0  0  0
   -3.5180   -2.2730    0.3390 C   0  0  0  0  0  0  0  0  0  0  0  0
   -3.4934   -3.2634    0.8188 H   0  0  0  0  0  0  0  0  0  0  0  0
   -4.6242   -1.4350    0.5058 C   0  0  0  0  0  0  0  0  0  0  0  0
   -5.4745   -1.7652    1.1210 H   0  0  0  0  0  0  0  0  0  0  0  0
   -4.6479   -0.1744   -0.1208 C   0  0  0  0  0  0  0  0  0  0  0  0
   -5.5189    0.4876   -0.0010 H   0  0  0  0  0  0  0  0  0  0  0  0
   -3.5630    0.2398   -0.9012 C   0  0  0  0  0  0  0  0  0  0  0  0
   -3.5789    1.2232   -1.3962 H   0  0  0  0  0  0  0  0  0  0  0  0
   -2.4287   -0.5840   -1.0676 C   0  0  0  0  0  0  0  0  0  0  0  0
   -2.4099   -1.8712   -0.4421 C   0  0  0  0  0  0  0  0  0  0  0  0
   -1.3551    1.0276   -2.6608 C   0  0  0  0  0  0  0  0  0  0  0  0
   -1.4333    1.9927   -3.3316 N   0  0  0  0  0  0  0  0  0  0  0  0
   -1.1461   -3.9663    0.0869 C   0  0  0  0  0  0  0  0  0  0  0  0
   -1.0507   -4.9647    0.7041 N   0  0  0  0  0  0  0  0  0  0  0  0
  1 17  1  6  0  0  0
  1 15  1  0  0  0  0
  2  1  1  0  0  0  0
  2  4  1  0  0  0  0
  3  2  1  0  0  0  0
  4  6  2  0  0  0  0
  5  4  1  0  0  0  0
  6 16  1  0  0  0  0
  6 19  1  0  0  0  0
  7  9  1  0  0  0  0
  7  8  1  0  0  0  0
  9 10  1  0  0  0  0
 11 12  1  0  0  0  0
 11  9  2  0  0  0  0
 13 11  1  0  0  0  0
 14 13  1  0  0  0  0
 15 13  2  0  0  0  0
 15 16  1  0  0  0  0
 16  7  2  0  0  0  0
 18 17  3  0  0  0  0
 19 20  3  0  0  0  0
M  END
