1
q = -1.0, confidence = 0.0

 23 23  0  0  0  0  0  0  0  0999 V2000
    1.7795    0.1302   -0.1914 C   0  0  0  0  0  3  0  0  0  0  0  0
    1.7815    0.5585   -1.6455 C   0  0  0  0  0  0  0  0  0  0  0  0
    1.4090    1.5995   -1.7315 H   0  0  0  0  0  0  0  0  0  0  0  0
    1.0869   -0.0568   -2.2481 H   0  0  0  0  0  0  0  0  0  0  0  0
    2.8029    0.5051   -2.0741 H   0  0  0  0  0  0  0  0  0  0  0  0
    2.8449   -0.0859    0.4882 N   0  0  0  0  0  0  0  0  0  0  0  0
    4.1733    0.0158    0.0539 C   0  0  0  0  0  0  0  0  0  0  0  0
    4.9385   -1.1843   -0.0464 C   0  0  0  0  0  0  0  0  0  0  0  0
    6.2919   -1.1043   -0.4136 C   0  0  0  0  0  0  0  0  0  0  0  0
    6.8711   -2.0378   -0.4989 H   0  0  0  0  0  0  0  0  0  0  0  0
    6.9122    0.1301   -0.6511 C   0  0  0  0  0  0  0  0  0  0  0  0
    7.9753    0.1754   -0.9306 H   0  0  0  0  0  0  0  0  0  0  0  0
    6.1677    1.3065   -0.5018 C   0  0  0  0  0  0  0  0  0  0  0  0
    6.6492    2.2857   -0.6557 H   0  0  0  0  0  0  0  0  0  0  0  0
    4.8060    1.2767   -0.1478 C   0  0  0  0  0  0  0  0  0  0  0  0
    4.2991   -2.5113    0.2607 C   0  0  0  0  0  0  0  0  0  0  0  0
    3.5734   -2.8173   -0.5215 H   0  0  0  0  0  0  0  0  0  0  0  0
    3.7262   -2.4577    1.2091 H   0  0  0  0  0  0  0  0  0  0  0  0
    5.0586   -3.3127    0.3410 H   0  0  0  0  0  0  0  0  0  0  0  0
    4.0476    2.5613    0.0507 C   0  0  0  0  0  0  0  0  0  0  0  0
    4.7365    3.4272    0.0830 H   0  0  0  0  0  0  0  0  0  0  0  0
    3.4710    2.5424    0.9984 H   0  0  0  0  0  0  0  0  0  0  0  0
    3.3184    2.7499   -0.7646 H   0  0  0  0  0  0  0  0  0  0  0  0
  1  6  2  0  0  0  0
  2  1  1  0  0  0  0
  3  2  1  0  0  0  0
  4  2  1  0  0  0  0
  5  2  1  0  0  0  0
  7  6  1  0  0  0  0
  8  7  1  0  0  0  0
  8 16  1  0  0  0  0
  9  8  2  0  0  0  0
 10  9  1  0  0  0  0
 11 13  2  0  0  0  0
 11  9  1  0  0  0  0
 12 11  1  0  0  0  0
 13 15  1  0  0  0  0
 14 13  1  0  0  0  0
 15 20  1  0  0  0  0
 15  7  2  0  0  0  0
 16 19  1  0  0  0  0
 16 18  1  0  0  0  0
 17 16  1  0  0  0  0
 20 21  1  0  0  0  0
 20 22  1  0  0  0  0
 23 20  1  0  0  0  0
M  END
