8
q = 0.0, confidence = 0.984

 42 44  0  0  0  0  0  0  0  0999 V2000
    0.7468    2.7439   -1.0106 O   0  0  0  0  0  0  0  0  0  0  0  0
    6.5260    0.7032   -1.1257 O   0  0  0  0  0  0  0  0  0  0  0  0
    5.4191    2.5261   -0.3564 O   0  0  0  0  0  0  0  0  0  0  0  0
    5.8930   -2.7648   -0.3892 O   0  0  0  0  0  0  0  0  0  0  0  0
    6.5162   -1.0700    0.9957 O   0  0  0  0  0  0  0  0  0  0  0  0
    0.5344    0.6861   -0.0224 N   0  0  0  0  0  0  0  0  0  0  0  0
    0.6681   -1.4921    0.2730 N   0  0  0  0  0  0  0  0  0  0  0  0
   -0.2365   -0.4678    0.1592 C   0  0  0  0  0  2  0  0  0  0  0  0
    0.3143   -2.8890    0.4694 C   0  0  0  0  0  0  0  0  0  0  0  0
    0.0642    2.0283   -0.2940 C   0  0  0  0  0  0  0  0  0  0  0  0
   -1.1851    2.4794    0.3618 C   0  0  0  0  0  0  0  0  0  0  0  0
   -1.6646    1.9246    1.5690 C   0  0  0  0  0  0  0  0  0  0  0  0
   -2.8157    2.4569    2.1715 C   0  0  0  0  0  0  0  0  0  0  0  0
   -3.4951    3.5259    1.5708 C   0  0  0  0  0  0  0  0  0  0  0  0
   -3.0176    4.0843    0.3685 C   0  0  0  0  0  0  0  0  0  0  0  0
   -1.8626    3.5695   -0.2282 C   0  0  0  0  0  0  0  0  0  0  0  0
    1.9043    0.3584   -0.0700 C   0  0  0  0  0  0  0  0  0  0  0  0
    1.9762   -1.0354    0.1398 C   0  0  0  0  0  0  0  0  0  0  0  0
    3.2001   -1.7094    0.1856 C   0  0  0  0  0  0  0  0  0  0  0  0
    3.0607    1.1187   -0.2630 C   0  0  0  0  0  0  0  0  0  0  0  0
    4.3015    0.4496   -0.2249 C   0  0  0  0  0  0  0  0  0  0  0  0
    5.5401    1.1991   -0.6077 C   0  0  0  0  0  0  0  0  0  0  0  0
    4.3709   -0.9501    0.0285 C   0  0  0  0  0  0  0  0  0  0  0  0
    5.6715   -1.6946    0.1460 C   0  0  0  0  0  0  0  0  0  0  0  0
    6.5303    3.3276   -0.7723 C   0  0  0  0  0  0  0  0  0  0  0  0
    7.8385   -1.6145    1.0620 C   0  0  0  0  0  0  0  0  0  0  0  0
    3.2703   -2.7932    0.3489 H   0  0  0  0  0  0  0  0  0  0  0  0
    3.0113    2.1894   -0.4853 H   0  0  0  0  0  0  0  0  0  0  0  0
   -1.1246    1.1167    2.0787 H   0  0  0  0  0  0  0  0  0  0  0  0
   -3.1795    2.0122    3.1091 H   0  0  0  0  0  0  0  0  0  0  0  0
   -4.4027    3.9339    2.0416 H   0  0  0  0  0  0  0  0  0  0  0  0
   -3.5503    4.9253   -0.0997 H   0  0  0  0  0  0  0  0  0  0  0  0
   -1.4613    3.9952   -1.1593 H   0  0  0  0  0  0  0  0  0  0  0  0
    0.4822   -3.4663   -0.4623 H   0  0  0  0  0  0  0  0  0  0  0  0
   -0.7522   -2.9305    0.7592 H   0  0  0  0  0  0  0  0  0  0  0  0
    0.9337   -3.3156    1.2821 H   0  0  0  0  0  0  0  0  0  0  0  0
    7.4587    3.0085   -0.2572 H   0  0  0  0  0  0  0  0  0  0  0  0
    6.2756    4.3675   -0.5023 H   0  0  0  0  0  0  0  0  0  0  0  0
    6.6940    3.2386   -1.8654 H   0  0  0  0  0  0  0  0  0  0  0  0
    7.8098   -2.7152    1.1836 H   0  0  0  0  0  0  0  0  0  0  0  0
    8.3283   -1.1352    1.9281 H   0  0  0  0  0  0  0  0  0  0  0  0
    8.3872   -1.3695    0.1296 H   0  0  0  0  0  0  0  0  0  0  0  0
  1 10  2  0  0  0  0
  2 22  2  0  0  0  0
  4 24  2  0  0  0  0
  5 26  1  0  0  0  0
  6  8  1  0  0  0  0
  7  9  1  0  0  0  0
  8  7  1  0  0  0  0
  9 35  1  0  0  0  0
  9 36  1  0  0  0  0
 10  6  1  0  0  0  0
 10 11  1  0  0  0  0
 11 12  1  0  0  0  0
 12 29  1  0  0  0  0
 12 13  2  0  0  0  0
 13 30  1  0  0  0  0
 14 31  1  0  0  0  0
 14 13  1  0  0  0  0
 15 14  2  0  0  0  0
 16 11  2  0  0  0  0
 16 15  1  0  0  0  0
 17  6  1  0  0  0  0
 17 18  1  0  0  0  0
 18 19  2  0  0  0  0
 18  7  1  0  0  0  0
 19 27  1  0  0  0  0
 20 21  1  0  0  0  0
 20 17  2  0  0  0  0
 21 23  2  0  0  0  0
 22  3  1  0  0  0  0
 22 21  1  0  0  0  0
 23 24  1  0  0  0  0
 23 19  1  0  0  0  0
 24  5  1  0  0  0  0
 25 38  1  0  0  0  0
 25  3  1  0  0  0  0
 25 37  1  0  0  0  0
 26 40  1  0  0  0  0
 26 41  1  0  0  0  0
 28 20  1  0  0  0  0
 32 15  1  0  0  0  0
 33 16  1  0  0  0  0
 34  9  1  0  0  0  0
 39 25  1  0  0  0  0
 42 26  1  0  0  0  0
M  END
