2
q = 0.0, confidence = 0.906

 16 15  0  0  0  0  0  0  0  0999 V2000
   -3.6061   -0.6349   -2.1998 C   0  0  0  0  0  0  0  0  0  0  0  0
   -3.3213   -0.7356   -0.7253 C   0  0  0  0  0  3  0  0  0  0  0  0
   -3.5355    0.3761    0.1566 C   0  0  0  0  0  0  0  0  0  0  0  0
   -3.0991    0.2957    1.5294 C   0  0  0  0  0  0  0  0  0  0  0  0
   -2.4440   -0.8603    2.0088 C   0  0  0  0  0  3  0  0  0  0  0  0
   -1.6349   -0.8813    3.2725 C   0  0  0  0  0  0  0  0  0  0  0  0
   -2.9802   -1.3445   -2.7765 H   0  0  0  0  0  0  0  0  0  0  0  0
   -3.4330    0.3834   -2.5998 H   0  0  0  0  0  0  0  0  0  0  0  0
   -4.6662   -0.9003   -2.4067 H   0  0  0  0  0  0  0  0  0  0  0  0
   -3.4546   -1.7580   -0.3228 H   0  0  0  0  0  0  0  0  0  0  0  0
   -3.8973    1.3437   -0.2284 H   0  0  0  0  0  0  0  0  0  0  0  0
   -3.0780    1.2260    2.1228 H   0  0  0  0  0  0  0  0  0  0  0  0
   -2.7486   -1.8475    1.6156 H   0  0  0  0  0  0  0  0  0  0  0  0
   -0.6210   -1.2809    3.0563 H   0  0  0  0  0  0  0  0  0  0  0  0
   -1.5083    0.1359    3.6931 H   0  0  0  0  0  0  0  0  0  0  0  0
   -2.0972   -1.5309    4.0452 H   0  0  0  0  0  0  0  0  0  0  0  0
  1  2  1  0  0  0  0
  2 10  1  0  0  0  0
  2  3  1  0  0  0  0
  3  4  2  0  0  0  0
  4  5  1  0  0  0  0
  4 12  1  0  0  0  0
  5  6  1  0  0  0  0
  6 15  1  0  0  0  0
  6 16  1  0  0  0  0
  7  1  1  0  0  0  0
  8  1  1  0  0  0  0
  9  1  1  0  0  0  0
 11  3  1  0  0  0  0
 13  5  1  0  0  0  0
 14  6  1  0  0  0  0
M  END
