3
q = 0.0, confidence = 1.0

 27 27  0  0  0  0  0  0  0  0999 V2000
    3.1546    0.0000   -0.0001 N   0  0  0  0  0  2  0  0  0  0  0  0
    8.7092   -0.0001    0.0001 N   0  0  0  0  0  0  0  0  0  0  0  0
    1.9733    0.0001   -0.0001 C   0  0  0  0  0  1  0  0  0  0  0  0
    4.5189    0.0000   -0.0000 C   0  0  0  0  0  0  0  0  0  0  0  0
    5.2124   -0.8906    0.8732 C   0  0  0  0  0  0  0  0  0  0  0  0
    6.6039   -0.8742    0.8572 C   0  0  0  0  0  0  0  0  0  0  0  0
    7.1307   -1.5611    1.5306 H   0  0  0  0  0  0  0  0  0  0  0  0
    7.3414   -0.0001    0.0001 C   0  0  0  0  0  0  0  0  0  0  0  0
    6.6040    0.8741   -0.8571 C   0  0  0  0  0  0  0  0  0  0  0  0
    7.1309    1.5610   -1.5305 H   0  0  0  0  0  0  0  0  0  0  0  0
    5.2125    0.8906   -0.8732 C   0  0  0  0  0  0  0  0  0  0  0  0
    4.4442   -1.8135    1.7781 C   0  0  0  0  0  0  0  0  0  0  0  0
    5.1243   -2.4355    2.3880 H   0  0  0  0  0  0  0  0  0  0  0  0
    3.7861   -2.4925    1.1965 H   0  0  0  0  0  0  0  0  0  0  0  0
    3.7860   -1.2454    2.4685 H   0  0  0  0  0  0  0  0  0  0  0  0
    4.4444    1.8135   -1.7782 C   0  0  0  0  0  0  0  0  0  0  0  0
    5.1246    2.4356   -2.3879 H   0  0  0  0  0  0  0  0  0  0  0  0
    3.7861    2.4924   -1.1966 H   0  0  0  0  0  0  0  0  0  0  0  0
    3.7864    1.2454   -2.4687 H   0  0  0  0  0  0  0  0  0  0  0  0
    9.4435   -0.8973    0.8800 C   0  0  0  0  0  0  0  0  0  0  0  0
    9.2142   -0.7040    1.9503 H   0  0  0  0  0  0  0  0  0  0  0  0
   10.5267   -0.7463    0.7325 H   0  0  0  0  0  0  0  0  0  0  0  0
    9.2148   -1.9636    0.6655 H   0  0  0  0  0  0  0  0  0  0  0  0
    9.4436    0.8970   -0.8798 C   0  0  0  0  0  0  0  0  0  0  0  0
    9.2146    0.7035   -1.9501 H   0  0  0  0  0  0  0  0  0  0  0  0
   10.5268    0.7462   -0.7320 H   0  0  0  0  0  0  0  0  0  0  0  0
    9.2147    1.9633   -0.6655 H   0  0  0  0  0  0  0  0  0  0  0  0
  1  4  1  0  0  0  0
  2 20  1  0  0  0  0
  3  1  1  0  0  0  0
  4  5  1  0  0  0  0
  5 12  1  0  0  0  0
  6  5  2  0  0  0  0
  6  7  1  0  0  0  0
  8  2  1  0  0  0  0
  8  6  1  0  0  0  0
  9  8  2  0  0  0  0
 10  9  1  0  0  0  0
 11  9  1  0  0  0  0
 11  4  2  0  0  0  0
 12 13  1  0  0  0  0
 12 15  1  0  0  0  0
 14 12  1  0  0  0  0
 16 18  1  0  0  0  0
 16 11  1  0  0  0  0
 17 16  1  0  0  0  0
 19 16  1  0  0  0  0
 20 21  1  0  0  0  0
 22 20  1  0  0  0  0
 23 20  1  0  0  0  0
 24 26  1  0  0  0  0
 24 27  1  0  0  0  0
 24  2  1  0  0  0  0
 25 24  1  0  0  0  0
M  END
