3
q = 0.0, confidence = 0.994

 46 49  0  0  0  0  0  0  0  0999 V2000
   -2.2616    1.0590   -0.3645 N   0  0  0  0  0  0  0  0  0  0  0  0
   -1.4345    2.7412    0.7144 N   0  0  0  0  0  0  0  0  0  0  0  0
   -1.0819    1.5711    0.1006 C   0  0  0  0  0  2  0  0  0  0  0  0
   -3.3291    1.8866   -0.0470 C   0  0  0  0  0  0  0  0  0  0  0  0
   -4.3615    1.6354   -0.3071 H   0  0  0  0  0  0  0  0  0  0  0  0
   -2.8018    2.9573    0.6292 C   0  0  0  0  0  0  0  0  0  0  0  0
   -3.2842    3.8377    1.0638 H   0  0  0  0  0  0  0  0  0  0  0  0
   -2.3795   -0.2127   -1.0960 C   0  0  0  0  0  0  0  0  0  0  0  0
   -1.3617   -0.6464   -1.1077 H   0  0  0  0  0  0  0  0  0  0  0  0
   -2.6330    0.0147   -2.1482 H   0  0  0  0  0  0  0  0  0  0  0  0
   -3.3873   -1.1531   -0.4744 C   0  0  0  0  0  0  0  0  0  0  0  0
   -3.0023   -1.9342    0.6520 C   0  0  0  0  0  0  0  0  0  0  0  0
   -1.6870   -1.8834    1.2243 C   0  0  0  0  0  0  0  0  0  0  0  0
   -0.9223   -1.2129    0.8036 H   0  0  0  0  0  0  0  0  0  0  0  0
   -1.3493   -2.6619    2.3156 C   0  0  0  0  0  0  0  0  0  0  0  0
   -0.3303   -2.6000    2.7265 H   0  0  0  0  0  0  0  0  0  0  0  0
   -2.3016   -3.5419    2.9098 C   0  0  0  0  0  0  0  0  0  0  0  0
   -2.0131   -4.1549    3.7769 H   0  0  0  0  0  0  0  0  0  0  0  0
   -3.5792   -3.6217    2.3935 C   0  0  0  0  0  0  0  0  0  0  0  0
   -4.3254   -4.2972    2.8400 H   0  0  0  0  0  0  0  0  0  0  0  0
   -3.9692   -2.8307    1.2642 C   0  0  0  0  0  0  0  0  0  0  0  0
   -5.2703   -2.9045    0.7367 C   0  0  0  0  0  0  0  0  0  0  0  0
   -6.0000   -3.5849    1.2040 H   0  0  0  0  0  0  0  0  0  0  0  0
   -5.6689   -2.1302   -0.3663 C   0  0  0  0  0  0  0  0  0  0  0  0
   -4.7118   -1.2282   -0.9903 C   0  0  0  0  0  0  0  0  0  0  0  0
   -5.1769   -0.4456   -2.1026 C   0  0  0  0  0  0  0  0  0  0  0  0
   -4.4923    0.2529   -2.6043 H   0  0  0  0  0  0  0  0  0  0  0  0
   -6.4752   -0.5451   -2.5671 C   0  0  0  0  0  0  0  0  0  0  0  0
   -6.7955    0.0688   -3.4225 H   0  0  0  0  0  0  0  0  0  0  0  0
   -7.4037   -1.4376   -1.9538 C   0  0  0  0  0  0  0  0  0  0  0  0
   -8.4322   -1.5069   -2.3381 H   0  0  0  0  0  0  0  0  0  0  0  0
   -7.0041   -2.2086   -0.8816 C   0  0  0  0  0  0  0  0  0  0  0  0
   -7.7084   -2.9017   -0.3957 H   0  0  0  0  0  0  0  0  0  0  0  0
   -0.4701    3.6678    1.3075 C   0  0  0  0  0  0  0  0  0  0  0  0
    0.3232    3.0531    1.7787 H   0  0  0  0  0  0  0  0  0  0  0  0
   -0.9895    4.2233    2.1148 H   0  0  0  0  0  0  0  0  0  0  0  0
    0.1408    4.6245    0.2822 C   0  0  0  0  0  0  0  0  0  0  0  0
    0.6191    4.0168   -0.5167 H   0  0  0  0  0  0  0  0  0  0  0  0
   -0.6698    5.2094   -0.2063 H   0  0  0  0  0  0  0  0  0  0  0  0
    1.1716    5.5697    0.9046 C   0  0  0  0  0  0  0  0  0  0  0  0
    1.9671    4.9652    1.3934 H   0  0  0  0  0  0  0  0  0  0  0  0
    0.6918    6.1554    1.7206 H   0  0  0  0  0  0  0  0  0  0  0  0
    1.8006    6.5208   -0.1138 C   0  0  0  0  0  0  0  0  0  0  0  0
    2.3187    5.9599   -0.9187 H   0  0  0  0  0  0  0  0  0  0  0  0
    2.5453    7.1902    0.3607 H   0  0  0  0  0  0  0  0  0  0  0  0
    1.0334    7.1613   -0.5966 H   0  0  0  0  0  0  0  0  0  0  0  0
  1  4  1  0  0  0  0
  1  3  1  0  0  0  0
  2 34  1  0  0  0  0
  3  2  1  0  0  0  0
  4  6  2  0  0  0  0
  5  4  1  0  0  0  0
  6  2  1  0  0  0  0
  6  7  1  0  0  0  0
  8 11  1  0  0  0  0
  8  1  1  0  0  0  0
  9  8  1  0  0  0  0
 10  8  1  0  0  0  0
 11 12  1  0  0  0  0
 12 13  2  0  0  0  0
 12 21  1  0  0  0  0
 13 15  1  0  0  0  0
 14 13  1  0  0  0  0
 15 16  1  0  0  0  0
 15 17  2  0  0  0  0
 17 18  1  0  0  0  0
 19 20  1  0  0  0  0
 19 17  1  0  0  0  0
 21 19  2  0  0  0  0
 22 23  1  0  0  0  0
 22 21  1  0  0  0  0
 24 22  2  0  0  0  0
 25 11  2  0  0  0  0
 25 24  1  0  0  0  0
 26 25  1  0  0  0  0
 27 26  1  0  0  0  0
 28 26  2  0  0  0  0
 28 30  1  0  0  0  0
 29 28  1  0  0  0  0
 30 32  2  0  0  0  0
 31 30  1  0  0  0  0
 32 33  1  0  0  0  0
 32 24  1  0  0  0  0
 34 35  1  0  0  0  0
 34 36  1  0  0  0  0
 37 40  1  0  0  0  0
 37 34  1  0  0  0  0
 38 37  1  0  0  0  0
 39 37  1  0  0  0  0
 40 41  1  0  0  0  0
 40 42  1  0  0  0  0
 43 45  1  0  0  0  0
 43 40  1  0  0  0  0
 44 43  1  0  0  0  0
 46 43  1  0  0  0  0
M  END
