7
q = -1.0, confidence = 0.482

 45 50  0  0  1  0  0  0  0  0999 V2000
   -2.2896    1.7636   -0.4747 C   0  0  2  0  0  0  0  0  0  0  0  0
   -1.7358    1.9781    0.9904 C   0  0  1  0  0  0  0  0  0  0  0  0
   -2.3641    1.6312    1.8222 H   0  0  0  0  0  0  0  0  0  0  0  0
   -3.5756    0.9359   -0.6367 C   0  0  0  0  0  0  0  0  0  0  0  0
   -4.3602    1.3005    0.0556 H   0  0  0  0  0  0  0  0  0  0  0  0
   -3.9610    1.0768   -1.6638 H   0  0  0  0  0  0  0  0  0  0  0  0
   -3.2174   -0.5030   -0.3731 C   0  0  2  0  0  3  0  0  0  0  0  0
   -3.0590   -1.0917    0.9289 C   0  0  2  0  0  3  0  0  0  0  0  0
   -2.3844   -2.3486    0.7616 C   0  0  0  0  0  0  0  0  0  0  0  0
   -2.1028   -2.5233   -0.6211 C   0  0  0  0  0  0  0  0  0  0  0  0
   -2.6083   -1.3809   -1.3316 C   0  0  1  0  0  3  0  0  0  0  0  0
   -3.6036   -0.5984    2.2405 C   0  0  0  0  0  0  0  0  0  0  0  0
   -4.3295   -1.3282    2.6597 H   0  0  0  0  0  0  0  0  0  0  0  0
   -4.1407    0.3637    2.1350 H   0  0  0  0  0  0  0  0  0  0  0  0
   -2.8089   -0.4660    3.0051 H   0  0  0  0  0  0  0  0  0  0  0  0
   -2.0444   -3.2812    1.8810 C   0  0  0  0  0  0  0  0  0  0  0  0
   -2.9269   -3.4858    2.5229 H   0  0  0  0  0  0  0  0  0  0  0  0
   -1.2564   -2.8368    2.5255 H   0  0  0  0  0  0  0  0  0  0  0  0
   -1.6656   -4.2523    1.5075 H   0  0  0  0  0  0  0  0  0  0  0  0
   -1.3942   -3.6827   -1.2533 C   0  0  0  0  0  0  0  0  0  0  0  0
   -1.4466   -4.5899   -0.6196 H   0  0  0  0  0  0  0  0  0  0  0  0
   -0.3184   -3.4498   -1.4125 H   0  0  0  0  0  0  0  0  0  0  0  0
   -1.8305   -3.9362   -2.2407 H   0  0  0  0  0  0  0  0  0  0  0  0
   -2.6603   -1.2601   -2.8284 C   0  0  0  0  0  0  0  0  0  0  0  0
   -3.3363   -2.0348   -3.2527 H   0  0  0  0  0  0  0  0  0  0  0  0
   -1.6696   -1.4000   -3.3046 H   0  0  0  0  0  0  0  0  0  0  0  0
   -3.0376   -0.2729   -3.1515 H   0  0  0  0  0  0  0  0  0  0  0  0
   -0.0767    2.0286    1.0610 B   0  0  0  0  0  0  0  0  0  0  0  0
    0.4828    1.7695    2.1031 H   0  0  0  0  0  0  0  0  0  0  0  0
    0.4628    1.8668   -0.6049 B   0  0  1  0  0  0  0  0  0  0  0  0
    1.5620    1.5009   -0.9776 H   0  0  0  0  0  0  0  0  0  0  0  0
   -1.0103    1.6380   -1.5479 B   0  0  2  0  0  0  0  0  0  0  0  0
   -1.1484    0.9705   -2.5522 H   0  0  0  0  0  0  0  0  0  0  0  0
   -2.4836    3.3249    0.2137 B   0  0  2  0  0  0  0  0  0  0  0  0
   -3.5918    3.6597    0.5591 H   0  0  0  0  0  0  0  0  0  0  0  0
   -1.0287    3.5262    1.2000 B   0  0  2  0  0  0  0  0  0  0  0  0
   -1.1442    4.0876    2.2656 H   0  0  0  0  0  0  0  0  0  0  0  0
    0.3819    3.4831    0.1291 B   0  0  2  0  0  0  0  0  0  0  0  0
    1.3844    4.1216    0.3949 H   0  0  0  0  0  0  0  0  0  0  0  0
   -0.2094    3.2280   -1.5359 B   0  0  0  0  0  0  0  0  0  0  0  0
    0.3510    3.6679   -2.5194 H   0  0  0  0  0  0  0  0  0  0  0  0
   -1.9825    3.1213   -1.4745 B   0  0  2  0  0  0  0  0  0  0  0  0
   -2.7830    3.3874   -2.3427 H   0  0  0  0  0  0  0  0  0  0  0  0
   -1.1342    4.2775   -0.4138 B   0  0  0  0  0  0  0  0  0  0  0  0
   -1.2533    5.4752   -0.5485 H   0  0  0  0  0  0  0  0  0  0  0  0
  1  4  1  6  0  0  0
  1  2  1  0  0  0  0
  2 28  1  0  0  0  0
  2 36  1  0  0  0  0
  2  3  1  1  0  0  0
  4  5  1  0  0  0  0
  6  4  1  0  0  0  0
  7  4  1  1  0  0  0
  7  8  1  0  0  0  0
  8 12  1  6  0  0  0
  9  8  1  0  0  0  0
  9 16  1  0  0  0  0
 10  9  2  0  0  0  0
 11 24  1  6  0  0  0
 11 10  1  0  0  0  0
 11  7  1  0  0  0  0
 12 13  1  0  0  0  0
 12 15  1  0  0  0  0
 14 12  1  0  0  0  0
 16 17  1  0  0  0  0
 16 18  1  0  0  0  0
 19 16  1  0  0  0  0
 20 10  1  0  0  0  0
 20 21  1  0  0  0  0
 22 20  1  0  0  0  0
 23 20  1  0  0  0  0
 25 24  1  0  0  0  0
 26 24  1  0  0  0  0
 27 24  1  0  0  0  0
 28 29  1  0  0  0  0
 30 31  1  6  0  0  0
 30 38  1  0  0  0  0
 30 28  1  0  0  0  0
 32 33  1  6  0  0  0
 32 42  1  0  0  0  0
 32 30  1  0  0  0  0
 32  1  1  0  0  0  0
 34 35  1  1  0  0  0
 34 36  1  0  0  0  0
 36 37  1  1  0  0  0
 38 39  1  1  0  0  0
 38 36  1  0  0  0  0
 40 44  1  0  0  0  0
 40 38  1  0  0  0  0
 41 40  1  0  0  0  0
 42 43  1  6  0  0  0
 42  1  1  0  0  0  0
 42 34  1  0  0  0  0
 44 34  1  0  0  0  0
 45 44  1  0  0  0  0
M  END
