4
q = -1.0, confidence = 0.0

 27 28  0  0  0  0  0  0  0  0999 V2000
   -2.5182   -1.2504    0.2843 S   0  0  0  0  0  0  0  0  0  0  0  0
   -2.1299   -0.8295    1.6647 O   0  0  0  0  0  0  0  0  0  0  0  0
   -2.0404   -2.5494   -0.2631 O   0  0  0  0  0  0  0  0  0  0  0  0
   -2.0468    0.0571   -0.8964 C   0  0  0  0  0  3  0  0  0  0  0  0
   -2.3485   -0.3593   -1.8785 H   0  0  0  0  0  0  0  0  0  0  0  0
   -2.7265    1.3617   -0.6111 C   0  0  0  0  0  0  0  0  0  0  0  0
   -2.4566    2.0921    0.5706 C   0  0  0  0  0  0  0  0  0  0  0  0
   -1.7176    1.6932    1.2811 H   0  0  0  0  0  0  0  0  0  0  0  0
   -3.1363    3.2857    0.8456 C   0  0  0  0  0  0  0  0  0  0  0  0
   -2.9147    3.8360    1.7733 H   0  0  0  0  0  0  0  0  0  0  0  0
   -4.0898    3.7864   -0.0577 C   0  0  0  0  0  0  0  0  0  0  0  0
   -4.6172    4.7284    0.1571 H   0  0  0  0  0  0  0  0  0  0  0  0
   -4.3617    3.0762   -1.2370 C   0  0  0  0  0  0  0  0  0  0  0  0
   -5.1082    3.4563   -1.9515 H   0  0  0  0  0  0  0  0  0  0  0  0
   -3.6921    1.8732   -1.5054 C   0  0  0  0  0  0  0  0  0  0  0  0
   -3.9231    1.3091   -2.4229 H   0  0  0  0  0  0  0  0  0  0  0  0
   -4.3259   -1.2808    0.2398 C   0  0  0  0  0  0  0  0  0  0  0  0
   -5.0533   -0.3933    1.0475 C   0  0  0  0  0  0  0  0  0  0  0  0
   -4.5191    0.2733    1.7388 H   0  0  0  0  0  0  0  0  0  0  0  0
   -6.4527   -0.3864    0.9518 C   0  0  0  0  0  0  0  0  0  0  0  0
   -7.0380    0.3071    1.5746 H   0  0  0  0  0  0  0  0  0  0  0  0
   -7.1050   -1.2618    0.0676 C   0  0  0  0  0  0  0  0  0  0  0  0
   -8.2035   -1.2528   -0.0017 H   0  0  0  0  0  0  0  0  0  0  0  0
   -6.3616   -2.1535   -0.7243 C   0  0  0  0  0  0  0  0  0  0  0  0
   -6.8765   -2.8469   -1.4067 H   0  0  0  0  0  0  0  0  0  0  0  0
   -4.9612   -2.1659   -0.6434 C   0  0  0  0  0  0  0  0  0  0  0  0
   -4.3484   -2.8577   -1.2399 H   0  0  0  0  0  0  0  0  0  0  0  0
  1  2  2  0  0  0  0
  3  1  2  0  0  0  0
  4  6  1  0  0  0  0
  4  1  1  0  0  0  0
  5  4  1  0  0  0  0
  6  7  1  0  0  0  0
  7  9  2  0  0  0  0
  7  8  1  0  0  0  0
  9 10  1  0  0  0  0
 11 12  1  0  0  0  0
 11  9  1  0  0  0  0
 13 11  2  0  0  0  0
 14 13  1  0  0  0  0
 15 13  1  0  0  0  0
 15  6  2  0  0  0  0
 16 15  1  0  0  0  0
 17  1  1  0  0  0  0
 17 18  1  0  0  0  0
 18 19  1  0  0  0  0
 20 18  2  0  0  0  0
 20 21  1  0  0  0  0
 22 20  1  0  0  0  0
 23 22  1  0  0  0  0
 24 26  1  0  0  0  0
 24 22  2  0  0  0  0
 25 24  1  0  0  0  0
 26 17  2  0  0  0  0
 27 26  1  0  0  0  0
M  END
