4
q = 0.0, confidence = 0.996

 59 61  0  0  1  0  0  0  0  0999 V2000
   -2.4830    0.9488   -0.4215 S   0  0  0  0  0  0  0  0  0  0  0  0
   -1.6190   -1.8178   -0.3970 S   0  0  0  0  0  0  0  0  0  0  0  0
   -4.2134   -1.1319   -0.7814 N   0  0  0  0  0  0  0  0  0  0  0  0
   -0.7516    0.7374   -0.1936 C   0  0  0  0  0  3  0  0  0  0  0  0
   -2.9473   -0.7280   -0.5608 C   0  0  2  0  0  3  0  0  0  0  0  0
   -0.3485   -0.5727   -0.1836 C   0  0  0  0  0  0  0  0  0  0  0  0
    1.0270   -1.1018    0.0012 C   0  0  0  0  0  0  0  0  0  0  0  0
    1.5068   -1.3648    1.3112 C   0  0  0  0  0  0  0  0  0  0  0  0
    2.8223   -1.8387    1.4590 C   0  0  0  0  0  0  0  0  0  0  0  0
    3.2142   -2.0341    2.4700 H   0  0  0  0  0  0  0  0  0  0  0  0
    3.6639   -2.0606    0.3572 C   0  0  0  0  0  0  0  0  0  0  0  0
    3.1591   -1.7982   -0.9297 C   0  0  0  0  0  0  0  0  0  0  0  0
    3.8086   -1.9577   -1.8042 H   0  0  0  0  0  0  0  0  0  0  0  0
    1.8541   -1.3235   -1.1341 C   0  0  0  0  0  0  0  0  0  0  0  0
   -5.3421   -0.1939   -0.7307 C   0  0  0  0  0  0  0  0  0  0  0  0
   -5.9924   -0.4072   -1.6074 H   0  0  0  0  0  0  0  0  0  0  0  0
   -4.9635    0.8396   -0.8468 H   0  0  0  0  0  0  0  0  0  0  0  0
   -6.1232   -0.3803    0.5764 C   0  0  0  0  0  0  0  0  0  0  0  0
   -6.9994    0.2998    0.5784 H   0  0  0  0  0  0  0  0  0  0  0  0
   -5.4733   -0.0718    1.4235 H   0  0  0  0  0  0  0  0  0  0  0  0
   -6.5602   -1.8425    0.7465 C   0  0  0  0  0  0  0  0  0  0  0  0
   -7.0565   -1.9847    1.7277 H   0  0  0  0  0  0  0  0  0  0  0  0
   -7.3207   -2.0897   -0.0278 H   0  0  0  0  0  0  0  0  0  0  0  0
   -5.3692   -2.8018    0.6075 C   0  0  0  0  0  0  0  0  0  0  0  0
   -4.6648   -2.6652    1.4564 H   0  0  0  0  0  0  0  0  0  0  0  0
   -5.7042   -3.8590    0.6326 H   0  0  0  0  0  0  0  0  0  0  0  0
   -4.6121   -2.5420   -0.7013 C   0  0  0  0  0  0  0  0  0  0  0  0
   -3.7130   -3.1805   -0.7982 H   0  0  0  0  0  0  0  0  0  0  0  0
   -5.2644   -2.7557   -1.5766 H   0  0  0  0  0  0  0  0  0  0  0  0
    0.6529   -1.0791    2.5403 C   0  0  0  0  0  0  0  0  0  0  0  0
   -0.3868   -0.9178    2.1870 H   0  0  0  0  0  0  0  0  0  0  0  0
    1.1085    0.2289    3.2113 C   0  0  0  0  0  0  0  0  0  0  0  0
    2.1541    0.1456    3.5739 H   0  0  0  0  0  0  0  0  0  0  0  0
    0.4627    0.4721    4.0801 H   0  0  0  0  0  0  0  0  0  0  0  0
    1.0634    1.0769    2.4972 H   0  0  0  0  0  0  0  0  0  0  0  0
    0.6263   -2.2517    3.5322 C   0  0  0  0  0  0  0  0  0  0  0  0
    1.6247   -2.4382    3.9788 H   0  0  0  0  0  0  0  0  0  0  0  0
    0.2960   -3.1912    3.0438 H   0  0  0  0  0  0  0  0  0  0  0  0
   -0.0683   -2.0345    4.3694 H   0  0  0  0  0  0  0  0  0  0  0  0
    5.0896   -2.5554    0.5534 C   0  0  0  0  0  0  0  0  0  0  0  0
    5.2311   -2.7008    1.6467 H   0  0  0  0  0  0  0  0  0  0  0  0
    6.1151   -1.5080    0.0864 C   0  0  0  0  0  0  0  0  0  0  0  0
    7.1504   -1.8500    0.2913 H   0  0  0  0  0  0  0  0  0  0  0  0
    5.9618   -0.5378    0.5993 H   0  0  0  0  0  0  0  0  0  0  0  0
    6.0324   -1.3254   -1.0051 H   0  0  0  0  0  0  0  0  0  0  0  0
    5.3216   -3.9128   -0.1310 C   0  0  0  0  0  0  0  0  0  0  0  0
    4.5999   -4.6743    0.2268 H   0  0  0  0  0  0  0  0  0  0  0  0
    6.3468   -4.2862    0.0703 H   0  0  0  0  0  0  0  0  0  0  0  0
    5.2068   -3.8326   -1.2320 H   0  0  0  0  0  0  0  0  0  0  0  0
    1.3711   -0.9814   -2.5383 C   0  0  0  0  0  0  0  0  0  0  0  0
    0.2655   -0.8914   -2.4926 H   0  0  0  0  0  0  0  0  0  0  0  0
    1.7019   -2.0692   -3.5705 C   0  0  0  0  0  0  0  0  0  0  0  0
    2.7951   -2.1664   -3.7336 H   0  0  0  0  0  0  0  0  0  0  0  0
    1.2501   -1.8195   -4.5522 H   0  0  0  0  0  0  0  0  0  0  0  0
    1.3189   -3.0613   -3.2559 H   0  0  0  0  0  0  0  0  0  0  0  0
    1.9185    0.3932   -2.9632 C   0  0  0  0  0  0  0  0  0  0  0  0
    1.6211    1.1807   -2.2404 H   0  0  0  0  0  0  0  0  0  0  0  0
    1.5358    0.6783   -3.9649 H   0  0  0  0  0  0  0  0  0  0  0  0
    3.0273    0.3784   -3.0098 H   0  0  0  0  0  0  0  0  0  0  0  0
  1  4  1  0  0  0  0
  2  6  1  0  0  0  0
  3 15  1  0  0  0  0
  3 27  1  0  0  0  0
  4  6  2  0  0  0  0
  5  3  1  6  0  0  0
  5  1  1  0  0  0  0
  5  2  1  0  0  0  0
  6  7  1  0  0  0  0
  7  8  1  0  0  0  0
  8  9  2  0  0  0  0
  8 30  1  0  0  0  0
  9 10  1  0  0  0  0
 11 40  1  0  0  0  0
 11  9  1  0  0  0  0
 12 11  2  0  0  0  0
 13 12  1  0  0  0  0
 14 12  1  0  0  0  0
 14  7  2  0  0  0  0
 15 18  1  0  0  0  0
 16 15  1  0  0  0  0
 17 15  1  0  0  0  0
 18 19  1  0  0  0  0
 18 21  1  0  0  0  0
 18 20  1  0  0  0  0
 21 22  1  0  0  0  0
 23 21  1  0  0  0  0
 24 26  1  0  0  0  0
 24 21  1  0  0  0  0
 24 25  1  0  0  0  0
 27 24  1  0  0  0  0
 28 27  1  0  0  0  0
 29 27  1  0  0  0  0
 30 32  1  0  0  0  0
 30 36  1  0  0  0  0
 31 30  1  0  0  0  0
 32 33  1  0  0  0  0
 32 34  1  0  0  0  0
 35 32  1  0  0  0  0
 36 37  1  0  0  0  0
 36 39  1  0  0  0  0
 38 36  1  0  0  0  0
 40 41  1  0  0  0  0
 42 43  1  0  0  0  0
 42 40  1  0  0  0  0
 42 44  1  0  0  0  0
 45 42  1  0  0  0  0
 46 48  1  0  0  0  0
 46 47  1  0  0  0  0
 46 40  1  0  0  0  0
 49 46  1  0  0  0  0
 50 51  1  0  0  0  0
 50 14  1  0  0  0  0
 52 55  1  0  0  0  0
 52 50  1  0  0  0  0
 53 52  1  0  0  0  0
 54 52  1  0  0  0  0
 56 50  1  0  0  0  0
 56 57  1  0  0  0  0
 58 56  1  0  0  0  0
 59 56  1  0  0  0  0
M  END
