20
q = 0.0, confidence = 1.0

 31 33  0  0  0  0  0  0  0  0999 V2000
    2.9047    3.0136   -2.5931 C   0  0  0  0  0  0  0  0  0  0  0  0
    3.4570    3.9190   -2.8748 H   0  0  0  0  0  0  0  0  0  0  0  0
    1.5274    3.0121   -2.4616 N   0  0  0  0  0  0  0  0  0  0  0  0
    2.3217    0.9551   -2.0464 N   0  0  0  0  0  0  0  0  0  0  0  0
   -3.7715   -2.5273    0.0021 C   0  0  0  0  0  0  0  0  0  0  0  0
   -3.6996   -1.7177    0.7549 H   0  0  0  0  0  0  0  0  0  0  0  0
   -4.2155   -3.4106    0.5017 H   0  0  0  0  0  0  0  0  0  0  0  0
    1.2019    1.7763   -2.1445 C   0  0  0  0  0  0  0  0  0  0  0  0
    0.1969    1.3780   -1.9615 H   0  0  0  0  0  0  0  0  0  0  0  0
    3.5080   -1.1240   -1.4603 C   0  0  0  0  0  0  0  0  0  0  0  0
    4.4907   -0.6652   -1.6252 H   0  0  0  0  0  0  0  0  0  0  0  0
    2.3130   -0.4013   -1.6579 C   0  0  0  0  0  0  0  0  0  0  0  0
    2.1420   -3.0206   -0.8060 C   0  0  0  0  0  0  0  0  0  0  0  0
    2.0359   -4.0321   -0.3952 H   0  0  0  0  0  0  0  0  0  0  0  0
   -0.6494   -4.0647   -1.0412 C   0  0  0  0  0  0  0  0  0  0  0  0
    0.0557   -4.8232   -1.3902 H   0  0  0  0  0  0  0  0  0  0  0  0
   -1.9784   -4.1557   -0.7291 C   0  0  0  0  0  0  0  0  0  0  0  0
   -2.6551   -5.0155   -0.7370 H   0  0  0  0  0  0  0  0  0  0  0  0
    1.0258   -2.2096   -1.0640 C   0  0  0  0  0  0  0  0  0  0  0  0
   -1.3745   -1.9868   -0.4506 C   0  0  0  0  0  2  0  0  0  0  0  0
   -2.3943   -2.8820   -0.3651 N   0  0  0  0  0  0  0  0  0  0  0  0
    3.4230    1.7593   -2.3372 C   0  0  0  0  0  0  0  0  0  0  0  0
    4.4462    1.3760   -2.3609 H   0  0  0  0  0  0  0  0  0  0  0  0
    1.1027   -0.9462   -1.4784 N   0  0  0  0  0  0  0  0  0  0  0  0
   -0.2951   -2.7285   -0.8731 N   0  0  0  0  0  0  0  0  0  0  0  0
    3.4032   -2.4487   -1.0227 C   0  0  0  0  0  0  0  0  0  0  0  0
    4.3112   -3.0372   -0.8289 H   0  0  0  0  0  0  0  0  0  0  0  0
   -4.6002   -2.0855   -1.1995 C   0  0  0  0  0  0  0  0  0  0  0  0
   -4.1534   -1.1877   -1.6718 H   0  0  0  0  0  0  0  0  0  0  0  0
   -5.6291   -1.8344   -0.8754 H   0  0  0  0  0  0  0  0  0  0  0  0
   -4.6685   -2.8843   -1.9643 H   0  0  0  0  0  0  0  0  0  0  0  0
  1  3  1  0  0  0  0
  1 22  2  0  0  0  0
  2  1  1  0  0  0  0
  3  8  2  0  0  0  0
  4 12  1  0  0  0  0
  5  7  1  0  0  0  0
  5  6  1  0  0  0  0
  8  4  1  0  0  0  0
  8  9  1  0  0  0  0
 10 26  1  0  0  0  0
 11 10  1  0  0  0  0
 12 24  1  0  0  0  0
 12 10  2  0  0  0  0
 13 14  1  0  0  0  0
 15 25  1  0  0  0  0
 15 17  2  0  0  0  0
 16 15  1  0  0  0  0
 17 21  1  0  0  0  0
 18 17  1  0  0  0  0
 19 25  1  0  0  0  0
 19 13  1  0  0  0  0
 20 21  1  0  0  0  0
 21  5  1  0  0  0  0
 22  4  1  0  0  0  0
 23 22  1  0  0  0  0
 24 19  2  0  0  0  0
 25 20  1  0  0  0  0
 26 27  1  0  0  0  0
 26 13  2  0  0  0  0
 28 30  1  0  0  0  0
 28  5  1  0  0  0  0
 29 28  1  0  0  0  0
 31 28  1  0  0  0  0
M  END
