3
q = 0.0, confidence = 0.996

 40 43  0  0  0  0  0  0  0  0999 V2000
    2.5273    1.1437   -0.9299 N   0  0  0  0  0  0  0  0  0  0  0  0
    1.0461    1.1727   -2.5040 N   0  0  0  0  0  0  0  0  0  0  0  0
    1.2371    0.7984   -1.2066 C   0  0  0  0  0  2  0  0  0  0  0  0
    2.1964    1.7542   -3.0255 C   0  0  0  0  0  0  0  0  0  0  0  0
    2.2492    2.1205   -4.0548 H   0  0  0  0  0  0  0  0  0  0  0  0
    3.1392    1.7271   -2.0305 C   0  0  0  0  0  0  0  0  0  0  0  0
    4.1856    2.0452   -2.0142 H   0  0  0  0  0  0  0  0  0  0  0  0
    3.1807    0.8898    0.3608 C   0  0  0  0  0  0  0  0  0  0  0  0
    2.4531    0.2931    0.9428 H   0  0  0  0  0  0  0  0  0  0  0  0
    3.2774    1.8501    0.8989 H   0  0  0  0  0  0  0  0  0  0  0  0
    4.4962    0.1600    0.2138 C   0  0  0  0  0  0  0  0  0  0  0  0
    4.4721   -1.2074   -0.1821 C   0  0  0  0  0  0  0  0  0  0  0  0
    3.2518   -1.9068   -0.4593 C   0  0  0  0  0  0  0  0  0  0  0  0
    2.2850   -1.3943   -0.3695 H   0  0  0  0  0  0  0  0  0  0  0  0
    3.2517   -3.2255   -0.8722 C   0  0  0  0  0  0  0  0  0  0  0  0
    2.2868   -3.7036   -1.1032 H   0  0  0  0  0  0  0  0  0  0  0  0
    4.4795   -3.9380   -1.0151 C   0  0  0  0  0  0  0  0  0  0  0  0
    4.4665   -4.9888   -1.3422 H   0  0  0  0  0  0  0  0  0  0  0  0
    5.6798   -3.3083   -0.7474 C   0  0  0  0  0  0  0  0  0  0  0  0
    6.6340   -3.8478   -0.8539 H   0  0  0  0  0  0  0  0  0  0  0  0
    5.7188   -1.9358   -0.3355 C   0  0  0  0  0  0  0  0  0  0  0  0
    6.9341   -1.2741   -0.0841 C   0  0  0  0  0  0  0  0  0  0  0  0
    7.8802   -1.8277   -0.1963 H   0  0  0  0  0  0  0  0  0  0  0  0
    6.9766    0.0796    0.2929 C   0  0  0  0  0  0  0  0  0  0  0  0
    8.2252    0.7443    0.5256 C   0  0  0  0  0  0  0  0  0  0  0  0
    9.1525    0.1605    0.4159 H   0  0  0  0  0  0  0  0  0  0  0  0
    8.2719    2.0791    0.8720 C   0  0  0  0  0  0  0  0  0  0  0  0
    9.2380    2.5762    1.0455 H   0  0  0  0  0  0  0  0  0  0  0  0
    7.0591    2.8196    1.0025 C   0  0  0  0  0  0  0  0  0  0  0  0
    7.0992    3.8855    1.2737 H   0  0  0  0  0  0  0  0  0  0  0  0
    5.8347    2.2135    0.7945 C   0  0  0  0  0  0  0  0  0  0  0  0
    4.9218    2.8151    0.9043 H   0  0  0  0  0  0  0  0  0  0  0  0
    5.7331    0.8250    0.4382 C   0  0  0  0  0  0  0  0  0  0  0  0
   -0.2161    0.9998   -3.2263 C   0  0  0  0  0  0  0  0  0  0  0  0
   -0.5848   -0.0175   -2.9842 H   0  0  0  0  0  0  0  0  0  0  0  0
    0.0251    1.0129   -4.3079 H   0  0  0  0  0  0  0  0  0  0  0  0
   -1.2464    2.0685   -2.8749 C   0  0  0  0  0  0  0  0  0  0  0  0
   -2.1924    1.8818   -3.4208 H   0  0  0  0  0  0  0  0  0  0  0  0
   -0.8861    3.0828   -3.1394 H   0  0  0  0  0  0  0  0  0  0  0  0
   -1.4693    2.0601   -1.7897 H   0  0  0  0  0  0  0  0  0  0  0  0
  1  8  1  0  0  0  0
  2  3  1  0  0  0  0
  3  1  1  0  0  0  0
  4  2  1  0  0  0  0
  4  6  2  0  0  0  0
  5  4  1  0  0  0  0
  6  7  1  0  0  0  0
  6  1  1  0  0  0  0
  8 10  1  0  0  0  0
  8  9  1  0  0  0  0
 11  8  1  0  0  0  0
 11 33  1  0  0  0  0
 12 11  2  0  0  0  0
 13 14  1  0  0  0  0
 13 12  1  0  0  0  0
 15 13  2  0  0  0  0
 16 15  1  0  0  0  0
 17 15  1  0  0  0  0
 17 19  2  0  0  0  0
 18 17  1  0  0  0  0
 19 21  1  0  0  0  0
 20 19  1  0  0  0  0
 21 12  1  0  0  0  0
 21 22  2  0  0  0  0
 22 24  1  0  0  0  0
 23 22  1  0  0  0  0
 24 33  2  0  0  0  0
 24 25  1  0  0  0  0
 25 27  2  0  0  0  0
 26 25  1  0  0  0  0
 27 29  1  0  0  0  0
 27 28  1  0  0  0  0
 29 30  1  0  0  0  0
 31 32  1  0  0  0  0
 31 29  2  0  0  0  0
 33 31  1  0  0  0  0
 34 35  1  0  0  0  0
 34 37  1  0  0  0  0
 34  2  1  0  0  0  0
 36 34  1  0  0  0  0
 37 40  1  0  0  0  0
 38 37  1  0  0  0  0
 39 37  1  0  0  0  0
M  END
