1
q = 0.0, confidence = 0.988

 34 35  0  0  0  0  0  0  0  0999 V2000
   -0.4242    0.0449   -0.0072 C   0  0  0  0  0  2  0  0  0  0  0  0
   -1.2570   -0.8924    0.5505 N   0  0  0  0  0  0  0  0  0  0  0  0
   -1.2355    1.0293   -0.5194 N   0  0  0  0  0  0  0  0  0  0  0  0
   -3.6594   -1.2207    0.7399 N   0  0  0  0  0  0  0  0  0  0  0  0
   -0.9066   -2.8816   -1.2670 O   0  0  0  0  0  0  0  0  0  0  0  0
   -2.5878   -0.5385    0.3589 C   0  0  0  0  0  0  0  0  0  0  0  0
   -2.5730    0.7082   -0.3166 C   0  0  0  0  0  0  0  0  0  0  0  0
   -3.7951    1.3088   -0.6388 C   0  0  0  0  0  0  0  0  0  0  0  0
   -3.8608    2.2710   -1.1658 H   0  0  0  0  0  0  0  0  0  0  0  0
   -4.9443    0.5986   -0.2480 C   0  0  0  0  0  0  0  0  0  0  0  0
   -5.9428    1.0027   -0.4674 H   0  0  0  0  0  0  0  0  0  0  0  0
   -4.8318   -0.6366    0.4284 C   0  0  0  0  0  0  0  0  0  0  0  0
   -5.7428   -1.1792    0.7316 H   0  0  0  0  0  0  0  0  0  0  0  0
   -0.8176   -2.1807    1.0316 C   0  0  0  0  0  0  0  0  0  0  0  0
   -1.6371   -2.6153    1.6424 H   0  0  0  0  0  0  0  0  0  0  0  0
    0.0783   -2.0561    1.6721 H   0  0  0  0  0  0  0  0  0  0  0  0
   -0.5216   -3.1389   -0.1428 C   0  0  0  0  0  0  0  0  0  0  0  0
    0.2762   -4.3679    0.2168 C   0  0  0  0  0  0  0  0  0  0  0  0
    0.2135   -5.1132   -0.5960 H   0  0  0  0  0  0  0  0  0  0  0  0
   -0.0502   -4.8085    1.1807 H   0  0  0  0  0  0  0  0  0  0  0  0
    1.3377   -4.0610    0.3414 H   0  0  0  0  0  0  0  0  0  0  0  0
   -0.7584    2.2605   -1.1488 C   0  0  0  0  0  0  0  0  0  0  0  0
   -1.3200    2.3919   -2.0967 H   0  0  0  0  0  0  0  0  0  0  0  0
    0.3024    2.0808   -1.4130 H   0  0  0  0  0  0  0  0  0  0  0  0
   -0.9154    3.4934   -0.2488 C   0  0  0  0  0  0  0  0  0  0  0  0
   -0.6471    4.3815   -0.8616 H   0  0  0  0  0  0  0  0  0  0  0  0
   -1.9894    3.6153    0.0099 H   0  0  0  0  0  0  0  0  0  0  0  0
   -0.0711    3.4754    1.0333 C   0  0  0  0  0  0  0  0  0  0  0  0
   -0.4149    4.3096    1.6811 H   0  0  0  0  0  0  0  0  0  0  0  0
   -0.2885    2.5454    1.6042 H   0  0  0  0  0  0  0  0  0  0  0  0
    1.4355    3.5943    0.7990 C   0  0  0  0  0  0  0  0  0  0  0  0
    1.8435    2.7215    0.2471 H   0  0  0  0  0  0  0  0  0  0  0  0
    1.9854    3.6415    1.7597 H   0  0  0  0  0  0  0  0  0  0  0  0
    1.6841    4.5103    0.2232 H   0  0  0  0  0  0  0  0  0  0  0  0
  1  2  1  0  0  0  0
  2 14  1  0  0  0  0
  3  7  1  0  0  0  0
  3  1  1  0  0  0  0
  5 17  2  0  0  0  0
  6  2  1  0  0  0  0
  6  4  2  0  0  0  0
  7  6  1  0  0  0  0
  8  7  2  0  0  0  0
  8 10  1  0  0  0  0
  9  8  1  0  0  0  0
 10 12  2  0  0  0  0
 11 10  1  0  0  0  0
 12 13  1  0  0  0  0
 12  4  1  0  0  0  0
 14 15  1  0  0  0  0
 14 16  1  0  0  0  0
 17 18  1  0  0  0  0
 17 14  1  0  0  0  0
 18 21  1  0  0  0  0
 18 20  1  0  0  0  0
 19 18  1  0  0  0  0
 22  3  1  0  0  0  0
 22 25  1  0  0  0  0
 23 22  1  0  0  0  0
 24 22  1  0  0  0  0
 25 27  1  0  0  0  0
 25 28  1  0  0  0  0
 26 25  1  0  0  0  0
 28 30  1  0  0  0  0
 28 29  1  0  0  0  0
 31 28  1  0  0  0  0
 31 33  1  0  0  0  0
 32 31  1  0  0  0  0
 34 31  1  0  0  0  0
M  END
