2
q = 0.0, confidence = 1.0

 59 61  0  0  0  0  0  0  0  0999 V2000
   -0.3395   -1.2196   -0.0439 N   0  0  0  0  0  0  0  0  0  0  0  0
    0.6664   -0.3574   -0.0961 C   0  0  0  0  0  2  0  0  0  0  0  0
    0.0600   -2.6875   -0.0513 C   0  0  0  0  0  0  0  0  0  0  0  0
    1.5546   -2.5771   -0.4298 C   0  0  0  0  0  0  0  0  0  0  0  0
    1.9826   -1.1108   -0.1593 C   0  0  0  0  0  0  0  0  0  0  0  0
   -1.7257   -0.8103    0.0482 C   0  0  0  0  0  0  0  0  0  0  0  0
   -2.3059   -0.5787    1.3234 C   0  0  0  0  0  0  0  0  0  0  0  0
   -3.6806   -0.2767    1.3685 C   0  0  0  0  0  0  0  0  0  0  0  0
   -4.4435   -0.1746    0.2013 C   0  0  0  0  0  0  0  0  0  0  0  0
   -3.8295   -0.3262   -1.0464 C   0  0  0  0  0  0  0  0  0  0  0  0
   -2.4606   -0.6333   -1.1545 C   0  0  0  0  0  0  0  0  0  0  0  0
   -1.4953   -0.5147    2.6139 C   0  0  0  0  0  0  0  0  0  0  0  0
   -2.0606   -1.4119    3.7263 C   0  0  0  0  0  0  0  0  0  0  0  0
   -1.3886    0.9466    3.0920 C   0  0  0  0  0  0  0  0  0  0  0  0
   -1.8056   -0.6364   -2.5318 C   0  0  0  0  0  0  0  0  0  0  0  0
   -2.5424   -1.5217   -3.5487 C   0  0  0  0  0  0  0  0  0  0  0  0
   -1.6752    0.8102   -3.0465 C   0  0  0  0  0  0  0  0  0  0  0  0
   -0.1564   -3.3044    1.3378 C   0  0  0  0  0  0  0  0  0  0  0  0
   -0.7481   -3.4849   -1.0787 C   0  0  0  0  0  0  0  0  0  0  0  0
    2.7074   -0.9240    1.2064 C   0  0  0  0  0  0  0  0  0  0  0  0
    4.1125   -1.5372    1.2116 C   0  0  0  0  0  0  0  0  0  0  0  0
    4.9741   -0.9900    0.0676 C   0  0  0  0  0  0  0  0  0  0  0  0
    4.2775   -1.1755   -1.2856 C   0  0  0  0  0  0  0  0  0  0  0  0
    2.8840   -0.5391   -1.2806 C   0  0  0  0  0  0  0  0  0  0  0  0
    1.6795   -2.8046   -1.5079 H   0  0  0  0  0  0  0  0  0  0  0  0
    2.1624   -3.3151    0.1274 H   0  0  0  0  0  0  0  0  0  0  0  0
   -4.1554   -0.0948    2.3443 H   0  0  0  0  0  0  0  0  0  0  0  0
   -5.5171    0.0592    0.2628 H   0  0  0  0  0  0  0  0  0  0  0  0
   -4.4204   -0.1838   -1.9634 H   0  0  0  0  0  0  0  0  0  0  0  0
   -0.4659   -0.8526    2.3877 H   0  0  0  0  0  0  0  0  0  0  0  0
   -2.1588   -2.4683    3.4064 H   0  0  0  0  0  0  0  0  0  0  0  0
   -3.0634   -1.0687    4.0534 H   0  0  0  0  0  0  0  0  0  0  0  0
   -1.4005   -1.3836    4.6168 H   0  0  0  0  0  0  0  0  0  0  0  0
   -2.3856    1.3537    3.3584 H   0  0  0  0  0  0  0  0  0  0  0  0
   -0.9541    1.5968    2.3055 H   0  0  0  0  0  0  0  0  0  0  0  0
   -0.7422    1.0128    3.9910 H   0  0  0  0  0  0  0  0  0  0  0  0
   -0.7759   -1.0291   -2.4187 H   0  0  0  0  0  0  0  0  0  0  0  0
   -1.9850   -1.5535   -4.5067 H   0  0  0  0  0  0  0  0  0  0  0  0
   -3.5537   -1.1266   -3.7754 H   0  0  0  0  0  0  0  0  0  0  0  0
   -2.6643   -2.5615   -3.1855 H   0  0  0  0  0  0  0  0  0  0  0  0
   -1.1111    1.4407   -2.3289 H   0  0  0  0  0  0  0  0  0  0  0  0
   -2.6734    1.2720   -3.1917 H   0  0  0  0  0  0  0  0  0  0  0  0
   -1.1435    0.8305   -4.0198 H   0  0  0  0  0  0  0  0  0  0  0  0
    0.4363   -2.7937    2.1194 H   0  0  0  0  0  0  0  0  0  0  0  0
    0.1539   -4.3674    1.3124 H   0  0  0  0  0  0  0  0  0  0  0  0
   -1.2243   -3.2697    1.6261 H   0  0  0  0  0  0  0  0  0  0  0  0
   -0.4219   -4.5431   -1.0457 H   0  0  0  0  0  0  0  0  0  0  0  0
   -0.5884   -3.1135   -2.1073 H   0  0  0  0  0  0  0  0  0  0  0  0
   -1.8327   -3.4548   -0.8551 H   0  0  0  0  0  0  0  0  0  0  0  0
    2.0901   -1.3521    2.0237 H   0  0  0  0  0  0  0  0  0  0  0  0
    2.7697    0.1677    1.4057 H   0  0  0  0  0  0  0  0  0  0  0  0
    4.5941   -1.3410    2.1921 H   0  0  0  0  0  0  0  0  0  0  0  0
    4.0415   -2.6447    1.1220 H   0  0  0  0  0  0  0  0  0  0  0  0
    5.1547    0.0950    0.2357 H   0  0  0  0  0  0  0  0  0  0  0  0
    5.9707   -1.4786    0.0656 H   0  0  0  0  0  0  0  0  0  0  0  0
    4.1982   -2.2618   -1.5178 H   0  0  0  0  0  0  0  0  0  0  0  0
    4.8857   -0.7310   -2.1004 H   0  0  0  0  0  0  0  0  0  0  0  0
    2.9694    0.5581   -1.1236 H   0  0  0  0  0  0  0  0  0  0  0  0
    2.3786   -0.6729   -2.2604 H   0  0  0  0  0  0  0  0  0  0  0  0
  1  6  1  0  0  0  0
  2  1  1  0  0  0  0
  3  1  1  0  0  0  0
  3 18  1  0  0  0  0
  4  5  1  0  0  0  0
  4  3  1  0  0  0  0
  4 26  1  0  0  0  0
  5  2  1  0  0  0  0
  5 20  1  0  0  0  0
  6  7  1  0  0  0  0
  7  8  2  0  0  0  0
  7 12  1  0  0  0  0
  8 27  1  0  0  0  0
  9 28  1  0  0  0  0
  9  8  1  0  0  0  0
 10  9  2  0  0  0  0
 11 10  1  0  0  0  0
 11  6  2  0  0  0  0
 12 14  1  0  0  0  0
 12 13  1  0  0  0  0
 13 32  1  0  0  0  0
 13 33  1  0  0  0  0
 14 34  1  0  0  0  0
 14 36  1  0  0  0  0
 15 37  1  0  0  0  0
 15 11  1  0  0  0  0
 16 40  1  0  0  0  0
 16 15  1  0  0  0  0
 17 15  1  0  0  0  0
 17 41  1  0  0  0  0
 18 46  1  0  0  0  0
 18 44  1  0  0  0  0
 19 47  1  0  0  0  0
 19 49  1  0  0  0  0
 19  3  1  0  0  0  0
 20 21  1  0  0  0  0
 20 51  1  0  0  0  0
 20 50  1  0  0  0  0
 21 52  1  0  0  0  0
 22 54  1  0  0  0  0
 22 21  1  0  0  0  0
 23 24  1  0  0  0  0
 23 22  1  0  0  0  0
 24 58  1  0  0  0  0
 24  5  1  0  0  0  0
 25  4  1  0  0  0  0
 29 10  1  0  0  0  0
 30 12  1  0  0  0  0
 31 13  1  0  0  0  0
 35 14  1  0  0  0  0
 38 16  1  0  0  0  0
 39 16  1  0  0  0  0
 42 17  1  0  0  0  0
 43 17  1  0  0  0  0
 45 18  1  0  0  0  0
 48 19  1  0  0  0  0
 53 21  1  0  0  0  0
 55 22  1  0  0  0  0
 56 23  1  0  0  0  0
 57 23  1  0  0  0  0
 59 24  1  0  0  0  0
M  END
