1
q = 0.0, confidence = 0.984

 35 36  0  0  1  0  0  0  0  0999 V2000
    0.2986    0.3958    0.4560 C   0  0  0  0  0  2  0  0  0  0  0  0
   -0.4950    0.7210    1.4455 N   0  0  0  0  0  0  0  0  0  0  0  0
   -0.4093    0.8170    2.8818 C   0  0  0  0  0  0  0  0  0  0  0  0
   -0.9660   -0.0122    3.3729 H   0  0  0  0  0  0  0  0  0  0  0  0
   -0.8470    1.7743    3.2353 H   0  0  0  0  0  0  0  0  0  0  0  0
    0.6479    0.7559    3.2051 H   0  0  0  0  0  0  0  0  0  0  0  0
   -1.2494    0.7509    0.1133 B   0  0  1  0  0  0  0  0  0  0  0  0
   -1.7535    2.1486   -0.5734 C   0  0  0  0  0  0  0  0  0  0  0  0
   -0.8550    3.3007   -0.0958 C   0  0  0  0  0  0  0  0  0  0  0  0
   -1.1465    4.2657   -0.5664 H   0  0  0  0  0  0  0  0  0  0  0  0
    0.2114    3.1136   -0.3336 H   0  0  0  0  0  0  0  0  0  0  0  0
   -0.9161    3.4326    1.0045 H   0  0  0  0  0  0  0  0  0  0  0  0
   -3.2118    2.4754   -0.1930 C   0  0  0  0  0  0  0  0  0  0  0  0
   -3.5621    3.4134   -0.6805 H   0  0  0  0  0  0  0  0  0  0  0  0
   -3.3283    2.6198    0.9024 H   0  0  0  0  0  0  0  0  0  0  0  0
   -3.9126    1.6701   -0.5043 H   0  0  0  0  0  0  0  0  0  0  0  0
   -1.6686    2.0371   -2.1078 C   0  0  0  0  0  0  0  0  0  0  0  0
   -1.9813    2.9830   -2.6054 H   0  0  0  0  0  0  0  0  0  0  0  0
   -2.3337    1.2364   -2.4977 H   0  0  0  0  0  0  0  0  0  0  0  0
   -0.6367    1.8067   -2.4442 H   0  0  0  0  0  0  0  0  0  0  0  0
   -2.1722   -0.5500   -0.1446 C   0  0  2  0  0  3  0  0  0  0  0  0
   -3.2070   -1.0114    0.6192 N   0  0  0  0  0  0  0  0  0  0  0  0
   -3.7070   -2.1994    0.1068 C   0  0  0  0  0  0  0  0  0  0  0  0
   -4.5307   -2.7418    0.5800 H   0  0  0  0  0  0  0  0  0  0  0  0
   -2.9661   -2.4843   -1.0107 C   0  0  0  0  0  0  0  0  0  0  0  0
   -3.0118   -3.3275   -1.7057 H   0  0  0  0  0  0  0  0  0  0  0  0
   -2.0373   -1.4659   -1.1456 N   0  0  0  0  0  0  0  0  0  0  0  0
   -3.7089   -0.3616    1.8202 C   0  0  0  0  0  0  0  0  0  0  0  0
   -4.7793   -0.1050    1.6993 H   0  0  0  0  0  0  0  0  0  0  0  0
   -3.1310    0.5631    1.9821 H   0  0  0  0  0  0  0  0  0  0  0  0
   -3.5855   -1.0279    2.6961 H   0  0  0  0  0  0  0  0  0  0  0  0
   -1.0152   -1.4105   -2.1818 C   0  0  0  0  0  0  0  0  0  0  0  0
   -0.5731   -2.4158   -2.3059 H   0  0  0  0  0  0  0  0  0  0  0  0
   -0.2265   -0.7185   -1.8361 H   0  0  0  0  0  0  0  0  0  0  0  0
   -1.4470   -1.0571   -3.1382 H   0  0  0  0  0  0  0  0  0  0  0  0
  1  2  1  0  0  0  0
  2  3  1  0  0  0  0
  3  6  1  0  0  0  0
  3  5  1  0  0  0  0
  3  4  1  0  0  0  0
  7  8  1  6  0  0  0
  7  1  1  0  0  0  0
  7  2  1  0  0  0  0
  8 13  1  0  0  0  0
  8  9  1  0  0  0  0
  9 12  1  0  0  0  0
 10  9  1  0  0  0  0
 11  9  1  0  0  0  0
 13 15  1  0  0  0  0
 14 13  1  0  0  0  0
 16 13  1  0  0  0  0
 17  8  1  0  0  0  0
 18 17  1  0  0  0  0
 19 17  1  0  0  0  0
 20 17  1  0  0  0  0
 21 27  1  1  0  0  0
 21  7  1  0  0  0  0
 21 22  1  0  0  0  0
 22 28  1  0  0  0  0
 23 24  1  0  0  0  0
 23 22  1  0  0  0  0
 25 23  2  0  0  0  0
 26 25  1  0  0  0  0
 27 25  1  0  0  0  0
 28 30  1  0  0  0  0
 28 31  1  0  0  0  0
 29 28  1  0  0  0  0
 32 34  1  0  0  0  0
 32 27  1  0  0  0  0
 33 32  1  0  0  0  0
 35 32  1  0  0  0  0
M  END
