3
q = 0.0, confidence = 0.998

 19 19  0  0  0  0  0  0  0  0999 V2000
    0.7235    2.1282   -0.4013 N   0  0  0  0  0  0  0  0  0  0  0  0
    1.8662    0.5122    0.4841 N   0  0  0  0  0  0  0  0  0  0  0  0
    0.5998    0.8458    0.0715 C   0  0  0  0  0  2  0  0  0  0  0  0
    2.5202   -1.8656   -1.1093 O   0  0  0  0  0  0  0  0  0  0  0  0
    3.1172   -2.3359   -1.7194 H   0  0  0  0  0  0  0  0  0  0  0  0
    2.0296    2.5824   -0.2768 C   0  0  0  0  0  0  0  0  0  0  0  0
    2.3311    3.5869   -0.5883 H   0  0  0  0  0  0  0  0  0  0  0  0
    2.7496    1.5645    0.2801 C   0  0  0  0  0  0  0  0  0  0  0  0
    3.8082    1.5029    0.5489 H   0  0  0  0  0  0  0  0  0  0  0  0
   -0.3392    2.9693   -0.9422 C   0  0  0  0  0  0  0  0  0  0  0  0
   -1.0413    2.3574   -1.5324 H   0  0  0  0  0  0  0  0  0  0  0  0
    0.1120    3.7311   -1.6028 H   0  0  0  0  0  0  0  0  0  0  0  0
   -0.8957    3.4793   -0.1325 H   0  0  0  0  0  0  0  0  0  0  0  0
    2.3264   -0.7760    1.0077 C   0  0  0  0  0  0  0  0  0  0  0  0
    1.4373   -1.3926    1.2189 H   0  0  0  0  0  0  0  0  0  0  0  0
    2.8503   -0.5976    1.9683 H   0  0  0  0  0  0  0  0  0  0  0  0
    3.2512   -1.5211    0.0531 C   0  0  0  0  0  0  0  0  0  0  0  0
    4.1384   -0.8871   -0.1861 H   0  0  0  0  0  0  0  0  0  0  0  0
    3.6305   -2.4174    0.5986 H   0  0  0  0  0  0  0  0  0  0  0  0
  1  6  1  0  0  0  0
  1  3  1  0  0  0  0
  2 14  1  0  0  0  0
  3  2  1  0  0  0  0
  4 17  1  0  0  0  0
  5  4  1  0  0  0  0
  6  8  2  0  0  0  0
  7  6  1  0  0  0  0
  8  2  1  0  0  0  0
  8  9  1  0  0  0  0
 10  1  1  0  0  0  0
 10 13  1  0  0  0  0
 11 10  1  0  0  0  0
 12 10  1  0  0  0  0
 14 15  1  0  0  0  0
 14 16  1  0  0  0  0
 17 19  1  0  0  0  0
 17 14  1  0  0  0  0
 18 17  1  0  0  0  0
M  END
