9
q = 0.0, confidence = 0.966

 23 23  0  0  0  0  0  0  0  0999 V2000
   -0.0148   -2.2918    0.6273 O   0  0  0  0  0  0  0  0  0  0  0  0
    0.0540   -3.7531    0.5098 C   0  0  0  0  0  0  0  0  0  0  0  0
   -0.9551   -4.1740    0.6925 H   0  0  0  0  0  0  0  0  0  0  0  0
    0.3666   -3.9944   -0.5267 H   0  0  0  0  0  0  0  0  0  0  0  0
    1.0613   -4.2443    1.5245 C   0  0  0  0  0  0  0  0  0  0  0  0
    2.0699   -3.8428    1.3077 H   0  0  0  0  0  0  0  0  0  0  0  0
    1.1180   -5.3496    1.4801 H   0  0  0  0  0  0  0  0  0  0  0  0
    0.7685   -3.9579    2.5539 H   0  0  0  0  0  0  0  0  0  0  0  0
   -0.7692   -1.5146   -0.1346 C   0  0  0  0  0  2  0  0  0  0  0  0
   -1.7553   -2.1625   -1.0783 C   0  0  0  0  0  0  0  0  0  0  0  0
   -1.5832   -3.2486   -1.1982 H   0  0  0  0  0  0  0  0  0  0  0  0
   -1.5972   -1.6656   -2.0594 H   0  0  0  0  0  0  0  0  0  0  0  0
   -3.1829   -1.8979   -0.6265 C   0  0  0  0  0  0  0  0  0  0  0  0
   -3.7169   -2.5800    0.4854 C   0  0  0  0  0  0  0  0  0  0  0  0
   -3.1187   -3.3495    0.9996 H   0  0  0  0  0  0  0  0  0  0  0  0
   -5.0137   -2.2961    0.9422 C   0  0  0  0  0  0  0  0  0  0  0  0
   -5.4213   -2.8396    1.8078 H   0  0  0  0  0  0  0  0  0  0  0  0
   -5.7913   -1.3257    0.2891 C   0  0  0  0  0  0  0  0  0  0  0  0
   -6.8093   -1.1047    0.6431 H   0  0  0  0  0  0  0  0  0  0  0  0
   -5.2688   -0.6502   -0.8266 C   0  0  0  0  0  0  0  0  0  0  0  0
   -5.8800    0.0998   -1.3514 H   0  0  0  0  0  0  0  0  0  0  0  0
   -3.9703   -0.9303   -1.2798 C   0  0  0  0  0  0  0  0  0  0  0  0
   -3.5459   -0.3865   -2.1375 H   0  0  0  0  0  0  0  0  0  0  0  0
  2  1  1  0  0  0  0
  2  3  1  0  0  0  0
  2  5  1  0  0  0  0
  4  2  1  0  0  0  0
  5  8  1  0  0  0  0
  6  5  1  0  0  0  0
  7  5  1  0  0  0  0
  9  1  1  0  0  0  0
 10 13  1  0  0  0  0
 10  9  1  0  0  0  0
 11 10  1  0  0  0  0
 12 10  1  0  0  0  0
 13 14  1  0  0  0  0
 14 16  2  0  0  0  0
 14 15  1  0  0  0  0
 16 17  1  0  0  0  0
 18 19  1  0  0  0  0
 18 16  1  0  0  0  0
 20 18  2  0  0  0  0
 21 20  1  0  0  0  0
 22 20  1  0  0  0  0
 22 13  2  0  0  0  0
 23 22  1  0  0  0  0
M  END
