5
q = 0.0, confidence = 1.0

 22 23  0  0  0  0  0  0  0  0999 V2000
   -2.0830    1.0031    2.3479 O   0  0  0  0  0  0  0  0  0  0  0  0
   -1.2911   -0.7530   -1.4808 N   0  0  0  0  0  0  0  0  0  0  0  0
   -0.8217   -0.7584   -2.3870 H   0  0  0  0  0  0  0  0  0  0  0  0
   -1.6061   -0.4968    0.6566 N   0  0  0  0  0  0  0  0  0  0  0  0
   -0.6626   -0.3612   -0.3316 C   0  0  0  0  0  2  0  0  0  0  0  0
   -2.8285   -0.9448    0.1339 C   0  0  0  0  0  0  0  0  0  0  0  0
   -2.6208   -1.1204   -1.2539 C   0  0  0  0  0  0  0  0  0  0  0  0
   -3.6409   -1.5766   -2.0981 C   0  0  0  0  0  0  0  0  0  0  0  0
   -3.4818   -1.7149   -3.1768 H   0  0  0  0  0  0  0  0  0  0  0  0
   -4.8810   -1.8465   -1.4997 C   0  0  0  0  0  0  0  0  0  0  0  0
   -5.7106   -2.2052   -2.1258 H   0  0  0  0  0  0  0  0  0  0  0  0
   -5.0911   -1.6616   -0.1149 C   0  0  0  0  0  0  0  0  0  0  0  0
   -6.0821   -1.8756    0.3106 H   0  0  0  0  0  0  0  0  0  0  0  0
   -4.0692   -1.2020    0.7296 C   0  0  0  0  0  0  0  0  0  0  0  0
   -4.2400   -1.0345    1.8014 H   0  0  0  0  0  0  0  0  0  0  0  0
   -1.3752   -0.1668    2.0430 C   0  0  0  0  0  0  0  0  0  0  0  0
   -1.7158   -1.0191    2.6818 H   0  0  0  0  0  0  0  0  0  0  0  0
   -0.2712   -0.0471    2.1639 H   0  0  0  0  0  0  0  0  0  0  0  0
   -2.0677    1.3085    3.7356 C   0  0  0  0  0  0  0  0  0  0  0  0
   -2.5240    0.4893    4.3382 H   0  0  0  0  0  0  0  0  0  0  0  0
   -2.6639    2.2289    3.8717 H   0  0  0  0  0  0  0  0  0  0  0  0
   -1.0335    1.4892    4.1085 H   0  0  0  0  0  0  0  0  0  0  0  0
  1 19  1  0  0  0  0
  2  7  1  0  0  0  0
  2  5  1  0  0  0  0
  3  2  1  0  0  0  0
  4 16  1  0  0  0  0
  5  4  1  0  0  0  0
  6  4  1  0  0  0  0
  6 14  1  0  0  0  0
  7  6  2  0  0  0  0
  8 10  2  0  0  0  0
  8  7  1  0  0  0  0
  9  8  1  0  0  0  0
 10 12  1  0  0  0  0
 11 10  1  0  0  0  0
 12 13  1  0  0  0  0
 12 14  2  0  0  0  0
 14 15  1  0  0  0  0
 16 18  1  0  0  0  0
 16  1  1  0  0  0  0
 16 17  1  0  0  0  0
 19 21  1  0  0  0  0
 19 22  1  0  0  0  0
 19 20  1  0  0  0  0
M  END
