2
q = 0.0, confidence = 0.74

 36 38  0  0  0  0  0  0  0  0999 V2000
   -1.9189   -0.4061   -0.0432 Si  0  0  0  0  0  0  0  0  0  0  0  0
   -0.1686   -1.1038   -0.1294 C   0  0  0  0  0  2  0  0  0  0  0  0
   -3.0574   -1.8516    0.4120 C   0  0  0  0  0  0  0  0  0  0  0  0
   -3.7306   -1.9236    1.6507 C   0  0  0  0  0  0  0  0  0  0  0  0
   -3.6069   -1.1126    2.3859 H   0  0  0  0  0  0  0  0  0  0  0  0
   -4.5602   -3.0148    1.9577 C   0  0  0  0  0  0  0  0  0  0  0  0
   -5.0785   -3.0534    2.9285 H   0  0  0  0  0  0  0  0  0  0  0  0
   -4.7302   -4.0526    1.0286 C   0  0  0  0  0  0  0  0  0  0  0  0
   -5.3807   -4.9079    1.2684 H   0  0  0  0  0  0  0  0  0  0  0  0
   -4.0706   -3.9957   -0.2108 C   0  0  0  0  0  0  0  0  0  0  0  0
   -4.2052   -4.8051   -0.9450 H   0  0  0  0  0  0  0  0  0  0  0  0
   -3.2441   -2.9040   -0.5144 C   0  0  0  0  0  0  0  0  0  0  0  0
   -2.7417   -2.8648   -1.4954 H   0  0  0  0  0  0  0  0  0  0  0  0
   -2.0713    0.9324    1.2821 C   0  0  0  0  0  0  0  0  0  0  0  0
   -2.8122    2.1117    1.0459 C   0  0  0  0  0  0  0  0  0  0  0  0
   -3.2539    2.2871    0.0518 H   0  0  0  0  0  0  0  0  0  0  0  0
   -2.9941    3.0646    2.0619 C   0  0  0  0  0  0  0  0  0  0  0  0
   -3.5733    3.9789    1.8596 H   0  0  0  0  0  0  0  0  0  0  0  0
   -2.4356    2.8519    3.3327 C   0  0  0  0  0  0  0  0  0  0  0  0
   -2.5759    3.5985    4.1295 H   0  0  0  0  0  0  0  0  0  0  0  0
   -1.6889    1.6883    3.5810 C   0  0  0  0  0  0  0  0  0  0  0  0
   -1.2354    1.5229    4.5703 H   0  0  0  0  0  0  0  0  0  0  0  0
   -1.5084    0.7382    2.5644 C   0  0  0  0  0  0  0  0  0  0  0  0
   -0.9008   -0.1572    2.7682 H   0  0  0  0  0  0  0  0  0  0  0  0
   -2.4670    0.2780   -1.7181 C   0  0  0  0  0  0  0  0  0  0  0  0
   -1.5500    0.7448   -2.6856 C   0  0  0  0  0  0  0  0  0  0  0  0
   -0.4671    0.6591   -2.5092 H   0  0  0  0  0  0  0  0  0  0  0  0
   -2.0032    1.3079   -3.8895 C   0  0  0  0  0  0  0  0  0  0  0  0
   -1.2722    1.6605   -4.6337 H   0  0  0  0  0  0  0  0  0  0  0  0
   -3.3791    1.4147   -4.1462 C   0  0  0  0  0  0  0  0  0  0  0  0
   -3.7332    1.8562   -5.0907 H   0  0  0  0  0  0  0  0  0  0  0  0
   -4.3040    0.9477   -3.1978 C   0  0  0  0  0  0  0  0  0  0  0  0
   -5.3844    1.0205   -3.3975 H   0  0  0  0  0  0  0  0  0  0  0  0
   -3.8504    0.3803   -1.9970 C   0  0  0  0  0  0  0  0  0  0  0  0
   -4.5847    0.0039   -1.2660 H   0  0  0  0  0  0  0  0  0  0  0  0
   -0.0909   -2.2055   -0.2401 H   0  0  0  0  0  0  0  0  0  0  0  0
  1  3  1  0  0  0  0
  1 14  1  0  0  0  0
  2  1  1  0  0  0  0
  3  4  1  0  0  0  0
  4  6  2  0  0  0  0
  4  5  1  0  0  0  0
  6  7  1  0  0  0  0
  8  9  1  0  0  0  0
  8  6  1  0  0  0  0
 10  8  2  0  0  0  0
 11 10  1  0  0  0  0
 12 10  1  0  0  0  0
 12  3  2  0  0  0  0
 13 12  1  0  0  0  0
 14 23  1  0  0  0  0
 15 14  2  0  0  0  0
 15 17  1  0  0  0  0
 16 15  1  0  0  0  0
 17 19  2  0  0  0  0
 18 17  1  0  0  0  0
 19 21  1  0  0  0  0
 19 20  1  0  0  0  0
 21 22  1  0  0  0  0
 23 24  1  0  0  0  0
 23 21  2  0  0  0  0
 25  1  1  0  0  0  0
 26 27  1  0  0  0  0
 26 25  2  0  0  0  0
 28 26  1  0  0  0  0
 29 28  1  0  0  0  0
 30 28  2  0  0  0  0
 30 32  1  0  0  0  0
 31 30  1  0  0  0  0
 32 34  2  0  0  0  0
 33 32  1  0  0  0  0
 34 25  1  0  0  0  0
 34 35  1  0  0  0  0
 36  2  1  0  0  0  0
M  END
