4
q = 0.0, confidence = 1.0

 35 35  0  0  0  0  0  0  0  0999 V2000
   -2.4516   -2.2995    0.7913 O   0  0  0  0  0  0  0  0  0  0  0  0
    1.7520   -1.7229   -0.0851 N   0  0  0  0  0  0  0  0  0  0  0  0
   -0.2967   -1.6142   -0.7828 N   0  0  0  0  0  0  0  0  0  0  0  0
    0.7479   -0.8364   -0.3503 C   0  0  0  0  0  2  0  0  0  0  0  0
    1.3391   -3.0277   -0.3276 C   0  0  0  0  0  0  0  0  0  0  0  0
    1.9911   -3.8920   -0.1754 H   0  0  0  0  0  0  0  0  0  0  0  0
    0.0392   -2.9587   -0.7577 C   0  0  0  0  0  0  0  0  0  0  0  0
   -0.6683   -3.7445   -1.0336 H   0  0  0  0  0  0  0  0  0  0  0  0
    3.0797   -1.3283    0.4242 C   0  0  0  0  0  0  0  0  0  0  0  0
    3.0429   -0.2184    0.4165 H   0  0  0  0  0  0  0  0  0  0  0  0
    4.1859   -1.7976   -0.5211 C   0  0  0  0  0  0  0  0  0  0  0  0
    4.2597   -2.9044   -0.5522 H   0  0  0  0  0  0  0  0  0  0  0  0
    5.1635   -1.4082   -0.1760 H   0  0  0  0  0  0  0  0  0  0  0  0
    4.0105   -1.4284   -1.5505 H   0  0  0  0  0  0  0  0  0  0  0  0
    3.2625   -1.8071    1.8655 C   0  0  0  0  0  0  0  0  0  0  0  0
    2.4465   -1.4267    2.5103 H   0  0  0  0  0  0  0  0  0  0  0  0
    4.2250   -1.4350    2.2680 H   0  0  0  0  0  0  0  0  0  0  0  0
    3.2736   -2.9148    1.9293 H   0  0  0  0  0  0  0  0  0  0  0  0
   -1.6063   -1.0752   -1.0822 C   0  0  0  0  0  0  0  0  0  0  0  0
   -2.0088   -1.5410   -2.0071 H   0  0  0  0  0  0  0  0  0  0  0  0
   -1.4806    0.0064   -1.2807 H   0  0  0  0  0  0  0  0  0  0  0  0
   -2.6090   -1.3355    0.0624 C   0  0  0  0  0  0  0  0  0  0  0  0
   -3.7554   -0.3284    0.2316 C   0  0  0  0  0  0  0  0  0  0  0  0
   -4.8500   -0.9567    1.1055 C   0  0  0  0  0  0  0  0  0  0  0  0
   -5.3093   -1.8329    0.6052 H   0  0  0  0  0  0  0  0  0  0  0  0
   -5.6476   -0.2146    1.3085 H   0  0  0  0  0  0  0  0  0  0  0  0
   -4.4333   -1.3045    2.0694 H   0  0  0  0  0  0  0  0  0  0  0  0
   -4.3324    0.0921   -1.1353 C   0  0  0  0  0  0  0  0  0  0  0  0
   -3.5933    0.6245   -1.7661 H   0  0  0  0  0  0  0  0  0  0  0  0
   -5.1806    0.7884   -0.9774 H   0  0  0  0  0  0  0  0  0  0  0  0
   -4.7176   -0.7795   -1.7036 H   0  0  0  0  0  0  0  0  0  0  0  0
   -3.1455    0.9033    0.9491 C   0  0  0  0  0  0  0  0  0  0  0  0
   -2.7471    0.6253    1.9448 H   0  0  0  0  0  0  0  0  0  0  0  0
   -3.9351    1.6685    1.0948 H   0  0  0  0  0  0  0  0  0  0  0  0
   -2.3209    1.3753    0.3766 H   0  0  0  0  0  0  0  0  0  0  0  0
  2  9  1  0  0  0  0
  3  7  1  0  0  0  0
  3  4  1  0  0  0  0
  4  2  1  0  0  0  0
  5  6  1  0  0  0  0
  5  2  1  0  0  0  0
  7  5  2  0  0  0  0
  8  7  1  0  0  0  0
  9 15  1  0  0  0  0
 10  9  1  0  0  0  0
 11 13  1  0  0  0  0
 11  9  1  0  0  0  0
 12 11  1  0  0  0  0
 14 11  1  0  0  0  0
 15 18  1  0  0  0  0
 15 17  1  0  0  0  0
 15 16  1  0  0  0  0
 19  3  1  0  0  0  0
 19 22  1  0  0  0  0
 20 19  1  0  0  0  0
 21 19  1  0  0  0  0
 22 23  1  0  0  0  0
 22  1  2  0  0  0  0
 23 32  1  0  0  0  0
 23 24  1  0  0  0  0
 24 26  1  0  0  0  0
 24 27  1  0  0  0  0
 25 24  1  0  0  0  0
 28 30  1  0  0  0  0
 28 23  1  0  0  0  0
 29 28  1  0  0  0  0
 31 28  1  0  0  0  0
 32 34  1  0  0  0  0
 32 33  1  0  0  0  0
 35 32  1  0  0  0  0
M  END
