3
q = 0.0, confidence = 0.994

 63 67  0  0  1  0  0  0  0  0999 V2000
   -1.0926   -1.3766   -0.0648 N   0  0  1  0  0  0  0  0  0  0  0  0
    1.0926   -1.3766    0.0643 N   0  0  1  0  0  0  0  0  0  0  0  0
    0.0000   -0.5654   -0.0001 C   0  0  0  0  0  2  0  0  0  0  0  0
   -0.7383   -2.7992   -0.1880 C   0  0  0  0  0  0  0  0  0  0  0  0
    0.7383   -2.7992    0.1873 C   0  0  0  0  0  0  0  0  0  0  0  0
   -2.4998   -0.9849   -0.0180 C   0  0  2  0  0  0  0  0  0  0  0  0
   -3.1253   -1.2519    1.3856 C   0  0  0  0  0  0  0  0  0  0  0  0
   -4.6126   -1.6233    1.3197 C   0  0  1  0  0  0  0  0  0  0  0  0
   -5.3861   -0.8002    0.2261 C   0  0  0  0  0  0  0  0  0  0  0  0
   -6.9081   -0.9815    0.3550 C   0  0  0  0  0  0  0  0  0  0  0  0
   -5.1241    0.7004    0.0725 C   0  0  0  0  0  0  0  0  0  0  0  0
   -4.7825   -1.8559   -0.7782 C   0  0  2  0  0  0  0  0  0  0  0  0
   -4.7614   -2.8625    0.4024 C   0  0  0  0  0  0  0  0  0  0  0  0
   -3.3211   -1.5937   -1.1997 C   0  0  1  0  0  0  0  0  0  0  0  0
   -3.1819   -0.7744   -2.4838 C   0  0  0  0  0  0  0  0  0  0  0  0
    2.4998   -0.9849    0.0178 C   0  0  2  0  0  0  0  0  0  0  0  0
    3.1256   -1.2517   -1.3857 C   0  0  0  0  0  0  0  0  0  0  0  0
    4.6129   -1.6232   -1.3196 C   0  0  1  0  0  0  0  0  0  0  0  0
    5.3862   -0.8002   -0.2257 C   0  0  0  0  0  0  0  0  0  0  0  0
    6.9082   -0.9815   -0.3544 C   0  0  0  0  0  0  0  0  0  0  0  0
    5.1241    0.7004   -0.0720 C   0  0  0  0  0  0  0  0  0  0  0  0
    4.7824   -1.8560    0.7783 C   0  0  2  0  0  0  0  0  0  0  0  0
    4.7615   -2.8624   -0.4024 C   0  0  0  0  0  0  0  0  0  0  0  0
    3.3209   -1.5938    1.1996 C   0  0  1  0  0  0  0  0  0  0  0  0
    3.1815   -0.7745    2.4837 C   0  0  0  0  0  0  0  0  0  0  0  0
   -0.9060   -3.1472   -1.2311 H   0  0  0  0  0  0  0  0  0  0  0  0
   -1.3594   -3.4283    0.4803 H   0  0  0  0  0  0  0  0  0  0  0  0
    1.3594   -3.4282   -0.4812 H   0  0  0  0  0  0  0  0  0  0  0  0
    0.9060   -3.1474    1.2302 H   0  0  0  0  0  0  0  0  0  0  0  0
   -2.4686    0.1070   -0.1702 H   0  0  0  0  0  0  0  0  0  0  0  0
   -2.5813   -2.0823    1.8850 H   0  0  0  0  0  0  0  0  0  0  0  0
   -2.9689   -0.3599    2.0219 H   0  0  0  0  0  0  0  0  0  0  0  0
   -5.0584   -1.6589    2.3363 H   0  0  0  0  0  0  0  0  0  0  0  0
   -7.2176   -2.0375    0.4714 H   0  0  0  0  0  0  0  0  0  0  0  0
   -7.4200   -0.5807   -0.5443 H   0  0  0  0  0  0  0  0  0  0  0  0
   -7.2898   -0.4213    1.2336 H   0  0  0  0  0  0  0  0  0  0  0  0
   -5.6220    1.0918   -0.8386 H   0  0  0  0  0  0  0  0  0  0  0  0
   -4.0602    0.9832    0.0092 H   0  0  0  0  0  0  0  0  0  0  0  0
   -5.5520    1.2473    0.9383 H   0  0  0  0  0  0  0  0  0  0  0  0
   -5.3980   -2.1034   -1.6695 H   0  0  0  0  0  0  0  0  0  0  0  0
   -5.7133   -3.4058    0.5414 H   0  0  0  0  0  0  0  0  0  0  0  0
   -3.9315   -3.6006    0.4157 H   0  0  0  0  0  0  0  0  0  0  0  0
   -2.9101   -2.6037   -1.4165 H   0  0  0  0  0  0  0  0  0  0  0  0
   -3.6494   -1.3051   -3.3378 H   0  0  0  0  0  0  0  0  0  0  0  0
   -2.1148   -0.6028   -2.7340 H   0  0  0  0  0  0  0  0  0  0  0  0
   -3.6639    0.2175   -2.3964 H   0  0  0  0  0  0  0  0  0  0  0  0
    2.4686    0.1070    0.1701 H   0  0  0  0  0  0  0  0  0  0  0  0
    2.5816   -2.0820   -1.8854 H   0  0  0  0  0  0  0  0  0  0  0  0
    2.9693   -0.3595   -2.0219 H   0  0  0  0  0  0  0  0  0  0  0  0
    5.0588   -1.6586   -2.3361 H   0  0  0  0  0  0  0  0  0  0  0  0
    7.2177   -2.0374   -0.4710 H   0  0  0  0  0  0  0  0  0  0  0  0
    7.4200   -0.5808    0.5451 H   0  0  0  0  0  0  0  0  0  0  0  0
    7.2901   -0.4211   -1.2328 H   0  0  0  0  0  0  0  0  0  0  0  0
    4.0602    0.9831   -0.0088 H   0  0  0  0  0  0  0  0  0  0  0  0
    5.5521    1.2474   -0.9378 H   0  0  0  0  0  0  0  0  0  0  0  0
    5.6220    1.0917    0.8391 H   0  0  0  0  0  0  0  0  0  0  0  0
    5.3978   -2.1035    1.6697 H   0  0  0  0  0  0  0  0  0  0  0  0
    5.7134   -3.4057   -0.5413 H   0  0  0  0  0  0  0  0  0  0  0  0
    3.9316   -3.6006   -0.4159 H   0  0  0  0  0  0  0  0  0  0  0  0
    2.9099   -2.6038    1.4162 H   0  0  0  0  0  0  0  0  0  0  0  0
    2.1144   -0.6029    2.7338 H   0  0  0  0  0  0  0  0  0  0  0  0
    3.6635    0.2174    2.3965 H   0  0  0  0  0  0  0  0  0  0  0  0
    3.6488   -1.3053    3.3378 H   0  0  0  0  0  0  0  0  0  0  0  0
  1  6  1  0  0  0  0
  1  3  1  1  0  0  0
  2  3  1  6  0  0  0
  2  5  1  0  0  0  0
  4  1  1  0  0  0  0
  4  5  1  0  0  0  0
  4 27  1  0  0  0  0
  5 29  1  0  0  0  0
  6 30  1  6  0  0  0
  6  7  1  0  0  0  0
  7 31  1  0  0  0  0
  7 32  1  0  0  0  0
  8  7  1  0  0  0  0
  8 33  1  1  0  0  0
  9 10  1  0  0  0  0
  9  8  1  0  0  0  0
 10 34  1  0  0  0  0
 10 36  1  0  0  0  0
 11  9  1  0  0  0  0
 11 39  1  0  0  0  0
 12 40  1  6  0  0  0
 12  9  1  0  0  0  0
 12 13  1  0  0  0  0
 13 42  1  0  0  0  0
 13 41  1  0  0  0  0
 13  8  1  0  0  0  0
 14 43  1  6  0  0  0
 14 12  1  0  0  0  0
 14  6  1  0  0  0  0
 15 46  1  0  0  0  0
 15 14  1  0  0  0  0
 16  2  1  0  0  0  0
 16 47  1  1  0  0  0
 16 24  1  0  0  0  0
 17 18  1  0  0  0  0
 17 16  1  0  0  0  0
 18 50  1  6  0  0  0
 18 23  1  0  0  0  0
 18 19  1  0  0  0  0
 19 21  1  0  0  0  0
 19 22  1  0  0  0  0
 20 19  1  0  0  0  0
 20 52  1  0  0  0  0
 21 54  1  0  0  0  0
 21 56  1  0  0  0  0
 22 24  1  0  0  0  0
 22 57  1  1  0  0  0
 23 22  1  0  0  0  0
 24 60  1  1  0  0  0
 24 25  1  0  0  0  0
 25 61  1  0  0  0  0
 25 63  1  0  0  0  0
 26  4  1  0  0  0  0
 28  5  1  0  0  0  0
 35 10  1  0  0  0  0
 37 11  1  0  0  0  0
 38 11  1  0  0  0  0
 44 15  1  0  0  0  0
 45 15  1  0  0  0  0
 48 17  1  0  0  0  0
 49 17  1  0  0  0  0
 51 20  1  0  0  0  0
 53 20  1  0  0  0  0
 55 21  1  0  0  0  0
 58 23  1  0  0  0  0
 59 23  1  0  0  0  0
 62 25  1  0  0  0  0
M  END
