2
q = 0.0, confidence = 0.976

 53 53  0  0  1  0  0  0  0  0999 V2000
   -0.7160   -0.9830    0.5344 N   0  0  0  0  0  0  0  0  0  0  0  0
    0.1094   -0.0950   -0.0702 C   0  0  0  0  0  2  0  0  0  0  0  0
   -0.6443    0.8524   -0.6751 N   0  0  0  0  0  0  0  0  0  0  0  0
   -2.0806    0.7274   -0.3329 C   0  0  1  0  0  0  0  0  0  0  0  0
   -2.1389   -0.7210    0.2152 C   0  0  1  0  0  0  0  0  0  0  0  0
   -2.6087    1.8289    0.6539 C   0  0  0  0  0  0  0  0  0  0  0  0
   -2.7656   -1.7639   -0.7800 C   0  0  0  0  0  0  0  0  0  0  0  0
   -1.8468    1.7983    1.9887 C   0  0  0  0  0  0  0  0  0  0  0  0
   -2.4707    3.2340    0.0361 C   0  0  0  0  0  0  0  0  0  0  0  0
   -4.1097    1.5795    0.8986 C   0  0  0  0  0  0  0  0  0  0  0  0
   -4.2478   -1.4044   -0.9968 C   0  0  0  0  0  0  0  0  0  0  0  0
   -2.7124   -3.1912   -0.2016 C   0  0  0  0  0  0  0  0  0  0  0  0
   -2.0249   -1.7601   -2.1274 C   0  0  0  0  0  0  0  0  0  0  0  0
   -0.1787    1.8123   -1.6994 C   0  0  0  0  0  0  0  0  0  0  0  0
    0.9240    2.7525   -1.2054 C   0  0  0  0  0  0  0  0  0  0  0  0
    0.2276    1.1069   -2.9995 C   0  0  0  0  0  0  0  0  0  0  0  0
   -0.3451   -1.9482    1.5948 C   0  0  0  0  0  0  0  0  0  0  0  0
   -0.0982   -1.2643    2.9450 C   0  0  0  0  0  0  0  0  0  0  0  0
    0.8231   -2.8496    1.1943 C   0  0  0  0  0  0  0  0  0  0  0  0
   -2.6747    0.8145   -1.2671 H   0  0  0  0  0  0  0  0  0  0  0  0
   -2.7282   -0.7625    1.1547 H   0  0  0  0  0  0  0  0  0  0  0  0
   -2.1618    2.6518    2.6228 H   0  0  0  0  0  0  0  0  0  0  0  0
   -2.0626    0.8754    2.5611 H   0  0  0  0  0  0  0  0  0  0  0  0
   -0.7474    1.8626    1.8500 H   0  0  0  0  0  0  0  0  0  0  0  0
   -2.9794    3.9749    0.6857 H   0  0  0  0  0  0  0  0  0  0  0  0
   -2.9441    3.2941   -0.9666 H   0  0  0  0  0  0  0  0  0  0  0  0
   -1.4150    3.5505   -0.0496 H   0  0  0  0  0  0  0  0  0  0  0  0
   -4.5108    2.3514    1.5858 H   0  0  0  0  0  0  0  0  0  0  0  0
   -4.3069    0.5933    1.3639 H   0  0  0  0  0  0  0  0  0  0  0  0
   -4.6929    1.6336   -0.0440 H   0  0  0  0  0  0  0  0  0  0  0  0
   -4.7171   -2.1331   -1.6882 H   0  0  0  0  0  0  0  0  0  0  0  0
   -4.8151   -1.4315   -0.0439 H   0  0  0  0  0  0  0  0  0  0  0  0
   -4.3797   -0.3975   -1.4396 H   0  0  0  0  0  0  0  0  0  0  0  0
   -3.2759   -3.8809   -0.8627 H   0  0  0  0  0  0  0  0  0  0  0  0
   -3.1757   -3.2469    0.8053 H   0  0  0  0  0  0  0  0  0  0  0  0
   -1.6772   -3.5770   -0.1358 H   0  0  0  0  0  0  0  0  0  0  0  0
   -2.4170   -2.5648   -2.7818 H   0  0  0  0  0  0  0  0  0  0  0  0
   -0.9383   -1.9312   -1.9886 H   0  0  0  0  0  0  0  0  0  0  0  0
   -2.1570   -0.8039   -2.6704 H   0  0  0  0  0  0  0  0  0  0  0  0
   -1.0722    2.4254   -1.9222 H   0  0  0  0  0  0  0  0  0  0  0  0
    1.0737    3.5674   -1.9421 H   0  0  0  0  0  0  0  0  0  0  0  0
    1.8815    2.2064   -1.0788 H   0  0  0  0  0  0  0  0  0  0  0  0
    0.6849    3.1910   -0.2185 H   0  0  0  0  0  0  0  0  0  0  0  0
    0.5122    1.8560   -3.7651 H   0  0  0  0  0  0  0  0  0  0  0  0
    1.0973    0.4474   -2.8182 H   0  0  0  0  0  0  0  0  0  0  0  0
   -0.5962    0.4915   -3.4094 H   0  0  0  0  0  0  0  0  0  0  0  0
   -1.2368   -2.5931    1.7015 H   0  0  0  0  0  0  0  0  0  0  0  0
    0.1812   -2.0240    3.7025 H   0  0  0  0  0  0  0  0  0  0  0  0
   -1.0089   -0.7495    3.3081 H   0  0  0  0  0  0  0  0  0  0  0  0
    0.7146   -0.5130    2.8647 H   0  0  0  0  0  0  0  0  0  0  0  0
    0.9431   -3.6549    1.9459 H   0  0  0  0  0  0  0  0  0  0  0  0
    0.6606   -3.3125    0.2005 H   0  0  0  0  0  0  0  0  0  0  0  0
    1.7681   -2.2686    1.1539 H   0  0  0  0  0  0  0  0  0  0  0  0
  1 17  1  0  0  0  0
  2  1  1  0  0  0  0
  3  4  1  0  0  0  0
  3  2  1  0  0  0  0
  4 20  1  6  0  0  0
  4  5  1  0  0  0  0
  4  6  1  0  0  0  0
  5  1  1  0  0  0  0
  5 21  1  1  0  0  0
  6 10  1  0  0  0  0
  6  8  1  0  0  0  0
  7 12  1  0  0  0  0
  7  5  1  0  0  0  0
  8 23  1  0  0  0  0
  8 22  1  0  0  0  0
  9  6  1  0  0  0  0
  9 25  1  0  0  0  0
 10 29  1  0  0  0  0
 10 28  1  0  0  0  0
 11  7  1  0  0  0  0
 11 32  1  0  0  0  0
 12 36  1  0  0  0  0
 12 35  1  0  0  0  0
 13 38  1  0  0  0  0
 13  7  1  0  0  0  0
 14 15  1  0  0  0  0
 14  3  1  0  0  0  0
 15 42  1  0  0  0  0
 15 43  1  0  0  0  0
 16 45  1  0  0  0  0
 16 14  1  0  0  0  0
 17 47  1  0  0  0  0
 17 18  1  0  0  0  0
 18 49  1  0  0  0  0
 18 48  1  0  0  0  0
 19 17  1  0  0  0  0
 19 51  1  0  0  0  0
 24  8  1  0  0  0  0
 26  9  1  0  0  0  0
 27  9  1  0  0  0  0
 30 10  1  0  0  0  0
 31 11  1  0  0  0  0
 33 11  1  0  0  0  0
 34 12  1  0  0  0  0
 37 13  1  0  0  0  0
 39 13  1  0  0  0  0
 40 14  1  0  0  0  0
 41 15  1  0  0  0  0
 44 16  1  0  0  0  0
 46 16  1  0  0  0  0
 50 18  1  0  0  0  0
 52 19  1  0  0  0  0
 53 19  1  0  0  0  0
M  END
