4
q = 0.0, confidence = 0.992

 64 68  0  0  0  0  0  0  0  0999 V2000
    1.1536   -0.7431    0.9231 P   0  0  0  0  0  0  0  0  0  0  0  0
    0.1968    1.9490    0.3281 P   0  0  0  0  0  4  0  0  0  0  0  0
   -1.9236    0.3354    1.7840 O   0  0  0  0  0  0  0  0  0  0  0  0
   -1.1203    0.9560   -0.3924 C   0  0  0  0  0  3  0  0  0  0  0  0
   -1.4941    1.4343   -1.3163 H   0  0  0  0  0  0  0  0  0  0  0  0
   -3.5845    0.3741    0.0866 C   0  0  0  0  0  0  0  0  0  0  0  0
    1.4969    2.2541   -0.9012 C   0  0  0  0  0  0  0  0  0  0  0  0
    1.2746    2.0170   -2.2715 C   0  0  0  0  0  0  0  0  0  0  0  0
    0.3009    1.6480   -2.6194 H   0  0  0  0  0  0  0  0  0  0  0  0
   -2.1789    0.5488    0.5785 C   0  0  0  0  0  0  0  0  0  0  0  0
   -5.4450    0.8908   -1.4078 C   0  0  0  0  0  0  0  0  0  0  0  0
   -5.8542    1.4629   -2.2538 H   0  0  0  0  0  0  0  0  0  0  0  0
    2.8820   -0.6684    0.3063 C   0  0  0  0  0  0  0  0  0  0  0  0
    2.3077    2.2350   -3.1946 C   0  0  0  0  0  0  0  0  0  0  0  0
    2.1299    2.0501   -4.2643 H   0  0  0  0  0  0  0  0  0  0  0  0
    3.9530   -0.4175    1.1912 C   0  0  0  0  0  0  0  0  0  0  0  0
    3.7726   -0.3390    2.2751 H   0  0  0  0  0  0  0  0  0  0  0  0
   -4.1148    1.0883   -1.0096 C   0  0  0  0  0  0  0  0  0  0  0  0
   -3.4969    1.8254   -1.5443 H   0  0  0  0  0  0  0  0  0  0  0  0
   -4.4164   -0.5270    0.7865 C   0  0  0  0  0  0  0  0  0  0  0  0
   -3.9958   -1.0550    1.6548 H   0  0  0  0  0  0  0  0  0  0  0  0
    5.2559   -0.2787    0.6923 C   0  0  0  0  0  0  0  0  0  0  0  0
    6.0889   -0.0892    1.3857 H   0  0  0  0  0  0  0  0  0  0  0  0
   -5.7368   -0.7390    0.3751 C   0  0  0  0  0  0  0  0  0  0  0  0
   -6.3727   -1.4553    0.9166 H   0  0  0  0  0  0  0  0  0  0  0  0
   -1.2510    3.5613    2.0847 C   0  0  0  0  0  0  0  0  0  0  0  0
   -1.5875    2.6179    2.5404 H   0  0  0  0  0  0  0  0  0  0  0  0
    3.5626    2.6828   -2.7543 C   0  0  0  0  0  0  0  0  0  0  0  0
    4.3738    2.8456   -3.4795 H   0  0  0  0  0  0  0  0  0  0  0  0
   -1.7242    4.7859    2.5732 C   0  0  0  0  0  0  0  0  0  0  0  0
   -2.4201    4.7975    3.4251 H   0  0  0  0  0  0  0  0  0  0  0  0
   -1.3155    5.9922    1.9795 C   0  0  0  0  0  0  0  0  0  0  0  0
   -1.6899    6.9503    2.3697 H   0  0  0  0  0  0  0  0  0  0  0  0
    4.4346   -0.6332   -1.5701 C   0  0  0  0  0  0  0  0  0  0  0  0
    4.6201   -0.7124   -2.6516 H   0  0  0  0  0  0  0  0  0  0  0  0
   -6.2539   -0.0313   -0.7247 C   0  0  0  0  0  0  0  0  0  0  0  0
   -7.2944   -0.1924   -1.0442 H   0  0  0  0  0  0  0  0  0  0  0  0
   -0.4325    5.9775    0.8888 C   0  0  0  0  0  0  0  0  0  0  0  0
   -0.1145    6.9213    0.4216 H   0  0  0  0  0  0  0  0  0  0  0  0
    3.1298   -0.7755   -1.0752 C   0  0  0  0  0  0  0  0  0  0  0  0
    2.2818   -0.9504   -1.7547 H   0  0  0  0  0  0  0  0  0  0  0  0
    2.7559    2.7165   -0.4619 C   0  0  0  0  0  0  0  0  0  0  0  0
    2.9418    2.9109    0.6052 H   0  0  0  0  0  0  0  0  0  0  0  0
    3.7854    2.9242   -1.3886 C   0  0  0  0  0  0  0  0  0  0  0  0
    4.7689    3.2721   -1.0408 H   0  0  0  0  0  0  0  0  0  0  0  0
    1.1598   -1.8879    2.3507 C   0  0  0  0  0  0  0  0  0  0  0  0
    2.1457   -2.8878    2.4836 C   0  0  0  0  0  0  0  0  0  0  0  0
    2.9919   -2.9316    1.7820 H   0  0  0  0  0  0  0  0  0  0  0  0
    0.0651   -1.8540    3.2442 C   0  0  0  0  0  0  0  0  0  0  0  0
   -0.7353   -1.1091    3.1090 H   0  0  0  0  0  0  0  0  0  0  0  0
    0.0503    4.7590    0.3891 C   0  0  0  0  0  0  0  0  0  0  0  0
    0.7422    4.7510   -0.4661 H   0  0  0  0  0  0  0  0  0  0  0  0
    0.9393    0.9588    1.6696 C   0  0  0  0  0  0  0  0  0  0  0  0
    0.1920    0.9034    2.4823 H   0  0  0  0  0  0  0  0  0  0  0  0
    1.8868    1.4003    2.0326 H   0  0  0  0  0  0  0  0  0  0  0  0
   -0.0138   -2.7928    4.2819 C   0  0  0  0  0  0  0  0  0  0  0  0
   -0.8620   -2.7581    4.9818 H   0  0  0  0  0  0  0  0  0  0  0  0
    2.0501   -3.8289    3.5210 C   0  0  0  0  0  0  0  0  0  0  0  0
    2.8238   -4.6043    3.6238 H   0  0  0  0  0  0  0  0  0  0  0  0
    0.9772   -3.7791    4.4238 C   0  0  0  0  0  0  0  0  0  0  0  0
    0.9088   -4.5155    5.2383 H   0  0  0  0  0  0  0  0  0  0  0  0
    5.4976   -0.3858   -0.6881 C   0  0  0  0  0  0  0  0  0  0  0  0
    6.5217   -0.2771   -1.0757 H   0  0  0  0  0  0  0  0  0  0  0  0
   -0.3547    3.5488    0.9903 C   0  0  0  0  0  0  0  0  0  0  0  0
  1 53  1  0  0  0  0
  1 46  1  0  0  0  0
  2 64  1  0  0  0  0
  2 53  1  0  0  0  0
  4  2  1  0  0  0  0
  4 10  1  0  0  0  0
  5  4  1  0  0  0  0
  6 10  1  0  0  0  0
  6 20  1  0  0  0  0
  7 42  1  0  0  0  0
  7  2  1  0  0  0  0
  8  7  2  0  0  0  0
  9  8  1  0  0  0  0
 10  3  2  0  0  0  0
 11 18  1  0  0  0  0
 11 36  2  0  0  0  0
 12 11  1  0  0  0  0
 13  1  1  0  0  0  0
 13 16  1  0  0  0  0
 14 28  2  0  0  0  0
 14  8  1  0  0  0  0
 15 14  1  0  0  0  0
 16 17  1  0  0  0  0
 18  6  2  0  0  0  0
 19 18  1  0  0  0  0
 20 21  1  0  0  0  0
 22 16  2  0  0  0  0
 22 23  1  0  0  0  0
 24 20  2  0  0  0  0
 24 25  1  0  0  0  0
 26 27  1  0  0  0  0
 26 30  1  0  0  0  0
 28 44  1  0  0  0  0
 29 28  1  0  0  0  0
 30 31  1  0  0  0  0
 32 33  1  0  0  0  0
 32 30  2  0  0  0  0
 34 40  1  0  0  0  0
 34 62  2  0  0  0  0
 35 34  1  0  0  0  0
 36 24  1  0  0  0  0
 37 36  1  0  0  0  0
 38 32  1  0  0  0  0
 39 38  1  0  0  0  0
 40 13  2  0  0  0  0
 41 40  1  0  0  0  0
 42 43  1  0  0  0  0
 44 45  1  0  0  0  0
 44 42  2  0  0  0  0
 46 47  2  0  0  0  0
 46 49  1  0  0  0  0
 47 58  1  0  0  0  0
 48 47  1  0  0  0  0
 49 56  2  0  0  0  0
 50 49  1  0  0  0  0
 51 38  2  0  0  0  0
 51 64  1  0  0  0  0
 52 51  1  0  0  0  0
 53 55  1  0  0  0  0
 53 54  1  0  0  0  0
 56 60  1  0  0  0  0
 56 57  1  0  0  0  0
 58 59  1  0  0  0  0
 58 60  2  0  0  0  0
 60 61  1  0  0  0  0
 62 22  1  0  0  0  0
 63 62  1  0  0  0  0
 64 26  2  0  0  0  0
M  END
