14
q = -1.0, confidence = 0.026

 28 29  0  0  0  0  0  0  0  0999 V2000
   -6.5529   -0.6635    0.4406 O   0  0  0  0  0  0  0  0  0  0  0  0
   -4.4535   -1.3814    0.7286 O   0  0  0  0  0  0  0  0  0  0  0  0
   -5.3701   -0.3858    0.3993 C   0  0  0  0  0  0  0  0  0  0  0  0
   -4.7841    0.9143    0.0368 C   0  0  0  0  0  0  0  0  0  0  0  0
   -5.6570    1.9735   -0.2926 C   0  0  0  0  0  0  0  0  0  0  0  0
   -6.7386    1.7751   -0.2601 H   0  0  0  0  0  0  0  0  0  0  0  0
   -5.1463    3.2225   -0.6455 C   0  0  0  0  0  0  0  0  0  0  0  0
   -5.8259    4.0490   -0.9021 H   0  0  0  0  0  0  0  0  0  0  0  0
   -3.7477    3.4180   -0.6707 C   0  0  0  0  0  0  0  0  0  0  0  0
   -3.3379    4.4017   -0.9484 H   0  0  0  0  0  0  0  0  0  0  0  0
   -2.8788    2.3762   -0.3462 C   0  0  0  0  0  0  0  0  0  0  0  0
   -1.7874    2.5284   -0.3645 H   0  0  0  0  0  0  0  0  0  0  0  0
   -3.3687    1.0938    0.0171 C   0  0  0  0  0  0  0  0  0  0  0  0
   -2.4921   -0.0172    0.3597 C   0  0  0  0  0  3  0  0  0  0  0  0
   -3.0869   -1.2046    0.7075 C   0  0  0  0  0  0  0  0  0  0  0  0
   -2.4028   -2.4871    1.0905 C   0  0  0  0  0  0  0  0  0  0  0  0
   -1.3275   -2.2698    1.2503 H   0  0  0  0  0  0  0  0  0  0  0  0
   -2.8159   -2.8193    2.0675 H   0  0  0  0  0  0  0  0  0  0  0  0
   -2.5968   -3.6220    0.0633 C   0  0  0  0  0  0  0  0  0  0  0  0
   -2.1815   -4.5601    0.4934 H   0  0  0  0  0  0  0  0  0  0  0  0
   -3.6874   -3.7913   -0.0568 H   0  0  0  0  0  0  0  0  0  0  0  0
   -1.9649   -3.3675   -1.3124 C   0  0  0  0  0  0  0  0  0  0  0  0
   -2.3784   -2.4253   -1.7351 H   0  0  0  0  0  0  0  0  0  0  0  0
   -2.2887   -4.1770   -2.0013 H   0  0  0  0  0  0  0  0  0  0  0  0
   -0.4368   -3.2902   -1.3039 C   0  0  0  0  0  0  0  0  0  0  0  0
   -0.0790   -2.4110   -0.7261 H   0  0  0  0  0  0  0  0  0  0  0  0
   -0.0245   -3.1807   -2.3273 H   0  0  0  0  0  0  0  0  0  0  0  0
    0.0158   -4.1997   -0.8540 H   0  0  0  0  0  0  0  0  0  0  0  0
  3  1  2  0  0  0  0
  3  2  1  0  0  0  0
  4  3  1  0  0  0  0
  5  6  1  0  0  0  0
  5  4  2  0  0  0  0
  7  5  1  0  0  0  0
  8  7  1  0  0  0  0
  9  7  2  0  0  0  0
  9 11  1  0  0  0  0
 10  9  1  0  0  0  0
 11 13  2  0  0  0  0
 12 11  1  0  0  0  0
 13  4  1  0  0  0  0
 13 14  1  0  0  0  0
 14 15  2  0  0  0  0
 15  2  1  0  0  0  0
 15 16  1  0  0  0  0
 16 17  1  0  0  0  0
 16 18  1  0  0  0  0
 19 20  1  0  0  0  0
 19 16  1  0  0  0  0
 21 19  1  0  0  0  0
 22 25  1  0  0  0  0
 22 19  1  0  0  0  0
 23 22  1  0  0  0  0
 24 22  1  0  0  0  0
 25 28  1  0  0  0  0
 25 26  1  0  0  0  0
 27 25  1  0  0  0  0
M  END
