20
q = -2.0, confidence = 0.766

 33 35  0  0  1  0  0  0  0  0999 V2000
    0.3618   -1.2317   -1.7667 C   0  0  0  0  0  0  0  0  0  0  0  0
   -0.2873   -0.1275   -2.3980 C   0  0  0  0  0  0  0  0  0  0  0  0
   -1.2637   -0.1735   -2.8971 H   0  0  0  0  0  0  0  0  0  0  0  0
    0.4922    1.0549   -2.2284 C   0  0  0  0  0  0  0  0  0  0  0  0
    0.2561    2.0515   -2.6179 H   0  0  0  0  0  0  0  0  0  0  0  0
    1.6908    0.6907   -1.5397 C   0  0  0  0  0  0  0  0  0  0  0  0
    2.8458    1.4293   -1.1551 C   0  0  0  0  0  0  0  0  0  0  0  0
    2.9186    2.5002   -1.3981 H   0  0  0  0  0  0  0  0  0  0  0  0
    3.8732    0.7793   -0.4879 C   0  0  0  0  0  0  0  0  0  0  0  0
    4.7725    1.3401   -0.1914 H   0  0  0  0  0  0  0  0  0  0  0  0
    3.7948   -0.6149   -0.1915 C   0  0  0  0  0  0  0  0  0  0  0  0
    4.6400   -1.1023    0.3180 H   0  0  0  0  0  0  0  0  0  0  0  0
    2.6868   -1.3676   -0.5526 C   0  0  0  0  0  0  0  0  0  0  0  0
    2.6581   -2.4476   -0.3537 H   0  0  0  0  0  0  0  0  0  0  0  0
    1.6063   -0.7328   -1.2338 C   0  0  2  0  0  3  0  0  0  0  0  0
   -0.3078   -2.5307   -1.3546 C   0  0  0  0  0  0  0  0  0  0  0  0
    0.4381   -3.3286   -1.1707 H   0  0  0  0  0  0  0  0  0  0  0  0
   -0.9965   -2.9002   -2.1390 H   0  0  0  0  0  0  0  0  0  0  0  0
   -1.0478   -2.1526   -0.0825 C   0  0  2  0  0  3  0  0  0  0  0  0
   -2.2728   -1.3984   -0.0674 C   0  0  2  0  0  3  0  0  0  0  0  0
   -2.4204   -0.8500    1.2447 C   0  0  0  0  0  0  0  0  0  0  0  0
   -3.2623   -0.2355    1.5862 H   0  0  0  0  0  0  0  0  0  0  0  0
   -1.3114   -1.2546    2.0269 C   0  0  0  0  0  0  0  0  0  0  0  0
   -1.1539   -1.0120    3.0849 H   0  0  0  0  0  0  0  0  0  0  0  0
   -0.4516   -2.0716    1.2238 C   0  0  1  0  0  3  0  0  0  0  0  0
   -3.2766   -1.2656   -1.1789 C   0  0  0  0  0  0  0  0  0  0  0  0
   -4.2089   -1.8123   -0.9224 H   0  0  0  0  0  0  0  0  0  0  0  0
   -2.9055   -1.6899   -2.1309 H   0  0  0  0  0  0  0  0  0  0  0  0
   -3.5588   -0.2097   -1.3635 H   0  0  0  0  0  0  0  0  0  0  0  0
    0.7538   -2.8261    1.7179 C   0  0  0  0  0  0  0  0  0  0  0  0
    1.6481   -2.1900    1.8710 H   0  0  0  0  0  0  0  0  0  0  0  0
    1.0391   -3.6282    1.0098 H   0  0  0  0  0  0  0  0  0  0  0  0
    0.5269   -3.3124    2.6886 H   0  0  0  0  0  0  0  0  0  0  0  0
  1 16  1  0  0  0  0
  2  4  1  0  0  0  0
  2  1  2  0  0  0  0
  3  2  1  0  0  0  0
  4  6  2  0  0  0  0
  5  4  1  0  0  0  0
  6 15  1  0  0  0  0
  6  7  1  0  0  0  0
  7  9  2  0  0  0  0
  8  7  1  0  0  0  0
  9 11  1  0  0  0  0
  9 10  1  0  0  0  0
 11 12  1  0  0  0  0
 13 14  1  0  0  0  0
 13 11  2  0  0  0  0
 15  1  1  6  0  0  0
 15 13  1  0  0  0  0
 16 17  1  0  0  0  0
 18 16  1  0  0  0  0
 19 16  1  6  0  0  0
 19 20  1  0  0  0  0
 19 25  1  0  0  0  0
 20 26  1  1  0  0  0
 20 21  1  0  0  0  0
 21 22  1  0  0  0  0
 21 23  2  0  0  0  0
 23 24  1  0  0  0  0
 25 30  1  1  0  0  0
 25 23  1  0  0  0  0
 26 27  1  0  0  0  0
 28 26  1  0  0  0  0
 29 26  1  0  0  0  0
 30 31  1  0  0  0  0
 30 33  1  0  0  0  0
 32 30  1  0  0  0  0
M  END
