4
q = -1.0, confidence = 0.0

 68 73  0  0  1  0  0  0  0  0999 V2000
   -0.8741   -0.6527   -0.2155 C   0  0  0  0  0  0  0  0  0  0  0  0
    0.4531   -1.1985   -0.4212 C   0  0  0  0  0  0  0  0  0  0  0  0
    1.3976   -0.1088   -0.4828 C   0  0  0  0  0  0  0  0  0  0  0  0
    0.6500    1.1371   -0.3178 C   0  0  2  0  0  3  0  0  0  0  0  0
   -0.7568    0.8022   -0.1781 C   0  0  0  0  0  0  0  0  0  0  0  0
   -2.1484   -1.4087   -0.1724 C   0  0  0  0  0  0  0  0  0  0  0  0
   -2.3681   -2.3433    0.8587 C   0  0  0  0  0  0  0  0  0  0  0  0
   -1.5532   -2.5235    1.5790 H   0  0  0  0  0  0  0  0  0  0  0  0
   -3.6010   -2.9927    1.0000 C   0  0  0  0  0  0  0  0  0  0  0  0
   -3.7564   -3.7063    1.8220 H   0  0  0  0  0  0  0  0  0  0  0  0
   -4.6359   -2.6985    0.0986 C   0  0  0  0  0  0  0  0  0  0  0  0
   -5.6167   -3.1880    0.2014 H   0  0  0  0  0  0  0  0  0  0  0  0
   -4.4276   -1.7970   -0.9521 C   0  0  0  0  0  0  0  0  0  0  0  0
   -5.2397   -1.6065   -1.6670 H   0  0  0  0  0  0  0  0  0  0  0  0
   -3.1793   -1.1501   -1.1313 C   0  0  0  0  0  0  0  0  0  0  0  0
   -2.9855   -0.2357   -2.1749 N   0  0  0  0  0  0  0  0  0  0  0  0
   -4.1295    0.4270   -2.7598 C   0  0  0  0  0  0  0  0  0  0  0  0
   -4.6518   -0.1809   -3.5412 H   0  0  0  0  0  0  0  0  0  0  0  0
   -3.7916    1.3696   -3.2386 H   0  0  0  0  0  0  0  0  0  0  0  0
   -4.8583    0.6973   -1.9721 H   0  0  0  0  0  0  0  0  0  0  0  0
   -1.8428   -0.3283   -3.0618 C   0  0  0  0  0  0  0  0  0  0  0  0
   -1.0337   -0.9272   -2.6108 H   0  0  0  0  0  0  0  0  0  0  0  0
   -1.4329    0.6817   -3.2866 H   0  0  0  0  0  0  0  0  0  0  0  0
   -2.1145   -0.8101   -4.0333 H   0  0  0  0  0  0  0  0  0  0  0  0
    0.7872   -2.6278   -0.5796 C   0  0  0  0  0  0  0  0  0  0  0  0
   -0.0497   -3.4721   -1.3430 C   0  0  0  0  0  0  0  0  0  0  0  0
   -0.9759   -3.0755   -1.7805 H   0  0  0  0  0  0  0  0  0  0  0  0
    0.2943   -4.8145   -1.5523 C   0  0  0  0  0  0  0  0  0  0  0  0
   -0.3655   -5.4568   -2.1549 H   0  0  0  0  0  0  0  0  0  0  0  0
    1.4694   -5.3369   -0.9906 C   0  0  0  0  0  0  0  0  0  0  0  0
    1.7352   -6.3932   -1.1491 H   0  0  0  0  0  0  0  0  0  0  0  0
    2.3004   -4.5085   -0.2189 C   0  0  0  0  0  0  0  0  0  0  0  0
    3.2161   -4.9142    0.2366 H   0  0  0  0  0  0  0  0  0  0  0  0
    1.9651   -3.1656   -0.0126 C   0  0  0  0  0  0  0  0  0  0  0  0
    2.6038   -2.5270    0.6107 H   0  0  0  0  0  0  0  0  0  0  0  0
    2.8266   -0.2067   -0.8643 C   0  0  0  0  0  0  0  0  0  0  0  0
    3.1760   -0.9333   -2.0248 C   0  0  0  0  0  0  0  0  0  0  0  0
    2.3900   -1.4502   -2.5945 H   0  0  0  0  0  0  0  0  0  0  0  0
    4.5092   -0.9992   -2.4519 C   0  0  0  0  0  0  0  0  0  0  0  0
    4.7630   -1.5722   -3.3565 H   0  0  0  0  0  0  0  0  0  0  0  0
    5.5151   -0.3381   -1.7296 C   0  0  0  0  0  0  0  0  0  0  0  0
    6.5626   -0.3925   -2.0627 H   0  0  0  0  0  0  0  0  0  0  0  0
    5.1771    0.3908   -0.5784 C   0  0  0  0  0  0  0  0  0  0  0  0
    5.9583    0.9101   -0.0032 H   0  0  0  0  0  0  0  0  0  0  0  0
    3.8449    0.4569   -0.1487 C   0  0  0  0  0  0  0  0  0  0  0  0
    3.5926    1.0244    0.7568 H   0  0  0  0  0  0  0  0  0  0  0  0
    1.2088    2.5028   -0.4731 C   0  0  0  0  0  0  0  0  0  0  0  0
    1.9806    2.8115   -1.6138 C   0  0  0  0  0  0  0  0  0  0  0  0
    2.1929    2.0265   -2.3540 H   0  0  0  0  0  0  0  0  0  0  0  0
    2.4734    4.1103   -1.8070 C   0  0  0  0  0  0  0  0  0  0  0  0
    3.0770    4.3356   -2.6992 H   0  0  0  0  0  0  0  0  0  0  0  0
    2.2016    5.1162   -0.8670 C   0  0  0  0  0  0  0  0  0  0  0  0
    2.5929    6.1337   -1.0173 H   0  0  0  0  0  0  0  0  0  0  0  0
    1.4325    4.8167    0.2697 C   0  0  0  0  0  0  0  0  0  0  0  0
    1.2180    5.5983    1.0138 H   0  0  0  0  0  0  0  0  0  0  0  0
    0.9412    3.5202    0.4665 C   0  0  0  0  0  0  0  0  0  0  0  0
    0.3422    3.2795    1.3572 H   0  0  0  0  0  0  0  0  0  0  0  0
   -1.8943    1.7536   -0.1927 C   0  0  0  0  0  0  0  0  0  0  0  0
   -3.0329    1.5602    0.6195 C   0  0  0  0  0  0  0  0  0  0  0  0
   -3.0691    0.7133    1.3169 H   0  0  0  0  0  0  0  0  0  0  0  0
   -4.1238    2.4347    0.5361 C   0  0  0  0  0  0  0  0  0  0  0  0
   -4.9997    2.2692    1.1813 H   0  0  0  0  0  0  0  0  0  0  0  0
   -4.0994    3.5179   -0.3578 C   0  0  0  0  0  0  0  0  0  0  0  0
   -4.9553    4.2073   -0.4165 H   0  0  0  0  0  0  0  0  0  0  0  0
   -2.9752    3.7154   -1.1741 C   0  0  0  0  0  0  0  0  0  0  0  0
   -2.9453    4.5583   -1.8812 H   0  0  0  0  0  0  0  0  0  0  0  0
   -1.8815    2.8420   -1.0931 C   0  0  0  0  0  0  0  0  0  0  0  0
   -1.0096    2.9999   -1.7430 H   0  0  0  0  0  0  0  0  0  0  0  0
  1  5  2  0  0  0  0
  1  6  1  0  0  0  0
  2  1  1  0  0  0  0
  3  2  2  0  0  0  0
  3  4  1  0  0  0  0
  4 47  1  6  0  0  0
  4  5  1  0  0  0  0
  6  7  1  0  0  0  0
  7  9  2  0  0  0  0
  7  8  1  0  0  0  0
  9 10  1  0  0  0  0
 11 12  1  0  0  0  0
 11  9  1  0  0  0  0
 13 11  2  0  0  0  0
 14 13  1  0  0  0  0
 15 13  1  0  0  0  0
 15  6  2  0  0  0  0
 16 15  1  0  0  0  0
 17 16  1  0  0  0  0
 17 20  1  0  0  0  0
 18 17  1  0  0  0  0
 19 17  1  0  0  0  0
 21 22  1  0  0  0  0
 21 16  1  0  0  0  0
 23 21  1  0  0  0  0
 24 21  1  0  0  0  0
 25  2  1  0  0  0  0
 25 34  1  0  0  0  0
 26 25  2  0  0  0  0
 27 26  1  0  0  0  0
 28 26  1  0  0  0  0
 28 30  2  0  0  0  0
 29 28  1  0  0  0  0
 30 32  1  0  0  0  0
 31 30  1  0  0  0  0
 32 34  2  0  0  0  0
 32 33  1  0  0  0  0
 34 35  1  0  0  0  0
 36  3  1  0  0  0  0
 36 45  1  0  0  0  0
 37 36  2  0  0  0  0
 38 37  1  0  0  0  0
 39 37  1  0  0  0  0
 39 41  2  0  0  0  0
 40 39  1  0  0  0  0
 41 43  1  0  0  0  0
 42 41  1  0  0  0  0
 43 45  2  0  0  0  0
 43 44  1  0  0  0  0
 45 46  1  0  0  0  0
 47 56  1  0  0  0  0
 48 47  2  0  0  0  0
 49 48  1  0  0  0  0
 50 48  1  0  0  0  0
 50 52  2  0  0  0  0
 51 50  1  0  0  0  0
 52 54  1  0  0  0  0
 53 52  1  0  0  0  0
 54 56  2  0  0  0  0
 54 55  1  0  0  0  0
 56 57  1  0  0  0  0
 58  5  1  0  0  0  0
 58 59  1  0  0  0  0
 59 60  1  0  0  0  0
 61 59  2  0  0  0  0
 61 62  1  0  0  0  0
 63 61  1  0  0  0  0
 64 63  1  0  0  0  0
 65 67  1  0  0  0  0
 65 63  2  0  0  0  0
 66 65  1  0  0  0  0
 67 58  2  0  0  0  0
 68 67  1  0  0  0  0
M  END
