4
q = 0.0, confidence = 1.0

 29 30  0  0  0  0  0  0  0  0999 V2000
    2.4994    0.1796   -0.1310 O   0  0  0  0  0  0  0  0  0  0  0  0
   -2.9723   -0.3570   -0.7246 O   0  0  0  0  0  0  0  0  0  0  0  0
   -0.9593   -1.1726    1.2711 N   0  0  0  0  0  0  0  0  0  0  0  0
    0.0973   -0.6681    0.6341 C   0  0  0  0  0  2  0  0  0  0  0  0
    1.1413   -1.6737    0.3193 C   0  0  0  0  0  0  0  0  0  0  0  0
    0.9677   -3.0760    0.3446 C   0  0  0  0  0  0  0  0  0  0  0  0
    2.0143   -3.9521    0.0327 C   0  0  0  0  0  0  0  0  0  0  0  0
    3.2711   -3.4332   -0.3146 C   0  0  0  0  0  0  0  0  0  0  0  0
    3.4800   -2.0464   -0.3719 C   0  0  0  0  0  0  0  0  0  0  0  0
    2.4154   -1.1827   -0.0694 C   0  0  0  0  0  0  0  0  0  0  0  0
    3.7444    0.7806   -0.4934 C   0  0  0  0  0  0  0  0  0  0  0  0
   -2.2075   -0.4785    1.5817 C   0  0  0  0  0  0  0  0  0  0  0  0
   -3.2637   -0.7322    0.5571 C   0  0  0  0  0  0  0  0  0  0  0  0
   -4.5215   -1.2960    0.6010 C   0  0  0  0  0  0  0  0  0  0  0  0
   -5.0328   -1.2493   -0.7407 C   0  0  0  0  0  0  0  0  0  0  0  0
   -4.0441   -0.6712   -1.5021 C   0  0  0  0  0  0  0  0  0  0  0  0
   -0.9819   -2.1793    1.4802 H   0  0  0  0  0  0  0  0  0  0  0  0
   -0.0201   -3.5047    0.5789 H   0  0  0  0  0  0  0  0  0  0  0  0
    1.8472   -5.0388    0.0480 H   0  0  0  0  0  0  0  0  0  0  0  0
    4.1011   -4.1120   -0.5612 H   0  0  0  0  0  0  0  0  0  0  0  0
    4.4623   -1.6541   -0.6631 H   0  0  0  0  0  0  0  0  0  0  0  0
   -2.5789   -0.8251    2.5661 H   0  0  0  0  0  0  0  0  0  0  0  0
   -1.9785    0.5998    1.6621 H   0  0  0  0  0  0  0  0  0  0  0  0
   -5.0243   -1.6890    1.4918 H   0  0  0  0  0  0  0  0  0  0  0  0
   -6.0084   -1.6005   -1.0939 H   0  0  0  0  0  0  0  0  0  0  0  0
   -3.9464   -0.4226   -2.5635 H   0  0  0  0  0  0  0  0  0  0  0  0
    4.5401    0.4731    0.2157 H   0  0  0  0  0  0  0  0  0  0  0  0
    3.5929    1.8702   -0.4371 H   0  0  0  0  0  0  0  0  0  0  0  0
    4.0274    0.4973   -1.5286 H   0  0  0  0  0  0  0  0  0  0  0  0
  1 10  1  0  0  0  0
  2 13  1  0  0  0  0
  3 17  1  0  0  0  0
  3 12  1  0  0  0  0
  4  3  1  0  0  0  0
  5  6  1  0  0  0  0
  5  4  1  0  0  0  0
  6 18  1  0  0  0  0
  7 19  1  0  0  0  0
  7  6  2  0  0  0  0
  8  7  1  0  0  0  0
  9  8  2  0  0  0  0
  9 10  1  0  0  0  0
 10  5  2  0  0  0  0
 11 28  1  0  0  0  0
 11  1  1  0  0  0  0
 11 27  1  0  0  0  0
 12 23  1  0  0  0  0
 12 22  1  0  0  0  0
 13 14  2  0  0  0  0
 13 12  1  0  0  0  0
 14 24  1  0  0  0  0
 15 14  1  0  0  0  0
 16 15  2  0  0  0  0
 16  2  1  0  0  0  0
 20  8  1  0  0  0  0
 21  9  1  0  0  0  0
 25 15  1  0  0  0  0
 26 16  1  0  0  0  0
 29 11  1  0  0  0  0
M  END
