7
q = 0.0, confidence = 0.99

 19 18  0  0  0  0  0  0  0  0999 V2000
    2.0237    0.7489   -0.6504 S   0  0  0  0  0  0  0  0  0  0  0  0
    2.1862    2.5001   -0.1955 C   0  0  0  0  0  0  0  0  0  0  0  0
    3.1492    0.0169    0.6052 C   0  0  0  0  0  0  0  0  0  0  0  0
    3.1798   -1.5081    0.5243 C   0  0  0  0  0  0  0  0  0  0  0  0
    1.9208   -2.2110    1.0402 C   0  0  0  0  0  0  0  0  0  0  0  0
    0.6531   -2.1273    0.2246 C   0  0  0  0  0  3  0  0  0  0  0  0
    0.5429   -1.9217   -1.1736 C   0  0  0  0  0  3  0  0  0  0  0  0
    1.5170    3.0694   -0.8642 H   0  0  0  0  0  0  0  0  0  0  0  0
    3.2443    2.7832   -0.3595 H   0  0  0  0  0  0  0  0  0  0  0  0
    1.8645    2.6651    0.8491 H   0  0  0  0  0  0  0  0  0  0  0  0
    2.8154    0.3667    1.6042 H   0  0  0  0  0  0  0  0  0  0  0  0
    4.1496    0.4477    0.3937 H   0  0  0  0  0  0  0  0  0  0  0  0
    3.4154   -1.8263   -0.5145 H   0  0  0  0  0  0  0  0  0  0  0  0
    4.0405   -1.8433    1.1402 H   0  0  0  0  0  0  0  0  0  0  0  0
    1.6969   -1.8603    2.0716 H   0  0  0  0  0  0  0  0  0  0  0  0
    2.1447   -3.2973    1.1489 H   0  0  0  0  0  0  0  0  0  0  0  0
   -0.2044   -2.6319    0.7041 H   0  0  0  0  0  0  0  0  0  0  0  0
    1.4329   -1.7282   -1.7976 H   0  0  0  0  0  0  0  0  0  0  0  0
   -0.3333   -2.3234   -1.7071 H   0  0  0  0  0  0  0  0  0  0  0  0
  1  2  1  0  0  0  0
  1  3  1  0  0  0  0
  2 10  1  0  0  0  0
  3 11  1  0  0  0  0
  4  3  1  0  0  0  0
  4  5  1  0  0  0  0
  4 14  1  0  0  0  0
  5 16  1  0  0  0  0
  5 15  1  0  0  0  0
  6 17  1  0  0  0  0
  6  5  1  0  0  0  0
  7  6  1  0  0  0  0
  8  2  1  0  0  0  0
  9  2  1  0  0  0  0
 12  3  1  0  0  0  0
 13  4  1  0  0  0  0
 18  7  1  0  0  0  0
 19  7  1  0  0  0  0
M  END
