4
q = 0.0, confidence = 0.946

 29 31  0  0  1  0  0  0  0  0999 V2000
    1.2717   -1.7101    0.5573 N   0  0  0  0  0  0  0  0  0  0  0  0
    4.6550    2.4247   -0.1464 O   0  0  0  0  0  0  0  0  0  0  0  0
   -1.0877   -1.4590   -0.0590 C   0  0  0  0  0  3  0  0  0  0  0  0
   -1.1218   -0.8253   -1.3509 C   0  0  0  0  0  3  0  0  0  0  0  0
   -0.9367    0.5859   -1.3303 C   0  0  0  0  0  3  0  0  0  0  0  0
   -0.7335    1.1507   -0.0221 C   0  0  0  0  0  3  0  0  0  0  0  0
    0.2134    0.4686    0.9546 C   0  0  2  0  0  0  0  0  0  0  0  0
    1.6743    0.5910    0.5792 C   0  0  0  0  0  0  0  0  0  0  0  0
    2.4916    1.6599    0.4203 C   0  0  0  0  0  0  0  0  0  0  0  0
    3.8989    1.4580    0.0063 C   0  0  0  0  0  0  0  0  0  0  0  0
    4.3791    0.0532   -0.2295 C   0  0  0  0  0  0  0  0  0  0  0  0
    3.5438   -1.0272   -0.0646 C   0  0  0  0  0  0  0  0  0  0  0  0
    2.1639   -0.7791    0.3507 C   0  0  0  0  0  0  0  0  0  0  0  0
    0.0040   -1.0753    0.9338 C   0  0  2  0  0  0  0  0  0  0  0  0
    3.9893   -2.4440   -0.2869 C   0  0  0  0  0  0  0  0  0  0  0  0
    5.8101   -0.1018   -0.6485 C   0  0  0  0  0  0  0  0  0  0  0  0
   -1.4063   -2.5123   -0.0094 H   0  0  0  0  0  0  0  0  0  0  0  0
   -1.3867   -1.3582   -2.2763 H   0  0  0  0  0  0  0  0  0  0  0  0
   -1.0580    1.1973   -2.2371 H   0  0  0  0  0  0  0  0  0  0  0  0
   -0.7876    2.2484    0.0613 H   0  0  0  0  0  0  0  0  0  0  0  0
    0.0423    0.8812    1.9705 H   0  0  0  0  0  0  0  0  0  0  0  0
    2.1748    2.7028    0.5745 H   0  0  0  0  0  0  0  0  0  0  0  0
   -0.2828   -1.4641    1.9351 H   0  0  0  0  0  0  0  0  0  0  0  0
    3.1588   -3.1463   -0.0909 H   0  0  0  0  0  0  0  0  0  0  0  0
    4.8429   -2.7030    0.3743 H   0  0  0  0  0  0  0  0  0  0  0  0
    4.3464   -2.5911   -1.3280 H   0  0  0  0  0  0  0  0  0  0  0  0
    6.2863    0.8929   -0.7267 H   0  0  0  0  0  0  0  0  0  0  0  0
    5.8907   -0.6202   -1.6274 H   0  0  0  0  0  0  0  0  0  0  0  0
    6.3792   -0.7178    0.0799 H   0  0  0  0  0  0  0  0  0  0  0  0
  1 14  1  0  0  0  0
  2 10  2  0  0  0  0
  3 17  1  0  0  0  0
  3 14  1  0  0  0  0
  4  5  1  0  0  0  0
  4  3  1  0  0  0  0
  5  6  1  0  0  0  0
  6 20  1  0  0  0  0
  6  7  1  0  0  0  0
  7 21  1  1  0  0  0
  8  7  1  0  0  0  0
  9 22  1  0  0  0  0
  9  8  2  0  0  0  0
 10  9  1  0  0  0  0
 11 12  2  0  0  0  0
 11 10  1  0  0  0  0
 12 13  1  0  0  0  0
 13  1  2  0  0  0  0
 13  8  1  0  0  0  0
 14  7  1  0  0  0  0
 14 23  1  1  0  0  0
 15 24  1  0  0  0  0
 15 12  1  0  0  0  0
 15 25  1  0  0  0  0
 16 11  1  0  0  0  0
 16 29  1  0  0  0  0
 18  4  1  0  0  0  0
 19  5  1  0  0  0  0
 26 15  1  0  0  0  0
 27 16  1  0  0  0  0
 28 16  1  0  0  0  0
M  END
