7
q = -1.0, confidence = 0.0

 13 13  0  0  0  0  0  0  0  0999 V2000
    1.8091   -2.3831   -0.8204 F   0  0  0  0  0  0  0  0  0  0  0  0
    4.2925   -2.3741    0.2457 F   0  0  0  0  0  0  0  0  0  0  0  0
    5.5590   -0.0006    0.7866 F   0  0  0  0  0  0  0  0  0  0  0  0
    4.2934    2.3732    0.2447 F   0  0  0  0  0  0  0  0  0  0  0  0
    1.8100    2.3826   -0.8214 F   0  0  0  0  0  0  0  0  0  0  0  0
    0.0724    0.0001   -2.5559 O   0  0  0  0  0  0  0  0  0  0  0  0
    0.2672    0.0000   -1.3615 C   0  0  0  0  0  0  0  0  0  0  0  0
    1.7180   -0.0002   -0.8431 C   0  0  0  0  0  0  0  0  0  0  0  0
    2.3995   -1.1951   -0.5788 C   0  0  0  0  0  0  0  0  0  0  0  0
    3.6844   -1.2151   -0.0150 C   0  0  0  0  0  0  0  0  0  0  0  0
    4.3357   -0.0005    0.2592 C   0  0  0  0  0  0  0  0  0  0  0  0
    3.6848    1.2142   -0.0155 C   0  0  0  0  0  0  0  0  0  0  0  0
    2.4000    1.1945   -0.5793 C   0  0  0  0  0  0  0  0  0  0  0  0
  1  9  1  0  0  0  0
  5 13  1  0  0  0  0
  6  7  2  0  0  0  0
  7  8  1  0  0  0  0
  8 13  2  0  0  0  0
  8  9  1  0  0  0  0
  9 10  2  0  0  0  0
 10  2  1  0  0  0  0
 10 11  1  0  0  0  0
 11  3  1  0  0  0  0
 12  4  1  0  0  0  0
 12 11  2  0  0  0  0
 13 12  1  0  0  0  0
M  END
