4
q = -1.0, confidence = 0.0

 20 20  0  0  0  0  0  0  0  0999 V2000
   -2.9802   -1.3711    0.7150 S   0  0  0  0  0  0  0  0  0  0  0  0
   -2.8365   -0.2704    1.7137 O   0  0  0  0  0  0  0  0  0  0  0  0
   -2.6066   -2.7705    1.1122 O   0  0  0  0  0  0  0  0  0  0  0  0
   -2.0977   -0.9477   -0.7678 C   0  0  0  0  0  3  0  0  0  0  0  0
   -2.5156    0.0098   -1.1335 H   0  0  0  0  0  0  0  0  0  0  0  0
   -2.3128   -1.7511   -1.5032 H   0  0  0  0  0  0  0  0  0  0  0  0
   -4.7361   -1.4451    0.2830 C   0  0  0  0  0  0  0  0  0  0  0  0
   -5.2847   -2.6543   -0.1644 C   0  0  0  0  0  0  0  0  0  0  0  0
   -4.6513   -3.5528   -0.1991 H   0  0  0  0  0  0  0  0  0  0  0  0
   -6.6357   -2.6949   -0.5366 C   0  0  0  0  0  0  0  0  0  0  0  0
   -7.0734   -3.6435   -0.8860 H   0  0  0  0  0  0  0  0  0  0  0  0
   -7.4486   -1.5450   -0.4653 C   0  0  0  0  0  0  0  0  0  0  0  0
   -6.8688   -0.3438   -0.0006 C   0  0  0  0  0  0  0  0  0  0  0  0
   -7.4907    0.5628    0.0728 H   0  0  0  0  0  0  0  0  0  0  0  0
   -5.5220   -0.2865    0.3757 C   0  0  0  0  0  0  0  0  0  0  0  0
   -5.0729    0.6422    0.7556 H   0  0  0  0  0  0  0  0  0  0  0  0
   -8.9053   -1.5922   -0.8502 C   0  0  0  0  0  0  0  0  0  0  0  0
   -9.5570   -1.4775    0.0419 H   0  0  0  0  0  0  0  0  0  0  0  0
   -9.1698   -2.5504   -1.3370 H   0  0  0  0  0  0  0  0  0  0  0  0
   -9.1670   -0.7686   -1.5457 H   0  0  0  0  0  0  0  0  0  0  0  0
  1  3  2  0  0  0  0
  1  2  2  0  0  0  0
  4  1  1  0  0  0  0
  5  4  1  0  0  0  0
  6  4  1  0  0  0  0
  7 15  1  0  0  0  0
  7  1  1  0  0  0  0
  8  7  2  0  0  0  0
  9  8  1  0  0  0  0
 10 12  2  0  0  0  0
 10  8  1  0  0  0  0
 11 10  1  0  0  0  0
 12 13  1  0  0  0  0
 13 14  1  0  0  0  0
 13 15  2  0  0  0  0
 15 16  1  0  0  0  0
 17 12  1  0  0  0  0
 17 18  1  0  0  0  0
 19 17  1  0  0  0  0
 20 17  1  0  0  0  0
M  END
