9
q = -1.0, confidence = 0.004

 21 21  0  0  0  0  0  0  0  0999 V2000
    1.5046    1.5968   -0.7025 O   0  0  0  0  0  0  0  0  0  0  0  0
    1.2683    3.8321   -0.9486 O   0  0  0  0  0  0  0  0  0  0  0  0
   -2.4864    0.8557   -0.1239 C   0  0  0  0  0  0  0  0  0  0  0  0
   -3.4686    1.3109   -1.0355 C   0  0  0  0  0  0  0  0  0  0  0  0
   -4.8183    0.9719   -0.8630 C   0  0  0  0  0  0  0  0  0  0  0  0
   -5.2160    0.1938    0.2361 C   0  0  0  0  0  0  0  0  0  0  0  0
   -4.2525   -0.2436    1.1619 C   0  0  0  0  0  0  0  0  0  0  0  0
   -2.9001    0.0720    0.9792 C   0  0  0  0  0  0  0  0  0  0  0  0
   -1.0630    1.1735   -0.3341 C   0  0  0  0  0  3  0  0  0  0  0  0
   -0.6674    2.4701   -0.6264 C   0  0  0  0  0  0  0  0  0  0  0  0
    0.7459    2.6150   -0.7671 C   0  0  0  0  0  0  0  0  0  0  0  0
    2.6981    3.9106   -1.0045 C   0  0  0  0  0  0  0  0  0  0  0  0
   -3.1546    1.9132   -1.9020 H   0  0  0  0  0  0  0  0  0  0  0  0
   -5.5661    1.3177   -1.5933 H   0  0  0  0  0  0  0  0  0  0  0  0
   -6.2760   -0.0691    0.3733 H   0  0  0  0  0  0  0  0  0  0  0  0
   -4.5588   -0.8399    2.0354 H   0  0  0  0  0  0  0  0  0  0  0  0
   -2.1359   -0.2596    1.6983 H   0  0  0  0  0  0  0  0  0  0  0  0
   -1.3374    3.3419   -0.6585 H   0  0  0  0  0  0  0  0  0  0  0  0
    2.9378    4.9822   -1.1216 H   0  0  0  0  0  0  0  0  0  0  0  0
    3.0938    3.3326   -1.8645 H   0  0  0  0  0  0  0  0  0  0  0  0
    3.1492    3.5107   -0.0744 H   0  0  0  0  0  0  0  0  0  0  0  0
  2 11  1  0  0  0  0
  3  8  1  0  0  0  0
  4  5  1  0  0  0  0
  4  3  2  0  0  0  0
  5  6  2  0  0  0  0
  6 15  1  0  0  0  0
  6  7  1  0  0  0  0
  7 16  1  0  0  0  0
  8  7  2  0  0  0  0
  8 17  1  0  0  0  0
  9  3  1  0  0  0  0
 10  9  2  0  0  0  0
 11  1  2  0  0  0  0
 11 10  1  0  0  0  0
 12  2  1  0  0  0  0
 12 21  1  0  0  0  0
 13  4  1  0  0  0  0
 14  5  1  0  0  0  0
 18 10  1  0  0  0  0
 19 12  1  0  0  0  0
 20 12  1  0  0  0  0
M  END
