1
q = -1.0, confidence = 0.022

 45 48  0  0  1  0  0  0  0  0999 V2000
    0.9447    1.3172    0.1922 C   0  0  0  0  0  1  0  0  0  0  0  0
   -0.0027    2.1123    0.1052 C   0  0  0  0  0  2  0  0  0  0  0  0
   -1.1130    3.0630   -0.0405 C   0  0  1  0  0  0  0  0  0  0  0  0
   -0.7148    4.1468   -0.8911 O   0  0  0  0  0  0  0  0  0  0  0  0
   -0.0615    3.7678   -1.5079 H   0  0  0  0  0  0  0  0  0  0  0  0
   -2.4316    2.3350   -0.5248 C   0  0  1  0  0  0  0  0  0  0  0  0
   -3.4294    3.4100   -0.9904 C   0  0  0  0  0  0  0  0  0  0  0  0
   -3.7012    4.1202   -0.1857 H   0  0  0  0  0  0  0  0  0  0  0  0
   -4.3686    2.9625   -1.3677 H   0  0  0  0  0  0  0  0  0  0  0  0
   -2.9702    4.0024   -1.8046 H   0  0  0  0  0  0  0  0  0  0  0  0
   -2.2592    1.2707   -1.6157 C   0  0  0  0  0  0  0  0  0  0  0  0
   -2.0005    1.7453   -2.5874 H   0  0  0  0  0  0  0  0  0  0  0  0
   -1.4019    0.6210   -1.3388 H   0  0  0  0  0  0  0  0  0  0  0  0
   -3.5239    0.4085   -1.7724 C   0  0  0  0  0  0  0  0  0  0  0  0
   -3.3097   -0.3958   -2.5054 H   0  0  0  0  0  0  0  0  0  0  0  0
   -4.3567    1.0017   -2.2091 H   0  0  0  0  0  0  0  0  0  0  0  0
   -3.9984   -0.2067   -0.4393 C   0  0  2  0  0  0  0  0  0  0  0  0
   -3.1673   -0.8669   -0.0866 H   0  0  0  0  0  0  0  0  0  0  0  0
   -5.2414   -1.0856   -0.5628 C   0  0  0  0  0  0  0  0  0  0  0  0
   -5.4907   -1.8384   -1.7284 C   0  0  0  0  0  0  0  0  0  0  0  0
   -4.7952   -1.7696   -2.5770 H   0  0  0  0  0  0  0  0  0  0  0  0
   -6.5986   -2.6860   -1.8496 C   0  0  0  0  0  0  0  0  0  0  0  0
   -6.7608   -3.2593   -2.7779 H   0  0  0  0  0  0  0  0  0  0  0  0
   -7.5050   -2.8036   -0.7802 C   0  0  0  0  0  0  0  0  0  0  0  0
   -8.6052   -3.6111   -0.8257 O   0  0  0  0  0  0  0  0  0  0  0  0
   -8.6196   -4.0508   -1.6956 H   0  0  0  0  0  0  0  0  0  0  0  0
   -7.2750   -2.0627    0.3899 C   0  0  0  0  0  0  0  0  0  0  0  0
   -7.9909   -2.1616    1.2204 H   0  0  0  0  0  0  0  0  0  0  0  0
   -6.1632   -1.2108    0.5112 C   0  0  0  0  0  0  0  0  0  0  0  0
   -6.0029   -0.4121    1.7908 C   0  0  0  0  0  0  0  0  0  0  0  0
   -6.7571    0.4079    1.7802 H   0  0  0  0  0  0  0  0  0  0  0  0
   -6.2709   -1.0484    2.6606 H   0  0  0  0  0  0  0  0  0  0  0  0
   -4.6124    0.1981    1.9637 C   0  0  0  0  0  0  0  0  0  0  0  0
   -3.8745   -0.5886    2.2395 H   0  0  0  0  0  0  0  0  0  0  0  0
   -4.6226    0.9277    2.7993 H   0  0  0  0  0  0  0  0  0  0  0  0
   -4.1583    0.8683    0.6648 C   0  0  1  0  0  0  0  0  0  0  0  0
   -4.9630    1.5742    0.3505 H   0  0  0  0  0  0  0  0  0  0  0  0
   -2.8474    1.6411    0.7914 C   0  0  2  0  0  0  0  0  0  0  0  0
   -2.0516    0.8872    0.9947 H   0  0  0  0  0  0  0  0  0  0  0  0
   -2.7024    2.7396    1.8629 C   0  0  0  0  0  0  0  0  0  0  0  0
   -3.6470    3.3148    1.9643 H   0  0  0  0  0  0  0  0  0  0  0  0
   -2.4815    2.3131    2.8609 H   0  0  0  0  0  0  0  0  0  0  0  0
   -1.5540    3.6433    1.3425 C   0  0  0  0  0  0  0  0  0  0  0  0
   -0.6905    3.6919    2.0312 H   0  0  0  0  0  0  0  0  0  0  0  0
   -1.8883    4.6838    1.1623 H   0  0  0  0  0  0  0  0  0  0  0  0
  2  1  1  0  0  0  0
  3  2  1  1  0  0  0
  3 43  1  0  0  0  0
  4  3  1  0  0  0  0
  5  4  1  0  0  0  0
  6  7  1  6  0  0  0
  6  3  1  0  0  0  0
  6 38  1  0  0  0  0
  7  8  1  0  0  0  0
  9  7  1  0  0  0  0
 10  7  1  0  0  0  0
 11 13  1  0  0  0  0
 11  6  1  0  0  0  0
 12 11  1  0  0  0  0
 14 11  1  0  0  0  0
 14 17  1  0  0  0  0
 15 14  1  0  0  0  0
 16 14  1  0  0  0  0
 17 18  1  1  0  0  0
 17 36  1  0  0  0  0
 19 17  1  0  0  0  0
 19 29  1  0  0  0  0
 20 19  2  0  0  0  0
 21 20  1  0  0  0  0
 22 20  1  0  0  0  0
 22 24  2  0  0  0  0
 23 22  1  0  0  0  0
 24 27  1  0  0  0  0
 25 24  1  0  0  0  0
 26 25  1  0  0  0  0
 27 29  2  0  0  0  0
 27 28  1  0  0  0  0
 29 30  1  0  0  0  0
 30 33  1  0  0  0  0
 30 32  1  0  0  0  0
 31 30  1  0  0  0  0
 33 34  1  0  0  0  0
 33 35  1  0  0  0  0
 36 37  1  6  0  0  0
 36 38  1  0  0  0  0
 36 33  1  0  0  0  0
 38 39  1  1  0  0  0
 38 40  1  0  0  0  0
 40 41  1  0  0  0  0
 40 42  1  0  0  0  0
 43 40  1  0  0  0  0
 43 44  1  0  0  0  0
 45 43  1  0  0  0  0
M  END
