2
q = -1.0, confidence = 0.106

  9  8  0  0  0  0  0  0  0  0999 V2000
    1.9923    0.0002   -0.0677 S   0  0  0  0  0  0  0  0  0  0  0  0
    0.4178    0.0023   -1.0305 C   0  0  0  0  0  3  0  0  0  0  0  0
    1.3088   -0.0029    1.4330 F   0  0  0  0  0  0  0  0  0  0  0  0
    3.4423   -0.0015    0.6840 F   0  0  0  0  0  0  0  0  0  0  0  0
    2.0360   -1.6471   -0.0321 F   0  0  0  0  0  0  0  0  0  0  0  0
    2.0362    1.6473   -0.0252 F   0  0  0  0  0  0  0  0  0  0  0  0
    2.8250    0.0032   -1.4952 F   0  0  0  0  0  0  0  0  0  0  0  0
    0.5234   -0.8980   -1.6590 H   0  0  0  0  0  0  0  0  0  0  0  0
    0.5232    0.9055   -1.6549 H   0  0  0  0  0  0  0  0  0  0  0  0
  1  5  1  0  0  0  0
  1  6  1  0  0  0  0
  1  4  1  0  0  0  0
  1  3  1  0  0  0  0
  2  1  1  0  0  0  0
  7  1  1  0  0  0  0
  8  2  1  0  0  0  0
  9  2  1  0  0  0  0
M  END
