6
q = 0.0, confidence = 0.72

 38 38  0  0  1  0  0  0  0  0999 V2000
    4.5722   -1.7015    0.2020 N   0  3  0  0  0  0  0  0  0  0  0  0
    5.1432   -0.9990    0.7067 H   0  0  0  0  0  0  0  0  0  0  0  0
    1.3237    3.4216   -0.1539 N   0  3  0  0  0  0  0  0  0  0  0  0
    0.3953    2.8491   -0.0933 H   0  0  0  0  0  0  0  0  0  0  0  0
    0.2877   -1.1034    0.2825 C   0  0  0  0  0  2  0  0  0  0  0  0
    0.1806   -0.4914   -0.8498 C   0  0  0  0  0  2  0  0  0  0  0  0
    1.0617    0.5897   -1.3614 C   0  0  0  0  0  0  0  0  0  0  0  0
    0.4545    1.4183   -1.7807 H   0  0  0  0  0  0  0  0  0  0  0  0
    1.7524    0.2738   -2.1751 H   0  0  0  0  0  0  0  0  0  0  0  0
    1.8052    1.0324   -0.0662 C   0  0  1  0  0  0  0  0  0  0  0  0
    0.9767    1.2357    0.6489 H   0  0  0  0  0  0  0  0  0  0  0  0
    2.5260   -0.1661    0.6290 C   0  0  1  0  0  0  0  0  0  0  0  0
    3.1821    0.2428    1.4326 H   0  0  0  0  0  0  0  0  0  0  0  0
    1.3855   -1.0412    1.2802 C   0  0  0  0  0  0  0  0  0  0  0  0
    1.7394   -2.0389    1.6105 H   0  0  0  0  0  0  0  0  0  0  0  0
    1.0166   -0.5351    2.1983 H   0  0  0  0  0  0  0  0  0  0  0  0
    2.4662    2.4012   -0.2086 C   0  0  0  0  0  0  0  0  0  0  0  0
    3.1610    2.6391    0.6208 H   0  0  0  0  0  0  0  0  0  0  0  0
    3.0081    2.5503   -1.1641 H   0  0  0  0  0  0  0  0  0  0  0  0
    1.2421    4.3001   -1.3524 C   0  0  0  0  0  0  0  0  0  0  0  0
    0.3317    4.9224   -1.2762 H   0  0  0  0  0  0  0  0  0  0  0  0
    1.1754    3.6717   -2.2587 H   0  0  0  0  0  0  0  0  0  0  0  0
    2.1374    4.9481   -1.4051 H   0  0  0  0  0  0  0  0  0  0  0  0
    1.3195    4.2007    1.1191 C   0  0  0  0  0  0  0  0  0  0  0  0
    0.4100    4.8279    1.1459 H   0  0  0  0  0  0  0  0  0  0  0  0
    2.2250    4.8334    1.1754 H   0  0  0  0  0  0  0  0  0  0  0  0
    1.2792    3.4924    1.9663 H   0  0  0  0  0  0  0  0  0  0  0  0
    3.3819   -0.9500   -0.3783 C   0  0  0  0  0  0  0  0  0  0  0  0
    2.7688   -1.6997   -0.9186 H   0  0  0  0  0  0  0  0  0  0  0  0
    3.8282   -0.2724   -1.1323 H   0  0  0  0  0  0  0  0  0  0  0  0
    4.2236   -2.7675    1.1999 C   0  0  0  0  0  0  0  0  0  0  0  0
    5.1539   -3.2761    1.5110 H   0  0  0  0  0  0  0  0  0  0  0  0
    3.5387   -3.4905    0.7206 H   0  0  0  0  0  0  0  0  0  0  0  0
    3.7354   -2.3091    2.0758 H   0  0  0  0  0  0  0  0  0  0  0  0
    5.4268   -2.2623   -0.8985 C   0  0  0  0  0  0  0  0  0  0  0  0
    5.7236   -1.4468   -1.5818 H   0  0  0  0  0  0  0  0  0  0  0  0
    4.8354   -3.0158   -1.4497 H   0  0  0  0  0  0  0  0  0  0  0  0
    6.3226   -2.7360   -0.4585 H   0  0  0  0  0  0  0  0  0  0  0  0
  1  2  1  0  0  0  0
  1 31  1  0  0  0  0
  3  4  1  0  0  0  0
  3 24  1  0  0  0  0
  5 14  1  0  0  0  0
  6  5  1  0  0  0  0
  7  6  1  0  0  0  0
  7 10  1  0  0  0  0
  8  7  1  0  0  0  0
  9  7  1  0  0  0  0
 10 12  1  0  0  0  0
 10 11  1  1  0  0  0
 12 14  1  0  0  0  0
 12 13  1  1  0  0  0
 14 15  1  0  0  0  0
 14 16  1  0  0  0  0
 17  3  1  0  0  0  0
 17 10  1  0  0  0  0
 17 18  1  0  0  0  0
 19 17  1  0  0  0  0
 20 21  1  0  0  0  0
 20  3  1  0  0  0  0
 22 20  1  0  0  0  0
 23 20  1  0  0  0  0
 24 25  1  0  0  0  0
 24 26  1  0  0  0  0
 24 27  1  0  0  0  0
 28  1  1  0  0  0  0
 28 12  1  0  0  0  0
 29 28  1  0  0  0  0
 30 28  1  0  0  0  0
 31 32  1  0  0  0  0
 31 34  1  0  0  0  0
 33 31  1  0  0  0  0
 35 38  1  0  0  0  0
 35  1  1  0  0  0  0
 36 35  1  0  0  0  0
 37 35  1  0  0  0  0
M  CHG  2   1   1   3   1
M  END
