5
q = 0.0, confidence = 1.0

 49 51  0  0  0  0  0  0  0  0999 V2000
    2.3578    0.7038   -0.1312 N   0  0  0  0  0  0  0  0  0  0  0  0
    3.1431    1.7891   -0.1199 N   0  0  0  0  0  2  0  0  0  0  0  0
    2.2865    2.7861    0.0290 N   0  0  0  0  0  0  0  0  0  0  0  0
    0.9756    2.3598    0.1029 C   0  0  0  0  0  0  0  0  0  0  0  0
    0.9994    0.9484   -0.0113 C   0  0  0  0  0  3  0  0  0  0  0  0
    2.9859   -0.5911   -0.2148 C   0  0  0  0  0  0  0  0  0  0  0  0
    2.9829   -1.2648   -1.4552 C   0  0  0  0  0  0  0  0  0  0  0  0
    2.3955   -0.6357   -2.7097 C   0  0  0  0  0  0  0  0  0  0  0  0
    1.7511    0.2057   -2.3877 H   0  0  0  0  0  0  0  0  0  0  0  0
    3.5184   -0.0579   -3.5902 C   0  0  0  0  0  0  0  0  0  0  0  0
    4.1225    0.6849   -3.0310 H   0  0  0  0  0  0  0  0  0  0  0  0
    3.0960    0.4415   -4.4863 H   0  0  0  0  0  0  0  0  0  0  0  0
    4.2053   -0.8572   -3.9382 H   0  0  0  0  0  0  0  0  0  0  0  0
    1.4917   -1.6070   -3.4809 C   0  0  0  0  0  0  0  0  0  0  0  0
    2.0581   -2.4631   -3.9017 H   0  0  0  0  0  0  0  0  0  0  0  0
    1.0042   -1.0861   -4.3299 H   0  0  0  0  0  0  0  0  0  0  0  0
    0.6963   -2.0028   -2.8182 H   0  0  0  0  0  0  0  0  0  0  0  0
    3.5942   -2.5319   -1.4980 C   0  0  0  0  0  0  0  0  0  0  0  0
    3.6134   -3.0881   -2.4468 H   0  0  0  0  0  0  0  0  0  0  0  0
    4.1732   -3.0929   -0.3536 C   0  0  0  0  0  0  0  0  0  0  0  0
    4.6436   -4.0864   -0.4086 H   0  0  0  0  0  0  0  0  0  0  0  0
    4.1507   -2.4003    0.8639 C   0  0  0  0  0  0  0  0  0  0  0  0
    4.5982   -2.8578    1.7579 H   0  0  0  0  0  0  0  0  0  0  0  0
    3.5502   -1.1321    0.9647 C   0  0  0  0  0  0  0  0  0  0  0  0
    3.5303   -0.3678    2.2829 C   0  0  0  0  0  0  0  0  0  0  0  0
    2.6857    0.3512    2.2306 H   0  0  0  0  0  0  0  0  0  0  0  0
    4.8311    0.4407    2.4536 C   0  0  0  0  0  0  0  0  0  0  0  0
    5.7075   -0.2383    2.5058 H   0  0  0  0  0  0  0  0  0  0  0  0
    4.8041    1.0338    3.3912 H   0  0  0  0  0  0  0  0  0  0  0  0
    4.9857    1.1326    1.6031 H   0  0  0  0  0  0  0  0  0  0  0  0
    3.2766   -1.2691    3.4998 C   0  0  0  0  0  0  0  0  0  0  0  0
    2.3581   -1.8748    3.3731 H   0  0  0  0  0  0  0  0  0  0  0  0
    3.1572   -0.6500    4.4118 H   0  0  0  0  0  0  0  0  0  0  0  0
    4.1237   -1.9604    3.6876 H   0  0  0  0  0  0  0  0  0  0  0  0
    2.8217    4.1357    0.1299 C   0  0  0  0  0  0  0  0  0  0  0  0
    3.8529    4.0659    0.5182 H   0  0  0  0  0  0  0  0  0  0  0  0
    2.1891    4.7228    0.8198 H   0  0  0  0  0  0  0  0  0  0  0  0
    2.8349    4.6290   -0.8615 H   0  0  0  0  0  0  0  0  0  0  0  0
   -0.1807    3.2374    0.3135 C   0  0  0  0  0  0  0  0  0  0  0  0
   -0.3347    4.4768   -0.3484 C   0  0  0  0  0  0  0  0  0  0  0  0
    0.4167    4.8106   -1.0788 H   0  0  0  0  0  0  0  0  0  0  0  0
   -1.4708    5.2667   -0.1209 C   0  0  0  0  0  0  0  0  0  0  0  0
   -1.5836    6.2236   -0.6524 H   0  0  0  0  0  0  0  0  0  0  0  0
   -2.4683    4.8314    0.7654 C   0  0  0  0  0  0  0  0  0  0  0  0
   -3.3605    5.4515    0.9395 H   0  0  0  0  0  0  0  0  0  0  0  0
   -2.3287    3.5960    1.4194 C   0  0  0  0  0  0  0  0  0  0  0  0
   -3.1103    3.2433    2.1090 H   0  0  0  0  0  0  0  0  0  0  0  0
   -1.1983    2.8020    1.1942 C   0  0  0  0  0  0  0  0  0  0  0  0
   -1.0867    1.8239    1.6850 H   0  0  0  0  0  0  0  0  0  0  0  0
  1  2  1  0  0  0  0
  1  5  1  0  0  0  0
  2  3  1  0  0  0  0
  3  4  1  0  0  0  0
  3 35  1  0  0  0  0
  4 39  1  0  0  0  0
  5  4  2  0  0  0  0
  6  1  1  0  0  0  0
  6 24  1  0  0  0  0
  7  6  2  0  0  0  0
  8  9  1  0  0  0  0
  8  7  1  0  0  0  0
 10 11  1  0  0  0  0
 10  8  1  0  0  0  0
 12 10  1  0  0  0  0
 13 10  1  0  0  0  0
 14 17  1  0  0  0  0
 14  8  1  0  0  0  0
 15 14  1  0  0  0  0
 16 14  1  0  0  0  0
 18  7  1  0  0  0  0
 18 20  2  0  0  0  0
 19 18  1  0  0  0  0
 20 22  1  0  0  0  0
 21 20  1  0  0  0  0
 22 24  2  0  0  0  0
 22 23  1  0  0  0  0
 24 25  1  0  0  0  0
 25 27  1  0  0  0  0
 25 31  1  0  0  0  0
 26 25  1  0  0  0  0
 27 28  1  0  0  0  0
 27 29  1  0  0  0  0
 30 27  1  0  0  0  0
 31 34  1  0  0  0  0
 31 33  1  0  0  0  0
 32 31  1  0  0  0  0
 35 36  1  0  0  0  0
 35 37  1  0  0  0  0
 38 35  1  0  0  0  0
 39 48  1  0  0  0  0
 40 42  1  0  0  0  0
 40 39  2  0  0  0  0
 41 40  1  0  0  0  0
 42 44  2  0  0  0  0
 43 42  1  0  0  0  0
 44 45  1  0  0  0  0
 44 46  1  0  0  0  0
 46 47  1  0  0  0  0
 48 46  2  0  0  0  0
 48 49  1  0  0  0  0
M  END
