3
q = 0.0, confidence = 0.916

 29 30  0  0  0  0  0  0  0  0999 V2000
    1.5638   -0.3239   -1.4979 N   0  0  0  0  0  2  0  0  0  0  0  0
    3.3248   -0.9273   -0.0203 C   0  0  0  0  0  0  0  0  0  0  0  0
    0.6630   -1.1005   -1.9625 C   0  0  0  0  0  2  0  0  0  0  0  0
    2.8860    1.5378   -0.7473 C   0  0  0  0  0  0  0  0  0  0  0  0
    2.5526    0.0944   -0.7866 C   0  0  0  0  0  3  0  0  0  0  0  0
    3.5674   -0.7484    1.3585 C   0  0  0  0  0  0  0  0  0  0  0  0
    3.2164    0.1645    1.8603 H   0  0  0  0  0  0  0  0  0  0  0  0
    0.8465   -1.5147   -3.4120 C   0  0  0  0  0  0  0  0  0  0  0  0
   -0.1105   -1.4268   -3.9622 H   0  0  0  0  0  0  0  0  0  0  0  0
    1.1113   -2.5922   -3.4329 H   0  0  0  0  0  0  0  0  0  0  0  0
    1.6373   -0.9382   -3.9336 H   0  0  0  0  0  0  0  0  0  0  0  0
    4.0578    2.0095   -0.1138 C   0  0  0  0  0  0  0  0  0  0  0  0
    4.7531    1.2969    0.3504 H   0  0  0  0  0  0  0  0  0  0  0  0
    2.0386    2.4754   -1.3830 C   0  0  0  0  0  0  0  0  0  0  0  0
    1.1336    2.1200   -1.8935 H   0  0  0  0  0  0  0  0  0  0  0  0
    4.3456    3.3818   -0.0811 C   0  0  0  0  0  0  0  0  0  0  0  0
    5.2619    3.7311    0.4186 H   0  0  0  0  0  0  0  0  0  0  0  0
    3.7066   -2.1361   -0.6380 C   0  0  0  0  0  0  0  0  0  0  0  0
    3.5057   -2.2822   -1.7100 H   0  0  0  0  0  0  0  0  0  0  0  0
    3.4780    4.3051   -0.6849 C   0  0  0  0  0  0  0  0  0  0  0  0
    3.7047    5.3816   -0.6524 H   0  0  0  0  0  0  0  0  0  0  0  0
    4.1836   -1.7645    2.0999 C   0  0  0  0  0  0  0  0  0  0  0  0
    4.3422   -1.6266    3.1801 H   0  0  0  0  0  0  0  0  0  0  0  0
    2.3253    3.8426   -1.3455 C   0  0  0  0  0  0  0  0  0  0  0  0
    1.6389    4.5511   -1.8335 H   0  0  0  0  0  0  0  0  0  0  0  0
    4.5715   -2.9608    1.4771 C   0  0  0  0  0  0  0  0  0  0  0  0
    5.0517   -3.7584    2.0639 H   0  0  0  0  0  0  0  0  0  0  0  0
    4.3319   -3.1442    0.1058 C   0  0  0  0  0  0  0  0  0  0  0  0
    4.6270   -4.0831   -0.3861 H   0  0  0  0  0  0  0  0  0  0  0  0
  1  5  1  0  0  0  0
  2  6  1  0  0  0  0
  3  1  1  0  0  0  0
  4 12  1  0  0  0  0
  5  4  1  0  0  0  0
  5  2  1  0  0  0  0
  6  7  1  0  0  0  0
  6 22  2  0  0  0  0
  8  3  1  0  0  0  0
  9  8  1  0  0  0  0
 10  8  1  0  0  0  0
 11  8  1  0  0  0  0
 12 16  2  0  0  0  0
 12 13  1  0  0  0  0
 14 24  1  0  0  0  0
 14  4  2  0  0  0  0
 15 14  1  0  0  0  0
 16 17  1  0  0  0  0
 18  2  2  0  0  0  0
 18 28  1  0  0  0  0
 19 18  1  0  0  0  0
 20 21  1  0  0  0  0
 20 16  1  0  0  0  0
 22 23  1  0  0  0  0
 24 20  2  0  0  0  0
 25 24  1  0  0  0  0
 26 27  1  0  0  0  0
 26 22  1  0  0  0  0
 28 26  2  0  0  0  0
 29 28  1  0  0  0  0
M  END
