2
q = 0.0, confidence = 0.99

 28 28  0  0  0  0  0  0  0  0999 V2000
   -1.5033    1.1776   -1.1772 P   0  0  0  0  0  2  0  0  0  0  0  0
    0.1689    1.0293   -0.6298 C   0  0  0  0  0  3  0  0  0  0  0  0
    1.3255    1.7299   -0.7757 C   0  0  0  0  0  0  0  0  0  0  0  0
    1.2904    2.6548   -1.3838 H   0  0  0  0  0  0  0  0  0  0  0  0
    2.6640    1.3779   -0.2839 C   0  0  0  0  0  0  0  0  0  0  0  0
    2.8755    0.5657    0.8580 C   0  0  0  0  0  0  0  0  0  0  0  0
    2.0083    0.2338    1.4432 H   0  0  0  0  0  0  0  0  0  0  0  0
    4.1702    0.2278    1.2710 C   0  0  0  0  0  0  0  0  0  0  0  0
    4.3091   -0.3937    2.1694 H   0  0  0  0  0  0  0  0  0  0  0  0
    5.2895    0.6946    0.5601 C   0  0  0  0  0  0  0  0  0  0  0  0
    6.3059    0.4277    0.8869 H   0  0  0  0  0  0  0  0  0  0  0  0
    5.0994    1.5234   -0.5579 C   0  0  0  0  0  0  0  0  0  0  0  0
    5.9686    1.9076   -1.1136 H   0  0  0  0  0  0  0  0  0  0  0  0
    3.8046    1.8671   -0.9678 C   0  0  0  0  0  0  0  0  0  0  0  0
    3.6610    2.5184   -1.8448 H   0  0  0  0  0  0  0  0  0  0  0  0
   -2.2915    2.4910    0.0078 C   0  0  0  0  0  0  0  0  0  0  0  0
   -1.7434    3.8327   -0.5086 C   0  0  0  0  0  0  0  0  0  0  0  0
   -1.9493    3.9762   -1.5898 H   0  0  0  0  0  0  0  0  0  0  0  0
   -0.6488    3.9097   -0.3491 H   0  0  0  0  0  0  0  0  0  0  0  0
   -2.2259    4.6712    0.0395 H   0  0  0  0  0  0  0  0  0  0  0  0
   -3.8111    2.4170   -0.2069 C   0  0  0  0  0  0  0  0  0  0  0  0
   -4.3125    3.2283    0.3640 H   0  0  0  0  0  0  0  0  0  0  0  0
   -4.2304    1.4518    0.1384 H   0  0  0  0  0  0  0  0  0  0  0  0
   -4.0781    2.5433   -1.2765 H   0  0  0  0  0  0  0  0  0  0  0  0
   -1.9294    2.3035    1.4809 C   0  0  0  0  0  0  0  0  0  0  0  0
   -2.3336    3.1529    2.0736 H   0  0  0  0  0  0  0  0  0  0  0  0
   -0.8325    2.2731    1.6324 H   0  0  0  0  0  0  0  0  0  0  0  0
   -2.3587    1.3717    1.8963 H   0  0  0  0  0  0  0  0  0  0  0  0
  1  2  1  0  0  0  0
  1 16  1  0  0  0  0
  3  2  2  0  0  0  0
  3  5  1  0  0  0  0
  4  3  1  0  0  0  0
  5  6  1  0  0  0  0
  6  8  2  0  0  0  0
  6  7  1  0  0  0  0
  8  9  1  0  0  0  0
 10 11  1  0  0  0  0
 10  8  1  0  0  0  0
 12 10  2  0  0  0  0
 13 12  1  0  0  0  0
 14 12  1  0  0  0  0
 14  5  2  0  0  0  0
 15 14  1  0  0  0  0
 16 25  1  0  0  0  0
 17 19  1  0  0  0  0
 17 16  1  0  0  0  0
 17 20  1  0  0  0  0
 18 17  1  0  0  0  0
 21 16  1  0  0  0  0
 21 23  1  0  0  0  0
 21 22  1  0  0  0  0
 24 21  1  0  0  0  0
 25 27  1  0  0  0  0
 25 28  1  0  0  0  0
 25 26  1  0  0  0  0
M  END
