3
q = 0.0, confidence = 0.952

 33 33  0  0  0  0  0  0  0  0999 V2000
    0.3248    1.0541    2.1534 N   0  0  0  0  0  0  0  0  0  0  0  0
    1.1409    3.1378   -0.7385 N   0  0  0  0  0  0  0  0  0  0  0  0
    0.2769    0.5837    0.8821 C   0  0  0  0  0  2  0  0  0  0  0  0
   -0.8151    0.8910    3.0507 C   0  0  0  0  0  0  0  0  0  0  0  0
   -1.6859    1.4879    2.7134 H   0  0  0  0  0  0  0  0  0  0  0  0
   -0.5292    1.2146    4.0683 H   0  0  0  0  0  0  0  0  0  0  0  0
   -1.1320   -0.1701    3.0777 H   0  0  0  0  0  0  0  0  0  0  0  0
    1.4775    1.7302    2.7453 C   0  0  0  0  0  0  0  0  0  0  0  0
    2.3223    1.7219    2.0358 H   0  0  0  0  0  0  0  0  0  0  0  0
    1.7831    1.2157    3.6805 H   0  0  0  0  0  0  0  0  0  0  0  0
    1.2321    2.7853    2.9991 H   0  0  0  0  0  0  0  0  0  0  0  0
    1.5341    0.7933    0.0820 C   0  0  0  0  0  0  0  0  0  0  0  0
    2.4687   -0.3544   -0.0030 C   0  0  0  0  0  0  0  0  0  0  0  0
    2.4987   -1.3266    1.0289 C   0  0  0  0  0  0  0  0  0  0  0  0
    1.8140   -1.2252    1.8830 H   0  0  0  0  0  0  0  0  0  0  0  0
    3.3753   -2.4175    0.9778 C   0  0  0  0  0  0  0  0  0  0  0  0
    3.3659   -3.1552    1.7948 H   0  0  0  0  0  0  0  0  0  0  0  0
    4.2548   -2.5759   -0.1051 C   0  0  0  0  0  0  0  0  0  0  0  0
    4.9395   -3.4361   -0.1481 H   0  0  0  0  0  0  0  0  0  0  0  0
    4.2341   -1.6297   -1.1431 C   0  0  0  0  0  0  0  0  0  0  0  0
    4.9008   -1.7492   -2.0113 H   0  0  0  0  0  0  0  0  0  0  0  0
    3.3497   -0.5442   -1.0992 C   0  0  0  0  0  0  0  0  0  0  0  0
    3.3208    0.1550   -1.9490 H   0  0  0  0  0  0  0  0  0  0  0  0
    1.8460    1.9624   -0.5747 C   0  0  0  0  0  0  0  0  0  0  0  0
    2.8121    1.9895   -1.1036 H   0  0  0  0  0  0  0  0  0  0  0  0
   -0.1138    3.4301   -0.0679 C   0  0  0  0  0  0  0  0  0  0  0  0
   -0.7190    2.5105    0.0420 H   0  0  0  0  0  0  0  0  0  0  0  0
   -0.6901    4.1583   -0.6741 H   0  0  0  0  0  0  0  0  0  0  0  0
    0.0408    3.8781    0.9435 H   0  0  0  0  0  0  0  0  0  0  0  0
    1.8692    4.3092   -1.1919 C   0  0  0  0  0  0  0  0  0  0  0  0
    2.2472    4.9317   -0.3448 H   0  0  0  0  0  0  0  0  0  0  0  0
    1.2113    4.9520   -1.8132 H   0  0  0  0  0  0  0  0  0  0  0  0
    2.7377    4.0049   -1.8070 H   0  0  0  0  0  0  0  0  0  0  0  0
  1  8  1  0  0  0  0
  1  4  1  0  0  0  0
  2 24  1  0  0  0  0
  2 26  1  0  0  0  0
  3  1  1  0  0  0  0
  4  7  1  0  0  0  0
  4  6  1  0  0  0  0
  5  4  1  0  0  0  0
  8 11  1  0  0  0  0
  8 10  1  0  0  0  0
  9  8  1  0  0  0  0
 12  3  1  0  0  0  0
 13 12  1  0  0  0  0
 13 14  1  0  0  0  0
 14 15  1  0  0  0  0
 16 14  2  0  0  0  0
 16 17  1  0  0  0  0
 18 16  1  0  0  0  0
 19 18  1  0  0  0  0
 20 22  1  0  0  0  0
 20 18  2  0  0  0  0
 21 20  1  0  0  0  0
 22 13  2  0  0  0  0
 23 22  1  0  0  0  0
 24 12  2  0  0  0  0
 25 24  1  0  0  0  0
 26 27  1  0  0  0  0
 26 29  1  0  0  0  0
 28 26  1  0  0  0  0
 30  2  1  0  0  0  0
 30 31  1  0  0  0  0
 32 30  1  0  0  0  0
 33 30  1  0  0  0  0
M  END
