3
q = -1.0, confidence = 0.0

 33 35  0  0  1  0  0  0  0  0999 V2000
    2.1512    0.8352   -0.0694 C   0  0  0  0  0  0  0  0  0  0  0  0
    1.0182    1.5482    0.4258 C   0  0  0  0  0  3  0  0  0  0  0  0
    0.5777    0.9122    1.6200 C   0  0  0  0  0  3  0  0  0  0  0  0
    1.3867   -0.2533    1.8270 C   0  0  0  0  0  3  0  0  0  0  0  0
    2.3653   -0.2817    0.7906 C   0  0  0  0  0  0  0  0  0  0  0  0
    3.6209   -1.0761    0.6201 C   0  0  2  0  0  0  0  0  0  0  0  0
    4.7918   -0.0041    0.6973 C   0  0  0  0  0  0  0  0  0  0  0  0
    4.4348    0.2838   -0.8182 C   0  0  2  0  0  0  0  0  0  0  0  0
    3.2281    1.2426   -1.0737 C   0  0  0  0  0  0  0  0  0  0  0  0
    3.9366   -1.1854   -0.8950 C   0  0  0  0  0  0  0  0  0  0  0  0
    6.1707   -0.6705    0.8123 C   0  0  0  0  0  0  0  0  0  0  0  0
    4.7038    1.0736    1.7800 C   0  0  0  0  0  0  0  0  0  0  0  0
    2.8003    1.1263   -2.5508 C   0  0  0  0  0  0  0  0  0  0  0  0
    3.6212    2.7193   -0.8370 C   0  0  0  0  0  0  0  0  0  0  0  0
    0.5833    2.4525   -0.0149 H   0  0  0  0  0  0  0  0  0  0  0  0
   -0.2137    1.2762    2.2775 H   0  0  0  0  0  0  0  0  0  0  0  0
    1.3180   -0.9606    2.6622 H   0  0  0  0  0  0  0  0  0  0  0  0
    3.6730   -1.9741    1.2658 H   0  0  0  0  0  0  0  0  0  0  0  0
    5.2844    0.5827   -1.4683 H   0  0  0  0  0  0  0  0  0  0  0  0
    4.7437   -1.9089   -1.1060 H   0  0  0  0  0  0  0  0  0  0  0  0
    3.0777   -1.4109   -1.5495 H   0  0  0  0  0  0  0  0  0  0  0  0
    6.3294   -1.4799    0.0754 H   0  0  0  0  0  0  0  0  0  0  0  0
    6.3094   -1.1032    1.8248 H   0  0  0  0  0  0  0  0  0  0  0  0
    6.9708    0.0834    0.6587 H   0  0  0  0  0  0  0  0  0  0  0  0
    3.7226    1.5801    1.8224 H   0  0  0  0  0  0  0  0  0  0  0  0
    5.4872    1.8455    1.6332 H   0  0  0  0  0  0  0  0  0  0  0  0
    4.8801    0.6131    2.7753 H   0  0  0  0  0  0  0  0  0  0  0  0
    2.4891    0.1015   -2.8202 H   0  0  0  0  0  0  0  0  0  0  0  0
    3.6469    1.4265   -3.2030 H   0  0  0  0  0  0  0  0  0  0  0  0
    1.9406    1.7890   -2.7667 H   0  0  0  0  0  0  0  0  0  0  0  0
    4.4751    2.9874   -1.4925 H   0  0  0  0  0  0  0  0  0  0  0  0
    3.9117    2.9273    0.2077 H   0  0  0  0  0  0  0  0  0  0  0  0
    2.7795    3.3922   -1.0976 H   0  0  0  0  0  0  0  0  0  0  0  0
  1  2  1  0  0  0  0
  1  5  2  0  0  0  0
  2  3  1  0  0  0  0
  3  4  1  0  0  0  0
  3 16  1  0  0  0  0
  4 17  1  0  0  0  0
  5  4  1  0  0  0  0
  6  7  1  0  0  0  0
  6  5  1  0  0  0  0
  6 18  1  1  0  0  0
  7 11  1  0  0  0  0
  7 12  1  0  0  0  0
  8 19  1  6  0  0  0
  8  7  1  0  0  0  0
  9 14  1  0  0  0  0
  9  8  1  0  0  0  0
  9  1  1  0  0  0  0
 10  8  1  0  0  0  0
 10  6  1  0  0  0  0
 11 23  1  0  0  0  0
 12 25  1  0  0  0  0
 12 27  1  0  0  0  0
 13  9  1  0  0  0  0
 14 32  1  0  0  0  0
 15  2  1  0  0  0  0
 20 10  1  0  0  0  0
 21 10  1  0  0  0  0
 22 11  1  0  0  0  0
 24 11  1  0  0  0  0
 26 12  1  0  0  0  0
 28 13  1  0  0  0  0
 29 13  1  0  0  0  0
 30 13  1  0  0  0  0
 31 14  1  0  0  0  0
 33 14  1  0  0  0  0
M  END
