3
q = 0.0, confidence = 0.73

 25 27  0  0  1  0  0  0  0  0999 V2000
   -0.1148   -3.2565   -0.0015 O   0  0  0  0  0  0  0  0  0  0  0  0
   -3.0880   -1.4571   -0.0004 N   0  0  0  0  0  0  0  0  0  0  0  0
   -0.8314   -0.8840   -0.0009 C   0  0  0  0  0  3  0  0  0  0  0  0
   -0.9820   -2.3919   -0.0011 C   0  0  0  0  0  0  0  0  0  0  0  0
   -2.4551   -2.6826   -0.0008 C   0  0  2  0  0  3  0  0  0  0  0  0
   -2.1326   -0.3846   -0.0004 C   0  0  0  0  0  0  0  0  0  0  0  0
   -3.1718   -3.8636   -0.0009 C   0  0  0  0  0  0  0  0  0  0  0  0
   -2.6159   -4.8126   -0.0013 H   0  0  0  0  0  0  0  0  0  0  0  0
   -4.5843   -3.8052   -0.0006 C   0  0  0  0  0  0  0  0  0  0  0  0
   -5.1840   -4.7259   -0.0006 H   0  0  0  0  0  0  0  0  0  0  0  0
   -5.2066   -2.5474   -0.0002 C   0  0  0  0  0  0  0  0  0  0  0  0
   -6.3021   -2.4591    0.0001 H   0  0  0  0  0  0  0  0  0  0  0  0
   -4.4452   -1.3723   -0.0001 C   0  0  0  0  0  0  0  0  0  0  0  0
   -4.8740   -0.3612    0.0001 H   0  0  0  0  0  0  0  0  0  0  0  0
   -2.6675    0.9980   -0.0005 C   0  0  0  0  0  0  0  0  0  0  0  0
   -2.9483    1.6603    1.2163 C   0  0  0  0  0  0  0  0  0  0  0  0
   -2.7408    1.1481    2.1667 H   0  0  0  0  0  0  0  0  0  0  0  0
   -3.4740    2.9614    1.2149 C   0  0  0  0  0  0  0  0  0  0  0  0
   -3.6825    3.4676    2.1694 H   0  0  0  0  0  0  0  0  0  0  0  0
   -3.7339    3.6151   -0.0007 C   0  0  0  0  0  0  0  0  0  0  0  0
   -4.1471    4.6350   -0.0008 H   0  0  0  0  0  0  0  0  0  0  0  0
   -3.4723    2.9618   -1.2162 C   0  0  0  0  0  0  0  0  0  0  0  0
   -3.6796    3.4684   -2.1708 H   0  0  0  0  0  0  0  0  0  0  0  0
   -2.9467    1.6607   -1.2173 C   0  0  0  0  0  0  0  0  0  0  0  0
   -2.7380    1.1488   -2.1677 H   0  0  0  0  0  0  0  0  0  0  0  0
  1  4  2  0  0  0  0
  2 13  1  0  0  0  0
  3  6  2  0  0  0  0
  4  3  1  0  0  0  0
  5  4  1  6  0  0  0
  5  2  1  0  0  0  0
  6  2  1  0  0  0  0
  7  5  1  0  0  0  0
  7  9  2  0  0  0  0
  8  7  1  0  0  0  0
  9 11  1  0  0  0  0
 10  9  1  0  0  0  0
 11 13  2  0  0  0  0
 11 12  1  0  0  0  0
 13 14  1  0  0  0  0
 15  6  1  0  0  0  0
 15 16  1  0  0  0  0
 16 17  1  0  0  0  0
 18 16  2  0  0  0  0
 18 19  1  0  0  0  0
 20 18  1  0  0  0  0
 21 20  1  0  0  0  0
 22 20  2  0  0  0  0
 23 22  1  0  0  0  0
 24 22  1  0  0  0  0
 24 15  2  0  0  0  0
 25 24  1  0  0  0  0
M  END
