1
q = -1.0, confidence = 0.0

 19 18  0  0  0  0  0  0  0  0999 V2000
    2.0931   -0.1641    0.1235 C   0  0  0  0  0  3  0  0  0  0  0  0
    2.0775   -1.4879    0.8050 C   0  0  0  0  0  0  0  0  0  0  0  0
    2.1385   -2.5797    0.2499 O   0  0  0  0  0  0  0  0  0  0  0  0
    1.9483   -1.3481    2.1550 O   0  0  0  0  0  0  0  0  0  0  0  0
    1.7483   -2.5486    2.9004 C   0  0  0  0  0  0  0  0  0  0  0  0
    2.9687   -0.1805   -1.1177 C   0  0  0  0  0  0  0  0  0  0  0  0
    4.4660   -0.2046   -0.8622 C   0  0  0  0  0  0  0  0  0  0  0  0
    5.3188    0.0126   -1.7015 O   0  0  0  0  0  0  0  0  0  0  0  0
    4.7656   -0.5210    0.4277 O   0  0  0  0  0  0  0  0  0  0  0  0
    6.1594   -0.6162    0.7277 C   0  0  0  0  0  0  0  0  0  0  0  0
    2.4112    0.6169    0.8360 H   0  0  0  0  0  0  0  0  0  0  0  0
    2.0632   -2.3342    3.9385 H   0  0  0  0  0  0  0  0  0  0  0  0
    2.3378   -3.3832    2.4727 H   0  0  0  0  0  0  0  0  0  0  0  0
    0.6701   -2.8147    2.8899 H   0  0  0  0  0  0  0  0  0  0  0  0
    2.7555   -1.0886   -1.7198 H   0  0  0  0  0  0  0  0  0  0  0  0
    2.7879    0.6766   -1.7930 H   0  0  0  0  0  0  0  0  0  0  0  0
    6.2264   -0.8645    1.8021 H   0  0  0  0  0  0  0  0  0  0  0  0
    6.6775    0.3417    0.5175 H   0  0  0  0  0  0  0  0  0  0  0  0
    6.6422   -1.4070    0.1180 H   0  0  0  0  0  0  0  0  0  0  0  0
  1  2  1  0  0  0  0
  1 11  1  0  0  0  0
  2  4  1  0  0  0  0
  3  2  2  0  0  0  0
  4  5  1  0  0  0  0
  5 12  1  0  0  0  0
  6  7  1  0  0  0  0
  6  1  1  0  0  0  0
  7  9  1  0  0  0  0
  8  7  2  0  0  0  0
  9 10  1  0  0  0  0
 10 17  1  0  0  0  0
 13  5  1  0  0  0  0
 14  5  1  0  0  0  0
 15  6  1  0  0  0  0
 16  6  1  0  0  0  0
 18 10  1  0  0  0  0
 19 10  1  0  0  0  0
M  END
