2
q = -1.0, confidence = 0.0

 31 31  0  0  0  0  0  0  0  0999 V2000
    0.4097    0.0000    2.3173 O   0  0  0  0  0  0  0  0  0  0  0  0
    0.3273    0.0000    1.0860 C   0  0  0  0  0  3  0  0  0  0  0  0
    1.6006    0.0000    0.2535 C   0  0  0  0  0  0  0  0  0  0  0  0
    2.1725   -1.2341   -0.1519 C   0  0  0  0  0  0  0  0  0  0  0  0
    3.2658   -1.2136   -1.0376 C   0  0  0  0  0  0  0  0  0  0  0  0
    3.7102   -2.1618   -1.3761 H   0  0  0  0  0  0  0  0  0  0  0  0
    3.8018    0.0000   -1.4914 C   0  0  0  0  0  0  0  0  0  0  0  0
    4.6502    0.0000   -2.1944 H   0  0  0  0  0  0  0  0  0  0  0  0
    3.2658    1.2136   -1.0376 C   0  0  0  0  0  0  0  0  0  0  0  0
    3.7102    2.1619   -1.3761 H   0  0  0  0  0  0  0  0  0  0  0  0
    2.1725    1.2342   -0.1519 C   0  0  0  0  0  0  0  0  0  0  0  0
    1.6409   -2.5327    0.4451 C   0  0  0  0  0  0  0  0  0  0  0  0
    0.5432   -2.3993    0.5642 H   0  0  0  0  0  0  0  0  0  0  0  0
    2.2232   -2.7329    1.8581 C   0  0  0  0  0  0  0  0  0  0  0  0
    3.3278   -2.8440    1.8119 H   0  0  0  0  0  0  0  0  0  0  0  0
    1.8036   -3.6456    2.3330 H   0  0  0  0  0  0  0  0  0  0  0  0
    1.9862   -1.8620    2.5000 H   0  0  0  0  0  0  0  0  0  0  0  0
    1.8639   -3.7705   -0.4302 C   0  0  0  0  0  0  0  0  0  0  0  0
    1.4586   -3.6205   -1.4501 H   0  0  0  0  0  0  0  0  0  0  0  0
    1.3556   -4.6503    0.0156 H   0  0  0  0  0  0  0  0  0  0  0  0
    2.9414   -4.0281   -0.5151 H   0  0  0  0  0  0  0  0  0  0  0  0
    1.6409    2.5327    0.4451 C   0  0  0  0  0  0  0  0  0  0  0  0
    0.5432    2.3993    0.5642 H   0  0  0  0  0  0  0  0  0  0  0  0
    2.2232    2.7329    1.8581 C   0  0  0  0  0  0  0  0  0  0  0  0
    3.3278    2.8440    1.8119 H   0  0  0  0  0  0  0  0  0  0  0  0
    1.9862    1.8619    2.5000 H   0  0  0  0  0  0  0  0  0  0  0  0
    1.8036    3.6455    2.3330 H   0  0  0  0  0  0  0  0  0  0  0  0
    1.8639    3.7705   -0.4302 C   0  0  0  0  0  0  0  0  0  0  0  0
    1.3556    4.6503    0.0157 H   0  0  0  0  0  0  0  0  0  0  0  0
    1.4585    3.6206   -1.4500 H   0  0  0  0  0  0  0  0  0  0  0  0
    2.9413    4.0281   -0.5150 H   0  0  0  0  0  0  0  0  0  0  0  0
  2  1  2  0  0  0  0
  3  2  1  0  0  0  0
  4  3  1  0  0  0  0
  4 12  1  0  0  0  0
  5  4  2  0  0  0  0
  6  5  1  0  0  0  0
  7  9  2  0  0  0  0
  7  5  1  0  0  0  0
  8  7  1  0  0  0  0
  9 11  1  0  0  0  0
 10  9  1  0  0  0  0
 11  3  2  0  0  0  0
 11 22  1  0  0  0  0
 12 13  1  0  0  0  0
 12 14  1  0  0  0  0
 14 16  1  0  0  0  0
 14 17  1  0  0  0  0
 15 14  1  0  0  0  0
 18 20  1  0  0  0  0
 18 12  1  0  0  0  0
 19 18  1  0  0  0  0
 21 18  1  0  0  0  0
 22 23  1  0  0  0  0
 22 24  1  0  0  0  0
 24 27  1  0  0  0  0
 24 26  1  0  0  0  0
 25 24  1  0  0  0  0
 28 29  1  0  0  0  0
 28 22  1  0  0  0  0
 30 28  1  0  0  0  0
 31 28  1  0  0  0  0
M  END
