9
q = -2.0, confidence = 0.87

 24 24  0  0  1  0  0  0  0  0999 V2000
    0.4327   -2.3521   -1.1705 F   0  0  0  0  0  0  0  0  0  0  0  0
   -0.3515   -0.7989   -2.5062 F   0  0  0  0  0  0  0  0  0  0  0  0
   -1.6274   -1.9853    0.5828 F   0  0  0  0  0  0  0  0  0  0  0  0
   -2.3057   -2.4646   -1.4541 F   0  0  0  0  0  0  0  0  0  0  0  0
   -0.3203    2.3576   -1.4843 F   0  0  0  0  0  0  0  0  0  0  0  0
   -1.7985    3.1240    0.1128 F   0  0  0  0  0  0  0  0  0  0  0  0
   -2.6099    2.2855   -1.8976 F   0  0  0  0  0  0  0  0  0  0  0  0
   -1.6222    0.8102   -0.2999 O   0  0  0  0  0  0  0  0  0  0  0  0
   -0.2851   -1.1863   -1.1874 C   0  0  0  0  0  3  0  0  0  0  0  0
   -1.7261   -1.4891   -0.6915 C   0  0  0  0  0  0  0  0  0  0  0  0
   -2.5436   -0.1881   -0.7258 C   0  0  1  0  0  0  0  0  0  0  0  0
   -2.8211   -0.0065   -1.7867 H   0  0  0  0  0  0  0  0  0  0  0  0
   -3.7910   -0.2288    0.1363 C   0  0  0  0  0  0  0  0  0  0  0  0
   -4.7815   -1.2020   -0.1009 C   0  0  0  0  0  0  0  0  0  0  0  0
   -4.6442   -1.9377   -0.9068 H   0  0  0  0  0  0  0  0  0  0  0  0
   -5.9357   -1.2409    0.6935 C   0  0  0  0  0  0  0  0  0  0  0  0
   -6.7022   -2.0075    0.5031 H   0  0  0  0  0  0  0  0  0  0  0  0
   -6.1166   -0.3031    1.7232 C   0  0  0  0  0  0  0  0  0  0  0  0
   -7.0261   -0.3312    2.3426 H   0  0  0  0  0  0  0  0  0  0  0  0
   -5.1366    0.6743    1.9510 C   0  0  0  0  0  0  0  0  0  0  0  0
   -5.2767    1.4213    2.7472 H   0  0  0  0  0  0  0  0  0  0  0  0
   -3.9756    0.7131    1.1630 C   0  0  0  0  0  0  0  0  0  0  0  0
   -3.2140    1.4894    1.3199 H   0  0  0  0  0  0  0  0  0  0  0  0
   -1.6305    2.2328   -0.9361 B   0  0  0  0  0  0  0  0  0  0  0  0
  2  9  1  0  0  0  0
  4 10  1  0  0  0  0
  5 24  1  0  0  0  0
  7 24  1  0  0  0  0
  9  1  1  0  0  0  0
  9 10  1  0  0  0  0
 10  3  1  0  0  0  0
 11 12  1  6  0  0  0
 11 10  1  0  0  0  0
 11  8  1  0  0  0  0
 11 13  1  0  0  0  0
 13 22  1  0  0  0  0
 14 13  2  0  0  0  0
 14 16  1  0  0  0  0
 15 14  1  0  0  0  0
 16 18  2  0  0  0  0
 17 16  1  0  0  0  0
 18 20  1  0  0  0  0
 18 19  1  0  0  0  0
 20 21  1  0  0  0  0
 22 23  1  0  0  0  0
 22 20  2  0  0  0  0
 24  8  1  0  0  0  0
 24  6  1  0  0  0  0
M  END
