2
q = -1.0, confidence = 0.01

 15 14  0  0  0  0  0  0  0  0999 V2000
    0.0874    1.3696   -2.0321 O   0  0  0  0  0  0  0  0  0  0  0  0
    0.0829    1.3746   -0.8074 C   0  0  0  0  0  3  0  0  0  0  0  0
    0.1508    2.7528   -0.0413 C   0  0  0  0  0  0  0  0  0  0  0  0
   -1.2620    3.3631   -0.1167 C   0  0  0  0  0  0  0  0  0  0  0  0
    1.1400    3.6720   -0.7748 C   0  0  0  0  0  0  0  0  0  0  0  0
    0.5574    2.5628    1.4242 C   0  0  0  0  0  0  0  0  0  0  0  0
   -1.5916    3.4676   -1.1698 H   0  0  0  0  0  0  0  0  0  0  0  0
   -1.2666    4.3699    0.3504 H   0  0  0  0  0  0  0  0  0  0  0  0
   -1.9985    2.7385    0.4261 H   0  0  0  0  0  0  0  0  0  0  0  0
    0.8725    3.7450   -1.8465 H   0  0  0  0  0  0  0  0  0  0  0  0
    2.1762    3.2851   -0.7090 H   0  0  0  0  0  0  0  0  0  0  0  0
    1.1272    4.6879   -0.3284 H   0  0  0  0  0  0  0  0  0  0  0  0
    0.4772    3.5191    1.9822 H   0  0  0  0  0  0  0  0  0  0  0  0
    1.6008    2.2052    1.5156 H   0  0  0  0  0  0  0  0  0  0  0  0
   -0.0975    1.8180    1.9265 H   0  0  0  0  0  0  0  0  0  0  0  0
  1  2  2  0  0  0  0
  2  3  1  0  0  0  0
  3  6  1  0  0  0  0
  4  3  1  0  0  0  0
  4  8  1  0  0  0  0
  4  9  1  0  0  0  0
  5 11  1  0  0  0  0
  5 12  1  0  0  0  0
  5  3  1  0  0  0  0
  6 14  1  0  0  0  0
  6 15  1  0  0  0  0
  6 13  1  0  0  0  0
  7  4  1  0  0  0  0
 10  5  1  0  0  0  0
M  END
