3
q = 0.0, confidence = 0.97

 48 52  0  0  1  0  0  0  0  0999 V2000
    0.4899    1.9560    0.4768 N   0  0  0  0  0  0  0  0  0  0  0  0
   -2.3710   -0.6058    0.2490 N   0  0  0  0  0  0  0  0  0  0  0  0
    0.9489   -1.6224    1.3464 C   0  0  1  0  0  3  0  0  0  0  0  0
    2.2266   -1.0775    1.6625 C   0  0  0  0  0  3  0  0  0  0  0  0
    3.0911   -1.6099    2.0798 H   0  0  0  0  0  0  0  0  0  0  0  0
    2.1339    0.3178    1.3515 C   0  0  0  0  0  3  0  0  0  0  0  0
    2.9851    1.0043    1.4576 H   0  0  0  0  0  0  0  0  0  0  0  0
    0.6542    0.7675    1.3211 C   0  0  1  0  0  0  0  0  0  0  0  0
   -0.2311    0.8329    2.5763 C   0  0  0  0  0  0  0  0  0  0  0  0
   -0.0785    1.5284    3.4166 H   0  0  0  0  0  0  0  0  0  0  0  0
   -1.3109    0.0234    2.4534 C   0  0  0  0  0  0  0  0  0  0  0  0
   -2.1236   -0.0364    3.1936 H   0  0  0  0  0  0  0  0  0  0  0  0
   -1.2982   -0.8935    1.1997 C   0  0  1  0  0  0  0  0  0  0  0  0
   -1.1808   -2.3677    1.6319 C   0  0  0  0  0  0  0  0  0  0  0  0
   -2.0580   -2.9943    1.8515 H   0  0  0  0  0  0  0  0  0  0  0  0
    0.1132   -2.7722    1.6931 C   0  0  0  0  0  0  0  0  0  0  0  0
    0.4831   -3.7608    1.9988 H   0  0  0  0  0  0  0  0  0  0  0  0
    0.1399   -0.5571    0.7736 C   0  0  2  0  0  3  0  0  0  0  0  0
   -0.8791    2.2724    0.0657 C   0  0  0  0  0  0  0  0  0  0  0  0
   -1.4711    2.6912    0.9236 H   0  0  0  0  0  0  0  0  0  0  0  0
   -1.3970    1.3370   -0.2246 H   0  0  0  0  0  0  0  0  0  0  0  0
   -0.8819    3.2893   -1.0783 C   0  0  0  0  0  0  0  0  0  0  0  0
   -1.9327    3.5225   -1.3514 H   0  0  0  0  0  0  0  0  0  0  0  0
   -0.4046    2.8337   -1.9708 H   0  0  0  0  0  0  0  0  0  0  0  0
   -0.1259    4.5612   -0.6804 C   0  0  0  0  0  0  0  0  0  0  0  0
   -0.6882    5.0837    0.1269 H   0  0  0  0  0  0  0  0  0  0  0  0
   -0.0608    5.2711   -1.5314 H   0  0  0  0  0  0  0  0  0  0  0  0
    1.2715    4.2021   -0.1646 C   0  0  0  0  0  0  0  0  0  0  0  0
    1.7980    5.1016    0.2181 H   0  0  0  0  0  0  0  0  0  0  0  0
    1.8816    3.7906   -0.9968 H   0  0  0  0  0  0  0  0  0  0  0  0
    1.1925    3.1491    0.9466 C   0  0  0  0  0  0  0  0  0  0  0  0
    2.2152    2.8757    1.2710 H   0  0  0  0  0  0  0  0  0  0  0  0
    0.6819    3.6014    1.8405 H   0  0  0  0  0  0  0  0  0  0  0  0
   -3.7267   -0.6630    0.7844 C   0  0  0  0  0  0  0  0  0  0  0  0
   -3.7636   -0.0863    1.7295 H   0  0  0  0  0  0  0  0  0  0  0  0
   -4.0363   -1.7160    1.0331 H   0  0  0  0  0  0  0  0  0  0  0  0
   -4.7299   -0.0774   -0.2149 C   0  0  0  0  0  0  0  0  0  0  0  0
   -4.5103    1.0051   -0.3404 H   0  0  0  0  0  0  0  0  0  0  0  0
   -5.7552   -0.1578    0.2028 H   0  0  0  0  0  0  0  0  0  0  0  0
   -4.6314   -0.7820   -1.5716 C   0  0  0  0  0  0  0  0  0  0  0  0
   -5.3158   -0.3145   -2.3098 H   0  0  0  0  0  0  0  0  0  0  0  0
   -4.9622   -1.8395   -1.4591 H   0  0  0  0  0  0  0  0  0  0  0  0
   -3.1839   -0.7586   -2.0726 C   0  0  0  0  0  0  0  0  0  0  0  0
   -2.8830    0.2873   -2.3002 H   0  0  0  0  0  0  0  0  0  0  0  0
   -3.0774   -1.3391   -3.0124 H   0  0  0  0  0  0  0  0  0  0  0  0
   -2.2321   -1.3249   -1.0174 C   0  0  0  0  0  0  0  0  0  0  0  0
   -2.4261   -2.4243   -0.8943 H   0  0  0  0  0  0  0  0  0  0  0  0
   -1.1813   -1.2202   -1.3496 H   0  0  0  0  0  0  0  0  0  0  0  0
  1 31  1  0  0  0  0
  2 34  1  0  0  0  0
  3  4  1  1  0  0  0
  3 16  1  0  0  0  0
  4  5  1  0  0  0  0
  6  7  1  0  0  0  0
  6  4  1  0  0  0  0
  8  1  1  6  0  0  0
  8  6  1  0  0  0  0
  8  9  1  0  0  0  0
  9 10  1  0  0  0  0
 11  9  2  0  0  0  0
 11 12  1  0  0  0  0
 13  2  1  6  0  0  0
 13 14  1  0  0  0  0
 13 11  1  0  0  0  0
 14 16  2  0  0  0  0
 14 15  1  0  0  0  0
 16 17  1  0  0  0  0
 18 13  1  0  0  0  0
 18  8  1  0  0  0  0
 18  3  1  0  0  0  0
 19  1  1  0  0  0  0
 19 20  1  0  0  0  0
 21 19  1  0  0  0  0
 22 25  1  0  0  0  0
 22 19  1  0  0  0  0
 23 22  1  0  0  0  0
 24 22  1  0  0  0  0
 25 28  1  0  0  0  0
 25 26  1  0  0  0  0
 27 25  1  0  0  0  0
 28 29  1  0  0  0  0
 28 31  1  0  0  0  0
 30 28  1  0  0  0  0
 31 32  1  0  0  0  0
 31 33  1  0  0  0  0
 34 36  1  0  0  0  0
 34 35  1  0  0  0  0
 37 39  1  0  0  0  0
 37 34  1  0  0  0  0
 38 37  1  0  0  0  0
 40 42  1  0  0  0  0
 40 37  1  0  0  0  0
 41 40  1  0  0  0  0
 43 40  1  0  0  0  0
 43 46  1  0  0  0  0
 44 43  1  0  0  0  0
 45 43  1  0  0  0  0
 46 47  1  0  0  0  0
 46  2  1  0  0  0  0
 48 46  1  0  0  0  0
M  END
