3
q = -2.0, confidence = 0.814

 24 25  0  0  0  0  0  0  0  0999 V2000
    0.7511   -2.6550   -0.3971 C   0  0  0  0  0  0  0  0  0  0  0  0
    0.7286   -3.1112   -1.3941 H   0  0  0  0  0  0  0  0  0  0  0  0
   -0.2771   -2.7407    0.6187 C   0  0  0  0  0  3  0  0  0  0  0  0
   -1.2233   -3.2881    0.5335 H   0  0  0  0  0  0  0  0  0  0  0  0
    0.1957   -2.0645    1.7929 C   0  0  0  0  0  0  0  0  0  0  0  0
   -0.3270   -2.0096    2.7554 H   0  0  0  0  0  0  0  0  0  0  0  0
    1.5176   -1.5476    1.5091 C   0  0  0  0  0  0  0  0  0  0  0  0
    2.1666   -1.0061    2.2066 H   0  0  0  0  0  0  0  0  0  0  0  0
    1.8484   -1.9045    0.1548 C   0  0  0  0  0  0  0  0  0  0  0  0
    3.1078   -1.5177   -0.5660 C   0  0  0  0  0  0  0  0  0  0  0  0
    2.9584   -1.6618   -1.6560 H   0  0  0  0  0  0  0  0  0  0  0  0
    3.9248   -2.2108   -0.2691 H   0  0  0  0  0  0  0  0  0  0  0  0
    3.5357   -0.0720   -0.2804 C   0  0  0  0  0  0  0  0  0  0  0  0
    3.7708    0.0242    0.8039 H   0  0  0  0  0  0  0  0  0  0  0  0
    4.4988    0.1263   -0.7998 H   0  0  0  0  0  0  0  0  0  0  0  0
    2.5170    0.9634   -0.6862 C   0  0  0  0  0  0  0  0  0  0  0  0
    2.6886    2.3351   -0.6202 C   0  0  0  0  0  0  0  0  0  0  0  0
    3.5610    2.8525   -0.1931 H   0  0  0  0  0  0  0  0  0  0  0  0
    1.5334    2.9869   -1.2072 C   0  0  0  0  0  0  0  0  0  0  0  0
    1.3922    4.0744   -1.2932 H   0  0  0  0  0  0  0  0  0  0  0  0
    0.6489    2.0140   -1.6238 C   0  0  0  0  0  0  0  0  0  0  0  0
   -0.2954    2.1970   -2.1530 H   0  0  0  0  0  0  0  0  0  0  0  0
    1.1862    0.6834   -1.2806 C   0  0  0  0  0  3  0  0  0  0  0  0
    1.1635   -0.0648   -2.0982 H   0  0  0  0  0  0  0  0  0  0  0  0
  1  9  2  0  0  0  0
  1  3  1  0  0  0  0
  2  1  1  0  0  0  0
  3  5  1  0  0  0  0
  4  3  1  0  0  0  0
  5  6  1  0  0  0  0
  7  5  2  0  0  0  0
  7  8  1  0  0  0  0
  9  7  1  0  0  0  0
 10 13  1  0  0  0  0
 10 12  1  0  0  0  0
 10  9  1  0  0  0  0
 11 10  1  0  0  0  0
 13 14  1  0  0  0  0
 15 13  1  0  0  0  0
 16 17  2  0  0  0  0
 16 13  1  0  0  0  0
 17 18  1  0  0  0  0
 19 17  1  0  0  0  0
 20 19  1  0  0  0  0
 21 23  1  0  0  0  0
 21 19  2  0  0  0  0
 22 21  1  0  0  0  0
 23 16  1  0  0  0  0
 24 23  1  0  0  0  0
M  END
