3
q = 0.0, confidence = 0.972

 43 45  0  0  0  0  0  0  0  0999 V2000
    2.3930   -0.3506   -0.2325 N   0  0  0  0  0  0  0  0  0  0  0  0
    1.6266    1.7072   -0.0488 N   0  0  0  0  0  0  0  0  0  0  0  0
    1.2386    0.3894   -0.1226 C   0  0  0  0  0  2  0  0  0  0  0  0
    3.5975    0.5052   -0.4444 C   0  0  0  0  0  0  0  0  0  0  0  0
    3.0933    1.8131    0.2614 C   0  0  0  0  0  0  0  0  0  0  0  0
    4.8477   -0.0963    0.1959 C   0  0  0  0  0  0  0  0  0  0  0  0
    4.6719   -0.4052    1.2423 H   0  0  0  0  0  0  0  0  0  0  0  0
    5.6745    0.6417    0.1758 H   0  0  0  0  0  0  0  0  0  0  0  0
    5.1798   -0.9903   -0.3657 H   0  0  0  0  0  0  0  0  0  0  0  0
    3.8148    0.7183   -1.9540 C   0  0  0  0  0  0  0  0  0  0  0  0
    4.0276   -0.2472   -2.4484 H   0  0  0  0  0  0  0  0  0  0  0  0
    4.6787    1.3845   -2.1442 H   0  0  0  0  0  0  0  0  0  0  0  0
    2.9125    1.1519   -2.4269 H   0  0  0  0  0  0  0  0  0  0  0  0
    3.2557    1.7631    1.7915 C   0  0  0  0  0  0  0  0  0  0  0  0
    2.7217    2.6208    2.2453 H   0  0  0  0  0  0  0  0  0  0  0  0
    4.3200    1.8327    2.0889 H   0  0  0  0  0  0  0  0  0  0  0  0
    2.8221    0.8335    2.2093 H   0  0  0  0  0  0  0  0  0  0  0  0
    3.7238    3.0951   -0.2786 C   0  0  0  0  0  0  0  0  0  0  0  0
    3.5331    3.2443   -1.3563 H   0  0  0  0  0  0  0  0  0  0  0  0
    4.8203    3.0647   -0.1180 H   0  0  0  0  0  0  0  0  0  0  0  0
    3.3303    3.9766    0.2631 H   0  0  0  0  0  0  0  0  0  0  0  0
    2.4319   -1.7679   -0.1235 C   0  0  0  0  0  0  0  0  0  0  0  0
    1.9095   -2.3802    1.0336 C   0  0  0  0  0  0  0  0  0  0  0  0
    1.4837   -1.7517    1.8300 H   0  0  0  0  0  0  0  0  0  0  0  0
    1.9124   -3.7787    1.1539 C   0  0  0  0  0  0  0  0  0  0  0  0
    1.4872   -4.2423    2.0572 H   0  0  0  0  0  0  0  0  0  0  0  0
    2.4667   -4.5762    0.1432 C   0  0  0  0  0  0  0  0  0  0  0  0
    2.4754   -5.6721    0.2409 H   0  0  0  0  0  0  0  0  0  0  0  0
    3.0088   -3.9644   -0.9999 C   0  0  0  0  0  0  0  0  0  0  0  0
    3.4314   -4.5816   -1.8072 H   0  0  0  0  0  0  0  0  0  0  0  0
    2.9829   -2.5720   -1.1417 C   0  0  0  0  0  0  0  0  0  0  0  0
    3.3461   -2.1079   -2.0670 H   0  0  0  0  0  0  0  0  0  0  0  0
    0.7637    2.8123    0.2141 C   0  0  0  0  0  0  0  0  0  0  0  0
    0.0389    2.8954    1.4187 C   0  0  0  0  0  0  0  0  0  0  0  0
    0.1103    2.0720    2.1441 H   0  0  0  0  0  0  0  0  0  0  0  0
   -0.8192    3.9824    1.6389 C   0  0  0  0  0  0  0  0  0  0  0  0
   -1.4020    4.0294    2.5712 H   0  0  0  0  0  0  0  0  0  0  0  0
   -0.9443    4.9982    0.6773 C   0  0  0  0  0  0  0  0  0  0  0  0
   -1.6196    5.8485    0.8564 H   0  0  0  0  0  0  0  0  0  0  0  0
   -0.2086    4.9233   -0.5168 C   0  0  0  0  0  0  0  0  0  0  0  0
   -0.3073    5.7113   -1.2788 H   0  0  0  0  0  0  0  0  0  0  0  0
    0.6391    3.8307   -0.7512 C   0  0  0  0  0  0  0  0  0  0  0  0
    1.1867    3.7375   -1.6996 H   0  0  0  0  0  0  0  0  0  0  0  0
  1 22  1  0  0  0  0
  1  3  1  0  0  0  0
  2 33  1  0  0  0  0
  2  5  1  0  0  0  0
  3  2  1  0  0  0  0
  4  1  1  0  0  0  0
  4  6  1  0  0  0  0
  4  5  1  0  0  0  0
  5 14  1  0  0  0  0
  6  7  1  0  0  0  0
  8  6  1  0  0  0  0
  9  6  1  0  0  0  0
 10  4  1  0  0  0  0
 11 10  1  0  0  0  0
 12 10  1  0  0  0  0
 13 10  1  0  0  0  0
 14 16  1  0  0  0  0
 14 17  1  0  0  0  0
 14 15  1  0  0  0  0
 18 20  1  0  0  0  0
 18  5  1  0  0  0  0
 18 21  1  0  0  0  0
 19 18  1  0  0  0  0
 22 23  1  0  0  0  0
 23 25  2  0  0  0  0
 23 24  1  0  0  0  0
 25 26  1  0  0  0  0
 27 28  1  0  0  0  0
 27 25  1  0  0  0  0
 29 27  2  0  0  0  0
 30 29  1  0  0  0  0
 31 29  1  0  0  0  0
 31 22  2  0  0  0  0
 32 31  1  0  0  0  0
 33 34  1  0  0  0  0
 34 36  2  0  0  0  0
 34 35  1  0  0  0  0
 36 37  1  0  0  0  0
 38 39  1  0  0  0  0
 38 36  1  0  0  0  0
 40 38  2  0  0  0  0
 41 40  1  0  0  0  0
 42 40  1  0  0  0  0
 42 33  2  0  0  0  0
 43 42  1  0  0  0  0
M  END
