3
q = -2.0, confidence = 0.656

 10  9  0  0  0  0  0  0  0  0999 V2000
    0.9738   -1.5787   -1.5711 S   0  0  0  0  0  1  0  0  0  0  0  0
    0.8221    1.1367    3.3916 N   0  0  0  0  0  0  0  0  0  0  0  0
    1.1455   -0.5926    1.4814 C   0  0  0  0  0  3  0  0  0  0  0  0
    2.0316   -1.6420    1.5981 C   0  0  0  0  0  0  0  0  0  0  0  0
    2.5213   -1.7661    2.5819 H   0  0  0  0  0  0  0  0  0  0  0  0
    2.4277   -2.5973    0.6011 C   0  0  0  0  0  0  0  0  0  0  0  0
    3.1315   -3.3802    0.9263 H   0  0  0  0  0  0  0  0  0  0  0  0
    2.0393   -2.6331   -0.7180 C   0  0  0  0  0  0  0  0  0  0  0  0
    2.4507   -3.4312   -1.3621 H   0  0  0  0  0  0  0  0  0  0  0  0
    0.9905    0.3128    2.5561 C   0  0  0  0  0  0  0  0  0  0  0  0
  1  8  1  0  0  0  0
  3  4  2  0  0  0  0
  3 10  1  0  0  0  0
  4  5  1  0  0  0  0
  6  7  1  0  0  0  0
  6  4  1  0  0  0  0
  8  6  2  0  0  0  0
  9  8  1  0  0  0  0
 10  2  3  0  0  0  0
M  END
