4
q = -1.0, confidence = 0.0

  5  4  0  0  0  0  0  0  0  0999 V2000
   -2.5953    0.0001    1.9596 Cl  0  0  0  0  0  0  0  0  0  0  0  0
   -2.2475   -0.0001   -2.3582 Cl  0  0  0  0  0  0  0  0  0  0  0  0
   -4.5815    0.0001   -0.5670 Cl  0  0  0  0  0  0  0  0  0  0  0  0
   -1.9345    0.0000    0.3015 C   0  0  0  0  0  0  0  0  0  0  0  0
   -2.8435    0.0000   -0.7002 C   0  0  0  0  0  0  0  0  0  0  0  0
  2  5  1  0  0  0  0
  4  1  1  0  0  0  0
  5  3  1  0  0  0  0
  5  4  1  0  0  0  0
M  END
