4
q = -1.0, confidence = 0.226

 65 69  0  0  1  0  0  0  0  0999 V2000
    0.2410   -0.5487    0.4496 P   0  0  0  0  0  4  0  0  0  0  0  0
    3.3110   -0.2959    0.3111 P   0  0  0  0  0  0  0  0  0  0  0  0
   -2.4915   -0.1408    0.2027 C   0  0  0  0  0  3  0  0  0  0  0  0
   -3.5401   -1.0697    0.5832 C   0  0  0  0  0  3  0  0  0  0  0  0
   -4.2575   -1.7587   -0.4354 C   0  0  0  0  0  3  0  0  0  0  0  0
   -3.9088   -1.5365   -1.8180 C   0  0  0  0  0  3  0  0  0  0  0  0
   -2.5398   -1.7766   -2.4203 C   0  0  0  0  0  0  0  0  0  0  0  0
   -1.3831   -1.8006   -1.4233 C   0  0  0  0  0  0  0  0  0  0  0  0
   -1.2722   -0.4931   -0.6327 C   0  0  2  0  0  0  0  0  0  0  0  0
    1.7070   -0.7357   -0.6157 C   0  0  0  0  0  0  0  0  0  0  0  0
    0.1177   -1.9246    1.6139 C   0  0  0  0  0  0  0  0  0  0  0  0
    0.8833   -3.0972    1.4449 C   0  0  0  0  0  0  0  0  0  0  0  0
    0.7110   -4.1747    2.3251 C   0  0  0  0  0  0  0  0  0  0  0  0
   -0.2218   -4.0899    3.3703 C   0  0  0  0  0  0  0  0  0  0  0  0
   -0.9833   -2.9224    3.5430 C   0  0  0  0  0  0  0  0  0  0  0  0
   -0.8179   -1.8389    2.6706 C   0  0  0  0  0  0  0  0  0  0  0  0
    0.3814    1.0128    1.3538 C   0  0  0  0  0  0  0  0  0  0  0  0
    0.8932    1.0258    2.6683 C   0  0  0  0  0  0  0  0  0  0  0  0
    1.0886    2.2510    3.3214 C   0  0  0  0  0  0  0  0  0  0  0  0
    0.7895    3.4551    2.6663 C   0  0  0  0  0  0  0  0  0  0  0  0
    0.2932    3.4421    1.3522 C   0  0  0  0  0  0  0  0  0  0  0  0
    0.0876    2.2253    0.6911 C   0  0  0  0  0  0  0  0  0  0  0  0
    3.3857    1.5199   -0.0248 C   0  0  0  0  0  0  0  0  0  0  0  0
    3.8320    2.3393    1.0319 C   0  0  0  0  0  0  0  0  0  0  0  0
    3.9194    3.7309    0.8672 C   0  0  0  0  0  0  0  0  0  0  0  0
    3.5566    4.3181   -0.3538 C   0  0  0  0  0  0  0  0  0  0  0  0
    3.1148    3.5102   -1.4157 C   0  0  0  0  0  0  0  0  0  0  0  0
    3.0330    2.1203   -1.2533 C   0  0  0  0  0  0  0  0  0  0  0  0
    4.4960   -1.0209   -0.9111 C   0  0  0  0  0  0  0  0  0  0  0  0
    5.3535   -0.2527   -1.7235 C   0  0  0  0  0  0  0  0  0  0  0  0
    6.2685   -0.8867   -2.5798 C   0  0  0  0  0  0  0  0  0  0  0  0
    6.3357   -2.2866   -2.6371 C   0  0  0  0  0  0  0  0  0  0  0  0
    5.4945   -3.0594   -1.8191 C   0  0  0  0  0  0  0  0  0  0  0  0
    4.5916   -2.4305   -0.9517 C   0  0  0  0  0  0  0  0  0  0  0  0
   -2.2589    0.6063    0.9814 H   0  0  0  0  0  0  0  0  0  0  0  0
   -3.9117   -1.1148    1.6194 H   0  0  0  0  0  0  0  0  0  0  0  0
   -5.1767   -2.2993   -0.1569 H   0  0  0  0  0  0  0  0  0  0  0  0
   -4.7144   -1.7983   -2.5257 H   0  0  0  0  0  0  0  0  0  0  0  0
   -2.5673   -2.7653   -2.9304 H   0  0  0  0  0  0  0  0  0  0  0  0
   -2.3399   -1.0389   -3.2262 H   0  0  0  0  0  0  0  0  0  0  0  0
   -0.4399   -1.9994   -1.9728 H   0  0  0  0  0  0  0  0  0  0  0  0
   -1.5245   -2.6395   -0.7091 H   0  0  0  0  0  0  0  0  0  0  0  0
   -1.0288    0.3396   -1.3317 H   0  0  0  0  0  0  0  0  0  0  0  0
    1.7733   -1.7851   -0.9640 H   0  0  0  0  0  0  0  0  0  0  0  0
    1.5495   -0.1015   -1.5125 H   0  0  0  0  0  0  0  0  0  0  0  0
    1.6241   -3.1762    0.6371 H   0  0  0  0  0  0  0  0  0  0  0  0
    1.3143   -5.0849    2.1943 H   0  0  0  0  0  0  0  0  0  0  0  0
   -0.3519   -4.9372    4.0598 H   0  0  0  0  0  0  0  0  0  0  0  0
   -1.7084   -2.8520    4.3671 H   0  0  0  0  0  0  0  0  0  0  0  0
   -1.4049   -0.9214    2.8213 H   0  0  0  0  0  0  0  0  0  0  0  0
    1.1450    0.0841    3.1766 H   0  0  0  0  0  0  0  0  0  0  0  0
    1.4827    2.2623    4.3482 H   0  0  0  0  0  0  0  0  0  0  0  0
    0.9475    4.4141    3.1815 H   0  0  0  0  0  0  0  0  0  0  0  0
    0.0683    4.3861    0.8354 H   0  0  0  0  0  0  0  0  0  0  0  0
   -0.2980    2.2315   -0.3394 H   0  0  0  0  0  0  0  0  0  0  0  0
    4.1062    1.8800    1.9944 H   0  0  0  0  0  0  0  0  0  0  0  0
    4.2711    4.3588    1.6995 H   0  0  0  0  0  0  0  0  0  0  0  0
    3.6238    5.4088   -0.4836 H   0  0  0  0  0  0  0  0  0  0  0  0
    2.8418    3.9660   -2.3795 H   0  0  0  0  0  0  0  0  0  0  0  0
    2.7093    1.5025   -2.1064 H   0  0  0  0  0  0  0  0  0  0  0  0
    5.3134    0.8456   -1.6872 H   0  0  0  0  0  0  0  0  0  0  0  0
    6.9348   -0.2767   -3.2082 H   0  0  0  0  0  0  0  0  0  0  0  0
    7.0526   -2.7783   -3.3113 H   0  0  0  0  0  0  0  0  0  0  0  0
    5.5547   -4.1579   -1.8451 H   0  0  0  0  0  0  0  0  0  0  0  0
    3.9664   -3.0466   -0.2831 H   0  0  0  0  0  0  0  0  0  0  0  0
  1 17  1  0  0  0  0
  1 11  1  0  0  0  0
  3  4  1  0  0  0  0
  3 35  1  0  0  0  0
  4 36  1  0  0  0  0
  5 37  1  0  0  0  0
  5  4  1  0  0  0  0
  6  5  1  0  0  0  0
  7  6  1  0  0  0  0
  7  8  1  0  0  0  0
  8 42  1  0  0  0  0
  8  9  1  0  0  0  0
  9 43  1  6  0  0  0
  9  3  1  0  0  0  0
  9  1  1  0  0  0  0
 10  2  1  0  0  0  0
 10  1  1  0  0  0  0
 11 16  1  0  0  0  0
 12 11  2  0  0  0  0
 12 13  1  0  0  0  0
 13 14  2  0  0  0  0
 14 15  1  0  0  0  0
 14 48  1  0  0  0  0
 15 49  1  0  0  0  0
 16 50  1  0  0  0  0
 16 15  2  0  0  0  0
 17 18  1  0  0  0  0
 18 51  1  0  0  0  0
 18 19  2  0  0  0  0
 19 52  1  0  0  0  0
 20 53  1  0  0  0  0
 20 19  1  0  0  0  0
 21 20  2  0  0  0  0
 22 21  1  0  0  0  0
 22 17  2  0  0  0  0
 23  2  1  0  0  0  0
 23 24  1  0  0  0  0
 24 56  1  0  0  0  0
 25 24  2  0  0  0  0
 25 57  1  0  0  0  0
 26 25  1  0  0  0  0
 27 28  1  0  0  0  0
 27 26  2  0  0  0  0
 28 23  2  0  0  0  0
 29  2  1  0  0  0  0
 30 61  1  0  0  0  0
 30 29  2  0  0  0  0
 31 30  1  0  0  0  0
 32 31  2  0  0  0  0
 32 33  1  0  0  0  0
 33 34  2  0  0  0  0
 34 29  1  0  0  0  0
 34 65  1  0  0  0  0
 38  6  1  0  0  0  0
 39  7  1  0  0  0  0
 40  7  1  0  0  0  0
 41  8  1  0  0  0  0
 44 10  1  0  0  0  0
 45 10  1  0  0  0  0
 46 12  1  0  0  0  0
 47 13  1  0  0  0  0
 54 21  1  0  0  0  0
 55 22  1  0  0  0  0
 58 26  1  0  0  0  0
 59 27  1  0  0  0  0
 60 28  1  0  0  0  0
 62 31  1  0  0  0  0
 63 32  1  0  0  0  0
 64 33  1  0  0  0  0
M  END
