3
q = -1.0, confidence = 0.002

 22 24  0  0  0  0  0  0  0  0999 V2000
   -4.5465    0.0108    2.0293 S   0  0  0  0  0  0  0  0  0  0  0  0
   -3.2262   -0.3349   -2.2519 O   0  0  0  0  0  0  0  0  0  0  0  0
   -0.1576    0.0022    0.5677 C   0  0  0  0  0  3  0  0  0  0  0  0
   -0.5318    0.0996    1.9376 C   0  0  0  0  0  0  0  0  0  0  0  0
    0.2499    0.1843    2.7107 H   0  0  0  0  0  0  0  0  0  0  0  0
   -1.8682    0.1001    2.3479 C   0  0  0  0  0  0  0  0  0  0  0  0
   -2.1205    0.1807    3.4176 H   0  0  0  0  0  0  0  0  0  0  0  0
   -2.9069   -0.0016    1.3950 C   0  0  0  0  0  0  0  0  0  0  0  0
   -5.5464   -0.1241    0.5947 C   0  0  0  0  0  0  0  0  0  0  0  0
   -6.9452   -0.1302    0.8150 C   0  0  0  0  0  0  0  0  0  0  0  0
   -7.3306   -0.0506    1.8434 H   0  0  0  0  0  0  0  0  0  0  0  0
   -7.8255   -0.2360   -0.2614 C   0  0  0  0  0  0  0  0  0  0  0  0
   -8.9103   -0.2390   -0.0748 H   0  0  0  0  0  0  0  0  0  0  0  0
   -7.3303   -0.3383   -1.5788 C   0  0  0  0  0  0  0  0  0  0  0  0
   -8.0265   -0.4217   -2.4265 H   0  0  0  0  0  0  0  0  0  0  0  0
   -5.9548   -0.3329   -1.7958 C   0  0  0  0  0  0  0  0  0  0  0  0
   -5.5198   -0.4107   -2.8033 H   0  0  0  0  0  0  0  0  0  0  0  0
   -5.0350   -0.2261   -0.7247 C   0  0  0  0  0  0  0  0  0  0  0  0
   -3.5850   -0.2299   -1.0718 C   0  0  0  0  0  0  0  0  0  0  0  0
   -2.5815   -0.1061    0.0198 C   0  0  0  0  0  0  0  0  0  0  0  0
   -1.2141   -0.0974   -0.3533 C   0  0  0  0  0  0  0  0  0  0  0  0
   -1.0265   -0.1726   -1.4363 H   0  0  0  0  0  0  0  0  0  0  0  0
  2 19  2  0  0  0  0
  3  4  1  0  0  0  0
  4  6  2  0  0  0  0
  4  5  1  0  0  0  0
  6  7  1  0  0  0  0
  8  1  1  0  0  0  0
  8  6  1  0  0  0  0
  9 10  1  0  0  0  0
  9  1  1  0  0  0  0
 10 11  1  0  0  0  0
 12 13  1  0  0  0  0
 12 10  2  0  0  0  0
 14 12  1  0  0  0  0
 15 14  1  0  0  0  0
 16 14  2  0  0  0  0
 16 18  1  0  0  0  0
 17 16  1  0  0  0  0
 18  9  2  0  0  0  0
 19 18  1  0  0  0  0
 19 20  1  0  0  0  0
 20  8  2  0  0  0  0
 21 20  1  0  0  0  0
 21  3  2  0  0  0  0
 22 21  1  0  0  0  0
M  END
