9
q = 0.0, confidence = 0.514

 72 74  0  0  1  0  0  0  0  0999 V2000
   -2.4336   -0.8894    0.2443 P   0  0  0  0  0  0  0  0  0  0  0  0
    2.2941   -0.8115   -0.4662 P   0  0  0  0  0  0  0  0  0  0  0  0
   -1.2858    1.8941    0.3056 C   0  0  1  0  0  3  0  0  0  0  0  0
   -2.7428    1.8567   -0.0079 C   0  0  0  0  0  0  0  0  0  0  0  0
    2.7911   -0.4560   -2.2640 C   0  0  0  0  0  0  0  0  0  0  0  0
    2.0687   -1.0631   -2.8507 H   0  0  0  0  0  0  0  0  0  0  0  0
   -0.3941    2.7474   -0.5116 C   0  0  0  0  0  0  0  0  0  0  0  0
    2.8833    1.3823    1.0838 C   0  0  0  0  0  0  0  0  0  0  0  0
   -0.8804    1.4399    1.6286 C   0  0  0  0  0  3  0  0  0  0  0  0
   -1.6452    1.2205    2.3840 H   0  0  0  0  0  0  0  0  0  0  0  0
   -3.0380   -1.7379    1.8367 C   0  0  0  0  0  0  0  0  0  0  0  0
   -2.5634   -2.7391    1.7478 H   0  0  0  0  0  0  0  0  0  0  0  0
   -3.4497    0.6278    0.0295 C   0  0  0  0  0  0  0  0  0  0  0  0
    2.9289   -2.5684   -0.2237 C   0  0  0  0  0  0  0  0  0  0  0  0
    3.9256   -2.5337   -0.7117 H   0  0  0  0  0  0  0  0  0  0  0  0
   -3.4502    3.0405   -0.3083 C   0  0  0  0  0  0  0  0  0  0  0  0
   -2.8952    3.9850   -0.3756 H   0  0  0  0  0  0  0  0  0  0  0  0
    0.4933    1.3024    1.9326 C   0  0  0  0  0  3  0  0  0  0  0  0
    0.8363    0.9359    2.9112 H   0  0  0  0  0  0  0  0  0  0  0  0
    4.8314   -0.0385    0.6786 C   0  0  0  0  0  0  0  0  0  0  0  0
    5.2822   -0.9474    0.2544 H   0  0  0  0  0  0  0  0  0  0  0  0
   -4.8429    0.6036   -0.1936 C   0  0  0  0  0  0  0  0  0  0  0  0
   -5.3908   -0.3490   -0.1877 H   0  0  0  0  0  0  0  0  0  0  0  0
   -2.5159   -1.0829    3.1178 C   0  0  0  0  0  0  0  0  0  0  0  0
   -1.4203   -0.9391    3.1054 H   0  0  0  0  0  0  0  0  0  0  0  0
   -2.7630   -1.7254    3.9877 H   0  0  0  0  0  0  0  0  0  0  0  0
   -3.0037   -0.1012    3.2892 H   0  0  0  0  0  0  0  0  0  0  0  0
   -5.5334    1.7909   -0.4723 C   0  0  0  0  0  0  0  0  0  0  0  0
   -6.6173    1.7631   -0.6602 H   0  0  0  0  0  0  0  0  0  0  0  0
    3.4548    0.2238    0.5178 C   0  0  0  0  0  0  0  0  0  0  0  0
   -4.8318    3.0060   -0.5363 C   0  0  0  0  0  0  0  0  0  0  0  0
   -5.3674    3.9383   -0.7715 H   0  0  0  0  0  0  0  0  0  0  0  0
   -3.0635   -2.1322   -1.0346 C   0  0  0  0  0  0  0  0  0  0  0  0
   -4.0004   -2.5147   -0.5765 H   0  0  0  0  0  0  0  0  0  0  0  0
    3.7042    2.2918    1.7776 C   0  0  0  0  0  0  0  0  0  0  0  0
    3.2599    3.2097    2.1893 H   0  0  0  0  0  0  0  0  0  0  0  0
    2.5750    1.0229   -2.5962 C   0  0  0  0  0  0  0  0  0  0  0  0
    1.5395    1.3599   -2.4133 H   0  0  0  0  0  0  0  0  0  0  0  0
    2.7921    1.1936   -3.6702 H   0  0  0  0  0  0  0  0  0  0  0  0
    3.2416    1.6786   -2.0030 H   0  0  0  0  0  0  0  0  0  0  0  0
    3.1533   -2.9735    1.2381 C   0  0  0  0  0  0  0  0  0  0  0  0
    3.7423   -2.2190    1.7939 H   0  0  0  0  0  0  0  0  0  0  0  0
    3.7212   -3.9271    1.2635 H   0  0  0  0  0  0  0  0  0  0  0  0
    2.2065   -3.1387    1.7799 H   0  0  0  0  0  0  0  0  0  0  0  0
    5.6350    0.8627    1.3915 C   0  0  0  0  0  0  0  0  0  0  0  0
    6.7082    0.6554    1.5187 H   0  0  0  0  0  0  0  0  0  0  0  0
    5.0720    2.0301    1.9340 C   0  0  0  0  0  0  0  0  0  0  0  0
    5.7067    2.7428    2.4821 H   0  0  0  0  0  0  0  0  0  0  0  0
    2.0590   -3.5660   -0.9974 C   0  0  0  0  0  0  0  0  0  0  0  0
    1.0390   -3.6239   -0.5714 H   0  0  0  0  0  0  0  0  0  0  0  0
    2.5053   -4.5804   -0.9429 H   0  0  0  0  0  0  0  0  0  0  0  0
    1.9655   -3.2990   -2.0693 H   0  0  0  0  0  0  0  0  0  0  0  0
   -4.5578   -1.9181    1.9354 C   0  0  0  0  0  0  0  0  0  0  0  0
   -5.0687   -0.9456    2.0799 H   0  0  0  0  0  0  0  0  0  0  0  0
   -4.7924   -2.5488    2.8179 H   0  0  0  0  0  0  0  0  0  0  0  0
   -5.0074   -2.4180    1.0553 H   0  0  0  0  0  0  0  0  0  0  0  0
    4.2130   -0.8894   -2.6367 C   0  0  0  0  0  0  0  0  0  0  0  0
    4.9736   -0.3531   -2.0341 H   0  0  0  0  0  0  0  0  0  0  0  0
    4.3992   -0.6264   -3.6985 H   0  0  0  0  0  0  0  0  0  0  0  0
    4.3855   -1.9789   -2.5401 H   0  0  0  0  0  0  0  0  0  0  0  0
   -2.0806   -3.3041   -1.1516 C   0  0  0  0  0  0  0  0  0  0  0  0
   -1.1197   -2.9732   -1.5913 H   0  0  0  0  0  0  0  0  0  0  0  0
   -2.5093   -4.0871   -1.8103 H   0  0  0  0  0  0  0  0  0  0  0  0
   -1.8556   -3.7732   -0.1733 H   0  0  0  0  0  0  0  0  0  0  0  0
   -3.4235   -1.5360   -2.3999 C   0  0  0  0  0  0  0  0  0  0  0  0
   -4.1229   -0.6832   -2.3178 H   0  0  0  0  0  0  0  0  0  0  0  0
   -3.9171   -2.3199   -3.0115 H   0  0  0  0  0  0  0  0  0  0  0  0
   -2.5333   -1.1932   -2.9551 H   0  0  0  0  0  0  0  0  0  0  0  0
    1.0851    2.6895   -0.1168 C   0  0  0  0  0  0  0  0  0  0  0  0
    1.4269    1.6445    0.8886 C   0  0  1  0  0  3  0  0  0  0  0  0
    1.9258    3.3951   -0.6689 O   0  0  0  0  0  0  0  0  0  0  0  0
   -0.7638    3.4236   -1.4731 O   0  0  0  0  0  0  0  0  0  0  0  0
  1 11  1  0  0  0  0
  2 14  1  0  0  0  0
  2 30  1  0  0  0  0
  3  4  1  1  0  0  0
  3  9  1  0  0  0  0
  4 13  1  0  0  0  0
  5  2  1  0  0  0  0
  6  5  1  0  0  0  0
  7 69  1  0  0  0  0
  7  3  1  0  0  0  0
  8 35  1  0  0  0  0
  9 18  1  0  0  0  0
  9 10  1  0  0  0  0
 11 53  1  0  0  0  0
 11 24  1  0  0  0  0
 12 11  1  0  0  0  0
 13  1  1  0  0  0  0
 14 41  1  0  0  0  0
 15 14  1  0  0  0  0
 16  4  2  0  0  0  0
 17 16  1  0  0  0  0
 18 19  1  0  0  0  0
 20 45  2  0  0  0  0
 21 20  1  0  0  0  0
 22 23  1  0  0  0  0
 22 13  2  0  0  0  0
 24 27  1  0  0  0  0
 24 26  1  0  0  0  0
 25 24  1  0  0  0  0
 28 22  1  0  0  0  0
 29 28  1  0  0  0  0
 30 20  1  0  0  0  0
 30  8  2  0  0  0  0
 31 28  2  0  0  0  0
 31 16  1  0  0  0  0
 32 31  1  0  0  0  0
 33 34  1  0  0  0  0
 33  1  1  0  0  0  0
 35 47  2  0  0  0  0
 35 36  1  0  0  0  0
 37 38  1  0  0  0  0
 37  5  1  0  0  0  0
 37 40  1  0  0  0  0
 39 37  1  0  0  0  0
 41 43  1  0  0  0  0
 41 44  1  0  0  0  0
 41 42  1  0  0  0  0
 45 46  1  0  0  0  0
 45 47  1  0  0  0  0
 47 48  1  0  0  0  0
 49 51  1  0  0  0  0
 49 50  1  0  0  0  0
 49 14  1  0  0  0  0
 52 49  1  0  0  0  0
 53 54  1  0  0  0  0
 53 55  1  0  0  0  0
 56 53  1  0  0  0  0
 57 60  1  0  0  0  0
 57  5  1  0  0  0  0
 57 58  1  0  0  0  0
 59 57  1  0  0  0  0
 61 33  1  0  0  0  0
 61 64  1  0  0  0  0
 62 61  1  0  0  0  0
 63 61  1  0  0  0  0
 65 66  1  0  0  0  0
 65 33  1  0  0  0  0
 67 65  1  0  0  0  0
 68 65  1  0  0  0  0
 69 70  1  0  0  0  0
 70  8  1  1  0  0  0
 70 18  1  0  0  0  0
 71 69  2  0  0  0  0
 72  7  2  0  0  0  0
M  END
