4
q = 0.0, confidence = 0.964

 20 21  0  0  1  0  0  0  0  0999 V2000
   -0.8602    2.6830    2.1950 N   0  0  0  0  0  0  0  0  0  0  0  0
   -0.8609    2.6831   -2.1952 N   0  0  0  0  0  0  0  0  0  0  0  0
   -1.5278   -0.7440    1.3022 C   0  0  2  0  0  0  0  0  0  0  0  0
   -0.8980    0.5333    0.7299 C   0  0  1  0  0  3  0  0  0  0  0  0
   -0.8980    0.5334   -0.7300 C   0  0  1  0  0  3  0  0  0  0  0  0
   -1.5279   -0.7438   -1.3025 C   0  0  1  0  0  0  0  0  0  0  0  0
   -0.5813   -1.7697   -0.6997 C   0  0  0  0  0  0  0  0  0  0  0  0
   -0.5812   -1.7698    0.6992 C   0  0  0  0  0  0  0  0  0  0  0  0
   -2.9690   -0.9363    0.7758 C   0  0  0  0  0  0  0  0  0  0  0  0
   -2.9691   -0.9362   -0.7760 C   0  0  0  0  0  0  0  0  0  0  0  0
   -0.8707    1.7239   -1.5156 C   0  0  0  0  0  0  0  0  0  0  0  0
   -0.8705    1.7237    1.5156 C   0  0  0  0  0  0  0  0  0  0  0  0
   -1.4823   -0.7380    2.4058 H   0  0  0  0  0  0  0  0  0  0  0  0
   -1.4825   -0.7377   -2.4061 H   0  0  0  0  0  0  0  0  0  0  0  0
   -0.1541   -2.5913   -1.2926 H   0  0  0  0  0  0  0  0  0  0  0  0
   -0.1539   -2.5915    1.2919 H   0  0  0  0  0  0  0  0  0  0  0  0
   -3.3770   -1.8858    1.1782 H   0  0  0  0  0  0  0  0  0  0  0  0
   -3.6014   -0.1199    1.1785 H   0  0  0  0  0  0  0  0  0  0  0  0
   -3.6015   -0.1196   -1.1786 H   0  0  0  0  0  0  0  0  0  0  0  0
   -3.3771   -1.8856   -1.1786 H   0  0  0  0  0  0  0  0  0  0  0  0
  2 11  3  0  0  0  0
  3 13  1  1  0  0  0
  4  3  1  0  0  0  0
  4 12  1  1  0  0  0
  5 11  1  1  0  0  0
  5  4  1  0  0  0  0
  6 14  1  6  0  0  0
  6 10  1  0  0  0  0
  6  5  1  0  0  0  0
  6  7  1  0  0  0  0
  7  8  2  0  0  0  0
  8 16  1  0  0  0  0
  8  3  1  0  0  0  0
  9 17  1  0  0  0  0
  9 18  1  0  0  0  0
  9  3  1  0  0  0  0
 10  9  1  0  0  0  0
 12  1  3  0  0  0  0
 15  7  1  0  0  0  0
 19 10  1  0  0  0  0
 20 10  1  0  0  0  0
M  END
