3
q = -1.0, confidence = 0.034

 17 17  0  0  0  0  0  0  0  0999 V2000
    0.5948   -1.3414    2.0299 N   0  0  0  0  0  0  0  0  0  0  0  0
   -0.9450    0.2239    2.3854 N   0  0  0  0  0  0  0  0  0  0  0  0
   -0.1860   -0.3529    1.4329 C   0  0  0  0  0  3  0  0  0  0  0  0
    0.3143   -1.3699    3.3913 C   0  0  0  0  0  0  0  0  0  0  0  0
    0.7956   -2.0732    4.0796 H   0  0  0  0  0  0  0  0  0  0  0  0
   -0.6422   -0.3875    3.5828 C   0  0  0  0  0  0  0  0  0  0  0  0
   -1.1284   -0.0983    4.5248 H   0  0  0  0  0  0  0  0  0  0  0  0
    1.5567   -2.1990    1.3393 C   0  0  0  0  0  0  0  0  0  0  0  0
    1.4252   -1.9302    0.2695 H   0  0  0  0  0  0  0  0  0  0  0  0
    2.9969   -1.8779    1.7556 C   0  0  0  0  0  0  0  0  0  0  0  0
    3.2329   -0.8121    1.5721 H   0  0  0  0  0  0  0  0  0  0  0  0
    3.7187   -2.4948    1.1823 H   0  0  0  0  0  0  0  0  0  0  0  0
    3.1566   -2.0861    2.8336 H   0  0  0  0  0  0  0  0  0  0  0  0
    1.2219   -3.6840    1.5139 C   0  0  0  0  0  0  0  0  0  0  0  0
    0.1778   -3.8901    1.2097 H   0  0  0  0  0  0  0  0  0  0  0  0
    1.3392   -4.0067    2.5690 H   0  0  0  0  0  0  0  0  0  0  0  0
    1.8968   -4.3092    0.8945 H   0  0  0  0  0  0  0  0  0  0  0  0
  1  4  1  0  0  0  0
  2  6  1  0  0  0  0
  3  1  1  0  0  0  0
  3  2  2  0  0  0  0
  4  6  2  0  0  0  0
  4  5  1  0  0  0  0
  6  7  1  0  0  0  0
  8 14  1  0  0  0  0
  8 10  1  0  0  0  0
  8  1  1  0  0  0  0
  9  8  1  0  0  0  0
 10 13  1  0  0  0  0
 11 10  1  0  0  0  0
 12 10  1  0  0  0  0
 14 16  1  0  0  0  0
 15 14  1  0  0  0  0
 17 14  1  0  0  0  0
M  END
