5
q = -2.0, confidence = 0.924

 55 57  0  0  1  0  0  0  0  0999 V2000
   -0.6718   -1.3959    2.3698 S   0  0  0  0  0  1  0  0  0  0  0  0
    0.8441   -0.8341    1.1254 P   0  0  0  0  0  4  0  0  0  0  0  0
    0.0312   -1.7384   -2.1642 O   0  0  0  0  0  0  0  0  0  0  0  0
    0.6879    2.4137   -0.2626 N   0  0  0  0  0  2  0  0  0  0  0  0
   -0.0866    0.0745   -0.1737 C   0  0  2  0  0  3  0  0  0  0  0  0
    0.2582   -0.2832   -1.9287 S   0  0  0  0  0  0  0  0  0  0  0  0
   -0.5074    0.7128   -2.7243 O   0  0  0  0  0  0  0  0  0  0  0  0
    1.7639   -2.3024    0.5448 C   0  0  0  0  0  0  0  0  0  0  0  0
   -1.5442    1.6577    1.2801 S   0  0  0  0  0  0  0  0  0  0  0  0
    3.1633   -2.4035    0.6708 C   0  0  0  0  0  0  0  0  0  0  0  0
    3.7434   -1.5780    1.1054 H   0  0  0  0  0  0  0  0  0  0  0  0
    3.8202   -3.5650    0.2361 C   0  0  0  0  0  0  0  0  0  0  0  0
    4.9133   -3.6405    0.3379 H   0  0  0  0  0  0  0  0  0  0  0  0
    3.0872   -4.6211   -0.3255 C   0  0  0  0  0  0  0  0  0  0  0  0
    3.6055   -5.5282   -0.6720 H   0  0  0  0  0  0  0  0  0  0  0  0
    1.6885   -4.5270   -0.4327 C   0  0  0  0  0  0  0  0  0  0  0  0
    1.1096   -5.3571   -0.8644 H   0  0  0  0  0  0  0  0  0  0  0  0
    1.0244   -3.3778    0.0103 C   0  0  0  0  0  0  0  0  0  0  0  0
   -0.0670   -3.2975   -0.0602 H   0  0  0  0  0  0  0  0  0  0  0  0
    2.0673    0.2715    1.9060 C   0  0  0  0  0  0  0  0  0  0  0  0
    1.9627    0.5700    3.2755 C   0  0  0  0  0  0  0  0  0  0  0  0
    1.1446    0.1221    3.8611 H   0  0  0  0  0  0  0  0  0  0  0  0
    2.8829    1.4495    3.8665 C   0  0  0  0  0  0  0  0  0  0  0  0
    2.8021    1.6845    4.9383 H   0  0  0  0  0  0  0  0  0  0  0  0
    3.8945    2.0357    3.0895 C   0  0  0  0  0  0  0  0  0  0  0  0
    4.6117    2.7296    3.5539 H   0  0  0  0  0  0  0  0  0  0  0  0
    3.9836    1.7519    1.7158 C   0  0  0  0  0  0  0  0  0  0  0  0
    4.7627    2.2254    1.0997 H   0  0  0  0  0  0  0  0  0  0  0  0
    3.0682    0.8769    1.1156 C   0  0  0  0  0  0  0  0  0  0  0  0
    3.1244    0.6812    0.0358 H   0  0  0  0  0  0  0  0  0  0  0  0
    2.0139   -0.0079   -2.2731 C   0  0  0  0  0  0  0  0  0  0  0  0
    2.8699   -1.1169   -2.3421 C   0  0  0  0  0  0  0  0  0  0  0  0
    2.4604   -2.1271   -2.2060 H   0  0  0  0  0  0  0  0  0  0  0  0
    4.2341   -0.9024   -2.5940 C   0  0  0  0  0  0  0  0  0  0  0  0
    4.9189   -1.7626   -2.6398 H   0  0  0  0  0  0  0  0  0  0  0  0
    4.7187    0.4012   -2.7894 C   0  0  0  0  0  0  0  0  0  0  0  0
    5.7899    0.5647   -2.9833 H   0  0  0  0  0  0  0  0  0  0  0  0
    3.8376    1.4971   -2.7550 C   0  0  0  0  0  0  0  0  0  0  0  0
    4.2148    2.5169   -2.9260 H   0  0  0  0  0  0  0  0  0  0  0  0
    2.4733    1.2985   -2.5022 C   0  0  0  0  0  0  0  0  0  0  0  0
    1.7624    2.1312   -2.4427 H   0  0  0  0  0  0  0  0  0  0  0  0
   -0.1480    1.5548    0.1817 C   0  0  0  0  0  0  0  0  0  0  0  0
    0.6566    3.8503    0.0559 C   0  0  0  0  0  0  0  0  0  0  0  0
    0.7648    4.0771    1.5775 C   0  0  0  0  0  0  0  0  0  0  0  0
    1.6780    3.5927    1.9767 H   0  0  0  0  0  0  0  0  0  0  0  0
   -0.1072    3.6547    2.1146 H   0  0  0  0  0  0  0  0  0  0  0  0
    0.8171    5.1623    1.8003 H   0  0  0  0  0  0  0  0  0  0  0  0
    1.8838    4.4778   -0.6316 C   0  0  0  0  0  0  0  0  0  0  0  0
    2.8134    3.9835   -0.2842 H   0  0  0  0  0  0  0  0  0  0  0  0
    1.9545    5.5612   -0.4071 H   0  0  0  0  0  0  0  0  0  0  0  0
    1.8209    4.3574   -1.7322 H   0  0  0  0  0  0  0  0  0  0  0  0
   -0.6283    4.4909   -0.5060 C   0  0  0  0  0  0  0  0  0  0  0  0
   -1.5289    4.0666   -0.0207 H   0  0  0  0  0  0  0  0  0  0  0  0
   -0.7050    4.3045   -1.5959 H   0  0  0  0  0  0  0  0  0  0  0  0
   -0.6191    5.5868   -0.3362 H   0  0  0  0  0  0  0  0  0  0  0  0
  2 20  1  0  0  0  0
  2  1  1  0  0  0  0
  3  6  2  0  0  0  0
  4 43  1  0  0  0  0
  4 42  1  0  0  0  0
  5 42  1  6  0  0  0
  5  2  1  0  0  0  0
  6  5  1  0  0  0  0
  7  6  2  0  0  0  0
  8 10  1  0  0  0  0
  8  2  1  0  0  0  0
 10 11  1  0  0  0  0
 12 13  1  0  0  0  0
 12 10  2  0  0  0  0
 14 12  1  0  0  0  0
 15 14  1  0  0  0  0
 16 14  2  0  0  0  0
 16 18  1  0  0  0  0
 17 16  1  0  0  0  0
 18  8  2  0  0  0  0
 19 18  1  0  0  0  0
 20 21  1  0  0  0  0
 21 22  1  0  0  0  0
 21 23  2  0  0  0  0
 23 24  1  0  0  0  0
 25 26  1  0  0  0  0
 25 23  1  0  0  0  0
 27 25  2  0  0  0  0
 28 27  1  0  0  0  0
 29 27  1  0  0  0  0
 29 20  2  0  0  0  0
 30 29  1  0  0  0  0
 31  6  1  0  0  0  0
 32 31  1  0  0  0  0
 32 33  1  0  0  0  0
 34 32  2  0  0  0  0
 35 34  1  0  0  0  0
 36 38  2  0  0  0  0
 36 34  1  0  0  0  0
 37 36  1  0  0  0  0
 38 40  1  0  0  0  0
 39 38  1  0  0  0  0
 40 41  1  0  0  0  0
 40 31  2  0  0  0  0
 42  9  2  0  0  0  0
 43 44  1  0  0  0  0
 44 47  1  0  0  0  0
 44 45  1  0  0  0  0
 44 46  1  0  0  0  0
 48 50  1  0  0  0  0
 48 49  1  0  0  0  0
 48 43  1  0  0  0  0
 51 48  1  0  0  0  0
 52 55  1  0  0  0  0
 52 53  1  0  0  0  0
 52 43  1  0  0  0  0
 54 52  1  0  0  0  0
M  END
