4
q = 0.0, confidence = 0.99

 35 36  0  0  0  0  0  0  0  0999 V2000
   -1.2721   -0.5643   -0.5520 N   0  0  0  0  0  0  0  0  0  0  0  0
   -0.6613   -0.1075   -1.6663 C   0  0  0  0  0  0  0  0  0  0  0  0
   -1.2092    0.3746   -2.5020 H   0  0  0  0  0  0  0  0  0  0  0  0
    0.7665   -0.2189   -1.6767 C   0  0  0  0  0  3  0  0  0  0  0  0
    1.3494    0.2187   -2.4998 H   0  0  0  0  0  0  0  0  0  0  0  0
    1.3555   -0.8695   -0.5403 C   0  0  0  0  0  3  0  0  0  0  0  0
    0.7336   -1.6582   -0.0855 H   0  0  0  0  0  0  0  0  0  0  0  0
    2.8024   -0.9681   -0.2870 C   0  0  0  0  0  0  0  0  0  0  0  0
    3.7691   -0.2198   -0.9995 C   0  0  0  0  0  0  0  0  0  0  0  0
    3.4531    0.4873   -1.7807 H   0  0  0  0  0  0  0  0  0  0  0  0
    5.1343   -0.3586   -0.7194 C   0  0  0  0  0  0  0  0  0  0  0  0
    5.8683    0.2335   -1.2871 H   0  0  0  0  0  0  0  0  0  0  0  0
    5.5682   -1.2428    0.2820 C   0  0  0  0  0  0  0  0  0  0  0  0
    6.6413   -1.3470    0.5022 H   0  0  0  0  0  0  0  0  0  0  0  0
    4.6213   -1.9902    1.0013 C   0  0  0  0  0  0  0  0  0  0  0  0
    4.9493   -2.6852    1.7892 H   0  0  0  0  0  0  0  0  0  0  0  0
    3.2569   -1.8540    0.7185 C   0  0  0  0  0  0  0  0  0  0  0  0
    2.5156   -2.4388    1.2854 H   0  0  0  0  0  0  0  0  0  0  0  0
   -2.7083   -0.3505   -0.4401 C   0  0  0  0  0  0  0  0  0  0  0  0
   -3.0140    0.6107   -0.9322 H   0  0  0  0  0  0  0  0  0  0  0  0
   -3.4417   -1.4998   -1.1628 C   0  0  0  0  0  0  0  0  0  0  0  0
   -3.1464   -1.5119   -2.2335 H   0  0  0  0  0  0  0  0  0  0  0  0
   -3.0854   -2.4581   -0.7254 H   0  0  0  0  0  0  0  0  0  0  0  0
   -4.9639   -1.3839   -1.0187 C   0  0  0  0  0  0  0  0  0  0  0  0
   -5.3140   -0.4653   -1.5412 H   0  0  0  0  0  0  0  0  0  0  0  0
   -5.4562   -2.2385   -1.5281 H   0  0  0  0  0  0  0  0  0  0  0  0
   -5.3834   -1.3165    0.4548 C   0  0  0  0  0  0  0  0  0  0  0  0
   -5.1351   -2.2825    0.9491 H   0  0  0  0  0  0  0  0  0  0  0  0
   -6.4834   -1.1943    0.5397 H   0  0  0  0  0  0  0  0  0  0  0  0
   -4.6583   -0.1772    1.1819 C   0  0  0  0  0  0  0  0  0  0  0  0
   -4.9320   -0.1631    2.2573 H   0  0  0  0  0  0  0  0  0  0  0  0
   -4.9968    0.7975    0.7636 H   0  0  0  0  0  0  0  0  0  0  0  0
   -3.1371   -0.2874    1.0318 C   0  0  0  0  0  0  0  0  0  0  0  0
   -2.6329    0.5687    1.5254 H   0  0  0  0  0  0  0  0  0  0  0  0
   -2.7633   -1.2061    1.5354 H   0  0  0  0  0  0  0  0  0  0  0  0
  1 19  1  0  0  0  0
  2  1  2  0  0  0  0
  3  2  1  0  0  0  0
  4  2  1  0  0  0  0
  4  6  1  0  0  0  0
  5  4  1  0  0  0  0
  6  8  1  0  0  0  0
  6  7  1  0  0  0  0
  8 17  1  0  0  0  0
  9 11  1  0  0  0  0
  9  8  2  0  0  0  0
 10  9  1  0  0  0  0
 11 13  2  0  0  0  0
 12 11  1  0  0  0  0
 13 14  1  0  0  0  0
 13 15  1  0  0  0  0
 15 16  1  0  0  0  0
 17 15  2  0  0  0  0
 17 18  1  0  0  0  0
 19 33  1  0  0  0  0
 20 19  1  0  0  0  0
 21 24  1  0  0  0  0
 21 23  1  0  0  0  0
 21 19  1  0  0  0  0
 22 21  1  0  0  0  0
 24 27  1  0  0  0  0
 25 24  1  0  0  0  0
 26 24  1  0  0  0  0
 27 29  1  0  0  0  0
 27 28  1  0  0  0  0
 27 30  1  0  0  0  0
 30 31  1  0  0  0  0
 32 30  1  0  0  0  0
 33 30  1  0  0  0  0
 33 34  1  0  0  0  0
 33 35  1  0  0  0  0
M  END
