1
q = 0.0, confidence = 0.962

 11 10  0  0  0  0  0  0  0  0999 V2000
   -0.0026    1.4351   -0.4118 C   0  0  0  0  0  1  0  0  0  0  0  0
   -0.0053    2.7017   -0.8533 C   0  0  0  0  0  0  0  0  0  0  0  0
    0.1120    3.9280   -0.0575 C   0  0  0  0  0  0  0  0  0  0  0  0
    0.0894    5.1515   -0.6487 C   0  0  0  0  0  3  0  0  0  0  0  0
    0.2716    3.7730    1.4349 C   0  0  0  0  0  0  0  0  0  0  0  0
   -0.0866    2.8167   -1.9529 H   0  0  0  0  0  0  0  0  0  0  0  0
    0.1839    6.0711   -0.0518 H   0  0  0  0  0  0  0  0  0  0  0  0
   -0.0234    5.2611   -1.7385 H   0  0  0  0  0  0  0  0  0  0  0  0
    0.3532    4.7539    1.9400 H   0  0  0  0  0  0  0  0  0  0  0  0
   -0.5850    3.2204    1.8709 H   0  0  0  0  0  0  0  0  0  0  0  0
    1.1748    3.1756    1.6773 H   0  0  0  0  0  0  0  0  0  0  0  0
  2  1  1  0  0  0  0
  2  3  2  0  0  0  0
  3  5  1  0  0  0  0
  4  3  1  0  0  0  0
  4  7  1  0  0  0  0
  5 11  1  0  0  0  0
  5 10  1  0  0  0  0
  5  9  1  0  0  0  0
  6  2  1  0  0  0  0
  8  4  1  0  0  0  0
M  END
