15
q = 0.0, confidence = 0.988

 27 28  0  0  0  0  0  0  0  0999 V2000
   -3.9427    5.3597   -0.8940 O   0  0  0  0  0  0  0  0  0  0  0  0
   -2.8855    5.2095    1.0209 O   0  0  0  0  0  0  0  0  0  0  0  0
   -1.5772   -2.6990   -0.6248 N   0  0  0  0  0  0  0  0  0  0  0  0
   -2.5968   -0.7878   -0.5991 N   0  0  0  0  0  0  0  0  0  0  0  0
   -2.3878    1.1899    0.6324 N   0  0  0  0  0  0  0  0  0  0  0  0
   -3.3540    4.7418   -0.0136 N   0  0  0  0  0  0  0  0  0  0  0  0
   -0.2847   -5.4798   -2.3889 C   0  0  0  0  0  0  0  0  0  0  0  0
   -0.6233   -6.2697   -1.6969 H   0  0  0  0  0  0  0  0  0  0  0  0
   -0.0110   -5.7929   -3.4079 H   0  0  0  0  0  0  0  0  0  0  0  0
   -0.1905   -4.1965   -2.0042 C   0  0  0  0  0  0  0  0  0  0  0  0
    0.1526   -3.4119   -2.7018 H   0  0  0  0  0  0  0  0  0  0  0  0
   -0.5177   -3.7210   -0.6163 C   0  0  0  0  0  0  0  0  0  0  0  0
   -0.8441   -4.5543    0.0375 H   0  0  0  0  0  0  0  0  0  0  0  0
    0.3572   -3.2316   -0.1398 H   0  0  0  0  0  0  0  0  0  0  0  0
   -1.3815   -1.3825   -0.3659 C   0  0  0  0  0  2  0  0  0  0  0  0
   -2.8850   -2.9374   -1.0344 C   0  0  0  0  0  0  0  0  0  0  0  0
   -3.2349   -3.9390   -1.3015 H   0  0  0  0  0  0  0  0  0  0  0  0
   -3.5330   -1.7331   -1.0235 C   0  0  0  0  0  0  0  0  0  0  0  0
   -4.5722   -1.4697   -1.2410 H   0  0  0  0  0  0  0  0  0  0  0  0
   -2.8269    0.6171   -0.4940 C   0  0  0  0  0  0  0  0  0  0  0  0
   -3.4691    1.3023   -1.5400 C   0  0  0  0  0  0  0  0  0  0  0  0
   -3.7752    0.7780   -2.4558 H   0  0  0  0  0  0  0  0  0  0  0  0
   -3.6611    2.6798   -1.3902 C   0  0  0  0  0  0  0  0  0  0  0  0
   -4.1446    3.2994   -2.1586 H   0  0  0  0  0  0  0  0  0  0  0  0
   -3.1890    3.2776   -0.2176 C   0  0  0  0  0  0  0  0  0  0  0  0
   -2.5554    2.5114    0.7702 C   0  0  0  0  0  0  0  0  0  0  0  0
   -2.1920    2.9960    1.6897 H   0  0  0  0  0  0  0  0  0  0  0  0
  1  6  2  0  0  0  0
  3 12  1  0  0  0  0
  3 15  1  0  0  0  0
  4 20  1  0  0  0  0
  4 15  1  0  0  0  0
  5 26  1  0  0  0  0
  6  2  2  0  0  0  0
  7 10  2  0  0  0  0
  7  8  1  0  0  0  0
  9  7  1  0  0  0  0
 10 12  1  0  0  0  0
 11 10  1  0  0  0  0
 12 14  1  0  0  0  0
 12 13  1  0  0  0  0
 16 18  2  0  0  0  0
 16  3  1  0  0  0  0
 17 16  1  0  0  0  0
 18  4  1  0  0  0  0
 19 18  1  0  0  0  0
 20  5  2  0  0  0  0
 21 23  2  0  0  0  0
 21 20  1  0  0  0  0
 22 21  1  0  0  0  0
 23 25  1  0  0  0  0
 24 23  1  0  0  0  0
 25  6  1  0  0  0  0
 25 26  2  0  0  0  0
 26 27  1  0  0  0  0
M  END
