3
q = 0.0, confidence = 0.966

 39 39  0  0  0  0  0  0  0  0999 V2000
   -0.7883    1.5842   -0.9647 N   0  0  0  0  0  0  0  0  0  0  0  0
    0.6652    3.3770   -1.3132 O   0  0  0  0  0  0  0  0  0  0  0  0
   -1.1950    0.7673    0.0306 C   0  0  0  0  0  2  0  0  0  0  0  0
   -0.4521    0.9516    1.2842 C   0  0  0  0  0  0  0  0  0  0  0  0
   -0.2453    2.1674    1.8574 C   0  0  0  0  0  0  0  0  0  0  0  0
    0.3689    2.3790    3.2010 C   0  0  0  0  0  0  0  0  0  0  0  0
   -1.5855    1.9089   -2.1511 C   0  0  0  0  0  0  0  0  0  0  0  0
    0.5467    2.2129   -0.9769 C   0  0  0  0  0  0  0  0  0  0  0  0
    1.6102   -0.0943   -0.8215 C   0  0  0  0  0  0  0  0  0  0  0  0
    2.7325   -0.8965   -0.5843 C   0  0  0  0  0  0  0  0  0  0  0  0
    3.9747   -0.3332   -0.2256 C   0  0  0  0  0  0  0  0  0  0  0  0
    4.0496    1.0784   -0.1388 C   0  0  0  0  0  0  0  0  0  0  0  0
    2.9388    1.8868   -0.3816 C   0  0  0  0  0  0  0  0  0  0  0  0
    1.6938    1.3065   -0.7040 C   0  0  0  0  0  0  0  0  0  0  0  0
    5.2196   -1.1850    0.0657 C   0  0  0  0  0  0  0  0  0  0  0  0
    4.9409   -2.6908   -0.0803 C   0  0  0  0  0  0  0  0  0  0  0  0
    5.6863   -0.9112    1.5145 C   0  0  0  0  0  0  0  0  0  0  0  0
    6.3421   -0.7944   -0.9233 C   0  0  0  0  0  0  0  0  0  0  0  0
   -0.1858    0.0452    1.8529 H   0  0  0  0  0  0  0  0  0  0  0  0
   -0.5835    3.0704    1.3179 H   0  0  0  0  0  0  0  0  0  0  0  0
    1.2610    3.0382    3.1195 H   0  0  0  0  0  0  0  0  0  0  0  0
    0.6805    1.4261    3.6713 H   0  0  0  0  0  0  0  0  0  0  0  0
   -0.3325    2.8968    3.8905 H   0  0  0  0  0  0  0  0  0  0  0  0
   -2.6565    1.7986   -1.9245 H   0  0  0  0  0  0  0  0  0  0  0  0
   -1.3193    1.2483   -3.0003 H   0  0  0  0  0  0  0  0  0  0  0  0
   -1.3655    2.9577   -2.4222 H   0  0  0  0  0  0  0  0  0  0  0  0
    0.6616   -0.5705   -1.1070 H   0  0  0  0  0  0  0  0  0  0  0  0
    2.6209   -1.9845   -0.6775 H   0  0  0  0  0  0  0  0  0  0  0  0
    5.0033    1.5578    0.1284 H   0  0  0  0  0  0  0  0  0  0  0  0
    3.0086    2.9825   -0.3168 H   0  0  0  0  0  0  0  0  0  0  0  0
    4.1562   -3.0363    0.6224 H   0  0  0  0  0  0  0  0  0  0  0  0
    5.8628   -3.2644    0.1419 H   0  0  0  0  0  0  0  0  0  0  0  0
    4.6250   -2.9551   -1.1095 H   0  0  0  0  0  0  0  0  0  0  0  0
    5.9436    0.1549    1.6722 H   0  0  0  0  0  0  0  0  0  0  0  0
    6.5888   -1.5133    1.7462 H   0  0  0  0  0  0  0  0  0  0  0  0
    4.8959   -1.1812    2.2435 H   0  0  0  0  0  0  0  0  0  0  0  0
    6.6190    0.2747   -0.8352 H   0  0  0  0  0  0  0  0  0  0  0  0
    6.0298   -0.9784   -1.9710 H   0  0  0  0  0  0  0  0  0  0  0  0
    7.2532   -1.3953   -0.7248 H   0  0  0  0  0  0  0  0  0  0  0  0
  1  3  1  0  0  0  0
  2  8  2  0  0  0  0
  3  4  1  0  0  0  0
  4 19  1  0  0  0  0
  4  5  2  0  0  0  0
  5  6  1  0  0  0  0
  6 22  1  0  0  0  0
  6 23  1  0  0  0  0
  7 24  1  0  0  0  0
  7  1  1  0  0  0  0
  8  1  1  0  0  0  0
  8 14  1  0  0  0  0
  9 14  2  0  0  0  0
  9 10  1  0  0  0  0
 10 11  2  0  0  0  0
 11 12  1  0  0  0  0
 11 15  1  0  0  0  0
 12 29  1  0  0  0  0
 13 30  1  0  0  0  0
 13 12  2  0  0  0  0
 14 13  1  0  0  0  0
 15 17  1  0  0  0  0
 16 15  1  0  0  0  0
 16 32  1  0  0  0  0
 16 31  1  0  0  0  0
 17 34  1  0  0  0  0
 17 35  1  0  0  0  0
 17 36  1  0  0  0  0
 18 37  1  0  0  0  0
 18 39  1  0  0  0  0
 18 15  1  0  0  0  0
 20  5  1  0  0  0  0
 21  6  1  0  0  0  0
 25  7  1  0  0  0  0
 26  7  1  0  0  0  0
 27  9  1  0  0  0  0
 28 10  1  0  0  0  0
 33 16  1  0  0  0  0
 38 18  1  0  0  0  0
M  END
