1
q = 0.0, confidence = 0.956

 20 19  0  0  1  0  0  0  0  0999 V2000
    0.3766    0.2671   -1.6399 C   0  0  0  0  0  3  0  0  0  0  0  0
    0.2584    1.0359   -2.4196 H   0  0  0  0  0  0  0  0  0  0  0  0
    0.5879   -0.7380   -2.0280 H   0  0  0  0  0  0  0  0  0  0  0  0
    1.0145    0.6421   -0.4096 C   0  0  2  0  0  3  0  0  0  0  0  0
    1.4048    2.0158   -0.2332 C   0  0  0  0  0  0  0  0  0  0  0  0
    1.7746    3.1253   -0.1052 N   0  0  0  0  0  0  0  0  0  0  0  0
    2.0094   -0.5327    0.5374 S   0  0  0  0  0  0  0  0  0  0  0  0
    3.7832   -0.3240   -0.0902 C   0  0  0  0  0  0  0  0  0  0  0  0
    4.4567    0.8498    0.6308 C   0  0  0  0  0  0  0  0  0  0  0  0
    4.4301    0.7065    1.7290 H   0  0  0  0  0  0  0  0  0  0  0  0
    3.9640    1.8125    0.3979 H   0  0  0  0  0  0  0  0  0  0  0  0
    5.5205    0.9225    0.3162 H   0  0  0  0  0  0  0  0  0  0  0  0
    4.4460   -1.6514    0.3053 C   0  0  0  0  0  0  0  0  0  0  0  0
    4.3585   -1.8381    1.3956 H   0  0  0  0  0  0  0  0  0  0  0  0
    5.5279   -1.6156    0.0580 H   0  0  0  0  0  0  0  0  0  0  0  0
    3.9935   -2.5084   -0.2329 H   0  0  0  0  0  0  0  0  0  0  0  0
    3.7993   -0.1358   -1.6074 C   0  0  0  0  0  0  0  0  0  0  0  0
    3.3176    0.8150   -1.9076 H   0  0  0  0  0  0  0  0  0  0  0  0
    3.2833   -0.9685   -2.1258 H   0  0  0  0  0  0  0  0  0  0  0  0
    4.8508   -0.1043   -1.9646 H   0  0  0  0  0  0  0  0  0  0  0  0
  1  4  1  0  0  0  0
  2  1  1  0  0  0  0
  3  1  1  0  0  0  0
  4  5  1  6  0  0  0
  4  7  1  0  0  0  0
  5  6  3  0  0  0  0
  8 13  1  0  0  0  0
  8  7  1  0  0  0  0
  8  9  1  0  0  0  0
  9 10  1  0  0  0  0
 11  9  1  0  0  0  0
 12  9  1  0  0  0  0
 13 14  1  0  0  0  0
 15 13  1  0  0  0  0
 16 13  1  0  0  0  0
 17  8  1  0  0  0  0
 18 17  1  0  0  0  0
 19 17  1  0  0  0  0
 20 17  1  0  0  0  0
M  END
