2
q = 0.0, confidence = 0.992

 49 53  0  0  0  0  0  0  0  0999 V2000
    1.7048   -0.5768   -0.0318 P   0  0  0  0  0  4  0  0  0  0  0  0
   -0.9140   -0.6398   -0.0748 C   0  0  0  0  0  3  0  0  0  0  0  0
    0.1200    0.2968   -0.0053 C   0  0  0  0  0  0  0  0  0  0  0  0
    0.9861   -2.2149   -0.2063 C   0  0  0  0  0  0  0  0  0  0  0  0
   -0.4254   -2.0425   -0.1866 C   0  0  0  0  0  0  0  0  0  0  0  0
   -1.2245   -3.1980   -0.2769 C   0  0  0  0  0  0  0  0  0  0  0  0
   -2.3193   -3.0836   -0.2619 H   0  0  0  0  0  0  0  0  0  0  0  0
   -0.6197   -4.4620   -0.3856 C   0  0  0  0  0  0  0  0  0  0  0  0
   -1.2551   -5.3577   -0.4591 H   0  0  0  0  0  0  0  0  0  0  0  0
    0.7793   -4.6037   -0.3997 C   0  0  0  0  0  0  0  0  0  0  0  0
    1.2332   -5.6021   -0.4846 H   0  0  0  0  0  0  0  0  0  0  0  0
    1.6012   -3.4655   -0.3024 C   0  0  0  0  0  0  0  0  0  0  0  0
    2.6978   -3.5622   -0.3054 H   0  0  0  0  0  0  0  0  0  0  0  0
    2.7969   -0.1924   -1.4298 C   0  0  0  0  0  0  0  0  0  0  0  0
    2.4785   -0.7506   -2.6866 C   0  0  0  0  0  0  0  0  0  0  0  0
    1.6358   -1.4527   -2.7786 H   0  0  0  0  0  0  0  0  0  0  0  0
    3.2379   -0.4060   -3.8121 C   0  0  0  0  0  0  0  0  0  0  0  0
    2.9892   -0.8429   -4.7907 H   0  0  0  0  0  0  0  0  0  0  0  0
    4.3100    0.4937   -3.6918 C   0  0  0  0  0  0  0  0  0  0  0  0
    4.9038    0.7624   -4.5784 H   0  0  0  0  0  0  0  0  0  0  0  0
    4.6236    1.0529   -2.4430 C   0  0  0  0  0  0  0  0  0  0  0  0
    5.4603    1.7609   -2.3482 H   0  0  0  0  0  0  0  0  0  0  0  0
    3.8686    0.7165   -1.3103 C   0  0  0  0  0  0  0  0  0  0  0  0
    4.1169    1.1598   -0.3349 H   0  0  0  0  0  0  0  0  0  0  0  0
    2.6476   -0.4948    1.5211 C   0  0  0  0  0  0  0  0  0  0  0  0
    1.9844   -0.0534    2.6844 C   0  0  0  0  0  0  0  0  0  0  0  0
    0.9446    0.3027    2.6188 H   0  0  0  0  0  0  0  0  0  0  0  0
    2.6606   -0.0691    3.9123 C   0  0  0  0  0  0  0  0  0  0  0  0
    2.1461    0.2788    4.8202 H   0  0  0  0  0  0  0  0  0  0  0  0
    3.9875   -0.5237    3.9819 C   0  0  0  0  0  0  0  0  0  0  0  0
    4.5151   -0.5315    4.9476 H   0  0  0  0  0  0  0  0  0  0  0  0
    4.6443   -0.9687    2.8227 C   0  0  0  0  0  0  0  0  0  0  0  0
    5.6829   -1.3277    2.8788 H   0  0  0  0  0  0  0  0  0  0  0  0
    3.9780   -0.9587    1.5889 C   0  0  0  0  0  0  0  0  0  0  0  0
    4.4932   -1.3083    0.6813 H   0  0  0  0  0  0  0  0  0  0  0  0
    0.0893    1.7658    0.0296 C   0  0  0  0  0  0  0  0  0  0  0  0
    1.2369    2.5159    0.3857 C   0  0  0  0  0  0  0  0  0  0  0  0
    2.1641    2.0003    0.6785 H   0  0  0  0  0  0  0  0  0  0  0  0
    1.2231    3.9161    0.4088 C   0  0  0  0  0  0  0  0  0  0  0  0
    2.1366    4.4603    0.6971 H   0  0  0  0  0  0  0  0  0  0  0  0
    0.0617    4.6388    0.0779 C   0  0  0  0  0  0  0  0  0  0  0  0
   -1.0840    3.8948   -0.2824 C   0  0  0  0  0  0  0  0  0  0  0  0
   -2.0106    4.4253   -0.5540 H   0  0  0  0  0  0  0  0  0  0  0  0
   -1.0753    2.4996   -0.3115 C   0  0  0  0  0  0  0  0  0  0  0  0
   -1.9847    1.9482   -0.6001 H   0  0  0  0  0  0  0  0  0  0  0  0
    0.0299    6.1449    0.1051 C   0  0  0  0  0  0  0  0  0  0  0  0
   -0.7124    6.5179    0.8420 H   0  0  0  0  0  0  0  0  0  0  0  0
   -0.2663    6.5603   -0.8809 H   0  0  0  0  0  0  0  0  0  0  0  0
    1.0160    6.5719    0.3721 H   0  0  0  0  0  0  0  0  0  0  0  0
  1  3  1  0  0  0  0
  1 25  1  0  0  0  0
  2  3  2  0  0  0  0
  3 36  1  0  0  0  0
  4  5  1  0  0  0  0
  4  1  1  0  0  0  0
  5  2  1  0  0  0  0
  6  7  1  0  0  0  0
  6  5  2  0  0  0  0
  8  6  1  0  0  0  0
  9  8  1  0  0  0  0
 10  8  2  0  0  0  0
 10 12  1  0  0  0  0
 11 10  1  0  0  0  0
 12  4  2  0  0  0  0
 13 12  1  0  0  0  0
 14 23  1  0  0  0  0
 14  1  1  0  0  0  0
 15 14  2  0  0  0  0
 16 15  1  0  0  0  0
 17 19  2  0  0  0  0
 17 15  1  0  0  0  0
 18 17  1  0  0  0  0
 19 21  1  0  0  0  0
 20 19  1  0  0  0  0
 21 22  1  0  0  0  0
 21 23  2  0  0  0  0
 23 24  1  0  0  0  0
 25 34  2  0  0  0  0
 25 26  1  0  0  0  0
 26 28  2  0  0  0  0
 27 26  1  0  0  0  0
 28 30  1  0  0  0  0
 28 29  1  0  0  0  0
 30 31  1  0  0  0  0
 32 33  1  0  0  0  0
 32 30  2  0  0  0  0
 34 32  1  0  0  0  0
 35 34  1  0  0  0  0
 36 37  1  0  0  0  0
 37 39  2  0  0  0  0
 37 38  1  0  0  0  0
 39 40  1  0  0  0  0
 41 46  1  0  0  0  0
 41 39  1  0  0  0  0
 42 41  2  0  0  0  0
 43 42  1  0  0  0  0
 44 42  1  0  0  0  0
 44 36  2  0  0  0  0
 45 44  1  0  0  0  0
 46 49  1  0  0  0  0
 46 47  1  0  0  0  0
 48 46  1  0  0  0  0
M  END
