5
q = 0.0, confidence = 0.97

 44 43  0  0  1  0  0  0  0  0999 V2000
    4.3819   -0.8566   -0.5315 Si  0  0  0  0  0  0  0  0  0  0  0  0
   -1.1386    1.9477    0.2548 O   0  0  0  0  0  0  0  0  0  0  0  0
    3.8212    0.1258    0.7538 O   0  0  0  0  0  0  0  0  0  0  0  0
    1.7656    1.7034   -0.4037 N   0  0  0  0  0  0  0  0  0  0  0  0
   -1.1330    0.6039    0.2426 C   0  0  0  0  0  2  0  0  0  0  0  0
    0.1794    0.0837    0.4655 C   0  0  0  0  0  3  0  0  0  0  0  0
    0.1762   -0.9610    0.7910 H   0  0  0  0  0  0  0  0  0  0  0  0
    1.4464    0.6875    0.4455 C   0  0  1  0  0  3  0  0  0  0  0  0
    2.5427    0.1195    1.3875 C   0  0  0  0  0  0  0  0  0  0  0  0
    2.6327    1.0252    2.6355 C   0  0  0  0  0  0  0  0  0  0  0  0
    3.4162    0.6281    3.3102 H   0  0  0  0  0  0  0  0  0  0  0  0
    1.6639    1.0326    3.1705 H   0  0  0  0  0  0  0  0  0  0  0  0
    2.8955    2.0681    2.3808 H   0  0  0  0  0  0  0  0  0  0  0  0
   -2.3495    2.7215    0.2153 C   0  0  0  0  0  0  0  0  0  0  0  0
   -2.9212    2.5220    1.1439 H   0  0  0  0  0  0  0  0  0  0  0  0
   -2.9727    2.3996   -0.6419 H   0  0  0  0  0  0  0  0  0  0  0  0
   -1.9677    4.1856    0.1136 C   0  0  0  0  0  0  0  0  0  0  0  0
   -2.8794    4.8134    0.1539 H   0  0  0  0  0  0  0  0  0  0  0  0
   -1.4462    4.4052   -0.8399 H   0  0  0  0  0  0  0  0  0  0  0  0
   -1.3054    4.4824    0.9510 H   0  0  0  0  0  0  0  0  0  0  0  0
    0.9428    2.0036   -1.5639 C   0  0  0  0  0  0  0  0  0  0  0  0
    0.3394    1.1166   -1.8326 H   0  0  0  0  0  0  0  0  0  0  0  0
    1.6122    2.2681   -2.4078 H   0  0  0  0  0  0  0  0  0  0  0  0
    0.2450    2.8456   -1.3798 H   0  0  0  0  0  0  0  0  0  0  0  0
    2.8807    2.6289   -0.2273 C   0  0  0  0  0  0  0  0  0  0  0  0
    3.6433    2.2112    0.4459 H   0  0  0  0  0  0  0  0  0  0  0  0
    2.5112    3.6049    0.1592 H   0  0  0  0  0  0  0  0  0  0  0  0
    3.3574    2.8135   -1.2114 H   0  0  0  0  0  0  0  0  0  0  0  0
    2.2199   -1.3078    1.8718 C   0  0  0  0  0  0  0  0  0  0  0  0
    2.0741   -2.0092    1.0275 H   0  0  0  0  0  0  0  0  0  0  0  0
    1.3182   -1.3445    2.5104 H   0  0  0  0  0  0  0  0  0  0  0  0
    3.0824   -1.6587    2.4697 H   0  0  0  0  0  0  0  0  0  0  0  0
    5.0441   -2.4906    0.1384 C   0  0  0  0  0  0  0  0  0  0  0  0
    5.7494   -2.3123    0.9756 H   0  0  0  0  0  0  0  0  0  0  0  0
    5.5934   -3.0342   -0.6584 H   0  0  0  0  0  0  0  0  0  0  0  0
    4.2377   -3.1562    0.5046 H   0  0  0  0  0  0  0  0  0  0  0  0
    5.7963    0.1541   -1.2517 C   0  0  0  0  0  0  0  0  0  0  0  0
    6.5435    0.3959   -0.4689 H   0  0  0  0  0  0  0  0  0  0  0  0
    5.4315    1.1085   -1.6824 H   0  0  0  0  0  0  0  0  0  0  0  0
    6.3138   -0.4074   -2.0562 H   0  0  0  0  0  0  0  0  0  0  0  0
    3.0460   -1.1585   -1.8303 C   0  0  0  0  0  0  0  0  0  0  0  0
    2.7454   -0.2128   -2.3236 H   0  0  0  0  0  0  0  0  0  0  0  0
    2.1296   -1.6296   -1.4211 H   0  0  0  0  0  0  0  0  0  0  0  0
    3.4444   -1.8351   -2.6152 H   0  0  0  0  0  0  0  0  0  0  0  0
  1 33  1  0  0  0  0
  1  3  1  0  0  0  0
  3  9  1  0  0  0  0
  4 25  1  0  0  0  0
  4  8  1  0  0  0  0
  5  2  1  0  0  0  0
  5  6  1  0  0  0  0
  6  7  1  0  0  0  0
  8  6  1  6  0  0  0
  8  9  1  0  0  0  0
  9 29  1  0  0  0  0
  9 10  1  0  0  0  0
 10 12  1  0  0  0  0
 10 11  1  0  0  0  0
 13 10  1  0  0  0  0
 14  2  1  0  0  0  0
 14 15  1  0  0  0  0
 16 14  1  0  0  0  0
 17 18  1  0  0  0  0
 17 14  1  0  0  0  0
 17 20  1  0  0  0  0
 19 17  1  0  0  0  0
 21 24  1  0  0  0  0
 21  4  1  0  0  0  0
 22 21  1  0  0  0  0
 23 21  1  0  0  0  0
 25 27  1  0  0  0  0
 25 26  1  0  0  0  0
 28 25  1  0  0  0  0
 29 32  1  0  0  0  0
 29 31  1  0  0  0  0
 30 29  1  0  0  0  0
 33 36  1  0  0  0  0
 33 34  1  0  0  0  0
 35 33  1  0  0  0  0
 37  1  1  0  0  0  0
 37 38  1  0  0  0  0
 39 37  1  0  0  0  0
 40 37  1  0  0  0  0
 41 43  1  0  0  0  0
 41  1  1  0  0  0  0
 42 41  1  0  0  0  0
 44 41  1  0  0  0  0
M  END
