9
q = 0.0, confidence = 0.966

 26 27  0  0  1  0  0  0  0  0999 V2000
   -2.9162    0.6893   -1.3612 N   0  0  0  0  0  2  0  0  0  0  0  0
   -3.7863   -1.4617   -1.1473 N   0  0  0  0  0  0  0  0  0  0  0  0
   -2.8782    4.3379    1.8291 N   0  0  0  0  0  0  0  0  0  0  0  0
   -3.1946   -0.3404   -0.6069 C   0  0  2  0  0  3  0  0  0  0  0  0
   -2.9903   -0.1845    0.8915 C   0  0  1  0  0  0  0  0  0  0  0  0
   -3.2698   -1.0823    1.4738 H   0  0  0  0  0  0  0  0  0  0  0  0
   -1.5614    0.2974    1.1928 C   0  0  0  0  0  3  0  0  0  0  0  0
   -1.3978    0.4287    2.2793 H   0  0  0  0  0  0  0  0  0  0  0  0
   -1.2270    1.3992    0.3076 C   0  0  0  0  0  3  0  0  0  0  0  0
   -0.6833    2.2662    0.7259 H   0  0  0  0  0  0  0  0  0  0  0  0
   -2.4075    1.7949   -0.5776 C   0  0  2  0  0  0  0  0  0  0  0  0
   -2.1600    2.6494   -1.2388 H   0  0  0  0  0  0  0  0  0  0  0  0
   -3.5754    2.2353    0.4058 C   0  0  1  0  0  0  0  0  0  0  0  0
   -4.4406    2.5153   -0.2309 H   0  0  0  0  0  0  0  0  0  0  0  0
   -3.9340    0.9975    1.2865 C   0  0  0  0  0  0  0  0  0  0  0  0
   -3.7966    1.2246    2.3619 H   0  0  0  0  0  0  0  0  0  0  0  0
   -4.9938    0.7120    1.1351 H   0  0  0  0  0  0  0  0  0  0  0  0
   -4.0278   -1.4655   -2.5821 C   0  0  0  0  0  0  0  0  0  0  0  0
   -4.2805   -0.4390   -2.9031 H   0  0  0  0  0  0  0  0  0  0  0  0
   -4.8630   -2.1591   -2.8099 H   0  0  0  0  0  0  0  0  0  0  0  0
   -3.1211   -1.7852   -3.1421 H   0  0  0  0  0  0  0  0  0  0  0  0
   -3.6977   -2.7739   -0.5419 C   0  0  0  0  0  0  0  0  0  0  0  0
   -2.8235   -3.3430   -0.9358 H   0  0  0  0  0  0  0  0  0  0  0  0
   -4.6177   -3.3556   -0.7621 H   0  0  0  0  0  0  0  0  0  0  0  0
   -3.6026   -2.7029    0.5563 H   0  0  0  0  0  0  0  0  0  0  0  0
   -3.2076    3.4064    1.1967 C   0  0  0  0  0  0  0  0  0  0  0  0
  1  4  1  0  0  0  0
  1 11  1  0  0  0  0
  2 22  1  0  0  0  0
  4  2  1  1  0  0  0
  4  5  1  0  0  0  0
  5  7  1  0  0  0  0
  5 15  1  0  0  0  0
  5  6  1  1  0  0  0
  7  8  1  0  0  0  0
  9 10  1  0  0  0  0
  9  7  1  0  0  0  0
 11 12  1  6  0  0  0
 11  9  1  0  0  0  0
 11 13  1  0  0  0  0
 13 14  1  6  0  0  0
 13 26  1  0  0  0  0
 13 15  1  0  0  0  0
 15 16  1  0  0  0  0
 17 15  1  0  0  0  0
 18  2  1  0  0  0  0
 19 18  1  0  0  0  0
 20 18  1  0  0  0  0
 21 18  1  0  0  0  0
 22 25  1  0  0  0  0
 23 22  1  0  0  0  0
 24 22  1  0  0  0  0
 26  3  3  0  0  0  0
M  END
