2
q = -1.0, confidence = 0.006

 25 26  0  0  1  0  0  0  0  0999 V2000
   -1.7612   -2.3485    0.0988 I   0  0  0  0  0  0  0  0  0  0  0  0
   -1.3868    2.4155    0.1550 C   0  0  0  0  0  3  0  0  0  0  0  0
   -1.6958    3.7407    0.1422 C   0  0  0  0  0  0  0  0  0  0  0  0
   -3.1716    3.8974    0.2829 C   0  0  0  0  0  0  0  0  0  0  0  0
   -3.8412    4.9090    0.3087 O   0  0  0  0  0  0  0  0  0  0  0  0
   -3.7334    2.6363    0.3919 O   0  0  0  0  0  0  0  0  0  0  0  0
   -2.6845    1.6541    0.3108 C   0  0  1  0  0  0  0  0  0  0  0  0
   -2.6833    1.0854    1.2692 H   0  0  0  0  0  0  0  0  0  0  0  0
   -0.8207    4.9435    0.0169 C   0  0  0  0  0  0  0  0  0  0  0  0
   -0.9445    5.6136    0.8934 H   0  0  0  0  0  0  0  0  0  0  0  0
   -1.1040    5.5468   -0.8712 H   0  0  0  0  0  0  0  0  0  0  0  0
    0.2444    4.6556   -0.0697 H   0  0  0  0  0  0  0  0  0  0  0  0
   -2.9742    0.6770   -0.8466 C   0  0  0  0  0  0  0  0  0  0  0  0
   -2.0290    0.1554   -1.0945 H   0  0  0  0  0  0  0  0  0  0  0  0
   -3.2569    1.2862   -1.7289 H   0  0  0  0  0  0  0  0  0  0  0  0
   -4.0489   -0.3267   -0.5218 C   0  0  0  0  0  0  0  0  0  0  0  0
   -3.7768   -1.6411   -0.0813 C   0  0  0  0  0  0  0  0  0  0  0  0
   -4.8014   -2.5421    0.2532 C   0  0  0  0  0  0  0  0  0  0  0  0
   -4.5550   -3.5606    0.5850 H   0  0  0  0  0  0  0  0  0  0  0  0
   -6.1389   -2.1309    0.1611 C   0  0  0  0  0  0  0  0  0  0  0  0
   -6.9420   -2.8366    0.4225 H   0  0  0  0  0  0  0  0  0  0  0  0
   -6.4417   -0.8266   -0.2586 C   0  0  0  0  0  0  0  0  0  0  0  0
   -7.4883   -0.4937   -0.3247 H   0  0  0  0  0  0  0  0  0  0  0  0
   -5.4076    0.0559   -0.5922 C   0  0  0  0  0  0  0  0  0  0  0  0
   -5.6352    1.0872   -0.9018 H   0  0  0  0  0  0  0  0  0  0  0  0
  2  7  1  0  0  0  0
  3  2  2  0  0  0  0
  3  4  1  0  0  0  0
  4  5  2  0  0  0  0
  4  6  1  0  0  0  0
  7  6  1  0  0  0  0
  7  8  1  1  0  0  0
  9  3  1  0  0  0  0
  9 10  1  0  0  0  0
 11  9  1  0  0  0  0
 12  9  1  0  0  0  0
 13 16  1  0  0  0  0
 13  7  1  0  0  0  0
 14 13  1  0  0  0  0
 15 13  1  0  0  0  0
 16 17  1  0  0  0  0
 17  1  1  0  0  0  0
 17 18  2  0  0  0  0
 18 19  1  0  0  0  0
 20 18  1  0  0  0  0
 20 21  1  0  0  0  0
 22 20  2  0  0  0  0
 23 22  1  0  0  0  0
 24 16  2  0  0  0  0
 24 22  1  0  0  0  0
 25 24  1  0  0  0  0
M  END
