1
q = 0.0, confidence = 1.0

 54 56  0  0  0  0  0  0  0  0999 V2000
    2.1716   -0.2579    0.0335 C   0  0  0  0  0  2  0  0  0  0  0  0
    1.3201   -1.3271   -0.0324 N   0  0  0  0  0  0  0  0  0  0  0  0
    1.7759   -2.7052   -0.1367 C   0  0  0  0  0  0  0  0  0  0  0  0
    2.8094   -2.6951   -0.5290 H   0  0  0  0  0  0  0  0  0  0  0  0
    1.1122   -3.2666   -0.8203 H   0  0  0  0  0  0  0  0  0  0  0  0
    1.7800   -3.2021    0.8539 H   0  0  0  0  0  0  0  0  0  0  0  0
    1.3568    0.8417    0.0763 N   0  0  0  0  0  0  0  0  0  0  0  0
    1.8673    2.1981    0.2093 C   0  0  0  0  0  0  0  0  0  0  0  0
    2.8817    2.1392    0.6451 H   0  0  0  0  0  0  0  0  0  0  0  0
    1.2000    2.7852    0.8667 H   0  0  0  0  0  0  0  0  0  0  0  0
    1.9386    2.6991   -0.7769 H   0  0  0  0  0  0  0  0  0  0  0  0
   -0.0151   -0.9132   -0.0297 C   0  0  0  0  0  0  0  0  0  0  0  0
   -1.1727   -1.8159   -0.1123 C   0  0  0  0  0  0  0  0  0  0  0  0
   -1.3285   -2.9173    0.7649 C   0  0  0  0  0  0  0  0  0  0  0  0
   -0.5568   -3.1292    1.5194 H   0  0  0  0  0  0  0  0  0  0  0  0
   -2.4650   -3.7243    0.7129 C   0  0  0  0  0  0  0  0  0  0  0  0
   -2.5923   -4.5772    1.3949 H   0  0  0  0  0  0  0  0  0  0  0  0
   -3.4940   -3.4520   -0.2172 C   0  0  0  0  0  0  0  0  0  0  0  0
   -4.5618   -4.2869   -0.1879 O   0  0  0  0  0  0  0  0  0  0  0  0
   -5.6428   -4.0615   -1.0938 C   0  0  0  0  0  0  0  0  0  0  0  0
   -5.2710   -4.1092   -2.1436 H   0  0  0  0  0  0  0  0  0  0  0  0
   -6.0592   -3.0393   -0.9363 H   0  0  0  0  0  0  0  0  0  0  0  0
   -6.6946   -5.1237   -0.8401 C   0  0  0  0  0  0  0  0  0  0  0  0
   -6.2772   -6.1365   -1.0048 H   0  0  0  0  0  0  0  0  0  0  0  0
   -7.5527   -4.9829   -1.5260 H   0  0  0  0  0  0  0  0  0  0  0  0
   -7.0664   -5.0674    0.2019 H   0  0  0  0  0  0  0  0  0  0  0  0
   -3.3537   -2.3570   -1.0985 C   0  0  0  0  0  0  0  0  0  0  0  0
   -4.1307   -2.1216   -1.8372 H   0  0  0  0  0  0  0  0  0  0  0  0
   -2.2036   -1.5600   -1.0412 C   0  0  0  0  0  0  0  0  0  0  0  0
   -2.1031   -0.7095   -1.7312 H   0  0  0  0  0  0  0  0  0  0  0  0
   -1.1291    1.4061    0.0961 C   0  0  0  0  0  0  0  0  0  0  0  0
   -2.2236    1.0831    0.9253 C   0  0  0  0  0  0  0  0  0  0  0  0
   -2.1696    0.1832    1.5484 H   0  0  0  0  0  0  0  0  0  0  0  0
   -3.3615    1.9092    0.9521 C   0  0  0  0  0  0  0  0  0  0  0  0
   -4.4626    1.6693    1.7086 O   0  0  0  0  0  0  0  0  0  0  0  0
   -4.5056    0.4657    2.4533 C   0  0  0  0  0  0  0  0  0  0  0  0
   -4.3991   -0.4295    1.7998 H   0  0  0  0  0  0  0  0  0  0  0  0
   -5.4949    0.4404    2.9465 H   0  0  0  0  0  0  0  0  0  0  0  0
   -3.7133    0.4300    3.2347 H   0  0  0  0  0  0  0  0  0  0  0  0
   -3.4113    3.0828    0.1553 C   0  0  0  0  0  0  0  0  0  0  0  0
   -4.5468    3.8358    0.1574 O   0  0  0  0  0  0  0  0  0  0  0  0
   -4.4501    5.1072    0.7951 C   0  0  0  0  0  0  0  0  0  0  0  0
   -4.1683    4.9984    1.8661 H   0  0  0  0  0  0  0  0  0  0  0  0
   -5.4543    5.5680    0.7344 H   0  0  0  0  0  0  0  0  0  0  0  0
   -3.7153    5.7676    0.2873 H   0  0  0  0  0  0  0  0  0  0  0  0
   -2.2985    3.4115   -0.6599 C   0  0  0  0  0  0  0  0  0  0  0  0
   -2.4332    4.5496   -1.3959 O   0  0  0  0  0  0  0  0  0  0  0  0
   -1.3729    4.9243   -2.2549 C   0  0  0  0  0  0  0  0  0  0  0  0
   -0.4260    5.0988   -1.6960 H   0  0  0  0  0  0  0  0  0  0  0  0
   -1.6828    5.8680   -2.7403 H   0  0  0  0  0  0  0  0  0  0  0  0
   -1.1870    4.1586   -3.0410 H   0  0  0  0  0  0  0  0  0  0  0  0
   -1.1680    2.5722   -0.6986 C   0  0  0  0  0  0  0  0  0  0  0  0
   -0.3373    2.7976   -1.3769 H   0  0  0  0  0  0  0  0  0  0  0  0
    0.0072    0.4752    0.0357 C   0  0  0  0  0  0  0  0  0  0  0  0
  1  7  1  0  0  0  0
  2 12  1  0  0  0  0
  2  1  1  0  0  0  0
  3  2  1  0  0  0  0
  3  6  1  0  0  0  0
  4  3  1  0  0  0  0
  5  3  1  0  0  0  0
  7  8  1  0  0  0  0
  8  9  1  0  0  0  0
  8 10  1  0  0  0  0
 11  8  1  0  0  0  0
 12 54  2  0  0  0  0
 13 12  1  0  0  0  0
 13 14  1  0  0  0  0
 14 15  1  0  0  0  0
 16 14  2  0  0  0  0
 16 17  1  0  0  0  0
 18 19  1  0  0  0  0
 18 16  1  0  0  0  0
 20 22  1  0  0  0  0
 20 23  1  0  0  0  0
 20 19  1  0  0  0  0
 21 20  1  0  0  0  0
 23 26  1  0  0  0  0
 24 23  1  0  0  0  0
 25 23  1  0  0  0  0
 27 29  1  0  0  0  0
 27 18  2  0  0  0  0
 28 27  1  0  0  0  0
 29 13  2  0  0  0  0
 30 29  1  0  0  0  0
 31 32  1  0  0  0  0
 32 34  2  0  0  0  0
 32 33  1  0  0  0  0
 34 35  1  0  0  0  0
 35 36  1  0  0  0  0
 36 38  1  0  0  0  0
 36 39  1  0  0  0  0
 37 36  1  0  0  0  0
 40 41  1  0  0  0  0
 40 34  1  0  0  0  0
 41 42  1  0  0  0  0
 42 43  1  0  0  0  0
 44 42  1  0  0  0  0
 45 42  1  0  0  0  0
 46 40  2  0  0  0  0
 47 46  1  0  0  0  0
 48 49  1  0  0  0  0
 48 47  1  0  0  0  0
 50 48  1  0  0  0  0
 51 48  1  0  0  0  0
 52 46  1  0  0  0  0
 52 31  2  0  0  0  0
 53 52  1  0  0  0  0
 54  7  1  0  0  0  0
 54 31  1  0  0  0  0
M  END
