8
q = -2.0, confidence = 0.756

 30 30  0  0  1  0  0  0  0  0999 V2000
   -1.6654    0.0291   -1.4132 P   0  0  0  0  0  2  0  0  0  0  0  0
   -1.7997    0.0344    1.3700 P   0  0  0  0  0  2  0  0  0  0  0  0
   -1.6464    1.1988   -0.0125 C   0  0  2  0  0  3  0  0  0  0  0  0
   -1.7743    2.7096   -0.0061 C   0  0  0  0  0  0  0  0  0  0  0  0
   -1.2434    3.2842    1.3212 C   0  0  0  0  0  0  0  0  0  0  0  0
   -3.2774    3.0555   -0.1340 C   0  0  0  0  0  0  0  0  0  0  0  0
   -1.0125    3.3273   -1.1932 C   0  0  0  0  0  0  0  0  0  0  0  0
   -1.6353   -1.1498   -0.0070 C   0  0  1  0  0  3  0  0  0  0  0  0
   -1.8903   -2.6445   -0.0005 C   0  0  0  0  0  0  0  0  0  0  0  0
   -1.0932   -3.3408   -1.1177 C   0  0  0  0  0  0  0  0  0  0  0  0
   -1.5135   -3.2432    1.3676 C   0  0  0  0  0  0  0  0  0  0  0  0
   -3.4039   -2.8573   -0.2443 C   0  0  0  0  0  0  0  0  0  0  0  0
   -1.7808    2.8446    2.1873 H   0  0  0  0  0  0  0  0  0  0  0  0
   -1.3753    4.3861    1.3579 H   0  0  0  0  0  0  0  0  0  0  0  0
   -0.1664    3.0593    1.4497 H   0  0  0  0  0  0  0  0  0  0  0  0
   -3.8532    2.6139    0.7048 H   0  0  0  0  0  0  0  0  0  0  0  0
   -3.6902    2.6482   -1.0792 H   0  0  0  0  0  0  0  0  0  0  0  0
   -3.4348    4.1560   -0.1282 H   0  0  0  0  0  0  0  0  0  0  0  0
    0.0714    3.1141   -1.1293 H   0  0  0  0  0  0  0  0  0  0  0  0
   -1.1617    4.4274   -1.2279 H   0  0  0  0  0  0  0  0  0  0  0  0
   -1.3693    2.9022   -2.1542 H   0  0  0  0  0  0  0  0  0  0  0  0
   -1.3129   -2.8846   -2.1054 H   0  0  0  0  0  0  0  0  0  0  0  0
   -1.3559   -4.4189   -1.1705 H   0  0  0  0  0  0  0  0  0  0  0  0
   -0.0060   -3.2393   -0.9449 H   0  0  0  0  0  0  0  0  0  0  0  0
   -0.4361   -3.0935    1.5716 H   0  0  0  0  0  0  0  0  0  0  0  0
   -1.7322   -4.3317    1.3918 H   0  0  0  0  0  0  0  0  0  0  0  0
   -2.0906   -2.7609    2.1847 H   0  0  0  0  0  0  0  0  0  0  0  0
   -3.6574   -3.9394   -0.2291 H   0  0  0  0  0  0  0  0  0  0  0  0
   -3.7049   -2.4422   -1.2280 H   0  0  0  0  0  0  0  0  0  0  0  0
   -4.0032   -2.3471    0.5376 H   0  0  0  0  0  0  0  0  0  0  0  0
  1  3  1  0  0  0  0
  1  8  1  0  0  0  0
  3  4  1  6  0  0  0
  3  2  1  0  0  0  0
  4  5  1  0  0  0  0
  5 14  1  0  0  0  0
  5 15  1  0  0  0  0
  5 13  1  0  0  0  0
  6 18  1  0  0  0  0
  6  4  1  0  0  0  0
  6 16  1  0  0  0  0
  7 19  1  0  0  0  0
  7  4  1  0  0  0  0
  8  9  1  6  0  0  0
  8  2  1  0  0  0  0
  9 11  1  0  0  0  0
 10 24  1  0  0  0  0
 10  9  1  0  0  0  0
 11 26  1  0  0  0  0
 11 25  1  0  0  0  0
 11 27  1  0  0  0  0
 12 28  1  0  0  0  0
 12  9  1  0  0  0  0
 12 30  1  0  0  0  0
 17  6  1  0  0  0  0
 20  7  1  0  0  0  0
 21  7  1  0  0  0  0
 22 10  1  0  0  0  0
 23 10  1  0  0  0  0
 29 12  1  0  0  0  0
M  END
