6
q = 0.0, confidence = 0.992

 27 28  0  0  1  0  0  0  0  0999 V2000
    0.1276   -0.8488   -0.8551 C   0  0  2  0  0  3  0  0  0  0  0  0
   -0.9087   -1.2417   -1.9205 C   0  0  1  0  0  0  0  0  0  0  0  0
   -2.1513   -0.6340   -1.2613 C   0  0  0  0  0  0  0  0  0  0  0  0
   -2.0168    0.7605   -1.3716 C   0  0  0  0  0  0  0  0  0  0  0  0
   -0.6815    0.9995   -2.0999 C   0  0  1  0  0  0  0  0  0  0  0  0
    0.2670    0.5956   -0.9503 C   0  0  2  0  0  3  0  0  0  0  0  0
   -0.6091   -0.2228   -3.0414 C   0  0  0  0  0  0  0  0  0  0  0  0
    1.0849   -1.8697   -0.3768 C   0  0  0  0  0  0  0  0  0  0  0  0
    0.9339   -3.0729   -0.5187 O   0  0  0  0  0  0  0  0  0  0  0  0
    2.1708   -1.3178    0.2269 O   0  0  0  0  0  0  0  0  0  0  0  0
    3.0996   -2.2479    0.7907 C   0  0  0  0  0  0  0  0  0  0  0  0
    1.5069    1.3938   -0.7314 C   0  0  0  0  0  0  0  0  0  0  0  0
    2.1406    1.8769   -1.6556 O   0  0  0  0  0  0  0  0  0  0  0  0
    1.8460    1.5415    0.5671 O   0  0  0  0  0  0  0  0  0  0  0  0
    3.1094    2.1685    0.8064 C   0  0  0  0  0  0  0  0  0  0  0  0
   -0.9382   -2.3194   -2.1494 H   0  0  0  0  0  0  0  0  0  0  0  0
   -3.0722   -1.1852   -1.0328 H   0  0  0  0  0  0  0  0  0  0  0  0
   -2.8162    1.5025   -1.2510 H   0  0  0  0  0  0  0  0  0  0  0  0
   -0.5101    2.0039   -2.5211 H   0  0  0  0  0  0  0  0  0  0  0  0
    0.3994   -0.3521   -3.4839 H   0  0  0  0  0  0  0  0  0  0  0  0
   -1.3815   -0.2077   -3.8389 H   0  0  0  0  0  0  0  0  0  0  0  0
    3.4857   -2.9425    0.0181 H   0  0  0  0  0  0  0  0  0  0  0  0
    3.9206   -1.6413    1.2126 H   0  0  0  0  0  0  0  0  0  0  0  0
    2.6180   -2.8473    1.5899 H   0  0  0  0  0  0  0  0  0  0  0  0
    3.2096    2.2419    1.9038 H   0  0  0  0  0  0  0  0  0  0  0  0
    3.1472    3.1737    0.3410 H   0  0  0  0  0  0  0  0  0  0  0  0
    3.9322    1.5563    0.3840 H   0  0  0  0  0  0  0  0  0  0  0  0
  1  8  1  6  0  0  0
  2 16  1  6  0  0  0
  2  3  1  0  0  0  0
  2  1  1  0  0  0  0
  3 17  1  0  0  0  0
  4  3  2  0  0  0  0
  4 18  1  0  0  0  0
  5 19  1  6  0  0  0
  5  4  1  0  0  0  0
  5  6  1  0  0  0  0
  6  1  1  0  0  0  0
  6 12  1  6  0  0  0
  7  5  1  0  0  0  0
  7  2  1  0  0  0  0
  8 10  1  0  0  0  0
  9  8  2  0  0  0  0
 10 11  1  0  0  0  0
 11 23  1  0  0  0  0
 11 24  1  0  0  0  0
 12 14  1  0  0  0  0
 13 12  2  0  0  0  0
 14 15  1  0  0  0  0
 15 25  1  0  0  0  0
 20  7  1  0  0  0  0
 21  7  1  0  0  0  0
 22 11  1  0  0  0  0
 26 15  1  0  0  0  0
 27 15  1  0  0  0  0
M  END
