3
q = -1.0, confidence = 0.0

 27 29  0  0  1  0  0  0  0  0999 V2000
    2.4505    0.3365   -0.1623 C   0  0  0  0  0  0  0  0  0  0  0  0
    1.8667    1.5809    0.2120 C   0  0  0  0  0  3  0  0  0  0  0  0
    1.0962    2.0276   -0.9150 C   0  0  0  0  0  3  0  0  0  0  0  0
    1.1434    1.0338   -1.9316 C   0  0  0  0  0  3  0  0  0  0  0  0
    1.9988   -0.0057   -1.4593 C   0  0  0  0  0  0  0  0  0  0  0  0
    3.4829   -0.6370    0.3363 C   0  0  1  0  0  0  0  0  0  0  0  0
    2.0204    2.1260    1.1507 H   0  0  0  0  0  0  0  0  0  0  0  0
    0.5525    2.9758   -0.9891 H   0  0  0  0  0  0  0  0  0  0  0  0
    0.6082    1.0640   -2.8875 H   0  0  0  0  0  0  0  0  0  0  0  0
    2.6304   -1.2748   -1.9441 C   0  0  0  0  0  0  0  0  0  0  0  0
    3.2662   -1.8447   -0.6466 C   0  0  0  0  0  0  0  0  0  0  0  0
    4.8936   -0.0683    0.2856 C   0  0  0  0  0  0  0  0  0  0  0  0
    3.2661   -0.9614    1.3740 H   0  0  0  0  0  0  0  0  0  0  0  0
    3.3957   -1.0354   -2.7153 H   0  0  0  0  0  0  0  0  0  0  0  0
    1.8989   -1.9676   -2.4052 H   0  0  0  0  0  0  0  0  0  0  0  0
    2.5410   -2.5324   -0.1692 H   0  0  0  0  0  0  0  0  0  0  0  0
    4.2058   -2.4001   -0.8302 H   0  0  0  0  0  0  0  0  0  0  0  0
    5.8524   -0.5015    1.2236 C   0  0  0  0  0  0  0  0  0  0  0  0
    5.2950    0.8503   -0.7063 C   0  0  0  0  0  0  0  0  0  0  0  0
    7.1753   -0.0382    1.1710 C   0  0  0  0  0  0  0  0  0  0  0  0
    5.5506   -1.2136    2.0083 H   0  0  0  0  0  0  0  0  0  0  0  0
    6.6177    1.3155   -0.7618 C   0  0  0  0  0  0  0  0  0  0  0  0
    4.5588    1.2125   -1.4405 H   0  0  0  0  0  0  0  0  0  0  0  0
    7.5636    0.8726    0.1758 C   0  0  0  0  0  0  0  0  0  0  0  0
    7.9070   -0.3874    1.9157 H   0  0  0  0  0  0  0  0  0  0  0  0
    6.9108    2.0339   -1.5430 H   0  0  0  0  0  0  0  0  0  0  0  0
    8.6003    1.2399    0.1340 H   0  0  0  0  0  0  0  0  0  0  0  0
  1  2  1  0  0  0  0
  1  6  1  0  0  0  0
  2  7  1  0  0  0  0
  3  2  1  0  0  0  0
  4  5  1  0  0  0  0
  4  3  1  0  0  0  0
  5  1  2  0  0  0  0
  6 13  1  1  0  0  0
  8  3  1  0  0  0  0
  9  4  1  0  0  0  0
 10  5  1  0  0  0  0
 10 11  1  0  0  0  0
 11 16  1  0  0  0  0
 11  6  1  0  0  0  0
 12  6  1  0  0  0  0
 12 18  1  0  0  0  0
 14 10  1  0  0  0  0
 15 10  1  0  0  0  0
 17 11  1  0  0  0  0
 18 21  1  0  0  0  0
 19 12  2  0  0  0  0
 20 18  2  0  0  0  0
 20 25  1  0  0  0  0
 22 19  1  0  0  0  0
 22 24  2  0  0  0  0
 23 19  1  0  0  0  0
 24 20  1  0  0  0  0
 26 22  1  0  0  0  0
 27 24  1  0  0  0  0
M  END
