5
q = -1.0, confidence = 0.002

 27 28  0  0  1  0  0  0  0  0999 V2000
    1.7420    2.3742   -0.2606 I   0  0  0  0  0  0  0  0  0  0  0  0
   -0.8823   -0.9893    0.9189 C   0  0  0  0  0  3  0  0  0  0  0  0
   -0.0367    0.1516    0.9877 C   0  0  0  0  0  0  0  0  0  0  0  0
    0.4950    0.6674   -0.2485 C   0  0  0  0  0  0  0  0  0  0  0  0
    0.0668    0.0577   -1.4728 C   0  0  0  0  0  3  0  0  0  0  0  0
   -0.8570   -1.0085   -1.4501 C   0  0  0  0  0  3  0  0  0  0  0  0
   -1.8083   -1.1795   -0.2791 C   0  0  2  0  0  0  0  0  0  0  0  0
   -3.0690   -0.3213   -0.2770 C   0  0  0  0  0  0  0  0  0  0  0  0
   -4.3075   -0.9072    0.0517 C   0  0  0  0  0  0  0  0  0  0  0  0
   -5.4802   -0.1385    0.1034 C   0  0  0  0  0  0  0  0  0  0  0  0
   -5.4302    1.2354   -0.1778 C   0  0  0  0  0  0  0  0  0  0  0  0
   -4.2025    1.8309   -0.5106 C   0  0  0  0  0  0  0  0  0  0  0  0
   -3.0324    1.0596   -0.5597 C   0  0  0  0  0  0  0  0  0  0  0  0
    0.0868    0.1277    3.3691 C   0  0  0  0  0  0  0  0  0  0  0  0
    0.4334    0.7113    2.1193 O   0  0  0  0  0  0  0  0  0  0  0  0
   -1.1496   -1.4888    1.8606 H   0  0  0  0  0  0  0  0  0  0  0  0
    0.5498    0.3677   -2.4114 H   0  0  0  0  0  0  0  0  0  0  0  0
   -1.0701   -1.5218   -2.3999 H   0  0  0  0  0  0  0  0  0  0  0  0
   -2.1368   -2.2378   -0.2634 H   0  0  0  0  0  0  0  0  0  0  0  0
   -4.3504   -1.9871    0.2690 H   0  0  0  0  0  0  0  0  0  0  0  0
   -6.4382   -0.6160    0.3600 H   0  0  0  0  0  0  0  0  0  0  0  0
   -6.3477    1.8421   -0.1411 H   0  0  0  0  0  0  0  0  0  0  0  0
   -4.1555    2.9072   -0.7364 H   0  0  0  0  0  0  0  0  0  0  0  0
   -2.0787    1.5394   -0.8241 H   0  0  0  0  0  0  0  0  0  0  0  0
    0.5214   -0.8896    3.4713 H   0  0  0  0  0  0  0  0  0  0  0  0
    0.5242    0.7852    4.1417 H   0  0  0  0  0  0  0  0  0  0  0  0
   -1.0147    0.0785    3.5053 H   0  0  0  0  0  0  0  0  0  0  0  0
  1  4  1  0  0  0  0
  2  3  1  0  0  0  0
  2 16  1  0  0  0  0
  3 15  1  0  0  0  0
  4  3  2  0  0  0  0
  5  6  1  0  0  0  0
  5  4  1  0  0  0  0
  6  7  1  0  0  0  0
  7  8  1  0  0  0  0
  7 19  1  1  0  0  0
  7  2  1  0  0  0  0
  8  9  1  0  0  0  0
  9 10  2  0  0  0  0
  9 20  1  0  0  0  0
 10 21  1  0  0  0  0
 11 22  1  0  0  0  0
 11 10  1  0  0  0  0
 12 11  2  0  0  0  0
 13 12  1  0  0  0  0
 13  8  2  0  0  0  0
 14 25  1  0  0  0  0
 14 27  1  0  0  0  0
 14 26  1  0  0  0  0
 15 14  1  0  0  0  0
 17  5  1  0  0  0  0
 18  6  1  0  0  0  0
 23 12  1  0  0  0  0
 24 13  1  0  0  0  0
M  END
