2
q = -2.0, confidence = 0.692

 40 41  0  0  1  0  0  0  0  0999 V2000
   -0.5546   -1.9050   -1.2959 S   0  0  0  0  0  1  0  0  0  0  0  0
   -0.3925   -0.1770   -0.9822 C   0  0  2  0  0  3  0  0  0  0  0  0
    0.8305    0.2136   -0.3049 C   0  0  0  0  0  3  0  0  0  0  0  0
   -1.5843    0.5376   -0.6094 C   0  0  0  0  0  3  0  0  0  0  0  0
   -2.9663    0.5848   -1.2549 C   0  0  0  0  0  0  0  0  0  0  0  0
    1.0393    1.6627    0.0486 C   0  0  0  0  0  0  0  0  0  0  0  0
    1.4590    2.0876    1.3257 C   0  0  0  0  0  0  0  0  0  0  0  0
    1.7071    3.4426    1.5867 C   0  0  0  0  0  0  0  0  0  0  0  0
    1.5479    4.4004    0.5734 C   0  0  0  0  0  0  0  0  0  0  0  0
    1.1406    3.9910   -0.7058 C   0  0  0  0  0  0  0  0  0  0  0  0
    0.8931    2.6360   -0.9664 C   0  0  0  0  0  0  0  0  0  0  0  0
    2.1196   -0.5090   -0.5588 C   0  0  0  0  0  0  0  0  0  0  0  0
    3.0757   -0.7001    0.4612 C   0  0  0  0  0  0  0  0  0  0  0  0
    4.3056   -1.3131    0.1901 C   0  0  0  0  0  0  0  0  0  0  0  0
    4.6147   -1.7324   -1.1137 C   0  0  0  0  0  0  0  0  0  0  0  0
    3.6833   -1.5288   -2.1427 C   0  0  0  0  0  0  0  0  0  0  0  0
    2.4492   -0.9225   -1.8691 C   0  0  0  0  0  0  0  0  0  0  0  0
   -3.4877   -0.6955   -1.9246 C   0  0  0  0  0  0  0  0  0  0  0  0
   -2.8498    1.6898   -2.3392 C   0  0  0  0  0  0  0  0  0  0  0  0
   -3.9747    1.0502   -0.1836 C   0  0  0  0  0  0  0  0  0  0  0  0
   -1.3580    1.5309   -0.1814 H   0  0  0  0  0  0  0  0  0  0  0  0
    1.5738    1.3512    2.1334 H   0  0  0  0  0  0  0  0  0  0  0  0
    2.0209    3.7518    2.5951 H   0  0  0  0  0  0  0  0  0  0  0  0
    1.7406    5.4638    0.7804 H   0  0  0  0  0  0  0  0  0  0  0  0
    1.0166    4.7314   -1.5108 H   0  0  0  0  0  0  0  0  0  0  0  0
    0.5849    2.3165   -1.9735 H   0  0  0  0  0  0  0  0  0  0  0  0
    2.8470   -0.3836    1.4882 H   0  0  0  0  0  0  0  0  0  0  0  0
    5.0271   -1.4675    1.0065 H   0  0  0  0  0  0  0  0  0  0  0  0
    5.5815   -2.2129   -1.3270 H   0  0  0  0  0  0  0  0  0  0  0  0
    3.9170   -1.8435   -3.1711 H   0  0  0  0  0  0  0  0  0  0  0  0
    1.7317   -0.7525   -2.6839 H   0  0  0  0  0  0  0  0  0  0  0  0
   -2.8247   -1.0361   -2.7410 H   0  0  0  0  0  0  0  0  0  0  0  0
   -3.5881   -1.5329   -1.2105 H   0  0  0  0  0  0  0  0  0  0  0  0
   -4.4915   -0.4897   -2.3515 H   0  0  0  0  0  0  0  0  0  0  0  0
   -3.8347    1.8546   -2.8226 H   0  0  0  0  0  0  0  0  0  0  0  0
   -2.1252    1.3958   -3.1255 H   0  0  0  0  0  0  0  0  0  0  0  0
   -2.5151    2.6546   -1.9063 H   0  0  0  0  0  0  0  0  0  0  0  0
   -4.9617    1.2566   -0.6447 H   0  0  0  0  0  0  0  0  0  0  0  0
   -4.1182    0.2748    0.5942 H   0  0  0  0  0  0  0  0  0  0  0  0
   -3.6324    1.9781    0.3194 H   0  0  0  0  0  0  0  0  0  0  0  0
  2  1  1  1  0  0  0
  2  4  1  0  0  0  0
  2  3  1  0  0  0  0
  3  6  1  0  0  0  0
  4 21  1  0  0  0  0
  5  4  1  0  0  0  0
  5 20  1  0  0  0  0
  6  7  1  0  0  0  0
  7  8  2  0  0  0  0
  7 22  1  0  0  0  0
  8 23  1  0  0  0  0
  9 24  1  0  0  0  0
  9  8  1  0  0  0  0
 10  9  2  0  0  0  0
 11 10  1  0  0  0  0
 11  6  2  0  0  0  0
 12  3  1  0  0  0  0
 12 13  1  0  0  0  0
 13 27  1  0  0  0  0
 14 13  2  0  0  0  0
 14 28  1  0  0  0  0
 15 14  1  0  0  0  0
 16 17  1  0  0  0  0
 16 15  2  0  0  0  0
 17 12  2  0  0  0  0
 18  5  1  0  0  0  0
 18 33  1  0  0  0  0
 19 37  1  0  0  0  0
 19  5  1  0  0  0  0
 20 40  1  0  0  0  0
 20 39  1  0  0  0  0
 25 10  1  0  0  0  0
 26 11  1  0  0  0  0
 29 15  1  0  0  0  0
 30 16  1  0  0  0  0
 31 17  1  0  0  0  0
 32 18  1  0  0  0  0
 34 18  1  0  0  0  0
 35 19  1  0  0  0  0
 36 19  1  0  0  0  0
 38 20  1  0  0  0  0
M  END
