2
q = -1.0, confidence = 0.0

 18 18  0  0  0  0  0  0  0  0999 V2000
   -0.6782   -0.6667    1.9536 N   0  0  0  0  0  2  0  0  0  0  0  0
    0.4104   -0.9378    1.3249 C   0  0  0  0  0  2  0  0  0  0  0  0
    1.5128   -1.1839    2.0926 O   0  0  0  0  0  0  0  0  0  0  0  0
    1.3461   -1.1662    3.5139 C   0  0  0  0  0  0  0  0  0  0  0  0
    2.3408   -1.3948    3.9402 H   0  0  0  0  0  0  0  0  0  0  0  0
    0.6014   -1.9219    3.8380 H   0  0  0  0  0  0  0  0  0  0  0  0
    0.9896   -0.1731    3.8587 H   0  0  0  0  0  0  0  0  0  0  0  0
   -1.9598   -0.5040    1.4778 C   0  0  0  0  0  0  0  0  0  0  0  0
   -2.6865   -1.5733    0.8880 C   0  0  0  0  0  0  0  0  0  0  0  0
   -2.1958   -2.5497    0.7789 H   0  0  0  0  0  0  0  0  0  0  0  0
   -4.0064   -1.3874    0.4583 C   0  0  0  0  0  0  0  0  0  0  0  0
   -4.5461   -2.2305   -0.0011 H   0  0  0  0  0  0  0  0  0  0  0  0
   -4.6431   -0.1435    0.6083 C   0  0  0  0  0  0  0  0  0  0  0  0
   -5.6817   -0.0037    0.2728 H   0  0  0  0  0  0  0  0  0  0  0  0
   -3.9437    0.9119    1.2226 C   0  0  0  0  0  0  0  0  0  0  0  0
   -4.4344    1.8881    1.3623 H   0  0  0  0  0  0  0  0  0  0  0  0
   -2.6276    0.7364    1.6601 C   0  0  0  0  0  0  0  0  0  0  0  0
   -2.0771    1.5567    2.1439 H   0  0  0  0  0  0  0  0  0  0  0  0
  2  1  1  0  0  0  0
  2  3  1  0  0  0  0
  3  4  1  0  0  0  0
  4  6  1  0  0  0  0
  4  7  1  0  0  0  0
  4  5  1  0  0  0  0
  8 17  1  0  0  0  0
  8  1  1  0  0  0  0
  9  8  2  0  0  0  0
 10  9  1  0  0  0  0
 11 13  2  0  0  0  0
 11  9  1  0  0  0  0
 12 11  1  0  0  0  0
 13 15  1  0  0  0  0
 14 13  1  0  0  0  0
 15 16  1  0  0  0  0
 15 17  2  0  0  0  0
 17 18  1  0  0  0  0
M  END
