2
q = 0.0, confidence = 0.986

 33 35  0  0  1  0  0  0  0  0999 V2000
    1.0570    1.2524    0.5386 N   0  0  0  0  0  0  0  0  0  0  0  0
   -0.2437    1.0273    0.1861 C   0  0  0  0  0  3  0  0  0  0  0  0
   -1.0014    2.1978   -0.2085 C   0  0  0  0  0  0  0  0  0  0  0  0
   -2.3725    2.0672   -0.5619 C   0  0  0  0  0  3  0  0  0  0  0  0
   -2.8144    1.0594   -0.5085 H   0  0  0  0  0  0  0  0  0  0  0  0
   -3.1209    3.1769   -0.9368 C   0  0  0  0  0  0  0  0  0  0  0  0
   -4.1827    3.0608   -1.2004 H   0  0  0  0  0  0  0  0  0  0  0  0
   -2.5212    4.4598   -0.9752 C   0  0  0  0  0  0  0  0  0  0  0  0
   -3.1196    5.3338   -1.2751 H   0  0  0  0  0  0  0  0  0  0  0  0
   -1.1841    4.6224   -0.6286 C   0  0  0  0  0  0  0  0  0  0  0  0
   -0.7174    5.6194   -0.6472 H   0  0  0  0  0  0  0  0  0  0  0  0
   -0.4031    3.5036   -0.2349 C   0  0  0  0  0  0  0  0  0  0  0  0
    0.9685    3.6205    0.1571 C   0  0  0  0  0  0  0  0  0  0  0  0
    1.4690    4.5988    0.1605 H   0  0  0  0  0  0  0  0  0  0  0  0
    1.6545    2.5009    0.5390 C   0  0  0  0  0  0  0  0  0  0  0  0
    2.7084    2.5213    0.8473 H   0  0  0  0  0  0  0  0  0  0  0  0
    1.8822    0.1105    1.0268 C   0  0  1  0  0  0  0  0  0  0  0  0
    1.2096   -0.7673    0.8339 H   0  0  0  0  0  0  0  0  0  0  0  0
    3.1460   -0.0514    0.1962 C   0  0  0  0  0  0  0  0  0  0  0  0
    4.3051   -0.6364    0.7467 C   0  0  0  0  0  0  0  0  0  0  0  0
    4.3213   -0.9285    1.8059 H   0  0  0  0  0  0  0  0  0  0  0  0
    5.4454   -0.8589   -0.0405 C   0  0  0  0  0  0  0  0  0  0  0  0
    6.3360   -1.3193    0.4138 H   0  0  0  0  0  0  0  0  0  0  0  0
    5.4555   -0.4930   -1.3945 C   0  0  0  0  0  0  0  0  0  0  0  0
    6.3510   -0.6646   -2.0105 H   0  0  0  0  0  0  0  0  0  0  0  0
    4.3128    0.0999   -1.9537 C   0  0  0  0  0  0  0  0  0  0  0  0
    4.3065    0.3982   -3.0132 H   0  0  0  0  0  0  0  0  0  0  0  0
    3.1728    0.3175   -1.1678 C   0  0  0  0  0  0  0  0  0  0  0  0
    2.2908    0.7933   -1.6218 H   0  0  0  0  0  0  0  0  0  0  0  0
    2.0730    0.2129    2.5397 C   0  0  0  0  0  0  0  0  0  0  0  0
    2.7308    1.0594    2.8239 H   0  0  0  0  0  0  0  0  0  0  0  0
    2.5216   -0.7197    2.9315 H   0  0  0  0  0  0  0  0  0  0  0  0
    1.0779    0.3261    3.0137 H   0  0  0  0  0  0  0  0  0  0  0  0
  1 15  1  0  0  0  0
  1 17  1  0  0  0  0
  2  1  1  0  0  0  0
  3  2  2  0  0  0  0
  4  5  1  0  0  0  0
  4  3  1  0  0  0  0
  6  4  1  0  0  0  0
  7  6  1  0  0  0  0
  8  6  2  0  0  0  0
  8 10  1  0  0  0  0
  9  8  1  0  0  0  0
 10 12  2  0  0  0  0
 11 10  1  0  0  0  0
 12  3  1  0  0  0  0
 12 13  1  0  0  0  0
 13 14  1  0  0  0  0
 13 15  2  0  0  0  0
 15 16  1  0  0  0  0
 17 18  1  6  0  0  0
 17 30  1  0  0  0  0
 19 20  1  0  0  0  0
 19 17  1  0  0  0  0
 20 21  1  0  0  0  0
 22 23  1  0  0  0  0
 22 20  2  0  0  0  0
 24 22  1  0  0  0  0
 25 24  1  0  0  0  0
 26 24  2  0  0  0  0
 26 28  1  0  0  0  0
 27 26  1  0  0  0  0
 28 19  2  0  0  0  0
 29 28  1  0  0  0  0
 30 31  1  0  0  0  0
 30 32  1  0  0  0  0
 30 33  1  0  0  0  0
M  END
