1
q = 0.0, confidence = 1.0

 21 22  0  0  0  0  0  0  0  0999 V2000
    0.8938   -0.1604    0.0181 C   0  0  0  0  0  2  0  0  0  0  0  0
    3.1376    0.2784    0.1634 C   0  0  0  0  0  0  0  0  0  0  0  0
    2.9881   -1.1018   -0.1144 C   0  0  0  0  0  0  0  0  0  0  0  0
    4.0955   -1.9508   -0.2431 C   0  0  0  0  0  0  0  0  0  0  0  0
    3.9758   -3.0224   -0.4572 H   0  0  0  0  0  0  0  0  0  0  0  0
    5.3639   -1.3721   -0.0836 C   0  0  0  0  0  0  0  0  0  0  0  0
    6.2585   -2.0048   -0.1777 H   0  0  0  0  0  0  0  0  0  0  0  0
    5.5161    0.0037    0.1968 C   0  0  0  0  0  0  0  0  0  0  0  0
    6.5270    0.4197    0.3171 H   0  0  0  0  0  0  0  0  0  0  0  0
    4.4065    0.8538    0.3254 C   0  0  0  0  0  0  0  0  0  0  0  0
    4.5319    1.9232    0.5439 H   0  0  0  0  0  0  0  0  0  0  0  0
    1.5799    2.2271    0.4601 C   0  0  0  0  0  0  0  0  0  0  0  0
    2.2129    2.5556    1.3109 H   0  0  0  0  0  0  0  0  0  0  0  0
    0.5275    2.3055    0.7881 H   0  0  0  0  0  0  0  0  0  0  0  0
    1.8341    3.0835   -0.7784 C   0  0  0  0  0  0  0  0  0  0  0  0
    2.8856    3.0098   -1.1200 H   0  0  0  0  0  0  0  0  0  0  0  0
    1.6207    4.1462   -0.5501 H   0  0  0  0  0  0  0  0  0  0  0  0
    1.1748    2.7769   -1.6126 H   0  0  0  0  0  0  0  0  0  0  0  0
    1.8457    0.8081    0.2360 N   0  0  0  0  0  0  0  0  0  0  0  0
    1.6185   -1.3069   -0.1935 N   0  0  0  0  0  0  0  0  0  0  0  0
    1.1603   -2.2004   -0.3717 H   0  0  0  0  0  0  0  0  0  0  0  0
  1 19  1  0  0  0  0
  2 19  1  0  0  0  0
  2 10  1  0  0  0  0
  3  2  2  0  0  0  0
  4  3  1  0  0  0  0
  4  6  2  0  0  0  0
  5  4  1  0  0  0  0
  6  8  1  0  0  0  0
  7  6  1  0  0  0  0
  8  9  1  0  0  0  0
  8 10  2  0  0  0  0
 10 11  1  0  0  0  0
 12 14  1  0  0  0  0
 12 13  1  0  0  0  0
 15 17  1  0  0  0  0
 15 12  1  0  0  0  0
 16 15  1  0  0  0  0
 18 15  1  0  0  0  0
 19 12  1  0  0  0  0
 20  3  1  0  0  0  0
 20  1  1  0  0  0  0
 21 20  1  0  0  0  0
M  END
