3
q = 0.0, confidence = 0.994

 38 41  0  0  1  0  0  0  0  0999 V2000
    1.8185    1.9772   -0.1105 O   0  0  0  0  0  0  0  0  0  0  0  0
    1.3856   -0.1467    0.0482 N   0  0  0  0  0  0  0  0  0  0  0  0
    0.1188    0.4776    0.0907 C   0  0  0  0  0  3  0  0  0  0  0  0
    2.3776    0.7706   -0.0497 C   0  0  2  0  0  3  0  0  0  0  0  0
    0.4337    1.8296   -0.0203 C   0  0  0  0  0  0  0  0  0  0  0  0
    1.5489   -1.5749    0.0039 C   0  0  0  0  0  0  0  0  0  0  0  0
    1.0401   -2.3516    1.0566 C   0  0  0  0  0  0  0  0  0  0  0  0
    0.5365   -1.8552    1.9026 H   0  0  0  0  0  0  0  0  0  0  0  0
    1.1660   -3.7476    0.9816 C   0  0  0  0  0  0  0  0  0  0  0  0
    0.7708   -4.3667    1.8006 H   0  0  0  0  0  0  0  0  0  0  0  0
    1.7787   -4.3510   -0.1290 C   0  0  0  0  0  0  0  0  0  0  0  0
    1.8672   -5.4467   -0.1817 H   0  0  0  0  0  0  0  0  0  0  0  0
    2.2731   -3.5582   -1.1779 C   0  0  0  0  0  0  0  0  0  0  0  0
    2.7428   -4.0273   -2.0550 H   0  0  0  0  0  0  0  0  0  0  0  0
    2.1561   -2.1618   -1.1177 C   0  0  0  0  0  0  0  0  0  0  0  0
    2.5257   -1.5270   -1.9362 H   0  0  0  0  0  0  0  0  0  0  0  0
    3.8234    0.6373   -0.0577 C   0  0  0  0  0  0  0  0  0  0  0  0
    4.6002    1.6965   -0.5927 C   0  0  0  0  0  0  0  0  0  0  0  0
    4.0932    2.5776   -1.0107 H   0  0  0  0  0  0  0  0  0  0  0  0
    5.9958    1.6161   -0.5942 C   0  0  0  0  0  0  0  0  0  0  0  0
    6.5866    2.4421   -1.0174 H   0  0  0  0  0  0  0  0  0  0  0  0
    6.6414    0.4872   -0.0619 C   0  0  0  0  0  0  0  0  0  0  0  0
    7.7399    0.4257   -0.0660 H   0  0  0  0  0  0  0  0  0  0  0  0
    5.8785   -0.5591    0.4830 C   0  0  0  0  0  0  0  0  0  0  0  0
    6.3780   -1.4377    0.9175 H   0  0  0  0  0  0  0  0  0  0  0  0
    4.4813   -0.4925    0.4906 C   0  0  0  0  0  0  0  0  0  0  0  0
    3.8988   -1.3077    0.9392 H   0  0  0  0  0  0  0  0  0  0  0  0
   -0.3753    3.0343   -0.0485 C   0  0  0  0  0  0  0  0  0  0  0  0
   -1.7718    2.9397    0.1703 C   0  0  0  0  0  0  0  0  0  0  0  0
   -2.2053    1.9424    0.3711 H   0  0  0  0  0  0  0  0  0  0  0  0
   -2.5689    4.0877    0.1384 C   0  0  0  0  0  0  0  0  0  0  0  0
   -3.6520    3.9984    0.3139 H   0  0  0  0  0  0  0  0  0  0  0  0
   -1.9950    5.3473   -0.1067 C   0  0  0  0  0  0  0  0  0  0  0  0
   -2.6255    6.2490   -0.1297 H   0  0  0  0  0  0  0  0  0  0  0  0
   -0.6095    5.4497   -0.3161 C   0  0  0  0  0  0  0  0  0  0  0  0
   -0.1519    6.4330   -0.5035 H   0  0  0  0  0  0  0  0  0  0  0  0
    0.1979    4.3064   -0.2877 C   0  0  0  0  0  0  0  0  0  0  0  0
    1.2820    4.3925   -0.4503 H   0  0  0  0  0  0  0  0  0  0  0  0
  1  4  1  0  0  0  0
  1  5  1  0  0  0  0
  2  3  1  0  0  0  0
  4 17  1  1  0  0  0
  4  2  1  0  0  0  0
  5  3  2  0  0  0  0
  6  2  1  0  0  0  0
  6  7  1  0  0  0  0
  7  8  1  0  0  0  0
  9  7  2  0  0  0  0
  9 10  1  0  0  0  0
 11  9  1  0  0  0  0
 12 11  1  0  0  0  0
 13 15  1  0  0  0  0
 13 11  2  0  0  0  0
 14 13  1  0  0  0  0
 15  6  2  0  0  0  0
 16 15  1  0  0  0  0
 17 26  1  0  0  0  0
 18 17  2  0  0  0  0
 19 18  1  0  0  0  0
 20 18  1  0  0  0  0
 20 22  2  0  0  0  0
 21 20  1  0  0  0  0
 22 24  1  0  0  0  0
 23 22  1  0  0  0  0
 24 26  2  0  0  0  0
 24 25  1  0  0  0  0
 26 27  1  0  0  0  0
 28  5  1  0  0  0  0
 28 29  1  0  0  0  0
 29 30  1  0  0  0  0
 31 29  2  0  0  0  0
 31 32  1  0  0  0  0
 33 31  1  0  0  0  0
 34 33  1  0  0  0  0
 35 37  1  0  0  0  0
 35 33  2  0  0  0  0
 36 35  1  0  0  0  0
 37 28  2  0  0  0  0
 38 37  1  0  0  0  0
M  END
