3
q = 0.0, confidence = 0.998

 56 59  0  0  1  0  0  0  0  0999 V2000
    1.5490   -1.6862    0.3562 N   0  0  1  0  0  0  0  0  0  0  0  0
   -0.5139   -2.4534    0.3787 N   0  0  0  0  0  0  0  0  0  0  0  0
    0.2359   -1.3169    0.2250 C   0  0  0  0  0  2  0  0  0  0  0  0
    1.7114   -3.0896    0.7347 C   0  0  0  0  0  0  0  0  0  0  0  0
    2.0231   -3.1734    1.7996 H   0  0  0  0  0  0  0  0  0  0  0  0
    2.4879   -3.5869    0.1175 H   0  0  0  0  0  0  0  0  0  0  0  0
    0.3081   -3.6644    0.5037 C   0  0  0  0  0  0  0  0  0  0  0  0
    0.2422   -4.2752   -0.4254 H   0  0  0  0  0  0  0  0  0  0  0  0
   -0.0441   -4.2951    1.3446 H   0  0  0  0  0  0  0  0  0  0  0  0
   -1.9170   -2.5858    0.1598 C   0  0  0  0  0  0  0  0  0  0  0  0
   -2.3977   -2.7167   -1.1648 C   0  0  0  0  0  0  0  0  0  0  0  0
   -3.7872   -2.8277   -1.3531 C   0  0  0  0  0  0  0  0  0  0  0  0
   -4.1777   -2.9139   -2.3800 H   0  0  0  0  0  0  0  0  0  0  0  0
   -4.6883   -2.8076   -0.2710 C   0  0  0  0  0  0  0  0  0  0  0  0
   -4.1691   -2.6738    1.0311 C   0  0  0  0  0  0  0  0  0  0  0  0
   -4.8614   -2.6401    1.8879 H   0  0  0  0  0  0  0  0  0  0  0  0
   -2.7880   -2.5650    1.2729 C   0  0  0  0  0  0  0  0  0  0  0  0
   -1.4535   -2.6367   -2.3357 C   0  0  0  0  0  0  0  0  0  0  0  0
   -0.9697   -1.6369   -2.3895 H   0  0  0  0  0  0  0  0  0  0  0  0
   -1.9851   -2.8168   -3.2890 H   0  0  0  0  0  0  0  0  0  0  0  0
   -0.6308   -3.3775   -2.2599 H   0  0  0  0  0  0  0  0  0  0  0  0
   -6.1729   -2.9492   -0.4981 C   0  0  0  0  0  0  0  0  0  0  0  0
   -6.4692   -2.5916   -1.5038 H   0  0  0  0  0  0  0  0  0  0  0  0
   -6.7568   -2.3866    0.2571 H   0  0  0  0  0  0  0  0  0  0  0  0
   -6.4864   -4.0130   -0.4240 H   0  0  0  0  0  0  0  0  0  0  0  0
   -2.2424   -2.3635    2.6612 C   0  0  0  0  0  0  0  0  0  0  0  0
   -1.5244   -3.1637    2.9388 H   0  0  0  0  0  0  0  0  0  0  0  0
   -3.0545   -2.3610    3.4127 H   0  0  0  0  0  0  0  0  0  0  0  0
   -1.6866   -1.4040    2.7338 H   0  0  0  0  0  0  0  0  0  0  0  0
    2.6990   -0.8451    0.0307 C   0  0  1  0  0  0  0  0  0  0  0  0
    2.2724    0.1741   -0.0727 H   0  0  0  0  0  0  0  0  0  0  0  0
    3.7567   -0.7773    1.1786 C   0  0  1  0  0  0  0  0  0  0  0  0
    3.7103   -1.7399    1.7349 H   0  0  0  0  0  0  0  0  0  0  0  0
    5.1864   -0.7119    0.6049 C   0  0  2  0  0  0  0  0  0  0  0  0
    5.9137   -0.5128    1.4210 H   0  0  0  0  0  0  0  0  0  0  0  0
    5.3386    0.1635   -0.6990 C   0  0  0  0  0  0  0  0  0  0  0  0
    4.8094   -1.1152   -1.4394 C   0  0  2  0  0  0  0  0  0  0  0  0
    5.1726   -1.2894   -2.4747 H   0  0  0  0  0  0  0  0  0  0  0  0
    3.2831   -1.2241   -1.3663 C   0  0  0  0  0  0  0  0  0  0  0  0
    2.9932   -2.2678   -1.6129 H   0  0  0  0  0  0  0  0  0  0  0  0
    2.7777   -0.5858   -2.1193 H   0  0  0  0  0  0  0  0  0  0  0  0
    5.4131   -1.9596   -0.2894 C   0  0  0  0  0  0  0  0  0  0  0  0
    4.8688   -2.8850   -0.0046 H   0  0  0  0  0  0  0  0  0  0  0  0
    6.4789   -2.2130   -0.4359 H   0  0  0  0  0  0  0  0  0  0  0  0
    3.4502    0.3364    2.1822 C   0  0  0  0  0  0  0  0  0  0  0  0
    4.1584    0.3013    3.0350 H   0  0  0  0  0  0  0  0  0  0  0  0
    2.4185    0.2509    2.5766 H   0  0  0  0  0  0  0  0  0  0  0  0
    3.5425    1.3365    1.7129 H   0  0  0  0  0  0  0  0  0  0  0  0
    6.8220    0.4296   -1.0012 C   0  0  0  0  0  0  0  0  0  0  0  0
    6.9443    0.8073   -2.0377 H   0  0  0  0  0  0  0  0  0  0  0  0
    7.4587   -0.4694   -0.8951 H   0  0  0  0  0  0  0  0  0  0  0  0
    7.2217    1.2043   -0.3140 H   0  0  0  0  0  0  0  0  0  0  0  0
    4.5887    1.4865   -0.8758 C   0  0  0  0  0  0  0  0  0  0  0  0
    4.7915    1.8977   -1.8869 H   0  0  0  0  0  0  0  0  0  0  0  0
    4.9400    2.2407   -0.1412 H   0  0  0  0  0  0  0  0  0  0  0  0
    3.4919    1.4090   -0.7838 H   0  0  0  0  0  0  0  0  0  0  0  0
  1  3  1  6  0  0  0
  1  4  1  0  0  0  0
  2  7  1  0  0  0  0
  3  2  1  0  0  0  0
  4  5  1  0  0  0  0
  6  4  1  0  0  0  0
  7  4  1  0  0  0  0
  7  9  1  0  0  0  0
  8  7  1  0  0  0  0
 10  2  1  0  0  0  0
 10 17  1  0  0  0  0
 11 10  2  0  0  0  0
 12 11  1  0  0  0  0
 12 14  2  0  0  0  0
 13 12  1  0  0  0  0
 14 15  1  0  0  0  0
 15 17  2  0  0  0  0
 15 16  1  0  0  0  0
 17 26  1  0  0  0  0
 18 21  1  0  0  0  0
 18 11  1  0  0  0  0
 19 18  1  0  0  0  0
 20 18  1  0  0  0  0
 22 25  1  0  0  0  0
 22 14  1  0  0  0  0
 22 24  1  0  0  0  0
 23 22  1  0  0  0  0
 26 29  1  0  0  0  0
 26 27  1  0  0  0  0
 26 28  1  0  0  0  0
 30 31  1  6  0  0  0
 30  1  1  0  0  0  0
 30 32  1  0  0  0  0
 32 33  1  1  0  0  0
 32 45  1  0  0  0  0
 34 32  1  0  0  0  0
 34 35  1  1  0  0  0
 36 34  1  0  0  0  0
 37 38  1  6  0  0  0
 37 39  1  0  0  0  0
 37 36  1  0  0  0  0
 37 42  1  0  0  0  0
 39 30  1  0  0  0  0
 40 39  1  0  0  0  0
 41 39  1  0  0  0  0
 42 43  1  0  0  0  0
 42 34  1  0  0  0  0
 44 42  1  0  0  0  0
 45 47  1  0  0  0  0
 45 46  1  0  0  0  0
 48 45  1  0  0  0  0
 49 51  1  0  0  0  0
 49 36  1  0  0  0  0
 49 52  1  0  0  0  0
 50 49  1  0  0  0  0
 53 56  1  0  0  0  0
 53 36  1  0  0  0  0
 53 55  1  0  0  0  0
 54 53  1  0  0  0  0
M  END
