3
q = 0.0, confidence = 1.0

 55 57  0  0  1  0  0  0  0  0999 V2000
    1.3049   -2.2147   -0.0386 N   0  0  2  0  0  0  0  0  0  0  0  0
   -0.8881   -2.1641    0.1135 N   0  0  0  0  0  0  0  0  0  0  0  0
    0.2260   -1.3773    0.0026 C   0  0  0  0  0  2  0  0  0  0  0  0
    0.9542   -3.6102    0.2208 C   0  0  0  0  0  0  0  0  0  0  0  0
    1.2373   -3.9002    1.2580 H   0  0  0  0  0  0  0  0  0  0  0  0
    1.4683   -4.2999   -0.4785 H   0  0  0  0  0  0  0  0  0  0  0  0
   -0.5690   -3.5967    0.0270 C   0  0  0  0  0  0  0  0  0  0  0  0
   -0.8734   -3.9981   -0.9664 H   0  0  0  0  0  0  0  0  0  0  0  0
   -1.1131   -4.1674    0.8058 H   0  0  0  0  0  0  0  0  0  0  0  0
   -2.2530   -1.7481    0.1115 C   0  0  0  0  0  0  0  0  0  0  0  0
   -2.9320   -1.5988   -1.1257 C   0  0  0  0  0  0  0  0  0  0  0  0
   -4.2908   -1.2329   -1.0896 C   0  0  0  0  0  0  0  0  0  0  0  0
   -4.8397   -1.1054   -2.0353 H   0  0  0  0  0  0  0  0  0  0  0  0
   -4.9483   -1.0130    0.1277 C   0  0  0  0  0  0  0  0  0  0  0  0
   -6.0111   -0.7258    0.1339 H   0  0  0  0  0  0  0  0  0  0  0  0
   -4.2532   -1.1467    1.3363 C   0  0  0  0  0  0  0  0  0  0  0  0
   -4.7723   -0.9526    2.2875 H   0  0  0  0  0  0  0  0  0  0  0  0
   -2.8944   -1.5141    1.3550 C   0  0  0  0  0  0  0  0  0  0  0  0
   -2.1408   -1.6059    2.6741 C   0  0  0  0  0  0  0  0  0  0  0  0
   -1.0778   -1.8057    2.4329 H   0  0  0  0  0  0  0  0  0  0  0  0
   -2.1763   -0.2694    3.4332 C   0  0  0  0  0  0  0  0  0  0  0  0
   -3.2088    0.0040    3.7358 H   0  0  0  0  0  0  0  0  0  0  0  0
   -1.7599    0.5468    2.8114 H   0  0  0  0  0  0  0  0  0  0  0  0
   -1.5589   -0.3334    4.3517 H   0  0  0  0  0  0  0  0  0  0  0  0
   -2.6636   -2.7666    3.5377 C   0  0  0  0  0  0  0  0  0  0  0  0
   -2.6033   -3.7357    3.0010 H   0  0  0  0  0  0  0  0  0  0  0  0
   -3.7251   -2.6121    3.8242 H   0  0  0  0  0  0  0  0  0  0  0  0
   -2.0739   -2.8547    4.4731 H   0  0  0  0  0  0  0  0  0  0  0  0
   -2.2215   -1.7700   -2.4618 C   0  0  0  0  0  0  0  0  0  0  0  0
   -1.1472   -1.9457   -2.2530 H   0  0  0  0  0  0  0  0  0  0  0  0
   -2.7668   -2.9841   -3.2341 C   0  0  0  0  0  0  0  0  0  0  0  0
   -3.8367   -2.8472   -3.4966 H   0  0  0  0  0  0  0  0  0  0  0  0
   -2.6894   -3.9179   -2.6404 H   0  0  0  0  0  0  0  0  0  0  0  0
   -2.2061   -3.1296   -4.1800 H   0  0  0  0  0  0  0  0  0  0  0  0
   -2.2957   -0.4856   -3.3044 C   0  0  0  0  0  0  0  0  0  0  0  0
   -1.8636    0.3729   -2.7547 H   0  0  0  0  0  0  0  0  0  0  0  0
   -3.3409   -0.2402   -3.5859 H   0  0  0  0  0  0  0  0  0  0  0  0
   -1.7113   -0.6063   -4.2384 H   0  0  0  0  0  0  0  0  0  0  0  0
    2.6855   -1.7459   -0.0875 C   0  0  0  0  0  0  0  0  0  0  0  0
    2.6251   -0.6345   -0.1525 H   0  0  0  0  0  0  0  0  0  0  0  0
    3.4135   -2.2063   -1.3589 C   0  0  0  0  0  0  0  0  0  0  0  0
    3.4748   -3.3181   -1.3685 H   0  0  0  0  0  0  0  0  0  0  0  0
    2.8132   -1.8914   -2.2360 H   0  0  0  0  0  0  0  0  0  0  0  0
    4.8259   -1.6106   -1.4153 C   0  0  0  0  0  0  0  0  0  0  0  0
    4.7386   -0.5067   -1.5301 H   0  0  0  0  0  0  0  0  0  0  0  0
    5.3579   -1.9746   -2.3187 H   0  0  0  0  0  0  0  0  0  0  0  0
    5.6299   -1.9287   -0.1477 C   0  0  0  0  0  0  0  0  0  0  0  0
    5.8067   -3.0270   -0.0934 H   0  0  0  0  0  0  0  0  0  0  0  0
    6.6325   -1.4544   -0.1962 H   0  0  0  0  0  0  0  0  0  0  0  0
    4.8856   -1.4770    1.1159 C   0  0  0  0  0  0  0  0  0  0  0  0
    5.4598   -1.7461    2.0267 H   0  0  0  0  0  0  0  0  0  0  0  0
    4.8031   -0.3669    1.1184 H   0  0  0  0  0  0  0  0  0  0  0  0
    3.4744   -2.0740    1.1880 C   0  0  0  0  0  0  0  0  0  0  0  0
    3.5465   -3.1789    1.3046 H   0  0  0  0  0  0  0  0  0  0  0  0
    2.9172   -1.6750    2.0600 H   0  0  0  0  0  0  0  0  0  0  0  0
  1 39  1  1  0  0  0
  1  3  1  0  0  0  0
  1  4  1  0  0  0  0
  3  2  1  0  0  0  0
  4  5  1  0  0  0  0
  6  4  1  0  0  0  0
  7  2  1  0  0  0  0
  7  4  1  0  0  0  0
  7  9  1  0  0  0  0
  8  7  1  0  0  0  0
 10  2  1  0  0  0  0
 10 18  1  0  0  0  0
 11 12  1  0  0  0  0
 11 10  2  0  0  0  0
 12 14  2  0  0  0  0
 13 12  1  0  0  0  0
 14 15  1  0  0  0  0
 14 16  1  0  0  0  0
 16 18  2  0  0  0  0
 16 17  1  0  0  0  0
 18 19  1  0  0  0  0
 19 21  1  0  0  0  0
 19 25  1  0  0  0  0
 20 19  1  0  0  0  0
 21 22  1  0  0  0  0
 21 24  1  0  0  0  0
 23 21  1  0  0  0  0
 25 27  1  0  0  0  0
 25 28  1  0  0  0  0
 26 25  1  0  0  0  0
 29 30  1  0  0  0  0
 29 11  1  0  0  0  0
 31 33  1  0  0  0  0
 31 29  1  0  0  0  0
 32 31  1  0  0  0  0
 34 31  1  0  0  0  0
 35 36  1  0  0  0  0
 35 29  1  0  0  0  0
 37 35  1  0  0  0  0
 38 35  1  0  0  0  0
 39 53  1  0  0  0  0
 40 39  1  0  0  0  0
 41 39  1  0  0  0  0
 42 41  1  0  0  0  0
 43 41  1  0  0  0  0
 44 41  1  0  0  0  0
 44 47  1  0  0  0  0
 45 44  1  0  0  0  0
 46 44  1  0  0  0  0
 47 48  1  0  0  0  0
 47 50  1  0  0  0  0
 49 47  1  0  0  0  0
 50 52  1  0  0  0  0
 50 53  1  0  0  0  0
 50 51  1  0  0  0  0
 53 54  1  0  0  0  0
 53 55  1  0  0  0  0
M  END
