6
q = 0.0, confidence = 0.89

 12 12  0  0  1  0  0  0  0  0999 V2000
    4.3656    0.5427    0.3292 Cl  0  0  0  0  0  0  0  0  0  0  0  0
    2.5317    1.3122    2.6780 O   0  0  0  0  0  0  0  0  0  0  0  0
    1.4905   -3.6748    0.8973 O   0  0  0  0  0  0  0  0  0  0  0  0
    2.1933    0.3272    2.0260 C   0  0  0  0  0  0  0  0  0  0  0  0
    2.8820   -0.2397    0.8308 C   0  0  2  0  0  3  0  0  0  0  0  0
    2.5801   -1.5813    0.3255 C   0  0  0  0  0  3  0  0  0  0  0  0
    1.5979   -2.4554    1.0147 C   0  0  0  0  0  0  0  0  0  0  0  0
    0.5191   -1.5496    1.5318 C   0  0  0  0  0  0  0  0  0  0  0  0
    0.8114   -0.2478    2.0180 C   0  0  0  0  0  0  0  0  0  0  0  0
    3.2622   -2.0363   -0.4092 H   0  0  0  0  0  0  0  0  0  0  0  0
   -0.4879   -1.9783    1.6598 H   0  0  0  0  0  0  0  0  0  0  0  0
    0.0411    0.3223    2.5588 H   0  0  0  0  0  0  0  0  0  0  0  0
  3  7  2  0  0  0  0
  4  2  2  0  0  0  0
  5  1  1  1  0  0  0
  5  4  1  0  0  0  0
  6  5  1  0  0  0  0
  6  7  1  0  0  0  0
  7  8  1  0  0  0  0
  8 11  1  0  0  0  0
  8  9  2  0  0  0  0
  9  4  1  0  0  0  0
  9 12  1  0  0  0  0
 10  6  1  0  0  0  0
M  END
