2
q = -2.0, confidence = 0.602

 21 21  0  0  0  0  0  0  0  0999 V2000
    1.4298    1.3027   -1.2918 S   0  0  0  0  0  1  0  0  0  0  0  0
    1.9099   -0.2987    0.5871 C   0  0  0  0  0  3  0  0  0  0  0  0
    1.3955   -0.9068    2.8383 O   0  0  0  0  0  0  0  0  0  0  0  0
    2.0584    2.2072    1.3486 C   0  0  0  0  0  0  0  0  0  0  0  0
    1.8076    1.0524    0.4740 C   0  0  0  0  0  0  0  0  0  0  0  0
    3.0353   -2.0246    1.7488 O   0  0  0  0  0  0  0  0  0  0  0  0
    2.6362    3.3840    0.8150 C   0  0  0  0  0  0  0  0  0  0  0  0
    2.8868    3.4253   -0.2562 H   0  0  0  0  0  0  0  0  0  0  0  0
    1.7276    2.1708    2.7238 C   0  0  0  0  0  0  0  0  0  0  0  0
    1.2675    1.2632    3.1370 H   0  0  0  0  0  0  0  0  0  0  0  0
    2.5463    4.4508    2.9958 C   0  0  0  0  0  0  0  0  0  0  0  0
    2.7286    5.3265    3.6368 H   0  0  0  0  0  0  0  0  0  0  0  0
    1.9732    3.2874    3.5339 C   0  0  0  0  0  0  0  0  0  0  0  0
    1.7009    3.2506    4.5997 H   0  0  0  0  0  0  0  0  0  0  0  0
    2.8789    4.4936    1.6316 C   0  0  0  0  0  0  0  0  0  0  0  0
    3.3271    5.4009    1.1993 H   0  0  0  0  0  0  0  0  0  0  0  0
    2.0808   -1.0745    1.8358 C   0  0  0  0  0  0  0  0  0  0  0  0
    3.0912   -2.9294    2.8617 C   0  0  0  0  0  0  0  0  0  0  0  0
    2.1395   -3.4936    2.9258 H   0  0  0  0  0  0  0  0  0  0  0  0
    3.2508   -2.3818    3.8115 H   0  0  0  0  0  0  0  0  0  0  0  0
    3.9363   -3.6104    2.6579 H   0  0  0  0  0  0  0  0  0  0  0  0
  1  5  1  0  0  0  0
  2 17  1  0  0  0  0
  4  9  1  0  0  0  0
  5  2  2  0  0  0  0
  5  4  1  0  0  0  0
  6 17  1  0  0  0  0
  6 18  1  0  0  0  0
  7  4  2  0  0  0  0
  7 15  1  0  0  0  0
  8  7  1  0  0  0  0
  9 10  1  0  0  0  0
  9 13  2  0  0  0  0
 11 13  1  0  0  0  0
 11 12  1  0  0  0  0
 13 14  1  0  0  0  0
 15 11  2  0  0  0  0
 16 15  1  0  0  0  0
 17  3  2  0  0  0  0
 18 19  1  0  0  0  0
 18 20  1  0  0  0  0
 21 18  1  0  0  0  0
M  END
