4
q = -1.0, confidence = 0.0

  4  3  0  0  0  0  0  0  0  0999 V2000
    1.4363    2.5842    1.1114 Cl  0  0  0  0  0  0  0  0  0  0  0  0
   -1.4368    2.5840    1.1112 Cl  0  0  0  0  0  0  0  0  0  0  0  0
   -0.0001    2.7962   -1.4234 Cl  0  0  0  0  0  0  0  0  0  0  0  0
   -0.0002    1.9412    0.1421 C   0  0  0  0  0  0  0  0  0  0  0  0
  3  4  1  0  0  0  0
  4  2  1  0  0  0  0
  4  1  1  0  0  0  0
M  END
