2
q = 0.0, confidence = 0.94

 40 43  0  0  1  0  0  0  0  0999 V2000
    1.0416    0.6851    0.4753 N   0  0  0  0  0  2  0  0  0  0  0  0
   -0.0239    0.0670    0.0408 C   0  0  0  0  0  2  0  0  0  0  0  0
   -1.3909    0.2055   -0.0715 C   0  0  0  0  0  0  0  0  0  0  0  0
   -2.1937    1.3253    0.4397 C   0  0  2  0  0  3  0  0  0  0  0  0
   -1.8404    2.4889    1.1504 C   0  0  0  0  0  0  0  0  0  0  0  0
   -2.8418    3.3950    1.5318 C   0  0  0  0  0  0  0  0  0  0  0  0
   -4.1964    3.1529    1.2209 C   0  0  0  0  0  0  0  0  0  0  0  0
   -4.5676    1.9873    0.5338 C   0  0  0  0  0  0  0  0  0  0  0  0
   -3.5761    1.0699    0.1482 C   0  0  0  0  0  0  0  0  0  0  0  0
   -2.3391   -0.7546   -0.6443 C   0  0  0  0  0  0  0  0  0  0  0  0
   -3.6661   -0.2219   -0.5249 C   0  0  0  0  0  0  0  0  0  0  0  0
   -4.7726   -0.9467   -0.9993 C   0  0  0  0  0  0  0  0  0  0  0  0
   -4.5706   -2.2055   -1.5846 C   0  0  0  0  0  0  0  0  0  0  0  0
   -3.2681   -2.7383   -1.6929 C   0  0  0  0  0  0  0  0  0  0  0  0
   -2.1543   -2.0212   -1.2303 C   0  0  0  0  0  0  0  0  0  0  0  0
    1.5406    2.0254    0.1880 C   0  0  0  0  0  0  0  0  0  0  0  0
    3.0667    2.0883    0.3261 C   0  0  0  0  0  0  0  0  0  0  0  0
    3.5869    3.5167    0.1246 C   0  0  0  0  0  0  0  0  0  0  0  0
    3.1159    4.1026   -1.2138 C   0  0  0  0  0  0  0  0  0  0  0  0
    1.5881    4.0398   -1.3428 C   0  0  0  0  0  0  0  0  0  0  0  0
    1.0627    2.6119   -1.1505 C   0  0  0  0  0  0  0  0  0  0  0  0
   -0.7935    2.6863    1.4199 H   0  0  0  0  0  0  0  0  0  0  0  0
   -2.5656    4.3059    2.0854 H   0  0  0  0  0  0  0  0  0  0  0  0
   -4.9655    3.8779    1.5280 H   0  0  0  0  0  0  0  0  0  0  0  0
   -5.6268    1.7897    0.3053 H   0  0  0  0  0  0  0  0  0  0  0  0
   -5.7891   -0.5327   -0.9080 H   0  0  0  0  0  0  0  0  0  0  0  0
   -5.4303   -2.7817   -1.9591 H   0  0  0  0  0  0  0  0  0  0  0  0
   -3.1237   -3.7301   -2.1497 H   0  0  0  0  0  0  0  0  0  0  0  0
   -1.1433   -2.4378   -1.3166 H   0  0  0  0  0  0  0  0  0  0  0  0
    1.1291    2.6836    0.9930 H   0  0  0  0  0  0  0  0  0  0  0  0
    3.5191    1.4108   -0.4290 H   0  0  0  0  0  0  0  0  0  0  0  0
    3.3589    1.6869    1.3191 H   0  0  0  0  0  0  0  0  0  0  0  0
    4.6950    3.5319    0.1896 H   0  0  0  0  0  0  0  0  0  0  0  0
    3.2180    4.1623    0.9534 H   0  0  0  0  0  0  0  0  0  0  0  0
    3.5763    3.5238   -2.0467 H   0  0  0  0  0  0  0  0  0  0  0  0
    3.4736    5.1476   -1.3261 H   0  0  0  0  0  0  0  0  0  0  0  0
    1.2608    4.4372   -2.3260 H   0  0  0  0  0  0  0  0  0  0  0  0
    1.1284    4.7018   -0.5745 H   0  0  0  0  0  0  0  0  0  0  0  0
   -0.0452    2.5866   -1.1899 H   0  0  0  0  0  0  0  0  0  0  0  0
    1.4221    1.9618   -1.9769 H   0  0  0  0  0  0  0  0  0  0  0  0
  2  1  1  0  0  0  0
  3  2  1  0  0  0  0
  4  3  1  1  0  0  0
  4  5  1  0  0  0  0
  5 22  1  0  0  0  0
  5  6  2  0  0  0  0
  6 23  1  0  0  0  0
  7 24  1  0  0  0  0
  7  6  1  0  0  0  0
  8  7  2  0  0  0  0
  9  4  1  0  0  0  0
  9  8  1  0  0  0  0
 10 11  1  0  0  0  0
 10  3  2  0  0  0  0
 11  9  2  0  0  0  0
 12 26  1  0  0  0  0
 12 11  1  0  0  0  0
 13 12  2  0  0  0  0
 14 13  1  0  0  0  0
 14 15  2  0  0  0  0
 15 10  1  0  0  0  0
 16 17  1  0  0  0  0
 16  1  1  0  0  0  0
 16 30  1  0  0  0  0
 17 32  1  0  0  0  0
 18 33  1  0  0  0  0
 18 17  1  0  0  0  0
 18 34  1  0  0  0  0
 19 18  1  0  0  0  0
 20 19  1  0  0  0  0
 20 21  1  0  0  0  0
 20 38  1  0  0  0  0
 21 16  1  0  0  0  0
 25  8  1  0  0  0  0
 27 13  1  0  0  0  0
 28 14  1  0  0  0  0
 29 15  1  0  0  0  0
 31 17  1  0  0  0  0
 35 19  1  0  0  0  0
 36 19  1  0  0  0  0
 37 20  1  0  0  0  0
 39 21  1  0  0  0  0
 40 21  1  0  0  0  0
M  END
