11
q = 0.0, confidence = 0.996

 50 52  0  0  1  0  0  0  0  0999 V2000
    1.9898    2.5616    1.0800 O   0  0  0  0  0  0  0  0  0  0  0  0
   -2.2226    1.1421   -1.0590 O   0  0  0  0  0  0  0  0  0  0  0  0
   -0.3838   -0.7894    1.1320 O   0  0  0  0  0  0  0  0  0  0  0  0
    3.2538    0.9372    0.2043 N   0  0  0  0  0  0  0  0  0  0  0  0
    4.2318    2.5851    1.5995 O   0  0  0  0  0  0  0  0  0  0  0  0
   -0.8954    0.7804   -0.5712 C   0  0  1  0  0  0  0  0  0  0  0  0
    1.1930    1.7495    0.3000 C   0  0  0  0  0  0  0  0  0  0  0  0
    1.3849   -0.2597   -1.1940 C   0  0  0  0  0  0  0  0  0  0  0  0
    1.2747   -1.2508   -0.7051 H   0  0  0  0  0  0  0  0  0  0  0  0
    2.0699   -0.4124   -2.0541 H   0  0  0  0  0  0  0  0  0  0  0  0
   -1.3427   -0.3371    0.3602 C   0  0  0  0  0  2  0  0  0  0  0  0
    0.0184    0.2374   -1.7007 C   0  0  0  0  0  0  0  0  0  0  0  0
   -0.5123   -0.5772   -2.2297 H   0  0  0  0  0  0  0  0  0  0  0  0
    0.1888    1.0565   -2.4290 H   0  0  0  0  0  0  0  0  0  0  0  0
    4.3835    0.1237   -0.0713 C   0  0  0  0  0  0  0  0  0  0  0  0
    1.9322    0.7530   -0.2470 C   0  0  0  0  0  0  0  0  0  0  0  0
   -0.2611    2.0262    0.1183 C   0  0  2  0  0  0  0  0  0  0  0  0
   -0.3738    2.8592   -0.6177 H   0  0  0  0  0  0  0  0  0  0  0  0
    3.2953    2.0767    1.0273 C   0  0  0  0  0  0  0  0  0  0  0  0
   -0.9697    2.4539    1.4101 C   0  0  0  0  0  0  0  0  0  0  0  0
   -0.8953    1.6735    2.1914 H   0  0  0  0  0  0  0  0  0  0  0  0
   -2.0393    2.6528    1.2128 H   0  0  0  0  0  0  0  0  0  0  0  0
   -0.5048    3.3763    1.8071 H   0  0  0  0  0  0  0  0  0  0  0  0
    5.3706   -2.0689   -0.4475 C   0  0  0  0  0  0  0  0  0  0  0  0
    5.2492   -3.1616   -0.5125 H   0  0  0  0  0  0  0  0  0  0  0  0
    4.2527   -1.2753   -0.1551 C   0  0  0  0  0  0  0  0  0  0  0  0
    3.2802   -1.7506    0.0303 H   0  0  0  0  0  0  0  0  0  0  0  0
    5.6528    0.7103   -0.2539 C   0  0  0  0  0  0  0  0  0  0  0  0
    5.7648    1.7980   -0.1611 H   0  0  0  0  0  0  0  0  0  0  0  0
    6.6447   -1.5021   -0.6389 C   0  0  0  0  0  0  0  0  0  0  0  0
   -2.3775    1.7737   -2.3367 C   0  0  0  0  0  0  0  0  0  0  0  0
   -2.3440    1.0074   -3.1432 H   0  0  0  0  0  0  0  0  0  0  0  0
   -1.5267    2.4725   -2.4926 H   0  0  0  0  0  0  0  0  0  0  0  0
   -0.6791   -1.8608    2.0759 C   0  0  0  0  0  0  0  0  0  0  0  0
    0.2907   -2.3793    2.2066 H   0  0  0  0  0  0  0  0  0  0  0  0
   -1.4031   -2.5493    1.6006 H   0  0  0  0  0  0  0  0  0  0  0  0
    6.7589   -0.0996   -0.5270 C   0  0  0  0  0  0  0  0  0  0  0  0
    7.7439    0.3744   -0.6637 H   0  0  0  0  0  0  0  0  0  0  0  0
   -1.1988   -1.3034    3.3853 C   0  0  0  0  0  0  0  0  0  0  0  0
   -0.4708   -0.6026    3.8401 H   0  0  0  0  0  0  0  0  0  0  0  0
   -1.3707   -2.1357    4.0964 H   0  0  0  0  0  0  0  0  0  0  0  0
   -2.1616   -0.7773    3.2408 H   0  0  0  0  0  0  0  0  0  0  0  0
   -3.6867    2.5383   -2.3541 C   0  0  0  0  0  0  0  0  0  0  0  0
   -4.5527    1.8627   -2.2264 H   0  0  0  0  0  0  0  0  0  0  0  0
   -3.8009    3.0605   -3.3247 H   0  0  0  0  0  0  0  0  0  0  0  0
   -3.7088    3.2934   -1.5439 H   0  0  0  0  0  0  0  0  0  0  0  0
    7.8507   -2.3533   -0.9442 C   0  0  0  0  0  0  0  0  0  0  0  0
    8.6429   -2.2196   -0.1783 H   0  0  0  0  0  0  0  0  0  0  0  0
    8.3014   -2.0788   -1.9210 H   0  0  0  0  0  0  0  0  0  0  0  0
    7.5935   -3.4294   -0.9812 H   0  0  0  0  0  0  0  0  0  0  0  0
  2  6  1  0  0  0  0
  3 34  1  0  0  0  0
  4 19  1  0  0  0  0
  6 17  1  0  0  0  0
  6 11  1  1  0  0  0
  7  1  1  0  0  0  0
  8  9  1  0  0  0  0
  8 16  1  0  0  0  0
 10  8  1  0  0  0  0
 11  3  1  0  0  0  0
 12  8  1  0  0  0  0
 12  6  1  0  0  0  0
 13 12  1  0  0  0  0
 14 12  1  0  0  0  0
 15  4  1  0  0  0  0
 16  4  1  0  0  0  0
 16  7  2  0  0  0  0
 17 18  1  6  0  0  0
 17  7  1  0  0  0  0
 17 20  1  0  0  0  0
 19  1  1  0  0  0  0
 19  5  2  0  0  0  0
 20 23  1  0  0  0  0
 20 21  1  0  0  0  0
 22 20  1  0  0  0  0
 24 26  2  0  0  0  0
 25 24  1  0  0  0  0
 26 15  1  0  0  0  0
 26 27  1  0  0  0  0
 28 29  1  0  0  0  0
 28 15  2  0  0  0  0
 30 37  2  0  0  0  0
 30 24  1  0  0  0  0
 31  2  1  0  0  0  0
 32 31  1  0  0  0  0
 33 31  1  0  0  0  0
 34 35  1  0  0  0  0
 34 39  1  0  0  0  0
 36 34  1  0  0  0  0
 37 28  1  0  0  0  0
 38 37  1  0  0  0  0
 39 40  1  0  0  0  0
 39 41  1  0  0  0  0
 42 39  1  0  0  0  0
 43 31  1  0  0  0  0
 43 44  1  0  0  0  0
 43 46  1  0  0  0  0
 45 43  1  0  0  0  0
 47 30  1  0  0  0  0
 47 48  1  0  0  0  0
 49 47  1  0  0  0  0
 50 47  1  0  0  0  0
M  END
