3
q = 0.0, confidence = 0.992

 62 64  0  0  0  0  0  0  0  0999 V2000
    0.2543   -1.1003    0.2096 N   0  0  0  0  0  0  0  0  0  0  0  0
   -1.8122   -1.1358   -0.4351 N   0  0  0  0  0  0  0  0  0  0  0  0
   -0.9563   -0.4978    0.4284 C   0  0  0  0  0  2  0  0  0  0  0  0
    0.1624   -2.0754   -0.7752 C   0  0  0  0  0  0  0  0  0  0  0  0
    1.0174   -2.6673   -1.1100 H   0  0  0  0  0  0  0  0  0  0  0  0
   -1.1482   -2.1044   -1.1810 C   0  0  0  0  0  0  0  0  0  0  0  0
   -1.6570   -2.7170   -1.9305 H   0  0  0  0  0  0  0  0  0  0  0  0
   -3.2054   -0.8032   -0.5492 C   0  0  0  0  0  0  0  0  0  0  0  0
   -4.1603   -1.7130   -0.0390 C   0  0  0  0  0  0  0  0  0  0  0  0
   -5.5183   -1.3762   -0.1579 C   0  0  0  0  0  0  0  0  0  0  0  0
   -6.2731   -2.0741    0.2390 H   0  0  0  0  0  0  0  0  0  0  0  0
   -5.9361   -0.1704   -0.7531 C   0  0  0  0  0  0  0  0  0  0  0  0
   -4.9524    0.7070   -1.2403 C   0  0  0  0  0  0  0  0  0  0  0  0
   -5.2607    1.6556   -1.7081 H   0  0  0  0  0  0  0  0  0  0  0  0
   -3.5771    0.4203   -1.1517 C   0  0  0  0  0  0  0  0  0  0  0  0
   -3.7309   -2.9897    0.6383 C   0  0  0  0  0  0  0  0  0  0  0  0
   -4.5846   -3.4706    1.1518 H   0  0  0  0  0  0  0  0  0  0  0  0
   -2.9365   -2.7958    1.3877 H   0  0  0  0  0  0  0  0  0  0  0  0
   -3.3142   -3.7259   -0.0807 H   0  0  0  0  0  0  0  0  0  0  0  0
   -7.3996    0.1859   -0.8231 C   0  0  0  0  0  0  0  0  0  0  0  0
   -7.6089    0.8970   -1.6456 H   0  0  0  0  0  0  0  0  0  0  0  0
   -7.7312    0.6701    0.1209 H   0  0  0  0  0  0  0  0  0  0  0  0
   -8.0337   -0.7113   -0.9665 H   0  0  0  0  0  0  0  0  0  0  0  0
   -2.5588    1.4103   -1.6532 C   0  0  0  0  0  0  0  0  0  0  0  0
   -1.6773    0.9116   -2.1027 H   0  0  0  0  0  0  0  0  0  0  0  0
   -2.1797    2.0383   -0.8135 H   0  0  0  0  0  0  0  0  0  0  0  0
   -3.0053    2.0875   -2.4061 H   0  0  0  0  0  0  0  0  0  0  0  0
    1.4851   -0.6035    0.8627 C   0  0  0  0  0  0  0  0  0  0  0  0
    1.1959   -0.4371    1.9224 H   0  0  0  0  0  0  0  0  0  0  0  0
    1.8791    0.7645    0.2670 C   0  0  0  0  0  0  0  0  0  0  0  0
    1.1107    1.5102    0.5728 H   0  0  0  0  0  0  0  0  0  0  0  0
    2.8163    1.0812    0.7684 H   0  0  0  0  0  0  0  0  0  0  0  0
    2.0489    0.7855   -1.2567 C   0  0  0  0  0  0  0  0  0  0  0  0
    1.0457    0.8132   -1.7326 H   0  0  0  0  0  0  0  0  0  0  0  0
    2.5117   -0.1641   -1.6058 H   0  0  0  0  0  0  0  0  0  0  0  0
    2.8874    1.9694   -1.7686 C   0  0  0  0  0  0  0  0  0  0  0  0
    2.8207    2.0056   -2.8780 H   0  0  0  0  0  0  0  0  0  0  0  0
    2.4303    2.9147   -1.4041 H   0  0  0  0  0  0  0  0  0  0  0  0
    4.3674    1.9302   -1.3526 C   0  0  0  0  0  0  0  0  0  0  0  0
    4.4275    1.8695   -0.2442 H   0  0  0  0  0  0  0  0  0  0  0  0
    4.8480    2.8979   -1.6114 H   0  0  0  0  0  0  0  0  0  0  0  0
    5.1784    0.7835   -1.9766 C   0  0  0  0  0  0  0  0  0  0  0  0
    5.4006    1.0304   -3.0371 H   0  0  0  0  0  0  0  0  0  0  0  0
    4.5541   -0.1356   -2.0206 H   0  0  0  0  0  0  0  0  0  0  0  0
    6.4880    0.4575   -1.2379 C   0  0  0  0  0  0  0  0  0  0  0  0
    7.1042   -0.2235   -1.8653 H   0  0  0  0  0  0  0  0  0  0  0  0
    7.0836    1.3900   -1.1276 H   0  0  0  0  0  0  0  0  0  0  0  0
    6.2870   -0.1810    0.1474 C   0  0  0  0  0  0  0  0  0  0  0  0
    7.2500   -0.1820    0.7016 H   0  0  0  0  0  0  0  0  0  0  0  0
    5.6118    0.4692    0.7447 H   0  0  0  0  0  0  0  0  0  0  0  0
    5.7286   -1.6128    0.1089 C   0  0  0  0  0  0  0  0  0  0  0  0
    6.5449   -2.3148   -0.1653 H   0  0  0  0  0  0  0  0  0  0  0  0
    4.9877   -1.7002   -0.7157 H   0  0  0  0  0  0  0  0  0  0  0  0
    5.0732   -2.0793    1.4200 C   0  0  0  0  0  0  0  0  0  0  0  0
    5.7948   -1.9477    2.2553 H   0  0  0  0  0  0  0  0  0  0  0  0
    4.8728   -3.1718    1.3621 H   0  0  0  0  0  0  0  0  0  0  0  0
    3.7677   -1.3459    1.7717 C   0  0  0  0  0  0  0  0  0  0  0  0
    3.4600   -1.6029    2.8073 H   0  0  0  0  0  0  0  0  0  0  0  0
    3.9631   -0.2531    1.7881 H   0  0  0  0  0  0  0  0  0  0  0  0
    2.6066   -1.6495    0.8130 C   0  0  0  0  0  0  0  0  0  0  0  0
    2.1880   -2.6498    1.0539 H   0  0  0  0  0  0  0  0  0  0  0  0
    2.9918   -1.7167   -0.2270 H   0  0  0  0  0  0  0  0  0  0  0  0
  1  3  1  0  0  0  0
  1 28  1  0  0  0  0
  2  3  1  0  0  0  0
  4  1  1  0  0  0  0
  5  4  1  0  0  0  0
  6  4  2  0  0  0  0
  6  2  1  0  0  0  0
  7  6  1  0  0  0  0
  8  2  1  0  0  0  0
  8  9  1  0  0  0  0
  9 16  1  0  0  0  0
 10  9  2  0  0  0  0
 10 11  1  0  0  0  0
 12 10  1  0  0  0  0
 13 15  1  0  0  0  0
 13 12  2  0  0  0  0
 14 13  1  0  0  0  0
 15  8  2  0  0  0  0
 16 17  1  0  0  0  0
 16 18  1  0  0  0  0
 19 16  1  0  0  0  0
 20 12  1  0  0  0  0
 20 22  1  0  0  0  0
 21 20  1  0  0  0  0
 23 20  1  0  0  0  0
 24 15  1  0  0  0  0
 24 26  1  0  0  0  0
 25 24  1  0  0  0  0
 27 24  1  0  0  0  0
 28 29  1  0  0  0  0
 30 31  1  0  0  0  0
 30 32  1  0  0  0  0
 30 28  1  0  0  0  0
 33 30  1  0  0  0  0
 34 33  1  0  0  0  0
 35 33  1  0  0  0  0
 36 38  1  0  0  0  0
 36 39  1  0  0  0  0
 36 33  1  0  0  0  0
 37 36  1  0  0  0  0
 39 40  1  0  0  0  0
 41 39  1  0  0  0  0
 42 39  1  0  0  0  0
 42 45  1  0  0  0  0
 43 42  1  0  0  0  0
 44 42  1  0  0  0  0
 45 47  1  0  0  0  0
 45 48  1  0  0  0  0
 46 45  1  0  0  0  0
 48 49  1  0  0  0  0
 48 50  1  0  0  0  0
 51 48  1  0  0  0  0
 51 54  1  0  0  0  0
 52 51  1  0  0  0  0
 53 51  1  0  0  0  0
 54 57  1  0  0  0  0
 54 55  1  0  0  0  0
 56 54  1  0  0  0  0
 57 59  1  0  0  0  0
 57 58  1  0  0  0  0
 60 28  1  0  0  0  0
 60 61  1  0  0  0  0
 60 57  1  0  0  0  0
 62 60  1  0  0  0  0
M  END
