9
q = 0.0, confidence = 0.658

 52 56  0  0  1  0  0  0  0  0999 V2000
    2.7629   -1.4599   -2.1034 S   0  0  0  0  0  0  0  0  0  0  0  0
   -3.7039    1.3123   -0.3495 O   0  0  0  0  0  0  0  0  0  0  0  0
    3.5302   -0.6398   -3.0590 O   0  0  0  0  0  0  0  0  0  0  0  0
    2.6012   -2.9223   -2.2235 O   0  0  0  0  0  0  0  0  0  0  0  0
    1.1886   -0.8434   -2.1232 N   0  0  0  0  0  0  0  0  0  0  0  0
   -1.2728    1.5877   -0.6722 C   0  0  1  0  0  3  0  0  0  0  0  0
   -2.5836    0.8382   -0.5201 C   0  0  0  0  0  0  0  0  0  0  0  0
   -2.1787   -0.6243   -0.4819 C   0  0  2  0  0  3  0  0  0  0  0  0
   -0.8464   -0.6925   -1.0194 C   0  0  1  0  0  3  0  0  0  0  0  0
    0.0483   -1.6813   -1.7145 C   0  0  0  0  0  0  0  0  0  0  0  0
    0.3860   -2.5369   -1.0967 H   0  0  0  0  0  0  0  0  0  0  0  0
   -0.4782   -2.1146   -2.5955 H   0  0  0  0  0  0  0  0  0  0  0  0
    3.3928   -1.0862   -0.4637 C   0  0  0  0  0  0  0  0  0  0  0  0
    3.0613   -1.9228    0.6138 C   0  0  0  0  0  0  0  0  0  0  0  0
    2.4894   -2.8450    0.4402 H   0  0  0  0  0  0  0  0  0  0  0  0
    3.4848   -1.5720    1.9016 C   0  0  0  0  0  0  0  0  0  0  0  0
    3.2171   -2.2203    2.7503 H   0  0  0  0  0  0  0  0  0  0  0  0
    4.2468   -0.4065    2.1305 C   0  0  0  0  0  0  0  0  0  0  0  0
    4.6434    0.0014    3.5242 C   0  0  0  0  0  0  0  0  0  0  0  0
    5.6640    0.4322    3.5502 H   0  0  0  0  0  0  0  0  0  0  0  0
    4.6037   -0.8496    4.2308 H   0  0  0  0  0  0  0  0  0  0  0  0
    3.9513    0.7840    3.9034 H   0  0  0  0  0  0  0  0  0  0  0  0
    4.5986    0.3916    1.0214 C   0  0  0  0  0  0  0  0  0  0  0  0
    5.2103    1.2938    1.1774 H   0  0  0  0  0  0  0  0  0  0  0  0
    4.1769    0.0636   -0.2724 C   0  0  0  0  0  0  0  0  0  0  0  0
    4.4616    0.6713   -1.1434 H   0  0  0  0  0  0  0  0  0  0  0  0
    0.9745    0.5990   -1.9241 C   0  0  0  0  0  0  0  0  0  0  0  0
    0.8462    1.1390   -2.8896 H   0  0  0  0  0  0  0  0  0  0  0  0
    1.8409    1.0607   -1.4050 H   0  0  0  0  0  0  0  0  0  0  0  0
   -0.3073    0.6286   -1.1360 C   0  0  1  0  0  3  0  0  0  0  0  0
   -3.0869   -1.7549   -0.2334 C   0  0  0  0  0  0  0  0  0  0  0  0
   -4.4633   -1.5357    0.0176 C   0  0  0  0  0  0  0  0  0  0  0  0
   -4.8364   -0.5030    0.0256 H   0  0  0  0  0  0  0  0  0  0  0  0
   -5.3240   -2.6179    0.2425 C   0  0  0  0  0  0  0  0  0  0  0  0
   -6.3913   -2.4282    0.4332 H   0  0  0  0  0  0  0  0  0  0  0  0
   -4.8374   -3.9343    0.2253 C   0  0  0  0  0  0  0  0  0  0  0  0
   -5.5177   -4.7808    0.4032 H   0  0  0  0  0  0  0  0  0  0  0  0
   -3.4731   -4.1642   -0.0181 C   0  0  0  0  0  0  0  0  0  0  0  0
   -3.0778   -5.1911   -0.0292 H   0  0  0  0  0  0  0  0  0  0  0  0
   -2.6081   -3.0880   -0.2444 C   0  0  0  0  0  0  0  0  0  0  0  0
   -1.5418   -3.2908   -0.4142 H   0  0  0  0  0  0  0  0  0  0  0  0
   -1.1177    3.0507   -0.6480 C   0  0  0  0  0  0  0  0  0  0  0  0
   -2.2408    3.8950   -0.4721 C   0  0  0  0  0  0  0  0  0  0  0  0
   -3.2291    3.4326   -0.3486 H   0  0  0  0  0  0  0  0  0  0  0  0
   -2.0864    5.2875   -0.4631 C   0  0  0  0  0  0  0  0  0  0  0  0
   -2.9715    5.9277   -0.3280 H   0  0  0  0  0  0  0  0  0  0  0  0
   -0.8188    5.8676   -0.6249 C   0  0  0  0  0  0  0  0  0  0  0  0
   -0.7031    6.9620   -0.6167 H   0  0  0  0  0  0  0  0  0  0  0  0
    0.3037    5.0403   -0.7949 C   0  0  0  0  0  0  0  0  0  0  0  0
    1.3040    5.4825   -0.9170 H   0  0  0  0  0  0  0  0  0  0  0  0
    0.1566    3.6489   -0.8058 C   0  0  0  0  0  0  0  0  0  0  0  0
    1.0509    3.0210   -0.9200 H   0  0  0  0  0  0  0  0  0  0  0  0
  1 13  1  0  0  0  0
  3  1  2  0  0  0  0
  4  1  2  0  0  0  0
  5  1  1  0  0  0  0
  5 27  1  0  0  0  0
  5 10  1  0  0  0  0
  6 42  1  6  0  0  0
  6  7  1  0  0  0  0
  7  8  1  0  0  0  0
  7  2  2  0  0  0  0
  8 31  1  6  0  0  0
  9 10  1  6  0  0  0
  9  8  1  0  0  0  0
 10 11  1  0  0  0  0
 12 10  1  0  0  0  0
 13 25  2  0  0  0  0
 13 14  1  0  0  0  0
 14 16  2  0  0  0  0
 15 14  1  0  0  0  0
 16 18  1  0  0  0  0
 16 17  1  0  0  0  0
 18 19  1  0  0  0  0
 19 20  1  0  0  0  0
 19 22  1  0  0  0  0
 19 21  1  0  0  0  0
 23 24  1  0  0  0  0
 23 18  2  0  0  0  0
 25 23  1  0  0  0  0
 26 25  1  0  0  0  0
 27 29  1  0  0  0  0
 28 27  1  0  0  0  0
 30 27  1  6  0  0  0
 30  9  1  0  0  0  0
 30  6  1  0  0  0  0
 31 32  1  0  0  0  0
 32 33  1  0  0  0  0
 32 34  2  0  0  0  0
 34 35  1  0  0  0  0
 36 34  1  0  0  0  0
 36 37  1  0  0  0  0
 38 36  2  0  0  0  0
 39 38  1  0  0  0  0
 40 31  2  0  0  0  0
 40 38  1  0  0  0  0
 41 40  1  0  0  0  0
 42 43  1  0  0  0  0
 43 45  2  0  0  0  0
 43 44  1  0  0  0  0
 45 46  1  0  0  0  0
 47 48  1  0  0  0  0
 47 45  1  0  0  0  0
 49 47  2  0  0  0  0
 50 49  1  0  0  0  0
 51 49  1  0  0  0  0
 51 42  2  0  0  0  0
 52 51  1  0  0  0  0
M  END
