6
q = 0.0, confidence = 0.788

 74 76  0  0  1  0  0  0  0  0999 V2000
    1.0609    3.2367   -0.1985 Si  0  0  0  0  0  0  0  0  0  0  0  0
   -2.9758   -1.0304    2.4908 S   0  0  0  0  0  0  0  0  0  0  0  0
    2.5694   -2.5599   -0.5204 Si  0  0  0  0  0  0  0  0  0  0  0  0
   -1.3828   -0.6266    2.1176 N   0  0  0  0  0  0  0  0  0  0  0  0
    2.1393    0.4203   -0.3357 C   0  0  0  0  0  0  0  0  0  0  0  0
    0.4232   -0.8233    0.6823 C   0  0  1  0  0  3  0  0  0  0  0  0
    0.9912    1.3498   -0.0027 C   0  0  1  0  0  3  0  0  0  0  0  0
    0.0676    0.5648    0.7635 C   0  0  2  0  0  3  0  0  0  0  0  0
    1.5926   -0.9778   -0.1341 C   0  0  2  0  0  3  0  0  0  0  0  0
   -1.0406    0.7607    1.7605 C   0  0  0  0  0  0  0  0  0  0  0  0
   -0.6695    1.3340    2.6406 H   0  0  0  0  0  0  0  0  0  0  0  0
   -1.9193    1.3079    1.3596 H   0  0  0  0  0  0  0  0  0  0  0  0
   -0.4325   -1.6347    1.6134 C   0  0  0  0  0  0  0  0  0  0  0  0
   -0.9548   -2.4942    1.1494 H   0  0  0  0  0  0  0  0  0  0  0  0
    0.1936   -2.0487    2.4371 H   0  0  0  0  0  0  0  0  0  0  0  0
    3.2431    0.7310   -0.7845 O   0  0  0  0  0  0  0  0  0  0  0  0
   -2.9590   -2.4890    2.7190 O   0  0  0  0  0  0  0  0  0  0  0  0
   -3.4223   -0.0510    3.4993 O   0  0  0  0  0  0  0  0  0  0  0  0
    4.0338   -2.6778    0.7369 C   0  0  0  0  0  0  0  0  0  0  0  0
    1.4175   -4.0461   -0.2881 C   0  0  0  0  0  0  0  0  0  0  0  0
    0.5089   -3.9705   -0.9164 H   0  0  0  0  0  0  0  0  0  0  0  0
    1.0984   -4.1639    0.7677 H   0  0  0  0  0  0  0  0  0  0  0  0
    1.9442   -4.9775   -0.5794 H   0  0  0  0  0  0  0  0  0  0  0  0
    3.1850   -2.4544   -2.2997 C   0  0  0  0  0  0  0  0  0  0  0  0
    3.9117   -3.2614   -2.5242 H   0  0  0  0  0  0  0  0  0  0  0  0
    3.6806   -1.4768   -2.4636 H   0  0  0  0  0  0  0  0  0  0  0  0
    2.3431   -2.5432   -3.0157 H   0  0  0  0  0  0  0  0  0  0  0  0
    5.1861   -1.7537    0.3005 C   0  0  0  0  0  0  0  0  0  0  0  0
    4.8552   -0.7041    0.1741 H   0  0  0  0  0  0  0  0  0  0  0  0
    5.6230   -2.0786   -0.6660 H   0  0  0  0  0  0  0  0  0  0  0  0
    6.0024   -1.7786    1.0567 H   0  0  0  0  0  0  0  0  0  0  0  0
    4.5337   -4.1352    0.7774 C   0  0  0  0  0  0  0  0  0  0  0  0
    5.4187   -4.2164    1.4472 H   0  0  0  0  0  0  0  0  0  0  0  0
    4.8504   -4.4959   -0.2242 H   0  0  0  0  0  0  0  0  0  0  0  0
    3.7645   -4.8354    1.1624 H   0  0  0  0  0  0  0  0  0  0  0  0
    3.5345   -2.2664    2.1346 C   0  0  0  0  0  0  0  0  0  0  0  0
    2.6750   -2.8840    2.4730 H   0  0  0  0  0  0  0  0  0  0  0  0
    3.2212   -1.2021    2.1631 H   0  0  0  0  0  0  0  0  0  0  0  0
    4.3425   -2.3926    2.8891 H   0  0  0  0  0  0  0  0  0  0  0  0
    2.3373    3.9278    1.0783 C   0  0  0  0  0  0  0  0  0  0  0  0
   -0.6576    3.9374    0.1872 C   0  0  0  0  0  0  0  0  0  0  0  0
   -0.6674    5.0302   -0.0017 H   0  0  0  0  0  0  0  0  0  0  0  0
   -0.9383    3.7838    1.2493 H   0  0  0  0  0  0  0  0  0  0  0  0
   -1.4443    3.4850   -0.4474 H   0  0  0  0  0  0  0  0  0  0  0  0
    1.5652    3.6281   -1.9731 C   0  0  0  0  0  0  0  0  0  0  0  0
    0.7550    3.3626   -2.6818 H   0  0  0  0  0  0  0  0  0  0  0  0
    2.4678    3.0432   -2.2405 H   0  0  0  0  0  0  0  0  0  0  0  0
    1.7926    4.7060   -2.1009 H   0  0  0  0  0  0  0  0  0  0  0  0
    2.1727    3.1765    2.4128 C   0  0  0  0  0  0  0  0  0  0  0  0
    2.4258    2.1006    2.3128 H   0  0  0  0  0  0  0  0  0  0  0  0
    1.1378    3.2476    2.8115 H   0  0  0  0  0  0  0  0  0  0  0  0
    2.8490    3.6040    3.1860 H   0  0  0  0  0  0  0  0  0  0  0  0
    3.7721    3.7443    0.5490 C   0  0  0  0  0  0  0  0  0  0  0  0
    4.5067    4.0868    1.3118 H   0  0  0  0  0  0  0  0  0  0  0  0
    3.9462    4.3442   -0.3678 H   0  0  0  0  0  0  0  0  0  0  0  0
    3.9925    2.6881    0.2973 H   0  0  0  0  0  0  0  0  0  0  0  0
    2.0589    5.4283    1.2935 C   0  0  0  0  0  0  0  0  0  0  0  0
    1.0646    5.6129    1.7491 H   0  0  0  0  0  0  0  0  0  0  0  0
    2.1090    6.0023    0.3439 H   0  0  0  0  0  0  0  0  0  0  0  0
    2.8213    5.8636    1.9773 H   0  0  0  0  0  0  0  0  0  0  0  0
   -5.2254   -0.1036   -1.4232 C   0  0  0  0  0  0  0  0  0  0  0  0
   -3.9023   -0.6961    0.9889 C   0  0  0  0  0  0  0  0  0  0  0  0
   -3.9182   -1.6490   -0.0419 C   0  0  0  0  0  0  0  0  0  0  0  0
   -3.4329   -2.6244    0.1031 H   0  0  0  0  0  0  0  0  0  0  0  0
   -4.5679    0.5328    0.8489 C   0  0  0  0  0  0  0  0  0  0  0  0
   -4.5777    1.2384    1.6921 H   0  0  0  0  0  0  0  0  0  0  0  0
   -5.2248    0.8171   -0.3542 C   0  0  0  0  0  0  0  0  0  0  0  0
   -5.7453    1.7805   -0.4705 H   0  0  0  0  0  0  0  0  0  0  0  0
   -5.8721    0.2473   -2.7367 C   0  0  0  0  0  0  0  0  0  0  0  0
   -6.8034    0.8299   -2.5924 H   0  0  0  0  0  0  0  0  0  0  0  0
   -6.1110   -0.6541   -3.3332 H   0  0  0  0  0  0  0  0  0  0  0  0
   -5.1859    0.8770   -3.3434 H   0  0  0  0  0  0  0  0  0  0  0  0
   -4.5735   -1.3420   -1.2406 C   0  0  0  0  0  0  0  0  0  0  0  0
   -4.5801   -2.0833   -2.0547 H   0  0  0  0  0  0  0  0  0  0  0  0
  1 41  1  0  0  0  0
  1 40  1  0  0  0  0
  2 17  2  0  0  0  0
  2 18  2  0  0  0  0
  3 20  1  0  0  0  0
  3 19  1  0  0  0  0
  4  2  1  0  0  0  0
  5  9  1  0  0  0  0
  5  7  1  0  0  0  0
  6  8  1  0  0  0  0
  6 13  1  1  0  0  0
  7  1  1  1  0  0  0
  7  8  1  0  0  0  0
  8 10  1  1  0  0  0
  9  3  1  1  0  0  0
  9  6  1  0  0  0  0
 10  4  1  0  0  0  0
 10 11  1  0  0  0  0
 12 10  1  0  0  0  0
 13  4  1  0  0  0  0
 13 15  1  0  0  0  0
 14 13  1  0  0  0  0
 16  5  2  0  0  0  0
 19 32  1  0  0  0  0
 19 36  1  0  0  0  0
 20 22  1  0  0  0  0
 21 20  1  0  0  0  0
 23 20  1  0  0  0  0
 24  3  1  0  0  0  0
 25 24  1  0  0  0  0
 26 24  1  0  0  0  0
 27 24  1  0  0  0  0
 28 19  1  0  0  0  0
 28 31  1  0  0  0  0
 29 28  1  0  0  0  0
 30 28  1  0  0  0  0
 32 35  1  0  0  0  0
 32 33  1  0  0  0  0
 34 32  1  0  0  0  0
 36 38  1  0  0  0  0
 36 37  1  0  0  0  0
 36 39  1  0  0  0  0
 40 57  1  0  0  0  0
 40 49  1  0  0  0  0
 41 43  1  0  0  0  0
 42 41  1  0  0  0  0
 44 41  1  0  0  0  0
 45  1  1  0  0  0  0
 46 45  1  0  0  0  0
 47 45  1  0  0  0  0
 48 45  1  0  0  0  0
 49 51  1  0  0  0  0
 49 52  1  0  0  0  0
 50 49  1  0  0  0  0
 53 40  1  0  0  0  0
 53 54  1  0  0  0  0
 55 53  1  0  0  0  0
 56 53  1  0  0  0  0
 57 58  1  0  0  0  0
 57 60  1  0  0  0  0
 59 57  1  0  0  0  0
 61 73  2  0  0  0  0
 61 67  1  0  0  0  0
 62  2  1  0  0  0  0
 63 64  1  0  0  0  0
 63 62  2  0  0  0  0
 65 62  1  0  0  0  0
 65 66  1  0  0  0  0
 67 65  2  0  0  0  0
 68 67  1  0  0  0  0
 69 70  1  0  0  0  0
 69 61  1  0  0  0  0
 71 69  1  0  0  0  0
 72 69  1  0  0  0  0
 73 63  1  0  0  0  0
 74 73  1  0  0  0  0
M  END
