32
q = 0.0, confidence = 0.94

 59 60  0  0  1  0  0  0  0  0999 V2000
   -2.4202    2.9743   -0.4454 Si  0  0  0  0  0  0  0  0  0  0  0  0
   -2.1910   -2.9154   -1.0634 Si  0  0  0  0  0  0  0  0  0  0  0  0
    4.1329    1.1578   -1.0635 O   0  0  0  0  0  0  0  0  0  0  0  0
    3.3451   -0.2338   -2.6796 O   0  0  0  0  0  0  0  0  0  0  0  0
    2.4550    0.9012    1.6398 O   0  0  0  0  0  0  0  0  0  0  0  0
    3.1597   -1.1455    0.9527 O   0  0  0  0  0  0  0  0  0  0  0  0
   -3.6865    0.0393   -1.2939 O   0  0  0  0  0  0  0  0  0  0  0  0
   -0.2440   -0.6126   -0.8078 C   0  0  1  0  0  3  0  0  0  0  0  0
    1.1586   -1.0751   -1.0611 C   0  0  0  0  0  0  0  0  0  0  0  0
    1.2973   -1.2619   -2.1475 H   0  0  0  0  0  0  0  0  0  0  0  0
    1.4660   -1.9909   -0.5261 H   0  0  0  0  0  0  0  0  0  0  0  0
    2.0212    0.1612   -0.6616 C   0  0  0  0  0  0  0  0  0  0  0  0
    3.2305    0.3065   -1.5970 C   0  0  0  0  0  0  0  0  0  0  0  0
    5.3405    1.3945   -1.8289 C   0  0  0  0  0  0  0  0  0  0  0  0
    5.0779    1.4159   -2.9056 H   0  0  0  0  0  0  0  0  0  0  0  0
    5.6755    2.4009   -1.5121 H   0  0  0  0  0  0  0  0  0  0  0  0
    6.3873    0.3329   -1.5391 C   0  0  0  0  0  0  0  0  0  0  0  0
    6.6131    0.2835   -0.4555 H   0  0  0  0  0  0  0  0  0  0  0  0
    7.3261    0.5700   -2.0787 H   0  0  0  0  0  0  0  0  0  0  0  0
    6.0393   -0.6626   -1.8775 H   0  0  0  0  0  0  0  0  0  0  0  0
    2.5491    0.0469    0.7805 C   0  0  0  0  0  0  0  0  0  0  0  0
    3.7540   -1.3881    2.2516 C   0  0  0  0  0  0  0  0  0  0  0  0
    3.0988   -0.9423    3.0260 H   0  0  0  0  0  0  0  0  0  0  0  0
    3.7442   -2.4895    2.3593 H   0  0  0  0  0  0  0  0  0  0  0  0
    5.1602   -0.8190    2.3225 C   0  0  0  0  0  0  0  0  0  0  0  0
    5.8012   -1.2420    1.5236 H   0  0  0  0  0  0  0  0  0  0  0  0
    5.6191   -1.0650    3.3012 H   0  0  0  0  0  0  0  0  0  0  0  0
    5.1399    0.2834    2.2189 H   0  0  0  0  0  0  0  0  0  0  0  0
    1.0836    1.4120   -0.7750 C   0  0  0  0  0  0  0  0  0  0  0  0
    1.3455    2.1641   -0.0086 H   0  0  0  0  0  0  0  0  0  0  0  0
    1.1817    1.8855   -1.7753 H   0  0  0  0  0  0  0  0  0  0  0  0
   -0.2907    0.8160   -0.6515 C   0  0  1  0  0  3  0  0  0  0  0  0
   -1.6607    1.2440   -0.5751 C   0  0  2  0  0  3  0  0  0  0  0  0
   -1.0768    4.2215    0.0264 C   0  0  0  0  0  0  0  0  0  0  0  0
   -0.2704    4.2566   -0.7346 H   0  0  0  0  0  0  0  0  0  0  0  0
   -0.6175    3.9841    1.0067 H   0  0  0  0  0  0  0  0  0  0  0  0
   -1.5128    5.2396    0.0967 H   0  0  0  0  0  0  0  0  0  0  0  0
   -3.7904    2.9255    0.8508 C   0  0  0  0  0  0  0  0  0  0  0  0
   -4.3626    3.8758    0.8621 H   0  0  0  0  0  0  0  0  0  0  0  0
   -3.3798    2.7591    1.8671 H   0  0  0  0  0  0  0  0  0  0  0  0
   -4.4909    2.0989    0.6162 H   0  0  0  0  0  0  0  0  0  0  0  0
   -3.1398    3.3742   -2.1464 C   0  0  0  0  0  0  0  0  0  0  0  0
   -3.6747    4.3462   -2.1366 H   0  0  0  0  0  0  0  0  0  0  0  0
   -3.8550    2.5768   -2.4320 H   0  0  0  0  0  0  0  0  0  0  0  0
   -2.3475    3.4248   -2.9210 H   0  0  0  0  0  0  0  0  0  0  0  0
   -2.4930    0.0511   -0.9936 C   0  0  0  0  0  0  0  0  0  0  0  0
   -1.5765   -1.1420   -0.8207 C   0  0  1  0  0  3  0  0  0  0  0  0
   -3.6817   -3.2037    0.0547 C   0  0  0  0  0  0  0  0  0  0  0  0
   -4.1745   -4.1679   -0.1864 H   0  0  0  0  0  0  0  0  0  0  0  0
   -4.4157   -2.3865   -0.0949 H   0  0  0  0  0  0  0  0  0  0  0  0
   -3.3930   -3.2229    1.1246 H   0  0  0  0  0  0  0  0  0  0  0  0
   -0.7931   -4.1270   -0.6614 C   0  0  0  0  0  0  0  0  0  0  0  0
   -0.4297   -4.0058    0.3791 H   0  0  0  0  0  0  0  0  0  0  0  0
    0.0696   -3.9966   -1.3463 H   0  0  0  0  0  0  0  0  0  0  0  0
   -1.1521   -5.1712   -0.7725 H   0  0  0  0  0  0  0  0  0  0  0  0
   -2.7010   -3.0578   -2.8784 C   0  0  0  0  0  0  0  0  0  0  0  0
   -3.1281   -4.0582   -3.0974 H   0  0  0  0  0  0  0  0  0  0  0  0
   -1.8388   -2.8954   -3.5569 H   0  0  0  0  0  0  0  0  0  0  0  0
   -3.4690   -2.2902   -3.1028 H   0  0  0  0  0  0  0  0  0  0  0  0
  1 34  1  0  0  0  0
  1 38  1  0  0  0  0
  2 52  1  0  0  0  0
  2 48  1  0  0  0  0
  4 13  2  0  0  0  0
  6 22  1  0  0  0  0
  7 46  2  0  0  0  0
  8  9  1  6  0  0  0
  8 32  1  0  0  0  0
  9 12  1  0  0  0  0
  9 11  1  0  0  0  0
 10  9  1  0  0  0  0
 12 21  1  0  0  0  0
 13  3  1  0  0  0  0
 13 12  1  0  0  0  0
 14 17  1  0  0  0  0
 14 16  1  0  0  0  0
 14  3  1  0  0  0  0
 15 14  1  0  0  0  0
 17 18  1  0  0  0  0
 19 17  1  0  0  0  0
 20 17  1  0  0  0  0
 21  6  1  0  0  0  0
 21  5  2  0  0  0  0
 22 25  1  0  0  0  0
 22 24  1  0  0  0  0
 22 23  1  0  0  0  0
 25 27  1  0  0  0  0
 26 25  1  0  0  0  0
 28 25  1  0  0  0  0
 29 12  1  0  0  0  0
 29 30  1  0  0  0  0
 31 29  1  0  0  0  0
 32 29  1  6  0  0  0
 32 33  1  0  0  0  0
 33  1  1  6  0  0  0
 34 37  1  0  0  0  0
 34 36  1  0  0  0  0
 35 34  1  0  0  0  0
 38 39  1  0  0  0  0
 38 40  1  0  0  0  0
 41 38  1  0  0  0  0
 42 43  1  0  0  0  0
 42  1  1  0  0  0  0
 44 42  1  0  0  0  0
 45 42  1  0  0  0  0
 46 47  1  0  0  0  0
 46 33  1  0  0  0  0
 47  2  1  6  0  0  0
 47  8  1  0  0  0  0
 48 51  1  0  0  0  0
 49 48  1  0  0  0  0
 50 48  1  0  0  0  0
 52 53  1  0  0  0  0
 54 52  1  0  0  0  0
 55 52  1  0  0  0  0
 56  2  1  0  0  0  0
 57 56  1  0  0  0  0
 58 56  1  0  0  0  0
 59 56  1  0  0  0  0
M  END
