2
q = -1.0, confidence = 0.0

 30 32  0  0  0  0  0  0  0  0999 V2000
    5.2352   -0.0000   -0.0000 N   0  0  0  0  0  0  0  0  0  0  0  0
   -0.2744   -0.0000    0.0001 C   0  0  0  0  0  3  0  0  0  0  0  0
    4.6423    3.5845   -0.0007 N   0  0  0  0  0  0  0  0  0  0  0  0
    4.6422   -3.5845    0.0008 N   0  0  0  0  0  0  0  0  0  0  0  0
    4.5431    1.1563   -0.0002 C   0  0  0  0  0  0  0  0  0  0  0  0
    2.3950    0.0000    0.0001 C   0  0  0  0  0  0  0  0  0  0  0  0
    4.5430   -1.1563    0.0002 C   0  0  0  0  0  0  0  0  0  0  0  0
    5.3323    2.4239   -0.0005 C   0  0  0  0  0  0  0  0  0  0  0  0
    5.3322   -2.4239    0.0005 C   0  0  0  0  0  0  0  0  0  0  0  0
    0.9725    0.0000    0.0001 C   0  0  0  0  0  0  0  0  0  0  0  0
    3.1380    1.2064   -0.0002 C   0  0  0  0  0  0  0  0  0  0  0  0
    2.6433    2.1862   -0.0004 H   0  0  0  0  0  0  0  0  0  0  0  0
    6.7439   -2.3879    0.0004 C   0  0  0  0  0  0  0  0  0  0  0  0
    7.2439   -1.4103    0.0001 H   0  0  0  0  0  0  0  0  0  0  0  0
    5.3296    4.7326   -0.0010 C   0  0  0  0  0  0  0  0  0  0  0  0
    4.7302    5.6615   -0.0011 H   0  0  0  0  0  0  0  0  0  0  0  0
    7.4504    3.5948   -0.0008 C   0  0  0  0  0  0  0  0  0  0  0  0
    8.5516    3.5965   -0.0008 H   0  0  0  0  0  0  0  0  0  0  0  0
    3.1380   -1.2064    0.0003 C   0  0  0  0  0  0  0  0  0  0  0  0
    2.6432   -2.1862    0.0005 H   0  0  0  0  0  0  0  0  0  0  0  0
    5.3295   -4.7327    0.0009 C   0  0  0  0  0  0  0  0  0  0  0  0
    4.7301   -5.6615    0.0012 H   0  0  0  0  0  0  0  0  0  0  0  0
    6.7439    2.3879   -0.0005 C   0  0  0  0  0  0  0  0  0  0  0  0
    7.2440    1.4102   -0.0003 H   0  0  0  0  0  0  0  0  0  0  0  0
    6.7330   -4.8011    0.0009 C   0  0  0  0  0  0  0  0  0  0  0  0
    7.2448   -5.7750    0.0010 H   0  0  0  0  0  0  0  0  0  0  0  0
    6.7330    4.8010   -0.0010 C   0  0  0  0  0  0  0  0  0  0  0  0
    7.2449    5.7749   -0.0012 H   0  0  0  0  0  0  0  0  0  0  0  0
    7.4504   -3.5949    0.0006 C   0  0  0  0  0  0  0  0  0  0  0  0
    8.5515   -3.5966    0.0005 H   0  0  0  0  0  0  0  0  0  0  0  0
  1  7  1  0  0  0  0
  2 10  3  0  0  0  0
  3  8  1  0  0  0  0
  4 21  1  0  0  0  0
  5 11  1  0  0  0  0
  5  1  2  0  0  0  0
  6 10  1  0  0  0  0
  6 19  1  0  0  0  0
  7 19  2  0  0  0  0
  7  9  1  0  0  0  0
  8  5  1  0  0  0  0
  9  4  2  0  0  0  0
 11  6  2  0  0  0  0
 12 11  1  0  0  0  0
 13  9  1  0  0  0  0
 13 29  2  0  0  0  0
 14 13  1  0  0  0  0
 15  3  2  0  0  0  0
 16 15  1  0  0  0  0
 17 23  1  0  0  0  0
 18 17  1  0  0  0  0
 19 20  1  0  0  0  0
 21 22  1  0  0  0  0
 23  8  2  0  0  0  0
 23 24  1  0  0  0  0
 25 21  2  0  0  0  0
 25 26  1  0  0  0  0
 27 15  1  0  0  0  0
 27 17  2  0  0  0  0
 28 27  1  0  0  0  0
 29 25  1  0  0  0  0
 30 29  1  0  0  0  0
M  END
