7
q = 0.0, confidence = 0.994

 33 34  0  0  1  0  0  0  0  0999 V2000
   -1.5844    1.8018    0.0544 C   0  0  2  0  0  3  0  0  0  0  0  0
   -1.7007    2.6780    1.2729 C   0  0  0  0  0  0  0  0  0  0  0  0
   -0.2774    1.5224   -0.5148 C   0  0  0  0  0  0  0  0  0  0  0  0
   -0.1977    0.6132   -1.6096 C   0  0  0  0  0  0  0  0  0  0  0  0
   -1.3777    0.1201   -2.2490 C   0  0  0  0  0  0  0  0  0  0  0  0
   -2.6521    0.4878   -1.7663 C   0  0  0  0  0  0  0  0  0  0  0  0
   -2.7452    1.3257   -0.6135 C   0  0  0  0  0  3  0  0  0  0  0  0
    0.8372    2.1096    0.0308 N   0  0  0  0  0  0  0  0  0  0  0  0
    2.2090    1.8190   -0.3716 C   0  0  1  0  0  0  0  0  0  0  0  0
    3.1447    2.8033    0.3396 C   0  0  0  0  0  0  0  0  0  0  0  0
    2.6335    0.3718   -0.1269 C   0  0  0  0  0  0  0  0  0  0  0  0
    2.2976   -0.2815    1.0721 C   0  0  0  0  0  0  0  0  0  0  0  0
    2.6834   -1.6110    1.2911 C   0  0  0  0  0  0  0  0  0  0  0  0
    3.4174   -2.3024    0.3147 C   0  0  0  0  0  0  0  0  0  0  0  0
    3.7670   -1.6555   -0.8803 C   0  0  0  0  0  0  0  0  0  0  0  0
    3.3735   -0.3260   -1.0990 C   0  0  0  0  0  0  0  0  0  0  0  0
   -1.0643    2.3149    2.1067 H   0  0  0  0  0  0  0  0  0  0  0  0
   -2.7412    2.6934    1.6464 H   0  0  0  0  0  0  0  0  0  0  0  0
   -1.4029    3.7236    1.0417 H   0  0  0  0  0  0  0  0  0  0  0  0
    0.7827    0.2752   -1.9649 H   0  0  0  0  0  0  0  0  0  0  0  0
   -1.2818   -0.5795   -3.0901 H   0  0  0  0  0  0  0  0  0  0  0  0
   -3.5631    0.0863   -2.2299 H   0  0  0  0  0  0  0  0  0  0  0  0
   -3.7311    1.5661   -0.1919 H   0  0  0  0  0  0  0  0  0  0  0  0
    0.7174    2.5413    0.9468 H   0  0  0  0  0  0  0  0  0  0  0  0
    2.2809    2.0065   -1.4672 H   0  0  0  0  0  0  0  0  0  0  0  0
    2.8570    3.8521    0.1233 H   0  0  0  0  0  0  0  0  0  0  0  0
    3.1152    2.6417    1.4375 H   0  0  0  0  0  0  0  0  0  0  0  0
    4.1887    2.6449    0.0106 H   0  0  0  0  0  0  0  0  0  0  0  0
    1.7026    0.2404    1.8357 H   0  0  0  0  0  0  0  0  0  0  0  0
    2.3877   -2.1143    2.2237 H   0  0  0  0  0  0  0  0  0  0  0  0
    3.7053   -3.3514    0.4798 H   0  0  0  0  0  0  0  0  0  0  0  0
    4.3375   -2.1926   -1.6532 H   0  0  0  0  0  0  0  0  0  0  0  0
    3.6348    0.1760   -2.0458 H   0  0  0  0  0  0  0  0  0  0  0  0
  1  2  1  6  0  0  0
  2 18  1  0  0  0  0
  2 17  1  0  0  0  0
  3  8  1  0  0  0  0
  3  1  1  0  0  0  0
  4  3  2  0  0  0  0
  5  6  2  0  0  0  0
  5  4  1  0  0  0  0
  6  7  1  0  0  0  0
  7 23  1  0  0  0  0
  7  1  1  0  0  0  0
  8 24  1  0  0  0  0
  9 25  1  6  0  0  0
  9 11  1  0  0  0  0
  9  8  1  0  0  0  0
  9 10  1  0  0  0  0
 10 27  1  0  0  0  0
 11 12  1  0  0  0  0
 12 13  2  0  0  0  0
 12 29  1  0  0  0  0
 13 30  1  0  0  0  0
 14 31  1  0  0  0  0
 14 13  1  0  0  0  0
 15 14  2  0  0  0  0
 16 15  1  0  0  0  0
 16 11  2  0  0  0  0
 19  2  1  0  0  0  0
 20  4  1  0  0  0  0
 21  5  1  0  0  0  0
 22  6  1  0  0  0  0
 26 10  1  0  0  0  0
 28 10  1  0  0  0  0
 32 15  1  0  0  0  0
 33 16  1  0  0  0  0
M  END
