1
q = 0.0, confidence = 0.998

 28 30  0  0  1  0  0  0  0  0999 V2000
   -0.2322   -0.0819   -0.7427 C   0  0  0  0  0  3  0  0  0  0  0  0
   -0.1192    0.2275    0.6136 C   0  0  0  0  0  3  0  0  0  0  0  0
    0.2543   -1.0011    1.4298 C   0  0  0  0  0  0  0  0  0  0  0  0
    0.3526   -2.1241    0.3966 C   0  0  1  0  0  0  0  0  0  0  0  0
    0.0423   -1.5322   -0.9809 C   0  0  2  0  0  0  0  0  0  0  0  0
    1.4487   -2.0176   -0.6482 C   0  0  1  0  0  0  0  0  0  0  0  0
    2.6265   -1.1056   -0.4978 C   0  0  0  0  0  0  0  0  0  0  0  0
    2.9017   -0.0833   -1.4331 C   0  0  0  0  0  0  0  0  0  0  0  0
    4.0242    0.7364   -1.3043 C   0  0  0  0  0  0  0  0  0  0  0  0
    4.9166    0.5561   -0.2249 C   0  0  0  0  0  0  0  0  0  0  0  0
    4.6645   -0.4643    0.7152 C   0  0  0  0  0  0  0  0  0  0  0  0
    3.5291   -1.2775    0.5684 C   0  0  0  0  0  0  0  0  0  0  0  0
    5.9795    1.4047   -0.1792 O   0  0  0  0  0  0  0  0  0  0  0  0
    6.9077    1.2634    0.8787 C   0  0  0  0  0  0  0  0  0  0  0  0
   -0.1504    0.6750   -1.5355 H   0  0  0  0  0  0  0  0  0  0  0  0
    0.0880    1.2454    0.9746 H   0  0  0  0  0  0  0  0  0  0  0  0
   -0.4663   -1.2309    2.2401 H   0  0  0  0  0  0  0  0  0  0  0  0
    1.2325   -0.8131    1.9258 H   0  0  0  0  0  0  0  0  0  0  0  0
   -0.0190   -3.1237    0.6636 H   0  0  0  0  0  0  0  0  0  0  0  0
   -0.5306   -2.0833   -1.7423 H   0  0  0  0  0  0  0  0  0  0  0  0
    1.6876   -2.9860   -1.1239 H   0  0  0  0  0  0  0  0  0  0  0  0
    2.2213    0.0633   -2.2857 H   0  0  0  0  0  0  0  0  0  0  0  0
    4.2409    1.5322   -2.0316 H   0  0  0  0  0  0  0  0  0  0  0  0
    5.3428   -0.6341    1.5620 H   0  0  0  0  0  0  0  0  0  0  0  0
    3.3454   -2.0762    1.3046 H   0  0  0  0  0  0  0  0  0  0  0  0
    7.6794    2.0403    0.7249 H   0  0  0  0  0  0  0  0  0  0  0  0
    7.3966    0.2630    0.8724 H   0  0  0  0  0  0  0  0  0  0  0  0
    6.4320    1.4195    1.8733 H   0  0  0  0  0  0  0  0  0  0  0  0
  1  2  1  0  0  0  0
  2 16  1  0  0  0  0
  2  3  1  0  0  0  0
  3 18  1  0  0  0  0
  3 17  1  0  0  0  0
  4 19  1  1  0  0  0
  4  3  1  0  0  0  0
  5 20  1  6  0  0  0
  5  1  1  0  0  0  0
  5  6  1  0  0  0  0
  5  4  1  0  0  0  0
  6 21  1  6  0  0  0
  6  7  1  0  0  0  0
  6  4  1  0  0  0  0
  7 12  1  0  0  0  0
  8  9  1  0  0  0  0
  8  7  2  0  0  0  0
  9 10  2  0  0  0  0
 10 13  1  0  0  0  0
 10 11  1  0  0  0  0
 11 24  1  0  0  0  0
 12 11  2  0  0  0  0
 12 25  1  0  0  0  0
 13 14  1  0  0  0  0
 14 28  1  0  0  0  0
 15  1  1  0  0  0  0
 22  8  1  0  0  0  0
 23  9  1  0  0  0  0
 26 14  1  0  0  0  0
 27 14  1  0  0  0  0
M  END
