7
q = 0.0, confidence = 0.998

 52 55  0  0  1  0  0  0  0  0999 V2000
    1.9899    1.9972   -0.7097 N   0  0  0  0  0  0  0  0  0  0  0  0
    0.4304   -2.2785    0.5346 O   0  0  0  0  0  0  0  0  0  0  0  0
   -3.8164   -1.4029   -2.0582 O   0  0  0  0  0  0  0  0  0  0  0  0
   -4.3619    1.1459   -1.7448 O   0  0  0  0  0  0  0  0  0  0  0  0
    7.0428   -0.9036    0.4125 O   0  0  0  0  0  0  0  0  0  0  0  0
    5.8223    1.0177    0.8269 O   0  0  0  0  0  0  0  0  0  0  0  0
   -0.9909    1.0544   -0.0719 C   0  0  2  0  0  3  0  0  0  0  0  0
   -2.2378    1.5600   -0.5855 C   0  0  0  0  0  0  0  0  0  0  0  0
   -3.1726    0.7330   -1.2560 C   0  0  0  0  0  0  0  0  0  0  0  0
   -2.8719   -0.6700   -1.4317 C   0  0  0  0  0  0  0  0  0  0  0  0
   -1.6486   -1.1724   -0.9330 C   0  0  0  0  0  0  0  0  0  0  0  0
   -0.6976   -0.3283   -0.2669 C   0  0  1  0  0  3  0  0  0  0  0  0
    0.6321   -0.9396    0.1117 C   0  0  2  0  0  0  0  0  0  0  0  0
    1.5917   -0.8827   -1.1096 C   0  0  0  0  0  0  0  0  0  0  0  0
    3.0503   -0.9150   -0.7234 C   0  0  0  0  0  0  0  0  0  0  0  0
    3.8070   -2.0792   -0.9584 C   0  0  0  0  0  0  0  0  0  0  0  0
    5.1760   -2.1919   -0.6209 C   0  0  0  0  0  0  0  0  0  0  0  0
    5.7583   -1.0744   -0.0408 C   0  0  0  0  0  0  0  0  0  0  0  0
    5.0154    0.0932    0.2034 C   0  0  0  0  0  0  0  0  0  0  0  0
    3.6626    0.2267   -0.1056 C   0  0  0  0  0  0  0  0  0  0  0  0
    2.9392    1.5063    0.2810 C   0  0  0  0  0  0  0  0  0  0  0  0
    0.9163    2.8081   -0.1539 C   0  0  0  0  0  0  0  0  0  0  0  0
   -0.1020    2.0197    0.6895 C   0  0  0  0  0  0  0  0  0  0  0  0
   -4.8921    2.3653   -1.2463 C   0  0  0  0  0  0  0  0  0  0  0  0
   -3.7613   -2.8138   -1.8960 C   0  0  0  0  0  0  0  0  0  0  0  0
    2.6548    2.5999   -1.8487 C   0  0  0  0  0  0  0  0  0  0  0  0
    7.1475    0.4825    0.7481 C   0  0  0  0  0  0  0  0  0  0  0  0
   -2.4878    2.6126   -0.4010 H   0  0  0  0  0  0  0  0  0  0  0  0
   -1.4093   -2.2407   -0.9944 H   0  0  0  0  0  0  0  0  0  0  0  0
    1.0662   -0.3407    0.9414 H   0  0  0  0  0  0  0  0  0  0  0  0
    1.3424   -1.7480   -1.7574 H   0  0  0  0  0  0  0  0  0  0  0  0
    1.3829    0.0479   -1.6665 H   0  0  0  0  0  0  0  0  0  0  0  0
    3.3116   -2.9320   -1.4479 H   0  0  0  0  0  0  0  0  0  0  0  0
    5.7503   -3.1086   -0.8101 H   0  0  0  0  0  0  0  0  0  0  0  0
    3.7054    2.2829    0.5360 H   0  0  0  0  0  0  0  0  0  0  0  0
    2.3916    1.3208    1.2289 H   0  0  0  0  0  0  0  0  0  0  0  0
    1.3093    3.6565    0.4700 H   0  0  0  0  0  0  0  0  0  0  0  0
    0.3811    3.2782   -1.0058 H   0  0  0  0  0  0  0  0  0  0  0  0
    0.4090    1.4846    1.5143 H   0  0  0  0  0  0  0  0  0  0  0  0
   -0.7557    2.7573    1.1975 H   0  0  0  0  0  0  0  0  0  0  0  0
   -5.9246    2.4366   -1.6338 H   0  0  0  0  0  0  0  0  0  0  0  0
   -4.3134    3.2468   -1.6013 H   0  0  0  0  0  0  0  0  0  0  0  0
   -4.9112    2.3584   -0.1343 H   0  0  0  0  0  0  0  0  0  0  0  0
   -4.6875   -3.2139   -2.3467 H   0  0  0  0  0  0  0  0  0  0  0  0
   -2.8844   -3.2575   -2.4164 H   0  0  0  0  0  0  0  0  0  0  0  0
   -3.7235   -3.0821   -0.8175 H   0  0  0  0  0  0  0  0  0  0  0  0
    1.9167    2.8404   -2.6405 H   0  0  0  0  0  0  0  0  0  0  0  0
    3.3892    1.8852   -2.2731 H   0  0  0  0  0  0  0  0  0  0  0  0
    3.2095    3.5414   -1.5914 H   0  0  0  0  0  0  0  0  0  0  0  0
    7.7216    1.0193   -0.0479 H   0  0  0  0  0  0  0  0  0  0  0  0
    7.6519    0.5926    1.7310 H   0  0  0  0  0  0  0  0  0  0  0  0
    1.3167   -2.6624    0.6750 H   0  0  0  0  0  0  0  0  0  0  0  0
  1 22  1  0  0  0  0
  1 21  1  0  0  0  0
  2 52  1  0  0  0  0
  3 25  1  0  0  0  0
  3 10  1  0  0  0  0
  4  9  1  0  0  0  0
  4 24  1  0  0  0  0
  5 27  1  0  0  0  0
  7  8  1  1  0  0  0
  7 23  1  0  0  0  0
  8 28  1  0  0  0  0
  9  8  2  0  0  0  0
 10  9  1  0  0  0  0
 10 11  2  0  0  0  0
 12 11  1  6  0  0  0
 12  7  1  0  0  0  0
 12 13  1  0  0  0  0
 13  2  1  0  0  0  0
 13 30  1  1  0  0  0
 14 15  1  0  0  0  0
 14 13  1  0  0  0  0
 15 20  1  0  0  0  0
 16 15  2  0  0  0  0
 16 17  1  0  0  0  0
 17 18  2  0  0  0  0
 18 19  1  0  0  0  0
 18  5  1  0  0  0  0
 19  6  1  0  0  0  0
 20 19  2  0  0  0  0
 20 21  1  0  0  0  0
 21 35  1  0  0  0  0
 21 36  1  0  0  0  0
 22 37  1  0  0  0  0
 22 23  1  0  0  0  0
 23 40  1  0  0  0  0
 23 39  1  0  0  0  0
 24 43  1  0  0  0  0
 25 46  1  0  0  0  0
 26 49  1  0  0  0  0
 26  1  1  0  0  0  0
 27  6  1  0  0  0  0
 27 51  1  0  0  0  0
 29 11  1  0  0  0  0
 31 14  1  0  0  0  0
 32 14  1  0  0  0  0
 33 16  1  0  0  0  0
 34 17  1  0  0  0  0
 38 22  1  0  0  0  0
 41 24  1  0  0  0  0
 42 24  1  0  0  0  0
 44 25  1  0  0  0  0
 45 25  1  0  0  0  0
 47 26  1  0  0  0  0
 48 26  1  0  0  0  0
 50 27  1  0  0  0  0
M  END
