2
q = 0.0, confidence = 0.988

 31 32  0  0  0  0  0  0  0  0999 V2000
   -0.6792   -1.1693   -1.0939 N   0  0  0  0  0  0  0  0  0  0  0  0
    0.3114   -0.3936   -0.5661 C   0  0  0  0  0  2  0  0  0  0  0  0
    1.3557   -1.2869   -0.3669 N   0  0  0  0  0  0  0  0  0  0  0  0
    0.9958   -2.5829   -0.7581 C   0  0  0  0  0  0  0  0  0  0  0  0
   -0.2886   -2.5008   -1.2078 C   0  0  0  0  0  0  0  0  0  0  0  0
   -2.0256   -0.6804   -1.4173 C   0  0  0  0  0  0  0  0  0  0  0  0
   -3.0502   -1.1035   -0.3869 C   0  0  0  0  0  0  0  0  0  0  0  0
   -4.0372   -2.0557   -0.7004 C   0  0  0  0  0  0  0  0  0  0  0  0
   -4.9732   -2.4558    0.2669 C   0  0  0  0  0  0  0  0  0  0  0  0
   -4.9246   -1.9067    1.5568 C   0  0  0  0  0  0  0  0  0  0  0  0
   -3.9415   -0.9543    1.8760 C   0  0  0  0  0  0  0  0  0  0  0  0
   -3.0088   -0.5531    0.9104 C   0  0  0  0  0  0  0  0  0  0  0  0
    2.6306   -0.9145    0.1689 C   0  0  0  0  0  0  0  0  0  0  0  0
    2.9317    0.2031    0.5059 O   0  0  0  0  0  0  0  0  0  0  0  0
    3.4109   -2.0078    0.2279 O   0  0  0  0  0  0  0  0  0  0  0  0
    4.7440   -1.7852    0.7574 C   0  0  0  0  0  0  0  0  0  0  0  0
    5.4710   -3.1118    0.7527 C   0  0  0  0  0  0  0  0  0  0  0  0
    1.6903   -3.4210   -0.6790 H   0  0  0  0  0  0  0  0  0  0  0  0
   -0.9622   -3.2729   -1.5914 H   0  0  0  0  0  0  0  0  0  0  0  0
   -2.2954   -1.0590   -2.4230 H   0  0  0  0  0  0  0  0  0  0  0  0
   -1.9380    0.4236   -1.4685 H   0  0  0  0  0  0  0  0  0  0  0  0
   -4.0800   -2.4822   -1.7159 H   0  0  0  0  0  0  0  0  0  0  0  0
   -5.7442   -3.1979    0.0100 H   0  0  0  0  0  0  0  0  0  0  0  0
   -5.6579   -2.2179    2.3162 H   0  0  0  0  0  0  0  0  0  0  0  0
   -3.9053   -0.5148    2.8842 H   0  0  0  0  0  0  0  0  0  0  0  0
   -2.2390    0.1977    1.1546 H   0  0  0  0  0  0  0  0  0  0  0  0
    4.6481   -1.3560    1.7764 H   0  0  0  0  0  0  0  0  0  0  0  0
    5.2471   -1.0220    0.1282 H   0  0  0  0  0  0  0  0  0  0  0  0
    6.4950   -2.9758    1.1524 H   0  0  0  0  0  0  0  0  0  0  0  0
    4.9501   -3.8565    1.3865 H   0  0  0  0  0  0  0  0  0  0  0  0
    5.5536   -3.5199   -0.2740 H   0  0  0  0  0  0  0  0  0  0  0  0
  1  2  1  0  0  0  0
  2  3  1  0  0  0  0
  3 13  1  0  0  0  0
  4 18  1  0  0  0  0
  4  3  1  0  0  0  0
  5  1  1  0  0  0  0
  5  4  2  0  0  0  0
  6  1  1  0  0  0  0
  6  7  1  0  0  0  0
  7 12  1  0  0  0  0
  8  7  2  0  0  0  0
  8  9  1  0  0  0  0
  9 10  2  0  0  0  0
 10 11  1  0  0  0  0
 10 24  1  0  0  0  0
 11 25  1  0  0  0  0
 12 26  1  0  0  0  0
 12 11  2  0  0  0  0
 13 15  1  0  0  0  0
 13 14  2  0  0  0  0
 15 16  1  0  0  0  0
 16 27  1  0  0  0  0
 17 16  1  0  0  0  0
 17 29  1  0  0  0  0
 17 30  1  0  0  0  0
 19  5  1  0  0  0  0
 20  6  1  0  0  0  0
 21  6  1  0  0  0  0
 22  8  1  0  0  0  0
 23  9  1  0  0  0  0
 28 16  1  0  0  0  0
 31 17  1  0  0  0  0
M  END
