7
q = 0.0, confidence = 0.84

  9  8  0  0  1  0  0  0  0  0999 V2000
    1.1152    1.1938   -2.2585 F   0  0  0  0  0  0  0  0  0  0  0  0
    0.0804   -0.6735   -2.7890 F   0  0  0  0  0  0  0  0  0  0  0  0
    1.4396   -2.1016   -0.9484 F   0  0  0  0  0  0  0  0  0  0  0  0
    3.6910   -0.4685   -1.3843 F   0  0  0  0  0  0  0  0  0  0  0  0
    3.2543   -0.9469    0.6923 F   0  0  0  0  0  0  0  0  0  0  0  0
    2.8319    1.0566   -0.0819 F   0  0  0  0  0  0  0  0  0  0  0  0
    0.6081    0.0242   -1.7277 C   0  0  0  0  0  0  0  0  0  0  0  0
    1.4001   -0.7139   -0.7728 C   0  0  2  0  0  0  0  0  0  0  0  0
    2.7830   -0.2615   -0.3957 C   0  0  0  0  0  0  0  0  0  0  0  0
  1  7  1  0  0  0  0
  2  7  1  0  0  0  0
  4  9  1  0  0  0  0
  7  8  1  0  0  0  0
  8  3  1  6  0  0  0
  8  9  1  0  0  0  0
  9  6  1  0  0  0  0
  9  5  1  0  0  0  0
M  END
