4
q = 0.0, confidence = 0.994

 37 36  0  0  0  0  0  0  0  0999 V2000
   -5.6380   -0.8004    0.0801 Si  0  0  0  0  0  0  0  0  0  0  0  0
   -3.8125    1.4775    0.0597 O   0  0  0  0  0  0  0  0  0  0  0  0
    0.4410    2.3319   -0.0002 N   0  0  0  0  0  0  0  0  0  0  0  0
    0.5228    1.0027    0.1070 C   0  0  0  0  0  2  0  0  0  0  0  0
   -0.8045    0.2965    0.3049 C   0  0  0  0  0  0  0  0  0  0  0  0
   -1.6059    0.1716   -1.0224 C   0  0  0  0  0  0  0  0  0  0  0  0
   -2.9347   -0.4960   -0.8039 C   0  0  0  0  0  0  0  0  0  0  0  0
   -4.0151    0.1490   -0.2871 C   0  0  0  0  0  0  0  0  0  0  0  0
    1.6145    3.1751   -0.2299 C   0  0  0  0  0  0  0  0  0  0  0  0
   -0.7784    3.1424    0.1536 C   0  0  0  0  0  0  0  0  0  0  0  0
   -6.0003   -0.7360    1.9401 C   0  0  0  0  0  0  0  0  0  0  0  0
   -5.3799   -2.6005   -0.4345 C   0  0  0  0  0  0  0  0  0  0  0  0
   -7.1122   -0.1106   -0.8941 C   0  0  0  0  0  0  0  0  0  0  0  0
   -4.9375    2.3298    0.1649 C   0  0  0  0  0  0  0  0  0  0  0  0
   -0.6214   -0.7208    0.6932 H   0  0  0  0  0  0  0  0  0  0  0  0
   -1.4436    0.8051    1.0582 H   0  0  0  0  0  0  0  0  0  0  0  0
   -0.9979   -0.3944   -1.7546 H   0  0  0  0  0  0  0  0  0  0  0  0
   -1.7700    1.1845   -1.4460 H   0  0  0  0  0  0  0  0  0  0  0  0
   -3.0197   -1.5709   -1.0197 H   0  0  0  0  0  0  0  0  0  0  0  0
    2.4259    2.5757   -0.6701 H   0  0  0  0  0  0  0  0  0  0  0  0
    1.9690    3.6159    0.7251 H   0  0  0  0  0  0  0  0  0  0  0  0
    1.3475    3.9986   -0.9210 H   0  0  0  0  0  0  0  0  0  0  0  0
   -1.6776    2.5271    0.3179 H   0  0  0  0  0  0  0  0  0  0  0  0
   -0.9322    3.7508   -0.7610 H   0  0  0  0  0  0  0  0  0  0  0  0
   -0.6477    3.8410    1.0068 H   0  0  0  0  0  0  0  0  0  0  0  0
   -6.1933    0.2928    2.3056 H   0  0  0  0  0  0  0  0  0  0  0  0
   -5.1445   -1.1440    2.5156 H   0  0  0  0  0  0  0  0  0  0  0  0
   -6.8950   -1.3485    2.1774 H   0  0  0  0  0  0  0  0  0  0  0  0
   -4.5547   -3.0773    0.1315 H   0  0  0  0  0  0  0  0  0  0  0  0
   -5.1576   -2.6913   -1.5168 H   0  0  0  0  0  0  0  0  0  0  0  0
   -6.3066   -3.1761   -0.2313 H   0  0  0  0  0  0  0  0  0  0  0  0
   -7.4309    0.8917   -0.5467 H   0  0  0  0  0  0  0  0  0  0  0  0
   -7.9800   -0.7940   -0.7828 H   0  0  0  0  0  0  0  0  0  0  0  0
   -6.8753   -0.0408   -1.9754 H   0  0  0  0  0  0  0  0  0  0  0  0
   -4.5586    3.3228    0.4746 H   0  0  0  0  0  0  0  0  0  0  0  0
   -5.6637    1.9805    0.9320 H   0  0  0  0  0  0  0  0  0  0  0  0
   -5.4692    2.4385   -0.8063 H   0  0  0  0  0  0  0  0  0  0  0  0
  1 11  1  0  0  0  0
  2 14  1  0  0  0  0
  3  4  1  0  0  0  0
  3 10  1  0  0  0  0
  4  5  1  0  0  0  0
  5 15  1  0  0  0  0
  5 16  1  0  0  0  0
  6  7  1  0  0  0  0
  6  5  1  0  0  0  0
  7  8  2  0  0  0  0
  8  2  1  0  0  0  0
  8  1  1  0  0  0  0
  9  3  1  0  0  0  0
  9 21  1  0  0  0  0
 10 23  1  0  0  0  0
 10 25  1  0  0  0  0
 11 28  1  0  0  0  0
 11 26  1  0  0  0  0
 11 27  1  0  0  0  0
 12 31  1  0  0  0  0
 12  1  1  0  0  0  0
 12 29  1  0  0  0  0
 13 33  1  0  0  0  0
 13 32  1  0  0  0  0
 13  1  1  0  0  0  0
 14 35  1  0  0  0  0
 14 36  1  0  0  0  0
 17  6  1  0  0  0  0
 18  6  1  0  0  0  0
 19  7  1  0  0  0  0
 20  9  1  0  0  0  0
 22  9  1  0  0  0  0
 24 10  1  0  0  0  0
 30 12  1  0  0  0  0
 34 13  1  0  0  0  0
 37 14  1  0  0  0  0
M  END
