21
q = 0.0, confidence = 0.994

 75 80  0  0  1  0  0  0  0  0999 V2000
   -1.0965    0.5878   -2.0407 S   0  0  0  0  0  0  0  0  0  0  0  0
   -0.3057   -1.4094    0.0110 P   0  0  0  0  0  4  0  0  0  0  0  0
    1.3235    1.0921   -0.0626 P   0  0  0  0  0  0  0  0  0  0  0  0
   -1.3319   -0.6314   -2.8731 O   0  0  0  0  0  0  0  0  0  0  0  0
   -0.5584    1.8151   -2.6923 O   0  0  0  0  0  0  0  0  0  0  0  0
   -0.0719    0.1736   -0.6896 C   0  0  1  0  0  3  0  0  0  0  0  0
   -2.6976    1.0411   -1.3322 C   0  0  0  0  0  0  0  0  0  0  0  0
   -2.7581    2.0042   -0.3125 C   0  0  0  0  0  0  0  0  0  0  0  0
   -1.8384    2.4889    0.0479 H   0  0  0  0  0  0  0  0  0  0  0  0
   -4.0010    2.3286    0.2415 C   0  0  0  0  0  0  0  0  0  0  0  0
   -4.0522    3.0808    1.0449 H   0  0  0  0  0  0  0  0  0  0  0  0
   -5.1893    1.7115   -0.2111 C   0  0  0  0  0  0  0  0  0  0  0  0
   -5.0956    0.7703   -1.2549 C   0  0  0  0  0  0  0  0  0  0  0  0
   -6.0107    0.2832   -1.6276 H   0  0  0  0  0  0  0  0  0  0  0  0
   -3.8579    0.4323   -1.8212 C   0  0  0  0  0  0  0  0  0  0  0  0
   -3.7722   -0.3143   -2.6231 H   0  0  0  0  0  0  0  0  0  0  0  0
   -6.5149    2.0327    0.4309 C   0  0  0  0  0  0  0  0  0  0  0  0
   -6.6459    1.4630    1.3767 H   0  0  0  0  0  0  0  0  0  0  0  0
   -7.3643    1.7716   -0.2300 H   0  0  0  0  0  0  0  0  0  0  0  0
   -6.5944    3.1075    0.6896 H   0  0  0  0  0  0  0  0  0  0  0  0
    0.1941   -1.3450    1.7692 C   0  0  2  0  0  3  0  0  0  0  0  0
    0.4812   -2.5560    2.4858 C   0  0  0  0  0  0  0  0  0  0  0  0
    0.7894   -3.4495    1.9239 H   0  0  0  0  0  0  0  0  0  0  0  0
    0.3702   -2.6073    3.8688 C   0  0  0  0  0  0  0  0  0  0  0  0
    0.5954   -3.5469    4.3949 H   0  0  0  0  0  0  0  0  0  0  0  0
   -0.0247   -1.4601    4.6046 C   0  0  0  0  0  0  0  0  0  0  0  0
   -0.1246   -1.5178    5.6987 H   0  0  0  0  0  0  0  0  0  0  0  0
   -0.2795   -0.2656    3.9438 C   0  0  0  0  0  0  0  0  0  0  0  0
   -0.5906    0.6283    4.5056 H   0  0  0  0  0  0  0  0  0  0  0  0
   -0.1605   -0.1747    2.5237 C   0  0  0  0  0  3  0  0  0  0  0  0
   -0.6123    0.6823    2.0026 H   0  0  0  0  0  0  0  0  0  0  0  0
    0.6297   -2.7588   -0.7890 C   0  0  0  0  0  0  0  0  0  0  0  0
    1.6819   -2.4146   -1.6561 C   0  0  0  0  0  0  0  0  0  0  0  0
    1.8837   -1.3559   -1.8713 H   0  0  0  0  0  0  0  0  0  0  0  0
    2.4593   -3.4212   -2.2453 C   0  0  0  0  0  0  0  0  0  0  0  0
    3.2848   -3.1433   -2.9173 H   0  0  0  0  0  0  0  0  0  0  0  0
    2.1821   -4.7709   -1.9803 C   0  0  0  0  0  0  0  0  0  0  0  0
    2.7922   -5.5602   -2.4451 H   0  0  0  0  0  0  0  0  0  0  0  0
    1.1193   -5.1180   -1.1290 C   0  0  0  0  0  0  0  0  0  0  0  0
    0.8927   -6.1765   -0.9310 H   0  0  0  0  0  0  0  0  0  0  0  0
    0.3399   -4.1162   -0.5333 C   0  0  0  0  0  0  0  0  0  0  0  0
   -0.5038   -4.3911    0.1179 H   0  0  0  0  0  0  0  0  0  0  0  0
   -2.0589   -1.9425   -0.0114 C   0  0  0  0  0  0  0  0  0  0  0  0
   -2.5675   -2.6979   -1.0876 C   0  0  0  0  0  0  0  0  0  0  0  0
   -1.9084   -2.9753   -1.9210 H   0  0  0  0  0  0  0  0  0  0  0  0
   -3.9222   -3.0584   -1.1054 C   0  0  0  0  0  0  0  0  0  0  0  0
   -4.3155   -3.6468   -1.9481 H   0  0  0  0  0  0  0  0  0  0  0  0
   -4.7749   -2.6599   -0.0641 C   0  0  0  0  0  0  0  0  0  0  0  0
   -5.8391   -2.9400   -0.0859 H   0  0  0  0  0  0  0  0  0  0  0  0
   -4.2713   -1.8983    1.0022 C   0  0  0  0  0  0  0  0  0  0  0  0
   -4.9363   -1.5782    1.8181 H   0  0  0  0  0  0  0  0  0  0  0  0
   -2.9164   -1.5422    1.0335 C   0  0  0  0  0  0  0  0  0  0  0  0
   -2.5271   -0.9523    1.8752 H   0  0  0  0  0  0  0  0  0  0  0  0
    0.8022    2.8465    0.1777 C   0  0  0  0  0  0  0  0  0  0  0  0
    0.7552    3.7657   -0.8909 C   0  0  0  0  0  0  0  0  0  0  0  0
    1.0581    3.4479   -1.8969 H   0  0  0  0  0  0  0  0  0  0  0  0
    0.2931    5.0721   -0.6732 C   0  0  0  0  0  0  0  0  0  0  0  0
    0.2516    5.7791   -1.5157 H   0  0  0  0  0  0  0  0  0  0  0  0
   -0.1207    5.4771    0.6061 C   0  0  0  0  0  0  0  0  0  0  0  0
   -0.4843    6.5031    0.7698 H   0  0  0  0  0  0  0  0  0  0  0  0
   -0.0540    4.5738    1.6790 C   0  0  0  0  0  0  0  0  0  0  0  0
   -0.3526    4.8902    2.6902 H   0  0  0  0  0  0  0  0  0  0  0  0
    0.4124    3.2679    1.4666 C   0  0  0  0  0  0  0  0  0  0  0  0
    0.4970    2.5694    2.3119 H   0  0  0  0  0  0  0  0  0  0  0  0
    2.6621    1.2195   -1.3227 C   0  0  0  0  0  0  0  0  0  0  0  0
    2.4760    0.9823   -2.6993 C   0  0  0  0  0  0  0  0  0  0  0  0
    1.4684    0.7774   -3.0873 H   0  0  0  0  0  0  0  0  0  0  0  0
    3.5724    1.0394   -3.5752 C   0  0  0  0  0  0  0  0  0  0  0  0
    3.4165    0.8519   -4.6488 H   0  0  0  0  0  0  0  0  0  0  0  0
    4.8541    1.3439   -3.0913 C   0  0  0  0  0  0  0  0  0  0  0  0
    5.7100    1.3881   -3.7822 H   0  0  0  0  0  0  0  0  0  0  0  0
    5.0420    1.5903   -1.7211 C   0  0  0  0  0  0  0  0  0  0  0  0
    6.0450    1.8249   -1.3331 H   0  0  0  0  0  0  0  0  0  0  0  0
    3.9541    1.5197   -0.8404 C   0  0  0  0  0  0  0  0  0  0  0  0
    4.1045    1.6864    0.2382 H   0  0  0  0  0  0  0  0  0  0  0  0
  1  7  1  0  0  0  0
  1  6  1  0  0  0  0
  3 54  1  0  0  0  0
  4  1  2  0  0  0  0
  5  1  2  0  0  0  0
  6  3  1  6  0  0  0
  6  2  1  0  0  0  0
  7  8  1  0  0  0  0
  8  9  1  0  0  0  0
  8 10  2  0  0  0  0
 10 11  1  0  0  0  0
 12 10  1  0  0  0  0
 12 17  1  0  0  0  0
 13 12  2  0  0  0  0
 14 13  1  0  0  0  0
 15  7  2  0  0  0  0
 15 13  1  0  0  0  0
 16 15  1  0  0  0  0
 17 20  1  0  0  0  0
 17 18  1  0  0  0  0
 19 17  1  0  0  0  0
 21  2  1  6  0  0  0
 21 22  1  0  0  0  0
 21 30  1  0  0  0  0
 22 24  2  0  0  0  0
 23 22  1  0  0  0  0
 24 25  1  0  0  0  0
 24 26  1  0  0  0  0
 26 27  1  0  0  0  0
 28 29  1  0  0  0  0
 28 26  2  0  0  0  0
 30 28  1  0  0  0  0
 31 30  1  0  0  0  0
 32 41  1  0  0  0  0
 32  2  1  0  0  0  0
 33 32  2  0  0  0  0
 34 33  1  0  0  0  0
 35 37  2  0  0  0  0
 35 33  1  0  0  0  0
 36 35  1  0  0  0  0
 37 39  1  0  0  0  0
 38 37  1  0  0  0  0
 39 40  1  0  0  0  0
 39 41  2  0  0  0  0
 41 42  1  0  0  0  0
 43  2  1  0  0  0  0
 43 52  1  0  0  0  0
 44 43  2  0  0  0  0
 45 44  1  0  0  0  0
 46 44  1  0  0  0  0
 46 48  2  0  0  0  0
 47 46  1  0  0  0  0
 48 50  1  0  0  0  0
 49 48  1  0  0  0  0
 50 52  2  0  0  0  0
 50 51  1  0  0  0  0
 52 53  1  0  0  0  0
 54 63  1  0  0  0  0
 55 57  1  0  0  0  0
 55 54  2  0  0  0  0
 56 55  1  0  0  0  0
 57 59  2  0  0  0  0
 58 57  1  0  0  0  0
 59 60  1  0  0  0  0
 59 61  1  0  0  0  0
 61 62  1  0  0  0  0
 63 61  2  0  0  0  0
 63 64  1  0  0  0  0
 65 74  1  0  0  0  0
 65  3  1  0  0  0  0
 66 65  2  0  0  0  0
 67 66  1  0  0  0  0
 68 70  2  0  0  0  0
 68 66  1  0  0  0  0
 69 68  1  0  0  0  0
 70 72  1  0  0  0  0
 71 70  1  0  0  0  0
 72 73  1  0  0  0  0
 72 74  2  0  0  0  0
 74 75  1  0  0  0  0
M  END
