3
q = -2.0, confidence = 0.922

 33 35  0  0  0  0  0  0  0  0999 V2000
    0.1175   -1.0081   -1.4587 Cl  0  0  0  0  0  0  0  0  0  0  0  0
    0.1151   -0.7946    1.2447 C   0  0  0  0  0  0  0  0  0  0  0  0
    1.4270   -0.3880    1.6603 C   0  0  0  0  0  3  0  0  0  0  0  0
    1.8858    0.5847    1.4487 H   0  0  0  0  0  0  0  0  0  0  0  0
    2.0585   -1.4654    2.3542 C   0  0  0  0  0  0  0  0  0  0  0  0
    3.0576   -1.4488    2.8040 H   0  0  0  0  0  0  0  0  0  0  0  0
    1.1479   -2.5548    2.3694 C   0  0  0  0  0  0  0  0  0  0  0  0
    1.3378   -3.5543    2.7787 H   0  0  0  0  0  0  0  0  0  0  0  0
   -0.0352   -2.1453    1.6909 C   0  0  0  0  0  0  0  0  0  0  0  0
   -0.8849   -2.7963    1.4648 H   0  0  0  0  0  0  0  0  0  0  0  0
   -0.7726   -0.0059    0.1494 B   0  0  0  0  0  0  0  0  0  0  0  0
   -0.3211    1.5428   -0.0058 C   0  0  0  0  0  0  0  0  0  0  0  0
   -0.0833    2.3124    1.1478 C   0  0  0  0  0  0  0  0  0  0  0  0
    0.4033    3.6284    1.1177 C   0  0  0  0  0  0  0  0  0  0  0  0
    0.6389    4.2388   -0.1248 C   0  0  0  0  0  0  0  0  0  0  0  0
    0.3671    3.5293   -1.3032 C   0  0  0  0  0  0  0  0  0  0  0  0
   -0.1283    2.2162   -1.2226 C   0  0  0  0  0  0  0  0  0  0  0  0
   -0.3376    1.7942    2.3658 F   0  0  0  0  0  0  0  0  0  0  0  0
    0.6332    4.3042    2.2494 F   0  0  0  0  0  0  0  0  0  0  0  0
    1.1229    5.4832   -0.1838 F   0  0  0  0  0  0  0  0  0  0  0  0
    0.5953    4.0990   -2.4936 F   0  0  0  0  0  0  0  0  0  0  0  0
   -0.3885    1.6159   -2.3992 F   0  0  0  0  0  0  0  0  0  0  0  0
   -2.3590   -0.3023    0.0656 C   0  0  0  0  0  0  0  0  0  0  0  0
   -3.3169    0.7174    0.2539 C   0  0  0  0  0  0  0  0  0  0  0  0
   -4.7046    0.5013    0.1843 C   0  0  0  0  0  0  0  0  0  0  0  0
   -5.1909   -0.7860   -0.0847 C   0  0  0  0  0  0  0  0  0  0  0  0
   -4.2811   -1.8370   -0.2772 C   0  0  0  0  0  0  0  0  0  0  0  0
   -2.9038   -1.5783   -0.1903 C   0  0  0  0  0  0  0  0  0  0  0  0
   -2.9483    1.9810    0.5284 F   0  0  0  0  0  0  0  0  0  0  0  0
   -5.5603    1.5104    0.3769 F   0  0  0  0  0  0  0  0  0  0  0  0
   -6.5042   -1.0105   -0.1539 F   0  0  0  0  0  0  0  0  0  0  0  0
   -4.7297   -3.0705   -0.5323 F   0  0  0  0  0  0  0  0  0  0  0  0
   -2.1026   -2.6452   -0.3810 F   0  0  0  0  0  0  0  0  0  0  0  0
  1 11  1  0  0  0  0
  2  3  1  0  0  0  0
  2  9  2  0  0  0  0
  3  5  1  0  0  0  0
  4  3  1  0  0  0  0
  5  7  2  0  0  0  0
  5  6  1  0  0  0  0
  7  8  1  0  0  0  0
  9  7  1  0  0  0  0
 10  9  1  0  0  0  0
 11  2  1  0  0  0  0
 12 11  1  0  0  0  0
 12 13  1  0  0  0  0
 13 18  1  0  0  0  0
 14 13  2  0  0  0  0
 14 19  1  0  0  0  0
 15 14  1  0  0  0  0
 16 17  1  0  0  0  0
 16 15  2  0  0  0  0
 17 12  2  0  0  0  0
 20 15  1  0  0  0  0
 21 16  1  0  0  0  0
 22 17  1  0  0  0  0
 23 11  1  0  0  0  0
 23 24  1  0  0  0  0
 24 29  1  0  0  0  0
 25 24  2  0  0  0  0
 25 30  1  0  0  0  0
 26 25  1  0  0  0  0
 27 28  1  0  0  0  0
 27 26  2  0  0  0  0
 28 23  2  0  0  0  0
 31 26  1  0  0  0  0
 32 27  1  0  0  0  0
 33 28  1  0  0  0  0
M  END
