3
q = 0.0, confidence = 1.0

 57 61  0  0  0  0  0  0  0  0999 V2000
   -6.3570   -1.5784   -0.3476 O   0  0  0  0  0  0  0  0  0  0  0  0
   -1.0812    0.2799   -0.1048 N   0  0  0  0  0  0  0  0  0  0  0  0
   -0.0000   -0.5605   -0.1165 C   0  0  0  0  0  2  0  0  0  0  0  0
   -0.6935    1.6318   -0.1140 C   0  0  0  0  0  0  0  0  0  0  0  0
   -1.6553    2.7375    0.0478 C   0  0  0  0  0  0  0  0  0  0  0  0
   -2.5468    2.7306    1.1455 C   0  0  0  0  0  0  0  0  0  0  0  0
   -2.5095    1.9006    1.8660 H   0  0  0  0  0  0  0  0  0  0  0  0
   -3.4673    3.7704    1.3212 C   0  0  0  0  0  0  0  0  0  0  0  0
   -4.1517    3.7515    2.1826 H   0  0  0  0  0  0  0  0  0  0  0  0
   -3.5152    4.8349    0.4059 C   0  0  0  0  0  0  0  0  0  0  0  0
   -4.2394    5.6516    0.5455 H   0  0  0  0  0  0  0  0  0  0  0  0
   -2.6402    4.8489   -0.6904 C   0  0  0  0  0  0  0  0  0  0  0  0
   -2.6790    5.6733   -1.4182 H   0  0  0  0  0  0  0  0  0  0  0  0
   -1.7208    3.8054   -0.8721 C   0  0  0  0  0  0  0  0  0  0  0  0
   -1.0635    3.8014   -1.7523 H   0  0  0  0  0  0  0  0  0  0  0  0
   -2.4340   -0.1877   -0.1339 C   0  0  0  0  0  0  0  0  0  0  0  0
   -2.8533   -1.1618    0.7834 C   0  0  0  0  0  0  0  0  0  0  0  0
   -2.1449   -1.5414    1.5336 H   0  0  0  0  0  0  0  0  0  0  0  0
   -4.1633   -1.6593    0.7408 C   0  0  0  0  0  0  0  0  0  0  0  0
   -4.4607   -2.4326    1.4603 H   0  0  0  0  0  0  0  0  0  0  0  0
   -5.0701   -1.1663   -0.2207 C   0  0  0  0  0  0  0  0  0  0  0  0
   -4.6445   -0.1736   -1.1329 C   0  0  0  0  0  0  0  0  0  0  0  0
   -5.3638    0.1930   -1.8785 H   0  0  0  0  0  0  0  0  0  0  0  0
   -3.3363    0.3062   -1.0952 C   0  0  0  0  0  0  0  0  0  0  0  0
   -3.0049    1.0628   -1.8198 H   0  0  0  0  0  0  0  0  0  0  0  0
   -6.8238   -2.6050    0.5103 C   0  0  0  0  0  0  0  0  0  0  0  0
   -7.8736   -2.7985    0.2228 H   0  0  0  0  0  0  0  0  0  0  0  0
   -6.7929   -2.2970    1.5795 H   0  0  0  0  0  0  0  0  0  0  0  0
   -6.2356   -3.5419    0.3907 H   0  0  0  0  0  0  0  0  0  0  0  0
    6.3570   -1.5781   -0.3475 O   0  0  0  0  0  0  0  0  0  0  0  0
    1.0811    0.2799   -0.1048 N   0  0  0  0  0  0  0  0  0  0  0  0
    0.6934    1.6318   -0.1140 C   0  0  0  0  0  0  0  0  0  0  0  0
    1.6551    2.7376    0.0477 C   0  0  0  0  0  0  0  0  0  0  0  0
    2.5466    2.7308    1.1455 C   0  0  0  0  0  0  0  0  0  0  0  0
    2.5093    1.9008    1.8660 H   0  0  0  0  0  0  0  0  0  0  0  0
    3.4671    3.7706    1.3210 C   0  0  0  0  0  0  0  0  0  0  0  0
    4.1515    3.7518    2.1825 H   0  0  0  0  0  0  0  0  0  0  0  0
    3.5150    4.8350    0.4056 C   0  0  0  0  0  0  0  0  0  0  0  0
    4.2392    5.6517    0.5452 H   0  0  0  0  0  0  0  0  0  0  0  0
    2.6400    4.8488   -0.6907 C   0  0  0  0  0  0  0  0  0  0  0  0
    2.6789    5.6732   -1.4186 H   0  0  0  0  0  0  0  0  0  0  0  0
    1.7206    3.8053   -0.8723 C   0  0  0  0  0  0  0  0  0  0  0  0
    1.0634    3.8013   -1.7525 H   0  0  0  0  0  0  0  0  0  0  0  0
    2.4339   -0.1876   -0.1339 C   0  0  0  0  0  0  0  0  0  0  0  0
    2.8533   -1.1616    0.7835 C   0  0  0  0  0  0  0  0  0  0  0  0
    2.1450   -1.5411    1.5338 H   0  0  0  0  0  0  0  0  0  0  0  0
    4.1633   -1.6590    0.7409 C   0  0  0  0  0  0  0  0  0  0  0  0
    4.4608   -2.4323    1.4605 H   0  0  0  0  0  0  0  0  0  0  0  0
    5.0701   -1.1661   -0.2207 C   0  0  0  0  0  0  0  0  0  0  0  0
    4.6444   -0.1735   -1.1329 C   0  0  0  0  0  0  0  0  0  0  0  0
    5.3637    0.1931   -1.8786 H   0  0  0  0  0  0  0  0  0  0  0  0
    3.3362    0.3063   -1.0952 C   0  0  0  0  0  0  0  0  0  0  0  0
    3.0047    1.0627   -1.8199 H   0  0  0  0  0  0  0  0  0  0  0  0
    6.8238   -2.6047    0.5105 C   0  0  0  0  0  0  0  0  0  0  0  0
    7.8736   -2.7981    0.2230 H   0  0  0  0  0  0  0  0  0  0  0  0
    6.7929   -2.2965    1.5797 H   0  0  0  0  0  0  0  0  0  0  0  0
    6.2357   -3.5416    0.3910 H   0  0  0  0  0  0  0  0  0  0  0  0
  1 21  1  0  0  0  0
  1 26  1  0  0  0  0
  3 31  1  0  0  0  0
  3  2  1  0  0  0  0
  4 32  2  0  0  0  0
  4  2  1  0  0  0  0
  4  5  1  0  0  0  0
  5  6  1  0  0  0  0
  6  8  2  0  0  0  0
  6  7  1  0  0  0  0
  8  9  1  0  0  0  0
 10 11  1  0  0  0  0
 10  8  1  0  0  0  0
 12 10  2  0  0  0  0
 13 12  1  0  0  0  0
 14 12  1  0  0  0  0
 14  5  2  0  0  0  0
 15 14  1  0  0  0  0
 16  2  1  0  0  0  0
 16 17  1  0  0  0  0
 17 18  1  0  0  0  0
 19 17  2  0  0  0  0
 19 20  1  0  0  0  0
 21 19  1  0  0  0  0
 22 24  1  0  0  0  0
 22 21  2  0  0  0  0
 23 22  1  0  0  0  0
 24 16  2  0  0  0  0
 25 24  1  0  0  0  0
 26 28  1  0  0  0  0
 27 26  1  0  0  0  0
 29 26  1  0  0  0  0
 30 49  1  0  0  0  0
 30 54  1  0  0  0  0
 32 31  1  0  0  0  0
 32 33  1  0  0  0  0
 33 34  1  0  0  0  0
 34 36  2  0  0  0  0
 34 35  1  0  0  0  0
 36 37  1  0  0  0  0
 38 39  1  0  0  0  0
 38 36  1  0  0  0  0
 40 38  2  0  0  0  0
 41 40  1  0  0  0  0
 42 40  1  0  0  0  0
 42 33  2  0  0  0  0
 43 42  1  0  0  0  0
 44 31  1  0  0  0  0
 44 45  1  0  0  0  0
 45 46  1  0  0  0  0
 47 45  2  0  0  0  0
 47 48  1  0  0  0  0
 49 47  1  0  0  0  0
 50 52  1  0  0  0  0
 50 49  2  0  0  0  0
 51 50  1  0  0  0  0
 52 44  2  0  0  0  0
 53 52  1  0  0  0  0
 54 56  1  0  0  0  0
 55 54  1  0  0  0  0
 57 54  1  0  0  0  0
M  END
