1
q = -2.0, confidence = 0.886

 68 71  0  0  1  0  0  0  0  0999 V2000
    1.1889    1.4720   -0.4205 C   0  0  2  0  0  3  0  0  0  0  0  0
    2.1808    0.6925    0.2530 C   0  0  0  0  0  0  0  0  0  0  0  0
    2.3389   -0.5624   -0.4009 C   0  0  0  0  0  0  0  0  0  0  0  0
    1.4359   -0.5641   -1.5055 C   0  0  0  0  0  0  0  0  0  0  0  0
    0.7530    0.6746   -1.5374 C   0  0  0  0  0  0  0  0  0  0  0  0
    3.4207   -1.6038   -0.0992 C   0  0  0  0  0  0  0  0  0  0  0  0
    3.3556   -2.1269    1.3472 C   0  0  0  0  0  0  0  0  0  0  0  0
    3.3179   -2.7919   -1.0797 C   0  0  0  0  0  0  0  0  0  0  0  0
    4.7386   -0.8909   -0.3052 C   0  0  0  0  0  0  0  0  0  0  0  0
    6.2072    0.2009   -1.5459 C   0  0  0  0  0  0  0  0  0  0  0  0
    6.7351    0.1659   -0.2782 C   0  0  0  0  0  0  0  0  0  0  0  0
    5.7798   -0.5429    0.5295 C   0  0  0  0  0  0  0  0  0  0  0  0
    0.7243    2.8796   -0.0492 C   0  0  0  0  0  0  0  0  0  0  0  0
    1.2435    3.2136    1.3636 C   0  0  0  0  0  0  0  0  0  0  0  0
    1.3721    3.8824   -1.0291 C   0  0  0  0  0  0  0  0  0  0  0  0
   -0.8803    2.9247   -0.1131 C   0  0  0  0  0  0  0  0  0  0  0  0
   -1.4011    3.2817   -1.5237 C   0  0  0  0  0  0  0  0  0  0  0  0
   -1.4660    3.9909    0.8374 C   0  0  0  0  0  0  0  0  0  0  0  0
   -1.4307    1.5570    0.2948 C   0  0  0  0  0  0  0  0  0  0  0  0
   -1.9535    0.5480   -0.5863 C   0  0  0  0  0  0  0  0  0  0  0  0
   -2.4433   -0.5502    0.1783 C   0  0  0  0  0  0  0  0  0  0  0  0
   -2.1452   -0.2661    1.5395 C   0  0  0  0  0  0  0  0  0  0  0  0
   -1.5576    1.0331    1.6114 C   0  0  0  0  0  3  0  0  0  0  0  0
   -3.3512   -1.6550   -0.3664 C   0  0  0  0  0  0  0  0  0  0  0  0
   -2.8683   -2.1795   -1.7310 C   0  0  0  0  0  0  0  0  0  0  0  0
   -3.4996   -2.8163    0.6388 C   0  0  0  0  0  0  0  0  0  0  0  0
   -4.6955   -0.9817   -0.5550 C   0  0  0  0  0  0  0  0  0  0  0  0
   -6.4854    0.0732    0.1998 C   0  0  0  0  0  0  0  0  0  0  0  0
   -6.6428   -0.0100   -1.1624 C   0  0  0  0  0  0  0  0  0  0  0  0
   -5.4782   -0.6942   -1.6543 C   0  0  0  0  0  0  0  0  0  0  0  0
    4.9998   -0.4354   -1.5726 O   0  0  0  0  0  0  0  0  0  0  0  0
   -5.3113   -0.5118    0.5758 O   0  0  0  0  0  0  0  0  0  0  0  0
    2.7286    0.9943    1.1497 H   0  0  0  0  0  0  0  0  0  0  0  0
    1.2775   -1.3916   -2.2042 H   0  0  0  0  0  0  0  0  0  0  0  0
    0.0383    0.9678   -2.3091 H   0  0  0  0  0  0  0  0  0  0  0  0
    3.3981   -1.3075    2.0888 H   0  0  0  0  0  0  0  0  0  0  0  0
    2.4028   -2.6639    1.5060 H   0  0  0  0  0  0  0  0  0  0  0  0
    4.1996   -2.8210    1.5313 H   0  0  0  0  0  0  0  0  0  0  0  0
    3.4522   -2.4615   -2.1277 H   0  0  0  0  0  0  0  0  0  0  0  0
    4.1090   -3.5328   -0.8524 H   0  0  0  0  0  0  0  0  0  0  0  0
    2.3305   -3.2824   -0.9762 H   0  0  0  0  0  0  0  0  0  0  0  0
    6.5508    0.6145   -2.4993 H   0  0  0  0  0  0  0  0  0  0  0  0
    7.6927    0.5904    0.0427 H   0  0  0  0  0  0  0  0  0  0  0  0
    5.8535   -0.7690    1.5976 H   0  0  0  0  0  0  0  0  0  0  0  0
    2.3500    3.1719    1.3760 H   0  0  0  0  0  0  0  0  0  0  0  0
    0.9599    4.2385    1.6650 H   0  0  0  0  0  0  0  0  0  0  0  0
    0.8817    2.4969    2.1261 H   0  0  0  0  0  0  0  0  0  0  0  0
    2.4734    3.8635   -0.9062 H   0  0  0  0  0  0  0  0  0  0  0  0
    1.1543    3.6426   -2.0866 H   0  0  0  0  0  0  0  0  0  0  0  0
    1.0282    4.9180   -0.8273 H   0  0  0  0  0  0  0  0  0  0  0  0
   -2.5031    3.1724   -1.5538 H   0  0  0  0  0  0  0  0  0  0  0  0
   -1.1639    4.3329   -1.7746 H   0  0  0  0  0  0  0  0  0  0  0  0
   -0.9815    2.6512   -2.3287 H   0  0  0  0  0  0  0  0  0  0  0  0
   -2.5660    4.0394    0.7099 H   0  0  0  0  0  0  0  0  0  0  0  0
   -1.2647    3.7762    1.9023 H   0  0  0  0  0  0  0  0  0  0  0  0
   -1.0549    4.9946    0.6060 H   0  0  0  0  0  0  0  0  0  0  0  0
   -2.0660    0.6452   -1.6695 H   0  0  0  0  0  0  0  0  0  0  0  0
   -2.3315   -0.9247    2.3936 H   0  0  0  0  0  0  0  0  0  0  0  0
   -1.2340    1.5193    2.5364 H   0  0  0  0  0  0  0  0  0  0  0  0
   -3.5856   -2.9248   -2.1269 H   0  0  0  0  0  0  0  0  0  0  0  0
   -2.7809   -1.3658   -2.4779 H   0  0  0  0  0  0  0  0  0  0  0  0
   -1.8790   -2.6582   -1.6173 H   0  0  0  0  0  0  0  0  0  0  0  0
   -3.9582   -2.4656    1.5829 H   0  0  0  0  0  0  0  0  0  0  0  0
   -4.1596   -3.5973    0.2130 H   0  0  0  0  0  0  0  0  0  0  0  0
   -2.5094   -3.2573    0.8589 H   0  0  0  0  0  0  0  0  0  0  0  0
   -7.0909    0.4926    1.0093 H   0  0  0  0  0  0  0  0  0  0  0  0
   -7.4895    0.3668   -1.7466 H   0  0  0  0  0  0  0  0  0  0  0  0
   -5.2519   -0.9474   -2.6945 H   0  0  0  0  0  0  0  0  0  0  0  0
  1 13  1  6  0  0  0
  1  2  1  0  0  0  0
  2 33  1  0  0  0  0
  3  6  1  0  0  0  0
  3  2  2  0  0  0  0
  4  3  1  0  0  0  0
  5  4  2  0  0  0  0
  5  1  1  0  0  0  0
  6  7  1  0  0  0  0
  7 37  1  0  0  0  0
  7 38  1  0  0  0  0
  7 36  1  0  0  0  0
  8 41  1  0  0  0  0
  8 40  1  0  0  0  0
  8  6  1  0  0  0  0
  9  6  1  0  0  0  0
  9 12  2  0  0  0  0
 10 11  2  0  0  0  0
 11 43  1  0  0  0  0
 11 12  1  0  0  0  0
 12 44  1  0  0  0  0
 13 14  1  0  0  0  0
 14 45  1  0  0  0  0
 14 46  1  0  0  0  0
 14 47  1  0  0  0  0
 15 48  1  0  0  0  0
 15 50  1  0  0  0  0
 15 13  1  0  0  0  0
 16 13  1  0  0  0  0
 16 19  1  0  0  0  0
 16 18  1  0  0  0  0
 17 16  1  0  0  0  0
 18 55  1  0  0  0  0
 19 23  1  0  0  0  0
 20 21  1  0  0  0  0
 20 19  2  0  0  0  0
 21 22  2  0  0  0  0
 22 23  1  0  0  0  0
 22 58  1  0  0  0  0
 23 59  1  0  0  0  0
 24 21  1  0  0  0  0
 24 26  1  0  0  0  0
 25 62  1  0  0  0  0
 25 24  1  0  0  0  0
 26 65  1  0  0  0  0
 26 63  1  0  0  0  0
 27 24  1  0  0  0  0
 27 32  1  0  0  0  0
 28 32  1  0  0  0  0
 28 66  1  0  0  0  0
 29 28  2  0  0  0  0
 30 29  1  0  0  0  0
 30 27  2  0  0  0  0
 31 10  1  0  0  0  0
 31  9  1  0  0  0  0
 34  4  1  0  0  0  0
 35  5  1  0  0  0  0
 39  8  1  0  0  0  0
 42 10  1  0  0  0  0
 49 15  1  0  0  0  0
 51 17  1  0  0  0  0
 52 17  1  0  0  0  0
 53 17  1  0  0  0  0
 54 18  1  0  0  0  0
 56 18  1  0  0  0  0
 57 20  1  0  0  0  0
 60 25  1  0  0  0  0
 61 25  1  0  0  0  0
 64 26  1  0  0  0  0
 67 29  1  0  0  0  0
 68 30  1  0  0  0  0
M  END
