2
q = 0.0, confidence = 0.952

 23 23  0  0  0  0  0  0  0  0999 V2000
    0.3793    1.9567   -1.0511 O   0  0  0  0  0  0  0  0  0  0  0  0
    0.4590    0.8136   -0.3351 C   0  0  0  0  0  2  0  0  0  0  0  0
    1.5203    2.8233   -1.2896 C   0  0  0  0  0  0  0  0  0  0  0  0
    1.7754    3.6971   -0.0738 C   0  0  0  0  0  0  0  0  0  0  0  0
    1.8173    0.2069   -0.2655 C   0  0  0  0  0  0  0  0  0  0  0  0
    2.4993    0.0372    0.9584 C   0  0  0  0  0  0  0  0  0  0  0  0
    3.7429   -0.6035    0.9996 C   0  0  0  0  0  0  0  0  0  0  0  0
    4.3445   -1.1183   -0.1675 C   0  0  0  0  0  0  0  0  0  0  0  0
    3.6580   -0.9504   -1.3875 C   0  0  0  0  0  0  0  0  0  0  0  0
    2.4236   -0.2915   -1.4425 C   0  0  0  0  0  0  0  0  0  0  0  0
    5.6582   -1.8545   -0.1034 C   0  0  0  0  0  0  0  0  0  0  0  0
    2.4142    2.2254   -1.5574 H   0  0  0  0  0  0  0  0  0  0  0  0
    1.2236    3.4270   -2.1698 H   0  0  0  0  0  0  0  0  0  0  0  0
    2.5700    4.4384   -0.2933 H   0  0  0  0  0  0  0  0  0  0  0  0
    2.1052    3.0839    0.7887 H   0  0  0  0  0  0  0  0  0  0  0  0
    0.8549    4.2414    0.2163 H   0  0  0  0  0  0  0  0  0  0  0  0
    2.0399    0.4098    1.8858 H   0  0  0  0  0  0  0  0  0  0  0  0
    4.2581   -0.7162    1.9669 H   0  0  0  0  0  0  0  0  0  0  0  0
    4.1018   -1.3461   -2.3152 H   0  0  0  0  0  0  0  0  0  0  0  0
    1.9050   -0.1770   -2.4076 H   0  0  0  0  0  0  0  0  0  0  0  0
    6.3461   -1.3984    0.6364 H   0  0  0  0  0  0  0  0  0  0  0  0
    6.1679   -1.8703   -1.0866 H   0  0  0  0  0  0  0  0  0  0  0  0
    5.5065   -2.9113    0.2057 H   0  0  0  0  0  0  0  0  0  0  0  0
  1  2  1  0  0  0  0
  2  5  1  0  0  0  0
  3  1  1  0  0  0  0
  3  4  1  0  0  0  0
  4 16  1  0  0  0  0
  4 15  1  0  0  0  0
  5  6  1  0  0  0  0
  6  7  2  0  0  0  0
  6 17  1  0  0  0  0
  7 18  1  0  0  0  0
  8 11  1  0  0  0  0
  8  7  1  0  0  0  0
  9  8  2  0  0  0  0
 10  9  1  0  0  0  0
 10  5  2  0  0  0  0
 11 23  1  0  0  0  0
 11 21  1  0  0  0  0
 12  3  1  0  0  0  0
 13  3  1  0  0  0  0
 14  4  1  0  0  0  0
 19  9  1  0  0  0  0
 20 10  1  0  0  0  0
 22 11  1  0  0  0  0
M  END
