3
q = 0.0, confidence = 0.998

 19 18  0  0  0  0  0  0  0  0999 V2000
    3.3811    0.1686    0.2002 N   0  3  0  0  0  0  0  0  0  0  0  0
    3.4974   -0.7494   -0.2681 H   0  0  0  0  0  0  0  0  0  0  0  0
    1.9364    0.1282    0.7309 C   0  0  0  0  0  3  0  0  0  0  0  0
    1.6339    1.1907    0.8084 H   0  0  0  0  0  0  0  0  0  0  0  0
    2.0178   -0.2628    1.7658 H   0  0  0  0  0  0  0  0  0  0  0  0
    3.5372    1.2160   -0.8745 C   0  0  0  0  0  0  0  0  0  0  0  0
    3.3251    2.1917   -0.3969 H   0  0  0  0  0  0  0  0  0  0  0  0
    2.7222    1.0246   -1.5943 H   0  0  0  0  0  0  0  0  0  0  0  0
    4.8894    1.1884   -1.5654 C   0  0  0  0  0  0  0  0  0  0  0  0
    4.8687    1.8985   -2.4146 H   0  0  0  0  0  0  0  0  0  0  0  0
    5.1170    0.1879   -1.9878 H   0  0  0  0  0  0  0  0  0  0  0  0
    5.7249    1.4929   -0.9053 H   0  0  0  0  0  0  0  0  0  0  0  0
    4.4280    0.2428    1.2889 C   0  0  0  0  0  0  0  0  0  0  0  0
    5.4118    0.0639    0.8124 H   0  0  0  0  0  0  0  0  0  0  0  0
    4.2222   -0.6197    1.9535 H   0  0  0  0  0  0  0  0  0  0  0  0
    4.4175    1.5491    2.0639 C   0  0  0  0  0  0  0  0  0  0  0  0
    5.1514    1.4795    2.8899 H   0  0  0  0  0  0  0  0  0  0  0  0
    3.4271    1.7590    2.5121 H   0  0  0  0  0  0  0  0  0  0  0  0
    4.7109    2.4143    1.4381 H   0  0  0  0  0  0  0  0  0  0  0  0
  1  3  1  0  0  0  0
  1 13  1  0  0  0  0
  2  1  1  0  0  0  0
  3  4  1  0  0  0  0
  3  5  1  0  0  0  0
  6  7  1  0  0  0  0
  6  1  1  0  0  0  0
  8  6  1  0  0  0  0
  9 12  1  0  0  0  0
  9  6  1  0  0  0  0
 10  9  1  0  0  0  0
 11  9  1  0  0  0  0
 13 15  1  0  0  0  0
 13 16  1  0  0  0  0
 14 13  1  0  0  0  0
 16 18  1  0  0  0  0
 16 17  1  0  0  0  0
 19 16  1  0  0  0  0
M  CHG  1   1   1
M  END
