3
q = 0.0, confidence = 0.996

 69 71  0  0  1  0  0  0  0  0999 V2000
   -2.6164   -0.3376    2.0965 O   0  0  0  0  0  0  0  0  0  0  0  0
    1.5545    0.3905    1.2166 N   0  0  0  0  0  0  0  0  0  0  0  0
    0.5067   -0.4249    0.8482 C   0  0  0  0  0  2  0  0  0  0  0  0
   -1.5360   -1.2209    2.0972 C   0  0  0  0  0  0  0  0  0  0  0  0
   -1.5452   -1.9614    1.2703 H   0  0  0  0  0  0  0  0  0  0  0  0
   -1.5564   -1.7550    3.0672 H   0  0  0  0  0  0  0  0  0  0  0  0
   -0.2442   -0.5293    1.9948 N   0  0  0  0  0  0  0  0  0  0  0  0
    1.6810    3.0057   -0.0689 C   0  0  0  0  0  0  0  0  0  0  0  0
    0.7562    2.4644    0.2237 H   0  0  0  0  0  0  0  0  0  0  0  0
    2.7772    1.9582   -0.2298 C   0  0  0  0  0  0  0  0  0  0  0  0
    2.6920    0.6880    0.3899 C   0  0  0  0  0  0  0  0  0  0  0  0
    0.3140    0.1951    3.0399 C   0  0  0  0  0  0  0  0  0  0  0  0
   -0.1562    0.2441    4.0261 H   0  0  0  0  0  0  0  0  0  0  0  0
    1.4564    0.7689    2.5566 C   0  0  0  0  0  0  0  0  0  0  0  0
    2.2185    1.3870    3.0380 H   0  0  0  0  0  0  0  0  0  0  0  0
    3.5716   -1.6692    0.9171 C   0  0  0  0  0  0  0  0  0  0  0  0
    2.5069   -1.8447    1.1672 H   0  0  0  0  0  0  0  0  0  0  0  0
    3.9191    2.2243   -1.0097 C   0  0  0  0  0  0  0  0  0  0  0  0
    4.0189    3.1996   -1.5076 H   0  0  0  0  0  0  0  0  0  0  0  0
    1.3873    3.7654   -1.3725 C   0  0  0  0  0  0  0  0  0  0  0  0
    1.2232    3.0775   -2.2253 H   0  0  0  0  0  0  0  0  0  0  0  0
    2.2182    4.4467   -1.6473 H   0  0  0  0  0  0  0  0  0  0  0  0
    0.4798    4.3908   -1.2557 H   0  0  0  0  0  0  0  0  0  0  0  0
    3.9777   -2.8311    0.0012 C   0  0  0  0  0  0  0  0  0  0  0  0
    3.7423   -3.7947    0.4940 H   0  0  0  0  0  0  0  0  0  0  0  0
    5.0622   -2.8275   -0.2357 H   0  0  0  0  0  0  0  0  0  0  0  0
    3.4047   -2.7987   -0.9455 H   0  0  0  0  0  0  0  0  0  0  0  0
    3.6826   -0.3129    0.2333 C   0  0  0  0  0  0  0  0  0  0  0  0
    2.0159    3.9968    1.0617 C   0  0  0  0  0  0  0  0  0  0  0  0
    1.1977    4.7352    1.1900 H   0  0  0  0  0  0  0  0  0  0  0  0
    2.9467    4.5547    0.8299 H   0  0  0  0  0  0  0  0  0  0  0  0
    2.1634    3.4843    2.0317 H   0  0  0  0  0  0  0  0  0  0  0  0
    4.9214    1.2598   -1.1720 C   0  0  0  0  0  0  0  0  0  0  0  0
    5.8041    1.4862   -1.7893 H   0  0  0  0  0  0  0  0  0  0  0  0
   -2.8428    0.3241    0.8342 C   0  0  1  0  0  0  0  0  0  0  0  0
   -2.1753   -0.1328    0.0674 H   0  0  0  0  0  0  0  0  0  0  0  0
    4.8001    0.0053   -0.5608 C   0  0  0  0  0  0  0  0  0  0  0  0
    5.5872   -0.7489   -0.7058 H   0  0  0  0  0  0  0  0  0  0  0  0
    4.3762   -1.6695    2.2299 C   0  0  0  0  0  0  0  0  0  0  0  0
    4.2649   -2.6411    2.7529 H   0  0  0  0  0  0  0  0  0  0  0  0
    4.0323   -0.8712    2.9186 H   0  0  0  0  0  0  0  0  0  0  0  0
    5.4573   -1.5057    2.0372 H   0  0  0  0  0  0  0  0  0  0  0  0
   -4.5689    0.9246   -0.8823 C   0  0  0  0  0  0  0  0  0  0  0  0
   -5.6311    0.8173   -1.1828 H   0  0  0  0  0  0  0  0  0  0  0  0
   -3.9707    0.4911   -1.7139 H   0  0  0  0  0  0  0  0  0  0  0  0
   -4.7112   -1.3690    0.3374 C   0  0  0  0  0  0  0  0  0  0  0  0
   -4.4191   -1.7914    1.3232 H   0  0  0  0  0  0  0  0  0  0  0  0
   -6.2303   -1.5368    0.2034 C   0  0  0  0  0  0  0  0  0  0  0  0
   -6.5197   -2.6038    0.2913 H   0  0  0  0  0  0  0  0  0  0  0  0
   -6.5994   -1.1807   -0.7815 H   0  0  0  0  0  0  0  0  0  0  0  0
   -6.7740   -0.9734    0.9898 H   0  0  0  0  0  0  0  0  0  0  0  0
   -4.3063    0.1266    0.4079 C   0  0  1  0  0  0  0  0  0  0  0  0
   -4.9253    0.5839    1.2154 H   0  0  0  0  0  0  0  0  0  0  0  0
   -3.9746   -2.1709   -0.7457 C   0  0  0  0  0  0  0  0  0  0  0  0
   -2.8710   -2.1147   -0.6521 H   0  0  0  0  0  0  0  0  0  0  0  0
   -4.2450   -1.8259   -1.7661 H   0  0  0  0  0  0  0  0  0  0  0  0
   -4.2488   -3.2436   -0.6845 H   0  0  0  0  0  0  0  0  0  0  0  0
   -2.7549    2.6127   -0.2964 C   0  0  2  0  0  0  0  0  0  0  0  0
   -2.1030    2.2003   -1.1021 H   0  0  0  0  0  0  0  0  0  0  0  0
   -4.2135    2.4079   -0.7343 C   0  0  0  0  0  0  0  0  0  0  0  0
   -4.4033    2.9472   -1.6868 H   0  0  0  0  0  0  0  0  0  0  0  0
   -4.8804    2.8736    0.0269 H   0  0  0  0  0  0  0  0  0  0  0  0
   -2.4785    1.8038    0.9787 C   0  0  0  0  0  0  0  0  0  0  0  0
   -1.4090    1.8906    1.2663 H   0  0  0  0  0  0  0  0  0  0  0  0
   -3.0680    2.2249    1.8238 H   0  0  0  0  0  0  0  0  0  0  0  0
   -2.4083    4.0914   -0.1107 C   0  0  0  0  0  0  0  0  0  0  0  0
   -1.3565    4.2229    0.2174 H   0  0  0  0  0  0  0  0  0  0  0  0
   -3.0564    4.5534    0.6639 H   0  0  0  0  0  0  0  0  0  0  0  0
   -2.5471    4.6646   -1.0502 H   0  0  0  0  0  0  0  0  0  0  0  0
  1  4  1  0  0  0  0
  2 14  1  0  0  0  0
  3  2  1  0  0  0  0
  3  7  1  0  0  0  0
  4  6  1  0  0  0  0
  5  4  1  0  0  0  0
  7  4  1  0  0  0  0
  7 12  1  0  0  0  0
  8  9  1  0  0  0  0
  8 29  1  0  0  0  0
 10  8  1  0  0  0  0
 10 11  1  0  0  0  0
 11  2  1  0  0  0  0
 12 13  1  0  0  0  0
 14 15  1  0  0  0  0
 14 12  2  0  0  0  0
 16 17  1  0  0  0  0
 16 39  1  0  0  0  0
 18 10  2  0  0  0  0
 19 18  1  0  0  0  0
 20 23  1  0  0  0  0
 20  8  1  0  0  0  0
 21 20  1  0  0  0  0
 22 20  1  0  0  0  0
 24 25  1  0  0  0  0
 24 16  1  0  0  0  0
 26 24  1  0  0  0  0
 27 24  1  0  0  0  0
 28 11  2  0  0  0  0
 28 16  1  0  0  0  0
 29 30  1  0  0  0  0
 29 32  1  0  0  0  0
 31 29  1  0  0  0  0
 33 18  1  0  0  0  0
 33 37  2  0  0  0  0
 34 33  1  0  0  0  0
 35 36  1  6  0  0  0
 35 63  1  0  0  0  0
 35  1  1  0  0  0  0
 37 28  1  0  0  0  0
 38 37  1  0  0  0  0
 39 40  1  0  0  0  0
 39 41  1  0  0  0  0
 42 39  1  0  0  0  0
 43 60  1  0  0  0  0
 43 52  1  0  0  0  0
 44 43  1  0  0  0  0
 45 43  1  0  0  0  0
 46 52  1  0  0  0  0
 46 47  1  0  0  0  0
 48 49  1  0  0  0  0
 48 46  1  0  0  0  0
 48 51  1  0  0  0  0
 50 48  1  0  0  0  0
 52 35  1  0  0  0  0
 52 53  1  1  0  0  0
 54 57  1  0  0  0  0
 54 55  1  0  0  0  0
 54 46  1  0  0  0  0
 56 54  1  0  0  0  0
 58 59  1  6  0  0  0
 58 66  1  0  0  0  0
 58 63  1  0  0  0  0
 60 58  1  0  0  0  0
 60 62  1  0  0  0  0
 61 60  1  0  0  0  0
 63 64  1  0  0  0  0
 63 65  1  0  0  0  0
 66 67  1  0  0  0  0
 66 68  1  0  0  0  0
 69 66  1  0  0  0  0
M  END
