14
q = -1.0, confidence = 0.004

 14 14  0  0  0  0  0  0  0  0999 V2000
   -3.8530    0.9518   -1.6202 O   0  0  0  0  0  0  0  0  0  0  0  0
   -2.9460    0.9476   -2.0710 H   0  0  0  0  0  0  0  0  0  0  0  0
   -1.3638    0.7210   -2.0153 O   0  0  0  0  0  0  0  0  0  0  0  0
   -2.3412    0.0021    0.0211 C   0  0  0  0  0  0  0  0  0  0  0  0
   -3.6490    0.3994   -0.4202 C   0  0  0  0  0  0  0  0  0  0  0  0
   -4.7522    0.2187    0.4470 C   0  0  0  0  0  0  0  0  0  0  0  0
   -5.7444    0.5304    0.0900 H   0  0  0  0  0  0  0  0  0  0  0  0
   -4.5696   -0.3471    1.7094 C   0  0  0  0  0  0  0  0  0  0  0  0
   -5.4422   -0.4858    2.3667 H   0  0  0  0  0  0  0  0  0  0  0  0
   -3.2894   -0.7480    2.1494 C   0  0  0  0  0  0  0  0  0  0  0  0
   -3.1599   -1.2051    3.1409 H   0  0  0  0  0  0  0  0  0  0  0  0
   -2.1929   -0.5704    1.3066 C   0  0  0  0  0  0  0  0  0  0  0  0
   -1.1831   -0.8885    1.6096 H   0  0  0  0  0  0  0  0  0  0  0  0
   -1.1903    0.2648   -0.8657 C   0  0  0  0  0  3  0  0  0  0  0  0
  1  5  1  0  0  0  0
  2  1  1  0  0  0  0
  3 14  2  0  0  0  0
  4 12  1  0  0  0  0
  5  4  2  0  0  0  0
  5  6  1  0  0  0  0
  6  8  2  0  0  0  0
  7  6  1  0  0  0  0
  8 10  1  0  0  0  0
  8  9  1  0  0  0  0
 10 11  1  0  0  0  0
 12 13  1  0  0  0  0
 12 10  2  0  0  0  0
 14  4  1  0  0  0  0
M  END
