1
q = 0.0, confidence = 0.974

 38 40  0  0  0  0  0  0  0  0999 V2000
    2.3960   -0.9389   -0.3375 C   0  0  0  0  0  2  0  0  0  0  0  0
    2.0964    2.4477   -0.2599 C   0  0  0  0  0  0  0  0  0  0  0  0
    3.0466    0.1850   -0.7656 N   0  0  0  0  0  0  0  0  0  0  0  0
    2.3776    1.3666   -1.2880 C   0  0  0  0  0  0  0  0  0  0  0  0
    1.4349    1.0322   -1.7644 H   0  0  0  0  0  0  0  0  0  0  0  0
    3.0004    1.7789   -2.1105 H   0  0  0  0  0  0  0  0  0  0  0  0
    3.3620   -1.8020    0.0853 N   0  0  0  0  0  0  0  0  0  0  0  0
    0.8848    4.5065    0.3424 C   0  0  0  0  0  0  0  0  0  0  0  0
    0.1271    5.2613    0.0900 H   0  0  0  0  0  0  0  0  0  0  0  0
    2.7796    2.5263    0.9628 C   0  0  0  0  0  0  0  0  0  0  0  0
    3.5263    1.7608    1.2196 H   0  0  0  0  0  0  0  0  0  0  0  0
    1.1265    3.4459   -0.5576 C   0  0  0  0  0  0  0  0  0  0  0  0
    5.4964    0.9130   -0.9067 C   0  0  0  0  0  0  0  0  0  0  0  0
    5.3342    1.9178   -1.3212 H   0  0  0  0  0  0  0  0  0  0  0  0
    2.5297    3.5773    1.8608 C   0  0  0  0  0  0  0  0  0  0  0  0
    3.0825    3.6205    2.8110 H   0  0  0  0  0  0  0  0  0  0  0  0
    6.7843    0.4366   -0.6319 C   0  0  0  0  0  0  0  0  0  0  0  0
    7.6514    1.0788   -0.8431 H   0  0  0  0  0  0  0  0  0  0  0  0
    4.4284    0.0494   -0.6186 C   0  0  0  0  0  0  0  0  0  0  0  0
    6.9948   -0.8524   -0.0880 C   0  0  0  0  0  0  0  0  0  0  0  0
    8.0224   -1.1885    0.1123 H   0  0  0  0  0  0  0  0  0  0  0  0
   -0.2967    3.1781   -2.7249 N   0  0  0  0  0  0  0  0  0  0  0  0
    5.9280   -1.7123    0.2027 C   0  0  0  0  0  0  0  0  0  0  0  0
    6.1075   -2.7108    0.6247 H   0  0  0  0  0  0  0  0  0  0  0  0
    4.6343   -1.2390   -0.0702 C   0  0  0  0  0  0  0  0  0  0  0  0
    1.5915    4.5723    1.5478 C   0  0  0  0  0  0  0  0  0  0  0  0
    1.4029    5.3986    2.2484 H   0  0  0  0  0  0  0  0  0  0  0  0
    0.3529    3.3373   -1.7588 C   0  0  0  0  0  0  0  0  0  0  0  0
    2.2950   -3.1113    1.9059 C   0  0  0  0  0  0  0  0  0  0  0  0
    1.2715   -2.7241    1.7163 H   0  0  0  0  0  0  0  0  0  0  0  0
    2.7765   -2.4585    2.6599 H   0  0  0  0  0  0  0  0  0  0  0  0
    2.2022   -4.1279    2.3351 H   0  0  0  0  0  0  0  0  0  0  0  0
    2.4923   -4.0612   -0.4618 C   0  0  0  0  0  0  0  0  0  0  0  0
    2.3998   -5.0972   -0.0818 H   0  0  0  0  0  0  0  0  0  0  0  0
    3.1147   -4.0812   -1.3774 H   0  0  0  0  0  0  0  0  0  0  0  0
    1.4789   -3.7049   -0.7423 H   0  0  0  0  0  0  0  0  0  0  0  0
    3.1109   -3.1640    0.6124 C   0  0  0  0  0  0  0  0  0  0  0  0
    4.1172   -3.5585    0.8557 H   0  0  0  0  0  0  0  0  0  0  0  0
  1  7  1  0  0  0  0
  2 10  1  0  0  0  0
  3 19  1  0  0  0  0
  3  1  1  0  0  0  0
  4  3  1  0  0  0  0
  4  2  1  0  0  0  0
  5  4  1  0  0  0  0
  6  4  1  0  0  0  0
  7 37  1  0  0  0  0
  8 26  2  0  0  0  0
  9  8  1  0  0  0  0
 10 11  1  0  0  0  0
 10 15  2  0  0  0  0
 12  2  2  0  0  0  0
 12  8  1  0  0  0  0
 13 17  2  0  0  0  0
 13 19  1  0  0  0  0
 14 13  1  0  0  0  0
 15 16  1  0  0  0  0
 17 20  1  0  0  0  0
 18 17  1  0  0  0  0
 19 25  2  0  0  0  0
 20 21  1  0  0  0  0
 20 23  2  0  0  0  0
 22 28  3  0  0  0  0
 23 24  1  0  0  0  0
 25  7  1  0  0  0  0
 25 23  1  0  0  0  0
 26 15  1  0  0  0  0
 26 27  1  0  0  0  0
 28 12  1  0  0  0  0
 29 32  1  0  0  0  0
 29 31  1  0  0  0  0
 30 29  1  0  0  0  0
 33 34  1  0  0  0  0
 33 37  1  0  0  0  0
 35 33  1  0  0  0  0
 36 33  1  0  0  0  0
 37 38  1  0  0  0  0
 37 29  1  0  0  0  0
M  END
