2
q = 0.0, confidence = 0.954

 28 27  0  0  0  0  0  0  0  0999 V2000
   -2.2751    1.0974   -1.4901 C   0  0  0  0  0  3  0  0  0  0  0  0
   -1.1712    1.7687   -0.9171 C   0  0  0  0  0  3  0  0  0  0  0  0
   -0.4069    2.8491   -0.6323 C   0  0  0  0  0  0  0  0  0  0  0  0
    0.6452    2.5333    0.3441 C   0  0  0  0  0  0  0  0  0  0  0  0
    1.4238    3.3113    0.8905 O   0  0  0  0  0  0  0  0  0  0  0  0
    0.6928    1.0360    0.6429 C   0  0  0  0  0  3  0  0  0  0  0  0
    1.2396    0.1464   -0.3420 C   0  0  0  0  0  3  0  0  0  0  0  0
    2.1696   -0.9904    0.0136 C   0  0  0  0  0  0  0  0  0  0  0  0
    3.6743   -0.5893    0.1116 C   0  0  0  0  0  0  0  0  0  0  0  0
    3.8978    0.4260    1.2477 C   0  0  0  0  0  0  0  0  0  0  0  0
    4.4714   -1.8723    0.4097 C   0  0  0  0  0  0  0  0  0  0  0  0
    4.1618    0.0108   -1.2200 C   0  0  0  0  0  0  0  0  0  0  0  0
   -3.2911    1.3287   -1.1171 H   0  0  0  0  0  0  0  0  0  0  0  0
   -2.2602    0.8205   -2.5591 H   0  0  0  0  0  0  0  0  0  0  0  0
   -0.5368    3.8673   -1.0312 H   0  0  0  0  0  0  0  0  0  0  0  0
    0.9412    0.8021    1.6929 H   0  0  0  0  0  0  0  0  0  0  0  0
    1.4381    0.6020   -1.3279 H   0  0  0  0  0  0  0  0  0  0  0  0
    2.0772   -1.7930   -0.7497 H   0  0  0  0  0  0  0  0  0  0  0  0
    1.8645   -1.4368    0.9838 H   0  0  0  0  0  0  0  0  0  0  0  0
    3.3546    1.3779    1.0811 H   0  0  0  0  0  0  0  0  0  0  0  0
    3.5635    0.0133    2.2231 H   0  0  0  0  0  0  0  0  0  0  0  0
    4.9768    0.6671    1.3418 H   0  0  0  0  0  0  0  0  0  0  0  0
    4.3462   -2.6219   -0.3992 H   0  0  0  0  0  0  0  0  0  0  0  0
    5.5546   -1.6521    0.5039 H   0  0  0  0  0  0  0  0  0  0  0  0
    4.1386   -2.3399    1.3599 H   0  0  0  0  0  0  0  0  0  0  0  0
    3.9623   -0.6751   -2.0698 H   0  0  0  0  0  0  0  0  0  0  0  0
    3.6724    0.9810   -1.4387 H   0  0  0  0  0  0  0  0  0  0  0  0
    5.2549    0.1961   -1.1843 H   0  0  0  0  0  0  0  0  0  0  0  0
  1 13  1  0  0  0  0
  1  2  1  0  0  0  0
  2  3  2  0  0  0  0
  3  4  1  0  0  0  0
  4  6  1  0  0  0  0
  4  5  2  0  0  0  0
  6 16  1  0  0  0  0
  7  8  1  0  0  0  0
  7  6  1  0  0  0  0
  8  9  1  0  0  0  0
  8 19  1  0  0  0  0
  9 11  1  0  0  0  0
  9 10  1  0  0  0  0
 10 22  1  0  0  0  0
 10 21  1  0  0  0  0
 11 24  1  0  0  0  0
 11 25  1  0  0  0  0
 12 28  1  0  0  0  0
 12  9  1  0  0  0  0
 14  1  1  0  0  0  0
 15  3  1  0  0  0  0
 17  7  1  0  0  0  0
 18  8  1  0  0  0  0
 20 10  1  0  0  0  0
 23 11  1  0  0  0  0
 26 12  1  0  0  0  0
 27 12  1  0  0  0  0
M  END
