2
q = -1.0, confidence = 0.032

 40 40  0  0  1  0  0  0  0  0999 V2000
    1.9606    1.0998   -1.6419 C   0  0  0  0  0  3  0  0  0  0  0  0
    0.7718    1.2742   -0.8576 C   0  0  1  0  0  3  0  0  0  0  0  0
   -0.1150    0.1395   -0.9012 C   0  0  0  0  0  3  0  0  0  0  0  0
   -1.4661   -0.0183   -0.2329 C   0  0  1  0  0  0  0  0  0  0  0  0
   -2.6221    0.5702   -1.1156 C   0  0  1  0  0  0  0  0  0  0  0  0
   -3.9972    0.3142   -0.4813 C   0  0  0  0  0  0  0  0  0  0  0  0
   -4.2627   -1.1673   -0.2048 C   0  0  1  0  0  0  0  0  0  0  0  0
   -3.1305   -1.7452    0.6727 C   0  0  0  0  0  0  0  0  0  0  0  0
   -1.7600   -1.5054    0.0404 C   0  0  0  0  0  0  0  0  0  0  0  0
    0.6992    2.4879    0.0155 C   0  0  0  0  0  0  0  0  0  0  0  0
   -0.4445    3.6025    1.7478 C   0  0  0  0  0  0  0  0  0  0  0  0
   -2.3634    2.0440   -1.4571 C   0  0  0  0  0  0  0  0  0  0  0  0
   -3.0804    3.1117   -0.6533 C   0  0  0  0  0  0  0  0  0  0  0  0
   -5.6074   -1.3755    0.4999 C   0  0  0  0  0  0  0  0  0  0  0  0
   -6.2794   -2.7202    0.2937 C   0  0  0  0  0  0  0  0  0  0  0  0
   -0.3752    2.4865    0.8531 O   0  0  0  0  0  0  0  0  0  0  0  0
    1.5093    3.3974   -0.0117 O   0  0  0  0  0  0  0  0  0  0  0  0
   -1.5959    2.3367   -2.3635 O   0  0  0  0  0  0  0  0  0  0  0  0
   -6.1003   -0.5057    1.2021 O   0  0  0  0  0  0  0  0  0  0  0  0
    2.7125    1.9007   -1.6109 H   0  0  0  0  0  0  0  0  0  0  0  0
    1.8530    0.5771   -2.6063 H   0  0  0  0  0  0  0  0  0  0  0  0
   -0.0842   -0.3691   -1.8847 H   0  0  0  0  0  0  0  0  0  0  0  0
   -1.4686    0.5212    0.7340 H   0  0  0  0  0  0  0  0  0  0  0  0
   -2.5637    0.0448   -2.0954 H   0  0  0  0  0  0  0  0  0  0  0  0
   -4.7970    0.7190   -1.1362 H   0  0  0  0  0  0  0  0  0  0  0  0
   -4.0942    0.8533    0.4834 H   0  0  0  0  0  0  0  0  0  0  0  0
   -4.2728   -1.7377   -1.1618 H   0  0  0  0  0  0  0  0  0  0  0  0
   -3.2850   -2.8306    0.8484 H   0  0  0  0  0  0  0  0  0  0  0  0
   -3.1715   -1.2520    1.6686 H   0  0  0  0  0  0  0  0  0  0  0  0
   -0.9658   -1.9049    0.7021 H   0  0  0  0  0  0  0  0  0  0  0  0
   -1.6886   -2.0687   -0.9183 H   0  0  0  0  0  0  0  0  0  0  0  0
   -1.3438    3.4409    2.3686 H   0  0  0  0  0  0  0  0  0  0  0  0
   -0.5249    4.5545    1.1860 H   0  0  0  0  0  0  0  0  0  0  0  0
    0.4605    3.6479    2.3859 H   0  0  0  0  0  0  0  0  0  0  0  0
   -4.1510    3.1432   -0.9468 H   0  0  0  0  0  0  0  0  0  0  0  0
   -2.6226    4.0950   -0.8631 H   0  0  0  0  0  0  0  0  0  0  0  0
   -3.0561    2.8945    0.4318 H   0  0  0  0  0  0  0  0  0  0  0  0
   -7.1136   -2.8444    1.0076 H   0  0  0  0  0  0  0  0  0  0  0  0
   -5.5578   -3.5566    0.3923 H   0  0  0  0  0  0  0  0  0  0  0  0
   -6.6788   -2.7682   -0.7421 H   0  0  0  0  0  0  0  0  0  0  0  0
  1 20  1  0  0  0  0
  2  1  1  1  0  0  0
  2 10  1  0  0  0  0
  3  2  1  0  0  0  0
  3  4  1  0  0  0  0
  4  9  1  0  0  0  0
  4 23  1  1  0  0  0
  5 24  1  6  0  0  0
  5  6  1  0  0  0  0
  5  4  1  0  0  0  0
  6  7  1  0  0  0  0
  6 26  1  0  0  0  0
  7 27  1  6  0  0  0
  7 14  1  0  0  0  0
  7  8  1  0  0  0  0
  8 28  1  0  0  0  0
  8 29  1  0  0  0  0
  9  8  1  0  0  0  0
  9 30  1  0  0  0  0
 10 16  1  0  0  0  0
 11 32  1  0  0  0  0
 11 34  1  0  0  0  0
 12  5  1  0  0  0  0
 12 13  1  0  0  0  0
 13 37  1  0  0  0  0
 14 19  2  0  0  0  0
 15 39  1  0  0  0  0
 15 14  1  0  0  0  0
 15 38  1  0  0  0  0
 16 11  1  0  0  0  0
 17 10  2  0  0  0  0
 18 12  2  0  0  0  0
 21  1  1  0  0  0  0
 22  3  1  0  0  0  0
 25  6  1  0  0  0  0
 31  9  1  0  0  0  0
 33 11  1  0  0  0  0
 35 13  1  0  0  0  0
 36 13  1  0  0  0  0
 40 15  1  0  0  0  0
M  END
