1
q = -1.0, confidence = 0.006

 40 40  0  0  1  0  0  0  0  0999 V2000
    1.1170    0.4178   -1.9026 C   0  0  0  0  0  3  0  0  0  0  0  0
    0.5809    1.1385   -0.7802 C   0  0  1  0  0  3  0  0  0  0  0  0
   -0.5273    0.4760   -0.1432 C   0  0  0  0  0  3  0  0  0  0  0  0
   -1.3436    1.0264    1.0149 C   0  0  1  0  0  0  0  0  0  0  0  0
   -2.6098    1.7879    0.4795 C   0  0  2  0  0  0  0  0  0  0  0  0
   -3.5529    0.8322   -0.2654 C   0  0  0  0  0  0  0  0  0  0  0  0
   -3.9592   -0.4120    0.5694 C   0  0  2  0  0  0  0  0  0  0  0  0
   -2.7756   -1.0593    1.3057 C   0  0  0  0  0  0  0  0  0  0  0  0
   -1.8541   -0.0530    1.9878 C   0  0  0  0  0  0  0  0  0  0  0  0
    1.2576    2.3528   -0.2304 C   0  0  0  0  0  0  0  0  0  0  0  0
    3.0932    3.8076   -0.4859 C   0  0  0  0  0  0  0  0  0  0  0  0
   -2.2051    2.9614   -0.4203 C   0  0  0  0  0  0  0  0  0  0  0  0
   -1.9893    4.2968    0.2575 C   0  0  0  0  0  0  0  0  0  0  0  0
   -4.5940   -1.4149   -0.4033 C   0  0  0  0  0  0  0  0  0  0  0  0
   -6.0919   -1.3237   -0.6009 C   0  0  0  0  0  0  0  0  0  0  0  0
    0.9073    2.9965    0.7511 O   0  0  0  0  0  0  0  0  0  0  0  0
    2.3342    2.6998   -0.9785 O   0  0  0  0  0  0  0  0  0  0  0  0
   -2.0403    2.8035   -1.6227 O   0  0  0  0  0  0  0  0  0  0  0  0
   -3.9092   -2.2246   -1.0153 O   0  0  0  0  0  0  0  0  0  0  0  0
    0.3861   -0.0916   -2.5528 H   0  0  0  0  0  0  0  0  0  0  0  0
    2.0043    0.8168   -2.4108 H   0  0  0  0  0  0  0  0  0  0  0  0
   -1.1200   -0.1156   -0.8620 H   0  0  0  0  0  0  0  0  0  0  0  0
   -0.7161    1.7440    1.5736 H   0  0  0  0  0  0  0  0  0  0  0  0
   -3.1236    2.1955    1.3777 H   0  0  0  0  0  0  0  0  0  0  0  0
   -3.0557    0.5208   -1.2062 H   0  0  0  0  0  0  0  0  0  0  0  0
   -4.4641    1.3824   -0.5805 H   0  0  0  0  0  0  0  0  0  0  0  0
   -4.7240   -0.0855    1.3086 H   0  0  0  0  0  0  0  0  0  0  0  0
   -2.2009   -1.6451    0.5648 H   0  0  0  0  0  0  0  0  0  0  0  0
   -3.1628   -1.7950    2.0419 H   0  0  0  0  0  0  0  0  0  0  0  0
   -2.3885    0.4557    2.8200 H   0  0  0  0  0  0  0  0  0  0  0  0
   -0.9928   -0.5784    2.4454 H   0  0  0  0  0  0  0  0  0  0  0  0
    2.4629    4.7162   -0.4094 H   0  0  0  0  0  0  0  0  0  0  0  0
    3.5082    3.5836    0.5177 H   0  0  0  0  0  0  0  0  0  0  0  0
    3.9113    3.9625   -1.2113 H   0  0  0  0  0  0  0  0  0  0  0  0
   -2.8979    4.6050    0.8151 H   0  0  0  0  0  0  0  0  0  0  0  0
   -1.1613    4.1997    0.9898 H   0  0  0  0  0  0  0  0  0  0  0  0
   -1.7243    5.0622   -0.4942 H   0  0  0  0  0  0  0  0  0  0  0  0
   -6.6044   -1.6277    0.3367 H   0  0  0  0  0  0  0  0  0  0  0  0
   -6.3985   -0.2758   -0.7994 H   0  0  0  0  0  0  0  0  0  0  0  0
   -6.4148   -1.9808   -1.4284 H   0  0  0  0  0  0  0  0  0  0  0  0
  2  1  1  1  0  0  0
  2 10  1  0  0  0  0
  2  3  1  0  0  0  0
  3  4  1  0  0  0  0
  4 23  1  1  0  0  0
  4  9  1  0  0  0  0
  5  4  1  0  0  0  0
  5 24  1  1  0  0  0
  6  5  1  0  0  0  0
  6  7  1  0  0  0  0
  7  8  1  0  0  0  0
  7 27  1  1  0  0  0
  8  9  1  0  0  0  0
  8 29  1  0  0  0  0
  9 31  1  0  0  0  0
  9 30  1  0  0  0  0
 10 16  2  0  0  0  0
 11 32  1  0  0  0  0
 11 33  1  0  0  0  0
 12 13  1  0  0  0  0
 12  5  1  0  0  0  0
 13 35  1  0  0  0  0
 13 36  1  0  0  0  0
 14  7  1  0  0  0  0
 15 14  1  0  0  0  0
 15 38  1  0  0  0  0
 17 11  1  0  0  0  0
 17 10  1  0  0  0  0
 18 12  2  0  0  0  0
 19 14  2  0  0  0  0
 20  1  1  0  0  0  0
 21  1  1  0  0  0  0
 22  3  1  0  0  0  0
 25  6  1  0  0  0  0
 26  6  1  0  0  0  0
 28  8  1  0  0  0  0
 34 11  1  0  0  0  0
 37 13  1  0  0  0  0
 39 15  1  0  0  0  0
 40 15  1  0  0  0  0
M  END
