3
q = -1.0, confidence = 0.0

 22 22  0  0  0  0  0  0  0  0999 V2000
    1.1262    0.5072   -0.4736 N   0  0  0  0  0  2  0  0  0  0  0  0
    0.6180    2.5978    0.6495 N   0  0  0  0  0  0  0  0  0  0  0  0
    0.4251    1.3523    0.2207 C   0  0  0  0  0  2  0  0  0  0  0  0
    1.8338    3.3550    0.3523 C   0  0  0  0  0  0  0  0  0  0  0  0
   -0.4246    3.2893    1.3957 C   0  0  0  0  0  0  0  0  0  0  0  0
    2.4402    0.0391   -0.4970 C   0  0  0  0  0  0  0  0  0  0  0  0
    2.8318   -0.8148   -1.5530 C   0  0  0  0  0  0  0  0  0  0  0  0
    4.1350   -1.3227   -1.6030 C   0  0  0  0  0  0  0  0  0  0  0  0
    5.0658   -0.9900   -0.6035 C   0  0  0  0  0  0  0  0  0  0  0  0
    4.6789   -0.1508    0.4544 C   0  0  0  0  0  0  0  0  0  0  0  0
    3.3742    0.3562    0.5194 C   0  0  0  0  0  0  0  0  0  0  0  0
    2.4534    2.8058   -0.3778 H   0  0  0  0  0  0  0  0  0  0  0  0
    1.5600    4.3411   -0.0758 H   0  0  0  0  0  0  0  0  0  0  0  0
    2.4307    3.5297    1.2723 H   0  0  0  0  0  0  0  0  0  0  0  0
   -1.3076    2.6304    1.4658 H   0  0  0  0  0  0  0  0  0  0  0  0
   -0.0757    3.5447    2.4186 H   0  0  0  0  0  0  0  0  0  0  0  0
   -0.7070    4.2329    0.8830 H   0  0  0  0  0  0  0  0  0  0  0  0
    2.0916   -1.0712   -2.3256 H   0  0  0  0  0  0  0  0  0  0  0  0
    4.4304   -1.9833   -2.4318 H   0  0  0  0  0  0  0  0  0  0  0  0
    6.0896   -1.3890   -0.6457 H   0  0  0  0  0  0  0  0  0  0  0  0
    5.3992    0.1045    1.2461 H   0  0  0  0  0  0  0  0  0  0  0  0
    3.0678    0.9893    1.3650 H   0  0  0  0  0  0  0  0  0  0  0  0
  1  3  1  0  0  0  0
  2  5  1  0  0  0  0
  3  2  1  0  0  0  0
  4  2  1  0  0  0  0
  4 14  1  0  0  0  0
  5 15  1  0  0  0  0
  5 16  1  0  0  0  0
  6  1  1  0  0  0  0
  6 11  1  0  0  0  0
  7  6  2  0  0  0  0
  8  7  1  0  0  0  0
  8  9  2  0  0  0  0
  9 10  1  0  0  0  0
 10 11  2  0  0  0  0
 10 21  1  0  0  0  0
 11 22  1  0  0  0  0
 12  4  1  0  0  0  0
 13  4  1  0  0  0  0
 17  5  1  0  0  0  0
 18  7  1  0  0  0  0
 19  8  1  0  0  0  0
 20  9  1  0  0  0  0
M  END
