3
q = 0.0, confidence = 0.996

 36 36  0  0  0  0  0  0  0  0999 V2000
   -2.9893   -0.2466   -0.0644 C   0  0  0  0  0  0  0  0  0  0  0  0
   -3.0862    0.7196   -1.1147 C   0  0  0  0  0  3  0  0  0  0  0  0
   -2.3741    1.9465   -1.0426 C   0  0  0  0  0  3  0  0  0  0  0  0
   -1.5871    2.3089    0.1040 C   0  0  0  0  0  0  0  0  0  0  0  0
   -1.4431    1.3127    1.1012 C   0  0  0  0  0  0  0  0  0  0  0  0
   -2.1388    0.0666    1.0284 C   0  0  0  0  0  0  0  0  0  0  0  0
   -3.8294   -1.5347   -0.0433 C   0  0  0  0  0  0  0  0  0  0  0  0
   -3.0219   -2.7384    0.4837 C   0  0  0  0  0  0  0  0  0  0  0  0
   -4.3909   -1.8878   -1.4330 C   0  0  0  0  0  0  0  0  0  0  0  0
   -5.0131   -1.2565    0.9157 C   0  0  0  0  0  0  0  0  0  0  0  0
   -1.0371    3.7352    0.2569 C   0  0  0  0  0  0  0  0  0  0  0  0
   -0.1280    3.8713    1.4910 C   0  0  0  0  0  0  0  0  0  0  0  0
   -0.2515    4.1843   -0.9898 C   0  0  0  0  0  0  0  0  0  0  0  0
   -2.2653    4.6594    0.4454 C   0  0  0  0  0  0  0  0  0  0  0  0
   -3.6706    0.5027   -2.0164 H   0  0  0  0  0  0  0  0  0  0  0  0
   -2.4553    2.6457   -1.8863 H   0  0  0  0  0  0  0  0  0  0  0  0
   -0.7972    1.5035    1.9678 H   0  0  0  0  0  0  0  0  0  0  0  0
   -1.9844   -0.6693    1.8259 H   0  0  0  0  0  0  0  0  0  0  0  0
   -2.1686   -2.9738   -0.1790 H   0  0  0  0  0  0  0  0  0  0  0  0
   -3.6775   -3.6316    0.5302 H   0  0  0  0  0  0  0  0  0  0  0  0
   -2.6237   -2.5740    1.5040 H   0  0  0  0  0  0  0  0  0  0  0  0
   -3.5835   -2.0452   -2.1734 H   0  0  0  0  0  0  0  0  0  0  0  0
   -5.0770   -1.1057   -1.8152 H   0  0  0  0  0  0  0  0  0  0  0  0
   -4.9757   -2.8271   -1.3661 H   0  0  0  0  0  0  0  0  0  0  0  0
   -4.6559   -1.0402    1.9427 H   0  0  0  0  0  0  0  0  0  0  0  0
   -5.6851   -2.1381    0.9626 H   0  0  0  0  0  0  0  0  0  0  0  0
   -5.6095   -0.3866    0.5731 H   0  0  0  0  0  0  0  0  0  0  0  0
   -0.6791    3.6741    2.4327 H   0  0  0  0  0  0  0  0  0  0  0  0
    0.2655    4.9058    1.5511 H   0  0  0  0  0  0  0  0  0  0  0  0
    0.7396    3.1863    1.4401 H   0  0  0  0  0  0  0  0  0  0  0  0
   -0.8419    4.0849   -1.9212 H   0  0  0  0  0  0  0  0  0  0  0  0
    0.6696    3.5867   -1.1135 H   0  0  0  0  0  0  0  0  0  0  0  0
    0.0373    5.2505   -0.8892 H   0  0  0  0  0  0  0  0  0  0  0  0
   -1.9368    5.7082    0.5971 H   0  0  0  0  0  0  0  0  0  0  0  0
   -2.8628    4.3534    1.3280 H   0  0  0  0  0  0  0  0  0  0  0  0
   -2.9321    4.6365   -0.4400 H   0  0  0  0  0  0  0  0  0  0  0  0
  1  7  1  0  0  0  0
  1  6  2  0  0  0  0
  2  3  1  0  0  0  0
  2  1  1  0  0  0  0
  3  4  1  0  0  0  0
  4 11  1  0  0  0  0
  4  5  2  0  0  0  0
  5 17  1  0  0  0  0
  6  5  1  0  0  0  0
  6 18  1  0  0  0  0
  7  8  1  0  0  0  0
  7 10  1  0  0  0  0
  8 20  1  0  0  0  0
  8 21  1  0  0  0  0
  9 24  1  0  0  0  0
  9  7  1  0  0  0  0
 10 26  1  0  0  0  0
 10 25  1  0  0  0  0
 11 14  1  0  0  0  0
 11 12  1  0  0  0  0
 12 29  1  0  0  0  0
 12 28  1  0  0  0  0
 13 33  1  0  0  0  0
 13 11  1  0  0  0  0
 14 34  1  0  0  0  0
 14 35  1  0  0  0  0
 15  2  1  0  0  0  0
 16  3  1  0  0  0  0
 19  8  1  0  0  0  0
 22  9  1  0  0  0  0
 23  9  1  0  0  0  0
 27 10  1  0  0  0  0
 30 12  1  0  0  0  0
 31 13  1  0  0  0  0
 32 13  1  0  0  0  0
 36 14  1  0  0  0  0
M  END
