10
q = -1.0, confidence = 0.0

 23 24  0  0  0  0  0  0  0  0999 V2000
   -1.1266   -0.5709   -0.2293 C   0  0  0  0  0  0  0  0  0  0  0  0
   -1.7311    0.7935   -0.0354 C   0  0  0  0  0  0  0  0  0  0  0  0
   -1.2982    1.4960   -0.7761 H   0  0  0  0  0  0  0  0  0  0  0  0
   -1.4751    1.1805    0.9715 H   0  0  0  0  0  0  0  0  0  0  0  0
   -3.2430    0.7321   -0.1794 C   0  0  0  0  0  0  0  0  0  0  0  0
   -3.8395    0.6601   -1.4536 C   0  0  0  0  0  0  0  0  0  0  0  0
   -3.2105    0.6866   -2.3577 H   0  0  0  0  0  0  0  0  0  0  0  0
   -0.5167   -1.0650   -1.4221 C   0  0  0  0  0  0  0  0  0  0  0  0
   -0.3452   -0.4748   -2.3320 H   0  0  0  0  0  0  0  0  0  0  0  0
   -0.5656   -2.8166    0.0980 C   0  0  0  0  0  3  0  0  0  0  0  0
   -0.5057   -3.8209    0.5344 H   0  0  0  0  0  0  0  0  0  0  0  0
   -0.1668   -2.4437   -1.2348 C   0  0  0  0  0  3  0  0  0  0  0  0
    0.2520   -3.1146   -1.9947 H   0  0  0  0  0  0  0  0  0  0  0  0
   -7.7637    0.4075   -0.6140 Cl  0  0  0  0  0  0  0  0  0  0  0  0
   -1.1313   -1.6498    0.7250 C   0  0  0  0  0  3  0  0  0  0  0  0
   -1.5859   -1.6136    1.7229 H   0  0  0  0  0  0  0  0  0  0  0  0
   -6.0393    0.5293   -0.4474 C   0  0  0  0  0  0  0  0  0  0  0  0
   -5.2286    0.5618   -1.5961 C   0  0  0  0  0  0  0  0  0  0  0  0
   -5.6932    0.5132   -2.5907 H   0  0  0  0  0  0  0  0  0  0  0  0
   -4.0731    0.6978    0.9568 C   0  0  0  0  0  0  0  0  0  0  0  0
   -3.6287    0.7598    1.9632 H   0  0  0  0  0  0  0  0  0  0  0  0
   -5.4654    0.5990    0.8332 C   0  0  0  0  0  0  0  0  0  0  0  0
   -6.1121    0.5803    1.7214 H   0  0  0  0  0  0  0  0  0  0  0  0
  1  2  1  0  0  0  0
  1 15  1  0  0  0  0
  2  4  1  0  0  0  0
  3  2  1  0  0  0  0
  5  2  1  0  0  0  0
  5 20  1  0  0  0  0
  6  5  2  0  0  0  0
  7  6  1  0  0  0  0
  8 12  1  0  0  0  0
  8  1  2  0  0  0  0
  9  8  1  0  0  0  0
 10 11  1  0  0  0  0
 10 15  1  0  0  0  0
 12 10  1  0  0  0  0
 13 12  1  0  0  0  0
 14 17  1  0  0  0  0
 15 16  1  0  0  0  0
 17 22  1  0  0  0  0
 18  6  1  0  0  0  0
 18 17  2  0  0  0  0
 19 18  1  0  0  0  0
 20 21  1  0  0  0  0
 22 20  2  0  0  0  0
 22 23  1  0  0  0  0
M  END
