3
q = 0.0, confidence = 0.99

 57 60  0  0  1  0  0  0  0  0999 V2000
    1.3835   -1.8126    0.2797 N   0  0  0  0  0  0  0  0  0  0  0  0
   -0.7909   -2.1378    0.3364 N   0  0  0  0  0  0  0  0  0  0  0  0
    0.1663   -1.1795    0.1617 C   0  0  0  0  0  2  0  0  0  0  0  0
    1.2879   -3.2311    0.6658 C   0  0  2  0  0  0  0  0  0  0  0  0
    1.7207   -3.3544    1.6806 H   0  0  0  0  0  0  0  0  0  0  0  0
    2.0509   -4.1708   -0.2923 C   0  0  0  0  0  0  0  0  0  0  0  0
    3.0551   -3.7430   -0.4851 H   0  0  0  0  0  0  0  0  0  0  0  0
    2.2302   -5.1264    0.2527 H   0  0  0  0  0  0  0  0  0  0  0  0
    1.2985   -4.4539   -1.5632 C   0  0  0  0  0  0  0  0  0  0  0  0
    1.8463   -4.5026   -2.5169 H   0  0  0  0  0  0  0  0  0  0  0  0
   -0.0313   -4.6675   -1.5158 C   0  0  0  0  0  0  0  0  0  0  0  0
   -0.5986   -4.9055   -2.4293 H   0  0  0  0  0  0  0  0  0  0  0  0
   -0.7501   -4.6067   -0.1955 C   0  0  0  0  0  0  0  0  0  0  0  0
   -1.8472   -4.5083   -0.3214 H   0  0  0  0  0  0  0  0  0  0  0  0
   -0.5944   -5.5604    0.3597 H   0  0  0  0  0  0  0  0  0  0  0  0
   -0.2484   -3.4630    0.7116 C   0  0  2  0  0  0  0  0  0  0  0  0
   -0.5689   -3.6900    1.7508 H   0  0  0  0  0  0  0  0  0  0  0  0
    2.6370   -1.1201    0.2157 C   0  0  0  0  0  0  0  0  0  0  0  0
    3.2867   -0.7344    1.4214 C   0  0  0  0  0  0  0  0  0  0  0  0
    4.4590    0.0329    1.3312 C   0  0  0  0  0  0  0  0  0  0  0  0
    4.9478    0.3574    2.2640 H   0  0  0  0  0  0  0  0  0  0  0  0
    5.0146    0.4092    0.0941 C   0  0  0  0  0  0  0  0  0  0  0  0
    4.4021   -0.0673   -1.0754 C   0  0  0  0  0  0  0  0  0  0  0  0
    4.8492    0.1688   -2.0547 H   0  0  0  0  0  0  0  0  0  0  0  0
    3.2319   -0.8500   -1.0450 C   0  0  0  0  0  0  0  0  0  0  0  0
    2.7843   -1.1729    2.7716 C   0  0  0  0  0  0  0  0  0  0  0  0
    3.2038   -2.1685    3.0371 H   0  0  0  0  0  0  0  0  0  0  0  0
    1.6817   -1.2284    2.8002 H   0  0  0  0  0  0  0  0  0  0  0  0
    3.0976   -0.4604    3.5576 H   0  0  0  0  0  0  0  0  0  0  0  0
    6.2196    1.3124    0.0301 C   0  0  0  0  0  0  0  0  0  0  0  0
    6.8998    1.1525    0.8901 H   0  0  0  0  0  0  0  0  0  0  0  0
    5.9087    2.3796    0.0561 H   0  0  0  0  0  0  0  0  0  0  0  0
    6.7960    1.1633   -0.9040 H   0  0  0  0  0  0  0  0  0  0  0  0
    2.7191   -1.4453   -2.3295 C   0  0  0  0  0  0  0  0  0  0  0  0
    3.3711   -2.2958   -2.6269 H   0  0  0  0  0  0  0  0  0  0  0  0
    2.7400   -0.7010   -3.1466 H   0  0  0  0  0  0  0  0  0  0  0  0
    1.6821   -1.8098   -2.2431 H   0  0  0  0  0  0  0  0  0  0  0  0
   -2.2006   -1.9166    0.3360 C   0  0  0  0  0  0  0  0  0  0  0  0
   -2.8613   -1.7007    1.5712 C   0  0  0  0  0  0  0  0  0  0  0  0
   -4.2502   -1.4844    1.5515 C   0  0  0  0  0  0  0  0  0  0  0  0
   -4.7707   -1.3015    2.5055 H   0  0  0  0  0  0  0  0  0  0  0  0
   -4.9841   -1.4650    0.3496 C   0  0  0  0  0  0  0  0  0  0  0  0
   -4.2882   -1.6504   -0.8587 C   0  0  0  0  0  0  0  0  0  0  0  0
   -4.8401   -1.6058   -1.8116 H   0  0  0  0  0  0  0  0  0  0  0  0
   -2.8980   -1.8700   -0.8955 C   0  0  0  0  0  0  0  0  0  0  0  0
   -2.0809   -1.5958    2.8554 C   0  0  0  0  0  0  0  0  0  0  0  0
   -2.7441   -1.3257    3.6987 H   0  0  0  0  0  0  0  0  0  0  0  0
   -1.2906   -0.8184    2.7706 H   0  0  0  0  0  0  0  0  0  0  0  0
   -1.5746   -2.5471    3.1236 H   0  0  0  0  0  0  0  0  0  0  0  0
   -6.4786   -1.2615    0.3617 C   0  0  0  0  0  0  0  0  0  0  0  0
   -7.0097   -2.2262    0.5128 H   0  0  0  0  0  0  0  0  0  0  0  0
   -6.8414   -0.8356   -0.5943 H   0  0  0  0  0  0  0  0  0  0  0  0
   -6.7922   -0.5880    1.1839 H   0  0  0  0  0  0  0  0  0  0  0  0
   -2.1654   -1.9355   -2.2064 C   0  0  0  0  0  0  0  0  0  0  0  0
   -2.8563   -2.1532   -3.0430 H   0  0  0  0  0  0  0  0  0  0  0  0
   -1.3585   -2.6921   -2.1969 H   0  0  0  0  0  0  0  0  0  0  0  0
   -1.6558   -0.9684   -2.4141 H   0  0  0  0  0  0  0  0  0  0  0  0
  1  4  1  0  0  0  0
  2 16  1  0  0  0  0
  3  1  1  0  0  0  0
  3  2  1  0  0  0  0
  4 16  1  0  0  0  0
  4  5  1  1  0  0  0
  6  8  1  0  0  0  0
  6  4  1  0  0  0  0
  7  6  1  0  0  0  0
  9 11  2  0  0  0  0
  9  6  1  0  0  0  0
 10  9  1  0  0  0  0
 11 13  1  0  0  0  0
 12 11  1  0  0  0  0
 13 15  1  0  0  0  0
 13 16  1  0  0  0  0
 14 13  1  0  0  0  0
 16 17  1  1  0  0  0
 18  1  1  0  0  0  0
 18 19  1  0  0  0  0
 19 26  1  0  0  0  0
 20 19  2  0  0  0  0
 20 21  1  0  0  0  0
 22 20  1  0  0  0  0
 23 25  1  0  0  0  0
 23 22  2  0  0  0  0
 24 23  1  0  0  0  0
 25 18  2  0  0  0  0
 26 28  1  0  0  0  0
 26 27  1  0  0  0  0
 26 29  1  0  0  0  0
 30 32  1  0  0  0  0
 30 22  1  0  0  0  0
 30 31  1  0  0  0  0
 33 30  1  0  0  0  0
 34 37  1  0  0  0  0
 34 25  1  0  0  0  0
 35 34  1  0  0  0  0
 36 34  1  0  0  0  0
 38  2  1  0  0  0  0
 38 39  1  0  0  0  0
 39 46  1  0  0  0  0
 40 39  2  0  0  0  0
 40 41  1  0  0  0  0
 42 50  1  0  0  0  0
 42 40  1  0  0  0  0
 43 42  2  0  0  0  0
 44 43  1  0  0  0  0
 45 43  1  0  0  0  0
 45 38  2  0  0  0  0
 46 49  1  0  0  0  0
 46 47  1  0  0  0  0
 48 46  1  0  0  0  0
 50 51  1  0  0  0  0
 50 53  1  0  0  0  0
 52 50  1  0  0  0  0
 54 56  1  0  0  0  0
 54 45  1  0  0  0  0
 55 54  1  0  0  0  0
 57 54  1  0  0  0  0
M  END
