1
q = 0.0, confidence = 0.994

 53 54  0  0  0  0  0  0  0  0999 V2000
    0.8376   -0.8755    1.2921 C   0  0  0  0  0  2  0  0  0  0  0  0
   -0.6395   -0.8543    1.2077 C   0  0  0  0  0  0  0  0  0  0  0  0
   -1.4307    0.1964    0.8019 C   0  0  0  0  0  0  0  0  0  0  0  0
   -0.8591    1.5492    0.6333 C   0  0  0  0  0  0  0  0  0  0  0  0
   -1.2378    2.3739   -0.4534 C   0  0  0  0  0  0  0  0  0  0  0  0
   -0.5939    3.5804   -0.7237 C   0  0  0  0  0  0  0  0  0  0  0  0
    0.4717    4.0453    0.0999 C   0  0  0  0  0  0  0  0  0  0  0  0
    0.8026    3.2572    1.2378 C   0  0  0  0  0  0  0  0  0  0  0  0
    0.1534    2.0492    1.4874 C   0  0  0  0  0  0  0  0  0  0  0  0
    1.1581    5.2085   -0.1900 N   0  0  0  0  0  0  0  0  0  0  0  0
    0.8192    5.9719   -1.3730 C   0  0  0  0  0  0  0  0  0  0  0  0
    2.3693    5.5234    0.5429 C   0  0  0  0  0  0  0  0  0  0  0  0
   -2.8530   -0.0354    0.4705 C   0  0  0  0  0  0  0  0  0  0  0  0
   -3.2811   -1.2373   -0.1404 C   0  0  0  0  0  0  0  0  0  0  0  0
   -4.6217   -1.4750   -0.4446 C   0  0  0  0  0  0  0  0  0  0  0  0
   -5.6239   -0.5069   -0.1485 C   0  0  0  0  0  0  0  0  0  0  0  0
   -5.1942    0.7103    0.4537 C   0  0  0  0  0  0  0  0  0  0  0  0
   -3.8477    0.9311    0.7467 C   0  0  0  0  0  0  0  0  0  0  0  0
   -6.9555   -0.7347   -0.4445 N   0  0  0  0  0  0  0  0  0  0  0  0
   -7.9403    0.2934   -0.1828 C   0  0  0  0  0  0  0  0  0  0  0  0
   -7.3531   -1.9714   -1.0840 C   0  0  0  0  0  0  0  0  0  0  0  0
    1.3181   -0.9199    2.5323 N   0  0  0  0  0  0  0  0  0  0  0  0
    2.7396   -0.9443    2.8702 C   0  0  0  0  0  0  0  0  0  0  0  0
    0.4861   -0.7410    3.6681 N   0  0  0  0  0  0  0  0  0  0  0  0
    0.4182   -1.9225    4.5260 C   0  0  0  0  0  0  0  0  0  0  0  0
   -1.1249   -1.8307    1.3987 H   0  0  0  0  0  0  0  0  0  0  0  0
   -2.0210    2.0234   -1.1409 H   0  0  0  0  0  0  0  0  0  0  0  0
   -0.9013    4.1520   -1.6086 H   0  0  0  0  0  0  0  0  0  0  0  0
    1.5808    3.5899    1.9357 H   0  0  0  0  0  0  0  0  0  0  0  0
    0.4217    1.4961    2.3986 H   0  0  0  0  0  0  0  0  0  0  0  0
    1.0073    5.4102   -2.3186 H   0  0  0  0  0  0  0  0  0  0  0  0
   -0.2510    6.2725   -1.3711 H   0  0  0  0  0  0  0  0  0  0  0  0
    1.4245    6.8962   -1.3984 H   0  0  0  0  0  0  0  0  0  0  0  0
    3.1130    4.6959    0.4900 H   0  0  0  0  0  0  0  0  0  0  0  0
    2.8313    6.4308    0.1138 H   0  0  0  0  0  0  0  0  0  0  0  0
    2.1663    5.7268    1.6183 H   0  0  0  0  0  0  0  0  0  0  0  0
   -2.5305   -1.9936   -0.4185 H   0  0  0  0  0  0  0  0  0  0  0  0
   -4.8890   -2.4172   -0.9398 H   0  0  0  0  0  0  0  0  0  0  0  0
   -5.9218    1.4945    0.6993 H   0  0  0  0  0  0  0  0  0  0  0  0
   -3.5523    1.8811    1.2175 H   0  0  0  0  0  0  0  0  0  0  0  0
   -7.7356    1.2312   -0.7494 H   0  0  0  0  0  0  0  0  0  0  0  0
   -8.9396   -0.0711   -0.4822 H   0  0  0  0  0  0  0  0  0  0  0  0
   -7.9881    0.5622    0.8968 H   0  0  0  0  0  0  0  0  0  0  0  0
   -6.8891   -2.0993   -2.0894 H   0  0  0  0  0  0  0  0  0  0  0  0
   -7.0774   -2.8622   -0.4758 H   0  0  0  0  0  0  0  0  0  0  0  0
   -8.4504   -1.9805   -1.2144 H   0  0  0  0  0  0  0  0  0  0  0  0
    3.3034   -0.4161    2.0828 H   0  0  0  0  0  0  0  0  0  0  0  0
    2.8677   -0.4262    3.8381 H   0  0  0  0  0  0  0  0  0  0  0  0
    3.1213   -1.9814    2.9422 H   0  0  0  0  0  0  0  0  0  0  0  0
   -0.4462   -0.5307    3.2695 H   0  0  0  0  0  0  0  0  0  0  0  0
   -0.3154   -1.7137    5.3287 H   0  0  0  0  0  0  0  0  0  0  0  0
    0.1120   -2.8529    3.9919 H   0  0  0  0  0  0  0  0  0  0  0  0
    1.3967   -2.1071    5.0136 H   0  0  0  0  0  0  0  0  0  0  0  0
  1 22  1  0  0  0  0
  2  1  1  0  0  0  0
  2 26  1  0  0  0  0
  3  2  2  0  0  0  0
  4  3  1  0  0  0  0
  4  9  1  0  0  0  0
  5  4  2  0  0  0  0
  6  5  1  0  0  0  0
  6  7  2  0  0  0  0
  7  8  1  0  0  0  0
  8  9  2  0  0  0  0
  8 29  1  0  0  0  0
  9 30  1  0  0  0  0
 10  7  1  0  0  0  0
 10 12  1  0  0  0  0
 11 32  1  0  0  0  0
 11 10  1  0  0  0  0
 12 36  1  0  0  0  0
 13 18  1  0  0  0  0
 13  3  1  0  0  0  0
 14 13  2  0  0  0  0
 15 16  2  0  0  0  0
 15 14  1  0  0  0  0
 16 17  1  0  0  0  0
 17 39  1  0  0  0  0
 17 18  2  0  0  0  0
 18 40  1  0  0  0  0
 19 20  1  0  0  0  0
 19 16  1  0  0  0  0
 20 43  1  0  0  0  0
 21 45  1  0  0  0  0
 21 19  1  0  0  0  0
 22 23  1  0  0  0  0
 22 24  1  0  0  0  0
 23 49  1  0  0  0  0
 23 48  1  0  0  0  0
 24 25  1  0  0  0  0
 25 53  1  0  0  0  0
 25 51  1  0  0  0  0
 27  5  1  0  0  0  0
 28  6  1  0  0  0  0
 31 11  1  0  0  0  0
 33 11  1  0  0  0  0
 34 12  1  0  0  0  0
 35 12  1  0  0  0  0
 37 14  1  0  0  0  0
 38 15  1  0  0  0  0
 41 20  1  0  0  0  0
 42 20  1  0  0  0  0
 44 21  1  0  0  0  0
 46 21  1  0  0  0  0
 47 23  1  0  0  0  0
 50 24  1  0  0  0  0
 52 25  1  0  0  0  0
M  END
