2
q = -1.0, confidence = 0.0

 24 24  0  0  0  0  0  0  0  0999 V2000
    2.9274    0.0687    2.1313 C   0  0  0  0  0  3  0  0  0  0  0  0
    1.7725   -0.7384    1.9422 C   0  0  0  0  0  3  0  0  0  0  0  0
    0.5245   -0.1123    1.6380 C   0  0  0  0  0  3  0  0  0  0  0  0
   -0.6437   -0.9409    1.2235 C   0  0  0  0  0  0  0  0  0  0  0  0
   -1.8798   -0.1862    0.9028 C   0  0  0  0  0  0  0  0  0  0  0  0
   -3.0104   -0.8356    0.5178 C   0  0  0  0  0  0  0  0  0  0  0  0
   -4.2931   -0.2512    0.1379 C   0  0  0  0  0  0  0  0  0  0  0  0
   -4.5014    1.1474    0.0306 C   0  0  0  0  0  0  0  0  0  0  0  0
   -5.7502    1.6573   -0.3352 C   0  0  0  0  0  0  0  0  0  0  0  0
   -6.8225    0.7865   -0.6036 C   0  0  0  0  0  0  0  0  0  0  0  0
   -6.6338   -0.6011   -0.5067 C   0  0  0  0  0  0  0  0  0  0  0  0
   -5.3821   -1.1128   -0.1424 C   0  0  0  0  0  0  0  0  0  0  0  0
   -0.5765   -2.1757    1.1281 O   0  0  0  0  0  0  0  0  0  0  0  0
    3.9023   -0.4243    2.2704 H   0  0  0  0  0  0  0  0  0  0  0  0
    2.8303    1.0549    2.6101 H   0  0  0  0  0  0  0  0  0  0  0  0
    1.8205   -1.8389    1.9025 H   0  0  0  0  0  0  0  0  0  0  0  0
    0.3013    0.8830    2.0534 H   0  0  0  0  0  0  0  0  0  0  0  0
   -1.8358    0.9125    0.9689 H   0  0  0  0  0  0  0  0  0  0  0  0
   -2.9401   -1.9384    0.4950 H   0  0  0  0  0  0  0  0  0  0  0  0
   -3.6688    1.8392    0.2268 H   0  0  0  0  0  0  0  0  0  0  0  0
   -5.8927    2.7456   -0.4164 H   0  0  0  0  0  0  0  0  0  0  0  0
   -7.8041    1.1925   -0.8916 H   0  0  0  0  0  0  0  0  0  0  0  0
   -7.4672   -1.2881   -0.7176 H   0  0  0  0  0  0  0  0  0  0  0  0
   -5.2311   -2.2010   -0.0662 H   0  0  0  0  0  0  0  0  0  0  0  0
  1 14  1  0  0  0  0
  1 15  1  0  0  0  0
  2  1  1  0  0  0  0
  3  2  1  0  0  0  0
  3 17  1  0  0  0  0
  4  3  1  0  0  0  0
  5 18  1  0  0  0  0
  5  4  1  0  0  0  0
  6  5  2  0  0  0  0
  7  6  1  0  0  0  0
  8  7  1  0  0  0  0
  8 20  1  0  0  0  0
  9  8  2  0  0  0  0
 10 11  2  0  0  0  0
 10  9  1  0  0  0  0
 11 12  1  0  0  0  0
 12 24  1  0  0  0  0
 12  7  2  0  0  0  0
 13  4  2  0  0  0  0
 16  2  1  0  0  0  0
 19  6  1  0  0  0  0
 21  9  1  0  0  0  0
 22 10  1  0  0  0  0
 23 11  1  0  0  0  0
M  END
