2
q = -1.0, confidence = 0.018

 25 26  0  0  1  0  0  0  0  0999 V2000
   -0.4965   -3.6263   -0.4850 F   0  0  0  0  0  0  0  0  0  0  0  0
    0.2470   -1.3887   -0.6183 C   0  0  0  0  0  2  0  0  0  0  0  0
   -2.8541   -0.9415   -0.9792 C   0  0  0  0  0  0  0  0  0  0  0  0
   -2.2745   -0.3530   -1.7071 H   0  0  0  0  0  0  0  0  0  0  0  0
    2.4156   -1.2183   -1.8575 C   0  0  0  0  0  0  0  0  0  0  0  0
    1.9304   -0.4557   -2.4862 H   0  0  0  0  0  0  0  0  0  0  0  0
   -0.7761   -2.2784   -0.4980 C   0  0  2  0  0  3  0  0  0  0  0  0
   -2.2147   -2.0206   -0.3234 C   0  0  0  0  0  0  0  0  0  0  0  0
    1.6406   -1.8362   -0.8449 C   0  0  0  0  0  0  0  0  0  0  0  0
   -2.9839   -2.8598    0.5165 C   0  0  0  0  0  0  0  0  0  0  0  0
   -2.5015   -3.7246    0.9947 H   0  0  0  0  0  0  0  0  0  0  0  0
    4.3551   -2.5621   -1.2557 C   0  0  0  0  0  0  0  0  0  0  0  0
    5.4084   -2.8410   -1.4120 H   0  0  0  0  0  0  0  0  0  0  0  0
    2.2542   -2.8387   -0.0550 C   0  0  0  0  0  0  0  0  0  0  0  0
    1.6633   -3.3418    0.7240 H   0  0  0  0  0  0  0  0  0  0  0  0
   -4.2074   -0.6702   -0.7357 C   0  0  0  0  0  0  0  0  0  0  0  0
   -4.6936    0.1697   -1.2566 H   0  0  0  0  0  0  0  0  0  0  0  0
   -4.9511   -1.4773    0.1426 C   0  0  0  0  0  0  0  0  0  0  0  0
   -6.0136   -1.2600    0.3315 H   0  0  0  0  0  0  0  0  0  0  0  0
    3.7526   -1.5822   -2.0633 C   0  0  0  0  0  0  0  0  0  0  0  0
    4.3323   -1.0953   -2.8630 H   0  0  0  0  0  0  0  0  0  0  0  0
    3.5977   -3.1900   -0.2536 C   0  0  0  0  0  0  0  0  0  0  0  0
    4.0566   -3.9657    0.3793 H   0  0  0  0  0  0  0  0  0  0  0  0
   -4.3369   -2.5827    0.7547 C   0  0  0  0  0  0  0  0  0  0  0  0
   -4.9176   -3.2348    1.4252 H   0  0  0  0  0  0  0  0  0  0  0  0
  2  7  1  0  0  0  0
  3 16  2  0  0  0  0
  3  8  1  0  0  0  0
  4  3  1  0  0  0  0
  5  9  1  0  0  0  0
  6  5  1  0  0  0  0
  7  1  1  1  0  0  0
  7  8  1  0  0  0  0
  8 10  2  0  0  0  0
  9  2  1  0  0  0  0
  9 14  2  0  0  0  0
 10 24  1  0  0  0  0
 10 11  1  0  0  0  0
 12 22  2  0  0  0  0
 13 12  1  0  0  0  0
 14 15  1  0  0  0  0
 16 18  1  0  0  0  0
 17 16  1  0  0  0  0
 18 19  1  0  0  0  0
 18 24  2  0  0  0  0
 20  5  2  0  0  0  0
 20 12  1  0  0  0  0
 21 20  1  0  0  0  0
 22 14  1  0  0  0  0
 22 23  1  0  0  0  0
 24 25  1  0  0  0  0
M  END
