5
q = 0.0, confidence = 0.942

 28 28  0  0  0  0  0  0  0  0999 V2000
   -3.2408   -0.8929    0.4750 O   0  0  0  0  0  0  0  0  0  0  0  0
   -2.0974   -1.5585   -1.3727 O   0  0  0  0  0  0  0  0  0  0  0  0
    0.2210   -1.8450    0.1935 N   0  0  0  0  0  0  0  0  0  0  0  0
    2.0809   -1.2656   -0.7422 N   0  0  0  0  0  0  0  0  0  0  0  0
    0.9366   -0.7460   -0.2032 C   0  0  0  0  0  2  0  0  0  0  0  0
    0.8929   -3.0217   -0.1037 C   0  0  0  0  0  0  0  0  0  0  0  0
    0.4751   -4.0080    0.1169 H   0  0  0  0  0  0  0  0  0  0  0  0
    2.0786   -2.6564   -0.6829 C   0  0  0  0  0  0  0  0  0  0  0  0
    2.9151   -3.2578   -1.0492 H   0  0  0  0  0  0  0  0  0  0  0  0
   -1.0699   -1.7259    0.8344 C   0  0  0  0  0  0  0  0  0  0  0  0
   -0.9973   -0.9397    1.6165 H   0  0  0  0  0  0  0  0  0  0  0  0
   -1.3236   -2.6847    1.3308 H   0  0  0  0  0  0  0  0  0  0  0  0
   -2.1656   -1.3864   -0.1714 C   0  0  0  0  0  0  0  0  0  0  0  0
   -4.3734   -0.5462   -0.3548 C   0  0  0  0  0  0  0  0  0  0  0  0
   -4.6792   -1.4416   -0.9363 H   0  0  0  0  0  0  0  0  0  0  0  0
   -4.0495    0.2199   -1.0909 H   0  0  0  0  0  0  0  0  0  0  0  0
    3.2203   -0.4669   -1.1724 C   0  0  0  0  0  0  0  0  0  0  0  0
    2.8146    0.5285   -1.4530 H   0  0  0  0  0  0  0  0  0  0  0  0
    3.6400   -0.9239   -2.0927 H   0  0  0  0  0  0  0  0  0  0  0  0
    4.2898   -0.3037   -0.1178 C   0  0  0  0  0  0  0  0  0  0  0  0
    5.2898   -0.0514   -0.5129 H   0  0  0  0  0  0  0  0  0  0  0  0
    4.0895   -0.3892    1.2071 C   0  0  0  0  0  0  0  0  0  0  0  0
    3.0945   -0.5826    1.6429 H   0  0  0  0  0  0  0  0  0  0  0  0
    4.9212   -0.2197    1.9082 H   0  0  0  0  0  0  0  0  0  0  0  0
   -5.4750   -0.0385    0.5511 C   0  0  0  0  0  0  0  0  0  0  0  0
   -5.1452    0.8562    1.1156 H   0  0  0  0  0  0  0  0  0  0  0  0
   -5.7804   -0.8140    1.2811 H   0  0  0  0  0  0  0  0  0  0  0  0
   -6.3621    0.2395   -0.0516 H   0  0  0  0  0  0  0  0  0  0  0  0
  2 13  2  0  0  0  0
  3 10  1  0  0  0  0
  4  8  1  0  0  0  0
  4  5  1  0  0  0  0
  5  3  1  0  0  0  0
  6  7  1  0  0  0  0
  6  3  1  0  0  0  0
  8  6  2  0  0  0  0
  9  8  1  0  0  0  0
 10 12  1  0  0  0  0
 10 11  1  0  0  0  0
 13  1  1  0  0  0  0
 13 10  1  0  0  0  0
 14  1  1  0  0  0  0
 14 25  1  0  0  0  0
 15 14  1  0  0  0  0
 16 14  1  0  0  0  0
 17  4  1  0  0  0  0
 17 20  1  0  0  0  0
 18 17  1  0  0  0  0
 19 17  1  0  0  0  0
 20 22  2  0  0  0  0
 21 20  1  0  0  0  0
 22 23  1  0  0  0  0
 22 24  1  0  0  0  0
 25 26  1  0  0  0  0
 25 27  1  0  0  0  0
 28 25  1  0  0  0  0
M  END
