17
q = 0.0, confidence = 0.976

 41 42  0  0  0  0  0  0  0  0999 V2000
    1.5749    3.1550   -0.1088 N   0  0  0  0  0  4  0  0  0  0  0  0
    2.5875    3.0203   -0.1136 H   0  0  0  0  0  0  0  0  0  0  0  0
    7.6297    0.1384   -0.4114 Br  0  0  0  0  0  0  0  0  0  0  0  0
   -7.5199    0.5480   -0.5618 Br  0  0  0  0  0  0  0  0  0  0  0  0
   -1.3449    0.9938   -1.0988 C   0  0  0  0  0  3  0  0  0  0  0  0
   -0.9561    0.5007   -2.0011 H   0  0  0  0  0  0  0  0  0  0  0  0
   -2.8152    0.9270   -0.9621 C   0  0  0  0  0  0  0  0  0  0  0  0
   -3.5343    1.6601    0.0126 C   0  0  0  0  0  0  0  0  0  0  0  0
   -2.9997    2.3245    0.7072 H   0  0  0  0  0  0  0  0  0  0  0  0
   -4.9243    1.5579    0.1338 C   0  0  0  0  0  0  0  0  0  0  0  0
   -5.4633    2.1366    0.8973 H   0  0  0  0  0  0  0  0  0  0  0  0
   -5.6306    0.7032   -0.7298 C   0  0  0  0  0  0  0  0  0  0  0  0
   -4.9517   -0.0327   -1.7120 C   0  0  0  0  0  0  0  0  0  0  0  0
   -5.5071   -0.6983   -2.3876 H   0  0  0  0  0  0  0  0  0  0  0  0
   -3.5606    0.0872   -1.8222 C   0  0  0  0  0  0  0  0  0  0  0  0
   -3.0353   -0.4945   -2.5925 H   0  0  0  0  0  0  0  0  0  0  0  0
   -0.5964    2.0901   -0.5533 C   0  0  0  0  0  3  0  0  0  0  0  0
   -1.1181    2.9346   -0.0793 H   0  0  0  0  0  0  0  0  0  0  0  0
    0.8451    2.0993   -0.5713 C   0  0  0  0  0  0  0  0  0  0  0  0
    1.4715    0.8437   -0.9396 C   0  0  0  0  0  3  0  0  0  0  0  0
    1.0944    0.4062   -1.8785 H   0  0  0  0  0  0  0  0  0  0  0  0
    2.9393    0.6702   -0.7784 C   0  0  0  0  0  0  0  0  0  0  0  0
    3.6012    0.8149    0.4632 C   0  0  0  0  0  0  0  0  0  0  0  0
    3.0103    1.0262    1.3641 H   0  0  0  0  0  0  0  0  0  0  0  0
    4.9892    0.6662    0.5798 C   0  0  0  0  0  0  0  0  0  0  0  0
    5.4832    0.7747    1.5557 H   0  0  0  0  0  0  0  0  0  0  0  0
    5.7461    0.3549   -0.5612 C   0  0  0  0  0  0  0  0  0  0  0  0
    5.1218    0.1970   -1.8080 C   0  0  0  0  0  0  0  0  0  0  0  0
    5.7181   -0.0521   -2.6969 H   0  0  0  0  0  0  0  0  0  0  0  0
    3.7338    0.3580   -1.9057 C   0  0  0  0  0  0  0  0  0  0  0  0
    3.2500    0.2376   -2.8865 H   0  0  0  0  0  0  0  0  0  0  0  0
    1.0372    4.3286    0.5525 C   0  0  0  0  0  0  0  0  0  0  0  0
    1.8417    4.7592    1.1851 H   0  0  0  0  0  0  0  0  0  0  0  0
    0.2316    4.0224    1.2591 H   0  0  0  0  0  0  0  0  0  0  0  0
    0.5048    5.4076   -0.4023 C   0  0  0  0  0  0  0  0  0  0  0  0
    1.3319    5.7220   -1.0738 H   0  0  0  0  0  0  0  0  0  0  0  0
   -0.2673    4.9580   -1.0629 H   0  0  0  0  0  0  0  0  0  0  0  0
   -0.0720    6.6107    0.3417 C   0  0  0  0  0  0  0  0  0  0  0  0
   -0.4467    7.3799   -0.3614 H   0  0  0  0  0  0  0  0  0  0  0  0
    0.6901    7.0933    0.9888 H   0  0  0  0  0  0  0  0  0  0  0  0
   -0.9206    6.3159    0.9943 H   0  0  0  0  0  0  0  0  0  0  0  0
  1 32  1  0  0  0  0
  2  1  1  0  0  0  0
  5  7  1  0  0  0  0
  5 17  1  0  0  0  0
  6  5  1  0  0  0  0
  7  8  1  0  0  0  0
  8 10  2  0  0  0  0
  8  9  1  0  0  0  0
 10 11  1  0  0  0  0
 12  4  1  0  0  0  0
 12 10  1  0  0  0  0
 13 12  2  0  0  0  0
 14 13  1  0  0  0  0
 15 13  1  0  0  0  0
 15  7  2  0  0  0  0
 16 15  1  0  0  0  0
 17 18  1  0  0  0  0
 19 17  1  0  0  0  0
 19  1  2  0  0  0  0
 20 22  1  0  0  0  0
 20 19  1  0  0  0  0
 21 20  1  0  0  0  0
 22 23  1  0  0  0  0
 23 25  2  0  0  0  0
 23 24  1  0  0  0  0
 25 26  1  0  0  0  0
 27  3  1  0  0  0  0
 27 25  1  0  0  0  0
 28 27  2  0  0  0  0
 29 28  1  0  0  0  0
 30 28  1  0  0  0  0
 30 22  2  0  0  0  0
 31 30  1  0  0  0  0
 32 33  1  0  0  0  0
 32 34  1  0  0  0  0
 35 38  1  0  0  0  0
 35 32  1  0  0  0  0
 36 35  1  0  0  0  0
 37 35  1  0  0  0  0
 38 40  1  0  0  0  0
 38 41  1  0  0  0  0
 39 38  1  0  0  0  0
M  END
