4
q = -1.0, confidence = 0.0

 18 19  0  0  0  0  0  0  0  0999 V2000
   -3.5281   -0.3947    0.0179 N   0  0  0  0  0  0  0  0  0  0  0  0
   -3.3072   -1.7286    0.1441 N   0  0  0  0  0  0  0  0  0  0  0  0
   -1.9815   -1.8750    0.1594 C   0  0  0  0  0  0  0  0  0  0  0  0
   -1.3246   -0.6137    0.0471 C   0  0  0  0  0  3  0  0  0  0  0  0
   -2.3570    0.3181   -0.0397 C   0  0  0  0  0  0  0  0  0  0  0  0
   -4.8575    0.1005   -0.0282 C   0  0  0  0  0  0  0  0  0  0  0  0
   -5.9278   -0.7829    0.2133 C   0  0  0  0  0  0  0  0  0  0  0  0
   -7.2429   -0.3042    0.1722 C   0  0  0  0  0  0  0  0  0  0  0  0
   -7.5061    1.0477   -0.1034 C   0  0  0  0  0  0  0  0  0  0  0  0
   -6.4343    1.9211   -0.3443 C   0  0  0  0  0  0  0  0  0  0  0  0
   -5.1124    1.4563   -0.3119 C   0  0  0  0  0  0  0  0  0  0  0  0
   -1.5329   -2.8711    0.2385 H   0  0  0  0  0  0  0  0  0  0  0  0
   -2.3219    1.4077   -0.1046 H   0  0  0  0  0  0  0  0  0  0  0  0
   -5.6964   -1.8343    0.4269 H   0  0  0  0  0  0  0  0  0  0  0  0
   -8.0740   -1.0004    0.3618 H   0  0  0  0  0  0  0  0  0  0  0  0
   -8.5413    1.4186   -0.1322 H   0  0  0  0  0  0  0  0  0  0  0  0
   -6.6247    2.9819   -0.5668 H   0  0  0  0  0  0  0  0  0  0  0  0
   -4.2865    2.1508   -0.5165 H   0  0  0  0  0  0  0  0  0  0  0  0
  1  2  1  0  0  0  0
  2  3  2  0  0  0  0
  3 12  1  0  0  0  0
  4  3  1  0  0  0  0
  5  1  1  0  0  0  0
  5  4  2  0  0  0  0
  6  1  1  0  0  0  0
  6  7  1  0  0  0  0
  7 14  1  0  0  0  0
  8  7  2  0  0  0  0
  8 15  1  0  0  0  0
  9  8  1  0  0  0  0
 10 11  1  0  0  0  0
 10  9  2  0  0  0  0
 11  6  2  0  0  0  0
 13  5  1  0  0  0  0
 16  9  1  0  0  0  0
 17 10  1  0  0  0  0
 18 11  1  0  0  0  0
M  END
