1
q = 0.0, confidence = 0.998

 15 15  0  0  0  0  0  0  0  0999 V2000
    0.3770    0.0001    0.0000 C   0  0  0  0  0  2  0  0  0  0  0  0
    2.5428    0.6890   -0.0000 C   0  0  0  0  0  0  0  0  0  0  0  0
    1.2114    1.0900   -0.0001 N   0  0  0  0  0  0  0  0  0  0  0  0
    0.7665    2.4751    0.0001 C   0  0  0  0  0  0  0  0  0  0  0  0
    1.1386    2.9986   -0.9019 H   0  0  0  0  0  0  0  0  0  0  0  0
    1.1363    2.9978    0.9035 H   0  0  0  0  0  0  0  0  0  0  0  0
   -0.3392    2.4659   -0.0013 H   0  0  0  0  0  0  0  0  0  0  0  0
    3.8537    1.7781   -0.0001 Cl  0  0  0  0  0  0  0  0  0  0  0  0
    2.5428   -0.6891    0.0000 C   0  0  0  0  0  0  0  0  0  0  0  0
    1.2113   -1.0899    0.0001 N   0  0  0  0  0  0  0  0  0  0  0  0
    0.7662   -2.4750   -0.0000 C   0  0  0  0  0  0  0  0  0  0  0  0
    1.1383   -2.9985    0.9020 H   0  0  0  0  0  0  0  0  0  0  0  0
    1.1360   -2.9977   -0.9035 H   0  0  0  0  0  0  0  0  0  0  0  0
   -0.3394   -2.4657    0.0014 H   0  0  0  0  0  0  0  0  0  0  0  0
    3.8535   -1.7784    0.0000 Cl  0  0  0  0  0  0  0  0  0  0  0  0
  1 10  1  0  0  0  0
  2  9  2  0  0  0  0
  3  2  1  0  0  0  0
  3  1  1  0  0  0  0
  3  4  1  0  0  0  0
  4  6  1  0  0  0  0
  5  4  1  0  0  0  0
  7  4  1  0  0  0  0
  8  2  1  0  0  0  0
  9 10  1  0  0  0  0
 11 10  1  0  0  0  0
 11 14  1  0  0  0  0
 11 12  1  0  0  0  0
 13 11  1  0  0  0  0
 15  9  1  0  0  0  0
M  END
