1
q = -1.0, confidence = 0.038

 11 10  0  0  0  0  0  0  0  0999 V2000
   -2.2775    0.1193    0.7833 C   0  0  0  0  0  3  0  0  0  0  0  0
   -3.3584   -0.3670   -0.1835 C   0  0  0  0  0  0  0  0  0  0  0  0
   -4.7346   -0.0715    0.3470 C   0  0  0  0  0  0  0  0  0  0  0  0
   -5.6260    0.7613   -0.2201 C   0  0  0  0  0  0  0  0  0  0  0  0
   -2.3238   -0.4304    1.7468 H   0  0  0  0  0  0  0  0  0  0  0  0
   -2.4362    1.1952    1.0034 H   0  0  0  0  0  0  0  0  0  0  0  0
   -3.2588   -1.4635   -0.3410 H   0  0  0  0  0  0  0  0  0  0  0  0
   -3.2354    0.1089   -1.1780 H   0  0  0  0  0  0  0  0  0  0  0  0
   -4.9990   -0.5660    1.3015 H   0  0  0  0  0  0  0  0  0  0  0  0
   -5.3978    1.2811   -1.1665 H   0  0  0  0  0  0  0  0  0  0  0  0
   -6.6127    0.9511    0.2315 H   0  0  0  0  0  0  0  0  0  0  0  0
  1  6  1  0  0  0  0
  1  5  1  0  0  0  0
  2  3  1  0  0  0  0
  2  1  1  0  0  0  0
  3  9  1  0  0  0  0
  4 11  1  0  0  0  0
  4  3  2  0  0  0  0
  7  2  1  0  0  0  0
  8  2  1  0  0  0  0
 10  4  1  0  0  0  0
M  END
