3
q = 0.0, confidence = 0.998

 15 15  0  0  1  0  0  0  0  0999 V2000
   -1.7088   -2.8785   -0.1658 O   0  0  0  0  0  0  0  0  0  0  0  0
   -1.7633   -1.6619   -0.2541 C   0  0  0  0  0  0  0  0  0  0  0  0
   -0.9375   -0.7924   -1.1475 C   0  0  0  0  0  3  0  0  0  0  0  0
   -1.3389    0.5737   -1.0042 C   0  0  0  0  0  3  0  0  0  0  0  0
   -2.5783    0.6771   -0.0929 C   0  0  2  0  0  0  0  0  0  0  0  0
   -2.7378   -0.7411    0.5052 C   0  0  0  0  0  0  0  0  0  0  0  0
   -3.7981    1.1120   -0.9180 C   0  0  0  0  0  0  0  0  0  0  0  0
   -0.4958   -1.2238   -2.0587 H   0  0  0  0  0  0  0  0  0  0  0  0
   -1.2508    1.2947   -1.8332 H   0  0  0  0  0  0  0  0  0  0  0  0
   -2.4186    1.4282    0.7084 H   0  0  0  0  0  0  0  0  0  0  0  0
   -2.5265   -0.7986    1.5923 H   0  0  0  0  0  0  0  0  0  0  0  0
   -3.7613   -1.1461    0.3662 H   0  0  0  0  0  0  0  0  0  0  0  0
   -3.6417    2.1113   -1.3735 H   0  0  0  0  0  0  0  0  0  0  0  0
   -3.9995    0.3920   -1.7389 H   0  0  0  0  0  0  0  0  0  0  0  0
   -4.7061    1.1668   -0.2839 H   0  0  0  0  0  0  0  0  0  0  0  0
  2  1  2  0  0  0  0
  2  6  1  0  0  0  0
  3  4  1  0  0  0  0
  3  2  1  0  0  0  0
  4  5  1  0  0  0  0
  5  6  1  0  0  0  0
  5 10  1  1  0  0  0
  6 11  1  0  0  0  0
  7 15  1  0  0  0  0
  7  5  1  0  0  0  0
  8  3  1  0  0  0  0
  9  4  1  0  0  0  0
 12  6  1  0  0  0  0
 13  7  1  0  0  0  0
 14  7  1  0  0  0  0
M  END
