3
q = 0.0, confidence = 0.982

 75 81  0  0  0  0  0  0  0  0999 V2000
   -1.2673    1.1863   -0.2634 N   0  0  0  0  0  0  0  0  0  0  0  0
    0.8876    1.3834   -0.2318 N   0  0  0  0  0  0  0  0  0  0  0  0
   -0.1162    0.4575   -0.1290 C   0  0  0  0  0  2  0  0  0  0  0  0
   -0.9897    2.5376   -0.4431 C   0  0  0  0  0  0  0  0  0  0  0  0
   -1.7653    3.2920   -0.5870 H   0  0  0  0  0  0  0  0  0  0  0  0
    0.3748    2.6628   -0.4157 C   0  0  0  0  0  0  0  0  0  0  0  0
    1.0056    3.5483   -0.5153 H   0  0  0  0  0  0  0  0  0  0  0  0
   -2.6222    0.5431   -0.2128 C   0  0  0  0  0  0  0  0  0  0  0  0
    2.3214    1.0229    0.0387 C   0  0  0  0  0  0  0  0  0  0  0  0
   -2.5747   -0.6326   -1.2160 C   0  0  0  0  0  0  0  0  0  0  0  0
   -2.0176   -0.4055   -2.4952 C   0  0  0  0  0  0  0  0  0  0  0  0
   -1.6293    0.5927   -2.7496 H   0  0  0  0  0  0  0  0  0  0  0  0
   -1.9273   -1.4390   -3.4350 C   0  0  0  0  0  0  0  0  0  0  0  0
   -1.4799   -1.2408   -4.4210 H   0  0  0  0  0  0  0  0  0  0  0  0
   -2.3899   -2.7261   -3.1140 C   0  0  0  0  0  0  0  0  0  0  0  0
   -2.3006   -3.5457   -3.8422 H   0  0  0  0  0  0  0  0  0  0  0  0
   -2.9452   -2.9611   -1.8508 C   0  0  0  0  0  0  0  0  0  0  0  0
   -3.2849   -3.9701   -1.5752 H   0  0  0  0  0  0  0  0  0  0  0  0
   -3.0392   -1.9232   -0.9083 C   0  0  0  0  0  0  0  0  0  0  0  0
   -3.4445   -2.1391    0.0886 H   0  0  0  0  0  0  0  0  0  0  0  0
   -3.6878    1.5962   -0.6051 C   0  0  0  0  0  0  0  0  0  0  0  0
   -4.3837    1.5637   -1.8262 C   0  0  0  0  0  0  0  0  0  0  0  0
   -4.1859    0.7598   -2.5475 H   0  0  0  0  0  0  0  0  0  0  0  0
   -5.3466    2.5422   -2.1284 C   0  0  0  0  0  0  0  0  0  0  0  0
   -5.8843    2.4925   -3.0874 H   0  0  0  0  0  0  0  0  0  0  0  0
   -5.6268    3.5683   -1.2168 C   0  0  0  0  0  0  0  0  0  0  0  0
   -6.3815    4.3330   -1.4550 H   0  0  0  0  0  0  0  0  0  0  0  0
   -4.9464    3.6036    0.0123 C   0  0  0  0  0  0  0  0  0  0  0  0
   -5.1670    4.3948    0.7449 H   0  0  0  0  0  0  0  0  0  0  0  0
   -3.9966    2.6214    0.3177 C   0  0  0  0  0  0  0  0  0  0  0  0
   -3.4887    2.6388    1.2938 H   0  0  0  0  0  0  0  0  0  0  0  0
   -2.9366    0.0768    1.2269 C   0  0  0  0  0  0  0  0  0  0  0  0
   -1.9827    0.0398    2.2592 C   0  0  0  0  0  0  0  0  0  0  0  0
   -0.9470    0.3546    2.0796 H   0  0  0  0  0  0  0  0  0  0  0  0
   -2.3325   -0.4134    3.5424 C   0  0  0  0  0  0  0  0  0  0  0  0
   -1.5599   -0.4389    4.3258 H   0  0  0  0  0  0  0  0  0  0  0  0
   -3.6396   -0.8359    3.8158 C   0  0  0  0  0  0  0  0  0  0  0  0
   -3.9100   -1.1971    4.8194 H   0  0  0  0  0  0  0  0  0  0  0  0
   -4.6045   -0.7878    2.7961 C   0  0  0  0  0  0  0  0  0  0  0  0
   -5.6389   -1.1059    2.9965 H   0  0  0  0  0  0  0  0  0  0  0  0
   -4.2573   -0.3291    1.5189 C   0  0  0  0  0  0  0  0  0  0  0  0
   -5.0257   -0.2780    0.7330 H   0  0  0  0  0  0  0  0  0  0  0  0
    2.8528    0.0406   -1.0242 C   0  0  0  0  0  0  0  0  0  0  0  0
    2.0828   -0.4409   -2.0980 C   0  0  0  0  0  0  0  0  0  0  0  0
    1.0382   -0.1282   -2.2205 H   0  0  0  0  0  0  0  0  0  0  0  0
    2.6351   -1.3400   -3.0261 C   0  0  0  0  0  0  0  0  0  0  0  0
    2.0053   -1.7185   -3.8451 H   0  0  0  0  0  0  0  0  0  0  0  0
    3.9624   -1.7659   -2.8982 C   0  0  0  0  0  0  0  0  0  0  0  0
    4.3862   -2.4869   -3.6130 H   0  0  0  0  0  0  0  0  0  0  0  0
    4.7497   -1.2610   -1.8514 C   0  0  0  0  0  0  0  0  0  0  0  0
    5.7977   -1.5778   -1.7441 H   0  0  0  0  0  0  0  0  0  0  0  0
    4.2031   -0.3587   -0.9321 C   0  0  0  0  0  0  0  0  0  0  0  0
    4.8325    0.0421   -0.1237 H   0  0  0  0  0  0  0  0  0  0  0  0
    2.3100    0.4271    1.4670 C   0  0  0  0  0  0  0  0  0  0  0  0
    1.7094    1.1835    2.4988 C   0  0  0  0  0  0  0  0  0  0  0  0
    1.3102    2.1861    2.2795 H   0  0  0  0  0  0  0  0  0  0  0  0
    1.5893    0.6659    3.7948 C   0  0  0  0  0  0  0  0  0  0  0  0
    1.1161    1.2729    4.5819 H   0  0  0  0  0  0  0  0  0  0  0  0
    2.0587   -0.6276    4.0826 C   0  0  0  0  0  0  0  0  0  0  0  0
    1.9530   -1.0432    5.0961 H   0  0  0  0  0  0  0  0  0  0  0  0
    2.6473   -1.3869    3.0641 C   0  0  0  0  0  0  0  0  0  0  0  0
    2.9928   -2.4128    3.2589 H   0  0  0  0  0  0  0  0  0  0  0  0
    2.7742   -0.8653    1.7650 C   0  0  0  0  0  0  0  0  0  0  0  0
    3.2124   -1.5009    0.9843 H   0  0  0  0  0  0  0  0  0  0  0  0
    3.1948    2.2934   -0.0752 C   0  0  0  0  0  0  0  0  0  0  0  0
    3.3233    2.9101   -1.3402 C   0  0  0  0  0  0  0  0  0  0  0  0
    2.7982    2.4787   -2.2059 H   0  0  0  0  0  0  0  0  0  0  0  0
    4.1213    4.0475   -1.5081 C   0  0  0  0  0  0  0  0  0  0  0  0
    4.2020    4.5150   -2.5011 H   0  0  0  0  0  0  0  0  0  0  0  0
    4.8329    4.5769   -0.4175 C   0  0  0  0  0  0  0  0  0  0  0  0
    5.4700    5.4645   -0.5493 H   0  0  0  0  0  0  0  0  0  0  0  0
    4.7377    3.9540    0.8334 C   0  0  0  0  0  0  0  0  0  0  0  0
    5.3047    4.3464    1.6912 H   0  0  0  0  0  0  0  0  0  0  0  0
    3.9231    2.8209    1.0052 C   0  0  0  0  0  0  0  0  0  0  0  0
    3.8663    2.3385    1.9901 H   0  0  0  0  0  0  0  0  0  0  0  0
  1  8  1  0  0  0  0
  1  3  1  0  0  0  0
  2  3  1  0  0  0  0
  2  9  1  0  0  0  0
  4  6  2  0  0  0  0
  4  1  1  0  0  0  0
  5  4  1  0  0  0  0
  6  2  1  0  0  0  0
  7  6  1  0  0  0  0
  8 32  1  0  0  0  0
  9 54  1  0  0  0  0
 10 19  1  0  0  0  0
 10  8  1  0  0  0  0
 11 10  2  0  0  0  0
 12 11  1  0  0  0  0
 13 15  2  0  0  0  0
 13 11  1  0  0  0  0
 14 13  1  0  0  0  0
 15 17  1  0  0  0  0
 16 15  1  0  0  0  0
 17 18  1  0  0  0  0
 17 19  2  0  0  0  0
 19 20  1  0  0  0  0
 21  8  1  0  0  0  0
 21 30  1  0  0  0  0
 22 21  2  0  0  0  0
 23 22  1  0  0  0  0
 24 22  1  0  0  0  0
 24 26  2  0  0  0  0
 25 24  1  0  0  0  0
 26 28  1  0  0  0  0
 27 26  1  0  0  0  0
 28 30  2  0  0  0  0
 28 29  1  0  0  0  0
 30 31  1  0  0  0  0
 32 41  2  0  0  0  0
 32 33  1  0  0  0  0
 33 35  2  0  0  0  0
 34 33  1  0  0  0  0
 35 37  1  0  0  0  0
 35 36  1  0  0  0  0
 37 38  1  0  0  0  0
 39 40  1  0  0  0  0
 39 37  2  0  0  0  0
 41 39  1  0  0  0  0
 42 41  1  0  0  0  0
 43 52  1  0  0  0  0
 43  9  1  0  0  0  0
 44 43  2  0  0  0  0
 45 44  1  0  0  0  0
 46 48  2  0  0  0  0
 46 44  1  0  0  0  0
 47 46  1  0  0  0  0
 48 50  1  0  0  0  0
 49 48  1  0  0  0  0
 50 51  1  0  0  0  0
 50 52  2  0  0  0  0
 52 53  1  0  0  0  0
 54 63  2  0  0  0  0
 54 55  1  0  0  0  0
 55 57  2  0  0  0  0
 56 55  1  0  0  0  0
 57 59  1  0  0  0  0
 57 58  1  0  0  0  0
 59 60  1  0  0  0  0
 61 62  1  0  0  0  0
 61 59  2  0  0  0  0
 63 61  1  0  0  0  0
 64 63  1  0  0  0  0
 65  9  1  0  0  0  0
 65 74  1  0  0  0  0
 66 65  2  0  0  0  0
 67 66  1  0  0  0  0
 68 66  1  0  0  0  0
 68 70  2  0  0  0  0
 69 68  1  0  0  0  0
 70 72  1  0  0  0  0
 71 70  1  0  0  0  0
 72 74  2  0  0  0  0
 72 73  1  0  0  0  0
 74 75  1  0  0  0  0
M  END
