32
q = -1.0, confidence = 0.0

 38 39  0  0  0  0  0  0  0  0999 V2000
   -0.9369   -0.0981   -0.7389 P   0  0  2  0  0  0  0  0  0  0  0  0
   -1.8353    1.3998   -0.1044 C   0  0  0  0  0  0  0  0  0  0  0  0
   -2.3253    1.3902    1.2392 C   0  0  0  0  0  0  0  0  0  0  0  0
   -2.9882    2.5312    1.7332 C   0  0  0  0  0  0  0  0  0  0  0  0
   -3.3698    2.5104    2.7660 H   0  0  0  0  0  0  0  0  0  0  0  0
   -3.1512    3.6792    0.9525 C   0  0  0  0  0  0  0  0  0  0  0  0
   -3.6727    4.5595    1.3576 H   0  0  0  0  0  0  0  0  0  0  0  0
   -2.6085    3.7092   -0.3349 C   0  0  0  0  0  0  0  0  0  0  0  0
   -2.6856    4.6248   -0.9420 H   0  0  0  0  0  0  0  0  0  0  0  0
   -1.9377    2.5949   -0.8791 C   0  0  0  0  0  0  0  0  0  0  0  0
   -2.1482    0.2263    2.1842 C   0  0  0  0  0  0  0  0  0  0  0  0
   -2.2764    0.5660    3.2301 H   0  0  0  0  0  0  0  0  0  0  0  0
   -1.1456   -0.2309    2.0853 H   0  0  0  0  0  0  0  0  0  0  0  0
   -2.8839   -0.5808    1.9963 H   0  0  0  0  0  0  0  0  0  0  0  0
   -1.3306    2.7657   -2.2531 C   0  0  0  0  0  0  0  0  0  0  0  0
   -1.9704    2.3406   -3.0521 H   0  0  0  0  0  0  0  0  0  0  0  0
   -0.3396    2.2829   -2.3344 H   0  0  0  0  0  0  0  0  0  0  0  0
   -1.2012    3.8421   -2.4763 H   0  0  0  0  0  0  0  0  0  0  0  0
   -1.2421   -0.2356   -2.5614 C   0  0  0  0  0  0  0  0  0  0  0  0
   -2.2619    0.0877   -2.8374 H   0  0  0  0  0  0  0  0  0  0  0  0
   -1.1014   -1.3086   -2.7863 H   0  0  0  0  0  0  0  0  0  0  0  0
   -0.4822    0.3211   -3.1333 H   0  0  0  0  0  0  0  0  0  0  0  0
   -1.8153   -1.6078   -0.1572 C   0  0  0  0  0  0  0  0  0  0  0  0
   -0.9283   -2.5068    0.4761 C   0  0  0  0  0  0  0  0  0  0  0  0
   -1.4114   -3.7798    0.8457 C   0  0  0  0  0  0  0  0  0  0  0  0
   -0.7268   -4.4961    1.3262 H   0  0  0  0  0  0  0  0  0  0  0  0
   -2.7506   -4.1197    0.6250 C   0  0  0  0  0  0  0  0  0  0  0  0
   -3.1236   -5.1115    0.9245 H   0  0  0  0  0  0  0  0  0  0  0  0
   -3.6272   -3.1973    0.0313 C   0  0  0  0  0  0  0  0  0  0  0  0
   -4.6832   -3.4681   -0.1268 H   0  0  0  0  0  0  0  0  0  0  0  0
   -3.1788   -1.9284   -0.3823 C   0  0  0  0  0  0  0  0  0  0  0  0
    0.4693   -2.0697    0.8257 C   0  0  0  0  0  3  0  0  0  0  0  0
    1.1959   -2.8773    0.5994 H   0  0  0  0  0  0  0  0  0  0  0  0
    0.5061   -1.8880    1.9235 H   0  0  0  0  0  0  0  0  0  0  0  0
   -4.1470   -0.9789   -1.0461 C   0  0  0  0  0  0  0  0  0  0  0  0
   -5.1880   -1.2001   -0.7395 H   0  0  0  0  0  0  0  0  0  0  0  0
   -4.1088   -1.0758   -2.1520 H   0  0  0  0  0  0  0  0  0  0  0  0
   -3.9330    0.0796   -0.8013 H   0  0  0  0  0  0  0  0  0  0  0  0
  1 19  1  6  0  0  0
  1 23  1  0  0  0  0
  1  2  1  0  0  0  0
  2  3  1  0  0  0  0
  3  4  2  0  0  0  0
  3 11  1  0  0  0  0
  4  5  1  0  0  0  0
  6  7  1  0  0  0  0
  6  4  1  0  0  0  0
  8  6  2  0  0  0  0
  9  8  1  0  0  0  0
 10  8  1  0  0  0  0
 10  2  2  0  0  0  0
 11 12  1  0  0  0  0
 13 11  1  0  0  0  0
 14 11  1  0  0  0  0
 15 10  1  0  0  0  0
 16 15  1  0  0  0  0
 17 15  1  0  0  0  0
 18 15  1  0  0  0  0
 20 19  1  0  0  0  0
 21 19  1  0  0  0  0
 22 19  1  0  0  0  0
 23 24  1  0  0  0  0
 24 32  1  0  0  0  0
 24 25  2  0  0  0  0
 25 26  1  0  0  0  0
 27 25  1  0  0  0  0
 27 28  1  0  0  0  0
 29 27  2  0  0  0  0
 30 29  1  0  0  0  0
 31 23  2  0  0  0  0
 31 29  1  0  0  0  0
 32 34  1  0  0  0  0
 33 32  1  0  0  0  0
 35 38  1  0  0  0  0
 35 36  1  0  0  0  0
 35 31  1  0  0  0  0
 37 35  1  0  0  0  0
M  END
