1
q = -1.0, confidence = 0.0

 38 39  0  0  1  0  0  0  0  0999 V2000
   -0.9513   -1.6734   -0.1439 C   0  0  2  0  0  3  0  0  0  0  0  0
   -0.4720   -1.3742    1.1940 C   0  0  0  0  0  0  0  0  0  0  0  0
   -0.9958   -0.0874    1.5979 C   0  0  0  0  0  0  0  0  0  0  0  0
   -1.8337    0.4083    0.5057 C   0  0  0  0  0  0  0  0  0  0  0  0
   -1.8159   -0.5669   -0.5561 C   0  0  0  0  0  0  0  0  0  0  0  0
   -0.6591   -2.9048   -0.9399 C   0  0  0  0  0  0  0  0  0  0  0  0
   -0.5578   -2.6566   -2.0139 H   0  0  0  0  0  0  0  0  0  0  0  0
   -1.4657   -3.6618   -0.8286 H   0  0  0  0  0  0  0  0  0  0  0  0
    0.2909   -3.3703   -0.6156 H   0  0  0  0  0  0  0  0  0  0  0  0
    0.4836   -2.2307    1.9614 C   0  0  0  0  0  0  0  0  0  0  0  0
    1.4344   -2.3395    1.4002 H   0  0  0  0  0  0  0  0  0  0  0  0
    0.0592   -3.2422    2.1263 H   0  0  0  0  0  0  0  0  0  0  0  0
    0.7263   -1.7906    2.9461 H   0  0  0  0  0  0  0  0  0  0  0  0
   -0.7849    0.6126    2.9015 C   0  0  0  0  0  0  0  0  0  0  0  0
    0.1240    0.2506    3.4181 H   0  0  0  0  0  0  0  0  0  0  0  0
   -1.6509    0.4563    3.5810 H   0  0  0  0  0  0  0  0  0  0  0  0
   -0.6743    1.7038    2.7497 H   0  0  0  0  0  0  0  0  0  0  0  0
   -2.5560    1.7142    0.5150 C   0  0  0  0  0  0  0  0  0  0  0  0
   -1.8893    2.5260    0.8671 H   0  0  0  0  0  0  0  0  0  0  0  0
   -3.4410    1.6607    1.1838 H   0  0  0  0  0  0  0  0  0  0  0  0
   -2.9125    1.9837   -0.4955 H   0  0  0  0  0  0  0  0  0  0  0  0
   -2.5907   -0.5055   -1.8343 C   0  0  0  0  0  0  0  0  0  0  0  0
   -1.9739   -0.9174   -2.6573 H   0  0  0  0  0  0  0  0  0  0  0  0
   -2.7805    0.5535   -2.0998 H   0  0  0  0  0  0  0  0  0  0  0  0
   -3.9365   -1.2674   -1.7229 C   0  0  0  0  0  0  0  0  0  0  0  0
   -4.4532   -1.2083   -2.7028 H   0  0  0  0  0  0  0  0  0  0  0  0
   -3.7323   -2.3417   -1.5316 H   0  0  0  0  0  0  0  0  0  0  0  0
   -4.8212   -0.7119   -0.6311 C   0  0  0  0  0  0  0  0  0  0  0  0
   -4.7323   -1.2011    0.6885 C   0  0  0  0  0  0  0  0  0  0  0  0
   -4.0601   -2.0468    0.9043 H   0  0  0  0  0  0  0  0  0  0  0  0
   -5.4760   -0.6189    1.7261 C   0  0  0  0  0  0  0  0  0  0  0  0
   -5.3916   -1.0160    2.7495 H   0  0  0  0  0  0  0  0  0  0  0  0
   -6.3276    0.4656    1.4599 C   0  0  0  0  0  0  0  0  0  0  0  0
   -6.9136    0.9226    2.2717 H   0  0  0  0  0  0  0  0  0  0  0  0
   -6.4336    0.9566    0.1485 C   0  0  0  0  0  0  0  0  0  0  0  0
   -7.1047    1.8011   -0.0714 H   0  0  0  0  0  0  0  0  0  0  0  0
   -5.6851    0.3727   -0.8844 C   0  0  0  0  0  0  0  0  0  0  0  0
   -5.7675    0.7671   -1.9102 H   0  0  0  0  0  0  0  0  0  0  0  0
  1  6  1  1  0  0  0
  1  2  1  0  0  0  0
  2  3  2  0  0  0  0
  2 10  1  0  0  0  0
  3 14  1  0  0  0  0
  4 18  1  0  0  0  0
  4  3  1  0  0  0  0
  5  1  1  0  0  0  0
  5  4  2  0  0  0  0
  6  8  1  0  0  0  0
  6  9  1  0  0  0  0
  7  6  1  0  0  0  0
 10 12  1  0  0  0  0
 10 13  1  0  0  0  0
 11 10  1  0  0  0  0
 14 15  1  0  0  0  0
 14 16  1  0  0  0  0
 17 14  1  0  0  0  0
 18 19  1  0  0  0  0
 18 20  1  0  0  0  0
 21 18  1  0  0  0  0
 22 25  1  0  0  0  0
 22  5  1  0  0  0  0
 23 22  1  0  0  0  0
 24 22  1  0  0  0  0
 25 27  1  0  0  0  0
 25 28  1  0  0  0  0
 26 25  1  0  0  0  0
 28 29  1  0  0  0  0
 29 30  1  0  0  0  0
 29 31  2  0  0  0  0
 31 32  1  0  0  0  0
 33 31  1  0  0  0  0
 33 34  1  0  0  0  0
 35 33  2  0  0  0  0
 36 35  1  0  0  0  0
 37 28  2  0  0  0  0
 37 35  1  0  0  0  0
 38 37  1  0  0  0  0
M  END
