2
q = 0.0, confidence = 0.992

 67 69  0  0  1  0  0  0  0  0999 V2000
   -0.5130   -0.3074   -0.1193 O   0  0  0  0  0  0  0  0  0  0  0  0
    0.4265    0.5531   -0.4179 C   0  0  0  0  0  2  0  0  0  0  0  0
    1.5552   -0.2513   -1.0189 C   0  0  0  0  0  0  0  0  0  0  0  0
    2.5853   -0.6950    0.0605 C   0  0  2  0  0  0  0  0  0  0  0  0
    3.7814   -1.3842   -0.6297 C   0  0  0  0  0  0  0  0  0  0  0  0
    4.9092   -1.7824    0.3247 C   0  0  0  0  0  0  0  0  0  0  0  0
    6.0942   -2.4316   -0.3906 C   0  0  0  0  0  0  0  0  0  0  0  0
    1.9568   -1.5697    1.1344 C   0  0  0  0  0  0  0  0  0  0  0  0
    2.0509   -1.2181    2.4945 C   0  0  0  0  0  0  0  0  0  0  0  0
    1.4755   -2.0223    3.4920 C   0  0  0  0  0  0  0  0  0  0  0  0
    0.7918   -3.1964    3.1423 C   0  0  0  0  0  0  0  0  0  0  0  0
    0.6943   -3.5610    1.7883 C   0  0  0  0  0  0  0  0  0  0  0  0
    1.2730   -2.7568    0.7967 C   0  0  0  0  0  0  0  0  0  0  0  0
   -1.7503   -0.0305    0.5873 C   0  0  1  0  0  0  0  0  0  0  0  0
   -2.8043   -1.0378    0.1032 C   0  0  1  0  0  0  0  0  0  0  0  0
   -4.0708   -0.8427    0.9650 C   0  0  0  0  0  0  0  0  0  0  0  0
   -3.7893   -0.9548    2.4670 C   0  0  0  0  0  0  0  0  0  0  0  0
   -2.7232    0.0452    2.9310 C   0  0  2  0  0  0  0  0  0  0  0  0
   -1.4612   -0.1416    2.0812 C   0  0  0  0  0  0  0  0  0  0  0  0
   -3.0747   -0.9899   -1.4486 C   0  0  0  0  0  0  0  0  0  0  0  0
   -3.4202    0.4433   -1.8916 C   0  0  0  0  0  0  0  0  0  0  0  0
   -4.2804   -1.8971   -1.8038 C   0  0  0  0  0  0  0  0  0  0  0  0
   -1.8684   -1.5553   -2.2284 C   0  0  0  0  0  0  0  0  0  0  0  0
   -1.2447   -0.8471   -3.2755 C   0  0  0  0  0  0  0  0  0  0  0  0
   -0.1832   -1.4075   -4.0056 C   0  0  0  0  0  0  0  0  0  0  0  0
    0.2814   -2.6965   -3.7099 C   0  0  0  0  0  0  0  0  0  0  0  0
   -0.3332   -3.4200   -2.6743 C   0  0  0  0  0  0  0  0  0  0  0  0
   -1.3922   -2.8555   -1.9497 C   0  0  0  0  0  0  0  0  0  0  0  0
   -2.4059   -0.0825    4.4220 C   0  0  0  0  0  0  0  0  0  0  0  0
    2.0835    0.3496   -1.7812 H   0  0  0  0  0  0  0  0  0  0  0  0
    1.1433   -1.1531   -1.5157 H   0  0  0  0  0  0  0  0  0  0  0  0
    2.9709    0.2196    0.5598 H   0  0  0  0  0  0  0  0  0  0  0  0
    4.1798   -0.6940   -1.4059 H   0  0  0  0  0  0  0  0  0  0  0  0
    3.4160   -2.2828   -1.1760 H   0  0  0  0  0  0  0  0  0  0  0  0
    4.5095   -2.4741    1.0971 H   0  0  0  0  0  0  0  0  0  0  0  0
    5.2513   -0.8797    0.8781 H   0  0  0  0  0  0  0  0  0  0  0  0
    6.8981   -2.7101    0.3200 H   0  0  0  0  0  0  0  0  0  0  0  0
    6.5367   -1.7484   -1.1455 H   0  0  0  0  0  0  0  0  0  0  0  0
    5.7854   -3.3552   -0.9237 H   0  0  0  0  0  0  0  0  0  0  0  0
    2.5701   -0.2892    2.7759 H   0  0  0  0  0  0  0  0  0  0  0  0
    1.5572   -1.7233    4.5481 H   0  0  0  0  0  0  0  0  0  0  0  0
    0.3358   -3.8264    3.9211 H   0  0  0  0  0  0  0  0  0  0  0  0
    0.1592   -4.4798    1.5019 H   0  0  0  0  0  0  0  0  0  0  0  0
    1.1707   -3.0469   -0.2599 H   0  0  0  0  0  0  0  0  0  0  0  0
   -2.0626    0.9972    0.3294 H   0  0  0  0  0  0  0  0  0  0  0  0
   -2.4059   -2.0489    0.3402 H   0  0  0  0  0  0  0  0  0  0  0  0
   -4.8322   -1.5926    0.6779 H   0  0  0  0  0  0  0  0  0  0  0  0
   -4.5176    0.1536    0.7535 H   0  0  0  0  0  0  0  0  0  0  0  0
   -4.7296   -0.8061    3.0388 H   0  0  0  0  0  0  0  0  0  0  0  0
   -3.4376   -1.9852    2.7026 H   0  0  0  0  0  0  0  0  0  0  0  0
   -3.1135    1.0719    2.7399 H   0  0  0  0  0  0  0  0  0  0  0  0
   -0.6926    0.6058    2.3574 H   0  0  0  0  0  0  0  0  0  0  0  0
   -1.0176   -1.1411    2.2794 H   0  0  0  0  0  0  0  0  0  0  0  0
   -4.2625    0.8426   -1.2936 H   0  0  0  0  0  0  0  0  0  0  0  0
   -3.7355    0.4639   -2.9531 H   0  0  0  0  0  0  0  0  0  0  0  0
   -2.5711    1.1448   -1.7863 H   0  0  0  0  0  0  0  0  0  0  0  0
   -5.2347   -1.4743   -1.4328 H   0  0  0  0  0  0  0  0  0  0  0  0
   -4.1678   -2.9168   -1.3834 H   0  0  0  0  0  0  0  0  0  0  0  0
   -4.3612   -1.9963   -2.9043 H   0  0  0  0  0  0  0  0  0  0  0  0
   -1.5698    0.1703   -3.5286 H   0  0  0  0  0  0  0  0  0  0  0  0
    0.2858   -0.8208   -4.8104 H   0  0  0  0  0  0  0  0  0  0  0  0
    1.1136   -3.1359   -4.2802 H   0  0  0  0  0  0  0  0  0  0  0  0
    0.0123   -4.4367   -2.4304 H   0  0  0  0  0  0  0  0  0  0  0  0
   -1.8522   -3.4459   -1.1425 H   0  0  0  0  0  0  0  0  0  0  0  0
   -1.6511    0.6653    4.7393 H   0  0  0  0  0  0  0  0  0  0  0  0
   -1.9953   -1.0888    4.6509 H   0  0  0  0  0  0  0  0  0  0  0  0
   -3.3132    0.0633    5.0426 H   0  0  0  0  0  0  0  0  0  0  0  0
  1 14  1  0  0  0  0
  2  1  1  0  0  0  0
  3  2  1  0  0  0  0
  3  4  1  0  0  0  0
  4 32  1  1  0  0  0
  4  8  1  0  0  0  0
  5  4  1  0  0  0  0
  5  6  1  0  0  0  0
  6 36  1  0  0  0  0
  6 35  1  0  0  0  0
  7 37  1  0  0  0  0
  7  6  1  0  0  0  0
  8  9  1  0  0  0  0
  9 40  1  0  0  0  0
  9 10  2  0  0  0  0
 10 41  1  0  0  0  0
 11 10  1  0  0  0  0
 11 42  1  0  0  0  0
 12 11  2  0  0  0  0
 13  8  2  0  0  0  0
 13 12  1  0  0  0  0
 14 45  1  6  0  0  0
 14 19  1  0  0  0  0
 15 46  1  1  0  0  0
 15 14  1  0  0  0  0
 15 16  1  0  0  0  0
 16 17  1  0  0  0  0
 17 50  1  0  0  0  0
 17 18  1  0  0  0  0
 17 49  1  0  0  0  0
 18 51  1  6  0  0  0
 18 29  1  0  0  0  0
 19 53  1  0  0  0  0
 19 52  1  0  0  0  0
 19 18  1  0  0  0  0
 20 15  1  0  0  0  0
 21 56  1  0  0  0  0
 21 20  1  0  0  0  0
 21 54  1  0  0  0  0
 22 20  1  0  0  0  0
 22 57  1  0  0  0  0
 22 58  1  0  0  0  0
 23 28  1  0  0  0  0
 23 20  1  0  0  0  0
 24 23  2  0  0  0  0
 25 26  2  0  0  0  0
 25 24  1  0  0  0  0
 26 27  1  0  0  0  0
 27 63  1  0  0  0  0
 27 28  2  0  0  0  0
 28 64  1  0  0  0  0
 29 66  1  0  0  0  0
 29 65  1  0  0  0  0
 29 67  1  0  0  0  0
 30  3  1  0  0  0  0
 31  3  1  0  0  0  0
 33  5  1  0  0  0  0
 34  5  1  0  0  0  0
 38  7  1  0  0  0  0
 39  7  1  0  0  0  0
 43 12  1  0  0  0  0
 44 13  1  0  0  0  0
 47 16  1  0  0  0  0
 48 16  1  0  0  0  0
 55 21  1  0  0  0  0
 59 22  1  0  0  0  0
 60 24  1  0  0  0  0
 61 25  1  0  0  0  0
 62 26  1  0  0  0  0
M  END
