3
q = 0.0, confidence = 0.9

 37 36  0  0  0  0  0  0  0  0999 V2000
    2.7657    0.0297   -0.0745 Si  0  0  0  0  0  0  0  0  0  0  0  0
    0.3933    2.8206    1.1796 C   0  0  0  0  0  0  0  0  0  0  0  0
    0.1889    1.4926    0.5395 C   0  0  0  0  0  3  0  0  0  0  0  0
    0.9420    0.4694    0.0898 C   0  0  0  0  0  3  0  0  0  0  0  0
    3.5181    0.4367    1.6524 C   0  0  0  0  0  0  0  0  0  0  0  0
    5.0480    0.5744    1.6856 C   0  0  0  0  0  0  0  0  0  0  0  0
    3.0076   -0.5448    2.7195 C   0  0  0  0  0  0  0  0  0  0  0  0
    2.9728   -1.8298   -0.4834 C   0  0  0  0  0  0  0  0  0  0  0  0
    2.2518   -2.2933   -1.7588 C   0  0  0  0  0  0  0  0  0  0  0  0
    4.4423   -2.2813   -0.4878 C   0  0  0  0  0  0  0  0  0  0  0  0
    3.4974    1.2013   -1.4122 C   0  0  0  0  0  0  0  0  0  0  0  0
    2.7988    1.0544   -2.7742 C   0  0  0  0  0  0  0  0  0  0  0  0
    3.4758    2.6678   -0.9536 C   0  0  0  0  0  0  0  0  0  0  0  0
    0.2481    3.6398    0.4431 H   0  0  0  0  0  0  0  0  0  0  0  0
   -0.3458    2.9790    1.9924 H   0  0  0  0  0  0  0  0  0  0  0  0
    1.4166    2.9356    1.5931 H   0  0  0  0  0  0  0  0  0  0  0  0
    3.0879    1.4383    1.8842 H   0  0  0  0  0  0  0  0  0  0  0  0
    5.4258    1.3023    0.9389 H   0  0  0  0  0  0  0  0  0  0  0  0
    5.3940    0.9163    2.6857 H   0  0  0  0  0  0  0  0  0  0  0  0
    5.5539   -0.3916    1.4843 H   0  0  0  0  0  0  0  0  0  0  0  0
    3.4191   -1.5636    2.5593 H   0  0  0  0  0  0  0  0  0  0  0  0
    1.9020   -0.6364    2.7103 H   0  0  0  0  0  0  0  0  0  0  0  0
    3.3144   -0.2273    3.7399 H   0  0  0  0  0  0  0  0  0  0  0  0
    2.4607   -2.3189    0.3760 H   0  0  0  0  0  0  0  0  0  0  0  0
    1.2149   -1.9123   -1.8284 H   0  0  0  0  0  0  0  0  0  0  0  0
    2.2059   -3.4032   -1.7984 H   0  0  0  0  0  0  0  0  0  0  0  0
    2.7901   -1.9621   -2.6710 H   0  0  0  0  0  0  0  0  0  0  0  0
    5.0353   -1.7470   -1.2612 H   0  0  0  0  0  0  0  0  0  0  0  0
    4.5215   -3.3669   -0.7149 H   0  0  0  0  0  0  0  0  0  0  0  0
    4.9424   -2.1144    0.4868 H   0  0  0  0  0  0  0  0  0  0  0  0
    4.5616    0.8871   -1.5250 H   0  0  0  0  0  0  0  0  0  0  0  0
    2.9116    0.0392   -3.1995 H   0  0  0  0  0  0  0  0  0  0  0  0
    3.2145    1.7745   -3.5128 H   0  0  0  0  0  0  0  0  0  0  0  0
    1.7085    1.2496   -2.6941 H   0  0  0  0  0  0  0  0  0  0  0  0
    2.4335    3.0302   -0.8370 H   0  0  0  0  0  0  0  0  0  0  0  0
    3.9656    3.3266   -1.7036 H   0  0  0  0  0  0  0  0  0  0  0  0
    3.9920    2.8265    0.0146 H   0  0  0  0  0  0  0  0  0  0  0  0
  1  4  1  0  0  0  0
  1  5  1  0  0  0  0
  2 16  1  0  0  0  0
  2 15  1  0  0  0  0
  3  2  1  0  0  0  0
  4  3  2  0  0  0  0
  5  6  1  0  0  0  0
  5 17  1  0  0  0  0
  5  7  1  0  0  0  0
  6 19  1  0  0  0  0
  7 23  1  0  0  0  0
  8  1  1  0  0  0  0
  8 24  1  0  0  0  0
  9  8  1  0  0  0  0
 10  8  1  0  0  0  0
 10 30  1  0  0  0  0
 11 13  1  0  0  0  0
 11  1  1  0  0  0  0
 12 34  1  0  0  0  0
 12 11  1  0  0  0  0
 13 35  1  0  0  0  0
 13 37  1  0  0  0  0
 14  2  1  0  0  0  0
 18  6  1  0  0  0  0
 20  6  1  0  0  0  0
 21  7  1  0  0  0  0
 22  7  1  0  0  0  0
 25  9  1  0  0  0  0
 26  9  1  0  0  0  0
 27  9  1  0  0  0  0
 28 10  1  0  0  0  0
 29 10  1  0  0  0  0
 31 11  1  0  0  0  0
 32 12  1  0  0  0  0
 33 12  1  0  0  0  0
 36 13  1  0  0  0  0
M  END
