1
q = -1.0, confidence = 0.0

 19 19  0  0  0  0  0  0  0  0999 V2000
    2.8491   -1.1361    0.0050 C   0  0  0  0  0  3  0  0  0  0  0  0
    3.9930   -0.3128    0.0106 C   0  0  0  0  0  0  0  0  0  0  0  0
    4.0753    1.2046    0.0398 C   0  0  0  0  0  0  0  0  0  0  0  0
    3.3346    1.7931   -1.1815 C   0  0  0  0  0  0  0  0  0  0  0  0
    3.7765    1.4229   -2.1284 H   0  0  0  0  0  0  0  0  0  0  0  0
    3.3932    2.9020   -1.1793 H   0  0  0  0  0  0  0  0  0  0  0  0
    2.2614    1.5066   -1.1727 H   0  0  0  0  0  0  0  0  0  0  0  0
    3.4142    1.7330    1.3326 C   0  0  0  0  0  0  0  0  0  0  0  0
    3.4581    2.8419    1.3732 H   0  0  0  0  0  0  0  0  0  0  0  0
    3.9224    1.3298    2.2315 H   0  0  0  0  0  0  0  0  0  0  0  0
    2.3483    1.4247    1.3814 H   0  0  0  0  0  0  0  0  0  0  0  0
    5.5490    1.6462    0.0042 C   0  0  0  0  0  0  0  0  0  0  0  0
    6.0515    1.2791   -0.9115 H   0  0  0  0  0  0  0  0  0  0  0  0
    6.1089    1.2330    0.8651 H   0  0  0  0  0  0  0  0  0  0  0  0
    5.6166    2.7534    0.0300 H   0  0  0  0  0  0  0  0  0  0  0  0
    3.4108   -2.3861   -0.0192 N   0  0  0  0  0  0  0  0  0  0  0  0
    2.9267   -3.2851   -0.0329 H   0  0  0  0  0  0  0  0  0  0  0  0
    4.7624   -2.3672   -0.0275 N   0  0  0  0  0  0  0  0  0  0  0  0
    5.1115   -1.1045   -0.0089 N   0  0  0  0  0  0  0  0  0  0  0  0
  1  2  2  0  0  0  0
  2  3  1  0  0  0  0
  3  8  1  0  0  0  0
  4  6  1  0  0  0  0
  4  7  1  0  0  0  0
  4  3  1  0  0  0  0
  5  4  1  0  0  0  0
  8  9  1  0  0  0  0
  8 11  1  0  0  0  0
  8 10  1  0  0  0  0
 12 15  1  0  0  0  0
 12  3  1  0  0  0  0
 12 14  1  0  0  0  0
 13 12  1  0  0  0  0
 16  1  1  0  0  0  0
 17 16  1  0  0  0  0
 18 16  1  0  0  0  0
 18 19  2  0  0  0  0
 19  2  1  0  0  0  0
M  END
