2
q = 0.0, confidence = 0.97

 28 29  0  0  1  0  0  0  0  0999 V2000
   -1.2970   -0.3592   -1.7393 C   0  0  0  0  0  3  0  0  0  0  0  0
   -2.6771   -0.6718   -1.5867 C   0  0  0  0  0  3  0  0  0  0  0  0
   -2.9917   -1.4373   -0.4113 C   0  0  0  0  0  3  0  0  0  0  0  0
   -2.1218   -2.6146   -0.0229 C   0  0  0  0  0  0  0  0  0  0  0  0
   -2.4053   -3.4923   -0.6471 H   0  0  0  0  0  0  0  0  0  0  0  0
   -2.3421   -2.9055    1.0238 H   0  0  0  0  0  0  0  0  0  0  0  0
   -0.6266   -2.2836   -0.1870 C   0  0  0  0  0  0  0  0  0  0  0  0
   -0.1070   -2.3765    0.7872 H   0  0  0  0  0  0  0  0  0  0  0  0
   -0.1267   -3.0068   -0.8692 H   0  0  0  0  0  0  0  0  0  0  0  0
   -0.3976   -0.8805   -0.7321 C   0  0  1  0  0  3  0  0  0  0  0  0
    0.9550   -0.3281   -0.6856 C   0  0  0  0  0  0  0  0  0  0  0  0
    2.0462   -0.9035   -0.1086 C   0  0  0  0  0  0  0  0  0  0  0  0
    3.3908   -0.3278   -0.0377 C   0  0  0  0  0  0  0  0  0  0  0  0
    4.4698   -1.1426    0.3844 C   0  0  0  0  0  0  0  0  0  0  0  0
    4.2701   -2.1918    0.6545 H   0  0  0  0  0  0  0  0  0  0  0  0
    5.7754   -0.6407    0.4559 C   0  0  0  0  0  0  0  0  0  0  0  0
    6.5963   -1.2965    0.7840 H   0  0  0  0  0  0  0  0  0  0  0  0
    6.0356    0.6953    0.1129 C   0  0  0  0  0  0  0  0  0  0  0  0
    4.9748    1.5236   -0.2953 C   0  0  0  0  0  0  0  0  0  0  0  0
    3.6712    1.0225   -0.3673 C   0  0  0  0  0  0  0  0  0  0  0  0
    2.8508    1.6944   -0.6612 H   0  0  0  0  0  0  0  0  0  0  0  0
   -0.9434    0.3072   -2.5410 H   0  0  0  0  0  0  0  0  0  0  0  0
   -3.4378   -0.2586   -2.2660 H   0  0  0  0  0  0  0  0  0  0  0  0
   -4.0594   -1.5294   -0.1519 H   0  0  0  0  0  0  0  0  0  0  0  0
    1.0783    0.6511   -1.1784 H   0  0  0  0  0  0  0  0  0  0  0  0
    1.9426   -1.9013    0.3495 H   0  0  0  0  0  0  0  0  0  0  0  0
    7.0594    1.0945    0.1714 H   0  0  0  0  0  0  0  0  0  0  0  0
    5.1670    2.5768   -0.5511 H   0  0  0  0  0  0  0  0  0  0  0  0
  1  2  1  0  0  0  0
  1 10  1  0  0  0  0
  2  3  1  0  0  0  0
  3 24  1  0  0  0  0
  3  4  1  0  0  0  0
  4  6  1  0  0  0  0
  5  4  1  0  0  0  0
  7  4  1  0  0  0  0
  7  8  1  0  0  0  0
  9  7  1  0  0  0  0
 10 11  1  6  0  0  0
 10  7  1  0  0  0  0
 11 12  2  0  0  0  0
 12 13  1  0  0  0  0
 12 26  1  0  0  0  0
 13 14  1  0  0  0  0
 14 16  2  0  0  0  0
 14 15  1  0  0  0  0
 16 17  1  0  0  0  0
 18 27  1  0  0  0  0
 18 16  1  0  0  0  0
 19 18  2  0  0  0  0
 20 19  1  0  0  0  0
 20 13  2  0  0  0  0
 21 20  1  0  0  0  0
 22  1  1  0  0  0  0
 23  2  1  0  0  0  0
 25 11  1  0  0  0  0
 28 19  1  0  0  0  0
M  END
