18
q = 0.0, confidence = 0.94

 48 49  0  0  1  0  0  0  0  0999 V2000
    0.7263    4.3299   -2.1647 O   0  0  0  0  0  0  0  0  0  0  0  0
    2.1348    1.7246    2.1289 O   0  0  0  0  0  0  0  0  0  0  0  0
    0.0669   -1.5331    0.7301 O   0  0  0  0  0  0  0  0  0  0  0  0
    0.9706    3.2339   -1.6881 C   0  0  0  0  0  0  0  0  0  0  0  0
    1.2570    3.0266   -0.1992 C   0  0  2  0  0  0  0  0  0  0  0  0
    0.4555    1.8243    0.3781 C   0  0  1  0  0  0  0  0  0  0  0  0
    0.6080    0.5007   -0.4670 C   0  0  1  0  0  0  0  0  0  0  0  0
    0.2350    0.8259   -1.9411 C   0  0  0  0  0  0  0  0  0  0  0  0
    1.0439    1.9795   -2.5440 C   0  0  0  0  0  0  0  0  0  0  0  0
    1.0353    4.3149    0.5931 C   0  0  0  0  0  0  0  0  0  0  0  0
    0.7409    1.6402    1.8769 C   0  0  0  0  0  0  0  0  0  0  0  0
    2.4553    1.5011    3.4877 C   0  0  0  0  0  0  0  0  0  0  0  0
    2.0850    0.0211   -0.3700 C   0  0  0  0  0  0  0  0  0  0  0  0
    3.7691   -1.7560   -0.0948 C   0  0  0  0  0  0  0  0  0  0  0  0
    4.7406   -1.2879   -1.1690 C   0  0  0  0  0  0  0  0  0  0  0  0
    1.8283   -2.1018   -1.6438 C   0  0  0  0  0  0  0  0  0  0  0  0
    2.1961   -3.5635   -1.8571 C   0  0  0  0  0  0  0  0  0  0  0  0
   -0.4302   -0.4978    0.1166 C   0  0  0  0  0  2  0  0  0  0  0  0
    2.3091   -1.4677   -0.3571 N   0  3  0  0  0  0  0  0  0  0  0  0
    2.0072   -1.3631    2.0668 F   0  0  0  0  0  0  0  0  0  0  0  0
    1.4980   -3.3499    1.0171 F   0  0  0  0  0  0  0  0  0  0  0  0
    1.4687   -1.9779    0.9478 B   0  0  0  0  0  0  0  0  0  0  0  0
    2.3382    2.7588   -0.1394 H   0  0  0  0  0  0  0  0  0  0  0  0
   -0.6189    2.0882    0.3082 H   0  0  0  0  0  0  0  0  0  0  0  0
    0.3277   -0.0747   -2.5770 H   0  0  0  0  0  0  0  0  0  0  0  0
   -0.8334    1.0991   -1.9687 H   0  0  0  0  0  0  0  0  0  0  0  0
    0.6810    2.2319   -3.5586 H   0  0  0  0  0  0  0  0  0  0  0  0
    2.1195    1.7077   -2.6469 H   0  0  0  0  0  0  0  0  0  0  0  0
    1.4819    4.2424    1.6018 H   0  0  0  0  0  0  0  0  0  0  0  0
    1.4917    5.1687    0.0586 H   0  0  0  0  0  0  0  0  0  0  0  0
   -0.0469    4.5364    0.6924 H   0  0  0  0  0  0  0  0  0  0  0  0
    0.2018    2.4285    2.4539 H   0  0  0  0  0  0  0  0  0  0  0  0
    0.3432    0.6640    2.2366 H   0  0  0  0  0  0  0  0  0  0  0  0
    2.1640    0.4769    3.8130 H   0  0  0  0  0  0  0  0  0  0  0  0
    3.5513    1.6160    3.5947 H   0  0  0  0  0  0  0  0  0  0  0  0
    1.9519    2.2432    4.1519 H   0  0  0  0  0  0  0  0  0  0  0  0
    2.5341    0.4005    0.5660 H   0  0  0  0  0  0  0  0  0  0  0  0
    2.6617    0.4387   -1.2166 H   0  0  0  0  0  0  0  0  0  0  0  0
    3.9916   -1.2807    0.8782 H   0  0  0  0  0  0  0  0  0  0  0  0
    3.8388   -2.8483    0.0632 H   0  0  0  0  0  0  0  0  0  0  0  0
    4.5527   -1.7562   -2.1551 H   0  0  0  0  0  0  0  0  0  0  0  0
    5.7654   -1.5748   -0.8618 H   0  0  0  0  0  0  0  0  0  0  0  0
    4.7395   -0.1882   -1.2985 H   0  0  0  0  0  0  0  0  0  0  0  0
    2.2211   -1.4773   -2.4724 H   0  0  0  0  0  0  0  0  0  0  0  0
    0.7284   -1.9963   -1.6557 H   0  0  0  0  0  0  0  0  0  0  0  0
    1.8291   -4.2015   -1.0342 H   0  0  0  0  0  0  0  0  0  0  0  0
    3.2860   -3.7208   -1.9729 H   0  0  0  0  0  0  0  0  0  0  0  0
    1.7151   -3.8999   -2.7965 H   0  0  0  0  0  0  0  0  0  0  0  0
  1  4  2  0  0  0  0
  2 12  1  0  0  0  0
  3 22  1  0  0  0  0
  4  5  1  0  0  0  0
  5 23  1  1  0  0  0
  5  6  1  0  0  0  0
  5 10  1  0  0  0  0
  6 24  1  6  0  0  0
  6 11  1  0  0  0  0
  7 13  1  0  0  0  0
  7 18  1  1  0  0  0
  7  6  1  0  0  0  0
  8  7  1  0  0  0  0
  9  8  1  0  0  0  0
  9  4  1  0  0  0  0
 10 31  1  0  0  0  0
 10 29  1  0  0  0  0
 11  2  1  0  0  0  0
 11 33  1  0  0  0  0
 11 32  1  0  0  0  0
 12 35  1  0  0  0  0
 12 34  1  0  0  0  0
 12 36  1  0  0  0  0
 13 19  1  0  0  0  0
 13 37  1  0  0  0  0
 14 40  1  0  0  0  0
 14 39  1  0  0  0  0
 15 42  1  0  0  0  0
 15 14  1  0  0  0  0
 16 19  1  0  0  0  0
 17 16  1  0  0  0  0
 17 46  1  0  0  0  0
 18  3  1  0  0  0  0
 19 14  1  0  0  0  0
 19 22  1  0  0  0  0
 22 21  1  0  0  0  0
 22 20  1  0  0  0  0
 25  8  1  0  0  0  0
 26  8  1  0  0  0  0
 27  9  1  0  0  0  0
 28  9  1  0  0  0  0
 30 10  1  0  0  0  0
 38 13  1  0  0  0  0
 41 15  1  0  0  0  0
 43 15  1  0  0  0  0
 44 16  1  0  0  0  0
 45 16  1  0  0  0  0
 47 17  1  0  0  0  0
 48 17  1  0  0  0  0
M  CHG  1  19   1
M  END
