1
q = 0.0, confidence = 0.936

 20 20  0  0  0  0  0  0  0  0999 V2000
    0.9430    0.8819    0.4741 C   0  0  0  0  0  2  0  0  0  0  0  0
    0.6095    2.1101    0.8839 O   0  0  0  0  0  0  0  0  0  0  0  0
    1.5785    3.0992    1.2973 C   0  0  0  0  0  0  0  0  0  0  0  0
    1.0493    3.7477    2.0188 H   0  0  0  0  0  0  0  0  0  0  0  0
    1.9073    3.7019    0.4291 H   0  0  0  0  0  0  0  0  0  0  0  0
    2.4573    2.6220    1.7710 H   0  0  0  0  0  0  0  0  0  0  0  0
    2.3780    0.6248    0.1962 C   0  0  0  0  0  0  0  0  0  0  0  0
    3.0413    1.3614   -0.8142 C   0  0  0  0  0  0  0  0  0  0  0  0
    2.4965    2.1363   -1.3749 H   0  0  0  0  0  0  0  0  0  0  0  0
    4.3706    1.0777   -1.1424 C   0  0  0  0  0  0  0  0  0  0  0  0
    4.8596    1.6474   -1.9481 H   0  0  0  0  0  0  0  0  0  0  0  0
    5.0951    0.0728   -0.4664 C   0  0  0  0  0  0  0  0  0  0  0  0
    4.4306   -0.6469    0.5482 C   0  0  0  0  0  0  0  0  0  0  0  0
    4.9725   -1.4327    1.0972 H   0  0  0  0  0  0  0  0  0  0  0  0
    3.0921   -0.3915    0.8671 C   0  0  0  0  0  0  0  0  0  0  0  0
    2.5948   -0.9747    1.6550 H   0  0  0  0  0  0  0  0  0  0  0  0
    6.5171   -0.2469   -0.8444 C   0  0  0  0  0  0  0  0  0  0  0  0
    7.0504    0.6458   -1.2258 H   0  0  0  0  0  0  0  0  0  0  0  0
    6.5453   -1.0122   -1.6500 H   0  0  0  0  0  0  0  0  0  0  0  0
    7.0866   -0.6556    0.0129 H   0  0  0  0  0  0  0  0  0  0  0  0
  1  2  1  0  0  0  0
  2  3  1  0  0  0  0
  3  6  1  0  0  0  0
  3  4  1  0  0  0  0
  5  3  1  0  0  0  0
  7  1  1  0  0  0  0
  7 15  1  0  0  0  0
  8  7  2  0  0  0  0
  9  8  1  0  0  0  0
 10  8  1  0  0  0  0
 10 12  2  0  0  0  0
 11 10  1  0  0  0  0
 12 13  1  0  0  0  0
 13 15  2  0  0  0  0
 13 14  1  0  0  0  0
 15 16  1  0  0  0  0
 17 12  1  0  0  0  0
 17 20  1  0  0  0  0
 18 17  1  0  0  0  0
 19 17  1  0  0  0  0
M  END
