14
q = -2.0, confidence = 0.752

 34 35  0  0  1  0  0  0  0  0999 V2000
   -0.0020    1.2931   -1.8815 C   0  0  0  0  0  0  0  0  0  0  0  0
   -1.4098    1.4088   -1.9050 C   0  0  0  0  0  0  0  0  0  0  0  0
   -1.8214    2.0455   -0.6926 C   0  0  0  0  0  0  0  0  0  0  0  0
   -0.6531    2.3790    0.0611 C   0  0  0  0  0  0  0  0  0  0  0  0
    0.4779    1.8706   -0.6506 C   0  0  1  0  0  3  0  0  0  0  0  0
    1.9317    1.8348   -0.2035 C   0  0  0  0  0  0  0  0  0  0  0  0
    2.1022    2.4906    1.1825 C   0  0  0  0  0  0  0  0  0  0  0  0
    2.7868    2.6055   -1.2347 C   0  0  0  0  0  0  0  0  0  0  0  0
    2.3280    0.3472   -0.1191 C   0  0  0  0  0  0  0  0  0  0  0  0
    3.6831   -0.0230   -0.0577 C   0  0  0  0  0  0  0  0  0  0  0  0
    4.0696   -1.3725    0.0025 C   0  0  0  0  0  0  0  0  0  0  0  0
    3.0543   -2.3483   -0.0193 C   0  0  0  0  0  0  0  0  0  0  0  0
    1.6904   -2.0106   -0.0641 C   0  0  0  0  0  0  0  0  0  0  0  0
    1.2994   -0.6362   -0.0821 C   0  0  0  0  0  3  0  0  0  0  0  0
    5.5211   -1.7734    0.0812 C   0  0  0  0  0  0  0  0  0  0  0  0
    0.6663   -3.1174   -0.1339 C   0  0  0  0  0  0  0  0  0  0  0  0
    0.6238    0.8054   -2.6378 H   0  0  0  0  0  0  0  0  0  0  0  0
   -2.0796    1.0409   -2.6903 H   0  0  0  0  0  0  0  0  0  0  0  0
   -2.8562    2.2647   -0.3996 H   0  0  0  0  0  0  0  0  0  0  0  0
   -0.6360    2.9186    1.0130 H   0  0  0  0  0  0  0  0  0  0  0  0
    1.8107    3.5607    1.1608 H   0  0  0  0  0  0  0  0  0  0  0  0
    3.1607    2.4295    1.5026 H   0  0  0  0  0  0  0  0  0  0  0  0
    1.4926    1.9752    1.9510 H   0  0  0  0  0  0  0  0  0  0  0  0
    2.7522    2.1219   -2.2303 H   0  0  0  0  0  0  0  0  0  0  0  0
    3.8475    2.6604   -0.9192 H   0  0  0  0  0  0  0  0  0  0  0  0
    2.4121    3.6437   -1.3407 H   0  0  0  0  0  0  0  0  0  0  0  0
    4.4666    0.7519   -0.0692 H   0  0  0  0  0  0  0  0  0  0  0  0
    3.3363   -3.4150   -0.0026 H   0  0  0  0  0  0  0  0  0  0  0  0
    6.1941   -0.9038   -0.0493 H   0  0  0  0  0  0  0  0  0  0  0  0
    5.7784   -2.5253   -0.6934 H   0  0  0  0  0  0  0  0  0  0  0  0
    5.7567   -2.2357    1.0636 H   0  0  0  0  0  0  0  0  0  0  0  0
    0.1841   -3.1564   -1.1341 H   0  0  0  0  0  0  0  0  0  0  0  0
   -0.1436   -2.9552    0.6072 H   0  0  0  0  0  0  0  0  0  0  0  0
    1.1202   -4.1097    0.0540 H   0  0  0  0  0  0  0  0  0  0  0  0
  1  5  1  0  0  0  0
  2  1  2  0  0  0  0
  2  3  1  0  0  0  0
  3 19  1  0  0  0  0
  3  4  2  0  0  0  0
  4 20  1  0  0  0  0
  5  6  1  1  0  0  0
  5  4  1  0  0  0  0
  6  9  1  0  0  0  0
  6  7  1  0  0  0  0
  7 22  1  0  0  0  0
  7 23  1  0  0  0  0
  8 25  1  0  0  0  0
  8  6  1  0  0  0  0
  9 14  2  0  0  0  0
  9 10  1  0  0  0  0
 10 11  2  0  0  0  0
 11 15  1  0  0  0  0
 12 28  1  0  0  0  0
 12 11  1  0  0  0  0
 13 12  2  0  0  0  0
 14 13  1  0  0  0  0
 15 31  1  0  0  0  0
 16 13  1  0  0  0  0
 16 34  1  0  0  0  0
 16 33  1  0  0  0  0
 17  1  1  0  0  0  0
 18  2  1  0  0  0  0
 21  7  1  0  0  0  0
 24  8  1  0  0  0  0
 26  8  1  0  0  0  0
 27 10  1  0  0  0  0
 29 15  1  0  0  0  0
 30 15  1  0  0  0  0
 32 16  1  0  0  0  0
M  END
