9
q = -2.0, confidence = 0.776

 43 45  0  0  1  0  0  0  0  0999 V2000
    1.3845   -1.1471   -0.2049 P   0  0  0  0  0  4  0  0  0  0  0  0
   -1.7493    2.1121    0.4739 S   0  0  0  0  0  1  0  0  0  0  0  0
   -0.9923   -2.8398   -0.5888 S   0  0  0  0  0  1  0  0  0  0  0  0
    1.7644   -4.0225   -1.0634 S   0  0  0  0  0  0  0  0  0  0  0  0
   -0.3501    2.5347   -0.6649 C   0  0  2  0  0  0  0  0  0  0  0  0
   -0.7651    2.6995   -1.6881 H   0  0  0  0  0  0  0  0  0  0  0  0
    0.5881    1.3556   -0.7142 C   0  0  0  0  0  0  0  0  0  0  0  0
    1.6368    1.5831   -0.9986 H   0  0  0  0  0  0  0  0  0  0  0  0
    0.1501    0.1065   -0.4017 C   0  0  0  0  0  3  0  0  0  0  0  0
    0.7098   -2.7885   -0.7006 C   0  0  0  0  0  0  0  0  0  0  0  0
    0.3175    3.8154   -0.2139 C   0  0  0  0  0  0  0  0  0  0  0  0
    0.0594    5.0354   -0.8664 C   0  0  0  0  0  0  0  0  0  0  0  0
   -0.6263    5.0491   -1.7286 H   0  0  0  0  0  0  0  0  0  0  0  0
    0.6608    6.2252   -0.4276 C   0  0  0  0  0  0  0  0  0  0  0  0
    0.4472    7.1710   -0.9489 H   0  0  0  0  0  0  0  0  0  0  0  0
    1.5326    6.2091    0.6719 C   0  0  0  0  0  0  0  0  0  0  0  0
    2.0061    7.1411    1.0165 H   0  0  0  0  0  0  0  0  0  0  0  0
    1.7959    4.9969    1.3320 C   0  0  0  0  0  0  0  0  0  0  0  0
    2.4766    4.9773    2.1971 H   0  0  0  0  0  0  0  0  0  0  0  0
    1.1897    3.8117    0.8947 C   0  0  0  0  0  0  0  0  0  0  0  0
    1.3849    2.8638    1.4206 H   0  0  0  0  0  0  0  0  0  0  0  0
    2.9580   -0.8157   -1.0520 C   0  0  0  0  0  0  0  0  0  0  0  0
    3.0775   -1.1038   -2.4284 C   0  0  0  0  0  0  0  0  0  0  0  0
    2.2680   -1.6334   -2.9519 H   0  0  0  0  0  0  0  0  0  0  0  0
    4.2383   -0.7314   -3.1174 C   0  0  0  0  0  0  0  0  0  0  0  0
    4.3351   -0.9656   -4.1882 H   0  0  0  0  0  0  0  0  0  0  0  0
    5.2779   -0.0663   -2.4443 C   0  0  0  0  0  0  0  0  0  0  0  0
    6.1884    0.2238   -2.9903 H   0  0  0  0  0  0  0  0  0  0  0  0
    5.1568    0.2270   -1.0777 C   0  0  0  0  0  0  0  0  0  0  0  0
    5.9690    0.7484   -0.5492 H   0  0  0  0  0  0  0  0  0  0  0  0
    3.9986   -0.1458   -0.3780 C   0  0  0  0  0  0  0  0  0  0  0  0
    3.9040    0.0787    0.6952 H   0  0  0  0  0  0  0  0  0  0  0  0
    1.7473   -1.2573    1.5811 C   0  0  0  0  0  0  0  0  0  0  0  0
    2.5421   -2.3143    2.0706 C   0  0  0  0  0  0  0  0  0  0  0  0
    2.9263   -3.0760    1.3733 H   0  0  0  0  0  0  0  0  0  0  0  0
    2.8182   -2.3905    3.4427 C   0  0  0  0  0  0  0  0  0  0  0  0
    3.4354   -3.2157    3.8287 H   0  0  0  0  0  0  0  0  0  0  0  0
    2.3069   -1.4205    4.3223 C   0  0  0  0  0  0  0  0  0  0  0  0
    2.5252   -1.4867    5.3990 H   0  0  0  0  0  0  0  0  0  0  0  0
    1.5168   -0.3693    3.8305 C   0  0  0  0  0  0  0  0  0  0  0  0
    1.1140    0.3897    4.5183 H   0  0  0  0  0  0  0  0  0  0  0  0
    1.2322   -0.2821    2.4589 C   0  0  0  0  0  0  0  0  0  0  0  0
    0.6015    0.5297    2.0622 H   0  0  0  0  0  0  0  0  0  0  0  0
  1 33  1  0  0  0  0
  4 10  2  0  0  0  0
  5  6  1  6  0  0  0
  5 11  1  0  0  0  0
  5  2  1  0  0  0  0
  7  5  1  0  0  0  0
  7  9  2  0  0  0  0
  8  7  1  0  0  0  0
  9  1  1  0  0  0  0
 10  3  1  0  0  0  0
 10  1  1  0  0  0  0
 11 20  1  0  0  0  0
 12 14  1  0  0  0  0
 12 11  2  0  0  0  0
 13 12  1  0  0  0  0
 14 16  2  0  0  0  0
 15 14  1  0  0  0  0
 16 17  1  0  0  0  0
 16 18  1  0  0  0  0
 18 19  1  0  0  0  0
 20 18  2  0  0  0  0
 20 21  1  0  0  0  0
 22 31  1  0  0  0  0
 22  1  1  0  0  0  0
 23 22  2  0  0  0  0
 24 23  1  0  0  0  0
 25 27  2  0  0  0  0
 25 23  1  0  0  0  0
 26 25  1  0  0  0  0
 27 29  1  0  0  0  0
 28 27  1  0  0  0  0
 29 30  1  0  0  0  0
 29 31  2  0  0  0  0
 31 32  1  0  0  0  0
 33 34  2  0  0  0  0
 33 42  1  0  0  0  0
 34 36  1  0  0  0  0
 35 34  1  0  0  0  0
 36 37  1  0  0  0  0
 36 38  2  0  0  0  0
 38 39  1  0  0  0  0
 40 38  1  0  0  0  0
 40 41  1  0  0  0  0
 42 40  2  0  0  0  0
 43 42  1  0  0  0  0
M  END
