4
q = 0.0, confidence = 0.932

 35 36  0  0  0  0  0  0  0  0999 V2000
    0.6412   -0.0793    3.1321 O   0  0  0  0  0  0  0  0  0  0  0  0
    1.6183    1.7573    2.2056 O   0  0  0  0  0  0  0  0  0  0  0  0
   -1.0219    0.5388    0.7130 N   0  0  0  0  0  2  0  0  0  0  0  0
    0.2341    0.4226    0.8263 C   0  0  0  0  0  2  0  0  0  0  0  0
   -2.2677    0.2977    0.5097 C   0  0  0  0  0  3  0  0  0  0  0  0
   -3.1092    1.3461   -0.1158 C   0  0  0  0  0  0  0  0  0  0  0  0
   -2.5210    2.2644   -1.0151 C   0  0  0  0  0  0  0  0  0  0  0  0
   -1.4511    2.1752   -1.2551 H   0  0  0  0  0  0  0  0  0  0  0  0
   -3.2964    3.2672   -1.6070 C   0  0  0  0  0  0  0  0  0  0  0  0
   -2.8306    3.9688   -2.3150 H   0  0  0  0  0  0  0  0  0  0  0  0
   -4.6641    3.3741   -1.3016 C   0  0  0  0  0  0  0  0  0  0  0  0
   -5.2726    4.1640   -1.7673 H   0  0  0  0  0  0  0  0  0  0  0  0
   -5.2528    2.4732   -0.3998 C   0  0  0  0  0  0  0  0  0  0  0  0
   -6.3206    2.5613   -0.1495 H   0  0  0  0  0  0  0  0  0  0  0  0
   -4.4833    1.4612    0.1900 C   0  0  0  0  0  0  0  0  0  0  0  0
   -4.9423    0.7657    0.9074 H   0  0  0  0  0  0  0  0  0  0  0  0
   -2.7743   -1.0526    0.8652 C   0  0  0  0  0  0  0  0  0  0  0  0
   -3.8201   -1.6455    0.1212 C   0  0  0  0  0  0  0  0  0  0  0  0
   -4.2857   -1.0906   -0.7055 H   0  0  0  0  0  0  0  0  0  0  0  0
   -4.2271   -2.9556    0.4035 C   0  0  0  0  0  0  0  0  0  0  0  0
   -5.0328   -3.4137   -0.1894 H   0  0  0  0  0  0  0  0  0  0  0  0
   -3.5993   -3.6872    1.4246 C   0  0  0  0  0  0  0  0  0  0  0  0
   -3.9223   -4.7163    1.6431 H   0  0  0  0  0  0  0  0  0  0  0  0
   -2.5534   -3.1060    2.1606 C   0  0  0  0  0  0  0  0  0  0  0  0
   -2.0537   -3.6765    2.9576 H   0  0  0  0  0  0  0  0  0  0  0  0
   -2.1393   -1.7973    1.8869 C   0  0  0  0  0  0  0  0  0  0  0  0
   -1.3196   -1.3441    2.4668 H   0  0  0  0  0  0  0  0  0  0  0  0
    0.8294    0.6793    2.1964 C   0  0  0  0  0  0  0  0  0  0  0  0
    2.3656    2.0017    3.4283 C   0  0  0  0  0  0  0  0  0  0  0  0
    1.6460    2.2766    4.2282 H   0  0  0  0  0  0  0  0  0  0  0  0
    2.8511    1.0518    3.7321 H   0  0  0  0  0  0  0  0  0  0  0  0
    3.3678    3.0987    3.1438 C   0  0  0  0  0  0  0  0  0  0  0  0
    3.9462    3.3231    4.0617 H   0  0  0  0  0  0  0  0  0  0  0  0
    2.8618    4.0283    2.8167 H   0  0  0  0  0  0  0  0  0  0  0  0
    4.0755    2.7834    2.3527 H   0  0  0  0  0  0  0  0  0  0  0  0
  2 29  1  0  0  0  0
  3  4  1  0  0  0  0
  4 28  1  0  0  0  0
  5  3  1  0  0  0  0
  5 17  1  0  0  0  0
  6 15  1  0  0  0  0
  6  5  1  0  0  0  0
  7  6  2  0  0  0  0
  8  7  1  0  0  0  0
  9 11  2  0  0  0  0
  9  7  1  0  0  0  0
 10  9  1  0  0  0  0
 11 13  1  0  0  0  0
 12 11  1  0  0  0  0
 13 14  1  0  0  0  0
 13 15  2  0  0  0  0
 15 16  1  0  0  0  0
 17 26  1  0  0  0  0
 18 20  1  0  0  0  0
 18 17  2  0  0  0  0
 19 18  1  0  0  0  0
 20 22  2  0  0  0  0
 21 20  1  0  0  0  0
 22 23  1  0  0  0  0
 22 24  1  0  0  0  0
 24 25  1  0  0  0  0
 26 24  2  0  0  0  0
 26 27  1  0  0  0  0
 28  2  1  0  0  0  0
 28  1  2  0  0  0  0
 29 31  1  0  0  0  0
 29 30  1  0  0  0  0
 32 29  1  0  0  0  0
 32 33  1  0  0  0  0
 34 32  1  0  0  0  0
 35 32  1  0  0  0  0
M  END
