5
q = -1.0, confidence = 0.0

 21 21  0  0  0  0  0  0  0  0999 V2000
   -2.3038    0.1037    0.9704 N   0  0  0  0  0  0  0  0  0  0  0  0
   -3.1882   -1.0452    0.6690 C   0  0  0  0  0  0  0  0  0  0  0  0
   -3.0312   -1.4285   -0.8017 C   0  0  0  0  0  0  0  0  0  0  0  0
   -1.5611   -1.5394   -1.1103 C   0  0  0  0  0  0  0  0  0  0  0  0
   -0.5992   -2.2052   -0.2437 C   0  0  0  0  0  3  0  0  0  0  0  0
    0.7094   -1.9191   -0.7665 C   0  0  0  0  0  0  0  0  0  0  0  0
    0.5366   -1.1096   -1.9507 C   0  0  0  0  0  0  0  0  0  0  0  0
   -0.8548   -0.9144   -2.1875 C   0  0  0  0  0  0  0  0  0  0  0  0
   -2.3504    0.5021    2.3882 C   0  0  0  0  0  0  0  0  0  0  0  0
   -2.5777    0.9304    0.4056 H   0  0  0  0  0  0  0  0  0  0  0  0
   -2.8769   -1.8841    1.3243 H   0  0  0  0  0  0  0  0  0  0  0  0
   -4.2431   -0.8043    0.9307 H   0  0  0  0  0  0  0  0  0  0  0  0
   -3.4935   -0.6615   -1.4562 H   0  0  0  0  0  0  0  0  0  0  0  0
   -3.5579   -2.3858   -1.0007 H   0  0  0  0  0  0  0  0  0  0  0  0
   -0.8255   -2.8685    0.5994 H   0  0  0  0  0  0  0  0  0  0  0  0
    1.6659   -2.3046   -0.3984 H   0  0  0  0  0  0  0  0  0  0  0  0
    1.3773   -0.7251   -2.5405 H   0  0  0  0  0  0  0  0  0  0  0  0
   -1.3026   -0.3023   -2.9793 H   0  0  0  0  0  0  0  0  0  0  0  0
   -3.3984    0.6731    2.7183 H   0  0  0  0  0  0  0  0  0  0  0  0
   -1.8963   -0.2872    3.0159 H   0  0  0  0  0  0  0  0  0  0  0  0
   -1.7682    1.4324    2.5138 H   0  0  0  0  0  0  0  0  0  0  0  0
  1  9  1  0  0  0  0
  2 12  1  0  0  0  0
  2  1  1  0  0  0  0
  2 11  1  0  0  0  0
  3  2  1  0  0  0  0
  4  3  1  0  0  0  0
  4  5  1  0  0  0  0
  5 15  1  0  0  0  0
  6 16  1  0  0  0  0
  6  5  1  0  0  0  0
  7  6  2  0  0  0  0
  8  7  1  0  0  0  0
  8  4  2  0  0  0  0
  9 21  1  0  0  0  0
  9 19  1  0  0  0  0
  9 20  1  0  0  0  0
 10  1  1  0  0  0  0
 13  3  1  0  0  0  0
 14  3  1  0  0  0  0
 17  7  1  0  0  0  0
 18  8  1  0  0  0  0
M  END
