2
q = 0.0, confidence = 0.97

 17 16  0  0  0  0  0  0  0  0999 V2000
    2.7294   -0.0586    0.4087 N   0  0  0  0  0  0  0  0  0  0  0  0
    1.4942    0.3618    0.7150 C   0  0  0  0  0  2  0  0  0  0  0  0
    1.5410    1.1425    1.4930 H   0  0  0  0  0  0  0  0  0  0  0  0
    3.9051    0.6683    0.9072 C   0  0  0  0  0  0  0  0  0  0  0  0
    4.7554   -0.0416    0.9687 H   0  0  0  0  0  0  0  0  0  0  0  0
    3.6899    0.9958    1.9454 H   0  0  0  0  0  0  0  0  0  0  0  0
    4.2585    1.8669    0.0257 C   0  0  0  0  0  0  0  0  0  0  0  0
    5.1469    2.3973    0.4235 H   0  0  0  0  0  0  0  0  0  0  0  0
    3.4101    2.5782   -0.0221 H   0  0  0  0  0  0  0  0  0  0  0  0
    4.4825    1.5520   -1.0128 H   0  0  0  0  0  0  0  0  0  0  0  0
    2.9921   -1.1084   -0.5875 C   0  0  0  0  0  0  0  0  0  0  0  0
    3.6958   -0.7017   -1.3454 H   0  0  0  0  0  0  0  0  0  0  0  0
    2.0511   -1.3137   -1.1358 H   0  0  0  0  0  0  0  0  0  0  0  0
    3.5212   -2.3973    0.0332 C   0  0  0  0  0  0  0  0  0  0  0  0
    3.7289   -3.1389   -0.7635 H   0  0  0  0  0  0  0  0  0  0  0  0
    2.7603   -2.8205    0.7174 H   0  0  0  0  0  0  0  0  0  0  0  0
    4.4635   -2.2369    0.5963 H   0  0  0  0  0  0  0  0  0  0  0  0
  1  2  1  0  0  0  0
  1  4  1  0  0  0  0
  2  3  1  0  0  0  0
  4  5  1  0  0  0  0
  4  6  1  0  0  0  0
  7  8  1  0  0  0  0
  7  4  1  0  0  0  0
  9  7  1  0  0  0  0
 10  7  1  0  0  0  0
 11 14  1  0  0  0  0
 11  1  1  0  0  0  0
 12 11  1  0  0  0  0
 13 11  1  0  0  0  0
 14 17  1  0  0  0  0
 14 16  1  0  0  0  0
 15 14  1  0  0  0  0
M  END
