1
q = -1.0, confidence = 0.252

 56 59  0  0  0  0  0  0  0  0999 V2000
   -1.2213   -0.0773   -0.8182 C   0  0  0  0  0  3  0  0  0  0  0  0
   -1.4171    0.1332   -1.8922 H   0  0  0  0  0  0  0  0  0  0  0  0
   -2.1460    1.1371    0.1431 P   0  0  0  0  0  4  0  0  0  0  0  0
   -1.5367   -1.8236   -0.5071 P   0  0  0  0  0  4  0  0  0  0  0  0
   -1.9583    2.7623   -0.6449 C   0  0  0  0  0  0  0  0  0  0  0  0
   -2.9733    3.7223   -0.4319 C   0  0  0  0  0  0  0  0  0  0  0  0
   -3.8771    3.4651    0.1409 H   0  0  0  0  0  0  0  0  0  0  0  0
   -2.8313    5.0111   -0.9631 C   0  0  0  0  0  0  0  0  0  0  0  0
   -3.6218    5.7576   -0.7969 H   0  0  0  0  0  0  0  0  0  0  0  0
   -1.6873    5.3458   -1.7060 C   0  0  0  0  0  0  0  0  0  0  0  0
   -1.5810    6.3583   -2.1230 H   0  0  0  0  0  0  0  0  0  0  0  0
   -0.6787    4.3923   -1.9149 C   0  0  0  0  0  0  0  0  0  0  0  0
    0.2211    4.6534   -2.4909 H   0  0  0  0  0  0  0  0  0  0  0  0
   -0.8053    3.1009   -1.3839 C   0  0  0  0  0  0  0  0  0  0  0  0
    0.0028    2.3633   -1.5239 H   0  0  0  0  0  0  0  0  0  0  0  0
   -3.9312    0.7718    0.1738 C   0  0  0  0  0  0  0  0  0  0  0  0
   -4.5774    0.3279    1.3453 C   0  0  0  0  0  0  0  0  0  0  0  0
   -4.0333    0.2646    2.2982 H   0  0  0  0  0  0  0  0  0  0  0  0
   -5.9312   -0.0428    1.2971 C   0  0  0  0  0  0  0  0  0  0  0  0
   -6.4355   -0.3837    2.2136 H   0  0  0  0  0  0  0  0  0  0  0  0
   -6.6407    0.0310    0.0884 C   0  0  0  0  0  0  0  0  0  0  0  0
   -7.7020   -0.2569    0.0559 H   0  0  0  0  0  0  0  0  0  0  0  0
   -6.0008    0.4846   -1.0789 C   0  0  0  0  0  0  0  0  0  0  0  0
   -6.5603    0.5554   -2.0234 H   0  0  0  0  0  0  0  0  0  0  0  0
   -4.6502    0.8534   -1.0403 C   0  0  0  0  0  0  0  0  0  0  0  0
   -4.1546    1.2150   -1.9551 H   0  0  0  0  0  0  0  0  0  0  0  0
   -0.2862   -2.8380   -1.3420 C   0  0  0  0  0  0  0  0  0  0  0  0
   -0.1490   -4.1805   -0.9278 C   0  0  0  0  0  0  0  0  0  0  0  0
   -0.7616   -4.5794   -0.1040 H   0  0  0  0  0  0  0  0  0  0  0  0
    0.7978   -5.0029   -1.5530 C   0  0  0  0  0  0  0  0  0  0  0  0
    0.9145   -6.0462   -1.2247 H   0  0  0  0  0  0  0  0  0  0  0  0
    1.6057   -4.4906   -2.5817 C   0  0  0  0  0  0  0  0  0  0  0  0
    2.3588   -5.1350   -3.0589 H   0  0  0  0  0  0  0  0  0  0  0  0
    1.4636   -3.1571   -2.9954 C   0  0  0  0  0  0  0  0  0  0  0  0
    2.1066   -2.7497   -3.7887 H   0  0  0  0  0  0  0  0  0  0  0  0
    0.5148   -2.3270   -2.3828 C   0  0  0  0  0  0  0  0  0  0  0  0
    0.4306   -1.2767   -2.6976 H   0  0  0  0  0  0  0  0  0  0  0  0
   -1.4758   -2.1722    1.2722 C   0  0  0  0  0  0  0  0  0  0  0  0
   -2.6513   -2.4593    1.9974 C   0  0  0  0  0  0  0  0  0  0  0  0
   -3.6257   -2.5243    1.4933 H   0  0  0  0  0  0  0  0  0  0  0  0
   -2.5785   -2.6593    3.3848 C   0  0  0  0  0  0  0  0  0  0  0  0
   -3.4941   -2.8849    3.9513 H   0  0  0  0  0  0  0  0  0  0  0  0
   -1.3415   -2.5802    4.0448 C   0  0  0  0  0  0  0  0  0  0  0  0
   -1.2896   -2.7372    5.1326 H   0  0  0  0  0  0  0  0  0  0  0  0
   -0.1681   -2.3135    3.3182 C   0  0  0  0  0  0  0  0  0  0  0  0
    0.8029   -2.2613    3.8321 H   0  0  0  0  0  0  0  0  0  0  0  0
   -0.2280   -2.1129    1.9331 C   0  0  0  0  0  0  0  0  0  0  0  0
    0.6896   -1.8895    1.3642 H   0  0  0  0  0  0  0  0  0  0  0  0
   -1.5640    1.2503    1.8616 C   0  0  0  0  0  0  0  0  0  0  0  0
   -1.6605    0.2778    2.3791 H   0  0  0  0  0  0  0  0  0  0  0  0
   -0.4953    1.5431    1.8398 H   0  0  0  0  0  0  0  0  0  0  0  0
   -2.1601    2.0258    2.3802 H   0  0  0  0  0  0  0  0  0  0  0  0
   -3.1546   -2.3830   -1.1425 C   0  0  0  0  0  0  0  0  0  0  0  0
   -3.9887   -1.8350   -0.6665 H   0  0  0  0  0  0  0  0  0  0  0  0
   -3.1699   -2.1912   -2.2329 H   0  0  0  0  0  0  0  0  0  0  0  0
   -3.2595   -3.4717   -0.9705 H   0  0  0  0  0  0  0  0  0  0  0  0
  1  4  1  0  0  0  0
  1  3  1  0  0  0  0
  2  1  1  0  0  0  0
  3 16  1  0  0  0  0
  3 49  1  0  0  0  0
  4 38  1  0  0  0  0
  5  6  1  0  0  0  0
  5  3  1  0  0  0  0
  6  7  1  0  0  0  0
  8  9  1  0  0  0  0
  8  6  2  0  0  0  0
 10  8  1  0  0  0  0
 11 10  1  0  0  0  0
 12 10  2  0  0  0  0
 12 14  1  0  0  0  0
 13 12  1  0  0  0  0
 14  5  2  0  0  0  0
 15 14  1  0  0  0  0
 16 17  1  0  0  0  0
 17 18  1  0  0  0  0
 19 17  2  0  0  0  0
 19 20  1  0  0  0  0
 21 19  1  0  0  0  0
 22 21  1  0  0  0  0
 23 25  1  0  0  0  0
 23 21  2  0  0  0  0
 24 23  1  0  0  0  0
 25 16  2  0  0  0  0
 26 25  1  0  0  0  0
 27 28  1  0  0  0  0
 27  4  1  0  0  0  0
 28 29  1  0  0  0  0
 30 31  1  0  0  0  0
 30 28  2  0  0  0  0
 32 30  1  0  0  0  0
 33 32  1  0  0  0  0
 34 32  2  0  0  0  0
 34 36  1  0  0  0  0
 35 34  1  0  0  0  0
 36 27  2  0  0  0  0
 37 36  1  0  0  0  0
 38 47  2  0  0  0  0
 38 39  1  0  0  0  0
 39 41  2  0  0  0  0
 40 39  1  0  0  0  0
 41 42  1  0  0  0  0
 41 43  1  0  0  0  0
 43 44  1  0  0  0  0
 45 46  1  0  0  0  0
 45 43  2  0  0  0  0
 47 45  1  0  0  0  0
 48 47  1  0  0  0  0
 49 50  1  0  0  0  0
 49 52  1  0  0  0  0
 51 49  1  0  0  0  0
 53 56  1  0  0  0  0
 53 54  1  0  0  0  0
 53  4  1  0  0  0  0
 55 53  1  0  0  0  0
M  END
