7
q = -1.0, confidence = 0.046

 26 25  0  0  0  0  0  0  0  0999 V2000
    3.7192    0.5226    1.3192 O   0  0  0  0  0  0  0  0  0  0  0  0
   -0.3176   -0.9726    2.0887 C   0  0  0  0  0  0  0  0  0  0  0  0
   -0.9886    0.1844    2.4061 O   0  0  0  0  0  0  0  0  0  0  0  0
   -2.3180    0.0083    2.9183 C   0  0  0  0  0  0  0  0  0  0  0  0
   -2.8735    1.3789    3.2521 C   0  0  0  0  0  0  0  0  0  0  0  0
    2.7782    0.0285   -0.8726 C   0  0  0  0  0  3  0  0  0  0  0  0
    2.3959   -1.3781   -0.7138 C   0  0  0  0  0  3  0  0  0  0  0  0
    0.9988   -0.6577    1.4814 C   0  0  0  0  0  3  0  0  0  0  0  0
    2.6400   -2.1395    0.5747 C   0  0  0  0  0  0  0  0  0  0  0  0
    3.4290   -3.0581    0.6500 O   0  0  0  0  0  0  0  0  0  0  0  0
    1.8743   -1.7814    1.6314 O   0  0  0  0  0  0  0  0  0  0  0  0
   -0.8157   -2.0788    2.2506 O   0  0  0  0  0  0  0  0  0  0  0  0
    3.5458    0.7955    0.1429 C   0  0  0  0  0  0  0  0  0  0  0  0
    4.0627    1.9295   -0.4278 O   0  0  0  0  0  0  0  0  0  0  0  0
    4.8047    2.7660    0.4621 C   0  0  0  0  0  0  0  0  0  0  0  0
   -2.2833   -0.6563    3.8078 H   0  0  0  0  0  0  0  0  0  0  0  0
   -2.9405   -0.5170    2.1605 H   0  0  0  0  0  0  0  0  0  0  0  0
   -3.9009    1.2878    3.6578 H   0  0  0  0  0  0  0  0  0  0  0  0
   -2.9133    2.0234    2.3513 H   0  0  0  0  0  0  0  0  0  0  0  0
   -2.2441    1.8860    4.0102 H   0  0  0  0  0  0  0  0  0  0  0  0
    3.0198    0.3576   -1.8965 H   0  0  0  0  0  0  0  0  0  0  0  0
    2.5514   -2.0261   -1.5944 H   0  0  0  0  0  0  0  0  0  0  0  0
    1.4649    0.2243    1.9614 H   0  0  0  0  0  0  0  0  0  0  0  0
    5.1883    3.6033   -0.1484 H   0  0  0  0  0  0  0  0  0  0  0  0
    5.6429    2.2083    0.9264 H   0  0  0  0  0  0  0  0  0  0  0  0
    4.1589    3.1500    1.2794 H   0  0  0  0  0  0  0  0  0  0  0  0
  2 12  2  0  0  0  0
  2  3  1  0  0  0  0
  3  4  1  0  0  0  0
  4  5  1  0  0  0  0
  4 16  1  0  0  0  0
  5 18  1  0  0  0  0
  5 20  1  0  0  0  0
  6  7  1  0  0  0  0
  6 13  1  0  0  0  0
  7  9  1  0  0  0  0
  8 11  1  0  0  0  0
  8 23  1  0  0  0  0
  8  2  1  0  0  0  0
  9 10  2  0  0  0  0
  9 11  1  0  0  0  0
 13  1  2  0  0  0  0
 14 13  1  0  0  0  0
 14 15  1  0  0  0  0
 15 25  1  0  0  0  0
 15 26  1  0  0  0  0
 17  4  1  0  0  0  0
 19  5  1  0  0  0  0
 21  6  1  0  0  0  0
 22  7  1  0  0  0  0
 24 15  1  0  0  0  0
M  END
