4
q = 0.0, confidence = 0.988

 35 36  0  0  0  0  0  0  0  0999 V2000
   -3.3646    0.7435   -0.2209 N   0  0  0  0  0  0  0  0  0  0  0  0
   -3.5812   -1.3985    0.0322 N   0  0  0  0  0  0  0  0  0  0  0  0
   -4.6999   -3.5321   -2.8776 N   0  0  0  0  0  0  0  0  0  0  0  0
   -2.6636   -0.3885    0.0904 C   0  0  0  0  0  2  0  0  0  0  0  0
   -4.7026    0.4386   -0.4720 C   0  0  0  0  0  0  0  0  0  0  0  0
   -5.4283    1.2143   -0.7301 H   0  0  0  0  0  0  0  0  0  0  0  0
   -4.8370   -0.9146   -0.3188 C   0  0  0  0  0  0  0  0  0  0  0  0
   -5.7014   -1.5729   -0.4419 H   0  0  0  0  0  0  0  0  0  0  0  0
   -2.8077    2.0690   -0.3316 C   0  0  0  0  0  0  0  0  0  0  0  0
   -2.5063    2.5647   -1.6214 C   0  0  0  0  0  0  0  0  0  0  0  0
   -1.9533    3.8539   -1.7072 C   0  0  0  0  0  0  0  0  0  0  0  0
   -1.7038    4.2528   -2.7035 H   0  0  0  0  0  0  0  0  0  0  0  0
   -1.7135    4.6419   -0.5659 C   0  0  0  0  0  0  0  0  0  0  0  0
   -2.0743    4.1237    0.6902 C   0  0  0  0  0  0  0  0  0  0  0  0
   -1.9271    4.7390    1.5922 H   0  0  0  0  0  0  0  0  0  0  0  0
   -2.6346    2.8411    0.8381 C   0  0  0  0  0  0  0  0  0  0  0  0
   -2.7726    1.7477   -2.8569 C   0  0  0  0  0  0  0  0  0  0  0  0
   -2.2181    0.7862   -2.8172 H   0  0  0  0  0  0  0  0  0  0  0  0
   -2.4547    2.2930   -3.7652 H   0  0  0  0  0  0  0  0  0  0  0  0
   -3.8493    1.5019   -2.9655 H   0  0  0  0  0  0  0  0  0  0  0  0
   -1.0753    6.0027   -0.6903 C   0  0  0  0  0  0  0  0  0  0  0  0
   -1.3093    6.6462    0.1802 H   0  0  0  0  0  0  0  0  0  0  0  0
   -1.4057    6.5269   -1.6091 H   0  0  0  0  0  0  0  0  0  0  0  0
    0.0312    5.9160   -0.7475 H   0  0  0  0  0  0  0  0  0  0  0  0
   -3.0488    2.3265    2.1884 C   0  0  0  0  0  0  0  0  0  0  0  0
   -3.0124    3.1321    2.9455 H   0  0  0  0  0  0  0  0  0  0  0  0
   -2.3922    1.4966    2.5294 H   0  0  0  0  0  0  0  0  0  0  0  0
   -4.0786    1.9141    2.1683 H   0  0  0  0  0  0  0  0  0  0  0  0
   -3.2336   -2.8014    0.2118 C   0  0  0  0  0  0  0  0  0  0  0  0
   -4.1159   -3.3296    0.6224 H   0  0  0  0  0  0  0  0  0  0  0  0
   -2.4194   -2.8386    0.9625 H   0  0  0  0  0  0  0  0  0  0  0  0
   -2.7573   -3.4475   -1.1042 C   0  0  0  0  0  0  0  0  0  0  0  0
   -1.8999   -2.8587   -1.5078 H   0  0  0  0  0  0  0  0  0  0  0  0
   -2.3872   -4.4731   -0.8962 H   0  0  0  0  0  0  0  0  0  0  0  0
   -3.8162   -3.5124   -2.1085 C   0  0  0  0  0  0  0  0  0  0  0  0
  1  4  1  0  0  0  0
  2  4  1  0  0  0  0
  2 29  1  0  0  0  0
  3 35  3  0  0  0  0
  5  7  2  0  0  0  0
  5  1  1  0  0  0  0
  6  5  1  0  0  0  0
  7  2  1  0  0  0  0
  8  7  1  0  0  0  0
  9  1  1  0  0  0  0
  9 16  1  0  0  0  0
 10  9  2  0  0  0  0
 11 10  1  0  0  0  0
 11 13  2  0  0  0  0
 12 11  1  0  0  0  0
 13 14  1  0  0  0  0
 14 16  2  0  0  0  0
 14 15  1  0  0  0  0
 16 25  1  0  0  0  0
 17 18  1  0  0  0  0
 17 10  1  0  0  0  0
 19 17  1  0  0  0  0
 20 17  1  0  0  0  0
 21 13  1  0  0  0  0
 21 22  1  0  0  0  0
 23 21  1  0  0  0  0
 24 21  1  0  0  0  0
 25 27  1  0  0  0  0
 25 26  1  0  0  0  0
 28 25  1  0  0  0  0
 29 30  1  0  0  0  0
 29 31  1  0  0  0  0
 32 34  1  0  0  0  0
 32 29  1  0  0  0  0
 33 32  1  0  0  0  0
 35 32  1  0  0  0  0
M  END
