4
q = 0.0, confidence = 0.992

 38 39  0  0  0  0  0  0  0  0999 V2000
   -1.8755    2.2481   -0.9770 N   0  0  0  0  0  0  0  0  0  0  0  0
    0.1594    2.5765   -1.6404 N   0  0  0  0  0  0  0  0  0  0  0  0
    4.4107    3.5489    1.9513 N   0  0  0  0  0  0  0  0  0  0  0  0
   -0.6172    1.7047   -0.9267 C   0  0  0  0  0  2  0  0  0  0  0  0
   -1.8788    3.4376   -1.7007 C   0  0  0  0  0  0  0  0  0  0  0  0
   -2.7961    4.0093   -1.8661 H   0  0  0  0  0  0  0  0  0  0  0  0
   -0.5912    3.6466   -2.1154 C   0  0  0  0  0  0  0  0  0  0  0  0
   -0.1503    4.4489   -2.7143 H   0  0  0  0  0  0  0  0  0  0  0  0
   -3.0625    1.6313   -0.4402 C   0  0  0  0  0  0  0  0  0  0  0  0
   -3.6823    0.6038   -1.1899 C   0  0  0  0  0  0  0  0  0  0  0  0
   -4.8018   -0.0314   -0.6221 C   0  0  0  0  0  0  0  0  0  0  0  0
   -5.2823   -0.8492   -1.1823 H   0  0  0  0  0  0  0  0  0  0  0  0
   -5.3134    0.3460    0.6342 C   0  0  0  0  0  0  0  0  0  0  0  0
   -4.7073    1.4222    1.3072 C   0  0  0  0  0  0  0  0  0  0  0  0
   -5.1145    1.7531    2.2760 H   0  0  0  0  0  0  0  0  0  0  0  0
   -3.5881    2.0964    0.7847 C   0  0  0  0  0  0  0  0  0  0  0  0
   -3.1816    0.2176   -2.5559 C   0  0  0  0  0  0  0  0  0  0  0  0
   -3.1641    1.0948   -3.2362 H   0  0  0  0  0  0  0  0  0  0  0  0
   -2.1415   -0.1737   -2.5265 H   0  0  0  0  0  0  0  0  0  0  0  0
   -3.8271   -0.5587   -3.0068 H   0  0  0  0  0  0  0  0  0  0  0  0
   -6.5123   -0.3630    1.2132 C   0  0  0  0  0  0  0  0  0  0  0  0
   -6.6176   -0.1719    2.2987 H   0  0  0  0  0  0  0  0  0  0  0  0
   -7.4502   -0.0245    0.7231 H   0  0  0  0  0  0  0  0  0  0  0  0
   -6.4490   -1.4585    1.0547 H   0  0  0  0  0  0  0  0  0  0  0  0
   -2.9915    3.2825    1.4937 C   0  0  0  0  0  0  0  0  0  0  0  0
   -3.1324    4.2155    0.9080 H   0  0  0  0  0  0  0  0  0  0  0  0
   -3.4648    3.4298    2.4825 H   0  0  0  0  0  0  0  0  0  0  0  0
   -1.9034    3.1418    1.6514 H   0  0  0  0  0  0  0  0  0  0  0  0
    1.5821    2.3858   -1.9274 C   0  0  0  0  0  0  0  0  0  0  0  0
    1.7705    1.2952   -1.8648 H   0  0  0  0  0  0  0  0  0  0  0  0
    1.7494    2.6878   -2.9804 H   0  0  0  0  0  0  0  0  0  0  0  0
    2.5259    3.1573   -1.0046 C   0  0  0  0  0  0  0  0  0  0  0  0
    2.3544    4.2516   -1.0875 H   0  0  0  0  0  0  0  0  0  0  0  0
    3.5583    2.9710   -1.3667 H   0  0  0  0  0  0  0  0  0  0  0  0
    2.4124    2.7097    0.4622 C   0  0  0  0  0  0  0  0  0  0  0  0
    2.4205    1.5991    0.5114 H   0  0  0  0  0  0  0  0  0  0  0  0
    1.4424    3.0064    0.9139 H   0  0  0  0  0  0  0  0  0  0  0  0
    3.5026    3.1958    1.2997 C   0  0  0  0  0  0  0  0  0  0  0  0
  1  4  1  0  0  0  0
  1  9  1  0  0  0  0
  2  4  1  0  0  0  0
  5  1  1  0  0  0  0
  6  5  1  0  0  0  0
  7  5  2  0  0  0  0
  7  2  1  0  0  0  0
  8  7  1  0  0  0  0
  9 16  1  0  0  0  0
 10 11  1  0  0  0  0
 10  9  2  0  0  0  0
 11 13  2  0  0  0  0
 12 11  1  0  0  0  0
 13 21  1  0  0  0  0
 13 14  1  0  0  0  0
 14 15  1  0  0  0  0
 16 14  2  0  0  0  0
 16 25  1  0  0  0  0
 17 19  1  0  0  0  0
 17 10  1  0  0  0  0
 18 17  1  0  0  0  0
 20 17  1  0  0  0  0
 21 22  1  0  0  0  0
 23 21  1  0  0  0  0
 24 21  1  0  0  0  0
 25 28  1  0  0  0  0
 25 27  1  0  0  0  0
 26 25  1  0  0  0  0
 29 30  1  0  0  0  0
 29  2  1  0  0  0  0
 29 32  1  0  0  0  0
 31 29  1  0  0  0  0
 32 35  1  0  0  0  0
 33 32  1  0  0  0  0
 34 32  1  0  0  0  0
 35 36  1  0  0  0  0
 35 37  1  0  0  0  0
 35 38  1  0  0  0  0
 38  3  3  0  0  0  0
M  END
