5
q = 0.0, confidence = 1.0

 37 38  0  0  0  0  0  0  0  0999 V2000
    3.6527    2.2685   -0.7470 O   0  0  0  0  0  0  0  0  0  0  0  0
    3.9693    0.2443   -1.7303 O   0  0  0  0  0  0  0  0  0  0  0  0
   -0.4742    2.8568   -0.7239 N   0  0  0  0  0  0  0  0  0  0  0  0
    1.2238    2.4737   -2.0042 N   0  0  0  0  0  0  0  0  0  0  0  0
    0.3862    1.8673   -1.1113 C   0  0  0  0  0  2  0  0  0  0  0  0
   -0.1744    4.0593   -1.3635 C   0  0  0  0  0  0  0  0  0  0  0  0
   -0.7631    4.9649   -1.1946 H   0  0  0  0  0  0  0  0  0  0  0  0
    0.9063    3.8154   -2.1684 C   0  0  0  0  0  0  0  0  0  0  0  0
    1.4661    4.4721   -2.8403 H   0  0  0  0  0  0  0  0  0  0  0  0
   -1.5347    2.6994    0.2379 C   0  0  0  0  0  0  0  0  0  0  0  0
   -2.7369    2.0758   -0.1604 C   0  0  0  0  0  0  0  0  0  0  0  0
   -3.7524    1.9519    0.8056 C   0  0  0  0  0  0  0  0  0  0  0  0
   -4.7008    1.4791    0.5080 H   0  0  0  0  0  0  0  0  0  0  0  0
   -3.5897    2.4036    2.1257 C   0  0  0  0  0  0  0  0  0  0  0  0
   -2.3803    3.0358    2.4710 C   0  0  0  0  0  0  0  0  0  0  0  0
   -2.2367    3.4078    3.4981 H   0  0  0  0  0  0  0  0  0  0  0  0
   -1.3393    3.2077    1.5435 C   0  0  0  0  0  0  0  0  0  0  0  0
   -2.9321    1.5389   -1.5506 C   0  0  0  0  0  0  0  0  0  0  0  0
   -2.5417    2.2300   -2.3241 H   0  0  0  0  0  0  0  0  0  0  0  0
   -4.0030    1.3485   -1.7532 H   0  0  0  0  0  0  0  0  0  0  0  0
   -2.3818    0.5829   -1.6889 H   0  0  0  0  0  0  0  0  0  0  0  0
   -4.6677    2.1829    3.1567 C   0  0  0  0  0  0  0  0  0  0  0  0
   -4.4503    1.2765    3.7633 H   0  0  0  0  0  0  0  0  0  0  0  0
   -5.6597    2.0333    2.6870 H   0  0  0  0  0  0  0  0  0  0  0  0
   -4.7423    3.0323    3.8646 H   0  0  0  0  0  0  0  0  0  0  0  0
   -0.0546    3.8899    1.9318 C   0  0  0  0  0  0  0  0  0  0  0  0
    0.8079    3.2140    1.7513 H   0  0  0  0  0  0  0  0  0  0  0  0
   -0.0631    4.1612    3.0042 H   0  0  0  0  0  0  0  0  0  0  0  0
    0.1184    4.8163    1.3460 H   0  0  0  0  0  0  0  0  0  0  0  0
    2.3194    1.7664   -2.6463 C   0  0  0  0  0  0  0  0  0  0  0  0
    2.7775    2.4353   -3.4019 H   0  0  0  0  0  0  0  0  0  0  0  0
    1.9203    0.8639   -3.1510 H   0  0  0  0  0  0  0  0  0  0  0  0
    3.3965    1.3157   -1.6600 C   0  0  0  0  0  0  0  0  0  0  0  0
    4.5844    1.9038    0.2863 C   0  0  0  0  0  0  0  0  0  0  0  0
    5.5043    1.4712   -0.1539 H   0  0  0  0  0  0  0  0  0  0  0  0
    4.1088    1.1595    0.9553 H   0  0  0  0  0  0  0  0  0  0  0  0
    4.8050    2.8354    0.8366 H   0  0  0  0  0  0  0  0  0  0  0  0
  1 34  1  0  0  0  0
  2 33  2  0  0  0  0
  3 10  1  0  0  0  0
  4  5  1  0  0  0  0
  5  3  1  0  0  0  0
  6  7  1  0  0  0  0
  6  3  1  0  0  0  0
  8  4  1  0  0  0  0
  8  6  2  0  0  0  0
  9  8  1  0  0  0  0
 10 17  1  0  0  0  0
 11 10  2  0  0  0  0
 11 12  1  0  0  0  0
 12 14  2  0  0  0  0
 13 12  1  0  0  0  0
 14 15  1  0  0  0  0
 14 22  1  0  0  0  0
 15 16  1  0  0  0  0
 17 26  1  0  0  0  0
 17 15  2  0  0  0  0
 18 11  1  0  0  0  0
 19 18  1  0  0  0  0
 20 18  1  0  0  0  0
 21 18  1  0  0  0  0
 22 23  1  0  0  0  0
 22 25  1  0  0  0  0
 24 22  1  0  0  0  0
 26 28  1  0  0  0  0
 27 26  1  0  0  0  0
 29 26  1  0  0  0  0
 30  4  1  0  0  0  0
 30 33  1  0  0  0  0
 31 30  1  0  0  0  0
 32 30  1  0  0  0  0
 33  1  1  0  0  0  0
 34 37  1  0  0  0  0
 34 36  1  0  0  0  0
 35 34  1  0  0  0  0
M  END
