5
q = 0.0, confidence = 0.996

 61 64  0  0  1  0  0  0  0  0999 V2000
    7.1213   -1.3389   -1.0122 O   0  0  0  0  0  0  0  0  0  0  0  0
   -7.2845   -0.9560    0.6296 O   0  0  0  0  0  0  0  0  0  0  0  0
   -1.0428   -0.9824   -0.7542 N   0  0  0  0  0  0  0  0  0  0  0  0
    0.8358   -1.2165    0.5880 N   0  0  0  0  0  0  0  0  0  0  0  0
   -0.0424   -0.4192   -0.0597 C   0  0  0  0  0  2  0  0  0  0  0  0
   -1.1326   -2.4467   -0.8612 C   0  0  1  0  0  0  0  0  0  0  0  0
   -2.1569   -2.6904   -1.2024 H   0  0  0  0  0  0  0  0  0  0  0  0
   -0.0149   -2.9678   -1.7932 C   0  0  0  0  0  0  0  0  0  0  0  0
   -0.3240   -3.9029   -2.3005 H   0  0  0  0  0  0  0  0  0  0  0  0
    0.1999   -2.2210   -2.5819 H   0  0  0  0  0  0  0  0  0  0  0  0
    1.2004   -3.1975   -0.8489 C   0  0  0  0  0  0  0  0  0  0  0  0
    2.1009   -2.6350   -1.1561 H   0  0  0  0  0  0  0  0  0  0  0  0
    1.4871   -4.2674   -0.8064 H   0  0  0  0  0  0  0  0  0  0  0  0
    0.7157   -2.7250    0.5459 C   0  0  2  0  0  0  0  0  0  0  0  0
   -1.6143   -2.4431    1.6816 C   0  0  0  0  0  0  0  0  0  0  0  0
   -1.3872   -2.9792    2.6253 H   0  0  0  0  0  0  0  0  0  0  0  0
   -1.4025   -1.3696    1.8462 H   0  0  0  0  0  0  0  0  0  0  0  0
   -2.7021   -2.5455    1.4947 H   0  0  0  0  0  0  0  0  0  0  0  0
   -0.8172   -3.0564    0.5234 C   0  0  0  0  0  0  0  0  0  0  0  0
   -1.0929   -4.5704    0.4895 C   0  0  0  0  0  0  0  0  0  0  0  0
   -0.8555   -5.0406    1.4638 H   0  0  0  0  0  0  0  0  0  0  0  0
   -2.1722   -4.7410    0.3003 H   0  0  0  0  0  0  0  0  0  0  0  0
   -0.5266   -5.1087   -0.2941 H   0  0  0  0  0  0  0  0  0  0  0  0
    1.4599   -3.3746    1.7067 C   0  0  0  0  0  0  0  0  0  0  0  0
    2.5488   -3.1948    1.6508 H   0  0  0  0  0  0  0  0  0  0  0  0
    1.0875   -3.0179    2.6867 H   0  0  0  0  0  0  0  0  0  0  0  0
    1.3046   -4.4688    1.6622 H   0  0  0  0  0  0  0  0  0  0  0  0
    1.9568   -0.6017    1.3153 C   0  0  0  0  0  0  0  0  0  0  0  0
    1.9404   -0.9385    2.3700 H   0  0  0  0  0  0  0  0  0  0  0  0
    1.7303    0.4866    1.3375 H   0  0  0  0  0  0  0  0  0  0  0  0
    3.3269   -0.8314    0.7108 C   0  0  0  0  0  0  0  0  0  0  0  0
    4.3807   -1.3397    1.4875 C   0  0  0  0  0  0  0  0  0  0  0  0
    4.1996   -1.5988    2.5437 H   0  0  0  0  0  0  0  0  0  0  0  0
    5.6699   -1.5236    0.9579 C   0  0  0  0  0  0  0  0  0  0  0  0
    6.4647   -1.9241    1.6011 H   0  0  0  0  0  0  0  0  0  0  0  0
    5.9177   -1.1942   -0.3891 C   0  0  0  0  0  0  0  0  0  0  0  0
    4.8683   -0.6698   -1.1766 C   0  0  0  0  0  0  0  0  0  0  0  0
    5.0845   -0.3995   -2.2206 H   0  0  0  0  0  0  0  0  0  0  0  0
    3.5960   -0.4866   -0.6336 C   0  0  0  0  0  0  0  0  0  0  0  0
    2.7996   -0.0451   -1.2565 H   0  0  0  0  0  0  0  0  0  0  0  0
    8.2060   -1.8460   -0.2622 C   0  0  0  0  0  0  0  0  0  0  0  0
    9.0743   -1.8789   -0.9465 H   0  0  0  0  0  0  0  0  0  0  0  0
    8.4552   -1.1928    0.6049 H   0  0  0  0  0  0  0  0  0  0  0  0
    8.0070   -2.8743    0.1170 H   0  0  0  0  0  0  0  0  0  0  0  0
   -2.0433   -0.2006   -1.4900 C   0  0  0  0  0  0  0  0  0  0  0  0
   -1.9865   -0.4820   -2.5635 H   0  0  0  0  0  0  0  0  0  0  0  0
   -1.7303    0.8611   -1.4163 H   0  0  0  0  0  0  0  0  0  0  0  0
   -3.4456   -0.4028   -0.9639 C   0  0  0  0  0  0  0  0  0  0  0  0
   -4.4241   -1.0573   -1.7286 C   0  0  0  0  0  0  0  0  0  0  0  0
   -4.1708   -1.4139   -2.7406 H   0  0  0  0  0  0  0  0  0  0  0  0
   -5.7262   -1.2646   -1.2397 C   0  0  0  0  0  0  0  0  0  0  0  0
   -6.4643   -1.7785   -1.8697 H   0  0  0  0  0  0  0  0  0  0  0  0
   -6.0597   -0.8091    0.0509 C   0  0  0  0  0  0  0  0  0  0  0  0
   -5.0817   -0.1473    0.8286 C   0  0  0  0  0  0  0  0  0  0  0  0
   -5.3650    0.2057    1.8310 H   0  0  0  0  0  0  0  0  0  0  0  0
   -3.7956    0.0531    0.3285 C   0  0  0  0  0  0  0  0  0  0  0  0
   -3.0415    0.5672    0.9484 H   0  0  0  0  0  0  0  0  0  0  0  0
   -8.3003   -1.6053   -0.1078 C   0  0  0  0  0  0  0  0  0  0  0  0
   -9.1995   -1.6150    0.5360 H   0  0  0  0  0  0  0  0  0  0  0  0
   -8.5391   -1.0662   -1.0526 H   0  0  0  0  0  0  0  0  0  0  0  0
   -8.0265   -2.6551   -0.3602 H   0  0  0  0  0  0  0  0  0  0  0  0
  1 36  1  0  0  0  0
  1 41  1  0  0  0  0
  3  5  1  0  0  0  0
  4 28  1  0  0  0  0
  5  4  1  0  0  0  0
  6  7  1  6  0  0  0
  6  3  1  0  0  0  0
  6 19  1  0  0  0  0
  8  6  1  0  0  0  0
  8 11  1  0  0  0  0
  9  8  1  0  0  0  0
 10  8  1  0  0  0  0
 11 13  1  0  0  0  0
 11 14  1  0  0  0  0
 12 11  1  0  0  0  0
 14  4  1  0  0  0  0
 14 24  1  1  0  0  0
 15 17  1  0  0  0  0
 15 16  1  0  0  0  0
 18 15  1  0  0  0  0
 19 14  1  0  0  0  0
 19 15  1  0  0  0  0
 20 19  1  0  0  0  0
 20 21  1  0  0  0  0
 22 20  1  0  0  0  0
 23 20  1  0  0  0  0
 24 26  1  0  0  0  0
 25 24  1  0  0  0  0
 27 24  1  0  0  0  0
 28 30  1  0  0  0  0
 28 29  1  0  0  0  0
 31 28  1  0  0  0  0
 31 32  1  0  0  0  0
 32 33  1  0  0  0  0
 34 32  2  0  0  0  0
 34 35  1  0  0  0  0
 36 34  1  0  0  0  0
 37 39  1  0  0  0  0
 37 36  2  0  0  0  0
 38 37  1  0  0  0  0
 39 31  2  0  0  0  0
 40 39  1  0  0  0  0
 41 44  1  0  0  0  0
 41 43  1  0  0  0  0
 42 41  1  0  0  0  0
 45 47  1  0  0  0  0
 45 48  1  0  0  0  0
 45  3  1  0  0  0  0
 46 45  1  0  0  0  0
 48 56  1  0  0  0  0
 49 51  1  0  0  0  0
 49 48  2  0  0  0  0
 50 49  1  0  0  0  0
 51 53  2  0  0  0  0
 52 51  1  0  0  0  0
 53  2  1  0  0  0  0
 53 54  1  0  0  0  0
 54 55  1  0  0  0  0
 56 54  2  0  0  0  0
 56 57  1  0  0  0  0
 58 59  1  0  0  0  0
 58  2  1  0  0  0  0
 60 58  1  0  0  0  0
 61 58  1  0  0  0  0
M  END
