3
q = -1.0, confidence = 0.0

 21 21  0  0  0  0  0  0  0  0999 V2000
    0.9972   -1.1583   -1.7069 N   0  0  0  0  0  2  0  0  0  0  0  0
   -0.3644    0.4306   -2.8723 C   0  0  0  0  0  0  0  0  0  0  0  0
    0.1129   -0.2313   -1.5971 C   0  0  0  0  0  2  0  0  0  0  0  0
    5.1190   -1.2907   -1.6556 C   0  0  0  0  0  0  0  0  0  0  0  0
    3.7897   -1.5314   -1.7068 C   0  0  0  0  0  0  0  0  0  0  0  0
    2.9597   -2.1243   -0.6491 C   0  0  0  0  0  0  0  0  0  0  0  0
    1.5447   -1.9079   -0.6694 C   0  0  0  0  0  0  0  0  0  0  0  0
    0.7429   -2.5059    0.3299 C   0  0  0  0  0  0  0  0  0  0  0  0
    1.3094   -3.2836    1.3441 C   0  0  0  0  0  0  0  0  0  0  0  0
    2.7018   -3.4806    1.3829 C   0  0  0  0  0  0  0  0  0  0  0  0
    3.5066   -2.9076    0.3923 C   0  0  0  0  0  0  0  0  0  0  0  0
    0.1307   -0.0132   -3.7600 H   0  0  0  0  0  0  0  0  0  0  0  0
   -1.4641    0.3431   -2.9806 H   0  0  0  0  0  0  0  0  0  0  0  0
   -0.1541    1.5201   -2.8383 H   0  0  0  0  0  0  0  0  0  0  0  0
    5.7213   -1.5003   -0.7563 H   0  0  0  0  0  0  0  0  0  0  0  0
    5.6508   -0.8662   -2.5207 H   0  0  0  0  0  0  0  0  0  0  0  0
    3.2239   -1.2522   -2.6128 H   0  0  0  0  0  0  0  0  0  0  0  0
   -0.3395   -2.3349    0.2954 H   0  0  0  0  0  0  0  0  0  0  0  0
    0.6610   -3.7368    2.1101 H   0  0  0  0  0  0  0  0  0  0  0  0
    3.1550   -4.0958    2.1745 H   0  0  0  0  0  0  0  0  0  0  0  0
    4.5920   -3.0896    0.4019 H   0  0  0  0  0  0  0  0  0  0  0  0
  1  3  1  0  0  0  0
  1  7  1  0  0  0  0
  2 14  1  0  0  0  0
  2  3  1  0  0  0  0
  4 15  1  0  0  0  0
  5  4  2  0  0  0  0
  5  6  1  0  0  0  0
  6 11  1  0  0  0  0
  7  6  2  0  0  0  0
  7  8  1  0  0  0  0
  8  9  2  0  0  0  0
  9 10  1  0  0  0  0
  9 19  1  0  0  0  0
 10 20  1  0  0  0  0
 11 21  1  0  0  0  0
 11 10  2  0  0  0  0
 12  2  1  0  0  0  0
 13  2  1  0  0  0  0
 16  4  1  0  0  0  0
 17  5  1  0  0  0  0
 18  8  1  0  0  0  0
M  END
