24
q = 0.0, confidence = 0.874

 31 31  0  0  0  0  0  0  0  0999 V2000
   10.9911    1.1067   -0.3023 C   0  0  0  0  0  0  0  0  0  0  0  0
   11.3902    2.0978   -0.5793 H   0  0  0  0  0  0  0  0  0  0  0  0
   11.3586    0.3288   -1.0014 H   0  0  0  0  0  0  0  0  0  0  0  0
   11.3108    0.8299    0.7225 H   0  0  0  0  0  0  0  0  0  0  0  0
    8.8787    0.0899   -0.0679 C   0  0  0  0  0  0  0  0  0  0  0  0
    7.4150    0.3260   -0.1780 C   0  0  0  0  0  0  0  0  0  0  0  0
    7.0941    1.3353   -0.4779 H   0  0  0  0  0  0  0  0  0  0  0  0
    6.5495   -0.6853    0.0875 C   0  0  0  0  0  0  0  0  0  0  0  0
    7.0057   -1.6486    0.3763 H   0  0  0  0  0  0  0  0  0  0  0  0
    5.0936   -0.6356    0.0320 C   0  0  0  0  0  0  0  0  0  0  0  0
    4.3568   -1.8114    0.3430 C   0  0  0  0  0  0  0  0  0  0  0  0
    4.9078   -2.7237    0.6176 H   0  0  0  0  0  0  0  0  0  0  0  0
    4.3674    0.5336   -0.3168 C   0  0  0  0  0  0  0  0  0  0  0  0
    4.9071    1.4584   -0.5658 H   0  0  0  0  0  0  0  0  0  0  0  0
    2.9778    0.5227   -0.3492 C   0  0  0  0  0  0  0  0  0  0  0  0
    2.4265    1.4332   -0.6312 H   0  0  0  0  0  0  0  0  0  0  0  0
    2.9669   -1.8254    0.3081 C   0  0  0  0  0  0  0  0  0  0  0  0
    2.4328   -2.7528    0.5624 H   0  0  0  0  0  0  0  0  0  0  0  0
    2.2389   -0.6552   -0.0401 C   0  0  0  0  0  0  0  0  0  0  0  0
    0.7987   -0.5909   -0.0947 C   0  0  0  0  0  3  0  0  0  0  0  0
    0.3688    0.3955   -0.3310 H   0  0  0  0  0  0  0  0  0  0  0  0
   -0.0951   -1.6303    0.0754 C   0  0  0  0  0  0  0  0  0  0  0  0
    0.3047   -2.6456    0.2259 H   0  0  0  0  0  0  0  0  0  0  0  0
   -1.5169   -1.4452    0.0227 C   0  0  0  0  0  3  0  0  0  0  0  0
   -1.7680   -3.8750    0.2284 C   0  0  0  0  0  0  0  0  0  0  0  0
   -2.6467   -4.5440    0.2461 H   0  0  0  0  0  0  0  0  0  0  0  0
   -1.1955   -3.9942    1.1706 H   0  0  0  0  0  0  0  0  0  0  0  0
   -1.1261   -4.1294   -0.6391 H   0  0  0  0  0  0  0  0  0  0  0  0
    9.5625    1.2178   -0.3742 O   0  0  0  0  0  0  0  0  0  0  0  0
    9.4003   -0.9652    0.2523 O   0  0  0  0  0  0  0  0  0  0  0  0
   -2.2992   -2.5405    0.1094 O   0  0  0  0  0  0  0  0  0  0  0  0
  1  4  1  0  0  0  0
  2  1  1  0  0  0  0
  3  1  1  0  0  0  0
  5 30  2  0  0  0  0
  6  5  1  0  0  0  0
  6  8  2  0  0  0  0
  7  6  1  0  0  0  0
  8  9  1  0  0  0  0
 10  8  1  0  0  0  0
 10 11  1  0  0  0  0
 11 12  1  0  0  0  0
 13 10  2  0  0  0  0
 14 13  1  0  0  0  0
 15 13  1  0  0  0  0
 15 19  2  0  0  0  0
 16 15  1  0  0  0  0
 17 11  2  0  0  0  0
 17 18  1  0  0  0  0
 19 17  1  0  0  0  0
 20 19  1  0  0  0  0
 20 22  1  0  0  0  0
 21 20  1  0  0  0  0
 22 23  1  0  0  0  0
 24 22  2  0  0  0  0
 24 31  1  0  0  0  0
 25 26  1  0  0  0  0
 25 27  1  0  0  0  0
 28 25  1  0  0  0  0
 29  1  1  0  0  0  0
 29  5  1  0  0  0  0
 31 25  1  0  0  0  0
M  END
