5
q = 0.0, confidence = 0.976

 24 24  0  0  1  0  0  0  0  0999 V2000
   -3.0865    2.4436    0.7438 C   0  0  0  0  0  0  0  0  0  0  0  0
   -1.7161    2.2154    1.1646 C   0  0  0  0  0  0  0  0  0  0  0  0
   -1.4110    1.0703    1.9435 C   0  0  0  0  0  0  0  0  0  0  0  0
   -0.3706    0.9038    2.2582 H   0  0  0  0  0  0  0  0  0  0  0  0
   -2.4062    0.0888    2.2868 C   0  0  2  0  0  3  0  0  0  0  0  0
   -3.7671    0.2939    1.8764 C   0  0  2  0  0  3  0  0  0  0  0  0
   -4.0600    1.4771    1.1015 C   0  0  0  0  0  0  0  0  0  0  0  0
   -5.0986    1.6308    0.7690 H   0  0  0  0  0  0  0  0  0  0  0  0
   -3.4319    3.6189   -0.1248 C   0  0  0  0  0  0  0  0  0  0  0  0
   -2.8452    3.5892   -1.0663 H   0  0  0  0  0  0  0  0  0  0  0  0
   -3.1987    4.5765    0.3834 H   0  0  0  0  0  0  0  0  0  0  0  0
   -4.5066    3.6240   -0.3855 H   0  0  0  0  0  0  0  0  0  0  0  0
   -0.6319    3.1670    0.7583 C   0  0  0  0  0  0  0  0  0  0  0  0
   -0.8600    4.1947    1.1057 H   0  0  0  0  0  0  0  0  0  0  0  0
   -0.5511    3.1944   -0.3489 H   0  0  0  0  0  0  0  0  0  0  0  0
    0.3472    2.8652    1.1740 H   0  0  0  0  0  0  0  0  0  0  0  0
   -2.0208   -1.0931    3.1333 C   0  0  0  0  0  0  0  0  0  0  0  0
   -0.9308   -1.2760    3.0914 H   0  0  0  0  0  0  0  0  0  0  0  0
   -2.5455   -2.0145    2.8206 H   0  0  0  0  0  0  0  0  0  0  0  0
   -2.2939   -0.9010    4.1921 H   0  0  0  0  0  0  0  0  0  0  0  0
   -4.8698   -0.6188    2.3388 C   0  0  0  0  0  0  0  0  0  0  0  0
   -5.8306   -0.3701    1.8520 H   0  0  0  0  0  0  0  0  0  0  0  0
   -5.0163   -0.5147    3.4344 H   0  0  0  0  0  0  0  0  0  0  0  0
   -4.6437   -1.6826    2.1371 H   0  0  0  0  0  0  0  0  0  0  0  0
  1  7  2  0  0  0  0
  1  2  1  0  0  0  0
  2  3  2  0  0  0  0
  3  4  1  0  0  0  0
  3  5  1  0  0  0  0
  5 17  1  1  0  0  0
  6  5  1  0  0  0  0
  6 21  1  1  0  0  0
  7  6  1  0  0  0  0
  8  7  1  0  0  0  0
  9 11  1  0  0  0  0
  9  1  1  0  0  0  0
 10  9  1  0  0  0  0
 12  9  1  0  0  0  0
 13 14  1  0  0  0  0
 13  2  1  0  0  0  0
 13 16  1  0  0  0  0
 15 13  1  0  0  0  0
 17 20  1  0  0  0  0
 18 17  1  0  0  0  0
 19 17  1  0  0  0  0
 21 23  1  0  0  0  0
 22 21  1  0  0  0  0
 24 21  1  0  0  0  0
M  END
