12
q = 0.0, confidence = 0.998

 53 55  0  0  1  0  0  0  0  0999 V2000
    2.3991    0.3162   -1.2606 P   0  0  0  0  0  0  0  0  0  0  0  0
    1.8209   -1.1457    0.9991 O   0  0  0  0  0  0  0  0  0  0  0  0
    1.4295   -2.3712    1.6064 C   0  0  0  0  0  0  0  0  0  0  0  0
    2.0222   -2.4706    2.5355 H   0  0  0  0  0  0  0  0  0  0  0  0
    1.6458   -3.2390    0.9420 H   0  0  0  0  0  0  0  0  0  0  0  0
    0.3463   -2.3871    1.8553 H   0  0  0  0  0  0  0  0  0  0  0  0
    1.3124   -0.9401   -0.2922 C   0  0  1  0  0  0  0  0  0  0  0  0
    1.3331   -1.8848   -0.8890 H   0  0  0  0  0  0  0  0  0  0  0  0
   -0.0858   -0.3651   -0.3199 C   0  0  0  0  0  0  0  0  0  0  0  0
   -0.8583   -0.3702   -1.5267 C   0  0  0  0  0  3  0  0  0  0  0  0
   -0.4753   -0.8921   -2.4150 H   0  0  0  0  0  0  0  0  0  0  0  0
   -2.1254    0.2573   -1.5733 C   0  0  0  0  0  3  0  0  0  0  0  0
   -2.7061    0.1962   -2.5016 H   0  0  0  0  0  0  0  0  0  0  0  0
   -2.6807    0.9150   -0.4236 C   0  0  0  0  0  0  0  0  0  0  0  0
   -1.9064    0.8929    0.7679 C   0  0  0  0  0  0  0  0  0  0  0  0
   -2.3057    1.3453    1.6851 H   0  0  0  0  0  0  0  0  0  0  0  0
   -0.6228    0.2754    0.8203 C   0  0  0  0  0  0  0  0  0  0  0  0
   -0.0439    0.2653    1.7527 H   0  0  0  0  0  0  0  0  0  0  0  0
   -4.0099    1.6848   -0.4715 C   0  0  0  0  0  0  0  0  0  0  0  0
   -3.6481    3.1902   -0.4688 C   0  0  0  0  0  0  0  0  0  0  0  0
   -4.5677    3.8080   -0.5235 H   0  0  0  0  0  0  0  0  0  0  0  0
   -3.0080    3.4477   -1.3372 H   0  0  0  0  0  0  0  0  0  0  0  0
   -3.0976    3.4729    0.4511 H   0  0  0  0  0  0  0  0  0  0  0  0
   -4.8158    1.3683   -1.7444 C   0  0  0  0  0  0  0  0  0  0  0  0
   -5.7724    1.9274   -1.7236 H   0  0  0  0  0  0  0  0  0  0  0  0
   -5.0591    0.2905   -1.8195 H   0  0  0  0  0  0  0  0  0  0  0  0
   -4.2803    1.6761   -2.6649 H   0  0  0  0  0  0  0  0  0  0  0  0
   -4.8864    1.3596    0.7549 C   0  0  0  0  0  0  0  0  0  0  0  0
   -5.8206    1.9554    0.7163 H   0  0  0  0  0  0  0  0  0  0  0  0
   -4.3830    1.6023    1.7111 H   0  0  0  0  0  0  0  0  0  0  0  0
   -5.1579    0.2867    0.7756 H   0  0  0  0  0  0  0  0  0  0  0  0
    2.1010    1.7814   -0.1708 C   0  0  0  0  0  0  0  0  0  0  0  0
    1.2715    2.8005   -0.6830 C   0  0  0  0  0  0  0  0  0  0  0  0
    0.9138    2.7326   -1.7227 H   0  0  0  0  0  0  0  0  0  0  0  0
    0.8867    3.8820    0.1254 C   0  0  0  0  0  0  0  0  0  0  0  0
    0.2332    4.6677   -0.2839 H   0  0  0  0  0  0  0  0  0  0  0  0
    1.3393    3.9595    1.4514 C   0  0  0  0  0  0  0  0  0  0  0  0
    1.0419    4.8075    2.0873 H   0  0  0  0  0  0  0  0  0  0  0  0
    2.1775    2.9548    1.9656 C   0  0  0  0  0  0  0  0  0  0  0  0
    2.5330    3.0143    3.0060 H   0  0  0  0  0  0  0  0  0  0  0  0
    2.5570    1.8696    1.1626 C   0  0  0  0  0  0  0  0  0  0  0  0
    3.1921    1.0705    1.5706 H   0  0  0  0  0  0  0  0  0  0  0  0
    4.0804   -0.2438   -0.7574 C   0  0  0  0  0  0  0  0  0  0  0  0
    5.1144    0.7008   -0.5792 C   0  0  0  0  0  0  0  0  0  0  0  0
    4.8905    1.7766   -0.6484 H   0  0  0  0  0  0  0  0  0  0  0  0
    6.4250    0.2826   -0.3044 C   0  0  0  0  0  0  0  0  0  0  0  0
    7.2168    1.0342   -0.1630 H   0  0  0  0  0  0  0  0  0  0  0  0
    6.7260   -1.0849   -0.2083 C   0  0  0  0  0  0  0  0  0  0  0  0
    7.7536   -1.4127    0.0104 H   0  0  0  0  0  0  0  0  0  0  0  0
    5.7066   -2.0322   -0.3941 C   0  0  0  0  0  0  0  0  0  0  0  0
    5.9318   -3.1073   -0.3206 H   0  0  0  0  0  0  0  0  0  0  0  0
    4.3958   -1.6170   -0.6686 C   0  0  0  0  0  0  0  0  0  0  0  0
    3.6139   -2.3780   -0.8118 H   0  0  0  0  0  0  0  0  0  0  0  0
  1 43  1  0  0  0  0
  1  7  1  0  0  0  0
  1 32  1  0  0  0  0
  2  3  1  0  0  0  0
  3  6  1  0  0  0  0
  3  4  1  0  0  0  0
  5  3  1  0  0  0  0
  7  8  1  6  0  0  0
  7  2  1  0  0  0  0
  9  7  1  0  0  0  0
  9 17  2  0  0  0  0
 10  9  1  0  0  0  0
 11 10  1  0  0  0  0
 12 10  1  0  0  0  0
 12 14  1  0  0  0  0
 13 12  1  0  0  0  0
 14 15  2  0  0  0  0
 15 17  1  0  0  0  0
 15 16  1  0  0  0  0
 17 18  1  0  0  0  0
 19 20  1  0  0  0  0
 19 14  1  0  0  0  0
 19 28  1  0  0  0  0
 20 23  1  0  0  0  0
 21 20  1  0  0  0  0
 22 20  1  0  0  0  0
 24 25  1  0  0  0  0
 24 19  1  0  0  0  0
 26 24  1  0  0  0  0
 27 24  1  0  0  0  0
 28 31  1  0  0  0  0
 28 30  1  0  0  0  0
 29 28  1  0  0  0  0
 32 41  1  0  0  0  0
 33 32  2  0  0  0  0
 33 35  1  0  0  0  0
 34 33  1  0  0  0  0
 35 37  2  0  0  0  0
 36 35  1  0  0  0  0
 37 39  1  0  0  0  0
 37 38  1  0  0  0  0
 39 40  1  0  0  0  0
 41 42  1  0  0  0  0
 41 39  2  0  0  0  0
 43 52  2  0  0  0  0
 43 44  1  0  0  0  0
 44 46  2  0  0  0  0
 45 44  1  0  0  0  0
 46 48  1  0  0  0  0
 46 47  1  0  0  0  0
 48 49  1  0  0  0  0
 50 51  1  0  0  0  0
 50 48  2  0  0  0  0
 52 50  1  0  0  0  0
 53 52  1  0  0  0  0
M  END
