1
q = -1.0, confidence = 0.0

 13 12  0  0  0  0  0  0  0  0999 V2000
   -1.8603   -0.4807    0.9956 C   0  0  0  0  0  3  0  0  0  0  0  0
   -1.8041   -1.5749    1.1768 H   0  0  0  0  0  0  0  0  0  0  0  0
   -2.0045   -0.0223    1.9991 H   0  0  0  0  0  0  0  0  0  0  0  0
   -3.4392   -0.2057    0.0054 Si  0  0  0  0  0  0  0  0  0  0  0  0
   -3.7269    1.2767   -0.1404 H   0  0  0  0  0  0  0  0  0  0  0  0
   -4.9119   -0.9495    0.9509 C   0  0  0  0  0  0  0  0  0  0  0  0
   -5.8685   -0.7588    0.4214 H   0  0  0  0  0  0  0  0  0  0  0  0
   -4.9933   -0.5186    1.9697 H   0  0  0  0  0  0  0  0  0  0  0  0
   -4.7934   -2.0480    1.0574 H   0  0  0  0  0  0  0  0  0  0  0  0
   -3.4098   -0.9522   -1.7362 C   0  0  0  0  0  0  0  0  0  0  0  0
   -4.3998   -0.8261   -2.2209 H   0  0  0  0  0  0  0  0  0  0  0  0
   -3.1778   -2.0357   -1.6981 H   0  0  0  0  0  0  0  0  0  0  0  0
   -2.6458   -0.4779   -2.3834 H   0  0  0  0  0  0  0  0  0  0  0  0
  1  2  1  0  0  0  0
  1  3  1  0  0  0  0
  4  6  1  0  0  0  0
  4  1  1  0  0  0  0
  5  4  1  0  0  0  0
  6  9  1  0  0  0  0
  6  8  1  0  0  0  0
  7  6  1  0  0  0  0
 10 12  1  0  0  0  0
 10  4  1  0  0  0  0
 11 10  1  0  0  0  0
 13 10  1  0  0  0  0
M  END
