1
q = 0.0, confidence = 0.996

 30 31  0  0  0  0  0  0  0  0999 V2000
    0.4072    0.6907   -0.5939 C   0  0  0  0  0  2  0  0  0  0  0  0
    0.7712    1.9753   -0.3529 N   0  0  0  0  0  0  0  0  0  0  0  0
   -0.1854    2.8954   -0.6766 N   0  0  0  0  0  0  0  0  0  0  0  0
   -1.1758    2.1685   -1.1392 C   0  0  0  0  0  0  0  0  0  0  0  0
   -2.1377    2.5623   -1.4867 H   0  0  0  0  0  0  0  0  0  0  0  0
   -0.8591    0.8282   -1.1164 N   0  0  0  0  0  0  0  0  0  0  0  0
    2.0219    2.3997    0.2955 C   0  0  0  0  0  0  0  0  0  0  0  0
    2.5659    1.4409    0.4307 H   0  0  0  0  0  0  0  0  0  0  0  0
    2.8054    3.3297   -0.6293 C   0  0  0  0  0  0  0  0  0  0  0  0
    3.0317    2.8341   -1.5946 H   0  0  0  0  0  0  0  0  0  0  0  0
    3.7631    3.6181   -0.1536 H   0  0  0  0  0  0  0  0  0  0  0  0
    2.2265    4.2516   -0.8373 H   0  0  0  0  0  0  0  0  0  0  0  0
    1.7155    2.9992    1.6677 C   0  0  0  0  0  0  0  0  0  0  0  0
    1.0914    3.9096    1.5668 H   0  0  0  0  0  0  0  0  0  0  0  0
    2.6596    3.2734    2.1782 H   0  0  0  0  0  0  0  0  0  0  0  0
    1.1811    2.2562    2.2919 H   0  0  0  0  0  0  0  0  0  0  0  0
   -1.7343   -0.2885   -1.4784 C   0  0  0  0  0  0  0  0  0  0  0  0
   -1.1345   -1.1956   -1.2515 H   0  0  0  0  0  0  0  0  0  0  0  0
   -1.9251   -0.2630   -2.5709 H   0  0  0  0  0  0  0  0  0  0  0  0
   -3.0341   -0.2756   -0.7057 C   0  0  0  0  0  0  0  0  0  0  0  0
   -3.0159   -0.3752    0.7015 C   0  0  0  0  0  0  0  0  0  0  0  0
   -2.0510   -0.4672    1.2311 H   0  0  0  0  0  0  0  0  0  0  0  0
   -4.2195   -0.3594    1.4189 C   0  0  0  0  0  0  0  0  0  0  0  0
   -4.1974   -0.4400    2.5164 H   0  0  0  0  0  0  0  0  0  0  0  0
   -5.4483   -0.2478    0.7454 C   0  0  0  0  0  0  0  0  0  0  0  0
   -6.3908   -0.2374    1.3139 H   0  0  0  0  0  0  0  0  0  0  0  0
   -5.4708   -0.1506   -0.6537 C   0  0  0  0  0  0  0  0  0  0  0  0
   -6.4292   -0.0630   -1.1878 H   0  0  0  0  0  0  0  0  0  0  0  0
   -4.2662   -0.1616   -1.3755 C   0  0  0  0  0  0  0  0  0  0  0  0
   -4.2833   -0.0844   -2.4749 H   0  0  0  0  0  0  0  0  0  0  0  0
  1  2  1  0  0  0  0
  2  7  1  0  0  0  0
  3  2  1  0  0  0  0
  4  6  1  0  0  0  0
  4  3  2  0  0  0  0
  5  4  1  0  0  0  0
  6  1  1  0  0  0  0
  7  8  1  0  0  0  0
  7 13  1  0  0  0  0
  9 11  1  0  0  0  0
  9  7  1  0  0  0  0
 10  9  1  0  0  0  0
 12  9  1  0  0  0  0
 13 15  1  0  0  0  0
 13 16  1  0  0  0  0
 14 13  1  0  0  0  0
 17 18  1  0  0  0  0
 17  6  1  0  0  0  0
 17 20  1  0  0  0  0
 19 17  1  0  0  0  0
 20 21  1  0  0  0  0
 21 22  1  0  0  0  0
 21 23  2  0  0  0  0
 23 24  1  0  0  0  0
 25 26  1  0  0  0  0
 25 23  1  0  0  0  0
 27 25  2  0  0  0  0
 28 27  1  0  0  0  0
 29 20  2  0  0  0  0
 29 27  1  0  0  0  0
 30 29  1  0  0  0  0
M  END
