3
q = 0.0, confidence = 0.962

 10  9  0  0  0  0  0  0  0  0999 V2000
    3.4927   -0.3231   -1.1289 O   0  0  0  0  0  0  0  0  0  0  0  0
    3.7885   -0.0908   -3.3749 O   0  0  0  0  0  0  0  0  0  0  0  0
    0.7655   -0.2796   -1.4277 C   0  0  0  0  0  1  0  0  0  0  0  0
    1.5644   -0.2078   -2.5009 C   0  0  0  0  0  3  0  0  0  0  0  0
    1.1434   -0.1605   -3.5181 H   0  0  0  0  0  0  0  0  0  0  0  0
    3.0396   -0.1967   -2.4240 C   0  0  0  0  0  0  0  0  0  0  0  0
    4.9235   -0.3150   -0.9964 C   0  0  0  0  0  0  0  0  0  0  0  0
    5.1304   -0.4195    0.0842 H   0  0  0  0  0  0  0  0  0  0  0  0
    5.3528    0.6315   -1.3813 H   0  0  0  0  0  0  0  0  0  0  0  0
    5.3784   -1.1554   -1.5571 H   0  0  0  0  0  0  0  0  0  0  0  0
  1  7  1  0  0  0  0
  2  6  2  0  0  0  0
  4  6  1  0  0  0  0
  4  3  1  0  0  0  0
  5  4  1  0  0  0  0
  6  1  1  0  0  0  0
  7  8  1  0  0  0  0
  9  7  1  0  0  0  0
 10  7  1  0  0  0  0
M  END
