2
q = 0.0, confidence = 0.978

 21 21  0  0  1  0  0  0  0  0999 V2000
    5.4214    0.4257    0.0989 N   0  0  0  0  0  0  0  0  0  0  0  0
    1.9620   -0.3059   -0.2471 C   0  0  0  0  0  3  0  0  0  0  0  0
    3.2002   -0.3112   -0.3988 C   0  0  0  0  0  0  0  0  0  0  0  0
    4.5858   -0.3390   -0.5990 C   0  0  2  0  0  3  0  0  0  0  0  0
    4.9893    1.3656    1.1525 C   0  0  0  0  0  0  0  0  0  0  0  0
    4.2398    0.8828    1.8091 H   0  0  0  0  0  0  0  0  0  0  0  0
    4.5036    2.2447    0.6764 H   0  0  0  0  0  0  0  0  0  0  0  0
    6.8853    0.4324   -0.0960 C   0  0  0  0  0  0  0  0  0  0  0  0
    7.1256    0.4739   -1.1761 H   0  0  0  0  0  0  0  0  0  0  0  0
    7.3072   -0.5158    0.3028 H   0  0  0  0  0  0  0  0  0  0  0  0
    5.1711   -1.1287   -1.4964 O   0  0  0  0  0  0  0  0  0  0  0  0
    7.3364    1.6574    0.7081 C   0  0  0  0  0  0  0  0  0  0  0  0
    8.3790    1.5601    1.0642 H   0  0  0  0  0  0  0  0  0  0  0  0
    7.2815    2.5670    0.0750 H   0  0  0  0  0  0  0  0  0  0  0  0
    6.3062    1.7335    1.8456 C   0  0  0  0  0  0  0  0  0  0  0  0
    6.2579    2.7269    2.3294 H   0  0  0  0  0  0  0  0  0  0  0  0
    6.5423    0.9875    2.6325 H   0  0  0  0  0  0  0  0  0  0  0  0
    4.3428   -1.9900   -2.3046 C   0  0  0  0  0  0  0  0  0  0  0  0
    3.7819   -2.6975   -1.6635 H   0  0  0  0  0  0  0  0  0  0  0  0
    5.0428   -2.5340   -2.9615 H   0  0  0  0  0  0  0  0  0  0  0  0
    3.6324   -1.3895   -2.9056 H   0  0  0  0  0  0  0  0  0  0  0  0
  1  5  1  0  0  0  0
  3  2  3  0  0  0  0
  4  3  1  1  0  0  0
  4  1  1  0  0  0  0
  5  6  1  0  0  0  0
  5 15  1  0  0  0  0
  7  5  1  0  0  0  0
  8  1  1  0  0  0  0
  8 10  1  0  0  0  0
  8 12  1  0  0  0  0
  9  8  1  0  0  0  0
 11  4  1  0  0  0  0
 12 13  1  0  0  0  0
 12 15  1  0  0  0  0
 14 12  1  0  0  0  0
 15 16  1  0  0  0  0
 15 17  1  0  0  0  0
 18 19  1  0  0  0  0
 18 11  1  0  0  0  0
 20 18  1  0  0  0  0
 21 18  1  0  0  0  0
M  END
