21
q = 0.0, confidence = 0.89

 58 62  0  0  1  0  0  0  0  0999 V2000
    4.1043    1.0343   -1.0441 Si  0  0  0  0  0  0  0  0  0  0  0  0
   -3.2532    3.5540   -1.3096 C   0  0  0  0  0  0  0  0  0  0  0  0
   -2.6065    4.0155   -0.5263 H   0  0  0  0  0  0  0  0  0  0  0  0
   -2.8002    3.8026   -2.2908 H   0  0  0  0  0  0  0  0  0  0  0  0
   -3.2335    2.0251   -1.1572 C   0  0  2  0  0  0  0  0  0  0  0  0
   -3.9303    1.5798   -1.8954 H   0  0  0  0  0  0  0  0  0  0  0  0
   -3.6087    1.5389    0.2574 C   0  0  2  0  0  0  0  0  0  0  0  0
   -4.0546    2.3546    0.8731 H   0  0  0  0  0  0  0  0  0  0  0  0
   -2.2742    1.0074    0.8539 C   0  0  2  0  0  0  0  0  0  0  0  0
   -1.9937    1.4547    1.8313 H   0  0  0  0  0  0  0  0  0  0  0  0
   -1.2153    1.3620   -0.2035 C   0  0  1  0  0  0  0  0  0  0  0  0
   -3.8777   -0.6065    1.0527 C   0  0  0  0  0  0  0  0  0  0  0  0
   -4.3132   -0.4294    2.5121 C   0  0  0  0  0  0  0  0  0  0  0  0
   -4.0589    0.5818    2.8871 H   0  0  0  0  0  0  0  0  0  0  0  0
   -3.8030   -1.1730    3.1541 H   0  0  0  0  0  0  0  0  0  0  0  0
   -5.4082   -0.5636    2.6022 H   0  0  0  0  0  0  0  0  0  0  0  0
   -4.2146   -1.9722    0.4898 C   0  0  0  0  0  0  0  0  0  0  0  0
   -5.3067   -2.1418    0.5384 H   0  0  0  0  0  0  0  0  0  0  0  0
   -3.7021   -2.7595    1.0742 H   0  0  0  0  0  0  0  0  0  0  0  0
   -3.8760   -2.0328   -0.5593 H   0  0  0  0  0  0  0  0  0  0  0  0
   -0.0224    0.4648   -0.4326 C   0  0  1  0  0  3  0  0  0  0  0  0
    0.3306   -0.8698   -0.8556 C   0  0  2  0  0  3  0  0  0  0  0  0
    1.7594   -0.7825   -1.3966 C   0  0  0  0  0  0  0  0  0  0  0  0
    2.3051    0.5005   -0.7923 C   0  0  2  0  0  3  0  0  0  0  0  0
    1.1579    1.2775   -0.4175 C   0  0  1  0  0  3  0  0  0  0  0  0
    0.7450    2.7023   -0.1869 C   0  0  0  0  0  0  0  0  0  0  0  0
    1.3130    3.2390    0.5974 H   0  0  0  0  0  0  0  0  0  0  0  0
    0.8427    3.2713   -1.1418 H   0  0  0  0  0  0  0  0  0  0  0  0
   -0.5645   -1.9808   -1.2349 C   0  0  0  0  0  0  0  0  0  0  0  0
   -0.3035   -3.3037   -0.8252 C   0  0  0  0  0  0  0  0  0  0  0  0
    0.5320   -3.4970   -0.1363 H   0  0  0  0  0  0  0  0  0  0  0  0
   -1.1030   -4.3609   -1.2812 C   0  0  0  0  0  0  0  0  0  0  0  0
   -0.8923   -5.3879   -0.9460 H   0  0  0  0  0  0  0  0  0  0  0  0
   -2.1645   -4.1128   -2.1663 C   0  0  0  0  0  0  0  0  0  0  0  0
   -2.7884   -4.9441   -2.5282 H   0  0  0  0  0  0  0  0  0  0  0  0
   -2.4242   -2.7988   -2.5881 C   0  0  0  0  0  0  0  0  0  0  0  0
   -3.2527   -2.5960   -3.2841 H   0  0  0  0  0  0  0  0  0  0  0  0
   -1.6345   -1.7377   -2.1237 C   0  0  0  0  0  0  0  0  0  0  0  0
   -1.8378   -0.7048   -2.4415 H   0  0  0  0  0  0  0  0  0  0  0  0
    4.3626    1.2288   -2.9051 C   0  0  0  0  0  0  0  0  0  0  0  0
    3.7154    2.0259   -3.3244 H   0  0  0  0  0  0  0  0  0  0  0  0
    4.1069    0.2749   -3.4090 H   0  0  0  0  0  0  0  0  0  0  0  0
    5.4168    1.4813   -3.1408 H   0  0  0  0  0  0  0  0  0  0  0  0
    5.2338   -0.3115   -0.3608 C   0  0  0  0  0  0  0  0  0  0  0  0
    6.2941   -0.1109   -0.6171 H   0  0  0  0  0  0  0  0  0  0  0  0
    4.9477   -1.2887   -0.7994 H   0  0  0  0  0  0  0  0  0  0  0  0
    5.1541   -0.3852    0.7425 H   0  0  0  0  0  0  0  0  0  0  0  0
    4.3794    2.6801   -0.1479 C   0  0  0  0  0  0  0  0  0  0  0  0
    4.1800    2.5984    0.9398 H   0  0  0  0  0  0  0  0  0  0  0  0
    3.7337    3.4825   -0.5607 H   0  0  0  0  0  0  0  0  0  0  0  0
    5.4321    3.0095   -0.2700 H   0  0  0  0  0  0  0  0  0  0  0  0
   -4.5723    4.0622   -1.3168 O   0  0  0  0  0  0  0  0  0  0  0  0
   -4.9294    3.9760   -0.4143 H   0  0  0  0  0  0  0  0  0  0  0  0
   -1.9182    1.4967   -1.4233 O   0  0  0  0  0  0  0  0  0  0  0  0
   -4.4611    0.4057    0.2211 O   0  0  0  0  0  0  0  0  0  0  0  0
   -2.4649   -0.3871    0.9268 O   0  0  0  0  0  0  0  0  0  0  0  0
   -0.6230    2.6063    0.2261 O   0  0  0  0  0  0  0  0  0  0  0  0
    2.3642   -1.6124   -2.0598 O   0  0  0  0  0  0  0  0  0  0  0  0
  1 24  1  0  0  0  0
  1 44  1  0  0  0  0
  1 48  1  0  0  0  0
  2  5  1  0  0  0  0
  2  3  1  0  0  0  0
  4  2  1  0  0  0  0
  5  6  1  6  0  0  0
  5  7  1  0  0  0  0
  7  9  1  0  0  0  0
  7  8  1  1  0  0  0
  9 56  1  0  0  0  0
  9 10  1  1  0  0  0
 11 54  1  6  0  0  0
 11 57  1  0  0  0  0
 11  9  1  0  0  0  0
 12 13  1  0  0  0  0
 13 16  1  0  0  0  0
 13 14  1  0  0  0  0
 13 15  1  0  0  0  0
 17 18  1  0  0  0  0
 17 12  1  0  0  0  0
 17 19  1  0  0  0  0
 20 17  1  0  0  0  0
 21 25  1  0  0  0  0
 21 11  1  0  0  0  0
 22 21  1  0  0  0  0
 23 22  1  0  0  0  0
 23 24  1  0  0  0  0
 24 25  1  0  0  0  0
 25 26  1  0  0  0  0
 26 57  1  0  0  0  0
 26 27  1  0  0  0  0
 28 26  1  0  0  0  0
 29 22  1  0  0  0  0
 29 30  1  0  0  0  0
 30 31  1  0  0  0  0
 32 33  1  0  0  0  0
 32 30  2  0  0  0  0
 34 32  1  0  0  0  0
 35 34  1  0  0  0  0
 36 34  2  0  0  0  0
 36 38  1  0  0  0  0
 37 36  1  0  0  0  0
 38 29  2  0  0  0  0
 39 38  1  0  0  0  0
 40  1  1  0  0  0  0
 41 40  1  0  0  0  0
 42 40  1  0  0  0  0
 43 40  1  0  0  0  0
 44 47  1  0  0  0  0
 45 44  1  0  0  0  0
 46 44  1  0  0  0  0
 48 49  1  0  0  0  0
 50 48  1  0  0  0  0
 51 48  1  0  0  0  0
 52  2  1  0  0  0  0
 52 53  1  0  0  0  0
 54  5  1  0  0  0  0
 55  7  1  0  0  0  0
 55 12  1  0  0  0  0
 56 12  1  0  0  0  0
 58 23  2  0  0  0  0
M  END
