4
q = 0.0, confidence = 0.914

 16 15  0  0  0  0  0  0  0  0999 V2000
   -1.6410   -1.6510   -0.7911 C   0  0  0  0  0  3  0  0  0  0  0  0
   -2.4796   -1.4291   -1.4731 H   0  0  0  0  0  0  0  0  0  0  0  0
   -0.9580   -2.4309   -1.1719 H   0  0  0  0  0  0  0  0  0  0  0  0
   -1.7714   -1.4617    0.6132 C   0  0  0  0  0  3  0  0  0  0  0  0
   -1.1485   -2.0960    1.2766 H   0  0  0  0  0  0  0  0  0  0  0  0
   -2.9970   -0.8786    1.2891 C   0  0  0  0  0  0  0  0  0  0  0  0
   -2.7034   -0.5138    2.2969 H   0  0  0  0  0  0  0  0  0  0  0  0
   -3.7759   -1.6589    1.4535 H   0  0  0  0  0  0  0  0  0  0  0  0
   -3.5423    0.2892    0.4563 C   0  0  0  0  0  0  0  0  0  0  0  0
   -4.0378   -0.0955   -0.4595 H   0  0  0  0  0  0  0  0  0  0  0  0
   -4.3168    0.8474    1.0222 H   0  0  0  0  0  0  0  0  0  0  0  0
   -2.3945    1.2049    0.0695 C   0  0  0  0  0  3  0  0  0  0  0  0
   -2.1131    1.9776    0.8084 H   0  0  0  0  0  0  0  0  0  0  0  0
   -1.9315    1.3320   -1.2542 C   0  0  0  0  0  3  0  0  0  0  0  0
   -2.4519    0.8058   -2.0733 H   0  0  0  0  0  0  0  0  0  0  0  0
   -1.3139    2.1973   -1.5448 H   0  0  0  0  0  0  0  0  0  0  0  0
  1  4  1  0  0  0  0
  2  1  1  0  0  0  0
  3  1  1  0  0  0  0
  4  5  1  0  0  0  0
  4  6  1  0  0  0  0
  6  8  1  0  0  0  0
  6  7  1  0  0  0  0
  9 11  1  0  0  0  0
  9  6  1  0  0  0  0
 10  9  1  0  0  0  0
 12  9  1  0  0  0  0
 12 13  1  0  0  0  0
 14 12  1  0  0  0  0
 15 14  1  0  0  0  0
 16 14  1  0  0  0  0
M  END
