3
q = 0.0, confidence = 0.992

 47 50  0  0  0  0  0  0  0  0999 V2000
   -0.7226   -0.2708   -0.0541 N   0  0  0  0  0  2  0  0  0  0  0  0
    0.6518   -0.3278   -0.0459 C   0  0  0  0  0  0  0  0  0  0  0  0
   -1.9050   -0.2181   -0.0576 C   0  0  0  0  0  1  0  0  0  0  0  0
    1.3984    0.5914   -0.8172 C   0  0  0  0  0  0  0  0  0  0  0  0
    0.8727    1.3377   -1.4289 H   0  0  0  0  0  0  0  0  0  0  0  0
    2.7909    0.5322   -0.7949 C   0  0  0  0  0  0  0  0  0  0  0  0
    3.3702    1.2447   -1.3983 H   0  0  0  0  0  0  0  0  0  0  0  0
    3.4766   -0.4315   -0.0147 C   0  0  0  0  0  0  0  0  0  0  0  0
    1.3099   -1.3107    0.7257 C   0  0  0  0  0  0  0  0  0  0  0  0
    0.7164   -2.0224    1.3165 H   0  0  0  0  0  0  0  0  0  0  0  0
    2.7045   -1.3607    0.7249 C   0  0  0  0  0  0  0  0  0  0  0  0
    3.2178   -2.1293    1.3208 H   0  0  0  0  0  0  0  0  0  0  0  0
    4.9599   -0.5072   -0.0025 C   0  0  0  0  0  0  0  0  0  0  0  0
    5.7536    0.6228    0.0769 C   0  0  0  0  0  0  0  0  0  0  0  0
    5.5581    3.1086   -0.2875 C   0  0  0  0  0  0  0  0  0  0  0  0
    6.2545    3.0108   -1.1341 H   0  0  0  0  0  0  0  0  0  0  0  0
    5.1969    1.9532    0.4439 C   0  0  0  0  0  0  0  0  0  0  0  0
    5.0272    4.3618    0.0455 C   0  0  0  0  0  0  0  0  0  0  0  0
    5.3066    5.2475   -0.5453 H   0  0  0  0  0  0  0  0  0  0  0  0
    4.1446    4.4897    1.1307 C   0  0  0  0  0  0  0  0  0  0  0  0
    3.7327    5.4752    1.3958 H   0  0  0  0  0  0  0  0  0  0  0  0
    3.8016    3.3552    1.8846 C   0  0  0  0  0  0  0  0  0  0  0  0
    3.1272    3.4505    2.7491 H   0  0  0  0  0  0  0  0  0  0  0  0
    4.3217    2.1000    1.5448 C   0  0  0  0  0  0  0  0  0  0  0  0
    4.0579    1.2137    2.1405 H   0  0  0  0  0  0  0  0  0  0  0  0
    7.2172    0.5867   -0.1847 C   0  0  0  0  0  0  0  0  0  0  0  0
    8.1096    1.2992    0.6501 C   0  0  0  0  0  0  0  0  0  0  0  0
    7.7082    1.8674    1.5027 H   0  0  0  0  0  0  0  0  0  0  0  0
    9.4900    1.2751    0.4105 C   0  0  0  0  0  0  0  0  0  0  0  0
   10.1699    1.8234    1.0802 H   0  0  0  0  0  0  0  0  0  0  0  0
    9.1266   -0.1330   -1.5341 C   0  0  0  0  0  0  0  0  0  0  0  0
    9.5199   -0.6834   -2.4022 H   0  0  0  0  0  0  0  0  0  0  0  0
   10.0043    0.5578   -0.6817 C   0  0  0  0  0  0  0  0  0  0  0  0
   11.0878    0.5441   -0.8741 H   0  0  0  0  0  0  0  0  0  0  0  0
    7.7487   -0.1214   -1.2878 C   0  0  0  0  0  0  0  0  0  0  0  0
    7.0651   -0.6611   -1.9589 H   0  0  0  0  0  0  0  0  0  0  0  0
    5.5327   -1.8808   -0.0665 C   0  0  0  0  0  0  0  0  0  0  0  0
    6.5604   -2.2833    0.8169 C   0  0  0  0  0  0  0  0  0  0  0  0
    6.9445   -1.5640    1.5548 H   0  0  0  0  0  0  0  0  0  0  0  0
    7.0860   -3.5801    0.7603 C   0  0  0  0  0  0  0  0  0  0  0  0
    7.8825   -3.8758    1.4599 H   0  0  0  0  0  0  0  0  0  0  0  0
    6.5971   -4.5019   -0.1803 C   0  0  0  0  0  0  0  0  0  0  0  0
    7.0130   -5.5198   -0.2258 H   0  0  0  0  0  0  0  0  0  0  0  0
    5.5678   -4.1200   -1.0558 C   0  0  0  0  0  0  0  0  0  0  0  0
    5.1764   -4.8367   -1.7937 H   0  0  0  0  0  0  0  0  0  0  0  0
    5.0345   -2.8254   -0.9933 C   0  0  0  0  0  0  0  0  0  0  0  0
    4.2268   -2.5305   -1.6807 H   0  0  0  0  0  0  0  0  0  0  0  0
  1  2  1  0  0  0  0
  2  9  1  0  0  0  0
  3  1  1  0  0  0  0
  4  6  1  0  0  0  0
  4  2  2  0  0  0  0
  5  4  1  0  0  0  0
  6  8  2  0  0  0  0
  7  6  1  0  0  0  0
  8 13  1  0  0  0  0
  8 11  1  0  0  0  0
  9 10  1  0  0  0  0
 11  9  2  0  0  0  0
 11 12  1  0  0  0  0
 13 14  2  0  0  0  0
 14 17  1  0  0  0  0
 15 18  2  0  0  0  0
 15 17  1  0  0  0  0
 16 15  1  0  0  0  0
 17 24  2  0  0  0  0
 18 20  1  0  0  0  0
 19 18  1  0  0  0  0
 20 21  1  0  0  0  0
 20 22  2  0  0  0  0
 22 23  1  0  0  0  0
 24 22  1  0  0  0  0
 24 25  1  0  0  0  0
 26 14  1  0  0  0  0
 26 27  1  0  0  0  0
 27 28  1  0  0  0  0
 29 27  2  0  0  0  0
 29 30  1  0  0  0  0
 31 35  1  0  0  0  0
 31 33  2  0  0  0  0
 32 31  1  0  0  0  0
 33 29  1  0  0  0  0
 34 33  1  0  0  0  0
 35 26  2  0  0  0  0
 36 35  1  0  0  0  0
 37 13  1  0  0  0  0
 37 38  1  0  0  0  0
 38 39  1  0  0  0  0
 40 38  2  0  0  0  0
 40 41  1  0  0  0  0
 42 40  1  0  0  0  0
 43 42  1  0  0  0  0
 44 46  1  0  0  0  0
 44 42  2  0  0  0  0
 45 44  1  0  0  0  0
 46 37  2  0  0  0  0
 47 46  1  0  0  0  0
M  END
