15
q = -2.0, confidence = 0.712

 58 61  0  0  0  0  0  0  0  0999 V2000
    1.0405    0.2012   -1.3006 F   0  0  0  0  0  0  0  0  0  0  0  0
    2.6013   -0.9589    0.3010 C   0  0  0  0  0  0  0  0  0  0  0  0
    3.9057   -0.7647    0.7731 C   0  0  0  0  0  0  0  0  0  0  0  0
    4.2293    0.2647    0.9905 H   0  0  0  0  0  0  0  0  0  0  0  0
    4.8481   -1.8056    0.9581 C   0  0  0  0  0  0  0  0  0  0  0  0
    5.8568   -1.5709    1.3356 H   0  0  0  0  0  0  0  0  0  0  0  0
    4.5032   -3.1033    0.6328 C   0  0  0  0  0  0  0  0  0  0  0  0
    5.2227   -3.9324    0.7363 H   0  0  0  0  0  0  0  0  0  0  0  0
    2.8613   -4.7457   -0.1576 C   0  0  0  0  0  0  0  0  0  0  0  0
    3.6465   -5.5123   -0.0476 H   0  0  0  0  0  0  0  0  0  0  0  0
    1.5885   -5.0905   -0.5706 C   0  0  0  0  0  0  0  0  0  0  0  0
    1.3347   -6.1363   -0.8079 H   0  0  0  0  0  0  0  0  0  0  0  0
    0.5980   -4.0793   -0.6610 C   0  0  0  0  0  0  0  0  0  0  0  0
   -0.4220   -4.3790   -0.9518 H   0  0  0  0  0  0  0  0  0  0  0  0
    0.8755   -2.7355   -0.3874 C   0  0  0  0  0  3  0  0  0  0  0  0
    2.2066   -2.3291    0.0091 C   0  0  0  0  0  0  0  0  0  0  0  0
    3.1926   -3.3941    0.1553 C   0  0  0  0  0  0  0  0  0  0  0  0
    2.7237    1.7022   -0.1344 C   0  0  0  0  0  0  0  0  0  0  0  0
    3.4067    1.9123   -1.3749 C   0  0  0  0  0  0  0  0  0  0  0  0
    4.2498    3.0268   -1.5559 C   0  0  0  0  0  0  0  0  0  0  0  0
    4.7548    3.1540   -2.5299 H   0  0  0  0  0  0  0  0  0  0  0  0
    4.4847    3.9656   -0.5391 C   0  0  0  0  0  0  0  0  0  0  0  0
    3.8736    3.7247    0.6992 C   0  0  0  0  0  0  0  0  0  0  0  0
    4.0727    4.4143    1.5386 H   0  0  0  0  0  0  0  0  0  0  0  0
    3.0188    2.6223    0.9168 C   0  0  0  0  0  0  0  0  0  0  0  0
    3.3061    0.9430   -2.5342 C   0  0  0  0  0  0  0  0  0  0  0  0
    2.3097    0.9763   -3.0141 H   0  0  0  0  0  0  0  0  0  0  0  0
    3.4381   -0.1033   -2.1944 H   0  0  0  0  0  0  0  0  0  0  0  0
    4.0807    1.1677   -3.2960 H   0  0  0  0  0  0  0  0  0  0  0  0
    5.3555    5.1767   -0.7713 C   0  0  0  0  0  0  0  0  0  0  0  0
    4.7870    6.0035   -1.2528 H   0  0  0  0  0  0  0  0  0  0  0  0
    6.2101    4.9452   -1.4407 H   0  0  0  0  0  0  0  0  0  0  0  0
    5.7637    5.5752    0.1800 H   0  0  0  0  0  0  0  0  0  0  0  0
    2.4732    2.4664    2.3217 C   0  0  0  0  0  0  0  0  0  0  0  0
    3.0408    3.1043    3.0298 H   0  0  0  0  0  0  0  0  0  0  0  0
    2.5391    1.4206    2.6775 H   0  0  0  0  0  0  0  0  0  0  0  0
    1.4033    2.7479    2.3922 H   0  0  0  0  0  0  0  0  0  0  0  0
    0.4244    0.7257    1.0593 C   0  0  0  0  0  0  0  0  0  0  0  0
   -0.4806    1.7773    0.6856 C   0  0  0  0  0  0  0  0  0  0  0  0
   -1.5970    2.0911    1.4841 C   0  0  0  0  0  0  0  0  0  0  0  0
   -2.2690    2.9035    1.1567 H   0  0  0  0  0  0  0  0  0  0  0  0
   -1.8921    1.3974    2.6681 C   0  0  0  0  0  0  0  0  0  0  0  0
   -0.9990    0.3878    3.0527 C   0  0  0  0  0  0  0  0  0  0  0  0
   -1.1896   -0.1652    3.9885 H   0  0  0  0  0  0  0  0  0  0  0  0
    0.1395    0.0509    2.2896 C   0  0  0  0  0  0  0  0  0  0  0  0
   -0.2911    2.6013   -0.5688 C   0  0  0  0  0  0  0  0  0  0  0  0
   -1.0505    3.4064   -0.6286 H   0  0  0  0  0  0  0  0  0  0  0  0
   -0.3631    1.9737   -1.4758 H   0  0  0  0  0  0  0  0  0  0  0  0
    0.7171    3.0593   -0.6020 H   0  0  0  0  0  0  0  0  0  0  0  0
   -3.1359    1.6972    3.4676 C   0  0  0  0  0  0  0  0  0  0  0  0
   -3.0065    1.4391    4.5384 H   0  0  0  0  0  0  0  0  0  0  0  0
   -4.0009    1.1104    3.0913 H   0  0  0  0  0  0  0  0  0  0  0  0
   -3.4173    2.7681    3.4007 H   0  0  0  0  0  0  0  0  0  0  0  0
    1.0299   -1.0282    2.8686 C   0  0  0  0  0  0  0  0  0  0  0  0
    1.0005   -1.9605    2.2707 H   0  0  0  0  0  0  0  0  0  0  0  0
    0.7125   -1.2784    3.9008 H   0  0  0  0  0  0  0  0  0  0  0  0
    2.0945   -0.7257    2.8949 H   0  0  0  0  0  0  0  0  0  0  0  0
    1.6950    0.4057    0.0295 B   0  0  0  0  0  0  0  0  0  0  0  0
  1 58  1  0  0  0  0
  2  3  1  0  0  0  0
  3  5  2  0  0  0  0
  3  4  1  0  0  0  0
  5  6  1  0  0  0  0
  7  8  1  0  0  0  0
  7  5  1  0  0  0  0
  9 10  1  0  0  0  0
  9 17  1  0  0  0  0
 11  9  2  0  0  0  0
 12 11  1  0  0  0  0
 13 11  1  0  0  0  0
 13 15  2  0  0  0  0
 14 13  1  0  0  0  0
 15 16  1  0  0  0  0
 16 17  1  0  0  0  0
 16  2  2  0  0  0  0
 17  7  2  0  0  0  0
 18 58  1  0  0  0  0
 18 25  1  0  0  0  0
 19 18  2  0  0  0  0
 20 19  1  0  0  0  0
 20 22  2  0  0  0  0
 21 20  1  0  0  0  0
 22 23  1  0  0  0  0
 23 25  2  0  0  0  0
 23 24  1  0  0  0  0
 25 34  1  0  0  0  0
 26 28  1  0  0  0  0
 26 19  1  0  0  0  0
 27 26  1  0  0  0  0
 29 26  1  0  0  0  0
 30 22  1  0  0  0  0
 30 33  1  0  0  0  0
 31 30  1  0  0  0  0
 32 30  1  0  0  0  0
 34 37  1  0  0  0  0
 34 36  1  0  0  0  0
 34 35  1  0  0  0  0
 38 45  1  0  0  0  0
 39 38  2  0  0  0  0
 39 40  1  0  0  0  0
 40 42  2  0  0  0  0
 41 40  1  0  0  0  0
 42 43  1  0  0  0  0
 42 50  1  0  0  0  0
 43 44  1  0  0  0  0
 45 54  1  0  0  0  0
 45 43  2  0  0  0  0
 46 39  1  0  0  0  0
 47 46  1  0  0  0  0
 48 46  1  0  0  0  0
 49 46  1  0  0  0  0
 50 51  1  0  0  0  0
 52 50  1  0  0  0  0
 53 50  1  0  0  0  0
 54 57  1  0  0  0  0
 54 56  1  0  0  0  0
 55 54  1  0  0  0  0
 58  2  1  0  0  0  0
 58 38  1  0  0  0  0
M  END
