5
q = 0.0, confidence = 0.998

 49 52  0  0  0  0  0  0  0  0999 V2000
    0.3650   -3.6186   -0.3896 O   0  0  0  0  0  0  0  0  0  0  0  0
    6.3134   -1.6044    0.3582 F   0  0  0  0  0  0  0  0  0  0  0  0
   -1.1841   -1.4185    0.6405 N   0  0  0  0  0  0  0  0  0  0  0  0
   -2.1213    0.1240   -0.6037 N   0  0  0  0  0  0  0  0  0  0  0  0
   -0.9450   -0.2474   -0.0243 C   0  0  0  0  0  2  0  0  0  0  0  0
   -2.5088   -1.8189    0.4597 C   0  0  0  0  0  0  0  0  0  0  0  0
   -3.2364   -2.9329    0.8925 C   0  0  0  0  0  0  0  0  0  0  0  0
   -2.7586   -3.7350    1.4732 H   0  0  0  0  0  0  0  0  0  0  0  0
   -4.5960   -3.0224    0.5454 C   0  0  0  0  0  0  0  0  0  0  0  0
   -5.2170   -1.9918   -0.2315 C   0  0  0  0  0  0  0  0  0  0  0  0
   -4.4718   -0.8816   -0.6664 C   0  0  0  0  0  0  0  0  0  0  0  0
   -4.9477   -0.0836   -1.2533 H   0  0  0  0  0  0  0  0  0  0  0  0
   -3.1174   -0.8128   -0.3205 C   0  0  0  0  0  0  0  0  0  0  0  0
   -5.4045   -4.2141    0.9915 C   0  0  0  0  0  0  0  0  0  0  0  0
   -5.8292   -4.7670    0.1270 H   0  0  0  0  0  0  0  0  0  0  0  0
   -6.2673   -3.9112    1.6220 H   0  0  0  0  0  0  0  0  0  0  0  0
   -4.7904   -4.9242    1.5771 H   0  0  0  0  0  0  0  0  0  0  0  0
   -6.6778   -2.0983   -0.5880 C   0  0  0  0  0  0  0  0  0  0  0  0
   -6.8898   -3.0146   -1.1790 H   0  0  0  0  0  0  0  0  0  0  0  0
   -7.0134   -1.2275   -1.1825 H   0  0  0  0  0  0  0  0  0  0  0  0
   -7.3177   -2.1569    0.3179 H   0  0  0  0  0  0  0  0  0  0  0  0
   -0.1611   -2.1263    1.3926 C   0  0  0  0  0  0  0  0  0  0  0  0
   -0.6569   -2.9107    1.9963 H   0  0  0  0  0  0  0  0  0  0  0  0
    0.3104   -1.3993    2.0786 H   0  0  0  0  0  0  0  0  0  0  0  0
    0.8201   -2.8260    0.4254 C   0  0  0  0  0  0  0  0  0  0  0  0
    2.2755   -2.5028    0.4918 C   0  0  0  0  0  0  0  0  0  0  0  0
    3.1044   -3.0672   -0.5051 C   0  0  0  0  0  0  0  0  0  0  0  0
    2.6317   -3.7199   -1.2532 H   0  0  0  0  0  0  0  0  0  0  0  0
    4.4695   -2.7793   -0.5512 C   0  0  0  0  0  0  0  0  0  0  0  0
    5.1259   -3.1926   -1.3303 H   0  0  0  0  0  0  0  0  0  0  0  0
    5.0073   -1.9215    0.4204 C   0  0  0  0  0  0  0  0  0  0  0  0
    4.2200   -1.3616    1.4333 C   0  0  0  0  0  0  0  0  0  0  0  0
    4.6790   -0.6818    2.1645 H   0  0  0  0  0  0  0  0  0  0  0  0
    2.8504   -1.6478    1.4599 C   0  0  0  0  0  0  0  0  0  0  0  0
    2.2341   -1.1596    2.2277 H   0  0  0  0  0  0  0  0  0  0  0  0
   -2.3200    1.3343   -1.3935 C   0  0  0  0  0  0  0  0  0  0  0  0
   -2.7929    1.0483   -2.3546 H   0  0  0  0  0  0  0  0  0  0  0  0
   -1.3037    1.7104   -1.6314 H   0  0  0  0  0  0  0  0  0  0  0  0
   -3.1493    2.3773   -0.6725 C   0  0  0  0  0  0  0  0  0  0  0  0
   -4.2595    2.9668   -1.3043 C   0  0  0  0  0  0  0  0  0  0  0  0
   -4.5330    2.6528   -2.3249 H   0  0  0  0  0  0  0  0  0  0  0  0
   -5.0165    3.9502   -0.6475 C   0  0  0  0  0  0  0  0  0  0  0  0
   -5.8830    4.4033   -1.1531 H   0  0  0  0  0  0  0  0  0  0  0  0
   -4.6707    4.3476    0.6528 C   0  0  0  0  0  0  0  0  0  0  0  0
   -5.2648    5.1151    1.1719 H   0  0  0  0  0  0  0  0  0  0  0  0
   -3.5641    3.7606    1.2894 C   0  0  0  0  0  0  0  0  0  0  0  0
   -3.2850    4.0688    2.3085 H   0  0  0  0  0  0  0  0  0  0  0  0
   -2.8047    2.7820    0.6331 C   0  0  0  0  0  0  0  0  0  0  0  0
   -1.9348    2.3302    1.1392 H   0  0  0  0  0  0  0  0  0  0  0  0
  1 25  2  0  0  0  0
  2 31  1  0  0  0  0
  3 22  1  0  0  0  0
  4 13  1  0  0  0  0
  4  5  1  0  0  0  0
  5  3  1  0  0  0  0
  6  3  1  0  0  0  0
  6  7  1  0  0  0  0
  7  8  1  0  0  0  0
  9  7  2  0  0  0  0
  9 14  1  0  0  0  0
 10  9  1  0  0  0  0
 11 13  1  0  0  0  0
 11 10  2  0  0  0  0
 12 11  1  0  0  0  0
 13  6  2  0  0  0  0
 14 17  1  0  0  0  0
 14 16  1  0  0  0  0
 15 14  1  0  0  0  0
 18 10  1  0  0  0  0
 18 21  1  0  0  0  0
 19 18  1  0  0  0  0
 20 18  1  0  0  0  0
 22 23  1  0  0  0  0
 22 24  1  0  0  0  0
 25 26  1  0  0  0  0
 25 22  1  0  0  0  0
 26 34  1  0  0  0  0
 27 26  2  0  0  0  0
 28 27  1  0  0  0  0
 29 27  1  0  0  0  0
 29 31  2  0  0  0  0
 30 29  1  0  0  0  0
 31 32  1  0  0  0  0
 32 34  2  0  0  0  0
 32 33  1  0  0  0  0
 34 35  1  0  0  0  0
 36 39  1  0  0  0  0
 36  4  1  0  0  0  0
 37 36  1  0  0  0  0
 38 36  1  0  0  0  0
 39 48  1  0  0  0  0
 40 39  2  0  0  0  0
 40 42  1  0  0  0  0
 41 40  1  0  0  0  0
 42 44  2  0  0  0  0
 43 42  1  0  0  0  0
 44 45  1  0  0  0  0
 44 46  1  0  0  0  0
 46 47  1  0  0  0  0
 48 49  1  0  0  0  0
 48 46  2  0  0  0  0
M  END
