5
q = 0.0, confidence = 0.91

 22 22  0  0  1  0  0  0  0  0999 V2000
    0.0770    1.1999   -0.7413 C   0  0  1  0  0  3  0  0  0  0  0  0
   -0.2231    2.8944   -0.3512 Cl  0  0  0  0  0  0  0  0  0  0  0  0
   -0.7595    0.6315   -1.7645 C   0  0  0  0  0  3  0  0  0  0  0  0
   -1.5136    1.2285   -2.2968 H   0  0  0  0  0  0  0  0  0  0  0  0
   -0.6199   -0.7728   -1.9309 C   0  0  0  0  0  3  0  0  0  0  0  0
   -1.2812   -1.3384   -2.6045 H   0  0  0  0  0  0  0  0  0  0  0  0
    0.3591   -1.3773   -1.0695 C   0  0  0  0  0  3  0  0  0  0  0  0
    0.3781   -2.4786   -1.0367 H   0  0  0  0  0  0  0  0  0  0  0  0
    1.7139   -0.7079   -0.8916 C   0  0  2  0  0  0  0  0  0  0  0  0
    2.2905   -0.8222   -1.8469 H   0  0  0  0  0  0  0  0  0  0  0  0
    2.4607   -1.2821    0.1632 O   0  0  0  0  0  0  0  0  0  0  0  0
    1.5414    0.8211   -0.5868 C   0  0  2  0  0  0  0  0  0  0  0  0
    2.1377    1.4171   -1.3232 H   0  0  0  0  0  0  0  0  0  0  0  0
    3.0299   -2.5351   -0.1391 C   0  0  0  0  0  0  0  0  0  0  0  0
    3.6492   -2.8305    0.7297 H   0  0  0  0  0  0  0  0  0  0  0  0
    3.6815   -2.4892   -1.0460 H   0  0  0  0  0  0  0  0  0  0  0  0
    2.2678   -3.3325   -0.3052 H   0  0  0  0  0  0  0  0  0  0  0  0
    1.9297    1.1653    0.7167 O   0  0  0  0  0  0  0  0  0  0  0  0
    3.2997    1.4691    0.8735 C   0  0  0  0  0  0  0  0  0  0  0  0
    3.9513    0.5962    0.6520 H   0  0  0  0  0  0  0  0  0  0  0  0
    3.6032    2.3253    0.2239 H   0  0  0  0  0  0  0  0  0  0  0  0
    3.4432    1.7609    1.9316 H   0  0  0  0  0  0  0  0  0  0  0  0
  1 12  1  0  0  0  0
  1  2  1  6  0  0  0
  3  1  1  0  0  0  0
  4  3  1  0  0  0  0
  5  3  1  0  0  0  0
  5  7  1  0  0  0  0
  6  5  1  0  0  0  0
  7  8  1  0  0  0  0
  7  9  1  0  0  0  0
  9 10  1  6  0  0  0
  9 12  1  0  0  0  0
  9 11  1  0  0  0  0
 12 13  1  6  0  0  0
 12 18  1  0  0  0  0
 14 11  1  0  0  0  0
 14 15  1  0  0  0  0
 16 14  1  0  0  0  0
 17 14  1  0  0  0  0
 18 19  1  0  0  0  0
 19 22  1  0  0  0  0
 20 19  1  0  0  0  0
 21 19  1  0  0  0  0
M  END
