2
q = -1.0, confidence = 0.0

 40 42  0  0  1  0  0  0  0  0999 V2000
   -1.6081    3.1234    1.7260 N   0  0  0  0  0  0  0  0  0  0  0  0
   -1.3751    1.9799   -0.6509 C   0  0  0  0  0  3  0  0  0  0  0  0
   -1.8055    0.9617   -1.5332 C   0  0  0  0  0  0  0  0  0  0  0  0
   -2.4492   -0.2132   -1.0239 C   0  0  0  0  0  0  0  0  0  0  0  0
   -2.6301   -0.3746    0.3890 C   0  0  0  0  0  0  0  0  0  0  0  0
   -2.1894    0.5902    1.3161 C   0  0  0  0  0  0  0  0  0  0  0  0
   -1.6025    1.0926   -3.0235 C   0  0  0  0  0  0  0  0  0  0  0  0
   -3.1039   -1.2230   -1.9453 C   0  0  0  0  0  0  0  0  0  0  0  0
   -3.8570   -2.2989   -1.1514 C   0  0  1  0  0  0  0  0  0  0  0  0
   -2.9144   -2.8349   -0.0449 C   0  0  0  0  0  0  0  0  0  0  0  0
   -3.3782   -1.6193    0.8041 C   0  0  2  0  0  0  0  0  0  0  0  0
   -4.7374   -1.6655   -0.0137 C   0  0  0  0  0  0  0  0  0  0  0  0
   -5.7223   -2.6753    0.5867 C   0  0  0  0  0  0  0  0  0  0  0  0
   -5.4803   -0.3579   -0.2865 C   0  0  0  0  0  0  0  0  0  0  0  0
   -1.8190    3.0634    3.1565 C   0  0  0  0  0  0  0  0  0  0  0  0
   -1.3657    4.4673    1.2502 C   0  0  0  0  0  0  0  0  0  0  0  0
   -1.7355    1.9839    0.8560 B   0  0  0  0  0  0  0  0  0  0  0  0
   -0.8461    2.8111   -1.1427 H   0  0  0  0  0  0  0  0  0  0  0  0
   -2.3198    0.2965    2.3714 H   0  0  0  0  0  0  0  0  0  0  0  0
   -1.1690    0.1720   -3.4604 H   0  0  0  0  0  0  0  0  0  0  0  0
   -2.5788    1.2642   -3.5250 H   0  0  0  0  0  0  0  0  0  0  0  0
   -0.9406    1.9459   -3.2606 H   0  0  0  0  0  0  0  0  0  0  0  0
   -2.3342   -1.7037   -2.5882 H   0  0  0  0  0  0  0  0  0  0  0  0
   -3.7954   -0.6868   -2.6326 H   0  0  0  0  0  0  0  0  0  0  0  0
   -4.3521   -3.0243   -1.8303 H   0  0  0  0  0  0  0  0  0  0  0  0
   -1.8368   -2.9057   -0.2807 H   0  0  0  0  0  0  0  0  0  0  0  0
   -3.2529   -3.7935    0.3876 H   0  0  0  0  0  0  0  0  0  0  0  0
   -3.4286   -1.7145    1.9060 H   0  0  0  0  0  0  0  0  0  0  0  0
   -5.2568   -3.6527    0.8163 H   0  0  0  0  0  0  0  0  0  0  0  0
   -6.5594   -2.8601   -0.1187 H   0  0  0  0  0  0  0  0  0  0  0  0
   -6.1586   -2.2808    1.5278 H   0  0  0  0  0  0  0  0  0  0  0  0
   -6.3136   -0.5307   -0.9995 H   0  0  0  0  0  0  0  0  0  0  0  0
   -5.9229    0.0384    0.6511 H   0  0  0  0  0  0  0  0  0  0  0  0
   -4.8336    0.4360   -0.7052 H   0  0  0  0  0  0  0  0  0  0  0  0
   -0.9426    3.4703    3.7159 H   0  0  0  0  0  0  0  0  0  0  0  0
   -2.7053    3.6646    3.4715 H   0  0  0  0  0  0  0  0  0  0  0  0
   -1.9765    2.0232    3.4929 H   0  0  0  0  0  0  0  0  0  0  0  0
   -0.4194    4.8980    1.6602 H   0  0  0  0  0  0  0  0  0  0  0  0
   -2.1870    5.1575    1.5573 H   0  0  0  0  0  0  0  0  0  0  0  0
   -1.3011    4.4916    0.1480 H   0  0  0  0  0  0  0  0  0  0  0  0
  1 15  1  0  0  0  0
  2 17  1  0  0  0  0
  3  4  2  0  0  0  0
  3  2  1  0  0  0  0
  4  5  1  0  0  0  0
  5 11  1  0  0  0  0
  5  6  2  0  0  0  0
  6 19  1  0  0  0  0
  7  3  1  0  0  0  0
  8  9  1  0  0  0  0
  8  4  1  0  0  0  0
  9 25  1  6  0  0  0
  9 10  1  0  0  0  0
  9 12  1  0  0  0  0
 10 27  1  0  0  0  0
 10 11  1  0  0  0  0
 11 28  1  1  0  0  0
 12 13  1  0  0  0  0
 12 11  1  0  0  0  0
 13 29  1  0  0  0  0
 13 31  1  0  0  0  0
 14 12  1  0  0  0  0
 14 33  1  0  0  0  0
 15 36  1  0  0  0  0
 15 37  1  0  0  0  0
 15 35  1  0  0  0  0
 16 39  1  0  0  0  0
 16 38  1  0  0  0  0
 16  1  1  0  0  0  0
 17  6  1  0  0  0  0
 17  1  1  0  0  0  0
 18  2  1  0  0  0  0
 20  7  1  0  0  0  0
 21  7  1  0  0  0  0
 22  7  1  0  0  0  0
 23  8  1  0  0  0  0
 24  8  1  0  0  0  0
 26 10  1  0  0  0  0
 30 13  1  0  0  0  0
 32 14  1  0  0  0  0
 34 14  1  0  0  0  0
 40 16  1  0  0  0  0
M  END
