20
q = 0.0, confidence = 0.968

 57 58  0  0  1  0  0  0  0  0999 V2000
    0.8755   -0.5555   -2.2627 O   0  0  0  0  0  0  0  0  0  0  0  0
    0.4261   -2.1032   -0.5510 O   0  0  0  0  0  0  0  0  0  0  0  0
    3.1097   -2.4132    0.0020 O   0  0  0  0  0  0  0  0  0  0  0  0
    3.7564    0.2595    0.5476 O   0  0  0  0  0  0  0  0  0  0  0  0
    1.2770    1.9887    0.3168 O   0  0  0  0  0  0  0  0  0  0  0  0
   -1.0198    2.4284   -1.7178 O   0  0  0  0  0  0  0  0  0  0  0  0
    3.8430   -3.5002   -1.8529 O   0  0  0  0  0  0  0  0  0  0  0  0
    2.9918    0.5686    2.6720 O   0  0  0  0  0  0  0  0  0  0  0  0
    3.2182    3.1803    0.2599 O   0  0  0  0  0  0  0  0  0  0  0  0
    0.3980    4.2061   -1.5928 O   0  0  0  0  0  0  0  0  0  0  0  0
   -1.8621   -2.4436    0.0420 C   0  0  0  0  0  0  0  0  0  0  0  0
   -1.5297   -1.9523    1.3294 C   0  0  0  0  0  0  0  0  0  0  0  0
   -0.4907   -1.6621    1.5296 H   0  0  0  0  0  0  0  0  0  0  0  0
   -2.5403   -1.7894    2.3289 C   0  0  0  0  0  0  0  0  0  0  0  0
   -2.2738   -1.3618    3.3051 H   0  0  0  0  0  0  0  0  0  0  0  0
   -3.8843   -2.1236    2.0421 C   0  0  0  0  0  0  0  0  0  0  0  0
   -4.6681   -1.9578    2.7938 H   0  0  0  0  0  0  0  0  0  0  0  0
   -4.2298   -2.6197    0.7454 C   0  0  0  0  0  3  0  0  0  0  0  0
   -5.2788   -2.8344    0.4999 H   0  0  0  0  0  0  0  0  0  0  0  0
   -3.2307   -2.7687   -0.2457 C   0  0  0  0  0  3  0  0  0  0  0  0
   -3.5100   -3.1024   -1.2558 H   0  0  0  0  0  0  0  0  0  0  0  0
   -0.8058   -2.6129   -1.0253 C   0  0  0  0  0  0  0  0  0  0  0  0
   -0.7042   -3.6990   -1.2697 H   0  0  0  0  0  0  0  0  0  0  0  0
   -1.1228   -2.0883   -1.9538 H   0  0  0  0  0  0  0  0  0  0  0  0
    1.3334   -1.6767   -1.5417 C   0  0  2  0  0  0  0  0  0  0  0  0
    1.5067   -2.4656   -2.3050 H   0  0  0  0  0  0  0  0  0  0  0  0
    2.6437   -1.3327   -0.8177 C   0  0  1  0  0  0  0  0  0  0  0  0
    3.3997   -1.1083   -1.5977 H   0  0  0  0  0  0  0  0  0  0  0  0
    2.4519   -0.1334    0.1014 C   0  0  2  0  0  0  0  0  0  0  0  0
    1.8390   -0.4146    0.9821 H   0  0  0  0  0  0  0  0  0  0  0  0
    1.7734    1.0339   -0.6325 C   0  0  1  0  0  0  0  0  0  0  0  0
    2.5225    1.5235   -1.2905 H   0  0  0  0  0  0  0  0  0  0  0  0
    0.5443    0.5704   -1.4330 C   0  0  1  0  0  0  0  0  0  0  0  0
   -0.2486    0.2805   -0.7088 H   0  0  0  0  0  0  0  0  0  0  0  0
   -0.0338    1.6282   -2.3794 C   0  0  0  0  0  0  0  0  0  0  0  0
    0.7568    2.2798   -2.8013 H   0  0  0  0  0  0  0  0  0  0  0  0
   -0.5625    1.0897   -3.1881 H   0  0  0  0  0  0  0  0  0  0  0  0
    3.7247   -3.4439   -0.6441 C   0  0  0  0  0  0  0  0  0  0  0  0
    4.2182   -4.4662    0.3486 C   0  0  0  0  0  0  0  0  0  0  0  0
    3.3828   -4.8044    0.9926 H   0  0  0  0  0  0  0  0  0  0  0  0
    4.9733   -4.0059    1.0166 H   0  0  0  0  0  0  0  0  0  0  0  0
    4.6611   -5.3221   -0.1883 H   0  0  0  0  0  0  0  0  0  0  0  0
    3.8885    0.6370    1.8549 C   0  0  0  0  0  0  0  0  0  0  0  0
    5.2680    1.1895    2.0909 C   0  0  0  0  0  0  0  0  0  0  0  0
    5.2908    2.2060    1.6461 H   0  0  0  0  0  0  0  0  0  0  0  0
    6.0363    0.5835    1.5750 H   0  0  0  0  0  0  0  0  0  0  0  0
    5.4701    1.2525    3.1740 H   0  0  0  0  0  0  0  0  0  0  0  0
    2.0810    3.0426    0.6622 C   0  0  0  0  0  0  0  0  0  0  0  0
    1.3438    3.9813    1.5792 C   0  0  0  0  0  0  0  0  0  0  0  0
    0.9497    4.8091    0.9553 H   0  0  0  0  0  0  0  0  0  0  0  0
    2.0494    4.4070    2.3153 H   0  0  0  0  0  0  0  0  0  0  0  0
    0.5005    3.4743    2.0813 H   0  0  0  0  0  0  0  0  0  0  0  0
   -0.6873    3.7016   -1.3699 C   0  0  0  0  0  0  0  0  0  0  0  0
   -1.8357    4.3645   -0.6550 C   0  0  0  0  0  0  0  0  0  0  0  0
   -2.8013    4.1003   -1.1257 H   0  0  0  0  0  0  0  0  0  0  0  0
   -1.6867    5.4581   -0.6448 H   0  0  0  0  0  0  0  0  0  0  0  0
   -1.8651    3.9835    0.3859 H   0  0  0  0  0  0  0  0  0  0  0  0
  1 25  1  0  0  0  0
  1 33  1  0  0  0  0
  4 43  1  0  0  0  0
  5 48  1  0  0  0  0
  6 53  1  0  0  0  0
  7 38  2  0  0  0  0
  9 48  2  0  0  0  0
 10 53  2  0  0  0  0
 11 12  2  0  0  0  0
 12 13  1  0  0  0  0
 12 14  1  0  0  0  0
 14 15  1  0  0  0  0
 16 14  2  0  0  0  0
 16 17  1  0  0  0  0
 18 16  1  0  0  0  0
 19 18  1  0  0  0  0
 20 11  1  0  0  0  0
 20 18  1  0  0  0  0
 21 20  1  0  0  0  0
 22  2  1  0  0  0  0
 22 11  1  0  0  0  0
 23 22  1  0  0  0  0
 24 22  1  0  0  0  0
 25 26  1  6  0  0  0
 25 27  1  0  0  0  0
 25  2  1  0  0  0  0
 27 28  1  6  0  0  0
 27  3  1  0  0  0  0
 27 29  1  0  0  0  0
 29  4  1  0  0  0  0
 29 30  1  1  0  0  0
 31 32  1  6  0  0  0
 31 29  1  0  0  0  0
 31  5  1  0  0  0  0
 33 34  1  1  0  0  0
 33 31  1  0  0  0  0
 35  6  1  0  0  0  0
 35 33  1  0  0  0  0
 36 35  1  0  0  0  0
 37 35  1  0  0  0  0
 38  3  1  0  0  0  0
 38 39  1  0  0  0  0
 39 40  1  0  0  0  0
 39 41  1  0  0  0  0
 42 39  1  0  0  0  0
 43 44  1  0  0  0  0
 43  8  2  0  0  0  0
 44 47  1  0  0  0  0
 45 44  1  0  0  0  0
 46 44  1  0  0  0  0
 48 49  1  0  0  0  0
 49 52  1  0  0  0  0
 49 51  1  0  0  0  0
 50 49  1  0  0  0  0
 53 54  1  0  0  0  0
 54 56  1  0  0  0  0
 54 57  1  0  0  0  0
 55 54  1  0  0  0  0
M  END
