8
q = 0.0, confidence = 1.0

 22 22  0  0  1  0  0  0  0  0999 V2000
   -0.2048    2.6252   -1.6100 O   0  0  0  0  0  0  0  0  0  0  0  0
   -3.0987    1.2005    1.1323 O   0  0  0  0  0  0  0  0  0  0  0  0
   -2.4344   -0.9535   -0.7861 O   0  0  0  0  0  0  0  0  0  0  0  0
   -2.8329   -2.3511    0.9716 O   0  0  0  0  0  0  0  0  0  0  0  0
   -1.3162    1.0396   -0.2661 N   0  0  0  0  0  0  0  0  0  0  0  0
   -0.3190    1.4907   -1.1829 C   0  0  0  0  0  0  0  0  0  0  0  0
    0.5143    0.2890   -1.4982 C   0  0  0  0  0  3  0  0  0  0  0  0
   -0.0215   -0.8350   -0.8010 C   0  0  0  0  0  3  0  0  0  0  0  0
   -1.2978   -0.4036   -0.0959 C   0  0  2  0  0  0  0  0  0  0  0  0
   -2.2906    1.7914    0.4304 C   0  0  0  0  0  0  0  0  0  0  0  0
   -2.2550    3.2886    0.2649 C   0  0  0  0  0  0  0  0  0  0  0  0
   -3.1853   -1.8636   -0.0809 C   0  0  0  0  0  0  0  0  0  0  0  0
   -4.4823   -2.1303   -0.7977 C   0  0  0  0  0  0  0  0  0  0  0  0
    1.0345    0.2750   -2.4659 H   0  0  0  0  0  0  0  0  0  0  0  0
   -0.0082   -1.8660   -1.1819 H   0  0  0  0  0  0  0  0  0  0  0  0
   -1.3856   -0.6964    0.9684 H   0  0  0  0  0  0  0  0  0  0  0  0
   -1.2773    3.6948    0.5917 H   0  0  0  0  0  0  0  0  0  0  0  0
   -3.0718    3.7153    0.8725 H   0  0  0  0  0  0  0  0  0  0  0  0
   -2.3568    3.5754   -0.7990 H   0  0  0  0  0  0  0  0  0  0  0  0
   -4.3274   -2.1995   -1.8908 H   0  0  0  0  0  0  0  0  0  0  0  0
   -5.1618   -1.2732   -0.6121 H   0  0  0  0  0  0  0  0  0  0  0  0
   -4.9452   -3.0512   -0.4033 H   0  0  0  0  0  0  0  0  0  0  0  0
  1  6  2  0  0  0  0
  3  9  1  0  0  0  0
  3 12  1  0  0  0  0
  5  9  1  0  0  0  0
  5 10  1  0  0  0  0
  6  5  1  0  0  0  0
  7  6  1  0  0  0  0
  7  8  1  0  0  0  0
  8  9  1  0  0  0  0
  9 16  1  1  0  0  0
 10  2  2  0  0  0  0
 11 10  1  0  0  0  0
 11 17  1  0  0  0  0
 11 18  1  0  0  0  0
 12  4  2  0  0  0  0
 13 21  1  0  0  0  0
 13 22  1  0  0  0  0
 13 12  1  0  0  0  0
 14  7  1  0  0  0  0
 15  8  1  0  0  0  0
 19 11  1  0  0  0  0
 20 13  1  0  0  0  0
M  END
