1
q = -1.0, confidence = 0.056

 48 47  0  0  1  0  0  0  0  0999 V2000
    2.3769    0.1544    0.7942 C   0  0  0  0  0  3  0  0  0  0  0  0
    1.0276    0.9160    0.9057 C   0  0  1  0  0  0  0  0  0  0  0  0
    1.0059    1.6482    0.0719 H   0  0  0  0  0  0  0  0  0  0  0  0
   -0.1888   -0.0071    0.7409 C   0  0  2  0  0  0  0  0  0  0  0  0
   -0.0877   -0.6346   -0.1652 H   0  0  0  0  0  0  0  0  0  0  0  0
   -1.4864    0.8241    0.6311 C   0  0  2  0  0  0  0  0  0  0  0  0
   -1.4306    1.6814    1.3330 H   0  0  0  0  0  0  0  0  0  0  0  0
   -2.7404    0.0164    0.9341 C   0  0  1  0  0  0  0  0  0  0  0  0
   -2.6486   -0.3759    1.9685 H   0  0  0  0  0  0  0  0  0  0  0  0
   -4.0547    0.7968    0.8743 C   0  0  0  0  0  0  0  0  0  0  0  0
   -4.8758    0.1426    1.2287 H   0  0  0  0  0  0  0  0  0  0  0  0
   -3.9868    1.6956    1.5174 H   0  0  0  0  0  0  0  0  0  0  0  0
    3.0723    0.0300    1.7782 O   0  0  0  0  0  0  0  0  0  0  0  0
    0.8740    1.5468    2.1654 O   0  0  0  0  0  0  0  0  0  0  0  0
   -0.2682   -0.8568    1.8960 O   0  0  0  0  0  0  0  0  0  0  0  0
   -1.5558    1.3199   -0.7194 O   0  0  0  0  0  0  0  0  0  0  0  0
   -2.7947   -1.0895    0.0176 O   0  0  0  0  0  0  0  0  0  0  0  0
   -4.3538    1.2665   -0.4487 O   0  0  0  0  0  0  0  0  0  0  0  0
    1.5198    2.7243    2.4860 C   0  0  0  0  0  0  0  0  0  0  0  0
    1.4235    3.1273    3.6205 O   0  0  0  0  0  0  0  0  0  0  0  0
    2.2436    3.4454    1.3713 C   0  0  0  0  0  0  0  0  0  0  0  0
    2.7075    4.3514    1.7969 H   0  0  0  0  0  0  0  0  0  0  0  0
    1.5172    3.7407    0.5864 H   0  0  0  0  0  0  0  0  0  0  0  0
    3.0304    2.8208    0.9062 H   0  0  0  0  0  0  0  0  0  0  0  0
   -0.2413   -2.2086    1.7101 C   0  0  0  0  0  0  0  0  0  0  0  0
   -0.1099   -2.7413    0.6218 O   0  0  0  0  0  0  0  0  0  0  0  0
   -0.4447   -2.9230    3.0163 C   0  0  0  0  0  0  0  0  0  0  0  0
   -1.5406   -3.0193    3.1671 H   0  0  0  0  0  0  0  0  0  0  0  0
   -0.0238   -2.3473    3.8604 H   0  0  0  0  0  0  0  0  0  0  0  0
   -0.0086   -3.9358    2.9597 H   0  0  0  0  0  0  0  0  0  0  0  0
   -1.2896    2.6386   -0.9354 C   0  0  0  0  0  0  0  0  0  0  0  0
   -0.8779    3.3934   -0.0731 O   0  0  0  0  0  0  0  0  0  0  0  0
   -1.5722    2.9969   -2.3695 C   0  0  0  0  0  0  0  0  0  0  0  0
   -2.6536    2.8593   -2.5681 H   0  0  0  0  0  0  0  0  0  0  0  0
   -1.0184    2.3109   -3.0390 H   0  0  0  0  0  0  0  0  0  0  0  0
   -1.2822    4.0444   -2.5582 H   0  0  0  0  0  0  0  0  0  0  0  0
   -3.2491   -2.2787    0.5179 C   0  0  0  0  0  0  0  0  0  0  0  0
   -3.4825   -2.4548    1.6993 O   0  0  0  0  0  0  0  0  0  0  0  0
   -3.4215   -3.2792   -0.5877 C   0  0  0  0  0  0  0  0  0  0  0  0
   -2.5244   -3.2909   -1.2349 H   0  0  0  0  0  0  0  0  0  0  0  0
   -4.2885   -2.9595   -1.2015 H   0  0  0  0  0  0  0  0  0  0  0  0
   -3.6101   -4.2792   -0.1619 H   0  0  0  0  0  0  0  0  0  0  0  0
   -5.0811    0.4336   -1.2471 C   0  0  0  0  0  0  0  0  0  0  0  0
   -5.5719   -0.6141   -0.8730 O   0  0  0  0  0  0  0  0  0  0  0  0
   -5.1630    0.9912   -2.6459 C   0  0  0  0  0  0  0  0  0  0  0  0
   -4.1879    0.8223   -3.1477 H   0  0  0  0  0  0  0  0  0  0  0  0
   -5.3464    2.0824   -2.6306 H   0  0  0  0  0  0  0  0  0  0  0  0
   -5.9545    0.4692   -3.2108 H   0  0  0  0  0  0  0  0  0  0  0  0
  1  2  1  0  0  0  0
  1 13  2  0  0  0  0
  2  3  1  6  0  0  0
  2 14  1  0  0  0  0
  4  5  1  6  0  0  0
  4  2  1  0  0  0  0
  4 15  1  0  0  0  0
  6  4  1  0  0  0  0
  6  8  1  0  0  0  0
  6  7  1  1  0  0  0
  8  9  1  1  0  0  0
 10  8  1  0  0  0  0
 10 11  1  0  0  0  0
 10 12  1  0  0  0  0
 14 19  1  0  0  0  0
 16  6  1  0  0  0  0
 17 37  1  0  0  0  0
 17  8  1  0  0  0  0
 18 10  1  0  0  0  0
 19 20  2  0  0  0  0
 21 22  1  0  0  0  0
 21 19  1  0  0  0  0
 23 21  1  0  0  0  0
 24 21  1  0  0  0  0
 25 15  1  0  0  0  0
 25 27  1  0  0  0  0
 26 25  2  0  0  0  0
 27 28  1  0  0  0  0
 27 29  1  0  0  0  0
 30 27  1  0  0  0  0
 31 16  1  0  0  0  0
 31 32  2  0  0  0  0
 33 31  1  0  0  0  0
 34 33  1  0  0  0  0
 35 33  1  0  0  0  0
 36 33  1  0  0  0  0
 37 38  2  0  0  0  0
 39 42  1  0  0  0  0
 39 37  1  0  0  0  0
 40 39  1  0  0  0  0
 41 39  1  0  0  0  0
 43 44  2  0  0  0  0
 43 18  1  0  0  0  0
 45 47  1  0  0  0  0
 45 43  1  0  0  0  0
 46 45  1  0  0  0  0
 48 45  1  0  0  0  0
M  END
