9
q = -1.0, confidence = 0.0

 12 12  0  0  0  0  0  0  0  0999 V2000
    2.6997    1.0714    0.0893 Cl  0  0  0  0  0  0  0  0  0  0  0  0
    1.9248   -1.9760    0.6369 N   0  0  0  0  0  0  0  0  0  0  0  0
    2.4778   -1.4124    1.2874 H   0  0  0  0  0  0  0  0  0  0  0  0
    1.4578   -2.7687    1.0790 H   0  0  0  0  0  0  0  0  0  0  0  0
    1.4256    0.1251   -0.6046 C   0  0  0  0  0  0  0  0  0  0  0  0
    1.1936   -1.2558   -0.2678 C   0  0  0  0  0  0  0  0  0  0  0  0
    0.1044   -1.7027   -1.0929 C   0  0  0  0  0  3  0  0  0  0  0  0
   -0.3317   -2.7077   -1.0775 H   0  0  0  0  0  0  0  0  0  0  0  0
   -0.2336   -0.6405   -2.0088 C   0  0  0  0  0  3  0  0  0  0  0  0
   -0.9875   -0.7005   -2.8022 H   0  0  0  0  0  0  0  0  0  0  0  0
    0.5806    0.4925   -1.7141 C   0  0  0  0  0  3  0  0  0  0  0  0
    0.5928    1.4587   -2.2292 H   0  0  0  0  0  0  0  0  0  0  0  0
  2  4  1  0  0  0  0
  2  3  1  0  0  0  0
  5  6  2  0  0  0  0
  5  1  1  0  0  0  0
  6  2  1  0  0  0  0
  7  8  1  0  0  0  0
  7  6  1  0  0  0  0
  9 11  1  0  0  0  0
  9  7  1  0  0  0  0
 10  9  1  0  0  0  0
 11  5  1  0  0  0  0
 12 11  1  0  0  0  0
M  END
