2
q = -1.0, confidence = 0.008

 16 15  0  0  0  0  0  0  0  0999 V2000
   -1.5524   -0.0045   -0.5469 N   0  0  0  0  0  0  0  0  0  0  0  0
   -0.9155   -0.0237   -1.6510 C   0  0  0  0  0  3  0  0  0  0  0  0
   -1.3943   -0.0488   -2.6571 H   0  0  0  0  0  0  0  0  0  0  0  0
   -2.9873   -0.0151   -0.2051 C   0  0  0  0  0  0  0  0  0  0  0  0
   -3.2223   -1.2836    0.6358 C   0  0  0  0  0  0  0  0  0  0  0  0
   -3.0311   -2.1941    0.0320 H   0  0  0  0  0  0  0  0  0  0  0  0
   -4.2720   -1.3169    0.9900 H   0  0  0  0  0  0  0  0  0  0  0  0
   -2.5421   -1.2854    1.5100 H   0  0  0  0  0  0  0  0  0  0  0  0
   -3.8592   -0.0152   -1.4656 C   0  0  0  0  0  0  0  0  0  0  0  0
   -3.6751    0.8862   -2.0854 H   0  0  0  0  0  0  0  0  0  0  0  0
   -4.9307   -0.0198   -1.1851 H   0  0  0  0  0  0  0  0  0  0  0  0
   -3.6694   -0.9119   -2.0906 H   0  0  0  0  0  0  0  0  0  0  0  0
   -3.2412    1.2396    0.6499 C   0  0  0  0  0  0  0  0  0  0  0  0
   -2.5516    1.2484    1.5166 H   0  0  0  0  0  0  0  0  0  0  0  0
   -4.2874    1.2467    1.0157 H   0  0  0  0  0  0  0  0  0  0  0  0
   -3.0780    2.1604    0.0535 H   0  0  0  0  0  0  0  0  0  0  0  0
  1  4  1  0  0  0  0
  2  1  2  0  0  0  0
  3  2  1  0  0  0  0
  4  5  1  0  0  0  0
  4 13  1  0  0  0  0
  5  7  1  0  0  0  0
  5  8  1  0  0  0  0
  6  5  1  0  0  0  0
  9 11  1  0  0  0  0
  9  4  1  0  0  0  0
 10  9  1  0  0  0  0
 12  9  1  0  0  0  0
 13 15  1  0  0  0  0
 13 14  1  0  0  0  0
 16 13  1  0  0  0  0
M  END
