3
q = 0.0, confidence = 0.97

 29 30  0  0  0  0  0  0  0  0999 V2000
   -0.0366   -2.1751    0.4151 C   0  0  0  0  0  0  0  0  0  0  0  0
   -0.6329   -2.8235    1.0854 H   0  0  0  0  0  0  0  0  0  0  0  0
    1.3763   -2.3197    0.2775 C   0  0  0  0  0  3  0  0  0  0  0  0
    1.9147   -3.0500    0.8988 H   0  0  0  0  0  0  0  0  0  0  0  0
    2.0255   -1.4199   -0.6354 C   0  0  0  0  0  3  0  0  0  0  0  0
    1.4312   -1.1523   -1.5236 H   0  0  0  0  0  0  0  0  0  0  0  0
    3.4836   -1.3323   -0.8190 C   0  0  0  0  0  0  0  0  0  0  0  0
    4.4180   -1.8253    0.1233 C   0  0  0  0  0  0  0  0  0  0  0  0
    4.0664   -2.3071    1.0472 H   0  0  0  0  0  0  0  0  0  0  0  0
    5.7957   -1.6894   -0.0912 C   0  0  0  0  0  0  0  0  0  0  0  0
    6.5021   -2.0760    0.6593 H   0  0  0  0  0  0  0  0  0  0  0  0
    6.2779   -1.0617   -1.2521 C   0  0  0  0  0  0  0  0  0  0  0  0
    7.3606   -0.9542   -1.4160 H   0  0  0  0  0  0  0  0  0  0  0  0
    5.3640   -0.5775   -2.2027 C   0  0  0  0  0  0  0  0  0  0  0  0
    5.7283   -0.0891   -3.1196 H   0  0  0  0  0  0  0  0  0  0  0  0
    3.9870   -0.7127   -1.9880 C   0  0  0  0  0  0  0  0  0  0  0  0
    3.2733   -0.3182   -2.7273 H   0  0  0  0  0  0  0  0  0  0  0  0
   -0.5900   -1.1474   -0.2864 N   0  0  0  0  0  0  0  0  0  0  0  0
   -1.9664   -0.9211   -0.2481 C   0  0  0  0  0  0  0  0  0  0  0  0
   -2.4803    0.3953   -0.1575 C   0  0  0  0  0  0  0  0  0  0  0  0
   -1.7828    1.2346   -0.0240 H   0  0  0  0  0  0  0  0  0  0  0  0
   -3.8585    0.6314   -0.1990 C   0  0  0  0  0  0  0  0  0  0  0  0
   -4.2448    1.6572   -0.1149 H   0  0  0  0  0  0  0  0  0  0  0  0
   -4.7495   -0.4460   -0.3332 C   0  0  0  0  0  0  0  0  0  0  0  0
   -6.6267   -0.1232   -0.3919 Br  0  0  0  0  0  0  0  0  0  0  0  0
   -4.2644   -1.7600   -0.4233 C   0  0  0  0  0  0  0  0  0  0  0  0
   -4.9647   -2.6003   -0.5333 H   0  0  0  0  0  0  0  0  0  0  0  0
   -2.8848   -1.9936   -0.3802 C   0  0  0  0  0  0  0  0  0  0  0  0
   -2.5078   -3.0222   -0.4835 H   0  0  0  0  0  0  0  0  0  0  0  0
  1  2  1  0  0  0  0
  3  1  1  0  0  0  0
  3  4  1  0  0  0  0
  5  3  1  0  0  0  0
  6  5  1  0  0  0  0
  7  5  1  0  0  0  0
  7  8  1  0  0  0  0
  8  9  1  0  0  0  0
 10  8  2  0  0  0  0
 10 11  1  0  0  0  0
 12 10  1  0  0  0  0
 13 12  1  0  0  0  0
 14 16  1  0  0  0  0
 14 12  2  0  0  0  0
 15 14  1  0  0  0  0
 16  7  2  0  0  0  0
 17 16  1  0  0  0  0
 18 19  1  0  0  0  0
 18  1  2  0  0  0  0
 19 20  1  0  0  0  0
 20 21  1  0  0  0  0
 22 20  2  0  0  0  0
 22 23  1  0  0  0  0
 24 22  1  0  0  0  0
 25 24  1  0  0  0  0
 26 28  1  0  0  0  0
 26 24  2  0  0  0  0
 27 26  1  0  0  0  0
 28 19  2  0  0  0  0
 29 28  1  0  0  0  0
M  END
