19
q = 0.0, confidence = 0.884

 50 53  0  0  1  0  0  0  0  0999 V2000
    0.0998    1.1466   -2.2742 O   0  0  0  0  0  0  0  0  0  0  0  0
    0.0556    0.6236   -1.1748 C   0  0  0  0  0  0  0  0  0  0  0  0
   -1.1500    0.1824   -0.3723 C   0  0  1  0  0  3  0  0  0  0  0  0
   -0.7319    0.0253    0.9978 C   0  0  2  0  0  3  0  0  0  0  0  0
   -1.5787    0.0484    2.2503 C   0  0  1  0  0  0  0  0  0  0  0  0
   -2.2703    0.9148    2.1298 H   0  0  0  0  0  0  0  0  0  0  0  0
   -2.3259   -1.1631    2.3303 O   0  0  0  0  0  0  0  0  0  0  0  0
   -3.0310   -1.0281    2.9892 H   0  0  0  0  0  0  0  0  0  0  0  0
   -0.6935    0.2811    3.4887 C   0  0  0  0  0  0  0  0  0  0  0  0
   -0.4158    1.3546    3.5361 H   0  0  0  0  0  0  0  0  0  0  0  0
   -1.2922    0.0559    4.3958 H   0  0  0  0  0  0  0  0  0  0  0  0
    0.5981   -0.5418    3.4573 C   0  0  0  0  0  0  0  0  0  0  0  0
    0.3683   -1.6187    3.3205 H   0  0  0  0  0  0  0  0  0  0  0  0
    1.1564   -0.4322    4.4081 H   0  0  0  0  0  0  0  0  0  0  0  0
    1.4959   -0.0574    2.3127 C   0  0  2  0  0  0  0  0  0  0  0  0
    2.3759   -0.7352    2.1991 H   0  0  0  0  0  0  0  0  0  0  0  0
    1.9158    1.2680    2.6160 O   0  0  0  0  0  0  0  0  0  0  0  0
    2.1671    1.7009    1.7685 H   0  0  0  0  0  0  0  0  0  0  0  0
    0.7031   -0.0401    1.0259 C   0  0  2  0  0  3  0  0  0  0  0  0
    1.1914    0.0909   -0.3255 C   0  0  2  0  0  3  0  0  0  0  0  0
    2.6089    0.1778   -0.7462 C   0  0  0  0  0  0  0  0  0  0  0  0
    3.2924   -0.8636   -1.3965 C   0  0  0  0  0  0  0  0  0  0  0  0
    2.7647   -1.8132   -1.5603 H   0  0  0  0  0  0  0  0  0  0  0  0
    4.6129   -0.7065   -1.8453 C   0  0  0  0  0  0  0  0  0  0  0  0
    5.1228   -1.5389   -2.3515 H   0  0  0  0  0  0  0  0  0  0  0  0
    5.2678    0.5158   -1.6529 C   0  0  0  0  0  0  0  0  0  0  0  0
    6.3008    0.6550   -2.0056 H   0  0  0  0  0  0  0  0  0  0  0  0
    4.6137    1.5775   -1.0067 C   0  0  0  0  0  0  0  0  0  0  0  0
    5.1384    2.5304   -0.8576 H   0  0  0  0  0  0  0  0  0  0  0  0
    3.2960    1.4059   -0.5529 C   0  0  0  0  0  0  0  0  0  0  0  0
    2.5871    2.3800    0.1122 O   0  0  0  0  0  0  0  0  0  0  0  0
    3.1092    3.7010    0.1497 C   0  0  0  0  0  0  0  0  0  0  0  0
    2.3402    4.3213    0.6456 H   0  0  0  0  0  0  0  0  0  0  0  0
    3.2880    4.0860   -0.8766 H   0  0  0  0  0  0  0  0  0  0  0  0
    4.0538    3.7571    0.7341 H   0  0  0  0  0  0  0  0  0  0  0  0
   -2.5363    0.3976   -0.8403 C   0  0  0  0  0  0  0  0  0  0  0  0
   -3.2510   -0.5405   -1.6012 C   0  0  0  0  0  0  0  0  0  0  0  0
   -2.7735   -1.5047   -1.8257 H   0  0  0  0  0  0  0  0  0  0  0  0
   -4.5440   -0.2667   -2.0746 C   0  0  0  0  0  0  0  0  0  0  0  0
   -5.0843   -1.0205   -2.6654 H   0  0  0  0  0  0  0  0  0  0  0  0
   -5.1327    0.9716   -1.7920 C   0  0  0  0  0  0  0  0  0  0  0  0
   -6.1447    1.2018   -2.1584 H   0  0  0  0  0  0  0  0  0  0  0  0
   -4.4391    1.9362   -1.0423 C   0  0  0  0  0  0  0  0  0  0  0  0
   -4.9120    2.9052   -0.8345 H   0  0  0  0  0  0  0  0  0  0  0  0
   -3.1450    1.6540   -0.5682 C   0  0  0  0  0  0  0  0  0  0  0  0
   -2.3910    2.5250    0.1671 O   0  0  0  0  0  0  0  0  0  0  0  0
   -2.8897    3.8290    0.3918 C   0  0  0  0  0  0  0  0  0  0  0  0
   -3.0788    4.3671   -0.5636 H   0  0  0  0  0  0  0  0  0  0  0  0
   -2.1095    4.3675    0.9613 H   0  0  0  0  0  0  0  0  0  0  0  0
   -3.8298    3.8196    0.9885 H   0  0  0  0  0  0  0  0  0  0  0  0
  1  2  2  0  0  0  0
  2  3  1  0  0  0  0
  2 20  1  0  0  0  0
  3 36  1  1  0  0  0
  3  4  1  0  0  0  0
  4 19  1  0  0  0  0
  4  5  1  0  0  0  0
  5  7  1  0  0  0  0
  5  9  1  0  0  0  0
  6  5  1  0  0  0  0
  7  8  1  0  0  0  0
  9 10  1  0  0  0  0
  9 11  1  0  0  0  0
 12  9  1  0  0  0  0
 12 14  1  0  0  0  0
 13 12  1  0  0  0  0
 15 17  1  0  0  0  0
 15 12  1  0  0  0  0
 16 15  1  0  0  0  0
 18 17  1  0  0  0  0
 19 15  1  0  0  0  0
 20 19  1  0  0  0  0
 21 30  1  0  0  0  0
 21 20  1  0  0  0  0
 22 21  2  0  0  0  0
 23 22  1  0  0  0  0
 24 26  2  0  0  0  0
 24 22  1  0  0  0  0
 25 24  1  0  0  0  0
 26 28  1  0  0  0  0
 27 26  1  0  0  0  0
 28 29  1  0  0  0  0
 28 30  2  0  0  0  0
 30 31  1  0  0  0  0
 31 32  1  0  0  0  0
 32 33  1  0  0  0  0
 32 35  1  0  0  0  0
 34 32  1  0  0  0  0
 36 45  1  0  0  0  0
 37 36  2  0  0  0  0
 38 37  1  0  0  0  0
 39 41  2  0  0  0  0
 39 37  1  0  0  0  0
 40 39  1  0  0  0  0
 41 43  1  0  0  0  0
 42 41  1  0  0  0  0
 43 44  1  0  0  0  0
 43 45  2  0  0  0  0
 45 46  1  0  0  0  0
 46 47  1  0  0  0  0
 47 49  1  0  0  0  0
 47 50  1  0  0  0  0
 48 47  1  0  0  0  0
M  END
