29
q = -2.0, confidence = 0.87

 36 38  0  0  1  0  0  0  0  0999 V2000
   -0.5264    1.4734   -0.1385 C   0  0  0  0  0  0  0  0  0  0  0  0
   -0.1913    1.4338    1.2488 C   0  0  0  0  0  3  0  0  0  0  0  0
   -0.8000    0.9854    2.0421 H   0  0  0  0  0  0  0  0  0  0  0  0
    1.0654    2.0924    1.4297 C   0  0  0  0  0  0  0  0  0  0  0  0
    1.5999    2.1982    2.3807 H   0  0  0  0  0  0  0  0  0  0  0  0
    1.5175    2.5345    0.1615 C   0  0  0  0  0  0  0  0  0  0  0  0
    2.4662    3.0415   -0.0457 H   0  0  0  0  0  0  0  0  0  0  0  0
    0.5501    2.1378   -0.8113 C   0  0  0  0  0  0  0  0  0  0  0  0
    0.6066    2.3260   -1.8912 H   0  0  0  0  0  0  0  0  0  0  0  0
   -1.7741    0.9071   -0.7904 C   0  0  2  0  0  0  0  0  0  0  0  0
   -1.6379    1.0496   -1.8866 H   0  0  0  0  0  0  0  0  0  0  0  0
   -2.9948    1.7138   -0.3926 C   0  0  0  0  0  0  0  0  0  0  0  0
   -2.7639    2.7526   -0.1010 H   0  0  0  0  0  0  0  0  0  0  0  0
   -4.2926    1.3457   -0.3779 C   0  0  0  0  0  0  0  0  0  0  0  0
   -5.0153    2.1115   -0.0450 H   0  0  0  0  0  0  0  0  0  0  0  0
   -4.8759   -0.0062   -0.7011 C   0  0  0  0  0  0  0  0  0  0  0  0
   -4.3341   -0.4849   -1.5399 H   0  0  0  0  0  0  0  0  0  0  0  0
   -5.9187    0.1216   -1.0578 H   0  0  0  0  0  0  0  0  0  0  0  0
   -4.9060   -0.9479    0.5240 C   0  0  0  0  0  0  0  0  0  0  0  0
   -5.3289   -1.9337    0.2189 H   0  0  0  0  0  0  0  0  0  0  0  0
   -5.6369   -0.5465    1.2598 H   0  0  0  0  0  0  0  0  0  0  0  0
   -3.6067   -1.1678    1.2552 C   0  0  0  0  0  0  0  0  0  0  0  0
   -3.7282   -1.4788    2.3079 H   0  0  0  0  0  0  0  0  0  0  0  0
   -2.3347   -1.0334    0.8249 C   0  0  0  0  0  0  0  0  0  0  0  0
   -1.5439   -1.2209    1.5705 H   0  0  0  0  0  0  0  0  0  0  0  0
   -1.8494   -0.6468   -0.5566 C   0  0  2  0  0  0  0  0  0  0  0  0
   -2.5519   -1.0609   -1.3062 H   0  0  0  0  0  0  0  0  0  0  0  0
   -0.4851   -1.2376   -0.8639 C   0  0  0  0  0  0  0  0  0  0  0  0
    0.3462   -0.8848   -1.9855 C   0  0  0  0  0  3  0  0  0  0  0  0
    0.0896   -0.1741   -2.7801 H   0  0  0  0  0  0  0  0  0  0  0  0
    1.5500   -1.6401   -1.9116 C   0  0  0  0  0  0  0  0  0  0  0  0
    2.3933   -1.5735   -2.6077 H   0  0  0  0  0  0  0  0  0  0  0  0
    1.4940   -2.4423   -0.7408 C   0  0  0  0  0  0  0  0  0  0  0  0
    2.2839   -3.1068   -0.3716 H   0  0  0  0  0  0  0  0  0  0  0  0
    0.2363   -2.2087   -0.1081 C   0  0  0  0  0  0  0  0  0  0  0  0
   -0.1004   -2.6784    0.8217 H   0  0  0  0  0  0  0  0  0  0  0  0
  1  2  1  0  0  0  0
  2  4  1  0  0  0  0
  2  3  1  0  0  0  0
  4  5  1  0  0  0  0
  6  4  2  0  0  0  0
  7  6  1  0  0  0  0
  8  1  2  0  0  0  0
  8  6  1  0  0  0  0
  9  8  1  0  0  0  0
 10 11  1  6  0  0  0
 10 26  1  0  0  0  0
 10 12  1  0  0  0  0
 10  1  1  0  0  0  0
 12 14  2  0  0  0  0
 12 13  1  0  0  0  0
 14 15  1  0  0  0  0
 16 14  1  0  0  0  0
 16 19  1  0  0  0  0
 17 16  1  0  0  0  0
 18 16  1  0  0  0  0
 19 22  1  0  0  0  0
 19 21  1  0  0  0  0
 20 19  1  0  0  0  0
 22 23  1  0  0  0  0
 24 22  2  0  0  0  0
 24 25  1  0  0  0  0
 26 27  1  6  0  0  0
 26 24  1  0  0  0  0
 28 26  1  0  0  0  0
 28 35  2  0  0  0  0
 29 31  1  0  0  0  0
 29 28  1  0  0  0  0
 30 29  1  0  0  0  0
 31 33  2  0  0  0  0
 32 31  1  0  0  0  0
 33 34  1  0  0  0  0
 33 35  1  0  0  0  0
 35 36  1  0  0  0  0
M  END
