2
q = -1.0, confidence = 0.042

  5  4  0  0  0  0  0  0  0  0999 V2000
   -4.6687    0.4925    0.3392 O   0  0  0  0  0  0  0  0  0  0  0  0
   -1.4731    1.8510    0.3307 C   0  0  0  0  0  3  0  0  0  0  0  0
   -2.7200    1.8164    0.3291 C   0  0  0  0  0  0  0  0  0  0  0  0
   -4.1307    1.6053    0.3504 C   0  0  0  0  0  0  0  0  0  0  0  0
   -4.7661    2.5391    0.3800 H   0  0  0  0  0  0  0  0  0  0  0  0
  1  4  2  0  0  0  0
  3  2  3  0  0  0  0
  3  4  1  0  0  0  0
  4  5  1  0  0  0  0
M  END
