3
q = 0.0, confidence = 0.984

 23 23  0  0  1  0  0  0  0  0999 V2000
    3.5652    0.4029    0.3581 O   0  0  0  0  0  0  0  0  0  0  0  0
    1.3472   -0.4434   -0.9238 N   0  0  0  0  0  0  0  0  0  0  0  0
    0.1948   -0.9633   -0.4966 C   0  0  0  0  0  2  0  0  0  0  0  0
    1.6351    0.9861   -1.0273 C   0  0  0  0  0  0  0  0  0  0  0  0
    2.8165    1.3589   -0.1678 C   0  0  1  0  0  3  0  0  0  0  0  0
    3.5474   -0.8864    0.0036 C   0  0  2  0  0  3  0  0  0  0  0  0
    2.6361   -1.1904   -1.1323 C   0  0  0  0  0  0  0  0  0  0  0  0
    3.0566    2.7466    0.3036 C   0  0  0  0  0  0  0  0  0  0  0  0
    4.1404   -1.8483    0.9690 C   0  0  0  0  0  0  0  0  0  0  0  0
    0.2163   -2.4760   -0.4147 C   0  0  0  0  0  0  0  0  0  0  0  0
    0.7472    1.5432   -0.6812 H   0  0  0  0  0  0  0  0  0  0  0  0
    1.7702    1.2593   -2.1020 H   0  0  0  0  0  0  0  0  0  0  0  0
    3.0515   -0.8123   -2.0965 H   0  0  0  0  0  0  0  0  0  0  0  0
    2.4664   -2.2724   -1.2397 H   0  0  0  0  0  0  0  0  0  0  0  0
    3.9466    2.7701    0.9606 H   0  0  0  0  0  0  0  0  0  0  0  0
    3.2355    3.4531   -0.5390 H   0  0  0  0  0  0  0  0  0  0  0  0
    2.1878    3.1442    0.8776 H   0  0  0  0  0  0  0  0  0  0  0  0
    4.9443   -1.3506    1.5477 H   0  0  0  0  0  0  0  0  0  0  0  0
    3.4088   -2.2503    1.7149 H   0  0  0  0  0  0  0  0  0  0  0  0
    4.5860   -2.7228    0.4507 H   0  0  0  0  0  0  0  0  0  0  0  0
   -0.7742   -2.8871   -0.1649 H   0  0  0  0  0  0  0  0  0  0  0  0
    0.5459   -2.9461   -1.3668 H   0  0  0  0  0  0  0  0  0  0  0  0
    0.9222   -2.8096    0.3776 H   0  0  0  0  0  0  0  0  0  0  0  0
  2  3  1  0  0  0  0
  3 10  1  0  0  0  0
  4  2  1  0  0  0  0
  4 11  1  0  0  0  0
  4  5  1  0  0  0  0
  5  8  1  1  0  0  0
  5  1  1  0  0  0  0
  6  1  1  0  0  0  0
  6  9  1  1  0  0  0
  7  2  1  0  0  0  0
  7  6  1  0  0  0  0
  8 17  1  0  0  0  0
  8 15  1  0  0  0  0
  9 18  1  0  0  0  0
  9 19  1  0  0  0  0
 10 21  1  0  0  0  0
 10 23  1  0  0  0  0
 12  4  1  0  0  0  0
 13  7  1  0  0  0  0
 14  7  1  0  0  0  0
 16  8  1  0  0  0  0
 20  9  1  0  0  0  0
 22 10  1  0  0  0  0
M  END
