1
q = 0.0, confidence = 0.964

 19 19  0  0  0  0  0  0  0  0999 V2000
   -0.8681    0.8798   -1.4374 C   0  0  0  0  0  3  0  0  0  0  0  0
   -3.0091    0.4662   -0.2909 C   0  0  0  0  0  0  0  0  0  0  0  0
    2.5743    1.8804   -0.0666 C   0  0  0  0  0  0  0  0  0  0  0  0
    0.4730    1.3188   -1.4145 C   0  0  0  0  0  0  0  0  0  0  0  0
    1.0926    1.6285   -0.1511 C   0  0  0  0  0  0  0  0  0  0  0  0
    0.2583    1.6544    0.9868 C   0  0  0  0  0  3  0  0  0  0  0  0
   -1.2239    1.8792    0.7900 C   0  0  0  0  0  0  0  0  0  0  0  0
   -1.3738    0.5432   -2.3529 H   0  0  0  0  0  0  0  0  0  0  0  0
   -3.1067   -0.3820   -0.9939 H   0  0  0  0  0  0  0  0  0  0  0  0
   -3.6814    1.2940   -0.6099 H   0  0  0  0  0  0  0  0  0  0  0  0
   -3.3145    0.1187    0.7139 H   0  0  0  0  0  0  0  0  0  0  0  0
    3.1359    1.3028   -0.8252 H   0  0  0  0  0  0  0  0  0  0  0  0
    2.9636    1.6030    0.9317 H   0  0  0  0  0  0  0  0  0  0  0  0
    2.7865    2.9593   -0.2253 H   0  0  0  0  0  0  0  0  0  0  0  0
    1.0607    1.2792   -2.3411 H   0  0  0  0  0  0  0  0  0  0  0  0
    0.6991    1.8260    1.9789 H   0  0  0  0  0  0  0  0  0  0  0  0
   -1.7842    1.6224    1.7093 H   0  0  0  0  0  0  0  0  0  0  0  0
   -1.5040    2.9213    0.4897 H   0  0  0  0  0  0  0  0  0  0  0  0
   -1.6185    0.8987   -0.2467 N   0  0  0  0  0  0  0  0  0  0  0  0
  1  4  1  0  0  0  0
  1 19  1  0  0  0  0
  2 19  1  0  0  0  0
  2 11  1  0  0  0  0
  3 13  1  0  0  0  0
  4  5  2  0  0  0  0
  5  3  1  0  0  0  0
  5  6  1  0  0  0  0
  6 16  1  0  0  0  0
  7  6  1  0  0  0  0
  7 17  1  0  0  0  0
  8  1  1  0  0  0  0
  9  2  1  0  0  0  0
 10  2  1  0  0  0  0
 12  3  1  0  0  0  0
 14  3  1  0  0  0  0
 15  4  1  0  0  0  0
 18  7  1  0  0  0  0
 19  7  1  0  0  0  0
M  END
