1
q = -1.0, confidence = 0.0

 14 14  0  0  0  0  0  0  0  0999 V2000
    0.0000    1.4983    0.7127 C   0  0  0  0  0  3  0  0  0  0  0  0
    0.0001    3.7717   -2.2192 F   0  0  0  0  0  0  0  0  0  0  0  0
   -1.0914    1.8954   -2.0950 F   0  0  0  0  0  0  0  0  0  0  0  0
    0.0000    3.9562    0.4542 C   0  0  0  0  0  0  0  0  0  0  0  0
    0.0000    4.8283   -0.2143 H   0  0  0  0  0  0  0  0  0  0  0  0
   -0.0000    3.0078    2.6735 C   0  0  0  0  0  0  0  0  0  0  0  0
   -0.0000    3.1257    3.7688 H   0  0  0  0  0  0  0  0  0  0  0  0
    0.0000    2.6615   -0.1072 C   0  0  0  0  0  0  0  0  0  0  0  0
    0.0000    4.1374    1.8414 C   0  0  0  0  0  0  0  0  0  0  0  0
   -0.0000    5.1519    2.2668 H   0  0  0  0  0  0  0  0  0  0  0  0
    0.0000    1.7216    2.1141 C   0  0  0  0  0  0  0  0  0  0  0  0
   -0.0000    0.8532    2.7895 H   0  0  0  0  0  0  0  0  0  0  0  0
   -0.0000    2.5578   -1.6140 C   0  0  0  0  0  0  0  0  0  0  0  0
    1.0913    1.8953   -2.0951 F   0  0  0  0  0  0  0  0  0  0  0  0
  1 11  1  0  0  0  0
  2 13  1  0  0  0  0
  3 13  1  0  0  0  0
  4  9  2  0  0  0  0
  5  4  1  0  0  0  0
  6  7  1  0  0  0  0
  8  4  1  0  0  0  0
  8  1  2  0  0  0  0
  9 10  1  0  0  0  0
  9  6  1  0  0  0  0
 11  6  2  0  0  0  0
 11 12  1  0  0  0  0
 13  8  1  0  0  0  0
 14 13  1  0  0  0  0
M  END
