42
q = 0.0, confidence = 0.966

 51 55  0  0  0  0  0  0  0  0999 V2000
   -1.4893   -2.4296   -0.1032 N   0  0  0  0  0  0  0  0  0  0  0  0
    3.9180   -0.7608   -0.1374 N   0  0  0  0  0  0  0  0  0  0  0  0
   -3.6536   -2.3690    0.0294 N   0  0  0  0  0  0  0  0  0  0  0  0
   -0.1200   -2.0201   -0.1054 C   0  0  0  0  0  0  0  0  0  0  0  0
    3.4864    0.5629   -1.9726 O   0  0  0  0  0  0  0  0  0  0  0  0
    1.7170   -0.8619    0.9589 C   0  0  0  0  0  0  0  0  0  0  0  0
    2.1234   -0.2817    1.7984 H   0  0  0  0  0  0  0  0  0  0  0  0
    4.3543   -2.0854    1.6954 O   0  0  0  0  0  0  0  0  0  0  0  0
    0.3820   -1.2791    0.9774 C   0  0  0  0  0  0  0  0  0  0  0  0
   -0.2786   -1.0303    1.8214 H   0  0  0  0  0  0  0  0  0  0  0  0
    6.1855   -0.8193    0.8355 C   0  0  0  0  0  0  0  0  0  0  0  0
    2.0384   -1.9429   -1.1994 C   0  0  0  0  0  0  0  0  0  0  0  0
    2.6885   -2.1840   -2.0512 H   0  0  0  0  0  0  0  0  0  0  0  0
   -1.9396   -3.7304   -0.3226 C   0  0  0  0  0  0  0  0  0  0  0  0
   -1.2478   -4.5633   -0.4736 H   0  0  0  0  0  0  0  0  0  0  0  0
   -5.0180   -1.8490    0.1165 C   0  0  0  0  0  0  0  0  0  0  0  0
   -4.9786   -0.9952    0.8232 H   0  0  0  0  0  0  0  0  0  0  0  0
   -5.6495   -2.6363    0.5774 H   0  0  0  0  0  0  0  0  0  0  0  0
    2.5441   -1.1947   -0.1254 C   0  0  0  0  0  0  0  0  0  0  0  0
    5.7189    0.6037   -1.1308 C   0  0  0  0  0  0  0  0  0  0  0  0
    0.6998   -2.3507   -1.1950 C   0  0  0  0  0  0  0  0  0  0  0  0
    0.2790   -2.8977   -2.0505 H   0  0  0  0  0  0  0  0  0  0  0  0
    8.4285   -0.8723    1.7885 C   0  0  0  0  0  0  0  0  0  0  0  0
    9.1229   -1.2606    2.5483 H   0  0  0  0  0  0  0  0  0  0  0  0
    4.2978    0.1629   -1.1477 C   0  0  0  0  0  0  0  0  0  0  0  0
    6.1568    1.5140   -2.0921 C   0  0  0  0  0  0  0  0  0  0  0  0
    5.4276    1.8740   -2.8329 H   0  0  0  0  0  0  0  0  0  0  0  0
   -5.5638   -1.4108   -1.2434 C   0  0  0  0  0  0  0  0  0  0  0  0
   -4.8298   -0.7127   -1.7025 H   0  0  0  0  0  0  0  0  0  0  0  0
   -5.6252   -2.2919   -1.9203 H   0  0  0  0  0  0  0  0  0  0  0  0
    6.6241    0.1083   -0.1508 C   0  0  0  0  0  0  0  0  0  0  0  0
    7.9931    0.5486   -0.1570 C   0  0  0  0  0  0  0  0  0  0  0  0
    7.5024    1.9517   -2.1023 C   0  0  0  0  0  0  0  0  0  0  0  0
    7.8340    2.6701   -2.8667 H   0  0  0  0  0  0  0  0  0  0  0  0
    7.0800   -1.3011    1.7906 C   0  0  0  0  0  0  0  0  0  0  0  0
    6.7035   -2.0165    2.5366 H   0  0  0  0  0  0  0  0  0  0  0  0
   -6.9325   -0.7355   -1.1328 C   0  0  0  0  0  0  0  0  0  0  0  0
   -6.8455    0.1405   -0.4522 H   0  0  0  0  0  0  0  0  0  0  0  0
   -7.6560   -1.4265   -0.6440 H   0  0  0  0  0  0  0  0  0  0  0  0
    8.4039    1.4793   -1.1551 C   0  0  0  0  0  0  0  0  0  0  0  0
    9.4511    1.8193   -1.1638 H   0  0  0  0  0  0  0  0  0  0  0  0
   -2.5460   -1.5830    0.0994 C   0  0  0  0  0  2  0  0  0  0  0  0
   -3.3062   -3.6875   -0.2395 C   0  0  0  0  0  0  0  0  0  0  0  0
   -4.0550   -4.4797   -0.3280 H   0  0  0  0  0  0  0  0  0  0  0  0
    4.7739   -1.2886    0.8656 C   0  0  0  0  0  0  0  0  0  0  0  0
    8.8776    0.0345    0.8352 C   0  0  0  0  0  0  0  0  0  0  0  0
    9.9268    0.3688    0.8344 H   0  0  0  0  0  0  0  0  0  0  0  0
   -7.4808   -0.2819   -2.4860 C   0  0  0  0  0  0  0  0  0  0  0  0
   -8.4655    0.2168   -2.3830 H   0  0  0  0  0  0  0  0  0  0  0  0
   -6.7883    0.4334   -2.9757 H   0  0  0  0  0  0  0  0  0  0  0  0
   -7.6103   -1.1408   -3.1772 H   0  0  0  0  0  0  0  0  0  0  0  0
  1 42  1  0  0  0  0
  2 19  1  0  0  0  0
  2 45  1  0  0  0  0
  3 42  1  0  0  0  0
  3 16  1  0  0  0  0
  4  1  1  0  0  0  0
  4  9  1  0  0  0  0
  5 25  2  0  0  0  0
  6  9  2  0  0  0  0
  6  7  1  0  0  0  0
  9 10  1  0  0  0  0
 11 45  1  0  0  0  0
 11 35  1  0  0  0  0
 12 21  1  0  0  0  0
 12 19  2  0  0  0  0
 13 12  1  0  0  0  0
 14 43  2  0  0  0  0
 14  1  1  0  0  0  0
 15 14  1  0  0  0  0
 16 18  1  0  0  0  0
 16 17  1  0  0  0  0
 19  6  1  0  0  0  0
 20 31  1  0  0  0  0
 21  4  2  0  0  0  0
 22 21  1  0  0  0  0
 23 35  2  0  0  0  0
 23 24  1  0  0  0  0
 25 20  1  0  0  0  0
 25  2  1  0  0  0  0
 26 20  2  0  0  0  0
 27 26  1  0  0  0  0
 28 37  1  0  0  0  0
 28 16  1  0  0  0  0
 29 28  1  0  0  0  0
 30 28  1  0  0  0  0
 31 11  2  0  0  0  0
 32 31  1  0  0  0  0
 32 46  2  0  0  0  0
 33 26  1  0  0  0  0
 33 40  2  0  0  0  0
 34 33  1  0  0  0  0
 35 36  1  0  0  0  0
 37 39  1  0  0  0  0
 37 38  1  0  0  0  0
 40 32  1  0  0  0  0
 41 40  1  0  0  0  0
 43  3  1  0  0  0  0
 44 43  1  0  0  0  0
 45  8  2  0  0  0  0
 46 23  1  0  0  0  0
 47 46  1  0  0  0  0
 48 49  1  0  0  0  0
 48 37  1  0  0  0  0
 50 48  1  0  0  0  0
 51 48  1  0  0  0  0
M  END
