2
q = 0.0, confidence = 0.884

 13 13  0  0  0  0  0  0  0  0999 V2000
    2.9355    2.1448    0.9765 Br  0  0  0  0  0  0  0  0  0  0  0  0
    1.8403    1.5154   -0.5436 C   0  0  0  0  0  2  0  0  0  0  0  0
    2.6131    0.7010   -1.4810 C   0  0  0  0  0  0  0  0  0  0  0  0
    4.0329    0.6586   -1.5768 C   0  0  0  0  0  0  0  0  0  0  0  0
    4.6734   -0.1276   -2.5421 C   0  0  0  0  0  0  0  0  0  0  0  0
    3.9290   -0.9166   -3.4364 C   0  0  0  0  0  0  0  0  0  0  0  0
    2.5219   -0.8926   -3.3579 C   0  0  0  0  0  0  0  0  0  0  0  0
    1.8772   -0.0914   -2.4132 C   0  0  0  0  0  0  0  0  0  0  0  0
    4.6214    1.2550   -0.8641 H   0  0  0  0  0  0  0  0  0  0  0  0
    5.7747   -0.1334   -2.5913 H   0  0  0  0  0  0  0  0  0  0  0  0
    4.4368   -1.5389   -4.1898 H   0  0  0  0  0  0  0  0  0  0  0  0
    1.9203   -1.5017   -4.0521 H   0  0  0  0  0  0  0  0  0  0  0  0
    0.7778   -0.0655   -2.3487 H   0  0  0  0  0  0  0  0  0  0  0  0
  2  1  1  0  0  0  0
  3  2  1  0  0  0  0
  4  3  1  0  0  0  0
  4  9  1  0  0  0  0
  5  4  2  0  0  0  0
  6  7  2  0  0  0  0
  6  5  1  0  0  0  0
  7  8  1  0  0  0  0
  8 13  1  0  0  0  0
  8  3  2  0  0  0  0
 10  5  1  0  0  0  0
 11  6  1  0  0  0  0
 12  7  1  0  0  0  0
M  END
