10
q = 0.0, confidence = 0.974

 41 42  0  0  1  0  0  0  0  0999 V2000
   -3.1997    1.5731    0.1354 N   0  0  0  0  0  0  0  0  0  0  0  0
   -1.9806   -0.5494   -0.1462 C   0  0  0  0  0  0  0  0  0  0  0  0
   -3.2094    0.1559    0.0268 C   0  0  0  0  0  0  0  0  0  0  0  0
   -4.4147   -0.5769    0.1205 C   0  0  0  0  0  0  0  0  0  0  0  0
   -4.4260   -1.9736    0.0072 C   0  0  0  0  0  0  0  0  0  0  0  0
   -3.2280   -2.6662   -0.2155 C   0  0  0  0  0  0  0  0  0  0  0  0
   -2.0242   -1.9490   -0.2833 C   0  0  0  0  0  0  0  0  0  0  0  0
   -0.6422    0.1849   -0.0591 C   0  0  2  0  0  0  0  0  0  0  0  0
    0.3736   -0.0642   -1.1763 C   0  0  1  0  0  3  0  0  0  0  0  0
    1.1470   -1.2437   -0.8376 C   0  0  1  0  0  3  0  0  0  0  0  0
    1.0787   -1.3852    0.5968 C   0  0  1  0  0  3  0  0  0  0  0  0
    0.2661   -0.2884    1.0814 C   0  0  2  0  0  3  0  0  0  0  0  0
    0.1638    0.4365   -2.5730 C   0  0  0  0  0  0  0  0  0  0  0  0
    1.7881   -2.2052   -1.7904 C   0  0  0  0  0  0  0  0  0  0  0  0
    1.6305   -2.5202    1.4024 C   0  0  0  0  0  0  0  0  0  0  0  0
   -0.1039   -0.0629    2.5145 C   0  0  0  0  0  0  0  0  0  0  0  0
   -4.2574    2.1896    0.9111 C   0  0  0  0  0  0  0  0  0  0  0  0
   -2.9189    2.3030   -1.0949 C   0  0  0  0  0  0  0  0  0  0  0  0
   -0.8638    1.2600    0.0649 H   0  0  0  0  0  0  0  0  0  0  0  0
   -5.3632   -0.0409    0.2660 H   0  0  0  0  0  0  0  0  0  0  0  0
   -3.9711    3.2355    1.1475 H   0  0  0  0  0  0  0  0  0  0  0  0
   -3.2261   -3.7615   -0.3204 H   0  0  0  0  0  0  0  0  0  0  0  0
   -3.8175    2.3712   -1.7601 H   0  0  0  0  0  0  0  0  0  0  0  0
   -4.3984    1.6463    1.8654 H   0  0  0  0  0  0  0  0  0  0  0  0
   -1.0802   -2.4980   -0.4188 H   0  0  0  0  0  0  0  0  0  0  0  0
   -2.1181    1.8054   -1.6699 H   0  0  0  0  0  0  0  0  0  0  0  0
   -2.5848    3.3356   -0.8606 H   0  0  0  0  0  0  0  0  0  0  0  0
    0.0025    1.5327   -2.5863 H   0  0  0  0  0  0  0  0  0  0  0  0
   -5.2453    2.2323    0.3828 H   0  0  0  0  0  0  0  0  0  0  0  0
    1.0287    0.2207   -3.2301 H   0  0  0  0  0  0  0  0  0  0  0  0
   -5.3797   -2.5189    0.0789 H   0  0  0  0  0  0  0  0  0  0  0  0
   -0.7361   -0.0367   -3.0263 H   0  0  0  0  0  0  0  0  0  0  0  0
    2.6530   -2.7235   -1.3338 H   0  0  0  0  0  0  0  0  0  0  0  0
    0.8704   -3.3278    1.4839 H   0  0  0  0  0  0  0  0  0  0  0  0
    2.5394   -2.9527    0.9417 H   0  0  0  0  0  0  0  0  0  0  0  0
    1.0519   -2.9784   -2.1015 H   0  0  0  0  0  0  0  0  0  0  0  0
    0.7127   -0.3404    3.2094 H   0  0  0  0  0  0  0  0  0  0  0  0
    1.8877   -2.2072    2.4321 H   0  0  0  0  0  0  0  0  0  0  0  0
   -1.0018   -0.6647    2.7802 H   0  0  0  0  0  0  0  0  0  0  0  0
   -0.3605    0.9998    2.6945 H   0  0  0  0  0  0  0  0  0  0  0  0
    2.1425   -1.7015   -2.7096 H   0  0  0  0  0  0  0  0  0  0  0  0
  1 17  1  0  0  0  0
  2  8  1  0  0  0  0
  2  3  1  0  0  0  0
  3  4  2  0  0  0  0
  3  1  1  0  0  0  0
  4 20  1  0  0  0  0
  5 31  1  0  0  0  0
  5  4  1  0  0  0  0
  6  5  2  0  0  0  0
  7  6  1  0  0  0  0
  7  2  2  0  0  0  0
  8 19  1  1  0  0  0
  8 12  1  0  0  0  0
  9 13  1  6  0  0  0
  9 10  1  0  0  0  0
  9  8  1  0  0  0  0
 10 14  1  6  0  0  0
 10 11  1  0  0  0  0
 11 12  1  0  0  0  0
 11 15  1  6  0  0  0
 12 16  1  1  0  0  0
 14 33  1  0  0  0  0
 15 34  1  0  0  0  0
 15 38  1  0  0  0  0
 16 40  1  0  0  0  0
 16 39  1  0  0  0  0
 16 37  1  0  0  0  0
 17 21  1  0  0  0  0
 17 24  1  0  0  0  0
 18 27  1  0  0  0  0
 18  1  1  0  0  0  0
 22  6  1  0  0  0  0
 23 18  1  0  0  0  0
 25  7  1  0  0  0  0
 26 18  1  0  0  0  0
 28 13  1  0  0  0  0
 29 17  1  0  0  0  0
 30 13  1  0  0  0  0
 32 13  1  0  0  0  0
 35 15  1  0  0  0  0
 36 14  1  0  0  0  0
 41 14  1  0  0  0  0
M  END
