1
q = 0.0, confidence = 1.0

 41 42  0  0  1  0  0  0  0  0999 V2000
    0.4542    0.2052    1.1741 C   0  0  1  0  0  3  0  0  0  0  0  0
    0.7219    1.3564    0.3106 C   0  0  2  0  0  3  0  0  0  0  0  0
    2.0534    1.2725   -0.2642 C   0  0  0  0  0  0  0  0  0  0  0  0
    2.7184    0.2421    0.3583 C   0  0  0  0  0  0  0  0  0  0  0  0
    1.8663   -0.4354    1.3817 C   0  0  1  0  0  0  0  0  0  0  0  0
    2.2432   -0.1562    2.8728 C   0  0  0  0  0  0  0  0  0  0  0  0
    1.1936    0.8504    3.3747 C   0  0  0  0  0  0  0  0  0  0  0  0
   -0.0715    0.4432    2.6022 C   0  0  0  0  0  0  0  0  0  0  0  0
    3.9298   -0.2481    0.1217 O   0  0  0  0  0  0  0  0  0  0  0  0
    4.6600    0.2833   -1.0017 C   0  0  0  0  0  0  0  0  0  0  0  0
    5.9650   -0.4745   -1.1191 C   0  0  0  0  0  0  0  0  0  0  0  0
   -0.0694    2.4320    0.0871 N   0  0  0  0  0  0  0  0  0  0  0  0
   -1.4696    2.5160    0.5150 C   0  0  0  0  0  0  0  0  0  0  0  0
   -1.6790    3.5285    1.6074 C   0  0  0  0  0  0  0  0  0  0  0  0
   -2.5004    4.5877    1.5049 C   0  0  0  0  0  0  0  0  0  0  0  0
    0.3761    3.5661   -0.7374 C   0  0  0  0  0  0  0  0  0  0  0  0
   -0.0368    3.4374   -2.1794 C   0  0  0  0  0  0  0  0  0  0  0  0
   -0.8214    4.3220   -2.8164 C   0  0  0  0  0  0  0  0  0  0  0  0
    2.4351    1.8817   -1.0893 H   0  0  0  0  0  0  0  0  0  0  0  0
    1.9097   -1.5246    1.1885 H   0  0  0  0  0  0  0  0  0  0  0  0
    2.1534   -1.1036    3.4411 H   0  0  0  0  0  0  0  0  0  0  0  0
    3.2893    0.1919    2.9843 H   0  0  0  0  0  0  0  0  0  0  0  0
    1.0746    0.8306    4.4774 H   0  0  0  0  0  0  0  0  0  0  0  0
    1.4828    1.8864    3.0920 H   0  0  0  0  0  0  0  0  0  0  0  0
   -0.8908    1.1792    2.6803 H   0  0  0  0  0  0  0  0  0  0  0  0
   -0.4706   -0.5078    3.0126 H   0  0  0  0  0  0  0  0  0  0  0  0
    4.8283    1.3717   -0.8398 H   0  0  0  0  0  0  0  0  0  0  0  0
    4.0295    0.1618   -1.9101 H   0  0  0  0  0  0  0  0  0  0  0  0
    6.5761   -0.3573   -0.2027 H   0  0  0  0  0  0  0  0  0  0  0  0
    6.5486   -0.0914   -1.9790 H   0  0  0  0  0  0  0  0  0  0  0  0
    5.7764   -1.5539   -1.2792 H   0  0  0  0  0  0  0  0  0  0  0  0
   -1.7842    1.5027    0.8278 H   0  0  0  0  0  0  0  0  0  0  0  0
   -2.0823    2.7792   -0.3734 H   0  0  0  0  0  0  0  0  0  0  0  0
   -1.1036    3.3672    2.5367 H   0  0  0  0  0  0  0  0  0  0  0  0
   -3.0811    4.7732    0.5853 H   0  0  0  0  0  0  0  0  0  0  0  0
   -2.6378    5.2952    2.3371 H   0  0  0  0  0  0  0  0  0  0  0  0
    1.4758    3.6579   -0.6382 H   0  0  0  0  0  0  0  0  0  0  0  0
   -0.0593    4.4861   -0.2950 H   0  0  0  0  0  0  0  0  0  0  0  0
    0.3191    2.5362   -2.7087 H   0  0  0  0  0  0  0  0  0  0  0  0
   -1.2058    5.2203   -2.3037 H   0  0  0  0  0  0  0  0  0  0  0  0
   -1.1080    4.1833   -3.8700 H   0  0  0  0  0  0  0  0  0  0  0  0
  1  5  1  0  0  0  0
  1  8  1  1  0  0  0
  2 12  1  1  0  0  0
  2  1  1  0  0  0  0
  3  2  1  0  0  0  0
  3  4  2  0  0  0  0
  4  5  1  0  0  0  0
  5 20  1  6  0  0  0
  5  6  1  0  0  0  0
  6 22  1  0  0  0  0
  6  7  1  0  0  0  0
  6 21  1  0  0  0  0
  7 23  1  0  0  0  0
  8 25  1  0  0  0  0
  8 26  1  0  0  0  0
  8  7  1  0  0  0  0
  9  4  1  0  0  0  0
 10 27  1  0  0  0  0
 10  9  1  0  0  0  0
 11 10  1  0  0  0  0
 11 29  1  0  0  0  0
 12 13  1  0  0  0  0
 13 32  1  0  0  0  0
 13 14  1  0  0  0  0
 14 34  1  0  0  0  0
 15 14  2  0  0  0  0
 15 36  1  0  0  0  0
 16 37  1  0  0  0  0
 16 38  1  0  0  0  0
 16 12  1  0  0  0  0
 17 16  1  0  0  0  0
 18 40  1  0  0  0  0
 18 17  2  0  0  0  0
 19  3  1  0  0  0  0
 24  7  1  0  0  0  0
 28 10  1  0  0  0  0
 30 11  1  0  0  0  0
 31 11  1  0  0  0  0
 33 13  1  0  0  0  0
 35 15  1  0  0  0  0
 39 17  1  0  0  0  0
 41 18  1  0  0  0  0
M  END
