5
q = 0.0, confidence = 0.998

 28 29  0  0  0  0  0  0  0  0999 V2000
    1.0450   -0.1742    1.3628 Se  0  0  0  0  0  0  0  0  0  0  0  0
   -1.4279    2.0525    0.6612 N   0  0  0  0  0  0  0  0  0  0  0  0
   -2.0370    1.5961   -1.3335 N   0  0  0  0  0  0  0  0  0  0  0  0
   -1.8135    3.2540    0.1364 N   0  0  0  0  0  0  0  0  0  0  0  0
   -1.5365    1.0035   -0.1977 C   0  0  0  0  0  2  0  0  0  0  0  0
    0.6970    1.7344    1.8620 C   0  0  0  0  0  0  0  0  0  0  0  0
    1.1952    1.9017    2.8362 H   0  0  0  0  0  0  0  0  0  0  0  0
    1.1541    2.3926    1.0988 H   0  0  0  0  0  0  0  0  0  0  0  0
   -0.8031    2.0021    1.9744 C   0  0  0  0  0  0  0  0  0  0  0  0
   -1.3133    1.2282    2.5839 H   0  0  0  0  0  0  0  0  0  0  0  0
   -0.9862    2.9898    2.4397 H   0  0  0  0  0  0  0  0  0  0  0  0
   -2.1868    2.9417   -1.0831 C   0  0  0  0  0  0  0  0  0  0  0  0
   -2.5771    3.6553   -1.8179 H   0  0  0  0  0  0  0  0  0  0  0  0
    4.2752    1.2843   -0.9753 C   0  0  0  0  0  0  0  0  0  0  0  0
    4.9926    2.1178   -0.9323 H   0  0  0  0  0  0  0  0  0  0  0  0
    4.3404    0.3474   -2.0172 C   0  0  0  0  0  0  0  0  0  0  0  0
    5.1067    0.4475   -2.8004 H   0  0  0  0  0  0  0  0  0  0  0  0
    3.3004    1.1608    0.0291 C   0  0  0  0  0  0  0  0  0  0  0  0
    3.2794    1.8893    0.8531 H   0  0  0  0  0  0  0  0  0  0  0  0
    2.3805    0.1007   -0.0342 C   0  0  0  0  0  0  0  0  0  0  0  0
    2.4470   -0.8571   -1.0617 C   0  0  0  0  0  0  0  0  0  0  0  0
    1.7369   -1.7012   -1.0678 H   0  0  0  0  0  0  0  0  0  0  0  0
   -2.2761    0.9385   -2.6148 C   0  0  0  0  0  0  0  0  0  0  0  0
   -1.3309    0.8762   -3.1895 H   0  0  0  0  0  0  0  0  0  0  0  0
   -3.0213    1.5239   -3.1835 H   0  0  0  0  0  0  0  0  0  0  0  0
   -2.6568   -0.0823   -2.4071 H   0  0  0  0  0  0  0  0  0  0  0  0
    3.4318   -0.7234   -2.0516 C   0  0  0  0  0  0  0  0  0  0  0  0
    3.4838   -1.4684   -2.8599 H   0  0  0  0  0  0  0  0  0  0  0  0
  1  6  1  0  0  0  0
  2  9  1  0  0  0  0
  3 12  1  0  0  0  0
  3  5  1  0  0  0  0
  4  2  1  0  0  0  0
  5  2  1  0  0  0  0
  6  9  1  0  0  0  0
  6  7  1  0  0  0  0
  8  6  1  0  0  0  0
  9 11  1  0  0  0  0
  9 10  1  0  0  0  0
 12  4  2  0  0  0  0
 13 12  1  0  0  0  0
 14 15  1  0  0  0  0
 14 18  1  0  0  0  0
 16 14  2  0  0  0  0
 17 16  1  0  0  0  0
 18 19  1  0  0  0  0
 20 18  2  0  0  0  0
 20  1  1  0  0  0  0
 21 20  1  0  0  0  0
 22 21  1  0  0  0  0
 23 26  1  0  0  0  0
 23  3  1  0  0  0  0
 24 23  1  0  0  0  0
 25 23  1  0  0  0  0
 27 16  1  0  0  0  0
 27 21  2  0  0  0  0
 28 27  1  0  0  0  0
M  END
