3
q = -1.0, confidence = 0.06

 22 23  0  0  0  0  0  0  0  0999 V2000
    3.4542    0.7191    0.0002 O   0  0  0  0  0  0  0  0  0  0  0  0
    4.8015    0.7759    0.0001 C   0  0  0  0  0  0  0  0  0  0  0  0
    0.1463   -0.3619   -0.0001 C   0  0  0  0  0  1  0  0  0  0  0  0
    7.0392   -0.1585    0.0001 C   0  0  0  0  0  0  0  0  0  0  0  0
    7.6144    1.1404   -0.0001 C   0  0  0  0  0  0  0  0  0  0  0  0
    5.3592    2.0857   -0.0001 C   0  0  0  0  0  0  0  0  0  0  0  0
    4.6681    2.9397   -0.0002 H   0  0  0  0  0  0  0  0  0  0  0  0
    6.7356    2.2548   -0.0002 C   0  0  0  0  0  0  0  0  0  0  0  0
    7.1668    3.2679   -0.0004 H   0  0  0  0  0  0  0  0  0  0  0  0
    1.3803   -0.4437   -0.0000 C   0  0  0  0  0  2  0  0  0  0  0  0
    2.8257   -0.5817    0.0002 C   0  0  0  0  0  0  0  0  0  0  0  0
    3.1704   -1.1496    0.8973 H   0  0  0  0  0  0  0  0  0  0  0  0
    3.1707   -1.1496   -0.8968 H   0  0  0  0  0  0  0  0  0  0  0  0
    5.6477   -0.3499    0.0002 C   0  0  0  0  0  0  0  0  0  0  0  0
    5.2730   -1.3800    0.0004 H   0  0  0  0  0  0  0  0  0  0  0  0
    9.0470    1.2285   -0.0002 C   0  0  0  0  0  0  0  0  0  0  0  0
    9.5161    2.2260   -0.0004 H   0  0  0  0  0  0  0  0  0  0  0  0
    9.8209    0.0996   -0.0001 C   0  0  0  0  0  0  0  0  0  0  0  0
   10.9185    0.1357   -0.0001 H   0  0  0  0  0  0  0  0  0  0  0  0
    9.2342   -1.2344    0.0002 C   0  0  0  0  0  0  0  0  0  0  0  0
    7.8162   -1.2729    0.0003 O   0  0  0  0  0  0  0  0  0  0  0  0
    9.8183   -2.2962    0.0003 O   0  0  0  0  0  0  0  0  0  0  0  0
  2  1  1  0  0  0  0
  2 14  1  0  0  0  0
  3 10  1  0  0  0  0
  4 14  2  0  0  0  0
  4 21  1  0  0  0  0
  5  4  1  0  0  0  0
  6  2  2  0  0  0  0
  7  6  1  0  0  0  0
  8  6  1  0  0  0  0
  8  5  2  0  0  0  0
  9  8  1  0  0  0  0
 10 11  1  0  0  0  0
 11  1  1  0  0  0  0
 11 12  1  0  0  0  0
 13 11  1  0  0  0  0
 14 15  1  0  0  0  0
 16  5  1  0  0  0  0
 16 18  2  0  0  0  0
 17 16  1  0  0  0  0
 18 20  1  0  0  0  0
 19 18  1  0  0  0  0
 20 21  1  0  0  0  0
 20 22  2  0  0  0  0
M  END
