3
q = -1.0, confidence = 0.0

 41 41  0  0  0  0  0  0  0  0999 V2000
   -0.2162   -0.7105   -0.8687 C   0  0  0  0  0  0  0  0  0  0  0  0
   -0.0881   -0.6501   -1.9559 H   0  0  0  0  0  0  0  0  0  0  0  0
   -0.5911   -1.8837   -0.1406 C   0  0  0  0  0  3  0  0  0  0  0  0
   -0.8291   -2.8651   -0.5694 H   0  0  0  0  0  0  0  0  0  0  0  0
   -0.5664   -1.5573    1.2459 C   0  0  0  0  0  0  0  0  0  0  0  0
   -0.8317   -2.2273    2.0704 H   0  0  0  0  0  0  0  0  0  0  0  0
   -0.2120   -0.1870    1.3668 C   0  0  0  0  0  0  0  0  0  0  0  0
   -0.1501    0.3734    2.3059 H   0  0  0  0  0  0  0  0  0  0  0  0
    0.0315    0.3488    0.0576 C   0  0  0  0  0  0  0  0  0  0  0  0
    0.6495    1.7016   -0.2879 C   0  0  0  0  0  0  0  0  0  0  0  0
    0.7497    2.5975    0.9590 C   0  0  0  0  0  0  0  0  0  0  0  0
   -0.2539    2.8048    1.3785 H   0  0  0  0  0  0  0  0  0  0  0  0
    1.2223    3.5638    0.6905 H   0  0  0  0  0  0  0  0  0  0  0  0
    1.3644    2.1344    1.7560 H   0  0  0  0  0  0  0  0  0  0  0  0
   -0.1709    2.4370   -1.3668 C   0  0  0  0  0  0  0  0  0  0  0  0
   -0.2412    1.8401   -2.2983 H   0  0  0  0  0  0  0  0  0  0  0  0
    0.3198    3.3959   -1.6299 H   0  0  0  0  0  0  0  0  0  0  0  0
   -1.1932    2.6591   -1.0034 H   0  0  0  0  0  0  0  0  0  0  0  0
    2.0638    1.4251   -0.8768 C   0  0  0  0  0  0  0  0  0  0  0  0
    1.9676    0.8778   -1.8363 H   0  0  0  0  0  0  0  0  0  0  0  0
    2.5295    2.3983   -1.1418 H   0  0  0  0  0  0  0  0  0  0  0  0
    3.0097    0.6378    0.0257 C   0  0  0  0  0  0  0  0  0  0  0  0
    3.2786    1.2225    0.9294 H   0  0  0  0  0  0  0  0  0  0  0  0
    2.4995   -0.2775    0.4024 H   0  0  0  0  0  0  0  0  0  0  0  0
    4.2767    0.2072   -0.7191 C   0  0  0  0  0  0  0  0  0  0  0  0
    4.3839    0.3415   -1.9414 O   0  0  0  0  0  0  0  0  0  0  0  0
    5.2889   -0.3501    0.0349 N   0  0  0  0  0  0  0  0  0  0  0  0
    5.2196   -0.5783    1.4746 C   0  0  0  0  0  0  0  0  0  0  0  0
    5.7377   -1.5375    1.6909 H   0  0  0  0  0  0  0  0  0  0  0  0
    4.1652   -0.7401    1.7718 H   0  0  0  0  0  0  0  0  0  0  0  0
    5.8391    0.5469    2.3084 C   0  0  0  0  0  0  0  0  0  0  0  0
    6.9019    0.7092    2.0371 H   0  0  0  0  0  0  0  0  0  0  0  0
    5.7985    0.3046    3.3897 H   0  0  0  0  0  0  0  0  0  0  0  0
    5.3025    1.5041    2.1500 H   0  0  0  0  0  0  0  0  0  0  0  0
    6.5071   -0.7673   -0.6605 C   0  0  0  0  0  0  0  0  0  0  0  0
    7.3670   -0.6110    0.0249 H   0  0  0  0  0  0  0  0  0  0  0  0
    6.6363   -0.0909   -1.5276 H   0  0  0  0  0  0  0  0  0  0  0  0
    6.4512   -2.2174   -1.1430 C   0  0  0  0  0  0  0  0  0  0  0  0
    6.2828   -2.9241   -0.3040 H   0  0  0  0  0  0  0  0  0  0  0  0
    7.4005   -2.5031   -1.6398 H   0  0  0  0  0  0  0  0  0  0  0  0
    5.6285   -2.3407   -1.8745 H   0  0  0  0  0  0  0  0  0  0  0  0
  1  3  1  0  0  0  0
  1  9  2  0  0  0  0
  2  1  1  0  0  0  0
  3  5  1  0  0  0  0
  4  3  1  0  0  0  0
  5  7  2  0  0  0  0
  5  6  1  0  0  0  0
  7  8  1  0  0  0  0
  9  7  1  0  0  0  0
 10  9  1  0  0  0  0
 10 11  1  0  0  0  0
 11 12  1  0  0  0  0
 11 14  1  0  0  0  0
 13 11  1  0  0  0  0
 15 18  1  0  0  0  0
 15 10  1  0  0  0  0
 16 15  1  0  0  0  0
 17 15  1  0  0  0  0
 19 10  1  0  0  0  0
 19 22  1  0  0  0  0
 20 19  1  0  0  0  0
 21 19  1  0  0  0  0
 22 24  1  0  0  0  0
 22 23  1  0  0  0  0
 25 22  1  0  0  0  0
 25 27  1  0  0  0  0
 26 25  2  0  0  0  0
 27 28  1  0  0  0  0
 28 29  1  0  0  0  0
 28 30  1  0  0  0  0
 28 31  1  0  0  0  0
 31 33  1  0  0  0  0
 32 31  1  0  0  0  0
 34 31  1  0  0  0  0
 35 36  1  0  0  0  0
 35 27  1  0  0  0  0
 37 35  1  0  0  0  0
 38 35  1  0  0  0  0
 38 39  1  0  0  0  0
 40 38  1  0  0  0  0
 41 38  1  0  0  0  0
M  END
