10
q = -1.0, confidence = 0.0

 46 47  0  0  1  0  0  0  0  0999 V2000
    3.1897   -2.7655   -0.6896 O   0  0  0  0  0  0  0  0  0  0  0  0
    3.8359    2.1259    1.3692 O   0  0  0  0  0  0  0  0  0  0  0  0
    3.2203   -0.0535    1.7054 N   0  0  0  0  0  0  0  0  0  0  0  0
    3.4682   -0.5284   -1.1000 N   0  0  0  0  0  0  0  0  0  0  0  0
    0.4827   -0.4052    0.6631 C   0  0  0  0  0  0  0  0  0  0  0  0
    0.0047    0.8435    1.1737 C   0  0  0  0  0  0  0  0  0  0  0  0
   -0.0662    1.1073    2.2340 H   0  0  0  0  0  0  0  0  0  0  0  0
   -0.3858    1.6666    0.0897 C   0  0  0  0  0  0  0  0  0  0  0  0
   -0.7427    2.6966    0.1737 H   0  0  0  0  0  0  0  0  0  0  0  0
   -0.1853    0.9226   -1.1189 C   0  0  0  0  0  3  0  0  0  0  0  0
   -0.3617    1.2686   -2.1423 H   0  0  0  0  0  0  0  0  0  0  0  0
    0.3458   -0.3442   -0.7549 C   0  0  0  0  0  0  0  0  0  0  0  0
    0.5879   -1.1480   -1.4547 H   0  0  0  0  0  0  0  0  0  0  0  0
    1.1981   -1.4942    1.4445 C   0  0  0  0  0  0  0  0  0  0  0  0
    2.7595   -1.3150    1.1611 C   0  0  1  0  0  0  0  0  0  0  0  0
    3.2398   -2.1443    1.7266 H   0  0  0  0  0  0  0  0  0  0  0  0
    3.4912    0.9041    0.9010 C   0  0  0  0  0  0  0  0  0  0  0  0
    3.4735    0.8391   -0.6180 C   0  0  1  0  0  0  0  0  0  0  0  0
    2.5204    1.3289   -0.9340 H   0  0  0  0  0  0  0  0  0  0  0  0
    3.1554   -1.4718   -0.2927 C   0  0  0  0  0  0  0  0  0  0  0  0
    3.8325    2.2814    2.7882 C   0  0  0  0  0  0  0  0  0  0  0  0
    4.1530    3.3214    2.9821 H   0  0  0  0  0  0  0  0  0  0  0  0
    4.5246    1.5609    3.2695 H   0  0  0  0  0  0  0  0  0  0  0  0
    2.8184    2.1030    3.2027 H   0  0  0  0  0  0  0  0  0  0  0  0
    4.6232    1.6421   -1.2857 C   0  0  0  0  0  0  0  0  0  0  0  0
    4.5562    2.6707   -0.8739 H   0  0  0  0  0  0  0  0  0  0  0  0
    4.4121    1.7004   -2.8013 C   0  0  0  0  0  0  0  0  0  0  0  0
    5.2212    2.2754   -3.2955 H   0  0  0  0  0  0  0  0  0  0  0  0
    3.4456    2.1825   -3.0566 H   0  0  0  0  0  0  0  0  0  0  0  0
    4.3984    0.6766   -3.2258 H   0  0  0  0  0  0  0  0  0  0  0  0
    5.9918    1.0589   -0.9222 C   0  0  0  0  0  0  0  0  0  0  0  0
    6.0688    0.0079   -1.2690 H   0  0  0  0  0  0  0  0  0  0  0  0
    6.1609    1.0709    0.1738 H   0  0  0  0  0  0  0  0  0  0  0  0
    6.8103    1.6374   -1.3961 H   0  0  0  0  0  0  0  0  0  0  0  0
    3.5653   -3.0011   -2.0467 C   0  0  0  0  0  0  0  0  0  0  0  0
    2.8730   -2.4886   -2.7461 H   0  0  0  0  0  0  0  0  0  0  0  0
    3.5217   -4.0961   -2.1891 H   0  0  0  0  0  0  0  0  0  0  0  0
    4.5880   -2.6203   -2.2470 H   0  0  0  0  0  0  0  0  0  0  0  0
    0.7261   -2.8974    1.0294 C   0  0  0  0  0  0  0  0  0  0  0  0
   -0.3303   -3.0280    1.3321 H   0  0  0  0  0  0  0  0  0  0  0  0
    1.3434   -3.6703    1.5299 H   0  0  0  0  0  0  0  0  0  0  0  0
    0.7876   -3.0689   -0.0596 H   0  0  0  0  0  0  0  0  0  0  0  0
    1.0038   -1.3342    2.9628 C   0  0  0  0  0  0  0  0  0  0  0  0
    1.5260   -2.1571    3.4911 H   0  0  0  0  0  0  0  0  0  0  0  0
   -0.0717   -1.3776    3.2147 H   0  0  0  0  0  0  0  0  0  0  0  0
    1.4337   -0.3827    3.3262 H   0  0  0  0  0  0  0  0  0  0  0  0
  1 20  1  0  0  0  0
  2 21  1  0  0  0  0
  4 18  1  0  0  0  0
  4 20  2  0  0  0  0
  5  6  1  0  0  0  0
  5 14  1  0  0  0  0
  6  7  1  0  0  0  0
  8  9  1  0  0  0  0
  8  6  2  0  0  0  0
 10 12  1  0  0  0  0
 10  8  1  0  0  0  0
 11 10  1  0  0  0  0
 12  5  2  0  0  0  0
 13 12  1  0  0  0  0
 14 43  1  0  0  0  0
 15 14  1  0  0  0  0
 15  3  1  0  0  0  0
 15 16  1  1  0  0  0
 17  2  1  0  0  0  0
 17  3  2  0  0  0  0
 18 19  1  6  0  0  0
 18 17  1  0  0  0  0
 20 15  1  0  0  0  0
 21 22  1  0  0  0  0
 21 24  1  0  0  0  0
 21 23  1  0  0  0  0
 25 31  1  0  0  0  0
 25 26  1  0  0  0  0
 25 18  1  0  0  0  0
 27 25  1  0  0  0  0
 28 27  1  0  0  0  0
 29 27  1  0  0  0  0
 30 27  1  0  0  0  0
 31 33  1  0  0  0  0
 32 31  1  0  0  0  0
 34 31  1  0  0  0  0
 35  1  1  0  0  0  0
 36 35  1  0  0  0  0
 37 35  1  0  0  0  0
 38 35  1  0  0  0  0
 39 40  1  0  0  0  0
 39 14  1  0  0  0  0
 39 41  1  0  0  0  0
 42 39  1  0  0  0  0
 43 45  1  0  0  0  0
 43 46  1  0  0  0  0
 43 44  1  0  0  0  0
M  END
