6
q = 0.0, confidence = 0.994

 44 47  0  0  0  0  0  0  0  0999 V2000
   -4.6326   -2.4394   -1.4205 Cl  0  0  0  0  0  0  0  0  0  0  0  0
   -0.9832   -1.2309   -0.8580 N   0  0  0  0  0  0  0  0  0  0  0  0
    0.9559   -1.6406    0.0089 N   0  0  0  0  0  0  0  0  0  0  0  0
   -3.1911   -0.3727   -0.4291 N   0  0  0  0  0  0  0  0  0  0  0  0
   -5.0631   -0.8995    0.7510 N   0  0  0  0  0  0  0  0  0  0  0  0
    0.2223   -0.6427   -0.5709 C   0  0  0  0  0  2  0  0  0  0  0  0
   -1.0030   -2.5653   -0.4616 C   0  0  0  0  0  0  0  0  0  0  0  0
   -1.8843   -3.1995   -0.5988 H   0  0  0  0  0  0  0  0  0  0  0  0
    0.2249   -2.8234    0.0865 C   0  0  0  0  0  0  0  0  0  0  0  0
    0.6450   -3.7336    0.5238 H   0  0  0  0  0  0  0  0  0  0  0  0
    2.2876   -1.4505    0.5237 C   0  0  0  0  0  0  0  0  0  0  0  0
    3.3877   -1.7529   -0.3052 C   0  0  0  0  0  0  0  0  0  0  0  0
    3.1811   -2.2158   -1.7232 C   0  0  0  0  0  0  0  0  0  0  0  0
    2.5262   -3.1094   -1.7813 H   0  0  0  0  0  0  0  0  0  0  0  0
    4.1445   -2.4626   -2.2067 H   0  0  0  0  0  0  0  0  0  0  0  0
    2.6903   -1.4189   -2.3218 H   0  0  0  0  0  0  0  0  0  0  0  0
    4.6732   -1.5593    0.2289 C   0  0  0  0  0  0  0  0  0  0  0  0
    5.5472   -1.7884   -0.4014 H   0  0  0  0  0  0  0  0  0  0  0  0
    4.8713   -1.0699    1.5336 C   0  0  0  0  0  0  0  0  0  0  0  0
    3.7407   -0.7695    2.3167 C   0  0  0  0  0  0  0  0  0  0  0  0
    3.8783   -0.3762    3.3365 H   0  0  0  0  0  0  0  0  0  0  0  0
    2.4329   -0.9450    1.8337 C   0  0  0  0  0  0  0  0  0  0  0  0
    1.2284   -0.5683    2.6555 C   0  0  0  0  0  0  0  0  0  0  0  0
    1.5182   -0.2968    3.6875 H   0  0  0  0  0  0  0  0  0  0  0  0
    0.4838   -1.3887    2.7078 H   0  0  0  0  0  0  0  0  0  0  0  0
    0.7072    0.3033    2.2041 H   0  0  0  0  0  0  0  0  0  0  0  0
    6.2614   -0.8298    2.0652 C   0  0  0  0  0  0  0  0  0  0  0  0
    7.0049   -1.4951    1.5845 H   0  0  0  0  0  0  0  0  0  0  0  0
    6.3126   -0.9835    3.1611 H   0  0  0  0  0  0  0  0  0  0  0  0
    6.5803    0.2161    1.8673 H   0  0  0  0  0  0  0  0  0  0  0  0
   -2.1329   -0.5085   -1.3968 C   0  0  0  0  0  0  0  0  0  0  0  0
   -1.7608    0.4887   -1.7062 H   0  0  0  0  0  0  0  0  0  0  0  0
   -2.5331   -1.0474   -2.2762 H   0  0  0  0  0  0  0  0  0  0  0  0
   -3.2215    0.5036    0.6621 C   0  0  0  0  0  0  0  0  0  0  0  0
   -4.4061    0.1586    1.3769 C   0  0  0  0  0  0  0  0  0  0  0  0
   -4.3193   -1.1798   -0.2801 C   0  0  0  0  0  0  0  0  0  0  0  0
   -4.7499    0.8662    2.5432 C   0  0  0  0  0  0  0  0  0  0  0  0
   -5.6641    0.6084    3.0962 H   0  0  0  0  0  0  0  0  0  0  0  0
   -3.8923    1.8917    2.9607 C   0  0  0  0  0  0  0  0  0  0  0  0
   -4.1348    2.4619    3.8700 H   0  0  0  0  0  0  0  0  0  0  0  0
   -2.7178    2.2145    2.2401 C   0  0  0  0  0  0  0  0  0  0  0  0
   -2.0687    3.0269    2.5992 H   0  0  0  0  0  0  0  0  0  0  0  0
   -2.3553    1.5264    1.0726 C   0  0  0  0  0  0  0  0  0  0  0  0
   -1.4353    1.7752    0.5199 H   0  0  0  0  0  0  0  0  0  0  0  0
  1 36  1  0  0  0  0
  2  6  1  0  0  0  0
  2  7  1  0  0  0  0
  3  9  1  0  0  0  0
  3 11  1  0  0  0  0
  4 36  1  0  0  0  0
  4 34  1  0  0  0  0
  5 35  1  0  0  0  0
  6  3  1  0  0  0  0
  7  9  2  0  0  0  0
  8  7  1  0  0  0  0
  9 10  1  0  0  0  0
 11 22  1  0  0  0  0
 12 17  1  0  0  0  0
 12 11  2  0  0  0  0
 13 12  1  0  0  0  0
 14 13  1  0  0  0  0
 15 13  1  0  0  0  0
 16 13  1  0  0  0  0
 17 19  2  0  0  0  0
 18 17  1  0  0  0  0
 19 27  1  0  0  0  0
 19 20  1  0  0  0  0
 20 21  1  0  0  0  0
 22 20  2  0  0  0  0
 22 23  1  0  0  0  0
 23 25  1  0  0  0  0
 23 24  1  0  0  0  0
 26 23  1  0  0  0  0
 27 29  1  0  0  0  0
 28 27  1  0  0  0  0
 30 27  1  0  0  0  0
 31  2  1  0  0  0  0
 31  4  1  0  0  0  0
 32 31  1  0  0  0  0
 33 31  1  0  0  0  0
 34 43  2  0  0  0  0
 34 35  1  0  0  0  0
 35 37  2  0  0  0  0
 36  5  2  0  0  0  0
 37 39  1  0  0  0  0
 37 38  1  0  0  0  0
 39 40  1  0  0  0  0
 41 42  1  0  0  0  0
 41 39  2  0  0  0  0
 43 41  1  0  0  0  0
 44 43  1  0  0  0  0
M  END
