1
q = -1.0, confidence = 0.0

 17 16  0  0  0  0  0  0  0  0999 V2000
    0.5803    1.2749    0.2847 C   0  0  0  0  0  3  0  0  0  0  0  0
    1.1521    2.2138   -0.5025 C   0  0  0  0  0  0  0  0  0  0  0  0
    1.8348    3.4510    0.0289 C   0  0  0  0  0  0  0  0  0  0  0  0
    3.3537    3.4862   -0.2106 C   0  0  0  0  0  0  0  0  0  0  0  0
    4.0206    4.7902    0.2366 C   0  0  0  0  0  0  0  0  0  0  0  0
    5.5332    4.8085    0.0134 C   0  0  0  0  0  0  0  0  0  0  0  0
    0.6117    1.4318    1.3858 H   0  0  0  0  0  0  0  0  0  0  0  0
    1.1418    2.0940   -1.6018 H   0  0  0  0  0  0  0  0  0  0  0  0
    1.3853    4.3576   -0.4419 H   0  0  0  0  0  0  0  0  0  0  0  0
    1.6353    3.5440    1.1195 H   0  0  0  0  0  0  0  0  0  0  0  0
    3.8227    2.6291    0.3222 H   0  0  0  0  0  0  0  0  0  0  0  0
    3.5611    3.3152   -1.2914 H   0  0  0  0  0  0  0  0  0  0  0  0
    3.5506    5.6429   -0.3029 H   0  0  0  0  0  0  0  0  0  0  0  0
    3.7982    4.9614    1.3137 H   0  0  0  0  0  0  0  0  0  0  0  0
    6.0320    3.9877    0.5706 H   0  0  0  0  0  0  0  0  0  0  0  0
    5.9891    5.7630    0.3461 H   0  0  0  0  0  0  0  0  0  0  0  0
    5.7835    4.6744   -1.0600 H   0  0  0  0  0  0  0  0  0  0  0  0
  1  7  1  0  0  0  0
  2  3  1  0  0  0  0
  2  1  2  0  0  0  0
  3 10  1  0  0  0  0
  4  3  1  0  0  0  0
  4  5  1  0  0  0  0
  4 11  1  0  0  0  0
  5 14  1  0  0  0  0
  6  5  1  0  0  0  0
  6 16  1  0  0  0  0
  6 15  1  0  0  0  0
  8  2  1  0  0  0  0
  9  3  1  0  0  0  0
 12  4  1  0  0  0  0
 13  5  1  0  0  0  0
 17  6  1  0  0  0  0
M  END
