3
q = 0.0, confidence = 0.994

 41 43  0  0  0  0  0  0  0  0999 V2000
    3.6111   -2.4035    2.0175 O   0  0  0  0  0  0  0  0  0  0  0  0
    3.3785   -2.8884   -0.1878 O   0  0  0  0  0  0  0  0  0  0  0  0
    0.3563    0.1888    0.7649 C   0  0  0  0  0  2  0  0  0  0  0  0
    1.0825   -0.4998    1.6923 N   0  0  0  0  0  0  0  0  0  0  0  0
    0.9877    1.4029    0.6603 N   0  0  0  0  0  0  0  0  0  0  0  0
    0.5694    2.4757   -0.1847 C   0  0  0  0  0  0  0  0  0  0  0  0
    2.9109   -2.7177    1.0684 C   0  0  0  0  0  0  0  0  0  0  0  0
    0.7922   -1.8787    2.0913 C   0  0  0  0  0  0  0  0  0  0  0  0
   -0.3098   -1.9873    2.1117 H   0  0  0  0  0  0  0  0  0  0  0  0
    1.1935   -2.0192    3.1130 H   0  0  0  0  0  0  0  0  0  0  0  0
   -0.2333    4.5977   -1.8282 C   0  0  0  0  0  0  0  0  0  0  0  0
   -0.5513    5.4301   -2.4738 H   0  0  0  0  0  0  0  0  0  0  0  0
    2.0943    1.4601    1.5110 C   0  0  0  0  0  0  0  0  0  0  0  0
    2.7703    2.3180    1.5269 H   0  0  0  0  0  0  0  0  0  0  0  0
    0.1700    2.2136   -1.5077 C   0  0  0  0  0  0  0  0  0  0  0  0
    0.1921    1.1799   -1.8893 H   0  0  0  0  0  0  0  0  0  0  0  0
    2.1558    0.2573    2.1567 C   0  0  0  0  0  0  0  0  0  0  0  0
    2.8938   -0.1575    2.8477 H   0  0  0  0  0  0  0  0  0  0  0  0
    4.7156   -2.4029   -0.4291 C   0  0  0  0  0  0  0  0  0  0  0  0
    5.0319   -2.9173   -1.3584 H   0  0  0  0  0  0  0  0  0  0  0  0
    5.3855   -2.6993    0.4023 H   0  0  0  0  0  0  0  0  0  0  0  0
   -0.2362    3.2822   -2.3198 C   0  0  0  0  0  0  0  0  0  0  0  0
   -0.5497    3.0790   -3.3548 H   0  0  0  0  0  0  0  0  0  0  0  0
    5.7428   -0.1120   -0.0662 C   0  0  0  0  0  0  0  0  0  0  0  0
    6.5443   -0.5937    0.5164 H   0  0  0  0  0  0  0  0  0  0  0  0
    3.6693   -0.2741   -1.3257 C   0  0  0  0  0  0  0  0  0  0  0  0
    2.8250   -0.8676   -1.7136 H   0  0  0  0  0  0  0  0  0  0  0  0
    1.4066   -2.8978    1.1274 C   0  0  0  0  0  0  0  0  0  0  0  0
    1.1765   -3.9214    1.4921 H   0  0  0  0  0  0  0  0  0  0  0  0
    0.9784   -2.7845    0.1098 H   0  0  0  0  0  0  0  0  0  0  0  0
    4.7100   -0.8991   -0.6077 C   0  0  0  0  0  0  0  0  0  0  0  0
    5.7521    1.2793   -0.2539 C   0  0  0  0  0  0  0  0  0  0  0  0
    6.5657    1.8838    0.1760 H   0  0  0  0  0  0  0  0  0  0  0  0
    3.6811    1.1158   -1.5113 C   0  0  0  0  0  0  0  0  0  0  0  0
    2.8627    1.5936   -2.0705 H   0  0  0  0  0  0  0  0  0  0  0  0
    0.5743    3.7879    0.3185 C   0  0  0  0  0  0  0  0  0  0  0  0
    0.8662    3.9726    1.3627 H   0  0  0  0  0  0  0  0  0  0  0  0
    4.7217    1.8963   -0.9809 C   0  0  0  0  0  0  0  0  0  0  0  0
    4.7251    2.9872   -1.1300 H   0  0  0  0  0  0  0  0  0  0  0  0
    0.1769    4.8478   -0.5094 C   0  0  0  0  0  0  0  0  0  0  0  0
    0.1748    5.8743   -0.1133 H   0  0  0  0  0  0  0  0  0  0  0  0
  2  7  1  0  0  0  0
  3  4  1  0  0  0  0
  4  8  1  0  0  0  0
  4 17  1  0  0  0  0
  5  3  1  0  0  0  0
  5 13  1  0  0  0  0
  6 36  1  0  0  0  0
  6  5  1  0  0  0  0
  7 28  1  0  0  0  0
  7  1  2  0  0  0  0
  8  9  1  0  0  0  0
  8 10  1  0  0  0  0
 11 40  1  0  0  0  0
 12 11  1  0  0  0  0
 13 14  1  0  0  0  0
 13 17  2  0  0  0  0
 15  6  2  0  0  0  0
 16 15  1  0  0  0  0
 17 18  1  0  0  0  0
 19  2  1  0  0  0  0
 19 21  1  0  0  0  0
 20 19  1  0  0  0  0
 22 11  2  0  0  0  0
 22 15  1  0  0  0  0
 23 22  1  0  0  0  0
 24 25  1  0  0  0  0
 26 31  1  0  0  0  0
 27 26  1  0  0  0  0
 28 29  1  0  0  0  0
 28  8  1  0  0  0  0
 30 28  1  0  0  0  0
 31 19  1  0  0  0  0
 31 24  2  0  0  0  0
 32 24  1  0  0  0  0
 32 33  1  0  0  0  0
 34 26  2  0  0  0  0
 34 38  1  0  0  0  0
 35 34  1  0  0  0  0
 36 37  1  0  0  0  0
 38 32  2  0  0  0  0
 39 38  1  0  0  0  0
 40 41  1  0  0  0  0
 40 36  2  0  0  0  0
M  END
