5
q = 0.0, confidence = 0.984

 38 40  0  0  0  0  0  0  0  0999 V2000
   -3.3763   -0.2512   -0.0604 Si  0  0  0  0  0  0  0  0  0  0  0  0
   -2.3749   -0.8179   -1.2930 O   0  0  0  0  0  0  0  0  0  0  0  0
   -2.8740   -0.6379    1.5094 O   0  0  0  0  0  0  0  0  0  0  0  0
   -0.9667   -0.6558   -1.4565 C   0  0  0  0  0  0  0  0  0  0  0  0
   -0.3226   -0.8240   -0.1017 C   0  0  0  0  0  3  0  0  0  0  0  0
   -0.2615    0.2330    0.8421 C   0  0  0  0  0  3  0  0  0  0  0  0
   -0.6186    0.0001    2.2818 C   0  0  0  0  0  0  0  0  0  0  0  0
   -2.1484    0.1842    2.4093 C   0  0  0  0  0  0  0  0  0  0  0  0
   -4.9801   -1.1784   -0.3030 C   0  0  0  0  0  0  0  0  0  0  0  0
   -5.4731   -1.4444   -1.6003 C   0  0  0  0  0  0  0  0  0  0  0  0
   -6.6992   -2.1013   -1.7804 C   0  0  0  0  0  0  0  0  0  0  0  0
   -7.4518   -2.5038   -0.6645 C   0  0  0  0  0  0  0  0  0  0  0  0
   -6.9718   -2.2533    0.6307 C   0  0  0  0  0  0  0  0  0  0  0  0
   -5.7438   -1.5968    0.8089 C   0  0  0  0  0  0  0  0  0  0  0  0
   -3.5932    1.6184   -0.1559 C   0  0  0  0  0  0  0  0  0  0  0  0
   -2.7342    2.4645   -0.8925 C   0  0  0  0  0  0  0  0  0  0  0  0
   -2.9257    3.8555   -0.9030 C   0  0  0  0  0  0  0  0  0  0  0  0
   -3.9847    4.4255   -0.1796 C   0  0  0  0  0  0  0  0  0  0  0  0
   -4.8538    3.6003    0.5531 C   0  0  0  0  0  0  0  0  0  0  0  0
   -4.6584    2.2112    0.5622 C   0  0  0  0  0  0  0  0  0  0  0  0
   -0.7110    0.3329   -1.8923 H   0  0  0  0  0  0  0  0  0  0  0  0
   -0.6206   -1.4396   -2.1619 H   0  0  0  0  0  0  0  0  0  0  0  0
   -0.4002   -1.8459    0.3123 H   0  0  0  0  0  0  0  0  0  0  0  0
   -0.4643    1.2547    0.4676 H   0  0  0  0  0  0  0  0  0  0  0  0
   -0.1197    0.7284    2.9547 H   0  0  0  0  0  0  0  0  0  0  0  0
   -0.3169   -1.0189    2.5934 H   0  0  0  0  0  0  0  0  0  0  0  0
   -2.4610   -0.0861    3.4411 H   0  0  0  0  0  0  0  0  0  0  0  0
   -2.4045    1.2582    2.2548 H   0  0  0  0  0  0  0  0  0  0  0  0
   -4.8814   -1.1421   -2.4786 H   0  0  0  0  0  0  0  0  0  0  0  0
   -7.0699   -2.3046   -2.7971 H   0  0  0  0  0  0  0  0  0  0  0  0
   -8.4144   -3.0193   -0.8059 H   0  0  0  0  0  0  0  0  0  0  0  0
   -7.5549   -2.5769    1.5068 H   0  0  0  0  0  0  0  0  0  0  0  0
   -5.3571   -1.4173    1.8244 H   0  0  0  0  0  0  0  0  0  0  0  0
   -1.8952    2.0429   -1.4660 H   0  0  0  0  0  0  0  0  0  0  0  0
   -2.2414    4.4962   -1.4801 H   0  0  0  0  0  0  0  0  0  0  0  0
   -4.1355    5.5161   -0.1881 H   0  0  0  0  0  0  0  0  0  0  0  0
   -5.6899    4.0422    1.1170 H   0  0  0  0  0  0  0  0  0  0  0  0
   -5.3539    1.5728    1.1321 H   0  0  0  0  0  0  0  0  0  0  0  0
  1  3  1  0  0  0  0
  2  1  1  0  0  0  0
  3  8  1  0  0  0  0
  4  2  1  0  0  0  0
  4  5  1  0  0  0  0
  5 23  1  0  0  0  0
  5  6  1  0  0  0  0
  6  7  1  0  0  0  0
  7  8  1  0  0  0  0
  7 26  1  0  0  0  0
  7 25  1  0  0  0  0
  8 27  1  0  0  0  0
  9  1  1  0  0  0  0
  9 14  1  0  0  0  0
 10  9  2  0  0  0  0
 11 10  1  0  0  0  0
 11 12  2  0  0  0  0
 12 13  1  0  0  0  0
 13 14  2  0  0  0  0
 13 32  1  0  0  0  0
 14 33  1  0  0  0  0
 15  1  1  0  0  0  0
 15 20  1  0  0  0  0
 16 15  2  0  0  0  0
 17 16  1  0  0  0  0
 17 18  2  0  0  0  0
 18 19  1  0  0  0  0
 19 20  2  0  0  0  0
 19 37  1  0  0  0  0
 20 38  1  0  0  0  0
 21  4  1  0  0  0  0
 22  4  1  0  0  0  0
 24  6  1  0  0  0  0
 28  8  1  0  0  0  0
 29 10  1  0  0  0  0
 30 11  1  0  0  0  0
 31 12  1  0  0  0  0
 34 16  1  0  0  0  0
 35 17  1  0  0  0  0
 36 18  1  0  0  0  0
M  END
