13
q = 0.0, confidence = 0.98

 59 61  0  0  1  0  0  0  0  0999 V2000
    0.4543    0.4704    0.3617 P   0  0  0  0  0  0  0  0  0  0  0  0
   -0.6270    1.3128    1.5755 C   0  0  0  0  0  0  0  0  0  0  0  0
   -1.8115    0.6297    1.9368 C   0  0  0  0  0  0  0  0  0  0  0  0
   -2.7211    1.2941    2.7879 C   0  0  0  0  0  0  0  0  0  0  0  0
   -3.6582    0.7984    3.0769 H   0  0  0  0  0  0  0  0  0  0  0  0
   -2.4435    2.5779    3.2788 C   0  0  0  0  0  0  0  0  0  0  0  0
   -3.1691    3.0715    3.9429 H   0  0  0  0  0  0  0  0  0  0  0  0
   -1.2581    3.2390    2.9191 C   0  0  0  0  0  0  0  0  0  0  0  0
   -1.0509    4.2537    3.2902 H   0  0  0  0  0  0  0  0  0  0  0  0
   -0.3523    2.6051    2.0577 C   0  0  0  0  0  0  0  0  0  0  0  0
    0.5624    3.1232    1.7302 H   0  0  0  0  0  0  0  0  0  0  0  0
   -2.1006   -0.7659    1.4432 C   0  0  1  0  0  3  0  0  0  0  0  0
   -1.1641   -1.8098    1.7326 C   0  0  0  0  0  3  0  0  0  0  0  0
   -1.5165   -2.8541    1.7288 H   0  0  0  0  0  0  0  0  0  0  0  0
   -0.2761   -1.5987    2.3521 H   0  0  0  0  0  0  0  0  0  0  0  0
   -3.5582   -1.0793    1.1854 C   0  0  0  0  0  0  0  0  0  0  0  0
   -3.6626   -2.0629    0.6931 H   0  0  0  0  0  0  0  0  0  0  0  0
   -4.0215   -0.3065    0.5409 H   0  0  0  0  0  0  0  0  0  0  0  0
   -4.1140   -1.1010    2.1476 H   0  0  0  0  0  0  0  0  0  0  0  0
    1.9651   -0.0032    1.3126 C   0  0  0  0  0  0  0  0  0  0  0  0
    3.0106   -0.7544    0.7078 C   0  0  0  0  0  0  0  0  0  0  0  0
    4.1139   -1.1092    1.5112 C   0  0  0  0  0  0  0  0  0  0  0  0
    4.9328   -1.6882    1.0581 H   0  0  0  0  0  0  0  0  0  0  0  0
    4.1910   -0.7582    2.8647 C   0  0  0  0  0  0  0  0  0  0  0  0
    5.0671   -1.0567    3.4605 H   0  0  0  0  0  0  0  0  0  0  0  0
    3.1461   -0.0350    3.4565 C   0  0  0  0  0  0  0  0  0  0  0  0
    3.1870    0.2421    4.5204 H   0  0  0  0  0  0  0  0  0  0  0  0
    2.0407    0.3389    2.6818 C   0  0  0  0  0  0  0  0  0  0  0  0
    1.2254    0.9063    3.1510 H   0  0  0  0  0  0  0  0  0  0  0  0
    2.9450   -1.2346   -0.7319 C   0  0  0  0  0  0  0  0  0  0  0  0
    2.1140   -0.7067   -1.2451 H   0  0  0  0  0  0  0  0  0  0  0  0
    2.5913   -2.7325   -0.7653 C   0  0  0  0  0  0  0  0  0  0  0  0
    3.3977   -3.3449   -0.3106 H   0  0  0  0  0  0  0  0  0  0  0  0
    2.4336   -3.0649   -1.8100 H   0  0  0  0  0  0  0  0  0  0  0  0
    1.6488   -2.9304   -0.2157 H   0  0  0  0  0  0  0  0  0  0  0  0
    4.2197   -0.9348   -1.5333 C   0  0  0  0  0  0  0  0  0  0  0  0
    4.4737    0.1441   -1.5114 H   0  0  0  0  0  0  0  0  0  0  0  0
    4.0710   -1.2256   -2.5923 H   0  0  0  0  0  0  0  0  0  0  0  0
    5.0964   -1.5010   -1.1557 H   0  0  0  0  0  0  0  0  0  0  0  0
    0.9317    1.7903   -0.8212 C   0  0  0  0  0  0  0  0  0  0  0  0
   -0.0395    2.4038   -1.6613 C   0  0  0  0  0  0  0  0  0  0  0  0
    0.4063    3.4298   -2.5193 C   0  0  0  0  0  0  0  0  0  0  0  0
   -0.3243    3.9193   -3.1809 H   0  0  0  0  0  0  0  0  0  0  0  0
    1.7447    3.8416   -2.5583 C   0  0  0  0  0  0  0  0  0  0  0  0
    2.0507    4.6439   -3.2469 H   0  0  0  0  0  0  0  0  0  0  0  0
    2.6883    3.2327   -1.7191 C   0  0  0  0  0  0  0  0  0  0  0  0
    3.7421    3.5484   -1.7350 H   0  0  0  0  0  0  0  0  0  0  0  0
    2.2780    2.2117   -0.8532 C   0  0  0  0  0  0  0  0  0  0  0  0
    3.0125    1.7356   -0.1880 H   0  0  0  0  0  0  0  0  0  0  0  0
   -1.5205    2.0433   -1.6449 C   0  0  0  0  0  0  0  0  0  0  0  0
   -1.6363    1.1171   -1.0403 H   0  0  0  0  0  0  0  0  0  0  0  0
   -2.3504    3.1495   -0.9688 C   0  0  0  0  0  0  0  0  0  0  0  0
   -1.9996    3.3588    0.0603 H   0  0  0  0  0  0  0  0  0  0  0  0
   -3.4165    2.8485   -0.9132 H   0  0  0  0  0  0  0  0  0  0  0  0
   -2.2978    4.0965   -1.5456 H   0  0  0  0  0  0  0  0  0  0  0  0
   -2.0602    1.7123   -3.0443 C   0  0  0  0  0  0  0  0  0  0  0  0
   -2.0380    2.5956   -3.7158 H   0  0  0  0  0  0  0  0  0  0  0  0
   -3.1147    1.3775   -2.9714 H   0  0  0  0  0  0  0  0  0  0  0  0
   -1.4742    0.8937   -3.5034 H   0  0  0  0  0  0  0  0  0  0  0  0
  1 20  1  0  0  0  0
  1  2  1  0  0  0  0
  2  3  2  0  0  0  0
  2 10  1  0  0  0  0
  3  4  1  0  0  0  0
  4  5  1  0  0  0  0
  4  6  2  0  0  0  0
  6  7  1  0  0  0  0
  8  6  1  0  0  0  0
  8  9  1  0  0  0  0
 10  8  2  0  0  0  0
 11 10  1  0  0  0  0
 12 13  1  1  0  0  0
 12  3  1  0  0  0  0
 13 15  1  0  0  0  0
 14 13  1  0  0  0  0
 16 12  1  0  0  0  0
 16 19  1  0  0  0  0
 17 16  1  0  0  0  0
 18 16  1  0  0  0  0
 20 28  1  0  0  0  0
 21 20  2  0  0  0  0
 21 22  1  0  0  0  0
 22 24  2  0  0  0  0
 23 22  1  0  0  0  0
 24 26  1  0  0  0  0
 24 25  1  0  0  0  0
 26 27  1  0  0  0  0
 28 29  1  0  0  0  0
 28 26  2  0  0  0  0
 30 21  1  0  0  0  0
 31 30  1  0  0  0  0
 32 30  1  0  0  0  0
 32 33  1  0  0  0  0
 32 35  1  0  0  0  0
 34 32  1  0  0  0  0
 36 37  1  0  0  0  0
 36 39  1  0  0  0  0
 36 30  1  0  0  0  0
 38 36  1  0  0  0  0
 40  1  1  0  0  0  0
 41 50  1  0  0  0  0
 41 40  2  0  0  0  0
 42 41  1  0  0  0  0
 43 42  1  0  0  0  0
 44 42  2  0  0  0  0
 44 46  1  0  0  0  0
 45 44  1  0  0  0  0
 46 48  2  0  0  0  0
 47 46  1  0  0  0  0
 48 40  1  0  0  0  0
 48 49  1  0  0  0  0
 50 51  1  0  0  0  0
 50 52  1  0  0  0  0
 52 54  1  0  0  0  0
 52 53  1  0  0  0  0
 55 52  1  0  0  0  0
 56 58  1  0  0  0  0
 56 50  1  0  0  0  0
 57 56  1  0  0  0  0
 59 56  1  0  0  0  0
M  END
