25
q = nan, confidence = 0.0

 68 70  0  0  1  0  0  0  0  0999 V2000
    1.0786    0.0991    0.8770 N   0  0  0  0  0  0  0  0  0  0  0  0
    2.1323   -0.2924   -0.1052 C   0  0  0  0  0  0  0  0  0  0  0  0
    3.5771    0.0084    0.2974 C   0  0  0  0  0  0  0  0  0  0  0  0
    4.5576   -0.5603   -0.7498 C   0  0  0  0  0  0  0  0  0  0  0  0
    5.9567   -0.2863   -0.4355 C   0  0  0  0  0  0  0  0  0  0  0  0
    7.1247   -0.0473   -0.1568 C   0  0  0  0  0  0  0  0  0  0  0  0
    8.5207    0.2293    0.1550 C   0  0  0  0  0  0  0  0  0  0  0  0
    1.1749    1.5342    1.2330 C   0  0  0  0  0  0  0  0  0  0  0  0
   -0.0662    2.0240    1.9712 C   0  0  0  0  0  0  0  0  0  0  0  0
   -1.3541    1.6179    1.3112 N   0  0  2  0  0  0  0  0  0  0  0  0
   -1.9919    2.7960    0.6412 C   0  0  0  0  0  0  0  0  0  0  0  0
   -1.2614    3.3129   -0.6041 C   0  0  0  0  0  0  0  0  0  0  0  0
   -1.5375    2.5569   -1.9247 C   0  0  0  0  0  0  0  0  0  0  0  0
   -2.3034    0.9933    2.2785 C   0  0  0  0  0  0  0  0  0  0  0  0
   -1.7811   -0.3367    2.8163 C   0  0  0  0  0  0  0  0  0  0  0  0
   -1.3276   -1.2563    1.7247 N   0  0  2  0  0  0  0  0  0  0  0  0
   -2.3625   -2.3035    1.4761 C   0  0  0  0  0  0  0  0  0  0  0  0
   -2.2355   -3.1190    0.1858 C   0  0  0  0  0  0  0  0  0  0  0  0
   -2.7515   -2.4346   -1.0966 C   0  0  0  0  0  0  0  0  0  0  0  0
   -0.0009   -1.8505    2.0233 C   0  0  0  0  0  0  0  0  0  0  0  0
    1.0958   -0.7912    2.0745 C   0  0  0  0  0  0  0  0  0  0  0  0
   -0.3092    0.2628   -2.3444 C   0  0  0  0  0  0  0  0  0  0  0  0
    0.7657    0.6730   -2.8042 O   0  0  0  0  0  0  0  0  0  0  0  0
   -1.4596    1.0605   -1.8504 C   0  0  2  0  0  3  0  0  0  0  0  0
   -2.5476    0.1637   -1.4723 C   0  0  1  0  0  3  0  0  0  0  0  0
   -3.9947    0.5119   -1.2981 C   0  0  0  0  0  0  0  0  0  0  0  0
   -2.0084   -1.1905   -1.4915 C   0  0  0  0  0  0  0  0  0  0  0  0
   -0.6333   -1.1379   -1.9031 C   0  0  0  0  0  0  0  0  0  0  0  0
    0.2795   -2.2842   -2.1975 C   0  0  0  0  0  0  0  0  0  0  0  0
    1.8953    0.1999   -1.0725 H   0  0  0  0  0  0  0  0  0  0  0  0
    2.0112   -1.3812   -0.2732 H   0  0  0  0  0  0  0  0  0  0  0  0
    3.8273   -0.4220    1.2914 H   0  0  0  0  0  0  0  0  0  0  0  0
    3.7467    1.1018    0.3766 H   0  0  0  0  0  0  0  0  0  0  0  0
    4.3040   -0.1411   -1.7497 H   0  0  0  0  0  0  0  0  0  0  0  0
    4.4010   -1.6596   -0.8403 H   0  0  0  0  0  0  0  0  0  0  0  0
    9.0398    0.7020   -0.7048 H   0  0  0  0  0  0  0  0  0  0  0  0
    9.0719   -0.7006    0.4071 H   0  0  0  0  0  0  0  0  0  0  0  0
    8.6155    0.9181    1.0203 H   0  0  0  0  0  0  0  0  0  0  0  0
    1.3059    2.0842    0.2815 H   0  0  0  0  0  0  0  0  0  0  0  0
    2.0687    1.7462    1.8632 H   0  0  0  0  0  0  0  0  0  0  0  0
   -0.0223    3.1290    2.0594 H   0  0  0  0  0  0  0  0  0  0  0  0
   -0.0690    1.6426    3.0105 H   0  0  0  0  0  0  0  0  0  0  0  0
   -2.0671    3.6097    1.3975 H   0  0  0  0  0  0  0  0  0  0  0  0
   -3.0290    2.5060    0.3851 H   0  0  0  0  0  0  0  0  0  0  0  0
   -0.1699    3.3441   -0.4111 H   0  0  0  0  0  0  0  0  0  0  0  0
   -1.5581    4.3732   -0.7408 H   0  0  0  0  0  0  0  0  0  0  0  0
   -0.7984    2.8953   -2.6800 H   0  0  0  0  0  0  0  0  0  0  0  0
   -2.5397    2.8511   -2.3025 H   0  0  0  0  0  0  0  0  0  0  0  0
   -3.2533    0.8345    1.7322 H   0  0  0  0  0  0  0  0  0  0  0  0
   -2.5190    1.6823    3.1289 H   0  0  0  0  0  0  0  0  0  0  0  0
   -2.5743   -0.8184    3.4259 H   0  0  0  0  0  0  0  0  0  0  0  0
   -0.9399   -0.1644    3.5133 H   0  0  0  0  0  0  0  0  0  0  0  0
   -3.3456   -1.7898    1.4829 H   0  0  0  0  0  0  0  0  0  0  0  0
   -2.3584   -2.9986    2.3479 H   0  0  0  0  0  0  0  0  0  0  0  0
   -2.8254   -4.0460    0.3392 H   0  0  0  0  0  0  0  0  0  0  0  0
   -1.1911   -3.4648    0.0454 H   0  0  0  0  0  0  0  0  0  0  0  0
   -3.8303   -2.2089   -0.9771 H   0  0  0  0  0  0  0  0  0  0  0  0
   -2.6810   -3.1645   -1.9312 H   0  0  0  0  0  0  0  0  0  0  0  0
    0.2217   -2.5753    1.2179 H   0  0  0  0  0  0  0  0  0  0  0  0
   -0.0203   -2.4182    2.9840 H   0  0  0  0  0  0  0  0  0  0  0  0
    0.9981   -0.1757    2.9895 H   0  0  0  0  0  0  0  0  0  0  0  0
    2.0784   -1.2968    2.1686 H   0  0  0  0  0  0  0  0  0  0  0  0
   -4.1442    1.5867   -1.0836 H   0  0  0  0  0  0  0  0  0  0  0  0
   -4.4765   -0.0685   -0.4863 H   0  0  0  0  0  0  0  0  0  0  0  0
   -4.5565    0.2931   -2.2315 H   0  0  0  0  0  0  0  0  0  0  0  0
   -0.1558   -2.9279   -2.9916 H   0  0  0  0  0  0  0  0  0  0  0  0
    0.4792   -2.9390   -1.3260 H   0  0  0  0  0  0  0  0  0  0  0  0
    1.2425   -1.8924   -2.5786 H   0  0  0  0  0  0  0  0  0  0  0  0
  1  8  1  0  0  0  0
  1 21  1  0  0  0  0
  2  3  1  0  0  0  0
  2  1  1  0  0  0  0
  3 33  1  0  0  0  0
  3 32  1  0  0  0  0
  4  5  1  0  0  0  0
  4  3  1  0  0  0  0
  5  6  3  0  0  0  0
  6  7  1  0  0  0  0
  7 37  1  0  0  0  0
  7 38  1  0  0  0  0
  8 40  1  0  0  0  0
  8  9  1  0  0  0  0
  9 41  1  0  0  0  0
  9 42  1  0  0  0  0
 10 11  1  1  0  0  0
 10  9  1  0  0  0  0
 10 14  1  0  0  0  0
 11 43  1  0  0  0  0
 12 45  1  0  0  0  0
 12 11  1  0  0  0  0
 13 24  1  0  0  0  0
 13 12  1  0  0  0  0
 14 15  1  0  0  0  0
 14 50  1  0  0  0  0
 15 51  1  0  0  0  0
 15 52  1  0  0  0  0
 16 17  1  1  0  0  0
 16 20  1  0  0  0  0
 16 15  1  0  0  0  0
 17 53  1  0  0  0  0
 17 54  1  0  0  0  0
 18 55  1  0  0  0  0
 18 17  1  0  0  0  0
 19 57  1  0  0  0  0
 19 18  1  0  0  0  0
 20 21  1  0  0  0  0
 20 60  1  0  0  0  0
 21 62  1  0  0  0  0
 21 61  1  0  0  0  0
 22 28  1  0  0  0  0
 23 22  2  0  0  0  0
 24 22  1  6  0  0  0
 24 25  1  0  0  0  0
 25 26  1  6  0  0  0
 26 63  1  0  0  0  0
 26 64  1  0  0  0  0
 27 25  1  0  0  0  0
 27 19  1  0  0  0  0
 28 27  2  0  0  0  0
 29 28  1  0  0  0  0
 29 67  1  0  0  0  0
 30  2  1  0  0  0  0
 31  2  1  0  0  0  0
 34  4  1  0  0  0  0
 35  4  1  0  0  0  0
 36  7  1  0  0  0  0
 39  8  1  0  0  0  0
 44 11  1  0  0  0  0
 46 12  1  0  0  0  0
 47 13  1  0  0  0  0
 48 13  1  0  0  0  0
 49 14  1  0  0  0  0
 56 18  1  0  0  0  0
 58 19  1  0  0  0  0
 59 20  1  0  0  0  0
 65 26  1  0  0  0  0
 66 29  1  0  0  0  0
 68 29  1  0  0  0  0
M  END
