4
q = 0.0, confidence = 0.574

 32 33  0  0  1  0  0  0  0  0999 V2000
    0.3188    1.5876    1.6784 C   0  0  0  0  0  0  0  0  0  0  0  0
    0.8858    2.2830    0.5691 C   0  0  0  0  0  0  0  0  0  0  0  0
    1.9239    1.4931   -0.0500 C   0  0  2  0  0  3  0  0  0  0  0  0
    2.0313    0.2676    0.7182 C   0  0  2  0  0  3  0  0  0  0  0  0
    2.1761   -1.1139    0.3013 C   0  0  2  0  0  3  0  0  0  0  0  0
    1.2741   -1.8920    1.1139 C   0  0  0  0  0  0  0  0  0  0  0  0
    0.5511   -1.0480    2.0128 C   0  0  0  0  0  0  0  0  0  0  0  0
    1.0004    0.3088    1.7636 C   0  0  2  0  0  3  0  0  0  0  0  0
   -0.6696    2.1680    2.6452 C   0  0  0  0  0  0  0  0  0  0  0  0
    0.5177    3.6755    0.1509 C   0  0  0  0  0  0  0  0  0  0  0  0
    2.8671    2.0079   -1.1000 C   0  0  0  0  0  0  0  0  0  0  0  0
    3.2224   -1.6719   -0.6186 C   0  0  0  0  0  0  0  0  0  0  0  0
    1.1521   -3.3864    1.0797 C   0  0  0  0  0  0  0  0  0  0  0  0
   -0.3667   -1.5385    3.0954 C   0  0  0  0  0  0  0  0  0  0  0  0
   -1.2191    1.3913    3.2084 H   0  0  0  0  0  0  0  0  0  0  0  0
   -1.4240    2.8029    2.1420 H   0  0  0  0  0  0  0  0  0  0  0  0
   -0.1489    2.8045    3.3939 H   0  0  0  0  0  0  0  0  0  0  0  0
    0.6922    3.8408   -0.9299 H   0  0  0  0  0  0  0  0  0  0  0  0
   -0.5457    3.9007    0.3626 H   0  0  0  0  0  0  0  0  0  0  0  0
    1.1279    4.4267    0.6985 H   0  0  0  0  0  0  0  0  0  0  0  0
    3.4844    1.1976   -1.5303 H   0  0  0  0  0  0  0  0  0  0  0  0
    2.3395    2.5118   -1.9350 H   0  0  0  0  0  0  0  0  0  0  0  0
    3.5696    2.7529   -0.6658 H   0  0  0  0  0  0  0  0  0  0  0  0
    2.9530   -2.6794   -0.9905 H   0  0  0  0  0  0  0  0  0  0  0  0
    3.4003   -1.0271   -1.5007 H   0  0  0  0  0  0  0  0  0  0  0  0
    4.1948   -1.7721   -0.0892 H   0  0  0  0  0  0  0  0  0  0  0  0
    0.1327   -3.7180    1.3572 H   0  0  0  0  0  0  0  0  0  0  0  0
    1.3826   -3.7995    0.0784 H   0  0  0  0  0  0  0  0  0  0  0  0
    1.8575   -3.8576    1.7985 H   0  0  0  0  0  0  0  0  0  0  0  0
   -0.9008   -0.7081    3.5924 H   0  0  0  0  0  0  0  0  0  0  0  0
   -1.1340   -2.2419    2.7153 H   0  0  0  0  0  0  0  0  0  0  0  0
    0.2077   -2.0715    3.8842 H   0  0  0  0  0  0  0  0  0  0  0  0
  1  8  1  0  0  0  0
  1  9  1  0  0  0  0
  2  1  2  0  0  0  0
  3 11  1  1  0  0  0
  3  2  1  0  0  0  0
  3  4  1  0  0  0  0
  4  8  1  0  0  0  0
  5 12  1  1  0  0  0
  5  4  1  0  0  0  0
  5  6  1  0  0  0  0
  6  7  2  0  0  0  0
  7 14  1  0  0  0  0
  8  7  1  0  0  0  0
  9 15  1  0  0  0  0
  9 17  1  0  0  0  0
 10 19  1  0  0  0  0
 10  2  1  0  0  0  0
 10 20  1  0  0  0  0
 11 23  1  0  0  0  0
 12 26  1  0  0  0  0
 13  6  1  0  0  0  0
 13 27  1  0  0  0  0
 13 29  1  0  0  0  0
 14 30  1  0  0  0  0
 14 32  1  0  0  0  0
 16  9  1  0  0  0  0
 18 10  1  0  0  0  0
 21 11  1  0  0  0  0
 22 11  1  0  0  0  0
 24 12  1  0  0  0  0
 25 12  1  0  0  0  0
 28 13  1  0  0  0  0
 31 14  1  0  0  0  0
M  END
