4
q = 0.0, confidence = 0.986

 17 18  0  0  0  0  0  0  0  0999 V2000
    1.1833   -3.1059   -0.3769 N   0  0  0  0  0  0  0  0  0  0  0  0
    0.2124   -2.7745   -1.1974 C   0  0  0  0  0  0  0  0  0  0  0  0
   -0.6514   -3.4691   -1.2450 H   0  0  0  0  0  0  0  0  0  0  0  0
    0.1697   -1.5944   -2.0323 C   0  0  0  0  0  3  0  0  0  0  0  0
   -0.5340   -1.5705   -2.8813 H   0  0  0  0  0  0  0  0  0  0  0  0
    1.2766   -0.6683   -1.9318 C   0  0  0  0  0  3  0  0  0  0  0  0
    1.4684    0.0557   -2.7425 H   0  0  0  0  0  0  0  0  0  0  0  0
    2.4219   -1.0844   -1.1250 C   0  0  0  0  0  0  0  0  0  0  0  0
    3.6206   -0.3380   -1.0558 C   0  0  0  0  0  0  0  0  0  0  0  0
    3.7141    0.5700   -1.6744 H   0  0  0  0  0  0  0  0  0  0  0  0
    4.6701   -0.7284   -0.2169 C   0  0  0  0  0  0  0  0  0  0  0  0
    5.5917   -0.1274   -0.1744 H   0  0  0  0  0  0  0  0  0  0  0  0
    4.5470   -1.8906    0.5726 C   0  0  0  0  0  0  0  0  0  0  0  0
    5.3708   -2.1979    1.2347 H   0  0  0  0  0  0  0  0  0  0  0  0
    3.3808   -2.6578    0.5023 C   0  0  0  0  0  0  0  0  0  0  0  0
    3.2571   -3.5791    1.0908 H   0  0  0  0  0  0  0  0  0  0  0  0
    2.3053   -2.2812   -0.3378 C   0  0  0  0  0  0  0  0  0  0  0  0
  1 17  1  0  0  0  0
  2  1  2  0  0  0  0
  3  2  1  0  0  0  0
  4  6  1  0  0  0  0
  4  2  1  0  0  0  0
  5  4  1  0  0  0  0
  6  8  1  0  0  0  0
  7  6  1  0  0  0  0
  8  9  2  0  0  0  0
  8 17  1  0  0  0  0
  9 11  1  0  0  0  0
 10  9  1  0  0  0  0
 11 12  1  0  0  0  0
 11 13  2  0  0  0  0
 13 14  1  0  0  0  0
 15 13  1  0  0  0  0
 15 16  1  0  0  0  0
 17 15  2  0  0  0  0
M  END
