5
q = 0.0, confidence = 0.978

 18 18  0  0  1  0  0  0  0  0999 V2000
    3.5039   -0.8213   -0.7560 C   0  0  0  0  0  0  0  0  0  0  0  0
    2.8780    0.4252   -1.1923 C   0  0  1  0  0  3  0  0  0  0  0  0
    1.6678    0.3721   -1.9492 C   0  0  0  0  0  0  0  0  0  0  0  0
    1.0077   -0.8774   -2.2194 C   0  0  0  0  0  0  0  0  0  0  0  0
    1.5972   -2.0879   -1.7583 C   0  0  0  0  0  3  0  0  0  0  0  0
    2.8552   -2.0464   -1.0578 C   0  0  0  0  0  0  0  0  0  0  0  0
    4.7228   -0.7867    0.1188 C   0  0  0  0  0  0  0  0  0  0  0  0
    3.4833    1.7481   -0.8173 C   0  0  0  0  0  0  0  0  0  0  0  0
    1.2053    1.3182   -2.2655 H   0  0  0  0  0  0  0  0  0  0  0  0
    0.0365   -0.8944   -2.7357 H   0  0  0  0  0  0  0  0  0  0  0  0
    1.0724   -3.0457   -1.8788 H   0  0  0  0  0  0  0  0  0  0  0  0
    3.2532   -2.9767   -0.6274 H   0  0  0  0  0  0  0  0  0  0  0  0
    5.0523   -1.8090    0.3810 H   0  0  0  0  0  0  0  0  0  0  0  0
    5.5625   -0.2589   -0.3772 H   0  0  0  0  0  0  0  0  0  0  0  0
    4.4819   -0.2490    1.0614 H   0  0  0  0  0  0  0  0  0  0  0  0
    3.5044    1.8466    0.2883 H   0  0  0  0  0  0  0  0  0  0  0  0
    4.5215    1.8349   -1.1978 H   0  0  0  0  0  0  0  0  0  0  0  0
    2.8908    2.5872   -1.2283 H   0  0  0  0  0  0  0  0  0  0  0  0
  1  7  1  0  0  0  0
  2  8  1  1  0  0  0
  2  1  1  0  0  0  0
  3  2  1  0  0  0  0
  4  3  2  0  0  0  0
  4  5  1  0  0  0  0
  5  6  1  0  0  0  0
  6  1  2  0  0  0  0
  6 12  1  0  0  0  0
  7 13  1  0  0  0  0
  7 15  1  0  0  0  0
  8 16  1  0  0  0  0
  9  3  1  0  0  0  0
 10  4  1  0  0  0  0
 11  5  1  0  0  0  0
 14  7  1  0  0  0  0
 17  8  1  0  0  0  0
 18  8  1  0  0  0  0
M  END
