24
q = 0.0, confidence = 0.996

 25 24  0  0  0  0  0  0  0  0999 V2000
    0.6202    1.8306    0.0028 S   0  0  0  0  0  0  0  0  0  0  0  0
    2.2666    1.0278    0.2453 C   0  0  0  0  0  0  0  0  0  0  0  0
    2.2764   -0.3091   -0.5218 C   0  0  0  0  0  0  0  0  0  0  0  0
   -0.0225   -2.3988    1.9261 C   0  0  0  0  0  0  0  0  0  0  0  0
    0.3149    2.6439    1.5999 C   0  0  0  0  0  0  0  0  0  0  0  0
    3.5968   -1.0475   -0.2063 C   0  0  0  0  0  0  0  0  0  0  0  0
    2.1748   -0.0579   -2.0390 C   0  0  0  0  0  0  0  0  0  0  0  0
    2.4321    0.8799    1.3311 H   0  0  0  0  0  0  0  0  0  0  0  0
    3.0484    1.7165   -0.1329 H   0  0  0  0  0  0  0  0  0  0  0  0
    0.9488   -2.0988   -0.6823 H   0  0  0  0  0  0  0  0  0  0  0  0
    0.9768   -0.4436    1.9517 H   0  0  0  0  0  0  0  0  0  0  0  0
   -0.8272   -2.0894    2.6213 H   0  0  0  0  0  0  0  0  0  0  0  0
   -0.4526   -3.1088    1.1977 H   0  0  0  0  0  0  0  0  0  0  0  0
    0.7596   -2.9109    2.5307 H   0  0  0  0  0  0  0  0  0  0  0  0
   -0.7431    2.9640    1.5405 H   0  0  0  0  0  0  0  0  0  0  0  0
    0.4472    1.9366    2.4405 H   0  0  0  0  0  0  0  0  0  0  0  0
    0.9807    3.5216    1.7071 H   0  0  0  0  0  0  0  0  0  0  0  0
    3.7019   -1.2378    0.8808 H   0  0  0  0  0  0  0  0  0  0  0  0
    3.6251   -2.0251   -0.7278 H   0  0  0  0  0  0  0  0  0  0  0  0
    4.4720   -0.4573   -0.5470 H   0  0  0  0  0  0  0  0  0  0  0  0
    2.1690   -1.0205   -2.5879 H   0  0  0  0  0  0  0  0  0  0  0  0
    1.2401    0.4755   -2.3070 H   0  0  0  0  0  0  0  0  0  0  0  0
    3.0362    0.5401   -2.3995 H   0  0  0  0  0  0  0  0  0  0  0  0
    1.1142   -1.1990   -0.0627 C   0  0  0  0  0  3  0  0  0  0  0  0
    0.6009   -1.2119    1.2496 C   0  0  0  0  0  3  0  0  0  0  0  0
  1  2  1  0  0  0  0
  1  5  1  0  0  0  0
  2  8  1  0  0  0  0
  3  6  1  0  0  0  0
  3 24  1  0  0  0  0
  3  2  1  0  0  0  0
  4 14  1  0  0  0  0
  4 12  1  0  0  0  0
  5 17  1  0  0  0  0
  5 16  1  0  0  0  0
  6 18  1  0  0  0  0
  7  3  1  0  0  0  0
  9  2  1  0  0  0  0
 10 24  1  0  0  0  0
 13  4  1  0  0  0  0
 15  5  1  0  0  0  0
 19  6  1  0  0  0  0
 20  6  1  0  0  0  0
 21  7  1  0  0  0  0
 22  7  1  0  0  0  0
 23  7  1  0  0  0  0
 24 25  1  0  0  0  0
 25  4  1  0  0  0  0
 25 11  1  0  0  0  0
M  END
