1
q = 0.0, confidence = 0.998

 26 27  0  0  0  0  0  0  0  0999 V2000
    2.3913   -1.5593    0.0274 C   0  0  0  0  0  2  0  0  0  0  0  0
    3.4368   -0.6951    0.0709 N   0  0  0  0  0  0  0  0  0  0  0  0
    4.6333   -1.3592    0.0952 N   0  0  0  0  0  0  0  0  0  0  0  0
    4.3755   -2.6109    0.0703 N   0  0  0  0  0  0  0  0  0  0  0  0
    3.0171   -2.7579    0.0302 N   0  0  0  0  0  0  0  0  0  0  0  0
    2.4343   -4.0918    0.0006 C   0  0  0  0  0  0  0  0  0  0  0  0
    2.8329   -4.6467   -0.8688 H   0  0  0  0  0  0  0  0  0  0  0  0
    1.3387   -3.9871   -0.0840 H   0  0  0  0  0  0  0  0  0  0  0  0
    2.6941   -4.6303    0.9311 H   0  0  0  0  0  0  0  0  0  0  0  0
    3.3575    0.7441    0.0790 C   0  0  0  0  0  0  0  0  0  0  0  0
    3.5600    1.4232   -1.1430 C   0  0  0  0  0  0  0  0  0  0  0  0
    3.4580    2.8264   -1.1151 C   0  0  0  0  0  0  0  0  0  0  0  0
    3.6143    3.3898   -2.0471 H   0  0  0  0  0  0  0  0  0  0  0  0
    3.1686    3.5030    0.0782 C   0  0  0  0  0  0  0  0  0  0  0  0
    3.1041    4.6015    0.0812 H   0  0  0  0  0  0  0  0  0  0  0  0
    2.9707    2.7938    1.2712 C   0  0  0  0  0  0  0  0  0  0  0  0
    2.7516    3.3332    2.2048 H   0  0  0  0  0  0  0  0  0  0  0  0
    3.0651    1.3894    1.3015 C   0  0  0  0  0  0  0  0  0  0  0  0
    2.8501    0.6117    2.5726 C   0  0  0  0  0  0  0  0  0  0  0  0
    2.8432    1.2838    3.4501 H   0  0  0  0  0  0  0  0  0  0  0  0
    3.6409   -0.1491    2.7293 H   0  0  0  0  0  0  0  0  0  0  0  0
    1.8762    0.0749    2.5557 H   0  0  0  0  0  0  0  0  0  0  0  0
    3.8643    0.6721   -2.4111 C   0  0  0  0  0  0  0  0  0  0  0  0
    3.9638    1.3639   -3.2673 H   0  0  0  0  0  0  0  0  0  0  0  0
    3.0607   -0.0551   -2.6541 H   0  0  0  0  0  0  0  0  0  0  0  0
    4.8090    0.0972   -2.3238 H   0  0  0  0  0  0  0  0  0  0  0  0
  1  5  1  0  0  0  0
  1  2  1  0  0  0  0
  2 10  1  0  0  0  0
  2  3  1  0  0  0  0
  4  3  2  0  0  0  0
  5  4  1  0  0  0  0
  6  5  1  0  0  0  0
  6  9  1  0  0  0  0
  7  6  1  0  0  0  0
  8  6  1  0  0  0  0
 10 18  1  0  0  0  0
 11 12  1  0  0  0  0
 11 10  2  0  0  0  0
 12 14  2  0  0  0  0
 13 12  1  0  0  0  0
 14 15  1  0  0  0  0
 14 16  1  0  0  0  0
 16 18  2  0  0  0  0
 16 17  1  0  0  0  0
 18 19  1  0  0  0  0
 19 21  1  0  0  0  0
 19 20  1  0  0  0  0
 22 19  1  0  0  0  0
 23 26  1  0  0  0  0
 23 11  1  0  0  0  0
 24 23  1  0  0  0  0
 25 23  1  0  0  0  0
M  END
