7
q = 0.0, confidence = 0.956

 18 18  0  0  0  0  0  0  0  0999 V2000
    2.2238    2.3118    0.1041 O   0  0  0  0  0  0  0  0  0  0  0  0
    3.6117    0.0963    0.1487 O   0  0  0  0  0  0  0  0  0  0  0  0
    1.6204    1.2943   -0.2214 C   0  0  0  0  0  0  0  0  0  0  0  0
    2.3091   -0.0360   -0.1880 C   0  0  0  0  0  0  0  0  0  0  0  0
    1.6601   -1.2216   -0.3888 C   0  0  0  0  0  0  0  0  0  0  0  0
    0.2619   -1.4139   -0.7951 C   0  0  0  0  0  3  0  0  0  0  0  0
   -0.4478   -0.6729   -1.8159 C   0  0  0  0  0  3  0  0  0  0  0  0
   -0.4616    0.7398   -1.7497 C   0  0  0  0  0  3  0  0  0  0  0  0
    0.1844    1.4040   -0.6372 C   0  0  0  0  0  3  0  0  0  0  0  0
    4.3845   -1.0764    0.3023 C   0  0  0  0  0  0  0  0  0  0  0  0
    2.2170   -2.1573   -0.2281 H   0  0  0  0  0  0  0  0  0  0  0  0
   -0.0367   -2.4741   -0.7447 H   0  0  0  0  0  0  0  0  0  0  0  0
   -1.0752   -1.1918   -2.5578 H   0  0  0  0  0  0  0  0  0  0  0  0
   -1.0852    1.3129   -2.4541 H   0  0  0  0  0  0  0  0  0  0  0  0
   -0.1204    2.4539   -0.4924 H   0  0  0  0  0  0  0  0  0  0  0  0
    3.9925   -1.7217    1.1212 H   0  0  0  0  0  0  0  0  0  0  0  0
    4.4145   -1.6757   -0.6363 H   0  0  0  0  0  0  0  0  0  0  0  0
    5.4081   -0.7473    0.5586 H   0  0  0  0  0  0  0  0  0  0  0  0
  2 10  1  0  0  0  0
  3  4  1  0  0  0  0
  3  1  2  0  0  0  0
  4  2  1  0  0  0  0
  5 11  1  0  0  0  0
  5  4  2  0  0  0  0
  6 12  1  0  0  0  0
  6  5  1  0  0  0  0
  7  8  1  0  0  0  0
  7  6  1  0  0  0  0
  8  9  1  0  0  0  0
  9 15  1  0  0  0  0
  9  3  1  0  0  0  0
 10 18  1  0  0  0  0
 10 16  1  0  0  0  0
 13  7  1  0  0  0  0
 14  8  1  0  0  0  0
 17 10  1  0  0  0  0
M  END
