6
q = 0.0, confidence = 0.988

 28 28  0  0  1  0  0  0  0  0999 V2000
    0.1130    3.2286    0.5375 O   0  0  0  0  0  0  0  0  0  0  0  0
    0.2512    2.2183   -0.1456 C   0  0  0  0  0  0  0  0  0  0  0  0
    1.6092    1.5656   -0.3359 C   0  0  0  0  0  0  0  0  0  0  0  0
    1.6905    0.1394    0.2316 C   0  0  1  0  0  0  0  0  0  0  0  0
    0.5905   -0.7636   -0.3080 C   0  0  0  0  0  3  0  0  0  0  0  0
   -0.1157   -0.6192   -1.5595 C   0  0  0  0  0  3  0  0  0  0  0  0
   -0.8652    0.5602   -1.8312 C   0  0  0  0  0  3  0  0  0  0  0  0
   -0.9109    1.6218   -0.8566 C   0  0  0  0  0  3  0  0  0  0  0  0
    3.1139   -0.5222    0.0362 C   0  0  0  0  0  0  0  0  0  0  0  0
    4.2064    0.4509    0.5222 C   0  0  0  0  0  0  0  0  0  0  0  0
    3.2108   -1.7976    0.8976 C   0  0  0  0  0  0  0  0  0  0  0  0
    3.3722   -0.8788   -1.4384 C   0  0  0  0  0  0  0  0  0  0  0  0
    2.3403    2.2287    0.1586 H   0  0  0  0  0  0  0  0  0  0  0  0
    1.8348    1.5431   -1.4244 H   0  0  0  0  0  0  0  0  0  0  0  0
    1.5633    0.2191    1.3340 H   0  0  0  0  0  0  0  0  0  0  0  0
    0.7810   -1.8199   -0.0558 H   0  0  0  0  0  0  0  0  0  0  0  0
   -0.2447   -1.4822   -2.2340 H   0  0  0  0  0  0  0  0  0  0  0  0
   -1.5261    0.5808   -2.7126 H   0  0  0  0  0  0  0  0  0  0  0  0
   -1.7383    2.3448   -0.9464 H   0  0  0  0  0  0  0  0  0  0  0  0
    4.3034    1.3376   -0.1339 H   0  0  0  0  0  0  0  0  0  0  0  0
    4.0007    0.8074    1.5529 H   0  0  0  0  0  0  0  0  0  0  0  0
    5.1909   -0.0593    0.5333 H   0  0  0  0  0  0  0  0  0  0  0  0
    3.0242   -1.5727    1.9680 H   0  0  0  0  0  0  0  0  0  0  0  0
    4.2253   -2.2380    0.8176 H   0  0  0  0  0  0  0  0  0  0  0  0
    2.4937   -2.5826    0.5847 H   0  0  0  0  0  0  0  0  0  0  0  0
    4.3931   -1.2945   -1.5612 H   0  0  0  0  0  0  0  0  0  0  0  0
    2.6568   -1.6388   -1.8120 H   0  0  0  0  0  0  0  0  0  0  0  0
    3.2974    0.0105   -2.0972 H   0  0  0  0  0  0  0  0  0  0  0  0
  2  1  2  0  0  0  0
  3  2  1  0  0  0  0
  3 13  1  0  0  0  0
  3  4  1  0  0  0  0
  4 15  1  1  0  0  0
  5 16  1  0  0  0  0
  5  4  1  0  0  0  0
  6  5  1  0  0  0  0
  7  6  1  0  0  0  0
  7  8  1  0  0  0  0
  8  2  1  0  0  0  0
  9  4  1  0  0  0  0
  9 10  1  0  0  0  0
  9 11  1  0  0  0  0
 10 22  1  0  0  0  0
 10 21  1  0  0  0  0
 11 23  1  0  0  0  0
 12  9  1  0  0  0  0
 14  3  1  0  0  0  0
 17  6  1  0  0  0  0
 18  7  1  0  0  0  0
 19  8  1  0  0  0  0
 20 10  1  0  0  0  0
 24 11  1  0  0  0  0
 25 11  1  0  0  0  0
 26 12  1  0  0  0  0
 27 12  1  0  0  0  0
 28 12  1  0  0  0  0
M  END
