6
q = 0.0, confidence = 0.958

 28 28  0  0  1  0  0  0  0  0999 V2000
    1.9932    3.0102   -0.3409 O   0  0  0  0  0  0  0  0  0  0  0  0
    2.2244    1.9897    0.3170 C   0  0  0  0  0  0  0  0  0  0  0  0
    3.6405    1.4595    0.4563 C   0  0  0  0  0  0  0  0  0  0  0  0
    3.8467    0.1201   -0.2710 C   0  0  2  0  0  0  0  0  0  0  0  0
    2.8189   -0.9213    0.1476 C   0  0  0  0  0  3  0  0  0  0  0  0
    2.1165   -0.9851    1.4066 C   0  0  0  0  0  3  0  0  0  0  0  0
    1.2854    0.0888    1.8325 C   0  0  0  0  0  3  0  0  0  0  0  0
    1.1443    1.2638    1.0134 C   0  0  0  0  0  3  0  0  0  0  0  0
    5.3200   -0.4357   -0.1392 C   0  0  0  0  0  0  0  0  0  0  0  0
    5.5234   -1.5914   -1.1397 C   0  0  0  0  0  0  0  0  0  0  0  0
    6.3273    0.6740   -0.4998 C   0  0  0  0  0  0  0  0  0  0  0  0
    5.6075   -0.9377    1.2867 C   0  0  0  0  0  0  0  0  0  0  0  0
    3.8705    1.3355    1.5363 H   0  0  0  0  0  0  0  0  0  0  0  0
    4.3039    2.2375    0.0392 H   0  0  0  0  0  0  0  0  0  0  0  0
    3.7121    0.3204   -1.3573 H   0  0  0  0  0  0  0  0  0  0  0  0
    3.0758   -1.9208   -0.2409 H   0  0  0  0  0  0  0  0  0  0  0  0
    2.0573   -1.9338    1.9674 H   0  0  0  0  0  0  0  0  0  0  0  0
    0.6397   -0.0515    2.7136 H   0  0  0  0  0  0  0  0  0  0  0  0
    0.2799    1.9103    1.2422 H   0  0  0  0  0  0  0  0  0  0  0  0
    5.3167   -1.2611   -2.1788 H   0  0  0  0  0  0  0  0  0  0  0  0
    6.5713   -1.9535   -1.1022 H   0  0  0  0  0  0  0  0  0  0  0  0
    4.8716   -2.4613   -0.9244 H   0  0  0  0  0  0  0  0  0  0  0  0
    6.0919    1.1269   -1.4855 H   0  0  0  0  0  0  0  0  0  0  0  0
    6.3465    1.4858    0.2533 H   0  0  0  0  0  0  0  0  0  0  0  0
    7.3524    0.2543   -0.5585 H   0  0  0  0  0  0  0  0  0  0  0  0
    5.4595   -0.1387    2.0418 H   0  0  0  0  0  0  0  0  0  0  0  0
    6.6586   -1.2824    1.3713 H   0  0  0  0  0  0  0  0  0  0  0  0
    4.9528   -1.7886    1.5627 H   0  0  0  0  0  0  0  0  0  0  0  0
  1  2  2  0  0  0  0
  2  3  1  0  0  0  0
  2  8  1  0  0  0  0
  3 13  1  0  0  0  0
  4 15  1  6  0  0  0
  4  9  1  0  0  0  0
  4  5  1  0  0  0  0
  4  3  1  0  0  0  0
  5  6  1  0  0  0  0
  6  7  1  0  0  0  0
  6 17  1  0  0  0  0
  7 18  1  0  0  0  0
  8 19  1  0  0  0  0
  8  7  1  0  0  0  0
  9 12  1  0  0  0  0
 10 21  1  0  0  0  0
 10 22  1  0  0  0  0
 10  9  1  0  0  0  0
 11  9  1  0  0  0  0
 11 24  1  0  0  0  0
 12 27  1  0  0  0  0
 12 28  1  0  0  0  0
 12 26  1  0  0  0  0
 14  3  1  0  0  0  0
 16  5  1  0  0  0  0
 20 10  1  0  0  0  0
 23 11  1  0  0  0  0
 25 11  1  0  0  0  0
M  END
