4
q = 0.0, confidence = 0.61

 58 62  0  0  1  0  0  0  0  0999 V2000
   -0.3456   -2.1056   -1.1550 C   0  0  0  0  0  0  0  0  0  0  0  0
    0.9392   -1.5124   -0.6289 C   0  0  2  0  0  3  0  0  0  0  0  0
    0.6690   -0.1382   -0.2503 C   0  0  2  0  0  3  0  0  0  0  0  0
   -0.7725    0.0622   -0.2263 C   0  0  2  0  0  3  0  0  0  0  0  0
   -1.3978   -1.1973   -0.5818 C   0  0  1  0  0  3  0  0  0  0  0  0
    2.2636   -2.1510   -0.7732 C   0  0  0  0  0  0  0  0  0  0  0  0
    2.4541   -3.1496   -1.7580 C   0  0  0  0  0  0  0  0  0  0  0  0
    1.5958   -3.4541   -2.3713 H   0  0  0  0  0  0  0  0  0  0  0  0
    3.7091   -3.7530   -1.9263 C   0  0  0  0  0  0  0  0  0  0  0  0
    3.8367   -4.5270   -2.6986 H   0  0  0  0  0  0  0  0  0  0  0  0
    4.7924   -3.3821   -1.1169 C   0  0  0  0  0  0  0  0  0  0  0  0
    5.7751   -3.8599   -1.2493 H   0  0  0  0  0  0  0  0  0  0  0  0
    4.6103   -2.4022   -0.1257 C   0  0  0  0  0  0  0  0  0  0  0  0
    5.4487   -2.1118    0.5257 H   0  0  0  0  0  0  0  0  0  0  0  0
    3.3623   -1.7941    0.0462 C   0  0  0  0  0  0  0  0  0  0  0  0
    3.2398   -1.0367    0.8317 H   0  0  0  0  0  0  0  0  0  0  0  0
    1.6644    0.9465   -0.0945 C   0  0  0  0  0  0  0  0  0  0  0  0
    2.6723    1.1087   -1.0651 C   0  0  0  0  0  0  0  0  0  0  0  0
    2.7412    0.3942   -1.8982 H   0  0  0  0  0  0  0  0  0  0  0  0
    3.5897    2.1672   -0.9963 C   0  0  0  0  0  0  0  0  0  0  0  0
    4.3598    2.2582   -1.7735 H   0  0  0  0  0  0  0  0  0  0  0  0
    3.5128    3.0912    0.0662 C   0  0  0  0  0  0  0  0  0  0  0  0
    2.5039    2.9388    1.0444 C   0  0  0  0  0  0  0  0  0  0  0  0
    2.4608    3.6663    1.8674 H   0  0  0  0  0  0  0  0  0  0  0  0
    1.5953    1.8866    0.9600 C   0  0  0  0  0  0  0  0  0  0  0  0
    0.8129    1.7826    1.7252 H   0  0  0  0  0  0  0  0  0  0  0  0
    5.3926    4.3361   -0.7074 C   0  0  0  0  0  0  0  0  0  0  0  0
    5.9513    5.2323   -0.3801 H   0  0  0  0  0  0  0  0  0  0  0  0
    4.9968    4.5114   -1.7330 H   0  0  0  0  0  0  0  0  0  0  0  0
    6.0876    3.4673   -0.7381 H   0  0  0  0  0  0  0  0  0  0  0  0
   -1.4278    1.3871   -0.1045 C   0  0  0  0  0  0  0  0  0  0  0  0
   -0.9657    2.4481   -0.9107 C   0  0  0  0  0  0  0  0  0  0  0  0
   -0.1070    2.2864   -1.5774 H   0  0  0  0  0  0  0  0  0  0  0  0
   -1.5799    3.7083   -0.8941 C   0  0  0  0  0  0  0  0  0  0  0  0
   -1.1857    4.5029   -1.5410 H   0  0  0  0  0  0  0  0  0  0  0  0
   -2.6864    3.9350   -0.0506 C   0  0  0  0  0  0  0  0  0  0  0  0
   -3.1658    2.8781    0.7551 C   0  0  0  0  0  0  0  0  0  0  0  0
   -4.0328    3.0676    1.4037 H   0  0  0  0  0  0  0  0  0  0  0  0
   -2.5499    1.6284    0.7220 C   0  0  0  0  0  0  0  0  0  0  0  0
   -2.9549    0.8248    1.3491 H   0  0  0  0  0  0  0  0  0  0  0  0
   -2.9075    6.2086   -0.7299 C   0  0  0  0  0  0  0  0  0  0  0  0
   -3.5750    7.0566   -0.4898 H   0  0  0  0  0  0  0  0  0  0  0  0
   -2.9759    5.9921   -1.8197 H   0  0  0  0  0  0  0  0  0  0  0  0
   -1.8589    6.4936   -0.4888 H   0  0  0  0  0  0  0  0  0  0  0  0
   -2.8336   -1.4698   -0.7946 C   0  0  0  0  0  0  0  0  0  0  0  0
   -3.3637   -2.7344   -0.4540 C   0  0  0  0  0  0  0  0  0  0  0  0
   -2.7068   -3.4853    0.0072 H   0  0  0  0  0  0  0  0  0  0  0  0
   -4.7097   -3.0339   -0.6971 C   0  0  0  0  0  0  0  0  0  0  0  0
   -5.1064   -4.0219   -0.4186 H   0  0  0  0  0  0  0  0  0  0  0  0
   -5.5499   -2.0794   -1.2936 C   0  0  0  0  0  0  0  0  0  0  0  0
   -6.6088   -2.3139   -1.4809 H   0  0  0  0  0  0  0  0  0  0  0  0
   -5.0290   -0.8280   -1.6564 C   0  0  0  0  0  0  0  0  0  0  0  0
   -5.6757   -0.0783   -2.1374 H   0  0  0  0  0  0  0  0  0  0  0  0
   -3.6818   -0.5245   -1.4133 C   0  0  0  0  0  0  0  0  0  0  0  0
   -3.2796    0.4511   -1.7185 H   0  0  0  0  0  0  0  0  0  0  0  0
   -0.5238   -3.1396   -1.7901 O   0  0  0  0  0  0  0  0  0  0  0  0
    4.3527    4.1460    0.2342 O   0  0  0  0  0  0  0  0  0  0  0  0
   -3.3500    5.1158    0.0536 O   0  0  0  0  0  0  0  0  0  0  0  0
  1  2  1  0  0  0  0
  1  5  1  0  0  0  0
  2  6  1  6  0  0  0
  2  3  1  0  0  0  0
  3  4  1  0  0  0  0
  3 17  1  6  0  0  0
  4 31  1  6  0  0  0
  5 45  1  6  0  0  0
  5  4  1  0  0  0  0
  6 15  1  0  0  0  0
  7  6  2  0  0  0  0
  8  7  1  0  0  0  0
  9  7  1  0  0  0  0
  9 11  2  0  0  0  0
 10  9  1  0  0  0  0
 11 13  1  0  0  0  0
 12 11  1  0  0  0  0
 13 15  2  0  0  0  0
 13 14  1  0  0  0  0
 15 16  1  0  0  0  0
 17 25  1  0  0  0  0
 18 20  1  0  0  0  0
 18 17  2  0  0  0  0
 19 18  1  0  0  0  0
 20 22  2  0  0  0  0
 21 20  1  0  0  0  0
 22 57  1  0  0  0  0
 22 23  1  0  0  0  0
 23 24  1  0  0  0  0
 25 23  2  0  0  0  0
 25 26  1  0  0  0  0
 27 28  1  0  0  0  0
 27 57  1  0  0  0  0
 29 27  1  0  0  0  0
 30 27  1  0  0  0  0
 31 39  1  0  0  0  0
 32 34  1  0  0  0  0
 32 31  2  0  0  0  0
 33 32  1  0  0  0  0
 34 36  2  0  0  0  0
 35 34  1  0  0  0  0
 36 58  1  0  0  0  0
 36 37  1  0  0  0  0
 37 38  1  0  0  0  0
 39 37  2  0  0  0  0
 39 40  1  0  0  0  0
 41 42  1  0  0  0  0
 41 44  1  0  0  0  0
 41 58  1  0  0  0  0
 43 41  1  0  0  0  0
 45 46  1  0  0  0  0
 46 47  1  0  0  0  0
 48 46  2  0  0  0  0
 48 49  1  0  0  0  0
 50 48  1  0  0  0  0
 51 50  1  0  0  0  0
 52 54  1  0  0  0  0
 52 50  2  0  0  0  0
 53 52  1  0  0  0  0
 54 45  2  0  0  0  0
 55 54  1  0  0  0  0
 56  1  2  0  0  0  0
M  END
