4
q = 0.0, confidence = 1.0

 71 73  0  0  1  0  0  0  0  0999 V2000
   -1.8914   -0.8577   -0.1679 P   0  0  0  0  0  0  0  0  0  0  0  0
    1.9858   -0.8915    0.2180 P   0  0  0  0  0  0  0  0  0  0  0  0
   -0.4120    3.3585   -1.7414 N   0  0  0  0  0  0  0  0  0  0  0  0
   -0.0985    1.6301    0.5153 C   0  0  0  0  0  3  0  0  0  0  0  0
    0.0521    1.3393    1.5659 H   0  0  0  0  0  0  0  0  0  0  0  0
   -1.3875    2.1254    0.1090 C   0  0  0  0  0  0  0  0  0  0  0  0
   -1.4739    2.9997   -0.9769 C   0  0  0  0  0  0  0  0  0  0  0  0
   -2.4575    3.4084   -1.2678 H   0  0  0  0  0  0  0  0  0  0  0  0
    0.7601    2.8170   -1.4512 C   0  0  0  0  0  0  0  0  0  0  0  0
    1.6125    3.0819   -2.1049 H   0  0  0  0  0  0  0  0  0  0  0  0
    1.0198    1.9412   -0.3317 C   0  0  1  0  0  3  0  0  0  0  0  0
   -2.5962    1.6753    0.8392 C   0  0  0  0  0  0  0  0  0  0  0  0
   -2.9372    0.2922    0.8437 C   0  0  0  0  0  0  0  0  0  0  0  0
   -4.0917   -0.1227    1.5383 C   0  0  0  0  0  0  0  0  0  0  0  0
   -4.3729   -1.1863    1.5536 H   0  0  0  0  0  0  0  0  0  0  0  0
   -4.9051    0.8025    2.2112 C   0  0  0  0  0  0  0  0  0  0  0  0
   -5.8001    0.4549    2.7494 H   0  0  0  0  0  0  0  0  0  0  0  0
   -4.5790    2.1664    2.1855 C   0  0  0  0  0  0  0  0  0  0  0  0
   -5.2158    2.8986    2.7050 H   0  0  0  0  0  0  0  0  0  0  0  0
   -3.4321    2.5962    1.5031 C   0  0  0  0  0  0  0  0  0  0  0  0
   -3.1589    3.6622    1.4885 H   0  0  0  0  0  0  0  0  0  0  0  0
    2.4286    1.8417    0.1592 C   0  0  0  0  0  0  0  0  0  0  0  0
    3.0280    0.6043    0.5062 C   0  0  0  0  0  0  0  0  0  0  0  0
    4.3660    0.5766    0.9491 C   0  0  0  0  0  0  0  0  0  0  0  0
    4.8483   -0.3847    1.1773 H   0  0  0  0  0  0  0  0  0  0  0  0
    5.1116    1.7587    1.0635 C   0  0  0  0  0  0  0  0  0  0  0  0
    6.1582    1.7194    1.4020 H   0  0  0  0  0  0  0  0  0  0  0  0
    4.5191    2.9864    0.7296 C   0  0  0  0  0  0  0  0  0  0  0  0
    5.0946    3.9207    0.8157 H   0  0  0  0  0  0  0  0  0  0  0  0
    3.1924    3.0249    0.2810 C   0  0  0  0  0  0  0  0  0  0  0  0
    2.7257    3.9884    0.0267 H   0  0  0  0  0  0  0  0  0  0  0  0
   -2.1406   -2.5220    0.6766 C   0  0  0  0  0  0  0  0  0  0  0  0
   -3.2295   -2.7387    0.6522 H   0  0  0  0  0  0  0  0  0  0  0  0
   -1.6836   -2.4952    2.1358 C   0  0  0  0  0  0  0  0  0  0  0  0
   -1.8612   -3.4826    2.6112 H   0  0  0  0  0  0  0  0  0  0  0  0
   -2.2178   -1.7289    2.7304 H   0  0  0  0  0  0  0  0  0  0  0  0
   -0.6027   -2.2787    2.2061 H   0  0  0  0  0  0  0  0  0  0  0  0
   -1.4078   -3.5977   -0.1326 C   0  0  0  0  0  0  0  0  0  0  0  0
   -0.3283   -3.3564   -0.2109 H   0  0  0  0  0  0  0  0  0  0  0  0
   -1.8003   -3.6899   -1.1652 H   0  0  0  0  0  0  0  0  0  0  0  0
   -1.5072   -4.5898    0.3550 H   0  0  0  0  0  0  0  0  0  0  0  0
   -2.9549   -1.0493   -1.7349 C   0  0  0  0  0  0  0  0  0  0  0  0
   -2.2937   -1.6595   -2.3900 H   0  0  0  0  0  0  0  0  0  0  0  0
   -3.1569    0.3138   -2.4053 C   0  0  0  0  0  0  0  0  0  0  0  0
   -3.6353    0.1794   -3.3974 H   0  0  0  0  0  0  0  0  0  0  0  0
   -2.2034    0.8532   -2.5555 H   0  0  0  0  0  0  0  0  0  0  0  0
   -3.8207    0.9613   -1.7961 H   0  0  0  0  0  0  0  0  0  0  0  0
   -4.2917   -1.7707   -1.5532 C   0  0  0  0  0  0  0  0  0  0  0  0
   -4.9516   -1.2260   -0.8468 H   0  0  0  0  0  0  0  0  0  0  0  0
   -4.1810   -2.8129   -1.1944 H   0  0  0  0  0  0  0  0  0  0  0  0
   -4.8255   -1.8164   -2.5257 H   0  0  0  0  0  0  0  0  0  0  0  0
    2.0127   -1.8010    1.8815 C   0  0  0  0  0  0  0  0  0  0  0  0
    1.2671   -2.6089    1.7084 H   0  0  0  0  0  0  0  0  0  0  0  0
    1.4576   -0.8595    2.9562 C   0  0  0  0  0  0  0  0  0  0  0  0
    1.2819   -1.4050    3.9065 H   0  0  0  0  0  0  0  0  0  0  0  0
    0.4961   -0.4100    2.6394 H   0  0  0  0  0  0  0  0  0  0  0  0
    2.1680   -0.0330    3.1627 H   0  0  0  0  0  0  0  0  0  0  0  0
    3.3173   -2.4616    2.3347 C   0  0  0  0  0  0  0  0  0  0  0  0
    4.0958   -1.7121    2.5791 H   0  0  0  0  0  0  0  0  0  0  0  0
    3.7318   -3.1613    1.5826 H   0  0  0  0  0  0  0  0  0  0  0  0
    3.1356   -3.0475    3.2608 H   0  0  0  0  0  0  0  0  0  0  0  0
    3.1095   -1.9435   -0.8685 C   0  0  0  0  0  0  0  0  0  0  0  0
    4.0142   -2.1636   -0.2609 H   0  0  0  0  0  0  0  0  0  0  0  0
    3.5462   -1.1789   -2.1215 C   0  0  0  0  0  0  0  0  0  0  0  0
    4.2496   -1.7998   -2.7149 H   0  0  0  0  0  0  0  0  0  0  0  0
    4.0597   -0.2308   -1.8683 H   0  0  0  0  0  0  0  0  0  0  0  0
    2.6842   -0.9363   -2.7716 H   0  0  0  0  0  0  0  0  0  0  0  0
    2.4074   -3.2595   -1.2183 C   0  0  0  0  0  0  0  0  0  0  0  0
    1.4808   -3.0640   -1.7964 H   0  0  0  0  0  0  0  0  0  0  0  0
    2.1295   -3.8457   -0.3186 H   0  0  0  0  0  0  0  0  0  0  0  0
    3.0664   -3.8984   -1.8426 H   0  0  0  0  0  0  0  0  0  0  0  0
  1 32  1  0  0  0  0
  1 13  1  0  0  0  0
  2 23  1  0  0  0  0
  2 52  1  0  0  0  0
  3  9  2  0  0  0  0
  3  7  1  0  0  0  0
  4  5  1  0  0  0  0
  6  4  1  0  0  0  0
  6 12  1  0  0  0  0
  7  6  2  0  0  0  0
  8  7  1  0  0  0  0
  9 11  1  0  0  0  0
 10  9  1  0  0  0  0
 11 22  1  1  0  0  0
 11  4  1  0  0  0  0
 12 13  2  0  0  0  0
 12 20  1  0  0  0  0
 13 14  1  0  0  0  0
 14 15  1  0  0  0  0
 14 16  2  0  0  0  0
 16 17  1  0  0  0  0
 18 16  1  0  0  0  0
 18 19  1  0  0  0  0
 20 18  2  0  0  0  0
 21 20  1  0  0  0  0
 22 30  2  0  0  0  0
 22 23  1  0  0  0  0
 23 24  2  0  0  0  0
 24 26  1  0  0  0  0
 24 25  1  0  0  0  0
 26 27  1  0  0  0  0
 28 29  1  0  0  0  0
 28 26  2  0  0  0  0
 30 28  1  0  0  0  0
 31 30  1  0  0  0  0
 32 34  1  0  0  0  0
 33 32  1  0  0  0  0
 34 37  1  0  0  0  0
 34 35  1  0  0  0  0
 34 36  1  0  0  0  0
 38 41  1  0  0  0  0
 38 32  1  0  0  0  0
 39 38  1  0  0  0  0
 40 38  1  0  0  0  0
 42 48  1  0  0  0  0
 42  1  1  0  0  0  0
 43 42  1  0  0  0  0
 44 47  1  0  0  0  0
 44 42  1  0  0  0  0
 45 44  1  0  0  0  0
 46 44  1  0  0  0  0
 48 50  1  0  0  0  0
 48 49  1  0  0  0  0
 51 48  1  0  0  0  0
 52 58  1  0  0  0  0
 52 54  1  0  0  0  0
 53 52  1  0  0  0  0
 54 57  1  0  0  0  0
 54 55  1  0  0  0  0
 56 54  1  0  0  0  0
 58 59  1  0  0  0  0
 58 61  1  0  0  0  0
 60 58  1  0  0  0  0
 62 63  1  0  0  0  0
 62  2  1  0  0  0  0
 64 66  1  0  0  0  0
 64 62  1  0  0  0  0
 65 64  1  0  0  0  0
 67 64  1  0  0  0  0
 68 62  1  0  0  0  0
 68 70  1  0  0  0  0
 69 68  1  0  0  0  0
 71 68  1  0  0  0  0
M  END
