9
q = -2.0, confidence = 0.936

 61 63  0  0  1  0  0  0  0  0999 V2000
   -2.9728   -0.6417   -0.3817 Si  0  0  0  0  0  0  0  0  0  0  0  0
   -2.0766    0.6871    1.3884 Si  0  0  0  0  0  0  0  0  0  0  0  0
    0.0474   -2.3621    1.0271 Si  0  0  0  0  0  0  0  0  0  0  0  0
   -1.4522   -1.2791   -1.3175 C   0  0  0  0  0  0  0  0  0  0  0  0
   -0.3927   -2.1172   -0.7930 C   0  0  1  0  0  3  0  0  0  0  0  0
    0.5847   -2.2617   -1.8334 C   0  0  0  0  0  0  0  0  0  0  0  0
    0.1318   -1.5647   -2.9938 C   0  0  0  0  0  0  0  0  0  0  0  0
   -1.1152   -0.9735   -2.6813 C   0  0  0  0  0  0  0  0  0  0  0  0
   -0.1740    0.6261    1.1821 C   0  0  2  0  0  3  0  0  0  0  0  0
    0.6699   -0.5736    1.2531 C   0  0  2  0  0  3  0  0  0  0  0  0
    2.0308   -0.1584    1.0072 C   0  0  1  0  0  3  0  0  0  0  0  0
    2.0222    1.2495    0.7896 C   0  0  0  0  0  0  0  0  0  0  0  0
    0.7050    1.7504    0.9367 C   0  0  0  0  0  0  0  0  0  0  0  0
    3.2904   -0.9962    1.1411 C   0  0  0  0  0  0  0  0  0  0  0  0
    3.4599   -1.4106    2.6167 C   0  0  0  0  0  0  0  0  0  0  0  0
    4.5528   -0.2825    0.6438 C   0  0  0  0  0  0  0  0  0  0  0  0
    0.3607    3.2223    0.9736 C   0  0  0  0  0  0  0  0  0  0  0  0
    1.3843    4.0975    0.2411 C   0  0  0  0  0  0  0  0  0  0  0  0
    0.2070    3.6660    2.4416 C   0  0  0  0  0  0  0  0  0  0  0  0
   -4.1308   -2.0794    0.0703 C   0  0  0  0  0  0  0  0  0  0  0  0
   -3.9287    0.4997   -1.5552 C   0  0  0  0  0  0  0  0  0  0  0  0
   -2.8525    2.3948    1.0793 C   0  0  0  0  0  0  0  0  0  0  0  0
   -2.5149    0.2534    3.1899 C   0  0  0  0  0  0  0  0  0  0  0  0
   -1.3493   -2.8941    2.1747 C   0  0  0  0  0  0  0  0  0  0  0  0
    1.3313   -3.7452    1.1370 C   0  0  0  0  0  0  0  0  0  0  0  0
    1.5377   -2.8013   -1.7553 H   0  0  0  0  0  0  0  0  0  0  0  0
    0.6737   -1.4753   -3.9428 H   0  0  0  0  0  0  0  0  0  0  0  0
   -1.7081   -0.3454   -3.3566 H   0  0  0  0  0  0  0  0  0  0  0  0
    2.9046    1.8547    0.5579 H   0  0  0  0  0  0  0  0  0  0  0  0
    3.1695   -1.9186    0.5366 H   0  0  0  0  0  0  0  0  0  0  0  0
    4.3236   -2.0961    2.7375 H   0  0  0  0  0  0  0  0  0  0  0  0
    2.5576   -1.9137    3.0138 H   0  0  0  0  0  0  0  0  0  0  0  0
    3.6432   -0.5149    3.2455 H   0  0  0  0  0  0  0  0  0  0  0  0
    5.4264   -0.9609    0.7148 H   0  0  0  0  0  0  0  0  0  0  0  0
    4.7780    0.6096    1.2641 H   0  0  0  0  0  0  0  0  0  0  0  0
    4.4478    0.0419   -0.4090 H   0  0  0  0  0  0  0  0  0  0  0  0
   -0.6113    3.3551    0.4617 H   0  0  0  0  0  0  0  0  0  0  0  0
    2.3750    4.0766    0.7408 H   0  0  0  0  0  0  0  0  0  0  0  0
    1.0463    5.1530    0.2298 H   0  0  0  0  0  0  0  0  0  0  0  0
    1.5124    3.7691   -0.8087 H   0  0  0  0  0  0  0  0  0  0  0  0
   -0.1329    4.7203    2.4998 H   0  0  0  0  0  0  0  0  0  0  0  0
    1.1756    3.5888    2.9777 H   0  0  0  0  0  0  0  0  0  0  0  0
   -0.5238    3.0370    2.9880 H   0  0  0  0  0  0  0  0  0  0  0  0
   -4.9580   -1.7245    0.7191 H   0  0  0  0  0  0  0  0  0  0  0  0
   -4.5779   -2.4846   -0.8612 H   0  0  0  0  0  0  0  0  0  0  0  0
   -3.6146   -2.9081    0.5888 H   0  0  0  0  0  0  0  0  0  0  0  0
   -3.2850    1.3214   -1.9257 H   0  0  0  0  0  0  0  0  0  0  0  0
   -4.2972   -0.0798   -2.4273 H   0  0  0  0  0  0  0  0  0  0  0  0
   -4.8082    0.9441   -1.0469 H   0  0  0  0  0  0  0  0  0  0  0  0
   -2.6515    2.7671    0.0569 H   0  0  0  0  0  0  0  0  0  0  0  0
   -2.5205    3.1541    1.8141 H   0  0  0  0  0  0  0  0  0  0  0  0
   -3.9514    2.2798    1.1894 H   0  0  0  0  0  0  0  0  0  0  0  0
   -1.9359   -0.6004    3.5861 H   0  0  0  0  0  0  0  0  0  0  0  0
   -2.2908    1.1366    3.8242 H   0  0  0  0  0  0  0  0  0  0  0  0
   -3.5956    0.0263    3.2961 H   0  0  0  0  0  0  0  0  0  0  0  0
   -2.2306   -2.2311    2.1675 H   0  0  0  0  0  0  0  0  0  0  0  0
   -0.9641   -2.9425    3.2144 H   0  0  0  0  0  0  0  0  0  0  0  0
   -1.6792   -3.9137    1.8875 H   0  0  0  0  0  0  0  0  0  0  0  0
    0.8029   -4.6914    0.8964 H   0  0  0  0  0  0  0  0  0  0  0  0
    2.1721   -3.6427    0.4264 H   0  0  0  0  0  0  0  0  0  0  0  0
    1.7523   -3.8458    2.1563 H   0  0  0  0  0  0  0  0  0  0  0  0
  1 20  1  0  0  0  0
  1  2  1  0  0  0  0
  2 23  1  0  0  0  0
  3 25  1  0  0  0  0
  3 24  1  0  0  0  0
  4  5  1  0  0  0  0
  4  1  1  0  0  0  0
  5  6  1  6  0  0  0
  5  3  1  0  0  0  0
  6 26  1  0  0  0  0
  7  8  1  0  0  0  0
  7  6  2  0  0  0  0
  8  4  2  0  0  0  0
  9 13  1  1  0  0  0
  9 10  1  0  0  0  0
  9  2  1  0  0  0  0
 10  3  1  6  0  0  0
 11 14  1  1  0  0  0
 11 10  1  0  0  0  0
 12 13  2  0  0  0  0
 12 11  1  0  0  0  0
 13 17  1  0  0  0  0
 14 15  1  0  0  0  0
 15 31  1  0  0  0  0
 15 32  1  0  0  0  0
 15 33  1  0  0  0  0
 16 34  1  0  0  0  0
 16 14  1  0  0  0  0
 16 35  1  0  0  0  0
 17 19  1  0  0  0  0
 18 38  1  0  0  0  0
 18 17  1  0  0  0  0
 19 41  1  0  0  0  0
 19 42  1  0  0  0  0
 19 43  1  0  0  0  0
 20 46  1  0  0  0  0
 20 44  1  0  0  0  0
 21 49  1  0  0  0  0
 21  1  1  0  0  0  0
 22 52  1  0  0  0  0
 22  2  1  0  0  0  0
 22 51  1  0  0  0  0
 23 55  1  0  0  0  0
 23 53  1  0  0  0  0
 23 54  1  0  0  0  0
 24 57  1  0  0  0  0
 25 61  1  0  0  0  0
 27  7  1  0  0  0  0
 28  8  1  0  0  0  0
 29 12  1  0  0  0  0
 30 14  1  0  0  0  0
 36 16  1  0  0  0  0
 37 17  1  0  0  0  0
 39 18  1  0  0  0  0
 40 18  1  0  0  0  0
 45 20  1  0  0  0  0
 47 21  1  0  0  0  0
 48 21  1  0  0  0  0
 50 22  1  0  0  0  0
 56 24  1  0  0  0  0
 58 24  1  0  0  0  0
 59 25  1  0  0  0  0
 60 25  1  0  0  0  0
M  END
