7
q = -1.0, confidence = 0.002

 25 26  0  0  1  0  0  0  0  0999 V2000
   -1.5531    2.0400    0.3223 C   0  0  0  0  0  0  0  0  0  0  0  0
   -1.7203    2.4665    1.3176 H   0  0  0  0  0  0  0  0  0  0  0  0
   -2.5253    1.5382   -0.5877 C   0  0  0  0  0  0  0  0  0  0  0  0
   -3.6068    1.4900   -0.4110 H   0  0  0  0  0  0  0  0  0  0  0  0
   -1.8528    1.1127   -1.7920 C   0  0  0  0  0  3  0  0  0  0  0  0
   -2.3292    0.7024   -2.6897 H   0  0  0  0  0  0  0  0  0  0  0  0
   -0.4507    1.3435   -1.6080 C   0  0  0  0  0  3  0  0  0  0  0  0
    0.3354    1.1178   -2.3382 H   0  0  0  0  0  0  0  0  0  0  0  0
   -0.2508    1.9329   -0.3067 C   0  0  1  0  0  3  0  0  0  0  0  0
    1.0036    2.3921    0.3536 C   0  0  0  0  0  0  0  0  0  0  0  0
    2.3265    2.1884   -0.3803 C   0  0  0  0  0  0  0  0  0  0  0  0
    3.0454    2.8935    0.0834 H   0  0  0  0  0  0  0  0  0  0  0  0
    2.2261    2.4517   -1.4523 H   0  0  0  0  0  0  0  0  0  0  0  0
    2.8283    0.7606   -0.2434 C   0  0  0  0  0  0  0  0  0  0  0  0
    2.9146    0.1614    1.0301 C   0  0  0  0  0  0  0  0  0  0  0  0
    2.6083    0.7339    1.9192 H   0  0  0  0  0  0  0  0  0  0  0  0
    3.3702   -1.1569    1.1669 C   0  0  0  0  0  0  0  0  0  0  0  0
    3.4177   -1.6138    2.1669 H   0  0  0  0  0  0  0  0  0  0  0  0
    3.7560   -1.8931    0.0349 C   0  0  0  0  0  0  0  0  0  0  0  0
    4.1085   -2.9298    0.1422 H   0  0  0  0  0  0  0  0  0  0  0  0
    3.6789   -1.3033   -1.2353 C   0  0  0  0  0  0  0  0  0  0  0  0
    3.9710   -1.8755   -2.1286 H   0  0  0  0  0  0  0  0  0  0  0  0
    3.2124    0.0132   -1.3727 C   0  0  0  0  0  0  0  0  0  0  0  0
    3.1506    0.4706   -2.3735 H   0  0  0  0  0  0  0  0  0  0  0  0
    0.9598    2.8990    1.4693 O   0  0  0  0  0  0  0  0  0  0  0  0
  1  2  1  0  0  0  0
  3  4  1  0  0  0  0
  3  1  2  0  0  0  0
  5  7  1  0  0  0  0
  5  3  1  0  0  0  0
  6  5  1  0  0  0  0
  7  9  1  0  0  0  0
  8  7  1  0  0  0  0
  9  1  1  0  0  0  0
  9 10  1  6  0  0  0
 10 25  2  0  0  0  0
 11 14  1  0  0  0  0
 11 12  1  0  0  0  0
 11 10  1  0  0  0  0
 13 11  1  0  0  0  0
 14 15  1  0  0  0  0
 15 17  2  0  0  0  0
 15 16  1  0  0  0  0
 17 18  1  0  0  0  0
 19 20  1  0  0  0  0
 19 17  1  0  0  0  0
 21 19  2  0  0  0  0
 22 21  1  0  0  0  0
 23 21  1  0  0  0  0
 23 14  2  0  0  0  0
 24 23  1  0  0  0  0
M  END
