16
q = 0.0, confidence = 0.994

 49 53  0  0  0  0  0  0  0  0999 V2000
    0.1007    0.7542   -0.0342 P   0  0  0  0  0  0  0  0  0  0  0  0
    0.0616   -0.0188    1.7106 C   0  0  0  0  0  0  0  0  0  0  0  0
    0.1755    0.8202    2.4249 H   0  0  0  0  0  0  0  0  0  0  0  0
    1.2558   -0.9331    1.8374 C   0  0  0  0  0  0  0  0  0  0  0  0
    2.2524   -0.6439    2.7872 C   0  0  0  0  0  0  0  0  0  0  0  0
    2.1052    0.2070    3.4702 H   0  0  0  0  0  0  0  0  0  0  0  0
    3.4285   -1.4013    2.8629 C   0  0  0  0  0  0  0  0  0  0  0  0
    4.1953   -1.1507    3.6110 H   0  0  0  0  0  0  0  0  0  0  0  0
    3.6304   -2.4630    1.9664 C   0  0  0  0  0  0  0  0  0  0  0  0
    4.5569   -3.0550    2.0053 H   0  0  0  0  0  0  0  0  0  0  0  0
    2.6481   -2.7646    1.0188 C   0  0  0  0  0  0  0  0  0  0  0  0
    2.7960   -3.5980    0.3152 H   0  0  0  0  0  0  0  0  0  0  0  0
    1.4424   -2.0267    0.9459 C   0  0  0  0  0  0  0  0  0  0  0  0
    0.4430   -2.4548   -0.0411 C   0  0  0  0  0  3  0  0  0  0  0  0
    0.7859   -3.2362   -0.7397 H   0  0  0  0  0  0  0  0  0  0  0  0
   -0.9684   -2.3242    0.0399 C   0  0  0  0  0  3  0  0  0  0  0  0
   -1.5272   -3.0250   -0.6023 H   0  0  0  0  0  0  0  0  0  0  0  0
   -1.7642   -1.7008    1.1052 C   0  0  0  0  0  0  0  0  0  0  0  0
   -3.0886   -2.1661    1.2881 C   0  0  0  0  0  0  0  0  0  0  0  0
   -3.4584   -2.9665    0.6292 H   0  0  0  0  0  0  0  0  0  0  0  0
   -3.9184   -1.6335    2.2797 C   0  0  0  0  0  0  0  0  0  0  0  0
   -4.9431   -2.0147    2.4020 H   0  0  0  0  0  0  0  0  0  0  0  0
   -3.4388   -0.6075    3.1097 C   0  0  0  0  0  0  0  0  0  0  0  0
   -4.0846   -0.1713    3.8862 H   0  0  0  0  0  0  0  0  0  0  0  0
   -2.1361   -0.1229    2.9307 C   0  0  0  0  0  0  0  0  0  0  0  0
   -1.7682    0.7028    3.5595 H   0  0  0  0  0  0  0  0  0  0  0  0
   -1.2888   -0.6500    1.9396 C   0  0  0  0  0  0  0  0  0  0  0  0
   -1.2005    2.0348    0.0033 C   0  0  0  0  0  0  0  0  0  0  0  0
   -2.5412    1.6078   -0.1130 C   0  0  0  0  0  0  0  0  0  0  0  0
   -2.7679    0.5426   -0.2697 H   0  0  0  0  0  0  0  0  0  0  0  0
   -3.5807    2.5444   -0.0516 C   0  0  0  0  0  0  0  0  0  0  0  0
   -4.6231    2.2046   -0.1427 H   0  0  0  0  0  0  0  0  0  0  0  0
   -3.2923    3.9097    0.1077 C   0  0  0  0  0  0  0  0  0  0  0  0
   -4.1106    4.6447    0.1460 H   0  0  0  0  0  0  0  0  0  0  0  0
   -1.9591    4.3382    0.1991 C   0  0  0  0  0  0  0  0  0  0  0  0
   -1.7283    5.4093    0.3027 H   0  0  0  0  0  0  0  0  0  0  0  0
   -0.9117    3.4060    0.1465 C   0  0  0  0  0  0  0  0  0  0  0  0
    0.1314    3.7496    0.1998 H   0  0  0  0  0  0  0  0  0  0  0  0
    1.7306    1.5841   -0.0838 C   0  0  0  0  0  0  0  0  0  0  0  0
    2.1879    2.3366    1.0206 C   0  0  0  0  0  0  0  0  0  0  0  0
    1.5524    2.4694    1.9092 H   0  0  0  0  0  0  0  0  0  0  0  0
    3.4599    2.9248    0.9937 C   0  0  0  0  0  0  0  0  0  0  0  0
    3.8087    3.5107    1.8575 H   0  0  0  0  0  0  0  0  0  0  0  0
    4.2857    2.7616   -0.1303 C   0  0  0  0  0  0  0  0  0  0  0  0
    5.2860    3.2203   -0.1484 H   0  0  0  0  0  0  0  0  0  0  0  0
    3.8340    2.0143   -1.2286 C   0  0  0  0  0  0  0  0  0  0  0  0
    4.4763    1.8866   -2.1128 H   0  0  0  0  0  0  0  0  0  0  0  0
    2.5608    1.4253   -1.2113 C   0  0  0  0  0  0  0  0  0  0  0  0
    2.1893    0.8588   -2.0785 H   0  0  0  0  0  0  0  0  0  0  0  0
  1 28  1  0  0  0  0
  1  2  1  0  0  0  0
  2  4  1  0  0  0  0
  2 27  1  0  0  0  0
  2  3  1  0  0  0  0
  4  5  1  0  0  0  0
  5  7  2  0  0  0  0
  5  6  1  0  0  0  0
  7  8  1  0  0  0  0
  9 10  1  0  0  0  0
  9  7  1  0  0  0  0
 11  9  2  0  0  0  0
 12 11  1  0  0  0  0
 13 11  1  0  0  0  0
 13  4  2  0  0  0  0
 14 16  1  0  0  0  0
 14 13  1  0  0  0  0
 15 14  1  0  0  0  0
 16 18  1  0  0  0  0
 17 16  1  0  0  0  0
 18 19  2  0  0  0  0
 18 27  1  0  0  0  0
 19 21  1  0  0  0  0
 20 19  1  0  0  0  0
 21 22  1  0  0  0  0
 21 23  2  0  0  0  0
 23 24  1  0  0  0  0
 25 23  1  0  0  0  0
 25 26  1  0  0  0  0
 27 25  2  0  0  0  0
 28 37  1  0  0  0  0
 29 31  1  0  0  0  0
 29 28  2  0  0  0  0
 30 29  1  0  0  0  0
 31 33  2  0  0  0  0
 32 31  1  0  0  0  0
 33 34  1  0  0  0  0
 33 35  1  0  0  0  0
 35 36  1  0  0  0  0
 37 35  2  0  0  0  0
 37 38  1  0  0  0  0
 39  1  1  0  0  0  0
 39 40  1  0  0  0  0
 40 41  1  0  0  0  0
 42 40  2  0  0  0  0
 42 43  1  0  0  0  0
 44 42  1  0  0  0  0
 45 44  1  0  0  0  0
 46 48  1  0  0  0  0
 46 44  2  0  0  0  0
 47 46  1  0  0  0  0
 48 39  2  0  0  0  0
 49 48  1  0  0  0  0
M  END
