9
q = -1.0, confidence = 0.0

 29 30  0  0  0  0  0  0  0  0999 V2000
   -3.9599    1.4831   -1.4034 N   0  0  0  0  0  0  0  0  0  0  0  0
   -3.3832   -1.2798    1.1032 C   0  0  0  0  0  0  0  0  0  0  0  0
   -4.0967   -0.0486    0.5501 C   0  0  0  0  0  0  0  0  0  0  0  0
   -4.9350    0.4125    1.0879 H   0  0  0  0  0  0  0  0  0  0  0  0
   -3.5422    0.4230   -0.6193 C   0  0  0  0  0  0  0  0  0  0  0  0
   -2.4124   -0.4606   -0.9618 C   0  0  0  0  0  0  0  0  0  0  0  0
   -1.4912   -0.7711   -1.9970 C   0  0  0  0  0  0  0  0  0  0  0  0
   -1.3271   -0.2370   -2.9379 H   0  0  0  0  0  0  0  0  0  0  0  0
   -0.7698   -1.9406   -1.5789 C   0  0  0  0  0  3  0  0  0  0  0  0
    0.0214   -2.4358   -2.1566 H   0  0  0  0  0  0  0  0  0  0  0  0
   -1.2713   -2.3615   -0.3033 C   0  0  0  0  0  0  0  0  0  0  0  0
   -0.9484   -3.2518    0.2484 H   0  0  0  0  0  0  0  0  0  0  0  0
   -2.2634   -1.4262    0.0857 C   0  0  0  0  0  0  0  0  0  0  0  0
   -2.9069   -1.0597    2.5532 C   0  0  0  0  0  0  0  0  0  0  0  0
   -2.2528   -0.1695    2.6202 H   0  0  0  0  0  0  0  0  0  0  0  0
   -2.3550   -1.9465    2.9290 H   0  0  0  0  0  0  0  0  0  0  0  0
   -3.7772   -0.9025    3.2226 H   0  0  0  0  0  0  0  0  0  0  0  0
   -4.2854   -2.5363    1.0346 C   0  0  0  0  0  0  0  0  0  0  0  0
   -5.1803   -2.4009    1.6757 H   0  0  0  0  0  0  0  0  0  0  0  0
   -3.7427   -3.4377    1.3895 H   0  0  0  0  0  0  0  0  0  0  0  0
   -4.6276   -2.7183   -0.0030 H   0  0  0  0  0  0  0  0  0  0  0  0
   -5.1470    2.1834   -0.9634 C   0  0  0  0  0  0  0  0  0  0  0  0
   -5.9636    1.4590   -0.7691 H   0  0  0  0  0  0  0  0  0  0  0  0
   -5.4801    2.8819   -1.7563 H   0  0  0  0  0  0  0  0  0  0  0  0
   -4.9797    2.7727   -0.0274 H   0  0  0  0  0  0  0  0  0  0  0  0
   -2.9666    2.3222   -2.0581 C   0  0  0  0  0  0  0  0  0  0  0  0
   -2.5896    3.1286   -1.3856 H   0  0  0  0  0  0  0  0  0  0  0  0
   -3.4062    2.7921   -2.9623 H   0  0  0  0  0  0  0  0  0  0  0  0
   -2.0882    1.7292   -2.3660 H   0  0  0  0  0  0  0  0  0  0  0  0
  1 22  1  0  0  0  0
  1  5  1  0  0  0  0
  2 14  1  0  0  0  0
  3  4  1  0  0  0  0
  3  2  1  0  0  0  0
  5  3  2  0  0  0  0
  6  5  1  0  0  0  0
  6 13  1  0  0  0  0
  7  9  1  0  0  0  0
  7  6  2  0  0  0  0
  8  7  1  0  0  0  0
  9 11  1  0  0  0  0
 10  9  1  0  0  0  0
 11 13  2  0  0  0  0
 11 12  1  0  0  0  0
 13  2  1  0  0  0  0
 14 15  1  0  0  0  0
 14 16  1  0  0  0  0
 14 17  1  0  0  0  0
 18  2  1  0  0  0  0
 18 20  1  0  0  0  0
 18 19  1  0  0  0  0
 21 18  1  0  0  0  0
 22 23  1  0  0  0  0
 22 25  1  0  0  0  0
 24 22  1  0  0  0  0
 26  1  1  0  0  0  0
 26 27  1  0  0  0  0
 28 26  1  0  0  0  0
 29 26  1  0  0  0  0
M  END
