2
q = 0.0, confidence = 0.726

 38 40  0  0  0  0  0  0  0  0999 V2000
    0.2320    1.1476    0.3337 As  0  0  0  0  0  0  0  0  0  0  0  0
    0.1802   -0.6947   -0.3376 C   0  0  0  0  0  2  0  0  0  0  0  0
    0.9580    2.2316   -1.1033 C   0  0  0  0  0  0  0  0  0  0  0  0
    0.6368    1.9152   -2.4372 C   0  0  0  0  0  0  0  0  0  0  0  0
    1.1131    2.7314   -3.4736 C   0  0  0  0  0  0  0  0  0  0  0  0
    1.8989    3.8587   -3.1799 C   0  0  0  0  0  0  0  0  0  0  0  0
    2.2081    4.1730   -1.8474 C   0  0  0  0  0  0  0  0  0  0  0  0
    1.7367    3.3639   -0.8005 C   0  0  0  0  0  0  0  0  0  0  0  0
    1.4463    1.1463    1.8394 C   0  0  0  0  0  0  0  0  0  0  0  0
    2.8414    1.1827    1.6510 C   0  0  0  0  0  0  0  0  0  0  0  0
    3.6842    1.1239    2.7711 C   0  0  0  0  0  0  0  0  0  0  0  0
    3.1403    1.0244    4.0623 C   0  0  0  0  0  0  0  0  0  0  0  0
    1.7484    0.9874    4.2424 C   0  0  0  0  0  0  0  0  0  0  0  0
    0.8949    1.0522    3.1307 C   0  0  0  0  0  0  0  0  0  0  0  0
    1.2968   -1.5577   -0.6183 C   0  0  0  0  0  0  0  0  0  0  0  0
    2.5026   -1.0471   -1.1751 C   0  0  0  0  0  0  0  0  0  0  0  0
    3.5738   -1.8943   -1.4596 C   0  0  0  0  0  0  0  0  0  0  0  0
    3.5159   -3.2758   -1.1697 C   0  0  0  0  0  0  0  0  0  0  0  0
    2.3296   -3.7790   -0.5862 C   0  0  0  0  0  0  0  0  0  0  0  0
    1.2387   -2.9506   -0.3292 C   0  0  0  0  0  0  0  0  0  0  0  0
    4.6680   -4.1896   -1.4768 C   0  0  0  0  0  0  0  0  0  0  0  0
    0.0313    1.0234   -2.6674 H   0  0  0  0  0  0  0  0  0  0  0  0
    0.8734    2.4816   -4.5180 H   0  0  0  0  0  0  0  0  0  0  0  0
    2.2715    4.4960   -3.9954 H   0  0  0  0  0  0  0  0  0  0  0  0
    2.8196    5.0577   -1.6154 H   0  0  0  0  0  0  0  0  0  0  0  0
    1.9794    3.6187    0.2425 H   0  0  0  0  0  0  0  0  0  0  0  0
    3.2728    1.2532    0.6421 H   0  0  0  0  0  0  0  0  0  0  0  0
    4.7752    1.1502    2.6315 H   0  0  0  0  0  0  0  0  0  0  0  0
    3.8075    0.9767    4.9357 H   0  0  0  0  0  0  0  0  0  0  0  0
    1.3225    0.9135    5.2539 H   0  0  0  0  0  0  0  0  0  0  0  0
   -0.1970    1.0282    3.2700 H   0  0  0  0  0  0  0  0  0  0  0  0
    2.5737    0.0239   -1.4143 H   0  0  0  0  0  0  0  0  0  0  0  0
    4.4873   -1.4767   -1.9102 H   0  0  0  0  0  0  0  0  0  0  0  0
    2.2668   -4.8472   -0.3269 H   0  0  0  0  0  0  0  0  0  0  0  0
    0.3392   -3.3687    0.1447 H   0  0  0  0  0  0  0  0  0  0  0  0
    4.8742   -4.8785   -0.6332 H   0  0  0  0  0  0  0  0  0  0  0  0
    5.5927   -3.6276   -1.7068 H   0  0  0  0  0  0  0  0  0  0  0  0
    4.4351   -4.8268   -2.3570 H   0  0  0  0  0  0  0  0  0  0  0  0
  1  9  1  0  0  0  0
  2  1  1  0  0  0  0
  3  8  1  0  0  0  0
  3  1  1  0  0  0  0
  4  3  2  0  0  0  0
  5  6  2  0  0  0  0
  5  4  1  0  0  0  0
  6  7  1  0  0  0  0
  7 25  1  0  0  0  0
  7  8  2  0  0  0  0
  8 26  1  0  0  0  0
  9 14  1  0  0  0  0
 10  9  2  0  0  0  0
 10 11  1  0  0  0  0
 11 12  2  0  0  0  0
 12 13  1  0  0  0  0
 12 29  1  0  0  0  0
 13 30  1  0  0  0  0
 14 31  1  0  0  0  0
 14 13  2  0  0  0  0
 15  2  1  0  0  0  0
 15 20  1  0  0  0  0
 16 15  2  0  0  0  0
 17 16  1  0  0  0  0
 17 18  2  0  0  0  0
 18 19  1  0  0  0  0
 19 20  2  0  0  0  0
 19 34  1  0  0  0  0
 20 35  1  0  0  0  0
 21 18  1  0  0  0  0
 21 36  1  0  0  0  0
 22  4  1  0  0  0  0
 23  5  1  0  0  0  0
 24  6  1  0  0  0  0
 27 10  1  0  0  0  0
 28 11  1  0  0  0  0
 32 16  1  0  0  0  0
 33 17  1  0  0  0  0
 37 21  1  0  0  0  0
 38 21  1  0  0  0  0
M  END
