12
q = -2.0, confidence = 0.71

 46 53  0  0  1  0  0  0  0  0999 V2000
   -3.2869   -0.0814   -0.4254 C   0  0  1  0  0  0  0  0  0  0  0  0
   -1.7330   -0.6018    0.1394 C   0  0  1  0  0  0  0  0  0  0  0  0
   -3.2737    1.2566   -1.2393 C   0  0  0  0  0  0  0  0  0  0  0  0
   -4.2126    2.3088   -0.6124 C   0  0  0  0  0  0  0  0  0  0  0  0
   -4.0245    3.2979   -1.0735 H   0  0  0  0  0  0  0  0  0  0  0  0
   -4.0821    2.3970    0.4790 H   0  0  0  0  0  0  0  0  0  0  0  0
   -5.2679    2.0350   -0.7964 H   0  0  0  0  0  0  0  0  0  0  0  0
   -3.7671    1.0295   -2.6844 C   0  0  0  0  0  0  0  0  0  0  0  0
   -3.6520    1.9650   -3.2657 H   0  0  0  0  0  0  0  0  0  0  0  0
   -4.8368    0.7515   -2.6823 H   0  0  0  0  0  0  0  0  0  0  0  0
   -3.2155    0.2233   -3.1994 H   0  0  0  0  0  0  0  0  0  0  0  0
   -1.8190    1.7544   -1.2640 C   0  0  1  0  0  3  0  0  0  0  0  0
   -0.9089    1.4974   -2.3542 C   0  0  0  0  0  0  0  0  0  0  0  0
   -1.1492    0.9530   -3.2734 H   0  0  0  0  0  0  0  0  0  0  0  0
    0.3792    1.9602   -1.9807 C   0  0  0  0  0  0  0  0  0  0  0  0
    1.2937    1.8772   -2.5782 H   0  0  0  0  0  0  0  0  0  0  0  0
    0.2551    2.7419   -0.7558 C   0  0  0  0  0  0  0  0  0  0  0  0
    1.2182    3.4626   -0.0201 C   0  0  0  0  0  0  0  0  0  0  0  0
    2.2580    3.5153   -0.3733 H   0  0  0  0  0  0  0  0  0  0  0  0
    0.8192    4.1082    1.1558 C   0  0  0  0  0  0  0  0  0  0  0  0
    1.5531    4.6886    1.7353 H   0  0  0  0  0  0  0  0  0  0  0  0
   -0.5190    4.0319    1.5992 C   0  0  0  0  0  0  0  0  0  0  0  0
   -0.8162    4.5565    2.5196 H   0  0  0  0  0  0  0  0  0  0  0  0
   -1.4848    3.3066    0.8879 C   0  0  0  0  0  0  0  0  0  0  0  0
   -2.5137    3.2751    1.2616 H   0  0  0  0  0  0  0  0  0  0  0  0
   -1.1169    2.6440   -0.3049 C   0  0  0  0  0  0  0  0  0  0  0  0
   -2.8919    0.0426    1.2319 B   0  0  2  0  0  0  0  0  0  0  0  0
   -2.7020    1.1215    1.7241 H   0  0  0  0  0  0  0  0  0  0  0  0
   -4.5071   -0.4980    0.6872 B   0  0  1  0  0  0  0  0  0  0  0  0
   -5.4432    0.2509    0.8119 H   0  0  0  0  0  0  0  0  0  0  0  0
   -4.2695   -1.4271   -0.8029 B   0  0  2  0  0  0  0  0  0  0  0  0
   -5.0356   -1.3337   -1.7291 H   0  0  0  0  0  0  0  0  0  0  0  0
   -2.5166   -1.4379   -1.1374 B   0  0  2  0  0  0  0  0  0  0  0  0
   -2.0733   -1.3560   -2.2555 H   0  0  0  0  0  0  0  0  0  0  0  0
   -1.9439   -1.3816    1.6491 B   0  0  1  0  0  0  0  0  0  0  0  0
   -1.0930   -1.2764    2.4891 H   0  0  0  0  0  0  0  0  0  0  0  0
   -3.6853   -1.3459    2.0124 B   0  0  0  0  0  0  0  0  0  0  0  0
   -4.0824   -1.2501    3.1509 H   0  0  0  0  0  0  0  0  0  0  0  0
   -4.5315   -2.2751    0.7392 B   0  0  0  0  0  0  0  0  0  0  0  0
   -5.5632   -2.8716    0.9492 H   0  0  0  0  0  0  0  0  0  0  0  0
   -3.2957   -2.8636   -0.4138 B   0  0  0  0  0  0  0  0  0  0  0  0
   -3.4070   -3.8806   -1.0596 H   0  0  0  0  0  0  0  0  0  0  0  0
   -1.7074   -2.3093    0.1718 B   0  0  2  0  0  0  0  0  0  0  0  0
   -0.6650   -2.8694   -0.0536 H   0  0  0  0  0  0  0  0  0  0  0  0
   -2.9477   -2.8253    1.3386 B   0  0  0  0  0  0  0  0  0  0  0  0
   -2.8005   -3.8333    1.9918 H   0  0  0  0  0  0  0  0  0  0  0  0
  1  3  1  6  0  0  0
  1 29  1  0  0  0  0
  1 27  1  0  0  0  0
  2 43  1  0  0  0  0
  2 27  1  0  0  0  0
  2 35  1  0  0  0  0
  3  4  1  0  0  0  0
  4  6  1  0  0  0  0
  5  4  1  0  0  0  0
  7  4  1  0  0  0  0
  8 10  1  0  0  0  0
  8  3  1  0  0  0  0
  9  8  1  0  0  0  0
 11  8  1  0  0  0  0
 12  3  1  0  0  0  0
 12 26  1  0  0  0  0
 13 15  2  0  0  0  0
 13 12  1  0  0  0  0
 14 13  1  0  0  0  0
 15 17  1  0  0  0  0
 16 15  1  0  0  0  0
 17 26  2  0  0  0  0
 17 18  1  0  0  0  0
 18 20  2  0  0  0  0
 19 18  1  0  0  0  0
 20 22  1  0  0  0  0
 20 21  1  0  0  0  0
 22 23  1  0  0  0  0
 24 25  1  0  0  0  0
 24 22  2  0  0  0  0
 26 24  1  0  0  0  0
 27 35  1  0  0  0  0
 27 28  1  0  0  0  0
 29 30  1  0  0  0  0
 29 37  1  0  0  0  0
 31  1  1  0  0  0  0
 31 41  1  0  0  0  0
 31 29  1  0  0  0  0
 32 31  1  0  0  0  0
 33 41  1  0  0  0  0
 33  2  1  0  0  0  0
 33 43  1  0  0  0  0
 34 33  1  0  0  0  0
 35 36  1  0  0  0  0
 37 38  1  0  0  0  0
 39 40  1  0  0  0  0
 39 45  1  0  0  0  0
 39 37  1  0  0  0  0
 42 41  1  0  0  0  0
 43 35  1  0  0  0  0
 44 43  1  0  0  0  0
 45 46  1  0  0  0  0
 45 37  1  0  0  0  0
M  END
