6
q = 0.0, confidence = 0.976

 29 30  0  0  1  0  0  0  0  0999 V2000
    2.0518   -1.6788    0.0516 O   0  0  0  0  0  0  0  0  0  0  0  0
    2.9077    2.3483   -0.5837 O   0  0  0  0  0  0  0  0  0  0  0  0
    0.5172   -2.4767    1.7064 C   0  0  0  0  0  0  0  0  0  0  0  0
    2.8567   -0.5194   -0.1956 C   0  0  1  0  0  0  0  0  0  0  0  0
    2.4594    0.4934    0.9074 C   0  0  2  0  0  0  0  0  0  0  0  0
    1.0306    0.0558    1.2686 C   0  0  0  0  0  3  0  0  0  0  0  0
    0.9221   -1.3165    0.8289 C   0  0  1  0  0  3  0  0  0  0  0  0
    2.6243    1.9581    0.5445 C   0  0  0  0  0  0  0  0  0  0  0  0
    2.3907    2.9397    1.6802 C   0  0  0  0  0  0  0  0  0  0  0  0
    4.3262   -0.8786   -0.1938 C   0  0  0  0  0  0  0  0  0  0  0  0
    5.2557   -0.0099   -0.8009 C   0  0  0  0  0  0  0  0  0  0  0  0
    6.6273   -0.2995   -0.7623 C   0  0  0  0  0  0  0  0  0  0  0  0
    7.0868   -1.4655   -0.1276 C   0  0  0  0  0  0  0  0  0  0  0  0
    8.1632   -1.6959   -0.1041 H   0  0  0  0  0  0  0  0  0  0  0  0
    6.1636   -2.3394    0.4679 C   0  0  0  0  0  0  0  0  0  0  0  0
    6.5151   -3.2606    0.9585 H   0  0  0  0  0  0  0  0  0  0  0  0
    4.7912   -2.0471    0.4373 C   0  0  0  0  0  0  0  0  0  0  0  0
    2.5991   -0.0757   -1.1803 H   0  0  0  0  0  0  0  0  0  0  0  0
    3.0908    0.3187    1.8119 H   0  0  0  0  0  0  0  0  0  0  0  0
    0.2748   -3.3724    1.1009 H   0  0  0  0  0  0  0  0  0  0  0  0
    4.0549   -2.7280    0.8883 H   0  0  0  0  0  0  0  0  0  0  0  0
    1.3599   -2.7467    2.3798 H   0  0  0  0  0  0  0  0  0  0  0  0
    2.5704    3.9733    1.3320 H   0  0  0  0  0  0  0  0  0  0  0  0
    4.8873    0.8985   -1.3020 H   0  0  0  0  0  0  0  0  0  0  0  0
    3.0603    2.7107    2.5346 H   0  0  0  0  0  0  0  0  0  0  0  0
    0.7139    0.3096    2.2964 H   0  0  0  0  0  0  0  0  0  0  0  0
    7.3440    0.3866   -1.2401 H   0  0  0  0  0  0  0  0  0  0  0  0
   -0.3638   -2.2302    2.3248 H   0  0  0  0  0  0  0  0  0  0  0  0
    1.3504    2.8429    2.0555 H   0  0  0  0  0  0  0  0  0  0  0  0
  1  7  1  0  0  0  0
  2  8  2  0  0  0  0
  3 28  1  0  0  0  0
  3 22  1  0  0  0  0
  4 18  1  6  0  0  0
  4 10  1  0  0  0  0
  4  1  1  0  0  0  0
  4  5  1  0  0  0  0
  5  6  1  0  0  0  0
  5 19  1  1  0  0  0
  6 26  1  0  0  0  0
  7  6  1  0  0  0  0
  7  3  1  1  0  0  0
  8  5  1  0  0  0  0
  8  9  1  0  0  0  0
  9 29  1  0  0  0  0
  9 25  1  0  0  0  0
 10 17  1  0  0  0  0
 11 12  1  0  0  0  0
 11 10  2  0  0  0  0
 12 13  2  0  0  0  0
 13 14  1  0  0  0  0
 13 15  1  0  0  0  0
 15 16  1  0  0  0  0
 17 15  2  0  0  0  0
 17 21  1  0  0  0  0
 20  3  1  0  0  0  0
 23  9  1  0  0  0  0
 24 11  1  0  0  0  0
 27 12  1  0  0  0  0
M  END
