5
q = -1.0, confidence = 0.0

 41 42  0  0  0  0  0  0  0  0999 V2000
    2.1440   -0.1551   -1.1657 C   0  0  0  0  0  0  0  0  0  0  0  0
    1.5896   -1.1673   -2.0183 C   0  0  0  0  0  0  0  0  0  0  0  0
    0.3173   -0.7360   -2.4832 C   0  0  0  0  0  0  0  0  0  0  0  0
    2.0636   -2.1214   -2.2709 H   0  0  0  0  0  0  0  0  0  0  0  0
    0.0376    0.5255   -1.8876 C   0  0  0  0  0  3  0  0  0  0  0  0
    1.1596    0.8774   -1.0725 C   0  0  0  0  0  0  0  0  0  0  0  0
    3.5780   -0.0819   -0.6273 C   0  0  0  0  0  0  0  0  0  0  0  0
    4.2586    1.0770   -1.4223 C   0  0  0  0  0  0  0  0  0  0  0  0
    5.6088    1.6262   -0.8948 C   0  0  0  0  0  0  0  0  0  0  0  0
    5.4752    1.9225    0.6207 C   0  0  0  0  0  0  0  0  0  0  0  0
    4.8530    0.8320    1.5277 C   0  0  0  0  0  0  0  0  0  0  0  0
    3.5485    0.3090    0.8746 C   0  0  0  0  0  0  0  0  0  0  0  0
    4.2615   -1.4383   -0.8793 C   0  0  0  0  0  0  0  0  0  0  0  0
    5.2762   -1.4805   -0.4549 H   0  0  0  0  0  0  0  0  0  0  0  0
    4.3525   -1.6344   -1.9664 H   0  0  0  0  0  0  0  0  0  0  0  0
    3.6755   -2.2568   -0.4197 H   0  0  0  0  0  0  0  0  0  0  0  0
    2.8102    1.1328    0.9744 H   0  0  0  0  0  0  0  0  0  0  0  0
    3.1450   -0.5413    1.4626 H   0  0  0  0  0  0  0  0  0  0  0  0
    5.8484   -0.2900    1.8876 C   0  0  0  0  0  0  0  0  0  0  0  0
    5.3572   -1.0534    2.5252 H   0  0  0  0  0  0  0  0  0  0  0  0
    6.7038    0.1280    2.4575 H   0  0  0  0  0  0  0  0  0  0  0  0
    6.2689   -0.8139    1.0129 H   0  0  0  0  0  0  0  0  0  0  0  0
    4.4523    1.4973    2.8622 C   0  0  0  0  0  0  0  0  0  0  0  0
    3.9827    0.7610    3.5473 H   0  0  0  0  0  0  0  0  0  0  0  0
    3.7282    2.3233    2.7014 H   0  0  0  0  0  0  0  0  0  0  0  0
    5.3386    1.9209    3.3783 H   0  0  0  0  0  0  0  0  0  0  0  0
    6.4647    2.2266    1.0283 H   0  0  0  0  0  0  0  0  0  0  0  0
    4.8248    2.8214    0.7110 H   0  0  0  0  0  0  0  0  0  0  0  0
    6.8071    0.7163   -1.2321 C   0  0  0  0  0  0  0  0  0  0  0  0
    6.7483   -0.2887   -0.7827 H   0  0  0  0  0  0  0  0  0  0  0  0
    7.7519    1.1804   -0.8810 H   0  0  0  0  0  0  0  0  0  0  0  0
    6.8879    0.5792   -2.3303 H   0  0  0  0  0  0  0  0  0  0  0  0
    5.8685    2.9683   -1.6128 C   0  0  0  0  0  0  0  0  0  0  0  0
    5.9505    2.8235   -2.7099 H   0  0  0  0  0  0  0  0  0  0  0  0
    6.8152    3.4282   -1.2611 H   0  0  0  0  0  0  0  0  0  0  0  0
    5.0491    3.6928   -1.4259 H   0  0  0  0  0  0  0  0  0  0  0  0
    4.3645    0.7748   -2.4868 H   0  0  0  0  0  0  0  0  0  0  0  0
    3.5493    1.9316   -1.4227 H   0  0  0  0  0  0  0  0  0  0  0  0
   -0.8642    1.1285   -2.0451 H   0  0  0  0  0  0  0  0  0  0  0  0
    1.2653    1.8160   -0.5152 H   0  0  0  0  0  0  0  0  0  0  0  0
   -0.3500   -1.3009   -3.1426 H   0  0  0  0  0  0  0  0  0  0  0  0
  1  6  2  0  0  0  0
  1  7  1  0  0  0  0
  2  1  1  0  0  0  0
  3  2  2  0  0  0  0
  3  5  1  0  0  0  0
  4  2  1  0  0  0  0
  5  6  1  0  0  0  0
  6 40  1  0  0  0  0
  7 12  1  0  0  0  0
  8  9  1  0  0  0  0
  8  7  1  0  0  0  0
  9 10  1  0  0  0  0
 10 28  1  0  0  0  0
 10 27  1  0  0  0  0
 10 11  1  0  0  0  0
 11 19  1  0  0  0  0
 11 23  1  0  0  0  0
 12 17  1  0  0  0  0
 12 18  1  0  0  0  0
 12 11  1  0  0  0  0
 13  7  1  0  0  0  0
 13 14  1  0  0  0  0
 13 16  1  0  0  0  0
 15 13  1  0  0  0  0
 19 21  1  0  0  0  0
 19 20  1  0  0  0  0
 22 19  1  0  0  0  0
 23 26  1  0  0  0  0
 23 24  1  0  0  0  0
 25 23  1  0  0  0  0
 29  9  1  0  0  0  0
 29 31  1  0  0  0  0
 29 30  1  0  0  0  0
 32 29  1  0  0  0  0
 33 36  1  0  0  0  0
 33 35  1  0  0  0  0
 33  9  1  0  0  0  0
 34 33  1  0  0  0  0
 37  8  1  0  0  0  0
 38  8  1  0  0  0  0
 39  5  1  0  0  0  0
 41  3  1  0  0  0  0
M  END
