5
q = 0.0, confidence = 0.988

 47 49  0  0  0  0  0  0  0  0999 V2000
    2.6648    0.3868    0.2412 N   0  0  0  0  0  0  0  0  0  0  0  0
    0.7344    1.3906    0.1326 N   0  0  0  0  0  0  0  0  0  0  0  0
    2.0721    1.5798    0.0431 C   0  0  0  0  0  3  0  0  0  0  0  0
    2.5841    2.5281   -0.1454 H   0  0  0  0  0  0  0  0  0  0  0  0
    0.4184    0.0391    0.3779 C   0  0  0  0  0  3  0  0  0  0  0  0
    1.6710   -0.5593    0.4628 C   0  0  0  0  0  0  0  0  0  0  0  0
    1.9115   -1.6194    0.5945 H   0  0  0  0  0  0  0  0  0  0  0  0
   -0.1662    2.5084   -0.0017 C   0  0  0  0  0  0  0  0  0  0  0  0
   -0.6420    3.1330    1.1710 C   0  0  0  0  0  0  0  0  0  0  0  0
   -1.4453    4.2773    1.0230 C   0  0  0  0  0  0  0  0  0  0  0  0
   -1.8230    4.7784    1.9287 H   0  0  0  0  0  0  0  0  0  0  0  0
   -1.7852    4.7884   -0.2434 C   0  0  0  0  0  0  0  0  0  0  0  0
   -1.2892    4.1294   -1.3839 C   0  0  0  0  0  0  0  0  0  0  0  0
   -1.5428    4.5158   -2.3842 H   0  0  0  0  0  0  0  0  0  0  0  0
   -0.4669    2.9907   -1.2938 C   0  0  0  0  0  0  0  0  0  0  0  0
   -0.3163    2.5737    2.5294 C   0  0  0  0  0  0  0  0  0  0  0  0
   -0.8029    1.5871    2.6694 H   0  0  0  0  0  0  0  0  0  0  0  0
   -0.6605    3.2504    3.3337 H   0  0  0  0  0  0  0  0  0  0  0  0
    0.7727    2.4038    2.6581 H   0  0  0  0  0  0  0  0  0  0  0  0
   -2.6919    5.9858   -0.3760 C   0  0  0  0  0  0  0  0  0  0  0  0
   -2.6048    6.6640    0.4955 H   0  0  0  0  0  0  0  0  0  0  0  0
   -3.7556    5.6693   -0.4384 H   0  0  0  0  0  0  0  0  0  0  0  0
   -2.4718    6.5670   -1.2929 H   0  0  0  0  0  0  0  0  0  0  0  0
    0.0797    2.3173   -2.5242 C   0  0  0  0  0  0  0  0  0  0  0  0
    1.1712    2.4974   -2.6315 H   0  0  0  0  0  0  0  0  0  0  0  0
   -0.4100    2.7070   -3.4365 H   0  0  0  0  0  0  0  0  0  0  0  0
   -0.0599    1.2149   -2.4875 H   0  0  0  0  0  0  0  0  0  0  0  0
    4.0680    0.1111    0.0929 C   0  0  0  0  0  0  0  0  0  0  0  0
    4.9058    0.1834    1.2245 C   0  0  0  0  0  0  0  0  0  0  0  0
    6.2660   -0.1241    1.0435 C   0  0  0  0  0  0  0  0  0  0  0  0
    6.9408   -0.0723    1.9127 H   0  0  0  0  0  0  0  0  0  0  0  0
    6.7819   -0.5019   -0.2104 C   0  0  0  0  0  0  0  0  0  0  0  0
    5.9023   -0.5640   -1.3086 C   0  0  0  0  0  0  0  0  0  0  0  0
    6.2910   -0.8598   -2.2962 H   0  0  0  0  0  0  0  0  0  0  0  0
    4.5341   -0.2648   -1.1872 C   0  0  0  0  0  0  0  0  0  0  0  0
    4.3526    0.5735    2.5713 C   0  0  0  0  0  0  0  0  0  0  0  0
    3.9518    1.6091    2.5640 H   0  0  0  0  0  0  0  0  0  0  0  0
    5.1320    0.5172    3.3538 H   0  0  0  0  0  0  0  0  0  0  0  0
    3.5127   -0.0871    2.8700 H   0  0  0  0  0  0  0  0  0  0  0  0
    8.2362   -0.8662   -0.3720 C   0  0  0  0  0  0  0  0  0  0  0  0
    8.3696   -1.9693   -0.3629 H   0  0  0  0  0  0  0  0  0  0  0  0
    8.8564   -0.4522    0.4465 H   0  0  0  0  0  0  0  0  0  0  0  0
    8.6432   -0.5004   -1.3357 H   0  0  0  0  0  0  0  0  0  0  0  0
    3.5998   -0.3225   -2.3684 C   0  0  0  0  0  0  0  0  0  0  0  0
    2.6651   -0.8803   -2.1498 H   0  0  0  0  0  0  0  0  0  0  0  0
    4.0922   -0.7940   -3.2391 H   0  0  0  0  0  0  0  0  0  0  0  0
    3.2809    0.6966   -2.6759 H   0  0  0  0  0  0  0  0  0  0  0  0
  1  6  1  0  0  0  0
  2  5  1  0  0  0  0
  3  2  1  0  0  0  0
  3  1  1  0  0  0  0
  4  3  1  0  0  0  0
  5  6  2  0  0  0  0
  6  7  1  0  0  0  0
  8  2  1  0  0  0  0
  8  9  1  0  0  0  0
  9 16  1  0  0  0  0
 10  9  2  0  0  0  0
 10 11  1  0  0  0  0
 12 10  1  0  0  0  0
 13 15  1  0  0  0  0
 13 12  2  0  0  0  0
 14 13  1  0  0  0  0
 15  8  2  0  0  0  0
 16 19  1  0  0  0  0
 16 17  1  0  0  0  0
 16 18  1  0  0  0  0
 20 12  1  0  0  0  0
 20 21  1  0  0  0  0
 22 20  1  0  0  0  0
 23 20  1  0  0  0  0
 24 27  1  0  0  0  0
 24 15  1  0  0  0  0
 25 24  1  0  0  0  0
 26 24  1  0  0  0  0
 28  1  1  0  0  0  0
 28 29  1  0  0  0  0
 29 36  1  0  0  0  0
 30 29  2  0  0  0  0
 30 31  1  0  0  0  0
 32 30  1  0  0  0  0
 33 35  1  0  0  0  0
 33 32  2  0  0  0  0
 34 33  1  0  0  0  0
 35 28  2  0  0  0  0
 36 39  1  0  0  0  0
 36 38  1  0  0  0  0
 37 36  1  0  0  0  0
 40 41  1  0  0  0  0
 40 32  1  0  0  0  0
 40 42  1  0  0  0  0
 43 40  1  0  0  0  0
 44 45  1  0  0  0  0
 44 35  1  0  0  0  0
 46 44  1  0  0  0  0
 47 44  1  0  0  0  0
M  END
