7
q = -2.0, confidence = 0.728

 27 27  0  0  0  0  0  0  0  0999 V2000
   -1.4151   -0.8275   -0.5940 C   0  0  0  0  0  3  0  0  0  0  0  0
   -2.6335   -0.0048   -0.0711 C   0  0  0  0  0  0  0  0  0  0  0  0
   -2.3433    1.4843   -0.4228 C   0  0  0  0  0  0  0  0  0  0  0  0
   -0.9080    1.8327   -0.1531 C   0  0  0  0  0  0  0  0  0  0  0  0
    0.1183    2.0202   -1.1418 C   0  0  0  0  0  0  0  0  0  0  0  0
    1.3815    2.1655   -0.4841 C   0  0  0  0  0  3  0  0  0  0  0  0
    1.1461    2.0644    0.9391 C   0  0  0  0  0  3  0  0  0  0  0  0
   -0.2626    1.8648    1.1370 C   0  0  0  0  0  3  0  0  0  0  0  0
   -3.9154   -0.4353   -0.8194 C   0  0  0  0  0  0  0  0  0  0  0  0
   -2.8910   -0.1764    1.4359 C   0  0  0  0  0  0  0  0  0  0  0  0
   -1.5332   -2.3379   -0.4557 C   0  0  0  0  0  0  0  0  0  0  0  0
   -1.2947   -0.5942   -1.6726 H   0  0  0  0  0  0  0  0  0  0  0  0
   -3.0232    2.1591    0.1383 H   0  0  0  0  0  0  0  0  0  0  0  0
   -2.5439    1.6463   -1.5009 H   0  0  0  0  0  0  0  0  0  0  0  0
   -0.0389    1.9829   -2.2265 H   0  0  0  0  0  0  0  0  0  0  0  0
    2.3495    2.3218   -0.9738 H   0  0  0  0  0  0  0  0  0  0  0  0
    1.8950    2.1787    1.7315 H   0  0  0  0  0  0  0  0  0  0  0  0
   -0.7668    1.7939    2.1069 H   0  0  0  0  0  0  0  0  0  0  0  0
   -4.7536    0.2511   -0.5782 H   0  0  0  0  0  0  0  0  0  0  0  0
   -4.2324   -1.4563   -0.5319 H   0  0  0  0  0  0  0  0  0  0  0  0
   -3.7643   -0.4182   -1.9184 H   0  0  0  0  0  0  0  0  0  0  0  0
   -3.7716    0.4214    1.7495 H   0  0  0  0  0  0  0  0  0  0  0  0
   -2.0315    0.1251    2.0612 H   0  0  0  0  0  0  0  0  0  0  0  0
   -3.1040   -1.2363    1.6772 H   0  0  0  0  0  0  0  0  0  0  0  0
   -0.6415   -2.8246   -0.8947 H   0  0  0  0  0  0  0  0  0  0  0  0
   -2.4177   -2.7210   -1.0103 H   0  0  0  0  0  0  0  0  0  0  0  0
   -1.6305   -2.6732    0.5962 H   0  0  0  0  0  0  0  0  0  0  0  0
  1 11  1  0  0  0  0
  1  2  1  0  0  0  0
  2 10  1  0  0  0  0
  3  4  1  0  0  0  0
  3  2  1  0  0  0  0
  3 13  1  0  0  0  0
  4  8  1  0  0  0  0
  5  6  1  0  0  0  0
  5  4  2  0  0  0  0
  6  7  1  0  0  0  0
  7  8  1  0  0  0  0
  7 17  1  0  0  0  0
  8 18  1  0  0  0  0
  9 19  1  0  0  0  0
  9 20  1  0  0  0  0
  9  2  1  0  0  0  0
 10 24  1  0  0  0  0
 10 22  1  0  0  0  0
 10 23  1  0  0  0  0
 11 27  1  0  0  0  0
 12  1  1  0  0  0  0
 14  3  1  0  0  0  0
 15  5  1  0  0  0  0
 16  6  1  0  0  0  0
 21  9  1  0  0  0  0
 25 11  1  0  0  0  0
 26 11  1  0  0  0  0
M  END
