1
q = -1.0, confidence = 0.258

 59 61  0  0  0  0  0  0  0  0999 V2000
    0.0745   -0.4264    0.0302 C   0  0  0  0  0  2  0  0  0  0  0  0
    0.9326   -1.4933    0.0859 N   0  0  0  0  0  0  0  0  0  0  0  0
    2.3761   -1.4148    0.1616 C   0  0  0  0  0  0  0  0  0  0  0  0
    2.9693   -1.1670    1.4190 C   0  0  0  0  0  0  0  0  0  0  0  0
    4.3729   -1.0813    1.4552 C   0  0  0  0  0  0  0  0  0  0  0  0
    4.8609   -0.8838    2.4224 H   0  0  0  0  0  0  0  0  0  0  0  0
    5.1644   -1.2509    0.3046 C   0  0  0  0  0  0  0  0  0  0  0  0
    6.6626   -1.1079    0.3670 C   0  0  0  0  0  0  0  0  0  0  0  0
    7.1699   -1.8065   -0.3270 H   0  0  0  0  0  0  0  0  0  0  0  0
    7.0504   -1.2854    1.3885 H   0  0  0  0  0  0  0  0  0  0  0  0
    6.9677   -0.0808    0.0728 H   0  0  0  0  0  0  0  0  0  0  0  0
    4.5214   -1.5496   -0.9124 C   0  0  0  0  0  0  0  0  0  0  0  0
    5.1268   -1.7136   -1.8177 H   0  0  0  0  0  0  0  0  0  0  0  0
    3.1241   -1.6459   -1.0151 C   0  0  0  0  0  0  0  0  0  0  0  0
    2.4582   -1.9861   -2.3223 C   0  0  0  0  0  0  0  0  0  0  0  0
    1.9167   -2.9555   -2.2726 H   0  0  0  0  0  0  0  0  0  0  0  0
    3.2062   -2.0696   -3.1321 H   0  0  0  0  0  0  0  0  0  0  0  0
    1.7308   -1.1956   -2.6041 H   0  0  0  0  0  0  0  0  0  0  0  0
    2.1480   -1.0156    2.6698 C   0  0  0  0  0  0  0  0  0  0  0  0
    2.7915   -1.0557    3.5680 H   0  0  0  0  0  0  0  0  0  0  0  0
    1.3859   -1.8182    2.7614 H   0  0  0  0  0  0  0  0  0  0  0  0
    1.5974   -0.0483    2.6814 H   0  0  0  0  0  0  0  0  0  0  0  0
    0.2452   -2.6900    0.0515 C   0  0  0  0  0  0  0  0  0  0  0  0
    0.7788   -3.6427    0.0819 H   0  0  0  0  0  0  0  0  0  0  0  0
   -1.0893   -2.3737   -0.0213 C   0  0  0  0  0  0  0  0  0  0  0  0
   -2.2222   -3.3112   -0.1533 N   0  0  0  0  0  4  0  0  0  0  0  0
   -1.6842   -4.7210   -0.2022 C   0  0  0  0  0  0  0  0  0  0  0  0
   -1.0132   -4.8198   -1.0724 H   0  0  0  0  0  0  0  0  0  0  0  0
   -2.5428   -5.4063   -0.3054 H   0  0  0  0  0  0  0  0  0  0  0  0
   -1.1443   -4.9321    0.7366 H   0  0  0  0  0  0  0  0  0  0  0  0
   -3.1836   -3.2212    1.0171 C   0  0  0  0  0  0  0  0  0  0  0  0
   -2.6195   -3.4072    1.9464 H   0  0  0  0  0  0  0  0  0  0  0  0
   -3.9654   -3.9880    0.8728 H   0  0  0  0  0  0  0  0  0  0  0  0
   -3.6282   -2.2113    1.0312 H   0  0  0  0  0  0  0  0  0  0  0  0
   -2.9923   -3.0587   -1.4359 C   0  0  0  0  0  0  0  0  0  0  0  0
   -3.4377   -2.0503   -1.3843 H   0  0  0  0  0  0  0  0  0  0  0  0
   -3.7816   -3.8272   -1.5160 H   0  0  0  0  0  0  0  0  0  0  0  0
   -2.2891   -3.1292   -2.2831 H   0  0  0  0  0  0  0  0  0  0  0  0
   -1.1881   -0.9755   -0.0274 N   0  0  0  0  0  0  0  0  0  0  0  0
   -2.3996   -0.1832    0.0093 C   0  0  0  0  0  0  0  0  0  0  0  0
   -2.9951    0.0697    1.2703 C   0  0  0  0  0  0  0  0  0  0  0  0
   -2.3622   -0.3624    2.5646 C   0  0  0  0  0  0  0  0  0  0  0  0
   -1.6508    0.4324    2.8838 H   0  0  0  0  0  0  0  0  0  0  0  0
   -1.7511   -1.2811    2.4761 H   0  0  0  0  0  0  0  0  0  0  0  0
   -3.1192   -0.5080    3.3585 H   0  0  0  0  0  0  0  0  0  0  0  0
   -4.1884    0.8132    1.2813 C   0  0  0  0  0  0  0  0  0  0  0  0
   -4.6700    1.0179    2.2505 H   0  0  0  0  0  0  0  0  0  0  0  0
   -4.7673    1.3209    0.1026 C   0  0  0  0  0  0  0  0  0  0  0  0
   -6.0225    2.1507    0.1573 C   0  0  0  0  0  0  0  0  0  0  0  0
   -6.5794    2.1193   -0.7987 H   0  0  0  0  0  0  0  0  0  0  0  0
   -5.7722    3.2146    0.3566 H   0  0  0  0  0  0  0  0  0  0  0  0
   -6.6979    1.8205    0.9704 H   0  0  0  0  0  0  0  0  0  0  0  0
   -4.1217    1.0654   -1.1215 C   0  0  0  0  0  0  0  0  0  0  0  0
   -4.5546    1.4640   -2.0524 H   0  0  0  0  0  0  0  0  0  0  0  0
   -2.9278    0.3248   -1.2031 C   0  0  0  0  0  0  0  0  0  0  0  0
   -2.2410    0.1371   -2.5268 C   0  0  0  0  0  0  0  0  0  0  0  0
   -1.4210    0.8800   -2.6478 H   0  0  0  0  0  0  0  0  0  0  0  0
   -2.9512    0.2544   -3.3667 H   0  0  0  0  0  0  0  0  0  0  0  0
   -1.7319   -0.8413   -2.6222 H   0  0  0  0  0  0  0  0  0  0  0  0
  1  2  1  0  0  0  0
  2  3  1  0  0  0  0
  3  4  1  0  0  0  0
  4  5  2  0  0  0  0
  4 19  1  0  0  0  0
  5  6  1  0  0  0  0
  7  8  1  0  0  0  0
  7  5  1  0  0  0  0
  8 10  1  0  0  0  0
  9  8  1  0  0  0  0
 11  8  1  0  0  0  0
 12  7  2  0  0  0  0
 13 12  1  0  0  0  0
 14 12  1  0  0  0  0
 14  3  2  0  0  0  0
 15 16  1  0  0  0  0
 15 14  1  0  0  0  0
 17 15  1  0  0  0  0
 18 15  1  0  0  0  0
 19 22  1  0  0  0  0
 19 21  1  0  0  0  0
 19 20  1  0  0  0  0
 23 24  1  0  0  0  0
 23  2  1  0  0  0  0
 25 23  2  0  0  0  0
 26 25  1  0  0  0  0
 26 31  1  0  0  0  0
 27 26  1  0  0  0  0
 27 30  1  0  0  0  0
 28 27  1  0  0  0  0
 29 27  1  0  0  0  0
 31 34  1  0  0  0  0
 31 32  1  0  0  0  0
 33 31  1  0  0  0  0
 35 36  1  0  0  0  0
 35 26  1  0  0  0  0
 37 35  1  0  0  0  0
 38 35  1  0  0  0  0
 39 25  1  0  0  0  0
 39 40  1  0  0  0  0
 39  1  1  0  0  0  0
 40 41  1  0  0  0  0
 41 46  2  0  0  0  0
 41 42  1  0  0  0  0
 42 43  1  0  0  0  0
 42 45  1  0  0  0  0
 44 42  1  0  0  0  0
 46 47  1  0  0  0  0
 48 49  1  0  0  0  0
 48 46  1  0  0  0  0
 49 51  1  0  0  0  0
 49 52  1  0  0  0  0
 50 49  1  0  0  0  0
 53 48  2  0  0  0  0
 54 53  1  0  0  0  0
 55 53  1  0  0  0  0
 55 40  2  0  0  0  0
 56 55  1  0  0  0  0
 57 56  1  0  0  0  0
 58 56  1  0  0  0  0
 59 56  1  0  0  0  0
M  END
