3
q = 0.0, confidence = 0.998

 44 44  0  0  0  0  0  0  0  0999 V2000
    3.6550    1.4195    0.1508 Si  0  0  0  0  0  0  0  0  0  0  0  0
    3.8173   -0.1526    0.8650 O   0  0  0  0  0  0  0  0  0  0  0  0
    0.9334   -1.6583    0.0539 C   0  0  0  0  0  1  0  0  0  0  0  0
    2.0393   -2.0790    0.0668 N   0  0  0  0  0  2  0  0  0  0  0  0
    3.3784   -2.3804    0.1089 C   0  0  0  0  0  0  0  0  0  0  0  0
    3.8418   -3.6674   -0.2314 C   0  0  0  0  0  0  0  0  0  0  0  0
    3.1079   -4.4295   -0.5288 H   0  0  0  0  0  0  0  0  0  0  0  0
    5.2109   -3.9489   -0.1883 C   0  0  0  0  0  0  0  0  0  0  0  0
    5.5719   -4.9524   -0.4551 H   0  0  0  0  0  0  0  0  0  0  0  0
    6.1160   -2.9464    0.2029 C   0  0  0  0  0  0  0  0  0  0  0  0
    7.1934   -3.1659    0.2464 H   0  0  0  0  0  0  0  0  0  0  0  0
    5.6619   -1.6662    0.5453 C   0  0  0  0  0  0  0  0  0  0  0  0
    6.3616   -0.8816    0.8671 H   0  0  0  0  0  0  0  0  0  0  0  0
    4.2883   -1.3498    0.4992 C   0  0  0  0  0  0  0  0  0  0  0  0
    2.3758    1.2782   -1.2481 C   0  0  0  0  0  0  0  0  0  0  0  0
    1.5160    0.7841   -0.7383 H   0  0  0  0  0  0  0  0  0  0  0  0
    2.7870    0.3696   -2.4187 C   0  0  0  0  0  0  0  0  0  0  0  0
    1.8963    0.1131   -3.0295 H   0  0  0  0  0  0  0  0  0  0  0  0
    3.2354   -0.5874   -2.0832 H   0  0  0  0  0  0  0  0  0  0  0  0
    3.5262    0.8664   -3.0793 H   0  0  0  0  0  0  0  0  0  0  0  0
    1.8778    2.6448   -1.7469 C   0  0  0  0  0  0  0  0  0  0  0  0
    2.6721    3.2022   -2.2869 H   0  0  0  0  0  0  0  0  0  0  0  0
    1.5195    3.2933   -0.9203 H   0  0  0  0  0  0  0  0  0  0  0  0
    1.0325    2.5085   -2.4546 H   0  0  0  0  0  0  0  0  0  0  0  0
    2.9826    2.4183    1.6203 C   0  0  0  0  0  0  0  0  0  0  0  0
    2.8653    3.4615    1.2439 H   0  0  0  0  0  0  0  0  0  0  0  0
    1.6047    1.9021    2.0642 C   0  0  0  0  0  0  0  0  0  0  0  0
    1.6507    0.8502    2.4104 H   0  0  0  0  0  0  0  0  0  0  0  0
    0.8573    1.9297    1.2473 H   0  0  0  0  0  0  0  0  0  0  0  0
    1.1995    2.5074    2.9031 H   0  0  0  0  0  0  0  0  0  0  0  0
    3.9795    2.4352    2.7913 C   0  0  0  0  0  0  0  0  0  0  0  0
    3.5780    3.0180    3.6477 H   0  0  0  0  0  0  0  0  0  0  0  0
    4.9554    2.8840    2.5136 H   0  0  0  0  0  0  0  0  0  0  0  0
    4.1754    1.4054    3.1552 H   0  0  0  0  0  0  0  0  0  0  0  0
    5.3979    2.0296   -0.3424 C   0  0  0  0  0  0  0  0  0  0  0  0
    6.0137    1.7900    0.5562 H   0  0  0  0  0  0  0  0  0  0  0  0
    5.4276    3.5568   -0.5360 C   0  0  0  0  0  0  0  0  0  0  0  0
    6.4596    3.9084   -0.7524 H   0  0  0  0  0  0  0  0  0  0  0  0
    5.0723    4.1067    0.3589 H   0  0  0  0  0  0  0  0  0  0  0  0
    4.7945    3.8710   -1.3922 H   0  0  0  0  0  0  0  0  0  0  0  0
    6.0201    1.3091   -1.5500 C   0  0  0  0  0  0  0  0  0  0  0  0
    5.5031    1.5839   -2.4914 H   0  0  0  0  0  0  0  0  0  0  0  0
    5.9769    0.2050   -1.4624 H   0  0  0  0  0  0  0  0  0  0  0  0
    7.0878    1.5934   -1.6720 H   0  0  0  0  0  0  0  0  0  0  0  0
  1  2  1  0  0  0  0
  1 25  1  0  0  0  0
  3  4  1  0  0  0  0
  4  5  1  0  0  0  0
  5 14  1  0  0  0  0
  6  8  1  0  0  0  0
  6  5  2  0  0  0  0
  7  6  1  0  0  0  0
  8 10  2  0  0  0  0
  9  8  1  0  0  0  0
 10 11  1  0  0  0  0
 10 12  1  0  0  0  0
 12 13  1  0  0  0  0
 14 12  2  0  0  0  0
 14  2  1  0  0  0  0
 15 16  1  0  0  0  0
 15  1  1  0  0  0  0
 17 19  1  0  0  0  0
 17 15  1  0  0  0  0
 18 17  1  0  0  0  0
 20 17  1  0  0  0  0
 21 15  1  0  0  0  0
 21 23  1  0  0  0  0
 22 21  1  0  0  0  0
 24 21  1  0  0  0  0
 25 27  1  0  0  0  0
 25 31  1  0  0  0  0
 26 25  1  0  0  0  0
 27 28  1  0  0  0  0
 27 30  1  0  0  0  0
 29 27  1  0  0  0  0
 31 34  1  0  0  0  0
 31 32  1  0  0  0  0
 33 31  1  0  0  0  0
 35  1  1  0  0  0  0
 35 36  1  0  0  0  0
 37 35  1  0  0  0  0
 37 39  1  0  0  0  0
 38 37  1  0  0  0  0
 40 37  1  0  0  0  0
 41 43  1  0  0  0  0
 41 35  1  0  0  0  0
 42 41  1  0  0  0  0
 44 41  1  0  0  0  0
M  END
