1
q = -1.0, confidence = 0.048

 12 11  0  0  0  0  0  0  0  0999 V2000
   -0.0000    1.6416    0.2313 C   0  0  0  0  0  3  0  0  0  0  0  0
    0.0000    2.7203   -0.5995 C   0  0  0  0  0  0  0  0  0  0  0  0
   -0.0001    4.1186   -0.1624 C   0  0  0  0  0  0  0  0  0  0  0  0
   -0.0001    5.1304   -1.0723 C   0  0  0  0  0  0  0  0  0  0  0  0
   -0.0002    4.4093    1.3198 C   0  0  0  0  0  0  0  0  0  0  0  0
   -0.0001    1.8126    1.3279 H   0  0  0  0  0  0  0  0  0  0  0  0
    0.0001    2.5642   -1.6926 H   0  0  0  0  0  0  0  0  0  0  0  0
   -0.0002    6.1856   -0.7587 H   0  0  0  0  0  0  0  0  0  0  0  0
   -0.0001    4.9222   -2.1541 H   0  0  0  0  0  0  0  0  0  0  0  0
   -0.8889    3.9656    1.8170 H   0  0  0  0  0  0  0  0  0  0  0  0
    0.8886    3.9656    1.8171 H   0  0  0  0  0  0  0  0  0  0  0  0
   -0.0002    5.4978    1.5190 H   0  0  0  0  0  0  0  0  0  0  0  0
  1  6  1  0  0  0  0
  2  3  1  0  0  0  0
  2  1  2  0  0  0  0
  3  5  1  0  0  0  0
  4  8  1  0  0  0  0
  4  3  2  0  0  0  0
  5 12  1  0  0  0  0
  5 10  1  0  0  0  0
  5 11  1  0  0  0  0
  7  2  1  0  0  0  0
  9  4  1  0  0  0  0
M  END
