4
q = -1.0, confidence = 0.012

 34 36  0  0  0  0  0  0  0  0999 V2000
   -2.2917   -4.0393   -0.0578 O   0  0  0  0  0  0  0  0  0  0  0  0
   -1.0555   -4.5757   -0.0987 N   0  0  0  0  0  2  0  0  0  0  0  0
   -0.2477   -3.5207   -0.0955 N   0  0  0  0  0  0  0  0  0  0  0  0
   -0.8569   -2.2955   -0.0565 C   0  0  0  0  0  3  0  0  0  0  0  0
   -2.2407   -2.6287   -0.0350 C   0  0  0  0  0  0  0  0  0  0  0  0
   -3.3995   -2.0183   -0.0020 N   0  0  0  0  0  2  0  0  0  0  0  0
   -3.5192   -0.6622   -0.0944 C   0  0  0  0  0  0  0  0  0  0  0  0
   -2.5994    0.1708   -0.2768 O   0  0  0  0  0  0  0  0  0  0  0  0
   -4.9368   -0.1663    0.0310 C   0  0  0  0  0  0  0  0  0  0  0  0
   -5.1821    1.2217    0.0062 C   0  0  0  0  0  0  0  0  0  0  0  0
   -4.3194    1.8961   -0.0998 H   0  0  0  0  0  0  0  0  0  0  0  0
   -6.4887    1.7138    0.1204 C   0  0  0  0  0  0  0  0  0  0  0  0
   -6.6719    2.7995    0.1028 H   0  0  0  0  0  0  0  0  0  0  0  0
   -7.5664    0.8221    0.2590 C   0  0  0  0  0  0  0  0  0  0  0  0
   -8.5940    1.2079    0.3477 H   0  0  0  0  0  0  0  0  0  0  0  0
   -7.3293   -0.5628    0.2848 C   0  0  0  0  0  0  0  0  0  0  0  0
   -8.1721   -1.2631    0.3931 H   0  0  0  0  0  0  0  0  0  0  0  0
   -6.0218   -1.0554    0.1729 C   0  0  0  0  0  0  0  0  0  0  0  0
   -5.8044   -2.1329    0.1903 H   0  0  0  0  0  0  0  0  0  0  0  0
    1.1594   -3.7510   -0.2468 C   0  0  0  0  0  0  0  0  0  0  0  0
    1.6140   -4.4332   -1.3810 C   0  0  0  0  0  0  0  0  0  0  0  0
    0.8685   -4.8125   -2.0937 H   0  0  0  0  0  0  0  0  0  0  0  0
    2.9892   -4.5977   -1.6006 C   0  0  0  0  0  0  0  0  0  0  0  0
    3.3441   -5.1292   -2.4948 H   0  0  0  0  0  0  0  0  0  0  0  0
    3.8986   -4.0603   -0.6787 C   0  0  0  0  0  0  0  0  0  0  0  0
    4.9813   -4.1675   -0.8458 H   0  0  0  0  0  0  0  0  0  0  0  0
    3.4502   -3.3877    0.4687 C   0  0  0  0  0  0  0  0  0  0  0  0
    4.1800   -2.9823    1.1813 H   0  0  0  0  0  0  0  0  0  0  0  0
    2.0697   -3.2435    0.7174 C   0  0  0  0  0  0  0  0  0  0  0  0
    1.5437   -2.6637    1.8173 O   0  0  0  0  0  0  0  0  0  0  0  0
    2.4029   -1.9356    2.6792 C   0  0  0  0  0  0  0  0  0  0  0  0
    3.1526   -2.5949    3.1695 H   0  0  0  0  0  0  0  0  0  0  0  0
    1.7528   -1.4937    3.4562 H   0  0  0  0  0  0  0  0  0  0  0  0
    2.9265   -1.1213    2.1315 H   0  0  0  0  0  0  0  0  0  0  0  0
  1  5  1  0  0  0  0
  2  3  1  0  0  0  0
  2  1  1  0  0  0  0
  3  4  1  0  0  0  0
  4  5  2  0  0  0  0
  5  6  1  0  0  0  0
  7  6  1  0  0  0  0
  7  9  1  0  0  0  0
  8  7  2  0  0  0  0
  9 18  1  0  0  0  0
 10  9  2  0  0  0  0
 10 12  1  0  0  0  0
 11 10  1  0  0  0  0
 12 14  2  0  0  0  0
 13 12  1  0  0  0  0
 14 16  1  0  0  0  0
 14 15  1  0  0  0  0
 16 17  1  0  0  0  0
 18 19  1  0  0  0  0
 18 16  2  0  0  0  0
 20  3  1  0  0  0  0
 20 29  1  0  0  0  0
 21 20  2  0  0  0  0
 22 21  1  0  0  0  0
 23 21  1  0  0  0  0
 23 25  2  0  0  0  0
 24 23  1  0  0  0  0
 25 27  1  0  0  0  0
 26 25  1  0  0  0  0
 27 29  2  0  0  0  0
 27 28  1  0  0  0  0
 29 30  1  0  0  0  0
 30 31  1  0  0  0  0
 31 32  1  0  0  0  0
 31 33  1  0  0  0  0
 34 31  1  0  0  0  0
M  END
