7
q = -1.0, confidence = 0.0

 42 42  0  0  0  0  0  0  0  0999 V2000
    1.0263    0.0111    0.3086 P   0  0  0  0  0  0  0  0  0  0  0  0
    0.8743    0.0412    2.1907 C   0  0  0  0  0  0  0  0  0  0  0  0
   -0.4555    0.6404    2.6696 C   0  0  0  0  0  0  0  0  0  0  0  0
   -1.6234    0.1169    1.8738 C   0  0  0  0  0  0  0  0  0  0  0  0
   -2.6721    0.8932    1.2928 C   0  0  0  0  0  0  0  0  0  0  0  0
   -3.4938    0.0239    0.5092 C   0  0  0  0  0  3  0  0  0  0  0  0
   -2.9854   -1.3151    0.6374 C   0  0  0  0  0  3  0  0  0  0  0  0
   -1.8343   -1.2648    1.4894 C   0  0  0  0  0  3  0  0  0  0  0  0
    2.1234   -1.5675    0.0711 C   0  0  0  0  0  0  0  0  0  0  0  0
    1.2176   -2.7917    0.3086 C   0  0  0  0  0  0  0  0  0  0  0  0
    3.2999   -1.6701    1.0616 C   0  0  0  0  0  0  0  0  0  0  0  0
    2.6561   -1.6100   -1.3714 C   0  0  0  0  0  0  0  0  0  0  0  0
    2.0686    1.5807   -0.0964 C   0  0  0  0  0  0  0  0  0  0  0  0
    3.5029    1.5500    0.4548 C   0  0  0  0  0  0  0  0  0  0  0  0
    2.1171    1.7811   -1.6218 C   0  0  0  0  0  0  0  0  0  0  0  0
    1.3312    2.7672    0.5564 C   0  0  0  0  0  0  0  0  0  0  0  0
    1.7476    0.5483    2.6505 H   0  0  0  0  0  0  0  0  0  0  0  0
    0.9336   -1.0207    2.5033 H   0  0  0  0  0  0  0  0  0  0  0  0
   -0.4387    1.7444    2.5875 H   0  0  0  0  0  0  0  0  0  0  0  0
   -0.5899    0.4057    3.7497 H   0  0  0  0  0  0  0  0  0  0  0  0
   -2.7869    1.9802    1.3861 H   0  0  0  0  0  0  0  0  0  0  0  0
   -4.3737    0.3256   -0.0705 H   0  0  0  0  0  0  0  0  0  0  0  0
   -3.4245   -2.2160    0.1937 H   0  0  0  0  0  0  0  0  0  0  0  0
   -1.2482   -2.1264    1.8270 H   0  0  0  0  0  0  0  0  0  0  0  0
    1.8133   -3.7121    0.1322 H   0  0  0  0  0  0  0  0  0  0  0  0
    0.3439   -2.8106   -0.3661 H   0  0  0  0  0  0  0  0  0  0  0  0
    0.8503   -2.8408    1.3536 H   0  0  0  0  0  0  0  0  0  0  0  0
    3.8074   -2.6453    0.9017 H   0  0  0  0  0  0  0  0  0  0  0  0
    2.9698   -1.6513    2.1187 H   0  0  0  0  0  0  0  0  0  0  0  0
    4.0590   -0.8824    0.9233 H   0  0  0  0  0  0  0  0  0  0  0  0
    3.1322   -2.5969   -1.5538 H   0  0  0  0  0  0  0  0  0  0  0  0
    3.4283   -0.8375   -1.5506 H   0  0  0  0  0  0  0  0  0  0  0  0
    1.8512   -1.4873   -2.1204 H   0  0  0  0  0  0  0  0  0  0  0  0
    3.9575    2.5540    0.3157 H   0  0  0  0  0  0  0  0  0  0  0  0
    4.1457    0.8282   -0.0831 H   0  0  0  0  0  0  0  0  0  0  0  0
    3.5440    1.3213    1.5387 H   0  0  0  0  0  0  0  0  0  0  0  0
    2.5879    2.7625   -1.8425 H   0  0  0  0  0  0  0  0  0  0  0  0
    1.1098    1.7817   -2.0738 H   0  0  0  0  0  0  0  0  0  0  0  0
    2.7181    1.0022   -2.1257 H   0  0  0  0  0  0  0  0  0  0  0  0
    1.8061    3.7127    0.2198 H   0  0  0  0  0  0  0  0  0  0  0  0
    1.4030    2.7400    1.6621 H   0  0  0  0  0  0  0  0  0  0  0  0
    0.2644    2.8093    0.2696 H   0  0  0  0  0  0  0  0  0  0  0  0
  1  2  1  0  0  0  0
  2 18  1  0  0  0  0
  2 17  1  0  0  0  0
  2  3  1  0  0  0  0
  3 20  1  0  0  0  0
  4  3  1  0  0  0  0
  5 21  1  0  0  0  0
  5  4  2  0  0  0  0
  6  7  1  0  0  0  0
  6  5  1  0  0  0  0
  7  8  1  0  0  0  0
  8 24  1  0  0  0  0
  8  4  1  0  0  0  0
  9  1  1  0  0  0  0
  9 10  1  0  0  0  0
  9 11  1  0  0  0  0
 10 27  1  0  0  0  0
 11 29  1  0  0  0  0
 12  9  1  0  0  0  0
 13  1  1  0  0  0  0
 13 14  1  0  0  0  0
 13 16  1  0  0  0  0
 14 36  1  0  0  0  0
 15 13  1  0  0  0  0
 16 41  1  0  0  0  0
 19  3  1  0  0  0  0
 22  6  1  0  0  0  0
 23  7  1  0  0  0  0
 25 10  1  0  0  0  0
 26 10  1  0  0  0  0
 28 11  1  0  0  0  0
 30 11  1  0  0  0  0
 31 12  1  0  0  0  0
 32 12  1  0  0  0  0
 33 12  1  0  0  0  0
 34 14  1  0  0  0  0
 35 14  1  0  0  0  0
 37 15  1  0  0  0  0
 38 15  1  0  0  0  0
 39 15  1  0  0  0  0
 40 16  1  0  0  0  0
 42 16  1  0  0  0  0
M  END
