1
q = 0.0, confidence = 0.802

 14 15  0  0  0  0  0  0  0  0999 V2000
    1.6354    0.9134    1.1553 C   0  0  0  0  0  3  0  0  0  0  0  0
    1.2175    1.6480    2.3860 C   0  0  0  0  0  0  0  0  0  0  0  0
    0.4471    1.2392    3.0606 H   0  0  0  0  0  0  0  0  0  0  0  0
    1.2344    2.7534    2.3603 H   0  0  0  0  0  0  0  0  0  0  0  0
    2.5504    0.8981    2.3334 C   0  0  0  0  0  0  0  0  0  0  0  0
    3.4858    1.4852    2.2834 H   0  0  0  0  0  0  0  0  0  0  0  0
    2.6310   -0.0137    2.9509 H   0  0  0  0  0  0  0  0  0  0  0  0
    1.8633    1.3471   -0.1906 C   0  0  0  0  0  3  0  0  0  0  0  0
    3.0994    1.8989   -0.8217 C   0  0  0  0  0  0  0  0  0  0  0  0
    3.4629    1.4968   -1.7831 H   0  0  0  0  0  0  0  0  0  0  0  0
    3.9089    2.2571   -0.1593 H   0  0  0  0  0  0  0  0  0  0  0  0
    1.7881    2.6813   -0.8571 C   0  0  0  0  0  0  0  0  0  0  0  0
    1.6975    3.5807   -0.2197 H   0  0  0  0  0  0  0  0  0  0  0  0
    1.2964    2.7924   -1.8384 H   0  0  0  0  0  0  0  0  0  0  0  0
  1  5  1  0  0  0  0
  1  2  1  0  0  0  0
  2  3  1  0  0  0  0
  4  2  1  0  0  0  0
  5  2  1  0  0  0  0
  5  7  1  0  0  0  0
  6  5  1  0  0  0  0
  8  1  1  0  0  0  0
  9  8  1  0  0  0  0
  9 11  1  0  0  0  0
 10  9  1  0  0  0  0
 12  9  1  0  0  0  0
 12 13  1  0  0  0  0
 12  8  1  0  0  0  0
 14 12  1  0  0  0  0
M  END
