5
q = -2.0, confidence = 0.838

 40 46  0  0  1  0  0  0  0  0999 V2000
    1.8397    0.5206    0.6534 C   0  0  1  0  0  3  0  0  0  0  0  0
    3.2690    0.4729   -0.2936 C   0  0  1  0  0  0  0  0  0  0  0  0
    3.2815   -0.5278   -1.4986 C   0  0  0  0  0  0  0  0  0  0  0  0
    1.9105   -1.1871   -1.6210 C   0  0  0  0  0  0  0  0  0  0  0  0
    1.5382   -2.4563   -1.0759 C   0  0  0  0  0  3  0  0  0  0  0  0
    2.1720   -3.0899   -0.4457 H   0  0  0  0  0  0  0  0  0  0  0  0
    0.2214   -2.7741   -1.5265 C   0  0  0  0  0  0  0  0  0  0  0  0
   -0.3313   -3.6950   -1.3088 H   0  0  0  0  0  0  0  0  0  0  0  0
   -0.2379   -1.6976   -2.3302 C   0  0  0  0  0  0  0  0  0  0  0  0
   -1.2151   -1.6267   -2.8186 H   0  0  0  0  0  0  0  0  0  0  0  0
    0.7936   -0.7137   -2.3810 C   0  0  0  0  0  0  0  0  0  0  0  0
    0.7342    0.2346   -2.9256 H   0  0  0  0  0  0  0  0  0  0  0  0
    3.5972    0.1969   -2.8256 C   0  0  0  0  0  0  0  0  0  0  0  0
    2.9257    1.0551   -3.0077 H   0  0  0  0  0  0  0  0  0  0  0  0
    3.4870   -0.5178   -3.6641 H   0  0  0  0  0  0  0  0  0  0  0  0
    4.6360    0.5734   -2.8252 H   0  0  0  0  0  0  0  0  0  0  0  0
    4.3568   -1.6185   -1.3089 C   0  0  0  0  0  0  0  0  0  0  0  0
    5.3668   -1.1717   -1.3430 H   0  0  0  0  0  0  0  0  0  0  0  0
    4.2780   -2.3593   -2.1279 H   0  0  0  0  0  0  0  0  0  0  0  0
    4.2588   -2.1479   -0.3442 H   0  0  0  0  0  0  0  0  0  0  0  0
    3.2638   -0.1769    1.2929 B   0  0  2  0  0  0  0  0  0  0  0  0
    3.3099   -1.3719    1.4479 H   0  0  0  0  0  0  0  0  0  0  0  0
    2.2677    0.9063    2.2744 B   0  0  2  0  0  0  0  0  0  0  0  0
    1.6236    0.4462    3.1812 H   0  0  0  0  0  0  0  0  0  0  0  0
    1.6001    2.1298    1.2024 B   0  0  1  0  0  0  0  0  0  0  0  0
    0.4683    2.5205    1.3135 H   0  0  0  0  0  0  0  0  0  0  0  0
    2.2177    1.8063   -0.4240 B   0  0  2  0  0  0  0  0  0  0  0  0
    1.5716    1.9362   -1.4275 H   0  0  0  0  0  0  0  0  0  0  0  0
    4.6443    0.7750    0.6751 B   0  0  2  0  0  0  0  0  0  0  0  0
    5.6689    0.2015    0.4073 H   0  0  0  0  0  0  0  0  0  0  0  0
    4.0312    1.0713    2.3152 B   0  0  2  0  0  0  0  0  0  0  0  0
    4.6678    0.7411    3.2883 H   0  0  0  0  0  0  0  0  0  0  0  0
    2.9898    2.5261    2.2510 B   0  0  0  0  0  0  0  0  0  0  0  0
    2.8596    3.2695    3.1954 H   0  0  0  0  0  0  0  0  0  0  0  0
    2.9449    3.1004    0.5590 B   0  0  0  0  0  0  0  0  0  0  0  0
    2.7904    4.2556    0.2417 H   0  0  0  0  0  0  0  0  0  0  0  0
    3.9862    2.0239   -0.3954 B   0  0  2  0  0  0  0  0  0  0  0  0
    4.5458    2.3285   -1.4158 H   0  0  0  0  0  0  0  0  0  0  0  0
    4.4626    2.4491    1.2588 B   0  0  0  0  0  0  0  0  0  0  0  0
    5.4348    3.1401    1.4562 H   0  0  0  0  0  0  0  0  0  0  0  0
  1 25  1  0  0  0  0
  1 21  1  0  0  0  0
  2 29  1  0  0  0  0
  3 17  1  0  0  0  0
  3  2  1  0  0  0  0
  4  3  1  0  0  0  0
  4  5  1  0  0  0  0
  5  6  1  0  0  0  0
  7  8  1  0  0  0  0
  7  5  1  0  0  0  0
  9  7  2  0  0  0  0
 10  9  1  0  0  0  0
 11  9  1  0  0  0  0
 11  4  2  0  0  0  0
 12 11  1  0  0  0  0
 13 16  1  0  0  0  0
 13  3  1  0  0  0  0
 14 13  1  0  0  0  0
 15 13  1  0  0  0  0
 17 20  1  0  0  0  0
 18 17  1  0  0  0  0
 19 17  1  0  0  0  0
 21 22  1  0  0  0  0
 21 23  1  0  0  0  0
 21 31  1  0  0  0  0
 23 31  1  0  0  0  0
 23 24  1  0  0  0  0
 25 26  1  0  0  0  0
 25 23  1  0  0  0  0
 27  2  1  0  0  0  0
 27  1  1  0  0  0  0
 27 25  1  0  0  0  0
 28 27  1  0  0  0  0
 29 31  1  0  0  0  0
 30 29  1  0  0  0  0
 31 32  1  0  0  0  0
 33 34  1  0  0  0  0
 35 39  1  0  0  0  0
 35 33  1  0  0  0  0
 36 35  1  0  0  0  0
 37  2  1  0  0  0  0
 37 29  1  0  0  0  0
 37 39  1  0  0  0  0
 38 37  1  0  0  0  0
 39 40  1  0  0  0  0
 39 33  1  0  0  0  0
M  END
