11
q = -1.0, confidence = 0.006

 20 20  0  0  0  0  0  0  0  0999 V2000
   -6.3397    2.4804    0.9529 N   0  0  0  0  0  0  0  0  0  0  0  0
   -4.6233    0.7690    1.2904 C   0  0  0  0  0  0  0  0  0  0  0  0
   -5.2932    0.1809    1.9305 H   0  0  0  0  0  0  0  0  0  0  0  0
   -5.0690    1.9960    0.7169 C   0  0  0  0  0  0  0  0  0  0  0  0
   -3.3383    0.2865    1.0533 C   0  0  0  0  0  0  0  0  0  0  0  0
   -3.0311   -0.6680    1.5035 H   0  0  0  0  0  0  0  0  0  0  0  0
   -4.1475    2.6993   -0.1129 C   0  0  0  0  0  0  0  0  0  0  0  0
   -4.4392    3.6458   -0.5859 H   0  0  0  0  0  0  0  0  0  0  0  0
   -2.8630    2.2104   -0.3422 C   0  0  0  0  0  0  0  0  0  0  0  0
   -2.1793    2.7803   -0.9868 H   0  0  0  0  0  0  0  0  0  0  0  0
   -1.0954    0.4770   -0.0148 C   0  0  0  0  0  1  0  0  0  0  0  0
   -2.4117    0.9913    0.2352 C   0  0  0  0  0  0  0  0  0  0  0  0
   -6.7633    3.7281    0.3506 C   0  0  0  0  0  0  0  0  0  0  0  0
   -7.8004    3.9505    0.6595 H   0  0  0  0  0  0  0  0  0  0  0  0
   -6.1240    4.5838    0.6653 H   0  0  0  0  0  0  0  0  0  0  0  0
   -6.7415    3.6868   -0.7623 H   0  0  0  0  0  0  0  0  0  0  0  0
   -7.2533    1.7382    1.7980 C   0  0  0  0  0  0  0  0  0  0  0  0
   -8.2096    2.2861    1.8734 H   0  0  0  0  0  0  0  0  0  0  0  0
   -7.4731    0.7247    1.3919 H   0  0  0  0  0  0  0  0  0  0  0  0
   -6.8556    1.6054    2.8295 H   0  0  0  0  0  0  0  0  0  0  0  0
  1 17  1  0  0  0  0
  2  3  1  0  0  0  0
  4  1  1  0  0  0  0
  4  2  2  0  0  0  0
  5  2  1  0  0  0  0
  5  6  1  0  0  0  0
  7  4  1  0  0  0  0
  8  7  1  0  0  0  0
  9  7  2  0  0  0  0
  9 12  1  0  0  0  0
 10  9  1  0  0  0  0
 11 12  1  0  0  0  0
 12  5  2  0  0  0  0
 13 14  1  0  0  0  0
 13 15  1  0  0  0  0
 13  1  1  0  0  0  0
 16 13  1  0  0  0  0
 17 18  1  0  0  0  0
 17 20  1  0  0  0  0
 19 17  1  0  0  0  0
M  END
