3
q = 0.0, confidence = 0.986

 30 30  0  0  0  0  0  0  0  0999 V2000
    1.6129    0.0738   -1.1711 As  0  0  0  0  0  2  0  0  0  0  0  0
    2.4279    0.4019    1.6110 O   0  0  0  0  0  0  0  0  0  0  0  0
   -0.0723    0.7644   -0.5847 C   0  0  0  0  0  3  0  0  0  0  0  0
   -0.7068    1.9518   -0.7644 C   0  0  0  0  0  0  0  0  0  0  0  0
   -0.2041    2.7367   -1.3615 H   0  0  0  0  0  0  0  0  0  0  0  0
   -2.0507    2.3110   -0.2873 C   0  0  0  0  0  0  0  0  0  0  0  0
   -2.8138    3.2691   -0.9991 C   0  0  0  0  0  0  0  0  0  0  0  0
   -2.3776    3.7396   -1.8948 H   0  0  0  0  0  0  0  0  0  0  0  0
   -4.1102    3.6108   -0.5917 C   0  0  0  0  0  0  0  0  0  0  0  0
   -4.6870    4.3504   -1.1683 H   0  0  0  0  0  0  0  0  0  0  0  0
   -4.6722    3.0159    0.5499 C   0  0  0  0  0  0  0  0  0  0  0  0
   -5.6883    3.2872    0.8741 H   0  0  0  0  0  0  0  0  0  0  0  0
   -3.9161    2.0881    1.2872 C   0  0  0  0  0  0  0  0  0  0  0  0
   -4.3336    1.6428    2.2039 H   0  0  0  0  0  0  0  0  0  0  0  0
   -2.6225    1.7417    0.8777 C   0  0  0  0  0  0  0  0  0  0  0  0
   -2.0188    1.0504    1.4811 H   0  0  0  0  0  0  0  0  0  0  0  0
    2.6501    0.8033    0.4945 C   0  0  0  0  0  0  0  0  0  0  0  0
    3.7011    1.8837    0.1659 C   0  0  0  0  0  0  0  0  0  0  0  0
    3.0058    3.0381   -0.5836 C   0  0  0  0  0  0  0  0  0  0  0  0
    3.7479    3.8264   -0.8254 H   0  0  0  0  0  0  0  0  0  0  0  0
    2.2024    3.4913    0.0308 H   0  0  0  0  0  0  0  0  0  0  0  0
    2.5538    2.6955   -1.5375 H   0  0  0  0  0  0  0  0  0  0  0  0
    4.7726    1.2353   -0.7356 C   0  0  0  0  0  0  0  0  0  0  0  0
    5.5433    1.9889   -0.9979 H   0  0  0  0  0  0  0  0  0  0  0  0
    4.3392    0.8524   -1.6822 H   0  0  0  0  0  0  0  0  0  0  0  0
    5.2764    0.3926   -0.2207 H   0  0  0  0  0  0  0  0  0  0  0  0
    4.3277    2.3877    1.4738 C   0  0  0  0  0  0  0  0  0  0  0  0
    5.0959    3.1574    1.2572 H   0  0  0  0  0  0  0  0  0  0  0  0
    4.8056    1.5592    2.0313 H   0  0  0  0  0  0  0  0  0  0  0  0
    3.5600    2.8336    2.1359 H   0  0  0  0  0  0  0  0  0  0  0  0
  1  3  1  0  0  0  0
  1 17  1  0  0  0  0
  4  3  2  0  0  0  0
  4  6  1  0  0  0  0
  5  4  1  0  0  0  0
  6 15  1  0  0  0  0
  7  9  1  0  0  0  0
  7  6  2  0  0  0  0
  8  7  1  0  0  0  0
  9 11  2  0  0  0  0
 10  9  1  0  0  0  0
 11 12  1  0  0  0  0
 11 13  1  0  0  0  0
 13 14  1  0  0  0  0
 15 13  2  0  0  0  0
 15 16  1  0  0  0  0
 17  2  2  0  0  0  0
 18 17  1  0  0  0  0
 18 27  1  0  0  0  0
 19 21  1  0  0  0  0
 19 18  1  0  0  0  0
 20 19  1  0  0  0  0
 22 19  1  0  0  0  0
 23 26  1  0  0  0  0
 23 18  1  0  0  0  0
 24 23  1  0  0  0  0
 25 23  1  0  0  0  0
 27 29  1  0  0  0  0
 27 30  1  0  0  0  0
 28 27  1  0  0  0  0
M  END
