12
q = 0.0, confidence = 1.0

 29 30  0  0  1  0  0  0  0  0999 V2000
    2.4280   -1.3789    0.7512 C   0  0  0  0  0  0  0  0  0  0  0  0
    2.6682   -1.9914    1.6477 H   0  0  0  0  0  0  0  0  0  0  0  0
    2.4194   -2.0933   -0.1003 H   0  0  0  0  0  0  0  0  0  0  0  0
    3.6179   -0.4396    0.5284 C   0  0  0  0  0  0  0  0  0  0  0  0
    4.7588   -0.8646    0.5764 O   0  0  0  0  0  0  0  0  0  0  0  0
    3.2818    1.0106    0.2374 C   0  0  0  0  0  0  0  0  0  0  0  0
    2.9105    1.0551   -0.8113 H   0  0  0  0  0  0  0  0  0  0  0  0
    4.2134    1.6041    0.2985 H   0  0  0  0  0  0  0  0  0  0  0  0
    2.1810    1.5437    1.1639 C   0  0  0  0  0  0  0  0  0  0  0  0
    2.5618    1.6000    2.2087 H   0  0  0  0  0  0  0  0  0  0  0  0
    1.9093    2.5777    0.8724 H   0  0  0  0  0  0  0  0  0  0  0  0
    0.9503    0.6695    1.1353 C   0  0  1  0  0  3  0  0  0  0  0  0
   -0.3583    1.2366    1.3039 C   0  0  0  0  0  0  0  0  0  0  0  0
   -0.4460    2.3230    1.4319 H   0  0  0  0  0  0  0  0  0  0  0  0
   -1.5279    0.4377    1.2666 C   0  0  0  0  0  0  0  0  0  0  0  0
   -2.7876    0.8958    1.4156 O   0  0  0  0  0  0  0  0  0  0  0  0
   -1.3999   -0.9837    1.0291 C   0  0  0  0  0  0  0  0  0  0  0  0
   -2.5560   -1.6750    0.9850 O   0  0  0  0  0  0  0  0  0  0  0  0
   -0.1096   -1.5399    0.8471 C   0  0  0  0  0  0  0  0  0  0  0  0
   -0.0026   -2.6096    0.6280 H   0  0  0  0  0  0  0  0  0  0  0  0
    1.0747   -0.7287    0.9082 C   0  0  2  0  0  3  0  0  0  0  0  0
   -3.0086    2.2892    1.2451 C   0  0  0  0  0  0  0  0  0  0  0  0
   -2.5606    2.8850    2.0705 H   0  0  0  0  0  0  0  0  0  0  0  0
   -4.1042    2.4325    1.2546 H   0  0  0  0  0  0  0  0  0  0  0  0
   -2.5961    2.6344    0.2715 H   0  0  0  0  0  0  0  0  0  0  0  0
   -2.5335   -2.9666    0.3912 C   0  0  0  0  0  0  0  0  0  0  0  0
   -2.0864   -2.9223   -0.6259 H   0  0  0  0  0  0  0  0  0  0  0  0
   -3.5869   -3.2918    0.3184 H   0  0  0  0  0  0  0  0  0  0  0  0
   -1.9722   -3.6983    1.0128 H   0  0  0  0  0  0  0  0  0  0  0  0
  1 21  1  0  0  0  0
  1  2  1  0  0  0  0
  3  1  1  0  0  0  0
  4  5  2  0  0  0  0
  4  1  1  0  0  0  0
  6  8  1  0  0  0  0
  6  4  1  0  0  0  0
  6  9  1  0  0  0  0
  7  6  1  0  0  0  0
  9 10  1  0  0  0  0
 11  9  1  0  0  0  0
 12  9  1  0  0  0  0
 12 13  1  6  0  0  0
 13 14  1  0  0  0  0
 15 13  2  0  0  0  0
 15 16  1  0  0  0  0
 17 15  1  0  0  0  0
 18 17  1  0  0  0  0
 19 17  2  0  0  0  0
 20 19  1  0  0  0  0
 21 19  1  1  0  0  0
 21 12  1  0  0  0  0
 22 24  1  0  0  0  0
 22 16  1  0  0  0  0
 22 23  1  0  0  0  0
 25 22  1  0  0  0  0
 26 18  1  0  0  0  0
 26 29  1  0  0  0  0
 27 26  1  0  0  0  0
 28 26  1  0  0  0  0
M  END
