5
q = 0.0, confidence = 0.992

 21 23  0  0  0  0  0  0  0  0999 V2000
    1.4503   -2.1420    0.0892 S   0  0  0  0  0  0  0  0  0  0  0  0
    0.1787   -1.2608   -0.7100 C   0  0  0  0  0  0  0  0  0  0  0  0
   -1.1242   -1.7541   -1.0252 C   0  0  0  0  0  3  0  0  0  0  0  0
   -1.4278   -2.7687   -0.7312 H   0  0  0  0  0  0  0  0  0  0  0  0
   -2.0163   -0.9211   -1.7456 C   0  0  0  0  0  3  0  0  0  0  0  0
   -3.0153   -1.3004   -2.0054 H   0  0  0  0  0  0  0  0  0  0  0  0
   -1.6550    0.4193   -2.0890 C   0  0  0  0  0  0  0  0  0  0  0  0
   -2.3743    1.0670   -2.6088 H   0  0  0  0  0  0  0  0  0  0  0  0
   -0.4056    0.9385   -1.6706 C   0  0  0  0  0  0  0  0  0  0  0  0
   -0.1573    1.9902   -1.8749 H   0  0  0  0  0  0  0  0  0  0  0  0
    0.5472    0.1022   -1.0044 C   0  0  0  0  0  0  0  0  0  0  0  0
    1.8831    0.4166   -0.5384 C   0  0  0  0  0  0  0  0  0  0  0  0
    2.5965    1.6303   -0.6269 C   0  0  0  0  0  0  0  0  0  0  0  0
    2.1416    2.5149   -1.0966 H   0  0  0  0  0  0  0  0  0  0  0  0
    3.8924    1.6954   -0.1089 C   0  0  0  0  0  0  0  0  0  0  0  0
    4.4578    2.6361   -0.1717 H   0  0  0  0  0  0  0  0  0  0  0  0
    4.4846    0.5645    0.4943 C   0  0  0  0  0  0  0  0  0  0  0  0
    5.5064    0.6360    0.8953 H   0  0  0  0  0  0  0  0  0  0  0  0
    3.7968   -0.6528    0.5935 C   0  0  0  0  0  0  0  0  0  0  0  0
    4.2657   -1.5286    1.0640 H   0  0  0  0  0  0  0  0  0  0  0  0
    2.4966   -0.7128    0.0735 C   0  0  0  0  0  0  0  0  0  0  0  0
  2  1  1  0  0  0  0
  3  4  1  0  0  0  0
  3  2  1  0  0  0  0
  5  3  1  0  0  0  0
  6  5  1  0  0  0  0
  7  5  1  0  0  0  0
  7  9  2  0  0  0  0
  8  7  1  0  0  0  0
  9 11  1  0  0  0  0
 10  9  1  0  0  0  0
 11  2  2  0  0  0  0
 11 12  1  0  0  0  0
 12 21  1  0  0  0  0
 13 12  2  0  0  0  0
 13 15  1  0  0  0  0
 14 13  1  0  0  0  0
 15 17  2  0  0  0  0
 16 15  1  0  0  0  0
 17 19  1  0  0  0  0
 17 18  1  0  0  0  0
 19 20  1  0  0  0  0
 21  1  1  0  0  0  0
 21 19  2  0  0  0  0
M  END
