3
q = 0.0, confidence = 0.998

 39 43  0  0  1  0  0  0  0  0999 V2000
    0.3439   -1.0171   -1.0936 N   0  0  0  0  0  0  0  0  0  0  0  0
    0.3439   -1.0171    1.0936 N   0  0  0  0  0  0  0  0  0  0  0  0
    1.1206   -0.8659   -0.0000 C   0  0  0  0  0  2  0  0  0  0  0  0
   -1.0754   -1.2082   -0.7785 C   0  0  1  0  0  0  0  0  0  0  0  0
   -1.0754   -1.2082    0.7785 C   0  0  2  0  0  0  0  0  0  0  0  0
    0.8012   -0.9217   -2.4605 C   0  0  0  0  0  0  0  0  0  0  0  0
    0.8013   -0.9218    2.4605 C   0  0  0  0  0  0  0  0  0  0  0  0
   -1.9974   -0.0478   -1.3038 C   0  0  1  0  0  0  0  0  0  0  0  0
   -3.3641   -0.3186   -0.7070 C   0  0  0  0  0  0  0  0  0  0  0  0
   -4.5464   -0.5733   -1.4121 C   0  0  0  0  0  0  0  0  0  0  0  0
   -5.7350   -0.8214   -0.7020 C   0  0  0  0  0  0  0  0  0  0  0  0
   -5.7350   -0.8214    0.7020 C   0  0  0  0  0  0  0  0  0  0  0  0
   -4.5464   -0.5733    1.4121 C   0  0  0  0  0  0  0  0  0  0  0  0
   -3.3641   -0.3186    0.7070 C   0  0  0  0  0  0  0  0  0  0  0  0
   -1.9974   -0.0478    1.3038 C   0  0  2  0  0  0  0  0  0  0  0  0
   -1.4489    1.2325    0.7068 C   0  0  0  0  0  0  0  0  0  0  0  0
   -0.9184    2.3196    1.4114 C   0  0  0  0  0  0  0  0  0  0  0  0
   -0.3920    3.4134    0.7019 C   0  0  0  0  0  0  0  0  0  0  0  0
   -0.3920    3.4134   -0.7018 C   0  0  0  0  0  0  0  0  0  0  0  0
   -0.9184    2.3196   -1.4114 C   0  0  0  0  0  0  0  0  0  0  0  0
   -1.4489    1.2325   -0.7068 C   0  0  0  0  0  0  0  0  0  0  0  0
   -1.4375   -2.1683   -1.2028 H   0  0  0  0  0  0  0  0  0  0  0  0
   -1.4375   -2.1683    1.2028 H   0  0  0  0  0  0  0  0  0  0  0  0
    1.9075   -0.9026   -2.4617 H   0  0  0  0  0  0  0  0  0  0  0  0
    0.4353    0.0062   -2.9504 H   0  0  0  0  0  0  0  0  0  0  0  0
    0.4517   -1.7965   -3.0493 H   0  0  0  0  0  0  0  0  0  0  0  0
    0.4352    0.0062    2.9504 H   0  0  0  0  0  0  0  0  0  0  0  0
    1.9076   -0.9026    2.4617 H   0  0  0  0  0  0  0  0  0  0  0  0
    0.4517   -1.7965    3.0493 H   0  0  0  0  0  0  0  0  0  0  0  0
   -2.0202   -0.0309   -2.4099 H   0  0  0  0  0  0  0  0  0  0  0  0
   -4.5447   -0.5729   -2.5134 H   0  0  0  0  0  0  0  0  0  0  0  0
   -6.6692   -1.0140   -1.2506 H   0  0  0  0  0  0  0  0  0  0  0  0
   -6.6692   -1.0140    1.2506 H   0  0  0  0  0  0  0  0  0  0  0  0
   -4.5447   -0.5730    2.5134 H   0  0  0  0  0  0  0  0  0  0  0  0
   -2.0202   -0.0309    2.4099 H   0  0  0  0  0  0  0  0  0  0  0  0
   -0.9156    2.3175    2.5129 H   0  0  0  0  0  0  0  0  0  0  0  0
    0.0254    4.2711    1.2501 H   0  0  0  0  0  0  0  0  0  0  0  0
    0.0254    4.2711   -1.2500 H   0  0  0  0  0  0  0  0  0  0  0  0
   -0.9157    2.3176   -2.5129 H   0  0  0  0  0  0  0  0  0  0  0  0
  1  4  1  0  0  0  0
  1  3  1  0  0  0  0
  2  7  1  0  0  0  0
  3  2  1  0  0  0  0
  4 22  1  6  0  0  0
  4  5  1  0  0  0  0
  5  2  1  0  0  0  0
  5 23  1  1  0  0  0
  5 15  1  0  0  0  0
  6  1  1  0  0  0  0
  7 28  1  0  0  0  0
  7 27  1  0  0  0  0
  7 29  1  0  0  0  0
  8 30  1  6  0  0  0
  8  4  1  0  0  0  0
  8  9  1  0  0  0  0
  8 21  1  0  0  0  0
  9 14  1  0  0  0  0
 10  9  2  0  0  0  0
 10 11  1  0  0  0  0
 11 12  2  0  0  0  0
 12 33  1  0  0  0  0
 12 13  1  0  0  0  0
 13 34  1  0  0  0  0
 14 15  1  0  0  0  0
 14 13  2  0  0  0  0
 15 35  1  1  0  0  0
 16 15  1  0  0  0  0
 16 17  1  0  0  0  0
 17 36  1  0  0  0  0
 18 37  1  0  0  0  0
 18 17  2  0  0  0  0
 19 18  1  0  0  0  0
 20 21  1  0  0  0  0
 20 19  2  0  0  0  0
 21 16  2  0  0  0  0
 24  6  1  0  0  0  0
 25  6  1  0  0  0  0
 26  6  1  0  0  0  0
 31 10  1  0  0  0  0
 32 11  1  0  0  0  0
 38 19  1  0  0  0  0
 39 20  1  0  0  0  0
M  END
