9
q = -1.0, confidence = 0.0

  9  9  0  0  0  0  0  0  0  0999 V2000
    1.4928   -2.8496    0.7015 N   0  0  0  0  0  0  0  0  0  0  0  0
    2.3563   -2.3722    1.7660 C   0  0  0  0  0  0  0  0  0  0  0  0
    2.1179   -1.3136    1.9752 H   0  0  0  0  0  0  0  0  0  0  0  0
    3.4232   -2.4743    1.4860 H   0  0  0  0  0  0  0  0  0  0  0  0
    2.1767   -2.9701    2.6795 H   0  0  0  0  0  0  0  0  0  0  0  0
    1.4505   -4.1787    0.4202 N   0  0  0  0  0  0  0  0  0  0  0  0
    0.5296   -4.3395   -0.4759 N   0  0  0  0  0  0  0  0  0  0  0  0
   -0.0488   -3.1497   -0.7895 N   0  0  0  0  0  0  0  0  0  0  0  0
    0.5530   -2.2012   -0.0593 C   0  0  0  0  0  3  0  0  0  0  0  0
  1  2  1  0  0  0  0
  2  3  1  0  0  0  0
  2  5  1  0  0  0  0
  4  2  1  0  0  0  0
  6  1  1  0  0  0  0
  7  6  2  0  0  0  0
  8  7  1  0  0  0  0
  8  9  2  0  0  0  0
  9  1  1  0  0  0  0
M  END
