1
q = 0.0, confidence = 1.0

 50 52  0  0  0  0  0  0  0  0999 V2000
    0.6189    1.3563   -0.1188 C   0  0  0  0  0  2  0  0  0  0  0  0
   -0.0390    2.5134   -0.3958 N   0  0  0  0  0  0  0  0  0  0  0  0
    0.8487    3.4481   -0.9145 C   0  0  0  0  0  0  0  0  0  0  0  0
    0.5244    4.4534   -1.1980 H   0  0  0  0  0  0  0  0  0  0  0  0
    2.0819    2.8545   -0.9563 C   0  0  0  0  0  0  0  0  0  0  0  0
    3.0567    3.2250   -1.2847 H   0  0  0  0  0  0  0  0  0  0  0  0
    1.9212    1.5645   -0.4653 N   0  0  0  0  0  0  0  0  0  0  0  0
   -1.4437    2.8617   -0.0865 C   0  0  0  0  0  0  0  0  0  0  0  0
   -1.7178    3.6591   -0.8075 H   0  0  0  0  0  0  0  0  0  0  0  0
   -1.4791    3.2774    0.9390 H   0  0  0  0  0  0  0  0  0  0  0  0
   -2.4431    1.7246   -0.1141 C   0  0  0  0  0  0  0  0  0  0  0  0
   -3.1223    1.5764    1.0370 N   0  0  0  0  0  0  0  0  0  0  0  0
   -3.9904    0.5683    1.1325 C   0  0  0  0  0  0  0  0  0  0  0  0
   -4.5332    0.4753    2.0907 H   0  0  0  0  0  0  0  0  0  0  0  0
   -4.2344   -0.3690    0.1113 C   0  0  0  0  0  0  0  0  0  0  0  0
   -5.1767   -1.5189    0.3148 C   0  0  0  0  0  0  0  0  0  0  0  0
   -5.9365   -1.2787    1.0837 H   0  0  0  0  0  0  0  0  0  0  0  0
   -4.6203   -2.4123    0.6703 H   0  0  0  0  0  0  0  0  0  0  0  0
   -5.6889   -1.7886   -0.6291 H   0  0  0  0  0  0  0  0  0  0  0  0
   -3.5604   -0.1596   -1.1129 C   0  0  0  0  0  0  0  0  0  0  0  0
   -3.8249   -0.9509   -2.1975 O   0  0  0  0  0  0  0  0  0  0  0  0
   -3.1972   -2.2404   -2.2134 C   0  0  0  0  0  0  0  0  0  0  0  0
   -2.0962   -2.1449   -2.3100 H   0  0  0  0  0  0  0  0  0  0  0  0
   -3.6132   -2.7782   -3.0860 H   0  0  0  0  0  0  0  0  0  0  0  0
   -3.4095   -2.8165   -1.2888 H   0  0  0  0  0  0  0  0  0  0  0  0
   -2.6580    0.9240   -1.2601 C   0  0  0  0  0  0  0  0  0  0  0  0
   -1.9640    1.1568   -2.5725 C   0  0  0  0  0  0  0  0  0  0  0  0
   -1.7317    2.2268   -2.7401 H   0  0  0  0  0  0  0  0  0  0  0  0
   -2.5939    0.7908   -3.4047 H   0  0  0  0  0  0  0  0  0  0  0  0
   -1.0112    0.5853   -2.6121 H   0  0  0  0  0  0  0  0  0  0  0  0
    2.9911    0.5996   -0.3628 C   0  0  0  0  0  0  0  0  0  0  0  0
    3.5619    0.3515    0.9051 C   0  0  0  0  0  0  0  0  0  0  0  0
    4.5819   -0.6151    0.9717 C   0  0  0  0  0  0  0  0  0  0  0  0
    5.0370   -0.8292    1.9517 H   0  0  0  0  0  0  0  0  0  0  0  0
    5.0395   -1.3013   -0.1668 C   0  0  0  0  0  0  0  0  0  0  0  0
    4.4732   -0.9781   -1.4141 C   0  0  0  0  0  0  0  0  0  0  0  0
    4.8341   -1.4888   -2.3208 H   0  0  0  0  0  0  0  0  0  0  0  0
    3.4484   -0.0267   -1.5443 C   0  0  0  0  0  0  0  0  0  0  0  0
    2.8659    0.3081   -2.8921 C   0  0  0  0  0  0  0  0  0  0  0  0
    1.7648    0.1807   -2.8816 H   0  0  0  0  0  0  0  0  0  0  0  0
    3.2797   -0.3572   -3.6726 H   0  0  0  0  0  0  0  0  0  0  0  0
    3.0840    1.3545   -3.1915 H   0  0  0  0  0  0  0  0  0  0  0  0
    6.0961   -2.3700   -0.0533 C   0  0  0  0  0  0  0  0  0  0  0  0
    5.6270   -3.3681    0.0830 H   0  0  0  0  0  0  0  0  0  0  0  0
    6.7598   -2.1997    0.8168 H   0  0  0  0  0  0  0  0  0  0  0  0
    6.7222   -2.4264   -0.9654 H   0  0  0  0  0  0  0  0  0  0  0  0
    3.1256    1.1012    2.1346 C   0  0  0  0  0  0  0  0  0  0  0  0
    3.0458    2.1906    1.9411 H   0  0  0  0  0  0  0  0  0  0  0  0
    3.8461    0.9494    2.9598 H   0  0  0  0  0  0  0  0  0  0  0  0
    2.1244    0.7774    2.4912 H   0  0  0  0  0  0  0  0  0  0  0  0
  2  1  1  0  0  0  0
  2  8  1  0  0  0  0
  3  2  1  0  0  0  0
  4  3  1  0  0  0  0
  5  3  2  0  0  0  0
  5  7  1  0  0  0  0
  6  5  1  0  0  0  0
  7 31  1  0  0  0  0
  7  1  1  0  0  0  0
  8 10  1  0  0  0  0
  9  8  1  0  0  0  0
 11  8  1  0  0  0  0
 11 12  1  0  0  0  0
 12 13  2  0  0  0  0
 13 14  1  0  0  0  0
 15 16  1  0  0  0  0
 15 13  1  0  0  0  0
 16 18  1  0  0  0  0
 16 17  1  0  0  0  0
 19 16  1  0  0  0  0
 20 15  2  0  0  0  0
 21 20  1  0  0  0  0
 22 21  1  0  0  0  0
 22 25  1  0  0  0  0
 23 22  1  0  0  0  0
 24 22  1  0  0  0  0
 26 20  1  0  0  0  0
 26 11  2  0  0  0  0
 27 26  1  0  0  0  0
 28 27  1  0  0  0  0
 29 27  1  0  0  0  0
 30 27  1  0  0  0  0
 31 32  1  0  0  0  0
 32 33  2  0  0  0  0
 32 47  1  0  0  0  0
 33 34  1  0  0  0  0
 35 43  1  0  0  0  0
 35 33  1  0  0  0  0
 36 35  2  0  0  0  0
 37 36  1  0  0  0  0
 38 36  1  0  0  0  0
 38 31  2  0  0  0  0
 39 40  1  0  0  0  0
 39 38  1  0  0  0  0
 41 39  1  0  0  0  0
 42 39  1  0  0  0  0
 43 44  1  0  0  0  0
 43 45  1  0  0  0  0
 46 43  1  0  0  0  0
 47 50  1  0  0  0  0
 47 49  1  0  0  0  0
 48 47  1  0  0  0  0
M  END
