1
q = 0.0, confidence = 1.0

 45 48  0  0  0  0  0  0  0  0999 V2000
   -0.2065   -0.5460   -0.5861 C   0  0  0  0  0  2  0  0  0  0  0  0
    0.4364    0.6598   -0.5223 N   0  0  0  0  0  0  0  0  0  0  0  0
   -0.2528    1.9558   -0.6585 C   0  0  0  0  0  0  0  0  0  0  0  0
   -0.4069    2.1679   -1.7365 H   0  0  0  0  0  0  0  0  0  0  0  0
    0.4427    2.7231   -0.2659 H   0  0  0  0  0  0  0  0  0  0  0  0
   -1.5748    2.0122    0.0729 C   0  0  0  0  0  0  0  0  0  0  0  0
   -2.7647    2.2832   -0.6276 C   0  0  0  0  0  0  0  0  0  0  0  0
   -2.7281    2.4549   -1.7148 H   0  0  0  0  0  0  0  0  0  0  0  0
   -3.9988    2.2953    0.0419 C   0  0  0  0  0  0  0  0  0  0  0  0
   -4.9238    2.4776   -0.5245 H   0  0  0  0  0  0  0  0  0  0  0  0
   -4.0516    2.0292    1.4162 C   0  0  0  0  0  0  0  0  0  0  0  0
   -5.0200    1.9971    1.9366 H   0  0  0  0  0  0  0  0  0  0  0  0
   -2.8665    1.7742    2.1258 C   0  0  0  0  0  0  0  0  0  0  0  0
   -2.9088    1.5476    3.2010 H   0  0  0  0  0  0  0  0  0  0  0  0
   -1.6350    1.7745    1.4617 C   0  0  0  0  0  0  0  0  0  0  0  0
   -0.7103    1.5492    2.0163 H   0  0  0  0  0  0  0  0  0  0  0  0
    1.8035    0.5000   -0.2693 C   0  0  0  0  0  0  0  0  0  0  0  0
    2.7752    1.5978   -0.1379 C   0  0  0  0  0  0  0  0  0  0  0  0
    3.6329    1.6447    0.9850 C   0  0  0  0  0  0  0  0  0  0  0  0
    3.5398    0.8722    1.7623 H   0  0  0  0  0  0  0  0  0  0  0  0
    4.5866    2.6626    1.1101 C   0  0  0  0  0  0  0  0  0  0  0  0
    5.2456    2.6858    1.9911 H   0  0  0  0  0  0  0  0  0  0  0  0
    4.6960    3.6551    0.1225 C   0  0  0  0  0  0  0  0  0  0  0  0
    5.4424    4.4571    0.2248 H   0  0  0  0  0  0  0  0  0  0  0  0
    3.8494    3.6195   -0.9968 C   0  0  0  0  0  0  0  0  0  0  0  0
    3.9350    4.3892   -1.7787 H   0  0  0  0  0  0  0  0  0  0  0  0
    2.8995    2.5974   -1.1307 C   0  0  0  0  0  0  0  0  0  0  0  0
    2.2606    2.5583   -2.0257 H   0  0  0  0  0  0  0  0  0  0  0  0
    2.0182   -0.8676   -0.1575 C   0  0  0  0  0  0  0  0  0  0  0  0
    3.2772   -1.5899    0.0843 C   0  0  0  0  0  0  0  0  0  0  0  0
    3.3708   -2.6084    1.0608 C   0  0  0  0  0  0  0  0  0  0  0  0
    2.4894   -2.8693    1.6643 H   0  0  0  0  0  0  0  0  0  0  0  0
    4.5866   -3.2677    1.2888 C   0  0  0  0  0  0  0  0  0  0  0  0
    4.6425   -4.0556    2.0549 H   0  0  0  0  0  0  0  0  0  0  0  0
    5.7301   -2.9171    0.5540 C   0  0  0  0  0  0  0  0  0  0  0  0
    6.6840   -3.4346    0.7360 H   0  0  0  0  0  0  0  0  0  0  0  0
    5.6505   -1.9021   -0.4135 C   0  0  0  0  0  0  0  0  0  0  0  0
    6.5417   -1.6234   -0.9957 H   0  0  0  0  0  0  0  0  0  0  0  0
    4.4361   -1.2464   -0.6504 C   0  0  0  0  0  0  0  0  0  0  0  0
    4.3720   -0.4595   -1.4160 H   0  0  0  0  0  0  0  0  0  0  0  0
    0.7727   -1.4708   -0.3618 N   0  0  0  0  0  0  0  0  0  0  0  0
    0.5170   -2.9042   -0.3731 C   0  0  0  0  0  0  0  0  0  0  0  0
    0.3643   -3.2912    0.6539 H   0  0  0  0  0  0  0  0  0  0  0  0
    1.3666   -3.4362   -0.8403 H   0  0  0  0  0  0  0  0  0  0  0  0
   -0.4081   -3.0784   -0.9525 H   0  0  0  0  0  0  0  0  0  0  0  0
  1  2  1  0  0  0  0
  1 41  1  0  0  0  0
  2 17  1  0  0  0  0
  3  2  1  0  0  0  0
  3  5  1  0  0  0  0
  3  6  1  0  0  0  0
  4  3  1  0  0  0  0
  6 15  1  0  0  0  0
  7  9  1  0  0  0  0
  7  6  2  0  0  0  0
  8  7  1  0  0  0  0
  9 11  2  0  0  0  0
 10  9  1  0  0  0  0
 11 12  1  0  0  0  0
 11 13  1  0  0  0  0
 13 14  1  0  0  0  0
 15 16  1  0  0  0  0
 15 13  2  0  0  0  0
 17 29  2  0  0  0  0
 17 18  1  0  0  0  0
 18 19  1  0  0  0  0
 19 21  2  0  0  0  0
 19 20  1  0  0  0  0
 21 22  1  0  0  0  0
 23 24  1  0  0  0  0
 23 21  1  0  0  0  0
 25 23  2  0  0  0  0
 26 25  1  0  0  0  0
 27 25  1  0  0  0  0
 27 18  2  0  0  0  0
 28 27  1  0  0  0  0
 29 30  1  0  0  0  0
 30 31  1  0  0  0  0
 31 33  2  0  0  0  0
 31 32  1  0  0  0  0
 33 34  1  0  0  0  0
 35 36  1  0  0  0  0
 35 33  1  0  0  0  0
 37 35  2  0  0  0  0
 38 37  1  0  0  0  0
 39 37  1  0  0  0  0
 39 30  2  0  0  0  0
 40 39  1  0  0  0  0
 41 29  1  0  0  0  0
 42 41  1  0  0  0  0
 42 43  1  0  0  0  0
 44 42  1  0  0  0  0
 45 42  1  0  0  0  0
M  END
