1
q = 0.0, confidence = 0.998

 35 37  0  0  0  0  0  0  0  0999 V2000
   -0.7848   -0.4861   -0.1297 C   0  0  0  0  0  2  0  0  0  0  0  0
   -0.1844    0.7408   -0.0854 N   0  0  0  0  0  0  0  0  0  0  0  0
   -0.9379    1.9922   -0.0401 C   0  0  0  0  0  0  0  0  0  0  0  0
   -0.8989    2.5094   -1.0186 H   0  0  0  0  0  0  0  0  0  0  0  0
   -0.5103    2.6573    0.7334 H   0  0  0  0  0  0  0  0  0  0  0  0
   -1.9996    1.7657    0.1931 H   0  0  0  0  0  0  0  0  0  0  0  0
    1.2069    0.6236   -0.0390 C   0  0  0  0  0  0  0  0  0  0  0  0
    2.1454    1.7536    0.0591 C   0  0  0  0  0  0  0  0  0  0  0  0
    2.0706    2.8604   -0.8169 C   0  0  0  0  0  0  0  0  0  0  0  0
    1.2992    2.8864   -1.5999 H   0  0  0  0  0  0  0  0  0  0  0  0
    2.9903    3.9132   -0.7141 C   0  0  0  0  0  0  0  0  0  0  0  0
    2.9194    4.7665   -1.4053 H   0  0  0  0  0  0  0  0  0  0  0  0
    4.0026    3.8759    0.2575 C   0  0  0  0  0  0  0  0  0  0  0  0
    4.7239    4.7032    0.3358 H   0  0  0  0  0  0  0  0  0  0  0  0
    4.0901    2.7781    1.1291 C   0  0  0  0  0  0  0  0  0  0  0  0
    4.8786    2.7432    1.8958 H   0  0  0  0  0  0  0  0  0  0  0  0
    3.1689    1.7277    1.0347 C   0  0  0  0  0  0  0  0  0  0  0  0
    3.2304    0.8734    1.7246 H   0  0  0  0  0  0  0  0  0  0  0  0
    1.4828   -0.7390   -0.0509 C   0  0  0  0  0  0  0  0  0  0  0  0
    2.7870   -1.4205   -0.0560 C   0  0  0  0  0  0  0  0  0  0  0  0
    3.8034   -0.9797   -0.9356 C   0  0  0  0  0  0  0  0  0  0  0  0
    3.5933   -0.1471   -1.6226 H   0  0  0  0  0  0  0  0  0  0  0  0
    5.0602   -1.5968   -0.9385 C   0  0  0  0  0  0  0  0  0  0  0  0
    5.8386   -1.2420   -1.6308 H   0  0  0  0  0  0  0  0  0  0  0  0
    5.3246   -2.6691   -0.0707 C   0  0  0  0  0  0  0  0  0  0  0  0
    6.3114   -3.1559   -0.0773 H   0  0  0  0  0  0  0  0  0  0  0  0
    4.3240   -3.1159    0.8063 C   0  0  0  0  0  0  0  0  0  0  0  0
    4.5261   -3.9492    1.4961 H   0  0  0  0  0  0  0  0  0  0  0  0
    3.0668   -2.4959    0.8184 C   0  0  0  0  0  0  0  0  0  0  0  0
    2.3018   -2.8326    1.5328 H   0  0  0  0  0  0  0  0  0  0  0  0
    0.2432   -1.3839   -0.1101 N   0  0  0  0  0  0  0  0  0  0  0  0
    0.0358   -2.8217   -0.1925 C   0  0  0  0  0  0  0  0  0  0  0  0
    0.1131   -3.2979    0.8051 H   0  0  0  0  0  0  0  0  0  0  0  0
    0.7863   -3.2757   -0.8664 H   0  0  0  0  0  0  0  0  0  0  0  0
   -0.9821   -2.9927   -0.5878 H   0  0  0  0  0  0  0  0  0  0  0  0
  1 31  1  0  0  0  0
  1  2  1  0  0  0  0
  2  3  1  0  0  0  0
  2  7  1  0  0  0  0
  3  6  1  0  0  0  0
  3  5  1  0  0  0  0
  4  3  1  0  0  0  0
  7  8  1  0  0  0  0
  8 17  1  0  0  0  0
  9 11  1  0  0  0  0
  9  8  2  0  0  0  0
 10  9  1  0  0  0  0
 11 13  2  0  0  0  0
 12 11  1  0  0  0  0
 13 14  1  0  0  0  0
 13 15  1  0  0  0  0
 15 16  1  0  0  0  0
 17 15  2  0  0  0  0
 17 18  1  0  0  0  0
 19  7  2  0  0  0  0
 20 19  1  0  0  0  0
 20 29  1  0  0  0  0
 21 20  2  0  0  0  0
 22 21  1  0  0  0  0
 23 21  1  0  0  0  0
 23 25  2  0  0  0  0
 24 23  1  0  0  0  0
 25 27  1  0  0  0  0
 26 25  1  0  0  0  0
 27 29  2  0  0  0  0
 27 28  1  0  0  0  0
 29 30  1  0  0  0  0
 31 19  1  0  0  0  0
 32 31  1  0  0  0  0
 32 33  1  0  0  0  0
 34 32  1  0  0  0  0
 35 32  1  0  0  0  0
M  END
