10
q = nan, confidence = 0.0

 25 24  0  0  0  0  0  0  0  0999 V2000
    3.3070   -1.2088    1.0979 Si  0  0  1  0  0  3  0  0  0  0  0  0
    3.4453    1.4544   -0.7392 Si  0  0  0  0  0  0  0  0  0  0  0  0
    3.7588    0.6065    0.9351 C   0  0  0  0  0  0  0  0  0  0  0  0
    1.4603   -2.0328    3.3479 C   0  0  0  0  0  3  0  0  0  0  0  0
    4.3033   -2.4437    0.0793 C   0  0  0  0  0  0  0  0  0  0  0  0
    2.3465   -1.7472    2.4063 C   0  0  0  0  0  2  0  0  0  0  0  0
    1.1649    1.2834   -2.5055 C   0  0  0  0  0  0  0  0  0  0  0  0
    3.7143    3.3188   -0.4999 C   0  0  0  0  0  0  0  0  0  0  0  0
    4.6938    0.8243   -2.0265 C   0  0  0  0  0  0  0  0  0  0  0  0
    1.6830    1.1362   -1.2690 C   0  0  0  0  0  3  0  0  0  0  0  0
    0.3677   -2.0368    3.1538 H   0  0  0  0  0  0  0  0  0  0  0  0
    1.7564   -2.2502    4.3951 H   0  0  0  0  0  0  0  0  0  0  0  0
    3.1327    1.1308    1.6910 H   0  0  0  0  0  0  0  0  0  0  0  0
    4.8240    0.7549    1.2210 H   0  0  0  0  0  0  0  0  0  0  0  0
    0.0778    1.0604   -2.7298 H   0  0  0  0  0  0  0  0  0  0  0  0
    1.6877    1.6056   -3.4334 H   0  0  0  0  0  0  0  0  0  0  0  0
    4.1327   -2.3168   -1.0077 H   0  0  0  0  0  0  0  0  0  0  0  0
    5.3898   -2.3160    0.2663 H   0  0  0  0  0  0  0  0  0  0  0  0
    5.7355    1.0376   -1.7081 H   0  0  0  0  0  0  0  0  0  0  0  0
    3.0762    3.7140    0.3164 H   0  0  0  0  0  0  0  0  0  0  0  0
    4.7701    3.5285   -0.2300 H   0  0  0  0  0  0  0  0  0  0  0  0
    4.5305    1.3194   -3.0062 H   0  0  0  0  0  0  0  0  0  0  0  0
    4.0121   -3.4733    0.3622 H   0  0  0  0  0  0  0  0  0  0  0  0
    4.6074   -0.2699   -2.1835 H   0  0  0  0  0  0  0  0  0  0  0  0
    3.4768    3.8780   -1.4282 H   0  0  0  0  0  0  0  0  0  0  0  0
  1  6  1  1  0  0  0
  2  8  1  0  0  0  0
  2  3  1  0  0  0  0
  3  1  1  0  0  0  0
  3 14  1  0  0  0  0
  3 13  1  0  0  0  0
  4 12  1  0  0  0  0
  5 18  1  0  0  0  0
  5 23  1  0  0  0  0
  5  1  1  0  0  0  0
  6  4  1  0  0  0  0
  7 10  2  0  0  0  0
  8 21  1  0  0  0  0
  8 20  1  0  0  0  0
  9 19  1  0  0  0  0
  9  2  1  0  0  0  0
 10  2  1  0  0  0  0
 11  4  1  0  0  0  0
 15  7  1  0  0  0  0
 16  7  1  0  0  0  0
 17  5  1  0  0  0  0
 22  9  1  0  0  0  0
 24  9  1  0  0  0  0
 25  8  1  0  0  0  0
M  END
