2
q = -1.0, confidence = 0.02

 37 38  0  0  1  0  0  0  0  0999 V2000
    0.5144   -1.1786    1.4535 C   0  0  2  0  0  3  0  0  0  0  0  0
    1.2758    0.0006    1.7938 C   0  0  1  0  0  3  0  0  0  0  0  0
    0.5143    1.1795    1.4528 C   0  0  1  0  0  3  0  0  0  0  0  0
   -0.7811    0.7282    0.9649 C   0  0  0  0  0  0  0  0  0  0  0  0
   -1.9303    1.4595    0.5021 C   0  0  0  0  0  0  0  0  0  0  0  0
   -3.0519    0.7267    0.0927 C   0  0  0  0  0  0  0  0  0  0  0  0
   -3.0516   -0.7270    0.0928 C   0  0  0  0  0  0  0  0  0  0  0  0
   -1.9299   -1.4594    0.5024 C   0  0  0  0  0  0  0  0  0  0  0  0
   -0.7810   -0.7277    0.9652 C   0  0  0  0  0  0  0  0  0  0  0  0
    0.9609   -2.5764    1.7889 C   0  0  0  0  0  0  0  0  0  0  0  0
    2.6140    0.0009    2.4744 C   0  0  0  0  0  0  0  0  0  0  0  0
    0.9608    2.5775    1.7872 C   0  0  0  0  0  0  0  0  0  0  0  0
   -1.8618    2.9657    0.4720 C   0  0  0  0  0  0  0  0  0  0  0  0
   -4.3173    1.4048   -0.3800 C   0  0  0  0  0  0  0  0  0  0  0  0
   -4.3168   -1.4056   -0.3799 C   0  0  0  0  0  0  0  0  0  0  0  0
   -1.8609   -2.9656    0.4725 C   0  0  0  0  0  0  0  0  0  0  0  0
    2.0472   -2.5952    1.9938 H   0  0  0  0  0  0  0  0  0  0  0  0
    0.7757   -3.2988    0.9760 H   0  0  0  0  0  0  0  0  0  0  0  0
    0.4477   -2.9497    2.7007 H   0  0  0  0  0  0  0  0  0  0  0  0
    3.2116   -0.8885    2.1995 H   0  0  0  0  0  0  0  0  0  0  0  0
    2.4976    0.0009    3.5799 H   0  0  0  0  0  0  0  0  0  0  0  0
    3.2113    0.8904    2.1994 H   0  0  0  0  0  0  0  0  0  0  0  0
    0.4488    2.9510    2.6996 H   0  0  0  0  0  0  0  0  0  0  0  0
    0.7742    3.2996    0.9744 H   0  0  0  0  0  0  0  0  0  0  0  0
    2.0474    2.5968    1.9905 H   0  0  0  0  0  0  0  0  0  0  0  0
   -1.0373    3.3064   -0.1871 H   0  0  0  0  0  0  0  0  0  0  0  0
   -1.6581    3.3846    1.4774 H   0  0  0  0  0  0  0  0  0  0  0  0
   -2.7886    3.4347    0.1024 H   0  0  0  0  0  0  0  0  0  0  0  0
   -5.1898    1.1035    0.2361 H   0  0  0  0  0  0  0  0  0  0  0  0
   -4.5659    1.1211   -1.4240 H   0  0  0  0  0  0  0  0  0  0  0  0
   -4.2614    2.5052   -0.3463 H   0  0  0  0  0  0  0  0  0  0  0  0
   -5.1895   -1.1045    0.2360 H   0  0  0  0  0  0  0  0  0  0  0  0
   -4.2607   -2.5060   -0.3459 H   0  0  0  0  0  0  0  0  0  0  0  0
   -4.5654   -1.1222   -1.4239 H   0  0  0  0  0  0  0  0  0  0  0  0
   -1.0352   -3.3060   -0.1854 H   0  0  0  0  0  0  0  0  0  0  0  0
   -2.7869   -3.4350    0.1015 H   0  0  0  0  0  0  0  0  0  0  0  0
   -1.6585   -3.3844    1.4782 H   0  0  0  0  0  0  0  0  0  0  0  0
  1 10  1  1  0  0  0
  1  2  1  0  0  0  0
  2 11  1  1  0  0  0
  3 12  1  1  0  0  0
  3  2  1  0  0  0  0
  4  9  1  0  0  0  0
  4  3  1  0  0  0  0
  5  4  2  0  0  0  0
  6  7  2  0  0  0  0
  6  5  1  0  0  0  0
  7  8  1  0  0  0  0
  8  9  2  0  0  0  0
  9  1  1  0  0  0  0
 10 17  1  0  0  0  0
 10 19  1  0  0  0  0
 11 21  1  0  0  0  0
 12 25  1  0  0  0  0
 12 23  1  0  0  0  0
 13  5  1  0  0  0  0
 13 27  1  0  0  0  0
 14 31  1  0  0  0  0
 14  6  1  0  0  0  0
 14 29  1  0  0  0  0
 15 33  1  0  0  0  0
 15  7  1  0  0  0  0
 15 32  1  0  0  0  0
 16  8  1  0  0  0  0
 16 37  1  0  0  0  0
 18 10  1  0  0  0  0
 20 11  1  0  0  0  0
 22 11  1  0  0  0  0
 24 12  1  0  0  0  0
 26 13  1  0  0  0  0
 28 13  1  0  0  0  0
 30 14  1  0  0  0  0
 34 15  1  0  0  0  0
 35 16  1  0  0  0  0
 36 16  1  0  0  0  0
M  END
