2
q = -1.0, confidence = 0.0

 31 34  0  0  0  0  0  0  0  0999 V2000
   -1.9941   -0.1962    1.8057 C   0  0  0  0  0  0  0  0  0  0  0  0
   -1.2435    0.9970    1.5817 C   0  0  0  0  0  3  0  0  0  0  0  0
   -1.6163    2.0132    1.7447 H   0  0  0  0  0  0  0  0  0  0  0  0
    0.0542    0.6364    1.0958 C   0  0  0  0  0  0  0  0  0  0  0  0
    0.1085   -0.7982    1.0183 C   0  0  0  0  0  0  0  0  0  0  0  0
   -1.1683   -1.3006    1.4236 C   0  0  0  0  0  0  0  0  0  0  0  0
   -1.4819   -2.3502    1.4327 H   0  0  0  0  0  0  0  0  0  0  0  0
    1.1719    1.4529    0.6644 C   0  0  0  0  0  0  0  0  0  0  0  0
    1.0964    2.8644    0.6622 C   0  0  0  0  0  0  0  0  0  0  0  0
    0.1620    3.3515    0.9760 H   0  0  0  0  0  0  0  0  0  0  0  0
    2.1793    3.6363    0.2454 C   0  0  0  0  0  0  0  0  0  0  0  0
    2.1073    4.7340    0.2411 H   0  0  0  0  0  0  0  0  0  0  0  0
    3.3624    2.9986   -0.1763 C   0  0  0  0  0  0  0  0  0  0  0  0
    4.2232    3.5976   -0.5094 H   0  0  0  0  0  0  0  0  0  0  0  0
    3.4478    1.6056   -0.1836 C   0  0  0  0  0  0  0  0  0  0  0  0
    4.3806    1.1405   -0.5294 H   0  0  0  0  0  0  0  0  0  0  0  0
    2.3650    0.7910    0.2289 C   0  0  0  0  0  0  0  0  0  0  0  0
    2.4411   -0.6826    0.2047 C   0  0  0  0  0  0  0  0  0  0  0  0
    3.6148   -1.3658   -0.1987 C   0  0  0  0  0  0  0  0  0  0  0  0
    4.5061   -0.7947   -0.4910 H   0  0  0  0  0  0  0  0  0  0  0  0
    3.6747   -2.7591   -0.2412 C   0  0  0  0  0  0  0  0  0  0  0  0
    4.6031   -3.2541   -0.5631 H   0  0  0  0  0  0  0  0  0  0  0  0
    2.5532   -3.5297    0.1232 C   0  0  0  0  0  0  0  0  0  0  0  0
    2.5976   -4.6282    0.0865 H   0  0  0  0  0  0  0  0  0  0  0  0
    1.3853   -2.8881    0.5321 C   0  0  0  0  0  0  0  0  0  0  0  0
    0.5051   -3.4813    0.8197 H   0  0  0  0  0  0  0  0  0  0  0  0
    1.3122   -1.4783    0.5820 C   0  0  0  0  0  0  0  0  0  0  0  0
   -3.4053   -0.2686    2.3010 C   0  0  0  0  0  0  0  0  0  0  0  0
   -3.4235   -0.3199    3.4105 H   0  0  0  0  0  0  0  0  0  0  0  0
   -3.9816    0.6260    1.9949 H   0  0  0  0  0  0  0  0  0  0  0  0
   -3.9212   -1.1639    1.9058 H   0  0  0  0  0  0  0  0  0  0  0  0
  1 28  1  0  0  0  0
  2  3  1  0  0  0  0
  2  1  1  0  0  0  0
  4  2  1  0  0  0  0
  5  4  1  0  0  0  0
  5  6  1  0  0  0  0
  6  7  1  0  0  0  0
  6  1  2  0  0  0  0
  8  4  2  0  0  0  0
  9  8  1  0  0  0  0
  9 10  1  0  0  0  0
 11  9  2  0  0  0  0
 12 11  1  0  0  0  0
 13 11  1  0  0  0  0
 14 13  1  0  0  0  0
 15 13  2  0  0  0  0
 15 17  1  0  0  0  0
 16 15  1  0  0  0  0
 17  8  1  0  0  0  0
 18 17  2  0  0  0  0
 18 27  1  0  0  0  0
 19 18  1  0  0  0  0
 20 19  1  0  0  0  0
 21 19  2  0  0  0  0
 21 23  1  0  0  0  0
 22 21  1  0  0  0  0
 23 25  2  0  0  0  0
 24 23  1  0  0  0  0
 25 27  1  0  0  0  0
 25 26  1  0  0  0  0
 27  5  2  0  0  0  0
 28 29  1  0  0  0  0
 30 28  1  0  0  0  0
 31 28  1  0  0  0  0
M  END
