5
q = 0.0, confidence = 0.894

 72 73  0  0  1  0  0  0  0  0999 V2000
    1.4683    0.2666    0.1111 B   0  0  0  0  0  0  0  0  0  0  0  0
    0.6725   -0.1981    1.3624 C   0  0  0  0  0  0  0  0  0  0  0  0
   -0.7638   -0.2018    1.3839 C   0  0  0  0  0  0  0  0  0  0  0  0
   -1.5950    0.1967    0.1387 B   0  0  0  0  0  0  0  0  0  0  0  0
   -0.7961    0.3861   -1.1942 C   0  0  2  0  0  3  0  0  0  0  0  0
    0.6345    0.4053   -1.2088 C   0  0  1  0  0  3  0  0  0  0  0  0
    1.4207   -0.5113    2.6361 C   0  0  0  0  0  0  0  0  0  0  0  0
    1.1427    0.2319    3.4148 H   0  0  0  0  0  0  0  0  0  0  0  0
    2.5116   -0.4380    2.4853 H   0  0  0  0  0  0  0  0  0  0  0  0
    1.1817   -1.5072    3.0619 H   0  0  0  0  0  0  0  0  0  0  0  0
   -1.4630   -0.5171    2.6877 C   0  0  0  0  0  0  0  0  0  0  0  0
   -1.1972   -1.5114    3.1022 H   0  0  0  0  0  0  0  0  0  0  0  0
   -2.5612   -0.4532    2.5944 H   0  0  0  0  0  0  0  0  0  0  0  0
   -1.1516    0.2257    3.4537 H   0  0  0  0  0  0  0  0  0  0  0  0
   -1.5472    0.6025   -2.4899 C   0  0  0  0  0  0  0  0  0  0  0  0
   -1.4592    1.6724   -2.7787 H   0  0  0  0  0  0  0  0  0  0  0  0
   -2.6240    0.3767   -2.3832 H   0  0  0  0  0  0  0  0  0  0  0  0
   -1.1401    0.0162   -3.3373 H   0  0  0  0  0  0  0  0  0  0  0  0
    1.3607    0.6428   -2.5136 C   0  0  0  0  0  0  0  0  0  0  0  0
    1.0056   -0.0005   -3.3430 H   0  0  0  0  0  0  0  0  0  0  0  0
    2.4503    0.5071   -2.3949 H   0  0  0  0  0  0  0  0  0  0  0  0
    1.1893    1.6915   -2.8403 H   0  0  0  0  0  0  0  0  0  0  0  0
    2.9149    0.5874    0.1661 N   0  0  0  0  0  0  0  0  0  0  0  0
    3.1846    2.3448    0.3087 Si  0  0  0  0  0  0  0  0  0  0  0  0
    4.3956    2.9625   -1.0108 C   0  0  0  0  0  0  0  0  0  0  0  0
    5.3909    2.4815   -0.9328 H   0  0  0  0  0  0  0  0  0  0  0  0
    4.5447    4.0580   -0.9143 H   0  0  0  0  0  0  0  0  0  0  0  0
    3.9998    2.7588   -2.0267 H   0  0  0  0  0  0  0  0  0  0  0  0
    3.8128    2.8101    2.0348 C   0  0  0  0  0  0  0  0  0  0  0  0
    3.1235    2.4167    2.8099 H   0  0  0  0  0  0  0  0  0  0  0  0
    3.8498    3.9145    2.1412 H   0  0  0  0  0  0  0  0  0  0  0  0
    4.8244    2.4148    2.2462 H   0  0  0  0  0  0  0  0  0  0  0  0
    1.5453    3.2724    0.0882 C   0  0  0  0  0  0  0  0  0  0  0  0
    1.1034    3.1448   -0.9188 H   0  0  0  0  0  0  0  0  0  0  0  0
    1.7340    4.3554    0.2417 H   0  0  0  0  0  0  0  0  0  0  0  0
    0.7887    2.9530    0.8325 H   0  0  0  0  0  0  0  0  0  0  0  0
    4.2794   -0.5443    0.0795 Si  0  0  0  0  0  0  0  0  0  0  0  0
    5.7821    0.1070    1.0359 C   0  0  0  0  0  0  0  0  0  0  0  0
    6.1706    1.0721    0.6553 H   0  0  0  0  0  0  0  0  0  0  0  0
    6.5994   -0.6382    0.9407 H   0  0  0  0  0  0  0  0  0  0  0  0
    5.5586    0.2245    2.1151 H   0  0  0  0  0  0  0  0  0  0  0  0
    4.8344   -0.8026   -1.7150 C   0  0  0  0  0  0  0  0  0  0  0  0
    4.0618   -1.3136   -2.3214 H   0  0  0  0  0  0  0  0  0  0  0  0
    5.7523   -1.4264   -1.7456 H   0  0  0  0  0  0  0  0  0  0  0  0
    5.0685    0.1678   -2.1983 H   0  0  0  0  0  0  0  0  0  0  0  0
    3.8761   -2.2272    0.8544 C   0  0  0  0  0  0  0  0  0  0  0  0
    3.9280   -2.1781    1.9603 H   0  0  0  0  0  0  0  0  0  0  0  0
    4.6312   -2.9660    0.5143 H   0  0  0  0  0  0  0  0  0  0  0  0
    2.8795   -2.6208    0.5834 H   0  0  0  0  0  0  0  0  0  0  0  0
   -3.1653    0.4684    0.1847 C   0  0  0  0  0  0  0  0  0  0  0  0
   -3.5568    1.8247   -0.0258 C   0  0  0  0  0  0  0  0  0  0  0  0
   -4.9266    2.1832   -0.0709 C   0  0  0  0  0  0  0  0  0  0  0  0
   -5.8930    1.1811    0.1034 C   0  0  0  0  0  0  0  0  0  0  0  0
   -6.9605    1.4547    0.0576 H   0  0  0  0  0  0  0  0  0  0  0  0
   -5.5451   -0.1544    0.3529 C   0  0  0  0  0  0  0  0  0  0  0  0
   -4.1723   -0.5133    0.4101 C   0  0  0  0  0  0  0  0  0  0  0  0
   -2.5318    2.9275   -0.1741 C   0  0  0  0  0  0  0  0  0  0  0  0
   -2.5889    3.4168   -1.1706 H   0  0  0  0  0  0  0  0  0  0  0  0
   -1.4961    2.5659   -0.0379 H   0  0  0  0  0  0  0  0  0  0  0  0
   -2.6996    3.7323    0.5725 H   0  0  0  0  0  0  0  0  0  0  0  0
   -5.3482    3.6129   -0.2995 C   0  0  0  0  0  0  0  0  0  0  0  0
   -4.9777    4.2863    0.5032 H   0  0  0  0  0  0  0  0  0  0  0  0
   -6.4508    3.7067   -0.3345 H   0  0  0  0  0  0  0  0  0  0  0  0
   -4.9428    4.0176   -1.2514 H   0  0  0  0  0  0  0  0  0  0  0  0
   -6.6242   -1.1876    0.5594 C   0  0  0  0  0  0  0  0  0  0  0  0
   -6.5412   -2.0238   -0.1670 H   0  0  0  0  0  0  0  0  0  0  0  0
   -7.6324   -0.7434    0.4509 H   0  0  0  0  0  0  0  0  0  0  0  0
   -6.5663   -1.6505    1.5681 H   0  0  0  0  0  0  0  0  0  0  0  0
   -3.8482   -1.9545    0.7262 C   0  0  0  0  0  0  0  0  0  0  0  0
   -4.3364   -2.2754    1.6707 H   0  0  0  0  0  0  0  0  0  0  0  0
   -2.7654   -2.1264    0.8388 H   0  0  0  0  0  0  0  0  0  0  0  0
   -4.2164   -2.6429   -0.0635 H   0  0  0  0  0  0  0  0  0  0  0  0
  1 23  1  0  0  0  0
  1  2  2  0  0  0  0
  2  3  1  0  0  0  0
  2  7  1  0  0  0  0
  3 11  1  0  0  0  0
  4 50  1  0  0  0  0
  4  3  2  0  0  0  0
  5 15  1  1  0  0  0
  5  4  1  0  0  0  0
  6 19  1  1  0  0  0
  6  5  1  0  0  0  0
  6  1  1  0  0  0  0
  7 10  1  0  0  0  0
  7  8  1  0  0  0  0
  9  7  1  0  0  0  0
 11 12  1  0  0  0  0
 11 14  1  0  0  0  0
 13 11  1  0  0  0  0
 15 17  1  0  0  0  0
 16 15  1  0  0  0  0
 18 15  1  0  0  0  0
 19 21  1  0  0  0  0
 20 19  1  0  0  0  0
 22 19  1  0  0  0  0
 23 24  1  0  0  0  0
 24 29  1  0  0  0  0
 25 26  1  0  0  0  0
 25 27  1  0  0  0  0
 25 24  1  0  0  0  0
 28 25  1  0  0  0  0
 29 31  1  0  0  0  0
 29 32  1  0  0  0  0
 29 30  1  0  0  0  0
 33 35  1  0  0  0  0
 33 24  1  0  0  0  0
 33 36  1  0  0  0  0
 34 33  1  0  0  0  0
 37 23  1  0  0  0  0
 37 46  1  0  0  0  0
 37 38  1  0  0  0  0
 38 41  1  0  0  0  0
 39 38  1  0  0  0  0
 40 38  1  0  0  0  0
 42 37  1  0  0  0  0
 43 42  1  0  0  0  0
 44 42  1  0  0  0  0
 45 42  1  0  0  0  0
 46 47  1  0  0  0  0
 48 46  1  0  0  0  0
 49 46  1  0  0  0  0
 50 56  1  0  0  0  0
 51 50  2  0  0  0  0
 52 51  1  0  0  0  0
 52 53  2  0  0  0  0
 53 55  1  0  0  0  0
 54 53  1  0  0  0  0
 55 56  2  0  0  0  0
 55 65  1  0  0  0  0
 56 69  1  0  0  0  0
 57 59  1  0  0  0  0
 57 51  1  0  0  0  0
 57 60  1  0  0  0  0
 58 57  1  0  0  0  0
 61 52  1  0  0  0  0
 61 62  1  0  0  0  0
 63 61  1  0  0  0  0
 64 61  1  0  0  0  0
 65 68  1  0  0  0  0
 66 65  1  0  0  0  0
 67 65  1  0  0  0  0
 69 71  1  0  0  0  0
 69 70  1  0  0  0  0
 72 69  1  0  0  0  0
M  END
