11
q = 0.0, confidence = 0.99

 24 24  0  0  0  0  0  0  0  0999 V2000
   -1.2511   -1.2605    0.6605 N   0  0  0  0  0  0  0  0  0  0  0  0
   -1.1347   -1.0899    2.1358 C   0  0  0  0  0  0  0  0  0  0  0  0
   -1.0690   -2.6946    0.3228 C   0  0  0  0  0  0  0  0  0  0  0  0
   -2.5795   -0.7829    0.2115 C   0  0  0  0  0  0  0  0  0  0  0  0
   -3.7629   -1.3006    0.7644 C   0  0  0  0  0  0  0  0  0  0  0  0
   -5.0063   -0.7675    0.3958 C   0  0  0  0  0  0  0  0  0  0  0  0
   -5.0645    0.2922   -0.5236 C   0  0  0  0  0  0  0  0  0  0  0  0
   -3.8841    0.7901   -1.0896 C   0  0  0  0  0  0  0  0  0  0  0  0
   -2.6268    0.2492   -0.7481 C   0  0  0  0  0  0  0  0  0  0  0  0
   -1.3726    0.7076   -1.3977 C   0  0  0  0  0  3  0  0  0  0  0  0
   -0.6152   -0.1882   -2.1945 C   0  0  0  0  0  3  0  0  0  0  0  0
   -0.1198   -1.3956    2.4438 H   0  0  0  0  0  0  0  0  0  0  0  0
   -1.2710   -0.0218    2.3766 H   0  0  0  0  0  0  0  0  0  0  0  0
   -1.8875   -1.7068    2.6714 H   0  0  0  0  0  0  0  0  0  0  0  0
   -0.0716   -3.0157    0.6753 H   0  0  0  0  0  0  0  0  0  0  0  0
   -1.1190   -2.8278   -0.7716 H   0  0  0  0  0  0  0  0  0  0  0  0
   -1.8473   -3.3220    0.8095 H   0  0  0  0  0  0  0  0  0  0  0  0
   -3.7215   -2.1116    1.5065 H   0  0  0  0  0  0  0  0  0  0  0  0
   -5.9281   -1.1711    0.8408 H   0  0  0  0  0  0  0  0  0  0  0  0
   -6.0357    0.7273   -0.8046 H   0  0  0  0  0  0  0  0  0  0  0  0
   -3.9236    1.6090   -1.8245 H   0  0  0  0  0  0  0  0  0  0  0  0
   -1.3024    1.7925   -1.5950 H   0  0  0  0  0  0  0  0  0  0  0  0
   -0.9783   -1.2122   -2.3827 H   0  0  0  0  0  0  0  0  0  0  0  0
    0.0749    0.2086   -2.9564 H   0  0  0  0  0  0  0  0  0  0  0  0
  1  2  1  0  0  0  0
  2 13  1  0  0  0  0
  2 12  1  0  0  0  0
  2 14  1  0  0  0  0
  3  1  1  0  0  0  0
  3 15  1  0  0  0  0
  3 17  1  0  0  0  0
  4  1  1  0  0  0  0
  4  5  1  0  0  0  0
  5 18  1  0  0  0  0
  6  5  2  0  0  0  0
  6 19  1  0  0  0  0
  7  6  1  0  0  0  0
  8  9  1  0  0  0  0
  8  7  2  0  0  0  0
  9  4  2  0  0  0  0
 10  9  1  0  0  0  0
 11 10  1  0  0  0  0
 16  3  1  0  0  0  0
 20  7  1  0  0  0  0
 21  8  1  0  0  0  0
 22 10  1  0  0  0  0
 23 11  1  0  0  0  0
 24 11  1  0  0  0  0
M  END
