2
q = -2.0, confidence = 0.642

 38 38  0  0  1  0  0  0  0  0999 V2000
    1.9594   -0.5401    0.4898 C   0  0  1  0  0  3  0  0  0  0  0  0
    1.9040    0.4350   -0.6078 C   0  0  2  0  0  3  0  0  0  0  0  0
    1.5919   -0.6790   -1.5608 C   0  0  0  0  0  0  0  0  0  0  0  0
    1.6344   -1.6345   -0.4821 C   0  0  0  0  0  0  0  0  0  0  0  0
    2.4183   -0.5847    1.9351 C   0  0  0  0  0  0  0  0  0  0  0  0
    2.1873   -1.9993    2.5039 C   0  0  0  0  0  0  0  0  0  0  0  0
    3.9352   -0.2744    1.9620 C   0  0  0  0  0  0  0  0  0  0  0  0
    1.6583    0.4117    2.8352 C   0  0  0  0  0  0  0  0  0  0  0  0
    2.3021    1.8664   -0.8948 C   0  0  0  0  0  0  0  0  0  0  0  0
    2.1976    2.7790    0.3371 C   0  0  0  0  0  0  0  0  0  0  0  0
    3.7677    1.8366   -1.3987 C   0  0  0  0  0  0  0  0  0  0  0  0
    1.3921    2.4465   -1.9997 C   0  0  0  0  0  0  0  0  0  0  0  0
    1.5049   -0.8431   -3.0371 C   0  0  0  0  0  0  0  0  0  0  0  0
    1.5885   -3.1227   -0.4789 C   0  0  0  0  0  0  0  0  0  0  0  0
    2.4887   -2.0241    3.5700 H   0  0  0  0  0  0  0  0  0  0  0  0
    1.1162   -2.2789    2.4492 H   0  0  0  0  0  0  0  0  0  0  0  0
    2.7828   -2.7654    1.9705 H   0  0  0  0  0  0  0  0  0  0  0  0
    4.3246   -0.3736    2.9958 H   0  0  0  0  0  0  0  0  0  0  0  0
    4.5015   -0.9738    1.3140 H   0  0  0  0  0  0  0  0  0  0  0  0
    4.1444    0.7572    1.6176 H   0  0  0  0  0  0  0  0  0  0  0  0
    1.7707    1.4554    2.4964 H   0  0  0  0  0  0  0  0  0  0  0  0
    0.5756    0.1798    2.8456 H   0  0  0  0  0  0  0  0  0  0  0  0
    2.0494    0.3453    3.8711 H   0  0  0  0  0  0  0  0  0  0  0  0
    2.4557    3.8181    0.0499 H   0  0  0  0  0  0  0  0  0  0  0  0
    1.1659    2.7805    0.7415 H   0  0  0  0  0  0  0  0  0  0  0  0
    2.8960    2.4756    1.1400 H   0  0  0  0  0  0  0  0  0  0  0  0
    4.4513    1.4310   -0.6264 H   0  0  0  0  0  0  0  0  0  0  0  0
    3.8695    1.2114   -2.3087 H   0  0  0  0  0  0  0  0  0  0  0  0
    4.1035    2.8630   -1.6521 H   0  0  0  0  0  0  0  0  0  0  0  0
    1.4812    1.8851   -2.9490 H   0  0  0  0  0  0  0  0  0  0  0  0
    0.3311    2.4271   -1.6804 H   0  0  0  0  0  0  0  0  0  0  0  0
    1.6803    3.4967   -2.2071 H   0  0  0  0  0  0  0  0  0  0  0  0
    2.5111   -0.7470   -3.5017 H   0  0  0  0  0  0  0  0  0  0  0  0
    1.1060   -1.8441   -3.2918 H   0  0  0  0  0  0  0  0  0  0  0  0
    0.8477   -0.0856   -3.5036 H   0  0  0  0  0  0  0  0  0  0  0  0
    1.0331   -3.5245    0.3879 H   0  0  0  0  0  0  0  0  0  0  0  0
    1.0941   -3.4888   -1.4000 H   0  0  0  0  0  0  0  0  0  0  0  0
    2.6145   -3.5508   -0.4507 H   0  0  0  0  0  0  0  0  0  0  0  0
  1  5  1  6  0  0  0
  2  9  1  6  0  0  0
  2  1  1  0  0  0  0
  3  2  1  0  0  0  0
  3  4  2  0  0  0  0
  4 14  1  0  0  0  0
  4  1  1  0  0  0  0
  5  7  1  0  0  0  0
  5  6  1  0  0  0  0
  5  8  1  0  0  0  0
  6 15  1  0  0  0  0
  7 18  1  0  0  0  0
  8 22  1  0  0  0  0
  8 23  1  0  0  0  0
  9 10  1  0  0  0  0
 10 25  1  0  0  0  0
 10 26  1  0  0  0  0
 11  9  1  0  0  0  0
 11 27  1  0  0  0  0
 12 31  1  0  0  0  0
 12  9  1  0  0  0  0
 13  3  1  0  0  0  0
 14 38  1  0  0  0  0
 14 36  1  0  0  0  0
 16  6  1  0  0  0  0
 17  6  1  0  0  0  0
 19  7  1  0  0  0  0
 20  7  1  0  0  0  0
 21  8  1  0  0  0  0
 24 10  1  0  0  0  0
 28 11  1  0  0  0  0
 29 11  1  0  0  0  0
 30 12  1  0  0  0  0
 32 12  1  0  0  0  0
 33 13  1  0  0  0  0
 34 13  1  0  0  0  0
 35 13  1  0  0  0  0
 37 14  1  0  0  0  0
M  END
