6
q = -1.0, confidence = 0.002

 54 56  0  0  0  0  0  0  0  0999 V2000
   -0.6254   -1.5598   -0.4313 S   0  0  0  0  0  0  0  0  0  0  0  0
    2.3649    2.8302    0.5429 O   0  0  0  0  0  0  0  0  0  0  0  0
    1.0049    2.8899   -1.2692 O   0  0  0  0  0  0  0  0  0  0  0  0
   -0.4233    4.0334    0.8182 O   0  0  0  0  0  0  0  0  0  0  0  0
   -2.3656    3.1926    1.6134 O   0  0  0  0  0  0  0  0  0  0  0  0
    0.5035    1.3155    0.4389 C   0  0  0  0  0  3  0  0  0  0  0  0
    1.3729    2.4350   -0.0595 C   0  0  0  0  0  0  0  0  0  0  0  0
    1.8024    3.9543   -1.7893 C   0  0  0  0  0  0  0  0  0  0  0  0
   -0.6602    1.6290    1.0956 C   0  0  0  0  0  0  0  0  0  0  0  0
   -1.0862    3.0623    1.1528 C   0  0  0  0  0  0  0  0  0  0  0  0
   -2.8776    4.5236    1.6024 C   0  0  0  0  0  0  0  0  0  0  0  0
   -1.5366    0.6756    1.8461 C   0  0  0  0  0  0  0  0  0  0  0  0
   -1.6348    0.9151    3.2378 C   0  0  0  0  0  0  0  0  0  0  0  0
   -2.4849    0.1819    4.0699 C   0  0  0  0  0  0  0  0  0  0  0  0
   -3.2956   -0.8119    3.5056 C   0  0  0  0  0  0  0  0  0  0  0  0
   -3.2220   -1.0641    2.1307 C   0  0  0  0  0  0  0  0  0  0  0  0
   -2.3445   -0.3545    1.2808 C   0  0  0  0  0  0  0  0  0  0  0  0
   -2.3079   -0.6398   -0.2319 C   0  0  0  0  0  0  0  0  0  0  0  0
   -3.3123   -1.7020   -0.7175 C   0  0  0  0  0  0  0  0  0  0  0  0
   -4.2387   -1.4292   -1.7443 C   0  0  0  0  0  0  0  0  0  0  0  0
   -5.1115   -2.4234   -2.2168 C   0  0  0  0  0  0  0  0  0  0  0  0
   -5.0754   -3.7167   -1.6804 C   0  0  0  0  0  0  0  0  0  0  0  0
   -4.1469   -4.0111   -0.6681 C   0  0  0  0  0  0  0  0  0  0  0  0
   -3.2759   -3.0205   -0.1985 C   0  0  0  0  0  0  0  0  0  0  0  0
   -2.4507    0.6669   -1.0151 C   0  0  0  0  0  0  0  0  0  0  0  0
   -1.5632    1.0991   -2.0128 C   0  0  0  0  0  0  0  0  0  0  0  0
   -1.7960    2.2952   -2.7070 C   0  0  0  0  0  0  0  0  0  0  0  0
   -2.9247    3.0757   -2.4218 C   0  0  0  0  0  0  0  0  0  0  0  0
   -3.8140    2.6577   -1.4185 C   0  0  0  0  0  0  0  0  0  0  0  0
   -3.5752    1.4683   -0.7173 C   0  0  0  0  0  0  0  0  0  0  0  0
   -0.6474   -2.1554   -2.1583 C   0  0  0  0  0  0  0  0  0  0  0  0
    1.3659    4.2108   -2.7714 H   0  0  0  0  0  0  0  0  0  0  0  0
    1.7645    4.8277   -1.1077 H   0  0  0  0  0  0  0  0  0  0  0  0
    2.8561    3.6314   -1.9108 H   0  0  0  0  0  0  0  0  0  0  0  0
   -2.9505    4.9040    0.5624 H   0  0  0  0  0  0  0  0  0  0  0  0
   -3.8817    4.4706    2.0611 H   0  0  0  0  0  0  0  0  0  0  0  0
   -2.2223    5.2106    2.1752 H   0  0  0  0  0  0  0  0  0  0  0  0
   -1.0279    1.7283    3.6637 H   0  0  0  0  0  0  0  0  0  0  0  0
   -2.5277    0.3994    5.1479 H   0  0  0  0  0  0  0  0  0  0  0  0
   -4.0001   -1.3842    4.1278 H   0  0  0  0  0  0  0  0  0  0  0  0
   -3.8928   -1.8179    1.7010 H   0  0  0  0  0  0  0  0  0  0  0  0
   -4.2767   -0.4263   -2.1884 H   0  0  0  0  0  0  0  0  0  0  0  0
   -5.8224   -2.1772   -3.0202 H   0  0  0  0  0  0  0  0  0  0  0  0
   -5.7581   -4.4951   -2.0532 H   0  0  0  0  0  0  0  0  0  0  0  0
   -4.0942   -5.0251   -0.2431 H   0  0  0  0  0  0  0  0  0  0  0  0
   -2.5324   -3.2772    0.5691 H   0  0  0  0  0  0  0  0  0  0  0  0
   -0.6335    0.5497   -2.2134 H   0  0  0  0  0  0  0  0  0  0  0  0
   -1.0643    2.6231   -3.4596 H   0  0  0  0  0  0  0  0  0  0  0  0
   -3.1033    4.0157   -2.9657 H   0  0  0  0  0  0  0  0  0  0  0  0
   -4.6961    3.2672   -1.1693 H   0  0  0  0  0  0  0  0  0  0  0  0
   -4.2632    1.1582    0.0831 H   0  0  0  0  0  0  0  0  0  0  0  0
   -0.5792   -1.3359   -2.8934 H   0  0  0  0  0  0  0  0  0  0  0  0
    0.2511   -2.7931   -2.2489 H   0  0  0  0  0  0  0  0  0  0  0  0
   -1.5652   -2.7548   -2.2994 H   0  0  0  0  0  0  0  0  0  0  0  0
  1 18  1  0  0  0  0
  3  7  1  0  0  0  0
  4 10  2  0  0  0  0
  6  9  2  0  0  0  0
  7  6  1  0  0  0  0
  7  2  2  0  0  0  0
  8  3  1  0  0  0  0
  8 33  1  0  0  0  0
  9 10  1  0  0  0  0
  9 12  1  0  0  0  0
 10  5  1  0  0  0  0
 11  5  1  0  0  0  0
 11 36  1  0  0  0  0
 11 37  1  0  0  0  0
 12 13  1  0  0  0  0
 13 38  1  0  0  0  0
 13 14  2  0  0  0  0
 14 39  1  0  0  0  0
 15 14  1  0  0  0  0
 15 40  1  0  0  0  0
 16 15  2  0  0  0  0
 17 12  2  0  0  0  0
 17 16  1  0  0  0  0
 18 17  1  0  0  0  0
 19 18  1  0  0  0  0
 19 24  1  0  0  0  0
 20 19  2  0  0  0  0
 21 20  1  0  0  0  0
 21 22  2  0  0  0  0
 22 23  1  0  0  0  0
 23 45  1  0  0  0  0
 23 24  2  0  0  0  0
 24 46  1  0  0  0  0
 25 30  1  0  0  0  0
 25 18  1  0  0  0  0
 26 25  2  0  0  0  0
 27 28  2  0  0  0  0
 27 26  1  0  0  0  0
 28 29  1  0  0  0  0
 29 50  1  0  0  0  0
 29 30  2  0  0  0  0
 30 51  1  0  0  0  0
 31  1  1  0  0  0  0
 32  8  1  0  0  0  0
 34  8  1  0  0  0  0
 35 11  1  0  0  0  0
 41 16  1  0  0  0  0
 42 20  1  0  0  0  0
 43 21  1  0  0  0  0
 44 22  1  0  0  0  0
 47 26  1  0  0  0  0
 48 27  1  0  0  0  0
 49 28  1  0  0  0  0
 52 31  1  0  0  0  0
 53 31  1  0  0  0  0
 54 31  1  0  0  0  0
M  END
