2
q = -1.0, confidence = 0.004

 21 21  0  0  0  0  0  0  0  0999 V2000
   -1.7631    1.2821   -0.1406 S   0  0  0  0  0  0  0  0  0  0  0  0
    0.3225    0.3246    1.4775 C   0  0  0  0  0  3  0  0  0  0  0  0
    0.6037    0.1834    2.5407 H   0  0  0  0  0  0  0  0  0  0  0  0
   -0.9362    0.7945    1.3701 C   0  0  0  0  0  0  0  0  0  0  0  0
   -1.5858    1.0264    2.2336 H   0  0  0  0  0  0  0  0  0  0  0  0
   -3.3543    0.4413   -0.0405 C   0  0  0  0  0  0  0  0  0  0  0  0
   -4.4522    1.1434    0.4727 C   0  0  0  0  0  0  0  0  0  0  0  0
   -4.3237    2.1900    0.7858 H   0  0  0  0  0  0  0  0  0  0  0  0
   -5.6932    0.4956    0.5536 C   0  0  0  0  0  0  0  0  0  0  0  0
   -6.5632    1.0396    0.9537 H   0  0  0  0  0  0  0  0  0  0  0  0
   -5.8498   -0.8379    0.1241 C   0  0  0  0  0  0  0  0  0  0  0  0
   -4.7233   -1.5123   -0.3994 C   0  0  0  0  0  0  0  0  0  0  0  0
   -4.8308   -2.5508   -0.7507 H   0  0  0  0  0  0  0  0  0  0  0  0
   -3.4769   -0.8835   -0.4887 C   0  0  0  0  0  0  0  0  0  0  0  0
   -2.6072   -1.4054   -0.9134 H   0  0  0  0  0  0  0  0  0  0  0  0
   -7.1849   -1.5322    0.2013 C   0  0  0  0  0  0  0  0  0  0  0  0
   -7.9458   -0.9045    0.7029 H   0  0  0  0  0  0  0  0  0  0  0  0
   -7.1086   -2.4900    0.7561 H   0  0  0  0  0  0  0  0  0  0  0  0
   -7.5639   -1.7796   -0.8126 H   0  0  0  0  0  0  0  0  0  0  0  0
   -2.0203    2.7412   -0.0513 O   0  0  0  0  0  0  0  0  0  0  0  0
   -1.0503    0.7174   -1.3281 O   0  0  0  0  0  0  0  0  0  0  0  0
  1 20  2  0  0  0  0
  1  6  1  0  0  0  0
  1  4  1  0  0  0  0
  2  3  1  0  0  0  0
  4  2  2  0  0  0  0
  4  5  1  0  0  0  0
  6  7  1  0  0  0  0
  7  9  2  0  0  0  0
  7  8  1  0  0  0  0
  9 10  1  0  0  0  0
 11 16  1  0  0  0  0
 11  9  1  0  0  0  0
 12 11  2  0  0  0  0
 13 12  1  0  0  0  0
 14 12  1  0  0  0  0
 14  6  2  0  0  0  0
 15 14  1  0  0  0  0
 16 17  1  0  0  0  0
 16 18  1  0  0  0  0
 19 16  1  0  0  0  0
 21  1  2  0  0  0  0
M  END
