6
q = -1.0, confidence = 0.0

 29 29  0  0  0  0  0  0  0  0999 V2000
   -2.4247   -0.0549   -0.0001 C   0  0  0  0  0  0  0  0  0  0  0  0
   -2.3592    0.9652   -1.0062 C   0  0  0  0  0  0  0  0  0  0  0  0
   -2.9036    1.9154   -0.9876 H   0  0  0  0  0  0  0  0  0  0  0  0
   -1.4664    0.5460   -2.0298 C   0  0  0  0  0  0  0  0  0  0  0  0
   -1.2011    1.1192   -2.9243 H   0  0  0  0  0  0  0  0  0  0  0  0
   -0.9274   -0.7163   -1.6517 C   0  0  0  0  0  3  0  0  0  0  0  0
   -0.2069   -1.3095   -2.2266 H   0  0  0  0  0  0  0  0  0  0  0  0
   -1.5183   -1.0829   -0.4006 C   0  0  0  0  0  0  0  0  0  0  0  0
   -1.3437   -2.0242    0.1339 H   0  0  0  0  0  0  0  0  0  0  0  0
   -3.4234   -0.1581    1.1495 C   0  0  0  0  0  0  0  0  0  0  0  0
   -4.2009    1.1565    1.3324 C   0  0  0  0  0  0  0  0  0  0  0  0
   -3.5125    1.9895    1.5719 H   0  0  0  0  0  0  0  0  0  0  0  0
   -4.9265    1.0526    2.1642 H   0  0  0  0  0  0  0  0  0  0  0  0
   -4.7707    1.4334    0.4237 H   0  0  0  0  0  0  0  0  0  0  0  0
   -2.7230   -0.5170    2.4756 C   0  0  0  0  0  0  0  0  0  0  0  0
   -2.1643   -1.4717    2.3939 H   0  0  0  0  0  0  0  0  0  0  0  0
   -3.4742   -0.6447    3.2813 H   0  0  0  0  0  0  0  0  0  0  0  0
   -2.0210    0.2835    2.7795 H   0  0  0  0  0  0  0  0  0  0  0  0
   -4.4043   -1.3212    0.8033 C   0  0  0  0  0  0  0  0  0  0  0  0
   -3.8408   -2.2790    0.8210 H   0  0  0  0  0  0  0  0  0  0  0  0
   -5.1485   -1.3899    1.6278 H   0  0  0  0  0  0  0  0  0  0  0  0
   -5.1372   -1.2140   -0.5434 C   0  0  0  0  0  0  0  0  0  0  0  0
   -5.7172   -0.2645   -0.5695 H   0  0  0  0  0  0  0  0  0  0  0  0
   -4.4005   -1.1567   -1.3722 H   0  0  0  0  0  0  0  0  0  0  0  0
   -6.0734   -2.3658   -0.7762 C   0  0  0  0  0  0  0  0  0  0  0  0
   -6.8980   -2.4734   -0.0459 H   0  0  0  0  0  0  0  0  0  0  0  0
   -5.9675   -3.2648   -1.7700 C   0  0  0  0  0  0  0  0  0  0  0  0
   -5.1588   -3.1981   -2.5176 H   0  0  0  0  0  0  0  0  0  0  0  0
   -6.6837   -4.0941   -1.8789 H   0  0  0  0  0  0  0  0  0  0  0  0
  1 10  1  0  0  0  0
  2  3  1  0  0  0  0
  2  1  1  0  0  0  0
  4  6  1  0  0  0  0
  4  2  2  0  0  0  0
  5  4  1  0  0  0  0
  6  8  1  0  0  0  0
  7  6  1  0  0  0  0
  8  1  2  0  0  0  0
  8  9  1  0  0  0  0
 10 11  1  0  0  0  0
 10 15  1  0  0  0  0
 11 12  1  0  0  0  0
 11 13  1  0  0  0  0
 14 11  1  0  0  0  0
 15 18  1  0  0  0  0
 15 17  1  0  0  0  0
 16 15  1  0  0  0  0
 19 20  1  0  0  0  0
 19 10  1  0  0  0  0
 19 21  1  0  0  0  0
 22 19  1  0  0  0  0
 23 22  1  0  0  0  0
 24 22  1  0  0  0  0
 25 22  1  0  0  0  0
 25 26  1  0  0  0  0
 27 25  2  0  0  0  0
 28 27  1  0  0  0  0
 29 27  1  0  0  0  0
M  END
