1
q = 0.0, confidence = 0.998

 23 25  0  0  0  0  0  0  0  0999 V2000
   -1.4650    0.0785   -0.4017 C   0  0  0  0  0  2  0  0  0  0  0  0
   -2.5012   -0.4270    0.3418 N   0  0  0  0  0  0  0  0  0  0  0  0
   -2.0462    1.0408   -1.1807 N   0  0  0  0  0  0  0  0  0  0  0  0
   -3.7127    0.1810    0.0435 C   0  0  0  0  0  0  0  0  0  0  0  0
   -4.6365   -0.1272    0.5373 H   0  0  0  0  0  0  0  0  0  0  0  0
   -3.4448    1.1321   -0.9253 C   0  0  0  0  0  0  0  0  0  0  0  0
   -1.4284    1.8424   -2.1335 C   0  0  0  0  0  0  0  0  0  0  0  0
   -0.3541    1.6597   -2.2717 H   0  0  0  0  0  0  0  0  0  0  0  0
   -4.2142    2.0912   -1.6477 C   0  0  0  0  0  0  0  0  0  0  0  0
   -5.2921    2.1627   -1.4482 H   0  0  0  0  0  0  0  0  0  0  0  0
   -3.5889    2.8922   -2.5767 C   0  0  0  0  0  0  0  0  0  0  0  0
   -4.1672    3.6331   -3.1464 H   0  0  0  0  0  0  0  0  0  0  0  0
   -2.3729   -1.5055    1.2740 C   0  0  0  0  0  0  0  0  0  0  0  0
   -3.5188   -2.0836    1.6331 N   0  0  0  0  0  0  0  0  0  0  0  0
   -1.1378   -1.7986    1.6824 N   0  0  0  0  0  0  0  0  0  0  0  0
   -1.0362   -2.8486    2.5124 C   0  0  0  0  0  0  0  0  0  0  0  0
   -0.0204   -3.1096    2.8542 H   0  0  0  0  0  0  0  0  0  0  0  0
   -3.4067   -3.1247    2.4735 C   0  0  0  0  0  0  0  0  0  0  0  0
   -4.3459   -3.6139    2.7826 H   0  0  0  0  0  0  0  0  0  0  0  0
   -2.1777    2.7590   -2.8200 C   0  0  0  0  0  0  0  0  0  0  0  0
   -1.6836    3.3875   -3.5733 H   0  0  0  0  0  0  0  0  0  0  0  0
   -2.1603   -3.5726    2.9366 C   0  0  0  0  0  0  0  0  0  0  0  0
   -2.0712   -4.4347    3.6119 H   0  0  0  0  0  0  0  0  0  0  0  0
  1  2  1  0  0  0  0
  2 13  1  0  0  0  0
  3  6  1  0  0  0  0
  3  1  1  0  0  0  0
  4  2  1  0  0  0  0
  4  5  1  0  0  0  0
  6  4  2  0  0  0  0
  7  3  1  0  0  0  0
  8  7  1  0  0  0  0
  9 10  1  0  0  0  0
  9  6  1  0  0  0  0
 11  9  2  0  0  0  0
 12 11  1  0  0  0  0
 13 14  2  0  0  0  0
 13 15  1  0  0  0  0
 14 18  1  0  0  0  0
 15 16  2  0  0  0  0
 16 17  1  0  0  0  0
 16 22  1  0  0  0  0
 18 19  1  0  0  0  0
 18 22  2  0  0  0  0
 20 11  1  0  0  0  0
 20  7  2  0  0  0  0
 21 20  1  0  0  0  0
 22 23  1  0  0  0  0
M  END
