6
q = -1.0, confidence = 0.0

 33 34  0  0  1  0  0  0  0  0999 V2000
    4.0119   -0.6463    0.3721 N   0  0  0  0  0  0  0  0  0  0  0  0
    4.4124   -1.8699    0.7798 N   0  0  0  0  0  0  0  0  0  0  0  0
    1.3322    3.3640    0.2906 N   0  0  0  0  0  0  0  0  0  0  0  0
    2.8136   -0.5772   -0.4724 C   0  0  1  0  0  0  0  0  0  0  0  0
    2.7866   -1.5866   -0.9252 H   0  0  0  0  0  0  0  0  0  0  0  0
    1.5958   -0.3752    0.4232 C   0  0  0  0  0  3  0  0  0  0  0  0
    1.6920   -1.0057    1.3226 H   0  0  0  0  0  0  0  0  0  0  0  0
    1.2162    1.0008    0.7477 C   0  0  0  0  0  0  0  0  0  0  0  0
    0.8708    1.2165    1.7677 H   0  0  0  0  0  0  0  0  0  0  0  0
    1.6305    2.0946   -0.0598 C   0  0  0  0  0  0  0  0  0  0  0  0
    2.5074    1.8813   -1.2690 C   0  0  0  0  0  0  0  0  0  0  0  0
    3.4253    2.4901   -1.1020 H   0  0  0  0  0  0  0  0  0  0  0  0
    2.0284    2.3342   -2.1651 H   0  0  0  0  0  0  0  0  0  0  0  0
    2.8990    0.4301   -1.6326 C   0  0  1  0  0  0  0  0  0  0  0  0
    2.1396    0.0775   -2.3521 H   0  0  0  0  0  0  0  0  0  0  0  0
    5.4008   -1.6420    1.6574 C   0  0  0  0  0  0  0  0  0  0  0  0
    5.9195   -2.4874    2.1268 H   0  0  0  0  0  0  0  0  0  0  0  0
    5.6315   -0.2535    1.8315 C   0  0  0  0  0  0  0  0  0  0  0  0
    6.3776    0.2365    2.4656 H   0  0  0  0  0  0  0  0  0  0  0  0
    4.7034    0.3588    0.9917 C   0  0  0  0  0  0  0  0  0  0  0  0
    4.4993    1.4154    0.7907 H   0  0  0  0  0  0  0  0  0  0  0  0
    4.2441    0.3910   -2.3652 C   0  0  0  0  0  0  0  0  0  0  0  0
    4.2111    1.0242   -3.2741 H   0  0  0  0  0  0  0  0  0  0  0  0
    4.4886   -0.6415   -2.6844 H   0  0  0  0  0  0  0  0  0  0  0  0
    5.0780    0.7468   -1.7278 H   0  0  0  0  0  0  0  0  0  0  0  0
    0.6704    3.6482    1.5659 C   0  0  0  0  0  0  0  0  0  0  0  0
   -0.2315    3.0201    1.6874 H   0  0  0  0  0  0  0  0  0  0  0  0
    0.3591    4.7065    1.5831 H   0  0  0  0  0  0  0  0  0  0  0  0
    1.3546    3.4638    2.4212 H   0  0  0  0  0  0  0  0  0  0  0  0
    1.7946    4.5121   -0.4872 C   0  0  0  0  0  0  0  0  0  0  0  0
    2.8358    4.7979   -0.2218 H   0  0  0  0  0  0  0  0  0  0  0  0
    1.1359    5.3752   -0.2835 H   0  0  0  0  0  0  0  0  0  0  0  0
    1.7586    4.3008   -1.5710 H   0  0  0  0  0  0  0  0  0  0  0  0
  1  2  1  0  0  0  0
  1 20  1  0  0  0  0
  2 16  2  0  0  0  0
  3 26  1  0  0  0  0
  4  5  1  6  0  0  0
  4  1  1  0  0  0  0
  4  6  1  0  0  0  0
  6  8  1  0  0  0  0
  6  7  1  0  0  0  0
  8  9  1  0  0  0  0
 10  3  1  0  0  0  0
 10  8  2  0  0  0  0
 11 12  1  0  0  0  0
 11 10  1  0  0  0  0
 13 11  1  0  0  0  0
 14 15  1  6  0  0  0
 14 11  1  0  0  0  0
 14  4  1  0  0  0  0
 16 18  1  0  0  0  0
 16 17  1  0  0  0  0
 18 19  1  0  0  0  0
 20 18  2  0  0  0  0
 21 20  1  0  0  0  0
 22 25  1  0  0  0  0
 22 14  1  0  0  0  0
 23 22  1  0  0  0  0
 24 22  1  0  0  0  0
 26 28  1  0  0  0  0
 26 27  1  0  0  0  0
 26 29  1  0  0  0  0
 30 32  1  0  0  0  0
 30 31  1  0  0  0  0
 30  3  1  0  0  0  0
 33 30  1  0  0  0  0
M  END
