12
q = -1.0, confidence = 0.0

 33 33  0  0  0  0  0  0  0  0999 V2000
   -1.9378   -0.2708   -0.0686 N   0  0  0  0  0  0  0  0  0  0  0  0
   -0.4730   -2.1741   -1.7335 N   0  0  0  0  0  0  0  0  0  0  0  0
   -2.6201    0.1639    1.1838 C   0  0  0  0  0  0  0  0  0  0  0  0
   -4.1044    0.4018    1.0159 C   0  0  0  0  0  0  0  0  0  0  0  0
   -4.5763    1.5208    0.2978 C   0  0  0  0  0  0  0  0  0  0  0  0
   -5.9513    1.7211    0.1105 C   0  0  0  0  0  0  0  0  0  0  0  0
   -6.8763    0.8095    0.6458 C   0  0  0  0  0  0  0  0  0  0  0  0
   -6.4189   -0.3023    1.3697 C   0  0  0  0  0  0  0  0  0  0  0  0
   -5.0418   -0.5039    1.5497 C   0  0  0  0  0  0  0  0  0  0  0  0
   -2.6049   -1.4462   -0.6637 C   0  0  0  0  0  0  0  0  0  0  0  0
   -1.9186   -1.9118   -1.9282 C   0  0  0  0  0  0  0  0  0  0  0  0
   -1.3738    0.7483   -0.9441 C   0  0  0  0  0  3  0  0  0  0  0  0
    0.1663   -2.1954   -3.0664 C   0  0  0  0  0  0  0  0  0  0  0  0
   -0.2745   -3.5075   -1.1164 C   0  0  0  0  0  0  0  0  0  0  0  0
   -2.4280   -0.6180    1.9461 H   0  0  0  0  0  0  0  0  0  0  0  0
   -2.1198    1.0885    1.5223 H   0  0  0  0  0  0  0  0  0  0  0  0
   -3.8576    2.2457   -0.1143 H   0  0  0  0  0  0  0  0  0  0  0  0
   -6.3047    2.6005   -0.4490 H   0  0  0  0  0  0  0  0  0  0  0  0
   -7.9557    0.9705    0.5036 H   0  0  0  0  0  0  0  0  0  0  0  0
   -7.1381   -1.0166    1.7983 H   0  0  0  0  0  0  0  0  0  0  0  0
   -4.6832   -1.3776    2.1173 H   0  0  0  0  0  0  0  0  0  0  0  0
   -3.6662   -1.2083   -0.8933 H   0  0  0  0  0  0  0  0  0  0  0  0
   -2.6012   -2.2412    0.1097 H   0  0  0  0  0  0  0  0  0  0  0  0
   -2.0202   -1.1424   -2.7173 H   0  0  0  0  0  0  0  0  0  0  0  0
   -2.4315   -2.8247   -2.3098 H   0  0  0  0  0  0  0  0  0  0  0  0
   -1.6789    0.6702   -2.0029 H   0  0  0  0  0  0  0  0  0  0  0  0
   -1.5535    1.7660   -0.5621 H   0  0  0  0  0  0  0  0  0  0  0  0
    0.0712   -1.2056   -3.5484 H   0  0  0  0  0  0  0  0  0  0  0  0
   -0.3066   -2.9728   -3.7097 H   0  0  0  0  0  0  0  0  0  0  0  0
    1.2408   -2.4356   -2.9581 H   0  0  0  0  0  0  0  0  0  0  0  0
   -0.7633   -3.5523   -0.1304 H   0  0  0  0  0  0  0  0  0  0  0  0
    0.8077   -3.6651   -0.9560 H   0  0  0  0  0  0  0  0  0  0  0  0
   -0.6751   -4.2978   -1.7911 H   0  0  0  0  0  0  0  0  0  0  0  0
  1  3  1  0  0  0  0
  2 14  1  0  0  0  0
  3 16  1  0  0  0  0
  3 15  1  0  0  0  0
  4  3  1  0  0  0  0
  4  9  1  0  0  0  0
  5  4  2  0  0  0  0
  6  5  1  0  0  0  0
  6  7  2  0  0  0  0
  7  8  1  0  0  0  0
  8  9  2  0  0  0  0
  8 20  1  0  0  0  0
  9 21  1  0  0  0  0
 10  1  1  0  0  0  0
 10 23  1  0  0  0  0
 11  2  1  0  0  0  0
 11 10  1  0  0  0  0
 12 27  1  0  0  0  0
 12  1  1  0  0  0  0
 13 30  1  0  0  0  0
 13  2  1  0  0  0  0
 14 32  1  0  0  0  0
 14 31  1  0  0  0  0
 17  5  1  0  0  0  0
 18  6  1  0  0  0  0
 19  7  1  0  0  0  0
 22 10  1  0  0  0  0
 24 11  1  0  0  0  0
 25 11  1  0  0  0  0
 26 12  1  0  0  0  0
 28 13  1  0  0  0  0
 29 13  1  0  0  0  0
 33 14  1  0  0  0  0
M  END
