4
q = 0.0, confidence = 0.972

 23 23  0  0  0  0  0  0  0  0999 V2000
   -5.3766   -0.5595   -0.0148 Si  0  0  0  0  0  0  0  0  0  0  0  0
   -2.5523   -0.5961   -0.0060 N   0  0  0  0  0  0  0  0  0  0  0  0
   -2.6748    0.4377    0.0158 H   0  0  0  0  0  0  0  0  0  0  0  0
   -1.2261   -0.9914   -0.0126 C   0  0  0  0  0  2  0  0  0  0  0  0
   -1.0506   -2.4169   -0.0404 C   0  0  0  0  0  0  0  0  0  0  0  0
   -0.0208   -2.7996   -0.0466 H   0  0  0  0  0  0  0  0  0  0  0  0
   -2.1325   -3.2832   -0.0591 C   0  0  0  0  0  0  0  0  0  0  0  0
   -1.9650   -4.3721   -0.0802 H   0  0  0  0  0  0  0  0  0  0  0  0
   -3.4601   -2.7768   -0.0514 C   0  0  0  0  0  0  0  0  0  0  0  0
   -4.3221   -3.4580   -0.0667 H   0  0  0  0  0  0  0  0  0  0  0  0
   -3.6628   -1.4013   -0.0243 C   0  0  0  0  0  0  0  0  0  0  0  0
   -6.6979   -1.9066   -0.0374 C   0  0  0  0  0  0  0  0  0  0  0  0
   -7.7080   -1.4481   -0.0311 H   0  0  0  0  0  0  0  0  0  0  0  0
   -6.6219   -2.5655    0.8513 H   0  0  0  0  0  0  0  0  0  0  0  0
   -6.6206   -2.5376   -0.9460 H   0  0  0  0  0  0  0  0  0  0  0  0
   -5.4849    0.5386   -1.5475 C   0  0  0  0  0  0  0  0  0  0  0  0
   -5.3815   -0.0578   -2.4764 H   0  0  0  0  0  0  0  0  0  0  0  0
   -4.6839    1.3051   -1.5413 H   0  0  0  0  0  0  0  0  0  0  0  0
   -6.4591    1.0685   -1.5833 H   0  0  0  0  0  0  0  0  0  0  0  0
   -5.4925    0.4930    1.5489 C   0  0  0  0  0  0  0  0  0  0  0  0
   -6.4665    1.0224    1.5946 H   0  0  0  0  0  0  0  0  0  0  0  0
   -4.6910    1.2587    1.5700 H   0  0  0  0  0  0  0  0  0  0  0  0
   -5.3949   -0.1305    2.4605 H   0  0  0  0  0  0  0  0  0  0  0  0
  1 20  1  0  0  0  0
  2  3  1  0  0  0  0
  4  2  1  0  0  0  0
  5  4  1  0  0  0  0
  6  5  1  0  0  0  0
  7  9  1  0  0  0  0
  7  5  2  0  0  0  0
  8  7  1  0  0  0  0
  9 11  2  0  0  0  0
 10  9  1  0  0  0  0
 11  1  1  0  0  0  0
 11  2  1  0  0  0  0
 12 13  1  0  0  0  0
 12  1  1  0  0  0  0
 12 14  1  0  0  0  0
 15 12  1  0  0  0  0
 16 18  1  0  0  0  0
 16  1  1  0  0  0  0
 17 16  1  0  0  0  0
 19 16  1  0  0  0  0
 20 22  1  0  0  0  0
 20 21  1  0  0  0  0
 20 23  1  0  0  0  0
M  END
