1
q = 0.0, confidence = 0.738

 13 13  0  0  0  0  0  0  0  0999 V2000
   -2.1348    0.0841   -0.0415 C   0  0  0  0  0  3  0  0  0  0  0  0
   -2.9947    0.0879    1.0971 C   0  0  0  0  0  3  0  0  0  0  0  0
   -4.0573    0.9434    1.4139 C   0  0  0  0  0  0  0  0  0  0  0  0
   -4.6673    1.9459    0.6293 C   0  0  0  0  0  0  0  0  0  0  0  0
   -4.3602    2.3242   -0.6774 C   0  0  0  0  0  0  0  0  0  0  0  0
   -3.3226    1.8277   -1.4988 C   0  0  0  0  0  0  0  0  0  0  0  0
   -2.3320    0.8906   -1.2042 C   0  0  0  0  0  0  0  0  0  0  0  0
   -2.7505   -0.6631    1.8642 H   0  0  0  0  0  0  0  0  0  0  0  0
   -4.4945    0.7984    2.4161 H   0  0  0  0  0  0  0  0  0  0  0  0
   -5.5057    2.4815    1.1046 H   0  0  0  0  0  0  0  0  0  0  0  0
   -4.9892    3.1138   -1.1192 H   0  0  0  0  0  0  0  0  0  0  0  0
   -3.2558    2.2836   -2.5008 H   0  0  0  0  0  0  0  0  0  0  0  0
   -1.5838    0.7501   -2.0007 H   0  0  0  0  0  0  0  0  0  0  0  0
  1  2  1  0  0  0  0
  2  3  1  0  0  0  0
  2  8  1  0  0  0  0
  3  9  1  0  0  0  0
  4 10  1  0  0  0  0
  4  3  2  0  0  0  0
  5  4  1  0  0  0  0
  6  7  1  0  0  0  0
  6  5  2  0  0  0  0
  7  1  2  0  0  0  0
 11  5  1  0  0  0  0
 12  6  1  0  0  0  0
 13  7  1  0  0  0  0
M  END
