5
q = 0.0, confidence = 0.994

 59 63  0  0  1  0  0  0  0  0999 V2000
    0.4779   -1.4620   -2.5486 O   0  0  0  0  0  0  0  0  0  0  0  0
    0.4793    1.4620    2.5485 O   0  0  0  0  0  0  0  0  0  0  0  0
   -0.6666   -1.0905   -0.1173 N   0  0  0  0  0  0  0  0  0  0  0  0
   -0.6659    1.0908    0.1175 N   0  0  0  0  0  0  0  0  0  0  0  0
    0.1281   -0.0001   -0.0000 C   0  0  0  0  0  2  0  0  0  0  0  0
   -2.1097   -0.7789    0.0422 C   0  0  2  0  0  0  0  0  0  0  0  0
   -2.1092    0.7800   -0.0416 C   0  0  2  0  0  0  0  0  0  0  0  0
   -2.6699   -1.3258    1.3397 C   0  0  0  0  0  0  0  0  0  0  0  0
   -2.0940   -0.9512    2.5725 C   0  0  0  0  0  0  0  0  0  0  0  0
   -2.6059   -1.4659    3.7711 C   0  0  0  0  0  0  0  0  0  0  0  0
   -3.6940   -2.3564    3.7538 C   0  0  0  0  0  0  0  0  0  0  0  0
   -4.2711   -2.7284    2.5307 C   0  0  0  0  0  0  0  0  0  0  0  0
   -3.7592   -2.2138    1.3285 C   0  0  0  0  0  0  0  0  0  0  0  0
   -2.6695    1.3272   -1.3391 C   0  0  0  0  0  0  0  0  0  0  0  0
   -2.0942    0.9523   -2.5720 C   0  0  0  0  0  0  0  0  0  0  0  0
   -2.6061    1.4672   -3.7704 C   0  0  0  0  0  0  0  0  0  0  0  0
   -3.6937    2.3583   -3.7529 C   0  0  0  0  0  0  0  0  0  0  0  0
   -4.2704    2.7305   -2.5296 C   0  0  0  0  0  0  0  0  0  0  0  0
   -3.7584    2.2157   -1.3276 C   0  0  0  0  0  0  0  0  0  0  0  0
   -0.1976   -2.3834   -0.4775 C   0  0  0  0  0  0  0  0  0  0  0  0
   -0.3400   -3.4764    0.3896 C   0  0  0  0  0  0  0  0  0  0  0  0
    0.1465   -4.7407    0.0244 C   0  0  0  0  0  0  0  0  0  0  0  0
    0.7979   -4.9007   -1.2062 C   0  0  0  0  0  0  0  0  0  0  0  0
    0.9473   -3.8173   -2.0857 C   0  0  0  0  0  0  0  0  0  0  0  0
    0.4291   -2.5545   -1.7433 C   0  0  0  0  0  0  0  0  0  0  0  0
    1.4247   -1.4393   -3.6077 C   0  0  0  0  0  0  0  0  0  0  0  0
   -0.1961    2.3835    0.4774 C   0  0  0  0  0  0  0  0  0  0  0  0
   -0.3382    3.4765   -0.3898 C   0  0  0  0  0  0  0  0  0  0  0  0
    0.1491    4.7406   -0.0249 C   0  0  0  0  0  0  0  0  0  0  0  0
    0.8010    4.9004    1.2055 C   0  0  0  0  0  0  0  0  0  0  0  0
    0.9500    3.8170    2.0851 C   0  0  0  0  0  0  0  0  0  0  0  0
    0.4310    2.5545    1.7430 C   0  0  0  0  0  0  0  0  0  0  0  0
    1.4269    1.4387    3.6068 C   0  0  0  0  0  0  0  0  0  0  0  0
   -2.6692   -1.2072   -0.8128 H   0  0  0  0  0  0  0  0  0  0  0  0
   -2.6683    1.2087    0.8135 H   0  0  0  0  0  0  0  0  0  0  0  0
   -1.2373   -0.2578    2.5897 H   0  0  0  0  0  0  0  0  0  0  0  0
   -2.1508   -1.1718    4.7292 H   0  0  0  0  0  0  0  0  0  0  0  0
   -4.0908   -2.7613    4.6972 H   0  0  0  0  0  0  0  0  0  0  0  0
   -5.1216   -3.4265    2.5100 H   0  0  0  0  0  0  0  0  0  0  0  0
   -4.2049   -2.5116    0.3661 H   0  0  0  0  0  0  0  0  0  0  0  0
   -1.2377    0.2585   -2.5894 H   0  0  0  0  0  0  0  0  0  0  0  0
   -2.1513    1.1729   -4.7286 H   0  0  0  0  0  0  0  0  0  0  0  0
   -4.0906    2.7633   -4.6962 H   0  0  0  0  0  0  0  0  0  0  0  0
   -5.1206    3.4291   -2.5087 H   0  0  0  0  0  0  0  0  0  0  0  0
   -4.2037    2.5138   -0.3651 H   0  0  0  0  0  0  0  0  0  0  0  0
   -0.8140   -3.3153    1.3673 H   0  0  0  0  0  0  0  0  0  0  0  0
    0.0379   -5.5906    0.7134 H   0  0  0  0  0  0  0  0  0  0  0  0
    1.2041   -5.8826   -1.4924 H   0  0  0  0  0  0  0  0  0  0  0  0
    1.4603   -3.9603   -3.0460 H   0  0  0  0  0  0  0  0  0  0  0  0
    2.4492   -1.6359   -3.2260 H   0  0  0  0  0  0  0  0  0  0  0  0
    1.3884   -0.4183   -4.0298 H   0  0  0  0  0  0  0  0  0  0  0  0
    1.1724   -2.1720   -4.4059 H   0  0  0  0  0  0  0  0  0  0  0  0
   -0.8126    3.3155   -1.3674 H   0  0  0  0  0  0  0  0  0  0  0  0
    0.0408    5.5905   -0.7140 H   0  0  0  0  0  0  0  0  0  0  0  0
    1.2078    5.8821    1.4914 H   0  0  0  0  0  0  0  0  0  0  0  0
    1.4633    3.9598    3.0452 H   0  0  0  0  0  0  0  0  0  0  0  0
    1.1757    2.1715    4.4052 H   0  0  0  0  0  0  0  0  0  0  0  0
    1.3902    0.4177    4.0289 H   0  0  0  0  0  0  0  0  0  0  0  0
    2.4513    1.6346    3.2244 H   0  0  0  0  0  0  0  0  0  0  0  0
  1 25  1  0  0  0  0
  2 33  1  0  0  0  0
  3  5  1  0  0  0  0
  3  6  1  0  0  0  0
  4 27  1  0  0  0  0
  5  4  1  0  0  0  0
  6 34  1  6  0  0  0
  6  8  1  0  0  0  0
  7  6  1  0  0  0  0
  7  4  1  0  0  0  0
  7 35  1  1  0  0  0
  8  9  1  0  0  0  0
  9 36  1  0  0  0  0
  9 10  2  0  0  0  0
 10 37  1  0  0  0  0
 11 10  1  0  0  0  0
 11 38  1  0  0  0  0
 12 11  2  0  0  0  0
 13  8  2  0  0  0  0
 13 12  1  0  0  0  0
 14 19  1  0  0  0  0
 14  7  1  0  0  0  0
 15 14  2  0  0  0  0
 16 17  2  0  0  0  0
 16 15  1  0  0  0  0
 17 18  1  0  0  0  0
 18 44  1  0  0  0  0
 18 19  2  0  0  0  0
 19 45  1  0  0  0  0
 20  3  1  0  0  0  0
 20 21  1  0  0  0  0
 21 46  1  0  0  0  0
 22 21  2  0  0  0  0
 22 47  1  0  0  0  0
 23 22  1  0  0  0  0
 24 25  1  0  0  0  0
 24 23  2  0  0  0  0
 25 20  2  0  0  0  0
 26 50  1  0  0  0  0
 26  1  1  0  0  0  0
 27 32  1  0  0  0  0
 28 29  1  0  0  0  0
 28 27  2  0  0  0  0
 29 30  2  0  0  0  0
 30 55  1  0  0  0  0
 30 31  1  0  0  0  0
 31 56  1  0  0  0  0
 32 31  2  0  0  0  0
 32  2  1  0  0  0  0
 33 58  1  0  0  0  0
 33 57  1  0  0  0  0
 39 12  1  0  0  0  0
 40 13  1  0  0  0  0
 41 15  1  0  0  0  0
 42 16  1  0  0  0  0
 43 17  1  0  0  0  0
 48 23  1  0  0  0  0
 49 24  1  0  0  0  0
 51 26  1  0  0  0  0
 52 26  1  0  0  0  0
 53 28  1  0  0  0  0
 54 29  1  0  0  0  0
 59 33  1  0  0  0  0
M  END
