2
q = 0.0, confidence = 0.98

 18 18  0  0  1  0  0  0  0  0999 V2000
   -1.0714   -0.4593   -1.1255 C   0  0  0  0  0  3  0  0  0  0  0  0
   -0.6298    0.8727   -0.8835 C   0  0  0  0  0  3  0  0  0  0  0  0
   -1.3050    1.7855    0.0693 C   0  0  0  0  0  0  0  0  0  0  0  0
   -0.9102    2.9402    0.2431 O   0  0  0  0  0  0  0  0  0  0  0  0
   -2.5611    1.2673    0.7678 C   0  0  0  0  0  0  0  0  0  0  0  0
   -2.7723   -0.2532    0.7389 C   0  0  0  0  0  0  0  0  0  0  0  0
   -2.4441   -0.8925   -0.6225 C   0  0  1  0  0  0  0  0  0  0  0  0
   -3.4904   -0.5436   -1.6978 C   0  0  0  0  0  0  0  0  0  0  0  0
   -0.7815   -0.9150   -2.0895 H   0  0  0  0  0  0  0  0  0  0  0  0
   -2.4580   -1.9956   -0.4952 H   0  0  0  0  0  0  0  0  0  0  0  0
   -3.8218   -0.4901    1.0118 H   0  0  0  0  0  0  0  0  0  0  0  0
   -2.1469   -0.7287    1.5204 H   0  0  0  0  0  0  0  0  0  0  0  0
   -3.3980    1.7880    0.2500 H   0  0  0  0  0  0  0  0  0  0  0  0
   -2.5632    1.6660    1.8020 H   0  0  0  0  0  0  0  0  0  0  0  0
   -0.0424    1.4046   -1.6449 H   0  0  0  0  0  0  0  0  0  0  0  0
   -4.4993   -0.8844   -1.3875 H   0  0  0  0  0  0  0  0  0  0  0  0
   -3.2517   -1.0298   -2.6654 H   0  0  0  0  0  0  0  0  0  0  0  0
   -3.5392    0.5493   -1.8812 H   0  0  0  0  0  0  0  0  0  0  0  0
  1  2  1  0  0  0  0
  1  7  1  0  0  0  0
  2  3  1  0  0  0  0
  3  4  2  0  0  0  0
  3  5  1  0  0  0  0
  5 14  1  0  0  0  0
  6  5  1  0  0  0  0
  6 11  1  0  0  0  0
  6 12  1  0  0  0  0
  7 10  1  1  0  0  0
  7  6  1  0  0  0  0
  8 16  1  0  0  0  0
  8  7  1  0  0  0  0
  9  1  1  0  0  0  0
 13  5  1  0  0  0  0
 15  2  1  0  0  0  0
 17  8  1  0  0  0  0
 18  8  1  0  0  0  0
M  END
