6
q = 0.0, confidence = 0.994

 28 29  0  0  1  0  0  0  0  0999 V2000
   -0.4371    0.0889    1.3684 C   0  0  0  0  0  3  0  0  0  0  0  0
    1.0347   -0.2876    1.2583 C   0  0  1  0  0  0  0  0  0  0  0  0
    1.6867    0.3647    0.0059 C   0  0  1  0  0  0  0  0  0  0  0  0
    1.4717    1.8829   -0.0059 C   0  0  0  0  0  0  0  0  0  0  0  0
    0.0522    2.3563    0.3080 C   0  0  0  0  0  0  0  0  0  0  0  0
   -0.8597    1.3907    0.9800 C   0  0  0  0  0  3  0  0  0  0  0  0
    1.7447    0.0890    2.5702 C   0  0  0  0  0  0  0  0  0  0  0  0
   -0.2926    3.5130    0.0862 O   0  0  0  0  0  0  0  0  0  0  0  0
    3.1295   -0.0831   -0.1674 C   0  0  0  0  0  0  0  0  0  0  0  0
    3.3757   -1.3924   -0.6364 C   0  0  0  0  0  0  0  0  0  0  0  0
    4.6824   -1.8772   -0.7797 C   0  0  0  0  0  0  0  0  0  0  0  0
    5.7774   -1.0576   -0.4593 C   0  0  0  0  0  0  0  0  0  0  0  0
    5.5488    0.2468    0.0016 C   0  0  0  0  0  0  0  0  0  0  0  0
    4.2370    0.7285    0.1454 C   0  0  0  0  0  0  0  0  0  0  0  0
   -0.9483   -0.3769    2.2300 H   0  0  0  0  0  0  0  0  0  0  0  0
    1.1251   -1.3881    1.1416 H   0  0  0  0  0  0  0  0  0  0  0  0
    2.8156   -0.1934    2.5325 H   0  0  0  0  0  0  0  0  0  0  0  0
    1.6817    1.1773    2.7745 H   0  0  0  0  0  0  0  0  0  0  0  0
    1.2829   -0.4344    3.4315 H   0  0  0  0  0  0  0  0  0  0  0  0
    1.1425   -0.0460   -0.8686 H   0  0  0  0  0  0  0  0  0  0  0  0
    2.1010    2.3796    0.7656 H   0  0  0  0  0  0  0  0  0  0  0  0
    1.7772    2.3332   -0.9715 H   0  0  0  0  0  0  0  0  0  0  0  0
   -1.6743    1.9005    1.5152 H   0  0  0  0  0  0  0  0  0  0  0  0
    2.5199   -2.0371   -0.8951 H   0  0  0  0  0  0  0  0  0  0  0  0
    4.8483   -2.9003   -1.1509 H   0  0  0  0  0  0  0  0  0  0  0  0
    6.8053   -1.4337   -0.5745 H   0  0  0  0  0  0  0  0  0  0  0  0
    6.3988    0.9010    0.2500 H   0  0  0  0  0  0  0  0  0  0  0  0
    4.0818    1.7565    0.5047 H   0  0  0  0  0  0  0  0  0  0  0  0
  1 15  1  0  0  0  0
  2 16  1  6  0  0  0
  2  1  1  0  0  0  0
  2  7  1  0  0  0  0
  3 20  1  6  0  0  0
  3  2  1  0  0  0  0
  4  3  1  0  0  0  0
  4  5  1  0  0  0  0
  4 21  1  0  0  0  0
  5  6  1  0  0  0  0
  6  1  1  0  0  0  0
  6 23  1  0  0  0  0
  7 18  1  0  0  0  0
  7 19  1  0  0  0  0
  8  5  2  0  0  0  0
  9  3  1  0  0  0  0
  9 14  1  0  0  0  0
 10  9  2  0  0  0  0
 11 10  1  0  0  0  0
 11 12  2  0  0  0  0
 12 13  1  0  0  0  0
 13 14  2  0  0  0  0
 13 27  1  0  0  0  0
 14 28  1  0  0  0  0
 17  7  1  0  0  0  0
 22  4  1  0  0  0  0
 24 10  1  0  0  0  0
 25 11  1  0  0  0  0
 26 12  1  0  0  0  0
M  END
