4
q = 0.0, confidence = 0.962

 72 77  0  0  0  0  0  0  0  0999 V2000
   -0.6748   -1.7797    1.5929 S   0  0  0  0  0  1  0  0  0  0  0  0
   -0.9460    1.1929    1.9935 S   0  0  0  0  0  1  0  0  0  0  0  0
    1.0938    0.0543    0.4540 C   0  0  0  0  0  3  0  0  0  0  0  0
   -0.0951   -0.1548    1.2603 C   0  0  0  0  0  3  0  0  0  0  0  0
    2.1910   -1.3138    0.2632 P   0  0  0  0  0  4  0  0  0  0  0  0
    2.3007   -2.2319    1.8453 C   0  0  0  0  0  0  0  0  0  0  0  0
    2.2186   -1.5281    3.0664 C   0  0  0  0  0  0  0  0  0  0  0  0
    1.9902   -0.4529    3.0674 H   0  0  0  0  0  0  0  0  0  0  0  0
    2.3787   -2.2091    4.2799 C   0  0  0  0  0  0  0  0  0  0  0  0
    2.2953   -1.6549    5.2266 H   0  0  0  0  0  0  0  0  0  0  0  0
    2.6184   -3.5918    4.2881 C   0  0  0  0  0  0  0  0  0  0  0  0
    2.7359   -4.1257    5.2428 H   0  0  0  0  0  0  0  0  0  0  0  0
    2.6864   -4.2950    3.0748 C   0  0  0  0  0  0  0  0  0  0  0  0
    2.8535   -5.3825    3.0746 H   0  0  0  0  0  0  0  0  0  0  0  0
    2.5277   -3.6225    1.8555 C   0  0  0  0  0  0  0  0  0  0  0  0
    2.5507   -4.1886    0.9142 H   0  0  0  0  0  0  0  0  0  0  0  0
    1.7843   -2.4939   -1.0652 C   0  0  0  0  0  0  0  0  0  0  0  0
    0.4806   -2.4564   -1.5976 C   0  0  0  0  0  0  0  0  0  0  0  0
   -0.2702   -1.7565   -1.1985 H   0  0  0  0  0  0  0  0  0  0  0  0
    0.1055   -3.3651   -2.5966 C   0  0  0  0  0  0  0  0  0  0  0  0
   -0.9275   -3.3278   -2.9746 H   0  0  0  0  0  0  0  0  0  0  0  0
    1.0247   -4.3169   -3.0642 C   0  0  0  0  0  0  0  0  0  0  0  0
    0.7280   -5.0315   -3.8469 H   0  0  0  0  0  0  0  0  0  0  0  0
    2.3191   -4.3725   -2.5203 C   0  0  0  0  0  0  0  0  0  0  0  0
    3.0362   -5.1291   -2.8730 H   0  0  0  0  0  0  0  0  0  0  0  0
    2.7025   -3.4687   -1.5181 C   0  0  0  0  0  0  0  0  0  0  0  0
    3.7145   -3.5294   -1.0915 H   0  0  0  0  0  0  0  0  0  0  0  0
    3.9042   -0.7076   -0.0208 C   0  0  0  0  0  0  0  0  0  0  0  0
    4.6175   -0.9446   -1.2110 C   0  0  0  0  0  0  0  0  0  0  0  0
    4.1382   -1.4635   -2.0511 H   0  0  0  0  0  0  0  0  0  0  0  0
    5.9351   -0.4821   -1.3428 C   0  0  0  0  0  0  0  0  0  0  0  0
    6.4812   -0.6687   -2.2793 H   0  0  0  0  0  0  0  0  0  0  0  0
    6.5453    0.2293   -0.2993 C   0  0  0  0  0  0  0  0  0  0  0  0
    7.5788    0.5912   -0.4078 H   0  0  0  0  0  0  0  0  0  0  0  0
    5.8295    0.4862    0.8814 C   0  0  0  0  0  0  0  0  0  0  0  0
    6.2965    1.0505    1.7024 H   0  0  0  0  0  0  0  0  0  0  0  0
    4.5182    0.0150    1.0247 C   0  0  0  0  0  0  0  0  0  0  0  0
    3.9720    0.2085    1.9585 H   0  0  0  0  0  0  0  0  0  0  0  0
    1.2801    1.6320   -0.3171 P   0  0  0  0  0  4  0  0  0  0  0  0
    2.5208    1.5455   -1.6764 C   0  0  0  0  0  0  0  0  0  0  0  0
    3.7460    2.2370   -1.6057 C   0  0  0  0  0  0  0  0  0  0  0  0
    4.0195    2.7891   -0.6966 H   0  0  0  0  0  0  0  0  0  0  0  0
    4.6342    2.2054   -2.6906 C   0  0  0  0  0  0  0  0  0  0  0  0
    5.5884    2.7489   -2.6236 H   0  0  0  0  0  0  0  0  0  0  0  0
    4.3154    1.4779   -3.8468 C   0  0  0  0  0  0  0  0  0  0  0  0
    5.0129    1.4593   -4.6979 H   0  0  0  0  0  0  0  0  0  0  0  0
    3.1056    0.7682   -3.9119 C   0  0  0  0  0  0  0  0  0  0  0  0
    2.8488    0.1883   -4.8109 H   0  0  0  0  0  0  0  0  0  0  0  0
    2.2085    0.8036   -2.8361 C   0  0  0  0  0  0  0  0  0  0  0  0
    1.2595    0.2558   -2.9087 H   0  0  0  0  0  0  0  0  0  0  0  0
   -0.2592    2.1584   -1.1381 C   0  0  0  0  0  0  0  0  0  0  0  0
   -0.9432    1.2056   -1.9218 C   0  0  0  0  0  0  0  0  0  0  0  0
   -0.6319    0.1526   -1.9220 H   0  0  0  0  0  0  0  0  0  0  0  0
   -2.0652    1.5875   -2.6673 C   0  0  0  0  0  0  0  0  0  0  0  0
   -2.6157    0.8225   -3.2333 H   0  0  0  0  0  0  0  0  0  0  0  0
   -2.5182    2.9125   -2.6235 C   0  0  0  0  0  0  0  0  0  0  0  0
   -3.4142    3.2051   -3.1900 H   0  0  0  0  0  0  0  0  0  0  0  0
   -1.8672    3.8498   -1.8062 C   0  0  0  0  0  0  0  0  0  0  0  0
   -2.2534    4.8768   -1.7273 H   0  0  0  0  0  0  0  0  0  0  0  0
   -0.7416    3.4787   -1.0586 C   0  0  0  0  0  0  0  0  0  0  0  0
   -0.2663    4.2094   -0.3905 H   0  0  0  0  0  0  0  0  0  0  0  0
    1.8792    2.9427    0.8061 C   0  0  0  0  0  0  0  0  0  0  0  0
    2.1661    4.2409    0.3316 C   0  0  0  0  0  0  0  0  0  0  0  0
    2.0274    4.4890   -0.7311 H   0  0  0  0  0  0  0  0  0  0  0  0
    2.6455    5.2181    1.2169 C   0  0  0  0  0  0  0  0  0  0  0  0
    2.8657    6.2296    0.8439 H   0  0  0  0  0  0  0  0  0  0  0  0
    2.8444    4.9066    2.5714 C   0  0  0  0  0  0  0  0  0  0  0  0
    3.2181    5.6765    3.2632 H   0  0  0  0  0  0  0  0  0  0  0  0
    2.5644    3.6140    3.0435 C   0  0  0  0  0  0  0  0  0  0  0  0
    2.7114    3.3681    4.1057 H   0  0  0  0  0  0  0  0  0  0  0  0
    2.0829    2.6346    2.1643 C   0  0  0  0  0  0  0  0  0  0  0  0
    1.8422    1.6244    2.5260 H   0  0  0  0  0  0  0  0  0  0  0  0
  3  4  1  0  0  0  0
  4  1  1  0  0  0  0
  4  2  1  0  0  0  0
  5  3  1  0  0  0  0
  5  6  1  0  0  0  0
  6 15  2  0  0  0  0
  6  7  1  0  0  0  0
  7  8  1  0  0  0  0
  7  9  2  0  0  0  0
  9 11  1  0  0  0  0
  9 10  1  0  0  0  0
 11 12  1  0  0  0  0
 13 11  2  0  0  0  0
 14 13  1  0  0  0  0
 15 13  1  0  0  0  0
 16 15  1  0  0  0  0
 17  5  1  0  0  0  0
 18 19  1  0  0  0  0
 18 17  2  0  0  0  0
 20 18  1  0  0  0  0
 21 20  1  0  0  0  0
 22 20  2  0  0  0  0
 22 24  1  0  0  0  0
 23 22  1  0  0  0  0
 24 26  2  0  0  0  0
 25 24  1  0  0  0  0
 26 27  1  0  0  0  0
 26 17  1  0  0  0  0
 28  5  1  0  0  0  0
 28 37  1  0  0  0  0
 29 28  2  0  0  0  0
 30 29  1  0  0  0  0
 31 29  1  0  0  0  0
 31 33  2  0  0  0  0
 32 31  1  0  0  0  0
 33 35  1  0  0  0  0
 34 33  1  0  0  0  0
 35 37  2  0  0  0  0
 35 36  1  0  0  0  0
 37 38  1  0  0  0  0
 39  3  1  0  0  0  0
 39 62  1  0  0  0  0
 40 41  1  0  0  0  0
 40 39  1  0  0  0  0
 41 42  1  0  0  0  0
 43 44  1  0  0  0  0
 43 41  2  0  0  0  0
 45 43  1  0  0  0  0
 46 45  1  0  0  0  0
 47 45  2  0  0  0  0
 47 49  1  0  0  0  0
 48 47  1  0  0  0  0
 49 40  2  0  0  0  0
 50 49  1  0  0  0  0
 51 60  1  0  0  0  0
 51 39  1  0  0  0  0
 52 51  2  0  0  0  0
 53 52  1  0  0  0  0
 54 56  2  0  0  0  0
 54 52  1  0  0  0  0
 55 54  1  0  0  0  0
 56 58  1  0  0  0  0
 57 56  1  0  0  0  0
 58 59  1  0  0  0  0
 58 60  2  0  0  0  0
 60 61  1  0  0  0  0
 62 71  1  0  0  0  0
 63 62  2  0  0  0  0
 63 65  1  0  0  0  0
 64 63  1  0  0  0  0
 65 67  2  0  0  0  0
 66 65  1  0  0  0  0
 67 69  1  0  0  0  0
 67 68  1  0  0  0  0
 69 70  1  0  0  0  0
 71 72  1  0  0  0  0
 71 69  2  0  0  0  0
M  END
