4
q = nan, confidence = 0.0

 20 19  0  0  0  0  0  0  0  0999 V2000
   -4.1405   -0.0363    0.0904 Si  0  0  0  0  0  0  0  0  0  0  0  0
   -2.2634   -0.0067    0.2697 C   0  0  0  0  0  0  0  0  0  0  0  0
   -1.9366    0.0222    1.3274 H   0  0  0  0  0  0  0  0  0  0  0  0
   -1.2921   -0.0510   -0.6808 C   0  0  0  0  0  3  0  0  0  0  0  0
   -1.6414   -0.1352   -2.1478 C   0  0  0  0  0  0  0  0  0  0  0  0
   -1.2562   -1.0767   -2.5928 H   0  0  0  0  0  0  0  0  0  0  0  0
   -1.1555    0.6719   -2.7329 H   0  0  0  0  0  0  0  0  0  0  0  0
   -2.7376   -0.0891   -2.3285 H   0  0  0  0  0  0  0  0  0  0  0  0
   -4.7762   -1.6075   -0.7712 C   0  0  0  0  0  0  0  0  0  0  0  0
   -5.8850   -1.6027   -0.8274 H   0  0  0  0  0  0  0  0  0  0  0  0
   -4.4677   -2.5138   -0.2110 H   0  0  0  0  0  0  0  0  0  0  0  0
   -4.3842   -1.7011   -1.8040 H   0  0  0  0  0  0  0  0  0  0  0  0
   -4.8092    1.4844   -0.8353 C   0  0  0  0  0  0  0  0  0  0  0  0
   -4.5444    2.4195   -0.2999 H   0  0  0  0  0  0  0  0  0  0  0  0
   -5.9157    1.4417   -0.9157 H   0  0  0  0  0  0  0  0  0  0  0  0
   -4.3955    1.5580   -1.8612 H   0  0  0  0  0  0  0  0  0  0  0  0
   -4.8366   -0.0084    1.8576 C   0  0  0  0  0  0  0  0  0  0  0  0
   -4.5018    0.9000    2.4009 H   0  0  0  0  0  0  0  0  0  0  0  0
   -4.4892   -0.8911    2.4343 H   0  0  0  0  0  0  0  0  0  0  0  0
   -5.9460   -0.0166    1.8622 H   0  0  0  0  0  0  0  0  0  0  0  0
  1  2  1  0  0  0  0
  1 17  1  0  0  0  0
  2  3  1  0  0  0  0
  4  2  2  0  0  0  0
  5  4  1  0  0  0  0
  6  5  1  0  0  0  0
  7  5  1  0  0  0  0
  8  5  1  0  0  0  0
  9 11  1  0  0  0  0
  9  1  1  0  0  0  0
 10  9  1  0  0  0  0
 12  9  1  0  0  0  0
 13 14  1  0  0  0  0
 13  1  1  0  0  0  0
 15 13  1  0  0  0  0
 16 13  1  0  0  0  0
 17 20  1  0  0  0  0
 17 18  1  0  0  0  0
 17 19  1  0  0  0  0
M  END
