5
q = -1.0, confidence = 0.0

 10 10  0  0  0  0  0  0  0  0999 V2000
   -0.4413    3.6867    2.1921 F   0  0  0  0  0  0  0  0  0  0  0  0
   -1.5526    4.9460    0.0108 F   0  0  0  0  0  0  0  0  0  0  0  0
   -1.0146    0.8799   -2.3927 F   0  0  0  0  0  0  0  0  0  0  0  0
   -0.1874    1.7554    1.0062 N   0  0  0  0  0  0  0  0  0  0  0  0
   -0.3041    0.9937   -0.1123 C   0  0  0  0  0  3  0  0  0  0  0  0
   -0.5917    3.0082    1.0415 C   0  0  0  0  0  0  0  0  0  0  0  0
   -1.1604    3.6630   -0.0659 C   0  0  0  0  0  0  0  0  0  0  0  0
   -1.3024    2.9337   -1.2517 C   0  0  0  0  0  0  0  0  0  0  0  0
   -0.8711    1.6047   -1.2519 C   0  0  0  0  0  0  0  0  0  0  0  0
   -1.7399    3.3979   -2.1471 H   0  0  0  0  0  0  0  0  0  0  0  0
  3  9  1  0  0  0  0
  4  6  1  0  0  0  0
  5  4  2  0  0  0  0
  6  1  1  0  0  0  0
  7  2  1  0  0  0  0
  7  6  2  0  0  0  0
  8  7  1  0  0  0  0
  9  8  2  0  0  0  0
  9  5  1  0  0  0  0
 10  8  1  0  0  0  0
M  END
