4
q = -1.0, confidence = 0.0

 26 26  0  0  0  0  0  0  0  0999 V2000
   -2.0538    1.6056   -0.2139 O   0  0  0  0  0  0  0  0  0  0  0  0
   -2.6898    0.0376   -1.7129 O   0  0  0  0  0  0  0  0  0  0  0  0
   -4.0803    0.5275    0.0054 O   0  0  0  0  0  0  0  0  0  0  0  0
   -0.5894   -0.8591    0.6545 C   0  0  0  0  0  3  0  0  0  0  0  0
   -0.1937   -1.9821    1.4366 C   0  0  0  0  0  0  0  0  0  0  0  0
   -1.0746   -2.9079    2.0113 C   0  0  0  0  0  0  0  0  0  0  0  0
   -2.4519   -2.7537    1.8144 C   0  0  0  0  0  0  0  0  0  0  0  0
   -2.8918   -1.6547    1.0706 C   0  0  0  0  0  0  0  0  0  0  0  0
   -2.0042   -0.7010    0.5106 C   0  0  0  0  0  0  0  0  0  0  0  0
   -2.6984    0.3800   -0.3412 C   0  0  0  0  0  0  0  0  0  0  0  0
   -2.5547    2.6329   -1.0740 C   0  0  0  0  0  0  0  0  0  0  0  0
   -3.5009   -1.0540   -2.1102 C   0  0  0  0  0  0  0  0  0  0  0  0
   -4.3279    1.1358    1.2615 C   0  0  0  0  0  0  0  0  0  0  0  0
    0.8782   -2.1524    1.5995 H   0  0  0  0  0  0  0  0  0  0  0  0
   -0.6777   -3.7515    2.5993 H   0  0  0  0  0  0  0  0  0  0  0  0
   -3.1756   -3.4708    2.2307 H   0  0  0  0  0  0  0  0  0  0  0  0
   -3.9694   -1.5171    0.9048 H   0  0  0  0  0  0  0  0  0  0  0  0
   -3.6598    2.5850   -1.1551 H   0  0  0  0  0  0  0  0  0  0  0  0
   -2.1098    2.5487   -2.0848 H   0  0  0  0  0  0  0  0  0  0  0  0
   -2.2576    3.5955   -0.6158 H   0  0  0  0  0  0  0  0  0  0  0  0
   -3.3496   -1.1725   -3.2005 H   0  0  0  0  0  0  0  0  0  0  0  0
   -3.2058   -2.0001   -1.6022 H   0  0  0  0  0  0  0  0  0  0  0  0
   -4.5754   -0.8620   -1.9074 H   0  0  0  0  0  0  0  0  0  0  0  0
   -4.0275    2.2066    1.2733 H   0  0  0  0  0  0  0  0  0  0  0  0
   -5.4193    1.0676    1.4366 H   0  0  0  0  0  0  0  0  0  0  0  0
   -3.7972    0.6173    2.0909 H   0  0  0  0  0  0  0  0  0  0  0  0
  2 10  1  0  0  0  0
  3 13  1  0  0  0  0
  4  5  1  0  0  0  0
  5 14  1  0  0  0  0
  5  6  2  0  0  0  0
  6 15  1  0  0  0  0
  7  6  1  0  0  0  0
  7 16  1  0  0  0  0
  8  7  2  0  0  0  0
  9  4  2  0  0  0  0
  9  8  1  0  0  0  0
 10  1  1  0  0  0  0
 10  3  1  0  0  0  0
 10  9  1  0  0  0  0
 11 20  1  0  0  0  0
 11  1  1  0  0  0  0
 12 23  1  0  0  0  0
 12  2  1  0  0  0  0
 12 22  1  0  0  0  0
 13 24  1  0  0  0  0
 13 25  1  0  0  0  0
 13 26  1  0  0  0  0
 17  8  1  0  0  0  0
 18 11  1  0  0  0  0
 19 11  1  0  0  0  0
 21 12  1  0  0  0  0
M  END
