17
q = -1.0, confidence = 0.006

 81 85  0  0  1  0  0  0  0  0999 V2000
   -1.1879   -0.2432    0.5011 P   0  0  0  0  0  0  0  0  0  0  0  0
    1.7909   -0.3176    0.2717 P   0  0  0  0  0  0  0  0  0  0  0  0
   -0.9401   -0.5431    2.3326 C   0  0  0  0  0  0  0  0  0  0  0  0
   -1.1190    0.3991    2.8884 H   0  0  0  0  0  0  0  0  0  0  0  0
   -1.7389   -1.2450    2.6506 H   0  0  0  0  0  0  0  0  0  0  0  0
    1.6394   -0.3576    2.1512 C   0  0  0  0  0  0  0  0  0  0  0  0
    2.5702   -0.7748    2.5869 H   0  0  0  0  0  0  0  0  0  0  0  0
    1.5773    0.6946    2.4940 H   0  0  0  0  0  0  0  0  0  0  0  0
    0.5108   -2.6583    2.3597 C   0  0  0  0  0  0  0  0  0  0  0  0
    1.4980   -3.0425    2.6945 H   0  0  0  0  0  0  0  0  0  0  0  0
   -0.2538   -3.1914    2.9654 H   0  0  0  0  0  0  0  0  0  0  0  0
    0.4360   -1.1458    2.7377 C   0  0  2  0  0  0  0  0  0  0  0  0
    0.5412   -1.0549    4.2743 C   0  0  0  0  0  0  0  0  0  0  0  0
   -0.3121   -1.5717    4.7597 H   0  0  0  0  0  0  0  0  0  0  0  0
    0.5394   -0.0001    4.6168 H   0  0  0  0  0  0  0  0  0  0  0  0
    1.4762   -1.5289    4.6377 H   0  0  0  0  0  0  0  0  0  0  0  0
    0.3145   -2.9840    0.9076 C   0  0  1  0  0  3  0  0  0  0  0  0
   -0.9435   -3.0884    0.2028 C   0  0  0  0  0  0  0  0  0  0  0  0
   -1.9412   -3.0086    0.6547 H   0  0  0  0  0  0  0  0  0  0  0  0
   -0.6839   -3.3181   -1.1823 C   0  0  0  0  0  0  0  0  0  0  0  0
   -1.4358   -3.4047   -1.9744 H   0  0  0  0  0  0  0  0  0  0  0  0
    0.7470   -3.3844   -1.3578 C   0  0  0  0  0  0  0  0  0  0  0  0
    1.2761   -3.5239   -2.3070 H   0  0  0  0  0  0  0  0  0  0  0  0
    1.3481   -3.1976   -0.0806 C   0  0  0  0  0  0  0  0  0  0  0  0
    2.4259   -3.2035    0.1232 H   0  0  0  0  0  0  0  0  0  0  0  0
   -2.9919   -0.5382    0.2168 C   0  0  0  0  0  0  0  0  0  0  0  0
   -3.3786   -0.9943   -1.0542 C   0  0  0  0  0  0  0  0  0  0  0  0
   -2.5996   -1.1683   -1.8162 H   0  0  0  0  0  0  0  0  0  0  0  0
   -4.7409   -1.2001   -1.3580 C   0  0  0  0  0  0  0  0  0  0  0  0
   -5.6959   -0.9480   -0.3576 C   0  0  0  0  0  0  0  0  0  0  0  0
   -6.7631   -1.1103   -0.5840 H   0  0  0  0  0  0  0  0  0  0  0  0
   -5.3318   -0.4866    0.9256 C   0  0  0  0  0  0  0  0  0  0  0  0
   -3.9683   -0.2781    1.1986 C   0  0  0  0  0  0  0  0  0  0  0  0
   -3.6748    0.1077    2.1879 H   0  0  0  0  0  0  0  0  0  0  0  0
   -5.1437   -1.6933   -2.7255 C   0  0  0  0  0  0  0  0  0  0  0  0
   -4.6909   -1.0717   -3.5247 H   0  0  0  0  0  0  0  0  0  0  0  0
   -6.2428   -1.6845   -2.8597 H   0  0  0  0  0  0  0  0  0  0  0  0
   -4.7906   -2.7325   -2.8949 H   0  0  0  0  0  0  0  0  0  0  0  0
   -6.3880   -0.2228    1.9703 C   0  0  0  0  0  0  0  0  0  0  0  0
   -5.9497    0.1894    2.8998 H   0  0  0  0  0  0  0  0  0  0  0  0
   -6.9335   -1.1526    2.2364 H   0  0  0  0  0  0  0  0  0  0  0  0
   -7.1469    0.4990    1.6032 H   0  0  0  0  0  0  0  0  0  0  0  0
   -1.1514    1.5916    0.3024 C   0  0  0  0  0  0  0  0  0  0  0  0
   -1.5728    2.0973   -0.9424 C   0  0  0  0  0  0  0  0  0  0  0  0
   -1.9116    1.4012   -1.7240 H   0  0  0  0  0  0  0  0  0  0  0  0
   -1.5186    3.4755   -1.2167 C   0  0  0  0  0  0  0  0  0  0  0  0
   -1.0291    4.3414   -0.2216 C   0  0  0  0  0  0  0  0  0  0  0  0
   -0.9752    5.4228   -0.4299 H   0  0  0  0  0  0  0  0  0  0  0  0
   -0.5884    3.8630    1.0267 C   0  0  0  0  0  0  0  0  0  0  0  0
   -0.6609    2.4797    1.2765 C   0  0  0  0  0  0  0  0  0  0  0  0
   -0.3097    2.1088    2.2512 H   0  0  0  0  0  0  0  0  0  0  0  0
   -0.0003    4.7980    2.0522 C   0  0  0  0  0  0  0  0  0  0  0  0
   -0.1828    4.4428    3.0860 H   0  0  0  0  0  0  0  0  0  0  0  0
   -0.4123    5.8223    1.9597 H   0  0  0  0  0  0  0  0  0  0  0  0
    1.1008    4.8689    1.9177 H   0  0  0  0  0  0  0  0  0  0  0  0
   -1.9441    3.9911   -2.5684 C   0  0  0  0  0  0  0  0  0  0  0  0
   -1.3015    3.5672   -3.3689 H   0  0  0  0  0  0  0  0  0  0  0  0
   -1.8818    5.0951   -2.6273 H   0  0  0  0  0  0  0  0  0  0  0  0
   -2.9856    3.6917   -2.8066 H   0  0  0  0  0  0  0  0  0  0  0  0
    3.5023   -0.9188   -0.1309 C   0  0  0  0  0  0  0  0  0  0  0  0
    3.7276   -1.1847   -1.5001 C   0  0  0  0  0  0  0  0  0  0  0  0
    2.8962   -1.0542   -2.2137 H   0  0  0  0  0  0  0  0  0  0  0  0
    4.9859   -1.6189   -1.9366 C   0  0  0  0  0  0  0  0  0  0  0  0
    5.1518   -1.8204   -3.0060 H   0  0  0  0  0  0  0  0  0  0  0  0
    6.0302   -1.8049   -1.0137 C   0  0  0  0  0  0  0  0  0  0  0  0
    7.0159   -2.1548   -1.3564 H   0  0  0  0  0  0  0  0  0  0  0  0
    5.8106   -1.5436    0.3465 C   0  0  0  0  0  0  0  0  0  0  0  0
    6.6239   -1.6860    1.0749 H   0  0  0  0  0  0  0  0  0  0  0  0
    4.5529   -1.0956    0.7868 C   0  0  0  0  0  0  0  0  0  0  0  0
    4.4063   -0.8846    1.8572 H   0  0  0  0  0  0  0  0  0  0  0  0
    2.1331    1.4779   -0.0682 C   0  0  0  0  0  0  0  0  0  0  0  0
    3.2260    3.5811    0.5153 C   0  0  0  0  0  0  0  0  0  0  0  0
    3.8394    4.1716    1.2137 H   0  0  0  0  0  0  0  0  0  0  0  0
    1.6922    2.0488   -1.2766 C   0  0  0  0  0  0  0  0  0  0  0  0
    1.0949    1.4366   -1.9724 H   0  0  0  0  0  0  0  0  0  0  0  0
    2.0048    3.3850   -1.5728 C   0  0  0  0  0  0  0  0  0  0  0  0
    1.6415    3.8278   -2.5129 H   0  0  0  0  0  0  0  0  0  0  0  0
    2.7662    4.1552   -0.6817 C   0  0  0  0  0  0  0  0  0  0  0  0
    3.0072    5.2027   -0.9194 H   0  0  0  0  0  0  0  0  0  0  0  0
    2.9127    2.2487    0.8199 C   0  0  0  0  0  0  0  0  0  0  0  0
    3.2988    1.8095    1.7528 H   0  0  0  0  0  0  0  0  0  0  0  0
  1  3  1  0  0  0  0
  2  6  1  0  0  0  0
  3  5  1  0  0  0  0
  3 12  1  0  0  0  0
  3  4  1  0  0  0  0
  6  8  1  0  0  0  0
  6  7  1  0  0  0  0
  9 10  1  0  0  0  0
  9 12  1  0  0  0  0
  9 11  1  0  0  0  0
 12  6  1  6  0  0  0
 12 13  1  0  0  0  0
 13 15  1  0  0  0  0
 13 16  1  0  0  0  0
 13 14  1  0  0  0  0
 17  9  1  6  0  0  0
 18 19  1  0  0  0  0
 18 17  1  0  0  0  0
 20 18  2  0  0  0  0
 21 20  1  0  0  0  0
 22 20  1  0  0  0  0
 22 24  2  0  0  0  0
 23 22  1  0  0  0  0
 24 25  1  0  0  0  0
 24 17  1  0  0  0  0
 26  1  1  0  0  0  0
 26 33  1  0  0  0  0
 27 26  2  0  0  0  0
 28 27  1  0  0  0  0
 29 27  1  0  0  0  0
 29 30  2  0  0  0  0
 30 32  1  0  0  0  0
 31 30  1  0  0  0  0
 32 33  2  0  0  0  0
 32 39  1  0  0  0  0
 33 34  1  0  0  0  0
 35 29  1  0  0  0  0
 36 35  1  0  0  0  0
 37 35  1  0  0  0  0
 38 35  1  0  0  0  0
 39 41  1  0  0  0  0
 39 40  1  0  0  0  0
 42 39  1  0  0  0  0
 43  1  1  0  0  0  0
 43 50  1  0  0  0  0
 44 43  2  0  0  0  0
 45 44  1  0  0  0  0
 46 44  1  0  0  0  0
 46 47  2  0  0  0  0
 47 49  1  0  0  0  0
 48 47  1  0  0  0  0
 49 50  2  0  0  0  0
 49 52  1  0  0  0  0
 50 51  1  0  0  0  0
 52 53  1  0  0  0  0
 54 52  1  0  0  0  0
 55 52  1  0  0  0  0
 56 46  1  0  0  0  0
 57 56  1  0  0  0  0
 58 56  1  0  0  0  0
 59 56  1  0  0  0  0
 60  2  1  0  0  0  0
 60 69  1  0  0  0  0
 61 60  2  0  0  0  0
 62 61  1  0  0  0  0
 63 61  1  0  0  0  0
 63 65  2  0  0  0  0
 64 63  1  0  0  0  0
 65 67  1  0  0  0  0
 66 65  1  0  0  0  0
 67 69  2  0  0  0  0
 67 68  1  0  0  0  0
 69 70  1  0  0  0  0
 71  2  1  0  0  0  0
 71 80  1  0  0  0  0
 72 80  2  0  0  0  0
 72 73  1  0  0  0  0
 74 71  2  0  0  0  0
 75 74  1  0  0  0  0
 76 74  1  0  0  0  0
 76 78  2  0  0  0  0
 77 76  1  0  0  0  0
 78 72  1  0  0  0  0
 79 78  1  0  0  0  0
 80 81  1  0  0  0  0
M  END
