17
q = -1.0, confidence = 0.036

 36 38  0  0  0  0  0  0  0  0999 V2000
    0.1154   -1.8938    1.3118 F   0  0  0  0  0  0  0  0  0  0  0  0
    0.1170   -4.5861    1.3525 F   0  0  0  0  0  0  0  0  0  0  0  0
   -1.8025   -5.9847   -0.0401 F   0  0  0  0  0  0  0  0  0  0  0  0
   -3.7009   -4.6207   -1.4761 F   0  0  0  0  0  0  0  0  0  0  0  0
   -3.6945   -1.9537   -1.5641 F   0  0  0  0  0  0  0  0  0  0  0  0
   -1.4971    1.3313   -2.8350 F   0  0  0  0  0  0  0  0  0  0  0  0
   -3.5370    2.6612   -3.9623 F   0  0  0  0  0  0  0  0  0  0  0  0
   -6.0054    2.7037   -2.7690 F   0  0  0  0  0  0  0  0  0  0  0  0
   -6.3996    1.3725   -0.3997 F   0  0  0  0  0  0  0  0  0  0  0  0
   -4.3523    0.0257    0.7528 F   0  0  0  0  0  0  0  0  0  0  0  0
   -2.3619   -1.2296    2.6387 F   0  0  0  0  0  0  0  0  0  0  0  0
   -2.0544    0.0913    4.9447 F   0  0  0  0  0  0  0  0  0  0  0  0
   -1.1149    2.6772    4.9596 F   0  0  0  0  0  0  0  0  0  0  0  0
   -0.5277    3.9197    2.5908 F   0  0  0  0  0  0  0  0  0  0  0  0
   -0.7160    2.5774    0.2668 F   0  0  0  0  0  0  0  0  0  0  0  0
   -0.2652    0.0688   -0.8034 N   0  0  0  0  0  0  0  0  0  0  0  0
    0.8630    0.1660   -1.1108 C   0  0  0  0  0  0  0  0  0  0  0  0
   -1.8002   -1.7791   -0.1047 C   0  0  0  0  0  0  0  0  0  0  0  0
   -0.8518   -2.5314    0.6061 C   0  0  0  0  0  0  0  0  0  0  0  0
   -0.8274   -3.9300    0.6514 C   0  0  0  0  0  0  0  0  0  0  0  0
   -1.8015   -4.6483   -0.0602 C   0  0  0  0  0  0  0  0  0  0  0  0
   -2.7723   -3.9465   -0.7893 C   0  0  0  0  0  0  0  0  0  0  0  0
   -2.7489   -2.5370   -0.8100 C   0  0  0  0  0  0  0  0  0  0  0  0
   -2.8303    0.6356   -0.9705 C   0  0  0  0  0  0  0  0  0  0  0  0
   -2.6774    1.3186   -2.1859 C   0  0  0  0  0  0  0  0  0  0  0  0
   -3.7303    2.0198   -2.8025 C   0  0  0  0  0  0  0  0  0  0  0  0
   -4.9939    2.0443   -2.1942 C   0  0  0  0  0  0  0  0  0  0  0  0
   -5.1933    1.3645   -0.9809 C   0  0  0  0  0  0  0  0  0  0  0  0
   -4.1131    0.6849   -0.4005 C   0  0  0  0  0  0  0  0  0  0  0  0
   -1.5255    0.5925    1.3302 C   0  0  0  0  0  0  0  0  0  0  0  0
   -1.8749    0.0199    2.5642 C   0  0  0  0  0  0  0  0  0  0  0  0
   -1.7391    0.6955    3.7918 C   0  0  0  0  0  0  0  0  0  0  0  0
   -1.2733    2.0186    3.8034 C   0  0  0  0  0  0  0  0  0  0  0  0
   -0.9612    2.6463    2.5893 C   0  0  0  0  0  0  0  0  0  0  0  0
   -1.0748    1.9227    1.3924 C   0  0  0  0  0  0  0  0  0  0  0  0
   -1.6499   -0.1390   -0.1514 B   0  0  0  0  0  0  0  0  0  0  0  0
  4 22  1  0  0  0  0
  5 23  1  0  0  0  0
  6 25  1  0  0  0  0
  7 26  1  0  0  0  0
  8 27  1  0  0  0  0
 15 35  1  0  0  0  0
 16 36  1  0  0  0  0
 17 16  1  0  0  0  0
 18 19  1  0  0  0  0
 19 20  2  0  0  0  0
 19  1  1  0  0  0  0
 20  2  1  0  0  0  0
 21  3  1  0  0  0  0
 21 20  1  0  0  0  0
 22 21  2  0  0  0  0
 23 22  1  0  0  0  0
 23 18  2  0  0  0  0
 24 29  1  0  0  0  0
 24 36  1  0  0  0  0
 25 24  2  0  0  0  0
 26 27  2  0  0  0  0
 26 25  1  0  0  0  0
 27 28  1  0  0  0  0
 28 29  2  0  0  0  0
 28  9  1  0  0  0  0
 29 10  1  0  0  0  0
 30 35  2  0  0  0  0
 30 31  1  0  0  0  0
 31 11  1  0  0  0  0
 31 32  2  0  0  0  0
 32 33  1  0  0  0  0
 32 12  1  0  0  0  0
 33 13  1  0  0  0  0
 34 14  1  0  0  0  0
 34 33  2  0  0  0  0
 35 34  1  0  0  0  0
 36 18  1  0  0  0  0
 36 30  1  0  0  0  0
M  END
