37
q = -1.0, confidence = 0.054

 55 59  0  0  1  0  0  0  0  0999 V2000
    0.0920    1.2698   -0.1945 C   0  0  0  0  0  0  0  0  0  0  0  0
    1.1136    0.5020   -1.0858 B   0  0  0  0  0  2  0  0  0  0  0  0
    0.6514   -0.3272   -1.8286 H   0  0  0  0  0  0  0  0  0  0  0  0
    0.4526    2.3460    0.8641 B   0  0  0  0  0  0  0  0  0  0  0  0
   -0.4618    2.8233    1.5006 H   0  0  0  0  0  0  0  0  0  0  0  0
    1.0090    2.4541   -1.0830 B   0  0  0  0  0  2  0  0  0  0  0  0
    0.3099    3.0186   -1.8895 H   0  0  0  0  0  0  0  0  0  0  0  0
    2.7625    0.2754   -0.5207 C   0  0  2  0  0  0  0  0  0  0  0  0
    2.0802    2.1881    1.6370 B   0  0  0  0  0  2  0  0  0  0  0  0
    2.0436    2.4184    2.8280 H   0  0  0  0  0  0  0  0  0  0  0  0
    1.7857    3.4116    0.3795 B   0  0  2  0  0  0  0  0  0  0  0  0
    1.5113    4.5663    0.6196 H   0  0  0  0  0  0  0  0  0  0  0  0
    2.4608    1.4182   -1.7508 B   0  0  1  0  0  0  0  0  0  0  0  0
    2.6711    1.1224   -2.9016 H   0  0  0  0  0  0  0  0  0  0  0  0
    3.2373    1.0053    0.9437 B   0  0  0  0  0  2  0  0  0  0  0  0
    4.0062    0.4222    1.6708 H   0  0  0  0  0  0  0  0  0  0  0  0
    2.7409    2.9945   -1.0216 B   0  0  0  0  0  0  0  0  0  0  0  0
    3.0646    3.8791   -1.7786 H   0  0  0  0  0  0  0  0  0  0  0  0
    3.8037    1.6037   -0.6488 B   0  0  1  0  0  0  0  0  0  0  0  0
    4.9238    1.3891   -1.0419 H   0  0  0  0  0  0  0  0  0  0  0  0
    3.4026    2.7582    0.6302 B   0  0  2  0  0  0  0  0  0  0  0  0
    4.2907    3.4228    1.1129 H   0  0  0  0  0  0  0  0  0  0  0  0
   -1.3160    0.7834   -0.2555 C   0  0  0  0  0  0  0  0  0  0  0  0
   -1.5940   -0.2999    0.6120 C   0  0  0  0  0  0  0  0  0  0  0  0
   -2.8708   -0.8703    0.6591 C   0  0  0  0  0  0  0  0  0  0  0  0
   -3.0639   -1.8944    1.5017 F   0  0  0  0  0  0  0  0  0  0  0  0
   -3.9195   -0.3819   -0.1467 C   0  0  0  0  0  0  0  0  0  0  0  0
   -4.5789    1.2060   -1.7823 F   0  0  0  0  0  0  0  0  0  0  0  0
   -3.6250    0.7030   -0.9974 C   0  0  0  0  0  0  0  0  0  0  0  0
   -2.1503    2.3126   -1.8915 F   0  0  0  0  0  0  0  0  0  0  0  0
   -2.3468    1.2870   -1.0568 C   0  0  0  0  0  0  0  0  0  0  0  0
   -5.3305   -0.9391   -0.1560 C   0  0  0  0  0  0  0  0  0  0  0  0
   -5.6626   -1.3788   -1.3921 F   0  0  0  0  0  0  0  0  0  0  0  0
   -6.2248    0.0165    0.1872 F   0  0  0  0  0  0  0  0  0  0  0  0
   -5.4870   -1.9680    0.6971 F   0  0  0  0  0  0  0  0  0  0  0  0
   -0.4505   -0.7555    1.4503 C   0  0  0  0  0  0  0  0  0  0  0  0
    0.0283   -0.0653    2.6353 C   0  0  0  0  0  3  0  0  0  0  0  0
   -0.5020    0.7390    3.1571 H   0  0  0  0  0  0  0  0  0  0  0  0
    1.3372   -0.5656    2.9395 C   0  0  0  0  0  0  0  0  0  0  0  0
    1.9904   -0.2112    3.7448 H   0  0  0  0  0  0  0  0  0  0  0  0
    1.6662   -1.5618    1.9593 C   0  0  0  0  0  0  0  0  0  0  0  0
    2.6215   -2.0929    1.8735 H   0  0  0  0  0  0  0  0  0  0  0  0
    0.5601   -1.6974    1.0553 C   0  0  0  0  0  0  0  0  0  0  0  0
    0.5293   -2.3315    0.1616 H   0  0  0  0  0  0  0  0  0  0  0  0
    3.3484   -1.0646   -0.9173 C   0  0  0  0  0  0  0  0  0  0  0  0
    2.9373   -1.7323   -2.0919 C   0  0  0  0  0  0  0  0  0  0  0  0
    2.1750   -1.2786   -2.7373 H   0  0  0  0  0  0  0  0  0  0  0  0
    3.4999   -2.9629   -2.4592 C   0  0  0  0  0  0  0  0  0  0  0  0
    3.1610   -3.4560   -3.3829 H   0  0  0  0  0  0  0  0  0  0  0  0
    4.4917   -3.5577   -1.6656 C   0  0  0  0  0  0  0  0  0  0  0  0
    4.9324   -4.5236   -1.9544 H   0  0  0  0  0  0  0  0  0  0  0  0
    4.9265   -2.8953   -0.5075 C   0  0  0  0  0  0  0  0  0  0  0  0
    5.7211   -3.3337    0.1154 H   0  0  0  0  0  0  0  0  0  0  0  0
    4.3644   -1.6649   -0.1407 C   0  0  0  0  0  0  0  0  0  0  0  0
    4.7310   -1.1449    0.7540 H   0  0  0  0  0  0  0  0  0  0  0  0
  1  4  1  0  0  0  0
  2  1  1  0  0  0  0
  3  2  1  0  0  0  0
  4  5  1  0  0  0  0
  6  1  1  0  0  0  0
  7  6  1  0  0  0  0
  8 15  1  1  0  0  0
  9 10  1  0  0  0  0
 11 12  1  1  0  0  0
 11 21  1  0  0  0  0
 11  4  1  0  0  0  0
 13 14  1  6  0  0  0
 13 17  1  0  0  0  0
 13 19  1  0  0  0  0
 13  8  1  0  0  0  0
 15 16  1  0  0  0  0
 17 11  1  0  0  0  0
 18 17  1  0  0  0  0
 19 20  1  6  0  0  0
 19  8  1  0  0  0  0
 19 21  1  0  0  0  0
 21 22  1  1  0  0  0
 21  9  1  0  0  0  0
 23  1  1  0  0  0  0
 23 24  1  0  0  0  0
 24 25  2  0  0  0  0
 24 36  1  0  0  0  0
 25 26  1  0  0  0  0
 27 25  1  0  0  0  0
 28 29  1  0  0  0  0
 29 27  2  0  0  0  0
 30 31  1  0  0  0  0
 31 29  1  0  0  0  0
 31 23  2  0  0  0  0
 32 27  1  0  0  0  0
 32 34  1  0  0  0  0
 32 35  1  0  0  0  0
 33 32  1  0  0  0  0
 36 37  1  0  0  0  0
 37 39  1  0  0  0  0
 37 38  1  0  0  0  0
 39 40  1  0  0  0  0
 41 39  2  0  0  0  0
 42 41  1  0  0  0  0
 43 36  2  0  0  0  0
 43 41  1  0  0  0  0
 44 43  1  0  0  0  0
 45  8  1  0  0  0  0
 45 54  1  0  0  0  0
 46 45  2  0  0  0  0
 47 46  1  0  0  0  0
 48 46  1  0  0  0  0
 48 50  2  0  0  0  0
 49 48  1  0  0  0  0
 50 52  1  0  0  0  0
 51 50  1  0  0  0  0
 52 54  2  0  0  0  0
 52 53  1  0  0  0  0
 54 55  1  0  0  0  0
M  END
