5
q = -1.0, confidence = 0.0

 22 23  0  0  0  0  0  0  0  0999 V2000
   -1.3321   -0.6619    1.1455 N   0  0  0  0  0  0  0  0  0  0  0  0
   -1.7835   -1.1739    2.3228 N   0  0  0  0  0  0  0  0  0  0  0  0
   -0.7488   -1.2399    3.1045 N   0  0  0  0  0  0  0  0  0  0  0  0
    0.3710   -0.7856    2.4648 N   0  0  0  0  0  0  0  0  0  0  0  0
    0.0145   -0.4157    1.2214 C   0  0  0  0  0  3  0  0  0  0  0  0
   -2.2284   -0.4918    0.0077 C   0  0  0  0  0  0  0  0  0  0  0  0
   -3.4147    0.4233    0.3485 C   0  0  0  0  0  0  0  0  0  0  0  0
   -4.3437    0.6012   -0.8585 C   0  0  0  0  0  0  0  0  0  0  0  0
   -4.8266   -0.7502   -1.4008 C   0  0  0  0  0  0  0  0  0  0  0  0
   -3.6434   -1.6669   -1.7364 C   0  0  0  0  0  0  0  0  0  0  0  0
   -2.7127   -1.8476   -0.5314 C   0  0  0  0  0  0  0  0  0  0  0  0
   -1.5970   -0.0051   -0.7700 H   0  0  0  0  0  0  0  0  0  0  0  0
   -3.0391    1.4059    0.7034 H   0  0  0  0  0  0  0  0  0  0  0  0
   -3.9657   -0.0290    1.2002 H   0  0  0  0  0  0  0  0  0  0  0  0
   -5.2061    1.2427   -0.5821 H   0  0  0  0  0  0  0  0  0  0  0  0
   -3.7987    1.1435   -1.6654 H   0  0  0  0  0  0  0  0  0  0  0  0
   -5.4695   -0.6024   -2.2935 H   0  0  0  0  0  0  0  0  0  0  0  0
   -5.4626   -1.2429   -0.6318 H   0  0  0  0  0  0  0  0  0  0  0  0
   -3.0672   -1.2254   -2.5812 H   0  0  0  0  0  0  0  0  0  0  0  0
   -4.0033   -2.6555   -2.0896 H   0  0  0  0  0  0  0  0  0  0  0  0
   -3.2409   -2.3748    0.2919 H   0  0  0  0  0  0  0  0  0  0  0  0
   -1.8337   -2.4687   -0.7981 H   0  0  0  0  0  0  0  0  0  0  0  0
  1  5  1  0  0  0  0
  1  2  1  0  0  0  0
  2  3  2  0  0  0  0
  4  3  1  0  0  0  0
  5  4  2  0  0  0  0
  6  7  1  0  0  0  0
  6  1  1  0  0  0  0
  7 13  1  0  0  0  0
  7 14  1  0  0  0  0
  8 15  1  0  0  0  0
  8  7  1  0  0  0  0
  9  8  1  0  0  0  0
  9 18  1  0  0  0  0
 10  9  1  0  0  0  0
 10 11  1  0  0  0  0
 11  6  1  0  0  0  0
 11 21  1  0  0  0  0
 12  6  1  0  0  0  0
 16  8  1  0  0  0  0
 17  9  1  0  0  0  0
 19 10  1  0  0  0  0
 20 10  1  0  0  0  0
 22 11  1  0  0  0  0
M  END
