13
q = -2.0, confidence = 0.906

 40 41  0  0  1  0  0  0  0  0999 V2000
    2.4395    0.0534    0.3780 Si  0  0  1  0  0  0  0  0  0  0  0  0
    1.1384   -1.3014    0.5949 C   0  0  0  0  0  0  0  0  0  0  0  0
    0.1903   -1.4811    1.6642 C   0  0  1  0  0  3  0  0  0  0  0  0
   -0.8866   -2.2814    1.1591 C   0  0  0  0  0  0  0  0  0  0  0  0
   -0.6414   -2.6107   -0.2003 C   0  0  0  0  0  0  0  0  0  0  0  0
    0.5851   -1.9655   -0.5575 C   0  0  0  0  0  0  0  0  0  0  0  0
    0.2980   -1.0128    3.0881 C   0  0  0  0  0  0  0  0  0  0  0  0
   -1.4659   -3.5094   -1.0678 C   0  0  0  0  0  0  0  0  0  0  0  0
    1.1888    1.3615   -0.1739 C   0  0  1  0  0  3  0  0  0  0  0  0
    0.5569    1.5171   -1.4580 C   0  0  1  0  0  3  0  0  0  0  0  0
   -0.6490    2.2670   -1.2595 C   0  0  0  0  0  0  0  0  0  0  0  0
   -0.7895    2.5920    0.1160 C   0  0  0  0  0  0  0  0  0  0  0  0
    0.3212    1.9905    0.7891 C   0  0  0  0  0  3  0  0  0  0  0  0
    1.0655    1.0705   -2.7992 C   0  0  0  0  0  0  0  0  0  0  0  0
   -1.8504    3.4506    0.7304 C   0  0  0  0  0  0  0  0  0  0  0  0
    3.3467    0.6009    1.9344 C   0  0  0  0  0  0  0  0  0  0  0  0
    3.6743   -0.4717   -0.9379 C   0  0  0  0  0  0  0  0  0  0  0  0
    4.9887   -0.1727   -0.9043 C   0  0  0  0  0  0  0  0  0  0  0  0
   -1.7682   -2.5873    1.7362 H   0  0  0  0  0  0  0  0  0  0  0  0
    1.0364   -2.0017   -1.5584 H   0  0  0  0  0  0  0  0  0  0  0  0
    0.9256   -0.1085    3.1895 H   0  0  0  0  0  0  0  0  0  0  0  0
   -0.7021   -0.7828    3.5033 H   0  0  0  0  0  0  0  0  0  0  0  0
    0.7589   -1.8013    3.7205 H   0  0  0  0  0  0  0  0  0  0  0  0
   -1.0320   -4.5317   -1.0790 H   0  0  0  0  0  0  0  0  0  0  0  0
   -1.5048   -3.1382   -2.1101 H   0  0  0  0  0  0  0  0  0  0  0  0
   -2.5055   -3.5846   -0.6958 H   0  0  0  0  0  0  0  0  0  0  0  0
   -1.3558    2.5450   -2.0515 H   0  0  0  0  0  0  0  0  0  0  0  0
    0.4888    2.0351    1.8740 H   0  0  0  0  0  0  0  0  0  0  0  0
    0.2311    0.7500   -3.4527 H   0  0  0  0  0  0  0  0  0  0  0  0
    1.5960    1.9049   -3.3054 H   0  0  0  0  0  0  0  0  0  0  0  0
    1.7852    0.2355   -2.7191 H   0  0  0  0  0  0  0  0  0  0  0  0
   -1.4777    4.4901    0.8491 H   0  0  0  0  0  0  0  0  0  0  0  0
   -2.7575    3.4843    0.0972 H   0  0  0  0  0  0  0  0  0  0  0  0
   -2.1471    3.0729    1.7277 H   0  0  0  0  0  0  0  0  0  0  0  0
    4.1062    1.3666    1.6753 H   0  0  0  0  0  0  0  0  0  0  0  0
    2.6644    1.0535    2.6789 H   0  0  0  0  0  0  0  0  0  0  0  0
    3.8646   -0.2546    2.4123 H   0  0  0  0  0  0  0  0  0  0  0  0
    3.3168   -1.0903   -1.7820 H   0  0  0  0  0  0  0  0  0  0  0  0
    5.4332    0.4293   -0.0928 H   0  0  0  0  0  0  0  0  0  0  0  0
    5.6891   -0.5147   -1.6859 H   0  0  0  0  0  0  0  0  0  0  0  0
  1 17  1  6  0  0  0
  1  2  1  0  0  0  0
  1 16  1  0  0  0  0
  2  3  1  0  0  0  0
  3  7  1  1  0  0  0
  4  3  1  0  0  0  0
  4 19  1  0  0  0  0
  5  4  2  0  0  0  0
  6  5  1  0  0  0  0
  6  2  2  0  0  0  0
  7 21  1  0  0  0  0
  7 22  1  0  0  0  0
  7 23  1  0  0  0  0
  8 26  1  0  0  0  0
  8  5  1  0  0  0  0
  9  1  1  1  0  0  0
  9 13  1  0  0  0  0
 10 14  1  6  0  0  0
 10 11  1  0  0  0  0
 10  9  1  0  0  0  0
 11 12  2  0  0  0  0
 12 15  1  0  0  0  0
 12 13  1  0  0  0  0
 13 28  1  0  0  0  0
 14 31  1  0  0  0  0
 15 32  1  0  0  0  0
 15 34  1  0  0  0  0
 16 37  1  0  0  0  0
 16 36  1  0  0  0  0
 17 18  2  0  0  0  0
 18 39  1  0  0  0  0
 20  6  1  0  0  0  0
 24  8  1  0  0  0  0
 25  8  1  0  0  0  0
 27 11  1  0  0  0  0
 29 14  1  0  0  0  0
 30 14  1  0  0  0  0
 33 15  1  0  0  0  0
 35 16  1  0  0  0  0
 38 17  1  0  0  0  0
 40 18  1  0  0  0  0
M  END
