1
q = -2.0, confidence = 0.504

 47 49  0  0  1  0  0  0  0  0999 V2000
   -3.1690    2.0325   -1.7185 C   0  0  0  0  0  3  0  0  0  0  0  0
   -1.9279    1.4812   -2.2238 C   0  0  1  0  0  3  0  0  0  0  0  0
   -1.0141    0.9851   -1.2962 C   0  0  0  0  0  3  0  0  0  0  0  0
    0.2783    0.2750   -1.5753 C   0  0  0  0  0  0  0  0  0  0  0  0
   -1.6787    1.3200   -3.7004 C   0  0  0  0  0  0  0  0  0  0  0  0
    1.2731    0.1212   -0.2541 B   0  0  0  0  0  0  0  0  0  0  0  0
    2.6999   -0.5694   -0.7141 C   0  0  0  0  0  0  0  0  0  0  0  0
    3.9850   -0.0871   -0.4089 C   0  0  0  0  0  0  0  0  0  0  0  0
    4.1533    1.0331    0.3178 F   0  0  0  0  0  0  0  0  0  0  0  0
    5.1694   -0.7263   -0.8173 C   0  0  0  0  0  0  0  0  0  0  0  0
    6.3668   -0.2108   -0.5085 F   0  0  0  0  0  0  0  0  0  0  0  0
    5.0955   -1.9266   -1.5394 C   0  0  0  0  0  0  0  0  0  0  0  0
    6.2120   -2.5516   -1.9310 F   0  0  0  0  0  0  0  0  0  0  0  0
    3.8369   -2.4673   -1.8431 C   0  0  0  0  0  0  0  0  0  0  0  0
    3.7477   -3.6241   -2.5162 F   0  0  0  0  0  0  0  0  0  0  0  0
    2.6845   -1.7888   -1.4154 C   0  0  0  0  0  0  0  0  0  0  0  0
    1.5059   -2.4007   -1.7029 F   0  0  0  0  0  0  0  0  0  0  0  0
    0.7047   -0.9319    0.8955 C   0  0  0  0  0  0  0  0  0  0  0  0
    1.4751   -1.2009    2.0462 C   0  0  0  0  0  0  0  0  0  0  0  0
    2.5980   -0.5029    2.2690 F   0  0  0  0  0  0  0  0  0  0  0  0
    1.1369   -2.1671    3.0079 C   0  0  0  0  0  0  0  0  0  0  0  0
    1.9096   -2.3711    4.0779 F   0  0  0  0  0  0  0  0  0  0  0  0
   -0.0358   -2.9296    2.8480 C   0  0  0  0  0  0  0  0  0  0  0  0
   -0.3765   -3.8513    3.7522 F   0  0  0  0  0  0  0  0  0  0  0  0
   -0.8388   -2.7016    1.7236 C   0  0  0  0  0  0  0  0  0  0  0  0
   -1.9888   -3.3833    1.5478 F   0  0  0  0  0  0  0  0  0  0  0  0
   -0.4411   -1.7122    0.8145 C   0  0  0  0  0  0  0  0  0  0  0  0
   -1.3507   -1.5296   -0.2373 F   0  0  0  0  0  0  0  0  0  0  0  0
    1.3886    1.6675    0.3087 C   0  0  0  0  0  0  0  0  0  0  0  0
    0.7151    2.1734    1.4295 C   0  0  0  0  0  0  0  0  0  0  0  0
    0.0385    1.3503    2.2780 F   0  0  0  0  0  0  0  0  0  0  0  0
    0.6275    3.5399    1.7502 C   0  0  0  0  0  0  0  0  0  0  0  0
   -0.0902    3.9452    2.8112 F   0  0  0  0  0  0  0  0  0  0  0  0
    1.2663    4.4793    0.9308 C   0  0  0  0  0  0  0  0  0  0  0  0
    1.2022    5.7853    1.2141 F   0  0  0  0  0  0  0  0  0  0  0  0
    1.9644    4.0299   -0.2027 C   0  0  0  0  0  0  0  0  0  0  0  0
    2.5710    4.9155   -1.0032 F   0  0  0  0  0  0  0  0  0  0  0  0
    1.9929    2.6570   -0.4912 C   0  0  0  0  0  0  0  0  0  0  0  0
    2.6329    2.3056   -1.6267 F   0  0  0  0  0  0  0  0  0  0  0  0
   -3.0669    2.7403   -0.8806 H   0  0  0  0  0  0  0  0  0  0  0  0
   -3.9174    2.3637   -2.4561 H   0  0  0  0  0  0  0  0  0  0  0  0
   -1.1446    1.3674   -0.2601 H   0  0  0  0  0  0  0  0  0  0  0  0
    0.8464    0.8627   -2.3294 H   0  0  0  0  0  0  0  0  0  0  0  0
    0.0895   -0.7055   -2.0597 H   0  0  0  0  0  0  0  0  0  0  0  0
   -1.0786    2.1931   -4.0365 H   0  0  0  0  0  0  0  0  0  0  0  0
   -2.6108    1.3234   -4.2961 H   0  0  0  0  0  0  0  0  0  0  0  0
   -1.0840    0.4189   -3.9409 H   0  0  0  0  0  0  0  0  0  0  0  0
  1 40  1  0  0  0  0
  2  1  1  1  0  0  0
  2  3  1  0  0  0  0
  3 42  1  0  0  0  0
  4  3  1  0  0  0  0
  4  6  1  0  0  0  0
  5  2  1  0  0  0  0
  6 29  1  0  0  0  0
  6 18  1  0  0  0  0
  7  8  1  0  0  0  0
  7  6  1  0  0  0  0
  8  9  1  0  0  0  0
 10 11  1  0  0  0  0
 10  8  2  0  0  0  0
 12 10  1  0  0  0  0
 13 12  1  0  0  0  0
 14 12  2  0  0  0  0
 14 16  1  0  0  0  0
 15 14  1  0  0  0  0
 16  7  2  0  0  0  0
 17 16  1  0  0  0  0
 18 19  1  0  0  0  0
 19 20  1  0  0  0  0
 19 21  2  0  0  0  0
 21 22  1  0  0  0  0
 23 21  1  0  0  0  0
 23 24  1  0  0  0  0
 25 23  2  0  0  0  0
 26 25  1  0  0  0  0
 27 18  2  0  0  0  0
 27 25  1  0  0  0  0
 28 27  1  0  0  0  0
 29 30  1  0  0  0  0
 30 32  2  0  0  0  0
 30 31  1  0  0  0  0
 32 33  1  0  0  0  0
 34 35  1  0  0  0  0
 34 32  1  0  0  0  0
 36 34  2  0  0  0  0
 37 36  1  0  0  0  0
 38 36  1  0  0  0  0
 38 29  2  0  0  0  0
 39 38  1  0  0  0  0
 41  1  1  0  0  0  0
 43  4  1  0  0  0  0
 44  4  1  0  0  0  0
 45  5  1  0  0  0  0
 46  5  1  0  0  0  0
 47  5  1  0  0  0  0
M  END
