13
q = 0.0, confidence = 0.994

 18 19  0  0  1  0  0  0  0  0999 V2000
   -0.8013   -1.3725    0.7091 C   0  0  0  0  0  0  0  0  0  0  0  0
   -0.3898   -2.1384    1.3799 H   0  0  0  0  0  0  0  0  0  0  0  0
   -0.8002   -1.3833   -0.6863 C   0  0  0  0  0  0  0  0  0  0  0  0
   -0.3888   -2.1607   -1.3439 H   0  0  0  0  0  0  0  0  0  0  0  0
   -1.7969   -0.2876   -1.1277 C   0  0  1  0  0  0  0  0  0  0  0  0
   -2.1440   -0.3363   -2.1751 H   0  0  0  0  0  0  0  0  0  0  0  0
   -2.8696   -0.4172    0.0031 C   0  0  2  0  0  0  0  0  0  0  0  0
   -3.2808   -1.4502    0.0120 H   0  0  0  0  0  0  0  0  0  0  0  0
   -4.0062    0.5947   -0.0057 C   0  0  0  0  0  0  0  0  0  0  0  0
   -3.6315    1.6379   -0.0153 H   0  0  0  0  0  0  0  0  0  0  0  0
   -4.6492    0.4721    0.8896 H   0  0  0  0  0  0  0  0  0  0  0  0
   -4.6497    0.4560   -0.8984 H   0  0  0  0  0  0  0  0  0  0  0  0
   -1.0805    1.0297    0.6888 C   0  0  0  0  0  3  0  0  0  0  0  0
   -0.8582    1.8817    1.3449 H   0  0  0  0  0  0  0  0  0  0  0  0
   -1.0814    1.0187   -0.7063 C   0  0  0  0  0  3  0  0  0  0  0  0
   -0.8586    1.8596   -1.3764 H   0  0  0  0  0  0  0  0  0  0  0  0
   -1.7972   -0.2688    1.1319 C   0  0  2  0  0  0  0  0  0  0  0  0
   -2.1445   -0.2997    2.1799 H   0  0  0  0  0  0  0  0  0  0  0  0
  1 17  1  0  0  0  0
  1  2  1  0  0  0  0
  3  1  2  0  0  0  0
  4  3  1  0  0  0  0
  5  6  1  6  0  0  0
  5 15  1  0  0  0  0
  5  3  1  0  0  0  0
  5  7  1  0  0  0  0
  7  8  1  1  0  0  0
  7 17  1  0  0  0  0
  9  7  1  0  0  0  0
  9 11  1  0  0  0  0
 10  9  1  0  0  0  0
 12  9  1  0  0  0  0
 13 17  1  0  0  0  0
 13 14  1  0  0  0  0
 15 13  1  0  0  0  0
 16 15  1  0  0  0  0
 17 18  1  1  0  0  0
M  END
