3
q = 0.0, confidence = 0.982

 61 63  0  0  1  0  0  0  0  0999 V2000
    0.6940    0.5804    0.8613 N   0  0  0  0  0  0  0  0  0  0  0  0
   -0.6620    0.6153   -0.8608 N   0  0  0  0  0  0  0  0  0  0  0  0
   -0.0040   -0.1882   -0.0000 C   0  0  0  0  0  2  0  0  0  0  0  0
   -0.3051    2.0448   -0.6896 C   0  0  1  0  0  0  0  0  0  0  0  0
    0.4094    2.0261    0.6916 C   0  0  1  0  0  0  0  0  0  0  0  0
    0.5565    2.6207   -1.8679 C   0  0  0  0  0  0  0  0  0  0  0  0
   -0.4227    2.6429    1.8705 C   0  0  0  0  0  0  0  0  0  0  0  0
   -0.2253    2.5598   -3.1952 C   0  0  0  0  0  0  0  0  0  0  0  0
    0.8602    4.1019   -1.5724 C   0  0  0  0  0  0  0  0  0  0  0  0
    1.8714    1.8418   -2.0317 C   0  0  0  0  0  0  0  0  0  0  0  0
   -0.6521    4.1378    1.5773 C   0  0  0  0  0  0  0  0  0  0  0  0
    0.3548    2.5408    3.1977 C   0  0  0  0  0  0  0  0  0  0  0  0
   -1.7751    1.9306    2.0331 C   0  0  0  0  0  0  0  0  0  0  0  0
    1.8259    0.0590    1.6331 C   0  0  0  0  0  0  0  0  0  0  0  0
   -1.8182    0.1524   -1.6338 C   0  0  0  0  0  0  0  0  0  0  0  0
    3.1462    0.2349    0.9101 C   0  0  0  0  0  0  0  0  0  0  0  0
    3.9744    1.3405    1.1837 C   0  0  0  0  0  0  0  0  0  0  0  0
    5.1543    1.5486    0.4509 C   0  0  0  0  0  0  0  0  0  0  0  0
    5.5195    0.6453   -0.5590 C   0  0  0  0  0  0  0  0  0  0  0  0
    4.7074   -0.4701   -0.8264 C   0  0  0  0  0  0  0  0  0  0  0  0
    3.5277   -0.6730   -0.0976 C   0  0  0  0  0  0  0  0  0  0  0  0
   -3.1285    0.3943   -0.9118 C   0  0  0  0  0  0  0  0  0  0  0  0
   -3.5573   -0.4948    0.0937 C   0  0  0  0  0  0  0  0  0  0  0  0
   -4.7259   -0.2331    0.8216 C   0  0  0  0  0  0  0  0  0  0  0  0
   -5.4795    0.9230    0.5554 C   0  0  0  0  0  0  0  0  0  0  0  0
   -5.0673    1.8083   -0.4523 C   0  0  0  0  0  0  0  0  0  0  0  0
   -3.8987    1.5414   -1.1841 C   0  0  0  0  0  0  0  0  0  0  0  0
   -1.2417    2.6378   -0.6343 H   0  0  0  0  0  0  0  0  0  0  0  0
    1.3745    2.5717    0.6370 H   0  0  0  0  0  0  0  0  0  0  0  0
    0.3171    3.1316   -3.9751 H   0  0  0  0  0  0  0  0  0  0  0  0
   -1.2381    3.0048   -3.1011 H   0  0  0  0  0  0  0  0  0  0  0  0
   -0.3266    1.5235   -3.5710 H   0  0  0  0  0  0  0  0  0  0  0  0
    1.4546    4.5346   -2.4019 H   0  0  0  0  0  0  0  0  0  0  0  0
   -0.0696    4.6993   -1.4770 H   0  0  0  0  0  0  0  0  0  0  0  0
    1.4488    4.2364   -0.6438 H   0  0  0  0  0  0  0  0  0  0  0  0
    2.4283    2.2171   -2.9138 H   0  0  0  0  0  0  0  0  0  0  0  0
    2.5386    1.9455   -1.1544 H   0  0  0  0  0  0  0  0  0  0  0  0
    1.6826    0.7611   -2.1872 H   0  0  0  0  0  0  0  0  0  0  0  0
   -1.2235    4.5984    2.4080 H   0  0  0  0  0  0  0  0  0  0  0  0
    0.3062    4.6882    1.4820 H   0  0  0  0  0  0  0  0  0  0  0  0
   -1.2342    4.3031    0.6495 H   0  0  0  0  0  0  0  0  0  0  0  0
   -0.1584    3.1377    3.9786 H   0  0  0  0  0  0  0  0  0  0  0  0
    1.3886    2.9347    3.1045 H   0  0  0  0  0  0  0  0  0  0  0  0
    0.4040    1.5001    3.5718 H   0  0  0  0  0  0  0  0  0  0  0  0
   -2.3124    2.3320    2.9159 H   0  0  0  0  0  0  0  0  0  0  0  0
   -2.4363    2.0694    1.1560 H   0  0  0  0  0  0  0  0  0  0  0  0
   -1.6411    0.8414    2.1867 H   0  0  0  0  0  0  0  0  0  0  0  0
    1.8616    0.5588    2.6164 H   0  0  0  0  0  0  0  0  0  0  0  0
    1.6158   -1.0167    1.8023 H   0  0  0  0  0  0  0  0  0  0  0  0
   -1.8278    0.6543   -2.6167 H   0  0  0  0  0  0  0  0  0  0  0  0
   -1.6626   -0.9323   -1.8039 H   0  0  0  0  0  0  0  0  0  0  0  0
    3.6941    2.0442    1.9844 H   0  0  0  0  0  0  0  0  0  0  0  0
    5.7929    2.4170    0.6731 H   0  0  0  0  0  0  0  0  0  0  0  0
    6.4444    0.8050   -1.1337 H   0  0  0  0  0  0  0  0  0  0  0  0
    4.9968   -1.1888   -1.6080 H   0  0  0  0  0  0  0  0  0  0  0  0
    2.8845   -1.5421   -0.3138 H   0  0  0  0  0  0  0  0  0  0  0  0
   -2.9597   -1.3961    0.3089 H   0  0  0  0  0  0  0  0  0  0  0  0
   -5.0528   -0.9375    1.6014 H   0  0  0  0  0  0  0  0  0  0  0  0
   -6.3957    1.1288    1.1294 H   0  0  0  0  0  0  0  0  0  0  0  0
   -5.6603    2.7088   -0.6735 H   0  0  0  0  0  0  0  0  0  0  0  0
   -3.5816    2.2312   -1.9831 H   0  0  0  0  0  0  0  0  0  0  0  0
  1 14  1  0  0  0  0
  2  4  1  0  0  0  0
  2  3  1  0  0  0  0
  3  1  1  0  0  0  0
  4 28  1  1  0  0  0
  4  5  1  0  0  0  0
  5 29  1  6  0  0  0
  5  1  1  0  0  0  0
  5  7  1  0  0  0  0
  6  9  1  0  0  0  0
  6  4  1  0  0  0  0
  7 13  1  0  0  0  0
  7 12  1  0  0  0  0
  8 31  1  0  0  0  0
  8  6  1  0  0  0  0
  9 34  1  0  0  0  0
  9 35  1  0  0  0  0
 10  6  1  0  0  0  0
 10 37  1  0  0  0  0
 11  7  1  0  0  0  0
 11 39  1  0  0  0  0
 12 44  1  0  0  0  0
 12 42  1  0  0  0  0
 13 47  1  0  0  0  0
 13 45  1  0  0  0  0
 14 49  1  0  0  0  0
 14 48  1  0  0  0  0
 15 22  1  0  0  0  0
 15  2  1  0  0  0  0
 16 17  1  0  0  0  0
 16 14  1  0  0  0  0
 17 52  1  0  0  0  0
 18 53  1  0  0  0  0
 18 17  2  0  0  0  0
 19 18  1  0  0  0  0
 20 19  2  0  0  0  0
 20 21  1  0  0  0  0
 21 16  2  0  0  0  0
 22 23  1  0  0  0  0
 23 57  1  0  0  0  0
 23 24  2  0  0  0  0
 24 58  1  0  0  0  0
 25 24  1  0  0  0  0
 25 59  1  0  0  0  0
 26 25  2  0  0  0  0
 27 22  2  0  0  0  0
 27 26  1  0  0  0  0
 30  8  1  0  0  0  0
 32  8  1  0  0  0  0
 33  9  1  0  0  0  0
 36 10  1  0  0  0  0
 38 10  1  0  0  0  0
 40 11  1  0  0  0  0
 41 11  1  0  0  0  0
 43 12  1  0  0  0  0
 46 13  1  0  0  0  0
 50 15  1  0  0  0  0
 51 15  1  0  0  0  0
 54 19  1  0  0  0  0
 55 20  1  0  0  0  0
 56 21  1  0  0  0  0
 60 26  1  0  0  0  0
 61 27  1  0  0  0  0
M  END
