5
q = 0.0, confidence = 0.938

 38 40  0  0  1  0  0  0  0  0999 V2000
    3.2292    0.9302   -1.4129 O   0  0  0  0  0  0  0  0  0  0  0  0
    0.7735    3.9588   -1.3374 O   0  0  0  0  0  0  0  0  0  0  0  0
    1.8467    2.3358   -0.1594 N   0  0  0  0  0  0  0  0  0  0  0  0
    3.5131    0.0496   -0.3092 N   0  0  0  0  0  0  0  0  0  0  0  0
    1.1741   -0.4279    0.0100 C   0  0  0  0  0  3  0  0  0  0  0  0
    0.8899    0.3206   -1.2150 C   0  0  0  0  0  3  0  0  0  0  0  0
    1.8739    1.4618   -1.3269 C   0  0  2  0  0  0  0  0  0  0  0  0
    1.7758    2.0849   -2.2317 H   0  0  0  0  0  0  0  0  0  0  0  0
    2.3105    1.6515    1.0589 C   0  0  1  0  0  0  0  0  0  0  0  0
    1.5380    1.7545    1.8496 H   0  0  0  0  0  0  0  0  0  0  0  0
    2.4107    0.1544    0.6863 C   0  0  2  0  0  0  0  0  0  0  0  0
    2.7283   -0.4036    1.5845 H   0  0  0  0  0  0  0  0  0  0  0  0
    1.2951    3.5862   -0.2737 C   0  0  0  0  0  0  0  0  0  0  0  0
    1.3815    4.5161    0.9212 C   0  0  0  0  0  0  0  0  0  0  0  0
    2.3511    5.0557    0.8960 H   0  0  0  0  0  0  0  0  0  0  0  0
    1.2832    3.9953    1.8898 H   0  0  0  0  0  0  0  0  0  0  0  0
    0.5718    5.2610    0.8295 H   0  0  0  0  0  0  0  0  0  0  0  0
    3.6675    2.1873    1.5770 C   0  0  0  0  0  0  0  0  0  0  0  0
    4.4159    2.0690    0.7699 H   0  0  0  0  0  0  0  0  0  0  0  0
    3.5546    3.2714    1.7818 H   0  0  0  0  0  0  0  0  0  0  0  0
    4.1153    1.4879    2.8281 C   0  0  0  0  0  0  0  0  0  0  0  0
    3.5101    1.6773    3.7355 H   0  0  0  0  0  0  0  0  0  0  0  0
    5.1614    0.6457    2.9082 C   0  0  0  0  0  0  0  0  0  0  0  0
    5.7786    0.4212    2.0223 H   0  0  0  0  0  0  0  0  0  0  0  0
    5.4374    0.1555    3.8552 H   0  0  0  0  0  0  0  0  0  0  0  0
    3.9150   -1.2282   -0.7359 C   0  0  0  0  0  0  0  0  0  0  0  0
    4.1893   -2.2269    0.2329 C   0  0  0  0  0  0  0  0  0  0  0  0
    4.0608   -2.0045    1.3020 H   0  0  0  0  0  0  0  0  0  0  0  0
    4.6434   -3.4887   -0.1647 C   0  0  0  0  0  0  0  0  0  0  0  0
    4.8477   -4.2497    0.6045 H   0  0  0  0  0  0  0  0  0  0  0  0
    4.8444   -3.7893   -1.5233 C   0  0  0  0  0  0  0  0  0  0  0  0
    5.2052   -4.7825   -1.8286 H   0  0  0  0  0  0  0  0  0  0  0  0
    4.5835   -2.7968   -2.4805 C   0  0  0  0  0  0  0  0  0  0  0  0
    4.7384   -3.0105   -3.5499 H   0  0  0  0  0  0  0  0  0  0  0  0
    4.1227   -1.5284   -2.1015 C   0  0  0  0  0  0  0  0  0  0  0  0
    3.9202   -0.7499   -2.8465 H   0  0  0  0  0  0  0  0  0  0  0  0
    0.8208   -0.2401   -2.1649 H   0  0  0  0  0  0  0  0  0  0  0  0
    1.2340   -1.5299   -0.0675 H   0  0  0  0  0  0  0  0  0  0  0  0
  1  7  1  0  0  0  0
  1  4  1  0  0  0  0
  2 13  2  0  0  0  0
  3  9  1  0  0  0  0
  4 11  1  0  0  0  0
  5 11  1  0  0  0  0
  6  5  1  0  0  0  0
  7  8  1  6  0  0  0
  7  6  1  0  0  0  0
  7  3  1  0  0  0  0
  9 18  1  0  0  0  0
  9 10  1  1  0  0  0
 11  9  1  0  0  0  0
 11 12  1  1  0  0  0
 13  3  1  0  0  0  0
 13 14  1  0  0  0  0
 14 16  1  0  0  0  0
 15 14  1  0  0  0  0
 17 14  1  0  0  0  0
 18 20  1  0  0  0  0
 18 21  1  0  0  0  0
 19 18  1  0  0  0  0
 21 23  2  0  0  0  0
 21 22  1  0  0  0  0
 23 25  1  0  0  0  0
 24 23  1  0  0  0  0
 26  4  1  0  0  0  0
 26 27  1  0  0  0  0
 27 28  1  0  0  0  0
 29 27  2  0  0  0  0
 29 30  1  0  0  0  0
 31 29  1  0  0  0  0
 32 31  1  0  0  0  0
 33 35  1  0  0  0  0
 33 31  2  0  0  0  0
 34 33  1  0  0  0  0
 35 26  2  0  0  0  0
 36 35  1  0  0  0  0
 37  6  1  0  0  0  0
 38  5  1  0  0  0  0
M  END
