3
q = -1.0, confidence = 0.0

 33 33  0  0  0  0  0  0  0  0999 V2000
    0.0672    1.6390   -1.0485 N   0  0  0  0  0  0  0  0  0  0  0  0
    1.0851    0.8513    1.7896 N   0  0  0  0  0  0  0  0  0  0  0  0
   -1.7446   -0.5465   -0.0993 C   0  0  0  0  0  3  0  0  0  0  0  0
   -2.6366   -1.3176    0.6686 C   0  0  0  0  0  0  0  0  0  0  0  0
   -2.2965   -2.2518    1.1413 H   0  0  0  0  0  0  0  0  0  0  0  0
   -3.9705   -0.9090    0.8453 C   0  0  0  0  0  0  0  0  0  0  0  0
   -4.6568   -1.5222    1.4497 H   0  0  0  0  0  0  0  0  0  0  0  0
   -4.4189    0.2808    0.2549 C   0  0  0  0  0  0  0  0  0  0  0  0
   -5.4588    0.6130    0.3950 H   0  0  0  0  0  0  0  0  0  0  0  0
   -3.5339    1.0534   -0.5129 C   0  0  0  0  0  0  0  0  0  0  0  0
   -3.8834    1.9910   -0.9757 H   0  0  0  0  0  0  0  0  0  0  0  0
   -2.1980    0.6518   -0.7055 C   0  0  0  0  0  0  0  0  0  0  0  0
   -1.2819    1.4822   -1.5943 C   0  0  0  0  0  0  0  0  0  0  0  0
   -1.1796    0.9681   -2.5753 H   0  0  0  0  0  0  0  0  0  0  0  0
   -1.7658    2.4688   -1.8119 H   0  0  0  0  0  0  0  0  0  0  0  0
    1.0470    2.0419   -2.0503 C   0  0  0  0  0  0  0  0  0  0  0  0
    0.8474    3.0650   -2.4606 H   0  0  0  0  0  0  0  0  0  0  0  0
    1.0391    1.3234   -2.8940 H   0  0  0  0  0  0  0  0  0  0  0  0
    2.0676    2.0301   -1.6206 H   0  0  0  0  0  0  0  0  0  0  0  0
    0.0943    2.4822    0.1496 C   0  0  0  0  0  0  0  0  0  0  0  0
   -0.8811    2.3729    0.6650 H   0  0  0  0  0  0  0  0  0  0  0  0
    0.1748    3.5637   -0.1291 H   0  0  0  0  0  0  0  0  0  0  0  0
    1.2253    2.1496    1.1253 C   0  0  0  0  0  0  0  0  0  0  0  0
    2.1941    2.1463    0.5850 H   0  0  0  0  0  0  0  0  0  0  0  0
    1.2873    2.9803    1.8784 H   0  0  0  0  0  0  0  0  0  0  0  0
   -0.0293    0.8154    2.7298 C   0  0  0  0  0  0  0  0  0  0  0  0
    0.0881    1.5631    3.5568 H   0  0  0  0  0  0  0  0  0  0  0  0
   -0.0979   -0.1923    3.1854 H   0  0  0  0  0  0  0  0  0  0  0  0
   -0.9913    1.0055    2.2163 H   0  0  0  0  0  0  0  0  0  0  0  0
    2.3294    0.4522    2.4430 C   0  0  0  0  0  0  0  0  0  0  0  0
    2.5870    1.1189    3.3061 H   0  0  0  0  0  0  0  0  0  0  0  0
    3.1672    0.4854    1.7204 H   0  0  0  0  0  0  0  0  0  0  0  0
    2.2394   -0.5836    2.8261 H   0  0  0  0  0  0  0  0  0  0  0  0
  1 20  1  0  0  0  0
  2 30  1  0  0  0  0
  2 26  1  0  0  0  0
  3  4  1  0  0  0  0
  4  6  2  0  0  0  0
  4  5  1  0  0  0  0
  6  7  1  0  0  0  0
  8  9  1  0  0  0  0
  8  6  1  0  0  0  0
 10  8  2  0  0  0  0
 11 10  1  0  0  0  0
 12 10  1  0  0  0  0
 12  3  2  0  0  0  0
 13  1  1  0  0  0  0
 13 12  1  0  0  0  0
 14 13  1  0  0  0  0
 15 13  1  0  0  0  0
 16 19  1  0  0  0  0
 16  1  1  0  0  0  0
 17 16  1  0  0  0  0
 18 16  1  0  0  0  0
 20 21  1  0  0  0  0
 20 23  1  0  0  0  0
 22 20  1  0  0  0  0
 23  2  1  0  0  0  0
 23 25  1  0  0  0  0
 24 23  1  0  0  0  0
 26 28  1  0  0  0  0
 26 27  1  0  0  0  0
 29 26  1  0  0  0  0
 30 33  1  0  0  0  0
 30 31  1  0  0  0  0
 32 30  1  0  0  0  0
M  END
