1
q = 0.0, confidence = 0.958

 43 45  0  0  1  0  0  0  0  0999 V2000
   -0.0747    0.3070    0.6298 C   0  0  0  0  0  2  0  0  0  0  0  0
    1.5339   -1.3759   -0.2167 C   0  0  2  0  0  3  0  0  0  0  0  0
    0.8786   -1.9174   -1.4928 C   0  0  0  0  0  0  0  0  0  0  0  0
    1.3659   -2.8687   -1.7768 H   0  0  0  0  0  0  0  0  0  0  0  0
    1.1032   -1.1969   -2.3057 H   0  0  0  0  0  0  0  0  0  0  0  0
    3.5465   -1.2508    1.2070 C   0  0  0  0  0  0  0  0  0  0  0  0
    3.1492   -1.6656    2.1626 H   0  0  0  0  0  0  0  0  0  0  0  0
    3.4188   -0.1520    1.2552 H   0  0  0  0  0  0  0  0  0  0  0  0
    4.9875   -1.6953    0.9384 C   0  0  0  0  0  0  0  0  0  0  0  0
    5.4882   -0.9640    0.2698 H   0  0  0  0  0  0  0  0  0  0  0  0
    5.5907   -1.7709    1.8633 H   0  0  0  0  0  0  0  0  0  0  0  0
    4.8048   -3.0370    0.2164 C   0  0  0  0  0  0  0  0  0  0  0  0
    4.5707   -3.8359    0.9512 H   0  0  0  0  0  0  0  0  0  0  0  0
    5.6934   -3.3611   -0.3590 H   0  0  0  0  0  0  0  0  0  0  0  0
    3.5860   -2.7873   -0.6846 C   0  0  0  0  0  0  0  0  0  0  0  0
    3.8924   -2.3803   -1.6759 H   0  0  0  0  0  0  0  0  0  0  0  0
    3.0130   -3.7192   -0.8733 H   0  0  0  0  0  0  0  0  0  0  0  0
   -2.3314    0.6225    1.7055 C   0  0  0  0  0  0  0  0  0  0  0  0
   -2.7165    1.0867    0.7816 H   0  0  0  0  0  0  0  0  0  0  0  0
   -2.1691    1.4291    2.4517 H   0  0  0  0  0  0  0  0  0  0  0  0
   -3.2515   -0.4642    2.2696 C   0  0  0  0  0  0  0  0  0  0  0  0
   -3.7097   -1.0453    1.4424 H   0  0  0  0  0  0  0  0  0  0  0  0
   -4.0721   -0.0431    2.8816 H   0  0  0  0  0  0  0  0  0  0  0  0
   -2.2787   -1.3437    3.0670 C   0  0  0  0  0  0  0  0  0  0  0  0
   -2.6704   -2.3577    3.2782 H   0  0  0  0  0  0  0  0  0  0  0  0
   -2.0444   -0.8648    4.0409 H   0  0  0  0  0  0  0  0  0  0  0  0
   -1.0332   -1.3744    2.1759 C   0  0  0  0  0  0  0  0  0  0  0  0
   -0.0741   -1.4524    2.7286 H   0  0  0  0  0  0  0  0  0  0  0  0
   -1.0639   -2.2136    1.4507 H   0  0  0  0  0  0  0  0  0  0  0  0
   -0.6119   -2.1298   -1.3762 C   0  0  0  0  0  0  0  0  0  0  0  0
   -1.1240   -3.3052   -0.7881 C   0  0  0  0  0  0  0  0  0  0  0  0
   -0.4310   -4.0979   -0.4638 H   0  0  0  0  0  0  0  0  0  0  0  0
   -2.5019   -3.4800   -0.5942 C   0  0  0  0  0  0  0  0  0  0  0  0
   -2.9118   -4.3875   -0.1286 H   0  0  0  0  0  0  0  0  0  0  0  0
   -3.3714   -2.4558   -0.9887 C   0  0  0  0  0  0  0  0  0  0  0  0
   -2.9017   -1.2934   -1.6097 C   0  0  0  0  0  0  0  0  0  0  0  0
   -3.6069   -0.5084   -1.9167 H   0  0  0  0  0  0  0  0  0  0  0  0
   -1.5225   -1.1462   -1.8067 C   0  0  0  0  0  0  0  0  0  0  0  0
   -1.1458   -0.2350   -2.2896 H   0  0  0  0  0  0  0  0  0  0  0  0
   -4.6919   -2.5901   -0.7525 F   0  0  0  0  0  0  0  0  0  0  0  0
    0.9640   -0.5414    0.5907 N   0  0  0  0  0  2  0  0  0  0  0  0
    2.8014   -1.8037    0.0686 N   0  0  0  0  0  0  0  0  0  0  0  0
   -1.0733   -0.0916    1.4413 N   0  0  0  0  0  0  0  0  0  0  0  0
  1 43  1  0  0  0  0
  2 42  1  0  0  0  0
  2 41  1  6  0  0  0
  3 30  1  0  0  0  0
  3  2  1  0  0  0  0
  4  3  1  0  0  0  0
  5  3  1  0  0  0  0
  6  8  1  0  0  0  0
  6  7  1  0  0  0  0
  9  6  1  0  0  0  0
  9 11  1  0  0  0  0
 10  9  1  0  0  0  0
 12  9  1  0  0  0  0
 12 13  1  0  0  0  0
 14 12  1  0  0  0  0
 15 42  1  0  0  0  0
 15 12  1  0  0  0  0
 16 15  1  0  0  0  0
 17 15  1  0  0  0  0
 18 21  1  0  0  0  0
 18 20  1  0  0  0  0
 19 18  1  0  0  0  0
 21 23  1  0  0  0  0
 21 24  1  0  0  0  0
 22 21  1  0  0  0  0
 24 25  1  0  0  0  0
 24 26  1  0  0  0  0
 27 28  1  0  0  0  0
 27 24  1  0  0  0  0
 29 27  1  0  0  0  0
 30 31  1  0  0  0  0
 31 33  2  0  0  0  0
 31 32  1  0  0  0  0
 33 34  1  0  0  0  0
 35 40  1  0  0  0  0
 35 33  1  0  0  0  0
 36 35  2  0  0  0  0
 37 36  1  0  0  0  0
 38 36  1  0  0  0  0
 38 30  2  0  0  0  0
 39 38  1  0  0  0  0
 41  1  1  0  0  0  0
 42  6  1  0  0  0  0
 43 18  1  0  0  0  0
 43 27  1  0  0  0  0
M  END
