11
q = 0.0, confidence = 0.968

 41 42  0  0  0  0  0  0  0  0999 V2000
    2.8626   -1.1771   -0.2469 Si  0  0  0  0  0  0  0  0  0  0  0  0
    1.6366    1.8856   -0.0531 Si  0  0  0  0  0  0  0  0  0  0  0  0
    1.3898   -0.0105    0.3091 C   0  0  0  0  0  0  0  0  0  0  0  0
    1.3072   -0.1287    1.7740 O   0  0  0  0  0  0  0  0  0  0  0  0
    0.2885   -1.0523    2.1571 C   0  0  0  0  0  0  0  0  0  0  0  0
    0.7286   -2.0063    2.5410 H   0  0  0  0  0  0  0  0  0  0  0  0
   -0.3197   -0.6070    2.9738 H   0  0  0  0  0  0  0  0  0  0  0  0
   -0.5071   -1.3253    0.9070 C   0  0  0  0  0  0  0  0  0  0  0  0
   -1.6270   -2.1732    0.7107 C   0  0  0  0  0  0  0  0  0  0  0  0
   -2.1094   -2.6836    1.5550 H   0  0  0  0  0  0  0  0  0  0  0  0
   -2.1532   -2.2949   -0.6095 C   0  0  0  0  0  3  0  0  0  0  0  0
   -3.0485   -2.9091   -0.7806 H   0  0  0  0  0  0  0  0  0  0  0  0
   -1.5574   -1.6044   -1.7027 C   0  0  0  0  0  3  0  0  0  0  0  0
   -2.0014   -1.6745   -2.7042 H   0  0  0  0  0  0  0  0  0  0  0  0
   -0.4470   -0.7376   -1.4762 C   0  0  0  0  0  0  0  0  0  0  0  0
   -0.0249   -0.1620   -2.3108 H   0  0  0  0  0  0  0  0  0  0  0  0
    0.1263   -0.6450   -0.1775 C   0  0  0  0  0  0  0  0  0  0  0  0
    4.3089   -0.9533    0.9458 C   0  0  0  0  0  0  0  0  0  0  0  0
    3.9161   -0.8811    1.9798 H   0  0  0  0  0  0  0  0  0  0  0  0
    4.9868   -1.8294    0.8880 H   0  0  0  0  0  0  0  0  0  0  0  0
    4.9021   -0.0428    0.7388 H   0  0  0  0  0  0  0  0  0  0  0  0
    2.2721   -2.9752   -0.1241 C   0  0  0  0  0  0  0  0  0  0  0  0
    2.0017   -3.2475    0.9163 H   0  0  0  0  0  0  0  0  0  0  0  0
    1.3934   -3.1743   -0.7698 H   0  0  0  0  0  0  0  0  0  0  0  0
    3.0904   -3.6545   -0.4421 H   0  0  0  0  0  0  0  0  0  0  0  0
    3.3664   -0.8284   -2.0388 C   0  0  0  0  0  0  0  0  0  0  0  0
    3.7891    0.1886   -2.1618 H   0  0  0  0  0  0  0  0  0  0  0  0
    4.1422   -1.5561   -2.3557 H   0  0  0  0  0  0  0  0  0  0  0  0
    2.5088   -0.9328   -2.7343 H   0  0  0  0  0  0  0  0  0  0  0  0
    3.4146    2.3595    0.3919 C   0  0  0  0  0  0  0  0  0  0  0  0
    4.1622    1.9025   -0.2868 H   0  0  0  0  0  0  0  0  0  0  0  0
    3.5247    3.4613    0.3160 H   0  0  0  0  0  0  0  0  0  0  0  0
    3.6610    2.0645    1.4314 H   0  0  0  0  0  0  0  0  0  0  0  0
    1.3420    2.2758   -1.8836 C   0  0  0  0  0  0  0  0  0  0  0  0
    1.9122    1.6140   -2.5647 H   0  0  0  0  0  0  0  0  0  0  0  0
    0.2680    2.2292   -2.1486 H   0  0  0  0  0  0  0  0  0  0  0  0
    1.6772    3.3164   -2.0774 H   0  0  0  0  0  0  0  0  0  0  0  0
    0.4657    2.8827    1.0353 C   0  0  0  0  0  0  0  0  0  0  0  0
    0.4448    2.4680    2.0618 H   0  0  0  0  0  0  0  0  0  0  0  0
    0.8180    3.9334    1.0888 H   0  0  0  0  0  0  0  0  0  0  0  0
   -0.5677    2.8898    0.6425 H   0  0  0  0  0  0  0  0  0  0  0  0
  1 22  1  0  0  0  0
  1  3  1  0  0  0  0
  1 18  1  0  0  0  0
  2  3  1  0  0  0  0
  2 30  1  0  0  0  0
  2 38  1  0  0  0  0
  3  4  1  0  0  0  0
  4  5  1  0  0  0  0
  5  6  1  0  0  0  0
  5  7  1  0  0  0  0
  8  5  1  0  0  0  0
  9  8  2  0  0  0  0
  9 10  1  0  0  0  0
 11  9  1  0  0  0  0
 12 11  1  0  0  0  0
 13 15  1  0  0  0  0
 13 11  1  0  0  0  0
 14 13  1  0  0  0  0
 15 17  2  0  0  0  0
 16 15  1  0  0  0  0
 17  3  1  0  0  0  0
 17  8  1  0  0  0  0
 18 19  1  0  0  0  0
 20 18  1  0  0  0  0
 21 18  1  0  0  0  0
 22 23  1  0  0  0  0
 24 22  1  0  0  0  0
 25 22  1  0  0  0  0
 26  1  1  0  0  0  0
 27 26  1  0  0  0  0
 28 26  1  0  0  0  0
 29 26  1  0  0  0  0
 30 33  1  0  0  0  0
 31 30  1  0  0  0  0
 32 30  1  0  0  0  0
 34  2  1  0  0  0  0
 35 34  1  0  0  0  0
 36 34  1  0  0  0  0
 37 34  1  0  0  0  0
 38 40  1  0  0  0  0
 38 39  1  0  0  0  0
 41 38  1  0  0  0  0
M  END
