20
q = 0.0, confidence = 0.972

 53 56  0  0  1  0  0  0  0  0999 V2000
   -3.2309   -0.5732   -1.1091 O   0  0  0  0  0  0  0  0  0  0  0  0
   -5.1656   -0.2092    1.3062 O   0  0  0  0  0  0  0  0  0  0  0  0
   -2.9592    0.2196    1.7893 O   0  0  0  0  0  0  0  0  0  0  0  0
   -2.6619    2.5626   -0.9501 O   0  0  0  0  0  0  0  0  0  0  0  0
   -1.8712    0.8981   -2.3002 O   0  0  0  0  0  0  0  0  0  0  0  0
    0.2303    0.0855   -0.5397 O   0  0  0  0  0  0  0  0  0  0  0  0
   -4.4862    0.0957   -1.0388 C   0  0  0  0  0  0  0  0  0  0  0  0
   -5.2618   -0.6718   -1.2235 H   0  0  0  0  0  0  0  0  0  0  0  0
   -4.5558    0.8738   -1.8307 H   0  0  0  0  0  0  0  0  0  0  0  0
   -4.7177    0.7277    0.3372 C   0  0  2  0  0  0  0  0  0  0  0  0
   -5.4848    1.5256    0.2441 H   0  0  0  0  0  0  0  0  0  0  0  0
   -3.4012    1.2672    0.9416 C   0  0  2  0  0  0  0  0  0  0  0  0
   -3.5802    2.2103    1.5093 H   0  0  0  0  0  0  0  0  0  0  0  0
   -2.3024    1.4970   -0.0895 C   0  0  1  0  0  0  0  0  0  0  0  0
   -1.3455    1.6982    0.4458 H   0  0  0  0  0  0  0  0  0  0  0  0
   -2.1123    0.2851   -1.0465 C   0  0  1  0  0  0  0  0  0  0  0  0
   -0.9786   -0.6638   -0.6648 C   0  0  0  0  0  0  0  0  0  0  0  0
   -1.2262   -1.1336    0.3043 H   0  0  0  0  0  0  0  0  0  0  0  0
   -0.8828   -1.4350   -1.4503 H   0  0  0  0  0  0  0  0  0  0  0  0
    1.4157   -0.4783   -0.3133 C   0  0  0  0  0  2  0  0  0  0  0  0
    2.4022    0.5692   -0.0554 C   0  0  0  0  0  0  0  0  0  0  0  0
    3.4556    0.2657   -0.1378 H   0  0  0  0  0  0  0  0  0  0  0  0
    2.0964    1.8346    0.3662 C   0  0  0  0  0  0  0  0  0  0  0  0
    1.0298    2.0839    0.4920 H   0  0  0  0  0  0  0  0  0  0  0  0
    3.0282    2.9019    0.7063 C   0  0  0  0  0  0  0  0  0  0  0  0
    4.4375    2.7457    0.6620 C   0  0  0  0  0  0  0  0  0  0  0  0
    4.8725    1.7764    0.3775 H   0  0  0  0  0  0  0  0  0  0  0  0
    5.2829    3.8101    0.9848 C   0  0  0  0  0  0  0  0  0  0  0  0
    6.3738    3.6705    0.9477 H   0  0  0  0  0  0  0  0  0  0  0  0
    4.7464    5.0561    1.3592 C   0  0  0  0  0  0  0  0  0  0  0  0
    5.4169    5.8910    1.6133 H   0  0  0  0  0  0  0  0  0  0  0  0
    3.3540    5.2290    1.4108 C   0  0  0  0  0  0  0  0  0  0  0  0
    2.9282    6.2003    1.7042 H   0  0  0  0  0  0  0  0  0  0  0  0
    2.5058    4.1628    1.0905 C   0  0  0  0  0  0  0  0  0  0  0  0
    1.4132    4.2963    1.1292 H   0  0  0  0  0  0  0  0  0  0  0  0
   -4.0842   -0.5926    2.1693 C   0  0  0  0  0  0  0  0  0  0  0  0
   -4.4866   -0.2818    3.6095 C   0  0  0  0  0  0  0  0  0  0  0  0
   -3.6738   -0.5627    4.3067 H   0  0  0  0  0  0  0  0  0  0  0  0
   -5.4008   -0.8445    3.8803 H   0  0  0  0  0  0  0  0  0  0  0  0
   -4.6965    0.8000    3.7181 H   0  0  0  0  0  0  0  0  0  0  0  0
   -3.7146   -2.0541    1.9413 C   0  0  0  0  0  0  0  0  0  0  0  0
   -2.8190   -2.3275    2.5315 H   0  0  0  0  0  0  0  0  0  0  0  0
   -3.4962   -2.2079    0.8679 H   0  0  0  0  0  0  0  0  0  0  0  0
   -4.5543   -2.7111    2.2385 H   0  0  0  0  0  0  0  0  0  0  0  0
   -1.9990    2.3304   -2.1980 C   0  0  0  0  0  0  0  0  0  0  0  0
   -2.8883    2.8450   -3.3197 C   0  0  0  0  0  0  0  0  0  0  0  0
   -2.4217    2.6343   -4.3003 H   0  0  0  0  0  0  0  0  0  0  0  0
   -3.0318    3.9379   -3.2202 H   0  0  0  0  0  0  0  0  0  0  0  0
   -3.8764    2.3491   -3.2808 H   0  0  0  0  0  0  0  0  0  0  0  0
   -0.6054    2.9612   -2.2117 C   0  0  0  0  0  0  0  0  0  0  0  0
   -0.1041    2.7473   -3.1752 H   0  0  0  0  0  0  0  0  0  0  0  0
    0.0213    2.5308   -1.4099 H   0  0  0  0  0  0  0  0  0  0  0  0
   -0.6751    4.0582   -2.0789 H   0  0  0  0  0  0  0  0  0  0  0  0
  1 16  1  0  0  0  0
  1  7  1  0  0  0  0
  2 36  1  0  0  0  0
  3 36  1  0  0  0  0
  4 14  1  0  0  0  0
  5 45  1  0  0  0  0
  5 16  1  0  0  0  0
  6 20  1  0  0  0  0
  7 10  1  0  0  0  0
  8  7  1  0  0  0  0
  9  7  1  0  0  0  0
 10 11  1  6  0  0  0
 10 12  1  0  0  0  0
 10  2  1  0  0  0  0
 12 13  1  1  0  0  0
 12  3  1  0  0  0  0
 14 15  1  1  0  0  0
 14 12  1  0  0  0  0
 16 17  1  1  0  0  0
 16 14  1  0  0  0  0
 17  6  1  0  0  0  0
 17 18  1  0  0  0  0
 19 17  1  0  0  0  0
 20 21  1  0  0  0  0
 21 23  2  0  0  0  0
 22 21  1  0  0  0  0
 23 24  1  0  0  0  0
 23 25  1  0  0  0  0
 25 34  1  0  0  0  0
 26 25  2  0  0  0  0
 26 28  1  0  0  0  0
 27 26  1  0  0  0  0
 28 30  2  0  0  0  0
 29 28  1  0  0  0  0
 30 32  1  0  0  0  0
 30 31  1  0  0  0  0
 32 33  1  0  0  0  0
 34 35  1  0  0  0  0
 34 32  2  0  0  0  0
 36 37  1  0  0  0  0
 37 40  1  0  0  0  0
 37 39  1  0  0  0  0
 37 38  1  0  0  0  0
 41 36  1  0  0  0  0
 41 44  1  0  0  0  0
 41 42  1  0  0  0  0
 43 41  1  0  0  0  0
 45  4  1  0  0  0  0
 46 49  1  0  0  0  0
 46 48  1  0  0  0  0
 46 45  1  0  0  0  0
 47 46  1  0  0  0  0
 50 45  1  0  0  0  0
 50 53  1  0  0  0  0
 50 52  1  0  0  0  0
 51 50  1  0  0  0  0
M  END
