7
q = 0.0, confidence = 0.934

 11 10  0  0  0  0  0  0  0  0999 V2000
   -3.0730   -0.3823   -0.4353 N   0  0  0  0  0  0  0  0  0  0  0  0
   -3.6010    0.3517   -0.9287 H   0  0  0  0  0  0  0  0  0  0  0  0
   -3.5750   -0.6362    0.4262 H   0  0  0  0  0  0  0  0  0  0  0  0
   -2.8115   -1.5956   -1.2842 C   0  0  0  0  0  0  0  0  0  0  0  0
   -3.0147   -2.4918   -0.6705 H   0  0  0  0  0  0  0  0  0  0  0  0
   -3.4744   -1.6117   -2.1797 H   0  0  0  0  0  0  0  0  0  0  0  0
   -1.3281   -1.4864   -1.5860 C   0  0  0  0  0  3  0  0  0  0  0  0
   -0.7313   -2.4129   -1.5849 H   0  0  0  0  0  0  0  0  0  0  0  0
   -0.8768   -0.3021   -2.2546 C   0  0  0  0  0  3  0  0  0  0  0  0
    0.0952   -0.3347   -2.7696 H   0  0  0  0  0  0  0  0  0  0  0  0
   -1.6077    0.3409   -2.7830 H   0  0  0  0  0  0  0  0  0  0  0  0
  1  3  1  0  0  0  0
  2  1  1  0  0  0  0
  4  5  1  0  0  0  0
  4  1  1  0  0  0  0
  6  4  1  0  0  0  0
  7  8  1  0  0  0  0
  7  4  1  0  0  0  0
  9  7  1  0  0  0  0
 10  9  1  0  0  0  0
 11  9  1  0  0  0  0
M  END
