3
q = -1.0, confidence = 0.0

 12 11  0  0  0  0  0  0  0  0999 V2000
   -4.6518    1.0658   -0.0007 S   0  0  0  0  0  0  0  0  0  0  0  0
   -3.9003   -1.5570   -0.0012 N   0  0  0  0  0  0  0  0  0  0  0  0
   -2.1896    0.1381    0.0002 C   0  0  0  0  0  1  0  0  0  0  0  0
   -3.5746   -0.2261   -0.0006 C   0  0  0  0  0  0  0  0  0  0  0  0
   -5.2799   -1.9965   -0.0018 C   0  0  0  0  0  0  0  0  0  0  0  0
   -2.8829   -2.5955   -0.0007 C   0  0  0  0  0  0  0  0  0  0  0  0
   -5.4924   -2.6135    0.8983 H   0  0  0  0  0  0  0  0  0  0  0  0
   -5.9312   -1.1006   -0.0012 H   0  0  0  0  0  0  0  0  0  0  0  0
   -5.4921   -2.6118   -0.9032 H   0  0  0  0  0  0  0  0  0  0  0  0
   -2.9833   -3.2414   -0.9000 H   0  0  0  0  0  0  0  0  0  0  0  0
   -2.9833   -3.2407    0.8992 H   0  0  0  0  0  0  0  0  0  0  0  0
   -1.8766   -2.1343   -0.0008 H   0  0  0  0  0  0  0  0  0  0  0  0
  1  4  2  0  0  0  0
  2  6  1  0  0  0  0
  2  4  1  0  0  0  0
  4  3  1  0  0  0  0
  5  8  1  0  0  0  0
  5  2  1  0  0  0  0
  5  7  1  0  0  0  0
  6 11  1  0  0  0  0
  9  5  1  0  0  0  0
 10  6  1  0  0  0  0
 12  6  1  0  0  0  0
M  END
