3
q = 0.0, confidence = 0.994

 15 14  0  0  0  0  0  0  0  0999 V2000
   -2.2930    2.3347    1.3308 S   0  0  0  0  0  0  0  0  0  0  0  0
   -1.6136    2.4627   -1.1852 N   0  0  0  0  0  0  0  0  0  0  0  0
   -1.7257    1.6145   -0.1590 C   0  0  0  0  0  2  0  0  0  0  0  0
   -2.4430    0.8951    2.4314 C   0  0  0  0  0  0  0  0  0  0  0  0
   -2.8878    1.2903    3.3651 H   0  0  0  0  0  0  0  0  0  0  0  0
   -1.4487    0.4567    2.6390 H   0  0  0  0  0  0  0  0  0  0  0  0
   -3.1072    0.1411    1.9636 H   0  0  0  0  0  0  0  0  0  0  0  0
   -1.0866    2.0086   -2.4704 C   0  0  0  0  0  0  0  0  0  0  0  0
   -0.9045    0.9185   -2.4063 H   0  0  0  0  0  0  0  0  0  0  0  0
   -0.1361    2.5341   -2.6987 H   0  0  0  0  0  0  0  0  0  0  0  0
   -1.8239    2.2120   -3.2738 H   0  0  0  0  0  0  0  0  0  0  0  0
   -1.9274    3.8879   -1.0955 C   0  0  0  0  0  0  0  0  0  0  0  0
   -1.0860    4.4445   -0.6298 H   0  0  0  0  0  0  0  0  0  0  0  0
   -2.8394    4.0378   -0.4833 H   0  0  0  0  0  0  0  0  0  0  0  0
   -2.1061    4.2914   -2.1090 H   0  0  0  0  0  0  0  0  0  0  0  0
  1  4  1  0  0  0  0
  2 12  1  0  0  0  0
  2  3  1  0  0  0  0
  3  1  1  0  0  0  0
  4  6  1  0  0  0  0
  4  5  1  0  0  0  0
  7  4  1  0  0  0  0
  8  9  1  0  0  0  0
  8  2  1  0  0  0  0
 10  8  1  0  0  0  0
 11  8  1  0  0  0  0
 12 13  1  0  0  0  0
 12 14  1  0  0  0  0
 15 12  1  0  0  0  0
M  END
