9
q = 0.0, confidence = 0.996

 52 54  0  0  1  0  0  0  0  0999 V2000
    1.0258    0.2920    0.5583 P   0  0  0  0  0  0  0  0  0  0  0  0
   -1.9917    0.2907    1.7849 C   0  0  2  0  0  3  0  0  0  0  0  0
   -2.2178    1.4617    0.9632 C   0  0  0  0  0  0  0  0  0  0  0  0
   -1.8252    2.4295    1.3089 H   0  0  0  0  0  0  0  0  0  0  0  0
   -2.8375    1.4014   -0.2985 C   0  0  0  0  0  0  0  0  0  0  0  0
   -3.3344    0.1114   -0.7745 C   0  0  0  0  0  0  0  0  0  0  0  0
   -3.2321   -1.0064    0.0853 C   0  0  0  0  0  0  0  0  0  0  0  0
   -3.6254   -1.9725   -0.2666 H   0  0  0  0  0  0  0  0  0  0  0  0
   -2.5408   -0.9685    1.3545 C   0  0  2  0  0  3  0  0  0  0  0  0
   -2.9436    2.6130   -1.1743 C   0  0  0  0  0  0  0  0  0  0  0  0
   -3.9936    2.7918   -1.4804 H   0  0  0  0  0  0  0  0  0  0  0  0
   -2.3476    2.4601   -2.0994 H   0  0  0  0  0  0  0  0  0  0  0  0
   -2.5724    3.5182   -0.6596 H   0  0  0  0  0  0  0  0  0  0  0  0
   -3.9322   -0.0119   -2.1435 C   0  0  0  0  0  0  0  0  0  0  0  0
   -4.8196    0.6438   -2.2527 H   0  0  0  0  0  0  0  0  0  0  0  0
   -4.2408   -1.0524   -2.3549 H   0  0  0  0  0  0  0  0  0  0  0  0
   -3.1882    0.2955   -2.9084 H   0  0  0  0  0  0  0  0  0  0  0  0
   -2.4876   -2.2106    2.2034 C   0  0  0  0  0  0  0  0  0  0  0  0
   -3.2157   -2.1389    3.0380 H   0  0  0  0  0  0  0  0  0  0  0  0
   -1.4853   -2.3794    2.6376 H   0  0  0  0  0  0  0  0  0  0  0  0
   -2.7509   -3.1047    1.6076 H   0  0  0  0  0  0  0  0  0  0  0  0
   -1.3267    0.4681    3.1295 C   0  0  0  0  0  0  0  0  0  0  0  0
   -1.9975    1.1091    3.7420 H   0  0  0  0  0  0  0  0  0  0  0  0
   -1.2738   -0.5042    3.6546 H   0  0  0  0  0  0  0  0  0  0  0  0
    0.0752    1.0996    3.1091 C   0  0  0  0  0  0  0  0  0  0  0  0
    0.3912    1.2517    4.1609 H   0  0  0  0  0  0  0  0  0  0  0  0
    0.0523    2.1153    2.6581 H   0  0  0  0  0  0  0  0  0  0  0  0
    1.1333    0.2411    2.4067 C   0  0  0  0  0  0  0  0  0  0  0  0
    1.0479   -0.8211    2.7181 H   0  0  0  0  0  0  0  0  0  0  0  0
    2.1501    0.5916    2.6764 H   0  0  0  0  0  0  0  0  0  0  0  0
    2.3893   -0.8029   -0.0136 C   0  0  0  0  0  0  0  0  0  0  0  0
    3.2196   -1.5141    0.8765 C   0  0  0  0  0  0  0  0  0  0  0  0
    3.0904   -1.4266    1.9643 H   0  0  0  0  0  0  0  0  0  0  0  0
    4.2324   -2.3512    0.3792 C   0  0  0  0  0  0  0  0  0  0  0  0
    4.8795   -2.8978    1.0817 H   0  0  0  0  0  0  0  0  0  0  0  0
    4.4223   -2.4854   -1.0046 C   0  0  0  0  0  0  0  0  0  0  0  0
    5.2191   -3.1386   -1.3909 H   0  0  0  0  0  0  0  0  0  0  0  0
    3.5982   -1.7747   -1.8942 C   0  0  0  0  0  0  0  0  0  0  0  0
    3.7492   -1.8673   -2.9804 H   0  0  0  0  0  0  0  0  0  0  0  0
    2.5859   -0.9357   -1.4059 C   0  0  0  0  0  0  0  0  0  0  0  0
    1.9333   -0.3846   -2.1024 H   0  0  0  0  0  0  0  0  0  0  0  0
    1.6310    1.9817    0.1648 C   0  0  0  0  0  0  0  0  0  0  0  0
    0.7866    2.9483   -0.4111 C   0  0  0  0  0  0  0  0  0  0  0  0
   -0.2318    2.6685   -0.7087 H   0  0  0  0  0  0  0  0  0  0  0  0
    1.2628    4.2475   -0.6445 C   0  0  0  0  0  0  0  0  0  0  0  0
    0.6003    4.9969   -1.1029 H   0  0  0  0  0  0  0  0  0  0  0  0
    2.5829    4.5850   -0.3105 C   0  0  0  0  0  0  0  0  0  0  0  0
    2.9561    5.6027   -0.4986 H   0  0  0  0  0  0  0  0  0  0  0  0
    3.4339    3.6182    0.2511 C   0  0  0  0  0  0  0  0  0  0  0  0
    4.4740    3.8753    0.5009 H   0  0  0  0  0  0  0  0  0  0  0  0
    2.9639    2.3191    0.4861 C   0  0  0  0  0  0  0  0  0  0  0  0
    3.6448    1.5622    0.9066 H   0  0  0  0  0  0  0  0  0  0  0  0
  1 28  1  0  0  0  0
  2 22  1  1  0  0  0
  3  4  1  0  0  0  0
  3  2  1  0  0  0  0
  5  3  2  0  0  0  0
  6  5  1  0  0  0  0
  6  7  2  0  0  0  0
  7  9  1  0  0  0  0
  8  7  1  0  0  0  0
  9  2  1  0  0  0  0
  9 18  1  1  0  0  0
 10 13  1  0  0  0  0
 10  5  1  0  0  0  0
 11 10  1  0  0  0  0
 12 10  1  0  0  0  0
 14  6  1  0  0  0  0
 15 14  1  0  0  0  0
 16 14  1  0  0  0  0
 17 14  1  0  0  0  0
 18 20  1  0  0  0  0
 18 19  1  0  0  0  0
 21 18  1  0  0  0  0
 22 24  1  0  0  0  0
 22 23  1  0  0  0  0
 25 22  1  0  0  0  0
 25 26  1  0  0  0  0
 27 25  1  0  0  0  0
 28 30  1  0  0  0  0
 28 29  1  0  0  0  0
 28 25  1  0  0  0  0
 31  1  1  0  0  0  0
 31 32  1  0  0  0  0
 32 33  1  0  0  0  0
 34 32  2  0  0  0  0
 34 35  1  0  0  0  0
 36 34  1  0  0  0  0
 37 36  1  0  0  0  0
 38 40  1  0  0  0  0
 38 36  2  0  0  0  0
 39 38  1  0  0  0  0
 40 31  2  0  0  0  0
 41 40  1  0  0  0  0
 42 51  1  0  0  0  0
 42  1  1  0  0  0  0
 43 42  2  0  0  0  0
 44 43  1  0  0  0  0
 45 43  1  0  0  0  0
 45 47  2  0  0  0  0
 46 45  1  0  0  0  0
 47 49  1  0  0  0  0
 48 47  1  0  0  0  0
 49 51  2  0  0  0  0
 49 50  1  0  0  0  0
 51 52  1  0  0  0  0
M  END
