3
q = 0.0, confidence = 1.0

 49 51  0  0  1  0  0  0  0  0999 V2000
    0.6538    0.9740    0.6872 P   0  0  0  0  0  0  0  0  0  0  0  0
    2.2188   -1.7758    1.4705 C   0  0  2  0  0  3  0  0  0  0  0  0
    1.2151   -2.7882    1.3522 C   0  0  0  0  0  3  0  0  0  0  0  0
    0.6021   -3.0357    2.2313 H   0  0  0  0  0  0  0  0  0  0  0  0
    0.9733   -3.4760    0.1080 C   0  0  0  0  0  0  0  0  0  0  0  0
    1.7229   -3.0740   -1.0271 C   0  0  0  0  0  0  0  0  0  0  0  0
    1.4876   -3.5086   -2.0093 H   0  0  0  0  0  0  0  0  0  0  0  0
    2.7916   -2.1014   -0.9345 C   0  0  0  0  0  0  0  0  0  0  0  0
    3.0324   -1.4768    0.3105 C   0  0  0  0  0  0  0  0  0  0  0  0
    3.8177   -0.7107    0.3835 H   0  0  0  0  0  0  0  0  0  0  0  0
    3.5457   -1.7253   -2.1737 C   0  0  0  0  0  0  0  0  0  0  0  0
    3.9768   -2.6268   -2.6531 H   0  0  0  0  0  0  0  0  0  0  0  0
    4.3636   -1.0135   -1.9595 H   0  0  0  0  0  0  0  0  0  0  0  0
    2.8443   -1.2605   -2.9001 H   0  0  0  0  0  0  0  0  0  0  0  0
   -0.0881   -4.5328    0.0103 C   0  0  0  0  0  0  0  0  0  0  0  0
    0.3406   -5.5155    0.2986 H   0  0  0  0  0  0  0  0  0  0  0  0
   -0.4774   -4.6204   -1.0211 H   0  0  0  0  0  0  0  0  0  0  0  0
   -0.9335   -4.3236    0.6927 H   0  0  0  0  0  0  0  0  0  0  0  0
    2.4882   -1.1119    2.7990 C   0  0  0  0  0  0  0  0  0  0  0  0
    3.4952   -1.4413    3.1350 H   0  0  0  0  0  0  0  0  0  0  0  0
    1.7696   -1.5082    3.5453 H   0  0  0  0  0  0  0  0  0  0  0  0
    2.4389    0.4251    2.8184 C   0  0  0  0  0  0  0  0  0  0  0  0
    2.7287    0.7555    3.8362 H   0  0  0  0  0  0  0  0  0  0  0  0
    3.2040    0.8575    2.1380 H   0  0  0  0  0  0  0  0  0  0  0  0
    1.0600    1.0122    2.4943 C   0  0  0  0  0  0  0  0  0  0  0  0
    1.0006    2.0726    2.8123 H   0  0  0  0  0  0  0  0  0  0  0  0
    0.2638    0.4608    3.0363 H   0  0  0  0  0  0  0  0  0  0  0  0
   -0.9741    1.7956    0.5375 C   0  0  0  0  0  0  0  0  0  0  0  0
   -1.9384    1.7108    1.5632 C   0  0  0  0  0  0  0  0  0  0  0  0
   -1.7155    1.1892    2.5055 H   0  0  0  0  0  0  0  0  0  0  0  0
   -3.2048    2.2878    1.3864 C   0  0  0  0  0  0  0  0  0  0  0  0
   -3.9521    2.2176    2.1904 H   0  0  0  0  0  0  0  0  0  0  0  0
   -3.5169    2.9477    0.1880 C   0  0  0  0  0  0  0  0  0  0  0  0
   -4.5120    3.3960    0.0509 H   0  0  0  0  0  0  0  0  0  0  0  0
   -2.5596    3.0310   -0.8359 C   0  0  0  0  0  0  0  0  0  0  0  0
   -2.8006    3.5478   -1.7767 H   0  0  0  0  0  0  0  0  0  0  0  0
   -1.2921    2.4560   -0.6688 C   0  0  0  0  0  0  0  0  0  0  0  0
   -0.5483    2.5097   -1.4767 H   0  0  0  0  0  0  0  0  0  0  0  0
    1.8417    2.1798   -0.0235 C   0  0  0  0  0  0  0  0  0  0  0  0
    1.8311    3.5027    0.4720 C   0  0  0  0  0  0  0  0  0  0  0  0
    1.0892    3.8117    1.2249 H   0  0  0  0  0  0  0  0  0  0  0  0
    2.7557    4.4390   -0.0096 C   0  0  0  0  0  0  0  0  0  0  0  0
    2.7423    5.4679    0.3797 H   0  0  0  0  0  0  0  0  0  0  0  0
    3.6898    4.0670   -0.9911 C   0  0  0  0  0  0  0  0  0  0  0  0
    4.4123    4.8054   -1.3698 H   0  0  0  0  0  0  0  0  0  0  0  0
    3.6902    2.7589   -1.4977 C   0  0  0  0  0  0  0  0  0  0  0  0
    4.4058    2.4708   -2.2823 H   0  0  0  0  0  0  0  0  0  0  0  0
    2.7677    1.8162   -1.0180 C   0  0  0  0  0  0  0  0  0  0  0  0
    2.7337    0.8055   -1.4437 H   0  0  0  0  0  0  0  0  0  0  0  0
  1 25  1  0  0  0  0
  2 19  1  1  0  0  0
  3  2  1  0  0  0  0
  3  4  1  0  0  0  0
  5  3  1  0  0  0  0
  6  8  1  0  0  0  0
  6  5  2  0  0  0  0
  7  6  1  0  0  0  0
  8  9  2  0  0  0  0
  9 10  1  0  0  0  0
  9  2  1  0  0  0  0
 11 13  1  0  0  0  0
 11  8  1  0  0  0  0
 12 11  1  0  0  0  0
 14 11  1  0  0  0  0
 15  5  1  0  0  0  0
 15 16  1  0  0  0  0
 15 18  1  0  0  0  0
 17 15  1  0  0  0  0
 19 22  1  0  0  0  0
 19 20  1  0  0  0  0
 19 21  1  0  0  0  0
 22 23  1  0  0  0  0
 24 22  1  0  0  0  0
 25 26  1  0  0  0  0
 25 22  1  0  0  0  0
 25 27  1  0  0  0  0
 28  1  1  0  0  0  0
 28 29  1  0  0  0  0
 29 30  1  0  0  0  0
 31 29  2  0  0  0  0
 31 32  1  0  0  0  0
 33 31  1  0  0  0  0
 34 33  1  0  0  0  0
 35 37  1  0  0  0  0
 35 33  2  0  0  0  0
 36 35  1  0  0  0  0
 37 28  2  0  0  0  0
 38 37  1  0  0  0  0
 39 40  1  0  0  0  0
 39  1  1  0  0  0  0
 40 41  1  0  0  0  0
 42 43  1  0  0  0  0
 42 40  2  0  0  0  0
 44 42  1  0  0  0  0
 45 44  1  0  0  0  0
 46 48  1  0  0  0  0
 46 44  2  0  0  0  0
 47 46  1  0  0  0  0
 48 39  2  0  0  0  0
 49 48  1  0  0  0  0
M  END
