1
q = 0.0, confidence = 0.992

 53 54  0  0  1  0  0  0  0  0999 V2000
    0.2687    0.3106    0.7344 C   0  0  0  0  0  2  0  0  0  0  0  0
   -1.0178    0.3224    0.0864 C   0  0  2  0  0  3  0  0  0  0  0  0
   -1.5068   -0.8666   -0.5411 C   0  0  2  0  0  3  0  0  0  0  0  0
   -2.2160   -0.8944   -1.6901 N   0  0  0  0  0  0  0  0  0  0  0  0
   -2.2031    0.1975   -2.6459 C   0  0  0  0  0  0  0  0  0  0  0  0
   -3.1560    0.7677   -2.6106 H   0  0  0  0  0  0  0  0  0  0  0  0
   -2.0609   -0.2178   -3.6640 H   0  0  0  0  0  0  0  0  0  0  0  0
   -1.3718    0.8872   -2.4305 H   0  0  0  0  0  0  0  0  0  0  0  0
   -3.0134   -2.0615   -2.0535 C   0  0  0  0  0  0  0  0  0  0  0  0
   -2.4301   -2.7676   -2.6824 H   0  0  0  0  0  0  0  0  0  0  0  0
   -3.9025   -1.7227   -2.6185 H   0  0  0  0  0  0  0  0  0  0  0  0
   -3.3476   -2.5890   -1.1436 H   0  0  0  0  0  0  0  0  0  0  0  0
   -1.8351    1.5650    0.0356 C   0  0  0  0  0  0  0  0  0  0  0  0
   -1.1178    2.8562   -0.1806 C   0  0  0  0  0  0  0  0  0  0  0  0
   -1.5852    4.0513    0.4106 C   0  0  0  0  0  0  0  0  0  0  0  0
   -2.4560    4.0087    1.0823 H   0  0  0  0  0  0  0  0  0  0  0  0
   -0.9319    5.2712    0.1869 C   0  0  0  0  0  0  0  0  0  0  0  0
   -1.3072    6.1869    0.6693 H   0  0  0  0  0  0  0  0  0  0  0  0
    0.2078    5.3246   -0.6319 C   0  0  0  0  0  0  0  0  0  0  0  0
    0.7266    6.2805   -0.8000 H   0  0  0  0  0  0  0  0  0  0  0  0
    0.6877    4.1445   -1.2233 C   0  0  0  0  0  0  0  0  0  0  0  0
    1.5879    4.1672   -1.8557 H   0  0  0  0  0  0  0  0  0  0  0  0
    0.0339    2.9266   -0.9965 C   0  0  0  0  0  0  0  0  0  0  0  0
    0.4315    2.0053   -1.4454 H   0  0  0  0  0  0  0  0  0  0  0  0
   -3.2101    1.5923    0.0376 C   0  0  0  0  0  0  0  0  0  0  0  0
   -3.6889    2.5393   -0.2659 H   0  0  0  0  0  0  0  0  0  0  0  0
   -4.1294    0.4804    0.3121 C   0  0  0  0  0  0  0  0  0  0  0  0
   -5.2576    0.2562   -0.5139 C   0  0  0  0  0  0  0  0  0  0  0  0
   -5.4417    0.9322   -1.3641 H   0  0  0  0  0  0  0  0  0  0  0  0
   -6.1301   -0.8145   -0.2720 C   0  0  0  0  0  0  0  0  0  0  0  0
   -6.9947   -0.9750   -0.9343 H   0  0  0  0  0  0  0  0  0  0  0  0
   -5.9087   -1.6766    0.8145 C   0  0  0  0  0  0  0  0  0  0  0  0
   -6.5959   -2.5142    1.0075 H   0  0  0  0  0  0  0  0  0  0  0  0
   -4.8197   -1.4405    1.6721 C   0  0  0  0  0  0  0  0  0  0  0  0
   -4.6629   -2.0827    2.5526 H   0  0  0  0  0  0  0  0  0  0  0  0
   -3.9457   -0.3741    1.4252 C   0  0  0  0  0  0  0  0  0  0  0  0
   -3.1187   -0.1562    2.1167 H   0  0  0  0  0  0  0  0  0  0  0  0
    0.2566    1.2584    1.6864 O   0  0  0  0  0  0  0  0  0  0  0  0
    1.3881    1.6610    2.4708 C   0  0  0  0  0  0  0  0  0  0  0  0
    2.3016    1.1656    2.0909 H   0  0  0  0  0  0  0  0  0  0  0  0
    1.2008    1.2899    3.5016 H   0  0  0  0  0  0  0  0  0  0  0  0
    1.5094    3.1732    2.4384 C   0  0  0  0  0  0  0  0  0  0  0  0
    1.7402    3.5304    1.4164 H   0  0  0  0  0  0  0  0  0  0  0  0
    2.3239    3.4970    3.1167 H   0  0  0  0  0  0  0  0  0  0  0  0
    0.5668    3.6544    2.7647 H   0  0  0  0  0  0  0  0  0  0  0  0
   -1.3585   -2.0915   -0.0222 O   0  0  0  0  0  0  0  0  0  0  0  0
   -1.1325   -2.3162    1.3926 C   0  0  0  0  0  0  0  0  0  0  0  0
   -1.6239   -1.5055    1.9628 H   0  0  0  0  0  0  0  0  0  0  0  0
   -0.0450   -2.2498    1.5882 H   0  0  0  0  0  0  0  0  0  0  0  0
   -1.6825   -3.6873    1.7219 C   0  0  0  0  0  0  0  0  0  0  0  0
   -2.7738   -3.7390    1.5356 H   0  0  0  0  0  0  0  0  0  0  0  0
   -1.4978   -3.9144    2.7906 H   0  0  0  0  0  0  0  0  0  0  0  0
   -1.1783   -4.4625    1.1123 H   0  0  0  0  0  0  0  0  0  0  0  0
  1 38  1  0  0  0  0
  2  1  1  6  0  0  0
  3 46  1  1  0  0  0
  3  2  1  0  0  0  0
  4  3  1  0  0  0  0
  5  6  1  0  0  0  0
  5  8  1  0  0  0  0
  5  4  1  0  0  0  0
  7  5  1  0  0  0  0
  9  4  1  0  0  0  0
  9 12  1  0  0  0  0
 10  9  1  0  0  0  0
 11  9  1  0  0  0  0
 13 25  2  0  0  0  0
 13  2  1  0  0  0  0
 14 13  1  0  0  0  0
 14 15  1  0  0  0  0
 15 16  1  0  0  0  0
 17 15  2  0  0  0  0
 17 18  1  0  0  0  0
 19 17  1  0  0  0  0
 20 19  1  0  0  0  0
 21 23  1  0  0  0  0
 21 19  2  0  0  0  0
 22 21  1  0  0  0  0
 23 14  2  0  0  0  0
 24 23  1  0  0  0  0
 25 27  1  0  0  0  0
 26 25  1  0  0  0  0
 27 36  1  0  0  0  0
 28 30  1  0  0  0  0
 28 27  2  0  0  0  0
 29 28  1  0  0  0  0
 30 32  2  0  0  0  0
 31 30  1  0  0  0  0
 32 33  1  0  0  0  0
 32 34  1  0  0  0  0
 34 35  1  0  0  0  0
 36 34  2  0  0  0  0
 36 37  1  0  0  0  0
 38 39  1  0  0  0  0
 39 41  1  0  0  0  0
 40 39  1  0  0  0  0
 42 39  1  0  0  0  0
 42 45  1  0  0  0  0
 42 44  1  0  0  0  0
 43 42  1  0  0  0  0
 46 47  1  0  0  0  0
 47 49  1  0  0  0  0
 47 50  1  0  0  0  0
 47 48  1  0  0  0  0
 50 52  1  0  0  0  0
 51 50  1  0  0  0  0
 53 50  1  0  0  0  0
M  END
