4
q = -1.0, confidence = 0.008

 17 17  0  0  0  0  0  0  0  0999 V2000
    1.7290    2.8169    0.1562 C   0  0  0  0  0  0  0  0  0  0  0  0
    1.3326    3.9029    0.5646 O   0  0  0  0  0  0  0  0  0  0  0  0
    1.5146    1.5238    0.8146 C   0  0  0  0  0  3  0  0  0  0  0  0
    2.2242    0.3627    0.3381 C   0  0  0  0  0  2  0  0  0  0  0  0
    3.6346    0.0584    0.3071 C   0  0  0  0  0  0  0  0  0  0  0  0
    4.1815   -0.9610   -0.5186 C   0  0  0  0  0  0  0  0  0  0  0  0
    5.5558   -1.2138   -0.5206 C   0  0  0  0  0  0  0  0  0  0  0  0
    6.4175   -0.4686    0.3044 C   0  0  0  0  0  0  0  0  0  0  0  0
    5.8959    0.5469    1.1240 C   0  0  0  0  0  0  0  0  0  0  0  0
    4.5235    0.8155    1.1193 C   0  0  0  0  0  0  0  0  0  0  0  0
    2.3125    2.7360   -0.8129 H   0  0  0  0  0  0  0  0  0  0  0  0
    1.1463    1.6085    1.8556 H   0  0  0  0  0  0  0  0  0  0  0  0
    3.5163   -1.5369   -1.1759 H   0  0  0  0  0  0  0  0  0  0  0  0
    5.9640   -1.9993   -1.1745 H   0  0  0  0  0  0  0  0  0  0  0  0
    7.4986   -0.6753    0.3018 H   0  0  0  0  0  0  0  0  0  0  0  0
    6.5673    1.1383    1.7649 H   0  0  0  0  0  0  0  0  0  0  0  0
    4.1069    1.6171    1.7476 H   0  0  0  0  0  0  0  0  0  0  0  0
  1  2  2  0  0  0  0
  1  3  1  0  0  0  0
  3 12  1  0  0  0  0
  4  3  1  0  0  0  0
  5  4  1  0  0  0  0
  5 10  1  0  0  0  0
  6  5  2  0  0  0  0
  7  6  1  0  0  0  0
  7  8  2  0  0  0  0
  8  9  1  0  0  0  0
  9 16  1  0  0  0  0
 10  9  2  0  0  0  0
 10 17  1  0  0  0  0
 11  1  1  0  0  0  0
 13  6  1  0  0  0  0
 14  7  1  0  0  0  0
 15  8  1  0  0  0  0
M  END
