3
q = -1.0, confidence = 0.0

 16 16  0  0  1  0  0  0  0  0999 V2000
    3.0877   -0.7357   -0.0843 Cl  0  0  0  0  0  0  0  0  0  0  0  0
   -1.4166   -1.4139   -0.3374 C   0  0  2  0  0  3  0  0  0  0  0  0
   -0.7063   -1.0037   -1.4879 C   0  0  0  0  0  3  0  0  0  0  0  0
    0.7207   -0.8373   -1.4683 C   0  0  0  0  0  0  0  0  0  0  0  0
    1.3682   -1.0371   -0.2107 C   0  0  0  0  0  0  0  0  0  0  0  0
    0.6105   -1.3867    0.9310 C   0  0  0  0  0  3  0  0  0  0  0  0
   -0.6591   -2.1887    0.7317 C   0  0  0  0  0  0  0  0  0  0  0  0
   -2.9184   -1.4639   -0.3375 C   0  0  0  0  0  0  0  0  0  0  0  0
   -1.2569   -0.6959   -2.3910 H   0  0  0  0  0  0  0  0  0  0  0  0
    1.2886   -0.5385   -2.3575 H   0  0  0  0  0  0  0  0  0  0  0  0
    1.1225   -1.3812    1.9040 H   0  0  0  0  0  0  0  0  0  0  0  0
   -1.2454   -2.1923    1.6716 H   0  0  0  0  0  0  0  0  0  0  0  0
   -0.4859   -3.2577    0.4523 H   0  0  0  0  0  0  0  0  0  0  0  0
   -3.2677   -2.5061   -0.5126 H   0  0  0  0  0  0  0  0  0  0  0  0
   -3.3303   -1.1481    0.6423 H   0  0  0  0  0  0  0  0  0  0  0  0
   -3.3558   -0.8149   -1.1208 H   0  0  0  0  0  0  0  0  0  0  0  0
  2  8  1  6  0  0  0
  2  7  1  0  0  0  0
  3  4  1  0  0  0  0
  3  2  1  0  0  0  0
  4  5  2  0  0  0  0
  5  1  1  0  0  0  0
  5  6  1  0  0  0  0
  6 11  1  0  0  0  0
  7  6  1  0  0  0  0
  7 12  1  0  0  0  0
  8 15  1  0  0  0  0
  9  3  1  0  0  0  0
 10  4  1  0  0  0  0
 13  7  1  0  0  0  0
 14  8  1  0  0  0  0
 16  8  1  0  0  0  0
M  END
