2
q = -1.0, confidence = 0.0

 18 19  0  0  0  0  0  0  0  0999 V2000
    3.6465    0.0006   -1.0672 S   0  0  0  0  0  0  0  0  0  0  0  0
    0.6357    0.0006   -0.0811 C   0  0  0  0  0  3  0  0  0  0  0  0
    0.9831    0.0011   -1.1375 H   0  0  0  0  0  0  0  0  0  0  0  0
    1.6156    0.0002    0.8684 C   0  0  0  0  0  0  0  0  0  0  0  0
    1.3599   -0.0003    1.9439 H   0  0  0  0  0  0  0  0  0  0  0  0
    3.0417    0.0003    0.6012 C   0  0  0  0  0  0  0  0  0  0  0  0
    4.0844   -0.0001    1.5138 C   0  0  0  0  0  0  0  0  0  0  0  0
    3.9118   -0.0004    2.5993 H   0  0  0  0  0  0  0  0  0  0  0  0
    5.3882   -0.0000    0.9123 C   0  0  0  0  0  0  0  0  0  0  0  0
    6.6676   -0.0003    1.5187 C   0  0  0  0  0  0  0  0  0  0  0  0
    6.7486   -0.0006    2.6166 H   0  0  0  0  0  0  0  0  0  0  0  0
    7.8157   -0.0002    0.7213 C   0  0  0  0  0  0  0  0  0  0  0  0
    8.8088   -0.0004    1.1958 H   0  0  0  0  0  0  0  0  0  0  0  0
    7.7180    0.0002   -0.6883 C   0  0  0  0  0  0  0  0  0  0  0  0
    8.6326    0.0002   -1.3003 H   0  0  0  0  0  0  0  0  0  0  0  0
    6.4658    0.0004   -1.3180 C   0  0  0  0  0  0  0  0  0  0  0  0
    6.3876    0.0007   -2.4155 H   0  0  0  0  0  0  0  0  0  0  0  0
    5.3130    0.0003   -0.5171 C   0  0  0  0  0  0  0  0  0  0  0  0
  1 18  1  0  0  0  0
  1  6  1  0  0  0  0
  2  4  2  0  0  0  0
  3  2  1  0  0  0  0
  4  5  1  0  0  0  0
  6  4  1  0  0  0  0
  6  7  2  0  0  0  0
  7  8  1  0  0  0  0
  9  7  1  0  0  0  0
  9 10  1  0  0  0  0
 10 11  1  0  0  0  0
 12 13  1  0  0  0  0
 12 10  2  0  0  0  0
 14 12  1  0  0  0  0
 15 14  1  0  0  0  0
 16 14  2  0  0  0  0
 16 18  1  0  0  0  0
 17 16  1  0  0  0  0
 18  9  2  0  0  0  0
M  END
