1
q = -1.0, confidence = 0.0

 27 29  0  0  0  0  0  0  0  0999 V2000
   -0.5409   -0.0436    0.1571 C   0  0  0  0  0  3  0  0  0  0  0  0
   -1.3645   -1.2895    0.1223 C   0  0  0  0  0  0  0  0  0  0  0  0
   -1.0154   -2.6439    0.2509 C   0  0  0  0  0  0  0  0  0  0  0  0
    0.0288   -2.9414    0.4226 H   0  0  0  0  0  0  0  0  0  0  0  0
   -2.0161   -3.6326    0.1742 C   0  0  0  0  0  0  0  0  0  0  0  0
   -1.7365   -4.6918    0.2847 H   0  0  0  0  0  0  0  0  0  0  0  0
   -3.3625   -3.2900   -0.0366 C   0  0  0  0  0  0  0  0  0  0  0  0
   -4.1277   -4.0788   -0.0929 H   0  0  0  0  0  0  0  0  0  0  0  0
   -3.7335   -1.9381   -0.1718 C   0  0  0  0  0  3  0  0  0  0  0  0
   -4.7866   -1.6609   -0.3358 H   0  0  0  0  0  0  0  0  0  0  0  0
   -2.7455   -0.9533   -0.0900 C   0  0  0  0  0  0  0  0  0  0  0  0
   -2.7838    0.5019   -0.1986 C   0  0  0  0  0  0  0  0  0  0  0  0
   -3.6498    1.5090   -0.4907 C   0  0  0  0  0  3  0  0  0  0  0  0
   -4.7246    1.4035   -0.7029 H   0  0  0  0  0  0  0  0  0  0  0  0
   -2.9149    2.8212   -0.5626 C   0  0  0  0  0  0  0  0  0  0  0  0
   -3.4155    3.6316    0.0120 H   0  0  0  0  0  0  0  0  0  0  0  0
   -2.8878    3.1808   -1.6180 H   0  0  0  0  0  0  0  0  0  0  0  0
   -1.4576    2.5361   -0.0303 C   0  0  0  0  0  0  0  0  0  0  0  0
   -1.4150    1.0096   -0.0114 C   0  0  0  0  0  0  0  0  0  0  0  0
   -0.4032    3.1948   -0.9323 C   0  0  0  0  0  0  0  0  0  0  0  0
    0.6203    3.0235   -0.5476 H   0  0  0  0  0  0  0  0  0  0  0  0
   -0.5627    4.2920   -0.9829 H   0  0  0  0  0  0  0  0  0  0  0  0
   -0.4561    2.7915   -1.9643 H   0  0  0  0  0  0  0  0  0  0  0  0
   -1.3524    3.0801    1.4131 C   0  0  0  0  0  0  0  0  0  0  0  0
   -2.1426    2.6374    2.0521 H   0  0  0  0  0  0  0  0  0  0  0  0
   -1.4750    4.1837    1.4227 H   0  0  0  0  0  0  0  0  0  0  0  0
   -0.3738    2.8422    1.8679 H   0  0  0  0  0  0  0  0  0  0  0  0
  2  1  1  0  0  0  0
  2  3  2  0  0  0  0
  3  4  1  0  0  0  0
  5  3  1  0  0  0  0
  5  6  1  0  0  0  0
  7  5  2  0  0  0  0
  8  7  1  0  0  0  0
  9 11  1  0  0  0  0
  9  7  1  0  0  0  0
 10  9  1  0  0  0  0
 11  2  1  0  0  0  0
 12 11  2  0  0  0  0
 12 19  1  0  0  0  0
 13 12  1  0  0  0  0
 14 13  1  0  0  0  0
 15 13  1  0  0  0  0
 15 18  1  0  0  0  0
 15 16  1  0  0  0  0
 17 15  1  0  0  0  0
 18 19  1  0  0  0  0
 18 24  1  0  0  0  0
 19  1  2  0  0  0  0
 20 21  1  0  0  0  0
 20 18  1  0  0  0  0
 22 20  1  0  0  0  0
 23 20  1  0  0  0  0
 24 26  1  0  0  0  0
 24 27  1  0  0  0  0
 24 25  1  0  0  0  0
M  END
