4
q = 0.0, confidence = 0.998

 37 39  0  0  0  0  0  0  0  0999 V2000
   -0.4782   -1.6536   -0.0002 N   0  0  0  0  0  0  0  0  0  0  0  0
    1.6850   -1.4898   -0.0002 N   0  0  0  0  0  0  0  0  0  0  0  0
    3.9520   -2.0137    0.0004 N   0  0  0  0  0  0  0  0  0  0  0  0
    0.5307   -0.7304   -0.0002 C   0  0  0  0  0  2  0  0  0  0  0  0
    0.0197   -2.9543   -0.0002 C   0  0  0  0  0  0  0  0  0  0  0  0
   -0.6423   -3.8247   -0.0002 H   0  0  0  0  0  0  0  0  0  0  0  0
    1.3810   -2.8551   -0.0001 C   0  0  0  0  0  0  0  0  0  0  0  0
    2.1837   -3.5951   -0.0001 H   0  0  0  0  0  0  0  0  0  0  0  0
    3.0450   -1.0309   -0.0002 C   0  0  0  0  0  0  0  0  0  0  0  0
    3.3788    0.3354   -0.0007 C   0  0  0  0  0  0  0  0  0  0  0  0
    2.5928    1.1079   -0.0012 H   0  0  0  0  0  0  0  0  0  0  0  0
    4.7384    0.6672   -0.0007 C   0  0  0  0  0  0  0  0  0  0  0  0
    5.0367    1.7263   -0.0011 H   0  0  0  0  0  0  0  0  0  0  0  0
    5.7018   -0.3528   -0.0001 C   0  0  0  0  0  0  0  0  0  0  0  0
    6.7780   -0.1278   -0.0000 H   0  0  0  0  0  0  0  0  0  0  0  0
    5.2501   -1.6805    0.0004 C   0  0  0  0  0  0  0  0  0  0  0  0
    5.9674   -2.5196    0.0009 H   0  0  0  0  0  0  0  0  0  0  0  0
   -1.8766   -1.3079   -0.0002 C   0  0  0  0  0  0  0  0  0  0  0  0
   -2.5322   -1.1403   -1.2384 C   0  0  0  0  0  0  0  0  0  0  0  0
   -3.8987   -0.8141   -1.2094 C   0  0  0  0  0  0  0  0  0  0  0  0
   -4.4291   -0.6766   -2.1652 H   0  0  0  0  0  0  0  0  0  0  0  0
   -4.5992   -0.6466   -0.0002 C   0  0  0  0  0  0  0  0  0  0  0  0
   -3.8989   -0.8149    1.2091 C   0  0  0  0  0  0  0  0  0  0  0  0
   -4.4293   -0.6779    2.1648 H   0  0  0  0  0  0  0  0  0  0  0  0
   -2.5324   -1.1411    1.2380 C   0  0  0  0  0  0  0  0  0  0  0  0
   -1.7747   -1.2571   -2.5342 C   0  0  0  0  0  0  0  0  0  0  0  0
   -1.0269   -0.4393   -2.6164 H   0  0  0  0  0  0  0  0  0  0  0  0
   -2.4558   -1.1879   -3.4027 H   0  0  0  0  0  0  0  0  0  0  0  0
   -1.2137   -2.2114   -2.6067 H   0  0  0  0  0  0  0  0  0  0  0  0
   -6.0542   -0.2519   -0.0001 C   0  0  0  0  0  0  0  0  0  0  0  0
   -6.5814   -0.6302    0.8975 H   0  0  0  0  0  0  0  0  0  0  0  0
   -6.5809   -0.6284   -0.8988 H   0  0  0  0  0  0  0  0  0  0  0  0
   -6.1588    0.8544    0.0010 H   0  0  0  0  0  0  0  0  0  0  0  0
   -1.7750   -1.2588    2.5338 C   0  0  0  0  0  0  0  0  0  0  0  0
   -1.2149   -2.2136    2.6062 H   0  0  0  0  0  0  0  0  0  0  0  0
   -2.4561   -1.1891    3.4023 H   0  0  0  0  0  0  0  0  0  0  0  0
   -1.0265   -0.4417    2.6162 H   0  0  0  0  0  0  0  0  0  0  0  0
  1 18  1  0  0  0  0
  1  4  1  0  0  0  0
  1  5  1  0  0  0  0
  2  7  1  0  0  0  0
  3 16  1  0  0  0  0
  4  2  1  0  0  0  0
  5  7  2  0  0  0  0
  6  5  1  0  0  0  0
  7  8  1  0  0  0  0
  9  2  1  0  0  0  0
  9  3  2  0  0  0  0
 10 12  2  0  0  0  0
 10  9  1  0  0  0  0
 11 10  1  0  0  0  0
 12 14  1  0  0  0  0
 13 12  1  0  0  0  0
 14 15  1  0  0  0  0
 14 16  2  0  0  0  0
 16 17  1  0  0  0  0
 18 25  1  0  0  0  0
 19 20  1  0  0  0  0
 19 18  2  0  0  0  0
 20 22  2  0  0  0  0
 21 20  1  0  0  0  0
 22 30  1  0  0  0  0
 22 23  1  0  0  0  0
 23 25  2  0  0  0  0
 23 24  1  0  0  0  0
 25 34  1  0  0  0  0
 26 19  1  0  0  0  0
 27 26  1  0  0  0  0
 28 26  1  0  0  0  0
 29 26  1  0  0  0  0
 30 33  1  0  0  0  0
 30 31  1  0  0  0  0
 32 30  1  0  0  0  0
 34 35  1  0  0  0  0
 34 37  1  0  0  0  0
 34 36  1  0  0  0  0
M  END
