4
q = 0.0, confidence = 0.998

 43 45  0  0  0  0  0  0  0  0999 V2000
    0.7883    1.7932   -1.6069 N   0  0  0  0  0  0  0  0  0  0  0  0
   -1.2399    1.5181   -0.8674 N   0  0  0  0  0  0  0  0  0  0  0  0
    2.8002    2.1106    1.4581 N   0  0  0  0  0  0  0  0  0  0  0  0
   -0.0178    0.9193   -0.9457 C   0  0  0  0  0  2  0  0  0  0  0  0
    0.0812    2.9448   -1.9270 C   0  0  0  0  0  0  0  0  0  0  0  0
    0.5472    3.7773   -2.4617 H   0  0  0  0  0  0  0  0  0  0  0  0
   -1.1969    2.7709   -1.4682 C   0  0  0  0  0  0  0  0  0  0  0  0
   -2.0836    3.4075   -1.5269 H   0  0  0  0  0  0  0  0  0  0  0  0
   -2.4301    0.9437   -0.2893 C   0  0  0  0  0  0  0  0  0  0  0  0
   -3.0907   -0.0891   -0.9890 C   0  0  0  0  0  0  0  0  0  0  0  0
   -4.2362   -0.6409   -0.3874 C   0  0  0  0  0  0  0  0  0  0  0  0
   -4.7665   -1.4509   -0.9127 H   0  0  0  0  0  0  0  0  0  0  0  0
   -4.7226   -0.1870    0.8513 C   0  0  0  0  0  0  0  0  0  0  0  0
   -4.0459    0.8694    1.4898 C   0  0  0  0  0  0  0  0  0  0  0  0
   -4.4174    1.2431    2.4572 H   0  0  0  0  0  0  0  0  0  0  0  0
   -2.8937    1.4561    0.9427 C   0  0  0  0  0  0  0  0  0  0  0  0
   -2.6089   -0.5773   -2.3302 C   0  0  0  0  0  0  0  0  0  0  0  0
   -2.3372    0.2640   -3.0000 H   0  0  0  0  0  0  0  0  0  0  0  0
   -3.3907   -1.1785   -2.8305 H   0  0  0  0  0  0  0  0  0  0  0  0
   -1.7000   -1.2098   -2.2470 H   0  0  0  0  0  0  0  0  0  0  0  0
   -5.9224   -0.8332    1.4950 C   0  0  0  0  0  0  0  0  0  0  0  0
   -6.5892   -1.3001    0.7442 H   0  0  0  0  0  0  0  0  0  0  0  0
   -6.5143   -0.1045    2.0833 H   0  0  0  0  0  0  0  0  0  0  0  0
   -5.6040   -1.6353    2.1950 H   0  0  0  0  0  0  0  0  0  0  0  0
   -2.1707    2.5710    1.6516 C   0  0  0  0  0  0  0  0  0  0  0  0
   -2.2631    3.5377    1.1134 H   0  0  0  0  0  0  0  0  0  0  0  0
   -1.0906    2.3380    1.7437 H   0  0  0  0  0  0  0  0  0  0  0  0
   -2.5793    2.7159    2.6691 H   0  0  0  0  0  0  0  0  0  0  0  0
    2.1949    1.5855   -1.9727 C   0  0  0  0  0  0  0  0  0  0  0  0
    2.3394    2.0831   -2.9519 H   0  0  0  0  0  0  0  0  0  0  0  0
    2.3220    0.4981   -2.1416 H   0  0  0  0  0  0  0  0  0  0  0  0
    3.1891    2.1355   -0.9442 C   0  0  0  0  0  0  0  0  0  0  0  0
    4.1956    2.0723   -1.4102 H   0  0  0  0  0  0  0  0  0  0  0  0
    2.9836    3.2046   -0.7374 H   0  0  0  0  0  0  0  0  0  0  0  0
    3.1895    1.4026    0.3809 C   0  0  0  0  0  0  0  0  0  0  0  0
    3.5780    0.0491    0.4617 C   0  0  0  0  0  0  0  0  0  0  0  0
    3.8704   -0.5070   -0.4425 H   0  0  0  0  0  0  0  0  0  0  0  0
    3.5695   -0.5860    1.7102 C   0  0  0  0  0  0  0  0  0  0  0  0
    3.8294   -1.6508    1.7934 H   0  0  0  0  0  0  0  0  0  0  0  0
    3.1790    0.1537    2.8332 C   0  0  0  0  0  0  0  0  0  0  0  0
    3.1385   -0.3048    3.8317 H   0  0  0  0  0  0  0  0  0  0  0  0
    2.7998    1.4918    2.6495 C   0  0  0  0  0  0  0  0  0  0  0  0
    2.4659    2.0964    3.5115 H   0  0  0  0  0  0  0  0  0  0  0  0
  1  4  1  0  0  0  0
  2  9  1  0  0  0  0
  3 42  1  0  0  0  0
  4  2  1  0  0  0  0
  5  1  1  0  0  0  0
  5  7  2  0  0  0  0
  6  5  1  0  0  0  0
  7  2  1  0  0  0  0
  8  7  1  0  0  0  0
  9 16  1  0  0  0  0
 10 11  1  0  0  0  0
 10  9  2  0  0  0  0
 11 13  2  0  0  0  0
 12 11  1  0  0  0  0
 13 14  1  0  0  0  0
 13 21  1  0  0  0  0
 14 15  1  0  0  0  0
 16 14  2  0  0  0  0
 16 25  1  0  0  0  0
 17 20  1  0  0  0  0
 17 10  1  0  0  0  0
 18 17  1  0  0  0  0
 19 17  1  0  0  0  0
 21 23  1  0  0  0  0
 21 24  1  0  0  0  0
 22 21  1  0  0  0  0
 25 27  1  0  0  0  0
 25 28  1  0  0  0  0
 26 25  1  0  0  0  0
 29  1  1  0  0  0  0
 29 32  1  0  0  0  0
 30 29  1  0  0  0  0
 31 29  1  0  0  0  0
 32 34  1  0  0  0  0
 32 35  1  0  0  0  0
 33 32  1  0  0  0  0
 35 36  1  0  0  0  0
 35  3  2  0  0  0  0
 36 38  2  0  0  0  0
 37 36  1  0  0  0  0
 38 39  1  0  0  0  0
 38 40  1  0  0  0  0
 40 41  1  0  0  0  0
 42 40  2  0  0  0  0
 42 43  1  0  0  0  0
M  END
