33
q = -2.0, confidence = 0.906

 46 54  0  0  1  0  0  0  0  0999 V2000
    2.9596   -0.8089   -0.1372 C   0  0  1  0  0  0  0  0  0  0  0  0
    1.5192   -0.3124   -0.9063 C   0  0  1  0  0  0  0  0  0  0  0  0
    2.1253   -1.8862   -1.1732 B   0  0  1  0  0  0  0  0  0  0  0  0
    1.5409   -2.8324   -0.7077 H   0  0  0  0  0  0  0  0  0  0  0  0
    3.9073   -1.7708   -1.1903 B   0  0  1  0  0  0  0  0  0  0  0  0
    4.5549   -2.6720   -0.7209 H   0  0  0  0  0  0  0  0  0  0  0  0
    4.3284   -0.0824   -0.8657 B   0  0  1  0  0  0  0  0  0  0  0  0
    5.2704    0.1977   -0.1694 H   0  0  0  0  0  0  0  0  0  0  0  0
    2.7933    0.8080   -0.6492 B   0  0  2  0  0  0  0  0  0  0  0  0
    2.6540    1.6804    0.1686 H   0  0  0  0  0  0  0  0  0  0  0  0
    1.5038   -0.9125   -2.5124 B   0  0  2  0  0  0  0  0  0  0  0  0
    0.4393   -1.2215   -2.9891 H   0  0  0  0  0  0  0  0  0  0  0  0
    3.0068   -1.8387   -2.7217 B   0  0  0  0  0  0  0  0  0  0  0  0
    3.0487   -2.8239   -3.4224 H   0  0  0  0  0  0  0  0  0  0  0  0
    4.3743   -0.6995   -2.5302 B   0  0  2  0  0  0  0  0  0  0  0  0
    5.4333   -0.8502   -3.0962 H   0  0  0  0  0  0  0  0  0  0  0  0
    3.6926    0.9194   -2.1850 B   0  0  2  0  0  0  0  0  0  0  0  0
    4.2325    1.9576   -2.4929 H   0  0  0  0  0  0  0  0  0  0  0  0
    1.9241    0.7671   -2.1841 B   0  0  2  0  0  0  0  0  0  0  0  0
    1.1785    1.6803   -2.4318 H   0  0  0  0  0  0  0  0  0  0  0  0
    2.8877   -0.1699   -3.3527 B   0  0  2  0  0  0  0  0  0  0  0  0
    2.8391    0.0730   -4.5375 H   0  0  0  0  0  0  0  0  0  0  0  0
    2.8725   -1.0690    1.4065 C   0  0  0  0  0  0  0  0  0  0  0  0
    3.1864   -2.5480    1.7319 C   0  0  0  0  0  0  0  0  0  0  0  0
    2.5526   -3.2525    1.1651 H   0  0  0  0  0  0  0  0  0  0  0  0
    3.0342   -2.7264    2.8140 H   0  0  0  0  0  0  0  0  0  0  0  0
    4.2388   -2.7775    1.4859 H   0  0  0  0  0  0  0  0  0  0  0  0
    3.9213   -0.2322    2.1721 C   0  0  0  0  0  0  0  0  0  0  0  0
    3.9319    0.8266    1.8640 H   0  0  0  0  0  0  0  0  0  0  0  0
    4.9344   -0.6351    1.9904 H   0  0  0  0  0  0  0  0  0  0  0  0
    3.7163   -0.2845    3.2590 H   0  0  0  0  0  0  0  0  0  0  0  0
    1.4581   -0.7433    1.9024 C   0  0  1  0  0  3  0  0  0  0  0  0
    0.4315   -1.7289    2.0546 C   0  0  0  0  0  3  0  0  0  0  0  0
    0.5056   -2.7688    1.7210 H   0  0  0  0  0  0  0  0  0  0  0  0
   -0.7219   -1.1579    2.6456 C   0  0  0  0  0  3  0  0  0  0  0  0
   -1.6592   -1.6759    2.8708 H   0  0  0  0  0  0  0  0  0  0  0  0
   -1.1953    1.2215    3.5895 C   0  0  0  0  0  0  0  0  0  0  0  0
   -2.2240    0.9974    3.9076 H   0  0  0  0  0  0  0  0  0  0  0  0
   -0.6291    2.4685    3.7981 C   0  0  0  0  0  0  0  0  0  0  0  0
   -1.2110    3.2603    4.2925 H   0  0  0  0  0  0  0  0  0  0  0  0
    0.7021    2.7441    3.3680 C   0  0  0  0  0  0  0  0  0  0  0  0
    1.1240    3.7453    3.5403 H   0  0  0  0  0  0  0  0  0  0  0  0
    1.4747    1.7897    2.7226 C   0  0  0  0  0  0  0  0  0  0  0  0
    2.4856    2.0465    2.3890 H   0  0  0  0  0  0  0  0  0  0  0  0
    0.9423    0.4797    2.5026 C   0  0  0  0  0  0  0  0  0  0  0  0
   -0.4160    0.2070    2.9610 C   0  0  0  0  0  0  0  0  0  0  0  0
  1 23  1  1  0  0  0
  2  9  1  0  0  0  0
  2  1  1  0  0  0  0
  3  2  1  0  0  0  0
  3  4  1  0  0  0  0
  3  1  1  0  0  0  0
  5  7  1  0  0  0  0
  5  6  1  0  0  0  0
  7  8  1  0  0  0  0
  9  1  1  0  0  0  0
  9 10  1  0  0  0  0
 11 19  1  0  0  0  0
 11  3  1  0  0  0  0
 11  2  1  0  0  0  0
 12 11  1  0  0  0  0
 13  5  1  0  0  0  0
 14 13  1  0  0  0  0
 15  5  1  0  0  0  0
 15  7  1  0  0  0  0
 16 15  1  0  0  0  0
 17 19  1  0  0  0  0
 17  7  1  0  0  0  0
 18 17  1  0  0  0  0
 19  9  1  0  0  0  0
 20 19  1  0  0  0  0
 21 13  1  0  0  0  0
 21 15  1  0  0  0  0
 21 17  1  0  0  0  0
 22 21  1  0  0  0  0
 23 24  1  0  0  0  0
 23 32  1  0  0  0  0
 23 28  1  0  0  0  0
 24 26  1  0  0  0  0
 25 24  1  0  0  0  0
 27 24  1  0  0  0  0
 28 31  1  0  0  0  0
 29 28  1  0  0  0  0
 30 28  1  0  0  0  0
 32 33  1  0  0  0  0
 32 45  1  0  0  0  0
 33 35  1  0  0  0  0
 34 33  1  0  0  0  0
 35 36  1  0  0  0  0
 35 46  1  0  0  0  0
 37 39  1  0  0  0  0
 37 38  1  0  0  0  0
 39 40  1  0  0  0  0
 41 42  1  0  0  0  0
 41 39  2  0  0  0  0
 43 41  1  0  0  0  0
 44 43  1  0  0  0  0
 45 43  2  0  0  0  0
 45 46  1  0  0  0  0
 46 37  2  0  0  0  0
M  END
