2
q = 0.0, confidence = 0.978

 44 44  0  0  1  0  0  0  0  0999 V2000
    1.4559   -1.3516    0.0006 N   0  0  0  0  0  0  0  0  0  0  0  0
    0.6430   -0.3191    0.3743 C   0  0  0  0  0  2  0  0  0  0  0  0
    1.4099    0.6854    0.8683 N   0  0  0  0  0  0  0  0  0  0  0  0
    2.7938    0.2657    1.0733 C   0  0  0  0  0  0  0  0  0  0  0  0
    2.9712    0.0595    2.1542 H   0  0  0  0  0  0  0  0  0  0  0  0
    3.5109    1.0502    0.7584 H   0  0  0  0  0  0  0  0  0  0  0  0
    2.8878   -0.9942    0.1982 C   0  0  2  0  0  0  0  0  0  0  0  0
    3.4012   -1.8072    0.7500 H   0  0  0  0  0  0  0  0  0  0  0  0
    1.0486   -2.7965   -0.0308 C   0  0  0  0  0  0  0  0  0  0  0  0
    0.9912   -3.3037    1.4250 C   0  0  0  0  0  0  0  0  0  0  0  0
    1.9764   -3.1925    1.9240 H   0  0  0  0  0  0  0  0  0  0  0  0
    0.7234   -4.3792    1.4498 H   0  0  0  0  0  0  0  0  0  0  0  0
    0.2350   -2.7294    1.9988 H   0  0  0  0  0  0  0  0  0  0  0  0
   -0.3176   -2.9767   -0.7024 C   0  0  0  0  0  0  0  0  0  0  0  0
   -1.1031   -2.3678   -0.2006 H   0  0  0  0  0  0  0  0  0  0  0  0
   -0.6090   -4.0439   -0.6438 H   0  0  0  0  0  0  0  0  0  0  0  0
   -0.2833   -2.6794   -1.7684 H   0  0  0  0  0  0  0  0  0  0  0  0
    2.0678   -3.6258   -0.8331 C   0  0  0  0  0  0  0  0  0  0  0  0
    2.1209   -3.2968   -1.8898 H   0  0  0  0  0  0  0  0  0  0  0  0
    1.7380   -4.6827   -0.8273 H   0  0  0  0  0  0  0  0  0  0  0  0
    3.0862   -3.6026   -0.3983 H   0  0  0  0  0  0  0  0  0  0  0  0
    0.8780    1.8260    1.6078 C   0  0  0  0  0  0  0  0  0  0  0  0
    0.8970    1.5774    2.6936 H   0  0  0  0  0  0  0  0  0  0  0  0
   -0.1940    1.9016    1.3284 H   0  0  0  0  0  0  0  0  0  0  0  0
    1.6227    3.1378    1.3554 C   0  0  0  0  0  0  0  0  0  0  0  0
    1.1977    3.8960    2.0484 H   0  0  0  0  0  0  0  0  0  0  0  0
    2.6895    3.0359    1.6595 H   0  0  0  0  0  0  0  0  0  0  0  0
    1.5471    3.6551   -0.0831 C   0  0  0  0  0  0  0  0  0  0  0  0
    0.4818    3.8291   -0.3491 H   0  0  0  0  0  0  0  0  0  0  0  0
    1.8980    2.8584   -0.7739 H   0  0  0  0  0  0  0  0  0  0  0  0
    2.3554    4.9318   -0.3117 C   0  0  0  0  0  0  0  0  0  0  0  0
    2.0070    5.7549    0.3469 H   0  0  0  0  0  0  0  0  0  0  0  0
    2.2761    5.2861   -1.3591 H   0  0  0  0  0  0  0  0  0  0  0  0
    3.4326    4.7721   -0.0937 H   0  0  0  0  0  0  0  0  0  0  0  0
    3.6375   -0.7710   -1.1428 C   0  0  0  0  0  0  0  0  0  0  0  0
    3.5287   -1.7150   -1.7132 H   0  0  0  0  0  0  0  0  0  0  0  0
    5.1353   -0.5593   -0.8927 C   0  0  0  0  0  0  0  0  0  0  0  0
    5.6880   -0.4850   -1.8505 H   0  0  0  0  0  0  0  0  0  0  0  0
    5.5765   -1.3960   -0.3121 H   0  0  0  0  0  0  0  0  0  0  0  0
    5.3308    0.3786   -0.3310 H   0  0  0  0  0  0  0  0  0  0  0  0
    3.0336    0.3488   -1.9950 C   0  0  0  0  0  0  0  0  0  0  0  0
    1.9455    0.2010   -2.1447 H   0  0  0  0  0  0  0  0  0  0  0  0
    3.5135    0.3788   -2.9936 H   0  0  0  0  0  0  0  0  0  0  0  0
    3.1831    1.3464   -1.5326 H   0  0  0  0  0  0  0  0  0  0  0  0
  1  7  1  0  0  0  0
  1  2  1  0  0  0  0
  2  3  1  0  0  0  0
  3  4  1  0  0  0  0
  3 22  1  0  0  0  0
  4  5  1  0  0  0  0
  6  4  1  0  0  0  0
  7  8  1  1  0  0  0
  7  4  1  0  0  0  0
  9  1  1  0  0  0  0
  9 10  1  0  0  0  0
 10 12  1  0  0  0  0
 10 11  1  0  0  0  0
 10 13  1  0  0  0  0
 14 16  1  0  0  0  0
 14 15  1  0  0  0  0
 14  9  1  0  0  0  0
 17 14  1  0  0  0  0
 18 20  1  0  0  0  0
 18 21  1  0  0  0  0
 18  9  1  0  0  0  0
 19 18  1  0  0  0  0
 22 23  1  0  0  0  0
 24 22  1  0  0  0  0
 25 22  1  0  0  0  0
 25 27  1  0  0  0  0
 25 26  1  0  0  0  0
 28 25  1  0  0  0  0
 29 28  1  0  0  0  0
 30 28  1  0  0  0  0
 31 34  1  0  0  0  0
 31 28  1  0  0  0  0
 31 32  1  0  0  0  0
 33 31  1  0  0  0  0
 35 37  1  0  0  0  0
 35  7  1  0  0  0  0
 36 35  1  0  0  0  0
 37 40  1  0  0  0  0
 37 39  1  0  0  0  0
 38 37  1  0  0  0  0
 41 44  1  0  0  0  0
 41 35  1  0  0  0  0
 42 41  1  0  0  0  0
 43 41  1  0  0  0  0
M  END
