13
q = 0.0, confidence = 0.994

 57 60  0  0  0  0  0  0  0  0999 V2000
    2.6869    2.6390    1.0115 O   0  0  0  0  0  0  0  0  0  0  0  0
    2.8289   -0.4737    1.4439 C   0  0  0  0  0  0  0  0  0  0  0  0
   -1.5823    2.4060    0.5577 C   0  0  0  0  0  0  0  0  0  0  0  0
   -2.8280   -0.4793    1.4434 C   0  0  0  0  0  0  0  0  0  0  0  0
   -1.2063    1.0363    0.3295 N   0  0  0  0  0  0  0  0  0  0  0  0
   -3.9395   -1.3300    1.3305 C   0  0  0  0  0  0  0  0  0  0  0  0
   -4.3063   -1.8393    2.2359 H   0  0  0  0  0  0  0  0  0  0  0  0
   -2.6902    2.6339    1.0151 O   0  0  0  0  0  0  0  0  0  0  0  0
    1.2049    1.0384    0.3291 N   0  0  0  0  0  0  0  0  0  0  0  0
   -3.0037   -0.0174   -0.9813 C   0  0  0  0  0  0  0  0  0  0  0  0
   -0.7090    5.8013   -0.7776 C   0  0  0  0  0  0  0  0  0  0  0  0
   -1.2660    6.6881   -1.1146 H   0  0  0  0  0  0  0  0  0  0  0  0
   -0.0002    0.4103    0.1552 C   0  0  0  0  0  2  0  0  0  0  0  0
   -4.5899   -1.5512    0.1021 C   0  0  0  0  0  0  0  0  0  0  0  0
    3.0038   -0.0137   -0.9812 C   0  0  0  0  0  0  0  0  0  0  0  0
    0.7023    3.5125    0.0766 C   0  0  0  0  0  0  0  0  0  0  0  0
    3.9417   -1.3231    1.3316 C   0  0  0  0  0  0  0  0  0  0  0  0
    4.3094   -1.8311    2.2373 H   0  0  0  0  0  0  0  0  0  0  0  0
    1.5788    2.4089    0.5559 C   0  0  0  0  0  0  0  0  0  0  0  0
    4.5921   -1.5445    0.1034 C   0  0  0  0  0  0  0  0  0  0  0  0
    1.3922    4.6772   -0.3309 C   0  0  0  0  0  0  0  0  0  0  0  0
    2.4900    4.6667   -0.2787 H   0  0  0  0  0  0  0  0  0  0  0  0
   -2.4711    0.6611   -2.2152 C   0  0  0  0  0  0  0  0  0  0  0  0
   -1.4476    0.2948   -2.4491 H   0  0  0  0  0  0  0  0  0  0  0  0
   -2.4041    1.7629   -2.0952 H   0  0  0  0  0  0  0  0  0  0  0  0
   -3.1136    0.4536   -3.0909 H   0  0  0  0  0  0  0  0  0  0  0  0
   -4.1116   -0.8791   -1.0373 C   0  0  0  0  0  0  0  0  0  0  0  0
   -4.6094   -1.0362   -2.0074 H   0  0  0  0  0  0  0  0  0  0  0  0
   -2.3709    0.1482    0.2676 C   0  0  0  0  0  0  0  0  0  0  0  0
   -5.7468   -2.5126    0.0049 C   0  0  0  0  0  0  0  0  0  0  0  0
   -6.4188   -2.2615   -0.8389 H   0  0  0  0  0  0  0  0  0  0  0  0
   -6.3469   -2.5264    0.9361 H   0  0  0  0  0  0  0  0  0  0  0  0
   -5.3805   -3.5481   -0.1634 H   0  0  0  0  0  0  0  0  0  0  0  0
   -0.7084    3.5113    0.0777 C   0  0  0  0  0  0  0  0  0  0  0  0
    2.3708    0.1521    0.2678 C   0  0  0  0  0  0  0  0  0  0  0  0
   -1.4009    4.6748   -0.3288 C   0  0  0  0  0  0  0  0  0  0  0  0
   -2.4986    4.6624   -0.2750 H   0  0  0  0  0  0  0  0  0  0  0  0
    0.6976    5.8025   -0.7787 C   0  0  0  0  0  0  0  0  0  0  0  0
    1.2527    6.6902   -1.1166 H   0  0  0  0  0  0  0  0  0  0  0  0
    2.1330   -0.2568    2.7589 C   0  0  0  0  0  0  0  0  0  0  0  0
    2.1022    0.8195    3.0254 H   0  0  0  0  0  0  0  0  0  0  0  0
    2.6455   -0.7993    3.5748 H   0  0  0  0  0  0  0  0  0  0  0  0
    1.0850   -0.6228    2.7154 H   0  0  0  0  0  0  0  0  0  0  0  0
    5.7500   -2.5045    0.0052 C   0  0  0  0  0  0  0  0  0  0  0  0
    6.4442   -2.2273   -0.8123 H   0  0  0  0  0  0  0  0  0  0  0  0
    5.3871   -3.5331   -0.2074 H   0  0  0  0  0  0  0  0  0  0  0  0
    6.3255   -2.5501    0.9506 H   0  0  0  0  0  0  0  0  0  0  0  0
    4.1127   -0.8739   -1.0367 C   0  0  0  0  0  0  0  0  0  0  0  0
    4.6106   -1.0311   -2.0067 H   0  0  0  0  0  0  0  0  0  0  0  0
   -2.1319   -0.2628    2.7584 C   0  0  0  0  0  0  0  0  0  0  0  0
   -2.1012    0.8134    3.0253 H   0  0  0  0  0  0  0  0  0  0  0  0
   -1.0838   -0.6286    2.7144 H   0  0  0  0  0  0  0  0  0  0  0  0
   -2.6440   -0.8059    3.5741 H   0  0  0  0  0  0  0  0  0  0  0  0
    2.4701    0.6633   -2.2155 C   0  0  0  0  0  0  0  0  0  0  0  0
    1.4470    0.2957   -2.4489 H   0  0  0  0  0  0  0  0  0  0  0  0
    3.1126    0.4558   -3.0912 H   0  0  0  0  0  0  0  0  0  0  0  0
    2.4020    1.7650   -2.0963 H   0  0  0  0  0  0  0  0  0  0  0  0
  2 40  1  0  0  0  0
  3  8  2  0  0  0  0
  4 50  1  0  0  0  0
  5  3  1  0  0  0  0
  6  4  1  0  0  0  0
  6  7  1  0  0  0  0
  9 19  1  0  0  0  0
 10 29  1  0  0  0  0
 11 36  1  0  0  0  0
 12 11  1  0  0  0  0
 13  9  1  0  0  0  0
 13  5  1  0  0  0  0
 14  6  2  0  0  0  0
 15 35  1  0  0  0  0
 16 34  1  0  0  0  0
 16 19  1  0  0  0  0
 17  2  1  0  0  0  0
 17 18  1  0  0  0  0
 19  1  2  0  0  0  0
 20 17  2  0  0  0  0
 21 22  1  0  0  0  0
 21 16  2  0  0  0  0
 23 25  1  0  0  0  0
 23 10  1  0  0  0  0
 24 23  1  0  0  0  0
 26 23  1  0  0  0  0
 27 10  2  0  0  0  0
 27 14  1  0  0  0  0
 28 27  1  0  0  0  0
 29  5  1  0  0  0  0
 29  4  2  0  0  0  0
 30 14  1  0  0  0  0
 30 32  1  0  0  0  0
 31 30  1  0  0  0  0
 33 30  1  0  0  0  0
 34  3  1  0  0  0  0
 35  9  1  0  0  0  0
 35  2  2  0  0  0  0
 36 37  1  0  0  0  0
 36 34  2  0  0  0  0
 38 11  2  0  0  0  0
 38 21  1  0  0  0  0
 39 38  1  0  0  0  0
 40 41  1  0  0  0  0
 40 42  1  0  0  0  0
 43 40  1  0  0  0  0
 44 20  1  0  0  0  0
 44 47  1  0  0  0  0
 45 44  1  0  0  0  0
 46 44  1  0  0  0  0
 48 15  2  0  0  0  0
 48 20  1  0  0  0  0
 49 48  1  0  0  0  0
 50 51  1  0  0  0  0
 50 53  1  0  0  0  0
 52 50  1  0  0  0  0
 54 57  1  0  0  0  0
 54 15  1  0  0  0  0
 55 54  1  0  0  0  0
 56 54  1  0  0  0  0
M  END
