9
q = 0.0, confidence = 0.934

 24 25  0  0  1  0  0  0  0  0999 V2000
    3.1664   -2.3060   -0.2347 Cl  0  0  0  0  0  0  0  0  0  0  0  0
    4.7750    0.3093    0.5147 O   0  0  0  0  0  0  0  0  0  0  0  0
    1.2850    1.2505    0.1672 C   0  0  2  0  0  0  0  0  0  0  0  0
    2.7555    1.7029    0.2419 C   0  0  0  0  0  0  0  0  0  0  0  0
    3.5833    0.4110    0.2832 C   0  0  0  0  0  0  0  0  0  0  0  0
    2.6315   -0.6779   -0.0525 C   0  0  0  0  0  0  0  0  0  0  0  0
    1.3507   -0.2137   -0.2096 C   0  0  0  0  0  0  0  0  0  0  0  0
    0.2146   -1.0457   -0.5881 C   0  0  0  0  0  3  0  0  0  0  0  0
   -0.6963   -0.8252   -1.6922 C   0  0  0  0  0  3  0  0  0  0  0  0
   -1.3249    0.4315   -1.8733 C   0  0  0  0  0  3  0  0  0  0  0  0
   -1.0402    1.5038   -0.9535 C   0  0  0  0  0  3  0  0  0  0  0  0
    0.3438    2.1077   -0.6902 C   0  0  1  0  0  0  0  0  0  0  0  0
    0.1928    3.5012   -0.0664 C   0  0  0  0  0  0  0  0  0  0  0  0
    0.8661    1.2707    1.1980 H   0  0  0  0  0  0  0  0  0  0  0  0
    3.0531    2.2621   -0.6718 H   0  0  0  0  0  0  0  0  0  0  0  0
    2.9989    2.3453    1.1099 H   0  0  0  0  0  0  0  0  0  0  0  0
    0.4267   -2.1155   -0.4167 H   0  0  0  0  0  0  0  0  0  0  0  0
   -1.0096   -1.6822   -2.3092 H   0  0  0  0  0  0  0  0  0  0  0  0
   -2.1337    0.5155   -2.6178 H   0  0  0  0  0  0  0  0  0  0  0  0
   -1.8145    2.2912   -0.9753 H   0  0  0  0  0  0  0  0  0  0  0  0
    0.8273    2.2219   -1.6892 H   0  0  0  0  0  0  0  0  0  0  0  0
    1.1763    3.9880    0.0829 H   0  0  0  0  0  0  0  0  0  0  0  0
   -0.3050    3.4290    0.9232 H   0  0  0  0  0  0  0  0  0  0  0  0
   -0.4193    4.1662   -0.7075 H   0  0  0  0  0  0  0  0  0  0  0  0
  1  6  1  0  0  0  0
  3  4  1  0  0  0  0
  3 14  1  1  0  0  0
  4  5  1  0  0  0  0
  4 16  1  0  0  0  0
  5  2  2  0  0  0  0
  6  5  1  0  0  0  0
  7  6  2  0  0  0  0
  7  3  1  0  0  0  0
  8 17  1  0  0  0  0
  8  7  1  0  0  0  0
  9  8  1  0  0  0  0
 10  9  1  0  0  0  0
 10 11  1  0  0  0  0
 11 12  1  0  0  0  0
 12 21  1  6  0  0  0
 12 13  1  0  0  0  0
 12  3  1  0  0  0  0
 13 22  1  0  0  0  0
 13 23  1  0  0  0  0
 15  4  1  0  0  0  0
 18  9  1  0  0  0  0
 19 10  1  0  0  0  0
 20 11  1  0  0  0  0
 24 13  1  0  0  0  0
M  END
