1
q = 0.0, confidence = 0.996

 32 33  0  0  1  0  0  0  0  0999 V2000
    2.0258   -0.2207   -0.3235 C   0  0  0  0  0  2  0  0  0  0  0  0
    2.0787   -2.3987    0.7437 N   0  0  2  0  0  0  0  0  0  0  0  0
    2.7155   -1.2959    0.1733 N   0  0  0  0  0  0  0  0  0  0  0  0
    3.0075    0.5505   -0.8590 N   0  0  0  0  0  0  0  0  0  0  0  0
    4.2444    0.0036   -0.7454 N   0  0  0  0  0  0  0  0  0  0  0  0
    4.0548   -1.1307   -0.1075 C   0  0  0  0  0  0  0  0  0  0  0  0
    2.8276    1.8703   -1.5657 C   0  0  0  0  0  0  0  0  0  0  0  0
    2.1150    2.8365   -0.6063 C   0  0  0  0  0  0  0  0  0  0  0  0
    1.0986    2.4780   -0.3446 H   0  0  0  0  0  0  0  0  0  0  0  0
    2.0117    3.8250   -1.0936 H   0  0  0  0  0  0  0  0  0  0  0  0
    2.6976    2.9697    0.3268 H   0  0  0  0  0  0  0  0  0  0  0  0
    4.2111    2.4125   -1.9381 C   0  0  0  0  0  0  0  0  0  0  0  0
    4.8425    2.5695   -1.0436 H   0  0  0  0  0  0  0  0  0  0  0  0
    4.0751    3.3854   -2.4478 H   0  0  0  0  0  0  0  0  0  0  0  0
    4.7491    1.7293   -2.6206 H   0  0  0  0  0  0  0  0  0  0  0  0
    1.9894    1.6206   -2.8300 C   0  0  0  0  0  0  0  0  0  0  0  0
    2.4886    0.8916   -3.4980 H   0  0  0  0  0  0  0  0  0  0  0  0
    1.8647    2.5707   -3.3843 H   0  0  0  0  0  0  0  0  0  0  0  0
    0.9805    1.2369   -2.5742 H   0  0  0  0  0  0  0  0  0  0  0  0
    1.6968   -2.2839    2.1942 C   0  0  0  0  0  0  0  0  0  0  0  0
    2.0019   -0.9959    2.9277 C   0  0  0  0  0  0  0  0  0  0  0  0
    3.0057   -0.5930    2.6943 H   0  0  0  0  0  0  0  0  0  0  0  0
    1.9550   -1.1729    4.0203 H   0  0  0  0  0  0  0  0  0  0  0  0
    1.2502   -0.2192    2.6756 H   0  0  0  0  0  0  0  0  0  0  0  0
    0.3514   -2.9047    2.4945 C   0  0  0  0  0  0  0  0  0  0  0  0
   -0.4612   -2.1793    2.2847 H   0  0  0  0  0  0  0  0  0  0  0  0
    0.2914   -3.1944    3.5627 H   0  0  0  0  0  0  0  0  0  0  0  0
    0.1786   -3.8040    1.8743 H   0  0  0  0  0  0  0  0  0  0  0  0
    2.8431   -3.1422    1.7582 C   0  0  0  0  0  0  0  0  0  0  0  0
    2.7435   -4.2370    1.6811 H   0  0  0  0  0  0  0  0  0  0  0  0
    3.8542   -2.7860    2.0189 H   0  0  0  0  0  0  0  0  0  0  0  0
    4.8394   -1.8519    0.1431 H   0  0  0  0  0  0  0  0  0  0  0  0
  1  3  1  0  0  0  0
  2  3  1  1  0  0  0
  2 29  1  0  0  0  0
  2 20  1  0  0  0  0
  4  5  1  0  0  0  0
  4  1  1  0  0  0  0
  5  6  2  0  0  0  0
  6 32  1  0  0  0  0
  6  3  1  0  0  0  0
  7  4  1  0  0  0  0
  7  8  1  0  0  0  0
  8  9  1  0  0  0  0
  8 11  1  0  0  0  0
 10  8  1  0  0  0  0
 12  7  1  0  0  0  0
 12 13  1  0  0  0  0
 14 12  1  0  0  0  0
 15 12  1  0  0  0  0
 16 19  1  0  0  0  0
 16  7  1  0  0  0  0
 17 16  1  0  0  0  0
 18 16  1  0  0  0  0
 20 25  1  0  0  0  0
 20 21  1  0  0  0  0
 21 23  1  0  0  0  0
 22 21  1  0  0  0  0
 24 21  1  0  0  0  0
 25 27  1  0  0  0  0
 26 25  1  0  0  0  0
 28 25  1  0  0  0  0
 29 31  1  0  0  0  0
 29 20  1  0  0  0  0
 30 29  1  0  0  0  0
M  END
