5
q = -1.0, confidence = 0.014

 65 65  0  0  0  0  0  0  0  0999 V2000
   -2.2646   -0.0729    0.0243 P   0  0  0  0  0  0  0  0  0  0  0  0
    2.2646   -0.0729   -0.0243 P   0  0  0  0  0  0  0  0  0  0  0  0
    2.3998    1.6329   -0.1299 O   0  0  0  0  0  0  0  0  0  0  0  0
   -2.3998    1.6329    0.1303 O   0  0  0  0  0  0  0  0  0  0  0  0
    0.0000    1.5576    0.0002 C   0  0  0  0  0  3  0  0  0  0  0  0
   -1.1997    2.3060    0.0729 C   0  0  0  0  0  0  0  0  0  0  0  0
   -1.2214    3.7112    0.0765 C   0  0  0  0  0  0  0  0  0  0  0  0
   -2.1814    4.2428    0.1349 H   0  0  0  0  0  0  0  0  0  0  0  0
    0.0000    4.4006    0.0003 C   0  0  0  0  0  0  0  0  0  0  0  0
    0.0000    5.5013    0.0004 H   0  0  0  0  0  0  0  0  0  0  0  0
    1.2214    3.7112   -0.0759 C   0  0  0  0  0  0  0  0  0  0  0  0
    2.1814    4.2428   -0.1343 H   0  0  0  0  0  0  0  0  0  0  0  0
    1.1997    2.3060   -0.0724 C   0  0  0  0  0  0  0  0  0  0  0  0
   -3.3116   -0.3154   -1.5569 C   0  0  0  0  0  0  0  0  0  0  0  0
   -2.3055   -0.1061   -2.7077 C   0  0  0  0  0  0  0  0  0  0  0  0
   -2.8316   -0.2158   -3.6803 H   0  0  0  0  0  0  0  0  0  0  0  0
   -1.4748   -0.8376   -2.6608 H   0  0  0  0  0  0  0  0  0  0  0  0
   -1.8551    0.9058   -2.6714 H   0  0  0  0  0  0  0  0  0  0  0  0
   -4.4357    0.7277   -1.6817 C   0  0  0  0  0  0  0  0  0  0  0  0
   -4.9185    0.6098   -2.6754 H   0  0  0  0  0  0  0  0  0  0  0  0
   -4.0422    1.7579   -1.6065 H   0  0  0  0  0  0  0  0  0  0  0  0
   -5.2208    0.6020   -0.9136 H   0  0  0  0  0  0  0  0  0  0  0  0
   -3.9067   -1.7306   -1.6322 C   0  0  0  0  0  0  0  0  0  0  0  0
   -4.3776   -1.8701   -2.6286 H   0  0  0  0  0  0  0  0  0  0  0  0
   -4.6956   -1.8937   -0.8718 H   0  0  0  0  0  0  0  0  0  0  0  0
   -3.1410   -2.5224   -1.5194 H   0  0  0  0  0  0  0  0  0  0  0  0
   -3.2034   -0.5234    1.6087 C   0  0  0  0  0  0  0  0  0  0  0  0
   -4.6218    0.0599    1.6627 C   0  0  0  0  0  0  0  0  0  0  0  0
   -5.0443   -0.1004    2.6779 H   0  0  0  0  0  0  0  0  0  0  0  0
   -5.3047   -0.4311    0.9421 H   0  0  0  0  0  0  0  0  0  0  0  0
   -4.6176    1.1490    1.4633 H   0  0  0  0  0  0  0  0  0  0  0  0
   -3.2311   -2.0532    1.7618 C   0  0  0  0  0  0  0  0  0  0  0  0
   -3.6631   -2.3118    2.7518 H   0  0  0  0  0  0  0  0  0  0  0  0
   -2.2119   -2.4842    1.7208 H   0  0  0  0  0  0  0  0  0  0  0  0
   -3.8495   -2.5497    0.9905 H   0  0  0  0  0  0  0  0  0  0  0  0
   -2.3441    0.0843    2.7370 C   0  0  0  0  0  0  0  0  0  0  0  0
   -2.7660   -0.2148    3.7199 H   0  0  0  0  0  0  0  0  0  0  0  0
   -2.3309    1.1901    2.6846 H   0  0  0  0  0  0  0  0  0  0  0  0
   -1.2943   -0.2699    2.6694 H   0  0  0  0  0  0  0  0  0  0  0  0
    3.2032   -0.5231   -1.6089 C   0  0  0  0  0  0  0  0  0  0  0  0
    2.3438    0.0849   -2.7370 C   0  0  0  0  0  0  0  0  0  0  0  0
    2.7656   -0.2139   -3.7200 H   0  0  0  0  0  0  0  0  0  0  0  0
    2.3306    1.1907   -2.6843 H   0  0  0  0  0  0  0  0  0  0  0  0
    1.2939   -0.2693   -2.6695 H   0  0  0  0  0  0  0  0  0  0  0  0
    4.6215    0.0600   -1.6629 C   0  0  0  0  0  0  0  0  0  0  0  0
    5.0440   -0.1000   -2.6782 H   0  0  0  0  0  0  0  0  0  0  0  0
    5.3045   -0.4312   -0.9425 H   0  0  0  0  0  0  0  0  0  0  0  0
    4.6174    1.1491   -1.4633 H   0  0  0  0  0  0  0  0  0  0  0  0
    3.2307   -2.0529   -1.7623 C   0  0  0  0  0  0  0  0  0  0  0  0
    3.6625   -2.3113   -2.7525 H   0  0  0  0  0  0  0  0  0  0  0  0
    2.2114   -2.4838   -1.7212 H   0  0  0  0  0  0  0  0  0  0  0  0
    3.8492   -2.5496   -0.9912 H   0  0  0  0  0  0  0  0  0  0  0  0
    3.3119   -0.3157    1.5566 C   0  0  0  0  0  0  0  0  0  0  0  0
    4.4360    0.7274    1.6814 C   0  0  0  0  0  0  0  0  0  0  0  0
    4.9190    0.6093    2.6750 H   0  0  0  0  0  0  0  0  0  0  0  0
    4.0424    1.7576    1.6065 H   0  0  0  0  0  0  0  0  0  0  0  0
    5.2209    0.6019    0.9131 H   0  0  0  0  0  0  0  0  0  0  0  0
    3.9072   -1.7309    1.6314 C   0  0  0  0  0  0  0  0  0  0  0  0
    4.3783   -1.8706    2.6277 H   0  0  0  0  0  0  0  0  0  0  0  0
    4.6959   -1.8938    0.8709 H   0  0  0  0  0  0  0  0  0  0  0  0
    3.1415   -2.5228    1.5187 H   0  0  0  0  0  0  0  0  0  0  0  0
    2.3060   -0.1068    2.7077 C   0  0  0  0  0  0  0  0  0  0  0  0
    2.8323   -0.2166    3.6801 H   0  0  0  0  0  0  0  0  0  0  0  0
    1.4753   -0.8383    2.6608 H   0  0  0  0  0  0  0  0  0  0  0  0
    1.8556    0.9051    2.6717 H   0  0  0  0  0  0  0  0  0  0  0  0
  1  4  1  0  0  0  0
  1 27  1  0  0  0  0
  2 53  1  0  0  0  0
  3 13  1  0  0  0  0
  3  2  1  0  0  0  0
  5  6  1  0  0  0  0
  6  7  2  0  0  0  0
  6  4  1  0  0  0  0
  7  8  1  0  0  0  0
  9 10  1  0  0  0  0
  9  7  1  0  0  0  0
 11 13  1  0  0  0  0
 11  9  2  0  0  0  0
 12 11  1  0  0  0  0
 13  5  2  0  0  0  0
 14  1  1  0  0  0  0
 15 18  1  0  0  0  0
 15 17  1  0  0  0  0
 15 14  1  0  0  0  0
 16 15  1  0  0  0  0
 19 21  1  0  0  0  0
 19 14  1  0  0  0  0
 19 22  1  0  0  0  0
 20 19  1  0  0  0  0
 23 14  1  0  0  0  0
 23 26  1  0  0  0  0
 23 25  1  0  0  0  0
 24 23  1  0  0  0  0
 27 28  1  0  0  0  0
 27 32  1  0  0  0  0
 27 36  1  0  0  0  0
 28 29  1  0  0  0  0
 30 28  1  0  0  0  0
 31 28  1  0  0  0  0
 32 33  1  0  0  0  0
 34 32  1  0  0  0  0
 35 32  1  0  0  0  0
 36 37  1  0  0  0  0
 38 36  1  0  0  0  0
 39 36  1  0  0  0  0
 40  2  1  0  0  0  0
 41 43  1  0  0  0  0
 41 44  1  0  0  0  0
 41 40  1  0  0  0  0
 42 41  1  0  0  0  0
 45 40  1  0  0  0  0
 45 48  1  0  0  0  0
 45 47  1  0  0  0  0
 46 45  1  0  0  0  0
 49 51  1  0  0  0  0
 49 40  1  0  0  0  0
 49 52  1  0  0  0  0
 50 49  1  0  0  0  0
 53 58  1  0  0  0  0
 53 54  1  0  0  0  0
 53 62  1  0  0  0  0
 54 55  1  0  0  0  0
 56 54  1  0  0  0  0
 57 54  1  0  0  0  0
 58 59  1  0  0  0  0
 60 58  1  0  0  0  0
 61 58  1  0  0  0  0
 62 63  1  0  0  0  0
 64 62  1  0  0  0  0
 65 62  1  0  0  0  0
M  END
