28
q = 0.0, confidence = 0.888

 44 47  0  0  1  0  0  0  0  0999 V2000
    0.0984   -0.2917    1.1673 N   0  0  0  0  0  0  0  0  0  0  0  0
    2.0870   -1.2158    0.8216 N   0  0  0  0  0  0  0  0  0  0  0  0
    0.7716    1.5876    2.9471 F   0  0  0  0  0  0  0  0  0  0  0  0
    2.3570   -1.0192   -1.9617 F   0  0  0  0  0  0  0  0  0  0  0  0
    4.3065   -2.0067    2.2199 F   0  0  0  0  0  0  0  0  0  0  0  0
    1.3265   -0.1152    0.6508 C   0  0  2  0  0  3  0  0  0  0  0  0
    0.0288   -1.5644    1.9160 C   0  0  0  0  0  0  0  0  0  0  0  0
   -0.9000   -2.1078    1.6578 H   0  0  0  0  0  0  0  0  0  0  0  0
    0.0127   -1.3293    3.0006 H   0  0  0  0  0  0  0  0  0  0  0  0
    1.3132   -2.2929    1.4852 C   0  0  0  0  0  0  0  0  0  0  0  0
    1.8883   -2.7101    2.3327 H   0  0  0  0  0  0  0  0  0  0  0  0
    1.1229   -3.0943    0.7433 H   0  0  0  0  0  0  0  0  0  0  0  0
    1.7883    1.1140    0.0106 C   0  0  0  0  0  0  0  0  0  0  0  0
    3.0792    1.6113    0.2948 C   0  0  0  0  0  0  0  0  0  0  0  0
    3.7268    1.0874    1.0119 H   0  0  0  0  0  0  0  0  0  0  0  0
    3.5161    2.7942   -0.3071 C   0  0  0  0  0  0  0  0  0  0  0  0
    4.5173    3.1829   -0.0672 H   0  0  0  0  0  0  0  0  0  0  0  0
    2.6968    3.5025   -1.2131 C   0  0  0  0  0  0  0  0  0  0  0  0
    1.4108    2.9864   -1.4922 C   0  0  0  0  0  0  0  0  0  0  0  0
    0.7562    3.5129   -2.2035 H   0  0  0  0  0  0  0  0  0  0  0  0
    0.9524    1.8170   -0.8854 C   0  0  0  0  0  0  0  0  0  0  0  0
   -0.0466    1.4303   -1.1229 H   0  0  0  0  0  0  0  0  0  0  0  0
    3.1631    4.7824   -1.8488 C   0  0  0  0  0  0  0  0  0  0  0  0
    2.9026    4.8176   -2.9253 H   0  0  0  0  0  0  0  0  0  0  0  0
    4.2557    4.9215   -1.7456 H   0  0  0  0  0  0  0  0  0  0  0  0
    2.6681    5.6553   -1.3718 H   0  0  0  0  0  0  0  0  0  0  0  0
   -0.8351    0.7647    1.4162 C   0  0  0  0  0  0  0  0  0  0  0  0
   -2.0919    0.8410    0.7726 C   0  0  0  0  0  3  0  0  0  0  0  0
   -2.8929    1.9589    1.1126 C   0  0  0  0  0  0  0  0  0  0  0  0
   -3.8679    2.0931    0.6219 H   0  0  0  0  0  0  0  0  0  0  0  0
   -2.4830    2.9237    2.0457 C   0  0  0  0  0  0  0  0  0  0  0  0
   -3.1422    3.7753    2.2720 H   0  0  0  0  0  0  0  0  0  0  0  0
   -1.2407    2.8229    2.6893 C   0  0  0  0  0  0  0  0  0  0  0  0
   -0.8905    3.5611    3.4236 H   0  0  0  0  0  0  0  0  0  0  0  0
   -0.4359    1.7357    2.3629 C   0  0  0  0  0  0  0  0  0  0  0  0
    3.3036   -1.4947    0.1509 C   0  0  0  0  0  0  0  0  0  0  0  0
    3.4250   -1.4064   -1.2534 C   0  0  0  0  0  0  0  0  0  0  0  0
    4.6270   -1.7045   -1.8990 C   0  0  0  0  0  0  0  0  0  0  0  0
    4.6799   -1.6147   -2.9927 H   0  0  0  0  0  0  0  0  0  0  0  0
    5.7258   -2.1239   -1.1333 C   0  0  0  0  0  0  0  0  0  0  0  0
    6.6727   -2.3673   -1.6362 H   0  0  0  0  0  0  0  0  0  0  0  0
    5.6368   -2.2419    0.2627 C   0  0  0  0  0  0  0  0  0  0  0  0
    6.4870   -2.5690    0.8767 H   0  0  0  0  0  0  0  0  0  0  0  0
    4.4296   -1.9211    0.8853 C   0  0  0  0  0  0  0  0  0  0  0  0
  1 27  1  0  0  0  0
  1  7  1  0  0  0  0
  2 10  1  0  0  0  0
  4 37  1  0  0  0  0
  6 13  1  1  0  0  0
  6  2  1  0  0  0  0
  6  1  1  0  0  0  0
  7  9  1  0  0  0  0
  8  7  1  0  0  0  0
 10  7  1  0  0  0  0
 10 11  1  0  0  0  0
 12 10  1  0  0  0  0
 13 14  1  0  0  0  0
 14 15  1  0  0  0  0
 16 17  1  0  0  0  0
 16 14  2  0  0  0  0
 18 16  1  0  0  0  0
 19 18  2  0  0  0  0
 19 21  1  0  0  0  0
 20 19  1  0  0  0  0
 21 13  2  0  0  0  0
 22 21  1  0  0  0  0
 23 25  1  0  0  0  0
 23 26  1  0  0  0  0
 23 18  1  0  0  0  0
 24 23  1  0  0  0  0
 27 35  1  0  0  0  0
 28 29  1  0  0  0  0
 28 27  2  0  0  0  0
 29 31  2  0  0  0  0
 30 29  1  0  0  0  0
 31 32  1  0  0  0  0
 31 33  1  0  0  0  0
 33 34  1  0  0  0  0
 35 33  2  0  0  0  0
 35  3  1  0  0  0  0
 36  2  1  0  0  0  0
 36 44  1  0  0  0  0
 37 36  2  0  0  0  0
 38 37  1  0  0  0  0
 38 40  2  0  0  0  0
 39 38  1  0  0  0  0
 40 42  1  0  0  0  0
 41 40  1  0  0  0  0
 42 43  1  0  0  0  0
 42 44  2  0  0  0  0
 44  5  1  0  0  0  0
M  END
