5
q = 0.0, confidence = 0.85

 31 33  0  0  1  0  0  0  0  0999 V2000
   -0.0000   -1.6415    0.0677 P   0  0  2  0  0  0  0  0  0  0  0  0
    0.0000   -1.5010    1.4979 H   0  0  0  0  0  0  0  0  0  0  0  0
   -0.0000   -3.1202   -0.3211 O   0  0  0  0  0  0  0  0  0  0  0  0
   -1.2669   -0.4750   -0.5263 C   0  0  1  0  0  3  0  0  0  0  0  0
   -0.7137    0.2810   -1.6329 C   0  0  0  0  0  3  0  0  0  0  0  0
   -1.3228    0.7524   -2.4174 H   0  0  0  0  0  0  0  0  0  0  0  0
    0.7137    0.2810   -1.6329 C   0  0  0  0  0  3  0  0  0  0  0  0
    1.3228    0.7524   -2.4174 H   0  0  0  0  0  0  0  0  0  0  0  0
    1.2669   -0.4750   -0.5263 C   0  0  2  0  0  3  0  0  0  0  0  0
   -2.7082   -0.6757   -0.2980 C   0  0  0  0  0  0  0  0  0  0  0  0
   -3.1778   -1.8972    0.2503 C   0  0  0  0  0  0  0  0  0  0  0  0
   -2.4482   -2.6956    0.4607 H   0  0  0  0  0  0  0  0  0  0  0  0
   -4.5440   -2.1155    0.4724 C   0  0  0  0  0  0  0  0  0  0  0  0
   -4.8753   -3.0757    0.8996 H   0  0  0  0  0  0  0  0  0  0  0  0
   -5.4877   -1.1297    0.1402 C   0  0  0  0  0  0  0  0  0  0  0  0
   -6.5617   -1.3016    0.3140 H   0  0  0  0  0  0  0  0  0  0  0  0
   -5.0404    0.0791   -0.4202 C   0  0  0  0  0  0  0  0  0  0  0  0
   -5.7655    0.8660   -0.6835 H   0  0  0  0  0  0  0  0  0  0  0  0
   -3.6749    0.3048   -0.6351 C   0  0  0  0  0  0  0  0  0  0  0  0
   -3.3462    1.2718   -1.0408 H   0  0  0  0  0  0  0  0  0  0  0  0
    2.7082   -0.6757   -0.2980 C   0  0  0  0  0  0  0  0  0  0  0  0
    3.1778   -1.8972    0.2504 C   0  0  0  0  0  0  0  0  0  0  0  0
    2.4482   -2.6956    0.4609 H   0  0  0  0  0  0  0  0  0  0  0  0
    4.5439   -2.1154    0.4725 C   0  0  0  0  0  0  0  0  0  0  0  0
    4.8753   -3.0756    0.8998 H   0  0  0  0  0  0  0  0  0  0  0  0
    5.4877   -1.1297    0.1403 C   0  0  0  0  0  0  0  0  0  0  0  0
    6.5617   -1.3016    0.3141 H   0  0  0  0  0  0  0  0  0  0  0  0
    5.0404    0.0791   -0.4203 C   0  0  0  0  0  0  0  0  0  0  0  0
    5.7655    0.8659   -0.6836 H   0  0  0  0  0  0  0  0  0  0  0  0
    3.6749    0.3047   -0.6352 C   0  0  0  0  0  0  0  0  0  0  0  0
    3.3462    1.2717   -1.0410 H   0  0  0  0  0  0  0  0  0  0  0  0
  1  2  1  1  0  0  0
  3  1  2  0  0  0  0
  4 10  1  6  0  0  0
  4  1  1  0  0  0  0
  5  4  1  0  0  0  0
  6  5  1  0  0  0  0
  7  5  1  0  0  0  0
  7  9  1  0  0  0  0
  8  7  1  0  0  0  0
  9 21  1  6  0  0  0
  9  1  1  0  0  0  0
 10 11  1  0  0  0  0
 11 12  1  0  0  0  0
 11 13  2  0  0  0  0
 13 14  1  0  0  0  0
 15 16  1  0  0  0  0
 15 13  1  0  0  0  0
 17 15  2  0  0  0  0
 18 17  1  0  0  0  0
 19 17  1  0  0  0  0
 19 10  2  0  0  0  0
 20 19  1  0  0  0  0
 21 22  1  0  0  0  0
 22 23  1  0  0  0  0
 22 24  2  0  0  0  0
 24 25  1  0  0  0  0
 26 27  1  0  0  0  0
 26 24  1  0  0  0  0
 28 26  2  0  0  0  0
 29 28  1  0  0  0  0
 30 28  1  0  0  0  0
 30 21  2  0  0  0  0
 31 30  1  0  0  0  0
M  END
