7
q = 0.0, confidence = 0.98

 54 54  0  0  1  0  0  0  0  0999 V2000
    1.8982   -1.9110    0.6624 Si  0  0  0  0  0  0  0  0  0  0  0  0
    1.1155   -0.3878    0.3841 O   0  0  0  0  0  0  0  0  0  0  0  0
   -3.9656    1.6347    1.4144 O   0  0  0  0  0  0  0  0  0  0  0  0
    4.8805    2.6011    1.4378 N   0  0  0  0  0  0  0  0  0  0  0  0
   -0.1305    0.0532    0.6185 C   0  0  0  0  0  0  0  0  0  0  0  0
   -0.5439    1.2472   -0.0774 C   0  0  1  0  0  3  0  0  0  0  0  0
   -1.8417    1.7679    0.1752 C   0  0  0  0  0  3  0  0  0  0  0  0
   -2.1515    2.6688   -0.3697 H   0  0  0  0  0  0  0  0  0  0  0  0
   -2.7421    1.1410    1.0964 C   0  0  0  0  0  0  0  0  0  0  0  0
   -2.3766   -0.0933    1.7070 C   0  0  0  0  0  0  0  0  0  0  0  0
   -1.0596   -0.6097    1.4625 C   0  0  0  0  0  0  0  0  0  0  0  0
   -0.7739   -1.5582    1.9359 H   0  0  0  0  0  0  0  0  0  0  0  0
    0.7818   -3.3212    0.1106 C   0  0  0  0  0  0  0  0  0  0  0  0
   -0.1011   -3.4652    0.7631 H   0  0  0  0  0  0  0  0  0  0  0  0
    0.4164   -3.1518   -0.9210 H   0  0  0  0  0  0  0  0  0  0  0  0
    1.3623   -4.2674    0.1183 H   0  0  0  0  0  0  0  0  0  0  0  0
    2.2973   -1.9959    2.5014 C   0  0  0  0  0  0  0  0  0  0  0  0
    1.3805   -1.9310    3.1215 H   0  0  0  0  0  0  0  0  0  0  0  0
    2.8031   -2.9511    2.7499 H   0  0  0  0  0  0  0  0  0  0  0  0
    2.9678   -1.1640    2.7976 H   0  0  0  0  0  0  0  0  0  0  0  0
    3.4666   -1.7769   -0.4189 C   0  0  0  0  0  0  0  0  0  0  0  0
    4.1257   -0.4016   -0.2088 C   0  0  0  0  0  0  0  0  0  0  0  0
    5.0653   -0.3315   -0.7999 H   0  0  0  0  0  0  0  0  0  0  0  0
    3.4587    0.4184   -0.5390 H   0  0  0  0  0  0  0  0  0  0  0  0
    4.3911   -0.1993    0.8488 H   0  0  0  0  0  0  0  0  0  0  0  0
    3.0820   -1.9476   -1.9019 C   0  0  0  0  0  0  0  0  0  0  0  0
    3.9761   -1.8000   -2.5472 H   0  0  0  0  0  0  0  0  0  0  0  0
    2.6859   -2.9614   -2.1153 H   0  0  0  0  0  0  0  0  0  0  0  0
    2.3089   -1.2205   -2.2235 H   0  0  0  0  0  0  0  0  0  0  0  0
    4.4440   -2.8944   -0.0021 C   0  0  0  0  0  0  0  0  0  0  0  0
    5.3467   -2.8744   -0.6517 H   0  0  0  0  0  0  0  0  0  0  0  0
    4.7911   -2.7757    1.0449 H   0  0  0  0  0  0  0  0  0  0  0  0
    3.9953   -3.9057   -0.1011 H   0  0  0  0  0  0  0  0  0  0  0  0
    0.4305    1.9494   -0.9864 C   0  0  0  0  0  0  0  0  0  0  0  0
   -0.1271    2.5942   -1.6969 H   0  0  0  0  0  0  0  0  0  0  0  0
    0.9664    1.1905   -1.5916 H   0  0  0  0  0  0  0  0  0  0  0  0
    1.4573    2.7740   -0.1927 C   0  0  0  0  0  0  0  0  0  0  0  0
    1.9309    2.1137    0.5643 H   0  0  0  0  0  0  0  0  0  0  0  0
    0.9357    3.5758    0.3751 H   0  0  0  0  0  0  0  0  0  0  0  0
    2.5460    3.3852   -1.0754 C   0  0  0  0  0  0  0  0  0  0  0  0
    2.1001    4.0853   -1.8135 H   0  0  0  0  0  0  0  0  0  0  0  0
    3.0407    2.5838   -1.6648 H   0  0  0  0  0  0  0  0  0  0  0  0
    3.6179    4.1545   -0.2765 C   0  0  0  0  0  0  0  0  0  0  0  0
    3.1533    4.9929    0.2866 H   0  0  0  0  0  0  0  0  0  0  0  0
    4.3631    4.6111   -0.9614 H   0  0  0  0  0  0  0  0  0  0  0  0
    4.3338    3.3086    0.6809 C   0  0  0  0  0  0  0  0  0  0  0  0
   -4.5076    2.6816    0.6209 C   0  0  0  0  0  0  0  0  0  0  0  0
   -5.5257    2.8658    1.0097 H   0  0  0  0  0  0  0  0  0  0  0  0
   -3.9163    3.6192    0.7133 H   0  0  0  0  0  0  0  0  0  0  0  0
   -4.5737    2.3869   -0.4480 H   0  0  0  0  0  0  0  0  0  0  0  0
   -3.3265   -0.8018    2.6311 C   0  0  0  0  0  0  0  0  0  0  0  0
   -3.2120   -0.4277    3.6708 H   0  0  0  0  0  0  0  0  0  0  0  0
   -4.3736   -0.6247    2.3260 H   0  0  0  0  0  0  0  0  0  0  0  0
   -3.1353   -1.8916    2.6324 H   0  0  0  0  0  0  0  0  0  0  0  0
  1 17  1  0  0  0  0
  2  5  1  0  0  0  0
  2  1  1  0  0  0  0
  5 11  2  0  0  0  0
  6 34  1  1  0  0  0
  6  7  1  0  0  0  0
  6  5  1  0  0  0  0
  7  9  1  0  0  0  0
  8  7  1  0  0  0  0
  9  3  1  0  0  0  0
  9 10  2  0  0  0  0
 10 51  1  0  0  0  0
 11 10  1  0  0  0  0
 11 12  1  0  0  0  0
 13 16  1  0  0  0  0
 13  1  1  0  0  0  0
 13 14  1  0  0  0  0
 15 13  1  0  0  0  0
 17 19  1  0  0  0  0
 17 20  1  0  0  0  0
 17 18  1  0  0  0  0
 21 22  1  0  0  0  0
 21 30  1  0  0  0  0
 21  1  1  0  0  0  0
 22 25  1  0  0  0  0
 23 22  1  0  0  0  0
 24 22  1  0  0  0  0
 26 21  1  0  0  0  0
 27 26  1  0  0  0  0
 28 26  1  0  0  0  0
 29 26  1  0  0  0  0
 30 32  1  0  0  0  0
 31 30  1  0  0  0  0
 33 30  1  0  0  0  0
 34 37  1  0  0  0  0
 35 34  1  0  0  0  0
 36 34  1  0  0  0  0
 37 39  1  0  0  0  0
 37 38  1  0  0  0  0
 40 43  1  0  0  0  0
 40 37  1  0  0  0  0
 41 40  1  0  0  0  0
 42 40  1  0  0  0  0
 43 44  1  0  0  0  0
 43 46  1  0  0  0  0
 45 43  1  0  0  0  0
 46  4  3  0  0  0  0
 47 49  1  0  0  0  0
 47 48  1  0  0  0  0
 47  3  1  0  0  0  0
 50 47  1  0  0  0  0
 51 54  1  0  0  0  0
 51 52  1  0  0  0  0
 53 51  1  0  0  0  0
M  END
