7
q = 0.0, confidence = 1.0

 33 33  0  0  0  0  0  0  0  0999 V2000
    3.7248    0.9488   -1.2966 O   0  0  0  0  0  0  0  0  0  0  0  0
    2.4184   -2.0525    1.5151 N   0  0  0  0  0  0  0  0  0  0  0  0
    3.5354   -2.6578    1.0203 N   0  0  0  0  0  0  0  0  0  0  0  0
    2.4613   -1.5164   -0.5429 N   0  0  0  0  0  0  0  0  0  0  0  0
    1.5456    1.5202   -1.8178 N   0  0  0  0  0  0  0  0  0  0  0  0
    0.6355    1.1198   -2.0865 H   0  0  0  0  0  0  0  0  0  0  0  0
    1.7277   -1.3353    0.6005 C   0  0  0  0  0  2  0  0  0  0  0  0
    3.5520   -2.2981   -0.2432 C   0  0  0  0  0  0  0  0  0  0  0  0
    4.3262   -2.5739   -0.9681 H   0  0  0  0  0  0  0  0  0  0  0  0
    2.0495   -2.2889    2.9117 C   0  0  0  0  0  0  0  0  0  0  0  0
    1.3379   -1.4845    3.1834 H   0  0  0  0  0  0  0  0  0  0  0  0
    2.9702   -2.1534    3.5122 H   0  0  0  0  0  0  0  0  0  0  0  0
    1.4475   -3.6737    3.1187 C   0  0  0  0  0  0  0  0  0  0  0  0
    0.5146   -3.7941    2.5318 H   0  0  0  0  0  0  0  0  0  0  0  0
    1.2087   -3.8269    4.1889 H   0  0  0  0  0  0  0  0  0  0  0  0
    2.1638   -4.4593    2.8090 H   0  0  0  0  0  0  0  0  0  0  0  0
    2.1957   -0.8321   -1.8040 C   0  0  0  0  0  0  0  0  0  0  0  0
    1.1350   -0.9802   -2.0806 H   0  0  0  0  0  0  0  0  0  0  0  0
    2.8458   -1.2746   -2.5817 H   0  0  0  0  0  0  0  0  0  0  0  0
    2.5784    0.6562   -1.6292 C   0  0  0  0  0  0  0  0  0  0  0  0
    1.6540    2.9917   -1.6634 C   0  0  0  0  0  0  0  0  0  0  0  0
    2.6576    3.5482   -2.6899 C   0  0  0  0  0  0  0  0  0  0  0  0
    3.6570    3.1020   -2.5308 H   0  0  0  0  0  0  0  0  0  0  0  0
    2.7424    4.6477   -2.5851 H   0  0  0  0  0  0  0  0  0  0  0  0
    2.3267    3.3218   -3.7232 H   0  0  0  0  0  0  0  0  0  0  0  0
    0.2570    3.5729   -1.9206 C   0  0  0  0  0  0  0  0  0  0  0  0
   -0.1264    3.2814   -2.9204 H   0  0  0  0  0  0  0  0  0  0  0  0
    0.2933    4.6783   -1.8817 H   0  0  0  0  0  0  0  0  0  0  0  0
   -0.4590    3.2364   -1.1415 H   0  0  0  0  0  0  0  0  0  0  0  0
    2.1000    3.3275   -0.2275 C   0  0  0  0  0  0  0  0  0  0  0  0
    1.3702    2.9266    0.5079 H   0  0  0  0  0  0  0  0  0  0  0  0
    2.1625    4.4253   -0.0928 H   0  0  0  0  0  0  0  0  0  0  0  0
    3.0920    2.8868   -0.0173 H   0  0  0  0  0  0  0  0  0  0  0  0
  2 10  1  0  0  0  0
  3  2  1  0  0  0  0
  4  8  1  0  0  0  0
  4  7  1  0  0  0  0
  5 21  1  0  0  0  0
  5 20  1  0  0  0  0
  6  5  1  0  0  0  0
  7  2  1  0  0  0  0
  8  3  2  0  0  0  0
  9  8  1  0  0  0  0
 10 13  1  0  0  0  0
 10 11  1  0  0  0  0
 10 12  1  0  0  0  0
 13 15  1  0  0  0  0
 14 13  1  0  0  0  0
 16 13  1  0  0  0  0
 17 20  1  0  0  0  0
 17  4  1  0  0  0  0
 18 17  1  0  0  0  0
 19 17  1  0  0  0  0
 20  1  2  0  0  0  0
 21 30  1  0  0  0  0
 22 24  1  0  0  0  0
 22 23  1  0  0  0  0
 22 21  1  0  0  0  0
 25 22  1  0  0  0  0
 26 28  1  0  0  0  0
 26 21  1  0  0  0  0
 26 29  1  0  0  0  0
 27 26  1  0  0  0  0
 30 32  1  0  0  0  0
 30 33  1  0  0  0  0
 30 31  1  0  0  0  0
M  END
