3
q = -1.0, confidence = 0.0

 13 12  0  0  0  0  0  0  0  0999 V2000
    4.0989   -0.6544    0.0000 N   0  0  0  0  0  0  0  0  0  0  0  0
    3.1152    1.4278    0.0010 O   0  0  0  0  0  0  0  0  0  0  0  0
    0.4545   -0.5817   -0.0014 C   0  0  0  0  0  3  0  0  0  0  0  0
    1.6901   -0.4206   -0.0009 C   0  0  0  0  0  0  0  0  0  0  0  0
    2.9990    0.1844    0.0002 C   0  0  0  0  0  0  0  0  0  0  0  0
    3.9831   -2.0944   -0.0010 C   0  0  0  0  0  0  0  0  0  0  0  0
    2.9098   -2.3674   -0.0015 H   0  0  0  0  0  0  0  0  0  0  0  0
    4.4661   -2.5388    0.8985 H   0  0  0  0  0  0  0  0  0  0  0  0
    4.4665   -2.5376   -0.9009 H   0  0  0  0  0  0  0  0  0  0  0  0
    5.4275   -0.0838    0.0008 C   0  0  0  0  0  0  0  0  0  0  0  0
    5.3251    1.0170    0.0014 H   0  0  0  0  0  0  0  0  0  0  0  0
    6.0010   -0.4014   -0.8989 H   0  0  0  0  0  0  0  0  0  0  0  0
    6.0004   -0.4024    0.9005 H   0  0  0  0  0  0  0  0  0  0  0  0
  1  5  1  0  0  0  0
  1 10  1  0  0  0  0
  3  4  3  0  0  0  0
  4  5  1  0  0  0  0
  5  2  2  0  0  0  0
  6  1  1  0  0  0  0
  6  8  1  0  0  0  0
  7  6  1  0  0  0  0
  9  6  1  0  0  0  0
 10 11  1  0  0  0  0
 10 13  1  0  0  0  0
 12 10  1  0  0  0  0
M  END
