1
q = -1.0, confidence = 0.0

 49 51  0  0  0  0  0  0  0  0999 V2000
    0.2123   -1.6223    0.0651 C   0  0  0  0  0  3  0  0  0  0  0  0
   -0.9352   -2.4389    0.2309 C   0  0  0  0  0  0  0  0  0  0  0  0
   -2.2609   -1.7399    0.2208 C   0  0  0  0  0  0  0  0  0  0  0  0
   -2.6690   -0.9719    1.3429 C   0  0  0  0  0  0  0  0  0  0  0  0
   -1.8143   -0.9155    2.5846 C   0  0  0  0  0  0  0  0  0  0  0  0
   -0.8592   -0.3846    2.3740 H   0  0  0  0  0  0  0  0  0  0  0  0
   -1.5216   -1.9298    2.9231 H   0  0  0  0  0  0  0  0  0  0  0  0
   -2.3340   -0.3959    3.4130 H   0  0  0  0  0  0  0  0  0  0  0  0
   -3.8775   -0.2506    1.2810 C   0  0  0  0  0  0  0  0  0  0  0  0
   -4.1923    0.3359    2.1607 H   0  0  0  0  0  0  0  0  0  0  0  0
   -4.6970   -0.2672    0.1391 C   0  0  0  0  0  0  0  0  0  0  0  0
   -5.9707    0.5393    0.0745 C   0  0  0  0  0  0  0  0  0  0  0  0
   -6.2832    0.8920    1.0769 H   0  0  0  0  0  0  0  0  0  0  0  0
   -6.8060   -0.0487   -0.3575 H   0  0  0  0  0  0  0  0  0  0  0  0
   -5.8459    1.4371   -0.5697 H   0  0  0  0  0  0  0  0  0  0  0  0
   -4.2756   -1.0366   -0.9617 C   0  0  0  0  0  0  0  0  0  0  0  0
   -4.8981   -1.0614   -1.8719 H   0  0  0  0  0  0  0  0  0  0  0  0
   -3.0743   -1.7681   -0.9429 C   0  0  0  0  0  0  0  0  0  0  0  0
   -2.6270   -2.5356   -2.1623 C   0  0  0  0  0  0  0  0  0  0  0  0
   -2.5272   -3.6198   -1.9535 H   0  0  0  0  0  0  0  0  0  0  0  0
   -1.6211   -2.1980   -2.4892 H   0  0  0  0  0  0  0  0  0  0  0  0
   -3.3352   -2.4077   -3.0038 H   0  0  0  0  0  0  0  0  0  0  0  0
   -0.8161   -3.8358    0.3768 C   0  0  0  0  0  0  0  0  0  0  0  0
   -1.7175   -4.4563    0.5098 H   0  0  0  0  0  0  0  0  0  0  0  0
    0.4544   -4.4351    0.3535 C   0  0  0  0  0  0  0  0  0  0  0  0
    0.5492   -5.5267    0.4642 H   0  0  0  0  0  0  0  0  0  0  0  0
    1.6045   -3.6443    0.1927 C   0  0  0  0  0  0  0  0  0  0  0  0
    2.6009   -4.1157    0.1773 H   0  0  0  0  0  0  0  0  0  0  0  0
    1.4845   -2.2464    0.0538 C   0  0  0  0  0  0  0  0  0  0  0  0
    2.6788   -1.3513   -0.0750 C   0  0  0  0  0  0  0  0  0  0  0  0
    3.0172   -0.7874   -1.3319 C   0  0  0  0  0  0  0  0  0  0  0  0
    4.1019    0.1068   -1.4155 C   0  0  0  0  0  0  0  0  0  0  0  0
    4.3644    0.5338   -2.3980 H   0  0  0  0  0  0  0  0  0  0  0  0
    4.8614    0.4633   -0.2875 C   0  0  0  0  0  0  0  0  0  0  0  0
    5.9983    1.4503   -0.3885 C   0  0  0  0  0  0  0  0  0  0  0  0
    5.6908    2.4564   -0.0278 H   0  0  0  0  0  0  0  0  0  0  0  0
    6.3466    1.5681   -1.4335 H   0  0  0  0  0  0  0  0  0  0  0  0
    6.8653    1.1409    0.2297 H   0  0  0  0  0  0  0  0  0  0  0  0
    4.5042   -0.1009    0.9516 C   0  0  0  0  0  0  0  0  0  0  0  0
    5.0787    0.1702    1.8532 H   0  0  0  0  0  0  0  0  0  0  0  0
    3.4271   -0.9966    1.0783 C   0  0  0  0  0  0  0  0  0  0  0  0
    3.0386   -1.5404    2.4309 C   0  0  0  0  0  0  0  0  0  0  0  0
    3.6837   -1.1317    3.2327 H   0  0  0  0  0  0  0  0  0  0  0  0
    3.1003   -2.6469    2.4637 H   0  0  0  0  0  0  0  0  0  0  0  0
    1.9817   -1.2913    2.6633 H   0  0  0  0  0  0  0  0  0  0  0  0
    2.2106   -1.1251   -2.5605 C   0  0  0  0  0  0  0  0  0  0  0  0
    2.6708   -0.7091   -3.4778 H   0  0  0  0  0  0  0  0  0  0  0  0
    1.1785   -0.7220   -2.4642 H   0  0  0  0  0  0  0  0  0  0  0  0
    2.0932   -2.2208   -2.6825 H   0  0  0  0  0  0  0  0  0  0  0  0
  1  2  1  0  0  0  0
  2 23  2  0  0  0  0
  3  2  1  0  0  0  0
  3  4  1  0  0  0  0
  4  5  1  0  0  0  0
  5  7  1  0  0  0  0
  5  8  1  0  0  0  0
  6  5  1  0  0  0  0
  9  4  2  0  0  0  0
  9 10  1  0  0  0  0
 11  9  1  0  0  0  0
 12 11  1  0  0  0  0
 12 13  1  0  0  0  0
 14 12  1  0  0  0  0
 15 12  1  0  0  0  0
 16 18  1  0  0  0  0
 16 11  2  0  0  0  0
 17 16  1  0  0  0  0
 18  3  2  0  0  0  0
 19 20  1  0  0  0  0
 19 18  1  0  0  0  0
 21 19  1  0  0  0  0
 22 19  1  0  0  0  0
 23 24  1  0  0  0  0
 25 23  1  0  0  0  0
 25 26  1  0  0  0  0
 27 25  2  0  0  0  0
 28 27  1  0  0  0  0
 29  1  2  0  0  0  0
 29 27  1  0  0  0  0
 30 29  1  0  0  0  0
 30 41  1  0  0  0  0
 31 30  2  0  0  0  0
 32 31  1  0  0  0  0
 32 34  2  0  0  0  0
 33 32  1  0  0  0  0
 34 39  1  0  0  0  0
 35 34  1  0  0  0  0
 35 36  1  0  0  0  0
 35 38  1  0  0  0  0
 37 35  1  0  0  0  0
 39 41  2  0  0  0  0
 39 40  1  0  0  0  0
 41 42  1  0  0  0  0
 42 44  1  0  0  0  0
 42 45  1  0  0  0  0
 42 43  1  0  0  0  0
 46 48  1  0  0  0  0
 46 31  1  0  0  0  0
 47 46  1  0  0  0  0
 49 46  1  0  0  0  0
M  END
