18
q = 0.0, confidence = 0.998

 49 51  0  0  1  0  0  0  0  0999 V2000
    1.4073    0.6078   -0.3746 B   0  0  0  0  0  0  0  0  0  0  0  0
    0.2017    0.6569   -1.3466 C   0  0  0  0  0  0  0  0  0  0  0  0
   -0.1488    0.3143   -2.3260 H   0  0  0  0  0  0  0  0  0  0  0  0
    0.6540    1.6380    0.5112 N   0  0  0  0  0  0  0  0  0  0  0  0
    2.0350    1.8787    2.4853 C   0  0  0  0  0  0  0  0  0  0  0  0
    2.3845    2.5729    3.2744 H   0  0  0  0  0  0  0  0  0  0  0  0
    2.9174    1.5168    1.9234 H   0  0  0  0  0  0  0  0  0  0  0  0
    1.5361    1.0153    2.9671 H   0  0  0  0  0  0  0  0  0  0  0  0
    1.7232    3.8008    0.8672 C   0  0  0  0  0  0  0  0  0  0  0  0
    2.0291    4.5584    1.6162 H   0  0  0  0  0  0  0  0  0  0  0  0
    1.0293    4.2856    0.1506 H   0  0  0  0  0  0  0  0  0  0  0  0
    2.6284    3.4738    0.3179 H   0  0  0  0  0  0  0  0  0  0  0  0
   -0.1637    3.0716    2.3861 C   0  0  0  0  0  0  0  0  0  0  0  0
    0.1957    3.6837    3.2369 H   0  0  0  0  0  0  0  0  0  0  0  0
   -0.7116    2.1972    2.7903 H   0  0  0  0  0  0  0  0  0  0  0  0
   -0.8541    3.6983    1.7918 H   0  0  0  0  0  0  0  0  0  0  0  0
    1.0448    2.6047    1.5618 C   0  0  0  0  0  0  0  0  0  0  0  0
   -0.4160    1.6283   -0.4726 C   0  0  1  0  0  3  0  0  0  0  0  0
   -2.6166    2.6295    0.2594 C   0  0  0  0  0  0  0  0  0  0  0  0
   -2.5895    1.9842    1.1501 H   0  0  0  0  0  0  0  0  0  0  0  0
   -1.5445    2.5664   -0.6571 C   0  0  0  0  0  0  0  0  0  0  0  0
   -3.7028    3.4793    0.0165 C   0  0  0  0  0  0  0  0  0  0  0  0
   -4.5376    3.5144    0.7328 H   0  0  0  0  0  0  0  0  0  0  0  0
   -3.7333    4.2752   -1.1418 C   0  0  0  0  0  0  0  0  0  0  0  0
   -4.5899    4.9397   -1.3316 H   0  0  0  0  0  0  0  0  0  0  0  0
   -2.6740    4.2140   -2.0605 C   0  0  0  0  0  0  0  0  0  0  0  0
   -2.6962    4.8313   -2.9714 H   0  0  0  0  0  0  0  0  0  0  0  0
   -1.5864    3.3600   -1.8229 C   0  0  0  0  0  0  0  0  0  0  0  0
   -0.7558    3.2990   -2.5424 H   0  0  0  0  0  0  0  0  0  0  0  0
    2.8990    0.1251   -0.3874 C   0  0  0  0  0  0  0  0  0  0  0  0
    3.7657    0.7220   -1.3541 C   0  0  0  0  0  0  0  0  0  0  0  0
    5.1104    0.3276   -1.4274 C   0  0  0  0  0  0  0  0  0  0  0  0
    5.7668    0.8041   -2.1748 H   0  0  0  0  0  0  0  0  0  0  0  0
    5.6410   -0.6649   -0.5790 C   0  0  0  0  0  0  0  0  0  0  0  0
    4.7787   -1.2553    0.3561 C   0  0  0  0  0  0  0  0  0  0  0  0
    5.1691   -2.0400    1.0257 H   0  0  0  0  0  0  0  0  0  0  0  0
    3.4256   -0.8749    0.4708 C   0  0  0  0  0  0  0  0  0  0  0  0
    2.5754   -1.5453    1.5208 C   0  0  0  0  0  0  0  0  0  0  0  0
    2.8533   -1.2108    2.5422 H   0  0  0  0  0  0  0  0  0  0  0  0
    2.6933   -2.6480    1.4956 H   0  0  0  0  0  0  0  0  0  0  0  0
    1.4982   -1.3049    1.3871 H   0  0  0  0  0  0  0  0  0  0  0  0
    3.2504    1.7741   -2.3099 C   0  0  0  0  0  0  0  0  0  0  0  0
    4.0643    2.1788   -2.9424 H   0  0  0  0  0  0  0  0  0  0  0  0
    2.7803    2.6252   -1.7750 H   0  0  0  0  0  0  0  0  0  0  0  0
    2.4669    1.3611   -2.9783 H   0  0  0  0  0  0  0  0  0  0  0  0
    7.0897   -1.0710   -0.6846 C   0  0  0  0  0  0  0  0  0  0  0  0
    7.3406   -1.8814    0.0269 H   0  0  0  0  0  0  0  0  0  0  0  0
    7.7645   -0.2144   -0.4742 H   0  0  0  0  0  0  0  0  0  0  0  0
    7.3368   -1.4263   -1.7070 H   0  0  0  0  0  0  0  0  0  0  0  0
  1  4  1  0  0  0  0
  2 18  1  0  0  0  0
  2  1  2  0  0  0  0
  3  2  1  0  0  0  0
  4 17  1  0  0  0  0
  5  8  1  0  0  0  0
  5  6  1  0  0  0  0
  7  5  1  0  0  0  0
  9 17  1  0  0  0  0
  9 10  1  0  0  0  0
 11  9  1  0  0  0  0
 12  9  1  0  0  0  0
 13 15  1  0  0  0  0
 13 14  1  0  0  0  0
 16 13  1  0  0  0  0
 17 13  1  0  0  0  0
 17  5  1  0  0  0  0
 18 21  1  6  0  0  0
 18  4  1  0  0  0  0
 19 20  1  0  0  0  0
 21 19  2  0  0  0  0
 22 19  1  0  0  0  0
 22 23  1  0  0  0  0
 24 22  2  0  0  0  0
 25 24  1  0  0  0  0
 26 28  2  0  0  0  0
 26 24  1  0  0  0  0
 27 26  1  0  0  0  0
 28 21  1  0  0  0  0
 29 28  1  0  0  0  0
 30  1  1  0  0  0  0
 30 37  1  0  0  0  0
 31 30  2  0  0  0  0
 32 31  1  0  0  0  0
 32 34  2  0  0  0  0
 33 32  1  0  0  0  0
 34 35  1  0  0  0  0
 35 37  2  0  0  0  0
 35 36  1  0  0  0  0
 37 38  1  0  0  0  0
 38 39  1  0  0  0  0
 40 38  1  0  0  0  0
 41 38  1  0  0  0  0
 42 44  1  0  0  0  0
 42 31  1  0  0  0  0
 43 42  1  0  0  0  0
 45 42  1  0  0  0  0
 46 34  1  0  0  0  0
 46 48  1  0  0  0  0
 46 47  1  0  0  0  0
 49 46  1  0  0  0  0
M  END
