2
q = -1.0, confidence = 0.0

 16 17  0  0  0  0  0  0  0  0999 V2000
   -6.5366    2.2970    0.3306 S   0  0  0  0  0  0  0  0  0  0  0  0
   -2.0580   -0.6469   -0.3249 C   0  0  0  0  0  1  0  0  0  0  0  0
   -5.5455   -0.0322   -0.0387 C   0  0  0  0  0  0  0  0  0  0  0  0
   -6.6904   -2.3946   -1.0249 C   0  0  0  0  0  0  0  0  0  0  0  0
   -7.1310   -3.3229   -1.4173 H   0  0  0  0  0  0  0  0  0  0  0  0
   -7.5357   -1.3388   -0.6165 C   0  0  0  0  0  0  0  0  0  0  0  0
   -8.6301   -1.4190   -0.6833 H   0  0  0  0  0  0  0  0  0  0  0  0
   -6.9528   -0.1703   -0.1299 C   0  0  0  0  0  0  0  0  0  0  0  0
   -3.2749   -0.8888   -0.4011 C   0  0  0  0  0  2  0  0  0  0  0  0
   -5.1348    1.1761    0.5276 N   0  0  0  0  0  0  0  0  0  0  0  0
   -4.2526    1.5444    0.1464 H   0  0  0  0  0  0  0  0  0  0  0  0
   -4.6842   -1.0765   -0.4672 C   0  0  0  0  0  0  0  0  0  0  0  0
   -5.2997   -2.2614   -0.9586 C   0  0  0  0  0  0  0  0  0  0  0  0
   -4.6456   -3.0751   -1.3035 H   0  0  0  0  0  0  0  0  0  0  0  0
   -7.6623    0.9772    0.3912 N   0  0  0  0  0  0  0  0  0  0  0  0
   -7.9143    0.8015    1.3785 H   0  0  0  0  0  0  0  0  0  0  0  0
  1 15  1  0  0  0  0
  1 10  1  0  0  0  0
  3 10  1  0  0  0  0
  4 13  2  0  0  0  0
  4  6  1  0  0  0  0
  5  4  1  0  0  0  0
  6  8  2  0  0  0  0
  7  6  1  0  0  0  0
  8  3  1  0  0  0  0
  8 15  1  0  0  0  0
  9  2  1  0  0  0  0
 11 10  1  0  0  0  0
 12  9  1  0  0  0  0
 12  3  2  0  0  0  0
 13 12  1  0  0  0  0
 14 13  1  0  0  0  0
 15 16  1  0  0  0  0
M  END
