13
q = -1.0, confidence = 0.006

 19 19  0  0  0  0  0  0  0  0999 V2000
    1.3329    0.4013    1.2520 F   0  0  0  0  0  0  0  0  0  0  0  0
    2.4138   -1.6908   -1.3930 F   0  0  0  0  0  0  0  0  0  0  0  0
    1.5233   -2.2134    0.5580 F   0  0  0  0  0  0  0  0  0  0  0  0
    4.3208   -2.3772    0.3180 F   0  0  0  0  0  0  0  0  0  0  0  0
    3.5231   -1.0566    1.8896 F   0  0  0  0  0  0  0  0  0  0  0  0
    5.6440    0.0809    0.7559 F   0  0  0  0  0  0  0  0  0  0  0  0
    4.8855   -0.3330   -1.2730 F   0  0  0  0  0  0  0  0  0  0  0  0
    3.6365    1.7541    1.2718 F   0  0  0  0  0  0  0  0  0  0  0  0
    4.5126    2.2261   -0.6905 F   0  0  0  0  0  0  0  0  0  0  0  0
    1.7172    2.4032   -0.4795 F   0  0  0  0  0  0  0  0  0  0  0  0
    2.5632    1.0470   -2.0005 F   0  0  0  0  0  0  0  0  0  0  0  0
    0.1349   -0.0757   -2.0351 O   0  0  0  0  0  0  0  0  0  0  0  0
    0.1148   -0.0609   -0.8201 C   0  0  0  0  0  0  0  0  0  0  0  0
    1.4988    0.0703   -0.0809 C   0  0  0  0  0  0  0  0  0  0  0  0
    2.2533   -1.2887   -0.1117 C   0  0  0  0  0  0  0  0  0  0  0  0
    3.6678   -1.2169    0.5531 C   0  0  0  0  0  0  0  0  0  0  0  0
    4.5287   -0.0401    0.0016 C   0  0  0  0  0  0  0  0  0  0  0  0
    3.7733    1.3242   -0.0039 C   0  0  0  0  0  0  0  0  0  0  0  0
    2.3653    1.2156   -0.6780 C   0  0  0  0  0  0  0  0  0  0  0  0
  2 15  1  0  0  0  0
  4 16  1  0  0  0  0
  7 17  1  0  0  0  0
  9 18  1  0  0  0  0
 11 19  1  0  0  0  0
 12 13  2  0  0  0  0
 13 14  1  0  0  0  0
 14  1  1  0  0  0  0
 15 14  1  0  0  0  0
 15 16  1  0  0  0  0
 15  3  1  0  0  0  0
 16  5  1  0  0  0  0
 17 16  1  0  0  0  0
 17  6  1  0  0  0  0
 18 17  1  0  0  0  0
 18  8  1  0  0  0  0
 19 10  1  0  0  0  0
 19 14  1  0  0  0  0
 19 18  1  0  0  0  0
M  END
