3
q = -2.0, confidence = 0.902

 51 52  0  0  1  0  0  0  0  0999 V2000
   -3.9213    0.5400   -0.6576 Si  0  0  0  0  0  0  0  0  0  0  0  0
   -3.0847   -0.8938    0.2484 C   0  0  2  0  0  3  0  0  0  0  0  0
   -2.4566   -0.7623    1.5443 C   0  0  2  0  0  3  0  0  0  0  0  0
   -1.5109   -1.8250    1.7002 C   0  0  0  0  0  0  0  0  0  0  0  0
   -1.5166   -2.6017    0.5012 C   0  0  0  0  0  0  0  0  0  0  0  0
   -2.4670   -2.0208   -0.3989 C   0  0  1  0  0  3  0  0  0  0  0  0
   -2.3051    1.4613   -0.9052 C   0  0  0  0  0  0  0  0  0  0  0  0
   -1.5664    2.0450    0.1813 C   0  0  0  0  0  3  0  0  0  0  0  0
   -1.9970    2.3615    1.1387 H   0  0  0  0  0  0  0  0  0  0  0  0
   -0.2069    2.2473   -0.2093 C   0  0  0  0  0  0  0  0  0  0  0  0
   -0.0753    1.6799   -1.5075 C   0  0  0  0  0  0  0  0  0  0  0  0
    0.8488    1.6312   -2.0935 H   0  0  0  0  0  0  0  0  0  0  0  0
   -1.3490    1.2024   -1.9328 C   0  0  0  0  0  0  0  0  0  0  0  0
   -1.5490    0.6918   -2.8840 H   0  0  0  0  0  0  0  0  0  0  0  0
   -2.7984    0.1920    2.6556 C   0  0  0  0  0  0  0  0  0  0  0  0
   -3.2891   -0.3487    3.4938 H   0  0  0  0  0  0  0  0  0  0  0  0
   -1.8961    0.6847    3.0729 H   0  0  0  0  0  0  0  0  0  0  0  0
   -3.4958    0.9826    2.3309 H   0  0  0  0  0  0  0  0  0  0  0  0
   -0.8199   -2.1776    2.9805 C   0  0  0  0  0  0  0  0  0  0  0  0
   -0.6908   -1.2953    3.6357 H   0  0  0  0  0  0  0  0  0  0  0  0
    0.1816   -2.6188    2.8129 H   0  0  0  0  0  0  0  0  0  0  0  0
   -1.4174   -2.9237    3.5485 H   0  0  0  0  0  0  0  0  0  0  0  0
   -0.7918   -3.8947    0.2814 C   0  0  0  0  0  0  0  0  0  0  0  0
   -0.1190   -4.1364    1.1253 H   0  0  0  0  0  0  0  0  0  0  0  0
   -1.5134   -4.7339    0.1836 H   0  0  0  0  0  0  0  0  0  0  0  0
   -0.1799   -3.8860   -0.6439 H   0  0  0  0  0  0  0  0  0  0  0  0
   -2.7994   -2.5806   -1.7550 C   0  0  0  0  0  0  0  0  0  0  0  0
   -2.4673   -1.9251   -2.5853 H   0  0  0  0  0  0  0  0  0  0  0  0
   -2.3113   -3.5614   -1.9085 H   0  0  0  0  0  0  0  0  0  0  0  0
   -3.8919   -2.7280   -1.8683 H   0  0  0  0  0  0  0  0  0  0  0  0
   -4.7238    0.0749   -2.3016 C   0  0  0  0  0  0  0  0  0  0  0  0
   -4.0032   -0.3381   -3.0318 H   0  0  0  0  0  0  0  0  0  0  0  0
   -5.5333   -0.6697   -2.1593 H   0  0  0  0  0  0  0  0  0  0  0  0
   -5.1755    0.9853   -2.7468 H   0  0  0  0  0  0  0  0  0  0  0  0
   -5.1827    1.5165    0.3579 C   0  0  0  0  0  0  0  0  0  0  0  0
   -4.7146    2.1308    1.1511 H   0  0  0  0  0  0  0  0  0  0  0  0
   -5.7360    2.2063   -0.3121 H   0  0  0  0  0  0  0  0  0  0  0  0
   -5.9198    0.8402    0.8369 H   0  0  0  0  0  0  0  0  0  0  0  0
    0.7914    3.1607    0.4971 C   0  0  0  0  0  0  0  0  0  0  0  0
    0.3746    4.6059    0.1186 C   0  0  0  0  0  0  0  0  0  0  0  0
    0.3996    4.7507   -0.9802 H   0  0  0  0  0  0  0  0  0  0  0  0
    1.0665    5.3404    0.5815 H   0  0  0  0  0  0  0  0  0  0  0  0
   -0.6538    4.8299    0.4666 H   0  0  0  0  0  0  0  0  0  0  0  0
    0.7177    3.0214    2.0305 C   0  0  0  0  0  0  0  0  0  0  0  0
   -0.3061    3.2215    2.4067 H   0  0  0  0  0  0  0  0  0  0  0  0
    1.0168    2.0111    2.3649 H   0  0  0  0  0  0  0  0  0  0  0  0
    1.3940    3.7579    2.5106 H   0  0  0  0  0  0  0  0  0  0  0  0
    2.2363    2.9356    0.0094 C   0  0  0  0  0  0  0  0  0  0  0  0
    2.6102    1.9087    0.2024 H   0  0  0  0  0  0  0  0  0  0  0  0
    2.3255    3.1287   -1.0789 H   0  0  0  0  0  0  0  0  0  0  0  0
    2.9189    3.6432    0.5235 H   0  0  0  0  0  0  0  0  0  0  0  0
  1 35  1  0  0  0  0
  2  1  1  6  0  0  0
  2  3  1  0  0  0  0
  3  4  1  0  0  0  0
  3 15  1  1  0  0  0
  4 19  1  0  0  0  0
  5  4  2  0  0  0  0
  6 27  1  1  0  0  0
  6  2  1  0  0  0  0
  6  5  1  0  0  0  0
  7  1  1  0  0  0  0
  7  8  1  0  0  0  0
  8  9  1  0  0  0  0
 10  8  1  0  0  0  0
 10 39  1  0  0  0  0
 11 10  2  0  0  0  0
 12 11  1  0  0  0  0
 13 11  1  0  0  0  0
 13  7  2  0  0  0  0
 14 13  1  0  0  0  0
 15 17  1  0  0  0  0
 15 16  1  0  0  0  0
 18 15  1  0  0  0  0
 19 22  1  0  0  0  0
 19 20  1  0  0  0  0
 21 19  1  0  0  0  0
 23  5  1  0  0  0  0
 23 24  1  0  0  0  0
 25 23  1  0  0  0  0
 26 23  1  0  0  0  0
 28 27  1  0  0  0  0
 29 27  1  0  0  0  0
 30 27  1  0  0  0  0
 31 33  1  0  0  0  0
 31  1  1  0  0  0  0
 32 31  1  0  0  0  0
 34 31  1  0  0  0  0
 35 38  1  0  0  0  0
 35 36  1  0  0  0  0
 37 35  1  0  0  0  0
 39 44  1  0  0  0  0
 40 43  1  0  0  0  0
 40 39  1  0  0  0  0
 40 42  1  0  0  0  0
 41 40  1  0  0  0  0
 44 46  1  0  0  0  0
 44 45  1  0  0  0  0
 44 47  1  0  0  0  0
 48 49  1  0  0  0  0
 48 39  1  0  0  0  0
 48 51  1  0  0  0  0
 50 48  1  0  0  0  0
M  END
