5
q = 0.0, confidence = 0.834

 48 51  0  0  1  0  0  0  0  0999 V2000
    0.0682   -0.3175   -2.0518 Cl  0  0  0  0  0  0  0  0  0  0  0  0
    2.7321   -0.0997    1.4510 C   0  0  0  0  0  0  0  0  0  0  0  0
    1.4396    0.4837    1.2629 C   0  0  0  0  0  0  0  0  0  0  0  0
    1.1888    1.5272    1.4812 H   0  0  0  0  0  0  0  0  0  0  0  0
    0.5624   -0.4203    0.6048 C   0  0  2  0  0  3  0  0  0  0  0  0
    1.2955   -1.6767    0.5005 C   0  0  0  0  0  0  0  0  0  0  0  0
    0.9285   -2.9483   -0.0278 C   0  0  0  0  0  0  0  0  0  0  0  0
   -0.0482   -3.0792   -0.5132 H   0  0  0  0  0  0  0  0  0  0  0  0
    1.8062   -4.0135    0.1221 C   0  0  0  0  0  0  0  0  0  0  0  0
    1.5199   -5.0113   -0.2422 H   0  0  0  0  0  0  0  0  0  0  0  0
    3.0724   -3.8435    0.7590 C   0  0  0  0  0  0  0  0  0  0  0  0
    3.7294   -4.7177    0.8833 H   0  0  0  0  0  0  0  0  0  0  0  0
    3.4894   -2.5995    1.2175 C   0  0  0  0  0  0  0  0  0  0  0  0
    4.4703   -2.4768    1.7004 H   0  0  0  0  0  0  0  0  0  0  0  0
    2.6053   -1.4946    1.0821 C   0  0  0  0  0  0  0  0  0  0  0  0
    3.9078    0.4902    2.1948 C   0  0  0  0  0  0  0  0  0  0  0  0
    4.8315    0.0458    1.7590 H   0  0  0  0  0  0  0  0  0  0  0  0
    4.0083    2.0140    2.0671 C   0  0  0  0  0  0  0  0  0  0  0  0
    4.0220    2.3379    1.0089 H   0  0  0  0  0  0  0  0  0  0  0  0
    4.9246    2.3849    2.5675 H   0  0  0  0  0  0  0  0  0  0  0  0
    3.1434    2.5118    2.5519 H   0  0  0  0  0  0  0  0  0  0  0  0
    3.8410    0.0595    3.6747 C   0  0  0  0  0  0  0  0  0  0  0  0
    2.9369    0.4820    4.1586 H   0  0  0  0  0  0  0  0  0  0  0  0
    4.7292    0.4248    4.2290 H   0  0  0  0  0  0  0  0  0  0  0  0
    3.7941   -1.0423    3.7831 H   0  0  0  0  0  0  0  0  0  0  0  0
   -0.7958   -0.0651   -0.1656 B   0  0  0  0  0  0  0  0  0  0  0  0
   -1.2811    1.4645    0.0327 C   0  0  0  0  0  0  0  0  0  0  0  0
   -1.1959    2.2556   -2.2282 F   0  0  0  0  0  0  0  0  0  0  0  0
   -1.4505    2.4730   -0.9303 C   0  0  0  0  0  0  0  0  0  0  0  0
   -2.0229    4.7026   -1.5471 F   0  0  0  0  0  0  0  0  0  0  0  0
   -1.8878    3.7687   -0.5983 C   0  0  0  0  0  0  0  0  0  0  0  0
   -2.6112    5.3104    1.0583 F   0  0  0  0  0  0  0  0  0  0  0  0
   -2.1915    4.0835    0.7346 C   0  0  0  0  0  0  0  0  0  0  0  0
   -2.3431    3.3854    3.0027 F   0  0  0  0  0  0  0  0  0  0  0  0
   -2.0509    3.1006    1.7275 C   0  0  0  0  0  0  0  0  0  0  0  0
   -1.5029    0.8996    2.3344 F   0  0  0  0  0  0  0  0  0  0  0  0
   -1.6125    1.8217    1.3523 C   0  0  0  0  0  0  0  0  0  0  0  0
   -2.0212   -1.1085   -0.0978 C   0  0  0  0  0  0  0  0  0  0  0  0
   -2.9867   -0.1626   -2.0554 F   0  0  0  0  0  0  0  0  0  0  0  0
   -3.0544   -1.0540   -1.0512 C   0  0  0  0  0  0  0  0  0  0  0  0
   -5.1268   -1.8190   -1.9559 F   0  0  0  0  0  0  0  0  0  0  0  0
   -4.1757   -1.8974   -1.0189 C   0  0  0  0  0  0  0  0  0  0  0  0
   -5.3593   -3.6367    0.0830 F   0  0  0  0  0  0  0  0  0  0  0  0
   -4.2983   -2.8276    0.0275 C   0  0  0  0  0  0  0  0  0  0  0  0
   -3.4211   -3.7827    2.0153 F   0  0  0  0  0  0  0  0  0  0  0  0
   -3.3024   -2.9027    1.0141 C   0  0  0  0  0  0  0  0  0  0  0  0
   -1.2840   -2.1530    1.9254 F   0  0  0  0  0  0  0  0  0  0  0  0
   -2.1921   -2.0432    0.9381 C   0  0  0  0  0  0  0  0  0  0  0  0
  1 26  1  0  0  0  0
  2 16  1  0  0  0  0
  3  2  2  0  0  0  0
  3  4  1  0  0  0  0
  5 26  1  6  0  0  0
  5  3  1  0  0  0  0
  6  5  1  0  0  0  0
  6 15  1  0  0  0  0
  7  9  1  0  0  0  0
  7  6  2  0  0  0  0
  8  7  1  0  0  0  0
  9 11  2  0  0  0  0
 10  9  1  0  0  0  0
 11 12  1  0  0  0  0
 11 13  1  0  0  0  0
 13 14  1  0  0  0  0
 15 13  2  0  0  0  0
 15  2  1  0  0  0  0
 16 22  1  0  0  0  0
 17 16  1  0  0  0  0
 18 16  1  0  0  0  0
 18 21  1  0  0  0  0
 18 20  1  0  0  0  0
 19 18  1  0  0  0  0
 22 25  1  0  0  0  0
 22 23  1  0  0  0  0
 22 24  1  0  0  0  0
 26 38  1  0  0  0  0
 26 27  1  0  0  0  0
 27 37  1  0  0  0  0
 28 29  1  0  0  0  0
 29 31  1  0  0  0  0
 29 27  2  0  0  0  0
 30 31  1  0  0  0  0
 31 33  2  0  0  0  0
 33 32  1  0  0  0  0
 33 35  1  0  0  0  0
 35 34  1  0  0  0  0
 37 35  2  0  0  0  0
 37 36  1  0  0  0  0
 38 48  1  0  0  0  0
 39 40  1  0  0  0  0
 40 42  1  0  0  0  0
 40 38  2  0  0  0  0
 41 42  1  0  0  0  0
 42 44  2  0  0  0  0
 44 43  1  0  0  0  0
 44 46  1  0  0  0  0
 46 45  1  0  0  0  0
 48 46  2  0  0  0  0
 48 47  1  0  0  0  0
M  END
