9
q = 0.0, confidence = 0.922

 43 43  0  0  1  0  0  0  0  0999 V2000
    1.1858    2.9623    0.9018 O   0  0  0  0  0  0  0  0  0  0  0  0
   -0.5624    3.7080   -0.3237 O   0  0  0  0  0  0  0  0  0  0  0  0
    0.2146    1.0908   -1.4328 O   0  0  0  0  0  0  0  0  0  0  0  0
    0.8199    0.3215   -1.2699 H   0  0  0  0  0  0  0  0  0  0  0  0
    0.2007    0.2663    0.8808 C   0  0  2  0  0  0  0  0  0  0  0  0
    0.6880    0.8051    1.7228 H   0  0  0  0  0  0  0  0  0  0  0  0
   -0.9481   -0.5648    1.4143 C   0  0  0  0  0  3  0  0  0  0  0  0
   -0.6310   -1.4726    1.9535 H   0  0  0  0  0  0  0  0  0  0  0  0
   -2.1526    0.0857    1.8563 C   0  0  0  0  0  3  0  0  0  0  0  0
   -2.7232   -0.2329    2.7416 H   0  0  0  0  0  0  0  0  0  0  0  0
   -2.6361    1.0936    0.9743 C   0  0  0  0  0  3  0  0  0  0  0  0
   -3.6015    1.5945    1.1417 H   0  0  0  0  0  0  0  0  0  0  0  0
   -1.8487    1.2750   -0.2149 C   0  0  0  0  0  3  0  0  0  0  0  0
   -2.2681    1.8955   -1.0211 H   0  0  0  0  0  0  0  0  0  0  0  0
   -0.3307    1.3315   -0.1471 C   0  0  2  0  0  0  0  0  0  0  0  0
    0.1884    2.7389    0.2368 C   0  0  0  0  0  0  0  0  0  0  0  0
   -0.0793    5.0464   -0.1446 C   0  0  0  0  0  0  0  0  0  0  0  0
    0.0119    5.2911    0.9326 H   0  0  0  0  0  0  0  0  0  0  0  0
   -0.8178    5.7065   -0.6327 H   0  0  0  0  0  0  0  0  0  0  0  0
    0.9172    5.1670   -0.6151 H   0  0  0  0  0  0  0  0  0  0  0  0
    1.1511   -0.5460    0.2173 O   0  0  0  0  0  0  0  0  0  0  0  0
    2.7574   -0.8994    0.7333 Si  0  0  0  0  0  0  0  0  0  0  0  0
    3.2875    0.3682    2.0207 C   0  0  0  0  0  0  0  0  0  0  0  0
    3.0170    1.3947    1.7000 H   0  0  0  0  0  0  0  0  0  0  0  0
    4.3854    0.3215    2.1731 H   0  0  0  0  0  0  0  0  0  0  0  0
    2.8092    0.1774    3.0031 H   0  0  0  0  0  0  0  0  0  0  0  0
    2.7263   -2.6404    1.4524 C   0  0  0  0  0  0  0  0  0  0  0  0
    2.0565   -2.6797    2.3360 H   0  0  0  0  0  0  0  0  0  0  0  0
    3.7352   -2.9641    1.7805 H   0  0  0  0  0  0  0  0  0  0  0  0
    2.3517   -3.3733    0.7099 H   0  0  0  0  0  0  0  0  0  0  0  0
    3.7979   -0.7936   -0.8679 C   0  0  0  0  0  0  0  0  0  0  0  0
    3.8250    0.6699   -1.3525 C   0  0  0  0  0  0  0  0  0  0  0  0
    4.3145    1.3390   -0.6153 H   0  0  0  0  0  0  0  0  0  0  0  0
    2.8088    1.0731   -1.5378 H   0  0  0  0  0  0  0  0  0  0  0  0
    4.3951    0.7501   -2.3044 H   0  0  0  0  0  0  0  0  0  0  0  0
    3.1714   -1.6981   -1.9475 C   0  0  0  0  0  0  0  0  0  0  0  0
    2.1217   -1.4237   -2.1766 H   0  0  0  0  0  0  0  0  0  0  0  0
    3.1718   -2.7652   -1.6429 H   0  0  0  0  0  0  0  0  0  0  0  0
    3.7506   -1.6250   -2.8945 H   0  0  0  0  0  0  0  0  0  0  0  0
    5.2335   -1.2668   -0.5676 C   0  0  0  0  0  0  0  0  0  0  0  0
    5.8622   -1.1955   -1.4828 H   0  0  0  0  0  0  0  0  0  0  0  0
    5.2635   -2.3240   -0.2314 H   0  0  0  0  0  0  0  0  0  0  0  0
    5.7239   -0.6479    0.2129 H   0  0  0  0  0  0  0  0  0  0  0  0
  2 17  1  0  0  0  0
  2 16  1  0  0  0  0
  3  4  1  0  0  0  0
  5  7  1  0  0  0  0
  5  6  1  1  0  0  0
  7  9  1  0  0  0  0
  7  8  1  0  0  0  0
  9 10  1  0  0  0  0
 11 12  1  0  0  0  0
 11  9  1  0  0  0  0
 13 15  1  0  0  0  0
 13 11  1  0  0  0  0
 14 13  1  0  0  0  0
 15  3  1  6  0  0  0
 15 16  1  0  0  0  0
 15  5  1  0  0  0  0
 16  1  2  0  0  0  0
 17 18  1  0  0  0  0
 19 17  1  0  0  0  0
 20 17  1  0  0  0  0
 21 22  1  0  0  0  0
 21  5  1  0  0  0  0
 22 27  1  0  0  0  0
 22 23  1  0  0  0  0
 23 25  1  0  0  0  0
 23 26  1  0  0  0  0
 24 23  1  0  0  0  0
 27 29  1  0  0  0  0
 27 28  1  0  0  0  0
 30 27  1  0  0  0  0
 31 40  1  0  0  0  0
 31 22  1  0  0  0  0
 32 31  1  0  0  0  0
 32 33  1  0  0  0  0
 34 32  1  0  0  0  0
 35 32  1  0  0  0  0
 36 38  1  0  0  0  0
 36 31  1  0  0  0  0
 37 36  1  0  0  0  0
 39 36  1  0  0  0  0
 40 42  1  0  0  0  0
 40 43  1  0  0  0  0
 41 40  1  0  0  0  0
M  END
