3
q = -1.0, confidence = 0.032

 25 25  0  0  1  0  0  0  0  0999 V2000
    1.2051   -1.3642   -0.0429 C   0  0  1  0  0  3  0  0  0  0  0  0
    1.2480   -0.5723   -1.2267 C   0  0  1  0  0  3  0  0  0  0  0  0
   -0.0001   -0.2113   -1.8407 C   0  0  0  0  0  3  0  0  0  0  0  0
   -0.0001    0.4092   -2.7477 H   0  0  0  0  0  0  0  0  0  0  0  0
   -1.2484   -0.5718   -1.2266 C   0  0  1  0  0  3  0  0  0  0  0  0
   -1.2057   -1.3638   -0.0429 C   0  0  2  0  0  3  0  0  0  0  0  0
   -0.0004   -2.2672    0.1486 C   0  0  0  0  0  0  0  0  0  0  0  0
   -0.0005   -2.6603    1.1852 H   0  0  0  0  0  0  0  0  0  0  0  0
   -0.0006   -3.1580   -0.5303 H   0  0  0  0  0  0  0  0  0  0  0  0
    2.4470   -1.6900    0.7417 C   0  0  0  0  0  0  0  0  0  0  0  0
    2.9220   -2.6210    0.3567 H   0  0  0  0  0  0  0  0  0  0  0  0
    2.1978   -1.8711    1.8064 H   0  0  0  0  0  0  0  0  0  0  0  0
    3.2039   -0.8843    0.7054 H   0  0  0  0  0  0  0  0  0  0  0  0
   -2.4476   -1.6893    0.7417 C   0  0  0  0  0  0  0  0  0  0  0  0
   -3.2045   -0.8836    0.7053 H   0  0  0  0  0  0  0  0  0  0  0  0
   -2.1984   -1.8702    1.8065 H   0  0  0  0  0  0  0  0  0  0  0  0
   -2.9227   -2.6204    0.3569 H   0  0  0  0  0  0  0  0  0  0  0  0
    2.5365   -0.0781   -1.8365 C   0  0  0  0  0  0  0  0  0  0  0  0
    3.2676    0.2520   -1.0759 H   0  0  0  0  0  0  0  0  0  0  0  0
    2.3575    0.7710   -2.5230 H   0  0  0  0  0  0  0  0  0  0  0  0
    3.0115   -0.8980   -2.4157 H   0  0  0  0  0  0  0  0  0  0  0  0
   -2.5367   -0.0770   -1.8361 C   0  0  0  0  0  0  0  0  0  0  0  0
   -3.0122   -0.8967   -2.4155 H   0  0  0  0  0  0  0  0  0  0  0  0
   -2.3574    0.7721   -2.5226 H   0  0  0  0  0  0  0  0  0  0  0  0
   -3.2676    0.2533   -1.0754 H   0  0  0  0  0  0  0  0  0  0  0  0
  1  7  1  0  0  0  0
  1 10  1  6  0  0  0
  2 18  1  1  0  0  0
  2  1  1  0  0  0  0
  3  2  1  0  0  0  0
  3  5  1  0  0  0  0
  4  3  1  0  0  0  0
  5 22  1  1  0  0  0
  5  6  1  0  0  0  0
  6  7  1  0  0  0  0
  6 14  1  6  0  0  0
  7  8  1  0  0  0  0
  9  7  1  0  0  0  0
 10 12  1  0  0  0  0
 11 10  1  0  0  0  0
 13 10  1  0  0  0  0
 14 16  1  0  0  0  0
 15 14  1  0  0  0  0
 17 14  1  0  0  0  0
 18 19  1  0  0  0  0
 20 18  1  0  0  0  0
 21 18  1  0  0  0  0
 22 25  1  0  0  0  0
 23 22  1  0  0  0  0
 24 22  1  0  0  0  0
M  END
