9
q = -1.0, confidence = 0.002

 28 29  0  0  0  0  0  0  0  0999 V2000
    0.3775    0.9923    1.6108 C   0  0  0  0  0  0  0  0  0  0  0  0
    0.7512    2.0131    1.4834 H   0  0  0  0  0  0  0  0  0  0  0  0
    5.1762    0.3166   -0.0556 N   0  0  0  0  0  0  0  0  0  0  0  0
    2.3481   -0.2740    0.4088 C   0  0  0  0  0  0  0  0  0  0  0  0
    2.1688   -0.9559   -0.4532 H   0  0  0  0  0  0  0  0  0  0  0  0
    4.1473    0.8959   -0.9110 C   0  0  0  0  0  0  0  0  0  0  0  0
    3.9714    0.2637   -1.8271 H   0  0  0  0  0  0  0  0  0  0  0  0
    4.5085    1.8811   -1.2746 H   0  0  0  0  0  0  0  0  0  0  0  0
   -0.8297    0.6045    2.3170 C   0  0  0  0  0  3  0  0  0  0  0  0
   -1.5240    1.2704    2.8386 H   0  0  0  0  0  0  0  0  0  0  0  0
    0.2755   -1.3006    1.5897 C   0  0  0  0  0  0  0  0  0  0  0  0
    0.5517   -2.3481    1.4206 H   0  0  0  0  0  0  0  0  0  0  0  0
    2.8255    1.0652   -0.1640 C   0  0  0  0  0  0  0  0  0  0  0  0
    2.0541    1.4678   -0.8489 H   0  0  0  0  0  0  0  0  0  0  0  0
    2.9743    1.7927    0.6630 H   0  0  0  0  0  0  0  0  0  0  0  0
    4.7751   -0.9799    0.4712 C   0  0  0  0  0  0  0  0  0  0  0  0
    5.5909   -1.3643    1.1196 H   0  0  0  0  0  0  0  0  0  0  0  0
    4.6429   -1.7352   -0.3562 H   0  0  0  0  0  0  0  0  0  0  0  0
    6.4722    0.2743   -0.6983 C   0  0  0  0  0  0  0  0  0  0  0  0
    7.2388   -0.1012    0.0106 H   0  0  0  0  0  0  0  0  0  0  0  0
    6.7728    1.2930   -1.0187 H   0  0  0  0  0  0  0  0  0  0  0  0
    6.4993   -0.3874   -1.6075 H   0  0  0  0  0  0  0  0  0  0  0  0
    3.4733   -0.8856    1.2685 C   0  0  0  0  0  0  0  0  0  0  0  0
    3.6351   -0.2486    2.1644 H   0  0  0  0  0  0  0  0  0  0  0  0
    3.1843   -1.8943    1.6303 H   0  0  0  0  0  0  0  0  0  0  0  0
    1.0580   -0.1854    1.1803 C   0  0  0  0  0  0  0  0  0  0  0  0
   -0.8869   -0.8372    2.2970 C   0  0  0  0  0  0  0  0  0  0  0  0
   -1.6592   -1.4614    2.7574 H   0  0  0  0  0  0  0  0  0  0  0  0
  1  9  1  0  0  0  0
  2  1  1  0  0  0  0
  3 16  1  0  0  0  0
  4 26  1  0  0  0  0
  4 23  1  0  0  0  0
  5  4  1  0  0  0  0
  6 13  1  0  0  0  0
  6  3  1  0  0  0  0
  7  6  1  0  0  0  0
  8  6  1  0  0  0  0
  9 10  1  0  0  0  0
 11 27  2  0  0  0  0
 12 11  1  0  0  0  0
 13  4  1  0  0  0  0
 13 15  1  0  0  0  0
 14 13  1  0  0  0  0
 16 17  1  0  0  0  0
 16 23  1  0  0  0  0
 18 16  1  0  0  0  0
 19  3  1  0  0  0  0
 19 20  1  0  0  0  0
 21 19  1  0  0  0  0
 22 19  1  0  0  0  0
 23 25  1  0  0  0  0
 23 24  1  0  0  0  0
 26 11  1  0  0  0  0
 26  1  2  0  0  0  0
 27  9  1  0  0  0  0
 27 28  1  0  0  0  0
M  END
