28
q = 0.0, confidence = 0.986

 51 55  0  0  0  0  0  0  0  0999 V2000
   -0.5556   -4.6355   -0.1813 O   0  0  0  0  0  0  0  0  0  0  0  0
    2.7911   -3.7871   -0.1574 O   0  0  0  0  0  0  0  0  0  0  0  0
   -0.4684   -2.3405   -0.0182 N   0  0  0  0  0  0  0  0  0  0  0  0
    1.6131   -1.8366    0.0739 N   0  0  0  0  0  0  0  0  0  0  0  0
   -2.4690   -2.7002    1.3682 C   0  0  0  0  0  0  0  0  0  0  0  0
   -1.9049   -3.4988    1.8958 H   0  0  0  0  0  0  0  0  0  0  0  0
   -2.1882   -1.7556    1.8782 H   0  0  0  0  0  0  0  0  0  0  0  0
   -3.9762   -2.9305    1.5437 C   0  0  0  0  0  0  0  0  0  0  0  0
   -4.1509   -3.1120    2.6244 H   0  0  0  0  0  0  0  0  0  0  0  0
   -4.2966   -3.8680    1.0364 H   0  0  0  0  0  0  0  0  0  0  0  0
   -4.8483   -1.7492    1.0894 C   0  0  0  0  0  0  0  0  0  0  0  0
   -5.7938   -1.7391    1.6705 H   0  0  0  0  0  0  0  0  0  0  0  0
   -4.3207   -0.8142    1.3775 H   0  0  0  0  0  0  0  0  0  0  0  0
   -5.1982   -1.7025   -0.4105 C   0  0  0  0  0  0  0  0  0  0  0  0
   -5.4453   -0.6523   -0.6769 H   0  0  0  0  0  0  0  0  0  0  0  0
   -6.1285   -2.2829   -0.5912 H   0  0  0  0  0  0  0  0  0  0  0  0
   -4.1189   -2.2246   -1.3739 C   0  0  0  0  0  0  0  0  0  0  0  0
   -4.1621   -3.3345   -1.4143 H   0  0  0  0  0  0  0  0  0  0  0  0
   -4.3873   -1.8957   -2.3987 H   0  0  0  0  0  0  0  0  0  0  0  0
   -2.6820   -1.7643   -1.0811 C   0  0  0  0  0  0  0  0  0  0  0  0
   -2.6810   -0.7124   -0.7386 H   0  0  0  0  0  0  0  0  0  0  0  0
   -2.0809   -1.7538   -2.0116 H   0  0  0  0  0  0  0  0  0  0  0  0
   -1.9241   -2.6519   -0.0789 C   0  0  0  0  0  0  0  0  0  0  0  0
   -1.8146   -4.1075   -0.6449 C   0  0  0  0  0  0  0  0  0  0  0  0
   -2.6156   -4.7769   -0.2821 H   0  0  0  0  0  0  0  0  0  0  0  0
   -1.8159   -4.0885   -1.7578 H   0  0  0  0  0  0  0  0  0  0  0  0
    0.2433   -3.5483   -0.1010 C   0  0  0  0  0  0  0  0  0  0  0  0
    0.3670   -1.2369    0.0864 C   0  0  0  0  0  2  0  0  0  0  0  0
    1.5641   -3.2248   -0.0601 C   0  0  0  0  0  0  0  0  0  0  0  0
    3.6361   -2.6932   -0.5931 C   0  0  0  0  0  0  0  0  0  0  0  0
    3.6092   -2.6346   -1.7048 H   0  0  0  0  0  0  0  0  0  0  0  0
    4.6652   -2.9070   -0.2522 H   0  0  0  0  0  0  0  0  0  0  0  0
    3.0323   -1.4014    0.0460 C   0  0  0  0  0  0  0  0  0  0  0  0
    3.1962   -0.1758   -0.8660 C   0  0  0  0  0  0  0  0  0  0  0  0
    2.6982    0.6881   -0.3736 H   0  0  0  0  0  0  0  0  0  0  0  0
    2.6282   -0.3803   -1.7960 H   0  0  0  0  0  0  0  0  0  0  0  0
    4.6512    0.1910   -1.1995 C   0  0  0  0  0  0  0  0  0  0  0  0
    5.2397   -0.7420   -1.3364 H   0  0  0  0  0  0  0  0  0  0  0  0
    4.6710    0.6852   -2.1926 H   0  0  0  0  0  0  0  0  0  0  0  0
    5.3585    1.1074   -0.1856 C   0  0  0  0  0  0  0  0  0  0  0  0
    6.4520    1.0500   -0.3770 H   0  0  0  0  0  0  0  0  0  0  0  0
    5.0758    2.1625   -0.3918 H   0  0  0  0  0  0  0  0  0  0  0  0
    5.0715    0.8146    1.2983 C   0  0  0  0  0  0  0  0  0  0  0  0
    4.1268    1.3157    1.5990 H   0  0  0  0  0  0  0  0  0  0  0  0
    5.8707    1.2891    1.9052 H   0  0  0  0  0  0  0  0  0  0  0  0
    4.9517   -0.6733    1.6736 C   0  0  0  0  0  0  0  0  0  0  0  0
    5.2126   -0.7939    2.7454 H   0  0  0  0  0  0  0  0  0  0  0  0
    5.7071   -1.2789    1.1218 H   0  0  0  0  0  0  0  0  0  0  0  0
    3.5380   -1.2447    1.4968 C   0  0  0  0  0  0  0  0  0  0  0  0
    3.4733   -2.2474    1.9715 H   0  0  0  0  0  0  0  0  0  0  0  0
    2.8180   -0.5883    2.0250 H   0  0  0  0  0  0  0  0  0  0  0  0
  1 27  1  0  0  0  0
  2 29  1  0  0  0  0
  3 28  1  0  0  0  0
  4 28  1  0  0  0  0
  5  8  1  0  0  0  0
  5  7  1  0  0  0  0
  5  6  1  0  0  0  0
  8  9  1  0  0  0  0
 10  8  1  0  0  0  0
 11 13  1  0  0  0  0
 11  8  1  0  0  0  0
 11 12  1  0  0  0  0
 14 11  1  0  0  0  0
 15 14  1  0  0  0  0
 16 14  1  0  0  0  0
 17 20  1  0  0  0  0
 17 14  1  0  0  0  0
 18 17  1  0  0  0  0
 19 17  1  0  0  0  0
 20 21  1  0  0  0  0
 20 23  1  0  0  0  0
 22 20  1  0  0  0  0
 23  3  1  0  0  0  0
 23  5  1  0  0  0  0
 24 25  1  0  0  0  0
 24  1  1  0  0  0  0
 24 23  1  0  0  0  0
 26 24  1  0  0  0  0
 27 29  2  0  0  0  0
 27  3  1  0  0  0  0
 29  4  1  0  0  0  0
 30 32  1  0  0  0  0
 30  2  1  0  0  0  0
 30 33  1  0  0  0  0
 31 30  1  0  0  0  0
 33  4  1  0  0  0  0
 33 49  1  0  0  0  0
 34 35  1  0  0  0  0
 34 33  1  0  0  0  0
 36 34  1  0  0  0  0
 37 34  1  0  0  0  0
 37 40  1  0  0  0  0
 38 37  1  0  0  0  0
 39 37  1  0  0  0  0
 40 43  1  0  0  0  0
 41 40  1  0  0  0  0
 42 40  1  0  0  0  0
 43 44  1  0  0  0  0
 43 46  1  0  0  0  0
 43 45  1  0  0  0  0
 46 47  1  0  0  0  0
 48 46  1  0  0  0  0
 49 46  1  0  0  0  0
 49 50  1  0  0  0  0
 49 51  1  0  0  0  0
M  END
