6
q = 0.0, confidence = 0.974

 15 15  0  0  1  0  0  0  0  0999 V2000
   -2.8308   -2.1860    0.1634 S   0  0  0  0  0  0  0  0  0  0  0  0
   -0.8807   -2.1658    2.1545 C   0  0  0  0  0  0  0  0  0  0  0  0
   -3.8462   -0.7401    0.0793 C   0  0  0  0  0  0  0  0  0  0  0  0
   -3.2995    0.3102    0.7591 C   0  0  0  0  0  0  0  0  0  0  0  0
   -1.9741    0.0592    1.3381 C   0  0  0  0  0  3  0  0  0  0  0  0
   -1.5211   -1.3057    1.0805 C   0  0  2  0  0  3  0  0  0  0  0  0
   -5.0957   -0.7659   -0.7432 C   0  0  0  0  0  0  0  0  0  0  0  0
   -0.1228   -1.5929    2.7222 H   0  0  0  0  0  0  0  0  0  0  0  0
   -0.3662   -3.0482    1.7226 H   0  0  0  0  0  0  0  0  0  0  0  0
   -1.6430   -2.5367    2.8734 H   0  0  0  0  0  0  0  0  0  0  0  0
   -1.7380    0.5123    2.3195 H   0  0  0  0  0  0  0  0  0  0  0  0
   -3.8210    1.2785    0.8292 H   0  0  0  0  0  0  0  0  0  0  0  0
   -5.6827    0.1601   -0.5830 H   0  0  0  0  0  0  0  0  0  0  0  0
   -5.7405   -1.6336   -0.4899 H   0  0  0  0  0  0  0  0  0  0  0  0
   -4.8551   -0.8361   -1.8252 H   0  0  0  0  0  0  0  0  0  0  0  0
  1  6  1  0  0  0  0
  2  8  1  0  0  0  0
  2 10  1  0  0  0  0
  3  1  1  0  0  0  0
  3  4  2  0  0  0  0
  4 12  1  0  0  0  0
  4  5  1  0  0  0  0
  5 11  1  0  0  0  0
  6  5  1  0  0  0  0
  6  2  1  1  0  0  0
  7 13  1  0  0  0  0
  7 14  1  0  0  0  0
  7  3  1  0  0  0  0
  9  2  1  0  0  0  0
 15  7  1  0  0  0  0
M  END
