3
q = 0.0, confidence = 0.988

 24 25  0  0  0  0  0  0  0  0999 V2000
   -0.3421   -1.6153   -0.7563 C   0  0  0  0  0  0  0  0  0  0  0  0
    0.9525   -2.1552   -0.8478 C   0  0  0  0  0  0  0  0  0  0  0  0
    2.0037   -2.1625    0.1378 C   0  0  0  0  0  3  0  0  0  0  0  0
    2.0230   -1.6055    1.4392 C   0  0  0  0  0  0  0  0  0  0  0  0
    1.0001   -0.8686    2.1364 C   0  0  0  0  0  0  0  0  0  0  0  0
   -0.3004   -0.5403    1.7159 C   0  0  0  0  0  0  0  0  0  0  0  0
   -2.5316   -0.3824    0.2061 C   0  0  0  0  0  0  0  0  0  0  0  0
   -3.4327   -1.0994   -0.6182 C   0  0  0  0  0  0  0  0  0  0  0  0
   -4.7597   -0.6826   -0.7979 C   0  0  0  0  0  0  0  0  0  0  0  0
   -5.2190    0.4842   -0.1663 C   0  0  0  0  0  0  0  0  0  0  0  0
   -4.3451    1.2210    0.6499 C   0  0  0  0  0  0  0  0  0  0  0  0
   -3.0262    0.7852    0.8369 C   0  0  0  0  0  0  0  0  0  0  0  0
   -1.0509   -0.8911    0.4119 B   0  0  0  0  0  0  0  0  0  0  0  0
   -0.8825   -1.6357   -1.7185 H   0  0  0  0  0  0  0  0  0  0  0  0
    1.2683   -2.5535   -1.8275 H   0  0  0  0  0  0  0  0  0  0  0  0
    2.9612   -2.5879   -0.2007 H   0  0  0  0  0  0  0  0  0  0  0  0
    2.9925   -1.6659    1.9574 H   0  0  0  0  0  0  0  0  0  0  0  0
    1.3449   -0.4433    3.0948 H   0  0  0  0  0  0  0  0  0  0  0  0
   -0.8222    0.1291    2.4211 H   0  0  0  0  0  0  0  0  0  0  0  0
   -3.0912   -2.0189   -1.1211 H   0  0  0  0  0  0  0  0  0  0  0  0
   -5.4395   -1.2678   -1.4364 H   0  0  0  0  0  0  0  0  0  0  0  0
   -6.2571    0.8207   -0.3113 H   0  0  0  0  0  0  0  0  0  0  0  0
   -4.6953    2.1416    1.1418 H   0  0  0  0  0  0  0  0  0  0  0  0
   -2.3565    1.3851    1.4741 H   0  0  0  0  0  0  0  0  0  0  0  0
  1 13  1  0  0  0  0
  2  1  2  0  0  0  0
  2  3  1  0  0  0  0
  3  4  1  0  0  0  0
  4 17  1  0  0  0  0
  4  5  2  0  0  0  0
  5 18  1  0  0  0  0
  6  5  1  0  0  0  0
  6 19  1  0  0  0  0
  7 13  1  0  0  0  0
  7 12  1  0  0  0  0
  8  7  2  0  0  0  0
  9  8  1  0  0  0  0
  9 10  2  0  0  0  0
 10 11  1  0  0  0  0
 11 12  2  0  0  0  0
 11 23  1  0  0  0  0
 12 24  1  0  0  0  0
 13  6  2  0  0  0  0
 14  1  1  0  0  0  0
 15  2  1  0  0  0  0
 16  3  1  0  0  0  0
 20  8  1  0  0  0  0
 21  9  1  0  0  0  0
 22 10  1  0  0  0  0
M  END
