1
q = 0.0, confidence = 0.998

 64 68  0  0  0  0  0  0  0  0999 V2000
    3.1916   -0.3931    1.1728 C   0  0  0  0  0  2  0  0  0  0  0  0
   -6.1717    0.1721    0.3239 O   0  0  0  0  0  0  0  0  0  0  0  0
    5.6180   -0.7278    0.7953 C   0  0  0  0  0  0  0  0  0  0  0  0
    2.3029   -0.8943    2.0853 N   0  0  0  0  0  0  0  0  0  0  0  0
   -8.0398   -2.9182   -1.6314 O   0  0  0  0  0  0  0  0  0  0  0  0
   -7.4956    0.2636    0.0159 C   0  0  0  0  0  0  0  0  0  0  0  0
   -5.8316   -4.1853   -1.6607 O   0  0  0  0  0  0  0  0  0  0  0  0
   -6.8139   -3.9041   -1.7825 H   0  0  0  0  0  0  0  0  0  0  0  0
    4.3871   -0.9743    1.5009 N   0  0  0  0  0  0  0  0  0  0  0  0
    0.8726   -0.6025    2.0519 C   0  0  0  0  0  0  0  0  0  0  0  0
    0.7715    0.4346    1.6726 H   0  0  0  0  0  0  0  0  0  0  0  0
    0.4930   -0.6243    3.0940 H   0  0  0  0  0  0  0  0  0  0  0  0
   -7.8173    3.8061    1.3330 C   0  0  0  0  0  0  0  0  0  0  0  0
   -7.1586    4.6098    1.6952 H   0  0  0  0  0  0  0  0  0  0  0  0
    6.4544    0.3187    1.2370 C   0  0  0  0  0  0  0  0  0  0  0  0
    7.1392   -1.2758   -0.9881 C   0  0  0  0  0  0  0  0  0  0  0  0
    7.4010   -1.8922   -1.8628 H   0  0  0  0  0  0  0  0  0  0  0  0
   -2.0062   -2.2088    0.2795 O   0  0  0  0  0  0  0  0  0  0  0  0
    4.2464   -1.8266    2.5917 C   0  0  0  0  0  0  0  0  0  0  0  0
    5.0943   -2.3780    3.0078 H   0  0  0  0  0  0  0  0  0  0  0  0
    0.1068   -1.5771    1.1554 C   0  0  0  0  0  0  0  0  0  0  0  0
    0.1561   -2.6055    1.5706 H   0  0  0  0  0  0  0  0  0  0  0  0
    0.5881   -1.5990    0.1557 H   0  0  0  0  0  0  0  0  0  0  0  0
   -4.0881   -0.9444    0.3402 C   0  0  0  0  0  0  0  0  0  0  0  0
   -3.6686   -0.0753    0.8581 H   0  0  0  0  0  0  0  0  0  0  0  0
   -1.3522   -1.1735    1.0003 C   0  0  0  0  0  0  0  0  0  0  0  0
   -1.8381   -1.0354    1.9958 H   0  0  0  0  0  0  0  0  0  0  0  0
   -1.4292   -0.2054    0.4532 H   0  0  0  0  0  0  0  0  0  0  0  0
    5.9295   -1.5329   -0.3211 C   0  0  0  0  0  0  0  0  0  0  0  0
   -5.4425   -0.9401   -0.0141 C   0  0  0  0  0  0  0  0  0  0  0  0
   -3.3281   -2.0834   -0.0072 C   0  0  0  0  0  0  0  0  0  0  0  0
   -8.1523   -0.7495   -0.6392 C   0  0  0  0  0  0  0  0  0  0  0  0
   -9.2139   -0.6552   -0.8970 H   0  0  0  0  0  0  0  0  0  0  0  0
   -7.4681   -1.9679   -1.0310 C   0  0  0  0  0  0  0  0  0  0  0  0
   -3.9031   -3.1817   -0.6823 C   0  0  0  0  0  0  0  0  0  0  0  0
   -3.2804   -4.0489   -0.9365 H   0  0  0  0  0  0  0  0  0  0  0  0
   -9.4857    1.7528    0.4034 C   0  0  0  0  0  0  0  0  0  0  0  0
  -10.1519    0.9510    0.0549 H   0  0  0  0  0  0  0  0  0  0  0  0
    7.6523    0.5326    0.5336 C   0  0  0  0  0  0  0  0  0  0  0  0
    8.3194    1.3456    0.8615 H   0  0  0  0  0  0  0  0  0  0  0  0
    2.9255   -1.7790    2.9565 C   0  0  0  0  0  0  0  0  0  0  0  0
    2.3844   -2.2893    3.7589 H   0  0  0  0  0  0  0  0  0  0  0  0
   -5.2622   -3.1635   -1.0264 C   0  0  0  0  0  0  0  0  0  0  0  0
   -8.0882    1.5424    0.4529 C   0  0  0  0  0  0  0  0  0  0  0  0
  -10.0363    2.9727    0.8099 C   0  0  0  0  0  0  0  0  0  0  0  0
  -11.1261    3.1175    0.7672 H   0  0  0  0  0  0  0  0  0  0  0  0
   -9.2052    4.0056    1.2753 C   0  0  0  0  0  0  0  0  0  0  0  0
   -9.6410    4.9644    1.5942 H   0  0  0  0  0  0  0  0  0  0  0  0
   -6.0566   -2.0167   -0.6845 C   0  0  0  0  0  0  0  0  0  0  0  0
   -7.2613    2.5862    0.9281 C   0  0  0  0  0  0  0  0  0  0  0  0
   -6.1749    2.4318    0.9695 H   0  0  0  0  0  0  0  0  0  0  0  0
    4.9733   -2.5930   -0.7996 C   0  0  0  0  0  0  0  0  0  0  0  0
    5.4156   -3.1892   -1.6191 H   0  0  0  0  0  0  0  0  0  0  0  0
    4.0390   -2.1264   -1.1793 H   0  0  0  0  0  0  0  0  0  0  0  0
    4.6770   -3.2862    0.0142 H   0  0  0  0  0  0  0  0  0  0  0  0
    9.2823    0.0292   -1.3418 C   0  0  0  0  0  0  0  0  0  0  0  0
    9.7091   -0.8946   -1.7793 H   0  0  0  0  0  0  0  0  0  0  0  0
   10.0522    0.4988   -0.6989 H   0  0  0  0  0  0  0  0  0  0  0  0
    9.0865    0.7282   -2.1832 H   0  0  0  0  0  0  0  0  0  0  0  0
    8.0127   -0.2507   -0.5787 C   0  0  0  0  0  0  0  0  0  0  0  0
    6.0479    1.1970    2.3907 C   0  0  0  0  0  0  0  0  0  0  0  0
    6.8479    1.9166    2.6453 H   0  0  0  0  0  0  0  0  0  0  0  0
    5.8091    0.6081    3.3001 H   0  0  0  0  0  0  0  0  0  0  0  0
    5.1342    1.7744    2.1341 H   0  0  0  0  0  0  0  0  0  0  0  0
  1  9  1  0  0  0  0
  1  4  1  0  0  0  0
  3 15  1  0  0  0  0
  3  9  1  0  0  0  0
  4 41  1  0  0  0  0
  5 34  2  0  0  0  0
  6  2  1  0  0  0  0
  6 44  1  0  0  0  0
  7 43  1  0  0  0  0
  8  7  1  0  0  0  0
  9 19  1  0  0  0  0
 10  4  1  0  0  0  0
 10 12  1  0  0  0  0
 11 10  1  0  0  0  0
 13 14  1  0  0  0  0
 15 61  1  0  0  0  0
 16 60  2  0  0  0  0
 16 29  1  0  0  0  0
 17 16  1  0  0  0  0
 18 26  1  0  0  0  0
 19 41  2  0  0  0  0
 19 20  1  0  0  0  0
 21 22  1  0  0  0  0
 21 10  1  0  0  0  0
 23 21  1  0  0  0  0
 24 25  1  0  0  0  0
 26 21  1  0  0  0  0
 26 27  1  0  0  0  0
 28 26  1  0  0  0  0
 29  3  2  0  0  0  0
 30  2  1  0  0  0  0
 30 24  2  0  0  0  0
 31 18  1  0  0  0  0
 31 24  1  0  0  0  0
 32  6  2  0  0  0  0
 33 32  1  0  0  0  0
 34 49  1  0  0  0  0
 34 32  1  0  0  0  0
 35 31  2  0  0  0  0
 36 35  1  0  0  0  0
 37 44  2  0  0  0  0
 37 45  1  0  0  0  0
 38 37  1  0  0  0  0
 39 40  1  0  0  0  0
 39 15  2  0  0  0  0
 41 42  1  0  0  0  0
 43 49  2  0  0  0  0
 43 35  1  0  0  0  0
 44 50  1  0  0  0  0
 45 47  2  0  0  0  0
 46 45  1  0  0  0  0
 47 13  1  0  0  0  0
 47 48  1  0  0  0  0
 49 30  1  0  0  0  0
 50 51  1  0  0  0  0
 50 13  2  0  0  0  0
 52 29  1  0  0  0  0
 52 55  1  0  0  0  0
 53 52  1  0  0  0  0
 54 52  1  0  0  0  0
 56 58  1  0  0  0  0
 56 60  1  0  0  0  0
 57 56  1  0  0  0  0
 59 56  1  0  0  0  0
 60 39  1  0  0  0  0
 61 62  1  0  0  0  0
 61 63  1  0  0  0  0
 64 61  1  0  0  0  0
M  END
