38
q = 0.0, confidence = 0.994

 67 71  0  0  0  0  0  0  0  0999 V2000
   -6.7737    3.7756    1.0106 O   0  0  0  0  0  0  0  0  0  0  0  0
   -4.2328    3.9260    1.1221 O   0  0  0  0  0  0  0  0  0  0  0  0
   -5.2389    4.1351    1.1575 H   0  0  0  0  0  0  0  0  0  0  0  0
    2.5823   -2.1391   -1.7555 N   0  0  0  0  0  0  0  0  0  0  0  0
    3.6885   -0.2982   -2.0477 N   0  0  0  0  0  0  0  0  0  0  0  0
   -1.6457    0.1197    0.0682 O   0  0  0  0  0  0  0  0  0  0  0  0
    4.3846    3.2593   -1.2069 C   0  0  0  0  0  0  0  0  0  0  0  0
    3.8258    4.1783   -0.9687 H   0  0  0  0  0  0  0  0  0  0  0  0
  -10.8292   -2.3755   -0.8613 C   0  0  0  0  0  0  0  0  0  0  0  0
  -11.6377   -3.0887   -1.0813 H   0  0  0  0  0  0  0  0  0  0  0  0
   -6.4314   -0.1540   -0.1301 O   0  0  0  0  0  0  0  0  0  0  0  0
    3.2870   -0.7249   -3.3090 C   0  0  0  0  0  0  0  0  0  0  0  0
    3.5425   -0.1696   -4.2160 H   0  0  0  0  0  0  0  0  0  0  0  0
    2.1600    2.0452   -1.3863 C   0  0  0  0  0  0  0  0  0  0  0  0
    1.7028    1.5607   -2.2733 H   0  0  0  0  0  0  0  0  0  0  0  0
    1.7397    3.0638   -1.2939 H   0  0  0  0  0  0  0  0  0  0  0  0
    1.8343    1.4613   -0.4983 H   0  0  0  0  0  0  0  0  0  0  0  0
    0.3091   -2.8782   -1.0619 C   0  0  0  0  0  0  0  0  0  0  0  0
   -0.1860   -3.6939   -0.4919 H   0  0  0  0  0  0  0  0  0  0  0  0
   -0.1077   -2.9270   -2.0929 H   0  0  0  0  0  0  0  0  0  0  0  0
   -2.9312    1.9998    0.5937 C   0  0  0  0  0  0  0  0  0  0  0  0
   -1.9933    2.5384    0.7809 H   0  0  0  0  0  0  0  0  0  0  0  0
   -0.0056   -1.5170   -0.4394 C   0  0  0  0  0  0  0  0  0  0  0  0
    0.4440   -1.4369    0.5731 H   0  0  0  0  0  0  0  0  0  0  0  0
    0.4618   -0.7093   -1.0404 H   0  0  0  0  0  0  0  0  0  0  0  0
   -5.2909    0.5710    0.1117 C   0  0  0  0  0  0  0  0  0  0  0  0
    2.5836   -1.8869   -3.1220 C   0  0  0  0  0  0  0  0  0  0  0  0
    2.0954   -2.5518   -3.8408 H   0  0  0  0  0  0  0  0  0  0  0  0
    5.7917    3.2921   -1.2271 C   0  0  0  0  0  0  0  0  0  0  0  0
   -8.4622   -1.8937   -0.5793 C   0  0  0  0  0  0  0  0  0  0  0  0
   -7.4161   -2.2274   -0.5756 H   0  0  0  0  0  0  0  0  0  0  0  0
   -1.4958   -1.2291   -0.3619 C   0  0  0  0  0  0  0  0  0  0  0  0
   -1.9774   -1.3665   -1.3594 H   0  0  0  0  0  0  0  0  0  0  0  0
   -2.0034   -1.9208    0.3502 H   0  0  0  0  0  0  0  0  0  0  0  0
   -8.7538   -0.5399   -0.2941 C   0  0  0  0  0  0  0  0  0  0  0  0
   -9.4920   -2.8008   -0.8590 C   0  0  0  0  0  0  0  0  0  0  0  0
   -9.2467   -3.8513   -1.0762 H   0  0  0  0  0  0  0  0  0  0  0  0
    3.2595   -1.1616   -1.0748 C   0  0  0  0  0  2  0  0  0  0  0  0
   -4.0691   -0.0917   -0.0524 C   0  0  0  0  0  0  0  0  0  0  0  0
   -4.0670   -1.1433   -0.3585 H   0  0  0  0  0  0  0  0  0  0  0  0
    1.8105   -3.1940   -1.1008 C   0  0  0  0  0  0  0  0  0  0  0  0
    2.2199   -3.2774   -0.0743 H   0  0  0  0  0  0  0  0  0  0  0  0
    2.0010   -4.1501   -1.6285 H   0  0  0  0  0  0  0  0  0  0  0  0
   -7.8153    1.7205    0.3868 C   0  0  0  0  0  0  0  0  0  0  0  0
   -8.8126    2.1613    0.5016 H   0  0  0  0  0  0  0  0  0  0  0  0
   -5.3769    1.9218    0.5043 C   0  0  0  0  0  0  0  0  0  0  0  0
    6.5639   -0.3826   -2.0489 C   0  0  0  0  0  0  0  0  0  0  0  0
    7.6548   -0.2058   -2.0908 H   0  0  0  0  0  0  0  0  0  0  0  0
    6.2547   -0.8652   -2.9988 H   0  0  0  0  0  0  0  0  0  0  0  0
    6.3647   -1.1153   -1.2381 H   0  0  0  0  0  0  0  0  0  0  0  0
  -11.1300   -1.0316   -0.5819 C   0  0  0  0  0  0  0  0  0  0  0  0
  -12.1750   -0.6875   -0.5845 H   0  0  0  0  0  0  0  0  0  0  0  0
  -10.1049   -0.1222   -0.3017 C   0  0  0  0  0  0  0  0  0  0  0  0
  -10.3598    0.9261   -0.0924 H   0  0  0  0  0  0  0  0  0  0  0  0
    5.8155    0.8989   -1.7930 C   0  0  0  0  0  0  0  0  0  0  0  0
    6.4861    2.1039   -1.5222 C   0  0  0  0  0  0  0  0  0  0  0  0
    7.5876    2.1095   -1.5319 H   0  0  0  0  0  0  0  0  0  0  0  0
   -6.6694    2.5685    0.6606 C   0  0  0  0  0  0  0  0  0  0  0  0
    4.4054    0.9196   -1.7719 C   0  0  0  0  0  0  0  0  0  0  0  0
    6.5365    4.5603   -0.8961 C   0  0  0  0  0  0  0  0  0  0  0  0
    5.9768    5.4599   -1.2195 H   0  0  0  0  0  0  0  0  0  0  0  0
    7.5377    4.5833   -1.3690 H   0  0  0  0  0  0  0  0  0  0  0  0
    6.6894    4.6485    0.2010 H   0  0  0  0  0  0  0  0  0  0  0  0
   -7.6642    0.4097    0.0056 C   0  0  0  0  0  0  0  0  0  0  0  0
    3.6635    2.0821   -1.4700 C   0  0  0  0  0  0  0  0  0  0  0  0
   -2.8888    0.6458    0.1954 C   0  0  0  0  0  0  0  0  0  0  0  0
   -4.1632    2.6498    0.7510 C   0  0  0  0  0  0  0  0  0  0  0  0
  2  3  1  0  0  0  0
  4 41  1  0  0  0  0
  4 38  1  0  0  0  0
  5 59  1  0  0  0  0
  5 38  1  0  0  0  0
  6 66  1  0  0  0  0
  7  8  1  0  0  0  0
  9 36  2  0  0  0  0
  9 51  1  0  0  0  0
 10  9  1  0  0  0  0
 11 64  1  0  0  0  0
 11 26  1  0  0  0  0
 12 27  2  0  0  0  0
 12  5  1  0  0  0  0
 13 12  1  0  0  0  0
 14 16  1  0  0  0  0
 14 17  1  0  0  0  0
 15 14  1  0  0  0  0
 18 19  1  0  0  0  0
 18 23  1  0  0  0  0
 20 18  1  0  0  0  0
 21 67  1  0  0  0  0
 21 22  1  0  0  0  0
 23 32  1  0  0  0  0
 23 24  1  0  0  0  0
 25 23  1  0  0  0  0
 26 46  1  0  0  0  0
 27  4  1  0  0  0  0
 28 27  1  0  0  0  0
 29  7  1  0  0  0  0
 29 60  1  0  0  0  0
 30 31  1  0  0  0  0
 30 35  2  0  0  0  0
 32  6  1  0  0  0  0
 32 34  1  0  0  0  0
 33 32  1  0  0  0  0
 35 64  1  0  0  0  0
 36 30  1  0  0  0  0
 37 36  1  0  0  0  0
 39 26  2  0  0  0  0
 39 66  1  0  0  0  0
 40 39  1  0  0  0  0
 41 18  1  0  0  0  0
 41 42  1  0  0  0  0
 43 41  1  0  0  0  0
 44 45  1  0  0  0  0
 44 58  1  0  0  0  0
 46 58  1  0  0  0  0
 46 67  2  0  0  0  0
 47 55  1  0  0  0  0
 47 50  1  0  0  0  0
 48 47  1  0  0  0  0
 49 47  1  0  0  0  0
 51 53  2  0  0  0  0
 52 51  1  0  0  0  0
 53 35  1  0  0  0  0
 53 54  1  0  0  0  0
 55 59  2  0  0  0  0
 55 56  1  0  0  0  0
 56 29  2  0  0  0  0
 57 56  1  0  0  0  0
 58  1  2  0  0  0  0
 59 65  1  0  0  0  0
 60 63  1  0  0  0  0
 61 60  1  0  0  0  0
 62 60  1  0  0  0  0
 64 44  2  0  0  0  0
 65 14  1  0  0  0  0
 65  7  2  0  0  0  0
 66 21  2  0  0  0  0
 67  2  1  0  0  0  0
M  END
