3
q = 0.0, confidence = 0.996

 30 32  0  0  0  0  0  0  0  0999 V2000
    0.1512   -0.3885    0.0020 N   0  0  0  0  0  0  0  0  0  0  0  0
   -0.8184    1.5266    0.2771 N   0  0  0  0  0  0  0  0  0  0  0  0
   -1.0767    0.1810    0.1085 C   0  0  0  0  0  2  0  0  0  0  0  0
    1.1944    0.5449    0.1017 C   0  0  0  0  0  0  0  0  0  0  0  0
    0.5676    1.7897    0.2800 C   0  0  0  0  0  0  0  0  0  0  0  0
    1.0268    3.1202    0.4423 C   0  0  0  0  0  0  0  0  0  0  0  0
    2.1094    3.3066    0.4471 H   0  0  0  0  0  0  0  0  0  0  0  0
    0.0977    4.1328    0.5859 C   0  0  0  0  0  0  0  0  0  0  0  0
    0.4296    5.1730    0.7130 H   0  0  0  0  0  0  0  0  0  0  0  0
   -1.3044    3.8346    0.5616 C   0  0  0  0  0  0  0  0  0  0  0  0
   -2.0472    4.6376    0.6589 H   0  0  0  0  0  0  0  0  0  0  0  0
   -1.7468    2.5453    0.4049 C   0  0  0  0  0  0  0  0  0  0  0  0
   -2.7958    2.2286    0.3351 H   0  0  0  0  0  0  0  0  0  0  0  0
    0.3771   -1.8113   -0.2015 C   0  0  0  0  0  0  0  0  0  0  0  0
    0.7529   -2.2779    0.7307 H   0  0  0  0  0  0  0  0  0  0  0  0
    1.1259   -1.9534   -1.0032 H   0  0  0  0  0  0  0  0  0  0  0  0
   -0.5845   -2.2722   -0.4917 H   0  0  0  0  0  0  0  0  0  0  0  0
    2.5526    0.2169    0.0236 C   0  0  0  0  0  0  0  0  0  0  0  0
    3.7513   -0.0752   -0.0442 C   0  0  0  0  0  0  0  0  0  0  0  0
    5.1292   -0.4112   -0.1216 C   0  0  0  0  0  0  0  0  0  0  0  0
    5.5357   -1.7624   -0.2863 C   0  0  0  0  0  0  0  0  0  0  0  0
    4.7695   -2.5482   -0.3536 H   0  0  0  0  0  0  0  0  0  0  0  0
    6.8940   -2.0866   -0.3619 C   0  0  0  0  0  0  0  0  0  0  0  0
    7.1945   -3.1375   -0.4901 H   0  0  0  0  0  0  0  0  0  0  0  0
    7.8718   -1.0810   -0.2751 C   0  0  0  0  0  0  0  0  0  0  0  0
    8.9390   -1.3416   -0.3349 H   0  0  0  0  0  0  0  0  0  0  0  0
    7.4806    0.2588   -0.1117 C   0  0  0  0  0  0  0  0  0  0  0  0
    8.2421    1.0504   -0.0435 H   0  0  0  0  0  0  0  0  0  0  0  0
    6.1258    0.5973   -0.0355 C   0  0  0  0  0  0  0  0  0  0  0  0
    5.8177    1.6451    0.0913 H   0  0  0  0  0  0  0  0  0  0  0  0
  1  4  1  0  0  0  0
  1  3  1  0  0  0  0
  2  5  1  0  0  0  0
  2 12  1  0  0  0  0
  3  2  1  0  0  0  0
  4  5  2  0  0  0  0
  5  6  1  0  0  0  0
  6  7  1  0  0  0  0
  6  8  2  0  0  0  0
  8  9  1  0  0  0  0
 10  8  1  0  0  0  0
 10 11  1  0  0  0  0
 12 10  2  0  0  0  0
 13 12  1  0  0  0  0
 14  1  1  0  0  0  0
 14 15  1  0  0  0  0
 16 14  1  0  0  0  0
 17 14  1  0  0  0  0
 18  4  1  0  0  0  0
 19 18  3  0  0  0  0
 20 19  1  0  0  0  0
 20 29  1  0  0  0  0
 21 20  2  0  0  0  0
 22 21  1  0  0  0  0
 23 21  1  0  0  0  0
 23 25  2  0  0  0  0
 24 23  1  0  0  0  0
 25 27  1  0  0  0  0
 26 25  1  0  0  0  0
 27 28  1  0  0  0  0
 27 29  2  0  0  0  0
 29 30  1  0  0  0  0
M  END
