3
q = 0.0, confidence = 0.992

 28 30  0  0  0  0  0  0  0  0999 V2000
    0.1402    1.4331   -0.1023 N   0  0  0  0  0  0  0  0  0  0  0  0
    0.7234   -0.6343    0.1486 N   0  0  0  0  0  0  0  0  0  0  0  0
   -0.3723    0.1714    0.0652 C   0  0  0  0  0  2  0  0  0  0  0  0
    1.9224    0.0733    0.0348 C   0  0  0  0  0  0  0  0  0  0  0  0
    1.5561    1.4122   -0.1301 C   0  0  0  0  0  0  0  0  0  0  0  0
    2.2593    2.6418   -0.2631 C   0  0  0  0  0  0  0  0  0  0  0  0
    3.3576    2.6257   -0.2541 H   0  0  0  0  0  0  0  0  0  0  0  0
    1.5464    3.8157   -0.3938 C   0  0  0  0  0  0  0  0  0  0  0  0
    2.0743    4.7742   -0.4974 H   0  0  0  0  0  0  0  0  0  0  0  0
    0.1101    3.7933   -0.3967 C   0  0  0  0  0  0  0  0  0  0  0  0
   -0.4622    4.7231   -0.5154 H   0  0  0  0  0  0  0  0  0  0  0  0
   -0.5709    2.6134   -0.2516 C   0  0  0  0  0  0  0  0  0  0  0  0
   -1.6639    2.4966   -0.2475 H   0  0  0  0  0  0  0  0  0  0  0  0
    0.6040   -2.0874    0.2378 C   0  0  0  0  0  0  0  0  0  0  0  0
    0.4001   -2.3971    1.2815 H   0  0  0  0  0  0  0  0  0  0  0  0
    1.5436   -2.5503   -0.1106 H   0  0  0  0  0  0  0  0  0  0  0  0
   -0.2363   -2.3933   -0.4154 H   0  0  0  0  0  0  0  0  0  0  0  0
    3.2682   -0.5041    0.1053 C   0  0  0  0  0  0  0  0  0  0  0  0
    3.6337   -1.4201    1.1211 C   0  0  0  0  0  0  0  0  0  0  0  0
    2.8969   -1.7098    1.8844 H   0  0  0  0  0  0  0  0  0  0  0  0
    4.9351   -1.9347    1.1819 C   0  0  0  0  0  0  0  0  0  0  0  0
    5.2020   -2.6439    1.9799 H   0  0  0  0  0  0  0  0  0  0  0  0
    5.8997   -1.5376    0.2418 C   0  0  0  0  0  0  0  0  0  0  0  0
    6.9218   -1.9416    0.2942 H   0  0  0  0  0  0  0  0  0  0  0  0
    5.5523   -0.6235   -0.7656 C   0  0  0  0  0  0  0  0  0  0  0  0
    6.2997   -0.3142   -1.5119 H   0  0  0  0  0  0  0  0  0  0  0  0
    4.2487   -0.1158   -0.8392 C   0  0  0  0  0  0  0  0  0  0  0  0
    3.9692    0.5708   -1.6521 H   0  0  0  0  0  0  0  0  0  0  0  0
  1  3  1  0  0  0  0
  2 14  1  0  0  0  0
  3  2  1  0  0  0  0
  4 18  1  0  0  0  0
  4  2  1  0  0  0  0
  5  1  1  0  0  0  0
  5  4  2  0  0  0  0
  6  7  1  0  0  0  0
  6  5  1  0  0  0  0
  8  6  2  0  0  0  0
  9  8  1  0  0  0  0
 10  8  1  0  0  0  0
 10 12  2  0  0  0  0
 11 10  1  0  0  0  0
 12 13  1  0  0  0  0
 12  1  1  0  0  0  0
 14 15  1  0  0  0  0
 16 14  1  0  0  0  0
 17 14  1  0  0  0  0
 18 19  1  0  0  0  0
 19 21  2  0  0  0  0
 19 20  1  0  0  0  0
 21 22  1  0  0  0  0
 23 24  1  0  0  0  0
 23 21  1  0  0  0  0
 25 23  2  0  0  0  0
 26 25  1  0  0  0  0
 27 25  1  0  0  0  0
 27 18  2  0  0  0  0
 28 27  1  0  0  0  0
M  END
