18
q = -1.0, confidence = 0.0

 34 35  0  0  1  0  0  0  0  0999 V2000
   -0.4577   -2.4027    0.1643 S   0  0  0  0  0  0  0  0  0  0  0  0
   -1.4643    1.5135   -2.2728 Cl  0  0  0  0  0  0  0  0  0  0  0  0
   -3.4724   -2.4641    0.5248 S   0  0  0  0  0  0  0  0  0  0  0  0
   -0.9864    0.5319   -0.7735 B   0  0  2  0  0  0  0  0  0  0  0  0
   -0.1937   -0.4098   -1.5057 H   0  0  0  0  0  0  0  0  0  0  0  0
   -2.1762   -0.3506   -0.2590 N   0  0  0  0  0  0  0  0  0  0  0  0
   -1.9791   -1.6477    0.0845 C   0  0  0  0  0  0  0  0  0  0  0  0
   -3.4998    0.0769   -0.0940 C   0  0  0  0  0  0  0  0  0  0  0  0
   -4.3723   -0.9678    0.3075 C   0  0  0  0  0  0  0  0  0  0  0  0
   -5.7396   -0.7456    0.5199 C   0  0  0  0  0  0  0  0  0  0  0  0
   -6.4028   -1.5668    0.8272 H   0  0  0  0  0  0  0  0  0  0  0  0
   -6.2307    0.5558    0.3443 C   0  0  0  0  0  0  0  0  0  0  0  0
   -7.2994    0.7574    0.5084 H   0  0  0  0  0  0  0  0  0  0  0  0
   -5.3656    1.6052   -0.0244 C   0  0  0  0  0  0  0  0  0  0  0  0
   -5.7653    2.6234   -0.1396 H   0  0  0  0  0  0  0  0  0  0  0  0
   -4.0006    1.3835   -0.2446 C   0  0  0  0  0  0  0  0  0  0  0  0
   -3.3289    2.2002   -0.5366 H   0  0  0  0  0  0  0  0  0  0  0  0
   -0.0755    1.1825    0.3251 C   0  0  1  0  0  3  0  0  0  0  0  0
    0.2937    2.6258    0.2558 C   0  0  0  0  0  0  0  0  0  0  0  0
    0.9892    2.9693   -0.8605 O   0  0  0  0  0  0  0  0  0  0  0  0
    1.1684    4.3755   -1.0463 C   0  0  0  0  0  0  0  0  0  0  0  0
    0.1889    4.8843   -1.1518 H   0  0  0  0  0  0  0  0  0  0  0  0
    1.7593    4.4903   -1.9734 H   0  0  0  0  0  0  0  0  0  0  0  0
    1.7040    4.8249   -0.1860 H   0  0  0  0  0  0  0  0  0  0  0  0
   -0.1126    3.4479    1.0584 O   0  0  0  0  0  0  0  0  0  0  0  0
    0.1442    0.3797    1.4923 C   0  0  0  0  0  3  0  0  0  0  0  0
    1.1115    0.7821    2.5327 C   0  0  0  0  0  0  0  0  0  0  0  0
    1.9884    1.6350    2.4471 O   0  0  0  0  0  0  0  0  0  0  0  0
    0.9242    0.0466    3.6677 O   0  0  0  0  0  0  0  0  0  0  0  0
    1.7960    0.3612    4.7542 C   0  0  0  0  0  0  0  0  0  0  0  0
    2.8408    0.0611    4.5294 H   0  0  0  0  0  0  0  0  0  0  0  0
    1.4222   -0.2085    5.6241 H   0  0  0  0  0  0  0  0  0  0  0  0
    1.7892    1.4489    4.9681 H   0  0  0  0  0  0  0  0  0  0  0  0
   -0.6423   -0.2912    1.8674 H   0  0  0  0  0  0  0  0  0  0  0  0
  2  4  1  0  0  0  0
  4  5  1  6  0  0  0
  4  6  1  0  0  0  0
  4 18  1  0  0  0  0
  6  8  1  0  0  0  0
  6  7  1  0  0  0  0
  7  1  2  0  0  0  0
  7  3  1  0  0  0  0
  8  9  1  0  0  0  0
  9 10  2  0  0  0  0
  9  3  1  0  0  0  0
 10 11  1  0  0  0  0
 12 13  1  0  0  0  0
 12 10  1  0  0  0  0
 14 12  2  0  0  0  0
 15 14  1  0  0  0  0
 16  8  2  0  0  0  0
 16 14  1  0  0  0  0
 17 16  1  0  0  0  0
 18 19  1  1  0  0  0
 18 26  1  0  0  0  0
 19 25  2  0  0  0  0
 20 19  1  0  0  0  0
 21 20  1  0  0  0  0
 21 24  1  0  0  0  0
 22 21  1  0  0  0  0
 23 21  1  0  0  0  0
 26 34  1  0  0  0  0
 26 27  1  0  0  0  0
 27 29  1  0  0  0  0
 28 27  2  0  0  0  0
 29 30  1  0  0  0  0
 30 33  1  0  0  0  0
 30 32  1  0  0  0  0
 31 30  1  0  0  0  0
M  END
