4
q = -1.0, confidence = 0.016

 29 30  0  0  0  0  0  0  0  0999 V2000
   -8.4959    3.9116   -0.7635 O   0  0  0  0  0  0  0  0  0  0  0  0
  -10.2626    3.5486    0.4736 O   0  0  0  0  0  0  0  0  0  0  0  0
   -9.2515    3.1755   -0.1256 N   0  0  0  0  0  0  0  0  0  0  0  0
   -0.1511   -1.0709    0.0180 C   0  0  0  0  0  1  0  0  0  0  0  0
   -1.3376   -1.4383    0.0198 C   0  0  0  0  0  2  0  0  0  0  0  0
   -2.6987   -1.8510    0.0217 C   0  0  0  0  0  0  0  0  0  0  0  0
   -3.6897   -1.1058    0.7200 C   0  0  0  0  0  0  0  0  0  0  0  0
   -5.0256   -1.5008    0.7126 C   0  0  0  0  0  0  0  0  0  0  0  0
   -5.4464   -2.6588    0.0093 C   0  0  0  0  0  0  0  0  0  0  0  0
   -4.4505   -3.4235   -0.6490 C   0  0  0  0  0  0  0  0  0  0  0  0
   -3.1131   -3.0272   -0.6586 C   0  0  0  0  0  0  0  0  0  0  0  0
   -8.2754   -0.9979    0.0351 C   0  0  0  0  0  0  0  0  0  0  0  0
   -7.4714   -0.0879   -0.7017 C   0  0  0  0  0  0  0  0  0  0  0  0
   -7.7862    1.2696   -0.7586 C   0  0  0  0  0  0  0  0  0  0  0  0
   -8.9198    1.7370   -0.0746 C   0  0  0  0  0  0  0  0  0  0  0  0
   -9.7523    0.8685    0.6442 C   0  0  0  0  0  0  0  0  0  0  0  0
   -9.4312   -0.4901    0.6836 C   0  0  0  0  0  0  0  0  0  0  0  0
   -6.8342   -3.1288   -0.0070 C   0  0  0  0  0  0  0  0  0  0  0  0
   -8.0107   -2.4405    0.0818 C   0  0  0  0  0  0  0  0  0  0  0  0
   -3.3807   -0.2103    1.2781 H   0  0  0  0  0  0  0  0  0  0  0  0
   -5.7636   -0.9158    1.2798 H   0  0  0  0  0  0  0  0  0  0  0  0
   -4.7469   -4.3439   -1.1768 H   0  0  0  0  0  0  0  0  0  0  0  0
   -2.3589   -3.6257   -1.1895 H   0  0  0  0  0  0  0  0  0  0  0  0
   -6.5950   -0.4624   -1.2482 H   0  0  0  0  0  0  0  0  0  0  0  0
   -7.1786    1.9848   -1.3287 H   0  0  0  0  0  0  0  0  0  0  0  0
  -10.6349    1.2783    1.1529 H   0  0  0  0  0  0  0  0  0  0  0  0
  -10.0809   -1.1846    1.2381 H   0  0  0  0  0  0  0  0  0  0  0  0
   -6.9350   -4.2264   -0.0821 H   0  0  0  0  0  0  0  0  0  0  0  0
   -8.9203   -3.0579    0.1831 H   0  0  0  0  0  0  0  0  0  0  0  0
  1  3  2  0  0  0  0
  3 15  1  0  0  0  0
  3  2  2  0  0  0  0
  4  5  1  0  0  0  0
  5  6  1  0  0  0  0
  6  7  1  0  0  0  0
  7 20  1  0  0  0  0
  8  7  2  0  0  0  0
  8 21  1  0  0  0  0
  9  8  1  0  0  0  0
 10  9  2  0  0  0  0
 11 10  1  0  0  0  0
 11  6  2  0  0  0  0
 12 19  1  0  0  0  0
 12 17  1  0  0  0  0
 13 12  2  0  0  0  0
 14 13  1  0  0  0  0
 14 15  2  0  0  0  0
 15 16  1  0  0  0  0
 16 17  2  0  0  0  0
 16 26  1  0  0  0  0
 17 27  1  0  0  0  0
 18  9  1  0  0  0  0
 18 19  2  0  0  0  0
 19 29  1  0  0  0  0
 22 10  1  0  0  0  0
 23 11  1  0  0  0  0
 24 13  1  0  0  0  0
 25 14  1  0  0  0  0
 28 18  1  0  0  0  0
M  END
