5
q = -1.0, confidence = 0.0

 20 19  0  0  1  0  0  0  0  0999 V2000
   -1.7164    0.3689    2.0526 O   0  0  0  0  0  0  0  0  0  0  0  0
   -2.8433   -1.4791    1.3849 O   0  0  0  0  0  0  0  0  0  0  0  0
   -4.6529    0.3702   -2.1301 O   0  0  0  0  0  0  0  0  0  0  0  0
   -4.2184    0.6853    0.0721 O   0  0  0  0  0  0  0  0  0  0  0  0
   -1.6397   -0.2971   -0.2621 C   0  0  0  0  0  2  0  0  0  0  0  0
   -2.4115    0.0200   -1.3332 C   0  0  1  0  0  3  0  0  0  0  0  0
   -1.8937    0.0409   -2.7473 C   0  0  0  0  0  0  0  0  0  0  0  0
   -0.9246   -0.4885   -2.8151 H   0  0  0  0  0  0  0  0  0  0  0  0
   -1.7655    1.0831   -3.1132 H   0  0  0  0  0  0  0  0  0  0  0  0
   -2.6264   -0.4428   -3.4230 H   0  0  0  0  0  0  0  0  0  0  0  0
   -2.0746   -0.3930    1.1580 C   0  0  0  0  0  0  0  0  0  0  0  0
   -3.2639   -1.6560    2.7391 C   0  0  0  0  0  0  0  0  0  0  0  0
   -3.8173   -2.6116    2.7653 H   0  0  0  0  0  0  0  0  0  0  0  0
   -3.9205   -0.8203    3.0586 H   0  0  0  0  0  0  0  0  0  0  0  0
   -2.3930   -1.6928    3.4247 H   0  0  0  0  0  0  0  0  0  0  0  0
   -3.8592    0.3554   -1.2016 C   0  0  0  0  0  0  0  0  0  0  0  0
   -5.6098    0.9306    0.2713 C   0  0  0  0  0  0  0  0  0  0  0  0
   -5.7207    1.2283    1.3298 H   0  0  0  0  0  0  0  0  0  0  0  0
   -6.2083    0.0194    0.0640 H   0  0  0  0  0  0  0  0  0  0  0  0
   -5.9713    1.7373   -0.3982 H   0  0  0  0  0  0  0  0  0  0  0  0
  2 12  1  0  0  0  0
  3 16  2  0  0  0  0
  4 17  1  0  0  0  0
  5 11  1  0  0  0  0
  6 16  1  0  0  0  0
  6  5  1  6  0  0  0
  7  6  1  0  0  0  0
  8  7  1  0  0  0  0
  9  7  1  0  0  0  0
 10  7  1  0  0  0  0
 11  2  1  0  0  0  0
 11  1  2  0  0  0  0
 12 13  1  0  0  0  0
 12 14  1  0  0  0  0
 12 15  1  0  0  0  0
 16  4  1  0  0  0  0
 17 18  1  0  0  0  0
 19 17  1  0  0  0  0
 20 17  1  0  0  0  0
M  END
