5
q = -1.0, confidence = 0.01

 55 59  0  0  1  0  0  0  0  0999 V2000
   -2.8025    1.3072    1.2179 S   0  0  0  0  0  0  0  0  0  0  0  0
   -1.8785   -0.9565   -2.6699 O   0  0  0  0  0  0  0  0  0  0  0  0
   -0.6873    0.1564   -0.2760 C   0  0  0  0  0  0  0  0  0  0  0  0
    0.1220    1.3186   -0.5601 C   0  0  0  0  0  0  0  0  0  0  0  0
    1.5272    1.1086   -0.7667 C   0  0  0  0  0  3  0  0  0  0  0  0
    2.1716    1.9965   -0.8479 H   0  0  0  0  0  0  0  0  0  0  0  0
    2.0827   -0.1915   -0.8340 C   0  0  1  0  0  3  0  0  0  0  0  0
    1.1339   -1.3200   -1.1942 C   0  0  0  0  0  0  0  0  0  0  0  0
    1.6106   -2.2903   -0.9621 H   0  0  0  0  0  0  0  0  0  0  0  0
    0.8489   -1.3237   -2.2729 H   0  0  0  0  0  0  0  0  0  0  0  0
   -0.0642   -1.1386   -0.2791 C   0  0  2  0  0  3  0  0  0  0  0  0
   -2.1403    0.3131   -0.0406 C   0  0  0  0  0  0  0  0  0  0  0  0
   -3.1598   -0.2975   -0.7825 C   0  0  0  0  0  0  0  0  0  0  0  0
   -4.4645    0.0329   -0.2880 C   0  0  0  0  0  0  0  0  0  0  0  0
   -5.4006   -0.3382   -0.7256 H   0  0  0  0  0  0  0  0  0  0  0  0
   -4.4257    0.9061    0.7789 C   0  0  0  0  0  0  0  0  0  0  0  0
   -5.2654    1.3404    1.3351 H   0  0  0  0  0  0  0  0  0  0  0  0
   -2.8797   -1.1426   -1.9808 C   0  0  0  0  0  0  0  0  0  0  0  0
   -3.8638   -2.2519   -2.2903 C   0  0  0  0  0  0  0  0  0  0  0  0
   -3.5566   -2.7654   -3.2187 H   0  0  0  0  0  0  0  0  0  0  0  0
   -4.8968   -1.8639   -2.4013 H   0  0  0  0  0  0  0  0  0  0  0  0
   -3.8739   -2.9756   -1.4480 H   0  0  0  0  0  0  0  0  0  0  0  0
   -0.4718    2.6709   -0.7354 C   0  0  0  0  0  0  0  0  0  0  0  0
   -1.4573    2.8503   -1.7301 C   0  0  0  0  0  0  0  0  0  0  0  0
   -1.7688    1.9832   -2.3325 H   0  0  0  0  0  0  0  0  0  0  0  0
   -2.0224    4.1143   -1.9450 C   0  0  0  0  0  0  0  0  0  0  0  0
   -2.7914    4.2427   -2.7219 H   0  0  0  0  0  0  0  0  0  0  0  0
   -1.6073    5.2134   -1.1754 C   0  0  0  0  0  0  0  0  0  0  0  0
   -2.0545    6.2051   -1.3420 H   0  0  0  0  0  0  0  0  0  0  0  0
   -0.6196    5.0428   -0.1922 C   0  0  0  0  0  0  0  0  0  0  0  0
   -0.2930    5.8991    0.4171 H   0  0  0  0  0  0  0  0  0  0  0  0
   -0.0547    3.7781    0.0287 C   0  0  0  0  0  0  0  0  0  0  0  0
    0.7019    3.6390    0.8154 H   0  0  0  0  0  0  0  0  0  0  0  0
    3.5481   -0.3779   -0.9487 C   0  0  0  0  0  0  0  0  0  0  0  0
    4.4629    0.5623   -0.4145 C   0  0  0  0  0  0  0  0  0  0  0  0
    4.0932    1.4263    0.1558 H   0  0  0  0  0  0  0  0  0  0  0  0
    5.8427    0.3929   -0.5673 C   0  0  0  0  0  0  0  0  0  0  0  0
    6.5310    1.1343   -0.1339 H   0  0  0  0  0  0  0  0  0  0  0  0
    6.3507   -0.7233   -1.2543 C   0  0  0  0  0  0  0  0  0  0  0  0
    7.4368   -0.8586   -1.3679 H   0  0  0  0  0  0  0  0  0  0  0  0
    5.4597   -1.6669   -1.7845 C   0  0  0  0  0  0  0  0  0  0  0  0
    5.8424   -2.5461   -2.3248 H   0  0  0  0  0  0  0  0  0  0  0  0
    4.0760   -1.4987   -1.6304 C   0  0  0  0  0  0  0  0  0  0  0  0
    3.3965   -2.2460   -2.0640 H   0  0  0  0  0  0  0  0  0  0  0  0
   -0.8218   -2.3512    0.1304 C   0  0  0  0  0  0  0  0  0  0  0  0
   -0.7867   -3.5031   -0.6889 C   0  0  0  0  0  0  0  0  0  0  0  0
   -0.1901   -3.4978   -1.6120 H   0  0  0  0  0  0  0  0  0  0  0  0
   -1.5372   -4.6444   -0.3679 C   0  0  0  0  0  0  0  0  0  0  0  0
   -1.4964   -5.5241   -1.0282 H   0  0  0  0  0  0  0  0  0  0  0  0
   -2.3364   -4.6636    0.7842 C   0  0  0  0  0  0  0  0  0  0  0  0
   -2.9212   -5.5598    1.0411 H   0  0  0  0  0  0  0  0  0  0  0  0
   -2.3712   -3.5305    1.6160 C   0  0  0  0  0  0  0  0  0  0  0  0
   -2.9811   -3.5362    2.5321 H   0  0  0  0  0  0  0  0  0  0  0  0
   -1.6219   -2.3933    1.2960 C   0  0  0  0  0  0  0  0  0  0  0  0
   -1.6520   -1.5252    1.9675 H   0  0  0  0  0  0  0  0  0  0  0  0
  2 18  2  0  0  0  0
  3 12  1  0  0  0  0
  4  3  2  0  0  0  0
  5  4  1  0  0  0  0
  6  5  1  0  0  0  0
  7 34  1  6  0  0  0
  7  5  1  0  0  0  0
  8  9  1  0  0  0  0
  8  7  1  0  0  0  0
  8 11  1  0  0  0  0
 10  8  1  0  0  0  0
 11  3  1  0  0  0  0
 11 45  1  6  0  0  0
 12  1  1  0  0  0  0
 13 14  1  0  0  0  0
 13 12  2  0  0  0  0
 14 16  2  0  0  0  0
 15 14  1  0  0  0  0
 16  1  1  0  0  0  0
 16 17  1  0  0  0  0
 18 13  1  0  0  0  0
 19 18  1  0  0  0  0
 19 22  1  0  0  0  0
 20 19  1  0  0  0  0
 21 19  1  0  0  0  0
 23  4  1  0  0  0  0
 23 32  1  0  0  0  0
 24 23  2  0  0  0  0
 25 24  1  0  0  0  0
 26 24  1  0  0  0  0
 26 28  2  0  0  0  0
 27 26  1  0  0  0  0
 28 30  1  0  0  0  0
 29 28  1  0  0  0  0
 30 32  2  0  0  0  0
 30 31  1  0  0  0  0
 32 33  1  0  0  0  0
 34 35  1  0  0  0  0
 35 36  1  0  0  0  0
 37 35  2  0  0  0  0
 37 38  1  0  0  0  0
 39 37  1  0  0  0  0
 40 39  1  0  0  0  0
 41 43  1  0  0  0  0
 41 39  2  0  0  0  0
 42 41  1  0  0  0  0
 43 34  2  0  0  0  0
 44 43  1  0  0  0  0
 45 54  1  0  0  0  0
 46 48  1  0  0  0  0
 46 45  2  0  0  0  0
 47 46  1  0  0  0  0
 48 50  2  0  0  0  0
 49 48  1  0  0  0  0
 50 51  1  0  0  0  0
 50 52  1  0  0  0  0
 52 53  1  0  0  0  0
 54 52  2  0  0  0  0
 54 55  1  0  0  0  0
M  END
