19
q = 0.0, confidence = 0.996

 31 32  0  0  0  0  0  0  0  0999 V2000
   -1.6982   -1.4684    0.5264 S   0  0  0  0  0  0  0  0  0  0  0  0
   -4.2561   -2.7282    0.8666 O   0  0  0  0  0  0  0  0  0  0  0  0
   -4.2912   -3.6009    0.4373 H   0  0  0  0  0  0  0  0  0  0  0  0
   -0.8651    0.5654   -0.6973 N   0  0  0  0  0  0  0  0  0  0  0  0
   -2.8816   -0.2481    0.0744 C   0  0  0  0  0  0  0  0  0  0  0  0
   -2.2488    0.7856   -0.5778 C   0  0  0  0  0  0  0  0  0  0  0  0
   -4.3366   -0.4045    0.3969 C   0  0  0  0  0  0  0  0  0  0  0  0
   -4.9201    0.3815   -0.1232 H   0  0  0  0  0  0  0  0  0  0  0  0
   -4.5020   -0.2566    1.4873 H   0  0  0  0  0  0  0  0  0  0  0  0
    0.0349    1.5580   -1.3097 C   0  0  0  0  0  0  0  0  0  0  0  0
   -0.4002    1.8900   -2.2720 H   0  0  0  0  0  0  0  0  0  0  0  0
    0.9719    1.0065   -1.5314 H   0  0  0  0  0  0  0  0  0  0  0  0
    0.1675    4.0574   -0.8891 C   0  0  0  0  0  0  0  0  0  0  0  0
   -0.1733    4.2230   -1.9240 H   0  0  0  0  0  0  0  0  0  0  0  0
   -2.8662    2.0293   -1.1323 C   0  0  0  0  0  0  0  0  0  0  0  0
   -2.4293    2.9386   -0.6715 H   0  0  0  0  0  0  0  0  0  0  0  0
   -3.9545    2.0390   -0.9434 H   0  0  0  0  0  0  0  0  0  0  0  0
   -2.7145    2.1097   -2.2291 H   0  0  0  0  0  0  0  0  0  0  0  0
   -0.3823   -0.5860   -0.1593 C   0  0  0  0  0  2  0  0  0  0  0  0
    0.8910    4.9475    1.2535 C   0  0  0  0  0  0  0  0  0  0  0  0
    1.1164    5.8069    1.9029 H   0  0  0  0  0  0  0  0  0  0  0  0
   -4.8954   -1.7798    0.0293 C   0  0  0  0  0  0  0  0  0  0  0  0
   -6.0020   -1.7759    0.1804 H   0  0  0  0  0  0  0  0  0  0  0  0
   -4.7060   -1.9791   -1.0520 H   0  0  0  0  0  0  0  0  0  0  0  0
    0.4570    5.1558   -0.0643 C   0  0  0  0  0  0  0  0  0  0  0  0
    0.3402    6.1786   -0.4535 H   0  0  0  0  0  0  0  0  0  0  0  0
    0.3139    2.7429   -0.4077 C   0  0  0  0  0  0  0  0  0  0  0  0
    0.7548    2.5409    0.9156 C   0  0  0  0  0  0  0  0  0  0  0  0
    0.8861    1.5146    1.2939 H   0  0  0  0  0  0  0  0  0  0  0  0
    1.0398    3.6380    1.7401 C   0  0  0  0  0  0  0  0  0  0  0  0
    1.3883    3.4680    2.7699 H   0  0  0  0  0  0  0  0  0  0  0  0
  3  2  1  0  0  0  0
  4  6  1  0  0  0  0
  4 19  1  0  0  0  0
  5  7  1  0  0  0  0
  5  1  1  0  0  0  0
  6  5  2  0  0  0  0
  7  9  1  0  0  0  0
  8  7  1  0  0  0  0
 10  4  1  0  0  0  0
 10 27  1  0  0  0  0
 11 10  1  0  0  0  0
 12 10  1  0  0  0  0
 13 27  2  0  0  0  0
 13 25  1  0  0  0  0
 14 13  1  0  0  0  0
 15 17  1  0  0  0  0
 15 16  1  0  0  0  0
 15  6  1  0  0  0  0
 18 15  1  0  0  0  0
 19  1  1  0  0  0  0
 20 30  1  0  0  0  0
 20 21  1  0  0  0  0
 22 23  1  0  0  0  0
 22  7  1  0  0  0  0
 22  2  1  0  0  0  0
 24 22  1  0  0  0  0
 25 20  2  0  0  0  0
 26 25  1  0  0  0  0
 27 28  1  0  0  0  0
 28 29  1  0  0  0  0
 28 30  2  0  0  0  0
 30 31  1  0  0  0  0
M  END
