5
q = 0.0, confidence = 0.82

 42 45  0  0  0  0  0  0  0  0999 V2000
    3.1650    0.3623    0.8167 N   0  0  0  0  0  0  0  0  0  0  0  0
   -2.2862    2.4024    0.6089 N   0  0  0  0  0  0  0  0  0  0  0  0
    1.1958    1.2819    1.0156 N   0  0  0  0  0  0  0  0  0  0  0  0
    0.3538    3.2112    0.0591 N   0  0  0  0  0  0  0  0  0  0  0  0
   -1.2826    1.6018    0.9369 C   0  0  0  0  0  3  0  0  0  0  0  0
    2.2881    1.2005    0.2308 C   0  0  0  0  0  3  0  0  0  0  0  0
    2.4062    1.7119   -0.7276 H   0  0  0  0  0  0  0  0  0  0  0  0
   -2.8666    5.6235   -1.0696 C   0  0  0  0  0  0  0  0  0  0  0  0
   -3.7041    6.2732   -1.3662 H   0  0  0  0  0  0  0  0  0  0  0  0
   -2.0402    3.5942   -0.0047 C   0  0  0  0  0  0  0  0  0  0  0  0
   -1.5355    6.0107   -1.3931 C   0  0  0  0  0  0  0  0  0  0  0  0
   -1.3613    6.9520   -1.9357 H   0  0  0  0  0  0  0  0  0  0  0  0
    2.6099   -0.0976    2.0123 C   0  0  0  0  0  0  0  0  0  0  0  0
    3.1574   -0.7766    2.6710 H   0  0  0  0  0  0  0  0  0  0  0  0
    1.3658    0.4770    2.1393 C   0  0  0  0  0  0  0  0  0  0  0  0
    0.5914    0.4522    2.9339 H   0  0  0  0  0  0  0  0  0  0  0  0
   -0.6926    3.9983   -0.3219 C   0  0  0  0  0  0  0  0  0  0  0  0
   -0.4614    5.2135   -1.0232 C   0  0  0  0  0  0  0  0  0  0  0  0
    0.5785    5.4894   -1.2522 H   0  0  0  0  0  0  0  0  0  0  0  0
    5.4799    1.0243    0.3604 C   0  0  0  0  0  0  0  0  0  0  0  0
    7.0023   -0.5694   -0.7349 C   0  0  0  0  0  0  0  0  0  0  0  0
    4.4671    0.0386    0.2916 C   0  0  0  0  0  0  0  0  0  0  0  0
   -3.1191    4.4414   -0.3870 C   0  0  0  0  0  0  0  0  0  0  0  0
   -4.1380    4.1179   -0.1292 H   0  0  0  0  0  0  0  0  0  0  0  0
    4.6799   -1.2408   -0.2642 C   0  0  0  0  0  0  0  0  0  0  0  0
    0.0528    2.0904    0.6745 C   0  0  0  0  0  0  0  0  0  0  0  0
    5.9630   -1.5149   -0.7747 C   0  0  0  0  0  0  0  0  0  0  0  0
    6.1502   -2.5044   -1.2207 H   0  0  0  0  0  0  0  0  0  0  0  0
    8.3699   -0.8869   -1.2832 C   0  0  0  0  0  0  0  0  0  0  0  0
    8.4091   -1.8992   -1.7281 H   0  0  0  0  0  0  0  0  0  0  0  0
    9.1405   -0.8350   -0.4861 H   0  0  0  0  0  0  0  0  0  0  0  0
    8.6681   -0.1572   -2.0640 H   0  0  0  0  0  0  0  0  0  0  0  0
    6.7397    0.6913   -0.1619 C   0  0  0  0  0  0  0  0  0  0  0  0
    7.5447    1.4420   -0.1151 H   0  0  0  0  0  0  0  0  0  0  0  0
    5.2193    2.3774    0.9729 C   0  0  0  0  0  0  0  0  0  0  0  0
    4.5937    3.0170    0.3153 H   0  0  0  0  0  0  0  0  0  0  0  0
    6.1678    2.9169    1.1521 H   0  0  0  0  0  0  0  0  0  0  0  0
    4.6809    2.2950    1.9388 H   0  0  0  0  0  0  0  0  0  0  0  0
    3.5933   -2.2815   -0.2955 C   0  0  0  0  0  0  0  0  0  0  0  0
    3.5286   -2.8297    0.6675 H   0  0  0  0  0  0  0  0  0  0  0  0
    3.7788   -3.0355   -1.0831 H   0  0  0  0  0  0  0  0  0  0  0  0
    2.5891   -1.8480   -0.4627 H   0  0  0  0  0  0  0  0  0  0  0  0
  1 13  1  0  0  0  0
  2  5  1  0  0  0  0
  3 15  1  0  0  0  0
  4 26  1  0  0  0  0
  6  1  1  0  0  0  0
  6  3  1  0  0  0  0
  7  6  1  0  0  0  0
  8 23  2  0  0  0  0
  9  8  1  0  0  0  0
 10  2  2  0  0  0  0
 11  8  1  0  0  0  0
 11 18  2  0  0  0  0
 12 11  1  0  0  0  0
 13 15  2  0  0  0  0
 13 14  1  0  0  0  0
 15 16  1  0  0  0  0
 17 10  1  0  0  0  0
 17  4  2  0  0  0  0
 18 17  1  0  0  0  0
 19 18  1  0  0  0  0
 20 35  1  0  0  0  0
 21 33  1  0  0  0  0
 22 20  1  0  0  0  0
 22  1  1  0  0  0  0
 23 24  1  0  0  0  0
 23 10  1  0  0  0  0
 25 22  2  0  0  0  0
 26  5  2  0  0  0  0
 26  3  1  0  0  0  0
 27 21  2  0  0  0  0
 27 25  1  0  0  0  0
 28 27  1  0  0  0  0
 29 21  1  0  0  0  0
 29 31  1  0  0  0  0
 30 29  1  0  0  0  0
 32 29  1  0  0  0  0
 33 34  1  0  0  0  0
 33 20  2  0  0  0  0
 35 37  1  0  0  0  0
 35 38  1  0  0  0  0
 36 35  1  0  0  0  0
 39 25  1  0  0  0  0
 39 40  1  0  0  0  0
 41 39  1  0  0  0  0
 42 39  1  0  0  0  0
M  END
