12
q = -1.0, confidence = 0.002

 23 24  0  0  0  0  0  0  0  0999 V2000
    0.2330    1.7605    0.2723 N   0  0  0  0  0  0  0  0  0  0  0  0
    1.2149    2.6625    0.4997 C   0  0  0  0  0  0  0  0  0  0  0  0
    1.0282    4.0282    0.2840 C   0  0  0  0  0  0  0  0  0  0  0  0
   -0.2200    4.4730   -0.1898 C   0  0  0  0  0  0  0  0  0  0  0  0
   -1.2402    3.5430   -0.4006 C   0  0  0  0  0  0  0  0  0  0  0  0
   -1.0058    2.1759   -0.1478 C   0  0  0  0  0  0  0  0  0  0  0  0
   -1.9684    1.0883   -0.2250 C   0  0  0  0  0  0  0  0  0  0  0  0
   -3.3525    1.2507   -0.4557 C   0  0  0  0  0  0  0  0  0  0  0  0
   -4.2118    0.1560   -0.3612 C   0  0  0  0  0  0  0  0  0  0  0  0
   -3.7202   -1.1235   -0.0085 C   0  0  0  0  0  0  0  0  0  0  0  0
   -2.3313   -1.2775    0.1940 C   0  0  0  0  0  0  0  0  0  0  0  0
   -1.4371   -0.2018    0.0629 C   0  0  0  0  0  3  0  0  0  0  0  0
   -4.6634   -2.2870    0.1433 C   0  0  0  0  0  0  0  0  0  0  0  0
    2.1630    2.2548    0.8791 H   0  0  0  0  0  0  0  0  0  0  0  0
    1.8490    4.7290    0.4889 H   0  0  0  0  0  0  0  0  0  0  0  0
   -0.3952    5.5415   -0.3829 H   0  0  0  0  0  0  0  0  0  0  0  0
   -2.2291    3.8646   -0.7544 H   0  0  0  0  0  0  0  0  0  0  0  0
   -3.7646    2.2442   -0.6895 H   0  0  0  0  0  0  0  0  0  0  0  0
   -5.2894    0.2922   -0.5396 H   0  0  0  0  0  0  0  0  0  0  0  0
   -1.9575   -2.2758    0.4647 H   0  0  0  0  0  0  0  0  0  0  0  0
   -4.1297   -3.2234    0.3943 H   0  0  0  0  0  0  0  0  0  0  0  0
   -5.4099   -2.0941    0.9418 H   0  0  0  0  0  0  0  0  0  0  0  0
   -5.2389   -2.4590   -0.7899 H   0  0  0  0  0  0  0  0  0  0  0  0
  1  2  1  0  0  0  0
  2 14  1  0  0  0  0
  3 15  1  0  0  0  0
  3  2  2  0  0  0  0
  4  3  1  0  0  0  0
  5  4  2  0  0  0  0
  5  6  1  0  0  0  0
  6  1  2  0  0  0  0
  7  6  1  0  0  0  0
  7 12  1  0  0  0  0
  8  9  1  0  0  0  0
  8  7  2  0  0  0  0
  9 10  2  0  0  0  0
 10 13  1  0  0  0  0
 10 11  1  0  0  0  0
 11 20  1  0  0  0  0
 12 11  2  0  0  0  0
 13 21  1  0  0  0  0
 13 22  1  0  0  0  0
 16  4  1  0  0  0  0
 17  5  1  0  0  0  0
 18  8  1  0  0  0  0
 19  9  1  0  0  0  0
 23 13  1  0  0  0  0
M  END
