1
q = 0.0, confidence = 0.998

 43 46  0  0  0  0  0  0  0  0999 V2000
   -0.1298   -0.5931   -0.0000 C   0  0  0  0  0  2  0  0  0  0  0  0
    1.1044   -1.2164   -0.0002 N   0  0  0  0  0  0  0  0  0  0  0  0
   -1.0266   -1.6257   -0.0001 N   0  0  0  0  0  0  0  0  0  0  0  0
    0.9574   -2.6073   -0.0004 C   0  0  0  0  0  0  0  0  0  0  0  0
    1.8397   -3.2502   -0.0005 H   0  0  0  0  0  0  0  0  0  0  0  0
   -0.3833   -2.8611   -0.0004 C   0  0  0  0  0  0  0  0  0  0  0  0
   -0.9418   -3.8013   -0.0004 H   0  0  0  0  0  0  0  0  0  0  0  0
    2.4065   -0.6099   -0.0001 C   0  0  0  0  0  0  0  0  0  0  0  0
    2.5667    0.8053   -0.0002 C   0  0  0  0  0  0  0  0  0  0  0  0
    1.6862    1.4674   -0.0002 H   0  0  0  0  0  0  0  0  0  0  0  0
    3.8557    1.3052   -0.0001 C   0  0  0  0  0  0  0  0  0  0  0  0
    4.0225    2.3935   -0.0001 H   0  0  0  0  0  0  0  0  0  0  0  0
    4.9716    0.4212    0.0000 C   0  0  0  0  0  0  0  0  0  0  0  0
    6.3256    0.8593    0.0001 C   0  0  0  0  0  0  0  0  0  0  0  0
    6.5351    1.9403    0.0001 H   0  0  0  0  0  0  0  0  0  0  0  0
    7.3613   -0.0643    0.0002 C   0  0  0  0  0  0  0  0  0  0  0  0
    8.4064    0.2796    0.0003 H   0  0  0  0  0  0  0  0  0  0  0  0
    7.0799   -1.4579    0.0002 C   0  0  0  0  0  0  0  0  0  0  0  0
    7.9121   -2.1782    0.0003 H   0  0  0  0  0  0  0  0  0  0  0  0
    5.7706   -1.9163    0.0001 C   0  0  0  0  0  0  0  0  0  0  0  0
    5.5303   -2.9892    0.0001 H   0  0  0  0  0  0  0  0  0  0  0  0
    4.6857   -0.9925    0.0000 C   0  0  0  0  0  0  0  0  0  0  0  0
    3.4086   -1.4685   -0.0000 N   0  0  0  0  0  0  0  0  0  0  0  0
   -2.4554   -1.4420   -0.0000 C   0  0  0  0  0  0  0  0  0  0  0  0
   -3.1257   -1.3501    1.2383 C   0  0  0  0  0  0  0  0  0  0  0  0
   -4.5202   -1.1804    1.2094 C   0  0  0  0  0  0  0  0  0  0  0  0
   -5.0626   -1.1038    2.1652 H   0  0  0  0  0  0  0  0  0  0  0  0
   -5.2351   -1.0924    0.0002 C   0  0  0  0  0  0  0  0  0  0  0  0
   -4.5204   -1.1803   -1.2091 C   0  0  0  0  0  0  0  0  0  0  0  0
   -5.0630   -1.1037   -2.1648 H   0  0  0  0  0  0  0  0  0  0  0  0
   -3.1258   -1.3501   -1.2382 C   0  0  0  0  0  0  0  0  0  0  0  0
   -2.3595   -1.3803    2.5339 C   0  0  0  0  0  0  0  0  0  0  0  0
   -1.6934   -2.2644    2.6060 H   0  0  0  0  0  0  0  0  0  0  0  0
   -3.0437   -1.3893    3.4026 H   0  0  0  0  0  0  0  0  0  0  0  0
   -1.7097   -0.4826    2.6161 H   0  0  0  0  0  0  0  0  0  0  0  0
   -6.7253   -0.8640    0.0004 C   0  0  0  0  0  0  0  0  0  0  0  0
   -7.2065   -1.2999    0.8978 H   0  0  0  0  0  0  0  0  0  0  0  0
   -7.2063   -1.2969   -0.8986 H   0  0  0  0  0  0  0  0  0  0  0  0
   -6.9538    0.2234    0.0022 H   0  0  0  0  0  0  0  0  0  0  0  0
   -2.3599   -1.3801   -2.5339 C   0  0  0  0  0  0  0  0  0  0  0  0
   -1.6937   -2.2642   -2.6062 H   0  0  0  0  0  0  0  0  0  0  0  0
   -1.7102   -0.4824   -2.6162 H   0  0  0  0  0  0  0  0  0  0  0  0
   -3.0442   -1.3891   -3.4025 H   0  0  0  0  0  0  0  0  0  0  0  0
  2  8  1  0  0  0  0
  2  1  1  0  0  0  0
  3  1  1  0  0  0  0
  3 24  1  0  0  0  0
  4  6  2  0  0  0  0
  4  2  1  0  0  0  0
  5  4  1  0  0  0  0
  6  7  1  0  0  0  0
  6  3  1  0  0  0  0
  8 23  1  0  0  0  0
  9  8  2  0  0  0  0
  9 11  1  0  0  0  0
 10  9  1  0  0  0  0
 11 13  2  0  0  0  0
 12 11  1  0  0  0  0
 13 14  1  0  0  0  0
 14 15  1  0  0  0  0
 14 16  2  0  0  0  0
 16 17  1  0  0  0  0
 18 16  1  0  0  0  0
 18 19  1  0  0  0  0
 20 18  2  0  0  0  0
 21 20  1  0  0  0  0
 22 13  1  0  0  0  0
 22 20  1  0  0  0  0
 23 22  2  0  0  0  0
 24 25  1  0  0  0  0
 25 32  1  0  0  0  0
 26 25  2  0  0  0  0
 26 27  1  0  0  0  0
 28 36  1  0  0  0  0
 28 26  1  0  0  0  0
 29 28  2  0  0  0  0
 30 29  1  0  0  0  0
 31 29  1  0  0  0  0
 31 24  2  0  0  0  0
 32 33  1  0  0  0  0
 32 35  1  0  0  0  0
 32 34  1  0  0  0  0
 36 39  1  0  0  0  0
 36 37  1  0  0  0  0
 38 36  1  0  0  0  0
 40 31  1  0  0  0  0
 41 40  1  0  0  0  0
 42 40  1  0  0  0  0
 43 40  1  0  0  0  0
M  END
