1
q = 0.0, confidence = 1.0

 38 41  0  0  0  0  0  0  0  0999 V2000
   -0.1271   -0.6485    0.1423 C   0  0  0  0  0  2  0  0  0  0  0  0
   -1.3434   -1.2972    0.2402 N   0  0  0  0  0  0  0  0  0  0  0  0
    0.7962   -1.6659    0.1784 N   0  0  0  0  0  0  0  0  0  0  0  0
   -1.1711   -2.6811    0.3060 C   0  0  0  0  0  0  0  0  0  0  0  0
   -2.0370   -3.3428    0.3722 H   0  0  0  0  0  0  0  0  0  0  0  0
    0.1721   -2.9105    0.2715 C   0  0  0  0  0  0  0  0  0  0  0  0
    0.7448   -3.8393    0.3392 H   0  0  0  0  0  0  0  0  0  0  0  0
   -2.6564   -0.7159    0.2348 C   0  0  0  0  0  0  0  0  0  0  0  0
   -2.8547    0.6660    0.5162 C   0  0  0  0  0  0  0  0  0  0  0  0
   -1.9985    1.3211    0.7371 H   0  0  0  0  0  0  0  0  0  0  0  0
   -4.1512    1.1462    0.4885 C   0  0  0  0  0  0  0  0  0  0  0  0
   -4.3485    2.2094    0.6950 H   0  0  0  0  0  0  0  0  0  0  0  0
   -5.2369    0.2701    0.2054 C   0  0  0  0  0  0  0  0  0  0  0  0
   -4.9154   -1.1156   -0.0335 C   0  0  0  0  0  0  0  0  0  0  0  0
   -5.9713   -2.0332   -0.3042 C   0  0  0  0  0  0  0  0  0  0  0  0
   -5.7031   -3.0841   -0.4846 H   0  0  0  0  0  0  0  0  0  0  0  0
   -7.2870   -1.5949   -0.3399 C   0  0  0  0  0  0  0  0  0  0  0  0
   -8.0967   -2.3096   -0.5519 H   0  0  0  0  0  0  0  0  0  0  0  0
   -7.6034   -0.2285   -0.1072 C   0  0  0  0  0  0  0  0  0  0  0  0
   -8.6529    0.1002   -0.1412 H   0  0  0  0  0  0  0  0  0  0  0  0
   -6.5966    0.6881    0.1610 C   0  0  0  0  0  0  0  0  0  0  0  0
   -6.8338    1.7478    0.3429 H   0  0  0  0  0  0  0  0  0  0  0  0
   -3.6303   -1.5702   -0.0147 N   0  0  0  0  0  0  0  0  0  0  0  0
    2.2141   -1.4982    0.0958 C   0  0  0  0  0  0  0  0  0  0  0  0
    2.9553   -2.2968   -0.7947 C   0  0  0  0  0  0  0  0  0  0  0  0
    2.4401   -3.0227   -1.4407 H   0  0  0  0  0  0  0  0  0  0  0  0
    4.3397   -2.1417   -0.8857 C   0  0  0  0  0  0  0  0  0  0  0  0
    4.9112   -2.7595   -1.5950 H   0  0  0  0  0  0  0  0  0  0  0  0
    5.0107   -1.1775   -0.0960 C   0  0  0  0  0  0  0  0  0  0  0  0
    4.2567   -0.3853    0.7965 C   0  0  0  0  0  0  0  0  0  0  0  0
    4.7411    0.3696    1.4293 H   0  0  0  0  0  0  0  0  0  0  0  0
    2.8702   -0.5502    0.8962 C   0  0  0  0  0  0  0  0  0  0  0  0
    2.2915    0.0641    1.6001 H   0  0  0  0  0  0  0  0  0  0  0  0
    6.7605   -1.0606   -0.3104 S   0  0  0  0  0  0  0  0  0  0  0  0
    7.2198    0.3291    0.7595 C   0  0  0  0  0  0  0  0  0  0  0  0
    6.7040    1.2618    0.4570 H   0  0  0  0  0  0  0  0  0  0  0  0
    8.3094    0.4610    0.6200 H   0  0  0  0  0  0  0  0  0  0  0  0
    7.0212    0.1111    1.8275 H   0  0  0  0  0  0  0  0  0  0  0  0
  1  3  1  0  0  0  0
  1  2  1  0  0  0  0
  2  4  1  0  0  0  0
  3  6  1  0  0  0  0
  4  5  1  0  0  0  0
  6  4  2  0  0  0  0
  6  7  1  0  0  0  0
  8  2  1  0  0  0  0
  8  9  1  0  0  0  0
  9 10  1  0  0  0  0
 11  9  2  0  0  0  0
 11 12  1  0  0  0  0
 13 11  1  0  0  0  0
 14 23  1  0  0  0  0
 14 13  2  0  0  0  0
 15 14  1  0  0  0  0
 16 15  1  0  0  0  0
 17 15  2  0  0  0  0
 17 19  1  0  0  0  0
 18 17  1  0  0  0  0
 19 21  2  0  0  0  0
 20 19  1  0  0  0  0
 21 13  1  0  0  0  0
 21 22  1  0  0  0  0
 23  8  2  0  0  0  0
 24  3  1  0  0  0  0
 24 32  1  0  0  0  0
 25 24  2  0  0  0  0
 26 25  1  0  0  0  0
 27 25  1  0  0  0  0
 27 29  2  0  0  0  0
 28 27  1  0  0  0  0
 29 30  1  0  0  0  0
 30 32  2  0  0  0  0
 30 31  1  0  0  0  0
 32 33  1  0  0  0  0
 34 29  1  0  0  0  0
 34 35  1  0  0  0  0
 35 38  1  0  0  0  0
 36 35  1  0  0  0  0
 37 35  1  0  0  0  0
M  END
