5
q = -1.0, confidence = 0.0

 22 23  0  0  0  0  0  0  0  0999 V2000
    1.8953    2.3065   -0.7855 N   0  0  0  0  0  0  0  0  0  0  0  0
    2.1346    3.5495   -1.3000 N   0  0  0  0  0  0  0  0  0  0  0  0
    1.0533    3.8913   -1.9275 N   0  0  0  0  0  0  0  0  0  0  0  0
    0.1095    2.9217   -1.8461 N   0  0  0  0  0  0  0  0  0  0  0  0
    0.6189    1.9128   -1.1235 C   0  0  0  0  0  3  0  0  0  0  0  0
    2.9303    1.6124   -0.0902 C   0  0  0  0  0  0  0  0  0  0  0  0
    4.0437    1.1544   -0.8355 C   0  0  0  0  0  0  0  0  0  0  0  0
    5.0458    0.4477   -0.1463 C   0  0  0  0  0  0  0  0  0  0  0  0
    5.9162    0.0715   -0.7058 H   0  0  0  0  0  0  0  0  0  0  0  0
    4.9464    0.2176    1.2333 C   0  0  0  0  0  0  0  0  0  0  0  0
    5.7365   -0.3446    1.7532 H   0  0  0  0  0  0  0  0  0  0  0  0
    3.8453    0.7044    1.9502 C   0  0  0  0  0  0  0  0  0  0  0  0
    3.7810    0.5454    3.0379 H   0  0  0  0  0  0  0  0  0  0  0  0
    2.8142    1.4149    1.3043 C   0  0  0  0  0  0  0  0  0  0  0  0
    4.1327    1.4130   -2.3157 C   0  0  0  0  0  0  0  0  0  0  0  0
    3.2336    1.0337   -2.8459 H   0  0  0  0  0  0  0  0  0  0  0  0
    5.0297    0.9355   -2.7532 H   0  0  0  0  0  0  0  0  0  0  0  0
    4.1721    2.5013   -2.5231 H   0  0  0  0  0  0  0  0  0  0  0  0
    1.6212    1.9305    2.0571 C   0  0  0  0  0  0  0  0  0  0  0  0
    1.7807    1.8838    3.1505 H   0  0  0  0  0  0  0  0  0  0  0  0
    0.7121    1.3392    1.8166 H   0  0  0  0  0  0  0  0  0  0  0  0
    1.3765    2.9752    1.7808 H   0  0  0  0  0  0  0  0  0  0  0  0
  1  6  1  0  0  0  0
  2  1  1  0  0  0  0
  3  4  1  0  0  0  0
  3  2  2  0  0  0  0
  4  5  2  0  0  0  0
  5  1  1  0  0  0  0
  6 14  1  0  0  0  0
  7  8  1  0  0  0  0
  7  6  2  0  0  0  0
  8 10  2  0  0  0  0
  9  8  1  0  0  0  0
 10 11  1  0  0  0  0
 10 12  1  0  0  0  0
 12 13  1  0  0  0  0
 14 12  2  0  0  0  0
 14 19  1  0  0  0  0
 15  7  1  0  0  0  0
 16 15  1  0  0  0  0
 17 15  1  0  0  0  0
 18 15  1  0  0  0  0
 19 20  1  0  0  0  0
 21 19  1  0  0  0  0
 22 19  1  0  0  0  0
M  END
