9
q = 0.0, confidence = 0.988

 25 26  0  0  1  0  0  0  0  0999 V2000
    0.2708   -1.4202   -1.2342 C   0  0  0  0  0  0  0  0  0  0  0  0
   -0.5491   -1.1565   -1.9103 H   0  0  0  0  0  0  0  0  0  0  0  0
    1.6297   -1.5810   -1.5913 C   0  0  0  0  0  0  0  0  0  0  0  0
    2.0439   -1.4863   -2.6019 H   0  0  0  0  0  0  0  0  0  0  0  0
    2.3860   -1.8715   -0.3977 C   0  0  0  0  0  0  0  0  0  0  0  0
    3.4688   -2.0376   -0.3534 H   0  0  0  0  0  0  0  0  0  0  0  0
    1.4991   -1.8998    0.7040 C   0  0  0  0  0  0  0  0  0  0  0  0
    1.7804   -2.0831    1.7465 H   0  0  0  0  0  0  0  0  0  0  0  0
    0.1566   -1.5814    0.2193 C   0  0  1  0  0  3  0  0  0  0  0  0
   -0.7518   -0.7916    0.9859 C   0  0  2  0  0  3  0  0  0  0  0  0
   -0.6849   -0.7437    2.4910 C   0  0  0  0  0  0  0  0  0  0  0  0
   -1.4652   -1.4134    2.9149 H   0  0  0  0  0  0  0  0  0  0  0  0
   -0.9058    0.2737    2.8687 H   0  0  0  0  0  0  0  0  0  0  0  0
    0.2969   -1.0459    2.8952 H   0  0  0  0  0  0  0  0  0  0  0  0
   -2.0320   -0.3234    0.3922 C   0  0  0  0  0  0  0  0  0  0  0  0
   -2.5460    0.9574    0.6990 C   0  0  0  0  0  0  0  0  0  0  0  0
   -1.9564    1.6375    1.3318 H   0  0  0  0  0  0  0  0  0  0  0  0
   -3.7680    1.3864    0.1687 C   0  0  0  0  0  0  0  0  0  0  0  0
   -4.1385    2.3956    0.4036 H   0  0  0  0  0  0  0  0  0  0  0  0
   -4.5129    0.5396   -0.6688 C   0  0  0  0  0  0  0  0  0  0  0  0
   -5.4738    0.8778   -1.0848 H   0  0  0  0  0  0  0  0  0  0  0  0
   -4.0248   -0.7412   -0.9689 C   0  0  0  0  0  0  0  0  0  0  0  0
   -4.6080   -1.4183   -1.6115 H   0  0  0  0  0  0  0  0  0  0  0  0
   -2.7976   -1.1700   -0.4434 C   0  0  0  0  0  0  0  0  0  0  0  0
   -2.4345   -2.1863   -0.6578 H   0  0  0  0  0  0  0  0  0  0  0  0
  1  9  1  0  0  0  0
  2  1  1  0  0  0  0
  3  1  2  0  0  0  0
  3  5  1  0  0  0  0
  4  3  1  0  0  0  0
  5  6  1  0  0  0  0
  5  7  2  0  0  0  0
  7  8  1  0  0  0  0
  9  7  1  0  0  0  0
  9 10  1  1  0  0  0
 10 11  1  1  0  0  0
 11 13  1  0  0  0  0
 11 14  1  0  0  0  0
 11 12  1  0  0  0  0
 15 16  1  0  0  0  0
 15 10  1  0  0  0  0
 16 17  1  0  0  0  0
 18 19  1  0  0  0  0
 18 16  2  0  0  0  0
 20 18  1  0  0  0  0
 21 20  1  0  0  0  0
 22 20  2  0  0  0  0
 22 24  1  0  0  0  0
 23 22  1  0  0  0  0
 24 15  2  0  0  0  0
 25 24  1  0  0  0  0
M  END
