1
q = 0.0, confidence = 0.946

 34 35  0  0  1  0  0  0  0  0999 V2000
    0.4905    0.9004    0.0015 C   0  0  1  0  0  3  0  0  0  0  0  0
    1.0497   -0.2101    0.7453 C   0  0  2  0  0  3  0  0  0  0  0  0
    0.2844   -0.3843    2.0157 C   0  0  0  0  0  0  0  0  0  0  0  0
   -1.0012    0.4456    1.8414 C   0  0  2  0  0  0  0  0  0  0  0  0
   -1.8733   -0.5091    1.0232 C   0  0  2  0  0  3  0  0  0  0  0  0
   -2.3267    0.0955   -0.1694 C   0  0  2  0  0  3  0  0  0  0  0  0
   -1.8824    1.5395   -0.1225 C   0  0  0  0  0  0  0  0  0  0  0  0
   -0.6542    1.5656    0.8136 C   0  0  2  0  0  0  0  0  0  0  0  0
    1.2537    1.7949   -0.9543 C   0  0  0  0  0  0  0  0  0  0  0  0
    0.4065    2.6619   -1.5646 F   0  0  0  0  0  0  0  0  0  0  0  0
    2.1802    2.5340   -0.2905 F   0  0  0  0  0  0  0  0  0  0  0  0
    1.9024    1.1352   -1.9396 F   0  0  0  0  0  0  0  0  0  0  0  0
    2.5041   -0.6345    0.8367 C   0  0  0  0  0  0  0  0  0  0  0  0
    3.0901    0.0136    1.8721 F   0  0  0  0  0  0  0  0  0  0  0  0
    3.2311   -0.3487   -0.2670 F   0  0  0  0  0  0  0  0  0  0  0  0
    2.6156   -1.9600    1.0637 F   0  0  0  0  0  0  0  0  0  0  0  0
    0.5524   -1.0828    2.9752 O   0  0  0  0  0  0  0  0  0  0  0  0
   -1.6182    0.8701    3.1676 C   0  0  0  0  0  0  0  0  0  0  0  0
   -2.5013   -1.6829    1.7095 C   0  0  0  0  0  0  0  0  0  0  0  0
   -3.5632   -0.2900   -0.9280 C   0  0  0  0  0  0  0  0  0  0  0  0
   -2.4357    2.4709   -0.6679 O   0  0  0  0  0  0  0  0  0  0  0  0
   -0.3343    2.9396    1.3877 C   0  0  0  0  0  0  0  0  0  0  0  0
   -0.9619    1.5961    3.6837 H   0  0  0  0  0  0  0  0  0  0  0  0
   -2.6151    1.3338    3.0284 H   0  0  0  0  0  0  0  0  0  0  0  0
   -1.7151   -0.0082    3.8333 H   0  0  0  0  0  0  0  0  0  0  0  0
   -1.7566   -2.2487    2.3045 H   0  0  0  0  0  0  0  0  0  0  0  0
   -3.0139   -2.3705    1.0144 H   0  0  0  0  0  0  0  0  0  0  0  0
   -3.2618   -1.3030    2.4255 H   0  0  0  0  0  0  0  0  0  0  0  0
   -4.4558    0.0199   -0.3442 H   0  0  0  0  0  0  0  0  0  0  0  0
   -3.6118    0.2368   -1.8993 H   0  0  0  0  0  0  0  0  0  0  0  0
   -3.6327   -1.3799   -1.1023 H   0  0  0  0  0  0  0  0  0  0  0  0
   -1.1767    3.3057    2.0050 H   0  0  0  0  0  0  0  0  0  0  0  0
    0.5806    2.9113    2.0106 H   0  0  0  0  0  0  0  0  0  0  0  0
   -0.1847    3.6699    0.5723 H   0  0  0  0  0  0  0  0  0  0  0  0
  1  9  1  1  0  0  0
  1  2  1  0  0  0  0
  1  8  1  0  0  0  0
  2 13  1  1  0  0  0
  2  3  1  0  0  0  0
  3 17  2  0  0  0  0
  4  3  1  0  0  0  0
  4 18  1  1  0  0  0
  5 19  1  1  0  0  0
  5  4  1  0  0  0  0
  6 20  1  1  0  0  0
  6  7  1  0  0  0  0
  6  5  1  0  0  0  0
  7  8  1  0  0  0  0
  8 22  1  1  0  0  0
  8  4  1  0  0  0  0
  9 11  1  0  0  0  0
 10  9  1  0  0  0  0
 12  9  1  0  0  0  0
 13 16  1  0  0  0  0
 13 14  1  0  0  0  0
 15 13  1  0  0  0  0
 18 23  1  0  0  0  0
 18 25  1  0  0  0  0
 19 26  1  0  0  0  0
 19 28  1  0  0  0  0
 20 29  1  0  0  0  0
 21  7  2  0  0  0  0
 22 32  1  0  0  0  0
 22 33  1  0  0  0  0
 24 18  1  0  0  0  0
 27 19  1  0  0  0  0
 30 20  1  0  0  0  0
 31 20  1  0  0  0  0
 34 22  1  0  0  0  0
M  END
