7
q = 0.0, confidence = 0.994

 49 54  0  0  0  0  0  0  0  0999 V2000
    1.1084    5.4404   -0.1071 S   0  0  0  0  0  0  0  0  0  0  0  0
   -2.3751    5.0056   -0.2283 S   0  0  0  0  0  0  0  0  0  0  0  0
   -6.0174   -2.6662   -0.1227 O   0  0  0  0  0  0  0  0  0  0  0  0
    1.0798    0.2360    0.0490 N   0  0  0  0  0  0  0  0  0  0  0  0
    6.4831   -1.1102    0.5914 O   0  0  0  0  0  0  0  0  0  0  0  0
   -1.0821   -0.0315   -0.0328 N   0  0  0  0  0  0  0  0  0  0  0  0
    0.1005   -0.7241    0.0062 C   0  0  0  0  0  2  0  0  0  0  0  0
    2.4709   -0.0874    0.1490 C   0  0  0  0  0  0  0  0  0  0  0  0
    3.0903   -0.8268   -0.8675 C   0  0  0  0  0  0  0  0  0  0  0  0
    2.5069   -1.1286   -1.7490 H   0  0  0  0  0  0  0  0  0  0  0  0
    4.4388   -1.1929   -0.7551 C   0  0  0  0  0  0  0  0  0  0  0  0
    4.8984   -1.7839   -1.5573 H   0  0  0  0  0  0  0  0  0  0  0  0
    5.1777   -0.8081    0.3840 C   0  0  0  0  0  0  0  0  0  0  0  0
    4.5464   -0.0589    1.4043 C   0  0  0  0  0  0  0  0  0  0  0  0
    5.1359    0.2167    2.2900 H   0  0  0  0  0  0  0  0  0  0  0  0
    3.2003    0.2885    1.2928 C   0  0  0  0  0  0  0  0  0  0  0  0
    2.7017    0.8474    2.0979 H   0  0  0  0  0  0  0  0  0  0  0  0
    7.1548   -1.9042   -0.3723 C   0  0  0  0  0  0  0  0  0  0  0  0
    6.6728   -2.8993   -0.4937 H   0  0  0  0  0  0  0  0  0  0  0  0
    8.1847   -2.0449    0.0037 H   0  0  0  0  0  0  0  0  0  0  0  0
    7.1972   -1.4017   -1.3644 H   0  0  0  0  0  0  0  0  0  0  0  0
    0.5317    1.5245    0.0311 C   0  0  0  0  0  0  0  0  0  0  0  0
    1.1343    2.8161   -0.0026 C   0  0  0  0  0  0  0  0  0  0  0  0
    0.2387    3.9257   -0.0589 C   0  0  0  0  0  0  0  0  0  0  0  0
    2.6378    4.6076   -0.0672 C   0  0  0  0  0  0  0  0  0  0  0  0
    3.5650    5.1933   -0.0852 H   0  0  0  0  0  0  0  0  0  0  0  0
    2.5099    3.2399   -0.0161 C   0  0  0  0  0  0  0  0  0  0  0  0
    3.3669    2.5569    0.0082 H   0  0  0  0  0  0  0  0  0  0  0  0
   -1.1650    3.7508   -0.1084 C   0  0  0  0  0  0  0  0  0  0  0  0
   -3.6519    3.8219   -0.2878 C   0  0  0  0  0  0  0  0  0  0  0  0
   -4.6910    4.1622   -0.3751 H   0  0  0  0  0  0  0  0  0  0  0  0
   -3.1954    2.5271   -0.2175 C   0  0  0  0  0  0  0  0  0  0  0  0
   -3.8566    1.6534   -0.2475 H   0  0  0  0  0  0  0  0  0  0  0  0
   -1.7621    2.4551   -0.1062 C   0  0  0  0  0  0  0  0  0  0  0  0
   -0.8647    1.3512   -0.0208 C   0  0  0  0  0  0  0  0  0  0  0  0
   -2.3588   -0.6806   -0.0402 C   0  0  0  0  0  0  0  0  0  0  0  0
   -2.7325   -1.4805   -1.1362 C   0  0  0  0  0  0  0  0  0  0  0  0
   -2.0430   -1.5921   -1.9850 H   0  0  0  0  0  0  0  0  0  0  0  0
   -3.9644   -2.1333   -1.1315 C   0  0  0  0  0  0  0  0  0  0  0  0
   -4.2742   -2.7711   -1.9710 H   0  0  0  0  0  0  0  0  0  0  0  0
   -4.8427   -1.9947   -0.0326 C   0  0  0  0  0  0  0  0  0  0  0  0
   -4.4624   -1.1938    1.0667 C   0  0  0  0  0  0  0  0  0  0  0  0
   -5.1178   -1.0814    1.9399 H   0  0  0  0  0  0  0  0  0  0  0  0
   -3.2171   -0.5487    1.0594 C   0  0  0  0  0  0  0  0  0  0  0  0
   -2.9070    0.0606    1.9208 H   0  0  0  0  0  0  0  0  0  0  0  0
   -6.9228   -2.5979    0.9644 C   0  0  0  0  0  0  0  0  0  0  0  0
   -6.4750   -3.0002    1.9003 H   0  0  0  0  0  0  0  0  0  0  0  0
   -7.7926   -3.2203    0.6854 H   0  0  0  0  0  0  0  0  0  0  0  0
   -7.2684   -1.5562    1.1508 H   0  0  0  0  0  0  0  0  0  0  0  0
  1 25  1  0  0  0  0
  1 24  1  0  0  0  0
  2 29  1  0  0  0  0
  3 41  1  0  0  0  0
  3 46  1  0  0  0  0
  4  8  1  0  0  0  0
  6 35  1  0  0  0  0
  6  7  1  0  0  0  0
  7  4  1  0  0  0  0
  8 16  1  0  0  0  0
  9 11  1  0  0  0  0
  9  8  2  0  0  0  0
 10  9  1  0  0  0  0
 11 13  2  0  0  0  0
 12 11  1  0  0  0  0
 13  5  1  0  0  0  0
 13 14  1  0  0  0  0
 14 15  1  0  0  0  0
 16 14  2  0  0  0  0
 16 17  1  0  0  0  0
 18 20  1  0  0  0  0
 18  5  1  0  0  0  0
 19 18  1  0  0  0  0
 21 18  1  0  0  0  0
 22  4  1  0  0  0  0
 23 22  1  0  0  0  0
 24 23  2  0  0  0  0
 25 27  2  0  0  0  0
 26 25  1  0  0  0  0
 27 23  1  0  0  0  0
 27 28  1  0  0  0  0
 29 34  2  0  0  0  0
 29 24  1  0  0  0  0
 30  2  1  0  0  0  0
 30 32  2  0  0  0  0
 31 30  1  0  0  0  0
 32 34  1  0  0  0  0
 33 32  1  0  0  0  0
 34 35  1  0  0  0  0
 35 22  2  0  0  0  0
 36  6  1  0  0  0  0
 36 44  1  0  0  0  0
 37 39  1  0  0  0  0
 37 36  2  0  0  0  0
 38 37  1  0  0  0  0
 39 41  2  0  0  0  0
 40 39  1  0  0  0  0
 41 42  1  0  0  0  0
 42 43  1  0  0  0  0
 44 42  2  0  0  0  0
 44 45  1  0  0  0  0
 46 49  1  0  0  0  0
 46 47  1  0  0  0  0
 48 46  1  0  0  0  0
M  END
