3
q = 0.0, confidence = 0.854

  7  6  0  0  0  0  0  0  0  0999 V2000
    3.5450    1.0603    0.4433 O   0  0  0  0  0  0  0  0  0  0  0  0
    3.0225    0.4113   -0.6485 C   0  0  0  0  0  3  0  0  0  0  0  0
    2.8446   -1.0313   -0.7371 C   0  0  0  0  0  3  0  0  0  0  0  0
    3.2522    0.9719   -1.5746 H   0  0  0  0  0  0  0  0  0  0  0  0
    2.9923   -1.5062   -1.7234 H   0  0  0  0  0  0  0  0  0  0  0  0
    3.1498   -1.6522    0.1228 H   0  0  0  0  0  0  0  0  0  0  0  0
    3.1482    0.6205    1.2444 H   0  0  0  0  0  0  0  0  0  0  0  0
  1  7  1  0  0  0  0
  2  1  1  0  0  0  0
  3  2  1  0  0  0  0
  3  6  1  0  0  0  0
  4  2  1  0  0  0  0
  5  3  1  0  0  0  0
M  END
