4
q = -1.0, confidence = 0.0

 21 22  0  0  0  0  0  0  0  0999 V2000
   -7.6852    1.6248    0.3562 O   0  0  0  0  0  0  0  0  0  0  0  0
   -7.5527   -0.4119   -0.4059 O   0  0  0  0  0  0  0  0  0  0  0  0
   -7.0343    0.6373   -0.0037 N   0  0  0  0  0  0  0  0  0  0  0  0
   -0.1331    1.6606    0.0928 C   0  0  0  0  0  3  0  0  0  0  0  0
   -1.3646    1.4689    0.0861 C   0  0  0  0  0  0  0  0  0  0  0  0
   -2.7571    1.2204    0.0742 C   0  0  0  0  0  0  0  0  0  0  0  0
   -3.6800    2.2826    0.1228 C   0  0  0  0  0  0  0  0  0  0  0  0
   -3.3043    3.3143    0.1692 H   0  0  0  0  0  0  0  0  0  0  0  0
   -5.0589    2.0390    0.1110 C   0  0  0  0  0  0  0  0  0  0  0  0
   -5.7816    2.8638    0.1606 H   0  0  0  0  0  0  0  0  0  0  0  0
   -5.5650    0.7411    0.0304 C   0  0  0  0  0  0  0  0  0  0  0  0
   -4.6881   -0.4011   -0.0145 C   0  0  0  0  0  0  0  0  0  0  0  0
   -5.1145   -1.7637   -0.0582 C   0  0  0  0  0  0  0  0  0  0  0  0
   -6.1888   -1.9713   -0.0849 H   0  0  0  0  0  0  0  0  0  0  0  0
   -4.1942   -2.8038   -0.0736 C   0  0  0  0  0  0  0  0  0  0  0  0
   -4.5585   -3.8423   -0.1033 H   0  0  0  0  0  0  0  0  0  0  0  0
   -2.8032   -2.5430   -0.0562 C   0  0  0  0  0  0  0  0  0  0  0  0
   -2.0780   -3.3703   -0.0772 H   0  0  0  0  0  0  0  0  0  0  0  0
   -2.3557   -1.2321   -0.0117 C   0  0  0  0  0  0  0  0  0  0  0  0
   -1.2815   -1.0055    0.0017 H   0  0  0  0  0  0  0  0  0  0  0  0
   -3.2647   -0.1393    0.0149 C   0  0  0  0  0  0  0  0  0  0  0  0
  2  3  2  0  0  0  0
  3 11  1  0  0  0  0
  3  1  2  0  0  0  0
  5  4  3  0  0  0  0
  6  5  1  0  0  0  0
  6  7  1  0  0  0  0
  7  8  1  0  0  0  0
  9  7  2  0  0  0  0
  9 10  1  0  0  0  0
 11  9  1  0  0  0  0
 12 21  1  0  0  0  0
 12 11  2  0  0  0  0
 13 12  1  0  0  0  0
 14 13  1  0  0  0  0
 15 13  2  0  0  0  0
 15 17  1  0  0  0  0
 16 15  1  0  0  0  0
 17 19  2  0  0  0  0
 18 17  1  0  0  0  0
 19 20  1  0  0  0  0
 19 21  1  0  0  0  0
 21  6  2  0  0  0  0
M  END
