18
q = -1.0, confidence = 0.0

 34 36  0  0  0  0  0  0  0  0999 V2000
    3.7945   -0.5719    0.7227 Si  0  0  0  0  0  0  0  0  0  0  0  0
    0.5821    3.0551   -1.7112 C   0  0  0  0  0  0  0  0  0  0  0  0
   -0.1425    3.8672   -1.5493 H   0  0  0  0  0  0  0  0  0  0  0  0
    1.0306    2.7517   -2.9973 C   0  0  0  0  0  0  0  0  0  0  0  0
    0.6600    3.3271   -3.8589 H   0  0  0  0  0  0  0  0  0  0  0  0
    1.9877    1.7197   -3.1987 C   0  0  0  0  0  0  0  0  0  0  0  0
    2.3565    1.5196   -4.2172 H   0  0  0  0  0  0  0  0  0  0  0  0
    2.4889    0.9751   -2.1317 C   0  0  0  0  0  0  0  0  0  0  0  0
    3.2486    0.2009   -2.3125 H   0  0  0  0  0  0  0  0  0  0  0  0
    1.5014    1.2397    2.8782 C   0  0  0  0  0  0  0  0  0  0  0  0
    2.0524    0.4480    3.4030 H   0  0  0  0  0  0  0  0  0  0  0  0
    0.6947    2.1205    3.5959 C   0  0  0  0  0  0  0  0  0  0  0  0
    0.6146    2.0056    4.6877 H   0  0  0  0  0  0  0  0  0  0  0  0
   -0.0238    3.1658    2.9545 C   0  0  0  0  0  0  0  0  0  0  0  0
   -0.6416    3.8503    3.5541 H   0  0  0  0  0  0  0  0  0  0  0  0
    0.0406    3.3136    1.5716 C   0  0  0  0  0  0  0  0  0  0  0  0
   -0.5236    4.1123    1.0673 H   0  0  0  0  0  0  0  0  0  0  0  0
    2.3600    0.6201    0.4677 C   0  0  0  0  0  3  0  0  0  0  0  0
    1.6293    1.3882    1.4636 C   0  0  0  0  0  0  0  0  0  0  0  0
    0.8381    2.4227    0.8137 C   0  0  0  0  0  0  0  0  0  0  0  0
    1.0825    2.3203   -0.6090 C   0  0  0  0  0  0  0  0  0  0  0  0
    2.0440    1.2468   -0.8041 C   0  0  0  0  0  0  0  0  0  0  0  0
    5.4056    0.3919    0.4455 C   0  0  0  0  0  0  0  0  0  0  0  0
    5.4925    1.2220    1.1761 H   0  0  0  0  0  0  0  0  0  0  0  0
    5.4301    0.8380   -0.5699 H   0  0  0  0  0  0  0  0  0  0  0  0
    6.2958   -0.2618    0.5563 H   0  0  0  0  0  0  0  0  0  0  0  0
    3.7649   -2.0200   -0.5102 C   0  0  0  0  0  0  0  0  0  0  0  0
    4.6414   -2.6749   -0.3225 H   0  0  0  0  0  0  0  0  0  0  0  0
    3.8238   -1.6927   -1.5677 H   0  0  0  0  0  0  0  0  0  0  0  0
    2.8523   -2.6363   -0.3845 H   0  0  0  0  0  0  0  0  0  0  0  0
    3.8202   -1.3174    2.4637 C   0  0  0  0  0  0  0  0  0  0  0  0
    4.0200   -0.5520    3.2403 H   0  0  0  0  0  0  0  0  0  0  0  0
    4.6326   -2.0712    2.5238 H   0  0  0  0  0  0  0  0  0  0  0  0
    2.8674   -1.8288    2.7080 H   0  0  0  0  0  0  0  0  0  0  0  0
  1 31  1  0  0  0  0
  2  3  1  0  0  0  0
  2 21  1  0  0  0  0
  4  2  2  0  0  0  0
  5  4  1  0  0  0  0
  6  4  1  0  0  0  0
  6  8  2  0  0  0  0
  7  6  1  0  0  0  0
  8 22  1  0  0  0  0
  9  8  1  0  0  0  0
 10 11  1  0  0  0  0
 10 12  1  0  0  0  0
 12 13  1  0  0  0  0
 14 15  1  0  0  0  0
 14 12  2  0  0  0  0
 16 14  1  0  0  0  0
 17 16  1  0  0  0  0
 18  1  1  0  0  0  0
 18 19  1  0  0  0  0
 19 10  2  0  0  0  0
 20 19  1  0  0  0  0
 20 16  2  0  0  0  0
 21 20  1  0  0  0  0
 22 21  2  0  0  0  0
 22 18  1  0  0  0  0
 23 26  1  0  0  0  0
 23  1  1  0  0  0  0
 23 24  1  0  0  0  0
 25 23  1  0  0  0  0
 27 30  1  0  0  0  0
 27 28  1  0  0  0  0
 27  1  1  0  0  0  0
 29 27  1  0  0  0  0
 31 33  1  0  0  0  0
 31 34  1  0  0  0  0
 31 32  1  0  0  0  0
M  END
