4
q = -1.0, confidence = 0.0

  5  4  0  0  0  0  0  0  0  0999 V2000
   -2.9697    2.3449   -1.2751 Cl  0  0  0  0  0  0  0  0  0  0  0  0
   -3.9111   -1.6201    0.1973 Cl  0  0  0  0  0  0  0  0  0  0  0  0
   -5.3356    0.1968   -1.6036 Cl  0  0  0  0  0  0  0  0  0  0  0  0
   -2.9155    0.8063   -0.4512 C   0  0  0  0  0  0  0  0  0  0  0  0
   -3.9336   -0.0691   -0.6173 C   0  0  0  0  0  0  0  0  0  0  0  0
  1  4  1  0  0  0  0
  3  5  1  0  0  0  0
  5  4  2  0  0  0  0
  5  2  1  0  0  0  0
M  END
