3
q = -2.0, confidence = 0.918

 57 58  0  0  1  0  0  0  0  0999 V2000
   -1.3435    2.5958    0.3171 Si  0  0  0  0  0  0  0  0  0  0  0  0
   -2.1886    0.9396    0.7307 C   0  0  2  0  0  3  0  0  0  0  0  0
   -1.6834    0.0324    1.7497 C   0  0  2  0  0  3  0  0  0  0  0  0
   -2.1861   -1.2837    1.4787 C   0  0  0  0  0  0  0  0  0  0  0  0
   -2.9595   -1.2247    0.2801 C   0  0  0  0  0  0  0  0  0  0  0  0
   -2.9830    0.1400   -0.1701 C   0  0  1  0  0  3  0  0  0  0  0  0
   -0.9417    0.3708    3.0155 C   0  0  0  0  0  0  0  0  0  0  0  0
   -1.6280    0.3022    3.8869 H   0  0  0  0  0  0  0  0  0  0  0  0
   -0.5346    1.3960    3.0076 H   0  0  0  0  0  0  0  0  0  0  0  0
   -0.1038   -0.3286    3.2112 H   0  0  0  0  0  0  0  0  0  0  0  0
   -2.0232   -2.4748    2.3699 C   0  0  0  0  0  0  0  0  0  0  0  0
   -2.8246   -2.4893    3.1404 H   0  0  0  0  0  0  0  0  0  0  0  0
   -1.0494   -2.4672    2.8950 H   0  0  0  0  0  0  0  0  0  0  0  0
   -2.0804   -3.4217    1.8010 H   0  0  0  0  0  0  0  0  0  0  0  0
   -3.7028   -2.3512   -0.3687 C   0  0  0  0  0  0  0  0  0  0  0  0
   -4.7951   -2.2645   -0.1834 H   0  0  0  0  0  0  0  0  0  0  0  0
   -3.3716   -3.3340    0.0167 H   0  0  0  0  0  0  0  0  0  0  0  0
   -3.5463   -2.3478   -1.4660 H   0  0  0  0  0  0  0  0  0  0  0  0
   -3.8313    0.5912   -1.3233 C   0  0  0  0  0  0  0  0  0  0  0  0
   -4.9024    0.4280   -1.0774 H   0  0  0  0  0  0  0  0  0  0  0  0
   -3.6106    0.0107   -2.2412 H   0  0  0  0  0  0  0  0  0  0  0  0
   -3.7036    1.6622   -1.5497 H   0  0  0  0  0  0  0  0  0  0  0  0
   -1.0633    3.7295    1.8022 C   0  0  0  0  0  0  0  0  0  0  0  0
   -0.7224    4.7222    1.4431 H   0  0  0  0  0  0  0  0  0  0  0  0
   -0.2948    3.3488    2.5020 H   0  0  0  0  0  0  0  0  0  0  0  0
   -2.0039    3.8747    2.3719 H   0  0  0  0  0  0  0  0  0  0  0  0
   -2.1562    3.6027   -1.0556 C   0  0  0  0  0  0  0  0  0  0  0  0
   -1.5651    4.5308   -1.1994 H   0  0  0  0  0  0  0  0  0  0  0  0
   -3.1923    3.8982   -0.7945 H   0  0  0  0  0  0  0  0  0  0  0  0
   -2.1801    3.0661   -2.0234 H   0  0  0  0  0  0  0  0  0  0  0  0
    0.2559    1.8159   -0.3184 C   0  0  0  0  0  0  0  0  0  0  0  0
    1.1684    1.0900    0.5274 C   0  0  0  0  0  3  0  0  0  0  0  0
    1.2595    1.2134    1.6123 H   0  0  0  0  0  0  0  0  0  0  0  0
    1.9927    0.2293   -0.2625 C   0  0  0  0  0  0  0  0  0  0  0  0
    1.5291    0.3532   -1.6080 C   0  0  0  0  0  0  0  0  0  0  0  0
    1.8959   -0.2174   -2.4688 H   0  0  0  0  0  0  0  0  0  0  0  0
    0.4920    1.3345   -1.6459 C   0  0  0  0  0  0  0  0  0  0  0  0
   -0.0673    1.6225   -2.5449 H   0  0  0  0  0  0  0  0  0  0  0  0
    3.1719   -0.5769    0.2354 C   0  0  2  0  0  0  0  0  0  0  0  0
    3.1343   -1.5600   -0.2835 H   0  0  0  0  0  0  0  0  0  0  0  0
    3.0660   -0.8491    1.7440 C   0  0  0  0  0  0  0  0  0  0  0  0
    2.0725   -1.2711    1.9862 H   0  0  0  0  0  0  0  0  0  0  0  0
    3.2124    0.0709    2.3458 H   0  0  0  0  0  0  0  0  0  0  0  0
    3.8197   -1.5873    2.0739 H   0  0  0  0  0  0  0  0  0  0  0  0
    4.5495    0.0850   -0.1743 C   0  0  0  0  0  0  0  0  0  0  0  0
    4.6558    1.5243    0.3617 C   0  0  0  0  0  0  0  0  0  0  0  0
    5.6310    1.9703    0.0777 H   0  0  0  0  0  0  0  0  0  0  0  0
    4.5863    1.5614    1.4678 H   0  0  0  0  0  0  0  0  0  0  0  0
    3.8551    2.1701   -0.0522 H   0  0  0  0  0  0  0  0  0  0  0  0
    5.7072   -0.7604    0.3931 C   0  0  0  0  0  0  0  0  0  0  0  0
    6.6779   -0.3793    0.0153 H   0  0  0  0  0  0  0  0  0  0  0  0
    5.6190   -1.8226    0.0828 H   0  0  0  0  0  0  0  0  0  0  0  0
    5.7492   -0.7294    1.4992 H   0  0  0  0  0  0  0  0  0  0  0  0
    4.6989    0.1164   -1.7070 C   0  0  0  0  0  0  0  0  0  0  0  0
    5.7138    0.4687   -1.9833 H   0  0  0  0  0  0  0  0  0  0  0  0
    3.9723    0.8034   -2.1813 H   0  0  0  0  0  0  0  0  0  0  0  0
    4.5607   -0.8926   -2.1483 H   0  0  0  0  0  0  0  0  0  0  0  0
  1 23  1  0  0  0  0
  2  1  1  6  0  0  0
  2  3  1  0  0  0  0
  3  7  1  1  0  0  0
  4  3  1  0  0  0  0
  4 11  1  0  0  0  0
  5  4  2  0  0  0  0
  6 19  1  1  0  0  0
  6  5  1  0  0  0  0
  6  2  1  0  0  0  0
  7 10  1  0  0  0  0
  7  8  1  0  0  0  0
  9  7  1  0  0  0  0
 11 13  1  0  0  0  0
 11 12  1  0  0  0  0
 14 11  1  0  0  0  0
 15 16  1  0  0  0  0
 15 17  1  0  0  0  0
 15  5  1  0  0  0  0
 18 15  1  0  0  0  0
 19 20  1  0  0  0  0
 21 19  1  0  0  0  0
 22 19  1  0  0  0  0
 23 26  1  0  0  0  0
 23 25  1  0  0  0  0
 24 23  1  0  0  0  0
 27 29  1  0  0  0  0
 27  1  1  0  0  0  0
 28 27  1  0  0  0  0
 30 27  1  0  0  0  0
 31  1  1  0  0  0  0
 31 32  1  0  0  0  0
 32 33  1  0  0  0  0
 34 39  1  0  0  0  0
 34 32  1  0  0  0  0
 35 34  2  0  0  0  0
 36 35  1  0  0  0  0
 37 35  1  0  0  0  0
 37 31  2  0  0  0  0
 38 37  1  0  0  0  0
 39 40  1  6  0  0  0
 39 41  1  0  0  0  0
 41 42  1  0  0  0  0
 41 44  1  0  0  0  0
 41 43  1  0  0  0  0
 45 39  1  0  0  0  0
 45 46  1  0  0  0  0
 45 50  1  0  0  0  0
 46 48  1  0  0  0  0
 47 46  1  0  0  0  0
 49 46  1  0  0  0  0
 50 53  1  0  0  0  0
 51 50  1  0  0  0  0
 52 50  1  0  0  0  0
 54 45  1  0  0  0  0
 55 54  1  0  0  0  0
 56 54  1  0  0  0  0
 57 54  1  0  0  0  0
M  END
