8
q = 0.0, confidence = 0.944

 18 17  0  0  0  0  0  0  0  0999 V2000
   -3.1613    2.8717   -1.0526 C   0  0  0  0  0  0  0  0  0  0  0  0
   -3.5402    3.2552   -2.0205 H   0  0  0  0  0  0  0  0  0  0  0  0
   -2.4113    3.5963   -0.6757 H   0  0  0  0  0  0  0  0  0  0  0  0
   -4.0077    2.8581   -0.3373 H   0  0  0  0  0  0  0  0  0  0  0  0
   -2.5406    1.4772   -1.2253 C   0  0  0  0  0  0  0  0  0  0  0  0
   -3.2920    0.7754   -1.6400 H   0  0  0  0  0  0  0  0  0  0  0  0
   -1.7204    1.5410   -1.9686 H   0  0  0  0  0  0  0  0  0  0  0  0
   -1.9878    0.9645    0.0876 C   0  0  0  0  0  3  0  0  0  0  0  0
   -1.2709    1.6714    0.5391 H   0  0  0  0  0  0  0  0  0  0  0  0
   -2.6959    0.1389    1.0033 C   0  0  0  0  0  3  0  0  0  0  0  0
   -2.4176    0.2648    2.0651 H   0  0  0  0  0  0  0  0  0  0  0  0
   -4.1275   -0.3334    0.8632 C   0  0  0  0  0  0  0  0  0  0  0  0
   -4.2111   -1.3864    1.2049 H   0  0  0  0  0  0  0  0  0  0  0  0
   -4.4467   -0.3165   -0.1973 H   0  0  0  0  0  0  0  0  0  0  0  0
   -5.0725    0.5426    1.7001 C   0  0  0  0  0  0  0  0  0  0  0  0
   -6.1186    0.1905    1.6066 H   0  0  0  0  0  0  0  0  0  0  0  0
   -5.0403    1.6013    1.3735 H   0  0  0  0  0  0  0  0  0  0  0  0
   -4.8040    0.5139    2.7757 H   0  0  0  0  0  0  0  0  0  0  0  0
  1  3  1  0  0  0  0
  1  4  1  0  0  0  0
  2  1  1  0  0  0  0
  5  1  1  0  0  0  0
  5  8  1  0  0  0  0
  6  5  1  0  0  0  0
  7  5  1  0  0  0  0
  8  9  1  0  0  0  0
  8 10  1  0  0  0  0
 10 11  1  0  0  0  0
 12 10  1  0  0  0  0
 12 13  1  0  0  0  0
 12 15  1  0  0  0  0
 14 12  1  0  0  0  0
 15 18  1  0  0  0  0
 16 15  1  0  0  0  0
 17 15  1  0  0  0  0
M  END
