5
q = 0.0, confidence = 0.984

 40 39  0  0  0  0  0  0  0  0999 V2000
   -2.7502   -0.0930   -0.2590 S   0  0  0  0  0  0  0  0  0  0  0  0
    3.8318    2.5931    0.2108 N   0  0  0  0  0  2  0  0  0  0  0  0
   -8.2577    0.6008   -0.7082 O   0  0  0  0  0  0  0  0  0  0  0  0
   -8.1283   -1.5546   -0.0176 O   0  0  0  0  0  0  0  0  0  0  0  0
    3.3605    1.4758    0.1486 C   0  0  0  0  0  1  0  0  0  0  0  0
    3.5300    3.9893    0.1189 C   0  0  0  0  0  0  0  0  0  0  0  0
    4.3488    4.5023   -0.4307 H   0  0  0  0  0  0  0  0  0  0  0  0
    3.5301    4.4255    1.1449 H   0  0  0  0  0  0  0  0  0  0  0  0
    2.1811    4.2524   -0.5752 C   0  0  0  0  0  0  0  0  0  0  0  0
    2.2362    3.7970   -1.5877 H   0  0  0  0  0  0  0  0  0  0  0  0
    2.0670    5.3471   -0.7291 H   0  0  0  0  0  0  0  0  0  0  0  0
    0.9843    3.6616    0.1876 C   0  0  0  0  0  0  0  0  0  0  0  0
    0.6266    4.3765    0.9605 H   0  0  0  0  0  0  0  0  0  0  0  0
    1.3345    2.7692    0.7464 H   0  0  0  0  0  0  0  0  0  0  0  0
   -0.1773    3.1986   -0.7032 C   0  0  0  0  0  0  0  0  0  0  0  0
    0.2525    2.7046   -1.6017 H   0  0  0  0  0  0  0  0  0  0  0  0
   -0.7738    4.0620   -1.0741 H   0  0  0  0  0  0  0  0  0  0  0  0
   -1.0661    2.1718    0.0095 C   0  0  0  0  0  0  0  0  0  0  0  0
   -1.5921    2.6486    0.8654 H   0  0  0  0  0  0  0  0  0  0  0  0
   -0.4026    1.3964    0.4469 H   0  0  0  0  0  0  0  0  0  0  0  0
   -2.0665    1.4814   -0.9128 C   0  0  0  0  0  0  0  0  0  0  0  0
   -1.5584    1.1630   -1.8476 H   0  0  0  0  0  0  0  0  0  0  0  0
   -2.9022    2.1505   -1.2100 H   0  0  0  0  0  0  0  0  0  0  0  0
   -3.4029    0.4269    1.3732 C   0  0  0  0  0  0  0  0  0  0  0  0
   -3.7860   -0.5187    1.8104 H   0  0  0  0  0  0  0  0  0  0  0  0
   -2.5590    0.7541    2.0147 H   0  0  0  0  0  0  0  0  0  0  0  0
   -4.4969    1.4992    1.3246 C   0  0  0  0  0  0  0  0  0  0  0  0
   -4.0424    2.4695    1.0320 H   0  0  0  0  0  0  0  0  0  0  0  0
   -4.8668    1.6451    2.3649 H   0  0  0  0  0  0  0  0  0  0  0  0
   -5.6745    1.2021    0.3913 C   0  0  0  0  0  0  0  0  0  0  0  0
   -6.4044    2.0357    0.4322 H   0  0  0  0  0  0  0  0  0  0  0  0
   -5.3129    1.1620   -0.6579 H   0  0  0  0  0  0  0  0  0  0  0  0
   -6.4005   -0.1041    0.7046 C   0  0  0  0  0  0  0  0  0  0  0  0
   -5.7612   -0.9914    0.5169 H   0  0  0  0  0  0  0  0  0  0  0  0
   -6.6785   -0.1596    1.7821 H   0  0  0  0  0  0  0  0  0  0  0  0
   -7.6795   -0.2739   -0.0914 C   0  0  0  0  0  0  0  0  0  0  0  0
   -9.3562   -1.8109   -0.7082 C   0  0  0  0  0  0  0  0  0  0  0  0
   -9.5819   -2.8804   -0.5488 H   0  0  0  0  0  0  0  0  0  0  0  0
   -9.2542   -1.5952   -1.7912 H   0  0  0  0  0  0  0  0  0  0  0  0
  -10.1762   -1.1796   -0.3092 H   0  0  0  0  0  0  0  0  0  0  0  0
  1 24  1  0  0  0  0
  3 36  2  0  0  0  0
  5  2  1  0  0  0  0
  6  2  1  0  0  0  0
  6  8  1  0  0  0  0
  7  6  1  0  0  0  0
  9  6  1  0  0  0  0
  9 12  1  0  0  0  0
 10  9  1  0  0  0  0
 11  9  1  0  0  0  0
 12 14  1  0  0  0  0
 12 13  1  0  0  0  0
 15 18  1  0  0  0  0
 15 12  1  0  0  0  0
 16 15  1  0  0  0  0
 17 15  1  0  0  0  0
 18 20  1  0  0  0  0
 18 19  1  0  0  0  0
 21  1  1  0  0  0  0
 21 18  1  0  0  0  0
 22 21  1  0  0  0  0
 23 21  1  0  0  0  0
 24 25  1  0  0  0  0
 24 26  1  0  0  0  0
 27 24  1  0  0  0  0
 27 29  1  0  0  0  0
 28 27  1  0  0  0  0
 30 31  1  0  0  0  0
 30 33  1  0  0  0  0
 30 27  1  0  0  0  0
 32 30  1  0  0  0  0
 33 35  1  0  0  0  0
 34 33  1  0  0  0  0
 36  4  1  0  0  0  0
 36 33  1  0  0  0  0
 37 38  1  0  0  0  0
 37 40  1  0  0  0  0
 37  4  1  0  0  0  0
 39 37  1  0  0  0  0
M  END
