6
q = -1.0, confidence = 0.006

 37 37  0  0  0  0  0  0  0  0999 V2000
    1.2178   -1.1570    3.1695 O   0  0  0  0  0  0  0  0  0  0  0  0
   -0.9399   -1.6833    0.4337 O   0  0  0  0  0  0  0  0  0  0  0  0
   -5.2791    1.9164    0.8499 O   0  0  0  0  0  0  0  0  0  0  0  0
   -0.8809   -0.3621    2.7824 O   0  0  0  0  0  0  0  0  0  0  0  0
   -5.7891    1.0429   -1.1857 O   0  0  0  0  0  0  0  0  0  0  0  0
    0.3300   -1.5043    1.0203 C   0  0  0  0  0  3  0  0  0  0  0  0
    0.9171   -2.4433    1.0280 H   0  0  0  0  0  0  0  0  0  0  0  0
    0.1244   -0.9494    2.3976 C   0  0  0  0  0  0  0  0  0  0  0  0
    1.2431   -0.4754    4.4385 C   0  0  0  0  0  0  0  0  0  0  0  0
    1.9401   -1.0682    5.0622 H   0  0  0  0  0  0  0  0  0  0  0  0
    0.2299   -0.5091    4.8886 H   0  0  0  0  0  0  0  0  0  0  0  0
    1.7211    0.9595    4.2744 C   0  0  0  0  0  0  0  0  0  0  0  0
    1.8046    1.4526    5.2642 H   0  0  0  0  0  0  0  0  0  0  0  0
    1.0032    1.5383    3.6604 H   0  0  0  0  0  0  0  0  0  0  0  0
    2.7126    0.9892    3.7806 H   0  0  0  0  0  0  0  0  0  0  0  0
   -1.0709   -2.4279   -0.7064 C   0  0  0  0  0  0  0  0  0  0  0  0
    0.0057   -2.7638   -1.5495 C   0  0  0  0  0  0  0  0  0  0  0  0
    1.0266   -2.4393   -1.2989 H   0  0  0  0  0  0  0  0  0  0  0  0
   -0.2355   -3.5079   -2.7143 C   0  0  0  0  0  0  0  0  0  0  0  0
    0.6108   -3.7600   -3.3714 H   0  0  0  0  0  0  0  0  0  0  0  0
   -1.5327   -3.9318   -3.0365 C   0  0  0  0  0  0  0  0  0  0  0  0
   -1.7187   -4.5189   -3.9480 H   0  0  0  0  0  0  0  0  0  0  0  0
   -2.5929   -3.6162   -2.1722 C   0  0  0  0  0  0  0  0  0  0  0  0
   -3.6117   -3.9687   -2.4016 H   0  0  0  0  0  0  0  0  0  0  0  0
   -2.3858   -2.8733   -0.9984 C   0  0  0  0  0  0  0  0  0  0  0  0
   -3.5251   -2.5503   -0.0492 C   0  0  0  0  0  0  0  0  0  0  0  0
   -4.2511   -3.3930   -0.0828 H   0  0  0  0  0  0  0  0  0  0  0  0
   -3.1440   -2.4685    0.9870 H   0  0  0  0  0  0  0  0  0  0  0  0
   -4.2595   -1.2985   -0.4265 C   0  0  0  0  0  0  0  0  0  0  0  0
   -4.6900   -1.2517   -1.4437 H   0  0  0  0  0  0  0  0  0  0  0  0
   -4.4491   -0.2270    0.3743 C   0  0  0  0  0  0  0  0  0  0  0  0
   -4.0399   -0.1881    1.3969 H   0  0  0  0  0  0  0  0  0  0  0  0
   -5.2369    0.9296   -0.1045 C   0  0  0  0  0  0  0  0  0  0  0  0
   -6.0397    3.0715    0.4863 C   0  0  0  0  0  0  0  0  0  0  0  0
   -6.0065    3.7504    1.3573 H   0  0  0  0  0  0  0  0  0  0  0  0
   -7.0876    2.7965    0.2500 H   0  0  0  0  0  0  0  0  0  0  0  0
   -5.6096    3.5665   -0.4093 H   0  0  0  0  0  0  0  0  0  0  0  0
  1  9  1  0  0  0  0
  2  6  1  0  0  0  0
  5 33  2  0  0  0  0
  6  7  1  0  0  0  0
  6  8  1  0  0  0  0
  8  4  2  0  0  0  0
  8  1  1  0  0  0  0
  9 11  1  0  0  0  0
  9 10  1  0  0  0  0
 12  9  1  0  0  0  0
 12 13  1  0  0  0  0
 14 12  1  0  0  0  0
 15 12  1  0  0  0  0
 16  2  1  0  0  0  0
 17 18  1  0  0  0  0
 17 16  2  0  0  0  0
 19 17  1  0  0  0  0
 20 19  1  0  0  0  0
 21 19  2  0  0  0  0
 21 23  1  0  0  0  0
 22 21  1  0  0  0  0
 23 25  2  0  0  0  0
 24 23  1  0  0  0  0
 25 16  1  0  0  0  0
 25 26  1  0  0  0  0
 26 28  1  0  0  0  0
 27 26  1  0  0  0  0
 29 26  1  0  0  0  0
 29 31  2  0  0  0  0
 30 29  1  0  0  0  0
 31 32  1  0  0  0  0
 33 31  1  0  0  0  0
 33  3  1  0  0  0  0
 34  3  1  0  0  0  0
 34 35  1  0  0  0  0
 36 34  1  0  0  0  0
 37 34  1  0  0  0  0
M  END
