3
q = -1.0, confidence = 0.004

 14 13  0  0  0  0  0  0  0  0999 V2000
    5.7380    0.0057   -1.3877 O   0  0  0  0  0  0  0  0  0  0  0  0
    5.2709   -1.3792    0.3560 O   0  0  0  0  0  0  0  0  0  0  0  0
    1.1973   -1.6122   -1.2013 C   0  0  0  0  0  3  0  0  0  0  0  0
    0.7095   -2.5844   -0.9951 H   0  0  0  0  0  0  0  0  0  0  0  0
    1.1010   -1.3085   -2.2620 H   0  0  0  0  0  0  0  0  0  0  0  0
    2.5795   -1.5764   -0.7154 C   0  0  0  0  0  0  0  0  0  0  0  0
    2.7822   -2.0389    0.2663 H   0  0  0  0  0  0  0  0  0  0  0  0
    3.6124   -0.9615   -1.3460 C   0  0  0  0  0  0  0  0  0  0  0  0
    3.4731   -0.4312   -2.3009 H   0  0  0  0  0  0  0  0  0  0  0  0
    4.9250   -0.8433   -0.6857 C   0  0  0  0  0  0  0  0  0  0  0  0
    6.9956    0.2711   -0.7705 C   0  0  0  0  0  0  0  0  0  0  0  0
    7.5502    0.9297   -1.4636 H   0  0  0  0  0  0  0  0  0  0  0  0
    7.5617   -0.6657   -0.5890 H   0  0  0  0  0  0  0  0  0  0  0  0
    6.8552    0.7764    0.2084 H   0  0  0  0  0  0  0  0  0  0  0  0
  1 11  1  0  0  0  0
  1 10  1  0  0  0  0
  3  4  1  0  0  0  0
  3  6  1  0  0  0  0
  5  3  1  0  0  0  0
  6  7  1  0  0  0  0
  8  6  2  0  0  0  0
  8 10  1  0  0  0  0
  9  8  1  0  0  0  0
 10  2  2  0  0  0  0
 11 13  1  0  0  0  0
 11 14  1  0  0  0  0
 12 11  1  0  0  0  0
M  END
