8
q = 0.0, confidence = 0.998

 46 47  0  0  0  0  0  0  0  0999 V2000
   -2.0027    1.5738    0.5867 C   0  0  0  0  0  0  0  0  0  0  0  0
   -2.0094    1.7761    1.6952 H   0  0  0  0  0  0  0  0  0  0  0  0
   -2.0834    2.5510    0.0618 H   0  0  0  0  0  0  0  0  0  0  0  0
   -2.9776    0.6064    0.1418 N   0  0  0  0  0  0  0  0  0  0  0  0
   -2.3292   -0.7021    0.2232 C   0  0  0  0  0  0  0  0  0  0  0  0
   -2.7003   -1.4134   -0.5425 H   0  0  0  0  0  0  0  0  0  0  0  0
   -2.4572   -1.2158    1.2173 H   0  0  0  0  0  0  0  0  0  0  0  0
   -0.8637   -0.4031    0.0573 C   0  0  0  0  0  2  0  0  0  0  0  0
   -0.7340    0.9045    0.2487 N   0  0  0  0  0  0  0  0  0  0  0  0
   -4.3087    0.7244    0.7128 C   0  0  0  0  0  0  0  0  0  0  0  0
   -4.6164    1.7905    0.6185 H   0  0  0  0  0  0  0  0  0  0  0  0
   -4.3245    0.4814    1.8097 H   0  0  0  0  0  0  0  0  0  0  0  0
   -5.3022   -0.1382   -0.0169 C   0  0  0  0  0  0  0  0  0  0  0  0
   -5.3553    0.0273   -1.1079 H   0  0  0  0  0  0  0  0  0  0  0  0
   -6.0864   -1.0591    0.5664 C   0  0  0  0  0  0  0  0  0  0  0  0
   -6.0386   -1.2493    1.6520 H   0  0  0  0  0  0  0  0  0  0  0  0
   -6.8088   -1.6524   -0.0148 H   0  0  0  0  0  0  0  0  0  0  0  0
    0.4951    1.6535    0.1957 C   0  0  0  0  0  0  0  0  0  0  0  0
    1.3264    1.7012    1.3384 C   0  0  0  0  0  0  0  0  0  0  0  0
    2.5040    2.4673    1.2436 C   0  0  0  0  0  0  0  0  0  0  0  0
    3.1793    2.5234    2.1106 H   0  0  0  0  0  0  0  0  0  0  0  0
    2.8321    3.1476    0.0656 C   0  0  0  0  0  0  0  0  0  0  0  0
    3.7597    3.7374    0.0141 H   0  0  0  0  0  0  0  0  0  0  0  0
    1.9916    3.0717   -1.0528 C   0  0  0  0  0  0  0  0  0  0  0  0
    2.2701    3.5953   -1.9792 H   0  0  0  0  0  0  0  0  0  0  0  0
    0.8023    2.3224   -1.0140 C   0  0  0  0  0  0  0  0  0  0  0  0
    0.9993    0.9528    2.6238 C   0  0  0  0  0  0  0  0  0  0  0  0
    0.0476    0.4058    2.4653 H   0  0  0  0  0  0  0  0  0  0  0  0
   -0.0687    2.1641   -2.2545 C   0  0  0  0  0  0  0  0  0  0  0  0
   -1.0529    1.7627   -1.9349 H   0  0  0  0  0  0  0  0  0  0  0  0
    0.7862    1.9221    3.7992 C   0  0  0  0  0  0  0  0  0  0  0  0
    0.5020    1.3662    4.7158 H   0  0  0  0  0  0  0  0  0  0  0  0
   -0.0133    2.6592    3.5806 H   0  0  0  0  0  0  0  0  0  0  0  0
    1.7109    2.4909    4.0278 H   0  0  0  0  0  0  0  0  0  0  0  0
    2.0731   -0.1030    2.9382 C   0  0  0  0  0  0  0  0  0  0  0  0
    1.7946   -0.6807    3.8429 H   0  0  0  0  0  0  0  0  0  0  0  0
    3.0595    0.3673    3.1298 H   0  0  0  0  0  0  0  0  0  0  0  0
    2.1906   -0.8151    2.0963 H   0  0  0  0  0  0  0  0  0  0  0  0
   -0.3278    3.4940   -2.9769 C   0  0  0  0  0  0  0  0  0  0  0  0
   -1.0324    3.3424   -3.8193 H   0  0  0  0  0  0  0  0  0  0  0  0
    0.6029    3.9197   -3.4048 H   0  0  0  0  0  0  0  0  0  0  0  0
   -0.7633    4.2527   -2.2955 H   0  0  0  0  0  0  0  0  0  0  0  0
    0.5546    1.1150   -3.1954 C   0  0  0  0  0  0  0  0  0  0  0  0
   -0.0929    0.9476   -4.0802 H   0  0  0  0  0  0  0  0  0  0  0  0
    0.6940    0.1447   -2.6762 H   0  0  0  0  0  0  0  0  0  0  0  0
    1.5495    1.4497   -3.5546 H   0  0  0  0  0  0  0  0  0  0  0  0
  1  2  1  0  0  0  0
  3  1  1  0  0  0  0
  4  5  1  0  0  0  0
  4  1  1  0  0  0  0
  4 10  1  0  0  0  0
  5  7  1  0  0  0  0
  6  5  1  0  0  0  0
  8  5  1  0  0  0  0
  8  9  1  0  0  0  0
  9  1  1  0  0  0  0
 10 12  1  0  0  0  0
 11 10  1  0  0  0  0
 13 15  2  0  0  0  0
 13 10  1  0  0  0  0
 14 13  1  0  0  0  0
 15 16  1  0  0  0  0
 17 15  1  0  0  0  0
 18  9  1  0  0  0  0
 18 19  1  0  0  0  0
 19 27  1  0  0  0  0
 20 19  2  0  0  0  0
 20 21  1  0  0  0  0
 22 20  1  0  0  0  0
 23 22  1  0  0  0  0
 24 26  1  0  0  0  0
 24 22  2  0  0  0  0
 25 24  1  0  0  0  0
 26 18  2  0  0  0  0
 27 35  1  0  0  0  0
 27 31  1  0  0  0  0
 28 27  1  0  0  0  0
 29 30  1  0  0  0  0
 29 26  1  0  0  0  0
 31 34  1  0  0  0  0
 31 32  1  0  0  0  0
 33 31  1  0  0  0  0
 35 37  1  0  0  0  0
 35 36  1  0  0  0  0
 38 35  1  0  0  0  0
 39 42  1  0  0  0  0
 39 29  1  0  0  0  0
 40 39  1  0  0  0  0
 41 39  1  0  0  0  0
 43 45  1  0  0  0  0
 43 29  1  0  0  0  0
 44 43  1  0  0  0  0
 46 43  1  0  0  0  0
M  END
