6
q = 0.0, confidence = 1.0

 38 40  0  0  0  0  0  0  0  0999 V2000
    5.1911   -0.5728   -1.0664 O   0  0  0  0  0  0  0  0  0  0  0  0
    3.9308   -0.6132   -2.9233 O   0  0  0  0  0  0  0  0  0  0  0  0
    1.4248    2.7780   -0.0725 N   0  0  0  0  0  0  0  0  0  0  0  0
   -0.3310    2.9627   -1.2654 N   0  0  0  0  0  0  0  0  0  0  0  0
    0.2236    4.2084   -1.2637 N   0  0  0  0  0  0  0  0  0  0  0  0
    0.3591    2.0493   -0.5446 C   0  0  0  0  0  2  0  0  0  0  0  0
    1.3048    4.0726   -0.5343 C   0  0  0  0  0  0  0  0  0  0  0  0
    2.0218    4.8729   -0.3150 H   0  0  0  0  0  0  0  0  0  0  0  0
   -1.6131    2.7572   -1.9471 C   0  0  0  0  0  0  0  0  0  0  0  0
   -1.5300    3.2293   -2.9445 H   0  0  0  0  0  0  0  0  0  0  0  0
   -1.7220    1.6660   -2.0969 H   0  0  0  0  0  0  0  0  0  0  0  0
   -2.7957    3.3282   -1.1609 C   0  0  0  0  0  0  0  0  0  0  0  0
   -3.7018    3.0846   -1.7531 H   0  0  0  0  0  0  0  0  0  0  0  0
   -2.7151    4.4351   -1.1403 H   0  0  0  0  0  0  0  0  0  0  0  0
   -2.9202    2.7782    0.2596 C   0  0  0  0  0  0  0  0  0  0  0  0
   -2.0858    3.1145    0.9092 H   0  0  0  0  0  0  0  0  0  0  0  0
   -2.9182    1.6685    0.2741 H   0  0  0  0  0  0  0  0  0  0  0  0
   -3.8619    3.1145    0.7350 H   0  0  0  0  0  0  0  0  0  0  0  0
    2.4964    2.2647    0.7707 C   0  0  0  0  0  0  0  0  0  0  0  0
    2.0366    1.7531    1.6423 H   0  0  0  0  0  0  0  0  0  0  0  0
    3.0508    3.1354    1.1752 H   0  0  0  0  0  0  0  0  0  0  0  0
    3.4514    1.3092    0.0872 C   0  0  0  0  0  0  0  0  0  0  0  0
    3.2963    0.9243   -1.2174 C   0  0  0  0  0  0  0  0  0  0  0  0
    2.5027    1.3234   -1.8619 H   0  0  0  0  0  0  0  0  0  0  0  0
    4.1226   -0.1062   -1.8362 C   0  0  0  0  0  0  0  0  0  0  0  0
    5.3985   -0.1747    0.2199 C   0  0  0  0  0  0  0  0  0  0  0  0
    6.4905   -0.7400    0.8986 C   0  0  0  0  0  0  0  0  0  0  0  0
    7.1339   -1.4513    0.3621 H   0  0  0  0  0  0  0  0  0  0  0  0
    6.7283   -0.3887    2.2268 C   0  0  0  0  0  0  0  0  0  0  0  0
    7.5868   -0.8342    2.7530 H   0  0  0  0  0  0  0  0  0  0  0  0
    5.8930    0.5274    2.9172 C   0  0  0  0  0  0  0  0  0  0  0  0
    4.8118    1.0814    2.2220 C   0  0  0  0  0  0  0  0  0  0  0  0
    4.1638    1.7965    2.7507 H   0  0  0  0  0  0  0  0  0  0  0  0
    4.5411    0.7531    0.8686 C   0  0  0  0  0  0  0  0  0  0  0  0
    6.1801    0.8878    4.3510 C   0  0  0  0  0  0  0  0  0  0  0  0
    6.1921   -0.0144    4.9965 H   0  0  0  0  0  0  0  0  0  0  0  0
    5.4280    1.5894    4.7591 H   0  0  0  0  0  0  0  0  0  0  0  0
    7.1776    1.3639    4.4502 H   0  0  0  0  0  0  0  0  0  0  0  0
  1 26  1  0  0  0  0
  2 25  2  0  0  0  0
  3 19  1  0  0  0  0
  4  5  1  0  0  0  0
  4  6  1  0  0  0  0
  5  7  2  0  0  0  0
  6  3  1  0  0  0  0
  7  8  1  0  0  0  0
  7  3  1  0  0  0  0
  9  4  1  0  0  0  0
  9 12  1  0  0  0  0
 10  9  1  0  0  0  0
 11  9  1  0  0  0  0
 12 14  1  0  0  0  0
 12 15  1  0  0  0  0
 13 12  1  0  0  0  0
 15 17  1  0  0  0  0
 15 18  1  0  0  0  0
 15 16  1  0  0  0  0
 19 21  1  0  0  0  0
 19 20  1  0  0  0  0
 22 19  1  0  0  0  0
 22 34  1  0  0  0  0
 23 22  2  0  0  0  0
 24 23  1  0  0  0  0
 25 23  1  0  0  0  0
 25  1  1  0  0  0  0
 26 34  2  0  0  0  0
 26 27  1  0  0  0  0
 27 29  2  0  0  0  0
 28 27  1  0  0  0  0
 29 30  1  0  0  0  0
 29 31  1  0  0  0  0
 31 35  1  0  0  0  0
 32 33  1  0  0  0  0
 32 31  2  0  0  0  0
 34 32  1  0  0  0  0
 35 38  1  0  0  0  0
 35 37  1  0  0  0  0
 35 36  1  0  0  0  0
M  END
