2
q = 0.0, confidence = 0.98

 40 42  0  0  0  0  0  0  0  0999 V2000
   -0.8244   -0.2301    1.3997 C   0  0  0  0  0  3  0  0  0  0  0  0
   -0.2184   -0.1913    0.1258 C   0  0  0  0  0  3  0  0  0  0  0  0
    0.9096   -0.1542   -0.5922 C   0  0  0  0  0  0  0  0  0  0  0  0
    2.3282   -0.1018    0.0004 C   0  0  0  0  0  0  0  0  0  0  0  0
    2.3194   -0.8092    1.3691 C   0  0  0  0  0  0  0  0  0  0  0  0
    1.8556   -2.1426    1.4447 C   0  0  0  0  0  0  0  0  0  0  0  0
    1.8074   -2.8220    2.6679 C   0  0  0  0  0  0  0  0  0  0  0  0
    2.2174   -2.1792    3.8495 C   0  0  0  0  0  0  0  0  0  0  0  0
    2.6756   -0.8570    3.7870 C   0  0  0  0  0  0  0  0  0  0  0  0
    2.7274   -0.1783    2.5563 C   0  0  0  0  0  0  0  0  0  0  0  0
    3.2904   -0.7968   -0.9953 C   0  0  0  0  0  0  0  0  0  0  0  0
    4.1876   -1.8114   -0.6130 C   0  0  0  0  0  0  0  0  0  0  0  0
    5.0735   -2.3793   -1.5449 C   0  0  0  0  0  0  0  0  0  0  0  0
    5.0802   -1.9427   -2.8761 C   0  0  0  0  0  0  0  0  0  0  0  0
    4.2012   -0.9188   -3.2666 C   0  0  0  0  0  0  0  0  0  0  0  0
    3.3235   -0.3511   -2.3348 C   0  0  0  0  0  0  0  0  0  0  0  0
    2.7712    1.3768    0.1412 C   0  0  0  0  0  0  0  0  0  0  0  0
    4.1421    1.7096    0.1636 C   0  0  0  0  0  0  0  0  0  0  0  0
    4.5529    3.0375    0.3495 C   0  0  0  0  0  0  0  0  0  0  0  0
    3.6021    4.0607    0.5031 C   0  0  0  0  0  0  0  0  0  0  0  0
    2.2368    3.7423    0.4763 C   0  0  0  0  0  0  0  0  0  0  0  0
    1.8308    2.4102    0.3015 C   0  0  0  0  0  0  0  0  0  0  0  0
   -0.8216   -1.1859    1.9529 H   0  0  0  0  0  0  0  0  0  0  0  0
   -0.8210    0.6823    2.0213 H   0  0  0  0  0  0  0  0  0  0  0  0
    0.8467   -0.1364   -1.6919 H   0  0  0  0  0  0  0  0  0  0  0  0
    1.5191   -2.6483    0.5266 H   0  0  0  0  0  0  0  0  0  0  0  0
    1.4452   -3.8612    2.7006 H   0  0  0  0  0  0  0  0  0  0  0  0
    2.1776   -2.7098    4.8131 H   0  0  0  0  0  0  0  0  0  0  0  0
    2.9966   -0.3396    4.7041 H   0  0  0  0  0  0  0  0  0  0  0  0
    3.0834    0.8608    2.5238 H   0  0  0  0  0  0  0  0  0  0  0  0
    4.2042   -2.1609    0.4283 H   0  0  0  0  0  0  0  0  0  0  0  0
    5.7657   -3.1710   -1.2193 H   0  0  0  0  0  0  0  0  0  0  0  0
    5.7717   -2.3903   -3.6059 H   0  0  0  0  0  0  0  0  0  0  0  0
    4.2042   -0.5526   -4.3047 H   0  0  0  0  0  0  0  0  0  0  0  0
    2.6682    0.4754   -2.6501 H   0  0  0  0  0  0  0  0  0  0  0  0
    4.8955    0.9185    0.0340 H   0  0  0  0  0  0  0  0  0  0  0  0
    5.6277    3.2754    0.3664 H   0  0  0  0  0  0  0  0  0  0  0  0
    3.9276    5.1037    0.6370 H   0  0  0  0  0  0  0  0  0  0  0  0
    1.4650    4.5196    0.5808 H   0  0  0  0  0  0  0  0  0  0  0  0
    0.7602    2.1722    0.2845 H   0  0  0  0  0  0  0  0  0  0  0  0
  1 23  1  0  0  0  0
  1 24  1  0  0  0  0
  2  1  1  0  0  0  0
  3  4  1  0  0  0  0
  3  2  2  0  0  0  0
  4 17  1  0  0  0  0
  4  5  1  0  0  0  0
  5  6  2  0  0  0  0
  5 10  1  0  0  0  0
  6  7  1  0  0  0  0
  7 27  1  0  0  0  0
  7  8  2  0  0  0  0
  8 28  1  0  0  0  0
  9  8  1  0  0  0  0
  9 29  1  0  0  0  0
 10  9  2  0  0  0  0
 11 12  1  0  0  0  0
 11  4  1  0  0  0  0
 12 31  1  0  0  0  0
 13 32  1  0  0  0  0
 13 12  2  0  0  0  0
 14 13  1  0  0  0  0
 15 14  2  0  0  0  0
 15 16  1  0  0  0  0
 16 11  2  0  0  0  0
 17 18  2  0  0  0  0
 17 22  1  0  0  0  0
 18 19  1  0  0  0  0
 19 37  1  0  0  0  0
 19 20  2  0  0  0  0
 20 38  1  0  0  0  0
 21 20  1  0  0  0  0
 21 39  1  0  0  0  0
 22 21  2  0  0  0  0
 25  3  1  0  0  0  0
 26  6  1  0  0  0  0
 30 10  1  0  0  0  0
 33 14  1  0  0  0  0
 34 15  1  0  0  0  0
 35 16  1  0  0  0  0
 36 18  1  0  0  0  0
 40 22  1  0  0  0  0
M  END
