1
q = 0.0, confidence = 0.986

 49 50  0  0  1  0  0  0  0  0999 V2000
    0.2430    0.4804   -0.7912 C   0  0  0  0  0  2  0  0  0  0  0  0
   -1.0789    0.0334   -0.4083 C   0  0  2  0  0  3  0  0  0  0  0  0
   -1.3614   -1.3745   -0.3056 C   0  0  2  0  0  3  0  0  0  0  0  0
   -0.8549   -2.3499   -1.3234 C   0  0  0  0  0  0  0  0  0  0  0  0
   -2.1369   -1.8734    0.6627 N   0  0  0  0  0  0  0  0  0  0  0  0
   -2.6044   -1.1480    1.8493 C   0  0  0  0  0  0  0  0  0  0  0  0
   -2.8741   -2.2623    2.8606 C   0  0  0  0  0  0  0  0  0  0  0  0
   -3.4374   -3.3741    1.9648 C   0  0  0  0  0  0  0  0  0  0  0  0
   -2.5551   -3.2872    0.7144 C   0  0  0  0  0  0  0  0  0  0  0  0
   -2.1416    1.0264   -0.1586 C   0  0  0  0  0  0  0  0  0  0  0  0
   -1.7713    2.2931    0.5433 C   0  0  0  0  0  0  0  0  0  0  0  0
   -2.4036    3.5183    0.2360 C   0  0  0  0  0  0  0  0  0  0  0  0
   -2.0620    4.6950    0.9164 C   0  0  0  0  0  0  0  0  0  0  0  0
   -1.0776    4.6739    1.9184 C   0  0  0  0  0  0  0  0  0  0  0  0
   -0.4400    3.4631    2.2352 C   0  0  0  0  0  0  0  0  0  0  0  0
   -0.7875    2.2884    1.5569 C   0  0  0  0  0  0  0  0  0  0  0  0
   -3.4798    0.8648   -0.4636 C   0  0  0  0  0  0  0  0  0  0  0  0
   -4.1103   -0.1867   -1.2609 C   0  0  0  0  0  0  0  0  0  0  0  0
   -3.6034   -1.1901   -1.7585 O   0  0  0  0  0  0  0  0  0  0  0  0
   -5.4434    0.0888   -1.4156 O   0  0  0  0  0  0  0  0  0  0  0  0
   -6.1698   -0.8514   -2.2048 C   0  0  0  0  0  0  0  0  0  0  0  0
    0.1232    1.7086   -1.3202 O   0  0  0  0  0  0  0  0  0  0  0  0
    1.2309    2.5725   -1.6069 C   0  0  0  0  0  0  0  0  0  0  0  0
    0.6830    3.9626   -1.8650 C   0  0  0  0  0  0  0  0  0  0  0  0
   -0.1885   -1.8428   -2.0369 H   0  0  0  0  0  0  0  0  0  0  0  0
   -1.7361   -2.7168   -1.8880 H   0  0  0  0  0  0  0  0  0  0  0  0
   -0.3368   -3.2216   -0.8783 H   0  0  0  0  0  0  0  0  0  0  0  0
   -3.5313   -0.5802    1.6069 H   0  0  0  0  0  0  0  0  0  0  0  0
   -1.8408   -0.4083    2.1556 H   0  0  0  0  0  0  0  0  0  0  0  0
   -3.5667   -1.9452    3.6632 H   0  0  0  0  0  0  0  0  0  0  0  0
   -1.9207   -2.5842    3.3278 H   0  0  0  0  0  0  0  0  0  0  0  0
   -3.4073   -4.3788    2.4277 H   0  0  0  0  0  0  0  0  0  0  0  0
   -4.4935   -3.1543    1.7027 H   0  0  0  0  0  0  0  0  0  0  0  0
   -1.6531   -3.9285    0.8099 H   0  0  0  0  0  0  0  0  0  0  0  0
   -3.0768   -3.5632   -0.2232 H   0  0  0  0  0  0  0  0  0  0  0  0
   -3.1424    3.5524   -0.5784 H   0  0  0  0  0  0  0  0  0  0  0  0
   -2.5566    5.6415    0.6495 H   0  0  0  0  0  0  0  0  0  0  0  0
   -0.8026    5.5999    2.4457 H   0  0  0  0  0  0  0  0  0  0  0  0
    0.3431    3.4307    3.0072 H   0  0  0  0  0  0  0  0  0  0  0  0
   -0.2775    1.3440    1.7979 H   0  0  0  0  0  0  0  0  0  0  0  0
   -4.1817    1.6408   -0.1263 H   0  0  0  0  0  0  0  0  0  0  0  0
   -7.2154   -0.4950   -2.2256 H   0  0  0  0  0  0  0  0  0  0  0  0
   -6.1194   -1.8692   -1.7640 H   0  0  0  0  0  0  0  0  0  0  0  0
   -5.7632   -0.9097   -3.2355 H   0  0  0  0  0  0  0  0  0  0  0  0
    1.7703    2.1718   -2.4904 H   0  0  0  0  0  0  0  0  0  0  0  0
    1.9307    2.5662   -0.7472 H   0  0  0  0  0  0  0  0  0  0  0  0
    1.5129    4.6470   -2.1302 H   0  0  0  0  0  0  0  0  0  0  0  0
    0.1722    4.3589   -0.9659 H   0  0  0  0  0  0  0  0  0  0  0  0
   -0.0425    3.9536   -2.7024 H   0  0  0  0  0  0  0  0  0  0  0  0
  2  1  1  6  0  0  0
  2  3  1  0  0  0  0
  2 10  1  0  0  0  0
  3  4  1  6  0  0  0
  3  5  1  0  0  0  0
  4 27  1  0  0  0  0
  5  9  1  0  0  0  0
  5  6  1  0  0  0  0
  6 29  1  0  0  0  0
  6  7  1  0  0  0  0
  7 31  1  0  0  0  0
  7 30  1  0  0  0  0
  8 32  1  0  0  0  0
  8  7  1  0  0  0  0
  9 34  1  0  0  0  0
  9  8  1  0  0  0  0
 10 11  1  0  0  0  0
 11 16  1  0  0  0  0
 12 11  2  0  0  0  0
 12 13  1  0  0  0  0
 13 14  2  0  0  0  0
 14 15  1  0  0  0  0
 14 38  1  0  0  0  0
 15 39  1  0  0  0  0
 16 40  1  0  0  0  0
 16 15  2  0  0  0  0
 17 10  2  0  0  0  0
 17 41  1  0  0  0  0
 18 17  1  0  0  0  0
 19 18  2  0  0  0  0
 20 18  1  0  0  0  0
 21 43  1  0  0  0  0
 21 20  1  0  0  0  0
 22  1  1  0  0  0  0
 23 22  1  0  0  0  0
 23 46  1  0  0  0  0
 24 23  1  0  0  0  0
 24 48  1  0  0  0  0
 25  4  1  0  0  0  0
 26  4  1  0  0  0  0
 28  6  1  0  0  0  0
 33  8  1  0  0  0  0
 35  9  1  0  0  0  0
 36 12  1  0  0  0  0
 37 13  1  0  0  0  0
 42 21  1  0  0  0  0
 44 21  1  0  0  0  0
 45 23  1  0  0  0  0
 47 24  1  0  0  0  0
 49 24  1  0  0  0  0
M  END
