1
q = 0.0, confidence = 0.994

 19 20  0  0  0  0  0  0  0  0999 V2000
    0.0141   -0.9023    0.7087 C   0  0  0  0  0  1  0  0  0  0  0  0
    1.1192   -0.8397    1.1533 N   0  0  0  0  0  2  0  0  0  0  0  0
    2.4857   -1.0349    1.0963 C   0  0  0  0  0  0  0  0  0  0  0  0
    3.3604   -0.1462    1.7128 C   0  0  0  0  0  0  0  0  0  0  0  0
    2.9629    0.6991    2.2916 H   0  0  0  0  0  0  0  0  0  0  0  0
    4.7640   -0.3028    1.5542 C   0  0  0  0  0  0  0  0  0  0  0  0
    5.6937    0.6056    2.1402 C   0  0  0  0  0  0  0  0  0  0  0  0
    5.3071    1.4389    2.7465 H   0  0  0  0  0  0  0  0  0  0  0  0
    7.0570    0.4531    1.9391 C   0  0  0  0  0  0  0  0  0  0  0  0
    7.7637    1.1636    2.3941 H   0  0  0  0  0  0  0  0  0  0  0  0
    7.5497   -0.6177    1.1447 C   0  0  0  0  0  0  0  0  0  0  0  0
    8.6338   -0.7282    0.9910 H   0  0  0  0  0  0  0  0  0  0  0  0
    6.6704   -1.5247    0.5699 C   0  0  0  0  0  0  0  0  0  0  0  0
    7.0488   -2.3584   -0.0418 H   0  0  0  0  0  0  0  0  0  0  0  0
    5.2643   -1.3962    0.7554 C   0  0  0  0  0  0  0  0  0  0  0  0
    4.3322   -2.3056    0.1696 C   0  0  0  0  0  0  0  0  0  0  0  0
    4.7155   -3.1469   -0.4283 H   0  0  0  0  0  0  0  0  0  0  0  0
    2.9700   -2.1417    0.3301 C   0  0  0  0  0  0  0  0  0  0  0  0
    2.2353   -2.8271   -0.1188 H   0  0  0  0  0  0  0  0  0  0  0  0
  1  2  1  0  0  0  0
  3  2  1  0  0  0  0
  3  4  1  0  0  0  0
  4  5  1  0  0  0  0
  6  4  2  0  0  0  0
  6  7  1  0  0  0  0
  7  8  1  0  0  0  0
  9  7  2  0  0  0  0
  9 10  1  0  0  0  0
 11  9  1  0  0  0  0
 12 11  1  0  0  0  0
 13 15  1  0  0  0  0
 13 11  2  0  0  0  0
 14 13  1  0  0  0  0
 15  6  1  0  0  0  0
 16 18  1  0  0  0  0
 16 15  2  0  0  0  0
 17 16  1  0  0  0  0
 18  3  2  0  0  0  0
 19 18  1  0  0  0  0
M  END
