4
q = 0.0, confidence = 0.964

 11 10  0  0  0  0  0  0  0  0999 V2000
    1.0272    3.1926   -1.6186 O   0  0  0  0  0  0  0  0  0  0  0  0
    1.0143    2.3748   -0.7158 C   0  0  0  0  0  0  0  0  0  0  0  0
    0.7735    0.9218   -0.9128 C   0  0  0  0  0  3  0  0  0  0  0  0
    1.1564   -0.0267    0.0641 C   0  0  0  0  0  3  0  0  0  0  0  0
    2.2609   -0.6050    0.5830 C   0  0  0  0  0  0  0  0  0  0  0  0
    3.5967   -0.2995    0.0389 C   0  0  0  0  0  0  0  0  0  0  0  0
    4.6347   -0.8112    0.4279 O   0  0  0  0  0  0  0  0  0  0  0  0
    1.1999    2.6705    0.3612 H   0  0  0  0  0  0  0  0  0  0  0  0
    0.7248    0.6332   -1.9779 H   0  0  0  0  0  0  0  0  0  0  0  0
    2.2169   -1.3288    1.4137 H   0  0  0  0  0  0  0  0  0  0  0  0
    3.5856    0.4672   -0.7963 H   0  0  0  0  0  0  0  0  0  0  0  0
  1  2  2  0  0  0  0
  2  8  1  0  0  0  0
  3  2  1  0  0  0  0
  3  4  1  0  0  0  0
  4  5  2  0  0  0  0
  5 10  1  0  0  0  0
  6  7  2  0  0  0  0
  6  5  1  0  0  0  0
  9  3  1  0  0  0  0
 11  6  1  0  0  0  0
M  END
