3
q = 0.0, confidence = 0.976

 48 52  0  0  1  0  0  0  0  0999 V2000
   -0.9521    1.1518   -0.0423 N   0  0  0  0  0  0  0  0  0  0  0  0
    1.3413    0.8141   -0.1450 N   0  0  0  0  0  0  0  0  0  0  0  0
    0.0904    0.2809   -0.0705 C   0  0  0  0  0  2  0  0  0  0  0  0
   -0.8829    2.6249    0.1524 C   0  0  2  0  0  0  0  0  0  0  0  0
   -1.3685    3.0979   -0.7264 H   0  0  0  0  0  0  0  0  0  0  0  0
    0.5741    3.1190    0.3439 C   0  0  2  0  0  0  0  0  0  0  0  0
    1.5384    2.2312   -0.4557 C   0  0  2  0  0  0  0  0  0  0  0  0
    2.5737    2.4848   -0.1521 H   0  0  0  0  0  0  0  0  0  0  0  0
   -2.2933    0.6279   -0.1223 C   0  0  0  0  0  0  0  0  0  0  0  0
   -3.0607    0.8900   -1.2680 C   0  0  0  0  0  0  0  0  0  0  0  0
   -2.6162    1.4530   -2.1023 H   0  0  0  0  0  0  0  0  0  0  0  0
   -4.3748    0.4050   -1.3529 C   0  0  0  0  0  0  0  0  0  0  0  0
   -4.9693    0.5979   -2.2584 H   0  0  0  0  0  0  0  0  0  0  0  0
   -4.9200   -0.3388   -0.2955 C   0  0  0  0  0  0  0  0  0  0  0  0
   -5.9469   -0.7269   -0.3672 H   0  0  0  0  0  0  0  0  0  0  0  0
   -4.1502   -0.5957    0.8507 C   0  0  0  0  0  0  0  0  0  0  0  0
   -4.5693   -1.1872    1.6779 H   0  0  0  0  0  0  0  0  0  0  0  0
   -2.8386   -0.1111    0.9428 C   0  0  0  0  0  0  0  0  0  0  0  0
   -2.2203   -0.3177    1.8279 H   0  0  0  0  0  0  0  0  0  0  0  0
   -1.5681    3.0347    1.4685 C   0  0  0  0  0  0  0  0  0  0  0  0
   -2.5558    2.5569    1.6124 H   0  0  0  0  0  0  0  0  0  0  0  0
   -1.7324    4.1327    1.4393 H   0  0  0  0  0  0  0  0  0  0  0  0
   -0.5208    2.6775    2.5284 C   0  0  0  0  0  0  0  0  0  0  0  0
   -0.5242    1.5804    2.6980 H   0  0  0  0  0  0  0  0  0  0  0  0
   -0.7113    3.1570    3.5082 H   0  0  0  0  0  0  0  0  0  0  0  0
    0.8103    3.1156    1.8830 C   0  0  0  0  0  0  0  0  0  0  0  0
    1.0909    4.1360    2.2153 H   0  0  0  0  0  0  0  0  0  0  0  0
    1.6491    2.4459    2.1600 H   0  0  0  0  0  0  0  0  0  0  0  0
    0.7726    4.4764   -0.3568 C   0  0  0  0  0  0  0  0  0  0  0  0
    1.6986    4.9408    0.0417 H   0  0  0  0  0  0  0  0  0  0  0  0
   -0.0551    5.1838   -0.1463 H   0  0  0  0  0  0  0  0  0  0  0  0
    0.9325    4.1464   -1.8634 C   0  0  0  0  0  0  0  0  0  0  0  0
   -0.0053    4.3410   -2.4201 H   0  0  0  0  0  0  0  0  0  0  0  0
    1.7058    4.7863   -2.3310 H   0  0  0  0  0  0  0  0  0  0  0  0
    1.3061    2.6406   -1.9277 C   0  0  0  0  0  0  0  0  0  0  0  0
    2.1940    2.4404   -2.5580 H   0  0  0  0  0  0  0  0  0  0  0  0
    0.4774    2.0349   -2.3457 H   0  0  0  0  0  0  0  0  0  0  0  0
    3.5493    0.0596   -0.9218 C   0  0  0  0  0  0  0  0  0  0  0  0
    3.4543    0.7078   -1.8043 H   0  0  0  0  0  0  0  0  0  0  0  0
    4.6960   -0.7292   -0.7481 C   0  0  0  0  0  0  0  0  0  0  0  0
    5.5047   -0.6799   -1.4926 H   0  0  0  0  0  0  0  0  0  0  0  0
    4.8024   -1.5918    0.3535 C   0  0  0  0  0  0  0  0  0  0  0  0
    5.6982   -2.2173    0.4812 H   0  0  0  0  0  0  0  0  0  0  0  0
    3.7594   -1.6529    1.2911 C   0  0  0  0  0  0  0  0  0  0  0  0
    3.8338   -2.3234    2.1599 H   0  0  0  0  0  0  0  0  0  0  0  0
    2.6166   -0.8578    1.1329 C   0  0  0  0  0  0  0  0  0  0  0  0
    1.8039   -0.8891    1.8717 H   0  0  0  0  0  0  0  0  0  0  0  0
    2.5027   -0.0071    0.0161 C   0  0  0  0  0  0  0  0  0  0  0  0
  1  4  1  0  0  0  0
  2  3  1  0  0  0  0
  2 48  1  0  0  0  0
  3  1  1  0  0  0  0
  4  5  1  6  0  0  0
  4  6  1  0  0  0  0
  4 20  1  0  0  0  0
  6 29  1  6  0  0  0
  6 26  1  0  0  0  0
  7  8  1  1  0  0  0
  7  2  1  0  0  0  0
  7  6  1  0  0  0  0
  9  1  1  0  0  0  0
  9 18  1  0  0  0  0
 10  9  2  0  0  0  0
 11 10  1  0  0  0  0
 12 10  1  0  0  0  0
 12 14  2  0  0  0  0
 13 12  1  0  0  0  0
 14 16  1  0  0  0  0
 15 14  1  0  0  0  0
 16 18  2  0  0  0  0
 16 17  1  0  0  0  0
 18 19  1  0  0  0  0
 20 21  1  0  0  0  0
 20 23  1  0  0  0  0
 22 20  1  0  0  0  0
 23 24  1  0  0  0  0
 23 25  1  0  0  0  0
 26 28  1  0  0  0  0
 26 27  1  0  0  0  0
 26 23  1  0  0  0  0
 29 31  1  0  0  0  0
 29 30  1  0  0  0  0
 32 29  1  0  0  0  0
 33 32  1  0  0  0  0
 34 32  1  0  0  0  0
 35 32  1  0  0  0  0
 35  7  1  0  0  0  0
 36 35  1  0  0  0  0
 37 35  1  0  0  0  0
 38 40  2  0  0  0  0
 38 48  1  0  0  0  0
 39 38  1  0  0  0  0
 40 42  1  0  0  0  0
 41 40  1  0  0  0  0
 42 43  1  0  0  0  0
 42 44  2  0  0  0  0
 44 45  1  0  0  0  0
 46 44  1  0  0  0  0
 46 47  1  0  0  0  0
 48 46  2  0  0  0  0
M  END
