3
q = 0.0, confidence = 0.976

 48 52  0  0  1  0  0  0  0  0999 V2000
    1.3484    1.1938   -0.2057 N   0  0  0  0  0  0  0  0  0  0  0  0
    1.3220   -1.1195   -0.1027 N   0  0  0  0  0  0  0  0  0  0  0  0
    0.6320    0.0483   -0.0341 C   0  0  0  0  0  2  0  0  0  0  0  0
    2.7554    1.1409   -0.6121 C   0  0  1  0  0  0  0  0  0  0  0  0
    3.1950    2.1287   -0.3678 H   0  0  0  0  0  0  0  0  0  0  0  0
    3.5238    0.0689    0.1758 C   0  0  1  0  0  0  0  0  0  0  0  0
    2.7881   -1.2932    0.0661 C   0  0  1  0  0  0  0  0  0  0  0  0
    3.1498   -1.8908   -0.7964 H   0  0  0  0  0  0  0  0  0  0  0  0
    0.7330    2.4802   -0.0764 C   0  0  0  0  0  0  0  0  0  0  0  0
    0.9219    3.4494   -1.0807 C   0  0  0  0  0  0  0  0  0  0  0  0
    1.5287    3.2131   -1.9664 H   0  0  0  0  0  0  0  0  0  0  0  0
    0.3039    4.7045   -0.9710 C   0  0  0  0  0  0  0  0  0  0  0  0
    0.4482    5.4506   -1.7670 H   0  0  0  0  0  0  0  0  0  0  0  0
   -0.5069    4.9993    0.1367 C   0  0  0  0  0  0  0  0  0  0  0  0
   -0.9963    5.9817    0.2176 H   0  0  0  0  0  0  0  0  0  0  0  0
   -0.6778    4.0365    1.1440 C   0  0  0  0  0  0  0  0  0  0  0  0
   -1.2945    4.2617    2.0273 H   0  0  0  0  0  0  0  0  0  0  0  0
   -0.0568    2.7814    1.0497 C   0  0  0  0  0  0  0  0  0  0  0  0
   -0.1657    2.0350    1.8511 H   0  0  0  0  0  0  0  0  0  0  0  0
    3.0288    0.7972   -2.0942 C   0  0  0  0  0  0  0  0  0  0  0  0
    2.9440    1.6864   -2.7488 H   0  0  0  0  0  0  0  0  0  0  0  0
    2.2673    0.0709   -2.4431 H   0  0  0  0  0  0  0  0  0  0  0  0
    4.4517    0.1744   -2.0989 C   0  0  0  0  0  0  0  0  0  0  0  0
    4.4475   -0.8061   -2.6148 H   0  0  0  0  0  0  0  0  0  0  0  0
    5.1798    0.8061   -2.6442 H   0  0  0  0  0  0  0  0  0  0  0  0
    4.8483    0.0230   -0.6075 C   0  0  0  0  0  0  0  0  0  0  0  0
    5.4766    0.8783   -0.2818 H   0  0  0  0  0  0  0  0  0  0  0  0
    5.4285   -0.8985   -0.3973 H   0  0  0  0  0  0  0  0  0  0  0  0
    3.6498    0.3488    1.7025 C   0  0  0  0  0  0  0  0  0  0  0  0
    4.7237    0.4181    1.9741 H   0  0  0  0  0  0  0  0  0  0  0  0
    3.1842    1.3176    1.9741 H   0  0  0  0  0  0  0  0  0  0  0  0
    2.9755   -0.8375    2.4203 C   0  0  0  0  0  0  0  0  0  0  0  0
    3.4381   -1.0727    3.3988 H   0  0  0  0  0  0  0  0  0  0  0  0
    1.9023   -0.6183    2.6075 H   0  0  0  0  0  0  0  0  0  0  0  0
    3.1012   -1.9810    1.4080 C   0  0  0  0  0  0  0  0  0  0  0  0
    2.4453   -2.8500    1.6084 H   0  0  0  0  0  0  0  0  0  0  0  0
    4.1459   -2.3579    1.3637 H   0  0  0  0  0  0  0  0  0  0  0  0
    0.5847   -2.3511   -0.2541 C   0  0  0  0  0  0  0  0  0  0  0  0
    0.6644   -3.0238   -1.4863 C   0  0  0  0  0  0  0  0  0  0  0  0
    1.2661   -2.5915   -2.3006 H   0  0  0  0  0  0  0  0  0  0  0  0
   -0.0427   -4.2212   -1.6796 C   0  0  0  0  0  0  0  0  0  0  0  0
    0.0100   -4.7361   -2.6508 H   0  0  0  0  0  0  0  0  0  0  0  0
   -0.8198   -4.7522   -0.6382 C   0  0  0  0  0  0  0  0  0  0  0  0
   -1.3765   -5.6895   -0.7894 H   0  0  0  0  0  0  0  0  0  0  0  0
   -0.8797   -4.0871    0.5978 C   0  0  0  0  0  0  0  0  0  0  0  0
   -1.4829   -4.5012    1.4199 H   0  0  0  0  0  0  0  0  0  0  0  0
   -0.1805   -2.8865    0.7974 C   0  0  0  0  0  0  0  0  0  0  0  0
   -0.2382   -2.3417    1.7517 H   0  0  0  0  0  0  0  0  0  0  0  0
  1  9  1  0  0  0  0
  1  3  1  0  0  0  0
  2  3  1  0  0  0  0
  2  7  1  0  0  0  0
  4  5  1  1  0  0  0
  4  1  1  0  0  0  0
  4  6  1  0  0  0  0
  6 26  1  6  0  0  0
  6 29  1  0  0  0  0
  7  8  1  6  0  0  0
  7  6  1  0  0  0  0
  7 35  1  0  0  0  0
  9 18  1  0  0  0  0
 10 12  1  0  0  0  0
 10  9  2  0  0  0  0
 11 10  1  0  0  0  0
 12 14  2  0  0  0  0
 13 12  1  0  0  0  0
 14 15  1  0  0  0  0
 14 16  1  0  0  0  0
 16 17  1  0  0  0  0
 18 16  2  0  0  0  0
 18 19  1  0  0  0  0
 20  4  1  0  0  0  0
 21 20  1  0  0  0  0
 22 20  1  0  0  0  0
 23 20  1  0  0  0  0
 23 26  1  0  0  0  0
 24 23  1  0  0  0  0
 25 23  1  0  0  0  0
 26 28  1  0  0  0  0
 26 27  1  0  0  0  0
 29 30  1  0  0  0  0
 29 31  1  0  0  0  0
 29 32  1  0  0  0  0
 32 34  1  0  0  0  0
 32 33  1  0  0  0  0
 35 36  1  0  0  0  0
 35 32  1  0  0  0  0
 37 35  1  0  0  0  0
 38  2  1  0  0  0  0
 38 47  1  0  0  0  0
 39 38  2  0  0  0  0
 40 39  1  0  0  0  0
 41 39  1  0  0  0  0
 41 43  2  0  0  0  0
 42 41  1  0  0  0  0
 43 45  1  0  0  0  0
 44 43  1  0  0  0  0
 45 47  2  0  0  0  0
 45 46  1  0  0  0  0
 47 48  1  0  0  0  0
M  END
