3
q = 0.0, confidence = 1.0

 49 53  0  0  0  0  0  0  0  0999 V2000
    0.9505   -2.2867    0.0258 N   0  0  0  0  0  0  0  0  0  0  0  0
   -1.2469   -2.2047   -0.0826 N   0  0  0  0  0  0  0  0  0  0  0  0
   -0.1054   -1.4369   -0.1767 C   0  0  0  0  0  2  0  0  0  0  0  0
    0.5389   -3.6895    0.1979 C   0  0  0  0  0  0  0  0  0  0  0  0
    1.0510   -4.1396    1.0719 H   0  0  0  0  0  0  0  0  0  0  0  0
    0.8157   -4.2857   -0.7015 H   0  0  0  0  0  0  0  0  0  0  0  0
   -0.9804   -3.5716    0.3825 C   0  0  0  0  0  0  0  0  0  0  0  0
   -1.5515   -4.3121   -0.2132 H   0  0  0  0  0  0  0  0  0  0  0  0
   -1.2880   -3.6830    1.4465 H   0  0  0  0  0  0  0  0  0  0  0  0
    2.3210   -2.0118   -0.2564 C   0  0  0  0  0  0  0  0  0  0  0  0
    2.7582   -2.0171   -1.5870 C   0  0  0  0  0  0  0  0  0  0  0  0
    4.1439   -1.7965   -1.8384 C   0  0  0  0  0  0  0  0  0  0  0  0
    4.4941   -1.7949   -2.8823 H   0  0  0  0  0  0  0  0  0  0  0  0
    5.0450   -1.5864   -0.8066 C   0  0  0  0  0  0  0  0  0  0  0  0
    6.1124   -1.4279   -1.0264 H   0  0  0  0  0  0  0  0  0  0  0  0
    4.6134   -1.5637    0.5506 C   0  0  0  0  0  0  0  0  0  0  0  0
    5.5096   -1.3277    1.6341 C   0  0  0  0  0  0  0  0  0  0  0  0
    6.5777   -1.1767    1.4125 H   0  0  0  0  0  0  0  0  0  0  0  0
    5.0451   -1.2780    2.9396 C   0  0  0  0  0  0  0  0  0  0  0  0
    5.7456   -1.0898    3.7673 H   0  0  0  0  0  0  0  0  0  0  0  0
    3.6608   -1.4484    3.2122 C   0  0  0  0  0  0  0  0  0  0  0  0
    3.2956   -1.3706    4.2474 H   0  0  0  0  0  0  0  0  0  0  0  0
    2.7621   -1.6882    2.1837 C   0  0  0  0  0  0  0  0  0  0  0  0
    1.6840   -1.7624    2.3835 H   0  0  0  0  0  0  0  0  0  0  0  0
    3.2149   -1.7702    0.8348 C   0  0  0  0  0  0  0  0  0  0  0  0
    1.7848   -2.1602   -2.7267 C   0  0  0  0  0  0  0  0  0  0  0  0
    1.0802   -3.0021   -2.5746 H   0  0  0  0  0  0  0  0  0  0  0  0
    2.3116   -2.3195   -3.6863 H   0  0  0  0  0  0  0  0  0  0  0  0
    1.1567   -1.2470   -2.8202 H   0  0  0  0  0  0  0  0  0  0  0  0
   -2.5768   -1.7707   -0.3856 C   0  0  0  0  0  0  0  0  0  0  0  0
   -3.0687   -1.9780   -1.6799 C   0  0  0  0  0  0  0  0  0  0  0  0
   -4.3803   -1.5164   -1.9872 C   0  0  0  0  0  0  0  0  0  0  0  0
   -4.7594   -1.6600   -3.0107 H   0  0  0  0  0  0  0  0  0  0  0  0
   -5.1661   -0.8792   -1.0435 C   0  0  0  0  0  0  0  0  0  0  0  0
   -6.1709   -0.5159   -1.3104 H   0  0  0  0  0  0  0  0  0  0  0  0
   -4.7005   -0.6911    0.2879 C   0  0  0  0  0  0  0  0  0  0  0  0
   -5.4947   -0.0556    1.2866 C   0  0  0  0  0  0  0  0  0  0  0  0
   -6.4938    0.3140    1.0072 H   0  0  0  0  0  0  0  0  0  0  0  0
   -5.0232    0.0921    2.5825 C   0  0  0  0  0  0  0  0  0  0  0  0
   -5.6446    0.5874    3.3440 H   0  0  0  0  0  0  0  0  0  0  0  0
   -3.7374   -0.4002    2.9301 C   0  0  0  0  0  0  0  0  0  0  0  0
   -3.3624   -0.2780    3.9572 H   0  0  0  0  0  0  0  0  0  0  0  0
   -2.9367   -1.0186    1.9810 C   0  0  0  0  0  0  0  0  0  0  0  0
   -1.9266   -1.3519    2.2506 H   0  0  0  0  0  0  0  0  0  0  0  0
   -3.3830   -1.1671    0.6360 C   0  0  0  0  0  0  0  0  0  0  0  0
   -2.2226   -2.5993   -2.7561 C   0  0  0  0  0  0  0  0  0  0  0  0
   -1.5920   -3.4271   -2.3774 H   0  0  0  0  0  0  0  0  0  0  0  0
   -1.5403   -1.8225   -3.1637 H   0  0  0  0  0  0  0  0  0  0  0  0
   -2.8474   -2.9839   -3.5847 H   0  0  0  0  0  0  0  0  0  0  0  0
  1  4  1  0  0  0  0
  2  7  1  0  0  0  0
  3  2  1  0  0  0  0
  3  1  1  0  0  0  0
  4  7  1  0  0  0  0
  4  5  1  0  0  0  0
  6  4  1  0  0  0  0
  7  9  1  0  0  0  0
  8  7  1  0  0  0  0
 10  1  1  0  0  0  0
 10 25  1  0  0  0  0
 11 10  2  0  0  0  0
 12 11  1  0  0  0  0
 12 14  2  0  0  0  0
 13 12  1  0  0  0  0
 14 16  1  0  0  0  0
 15 14  1  0  0  0  0
 16 25  2  0  0  0  0
 16 17  1  0  0  0  0
 17 19  2  0  0  0  0
 18 17  1  0  0  0  0
 19 21  1  0  0  0  0
 19 20  1  0  0  0  0
 21 22  1  0  0  0  0
 23 24  1  0  0  0  0
 23 21  2  0  0  0  0
 25 23  1  0  0  0  0
 26 27  1  0  0  0  0
 26 11  1  0  0  0  0
 28 26  1  0  0  0  0
 29 26  1  0  0  0  0
 30  2  1  0  0  0  0
 30 45  1  0  0  0  0
 31 30  2  0  0  0  0
 32 31  1  0  0  0  0
 32 34  2  0  0  0  0
 33 32  1  0  0  0  0
 34 36  1  0  0  0  0
 35 34  1  0  0  0  0
 36 45  2  0  0  0  0
 36 37  1  0  0  0  0
 37 39  2  0  0  0  0
 38 37  1  0  0  0  0
 39 41  1  0  0  0  0
 39 40  1  0  0  0  0
 41 42  1  0  0  0  0
 43 44  1  0  0  0  0
 43 41  2  0  0  0  0
 45 43  1  0  0  0  0
 46 47  1  0  0  0  0
 46 31  1  0  0  0  0
 48 46  1  0  0  0  0
 49 46  1  0  0  0  0
M  END
