8
q = 0.0, confidence = 0.928

 39 40  0  0  1  0  0  0  0  0999 V2000
   -0.6728   -1.9805   -0.3714 S   0  0  0  0  0  0  0  0  0  0  0  0
    1.1589    1.7658   -0.4554 O   0  0  0  0  0  0  0  0  0  0  0  0
   -1.0511   -1.9231   -1.8116 O   0  0  0  0  0  0  0  0  0  0  0  0
   -1.3056   -2.9655    0.5404 O   0  0  0  0  0  0  0  0  0  0  0  0
   -0.6905    3.2718   -1.0564 C   0  0  0  0  0  0  0  0  0  0  0  0
   -0.2209    2.0805   -0.2236 C   0  0  1  0  0  0  0  0  0  0  0  0
   -0.9490    0.7963   -0.5642 C   0  0  0  0  0  3  0  0  0  0  0  0
   -0.8953   -0.3342    0.3087 C   0  0  0  0  0  3  0  0  0  0  0  0
    1.1155   -2.2089   -0.2740 C   0  0  0  0  0  0  0  0  0  0  0  0
    1.9670   -1.3666   -1.0074 C   0  0  0  0  0  0  0  0  0  0  0  0
    3.3499   -1.5710   -0.9180 C   0  0  0  0  0  0  0  0  0  0  0  0
    3.8614   -2.6104   -0.1226 C   0  0  0  0  0  0  0  0  0  0  0  0
    2.9940   -3.4472    0.5979 C   0  0  0  0  0  0  0  0  0  0  0  0
    1.6065   -3.2462    0.5311 C   0  0  0  0  0  0  0  0  0  0  0  0
    2.0993    2.7104    0.0423 C   0  0  0  0  0  0  0  0  0  0  0  0
    3.4326    2.0218    0.2007 C   0  0  0  0  0  0  0  0  0  0  0  0
    4.4551    2.1890   -0.7510 C   0  0  0  0  0  0  0  0  0  0  0  0
    5.6792    1.5143   -0.6124 C   0  0  0  0  0  0  0  0  0  0  0  0
    5.8892    0.6603    0.4815 C   0  0  0  0  0  0  0  0  0  0  0  0
    4.8700    0.4790    1.4316 C   0  0  0  0  0  0  0  0  0  0  0  0
    3.6505    1.1530    1.2882 C   0  0  0  0  0  0  0  0  0  0  0  0
   -0.1195    4.1884   -0.8102 H   0  0  0  0  0  0  0  0  0  0  0  0
   -0.5533    3.0555   -2.1353 H   0  0  0  0  0  0  0  0  0  0  0  0
   -1.7618    3.4836   -0.8757 H   0  0  0  0  0  0  0  0  0  0  0  0
   -0.3473    2.3164    0.8629 H   0  0  0  0  0  0  0  0  0  0  0  0
   -0.9340    0.5672   -1.6446 H   0  0  0  0  0  0  0  0  0  0  0  0
   -0.3966   -0.2709    1.2913 H   0  0  0  0  0  0  0  0  0  0  0  0
    1.5629   -0.5388   -1.6053 H   0  0  0  0  0  0  0  0  0  0  0  0
    4.0345   -0.8998   -1.4573 H   0  0  0  0  0  0  0  0  0  0  0  0
    4.9497   -2.7601   -0.0568 H   0  0  0  0  0  0  0  0  0  0  0  0
    3.3979   -4.2607    1.2195 H   0  0  0  0  0  0  0  0  0  0  0  0
    0.8949   -3.8755    1.0851 H   0  0  0  0  0  0  0  0  0  0  0  0
    1.7539    3.0998    1.0315 H   0  0  0  0  0  0  0  0  0  0  0  0
    2.1990    3.5866   -0.6410 H   0  0  0  0  0  0  0  0  0  0  0  0
    4.2893    2.8595   -1.6093 H   0  0  0  0  0  0  0  0  0  0  0  0
    6.4730    1.6583   -1.3611 H   0  0  0  0  0  0  0  0  0  0  0  0
    6.8493    0.1339    0.5945 H   0  0  0  0  0  0  0  0  0  0  0  0
    5.0260   -0.1968    2.2860 H   0  0  0  0  0  0  0  0  0  0  0  0
    2.8481    1.0019    2.0272 H   0  0  0  0  0  0  0  0  0  0  0  0
  1  9  1  0  0  0  0
  1  8  1  0  0  0  0
  1  4  2  0  0  0  0
  2  6  1  0  0  0  0
  2 15  1  0  0  0  0
  3  1  2  0  0  0  0
  5 24  1  0  0  0  0
  5 22  1  0  0  0  0
  5  6  1  0  0  0  0
  6 25  1  1  0  0  0
  7  6  1  0  0  0  0
  7  8  1  0  0  0  0
  8 27  1  0  0  0  0
  9 14  1  0  0  0  0
 10 11  1  0  0  0  0
 10  9  2  0  0  0  0
 11 12  2  0  0  0  0
 12 30  1  0  0  0  0
 12 13  1  0  0  0  0
 13 31  1  0  0  0  0
 14 13  2  0  0  0  0
 14 32  1  0  0  0  0
 15 16  1  0  0  0  0
 15 33  1  0  0  0  0
 16 21  1  0  0  0  0
 17 18  1  0  0  0  0
 17 16  2  0  0  0  0
 18 19  2  0  0  0  0
 19 37  1  0  0  0  0
 19 20  1  0  0  0  0
 20 38  1  0  0  0  0
 21 20  2  0  0  0  0
 21 39  1  0  0  0  0
 23  5  1  0  0  0  0
 26  7  1  0  0  0  0
 28 10  1  0  0  0  0
 29 11  1  0  0  0  0
 34 15  1  0  0  0  0
 35 17  1  0  0  0  0
 36 18  1  0  0  0  0
M  END
