24
q = 0.0, confidence = 0.998

 35 38  0  0  1  0  0  0  0  0999 V2000
   -0.3468    2.7350   -0.2824 O   0  0  0  0  0  0  0  0  0  0  0  0
    1.0127    3.0487   -0.1818 C   0  0  0  0  0  0  0  0  0  0  0  0
    1.3482    4.1821   -0.4344 O   0  0  0  0  0  0  0  0  0  0  0  0
    1.9144    1.9135    0.1036 C   0  0  0  0  0  0  0  0  0  0  0  0
    3.3099    2.1615   -0.0203 C   0  0  0  0  0  0  0  0  0  0  0  0
    3.6308    3.2009   -0.1774 H   0  0  0  0  0  0  0  0  0  0  0  0
    4.2071    1.1162    0.0464 C   0  0  0  0  0  0  0  0  0  0  0  0
    5.2906    1.3002   -0.0115 H   0  0  0  0  0  0  0  0  0  0  0  0
    3.7370   -0.2304    0.0963 C   0  0  0  0  0  0  0  0  0  0  0  0
    4.6402   -1.3263   -0.0201 C   0  0  0  0  0  0  0  0  0  0  0  0
    5.7193   -1.1128   -0.0609 H   0  0  0  0  0  0  0  0  0  0  0  0
    4.1745   -2.6281   -0.1280 C   0  0  0  0  0  0  0  0  0  0  0  0
    4.8839   -3.4624   -0.2354 H   0  0  0  0  0  0  0  0  0  0  0  0
    2.7783   -2.8767   -0.1517 C   0  0  0  0  0  0  0  0  0  0  0  0
    2.4017   -3.8970   -0.3175 H   0  0  0  0  0  0  0  0  0  0  0  0
    1.8764   -1.8356    0.0109 C   0  0  0  0  0  0  0  0  0  0  0  0
    0.8012   -2.0303   -0.0565 H   0  0  0  0  0  0  0  0  0  0  0  0
    2.3185   -0.4932    0.1913 C   0  0  0  0  0  0  0  0  0  0  0  0
    1.4131    0.6199    0.3565 C   0  0  0  0  0  0  0  0  0  0  0  0
   -0.0095    0.5294    0.7418 C   0  0  1  0  0  3  0  0  0  0  0  0
   -0.6182   -0.4486    1.6149 C   0  0  0  0  0  0  0  0  0  0  0  0
   -2.0332   -0.4018    1.8352 C   0  0  0  0  0  0  0  0  0  0  0  0
   -2.4809   -1.1948    2.4513 H   0  0  0  0  0  0  0  0  0  0  0  0
   -2.8794    0.5759    1.2533 C   0  0  2  0  0  3  0  0  0  0  0  0
   -2.2533    1.6206    0.5052 C   0  0  0  0  0  0  0  0  0  0  0  0
   -2.8322    2.4463    0.0711 H   0  0  0  0  0  0  0  0  0  0  0  0
   -0.8566    1.6262    0.3243 C   0  0  0  0  0  0  0  0  0  0  0  0
    0.1543   -1.4702    2.4152 C   0  0  0  0  0  0  0  0  0  0  0  0
    1.2353   -1.2546    2.4436 H   0  0  0  0  0  0  0  0  0  0  0  0
    0.0233   -2.4985    2.0245 H   0  0  0  0  0  0  0  0  0  0  0  0
   -0.2275   -1.4627    3.4556 H   0  0  0  0  0  0  0  0  0  0  0  0
   -4.3619    0.5866    1.5043 C   0  0  0  0  0  0  0  0  0  0  0  0
   -4.7323   -0.4280    1.7442 H   0  0  0  0  0  0  0  0  0  0  0  0
   -4.9164    0.9547    0.6202 H   0  0  0  0  0  0  0  0  0  0  0  0
   -4.6029    1.2538    2.3586 H   0  0  0  0  0  0  0  0  0  0  0  0
  1  2  1  0  0  0  0
  1 27  1  0  0  0  0
  2  4  1  0  0  0  0
  3  2  2  0  0  0  0
  4 19  1  0  0  0  0
  5  7  1  0  0  0  0
  5  4  2  0  0  0  0
  6  5  1  0  0  0  0
  7  9  2  0  0  0  0
  8  7  1  0  0  0  0
  9 18  1  0  0  0  0
 10  9  1  0  0  0  0
 11 10  1  0  0  0  0
 12 10  2  0  0  0  0
 13 12  1  0  0  0  0
 14 12  1  0  0  0  0
 14 16  2  0  0  0  0
 15 14  1  0  0  0  0
 16 18  1  0  0  0  0
 17 16  1  0  0  0  0
 18 19  2  0  0  0  0
 19 20  1  0  0  0  0
 20 27  1  1  0  0  0
 20 21  1  0  0  0  0
 21 22  2  0  0  0  0
 21 28  1  0  0  0  0
 22 23  1  0  0  0  0
 24 32  1  1  0  0  0
 24 22  1  0  0  0  0
 25 24  1  0  0  0  0
 26 25  1  0  0  0  0
 27 25  2  0  0  0  0
 28 29  1  0  0  0  0
 28 31  1  0  0  0  0
 30 28  1  0  0  0  0
 32 33  1  0  0  0  0
 32 35  1  0  0  0  0
 34 32  1  0  0  0  0
M  END
