4
q = 0.0, confidence = 0.732

 37 39  0  0  1  0  0  0  0  0999 V2000
   -1.4191   -0.1935   -0.2028 P   0  0  0  0  0  0  0  0  0  0  0  0
    0.5265   -1.6364    2.6193 O   0  0  0  0  0  0  0  0  0  0  0  0
   -0.3438    0.1947    1.1741 C   0  0  2  0  0  3  0  0  0  0  0  0
    0.2985   -1.0731    1.5466 C   0  0  0  0  0  3  0  0  0  0  0  0
   -0.2250    1.4733    1.9032 C   0  0  0  0  0  0  0  0  0  0  0  0
   -0.1908    2.7308    1.2547 C   0  0  0  0  0  0  0  0  0  0  0  0
   -0.0437    3.9098    1.9976 C   0  0  0  0  0  0  0  0  0  0  0  0
    0.0753    3.8618    3.3967 C   0  0  0  0  0  0  0  0  0  0  0  0
    0.0454    2.6188    4.0507 C   0  0  0  0  0  0  0  0  0  0  0  0
   -0.1054    1.4351    3.3145 C   0  0  0  0  0  0  0  0  0  0  0  0
   -2.1855    1.2846   -0.9429 C   0  0  0  0  0  0  0  0  0  0  0  0
   -1.7772    1.7267   -2.2159 C   0  0  0  0  0  0  0  0  0  0  0  0
   -2.2991    2.9183   -2.7414 C   0  0  0  0  0  0  0  0  0  0  0  0
   -3.2392    3.6570   -2.0063 C   0  0  0  0  0  0  0  0  0  0  0  0
   -3.6644    3.2050   -0.7448 C   0  0  0  0  0  0  0  0  0  0  0  0
   -3.1383    2.0228   -0.2083 C   0  0  0  0  0  0  0  0  0  0  0  0
   -2.8081   -1.2805    0.2788 C   0  0  0  0  0  0  0  0  0  0  0  0
   -2.8160   -1.9624    1.5135 C   0  0  0  0  0  0  0  0  0  0  0  0
   -3.8683   -2.8399    1.8158 C   0  0  0  0  0  0  0  0  0  0  0  0
   -4.9132   -3.0418    0.8990 C   0  0  0  0  0  0  0  0  0  0  0  0
   -4.9068   -2.3613   -0.3291 C   0  0  0  0  0  0  0  0  0  0  0  0
   -3.8580   -1.4838   -0.6417 C   0  0  0  0  0  0  0  0  0  0  0  0
   -0.2469    2.7877    0.1594 H   0  0  0  0  0  0  0  0  0  0  0  0
   -0.0061    4.8756    1.4704 H   0  0  0  0  0  0  0  0  0  0  0  0
    0.1952    4.7905    3.9753 H   0  0  0  0  0  0  0  0  0  0  0  0
    0.1401    2.5701    5.1468 H   0  0  0  0  0  0  0  0  0  0  0  0
   -0.1120    0.4547    3.8141 H   0  0  0  0  0  0  0  0  0  0  0  0
   -1.0288    1.1485   -2.7758 H   0  0  0  0  0  0  0  0  0  0  0  0
   -1.9561    3.2748   -3.7238 H   0  0  0  0  0  0  0  0  0  0  0  0
   -3.6428    4.5951   -2.4169 H   0  0  0  0  0  0  0  0  0  0  0  0
   -4.4019    3.7853   -0.1698 H   0  0  0  0  0  0  0  0  0  0  0  0
   -3.4530    1.6765    0.7880 H   0  0  0  0  0  0  0  0  0  0  0  0
   -1.9996   -1.8077    2.2342 H   0  0  0  0  0  0  0  0  0  0  0  0
   -3.8729   -3.3658    2.7827 H   0  0  0  0  0  0  0  0  0  0  0  0
   -5.7372   -3.7290    1.1441 H   0  0  0  0  0  0  0  0  0  0  0  0
   -5.7251   -2.5121   -1.0495 H   0  0  0  0  0  0  0  0  0  0  0  0
   -3.8598   -0.9433   -1.6014 H   0  0  0  0  0  0  0  0  0  0  0  0
  1 17  1  0  0  0  0
  1  3  1  0  0  0  0
  3  4  1  1  0  0  0
  3  5  1  0  0  0  0
  4  2  2  0  0  0  0
  5 10  1  0  0  0  0
  6  5  2  0  0  0  0
  6  7  1  0  0  0  0
  7  8  2  0  0  0  0
  8 25  1  0  0  0  0
  8  9  1  0  0  0  0
  9 26  1  0  0  0  0
 10 27  1  0  0  0  0
 10  9  2  0  0  0  0
 11 16  1  0  0  0  0
 11  1  1  0  0  0  0
 12 11  2  0  0  0  0
 13 12  1  0  0  0  0
 13 14  2  0  0  0  0
 14 15  1  0  0  0  0
 15 16  2  0  0  0  0
 15 31  1  0  0  0  0
 16 32  1  0  0  0  0
 17 18  1  0  0  0  0
 18 19  2  0  0  0  0
 18 33  1  0  0  0  0
 19 34  1  0  0  0  0
 20 35  1  0  0  0  0
 20 19  1  0  0  0  0
 21 20  2  0  0  0  0
 22 21  1  0  0  0  0
 22 17  2  0  0  0  0
 23  6  1  0  0  0  0
 24  7  1  0  0  0  0
 28 12  1  0  0  0  0
 29 13  1  0  0  0  0
 30 14  1  0  0  0  0
 36 21  1  0  0  0  0
 37 22  1  0  0  0  0
M  END
