1
q = 0.0, confidence = 0.998

 28 29  0  0  1  0  0  0  0  0999 V2000
    1.7896   -0.9062   -1.4660 C   0  0  0  0  0  3  0  0  0  0  0  0
    1.6586   -1.2778   -2.4973 H   0  0  0  0  0  0  0  0  0  0  0  0
    2.2188    0.1115   -1.4220 H   0  0  0  0  0  0  0  0  0  0  0  0
    2.3505   -1.8753   -0.5810 C   0  0  1  0  0  3  0  0  0  0  0  0
    2.4293   -3.3591   -0.8436 C   0  0  0  0  0  0  0  0  0  0  0  0
    1.5116   -3.7397   -1.3307 H   0  0  0  0  0  0  0  0  0  0  0  0
    3.2657   -3.5306   -1.5579 H   0  0  0  0  0  0  0  0  0  0  0  0
    2.7214   -3.9622    0.5417 C   0  0  0  0  0  0  0  0  0  0  0  0
    3.3228   -4.8886    0.5012 H   0  0  0  0  0  0  0  0  0  0  0  0
    1.7682   -4.1988    1.0568 H   0  0  0  0  0  0  0  0  0  0  0  0
    3.4377   -2.8203    1.2768 C   0  0  0  0  0  0  0  0  0  0  0  0
    3.2170   -2.7752    2.3619 H   0  0  0  0  0  0  0  0  0  0  0  0
    4.5436   -2.8535    1.1593 H   0  0  0  0  0  0  0  0  0  0  0  0
    2.9110   -1.6181    0.6071 N   0  0  0  0  0  0  0  0  0  0  0  0
    3.0210   -0.2952    1.1969 C   0  0  0  0  0  0  0  0  0  0  0  0
    2.9357   -0.4083    2.2969 H   0  0  0  0  0  0  0  0  0  0  0  0
    2.1294    0.2870    0.8663 H   0  0  0  0  0  0  0  0  0  0  0  0
    4.2863    0.4705    0.8529 C   0  0  0  0  0  0  0  0  0  0  0  0
    5.0186    0.2175   -0.3212 C   0  0  0  0  0  0  0  0  0  0  0  0
    4.7167   -0.5968   -0.9971 H   0  0  0  0  0  0  0  0  0  0  0  0
    6.1431    0.9962   -0.6393 C   0  0  0  0  0  0  0  0  0  0  0  0
    6.7101    0.7842   -1.5581 H   0  0  0  0  0  0  0  0  0  0  0  0
    6.5438    2.0385    0.2097 C   0  0  0  0  0  0  0  0  0  0  0  0
    7.4246    2.6481   -0.0404 H   0  0  0  0  0  0  0  0  0  0  0  0
    5.8216    2.2921    1.3871 C   0  0  0  0  0  0  0  0  0  0  0  0
    6.1372    3.0987    2.0656 H   0  0  0  0  0  0  0  0  0  0  0  0
    4.7031    1.5099    1.7080 C   0  0  0  0  0  0  0  0  0  0  0  0
    4.1471    1.7071    2.6389 H   0  0  0  0  0  0  0  0  0  0  0  0
  1  3  1  0  0  0  0
  2  1  1  0  0  0  0
  4  1  1  6  0  0  0
  4 14  1  0  0  0  0
  5  4  1  0  0  0  0
  5  8  1  0  0  0  0
  6  5  1  0  0  0  0
  7  5  1  0  0  0  0
  8 10  1  0  0  0  0
  8 11  1  0  0  0  0
  9  8  1  0  0  0  0
 11 12  1  0  0  0  0
 13 11  1  0  0  0  0
 14 15  1  0  0  0  0
 14 11  1  0  0  0  0
 15 16  1  0  0  0  0
 17 15  1  0  0  0  0
 18 15  1  0  0  0  0
 18 27  1  0  0  0  0
 19 18  2  0  0  0  0
 20 19  1  0  0  0  0
 21 19  1  0  0  0  0
 21 23  2  0  0  0  0
 22 21  1  0  0  0  0
 23 25  1  0  0  0  0
 24 23  1  0  0  0  0
 25 27  2  0  0  0  0
 25 26  1  0  0  0  0
 27 28  1  0  0  0  0
M  END
