5
q = nan, confidence = 0.0

 55 54  0  0  0  0  0  0  0  0999 V2000
    1.6586   -0.0277    0.3687 P   0  0  0  0  0  4  0  0  0  0  0  0
    2.2021    1.3012   -0.5116 N   0  0  0  0  0  0  0  0  0  0  0  0
    2.7663   -1.3089    0.2835 N   0  0  0  0  0  0  0  0  0  0  0  0
   -0.7073    1.3041    1.0789 O   0  0  0  0  0  0  0  0  0  0  0  0
   -1.0856    0.2041    0.3610 C   0  0  0  0  0  3  0  0  0  0  0  0
    0.0402   -0.4924   -0.0773 C   0  0  0  0  0  0  0  0  0  0  0  0
    3.2865    2.1868   -0.0202 C   0  0  0  0  0  0  0  0  0  0  0  0
    4.6709    1.5361   -0.1148 C   0  0  0  0  0  0  0  0  0  0  0  0
    3.0118    2.7498    1.3806 C   0  0  0  0  0  0  0  0  0  0  0  0
    1.4797    1.7077   -1.7468 C   0  0  0  0  0  0  0  0  0  0  0  0
    2.4143    1.7568   -2.9600 C   0  0  0  0  0  0  0  0  0  0  0  0
    0.6975    3.0121   -1.5560 C   0  0  0  0  0  0  0  0  0  0  0  0
    3.1907   -1.7806   -1.0539 C   0  0  0  0  0  0  0  0  0  0  0  0
    2.3430   -2.9424   -1.5946 C   0  0  0  0  0  0  0  0  0  0  0  0
    4.6874   -2.1166   -1.0792 C   0  0  0  0  0  0  0  0  0  0  0  0
    2.8990   -2.2317    1.4424 C   0  0  0  0  0  0  0  0  0  0  0  0
    3.7855   -1.6178    2.5343 C   0  0  0  0  0  0  0  0  0  0  0  0
    1.5597   -2.7396    1.9966 C   0  0  0  0  0  0  0  0  0  0  0  0
   -1.6429    2.1035    1.8136 C   0  0  0  0  0  0  0  0  0  0  0  0
   -0.8986    3.3019    2.3715 C   0  0  0  0  0  0  0  0  0  0  0  0
    1.7492    0.3451    1.7385 H   0  0  0  0  0  0  0  0  0  0  0  0
   -0.0560   -1.4272   -0.6401 H   0  0  0  0  0  0  0  0  0  0  0  0
    3.2753    3.0500   -0.7172 H   0  0  0  0  0  0  0  0  0  0  0  0
    5.4612    2.2599    0.1695 H   0  0  0  0  0  0  0  0  0  0  0  0
    4.8752    1.1865   -1.1455 H   0  0  0  0  0  0  0  0  0  0  0  0
    4.7427    0.6630    0.5635 H   0  0  0  0  0  0  0  0  0  0  0  0
    3.1315    1.9804    2.1709 H   0  0  0  0  0  0  0  0  0  0  0  0
    1.9860    3.1595    1.4487 H   0  0  0  0  0  0  0  0  0  0  0  0
    3.7315    3.5601    1.6121 H   0  0  0  0  0  0  0  0  0  0  0  0
    0.7329    0.9049   -1.9186 H   0  0  0  0  0  0  0  0  0  0  0  0
    1.8347    1.9866   -3.8759 H   0  0  0  0  0  0  0  0  0  0  0  0
    2.9281    0.7869   -3.1158 H   0  0  0  0  0  0  0  0  0  0  0  0
    3.1907    2.5435   -2.8572 H   0  0  0  0  0  0  0  0  0  0  0  0
    0.0885    3.2278   -2.4562 H   0  0  0  0  0  0  0  0  0  0  0  0
    1.3683    3.8815   -1.3916 H   0  0  0  0  0  0  0  0  0  0  0  0
    0.0106    2.9215   -0.6947 H   0  0  0  0  0  0  0  0  0  0  0  0
    3.0433   -0.9057   -1.7238 H   0  0  0  0  0  0  0  0  0  0  0  0
    2.6978   -3.2436   -2.6006 H   0  0  0  0  0  0  0  0  0  0  0  0
    1.2750   -2.6661   -1.6861 H   0  0  0  0  0  0  0  0  0  0  0  0
    2.4143   -3.8340   -0.9381 H   0  0  0  0  0  0  0  0  0  0  0  0
    5.0067   -2.3520   -2.1139 H   0  0  0  0  0  0  0  0  0  0  0  0
    4.9206   -3.0057   -0.4580 H   0  0  0  0  0  0  0  0  0  0  0  0
    5.2952   -1.2686   -0.7112 H   0  0  0  0  0  0  0  0  0  0  0  0
    3.4387   -3.1140    1.0407 H   0  0  0  0  0  0  0  0  0  0  0  0
    3.9433   -2.3367    3.3633 H   0  0  0  0  0  0  0  0  0  0  0  0
    3.3213   -0.7098    2.9723 H   0  0  0  0  0  0  0  0  0  0  0  0
    4.7750   -1.3336    2.1260 H   0  0  0  0  0  0  0  0  0  0  0  0
    1.7373   -3.5064    2.7775 H   0  0  0  0  0  0  0  0  0  0  0  0
    0.9304   -3.1899    1.2057 H   0  0  0  0  0  0  0  0  0  0  0  0
    0.9641   -1.9266    2.4596 H   0  0  0  0  0  0  0  0  0  0  0  0
   -2.0827    1.4928    2.6289 H   0  0  0  0  0  0  0  0  0  0  0  0
   -2.4697    2.4184    1.1461 H   0  0  0  0  0  0  0  0  0  0  0  0
   -1.5898    3.9288    2.9684 H   0  0  0  0  0  0  0  0  0  0  0  0
   -0.4817    3.9302    1.5589 H   0  0  0  0  0  0  0  0  0  0  0  0
   -0.0653    2.9856    3.0307 H   0  0  0  0  0  0  0  0  0  0  0  0
  1 21  1  0  0  0  0
  2  7  1  0  0  0  0
  2  1  1  0  0  0  0
  3  1  1  0  0  0  0
  3 16  1  0  0  0  0
  4 19  1  0  0  0  0
  5  4  1  0  0  0  0
  6  5  2  0  0  0  0
  6  1  1  0  0  0  0
  7  9  1  0  0  0  0
  8  7  1  0  0  0  0
  8 24  1  0  0  0  0
  8 26  1  0  0  0  0
  9 28  1  0  0  0  0
  9 29  1  0  0  0  0
  9 27  1  0  0  0  0
 10 12  1  0  0  0  0
 10  2  1  0  0  0  0
 11 33  1  0  0  0  0
 11 10  1  0  0  0  0
 12 35  1  0  0  0  0
 12 36  1  0  0  0  0
 13  3  1  0  0  0  0
 14 13  1  0  0  0  0
 14 40  1  0  0  0  0
 15 13  1  0  0  0  0
 15 43  1  0  0  0  0
 15 42  1  0  0  0  0
 16 18  1  0  0  0  0
 16 17  1  0  0  0  0
 17 46  1  0  0  0  0
 17 45  1  0  0  0  0
 18 50  1  0  0  0  0
 18 48  1  0  0  0  0
 19 20  1  0  0  0  0
 19 51  1  0  0  0  0
 20 53  1  0  0  0  0
 20 55  1  0  0  0  0
 22  6  1  0  0  0  0
 23  7  1  0  0  0  0
 25  8  1  0  0  0  0
 30 10  1  0  0  0  0
 31 11  1  0  0  0  0
 32 11  1  0  0  0  0
 34 12  1  0  0  0  0
 37 13  1  0  0  0  0
 38 14  1  0  0  0  0
 39 14  1  0  0  0  0
 41 15  1  0  0  0  0
 44 16  1  0  0  0  0
 47 17  1  0  0  0  0
 49 18  1  0  0  0  0
 52 19  1  0  0  0  0
 54 20  1  0  0  0  0
M  END
