1
q = -1.0, confidence = 0.03

 21 21  0  0  0  0  0  0  0  0999 V2000
    1.6142   -0.9017   -0.7747 C   0  0  0  0  0  3  0  0  0  0  0  0
    1.8669   -0.7354    0.2966 H   0  0  0  0  0  0  0  0  0  0  0  0
    1.8619   -2.3830   -1.1536 C   0  0  0  0  0  0  0  0  0  0  0  0
    0.8931   -2.9416   -1.2409 H   0  0  0  0  0  0  0  0  0  0  0  0
    2.2913   -2.4275   -2.1767 H   0  0  0  0  0  0  0  0  0  0  0  0
    2.7512   -3.1800   -0.1828 C   0  0  0  0  0  0  0  0  0  0  0  0
    2.9052   -4.2018   -0.5954 H   0  0  0  0  0  0  0  0  0  0  0  0
    2.2215   -3.3112    0.7858 H   0  0  0  0  0  0  0  0  0  0  0  0
    4.1211   -2.5240    0.1035 C   0  0  0  0  0  0  0  0  0  0  0  0
    3.9520   -1.6087    0.7094 H   0  0  0  0  0  0  0  0  0  0  0  0
    4.7201   -3.2143    0.7344 H   0  0  0  0  0  0  0  0  0  0  0  0
    4.8672   -2.1687   -1.1521 C   0  0  0  0  0  0  0  0  0  0  0  0
    5.4807   -2.9608   -1.6176 H   0  0  0  0  0  0  0  0  0  0  0  0
    4.7572   -0.9803   -1.7839 C   0  0  0  0  0  0  0  0  0  0  0  0
    5.2941   -0.8511   -2.7406 H   0  0  0  0  0  0  0  0  0  0  0  0
    3.9329    0.1903   -1.3069 C   0  0  0  0  0  0  0  0  0  0  0  0
    4.3236    1.1204   -1.7689 H   0  0  0  0  0  0  0  0  0  0  0  0
    4.0520    0.3263   -0.2100 H   0  0  0  0  0  0  0  0  0  0  0  0
    2.4154    0.1073   -1.6112 C   0  0  0  0  0  0  0  0  0  0  0  0
    1.9970    1.1201   -1.4484 H   0  0  0  0  0  0  0  0  0  0  0  0
    2.2723   -0.1121   -2.6926 H   0  0  0  0  0  0  0  0  0  0  0  0
  1  2  1  0  0  0  0
  3  1  1  0  0  0  0
  3  6  1  0  0  0  0
  4  3  1  0  0  0  0
  5  3  1  0  0  0  0
  6  9  1  0  0  0  0
  6  8  1  0  0  0  0
  7  6  1  0  0  0  0
  9 10  1  0  0  0  0
  9 11  1  0  0  0  0
 12  9  1  0  0  0  0
 13 12  1  0  0  0  0
 14 16  1  0  0  0  0
 14 12  2  0  0  0  0
 15 14  1  0  0  0  0
 16 18  1  0  0  0  0
 17 16  1  0  0  0  0
 19 20  1  0  0  0  0
 19 16  1  0  0  0  0
 19  1  1  0  0  0  0
 21 19  1  0  0  0  0
M  END
