54
q = 0.0, confidence = 1.0

 58 61  0  0  0  0  0  0  0  0999 V2000
   -0.1127    0.3358    2.2883 N   0  0  0  0  0  0  0  0  0  0  0  0
    1.5222    1.1381    1.1181 N   0  0  0  0  0  0  0  0  0  0  0  0
    2.1183    2.6760   -0.6927 C   0  0  0  0  0  0  0  0  0  0  0  0
   -4.1732    1.6487   -0.2097 C   0  0  0  0  0  0  0  0  0  0  0  0
   -3.9529    0.6788    0.8056 C   0  0  0  0  0  0  0  0  0  0  0  0
    1.5448    1.7986    2.3459 C   0  0  0  0  0  0  0  0  0  0  0  0
    2.2999    2.5534    2.5800 H   0  0  0  0  0  0  0  0  0  0  0  0
    0.9038    3.5469   -0.3827 C   0  0  0  0  0  0  0  0  0  0  0  0
    0.2395    2.9673    0.2907 H   0  0  0  0  0  0  0  0  0  0  0  0
    2.4026    1.4909    0.0346 C   0  0  0  0  0  0  0  0  0  0  0  0
   -2.6129    2.4728    1.3610 C   0  0  0  0  0  0  0  0  0  0  0  0
   -1.9046    3.1288    1.8875 H   0  0  0  0  0  0  0  0  0  0  0  0
   -2.9874    1.2259    1.7747 C   0  0  0  0  0  0  0  0  0  0  0  0
    3.5125    0.6646   -0.2580 C   0  0  0  0  0  0  0  0  0  0  0  0
    4.9728   -0.3008    1.5432 C   0  0  0  0  0  0  0  0  0  0  0  0
    4.7240    0.5406    2.2219 H   0  0  0  0  0  0  0  0  0  0  0  0
    5.9137   -0.0395    1.0141 H   0  0  0  0  0  0  0  0  0  0  0  0
    5.1681   -1.1957    2.1684 H   0  0  0  0  0  0  0  0  0  0  0  0
    0.0863    3.8841   -1.6406 C   0  0  0  0  0  0  0  0  0  0  0  0
   -0.2486    2.9666   -2.1639 H   0  0  0  0  0  0  0  0  0  0  0  0
    0.6665    4.4957   -2.3613 H   0  0  0  0  0  0  0  0  0  0  0  0
   -0.8120    4.4740   -1.3660 H   0  0  0  0  0  0  0  0  0  0  0  0
   -1.2881   -0.4263    2.6949 C   0  0  0  0  0  0  0  0  0  0  0  0
   -1.0285   -1.0344    3.5850 H   0  0  0  0  0  0  0  0  0  0  0  0
   -1.4932   -1.1308    1.8637 H   0  0  0  0  0  0  0  0  0  0  0  0
   -3.3128    2.8536    0.0820 C   0  0  0  0  0  0  0  0  0  0  0  0
   -3.9130    3.7854    0.1906 H   0  0  0  0  0  0  0  0  0  0  0  0
   -2.5924    3.0552   -0.7430 H   0  0  0  0  0  0  0  0  0  0  0  0
    4.3550    1.0631   -1.3148 C   0  0  0  0  0  0  0  0  0  0  0  0
    5.2253    0.4393   -1.5672 H   0  0  0  0  0  0  0  0  0  0  0  0
    1.3205    4.8295    0.3598 C   0  0  0  0  0  0  0  0  0  0  0  0
    0.4312    5.4388    0.6226 H   0  0  0  0  0  0  0  0  0  0  0  0
    1.9857    5.4546   -0.2714 H   0  0  0  0  0  0  0  0  0  0  0  0
    1.8669    4.6019    1.2961 H   0  0  0  0  0  0  0  0  0  0  0  0
   -5.0703    1.3972   -1.2506 C   0  0  0  0  0  0  0  0  0  0  0  0
   -5.2446    2.1461   -2.0389 H   0  0  0  0  0  0  0  0  0  0  0  0
   -5.5269   -0.8016   -0.2794 C   0  0  0  0  0  0  0  0  0  0  0  0
   -6.0614   -1.7627   -0.3230 H   0  0  0  0  0  0  0  0  0  0  0  0
   -5.7498    0.1631   -1.2790 C   0  0  0  0  0  0  0  0  0  0  0  0
   -6.4586   -0.0506   -2.0933 H   0  0  0  0  0  0  0  0  0  0  0  0
    0.5083    1.2920    3.0804 C   0  0  0  0  0  0  0  0  0  0  0  0
    0.1751    1.5222    4.0962 H   0  0  0  0  0  0  0  0  0  0  0  0
    4.1076    2.2337   -2.0404 C   0  0  0  0  0  0  0  0  0  0  0  0
    4.7822    2.5261   -2.8596 H   0  0  0  0  0  0  0  0  0  0  0  0
    3.0000    3.0325   -1.7295 C   0  0  0  0  0  0  0  0  0  0  0  0
    2.8076    3.9458   -2.3122 H   0  0  0  0  0  0  0  0  0  0  0  0
   -2.4973    0.4824    2.9827 C   0  0  0  0  0  0  0  0  0  0  0  0
   -3.3059   -0.1606    3.3885 H   0  0  0  0  0  0  0  0  0  0  0  0
   -2.2398    1.2004    3.7891 H   0  0  0  0  0  0  0  0  0  0  0  0
   -4.6261   -0.5538    0.7706 C   0  0  0  0  0  0  0  0  0  0  0  0
   -4.4551   -1.3151    1.5472 H   0  0  0  0  0  0  0  0  0  0  0  0
    3.8288   -0.5814    0.5528 C   0  0  0  0  0  0  0  0  0  0  0  0
    2.9302   -0.8479    1.1430 H   0  0  0  0  0  0  0  0  0  0  0  0
    0.5086    0.2036    1.0726 C   0  0  0  0  0  2  0  0  0  0  0  0
    4.1273   -1.7955   -0.3372 C   0  0  0  0  0  0  0  0  0  0  0  0
    5.0757   -1.6833   -0.9035 H   0  0  0  0  0  0  0  0  0  0  0  0
    3.3006   -1.9604   -1.0564 H   0  0  0  0  0  0  0  0  0  0  0  0
    4.2056   -2.7073    0.2870 H   0  0  0  0  0  0  0  0  0  0  0  0
  1 23  1  0  0  0  0
  1 41  1  0  0  0  0
  2  6  1  0  0  0  0
  3  8  1  0  0  0  0
  3 10  1  0  0  0  0
  4 26  1  0  0  0  0
  4  5  1  0  0  0  0
  5 13  1  0  0  0  0
  6  7  1  0  0  0  0
  6 41  2  0  0  0  0
  8  9  1  0  0  0  0
  8 31  1  0  0  0  0
 10  2  1  0  0  0  0
 11 13  2  0  0  0  0
 11 12  1  0  0  0  0
 13 47  1  0  0  0  0
 14 10  2  0  0  0  0
 14 52  1  0  0  0  0
 15 18  1  0  0  0  0
 15 16  1  0  0  0  0
 17 15  1  0  0  0  0
 19 22  1  0  0  0  0
 19  8  1  0  0  0  0
 20 19  1  0  0  0  0
 21 19  1  0  0  0  0
 23 47  1  0  0  0  0
 23 24  1  0  0  0  0
 25 23  1  0  0  0  0
 26 27  1  0  0  0  0
 26 11  1  0  0  0  0
 28 26  1  0  0  0  0
 29 14  1  0  0  0  0
 30 29  1  0  0  0  0
 31 32  1  0  0  0  0
 31 34  1  0  0  0  0
 33 31  1  0  0  0  0
 35  4  2  0  0  0  0
 36 35  1  0  0  0  0
 37 50  1  0  0  0  0
 38 37  1  0  0  0  0
 39 35  1  0  0  0  0
 39 37  2  0  0  0  0
 40 39  1  0  0  0  0
 41 42  1  0  0  0  0
 43 45  1  0  0  0  0
 43 29  2  0  0  0  0
 44 43  1  0  0  0  0
 45  3  2  0  0  0  0
 46 45  1  0  0  0  0
 47 48  1  0  0  0  0
 47 49  1  0  0  0  0
 50  5  2  0  0  0  0
 50 51  1  0  0  0  0
 52 53  1  0  0  0  0
 52 15  1  0  0  0  0
 54  2  1  0  0  0  0
 54  1  1  0  0  0  0
 55 58  1  0  0  0  0
 55 52  1  0  0  0  0
 56 55  1  0  0  0  0
 57 55  1  0  0  0  0
M  END
