1
q = 0.0, confidence = 0.99

 50 52  0  0  1  0  0  0  0  0999 V2000
   -0.1013    0.0173    0.5969 C   0  0  0  0  0  2  0  0  0  0  0  0
    0.3380   -0.3369    1.7999 O   0  0  0  0  0  0  0  0  0  0  0  0
   -0.4527   -1.1127    2.7249 C   0  0  0  0  0  0  0  0  0  0  0  0
   -1.3242   -0.4975    3.0262 H   0  0  0  0  0  0  0  0  0  0  0  0
   -0.8302   -2.0136    2.2021 H   0  0  0  0  0  0  0  0  0  0  0  0
    0.4288   -1.4686    3.9037 C   0  0  0  0  0  0  0  0  0  0  0  0
   -0.1596   -2.0407    4.6478 H   0  0  0  0  0  0  0  0  0  0  0  0
    0.8192   -0.5566    4.3971 H   0  0  0  0  0  0  0  0  0  0  0  0
    1.2873   -2.0894    3.5814 H   0  0  0  0  0  0  0  0  0  0  0  0
    0.9874    0.6584   -0.1495 C   0  0  0  0  0  0  0  0  0  0  0  0
    2.2386    0.0605   -0.2415 C   0  0  0  0  0  0  0  0  0  0  0  0
    2.5343   -1.2392    0.4360 C   0  0  0  0  0  0  0  0  0  0  0  0
    3.4537   -1.3034    1.5037 C   0  0  0  0  0  0  0  0  0  0  0  0
    3.9590   -0.3835    1.8355 H   0  0  0  0  0  0  0  0  0  0  0  0
    3.7063   -2.5226    2.1476 C   0  0  0  0  0  0  0  0  0  0  0  0
    4.4212   -2.5609    2.9836 H   0  0  0  0  0  0  0  0  0  0  0  0
    3.0360   -3.6895    1.7405 C   0  0  0  0  0  0  0  0  0  0  0  0
    3.2274   -4.6435    2.2545 H   0  0  0  0  0  0  0  0  0  0  0  0
    2.1211   -3.6327    0.6774 C   0  0  0  0  0  0  0  0  0  0  0  0
    1.5833   -4.5370    0.3556 H   0  0  0  0  0  0  0  0  0  0  0  0
    1.8810   -2.4162    0.0214 C   0  0  0  0  0  0  0  0  0  0  0  0
    1.1661   -2.3657   -0.8125 H   0  0  0  0  0  0  0  0  0  0  0  0
    3.2459    0.5867   -1.0439 N   0  0  0  0  0  0  0  0  0  0  0  0
    4.3691   -0.2605   -1.5215 C   0  0  0  0  0  0  0  0  0  0  0  0
    4.4341   -1.0960   -0.8015 H   0  0  0  0  0  0  0  0  0  0  0  0
    4.0602   -0.8514   -2.9022 C   0  0  0  0  0  0  0  0  0  0  0  0
    4.8527   -1.5649   -3.2041 H   0  0  0  0  0  0  0  0  0  0  0  0
    3.9974   -0.0619   -3.6786 H   0  0  0  0  0  0  0  0  0  0  0  0
    3.0921   -1.3907   -2.8895 H   0  0  0  0  0  0  0  0  0  0  0  0
    5.7014    0.4907   -1.4693 C   0  0  0  0  0  0  0  0  0  0  0  0
    6.5296   -0.2056   -1.7071 H   0  0  0  0  0  0  0  0  0  0  0  0
    5.8797    0.9113   -0.4601 H   0  0  0  0  0  0  0  0  0  0  0  0
    5.7527    1.3201   -2.2037 H   0  0  0  0  0  0  0  0  0  0  0  0
    2.9748    1.7458   -1.7821 C   0  0  0  0  0  0  0  0  0  0  0  0
    3.7864    2.0746   -2.4440 H   0  0  0  0  0  0  0  0  0  0  0  0
    1.8005    2.4058   -1.7281 C   0  0  0  0  0  0  0  0  0  0  0  0
    1.6600    3.2984   -2.3543 H   0  0  0  0  0  0  0  0  0  0  0  0
    0.6859    2.0046   -0.7990 C   0  0  2  0  0  0  0  0  0  0  0  0
   -0.2606    1.9355   -1.3793 H   0  0  0  0  0  0  0  0  0  0  0  0
    0.4676    3.0956    0.2585 C   0  0  0  0  0  0  0  0  0  0  0  0
   -0.3734    4.1907   -0.0194 C   0  0  0  0  0  0  0  0  0  0  0  0
   -0.9148    4.2292   -0.9777 H   0  0  0  0  0  0  0  0  0  0  0  0
   -0.5446    5.2191    0.9186 C   0  0  0  0  0  0  0  0  0  0  0  0
   -1.2128    6.0631    0.6885 H   0  0  0  0  0  0  0  0  0  0  0  0
    0.1249    5.1666    2.1518 C   0  0  0  0  0  0  0  0  0  0  0  0
   -0.0125    5.9705    2.8909 H   0  0  0  0  0  0  0  0  0  0  0  0
    0.9646    4.0788    2.4383 C   0  0  0  0  0  0  0  0  0  0  0  0
    1.4897    4.0278    3.4048 H   0  0  0  0  0  0  0  0  0  0  0  0
    1.1365    3.0527    1.4971 C   0  0  0  0  0  0  0  0  0  0  0  0
    1.7855    2.1941    1.7279 H   0  0  0  0  0  0  0  0  0  0  0  0
  1  2  1  0  0  0  0
  2  3  1  0  0  0  0
  3  4  1  0  0  0  0
  3  6  1  0  0  0  0
  5  3  1  0  0  0  0
  6  8  1  0  0  0  0
  6  7  1  0  0  0  0
  9  6  1  0  0  0  0
 10  1  1  0  0  0  0
 11 10  2  0  0  0  0
 11 12  1  0  0  0  0
 12 13  1  0  0  0  0
 13 14  1  0  0  0  0
 13 15  2  0  0  0  0
 15 16  1  0  0  0  0
 17 15  1  0  0  0  0
 17 18  1  0  0  0  0
 19 17  2  0  0  0  0
 20 19  1  0  0  0  0
 21 12  2  0  0  0  0
 21 19  1  0  0  0  0
 22 21  1  0  0  0  0
 23 11  1  0  0  0  0
 24 30  1  0  0  0  0
 24 23  1  0  0  0  0
 24 25  1  0  0  0  0
 26 29  1  0  0  0  0
 26 24  1  0  0  0  0
 27 26  1  0  0  0  0
 28 26  1  0  0  0  0
 30 32  1  0  0  0  0
 31 30  1  0  0  0  0
 33 30  1  0  0  0  0
 34 36  2  0  0  0  0
 34 23  1  0  0  0  0
 35 34  1  0  0  0  0
 36 38  1  0  0  0  0
 37 36  1  0  0  0  0
 38 39  1  6  0  0  0
 38 10  1  0  0  0  0
 38 40  1  0  0  0  0
 40 49  1  0  0  0  0
 41 40  2  0  0  0  0
 41 43  1  0  0  0  0
 42 41  1  0  0  0  0
 43 45  2  0  0  0  0
 44 43  1  0  0  0  0
 45 47  1  0  0  0  0
 45 46  1  0  0  0  0
 47 48  1  0  0  0  0
 49 50  1  0  0  0  0
 49 47  2  0  0  0  0
M  END
