4
q = 0.0, confidence = 0.988

 55 57  0  0  0  0  0  0  0  0999 V2000
   -1.7482   -1.0919    0.7270 P   0  0  2  0  0  0  0  0  0  0  0  0
    1.1553    0.3022    0.5652 P   0  0  0  0  0  0  0  0  0  0  0  0
   -1.2088   -2.5013   -1.9831 C   0  0  0  0  0  3  0  0  0  0  0  0
   -0.7642   -3.3120   -0.9207 C   0  0  0  0  0  3  0  0  0  0  0  0
   -1.6460   -3.7692    0.2300 C   0  0  0  0  0  0  0  0  0  0  0  0
   -2.6766   -2.7110    0.6412 C   0  0  0  0  0  0  0  0  0  0  0  0
   -1.4485   -0.8137    2.5390 C   0  0  0  0  0  0  0  0  0  0  0  0
   -0.6890    0.4923    2.8105 C   0  0  0  0  0  0  0  0  0  0  0  0
    0.7851    0.4869    2.3820 C   0  0  0  0  0  0  0  0  0  0  0  0
   -2.2501   -2.1409   -2.0395 H   0  0  0  0  0  0  0  0  0  0  0  0
   -0.6408   -2.4866   -2.9256 H   0  0  0  0  0  0  0  0  0  0  0  0
    0.1468   -3.9141   -1.0813 H   0  0  0  0  0  0  0  0  0  0  0  0
   -2.9889    0.2226    0.3528 C   0  0  0  0  0  0  0  0  0  0  0  0
   -2.6775    1.1662   -0.6459 C   0  0  0  0  0  0  0  0  0  0  0  0
   -3.5738    2.2048   -0.9428 C   0  0  0  0  0  0  0  0  0  0  0  0
   -4.7927    2.2992   -0.2536 C   0  0  0  0  0  0  0  0  0  0  0  0
   -5.1159    1.3536    0.7351 C   0  0  0  0  0  0  0  0  0  0  0  0
   -4.2165    0.3217    1.0411 C   0  0  0  0  0  0  0  0  0  0  0  0
    2.9937    0.2252    0.6372 C   0  0  0  0  0  0  0  0  0  0  0  0
    3.6239   -1.0338    0.5991 C   0  0  0  0  0  0  0  0  0  0  0  0
    5.0167   -1.1223    0.7379 C   0  0  0  0  0  0  0  0  0  0  0  0
    5.7863    0.0410    0.9009 C   0  0  0  0  0  0  0  0  0  0  0  0
    5.1610    1.2979    0.9265 C   0  0  0  0  0  0  0  0  0  0  0  0
    3.7669    1.3919    0.7958 C   0  0  0  0  0  0  0  0  0  0  0  0
    0.8052    1.9491   -0.1819 C   0  0  0  0  0  0  0  0  0  0  0  0
    0.3323    3.0599    0.5436 C   0  0  0  0  0  0  0  0  0  0  0  0
    0.0008    4.2515   -0.1234 C   0  0  0  0  0  0  0  0  0  0  0  0
    0.1497    4.3455   -1.5148 C   0  0  0  0  0  0  0  0  0  0  0  0
    0.6372    3.2444   -2.2412 C   0  0  0  0  0  0  0  0  0  0  0  0
    0.9583    2.0492   -1.5844 C   0  0  0  0  0  0  0  0  0  0  0  0
   -2.1614   -4.7183   -0.0484 H   0  0  0  0  0  0  0  0  0  0  0  0
   -0.9963   -4.0170    1.0961 H   0  0  0  0  0  0  0  0  0  0  0  0
   -3.4667   -2.5900   -0.1275 H   0  0  0  0  0  0  0  0  0  0  0  0
   -3.1821   -2.9517    1.5981 H   0  0  0  0  0  0  0  0  0  0  0  0
   -2.4276   -0.8051    3.0625 H   0  0  0  0  0  0  0  0  0  0  0  0
   -0.8774   -1.6919    2.9090 H   0  0  0  0  0  0  0  0  0  0  0  0
   -1.2304    1.3338    2.3262 H   0  0  0  0  0  0  0  0  0  0  0  0
   -0.7234    0.7007    3.9014 H   0  0  0  0  0  0  0  0  0  0  0  0
    1.3162   -0.3696    2.8489 H   0  0  0  0  0  0  0  0  0  0  0  0
    1.3048    1.4005    2.7403 H   0  0  0  0  0  0  0  0  0  0  0  0
   -1.7207    1.0734   -1.1847 H   0  0  0  0  0  0  0  0  0  0  0  0
   -3.3130    2.9427   -1.7166 H   0  0  0  0  0  0  0  0  0  0  0  0
   -5.4979    3.1116   -0.4872 H   0  0  0  0  0  0  0  0  0  0  0  0
   -6.0746    1.4226    1.2717 H   0  0  0  0  0  0  0  0  0  0  0  0
   -4.4787   -0.4125    1.8202 H   0  0  0  0  0  0  0  0  0  0  0  0
    3.0143   -1.9339    0.4293 H   0  0  0  0  0  0  0  0  0  0  0  0
    5.5063   -2.1074    0.7007 H   0  0  0  0  0  0  0  0  0  0  0  0
    6.8804   -0.0312    0.9988 H   0  0  0  0  0  0  0  0  0  0  0  0
    5.7622    2.2126    1.0437 H   0  0  0  0  0  0  0  0  0  0  0  0
    3.2781    2.3789    0.8045 H   0  0  0  0  0  0  0  0  0  0  0  0
    0.2109    3.0068    1.6351 H   0  0  0  0  0  0  0  0  0  0  0  0
   -0.3773    5.1104    0.4519 H   0  0  0  0  0  0  0  0  0  0  0  0
   -0.1132    5.2790   -2.0355 H   0  0  0  0  0  0  0  0  0  0  0  0
    0.7606    3.3135   -3.3328 H   0  0  0  0  0  0  0  0  0  0  0  0
    1.3176    1.1711   -2.1490 H   0  0  0  0  0  0  0  0  0  0  0  0
  1  6  1  1  0  0  0
  1  7  1  0  0  0  0
  2 19  1  0  0  0  0
  2  9  1  0  0  0  0
  3  4  1  0  0  0  0
  4  5  1  0  0  0  0
  5  6  1  0  0  0  0
  5 32  1  0  0  0  0
  6 34  1  0  0  0  0
  7  8  1  0  0  0  0
  7 36  1  0  0  0  0
  7 35  1  0  0  0  0
  8 38  1  0  0  0  0
  9 40  1  0  0  0  0
  9  8  1  0  0  0  0
  9 39  1  0  0  0  0
 10  3  1  0  0  0  0
 11  3  1  0  0  0  0
 12  4  1  0  0  0  0
 13  1  1  0  0  0  0
 13 18  1  0  0  0  0
 14 13  2  0  0  0  0
 15 14  1  0  0  0  0
 15 16  2  0  0  0  0
 16 17  1  0  0  0  0
 17 18  2  0  0  0  0
 17 44  1  0  0  0  0
 18 45  1  0  0  0  0
 19 24  1  0  0  0  0
 20 19  2  0  0  0  0
 20 21  1  0  0  0  0
 21 22  2  0  0  0  0
 22 23  1  0  0  0  0
 22 48  1  0  0  0  0
 23 49  1  0  0  0  0
 24 50  1  0  0  0  0
 24 23  2  0  0  0  0
 25 26  1  0  0  0  0
 25  2  1  0  0  0  0
 26 51  1  0  0  0  0
 27 52  1  0  0  0  0
 27 26  2  0  0  0  0
 28 27  1  0  0  0  0
 29 30  1  0  0  0  0
 29 28  2  0  0  0  0
 30 25  2  0  0  0  0
 31  5  1  0  0  0  0
 33  6  1  0  0  0  0
 37  8  1  0  0  0  0
 41 14  1  0  0  0  0
 42 15  1  0  0  0  0
 43 16  1  0  0  0  0
 46 20  1  0  0  0  0
 47 21  1  0  0  0  0
 53 28  1  0  0  0  0
 54 29  1  0  0  0  0
 55 30  1  0  0  0  0
M  END
