17
q = 0.0, confidence = 1.0

 53 55  0  0  1  0  0  0  0  0999 V2000
    3.8729    0.9127    1.3240 O   0  0  0  0  0  0  0  0  0  0  0  0
   -0.0883    2.7008   -1.3780 O   0  0  0  0  0  0  0  0  0  0  0  0
   -3.5899   -2.4399   -0.5008 O   0  0  0  0  0  0  0  0  0  0  0  0
    1.4288   -2.6624   -0.4820 C   0  0  0  0  0  0  0  0  0  0  0  0
    2.8909   -3.0641   -0.2613 C   0  0  0  0  0  0  0  0  0  0  0  0
    3.8688   -2.0974   -0.9353 C   0  0  0  0  0  0  0  0  0  0  0  0
    3.6655   -0.6103   -0.5520 C   0  0  2  0  0  0  0  0  0  0  0  0
    2.1529   -0.2758   -0.7633 C   0  0  2  0  0  0  0  0  0  0  0  0
    1.7404    1.1953   -0.6321 C   0  0  0  0  0  0  0  0  0  0  0  0
    0.5168    1.4260   -1.5198 C   0  0  1  0  0  0  0  0  0  0  0  0
   -0.5537    0.3805   -1.2703 C   0  0  1  0  0  3  0  0  0  0  0  0
   -0.2820   -0.8215   -0.5213 C   0  0  0  0  0  0  0  0  0  0  0  0
    1.1322   -1.2037   -0.0296 C   0  0  1  0  0  0  0  0  0  0  0  0
   -1.3628   -1.7032   -0.2598 C   0  0  0  0  0  0  0  0  0  0  0  0
   -2.6733   -1.4888   -0.7952 C   0  0  0  0  0  0  0  0  0  0  0  0
   -2.9298   -0.3158   -1.5477 C   0  0  0  0  0  0  0  0  0  0  0  0
   -1.8643    0.6114   -1.7664 C   0  0  0  0  0  3  0  0  0  0  0  0
    4.5164    0.2551   -1.5031 C   0  0  0  0  0  0  0  0  0  0  0  0
    4.1953   -0.3860    0.8761 C   0  0  0  0  0  0  0  0  0  0  0  0
    1.1779   -1.1212    1.5144 C   0  0  0  0  0  0  0  0  0  0  0  0
   -4.9629   -2.1103   -0.6653 C   0  0  0  0  0  0  0  0  0  0  0  0
    0.6953    3.7738   -1.8488 C   0  0  0  0  0  0  0  0  0  0  0  0
    4.3289    1.1756    2.6288 C   0  0  0  0  0  0  0  0  0  0  0  0
    1.6082    3.9460   -1.2331 H   0  0  0  0  0  0  0  0  0  0  0  0
    0.0664    4.6833   -1.7966 H   0  0  0  0  0  0  0  0  0  0  0  0
    1.0180    3.6214   -2.9083 H   0  0  0  0  0  0  0  0  0  0  0  0
    0.7643   -3.3717    0.0529 H   0  0  0  0  0  0  0  0  0  0  0  0
    1.1806   -2.7531   -1.5625 H   0  0  0  0  0  0  0  0  0  0  0  0
    3.1038   -3.1264    0.8270 H   0  0  0  0  0  0  0  0  0  0  0  0
    3.0530   -4.0904   -0.6519 H   0  0  0  0  0  0  0  0  0  0  0  0
    4.9178   -2.3962   -0.7204 H   0  0  0  0  0  0  0  0  0  0  0  0
    3.7490   -2.1762   -2.0386 H   0  0  0  0  0  0  0  0  0  0  0  0
    2.0095   -0.5284   -1.8428 H   0  0  0  0  0  0  0  0  0  0  0  0
    2.5604    1.8628   -0.9515 H   0  0  0  0  0  0  0  0  0  0  0  0
    1.5065    1.4656    0.4141 H   0  0  0  0  0  0  0  0  0  0  0  0
    0.8486    1.3082   -2.5879 H   0  0  0  0  0  0  0  0  0  0  0  0
   -1.2230   -2.5981    0.3602 H   0  0  0  0  0  0  0  0  0  0  0  0
   -3.9338   -0.0874   -1.9243 H   0  0  0  0  0  0  0  0  0  0  0  0
   -2.0601    1.5573   -2.2882 H   0  0  0  0  0  0  0  0  0  0  0  0
    5.5540   -0.1350   -1.5463 H   0  0  0  0  0  0  0  0  0  0  0  0
    4.1074    0.2447   -2.5344 H   0  0  0  0  0  0  0  0  0  0  0  0
    4.5708    1.3043   -1.1555 H   0  0  0  0  0  0  0  0  0  0  0  0
    5.3075   -0.5276    0.8624 H   0  0  0  0  0  0  0  0  0  0  0  0
    3.7980   -1.1470    1.5855 H   0  0  0  0  0  0  0  0  0  0  0  0
    0.2150   -1.4540    1.9456 H   0  0  0  0  0  0  0  0  0  0  0  0
    1.3590   -0.0906    1.8668 H   0  0  0  0  0  0  0  0  0  0  0  0
    1.9705   -1.7669    1.9346 H   0  0  0  0  0  0  0  0  0  0  0  0
   -5.2121   -1.1784   -0.1123 H   0  0  0  0  0  0  0  0  0  0  0  0
   -5.5382   -2.9542   -0.2435 H   0  0  0  0  0  0  0  0  0  0  0  0
   -5.2342   -1.9888   -1.7370 H   0  0  0  0  0  0  0  0  0  0  0  0
    3.8879    0.4701    3.3747 H   0  0  0  0  0  0  0  0  0  0  0  0
    5.4416    1.1024    2.7063 H   0  0  0  0  0  0  0  0  0  0  0  0
    4.0192    2.2050    2.8933 H   0  0  0  0  0  0  0  0  0  0  0  0
  1 23  1  0  0  0  0
  4  5  1  0  0  0  0
  4 13  1  0  0  0  0
  4 27  1  0  0  0  0
  5 29  1  0  0  0  0
  6 31  1  0  0  0  0
  6  7  1  0  0  0  0
  6  5  1  0  0  0  0
  7 18  1  6  0  0  0
  7 19  1  0  0  0  0
  8 33  1  6  0  0  0
  8  9  1  0  0  0  0
  8  7  1  0  0  0  0
  8 13  1  0  0  0  0
  9 35  1  0  0  0  0
 10 36  1  6  0  0  0
 10  2  1  0  0  0  0
 10 11  1  0  0  0  0
 10  9  1  0  0  0  0
 11 17  1  1  0  0  0
 11 12  1  0  0  0  0
 12 14  2  0  0  0  0
 12 13  1  0  0  0  0
 13 20  1  1  0  0  0
 14 37  1  0  0  0  0
 15  3  1  0  0  0  0
 15 14  1  0  0  0  0
 16 15  2  0  0  0  0
 17 16  1  0  0  0  0
 18 42  1  0  0  0  0
 19  1  1  0  0  0  0
 19 44  1  0  0  0  0
 20 46  1  0  0  0  0
 20 47  1  0  0  0  0
 20 45  1  0  0  0  0
 21  3  1  0  0  0  0
 21 49  1  0  0  0  0
 21 48  1  0  0  0  0
 22 25  1  0  0  0  0
 22  2  1  0  0  0  0
 22 24  1  0  0  0  0
 23 52  1  0  0  0  0
 23 53  1  0  0  0  0
 23 51  1  0  0  0  0
 26 22  1  0  0  0  0
 28  4  1  0  0  0  0
 30  5  1  0  0  0  0
 32  6  1  0  0  0  0
 34  9  1  0  0  0  0
 38 16  1  0  0  0  0
 39 17  1  0  0  0  0
 40 18  1  0  0  0  0
 41 18  1  0  0  0  0
 43 19  1  0  0  0  0
 50 21  1  0  0  0  0
M  END
