2
q = 0.0, confidence = 0.882

 11 10  0  0  0  0  0  0  0  0999 V2000
    0.1325   -0.2125   -2.0492 O   0  0  0  0  0  0  0  0  0  0  0  0
   -0.2633    0.7483   -1.3086 C   0  0  0  0  0  3  0  0  0  0  0  0
   -0.7634    2.0010   -1.5696 C   0  0  0  0  0  3  0  0  0  0  0  0
   -1.1713    2.9071   -0.5130 C   0  0  0  0  0  0  0  0  0  0  0  0
   -1.1658    2.7157    0.7049 O   0  0  0  0  0  0  0  0  0  0  0  0
   -1.6106    4.1013   -1.0405 O   0  0  0  0  0  0  0  0  0  0  0  0
   -2.0331    5.0614   -0.0786 C   0  0  0  0  0  0  0  0  0  0  0  0
   -0.8611    2.3409   -2.6128 H   0  0  0  0  0  0  0  0  0  0  0  0
   -2.3795    5.9422   -0.6504 H   0  0  0  0  0  0  0  0  0  0  0  0
   -2.8559    4.6687    0.5550 H   0  0  0  0  0  0  0  0  0  0  0  0
   -1.2022    5.3515    0.5990 H   0  0  0  0  0  0  0  0  0  0  0  0
  1  2  2  0  0  0  0
  3  2  1  0  0  0  0
  3  4  1  0  0  0  0
  4  5  2  0  0  0  0
  6  4  1  0  0  0  0
  6  7  1  0  0  0  0
  7 10  1  0  0  0  0
  7 11  1  0  0  0  0
  8  3  1  0  0  0  0
  9  7  1  0  0  0  0
M  END
