3
q = 0.0, confidence = 0.934

 17 17  0  0  0  0  0  0  0  0999 V2000
   -7.5160   -0.0002   -0.3053 F   0  0  0  0  0  0  0  0  0  0  0  0
   -0.6690   -0.0004   -1.6289 C   0  0  0  0  0  3  0  0  0  0  0  0
   -0.9488   -0.0004   -0.2212 C   0  0  0  0  0  3  0  0  0  0  0  0
   -1.9580   -0.0001    0.6792 C   0  0  0  0  0  0  0  0  0  0  0  0
   -3.3982   -0.0002    0.3883 C   0  0  0  0  0  0  0  0  0  0  0  0
   -4.3271    0.0003    1.4587 C   0  0  0  0  0  0  0  0  0  0  0  0
   -5.7101    0.0003    1.2375 C   0  0  0  0  0  0  0  0  0  0  0  0
   -6.1850   -0.0002   -0.0788 C   0  0  0  0  0  0  0  0  0  0  0  0
   -5.3015   -0.0007   -1.1668 C   0  0  0  0  0  0  0  0  0  0  0  0
   -3.9229   -0.0007   -0.9299 C   0  0  0  0  0  0  0  0  0  0  0  0
   -0.8749    0.9122   -2.2212 H   0  0  0  0  0  0  0  0  0  0  0  0
   -0.8744   -0.9131   -2.2212 H   0  0  0  0  0  0  0  0  0  0  0  0
   -1.7049    0.0001    1.7551 H   0  0  0  0  0  0  0  0  0  0  0  0
   -3.9479    0.0007    2.4931 H   0  0  0  0  0  0  0  0  0  0  0  0
   -6.4284    0.0007    2.0702 H   0  0  0  0  0  0  0  0  0  0  0  0
   -5.7089   -0.0011   -2.1884 H   0  0  0  0  0  0  0  0  0  0  0  0
   -3.2264   -0.0011   -1.7805 H   0  0  0  0  0  0  0  0  0  0  0  0
  1  8  1  0  0  0  0
  2  3  1  0  0  0  0
  3  4  2  0  0  0  0
  4 13  1  0  0  0  0
  5  4  1  0  0  0  0
  5  6  1  0  0  0  0
  6 14  1  0  0  0  0
  7  6  2  0  0  0  0
  7 15  1  0  0  0  0
  8  7  1  0  0  0  0
  9 10  1  0  0  0  0
  9  8  2  0  0  0  0
 10  5  2  0  0  0  0
 11  2  1  0  0  0  0
 12  2  1  0  0  0  0
 16  9  1  0  0  0  0
 17 10  1  0  0  0  0
M  END
