21
q = -1.0, confidence = 0.004

 34 36  0  0  1  0  0  0  0  0999 V2000
   -1.4438   -1.6146    1.1763 C   0  0  0  0  0  0  0  0  0  0  0  0
   -1.5831   -0.2744    1.6758 C   0  0  0  0  0  0  0  0  0  0  0  0
   -2.3008    0.4677    1.3092 H   0  0  0  0  0  0  0  0  0  0  0  0
   -0.6546   -0.0977    2.7551 C   0  0  0  0  0  0  0  0  0  0  0  0
   -0.5515    0.7905    3.3889 H   0  0  0  0  0  0  0  0  0  0  0  0
    0.0692   -1.3071    2.9148 C   0  0  0  0  0  0  0  0  0  0  0  0
    0.8633   -1.4903    3.6493 H   0  0  0  0  0  0  0  0  0  0  0  0
   -0.4156   -2.2385    1.9478 C   0  0  0  0  0  3  0  0  0  0  0  0
   -0.0532   -3.2636    1.8137 H   0  0  0  0  0  0  0  0  0  0  0  0
   -2.2369   -2.2311    0.0307 C   0  0  0  0  0  0  0  0  0  0  0  0
   -1.6828   -3.6246   -0.3113 C   0  0  0  0  0  0  0  0  0  0  0  0
   -1.7796   -4.3224    0.5450 H   0  0  0  0  0  0  0  0  0  0  0  0
   -2.2438   -4.0581   -1.1638 H   0  0  0  0  0  0  0  0  0  0  0  0
   -0.6133   -3.5676   -0.5967 H   0  0  0  0  0  0  0  0  0  0  0  0
   -3.7148   -2.3762    0.4404 C   0  0  0  0  0  0  0  0  0  0  0  0
   -3.8096   -3.0944    1.2803 H   0  0  0  0  0  0  0  0  0  0  0  0
   -4.1439   -1.4125    0.7731 H   0  0  0  0  0  0  0  0  0  0  0  0
   -4.3263   -2.7578   -0.4035 H   0  0  0  0  0  0  0  0  0  0  0  0
   -0.3653    0.5001   -1.3807 C   0  0  0  0  0  3  0  0  0  0  0  0
    0.4118    0.9971   -1.9840 H   0  0  0  0  0  0  0  0  0  0  0  0
   -0.4960   -0.9628   -1.3377 C   0  0  0  0  0  3  0  0  0  0  0  0
    0.0880   -1.5812   -2.0398 H   0  0  0  0  0  0  0  0  0  0  0  0
   -2.0038   -1.3145   -1.2146 C   0  0  2  0  0  0  0  0  0  0  0  0
   -2.3529   -1.8842   -2.1086 H   0  0  0  0  0  0  0  0  0  0  0  0
   -2.6898    0.0479   -1.2455 C   0  0  0  0  0  0  0  0  0  0  0  0
   -4.0536    0.3592   -1.2713 C   0  0  0  0  0  0  0  0  0  0  0  0
   -4.8105   -0.4370   -1.2174 H   0  0  0  0  0  0  0  0  0  0  0  0
   -4.4692    1.7006   -1.4127 C   0  0  0  0  0  0  0  0  0  0  0  0
   -5.5421    1.9435   -1.4371 H   0  0  0  0  0  0  0  0  0  0  0  0
   -3.5124    2.7169   -1.5597 C   0  0  0  0  0  0  0  0  0  0  0  0
   -3.8384    3.7596   -1.7004 H   0  0  0  0  0  0  0  0  0  0  0  0
   -2.1385    2.4134   -1.5534 C   0  0  0  0  0  0  0  0  0  0  0  0
   -1.4017    3.2167   -1.7128 H   0  0  0  0  0  0  0  0  0  0  0  0
   -1.7151    1.0792   -1.3802 C   0  0  0  0  0  0  0  0  0  0  0  0
  1  2  2  0  0  0  0
  1  8  1  0  0  0  0
  2  4  1  0  0  0  0
  3  2  1  0  0  0  0
  4  6  2  0  0  0  0
  4  5  1  0  0  0  0
  6  7  1  0  0  0  0
  8  6  1  0  0  0  0
  9  8  1  0  0  0  0
 10 15  1  0  0  0  0
 10  1  1  0  0  0  0
 11 10  1  0  0  0  0
 11 12  1  0  0  0  0
 13 11  1  0  0  0  0
 14 11  1  0  0  0  0
 15 17  1  0  0  0  0
 15 16  1  0  0  0  0
 18 15  1  0  0  0  0
 19 34  1  0  0  0  0
 19 21  1  0  0  0  0
 20 19  1  0  0  0  0
 21 23  1  0  0  0  0
 22 21  1  0  0  0  0
 23 24  1  6  0  0  0
 23 10  1  0  0  0  0
 25 23  1  0  0  0  0
 26 25  1  0  0  0  0
 26 27  1  0  0  0  0
 28 26  2  0  0  0  0
 29 28  1  0  0  0  0
 30 32  2  0  0  0  0
 30 28  1  0  0  0  0
 31 30  1  0  0  0  0
 32 34  1  0  0  0  0
 33 32  1  0  0  0  0
 34 25  2  0  0  0  0
M  END
