4
q = 0.0, confidence = 0.976

 62 67  0  0  1  0  0  0  0  0999 V2000
   -2.4529   -1.0798    0.5687 P   0  0  0  0  0  0  0  0  0  0  0  0
   -2.8835   -2.0660    1.6528 O   0  0  0  0  0  0  0  0  0  0  0  0
    0.3040   -1.3454    1.9499 N   0  0  0  0  0  0  0  0  0  0  0  0
    0.9352    0.2573    0.3298 C   0  0  0  0  0  2  0  0  0  0  0  0
    0.0349    0.0668    1.5548 C   0  0  2  0  0  0  0  0  0  0  0  0
    1.3520   -1.8439    1.2019 C   0  0  0  0  0  0  0  0  0  0  0  0
    1.7434   -0.8718    0.2088 C   0  0  0  0  0  0  0  0  0  0  0  0
   -0.3196   -2.0335    2.9343 C   0  0  0  0  0  0  0  0  0  0  0  0
   -1.1657   -1.5397    3.4262 H   0  0  0  0  0  0  0  0  0  0  0  0
    0.1147   -3.3139    3.2514 C   0  0  0  0  0  0  0  0  0  0  0  0
   -0.4046   -3.8808    4.0341 H   0  0  0  0  0  0  0  0  0  0  0  0
    1.2149   -3.8542    2.5465 C   0  0  0  0  0  0  0  0  0  0  0  0
    1.5847   -4.8585    2.8024 H   0  0  0  0  0  0  0  0  0  0  0  0
    1.8356   -3.1310    1.5302 C   0  0  0  0  0  0  0  0  0  0  0  0
    2.6948   -3.5326    0.9791 H   0  0  0  0  0  0  0  0  0  0  0  0
    0.5624    1.0110    2.6554 C   0  0  0  0  0  0  0  0  0  0  0  0
    1.4411    0.5696    3.6628 C   0  0  0  0  0  0  0  0  0  0  0  0
    1.7605   -0.4812    3.7083 H   0  0  0  0  0  0  0  0  0  0  0  0
    1.9328    1.4685    4.6223 C   0  0  0  0  0  0  0  0  0  0  0  0
    2.6156    1.1038    5.4045 H   0  0  0  0  0  0  0  0  0  0  0  0
    1.5606    2.8196    4.5836 C   0  0  0  0  0  0  0  0  0  0  0  0
    1.9479    3.5236    5.3353 H   0  0  0  0  0  0  0  0  0  0  0  0
    0.6969    3.2682    3.5725 C   0  0  0  0  0  0  0  0  0  0  0  0
    0.4071    4.3283    3.5201 H   0  0  0  0  0  0  0  0  0  0  0  0
    0.2029    2.3737    2.6137 C   0  0  0  0  0  0  0  0  0  0  0  0
   -0.4479    2.7486    1.8113 H   0  0  0  0  0  0  0  0  0  0  0  0
   -1.4573    0.3166    1.2583 C   0  0  0  0  0  0  0  0  0  0  0  0
   -1.5064    1.1804    0.5658 H   0  0  0  0  0  0  0  0  0  0  0  0
   -2.0112    0.5941    2.1791 H   0  0  0  0  0  0  0  0  0  0  0  0
   -3.8616   -0.2336   -0.2290 C   0  0  0  0  0  0  0  0  0  0  0  0
   -5.1425   -0.7421    0.0600 C   0  0  0  0  0  0  0  0  0  0  0  0
   -5.2276   -1.5924    0.7544 H   0  0  0  0  0  0  0  0  0  0  0  0
   -6.2736   -0.1572   -0.5284 C   0  0  0  0  0  0  0  0  0  0  0  0
   -7.2754   -0.5532   -0.3023 H   0  0  0  0  0  0  0  0  0  0  0  0
   -6.1277    0.9339   -1.4001 C   0  0  0  0  0  0  0  0  0  0  0  0
   -7.0162    1.3933   -1.8597 H   0  0  0  0  0  0  0  0  0  0  0  0
   -4.8502    1.4457   -1.6833 C   0  0  0  0  0  0  0  0  0  0  0  0
   -4.7339    2.3052   -2.3604 H   0  0  0  0  0  0  0  0  0  0  0  0
   -3.7143    0.8660   -1.1000 C   0  0  0  0  0  0  0  0  0  0  0  0
   -2.7216    1.2874   -1.3282 H   0  0  0  0  0  0  0  0  0  0  0  0
   -1.4979   -1.9113   -0.7511 C   0  0  0  0  0  0  0  0  0  0  0  0
   -0.9522   -1.2482   -1.8683 C   0  0  0  0  0  0  0  0  0  0  0  0
   -1.0367   -0.1566   -1.9767 H   0  0  0  0  0  0  0  0  0  0  0  0
   -0.2559   -1.9798   -2.8398 C   0  0  0  0  0  0  0  0  0  0  0  0
    0.1881   -1.4550   -3.6984 H   0  0  0  0  0  0  0  0  0  0  0  0
   -0.1128   -3.3710   -2.7062 C   0  0  0  0  0  0  0  0  0  0  0  0
    0.4347   -3.9403   -3.4730 H   0  0  0  0  0  0  0  0  0  0  0  0
   -0.6547   -4.0327   -1.5924 C   0  0  0  0  0  0  0  0  0  0  0  0
   -0.5413   -5.1227   -1.4872 H   0  0  0  0  0  0  0  0  0  0  0  0
   -1.3471   -3.3049   -0.6123 C   0  0  0  0  0  0  0  0  0  0  0  0
   -1.7884   -3.7947    0.2697 H   0  0  0  0  0  0  0  0  0  0  0  0
    2.7963   -1.0869   -0.8026 C   0  0  0  0  0  0  0  0  0  0  0  0
    3.6408   -0.0175   -1.1791 C   0  0  0  0  0  0  0  0  0  0  0  0
    3.5128    0.9595   -0.6898 H   0  0  0  0  0  0  0  0  0  0  0  0
    4.6233   -0.1933   -2.1616 C   0  0  0  0  0  0  0  0  0  0  0  0
    5.2677    0.6536   -2.4417 H   0  0  0  0  0  0  0  0  0  0  0  0
    4.7872   -1.4407   -2.7861 C   0  0  0  0  0  0  0  0  0  0  0  0
    5.5601   -1.5770   -3.5577 H   0  0  0  0  0  0  0  0  0  0  0  0
    3.9533   -2.5101   -2.4246 C   0  0  0  0  0  0  0  0  0  0  0  0
    4.0610   -3.4870   -2.9208 H   0  0  0  0  0  0  0  0  0  0  0  0
    2.9657   -2.3353   -1.4446 C   0  0  0  0  0  0  0  0  0  0  0  0
    2.2820   -3.1641   -1.2123 H   0  0  0  0  0  0  0  0  0  0  0  0
  1 27  1  0  0  0  0
  1  2  2  0  0  0  0
  3  8  1  0  0  0  0
  4  5  1  0  0  0  0
  5 27  1  6  0  0  0
  5  3  1  0  0  0  0
  5 16  1  0  0  0  0
  6 14  1  0  0  0  0
  6  3  1  0  0  0  0
  7  4  1  0  0  0  0
  7  6  2  0  0  0  0
  8 10  2  0  0  0  0
  8  9  1  0  0  0  0
 10 11  1  0  0  0  0
 12 13  1  0  0  0  0
 12 10  1  0  0  0  0
 14 12  2  0  0  0  0
 15 14  1  0  0  0  0
 16 17  1  0  0  0  0
 17 18  1  0  0  0  0
 17 19  2  0  0  0  0
 19 20  1  0  0  0  0
 21 19  1  0  0  0  0
 21 22  1  0  0  0  0
 23 21  2  0  0  0  0
 24 23  1  0  0  0  0
 25 16  2  0  0  0  0
 25 23  1  0  0  0  0
 26 25  1  0  0  0  0
 27 29  1  0  0  0  0
 28 27  1  0  0  0  0
 30 31  1  0  0  0  0
 30  1  1  0  0  0  0
 31 32  1  0  0  0  0
 33 34  1  0  0  0  0
 33 31  2  0  0  0  0
 35 33  1  0  0  0  0
 36 35  1  0  0  0  0
 37 35  2  0  0  0  0
 37 39  1  0  0  0  0
 38 37  1  0  0  0  0
 39 30  2  0  0  0  0
 40 39  1  0  0  0  0
 41 50  1  0  0  0  0
 41  1  1  0  0  0  0
 42 41  2  0  0  0  0
 43 42  1  0  0  0  0
 44 46  2  0  0  0  0
 44 42  1  0  0  0  0
 45 44  1  0  0  0  0
 46 48  1  0  0  0  0
 47 46  1  0  0  0  0
 48 49  1  0  0  0  0
 48 50  2  0  0  0  0
 50 51  1  0  0  0  0
 52  7  1  0  0  0  0
 53 52  1  0  0  0  0
 53 54  1  0  0  0  0
 55 53  2  0  0  0  0
 56 55  1  0  0  0  0
 57 59  2  0  0  0  0
 57 55  1  0  0  0  0
 58 57  1  0  0  0  0
 59 61  1  0  0  0  0
 60 59  1  0  0  0  0
 61 62  1  0  0  0  0
 61 52  2  0  0  0  0
M  END
