3
q = 0.0, confidence = 0.79

 42 45  0  0  1  0  0  0  0  0999 V2000
    0.8622    1.9658   -0.0766 O   0  0  0  0  0  0  0  0  0  0  0  0
   -4.0400    0.2932    0.0016 O   0  0  0  0  0  0  0  0  0  0  0  0
    1.2648    0.6801   -0.0264 C   0  0  0  0  0  3  0  0  0  0  0  0
    0.1642   -0.2342   -0.0278 C   0  0  0  0  0  0  0  0  0  0  0  0
   -1.2274   -0.0291   -0.0749 C   0  0  0  0  0  0  0  0  0  0  0  0
   -1.8719    1.2602   -0.0870 C   0  0  0  0  0  0  0  0  0  0  0  0
   -3.2362    1.3952   -0.0426 C   0  0  1  0  0  3  0  0  0  0  0  0
   -3.4963   -0.9568   -0.0389 C   0  0  0  0  0  0  0  0  0  0  0  0
   -2.1330   -1.1678   -0.1046 C   0  0  0  0  0  0  0  0  0  0  0  0
   -1.6457   -2.5984   -0.1305 C   0  0  0  0  0  0  0  0  0  0  0  0
   -2.6610   -3.5529   -0.7684 C   0  0  0  0  0  0  0  0  0  0  0  0
   -4.0614   -3.3550   -0.2438 C   0  0  0  0  0  0  0  0  0  0  0  0
   -4.9815   -4.4056   -0.1159 C   0  0  0  0  0  0  0  0  0  0  0  0
   -6.2995   -4.1627    0.3044 C   0  0  0  0  0  0  0  0  0  0  0  0
   -6.7133   -2.8539    0.6007 C   0  0  0  0  0  0  0  0  0  0  0  0
   -5.8086   -1.7921    0.4828 C   0  0  0  0  0  0  0  0  0  0  0  0
   -4.4816   -2.0342    0.0662 C   0  0  0  0  0  0  0  0  0  0  0  0
    1.8003    3.0373   -0.0673 C   0  0  0  0  0  0  0  0  0  0  0  0
   -3.9910    2.6576   -0.0438 C   0  0  0  0  0  0  0  0  0  0  0  0
   -3.3423    3.8928    0.1904 C   0  0  0  0  0  0  0  0  0  0  0  0
   -4.0661    5.0894    0.1766 C   0  0  0  0  0  0  0  0  0  0  0  0
   -5.4502    5.0787   -0.0673 C   0  0  0  0  0  0  0  0  0  0  0  0
   -6.1046    3.8584   -0.2964 C   0  0  0  0  0  0  0  0  0  0  0  0
   -5.3849    2.6571   -0.2843 C   0  0  0  0  0  0  0  0  0  0  0  0
    0.4798   -1.2825    0.0177 H   0  0  0  0  0  0  0  0  0  0  0  0
   -1.2464    2.1551   -0.1300 H   0  0  0  0  0  0  0  0  0  0  0  0
   -1.4091   -2.9143    0.9119 H   0  0  0  0  0  0  0  0  0  0  0  0
   -0.6919   -2.6599   -0.6894 H   0  0  0  0  0  0  0  0  0  0  0  0
   -2.6768   -3.3708   -1.8679 H   0  0  0  0  0  0  0  0  0  0  0  0
   -2.3404   -4.6047   -0.6340 H   0  0  0  0  0  0  0  0  0  0  0  0
   -4.6603   -5.4315   -0.3550 H   0  0  0  0  0  0  0  0  0  0  0  0
   -7.0062   -5.0005    0.4021 H   0  0  0  0  0  0  0  0  0  0  0  0
   -7.7444   -2.6610    0.9326 H   0  0  0  0  0  0  0  0  0  0  0  0
   -6.1160   -0.7663    0.7300 H   0  0  0  0  0  0  0  0  0  0  0  0
    1.2184    3.9581   -0.2626 H   0  0  0  0  0  0  0  0  0  0  0  0
    2.2987    3.1156    0.9188 H   0  0  0  0  0  0  0  0  0  0  0  0
    2.5679    2.9038   -0.8536 H   0  0  0  0  0  0  0  0  0  0  0  0
   -2.2641    3.9151    0.4043 H   0  0  0  0  0  0  0  0  0  0  0  0
   -3.5467    6.0408    0.3658 H   0  0  0  0  0  0  0  0  0  0  0  0
   -6.0172    6.0216   -0.0758 H   0  0  0  0  0  0  0  0  0  0  0  0
   -7.1877    3.8411   -0.4902 H   0  0  0  0  0  0  0  0  0  0  0  0
   -5.8968    1.7041   -0.4758 H   0  0  0  0  0  0  0  0  0  0  0  0
  1 18  1  0  0  0  0
  1  3  1  0  0  0  0
  4  3  2  0  0  0  0
  4 25  1  0  0  0  0
  5  4  1  0  0  0  0
  6  5  2  0  0  0  0
  6  7  1  0  0  0  0
  7 19  1  6  0  0  0
  7  2  1  0  0  0  0
  8  2  1  0  0  0  0
  8 17  1  0  0  0  0
  9  5  1  0  0  0  0
  9  8  2  0  0  0  0
 10  9  1  0  0  0  0
 10 27  1  0  0  0  0
 11 30  1  0  0  0  0
 11 12  1  0  0  0  0
 11 10  1  0  0  0  0
 12 13  2  0  0  0  0
 12 17  1  0  0  0  0
 13 14  1  0  0  0  0
 14 32  1  0  0  0  0
 14 15  2  0  0  0  0
 15 33  1  0  0  0  0
 16 15  1  0  0  0  0
 16 34  1  0  0  0  0
 17 16  2  0  0  0  0
 18 36  1  0  0  0  0
 19 20  1  0  0  0  0
 20 38  1  0  0  0  0
 21 20  2  0  0  0  0
 21 39  1  0  0  0  0
 22 21  1  0  0  0  0
 23 24  1  0  0  0  0
 23 22  2  0  0  0  0
 24 19  2  0  0  0  0
 26  6  1  0  0  0  0
 28 10  1  0  0  0  0
 29 11  1  0  0  0  0
 31 13  1  0  0  0  0
 35 18  1  0  0  0  0
 37 18  1  0  0  0  0
 40 22  1  0  0  0  0
 41 23  1  0  0  0  0
 42 24  1  0  0  0  0
M  END
