5
q = -1.0, confidence = 0.002

 48 51  0  0  1  0  0  0  0  0999 V2000
   -2.6081   -0.6767   -1.0270 N   0  0  0  0  0  0  0  0  0  0  0  0
   -1.3113   -0.2460   -0.8237 C   0  0  0  0  0  0  0  0  0  0  0  0
   -0.1568   -1.0132   -1.2924 C   0  0  0  0  0  0  0  0  0  0  0  0
    1.0245   -0.2854   -0.9048 C   0  0  0  0  0  0  0  0  0  0  0  0
    0.6153    0.8511   -0.0905 C   0  0  2  0  0  3  0  0  0  0  0  0
   -0.8488    0.8720   -0.0437 C   0  0  0  0  0  0  0  0  0  0  0  0
   -3.7393    0.1515   -1.0338 C   0  0  0  0  0  0  0  0  0  0  0  0
   -3.7350    1.3771   -1.7372 C   0  0  0  0  0  0  0  0  0  0  0  0
   -4.8845    2.1767   -1.7611 C   0  0  0  0  0  0  0  0  0  0  0  0
   -6.0585    1.7623   -1.1101 C   0  0  0  0  0  0  0  0  0  0  0  0
   -6.0696    0.5333   -0.4297 C   0  0  0  0  0  0  0  0  0  0  0  0
   -4.9206   -0.2662   -0.3822 C   0  0  0  0  0  0  0  0  0  0  0  0
   -0.2633   -2.2716   -2.0951 C   0  0  0  0  0  0  0  0  0  0  0  0
    2.4157   -0.5596   -1.3325 C   0  0  0  0  0  0  0  0  0  0  0  0
    3.5007   -0.4463   -0.4361 C   0  0  0  0  0  0  0  0  0  0  0  0
    4.8128   -0.6480   -0.8792 C   0  0  0  0  0  0  0  0  0  0  0  0
    5.0662   -0.9624   -2.2249 C   0  0  0  0  0  0  0  0  0  0  0  0
    3.9968   -1.0683   -3.1263 C   0  0  0  0  0  0  0  0  0  0  0  0
    2.6806   -0.8667   -2.6849 C   0  0  0  0  0  0  0  0  0  0  0  0
    1.5023    1.9727    0.3116 C   0  0  0  0  0  0  0  0  0  0  0  0
    1.6947    2.3551    1.6547 C   0  0  0  0  0  0  0  0  0  0  0  0
    2.5184    3.4446    1.9745 C   0  0  0  0  0  0  0  0  0  0  0  0
    3.1685    4.1624    0.9587 C   0  0  0  0  0  0  0  0  0  0  0  0
    2.9892    3.7856   -0.3816 C   0  0  0  0  0  0  0  0  0  0  0  0
    2.1620    2.7010   -0.7031 C   0  0  0  0  0  0  0  0  0  0  0  0
   -1.6687    1.9277    0.6313 C   0  0  0  0  0  0  0  0  0  0  0  0
   -2.7482   -1.6345   -0.6556 H   0  0  0  0  0  0  0  0  0  0  0  0
   -2.8271    1.6853   -2.2772 H   0  0  0  0  0  0  0  0  0  0  0  0
   -4.8668    3.1302   -2.3109 H   0  0  0  0  0  0  0  0  0  0  0  0
   -6.9607    2.3907   -1.1381 H   0  0  0  0  0  0  0  0  0  0  0  0
   -6.9823    0.1961    0.0849 H   0  0  0  0  0  0  0  0  0  0  0  0
   -4.9162   -1.2144    0.1770 H   0  0  0  0  0  0  0  0  0  0  0  0
   -0.9648   -2.9771   -1.6053 H   0  0  0  0  0  0  0  0  0  0  0  0
    0.7174   -2.7746   -2.1784 H   0  0  0  0  0  0  0  0  0  0  0  0
   -0.6461   -2.0646   -3.1167 H   0  0  0  0  0  0  0  0  0  0  0  0
    3.3039   -0.2054    0.6182 H   0  0  0  0  0  0  0  0  0  0  0  0
    5.6459   -0.5641   -0.1654 H   0  0  0  0  0  0  0  0  0  0  0  0
    6.0985   -1.1246   -2.5699 H   0  0  0  0  0  0  0  0  0  0  0  0
    4.1861   -1.3067   -4.1839 H   0  0  0  0  0  0  0  0  0  0  0  0
    1.8482   -0.9279   -3.4009 H   0  0  0  0  0  0  0  0  0  0  0  0
    1.2105    1.7801    2.4562 H   0  0  0  0  0  0  0  0  0  0  0  0
    2.6606    3.7265    3.0287 H   0  0  0  0  0  0  0  0  0  0  0  0
    3.8203    5.0122    1.2121 H   0  0  0  0  0  0  0  0  0  0  0  0
    3.4994    4.3388   -1.1847 H   0  0  0  0  0  0  0  0  0  0  0  0
    2.0256    2.4040   -1.7538 H   0  0  0  0  0  0  0  0  0  0  0  0
   -1.9465    2.7297   -0.0840 H   0  0  0  0  0  0  0  0  0  0  0  0
   -1.0976    2.3944    1.4551 H   0  0  0  0  0  0  0  0  0  0  0  0
   -2.6093    1.5150    1.0389 H   0  0  0  0  0  0  0  0  0  0  0  0
  1  2  1  0  0  0  0
  1 27  1  0  0  0  0
  2  6  2  0  0  0  0
  3  4  2  0  0  0  0
  3  2  1  0  0  0  0
  4  5  1  0  0  0  0
  5  6  1  0  0  0  0
  5 20  1  6  0  0  0
  6 26  1  0  0  0  0
  7  1  1  0  0  0  0
  7 12  1  0  0  0  0
  8  7  2  0  0  0  0
  9  8  1  0  0  0  0
  9 10  2  0  0  0  0
 10 11  1  0  0  0  0
 11 12  2  0  0  0  0
 11 31  1  0  0  0  0
 12 32  1  0  0  0  0
 13 33  1  0  0  0  0
 13  3  1  0  0  0  0
 14  4  1  0  0  0  0
 14 15  1  0  0  0  0
 15 36  1  0  0  0  0
 16 15  2  0  0  0  0
 16 37  1  0  0  0  0
 17 16  1  0  0  0  0
 18 19  1  0  0  0  0
 18 17  2  0  0  0  0
 19 14  2  0  0  0  0
 20 21  1  0  0  0  0
 21 22  2  0  0  0  0
 21 41  1  0  0  0  0
 22 42  1  0  0  0  0
 23 43  1  0  0  0  0
 23 22  1  0  0  0  0
 24 23  2  0  0  0  0
 25 24  1  0  0  0  0
 25 20  2  0  0  0  0
 26 48  1  0  0  0  0
 26 47  1  0  0  0  0
 28  8  1  0  0  0  0
 29  9  1  0  0  0  0
 30 10  1  0  0  0  0
 34 13  1  0  0  0  0
 35 13  1  0  0  0  0
 38 17  1  0  0  0  0
 39 18  1  0  0  0  0
 40 19  1  0  0  0  0
 44 24  1  0  0  0  0
 45 25  1  0  0  0  0
 46 26  1  0  0  0  0
M  END
