3
q = 0.0, confidence = 0.986

 33 34  0  0  1  0  0  0  0  0999 V2000
    1.7594    1.2690   -0.1665 N   0  0  0  0  0  0  0  0  0  0  0  0
    1.8341   -1.0149   -0.4545 N   0  0  0  0  0  0  0  0  0  0  0  0
    1.0983    0.0852   -0.1600 C   0  0  0  0  0  2  0  0  0  0  0  0
    2.8552    1.6274   -1.0803 C   0  0  0  0  0  0  0  0  0  0  0  0
    2.4249    3.0114   -1.5795 C   0  0  0  0  0  0  0  0  0  0  0  0
    3.2627    3.5896   -2.0165 H   0  0  0  0  0  0  0  0  0  0  0  0
    1.6485    2.8915   -2.3640 H   0  0  0  0  0  0  0  0  0  0  0  0
    1.8282    3.6543   -0.3200 C   0  0  0  0  0  0  0  0  0  0  0  0
    1.0955    4.4530   -0.5461 H   0  0  0  0  0  0  0  0  0  0  0  0
    2.6351    4.1136    0.2894 H   0  0  0  0  0  0  0  0  0  0  0  0
    1.1873    2.4846    0.4676 C   0  0  2  0  0  0  0  0  0  0  0  0
    1.4678    2.5260    1.9684 C   0  0  0  0  0  0  0  0  0  0  0  0
    1.0080    1.6518    2.4719 H   0  0  0  0  0  0  0  0  0  0  0  0
    1.0457    3.4537    2.4066 H   0  0  0  0  0  0  0  0  0  0  0  0
    2.5606    2.5201    2.1642 H   0  0  0  0  0  0  0  0  0  0  0  0
    3.2643   -1.1505   -0.0850 C   0  0  0  0  0  0  0  0  0  0  0  0
    3.4353   -2.6302    0.3220 C   0  0  0  0  0  0  0  0  0  0  0  0
    4.0615   -2.7320    1.2294 H   0  0  0  0  0  0  0  0  0  0  0  0
    3.9403   -3.1960   -0.4872 H   0  0  0  0  0  0  0  0  0  0  0  0
    1.9987   -3.1378    0.5282 C   0  0  0  0  0  0  0  0  0  0  0  0
    1.9038   -4.2352    0.4123 H   0  0  0  0  0  0  0  0  0  0  0  0
    1.6209   -2.8488    1.5305 H   0  0  0  0  0  0  0  0  0  0  0  0
    1.1989   -2.3522   -0.5186 C   0  0  2  0  0  0  0  0  0  0  0  0
    1.2520   -2.9370   -1.9310 C   0  0  0  0  0  0  0  0  0  0  0  0
    0.7307   -2.2742   -2.6495 H   0  0  0  0  0  0  0  0  0  0  0  0
    0.7530   -3.9268   -1.9532 H   0  0  0  0  0  0  0  0  0  0  0  0
    2.2936   -3.0736   -2.2887 H   0  0  0  0  0  0  0  0  0  0  0  0
    3.4609   -0.4543    0.7559 H   0  0  0  0  0  0  0  0  0  0  0  0
    3.9471   -0.8738   -0.9145 H   0  0  0  0  0  0  0  0  0  0  0  0
    0.1385   -2.2120   -0.2084 H   0  0  0  0  0  0  0  0  0  0  0  0
    0.0869    2.4346    0.3161 H   0  0  0  0  0  0  0  0  0  0  0  0
    3.8384    1.6770   -0.5597 H   0  0  0  0  0  0  0  0  0  0  0  0
    2.9299    0.8709   -1.8841 H   0  0  0  0  0  0  0  0  0  0  0  0
  1  3  1  0  0  0  0
  1 11  1  0  0  0  0
  2  3  1  0  0  0  0
  2 16  1  0  0  0  0
  4 32  1  0  0  0  0
  4  1  1  0  0  0  0
  5  4  1  0  0  0  0
  5  8  1  0  0  0  0
  6  5  1  0  0  0  0
  7  5  1  0  0  0  0
  8 10  1  0  0  0  0
  8 11  1  0  0  0  0
  9  8  1  0  0  0  0
 11 31  1  6  0  0  0
 11 12  1  0  0  0  0
 12 15  1  0  0  0  0
 12 14  1  0  0  0  0
 12 13  1  0  0  0  0
 16 17  1  0  0  0  0
 16 28  1  0  0  0  0
 17 20  1  0  0  0  0
 17 18  1  0  0  0  0
 19 17  1  0  0  0  0
 20 22  1  0  0  0  0
 21 20  1  0  0  0  0
 23  2  1  0  0  0  0
 23 30  1  1  0  0  0
 23 20  1  0  0  0  0
 24 23  1  0  0  0  0
 25 24  1  0  0  0  0
 26 24  1  0  0  0  0
 27 24  1  0  0  0  0
 29 16  1  0  0  0  0
 33  4  1  0  0  0  0
M  END
