1
q = -2.0, confidence = 0.548

 25 27  0  0  0  0  0  0  0  0999 V2000
    0.7274   -0.0227   -0.7386 C   0  0  0  0  0  3  0  0  0  0  0  0
    1.8426   -0.7892   -0.2055 C   0  0  0  0  0  3  0  0  0  0  0  0
    3.0262   -0.0613   -0.2401 C   0  0  0  0  0  0  0  0  0  0  0  0
    4.3088   -0.4906    0.3055 C   0  0  0  0  0  0  0  0  0  0  0  0
    4.6634   -1.8654    0.2958 C   0  0  0  0  0  0  0  0  0  0  0  0
    5.8800   -2.2932    0.8335 C   0  0  0  0  0  0  0  0  0  0  0  0
    6.7633   -1.3618    1.4085 C   0  0  0  0  0  0  0  0  0  0  0  0
    6.4218    0.0005    1.4404 C   0  0  0  0  0  0  0  0  0  0  0  0
    5.2119    0.4361    0.8886 C   0  0  0  0  0  0  0  0  0  0  0  0
    2.7344    1.2326   -0.9074 C   0  0  0  0  0  0  0  0  0  0  0  0
    3.5727    2.2791   -1.2897 C   0  0  0  0  0  0  0  0  0  0  0  0
    3.0128    3.3923   -1.9631 C   0  0  0  0  0  0  0  0  0  0  0  0
    1.6478    3.4284   -2.2584 C   0  0  0  0  0  0  0  0  0  0  0  0
    0.8038    2.3494   -1.9000 C   0  0  0  0  0  0  0  0  0  0  0  0
    1.3407    1.2524   -1.2223 C   0  0  0  0  0  0  0  0  0  0  0  0
    1.7538   -1.7750    0.2649 H   0  0  0  0  0  0  0  0  0  0  0  0
    3.9865   -2.5925   -0.1768 H   0  0  0  0  0  0  0  0  0  0  0  0
    6.1495   -3.3592    0.7995 H   0  0  0  0  0  0  0  0  0  0  0  0
    7.7205   -1.7000    1.8325 H   0  0  0  0  0  0  0  0  0  0  0  0
    7.1043    0.7286    1.9031 H   0  0  0  0  0  0  0  0  0  0  0  0
    4.9375    1.4983    0.9501 H   0  0  0  0  0  0  0  0  0  0  0  0
    4.6537    2.2440   -1.0955 H   0  0  0  0  0  0  0  0  0  0  0  0
    3.6628    4.2273   -2.2635 H   0  0  0  0  0  0  0  0  0  0  0  0
    1.2230    4.2918   -2.7909 H   0  0  0  0  0  0  0  0  0  0  0  0
   -0.2542    2.3893   -2.1844 H   0  0  0  0  0  0  0  0  0  0  0  0
  1  2  1  0  0  0  0
  2 16  1  0  0  0  0
  3  2  1  0  0  0  0
  3  4  1  0  0  0  0
  4  9  1  0  0  0  0
  5  4  2  0  0  0  0
  5  6  1  0  0  0  0
  6  7  2  0  0  0  0
  7  8  1  0  0  0  0
  7 19  1  0  0  0  0
  8 20  1  0  0  0  0
  9 21  1  0  0  0  0
  9  8  2  0  0  0  0
 10  3  2  0  0  0  0
 11 22  1  0  0  0  0
 11 10  1  0  0  0  0
 12 11  2  0  0  0  0
 13 12  1  0  0  0  0
 13 14  2  0  0  0  0
 14 15  1  0  0  0  0
 15 10  1  0  0  0  0
 15  1  2  0  0  0  0
 17  5  1  0  0  0  0
 18  6  1  0  0  0  0
 23 12  1  0  0  0  0
 24 13  1  0  0  0  0
 25 14  1  0  0  0  0
M  END
