2
q = -1.0, confidence = 0.0

 31 32  0  0  1  0  0  0  0  0999 V2000
   -1.2575    1.9039    0.3562 N   0  0  0  0  0  0  0  0  0  0  0  0
    0.6061   -0.3203   -0.1803 C   0  0  0  0  0  3  0  0  0  0  0  0
    1.5863   -1.2893   -0.0143 C   0  0  0  0  0  0  0  0  0  0  0  0
    2.9723   -0.9484    0.0322 C   0  0  0  0  0  0  0  0  0  0  0  0
    3.9961   -1.9244    0.2045 C   0  0  0  0  0  0  0  0  0  0  0  0
    5.3312   -1.5490    0.2507 C   0  0  0  0  0  0  0  0  0  0  0  0
    5.6953   -0.1810    0.1267 C   0  0  0  0  0  0  0  0  0  0  0  0
    4.7194    0.7910   -0.0428 C   0  0  0  0  0  0  0  0  0  0  0  0
    3.3400    0.4370   -0.0955 C   0  0  0  0  0  0  0  0  0  0  0  0
    2.3111    1.4088   -0.2718 C   0  0  0  0  0  0  0  0  0  0  0  0
    0.9651    1.0646   -0.3232 C   0  0  0  0  0  0  0  0  0  0  0  0
   -0.1286    2.1120   -0.5749 C   0  0  2  0  0  0  0  0  0  0  0  0
    0.3795    3.5591   -0.6326 C   0  0  0  0  0  0  0  0  0  0  0  0
   -0.9466    2.1607    1.7559 C   0  0  0  0  0  0  0  0  0  0  0  0
   -2.5111    2.5145   -0.0604 C   0  0  0  0  0  0  0  0  0  0  0  0
    1.3166   -2.3521    0.0895 H   0  0  0  0  0  0  0  0  0  0  0  0
    3.7085   -2.9831    0.3011 H   0  0  0  0  0  0  0  0  0  0  0  0
    6.1139   -2.3112    0.3841 H   0  0  0  0  0  0  0  0  0  0  0  0
    6.7572    0.1055    0.1648 H   0  0  0  0  0  0  0  0  0  0  0  0
    4.9988    1.8519   -0.1403 H   0  0  0  0  0  0  0  0  0  0  0  0
    2.6197    2.4595   -0.3733 H   0  0  0  0  0  0  0  0  0  0  0  0
   -0.5488    1.8722   -1.5801 H   0  0  0  0  0  0  0  0  0  0  0  0
   -0.4638    4.2566   -0.8031 H   0  0  0  0  0  0  0  0  0  0  0  0
    1.0941    3.6989   -1.4665 H   0  0  0  0  0  0  0  0  0  0  0  0
    0.8877    3.8597    0.3053 H   0  0  0  0  0  0  0  0  0  0  0  0
   -0.8311    3.2475    1.9930 H   0  0  0  0  0  0  0  0  0  0  0  0
   -0.0072    1.6431    2.0349 H   0  0  0  0  0  0  0  0  0  0  0  0
   -1.7628    1.7642    2.3936 H   0  0  0  0  0  0  0  0  0  0  0  0
   -2.5307    3.6271    0.0574 H   0  0  0  0  0  0  0  0  0  0  0  0
   -3.3444    2.0903    0.5360 H   0  0  0  0  0  0  0  0  0  0  0  0
   -2.7103    2.2760   -1.1246 H   0  0  0  0  0  0  0  0  0  0  0  0
  1 14  1  0  0  0  0
  2  3  1  0  0  0  0
  3  4  2  0  0  0  0
  3 16  1  0  0  0  0
  4  5  1  0  0  0  0
  5  6  2  0  0  0  0
  5 17  1  0  0  0  0
  6 18  1  0  0  0  0
  7 19  1  0  0  0  0
  7  6  1  0  0  0  0
  8  7  2  0  0  0  0
  9  8  1  0  0  0  0
  9  4  1  0  0  0  0
 10  9  2  0  0  0  0
 11 10  1  0  0  0  0
 11  2  2  0  0  0  0
 12 22  1  6  0  0  0
 12 11  1  0  0  0  0
 12  1  1  0  0  0  0
 13 12  1  0  0  0  0
 13 25  1  0  0  0  0
 14 26  1  0  0  0  0
 14 27  1  0  0  0  0
 14 28  1  0  0  0  0
 15 29  1  0  0  0  0
 15  1  1  0  0  0  0
 15 30  1  0  0  0  0
 20  8  1  0  0  0  0
 21 10  1  0  0  0  0
 23 13  1  0  0  0  0
 24 13  1  0  0  0  0
 31 15  1  0  0  0  0
M  END
