1
q = -1.0, confidence = 0.014

 13 13  0  0  0  0  0  0  0  0999 V2000
   -2.0016    0.0122   -0.0002 C   0  0  0  0  0  3  0  0  0  0  0  0
   -3.2461   -0.0147   -0.0001 C   0  0  0  0  0  0  0  0  0  0  0  0
   -4.6701   -0.0184   -0.0000 C   0  0  0  0  0  0  0  0  0  0  0  0
   -5.4056   -1.2342    0.0007 C   0  0  0  0  0  0  0  0  0  0  0  0
   -4.8568   -2.1880    0.0012 H   0  0  0  0  0  0  0  0  0  0  0  0
   -6.8048   -1.2418    0.0008 C   0  0  0  0  0  0  0  0  0  0  0  0
   -7.3512   -2.1958    0.0014 H   0  0  0  0  0  0  0  0  0  0  0  0
   -7.5020   -0.0219    0.0002 C   0  0  0  0  0  0  0  0  0  0  0  0
   -6.8074    1.1997   -0.0005 C   0  0  0  0  0  0  0  0  0  0  0  0
   -7.3563    2.1523   -0.0009 H   0  0  0  0  0  0  0  0  0  0  0  0
   -5.4084    1.1958   -0.0006 C   0  0  0  0  0  0  0  0  0  0  0  0
   -4.8608    2.1500   -0.0012 H   0  0  0  0  0  0  0  0  0  0  0  0
   -9.6251   -0.0243    0.0004 I   0  0  0  0  0  0  0  0  0  0  0  0
  1  2  3  0  0  0  0
  2  3  1  0  0  0  0
  3  4  1  0  0  0  0
  4  6  2  0  0  0  0
  4  5  1  0  0  0  0
  6  7  1  0  0  0  0
  8 13  1  0  0  0  0
  8  6  1  0  0  0  0
  9  8  2  0  0  0  0
 10  9  1  0  0  0  0
 11  9  1  0  0  0  0
 11  3  2  0  0  0  0
 12 11  1  0  0  0  0
M  END
