2
q = 0.0, confidence = 0.946

 24 25  0  0  0  0  0  0  0  0999 V2000
    0.0243   -0.4358    2.0641 Se  0  0  0  0  0  1  0  0  0  0  0  0
   -0.5878    0.3970    0.4340 C   0  0  0  0  0  3  0  0  0  0  0  0
   -0.1842    1.8190    0.1494 C   0  0  0  0  0  0  0  0  0  0  0  0
    0.7767    2.4934    0.9402 C   0  0  0  0  0  0  0  0  0  0  0  0
    1.1919    1.9608    1.8104 H   0  0  0  0  0  0  0  0  0  0  0  0
    1.1820    3.7981    0.6378 C   0  0  0  0  0  0  0  0  0  0  0  0
    1.9293    4.2956    1.2754 H   0  0  0  0  0  0  0  0  0  0  0  0
    0.6323    4.4772   -0.4634 C   0  0  0  0  0  0  0  0  0  0  0  0
    0.9494    5.5039   -0.7011 H   0  0  0  0  0  0  0  0  0  0  0  0
   -0.3414    3.8346   -1.2430 C   0  0  0  0  0  0  0  0  0  0  0  0
   -0.7983    4.3579   -2.0972 H   0  0  0  0  0  0  0  0  0  0  0  0
   -0.7520    2.5287   -0.9372 C   0  0  0  0  0  0  0  0  0  0  0  0
   -1.5246    2.0496   -1.5539 H   0  0  0  0  0  0  0  0  0  0  0  0
   -1.9742    0.0311   -0.0308 C   0  0  0  0  0  0  0  0  0  0  0  0
   -3.0643    0.1243    0.8594 C   0  0  0  0  0  0  0  0  0  0  0  0
   -2.8734    0.4169    1.9030 H   0  0  0  0  0  0  0  0  0  0  0  0
   -4.3688   -0.1645    0.4344 C   0  0  0  0  0  0  0  0  0  0  0  0
   -5.2019   -0.0950    1.1505 H   0  0  0  0  0  0  0  0  0  0  0  0
   -4.6123   -0.5464   -0.8942 C   0  0  0  0  0  0  0  0  0  0  0  0
   -5.6351   -0.7801   -1.2263 H   0  0  0  0  0  0  0  0  0  0  0  0
   -3.5382   -0.6377   -1.7931 C   0  0  0  0  0  0  0  0  0  0  0  0
   -3.7141   -0.9459   -2.8352 H   0  0  0  0  0  0  0  0  0  0  0  0
   -2.2338   -0.3505   -1.3653 C   0  0  0  0  0  0  0  0  0  0  0  0
   -1.3886   -0.4422   -2.0645 H   0  0  0  0  0  0  0  0  0  0  0  0
  2  1  1  0  0  0  0
  3  2  1  0  0  0  0
  3  4  1  0  0  0  0
  4  5  1  0  0  0  0
  6  4  2  0  0  0  0
  6  7  1  0  0  0  0
  8  6  1  0  0  0  0
  9  8  1  0  0  0  0
 10 12  1  0  0  0  0
 10  8  2  0  0  0  0
 11 10  1  0  0  0  0
 12  3  2  0  0  0  0
 13 12  1  0  0  0  0
 14  2  1  0  0  0  0
 14 15  1  0  0  0  0
 15 16  1  0  0  0  0
 17 15  2  0  0  0  0
 17 18  1  0  0  0  0
 19 17  1  0  0  0  0
 20 19  1  0  0  0  0
 21 23  1  0  0  0  0
 21 19  2  0  0  0  0
 22 21  1  0  0  0  0
 23 14  2  0  0  0  0
 24 23  1  0  0  0  0
M  END
