3
q = -1.0, confidence = 0.0

 29 29  0  0  0  0  0  0  0  0999 V2000
   -5.8736    0.2486   -0.2542 Br  0  0  0  0  0  0  0  0  0  0  0  0
    1.5515   -2.5918   -0.4157 N   0  0  0  0  0  2  0  0  0  0  0  0
    0.9281   -1.5109   -0.6691 C   0  0  0  0  0  2  0  0  0  0  0  0
   -0.1195   -1.5899   -1.8010 C   0  0  0  0  0  0  0  0  0  0  0  0
   -1.5169   -1.1394   -1.4542 C   0  0  0  0  0  0  0  0  0  0  0  0
   -1.8478    0.2299   -1.3810 C   0  0  0  0  0  0  0  0  0  0  0  0
   -3.1402    0.6505   -1.0351 C   0  0  0  0  0  0  0  0  0  0  0  0
   -4.1216   -0.3128   -0.7501 C   0  0  0  0  0  0  0  0  0  0  0  0
   -3.8259   -1.6827   -0.8257 C   0  0  0  0  0  0  0  0  0  0  0  0
   -2.5271   -2.0816   -1.1789 C   0  0  0  0  0  0  0  0  0  0  0  0
    2.6475   -2.8522    0.5281 C   0  0  0  0  0  0  0  0  0  0  0  0
    3.5053   -3.9524   -0.1308 C   0  0  0  0  0  0  0  0  0  0  0  0
    2.0266   -3.4101    1.8234 C   0  0  0  0  0  0  0  0  0  0  0  0
    3.5465   -1.6482    0.8605 C   0  0  0  0  0  0  0  0  0  0  0  0
   -0.1316   -2.6374   -2.1634 H   0  0  0  0  0  0  0  0  0  0  0  0
    0.2549   -0.9552   -2.6331 H   0  0  0  0  0  0  0  0  0  0  0  0
   -1.0737    0.9867   -1.5862 H   0  0  0  0  0  0  0  0  0  0  0  0
   -3.3858    1.7210   -0.9885 H   0  0  0  0  0  0  0  0  0  0  0  0
   -4.6035   -2.4286   -0.6092 H   0  0  0  0  0  0  0  0  0  0  0  0
   -2.2907   -3.1557   -1.2342 H   0  0  0  0  0  0  0  0  0  0  0  0
    3.9330   -3.5875   -1.0868 H   0  0  0  0  0  0  0  0  0  0  0  0
    2.8829   -4.8399   -0.3578 H   0  0  0  0  0  0  0  0  0  0  0  0
    4.3414   -4.2566    0.5312 H   0  0  0  0  0  0  0  0  0  0  0  0
    1.3209   -4.2325    1.5917 H   0  0  0  0  0  0  0  0  0  0  0  0
    1.4745   -2.6189    2.3652 H   0  0  0  0  0  0  0  0  0  0  0  0
    2.8151   -3.8008    2.4977 H   0  0  0  0  0  0  0  0  0  0  0  0
    2.9593   -0.7915    1.2575 H   0  0  0  0  0  0  0  0  0  0  0  0
    4.0841   -1.2965   -0.0421 H   0  0  0  0  0  0  0  0  0  0  0  0
    4.3095   -1.9353    1.6124 H   0  0  0  0  0  0  0  0  0  0  0  0
  2 11  1  0  0  0  0
  3  2  1  0  0  0  0
  4  5  1  0  0  0  0
  4  3  1  0  0  0  0
  5  6  2  0  0  0  0
  5 10  1  0  0  0  0
  6  7  1  0  0  0  0
  7 18  1  0  0  0  0
  7  8  2  0  0  0  0
  8  1  1  0  0  0  0
  9  8  1  0  0  0  0
  9 19  1  0  0  0  0
 10  9  2  0  0  0  0
 11 14  1  0  0  0  0
 11 13  1  0  0  0  0
 12 11  1  0  0  0  0
 12 23  1  0  0  0  0
 13 25  1  0  0  0  0
 13 26  1  0  0  0  0
 14 27  1  0  0  0  0
 14 29  1  0  0  0  0
 15  4  1  0  0  0  0
 16  4  1  0  0  0  0
 17  6  1  0  0  0  0
 20 10  1  0  0  0  0
 21 12  1  0  0  0  0
 22 12  1  0  0  0  0
 24 13  1  0  0  0  0
 28 14  1  0  0  0  0
M  END
