1
q = 0.0, confidence = 1.0

 26 27  0  0  0  0  0  0  0  0999 V2000
   -0.1297   -0.8119   -0.9407 C   0  0  0  0  0  2  0  0  0  0  0  0
   -0.9323   -1.8501   -1.3354 N   0  0  0  0  0  0  0  0  0  0  0  0
   -0.6942   -2.2056   -2.6568 C   0  0  0  0  0  0  0  0  0  0  0  0
   -1.2361   -3.0185   -3.1494 H   0  0  0  0  0  0  0  0  0  0  0  0
    0.2908   -1.3757   -3.1225 C   0  0  0  0  0  0  0  0  0  0  0  0
    0.8070   -1.3312   -4.0854 H   0  0  0  0  0  0  0  0  0  0  0  0
    0.6217   -0.5393   -2.0610 N   0  0  0  0  0  0  0  0  0  0  0  0
   -1.8512   -2.5483   -0.4466 C   0  0  0  0  0  0  0  0  0  0  0  0
   -1.3737   -3.4566   -0.0310 H   0  0  0  0  0  0  0  0  0  0  0  0
   -2.7763   -2.8031   -0.9951 H   0  0  0  0  0  0  0  0  0  0  0  0
   -2.0978   -1.8725    0.3920 H   0  0  0  0  0  0  0  0  0  0  0  0
    1.6863    0.4450   -2.0712 C   0  0  0  0  0  0  0  0  0  0  0  0
    1.7699    0.8357   -1.0386 H   0  0  0  0  0  0  0  0  0  0  0  0
    1.4470    1.2828   -2.7585 H   0  0  0  0  0  0  0  0  0  0  0  0
    3.2996   -0.1833   -2.6666 S   0  0  0  0  0  0  0  0  0  0  0  0
    3.8797   -1.1630   -1.2858 C   0  0  0  0  0  0  0  0  0  0  0  0
    3.0749   -2.1131   -0.6256 C   0  0  0  0  0  0  0  0  0  0  0  0
    2.0327   -2.2792   -0.9231 H   0  0  0  0  0  0  0  0  0  0  0  0
    3.5987   -2.8559    0.4437 C   0  0  0  0  0  0  0  0  0  0  0  0
    2.9295   -3.5585    0.9649 H   0  0  0  0  0  0  0  0  0  0  0  0
    4.9364   -2.6870    0.8353 C   0  0  0  0  0  0  0  0  0  0  0  0
    5.3465   -3.2769    1.6688 H   0  0  0  0  0  0  0  0  0  0  0  0
    5.7499   -1.7634    0.1576 C   0  0  0  0  0  0  0  0  0  0  0  0
    6.8011   -1.6279    0.4555 H   0  0  0  0  0  0  0  0  0  0  0  0
    5.2239   -0.9944   -0.8916 C   0  0  0  0  0  0  0  0  0  0  0  0
    5.8508   -0.2514   -1.4085 H   0  0  0  0  0  0  0  0  0  0  0  0
  2  1  1  0  0  0  0
  2  8  1  0  0  0  0
  3  2  1  0  0  0  0
  4  3  1  0  0  0  0
  5  3  2  0  0  0  0
  5  7  1  0  0  0  0
  6  5  1  0  0  0  0
  7  1  1  0  0  0  0
  8  9  1  0  0  0  0
  8 11  1  0  0  0  0
 10  8  1  0  0  0  0
 12  7  1  0  0  0  0
 12 13  1  0  0  0  0
 14 12  1  0  0  0  0
 15 12  1  0  0  0  0
 15 16  1  0  0  0  0
 16 25  2  0  0  0  0
 16 17  1  0  0  0  0
 17 19  2  0  0  0  0
 18 17  1  0  0  0  0
 19 21  1  0  0  0  0
 19 20  1  0  0  0  0
 21 22  1  0  0  0  0
 23 24  1  0  0  0  0
 23 21  2  0  0  0  0
 25 23  1  0  0  0  0
 26 25  1  0  0  0  0
M  END
