30
q = 0.0, confidence = 0.98

 53 55  0  0  1  0  0  0  0  0999 V2000
   -1.5913    2.0101   -0.0629 N   0  0  0  0  0  0  0  0  0  0  0  0
   -2.9137    2.7131   -0.2990 C   0  0  0  0  0  0  0  0  0  0  0  0
   -3.2054    3.7587    0.7906 C   0  0  0  0  0  0  0  0  0  0  0  0
   -4.1606    4.2679    0.5557 H   0  0  0  0  0  0  0  0  0  0  0  0
   -3.2977    3.3166    1.7980 H   0  0  0  0  0  0  0  0  0  0  0  0
   -2.4095    4.5286    0.8208 H   0  0  0  0  0  0  0  0  0  0  0  0
   -2.9161    3.4275   -1.6577 C   0  0  0  0  0  0  0  0  0  0  0  0
   -3.9107    3.8904   -1.8151 H   0  0  0  0  0  0  0  0  0  0  0  0
   -2.1567    4.2329   -1.6974 H   0  0  0  0  0  0  0  0  0  0  0  0
   -2.7301    2.7219   -2.4875 H   0  0  0  0  0  0  0  0  0  0  0  0
   -3.8949    1.5181   -0.3035 C   0  0  0  0  0  0  0  0  0  0  0  0
   -4.1363    1.2564   -1.3491 H   0  0  0  0  0  0  0  0  0  0  0  0
   -4.8499    1.7686    0.1977 H   0  0  0  0  0  0  0  0  0  0  0  0
   -3.1773    0.3425    0.4035 C   0  0  1  0  0  0  0  0  0  0  0  0
   -3.4814    0.4009    1.9194 C   0  0  0  0  0  0  0  0  0  0  0  0
   -2.8036   -0.2485    2.5031 H   0  0  0  0  0  0  0  0  0  0  0  0
   -3.3621    1.4302    2.3022 H   0  0  0  0  0  0  0  0  0  0  0  0
   -4.5316    0.0935    2.0955 H   0  0  0  0  0  0  0  0  0  0  0  0
   -3.5243   -1.0368   -0.1818 C   0  0  0  0  0  0  0  0  0  0  0  0
   -3.6387   -2.1744    0.6461 C   0  0  0  0  0  0  0  0  0  0  0  0
   -3.4778   -2.0854    1.7275 H   0  0  0  0  0  0  0  0  0  0  0  0
   -3.9332   -3.4376    0.1083 C   0  0  0  0  0  0  0  0  0  0  0  0
   -4.0164   -4.3051    0.7808 H   0  0  0  0  0  0  0  0  0  0  0  0
   -4.1195   -3.5940   -1.2717 C   0  0  0  0  0  0  0  0  0  0  0  0
   -4.3526   -4.5832   -1.6942 H   0  0  0  0  0  0  0  0  0  0  0  0
   -3.9987   -2.4751   -2.1098 C   0  0  0  0  0  0  0  0  0  0  0  0
   -4.1223   -2.5821   -3.1980 H   0  0  0  0  0  0  0  0  0  0  0  0
   -3.7021   -1.2177   -1.5702 C   0  0  0  0  0  0  0  0  0  0  0  0
   -3.5769   -0.3690   -2.2566 H   0  0  0  0  0  0  0  0  0  0  0  0
   -1.6719    0.6870    0.1983 C   0  0  0  0  0  2  0  0  0  0  0  0
   -0.3822    2.7925   -0.0361 C   0  0  0  0  0  0  0  0  0  0  0  0
    0.0732    3.2870    1.2175 C   0  0  0  0  0  0  0  0  0  0  0  0
   -0.5340    2.8829    2.5463 C   0  0  0  0  0  0  0  0  0  0  0  0
   -1.4611    2.3080    2.3858 H   0  0  0  0  0  0  0  0  0  0  0  0
   -0.8239    3.8030    3.0990 H   0  0  0  0  0  0  0  0  0  0  0  0
    0.4148    2.0392    3.4114 C   0  0  0  0  0  0  0  0  0  0  0  0
   -0.0493    1.8232    4.3944 H   0  0  0  0  0  0  0  0  0  0  0  0
    0.6267    1.0652    2.9287 H   0  0  0  0  0  0  0  0  0  0  0  0
    1.3765    2.5586    3.5968 H   0  0  0  0  0  0  0  0  0  0  0  0
    1.2038    4.1267    1.2300 C   0  0  0  0  0  0  0  0  0  0  0  0
    1.5594    4.5240    2.1934 H   0  0  0  0  0  0  0  0  0  0  0  0
    1.8815    4.4490    0.0495 C   0  0  0  0  0  0  0  0  0  0  0  0
    2.7575    5.1146    0.0777 H   0  0  0  0  0  0  0  0  0  0  0  0
    1.4577    3.8971   -1.1642 C   0  0  0  0  0  0  0  0  0  0  0  0
    2.0197    4.1145   -2.0847 H   0  0  0  0  0  0  0  0  0  0  0  0
    0.3343    3.0493   -1.2365 C   0  0  0  0  0  0  0  0  0  0  0  0
    0.0039    2.3819   -2.5565 C   0  0  0  0  0  0  0  0  0  0  0  0
   -0.7971    1.6353   -2.4055 H   0  0  0  0  0  0  0  0  0  0  0  0
   -0.3921    3.1446   -3.2625 H   0  0  0  0  0  0  0  0  0  0  0  0
    1.2039    1.6711   -3.1959 C   0  0  0  0  0  0  0  0  0  0  0  0
    0.8940    1.1655   -4.1313 H   0  0  0  0  0  0  0  0  0  0  0  0
    2.0281    2.3691   -3.4455 H   0  0  0  0  0  0  0  0  0  0  0  0
    1.5998    0.8901   -2.5176 H   0  0  0  0  0  0  0  0  0  0  0  0
  1 31  1  0  0  0  0
  1 30  1  0  0  0  0
  2  1  1  0  0  0  0
  2  3  1  0  0  0  0
  3  6  1  0  0  0  0
  3  5  1  0  0  0  0
  4  3  1  0  0  0  0
  7  2  1  0  0  0  0
  8  7  1  0  0  0  0
  9  7  1  0  0  0  0
 10  7  1  0  0  0  0
 11  2  1  0  0  0  0
 11 13  1  0  0  0  0
 11 14  1  0  0  0  0
 12 11  1  0  0  0  0
 14 15  1  1  0  0  0
 15 18  1  0  0  0  0
 15 17  1  0  0  0  0
 15 16  1  0  0  0  0
 19 14  1  0  0  0  0
 19 20  1  0  0  0  0
 20 21  1  0  0  0  0
 22 20  2  0  0  0  0
 22 23  1  0  0  0  0
 24 22  1  0  0  0  0
 25 24  1  0  0  0  0
 26 28  1  0  0  0  0
 26 24  2  0  0  0  0
 27 26  1  0  0  0  0
 28 19  2  0  0  0  0
 29 28  1  0  0  0  0
 30 14  1  0  0  0  0
 31 32  1  0  0  0  0
 32 40  2  0  0  0  0
 32 33  1  0  0  0  0
 33 35  1  0  0  0  0
 33 36  1  0  0  0  0
 34 33  1  0  0  0  0
 36 39  1  0  0  0  0
 36 37  1  0  0  0  0
 38 36  1  0  0  0  0
 40 41  1  0  0  0  0
 42 43  1  0  0  0  0
 42 40  1  0  0  0  0
 44 42  2  0  0  0  0
 45 44  1  0  0  0  0
 46 44  1  0  0  0  0
 46 31  2  0  0  0  0
 47 48  1  0  0  0  0
 47 46  1  0  0  0  0
 49 47  1  0  0  0  0
 50 47  1  0  0  0  0
 50 53  1  0  0  0  0
 51 50  1  0  0  0  0
 52 50  1  0  0  0  0
M  END
