3
q = 0.0, confidence = 0.998

 51 52  0  0  0  0  0  0  0  0999 V2000
    1.4516   -2.2326    1.0745 N   0  0  0  0  0  0  0  0  0  0  0  0
    2.3749   -0.3623    0.3448 N   0  0  0  0  0  0  0  0  0  0  0  0
    1.1652   -1.0128    0.4878 C   0  0  0  0  0  2  0  0  0  0  0  0
    2.8995   -2.4707    1.1427 C   0  0  0  0  0  0  0  0  0  0  0  0
    3.4541   -1.0599    1.0553 C   0  0  0  0  0  0  0  0  0  0  0  0
    0.5484   -3.4007    1.2416 C   0  0  0  0  0  0  0  0  0  0  0  0
    0.8996   -4.1154    2.5626 C   0  0  0  0  0  0  0  0  0  0  0  0
    0.7222   -4.3617    0.0469 C   0  0  0  0  0  0  0  0  0  0  0  0
   -0.9087   -2.9491    1.3372 C   0  0  0  0  0  0  0  0  0  0  0  0
    2.7038    0.8432   -0.3514 C   0  0  0  0  0  0  0  0  0  0  0  0
    2.8806    2.0474    0.3780 C   0  0  0  0  0  0  0  0  0  0  0  0
    3.2909    3.1961   -0.3265 C   0  0  0  0  0  0  0  0  0  0  0  0
    3.5034    3.1581   -1.7086 C   0  0  0  0  0  0  0  0  0  0  0  0
    3.3123    1.9624   -2.4139 C   0  0  0  0  0  0  0  0  0  0  0  0
    2.9189    0.7821   -1.7570 C   0  0  0  0  0  0  0  0  0  0  0  0
    2.5997    2.1344    1.8708 C   0  0  0  0  0  0  0  0  0  0  0  0
    3.9036    2.2825    2.6755 C   0  0  0  0  0  0  0  0  0  0  0  0
    1.6161    3.2688    2.1995 C   0  0  0  0  0  0  0  0  0  0  0  0
    2.7386   -0.5146   -2.5359 C   0  0  0  0  0  0  0  0  0  0  0  0
    4.0570   -1.3095   -2.5913 C   0  0  0  0  0  0  0  0  0  0  0  0
    2.1769   -0.2983   -3.9467 C   0  0  0  0  0  0  0  0  0  0  0  0
    3.2358   -3.1010    0.2867 H   0  0  0  0  0  0  0  0  0  0  0  0
    3.1866   -2.9783    2.0815 H   0  0  0  0  0  0  0  0  0  0  0  0
    3.6038   -0.6113    2.0635 H   0  0  0  0  0  0  0  0  0  0  0  0
    4.4072   -0.9889    0.4978 H   0  0  0  0  0  0  0  0  0  0  0  0
    1.8947   -4.6013    2.5312 H   0  0  0  0  0  0  0  0  0  0  0  0
    0.1562   -4.9124    2.7594 H   0  0  0  0  0  0  0  0  0  0  0  0
    0.8750   -3.4001    3.4088 H   0  0  0  0  0  0  0  0  0  0  0  0
    0.4451   -3.8536   -0.8985 H   0  0  0  0  0  0  0  0  0  0  0  0
    0.0672   -5.2468    0.1727 H   0  0  0  0  0  0  0  0  0  0  0  0
    1.7644   -4.7304   -0.0344 H   0  0  0  0  0  0  0  0  0  0  0  0
   -1.0876   -2.3068    2.2178 H   0  0  0  0  0  0  0  0  0  0  0  0
   -1.5689   -3.8363    1.4059 H   0  0  0  0  0  0  0  0  0  0  0  0
   -1.2517   -2.4439    0.3983 H   0  0  0  0  0  0  0  0  0  0  0  0
    3.4312    4.1404    0.2210 H   0  0  0  0  0  0  0  0  0  0  0  0
    3.8171    4.0675   -2.2437 H   0  0  0  0  0  0  0  0  0  0  0  0
    3.4724    1.9445   -3.5014 H   0  0  0  0  0  0  0  0  0  0  0  0
    2.1028    1.1891    2.1715 H   0  0  0  0  0  0  0  0  0  0  0  0
    4.6165    1.4598    2.4642 H   0  0  0  0  0  0  0  0  0  0  0  0
    3.6926    2.2836    3.7644 H   0  0  0  0  0  0  0  0  0  0  0  0
    4.4181    3.2353    2.4303 H   0  0  0  0  0  0  0  0  0  0  0  0
    2.0494    4.2675    1.9826 H   0  0  0  0  0  0  0  0  0  0  0  0
    1.3491    3.2425    3.2748 H   0  0  0  0  0  0  0  0  0  0  0  0
    0.6751    3.1613    1.6251 H   0  0  0  0  0  0  0  0  0  0  0  0
    1.9926   -1.1252   -1.9888 H   0  0  0  0  0  0  0  0  0  0  0  0
    4.8411   -0.7382   -3.1309 H   0  0  0  0  0  0  0  0  0  0  0  0
    3.9093   -2.2723   -3.1222 H   0  0  0  0  0  0  0  0  0  0  0  0
    4.4500   -1.5376   -1.5807 H   0  0  0  0  0  0  0  0  0  0  0  0
    1.2484    0.3049   -3.9200 H   0  0  0  0  0  0  0  0  0  0  0  0
    1.9225   -1.2752   -4.4035 H   0  0  0  0  0  0  0  0  0  0  0  0
    2.9062    0.2020   -4.6177 H   0  0  0  0  0  0  0  0  0  0  0  0
  1  4  1  0  0  0  0
  1  6  1  0  0  0  0
  2  3  1  0  0  0  0
  2  5  1  0  0  0  0
  3  1  1  0  0  0  0
  4 23  1  0  0  0  0
  5  4  1  0  0  0  0
  5 24  1  0  0  0  0
  6  9  1  0  0  0  0
  6  7  1  0  0  0  0
  7 27  1  0  0  0  0
  7 28  1  0  0  0  0
  8 30  1  0  0  0  0
  8  6  1  0  0  0  0
  9 33  1  0  0  0  0
  9 32  1  0  0  0  0
 10  2  1  0  0  0  0
 10 11  1  0  0  0  0
 11 16  1  0  0  0  0
 12 35  1  0  0  0  0
 12 11  2  0  0  0  0
 13 12  1  0  0  0  0
 14 15  1  0  0  0  0
 14 13  2  0  0  0  0
 15 10  2  0  0  0  0
 16 38  1  0  0  0  0
 16 18  1  0  0  0  0
 16 17  1  0  0  0  0
 17 40  1  0  0  0  0
 18 43  1  0  0  0  0
 19 45  1  0  0  0  0
 19 15  1  0  0  0  0
 20 19  1  0  0  0  0
 20 48  1  0  0  0  0
 21 49  1  0  0  0  0
 21 19  1  0  0  0  0
 22  4  1  0  0  0  0
 25  5  1  0  0  0  0
 26  7  1  0  0  0  0
 29  8  1  0  0  0  0
 31  8  1  0  0  0  0
 34  9  1  0  0  0  0
 36 13  1  0  0  0  0
 37 14  1  0  0  0  0
 39 17  1  0  0  0  0
 41 17  1  0  0  0  0
 42 18  1  0  0  0  0
 44 18  1  0  0  0  0
 46 20  1  0  0  0  0
 47 20  1  0  0  0  0
 50 21  1  0  0  0  0
 51 21  1  0  0  0  0
M  END
