2
q = 0.0, confidence = 0.95

 41 42  0  0  0  0  0  0  0  0999 V2000
   -0.0597   -0.5590    2.4586 N   0  0  0  0  0  0  0  0  0  0  0  0
    0.2187   -0.2761    1.1712 C   0  0  0  0  0  2  0  0  0  0  0  0
    1.4265    0.5580    0.9955 C   0  0  0  0  0  0  0  0  0  0  0  0
    2.5788    0.2972    0.3010 C   0  0  0  0  0  0  0  0  0  0  0  0
    2.9015   -1.0588   -0.2080 C   0  0  0  0  0  0  0  0  0  0  0  0
    2.7331   -2.2008    0.6064 C   0  0  0  0  0  0  0  0  0  0  0  0
    3.0531   -3.4798    0.1270 C   0  0  0  0  0  0  0  0  0  0  0  0
    3.5352   -3.6400   -1.1819 C   0  0  0  0  0  0  0  0  0  0  0  0
    3.7113   -2.5114   -2.0020 C   0  0  0  0  0  0  0  0  0  0  0  0
    3.4120   -1.2316   -1.5163 C   0  0  0  0  0  0  0  0  0  0  0  0
    3.5608    1.3825    0.0642 C   0  0  0  0  0  0  0  0  0  0  0  0
    3.1330    2.7107   -0.1710 C   0  0  0  0  0  0  0  0  0  0  0  0
    4.0618    3.7376   -0.3763 C   0  0  0  0  0  0  0  0  0  0  0  0
    5.4387    3.4582   -0.3520 C   0  0  0  0  0  0  0  0  0  0  0  0
    5.8783    2.1436   -0.1291 C   0  0  0  0  0  0  0  0  0  0  0  0
    4.9497    1.1137    0.0711 C   0  0  0  0  0  0  0  0  0  0  0  0
    0.8969   -0.2809    3.5570 C   0  0  0  0  0  0  0  0  0  0  0  0
    0.6053    0.9971    4.3415 C   0  0  0  0  0  0  0  0  0  0  0  0
   -1.3391   -1.1248    2.9018 C   0  0  0  0  0  0  0  0  0  0  0  0
   -1.2520   -2.5408    3.4671 C   0  0  0  0  0  0  0  0  0  0  0  0
    1.3574    1.5472    1.4829 H   0  0  0  0  0  0  0  0  0  0  0  0
    2.3831   -2.0763    1.6419 H   0  0  0  0  0  0  0  0  0  0  0  0
    2.9400   -4.3565    0.7830 H   0  0  0  0  0  0  0  0  0  0  0  0
    3.7889   -4.6422   -1.5587 H   0  0  0  0  0  0  0  0  0  0  0  0
    4.0957   -2.6296   -3.0262 H   0  0  0  0  0  0  0  0  0  0  0  0
    3.5549   -0.3495   -2.1570 H   0  0  0  0  0  0  0  0  0  0  0  0
    2.0554    2.9276   -0.2300 H   0  0  0  0  0  0  0  0  0  0  0  0
    3.7111    4.7619   -0.5731 H   0  0  0  0  0  0  0  0  0  0  0  0
    6.1686    4.2648   -0.5166 H   0  0  0  0  0  0  0  0  0  0  0  0
    6.9551    1.9184   -0.1094 H   0  0  0  0  0  0  0  0  0  0  0  0
    5.3003    0.0868    0.2524 H   0  0  0  0  0  0  0  0  0  0  0  0
    0.8744   -1.1565    4.2365 H   0  0  0  0  0  0  0  0  0  0  0  0
    1.9100   -0.2397    3.1149 H   0  0  0  0  0  0  0  0  0  0  0  0
    0.7263    1.9028    3.7170 H   0  0  0  0  0  0  0  0  0  0  0  0
   -0.4176    1.0043    4.7676 H   0  0  0  0  0  0  0  0  0  0  0  0
    1.3153    1.0771    5.1878 H   0  0  0  0  0  0  0  0  0  0  0  0
   -1.7621   -0.4402    3.6691 H   0  0  0  0  0  0  0  0  0  0  0  0
   -2.0068   -1.0918    2.0238 H   0  0  0  0  0  0  0  0  0  0  0  0
   -2.2717   -2.9134    3.6884 H   0  0  0  0  0  0  0  0  0  0  0  0
   -0.7789   -3.2394    2.7506 H   0  0  0  0  0  0  0  0  0  0  0  0
   -0.6814   -2.5875    4.4154 H   0  0  0  0  0  0  0  0  0  0  0  0
  1 19  1  0  0  0  0
  1 17  1  0  0  0  0
  2  1  1  0  0  0  0
  3  2  1  0  0  0  0
  3 21  1  0  0  0  0
  4  3  2  0  0  0  0
  5  4  1  0  0  0  0
  5  6  1  0  0  0  0
  6 22  1  0  0  0  0
  7  6  2  0  0  0  0
  7 23  1  0  0  0  0
  8  7  1  0  0  0  0
  9 10  1  0  0  0  0
  9  8  2  0  0  0  0
 10  5  2  0  0  0  0
 11 16  1  0  0  0  0
 11  4  1  0  0  0  0
 12 11  2  0  0  0  0
 13 14  2  0  0  0  0
 13 12  1  0  0  0  0
 14 15  1  0  0  0  0
 15 30  1  0  0  0  0
 15 16  2  0  0  0  0
 16 31  1  0  0  0  0
 17 32  1  0  0  0  0
 17 18  1  0  0  0  0
 18 35  1  0  0  0  0
 18 36  1  0  0  0  0
 19 20  1  0  0  0  0
 19 37  1  0  0  0  0
 20 39  1  0  0  0  0
 20 41  1  0  0  0  0
 24  8  1  0  0  0  0
 25  9  1  0  0  0  0
 26 10  1  0  0  0  0
 27 12  1  0  0  0  0
 28 13  1  0  0  0  0
 29 14  1  0  0  0  0
 33 17  1  0  0  0  0
 34 18  1  0  0  0  0
 38 19  1  0  0  0  0
 40 20  1  0  0  0  0
M  END
