1
q = 0.0, confidence = 0.994

 50 51  0  0  0  0  0  0  0  0999 V2000
    0.6399    0.1199    1.0000 C   0  0  0  0  0  2  0  0  0  0  0  0
    1.0994    0.8541    2.0190 N   0  0  0  0  0  0  0  0  0  0  0  0
    0.2632    1.5329    3.0320 C   0  0  0  0  0  0  0  0  0  0  0  0
    0.4910    1.0923    4.0266 H   0  0  0  0  0  0  0  0  0  0  0  0
   -0.8028    1.3617    2.7992 H   0  0  0  0  0  0  0  0  0  0  0  0
    0.5815    3.0340    3.0470 C   0  0  0  0  0  0  0  0  0  0  0  0
    0.2503    3.4847    2.0791 H   0  0  0  0  0  0  0  0  0  0  0  0
    0.0170    3.5234    3.8654 H   0  0  0  0  0  0  0  0  0  0  0  0
    1.9542    3.2851    3.2739 O   0  0  0  0  0  0  0  0  0  0  0  0
    2.7434    2.6697    2.2712 C   0  0  0  0  0  0  0  0  0  0  0  0
    3.8038    2.8870    2.5063 H   0  0  0  0  0  0  0  0  0  0  0  0
    2.5159    3.0966    1.2639 H   0  0  0  0  0  0  0  0  0  0  0  0
    2.5202    1.1558    2.2368 C   0  0  0  0  0  0  0  0  0  0  0  0
    3.1116    0.6776    1.4393 H   0  0  0  0  0  0  0  0  0  0  0  0
    2.8167    0.7148    3.2130 H   0  0  0  0  0  0  0  0  0  0  0  0
   -0.8421   -0.1131    1.0307 C   0  0  0  0  0  0  0  0  0  0  0  0
   -1.3451   -1.0921    1.8651 C   0  0  0  0  0  0  0  0  0  0  0  0
   -0.4844   -2.0267    2.6657 C   0  0  0  0  0  0  0  0  0  0  0  0
   -0.6513   -3.0797    2.3583 H   0  0  0  0  0  0  0  0  0  0  0  0
   -0.7225   -1.9571    3.7485 H   0  0  0  0  0  0  0  0  0  0  0  0
    0.5884   -1.8117    2.5166 H   0  0  0  0  0  0  0  0  0  0  0  0
   -2.6864   -1.1818    2.0140 O   0  0  0  0  0  0  0  0  0  0  0  0
   -3.3051   -2.4682    2.1919 C   0  0  0  0  0  0  0  0  0  0  0  0
   -2.9588   -2.9310    3.1429 H   0  0  0  0  0  0  0  0  0  0  0  0
   -3.0000   -3.1330    1.3530 H   0  0  0  0  0  0  0  0  0  0  0  0
   -4.8048   -2.2561    2.2026 C   0  0  0  0  0  0  0  0  0  0  0  0
   -5.3228   -3.2247    2.3476 H   0  0  0  0  0  0  0  0  0  0  0  0
   -5.1412   -1.8124    1.2456 H   0  0  0  0  0  0  0  0  0  0  0  0
   -5.0977   -1.5761    3.0270 H   0  0  0  0  0  0  0  0  0  0  0  0
   -1.6772    0.7252    0.1545 C   0  0  0  0  0  0  0  0  0  0  0  0
   -2.9649    0.1813   -0.3628 C   0  0  0  0  0  0  0  0  0  0  0  0
   -4.1744    0.8886   -0.2184 C   0  0  0  0  0  0  0  0  0  0  0  0
   -4.1708    1.8611    0.2928 H   0  0  0  0  0  0  0  0  0  0  0  0
   -5.3720    0.3578   -0.7136 C   0  0  0  0  0  0  0  0  0  0  0  0
   -6.3096    0.9203   -0.5881 H   0  0  0  0  0  0  0  0  0  0  0  0
   -5.3776   -0.8804   -1.3772 C   0  0  0  0  0  0  0  0  0  0  0  0
   -6.3183   -1.2914   -1.7744 H   0  0  0  0  0  0  0  0  0  0  0  0
   -4.1750   -1.5884   -1.5349 C   0  0  0  0  0  0  0  0  0  0  0  0
   -4.1658   -2.5555   -2.0604 H   0  0  0  0  0  0  0  0  0  0  0  0
   -2.9793   -1.0651   -1.0244 C   0  0  0  0  0  0  0  0  0  0  0  0
   -2.0410   -1.6250   -1.1428 H   0  0  0  0  0  0  0  0  0  0  0  0
   -1.1705    1.9435   -0.2341 C   0  0  0  0  0  0  0  0  0  0  0  0
   -0.1906    2.2516    0.1563 H   0  0  0  0  0  0  0  0  0  0  0  0
   -1.6982    2.8574   -1.2611 C   0  0  0  0  0  0  0  0  0  0  0  0
   -2.7632    2.8203   -1.8555 O   0  0  0  0  0  0  0  0  0  0  0  0
   -0.7585    3.8315   -1.4970 O   0  0  0  0  0  0  0  0  0  0  0  0
   -1.1114    4.7705   -2.5128 C   0  0  0  0  0  0  0  0  0  0  0  0
   -0.2793    5.4955   -2.5667 H   0  0  0  0  0  0  0  0  0  0  0  0
   -2.0618    5.2874   -2.2663 H   0  0  0  0  0  0  0  0  0  0  0  0
   -1.2444    4.2649   -3.4913 H   0  0  0  0  0  0  0  0  0  0  0  0
  1 16  1  0  0  0  0
  1  2  1  0  0  0  0
  2 13  1  0  0  0  0
  2  3  1  0  0  0  0
  3  6  1  0  0  0  0
  3  4  1  0  0  0  0
  5  3  1  0  0  0  0
  6  9  1  0  0  0  0
  6  8  1  0  0  0  0
  7  6  1  0  0  0  0
 10 11  1  0  0  0  0
 10  9  1  0  0  0  0
 12 10  1  0  0  0  0
 13 10  1  0  0  0  0
 13 15  1  0  0  0  0
 14 13  1  0  0  0  0
 16 17  2  0  0  0  0
 17 22  1  0  0  0  0
 17 18  1  0  0  0  0
 18 20  1  0  0  0  0
 19 18  1  0  0  0  0
 21 18  1  0  0  0  0
 22 23  1  0  0  0  0
 23 26  1  0  0  0  0
 23 24  1  0  0  0  0
 25 23  1  0  0  0  0
 26 27  1  0  0  0  0
 26 29  1  0  0  0  0
 28 26  1  0  0  0  0
 30 16  1  0  0  0  0
 31 32  1  0  0  0  0
 31 30  1  0  0  0  0
 32 33  1  0  0  0  0
 34 35  1  0  0  0  0
 34 32  2  0  0  0  0
 36 34  1  0  0  0  0
 37 36  1  0  0  0  0
 38 36  2  0  0  0  0
 38 40  1  0  0  0  0
 39 38  1  0  0  0  0
 40 31  2  0  0  0  0
 41 40  1  0  0  0  0
 42 30  2  0  0  0  0
 42 43  1  0  0  0  0
 44 42  1  0  0  0  0
 45 44  2  0  0  0  0
 46 44  1  0  0  0  0
 47 49  1  0  0  0  0
 47 46  1  0  0  0  0
 48 47  1  0  0  0  0
 50 47  1  0  0  0  0
M  END
