1
q = 0.0, confidence = 1.0

 40 40  0  0  1  0  0  0  0  0999 V2000
    1.0765   -0.2438    0.2479 C   0  0  0  0  0  2  0  0  0  0  0  0
   -0.1847    0.1711   -0.6063 C   0  0  0  0  0  0  0  0  0  0  0  0
   -0.3308    1.6805   -0.8249 C   0  0  0  0  0  0  0  0  0  0  0  0
    0.4759    2.0419   -1.4928 H   0  0  0  0  0  0  0  0  0  0  0  0
   -0.2579    2.2365    0.1302 H   0  0  0  0  0  0  0  0  0  0  0  0
   -1.2963    1.9365   -1.3099 H   0  0  0  0  0  0  0  0  0  0  0  0
   -0.3389   -0.6231   -1.9060 C   0  0  0  0  0  0  0  0  0  0  0  0
   -0.2482   -1.7129   -1.7275 H   0  0  0  0  0  0  0  0  0  0  0  0
    0.4501   -0.3285   -2.6250 H   0  0  0  0  0  0  0  0  0  0  0  0
   -1.3157   -0.4240   -2.3968 H   0  0  0  0  0  0  0  0  0  0  0  0
   -0.9327   -0.3932    0.6042 C   0  0  0  0  0  0  0  0  0  0  0  0
    0.2431   -0.7743    1.2727 C   0  0  0  0  0  0  0  0  0  0  0  0
    0.4937   -1.4413    2.5843 C   0  0  0  0  0  0  0  0  0  0  0  0
   -0.4477   -1.7881    3.0567 H   0  0  0  0  0  0  0  0  0  0  0  0
    0.9998   -0.7594    3.2976 H   0  0  0  0  0  0  0  0  0  0  0  0
    1.1551   -2.3227    2.4643 H   0  0  0  0  0  0  0  0  0  0  0  0
   -2.2365   -0.4563    0.8949 N   0  0  0  0  0  0  0  0  0  0  0  0
   -2.4970   -0.7309    1.8478 H   0  0  0  0  0  0  0  0  0  0  0  0
   -3.2842    0.1547    0.0926 C   0  0  2  0  0  0  0  0  0  0  0  0
   -2.9576    0.1422   -0.9648 H   0  0  0  0  0  0  0  0  0  0  0  0
   -3.4728    1.6193    0.5105 C   0  0  0  0  0  0  0  0  0  0  0  0
   -3.1551    2.0770    1.5890 O   0  0  0  0  0  0  0  0  0  0  0  0
   -4.0637    2.3174   -0.4819 O   0  0  0  0  0  0  0  0  0  0  0  0
   -4.3199    3.7029   -0.1947 C   0  0  0  0  0  0  0  0  0  0  0  0
   -4.8169    4.1134   -1.0907 H   0  0  0  0  0  0  0  0  0  0  0  0
   -3.3700    4.2383    0.0025 H   0  0  0  0  0  0  0  0  0  0  0  0
   -4.9721    3.8039    0.6953 H   0  0  0  0  0  0  0  0  0  0  0  0
   -4.6126   -0.6111    0.2238 C   0  0  0  0  0  0  0  0  0  0  0  0
   -4.9712   -0.5130    1.2730 H   0  0  0  0  0  0  0  0  0  0  0  0
   -5.3610   -0.0877   -0.4079 H   0  0  0  0  0  0  0  0  0  0  0  0
   -4.5523   -2.0999   -0.1645 C   0  0  0  0  0  0  0  0  0  0  0  0
   -3.8119   -2.5928    0.5056 H   0  0  0  0  0  0  0  0  0  0  0  0
   -5.9179   -2.7538    0.0794 C   0  0  0  0  0  0  0  0  0  0  0  0
   -6.2506   -2.6291    1.1302 H   0  0  0  0  0  0  0  0  0  0  0  0
   -5.8861   -3.8399   -0.1393 H   0  0  0  0  0  0  0  0  0  0  0  0
   -6.6949   -2.3032   -0.5740 H   0  0  0  0  0  0  0  0  0  0  0  0
   -4.0846   -2.3070   -1.6096 C   0  0  0  0  0  0  0  0  0  0  0  0
   -4.0987   -3.3824   -1.8772 H   0  0  0  0  0  0  0  0  0  0  0  0
   -3.0497   -1.9465   -1.7745 H   0  0  0  0  0  0  0  0  0  0  0  0
   -4.7500   -1.7764   -2.3238 H   0  0  0  0  0  0  0  0  0  0  0  0
  1 12  1  0  0  0  0
  2  1  1  0  0  0  0
  2 11  1  0  0  0  0
  3  2  1  0  0  0  0
  3  5  1  0  0  0  0
  4  3  1  0  0  0  0
  6  3  1  0  0  0  0
  7  8  1  0  0  0  0
  7  2  1  0  0  0  0
  9  7  1  0  0  0  0
 10  7  1  0  0  0  0
 11 17  1  0  0  0  0
 11 12  2  0  0  0  0
 12 13  1  0  0  0  0
 13 14  1  0  0  0  0
 13 15  1  0  0  0  0
 16 13  1  0  0  0  0
 17 18  1  0  0  0  0
 19 20  1  6  0  0  0
 19 28  1  0  0  0  0
 19 21  1  0  0  0  0
 19 17  1  0  0  0  0
 21 22  2  0  0  0  0
 23 24  1  0  0  0  0
 23 21  1  0  0  0  0
 24 26  1  0  0  0  0
 24 27  1  0  0  0  0
 25 24  1  0  0  0  0
 28 29  1  0  0  0  0
 30 28  1  0  0  0  0
 31 33  1  0  0  0  0
 31 28  1  0  0  0  0
 31 32  1  0  0  0  0
 33 34  1  0  0  0  0
 35 33  1  0  0  0  0
 36 33  1  0  0  0  0
 37 31  1  0  0  0  0
 38 37  1  0  0  0  0
 39 37  1  0  0  0  0
 40 37  1  0  0  0  0
M  END
