6
q = -2.0, confidence = 0.826

 47 49  0  0  0  0  0  0  0  0999 V2000
   -1.4054    1.2571    2.5256 S   0  0  0  0  0  0  0  0  0  0  0  0
    0.5643   -1.5547   -0.9459 S   0  0  0  0  0  0  0  0  0  0  0  0
    1.0762    1.0558    0.7930 P   0  0  0  0  0  4  0  0  0  0  0  0
    0.5824   -0.7874   -2.2299 O   0  0  0  0  0  0  0  0  0  0  0  0
   -0.2955   -2.7666   -0.8429 O   0  0  0  0  0  0  0  0  0  0  0  0
    0.1315   -0.4803    0.4381 C   0  0  0  0  0  3  0  0  0  0  0  0
    0.3536   -1.1190    1.3209 H   0  0  0  0  0  0  0  0  0  0  0  0
    2.8960    0.8236    0.6811 C   0  0  0  0  0  0  0  0  0  0  0  0
    3.5050   -0.0664    1.5926 C   0  0  0  0  0  0  0  0  0  0  0  0
    2.8881   -0.6169    2.3182 H   0  0  0  0  0  0  0  0  0  0  0  0
    4.8934   -0.2445    1.5799 C   0  0  0  0  0  0  0  0  0  0  0  0
    5.3576   -0.9468    2.2882 H   0  0  0  0  0  0  0  0  0  0  0  0
    5.6898    0.4710    0.6701 C   0  0  0  0  0  0  0  0  0  0  0  0
    6.7818    0.3333    0.6670 H   0  0  0  0  0  0  0  0  0  0  0  0
    5.0902    1.3614   -0.2322 C   0  0  0  0  0  0  0  0  0  0  0  0
    5.7091    1.9279   -0.9446 H   0  0  0  0  0  0  0  0  0  0  0  0
    3.6977    1.5383   -0.2306 C   0  0  0  0  0  0  0  0  0  0  0  0
    3.2344    2.2406   -0.9383 H   0  0  0  0  0  0  0  0  0  0  0  0
    0.7162    2.4241   -0.3672 C   0  0  0  0  0  0  0  0  0  0  0  0
    0.7033    2.2500   -1.7677 C   0  0  0  0  0  0  0  0  0  0  0  0
    0.8183    1.2399   -2.1904 H   0  0  0  0  0  0  0  0  0  0  0  0
    0.5177    3.3601   -2.6060 C   0  0  0  0  0  0  0  0  0  0  0  0
    0.5019    3.2173   -3.6975 H   0  0  0  0  0  0  0  0  0  0  0  0
    0.3557    4.6451   -2.0609 C   0  0  0  0  0  0  0  0  0  0  0  0
    0.2139    5.5124   -2.7237 H   0  0  0  0  0  0  0  0  0  0  0  0
    0.3756    4.8194   -0.6684 C   0  0  0  0  0  0  0  0  0  0  0  0
    0.2466    5.8221   -0.2338 H   0  0  0  0  0  0  0  0  0  0  0  0
    0.5541    3.7143    0.1783 C   0  0  0  0  0  0  0  0  0  0  0  0
    0.5669    3.8463    1.2698 H   0  0  0  0  0  0  0  0  0  0  0  0
    2.2469   -2.1571   -0.6693 C   0  0  0  0  0  0  0  0  0  0  0  0
    2.4532   -3.1557    0.2954 C   0  0  0  0  0  0  0  0  0  0  0  0
    1.6014   -3.5477    0.8704 H   0  0  0  0  0  0  0  0  0  0  0  0
    3.7496   -3.6538    0.4852 C   0  0  0  0  0  0  0  0  0  0  0  0
    3.9287   -4.4372    1.2370 H   0  0  0  0  0  0  0  0  0  0  0  0
    4.8130   -3.1649   -0.2923 C   0  0  0  0  0  0  0  0  0  0  0  0
    5.8288   -3.5608   -0.1416 H   0  0  0  0  0  0  0  0  0  0  0  0
    4.5851   -2.1767   -1.2632 C   0  0  0  0  0  0  0  0  0  0  0  0
    5.4190   -1.7969   -1.8719 H   0  0  0  0  0  0  0  0  0  0  0  0
    3.2939   -1.6654   -1.4593 C   0  0  0  0  0  0  0  0  0  0  0  0
    3.0840   -0.8984   -2.2176 H   0  0  0  0  0  0  0  0  0  0  0  0
    0.5273    1.4322    2.6107 B   0  0  0  0  0  0  0  0  0  0  0  0
   -1.8280   -0.5591    2.8898 B   0  0  0  0  0  0  0  0  0  0  0  0
    1.0380    0.5684    3.3100 H   0  0  0  0  0  0  0  0  0  0  0  0
   -0.8989   -1.1811    3.3892 H   0  0  0  0  0  0  0  0  0  0  0  0
   -1.8046   -1.2841    1.7014 H   0  0  0  0  0  0  0  0  0  0  0  0
   -2.9429   -0.7021    3.3666 H   0  0  0  0  0  0  0  0  0  0  0  0
    0.8319    2.5732    2.9303 H   0  0  0  0  0  0  0  0  0  0  0  0
  1 41  1  0  0  0  0
  1 42  1  0  0  0  0
  2  5  2  0  0  0  0
  2 30  1  0  0  0  0
  2  6  1  0  0  0  0
  3 41  1  0  0  0  0
  4  2  2  0  0  0  0
  6  3  1  0  0  0  0
  6  7  1  0  0  0  0
  8  3  1  0  0  0  0
  8  9  1  0  0  0  0
  9 10  1  0  0  0  0
 11  9  2  0  0  0  0
 11 12  1  0  0  0  0
 13 11  1  0  0  0  0
 14 13  1  0  0  0  0
 15 17  1  0  0  0  0
 15 13  2  0  0  0  0
 16 15  1  0  0  0  0
 17  8  2  0  0  0  0
 18 17  1  0  0  0  0
 19 28  1  0  0  0  0
 19  3  1  0  0  0  0
 20 19  2  0  0  0  0
 21 20  1  0  0  0  0
 22 24  2  0  0  0  0
 22 20  1  0  0  0  0
 23 22  1  0  0  0  0
 24 26  1  0  0  0  0
 25 24  1  0  0  0  0
 26 27  1  0  0  0  0
 26 28  2  0  0  0  0
 28 29  1  0  0  0  0
 30 31  1  0  0  0  0
 31 33  2  0  0  0  0
 31 32  1  0  0  0  0
 33 34  1  0  0  0  0
 35 36  1  0  0  0  0
 35 33  1  0  0  0  0
 37 35  2  0  0  0  0
 38 37  1  0  0  0  0
 39 37  1  0  0  0  0
 39 30  2  0  0  0  0
 40 39  1  0  0  0  0
 41 47  1  0  0  0  0
 41 43  1  0  0  0  0
 42 46  1  0  0  0  0
 42 44  1  0  0  0  0
 45 42  1  0  0  0  0
M  END
