5
q = 0.0, confidence = 0.97

 44 49  0  0  1  0  0  0  0  0999 V2000
   -0.6931    0.3199   -1.9757 C   0  0  0  0  0  0  0  0  0  0  0  0
   -0.3124    1.2690   -2.3726 H   0  0  0  0  0  0  0  0  0  0  0  0
   -1.8248   -0.2966   -2.5989 C   0  0  0  0  0  0  0  0  0  0  0  0
   -2.3131    0.2021   -3.4470 H   0  0  0  0  0  0  0  0  0  0  0  0
   -2.3578   -1.4997   -2.0814 C   0  0  0  0  0  3  0  0  0  0  0  0
   -3.2590   -1.9420   -2.5272 H   0  0  0  0  0  0  0  0  0  0  0  0
   -1.7250   -2.1324   -0.9634 C   0  0  0  0  0  0  0  0  0  0  0  0
   -2.1238   -3.0728   -0.5578 H   0  0  0  0  0  0  0  0  0  0  0  0
   -0.5995   -1.5318   -0.3659 C   0  0  0  0  0  0  0  0  0  0  0  0
    0.2716   -1.4910    3.1586 C   0  0  0  0  0  0  0  0  0  0  0  0
   -0.1238   -2.4711    3.4671 H   0  0  0  0  0  0  0  0  0  0  0  0
    0.5266   -0.4888    4.1091 C   0  0  0  0  0  0  0  0  0  0  0  0
    0.3311   -0.6807    5.1747 H   0  0  0  0  0  0  0  0  0  0  0  0
    1.0232    0.7564    3.6981 C   0  0  0  0  0  0  0  0  0  0  0  0
    1.2175    1.5428    4.4427 H   0  0  0  0  0  0  0  0  0  0  0  0
    1.2676    1.0176    2.3387 C   0  0  0  0  0  0  0  0  0  0  0  0
    1.6469    2.0004    2.0274 H   0  0  0  0  0  0  0  0  0  0  0  0
    1.0136    0.0207    1.3873 C   0  0  0  0  0  0  0  0  0  0  0  0
    1.2290    0.1538   -0.1414 C   0  0  2  0  0  0  0  0  0  0  0  0
   -0.0940   -0.2700   -0.8373 C   0  0  1  0  0  3  0  0  0  0  0  0
    0.3072   -2.1954    0.6661 C   0  0  2  0  0  0  0  0  0  0  0  0
   -0.0774   -3.1786    0.9920 H   0  0  0  0  0  0  0  0  0  0  0  0
    0.5183   -1.2295    1.8074 C   0  0  0  0  0  0  0  0  0  0  0  0
    2.1221   -1.0500   -0.5592 C   0  0  0  0  0  0  0  0  0  0  0  0
    1.6343   -2.2956   -0.0860 C   0  0  0  0  0  0  0  0  0  0  0  0
    2.2891   -3.4900   -0.3994 C   0  0  0  0  0  0  0  0  0  0  0  0
    1.8946   -4.4466   -0.0229 H   0  0  0  0  0  0  0  0  0  0  0  0
    3.4355   -3.4612   -1.2136 C   0  0  0  0  0  0  0  0  0  0  0  0
    3.9598   -4.3971   -1.4585 H   0  0  0  0  0  0  0  0  0  0  0  0
    3.8858   -2.2422   -1.7375 C   0  0  0  0  0  0  0  0  0  0  0  0
    4.7585   -2.2195   -2.4074 H   0  0  0  0  0  0  0  0  0  0  0  0
    3.2256   -1.0389   -1.4233 C   0  0  0  0  0  0  0  0  0  0  0  0
    3.5732   -0.0996   -1.8730 H   0  0  0  0  0  0  0  0  0  0  0  0
    1.7265    1.5596   -0.4461 C   0  0  0  0  0  0  0  0  0  0  0  0
    3.0980    1.8831   -0.3757 C   0  0  0  0  0  0  0  0  0  0  0  0
    3.8349    1.0976   -0.1625 H   0  0  0  0  0  0  0  0  0  0  0  0
    3.5387    3.2072   -0.5249 C   0  0  0  0  0  0  0  0  0  0  0  0
    4.6155    3.4287   -0.4699 H   0  0  0  0  0  0  0  0  0  0  0  0
    2.6153    4.2439   -0.7244 C   0  0  0  0  0  0  0  0  0  0  0  0
    2.9608    5.2818   -0.8444 H   0  0  0  0  0  0  0  0  0  0  0  0
    1.2446    3.9458   -0.7352 C   0  0  0  0  0  0  0  0  0  0  0  0
    0.5018    4.7503   -0.8451 H   0  0  0  0  0  0  0  0  0  0  0  0
    0.8065    2.6219   -0.5845 C   0  0  0  0  0  0  0  0  0  0  0  0
   -0.2713    2.4169   -0.5278 H   0  0  0  0  0  0  0  0  0  0  0  0
  2  1  1  0  0  0  0
  3  5  1  0  0  0  0
  3  1  2  0  0  0  0
  4  3  1  0  0  0  0
  5  7  1  0  0  0  0
  6  5  1  0  0  0  0
  7  8  1  0  0  0  0
  7  9  2  0  0  0  0
  9 21  1  0  0  0  0
 10 11  1  0  0  0  0
 10 12  1  0  0  0  0
 12 13  1  0  0  0  0
 14 12  2  0  0  0  0
 14 15  1  0  0  0  0
 16 14  1  0  0  0  0
 17 16  1  0  0  0  0
 18 23  1  0  0  0  0
 18 16  2  0  0  0  0
 19 34  1  6  0  0  0
 19 18  1  0  0  0  0
 20  1  1  6  0  0  0
 20  9  1  0  0  0  0
 20 19  1  0  0  0  0
 21 22  1  1  0  0  0
 21 23  1  0  0  0  0
 23 10  2  0  0  0  0
 24 19  1  0  0  0  0
 24 25  1  0  0  0  0
 25 21  1  0  0  0  0
 26 25  2  0  0  0  0
 26 27  1  0  0  0  0
 28 26  1  0  0  0  0
 29 28  1  0  0  0  0
 30 32  1  0  0  0  0
 30 28  2  0  0  0  0
 31 30  1  0  0  0  0
 32 24  2  0  0  0  0
 33 32  1  0  0  0  0
 34 35  1  0  0  0  0
 35 36  1  0  0  0  0
 37 38  1  0  0  0  0
 37 35  2  0  0  0  0
 39 37  1  0  0  0  0
 40 39  1  0  0  0  0
 41 39  2  0  0  0  0
 41 43  1  0  0  0  0
 42 41  1  0  0  0  0
 43 44  1  0  0  0  0
 43 34  2  0  0  0  0
M  END
