13
q = 0.0, confidence = 0.994

 40 42  0  0  0  0  0  0  0  0999 V2000
   -0.4078    1.8295   -0.0774 N   0  0  0  0  0  0  0  0  0  0  0  0
   -1.1238   -0.2504   -0.8589 N   0  0  0  0  0  0  0  0  0  0  0  0
   -2.6806    1.6259   -0.9362 C   0  0  0  0  0  0  0  0  0  0  0  0
   -3.9875    2.1136   -1.0752 C   0  0  0  0  0  0  0  0  0  0  0  0
   -4.7292    1.4943   -1.6039 H   0  0  0  0  0  0  0  0  0  0  0  0
   -4.3495    3.3681   -0.5664 C   0  0  0  0  0  0  0  0  0  0  0  0
   -5.3756    3.7444   -0.6875 H   0  0  0  0  0  0  0  0  0  0  0  0
   -3.3797    4.1304    0.0990 C   0  0  0  0  0  0  0  0  0  0  0  0
   -3.6360    5.1190    0.5088 H   0  0  0  0  0  0  0  0  0  0  0  0
   -2.0763    3.6448    0.2665 C   0  0  0  0  0  0  0  0  0  0  0  0
   -1.3544    4.2599    0.8106 H   0  0  0  0  0  0  0  0  0  0  0  0
   -1.7032    2.3809   -0.2456 C   0  0  0  0  0  0  0  0  0  0  0  0
   -0.1500    0.4900   -0.2877 C   0  0  0  0  0  2  0  0  0  0  0  0
   -2.2730    0.3235   -1.5540 C   0  0  0  0  0  0  0  0  0  0  0  0
   -3.1093   -0.4043   -1.5059 H   0  0  0  0  0  0  0  0  0  0  0  0
   -2.0188    0.4521   -2.6369 H   0  0  0  0  0  0  0  0  0  0  0  0
   -0.9903   -1.7020   -0.9850 C   0  0  0  0  0  0  0  0  0  0  0  0
   -0.0006   -1.9509   -0.5374 H   0  0  0  0  0  0  0  0  0  0  0  0
   -0.9621   -1.9754   -2.0639 H   0  0  0  0  0  0  0  0  0  0  0  0
   -2.1059   -2.4429   -0.2821 C   0  0  0  0  0  0  0  0  0  0  0  0
   -2.2782   -2.2865    1.1098 C   0  0  0  0  0  0  0  0  0  0  0  0
   -1.5821   -1.6398    1.6712 H   0  0  0  0  0  0  0  0  0  0  0  0
   -3.3102   -2.9682    1.7687 C   0  0  0  0  0  0  0  0  0  0  0  0
   -3.4332   -2.8464    2.8558 H   0  0  0  0  0  0  0  0  0  0  0  0
   -4.1799   -3.8094    1.0526 C   0  0  0  0  0  0  0  0  0  0  0  0
   -4.9893   -4.3416    1.5754 H   0  0  0  0  0  0  0  0  0  0  0  0
   -4.0120   -3.9700   -0.3309 C   0  0  0  0  0  0  0  0  0  0  0  0
   -4.6891   -4.6265   -0.8986 H   0  0  0  0  0  0  0  0  0  0  0  0
   -2.9795   -3.2864   -0.9939 C   0  0  0  0  0  0  0  0  0  0  0  0
   -2.8469   -3.4099   -2.0815 H   0  0  0  0  0  0  0  0  0  0  0  0
    0.7006    2.6210    0.5257 C   0  0  0  0  0  0  0  0  0  0  0  0
    1.5463    1.8936    0.4565 H   0  0  0  0  0  0  0  0  0  0  0  0
    1.0916    3.8270   -0.3313 C   0  0  0  0  0  0  0  0  0  0  0  0
    1.2760    3.5109   -1.3777 H   0  0  0  0  0  0  0  0  0  0  0  0
    2.0289    4.2660    0.0665 H   0  0  0  0  0  0  0  0  0  0  0  0
    0.3330    4.6337   -0.3502 H   0  0  0  0  0  0  0  0  0  0  0  0
    0.5285    2.8858    2.0246 C   0  0  0  0  0  0  0  0  0  0  0  0
    0.3259    1.9267    2.5424 H   0  0  0  0  0  0  0  0  0  0  0  0
   -0.2696    3.6085    2.2787 H   0  0  0  0  0  0  0  0  0  0  0  0
    1.4814    3.2886    2.4245 H   0  0  0  0  0  0  0  0  0  0  0  0
  1 31  1  0  0  0  0
  2 13  1  0  0  0  0
  3 12  1  0  0  0  0
  4  3  2  0  0  0  0
  4  6  1  0  0  0  0
  5  4  1  0  0  0  0
  6  8  2  0  0  0  0
  7  6  1  0  0  0  0
  8 10  1  0  0  0  0
  8  9  1  0  0  0  0
 10 11  1  0  0  0  0
 12  1  1  0  0  0  0
 12 10  2  0  0  0  0
 13  1  1  0  0  0  0
 14 15  1  0  0  0  0
 14  3  1  0  0  0  0
 14  2  1  0  0  0  0
 16 14  1  0  0  0  0
 17  2  1  0  0  0  0
 17 18  1  0  0  0  0
 17 20  1  0  0  0  0
 19 17  1  0  0  0  0
 20 21  1  0  0  0  0
 21 22  1  0  0  0  0
 21 23  2  0  0  0  0
 23 24  1  0  0  0  0
 25 26  1  0  0  0  0
 25 23  1  0  0  0  0
 27 25  2  0  0  0  0
 28 27  1  0  0  0  0
 29 27  1  0  0  0  0
 29 20  2  0  0  0  0
 30 29  1  0  0  0  0
 31 37  1  0  0  0  0
 32 31  1  0  0  0  0
 33 35  1  0  0  0  0
 33 31  1  0  0  0  0
 34 33  1  0  0  0  0
 36 33  1  0  0  0  0
 37 39  1  0  0  0  0
 37 40  1  0  0  0  0
 37 38  1  0  0  0  0
M  END
