9
q = 0.0, confidence = 1.0

 67 69  0  0  1  0  0  0  0  0999 V2000
   -1.0081   -1.4011   -0.4163 N   0  0  0  0  0  0  0  0  0  0  0  0
   -3.4373    1.3653    0.1894 O   0  0  0  0  0  0  0  0  0  0  0  0
    1.0084   -1.4010    0.4164 N   0  0  0  0  0  0  0  0  0  0  0  0
    3.4371    1.3655   -0.1898 O   0  0  0  0  0  0  0  0  0  0  0  0
   -3.7731   -0.3018   -2.8303 C   0  0  0  0  0  0  0  0  0  0  0  0
   -3.5229    0.7680   -2.6852 H   0  0  0  0  0  0  0  0  0  0  0  0
   -4.6867   -0.5187   -2.2411 H   0  0  0  0  0  0  0  0  0  0  0  0
   -4.0112   -0.4606   -3.9013 H   0  0  0  0  0  0  0  0  0  0  0  0
    0.0001   -0.5725    0.0001 C   0  0  0  0  0  2  0  0  0  0  0  0
    0.6367   -2.7283    0.2568 C   0  0  0  0  0  0  0  0  0  0  0  0
    1.2886   -3.5655    0.5114 H   0  0  0  0  0  0  0  0  0  0  0  0
    2.6049   -1.2137    2.4062 C   0  0  0  0  0  0  0  0  0  0  0  0
    3.9457    0.1977   -0.6585 C   0  0  0  0  0  0  0  0  0  0  0  0
   -2.6047   -1.2141   -2.4061 C   0  0  0  0  0  0  0  0  0  0  0  0
    3.0185   -2.6774    2.6380 C   0  0  0  0  0  0  0  0  0  0  0  0
    2.2037   -3.3913    2.4052 H   0  0  0  0  0  0  0  0  0  0  0  0
    3.2703   -2.8231    3.7085 H   0  0  0  0  0  0  0  0  0  0  0  0
    3.9154   -2.9518    2.0490 H   0  0  0  0  0  0  0  0  0  0  0  0
   -1.3638   -0.8850   -3.2574 C   0  0  0  0  0  0  0  0  0  0  0  0
   -1.5916   -1.0143   -4.3347 H   0  0  0  0  0  0  0  0  0  0  0  0
   -0.5092   -1.5470   -3.0110 H   0  0  0  0  0  0  0  0  0  0  0  0
   -1.0331    0.1615   -3.0961 H   0  0  0  0  0  0  0  0  0  0  0  0
    3.3969   -0.9948   -0.1014 C   0  0  0  0  0  0  0  0  0  0  0  0
    2.2809   -0.8471    0.9189 C   0  0  1  0  0  0  0  0  0  0  0  0
    2.0569    0.2364    0.9507 H   0  0  0  0  0  0  0  0  0  0  0  0
   -3.3966   -0.9950    0.1014 C   0  0  0  0  0  0  0  0  0  0  0  0
   -0.6362   -2.7283   -0.2569 C   0  0  0  0  0  0  0  0  0  0  0  0
   -1.2880   -3.5656   -0.5117 H   0  0  0  0  0  0  0  0  0  0  0  0
    5.4207   -1.1246   -2.0747 C   0  0  0  0  0  0  0  0  0  0  0  0
    6.2105   -1.1682   -2.8401 H   0  0  0  0  0  0  0  0  0  0  0  0
    3.8795   -2.2282   -0.5682 C   0  0  0  0  0  0  0  0  0  0  0  0
    3.4531   -3.1605   -0.1716 H   0  0  0  0  0  0  0  0  0  0  0  0
    4.8853   -2.3061   -1.5457 C   0  0  0  0  0  0  0  0  0  0  0  0
    5.2433   -3.2864   -1.8921 H   0  0  0  0  0  0  0  0  0  0  0  0
   -3.6941    2.5834    0.8740 C   0  0  0  0  0  0  0  0  0  0  0  0
   -4.7367    2.9328    0.7053 H   0  0  0  0  0  0  0  0  0  0  0  0
   -2.9716    3.3176    0.4697 H   0  0  0  0  0  0  0  0  0  0  0  0
   -3.5157    2.4748    1.9656 H   0  0  0  0  0  0  0  0  0  0  0  0
    3.7731   -0.3012    2.8304 C   0  0  0  0  0  0  0  0  0  0  0  0
    4.0114   -0.4602    3.9013 H   0  0  0  0  0  0  0  0  0  0  0  0
    3.5225    0.7685    2.6855 H   0  0  0  0  0  0  0  0  0  0  0  0
    4.6867   -0.5178    2.2411 H   0  0  0  0  0  0  0  0  0  0  0  0
   -3.8790   -2.2285    0.5685 C   0  0  0  0  0  0  0  0  0  0  0  0
   -3.4523   -3.1607    0.1722 H   0  0  0  0  0  0  0  0  0  0  0  0
   -4.8849   -2.3064    1.5459 C   0  0  0  0  0  0  0  0  0  0  0  0
   -5.2426   -3.2867    1.8926 H   0  0  0  0  0  0  0  0  0  0  0  0
   -2.2807   -0.8473   -0.9189 C   0  0  1  0  0  0  0  0  0  0  0  0
   -2.0568    0.2361   -0.9507 H   0  0  0  0  0  0  0  0  0  0  0  0
   -5.4206   -1.1249    2.0746 C   0  0  0  0  0  0  0  0  0  0  0  0
   -6.2105   -1.1685    2.8400 H   0  0  0  0  0  0  0  0  0  0  0  0
    1.3638   -0.8849    3.2574 C   0  0  0  0  0  0  0  0  0  0  0  0
    0.5095   -1.5472    3.0110 H   0  0  0  0  0  0  0  0  0  0  0  0
    1.0329    0.1615    3.0959 H   0  0  0  0  0  0  0  0  0  0  0  0
    1.5917   -1.0140    4.3347 H   0  0  0  0  0  0  0  0  0  0  0  0
    3.6932    2.5835   -0.8749 C   0  0  0  0  0  0  0  0  0  0  0  0
    2.9705    3.3176   -0.4707 H   0  0  0  0  0  0  0  0  0  0  0  0
    3.5148    2.4745   -1.9663 H   0  0  0  0  0  0  0  0  0  0  0  0
    4.7357    2.9334   -0.7064 H   0  0  0  0  0  0  0  0  0  0  0  0
   -3.0181   -2.6778   -2.6380 C   0  0  0  0  0  0  0  0  0  0  0  0
   -3.9147   -2.9524   -2.0486 H   0  0  0  0  0  0  0  0  0  0  0  0
   -2.2030   -3.3915   -2.4055 H   0  0  0  0  0  0  0  0  0  0  0  0
   -3.2702   -2.8235   -3.7083 H   0  0  0  0  0  0  0  0  0  0  0  0
   -4.9546    0.1248    1.6396 C   0  0  0  0  0  0  0  0  0  0  0  0
   -5.3777    1.0450    2.0642 H   0  0  0  0  0  0  0  0  0  0  0  0
   -3.9458    0.1975    0.6582 C   0  0  0  0  0  0  0  0  0  0  0  0
    4.9545    0.1251   -1.6399 C   0  0  0  0  0  0  0  0  0  0  0  0
    5.3773    1.0453   -2.0647 H   0  0  0  0  0  0  0  0  0  0  0  0
  1 27  1  0  0  0  0
  1  9  1  0  0  0  0
  2 65  1  0  0  0  0
  2 35  1  0  0  0  0
  3 24  1  0  0  0  0
  5  6  1  0  0  0  0
  5 14  1  0  0  0  0
  5  7  1  0  0  0  0
  8  5  1  0  0  0  0
  9  3  1  0  0  0  0
 10  3  1  0  0  0  0
 10 11  1  0  0  0  0
 12 15  1  0  0  0  0
 12 39  1  0  0  0  0
 12 51  1  0  0  0  0
 13  4  1  0  0  0  0
 13 23  1  0  0  0  0
 14 47  1  0  0  0  0
 15 17  1  0  0  0  0
 16 15  1  0  0  0  0
 18 15  1  0  0  0  0
 19 22  1  0  0  0  0
 19 21  1  0  0  0  0
 19 14  1  0  0  0  0
 20 19  1  0  0  0  0
 23 24  1  0  0  0  0
 24 25  1  1  0  0  0
 24 12  1  0  0  0  0
 26 43  2  0  0  0  0
 26 65  1  0  0  0  0
 27 10  2  0  0  0  0
 28 27  1  0  0  0  0
 29 66  1  0  0  0  0
 29 33  2  0  0  0  0
 30 29  1  0  0  0  0
 31 32  1  0  0  0  0
 31 23  2  0  0  0  0
 33 31  1  0  0  0  0
 34 33  1  0  0  0  0
 35 38  1  0  0  0  0
 36 35  1  0  0  0  0
 37 35  1  0  0  0  0
 39 40  1  0  0  0  0
 41 39  1  0  0  0  0
 42 39  1  0  0  0  0
 43 45  1  0  0  0  0
 44 43  1  0  0  0  0
 45 46  1  0  0  0  0
 45 49  2  0  0  0  0
 47 48  1  6  0  0  0
 47  1  1  0  0  0  0
 47 26  1  0  0  0  0
 49 50  1  0  0  0  0
 51 54  1  0  0  0  0
 52 51  1  0  0  0  0
 53 51  1  0  0  0  0
 55 58  1  0  0  0  0
 55 56  1  0  0  0  0
 55  4  1  0  0  0  0
 57 55  1  0  0  0  0
 59 14  1  0  0  0  0
 59 61  1  0  0  0  0
 59 60  1  0  0  0  0
 62 59  1  0  0  0  0
 63 64  1  0  0  0  0
 63 49  1  0  0  0  0
 65 63  2  0  0  0  0
 66 13  2  0  0  0  0
 67 66  1  0  0  0  0
M  END
