4
q = 0.0, confidence = 0.984

 16 16  0  0  0  0  0  0  0  0999 V2000
   -5.5804    1.3388   -0.0306 Cl  0  0  0  0  0  0  0  0  0  0  0  0
   -2.5937   -1.0603    0.4302 N   0  0  0  0  0  0  0  0  0  0  0  0
   -3.7668   -0.4260    0.5912 N   0  0  0  0  0  2  0  0  0  0  0  0
   -1.6743   -0.7999   -0.5423 C   0  0  0  0  0  3  0  0  0  0  0  0
   -2.0974    0.1296   -1.5424 C   0  0  0  0  0  0  0  0  0  0  0  0
   -1.4167    0.3317   -2.3802 H   0  0  0  0  0  0  0  0  0  0  0  0
   -3.3168    0.7688   -1.4524 C   0  0  0  0  0  0  0  0  0  0  0  0
   -3.6711    1.4891   -2.2017 H   0  0  0  0  0  0  0  0  0  0  0  0
   -4.0996    0.4749   -0.3061 C   0  0  0  0  0  0  0  0  0  0  0  0
   -2.3497   -2.1111    1.4489 C   0  0  0  0  0  0  0  0  0  0  0  0
   -1.8664   -2.9462    0.8995 H   0  0  0  0  0  0  0  0  0  0  0  0
   -3.3560   -2.4214    1.7852 H   0  0  0  0  0  0  0  0  0  0  0  0
   -1.4987   -1.6232    2.6130 C   0  0  0  0  0  0  0  0  0  0  0  0
   -0.4862   -1.3285    2.2719 H   0  0  0  0  0  0  0  0  0  0  0  0
   -1.3761   -2.4493    3.3402 H   0  0  0  0  0  0  0  0  0  0  0  0
   -1.9749   -0.7706    3.1380 H   0  0  0  0  0  0  0  0  0  0  0  0
  2  3  1  0  0  0  0
  2 10  1  0  0  0  0
  4  2  1  0  0  0  0
  5  7  1  0  0  0  0
  5  4  2  0  0  0  0
  6  5  1  0  0  0  0
  7  9  2  0  0  0  0
  8  7  1  0  0  0  0
  9  1  1  0  0  0  0
  9  3  1  0  0  0  0
 10 12  1  0  0  0  0
 10 13  1  0  0  0  0
 11 10  1  0  0  0  0
 13 16  1  0  0  0  0
 13 15  1  0  0  0  0
 14 13  1  0  0  0  0
M  END
