3
q = 0.0, confidence = 0.952

 56 61  0  0  1  0  0  0  0  0999 V2000
   -2.0810    1.0014   -0.4573 P   0  0  0  0  0  4  0  0  0  0  0  0
    0.4733    1.1384   -1.1531 C   0  0  2  0  0  0  0  0  0  0  0  0
    0.2806   -0.1787   -0.3772 C   0  0  0  0  0  3  0  0  0  0  0  0
   -1.0685   -0.3905   -0.0523 C   0  0  0  0  0  0  0  0  0  0  0  0
   -0.8666    1.8743   -1.4424 C   0  0  1  0  0  0  0  0  0  0  0  0
   -0.8703    2.9739   -1.4462 H   0  0  0  0  0  0  0  0  0  0  0  0
   -0.1333    1.1258   -2.5353 C   0  0  0  0  0  0  0  0  0  0  0  0
   -0.5392    0.1609   -2.8773 H   0  0  0  0  0  0  0  0  0  0  0  0
    0.3028    1.7543   -3.3274 H   0  0  0  0  0  0  0  0  0  0  0  0
    1.6333    2.0351   -0.8297 C   0  0  0  0  0  0  0  0  0  0  0  0
    1.9316    2.3134    0.5221 C   0  0  0  0  0  0  0  0  0  0  0  0
    1.3298    1.8482    1.3147 H   0  0  0  0  0  0  0  0  0  0  0  0
    2.9972    3.1496    0.8662 C   0  0  0  0  0  0  0  0  0  0  0  0
    3.2102    3.3393    1.9304 H   0  0  0  0  0  0  0  0  0  0  0  0
    3.8123    3.7448   -0.1226 C   0  0  0  0  0  0  0  0  0  0  0  0
    3.5055    3.4743   -1.4685 C   0  0  0  0  0  0  0  0  0  0  0  0
    4.1241    3.9196   -2.2638 H   0  0  0  0  0  0  0  0  0  0  0  0
    2.4343    2.6348   -1.8167 C   0  0  0  0  0  0  0  0  0  0  0  0
    2.2437    2.4305   -2.8811 H   0  0  0  0  0  0  0  0  0  0  0  0
    4.9691    4.6319    0.2624 C   0  0  0  0  0  0  0  0  0  0  0  0
    5.4911    5.0335   -0.6275 H   0  0  0  0  0  0  0  0  0  0  0  0
    5.7147    4.0796    0.8720 H   0  0  0  0  0  0  0  0  0  0  0  0
    4.6308    5.4928    0.8763 H   0  0  0  0  0  0  0  0  0  0  0  0
   -1.7283   -1.5759    0.5547 C   0  0  0  0  0  0  0  0  0  0  0  0
   -1.7398   -1.7788    1.9522 C   0  0  0  0  0  0  0  0  0  0  0  0
   -1.2052   -1.0728    2.6035 H   0  0  0  0  0  0  0  0  0  0  0  0
   -2.3915   -2.8897    2.5063 C   0  0  0  0  0  0  0  0  0  0  0  0
   -2.3755   -3.0426    3.5963 H   0  0  0  0  0  0  0  0  0  0  0  0
   -3.0501   -3.8103    1.6763 C   0  0  0  0  0  0  0  0  0  0  0  0
   -3.5546   -4.6858    2.1131 H   0  0  0  0  0  0  0  0  0  0  0  0
   -3.0523   -3.6163    0.2863 C   0  0  0  0  0  0  0  0  0  0  0  0
   -3.5571   -4.3400   -0.3719 H   0  0  0  0  0  0  0  0  0  0  0  0
   -2.3999   -2.5069   -0.2678 C   0  0  0  0  0  0  0  0  0  0  0  0
   -2.3882   -2.3567   -1.3582 H   0  0  0  0  0  0  0  0  0  0  0  0
   -3.6222    0.6189   -1.3356 C   0  0  0  0  0  0  0  0  0  0  0  0
   -3.7670    0.9111   -2.7070 C   0  0  0  0  0  0  0  0  0  0  0  0
   -2.9632    1.4370   -3.2439 H   0  0  0  0  0  0  0  0  0  0  0  0
   -4.9363    0.5296   -3.3812 C   0  0  0  0  0  0  0  0  0  0  0  0
   -5.0506    0.7629   -4.4505 H   0  0  0  0  0  0  0  0  0  0  0  0
   -5.9574   -0.1468   -2.6939 C   0  0  0  0  0  0  0  0  0  0  0  0
   -6.8722   -0.4476   -3.2265 H   0  0  0  0  0  0  0  0  0  0  0  0
   -5.8129   -0.4398   -1.3276 C   0  0  0  0  0  0  0  0  0  0  0  0
   -6.6100   -0.9737   -0.7889 H   0  0  0  0  0  0  0  0  0  0  0  0
   -4.6503   -0.0591   -0.6441 C   0  0  0  0  0  0  0  0  0  0  0  0
   -4.5358   -0.2953    0.4247 H   0  0  0  0  0  0  0  0  0  0  0  0
   -2.5385    2.0298    0.9814 C   0  0  0  0  0  0  0  0  0  0  0  0
   -3.6629    2.8797    0.9616 C   0  0  0  0  0  0  0  0  0  0  0  0
   -4.3189    2.9075    0.0779 H   0  0  0  0  0  0  0  0  0  0  0  0
   -3.9458    3.6822    2.0763 C   0  0  0  0  0  0  0  0  0  0  0  0
   -4.8243    4.3451    2.0642 H   0  0  0  0  0  0  0  0  0  0  0  0
   -3.1125    3.6369    3.2067 C   0  0  0  0  0  0  0  0  0  0  0  0
   -3.3405    4.2653    4.0811 H   0  0  0  0  0  0  0  0  0  0  0  0
   -1.9949    2.7865    3.2268 C   0  0  0  0  0  0  0  0  0  0  0  0
   -1.3456    2.7432    4.1141 H   0  0  0  0  0  0  0  0  0  0  0  0
   -1.7052    1.9799    2.1173 C   0  0  0  0  0  0  0  0  0  0  0  0
   -0.8410    1.2966    2.1322 H   0  0  0  0  0  0  0  0  0  0  0  0
  1  4  1  0  0  0  0
  1 46  1  0  0  0  0
  2 10  1  1  0  0  0
  2  3  1  0  0  0  0
  3  4  2  0  0  0  0
  4 24  1  0  0  0  0
  5  6  1  6  0  0  0
  5  2  1  0  0  0  0
  5  1  1  0  0  0  0
  7  5  1  0  0  0  0
  7  2  1  0  0  0  0
  8  7  1  0  0  0  0
  9  7  1  0  0  0  0
 10 11  1  0  0  0  0
 11 13  2  0  0  0  0
 11 12  1  0  0  0  0
 13 14  1  0  0  0  0
 15 20  1  0  0  0  0
 15 13  1  0  0  0  0
 16 15  2  0  0  0  0
 17 16  1  0  0  0  0
 18 16  1  0  0  0  0
 18 10  2  0  0  0  0
 19 18  1  0  0  0  0
 20 22  1  0  0  0  0
 20 23  1  0  0  0  0
 21 20  1  0  0  0  0
 24 25  1  0  0  0  0
 25 27  2  0  0  0  0
 25 26  1  0  0  0  0
 27 28  1  0  0  0  0
 29 30  1  0  0  0  0
 29 27  1  0  0  0  0
 31 29  2  0  0  0  0
 32 31  1  0  0  0  0
 33 31  1  0  0  0  0
 33 24  2  0  0  0  0
 34 33  1  0  0  0  0
 35 44  1  0  0  0  0
 35  1  1  0  0  0  0
 36 35  2  0  0  0  0
 37 36  1  0  0  0  0
 38 36  1  0  0  0  0
 38 40  2  0  0  0  0
 39 38  1  0  0  0  0
 40 42  1  0  0  0  0
 41 40  1  0  0  0  0
 42 43  1  0  0  0  0
 42 44  2  0  0  0  0
 44 45  1  0  0  0  0
 46 55  1  0  0  0  0
 47 46  2  0  0  0  0
 47 49  1  0  0  0  0
 48 47  1  0  0  0  0
 49 51  2  0  0  0  0
 50 49  1  0  0  0  0
 51 53  1  0  0  0  0
 51 52  1  0  0  0  0
 53 54  1  0  0  0  0
 55 56  1  0  0  0  0
 55 53  2  0  0  0  0
M  END
