25
q = 0.0, confidence = 0.942

 62 63  0  0  1  0  0  0  0  0999 V2000
    1.3571    1.0809   -0.8885 O   0  0  0  0  0  0  0  0  0  0  0  0
    1.1546   -0.2672   -0.8476 C   0  0  0  0  0  0  0  0  0  0  0  0
   -0.0892   -0.8327   -0.8147 C   0  0  0  0  0  0  0  0  0  0  0  0
   -0.1622   -1.9277   -0.7920 H   0  0  0  0  0  0  0  0  0  0  0  0
   -1.3624   -0.0388   -0.6422 C   0  0  2  0  0  0  0  0  0  0  0  0
   -1.8772    0.0712   -1.6286 H   0  0  0  0  0  0  0  0  0  0  0  0
   -0.9598    1.3596   -0.1737 C   0  0  1  0  0  0  0  0  0  0  0  0
   -0.5982    1.2551    0.8767 H   0  0  0  0  0  0  0  0  0  0  0  0
    0.1847    1.8811   -1.0416 C   0  0  1  0  0  0  0  0  0  0  0  0
   -0.1370    1.8638   -2.1092 H   0  0  0  0  0  0  0  0  0  0  0  0
    0.5119    3.3159   -0.6307 C   0  0  0  0  0  0  0  0  0  0  0  0
    0.9729    3.3031    0.3844 H   0  0  0  0  0  0  0  0  0  0  0  0
    1.2400    3.7738   -1.3286 H   0  0  0  0  0  0  0  0  0  0  0  0
   -0.6707    4.0973   -0.6889 O   0  0  0  0  0  0  0  0  0  0  0  0
   -1.7552    3.6076    0.1022 C   0  0  0  0  0  0  0  0  0  0  0  0
   -2.9726    4.4190   -0.3123 C   0  0  0  0  0  0  0  0  0  0  0  0
   -3.8703    4.0566    0.2227 H   0  0  0  0  0  0  0  0  0  0  0  0
   -3.1263    4.3045   -1.4015 H   0  0  0  0  0  0  0  0  0  0  0  0
   -2.8123    5.4884   -0.0812 H   0  0  0  0  0  0  0  0  0  0  0  0
   -1.4619    3.7272    1.6047 C   0  0  0  0  0  0  0  0  0  0  0  0
   -2.3347    3.3735    2.1859 H   0  0  0  0  0  0  0  0  0  0  0  0
   -1.2670    4.7864    1.8591 H   0  0  0  0  0  0  0  0  0  0  0  0
   -0.5821    3.1362    1.9222 H   0  0  0  0  0  0  0  0  0  0  0  0
   -2.0598    2.2472   -0.2589 O   0  0  0  0  0  0  0  0  0  0  0  0
    2.4016   -1.0570   -0.6875 C   0  0  0  0  0  2  0  0  0  0  0  0
    2.1516   -2.2782   -1.1431 O   0  0  0  0  0  0  0  0  0  0  0  0
    3.0795   -3.3599   -1.0382 C   0  0  0  0  0  0  0  0  0  0  0  0
    2.5260   -4.2586   -1.3652 H   0  0  0  0  0  0  0  0  0  0  0  0
    3.4301   -3.4864    0.0026 H   0  0  0  0  0  0  0  0  0  0  0  0
    3.9449   -3.1909   -1.7059 H   0  0  0  0  0  0  0  0  0  0  0  0
   -2.2016   -0.6559    0.3027 O   0  0  0  0  0  0  0  0  0  0  0  0
   -3.7943   -1.2624    0.1541 Si  0  0  0  0  0  0  0  0  0  0  0  0
   -3.6364   -3.1653    0.2616 C   0  0  0  0  0  0  0  0  0  0  0  0
   -4.6752   -3.5689    0.2554 H   0  0  0  0  0  0  0  0  0  0  0  0
   -2.9585   -3.5893    1.5749 C   0  0  0  0  0  0  0  0  0  0  0  0
   -3.5418   -3.2851    2.4676 H   0  0  0  0  0  0  0  0  0  0  0  0
   -1.9514   -3.1306    1.6658 H   0  0  0  0  0  0  0  0  0  0  0  0
   -2.8299   -4.6923    1.6244 H   0  0  0  0  0  0  0  0  0  0  0  0
   -2.8925   -3.7410   -0.9541 C   0  0  0  0  0  0  0  0  0  0  0  0
   -3.3929   -3.5027   -1.9148 H   0  0  0  0  0  0  0  0  0  0  0  0
   -2.8088   -4.8474   -0.8898 H   0  0  0  0  0  0  0  0  0  0  0  0
   -1.8577   -3.3426   -1.0139 H   0  0  0  0  0  0  0  0  0  0  0  0
   -4.6746   -0.5975    1.7086 C   0  0  0  0  0  0  0  0  0  0  0  0
   -4.0269   -0.9950    2.5248 H   0  0  0  0  0  0  0  0  0  0  0  0
   -6.0857   -1.1748    1.9014 C   0  0  0  0  0  0  0  0  0  0  0  0
   -6.0999   -2.2839    1.8694 H   0  0  0  0  0  0  0  0  0  0  0  0
   -6.7828   -0.8120    1.1168 H   0  0  0  0  0  0  0  0  0  0  0  0
   -6.5153   -0.8674    2.8793 H   0  0  0  0  0  0  0  0  0  0  0  0
   -4.6562    0.9354    1.8219 C   0  0  0  0  0  0  0  0  0  0  0  0
   -3.6571    1.3517    1.5868 H   0  0  0  0  0  0  0  0  0  0  0  0
   -4.9419    1.2625    2.8450 H   0  0  0  0  0  0  0  0  0  0  0  0
   -5.3765    1.4019    1.1190 H   0  0  0  0  0  0  0  0  0  0  0  0
   -4.5468   -0.7659   -1.5338 C   0  0  0  0  0  0  0  0  0  0  0  0
   -3.7550   -1.0424   -2.2711 H   0  0  0  0  0  0  0  0  0  0  0  0
   -4.8301    0.7381   -1.6887 C   0  0  0  0  0  0  0  0  0  0  0  0
   -3.9651    1.3701   -1.4061 H   0  0  0  0  0  0  0  0  0  0  0  0
   -5.6842    1.0467   -1.0510 H   0  0  0  0  0  0  0  0  0  0  0  0
   -5.1083    0.9804   -2.7374 H   0  0  0  0  0  0  0  0  0  0  0  0
   -5.7950   -1.6021   -1.8712 C   0  0  0  0  0  0  0  0  0  0  0  0
   -5.5982   -2.6930   -1.8590 H   0  0  0  0  0  0  0  0  0  0  0  0
   -6.1797   -1.3462   -2.8820 H   0  0  0  0  0  0  0  0  0  0  0  0
   -6.6198   -1.4075   -1.1543 H   0  0  0  0  0  0  0  0  0  0  0  0
  1  2  1  0  0  0  0
  2  3  2  0  0  0  0
  2 25  1  0  0  0  0
  3  4  1  0  0  0  0
  3  5  1  0  0  0  0
  5  6  1  6  0  0  0
  5  7  1  0  0  0  0
  5 31  1  0  0  0  0
  7  8  1  1  0  0  0
  9 10  1  6  0  0  0
  9  1  1  0  0  0  0
  9 11  1  0  0  0  0
  9  7  1  0  0  0  0
 11 12  1  0  0  0  0
 13 11  1  0  0  0  0
 14 11  1  0  0  0  0
 14 15  1  0  0  0  0
 15 20  1  0  0  0  0
 16 19  1  0  0  0  0
 16 15  1  0  0  0  0
 16 17  1  0  0  0  0
 18 16  1  0  0  0  0
 20 22  1  0  0  0  0
 20 23  1  0  0  0  0
 20 21  1  0  0  0  0
 24  7  1  0  0  0  0
 24 15  1  0  0  0  0
 26 27  1  0  0  0  0
 26 25  1  0  0  0  0
 27 29  1  0  0  0  0
 28 27  1  0  0  0  0
 30 27  1  0  0  0  0
 32 33  1  0  0  0  0
 32 31  1  0  0  0  0
 32 43  1  0  0  0  0
 33 35  1  0  0  0  0
 34 33  1  0  0  0  0
 35 38  1  0  0  0  0
 35 37  1  0  0  0  0
 35 36  1  0  0  0  0
 39 41  1  0  0  0  0
 39 33  1  0  0  0  0
 40 39  1  0  0  0  0
 42 39  1  0  0  0  0
 43 49  1  0  0  0  0
 43 45  1  0  0  0  0
 43 44  1  0  0  0  0
 45 48  1  0  0  0  0
 46 45  1  0  0  0  0
 47 45  1  0  0  0  0
 49 51  1  0  0  0  0
 50 49  1  0  0  0  0
 52 49  1  0  0  0  0
 53 32  1  0  0  0  0
 54 53  1  0  0  0  0
 55 53  1  0  0  0  0
 55 56  1  0  0  0  0
 55 57  1  0  0  0  0
 58 55  1  0  0  0  0
 59 60  1  0  0  0  0
 59 53  1  0  0  0  0
 59 62  1  0  0  0  0
 61 59  1  0  0  0  0
M  END
