3
q = 0.0, confidence = 0.992

 41 43  0  0  0  0  0  0  0  0999 V2000
   -0.2233   -2.5588    0.0827 N   0  0  0  0  0  0  0  0  0  0  0  0
    1.8909   -2.0749   -0.0105 N   0  0  0  0  0  0  0  0  0  0  0  0
    0.6415   -1.4868    0.0052 C   0  0  0  0  0  2  0  0  0  0  0  0
    0.4737   -3.7676    0.1188 C   0  0  0  0  0  0  0  0  0  0  0  0
   -0.0484   -4.7262    0.1815 H   0  0  0  0  0  0  0  0  0  0  0  0
    1.8045   -3.4596    0.0611 C   0  0  0  0  0  0  0  0  0  0  0  0
    2.6860   -4.1064    0.0666 H   0  0  0  0  0  0  0  0  0  0  0  0
   -1.6524   -2.4702    0.1104 C   0  0  0  0  0  0  0  0  0  0  0  0
   -2.2985   -2.3449    1.3594 C   0  0  0  0  0  0  0  0  0  0  0  0
   -3.6976   -2.2026    1.3541 C   0  0  0  0  0  0  0  0  0  0  0  0
   -4.2215   -2.0894    2.3167 H   0  0  0  0  0  0  0  0  0  0  0  0
   -4.4391   -2.1815    0.1566 C   0  0  0  0  0  0  0  0  0  0  0  0
   -3.7490   -2.3068   -1.0647 C   0  0  0  0  0  0  0  0  0  0  0  0
   -4.3132   -2.2759   -2.0106 H   0  0  0  0  0  0  0  0  0  0  0  0
   -2.3507   -2.4502   -1.1164 C   0  0  0  0  0  0  0  0  0  0  0  0
   -1.4985   -2.2956    2.6333 C   0  0  0  0  0  0  0  0  0  0  0  0
   -2.1604   -2.2426    3.5179 H   0  0  0  0  0  0  0  0  0  0  0  0
   -0.8249   -1.4109    2.6438 H   0  0  0  0  0  0  0  0  0  0  0  0
   -0.8453   -3.1861    2.7402 H   0  0  0  0  0  0  0  0  0  0  0  0
   -5.9415   -2.0504    0.1839 C   0  0  0  0  0  0  0  0  0  0  0  0
   -6.3281   -1.5836   -0.7433 H   0  0  0  0  0  0  0  0  0  0  0  0
   -6.2830   -1.4452    1.0468 H   0  0  0  0  0  0  0  0  0  0  0  0
   -6.4251   -3.0471    0.2740 H   0  0  0  0  0  0  0  0  0  0  0  0
   -1.6047   -2.5015   -2.4227 C   0  0  0  0  0  0  0  0  0  0  0  0
   -0.9539   -1.6075   -2.5410 H   0  0  0  0  0  0  0  0  0  0  0  0
   -2.3032   -2.5411   -3.2794 H   0  0  0  0  0  0  0  0  0  0  0  0
   -0.9350   -3.3842   -2.4776 H   0  0  0  0  0  0  0  0  0  0  0  0
    3.1265   -1.3064   -0.0838 C   0  0  0  0  0  0  0  0  0  0  0  0
    2.8097   -0.2433   -0.1606 H   0  0  0  0  0  0  0  0  0  0  0  0
    4.0173   -1.6135   -1.3062 C   0  0  0  0  0  0  0  0  0  0  0  0
    3.9528   -2.6924   -1.5555 H   0  0  0  0  0  0  0  0  0  0  0  0
    3.6482   -1.0578   -2.1901 H   0  0  0  0  0  0  0  0  0  0  0  0
    5.4521   -1.2233   -0.8574 C   0  0  0  0  0  0  0  0  0  0  0  0
    6.1237   -2.1043   -0.9095 H   0  0  0  0  0  0  0  0  0  0  0  0
    5.9007   -0.4488   -1.5098 H   0  0  0  0  0  0  0  0  0  0  0  0
    5.3210   -0.7338    0.6090 C   0  0  0  0  0  0  0  0  0  0  0  0
    6.2200   -0.9456    1.2204 H   0  0  0  0  0  0  0  0  0  0  0  0
    5.1689    0.3666    0.6305 H   0  0  0  0  0  0  0  0  0  0  0  0
    4.0537   -1.4198    1.1322 C   0  0  0  0  0  0  0  0  0  0  0  0
    3.6046   -0.9481    2.0278 H   0  0  0  0  0  0  0  0  0  0  0  0
    4.2485   -2.4909    1.3613 H   0  0  0  0  0  0  0  0  0  0  0  0
  1  8  1  0  0  0  0
  1  4  1  0  0  0  0
  2  3  1  0  0  0  0
  2  6  1  0  0  0  0
  3  1  1  0  0  0  0
  4  5  1  0  0  0  0
  6  7  1  0  0  0  0
  6  4  2  0  0  0  0
  8  9  1  0  0  0  0
  9 16  1  0  0  0  0
 10  9  2  0  0  0  0
 10 11  1  0  0  0  0
 12 20  1  0  0  0  0
 12 10  1  0  0  0  0
 13 12  2  0  0  0  0
 14 13  1  0  0  0  0
 15 13  1  0  0  0  0
 15  8  2  0  0  0  0
 16 18  1  0  0  0  0
 16 19  1  0  0  0  0
 16 17  1  0  0  0  0
 20 23  1  0  0  0  0
 20 22  1  0  0  0  0
 21 20  1  0  0  0  0
 24 15  1  0  0  0  0
 25 24  1  0  0  0  0
 26 24  1  0  0  0  0
 27 24  1  0  0  0  0
 28  2  1  0  0  0  0
 28 39  1  0  0  0  0
 29 28  1  0  0  0  0
 30 33  1  0  0  0  0
 30 28  1  0  0  0  0
 31 30  1  0  0  0  0
 32 30  1  0  0  0  0
 33 36  1  0  0  0  0
 34 33  1  0  0  0  0
 35 33  1  0  0  0  0
 36 38  1  0  0  0  0
 36 39  1  0  0  0  0
 36 37  1  0  0  0  0
 39 41  1  0  0  0  0
 39 40  1  0  0  0  0
M  END
