30
q = 0.0, confidence = 0.942

 30 32  0  0  1  0  0  0  0  0999 V2000
   -0.6787   -2.7883   -0.8110 O   0  0  0  0  0  0  0  0  0  0  0  0
   -0.2278   -2.2444   -1.5092 H   0  0  0  0  0  0  0  0  0  0  0  0
   -2.7087   -0.1949    0.1157 N   0  0  0  0  0  0  0  0  0  0  0  0
   -3.6917   -2.3740    0.0142 C   0  0  0  0  0  0  0  0  0  0  0  0
   -3.5499   -3.4629   -0.0278 H   0  0  0  0  0  0  0  0  0  0  0  0
   -5.0779   -0.3825    0.0527 C   0  0  0  0  0  0  0  0  0  0  0  0
   -6.0588    0.1122    0.0514 H   0  0  0  0  0  0  0  0  0  0  0  0
   -0.4193    2.5707    0.9715 C   0  0  0  0  0  0  0  0  0  0  0  0
    0.1196    1.9789    1.7279 H   0  0  0  0  0  0  0  0  0  0  0  0
   -0.2388    3.9577    0.8848 C   0  0  0  0  0  0  0  0  0  0  0  0
    0.4381    4.4593    1.5924 H   0  0  0  0  0  0  0  0  0  0  0  0
   -2.5717   -1.5599    0.1000 C   0  0  2  0  0  3  0  0  0  0  0  0
   -4.9669   -1.7811   -0.0214 C   0  0  0  0  0  0  0  0  0  0  0  0
   -5.8687   -2.4056   -0.0981 H   0  0  0  0  0  0  0  0  0  0  0  0
   -1.2773    1.9111    0.0634 C   0  0  0  0  0  0  0  0  0  0  0  0
   -0.8294   -2.5732    1.5764 C   0  0  0  0  0  0  0  0  0  0  0  0
   -1.2861   -3.5825    1.5804 H   0  0  0  0  0  0  0  0  0  0  0  0
   -1.2362   -1.9715    2.4121 H   0  0  0  0  0  0  0  0  0  0  0  0
    0.2644   -2.6605    1.7159 H   0  0  0  0  0  0  0  0  0  0  0  0
   -1.0895   -1.9099    0.2084 C   0  0  1  0  0  0  0  0  0  0  0  0
   -1.4050    0.4455    0.1292 C   0  0  2  0  0  3  0  0  0  0  0  0
   -1.9349    2.6639   -0.9380 C   0  0  0  0  0  0  0  0  0  0  0  0
   -2.5570    2.1570   -1.6920 H   0  0  0  0  0  0  0  0  0  0  0  0
   -0.9091    4.7017   -0.0987 C   0  0  0  0  0  0  0  0  0  0  0  0
   -0.7631    5.7905   -0.1633 H   0  0  0  0  0  0  0  0  0  0  0  0
   -1.7538    4.0513   -1.0129 C   0  0  0  0  0  0  0  0  0  0  0  0
   -2.2596    4.6255   -1.8036 H   0  0  0  0  0  0  0  0  0  0  0  0
   -3.9287    0.4046    0.1234 C   0  0  0  0  0  0  0  0  0  0  0  0
   -3.9338    1.5010    0.1820 H   0  0  0  0  0  0  0  0  0  0  0  0
   -0.4524   -0.5281    0.1515 C   0  0  0  0  0  2  0  0  0  0  0  0
  2  1  1  0  0  0  0
  3 28  1  0  0  0  0
  3 21  1  0  0  0  0
  5  4  1  0  0  0  0
  6 28  2  0  0  0  0
  7  6  1  0  0  0  0
  8  9  1  0  0  0  0
 10  8  1  0  0  0  0
 10 11  1  0  0  0  0
 12  4  1  1  0  0  0
 12  3  1  0  0  0  0
 12 20  1  0  0  0  0
 13  4  2  0  0  0  0
 13  6  1  0  0  0  0
 14 13  1  0  0  0  0
 15  8  2  0  0  0  0
 16 17  1  0  0  0  0
 16 19  1  0  0  0  0
 16 18  1  0  0  0  0
 20  1  1  6  0  0  0
 20 16  1  0  0  0  0
 21 15  1  6  0  0  0
 21 30  1  0  0  0  0
 22 15  1  0  0  0  0
 23 22  1  0  0  0  0
 24 10  2  0  0  0  0
 25 24  1  0  0  0  0
 26 22  2  0  0  0  0
 26 24  1  0  0  0  0
 27 26  1  0  0  0  0
 28 29  1  0  0  0  0
 30 20  1  0  0  0  0
M  END
