5
q = 0.0, confidence = 0.958

 27 29  0  0  1  0  0  0  0  0999 V2000
   -1.6334    4.2980   -0.5185 S   0  0  0  0  0  0  0  0  0  0  0  0
   -0.5268   -2.8470   -0.8280 O   0  0  0  0  0  0  0  0  0  0  0  0
   -0.0996   -2.2792   -1.5221 H   0  0  0  0  0  0  0  0  0  0  0  0
   -2.6803   -0.3549    0.1125 N   0  0  0  0  0  0  0  0  0  0  0  0
   -0.4101   -0.5845    0.1523 C   0  0  0  0  0  2  0  0  0  0  0  0
   -0.9832   -1.9939    0.1930 C   0  0  2  0  0  0  0  0  0  0  0  0
   -0.7016   -2.6542    1.5588 C   0  0  0  0  0  0  0  0  0  0  0  0
   -1.1131   -3.6827    1.5537 H   0  0  0  0  0  0  0  0  0  0  0  0
   -1.1388   -2.0766    2.3960 H   0  0  0  0  0  0  0  0  0  0  0  0
    0.3944   -2.6946    1.7029 H   0  0  0  0  0  0  0  0  0  0  0  0
   -2.4789   -1.7114    0.0784 C   0  0  1  0  0  3  0  0  0  0  0  0
   -3.5582   -2.5762   -0.0295 C   0  0  0  0  0  0  0  0  0  0  0  0
   -3.3639   -3.6563   -0.0864 H   0  0  0  0  0  0  0  0  0  0  0  0
   -4.8598   -2.0440   -0.0687 C   0  0  0  0  0  0  0  0  0  0  0  0
   -5.7302   -2.7092   -0.1636 H   0  0  0  0  0  0  0  0  0  0  0  0
   -5.0373   -0.6535    0.0239 C   0  0  0  0  0  0  0  0  0  0  0  0
   -6.0405   -0.2055    0.0200 H   0  0  0  0  0  0  0  0  0  0  0  0
   -3.9272    0.1859    0.1157 C   0  0  0  0  0  0  0  0  0  0  0  0
   -3.9820    1.2800    0.1933 H   0  0  0  0  0  0  0  0  0  0  0  0
   -1.4076    0.3451    0.1432 C   0  0  1  0  0  3  0  0  0  0  0  0
   -1.3389    1.8076    0.1226 C   0  0  0  0  0  0  0  0  0  0  0  0
   -2.0668    2.6425   -0.7265 C   0  0  0  0  0  0  0  0  0  0  0  0
   -2.7711    2.3630   -1.5194 H   0  0  0  0  0  0  0  0  0  0  0  0
   -0.4765    3.9030    0.7092 C   0  0  0  0  0  0  0  0  0  0  0  0
    0.1021    4.6996    1.1924 H   0  0  0  0  0  0  0  0  0  0  0  0
   -0.4213    2.5477    0.9484 C   0  0  0  0  0  0  0  0  0  0  0  0
    0.2496    2.0673    1.6763 H   0  0  0  0  0  0  0  0  0  0  0  0
  1 24  1  0  0  0  0
  3  2  1  0  0  0  0
  4 18  1  0  0  0  0
  4 20  1  0  0  0  0
  5  6  1  0  0  0  0
  6  2  1  6  0  0  0
  6  7  1  0  0  0  0
  7 10  1  0  0  0  0
  7  9  1  0  0  0  0
  8  7  1  0  0  0  0
 11 12  1  1  0  0  0
 11  4  1  0  0  0  0
 11  6  1  0  0  0  0
 13 12  1  0  0  0  0
 14 12  2  0  0  0  0
 14 16  1  0  0  0  0
 15 14  1  0  0  0  0
 16 18  2  0  0  0  0
 17 16  1  0  0  0  0
 18 19  1  0  0  0  0
 20 21  1  6  0  0  0
 20  5  1  0  0  0  0
 21 26  1  0  0  0  0
 22  1  1  0  0  0  0
 22 21  2  0  0  0  0
 23 22  1  0  0  0  0
 24 26  2  0  0  0  0
 24 25  1  0  0  0  0
 26 27  1  0  0  0  0
M  END
