1
q = -1.0, confidence = 0.004

 31 35  0  0  0  0  0  0  0  0999 V2000
    0.3225   -0.2339    0.1675 C   0  0  0  0  0  3  0  0  0  0  0  0
    0.7767   -1.1314    1.1364 C   0  0  0  0  0  0  0  0  0  0  0  0
    0.0578   -1.6491    1.7844 H   0  0  0  0  0  0  0  0  0  0  0  0
    2.1430   -1.3715    1.3651 C   0  0  0  0  0  0  0  0  0  0  0  0
    2.4069   -2.0937    2.1500 H   0  0  0  0  0  0  0  0  0  0  0  0
    3.1451   -0.7130    0.6473 C   0  0  0  0  0  0  0  0  0  0  0  0
    4.5744   -0.9626    0.9022 C   0  0  0  0  0  0  0  0  0  0  0  0
    5.0123   -1.8951    1.8546 C   0  0  0  0  0  0  0  0  0  0  0  0
    4.2793   -2.4711    2.4354 H   0  0  0  0  0  0  0  0  0  0  0  0
    6.3831   -2.1241    2.0976 C   0  0  0  0  0  0  0  0  0  0  0  0
    6.6810   -2.8651    2.8548 H   0  0  0  0  0  0  0  0  0  0  0  0
    7.3468   -1.4216    1.3897 C   0  0  0  0  0  0  0  0  0  0  0  0
    8.4188   -1.5915    1.5729 H   0  0  0  0  0  0  0  0  0  0  0  0
    6.9614   -0.4646    0.4085 C   0  0  0  0  0  0  0  0  0  0  0  0
    7.9368    0.2653   -0.3278 C   0  0  0  0  0  0  0  0  0  0  0  0
    9.0030    0.0794   -0.1267 H   0  0  0  0  0  0  0  0  0  0  0  0
    7.5425    1.1928   -1.2801 C   0  0  0  0  0  0  0  0  0  0  0  0
    8.2956    1.7584   -1.8494 H   0  0  0  0  0  0  0  0  0  0  0  0
    6.1726    1.4200   -1.5302 C   0  0  0  0  0  0  0  0  0  0  0  0
    5.9044    2.1617   -2.2940 H   0  0  0  0  0  0  0  0  0  0  0  0
    5.1662    0.7301   -0.8369 C   0  0  0  0  0  0  0  0  0  0  0  0
    3.7310    0.9612   -1.1014 C   0  0  0  0  0  0  0  0  0  0  0  0
    3.3140    1.8803   -2.0722 C   0  0  0  0  0  0  0  0  0  0  0  0
    4.0552    2.4443   -2.6535 H   0  0  0  0  0  0  0  0  0  0  0  0
    1.9491    2.0954   -2.3338 C   0  0  0  0  0  0  0  0  0  0  0  0
    1.6484    2.8113   -3.1139 H   0  0  0  0  0  0  0  0  0  0  0  0
    0.9807    1.4046   -1.6232 C   0  0  0  0  0  0  0  0  0  0  0  0
   -0.0756    1.5421   -1.8713 H   0  0  0  0  0  0  0  0  0  0  0  0
    1.3192    0.4626   -0.6086 C   0  0  0  0  0  0  0  0  0  0  0  0
    2.7363    0.2330   -0.3520 C   0  0  0  0  0  0  0  0  0  0  0  0
    5.5591   -0.2307    0.1560 C   0  0  0  0  0  0  0  0  0  0  0  0
  1  2  1  0  0  0  0
  2  4  2  0  0  0  0
  2  3  1  0  0  0  0
  4  5  1  0  0  0  0
  6  7  1  0  0  0  0
  6  4  1  0  0  0  0
  7  8  1  0  0  0  0
  8 10  2  0  0  0  0
  8  9  1  0  0  0  0
 10 11  1  0  0  0  0
 12 13  1  0  0  0  0
 12 10  1  0  0  0  0
 14 12  2  0  0  0  0
 15 16  1  0  0  0  0
 15 14  1  0  0  0  0
 17 15  2  0  0  0  0
 18 17  1  0  0  0  0
 19 17  1  0  0  0  0
 19 21  2  0  0  0  0
 20 19  1  0  0  0  0
 21 31  1  0  0  0  0
 22 21  1  0  0  0  0
 22 30  1  0  0  0  0
 23 22  2  0  0  0  0
 24 23  1  0  0  0  0
 25 23  1  0  0  0  0
 25 27  2  0  0  0  0
 26 25  1  0  0  0  0
 27 29  1  0  0  0  0
 28 27  1  0  0  0  0
 29 30  1  0  0  0  0
 29  1  2  0  0  0  0
 30  6  2  0  0  0  0
 31 14  1  0  0  0  0
 31  7  2  0  0  0  0
M  END
