4
q = -1.0, confidence = 0.002

 12 11  0  0  0  0  0  0  0  0999 V2000
    1.3237    1.4700   -1.1016 S   0  0  0  0  0  1  0  0  0  0  0  0
   -2.9747    2.9328   -1.5242 O   0  0  0  0  0  0  0  0  0  0  0  0
   -2.7168    3.5745    0.6357 O   0  0  0  0  0  0  0  0  0  0  0  0
   -0.4805    1.2792   -1.1885 C   0  0  0  0  0  3  0  0  0  0  0  0
   -0.8804    1.3007   -2.2175 H   0  0  0  0  0  0  0  0  0  0  0  0
   -1.2014    1.9873   -0.1550 C   0  0  0  0  0  3  0  0  0  0  0  0
   -0.6138    2.3714    0.6933 H   0  0  0  0  0  0  0  0  0  0  0  0
   -2.3850    2.8309   -0.4566 C   0  0  0  0  0  0  0  0  0  0  0  0
   -3.7575    4.5365    0.4360 C   0  0  0  0  0  0  0  0  0  0  0  0
   -3.8086    5.1295    1.3664 H   0  0  0  0  0  0  0  0  0  0  0  0
   -4.7317    4.0400    0.2483 H   0  0  0  0  0  0  0  0  0  0  0  0
   -3.5306    5.1887   -0.4308 H   0  0  0  0  0  0  0  0  0  0  0  0
  2  8  2  0  0  0  0
  4  1  1  0  0  0  0
  4  6  1  0  0  0  0
  5  4  1  0  0  0  0
  6  7  1  0  0  0  0
  8  6  1  0  0  0  0
  8  3  1  0  0  0  0
  9  3  1  0  0  0  0
  9 10  1  0  0  0  0
 11  9  1  0  0  0  0
 12  9  1  0  0  0  0
M  END
