4
q = 0.0, confidence = 0.98

 21 22  0  0  0  0  0  0  0  0999 V2000
   -1.9842   -0.0446   -0.0001 S   0  0  0  0  0  0  0  0  0  0  0  0
    0.7315    2.7735    0.0000 O   0  0  0  0  0  0  0  0  0  0  0  0
   -4.6884   -1.2967   -0.0000 O   0  0  0  0  0  0  0  0  0  0  0  0
    0.3674    1.4834   -0.0001 C   0  0  0  0  0  2  0  0  0  0  0  0
   -1.0837    1.4594   -0.0000 C   0  0  0  0  0  0  0  0  0  0  0  0
   -1.9676    2.5555   -0.0000 C   0  0  0  0  0  0  0  0  0  0  0  0
   -1.5984    3.5885    0.0000 H   0  0  0  0  0  0  0  0  0  0  0  0
   -3.3227    2.1894    0.0000 C   0  0  0  0  0  0  0  0  0  0  0  0
   -4.1593    2.9011    0.0000 H   0  0  0  0  0  0  0  0  0  0  0  0
   -3.5066    0.7959   -0.0000 C   0  0  0  0  0  0  0  0  0  0  0  0
   -4.7487    0.0743    0.0000 C   0  0  0  0  0  0  0  0  0  0  0  0
   -6.0798    0.4765    0.0000 C   0  0  0  0  0  0  0  0  0  0  0  0
   -6.4429    1.5095    0.0001 H   0  0  0  0  0  0  0  0  0  0  0  0
   -6.8624   -0.7173    0.0000 C   0  0  0  0  0  0  0  0  0  0  0  0
   -7.9548   -0.7953    0.0001 H   0  0  0  0  0  0  0  0  0  0  0  0
   -5.9648   -1.7642   -0.0000 C   0  0  0  0  0  0  0  0  0  0  0  0
   -6.0742   -2.8533   -0.0000 H   0  0  0  0  0  0  0  0  0  0  0  0
    2.0966    3.1816    0.0000 C   0  0  0  0  0  0  0  0  0  0  0  0
    2.0804    4.2870    0.0002 H   0  0  0  0  0  0  0  0  0  0  0  0
    2.6195    2.8135   -0.9033 H   0  0  0  0  0  0  0  0  0  0  0  0
    2.6195    2.8132    0.9033 H   0  0  0  0  0  0  0  0  0  0  0  0
  1  5  1  0  0  0  0
  1 10  1  0  0  0  0
  2 18  1  0  0  0  0
  3 16  1  0  0  0  0
  3 11  1  0  0  0  0
  4  5  1  0  0  0  0
  4  2  1  0  0  0  0
  5  6  2  0  0  0  0
  6  7  1  0  0  0  0
  6  8  1  0  0  0  0
  8  9  1  0  0  0  0
 10  8  2  0  0  0  0
 10 11  1  0  0  0  0
 11 12  2  0  0  0  0
 12 13  1  0  0  0  0
 14 12  1  0  0  0  0
 14 15  1  0  0  0  0
 16 14  2  0  0  0  0
 17 16  1  0  0  0  0
 18 19  1  0  0  0  0
 18 21  1  0  0  0  0
 20 18  1  0  0  0  0
M  END
