1
q = 0.0, confidence = 0.98

 11 10  0  0  0  0  0  0  0  0999 V2000
   -0.1535    0.3557    0.0268 C   0  0  0  0  0  1  0  0  0  0  0  0
   -2.6525    0.8415    0.0605 C   0  0  0  0  0  0  0  0  0  0  0  0
   -3.5950   -0.1354    0.1942 C   0  0  0  0  0  0  0  0  0  0  0  0
   -5.7947   -0.6746   -0.4563 C   0  0  0  0  0  0  0  0  0  0  0  0
   -4.8895    0.1088    0.3445 O   0  0  0  0  0  0  0  0  0  0  0  0
   -1.3264    0.5954    0.0513 N   0  0  0  0  0  2  0  0  0  0  0  0
   -3.0248    2.1307   -0.0293 F   0  0  0  0  0  0  0  0  0  0  0  0
   -3.2106   -1.4212    0.2386 F   0  0  0  0  0  0  0  0  0  0  0  0
   -5.6728   -1.7566   -0.2502 H   0  0  0  0  0  0  0  0  0  0  0  0
   -5.6277   -0.4768   -1.5363 H   0  0  0  0  0  0  0  0  0  0  0  0
   -6.8110   -0.3518   -0.1706 H   0  0  0  0  0  0  0  0  0  0  0  0
  1  6  1  0  0  0  0
  2  3  2  0  0  0  0
  3  8  1  0  0  0  0
  3  5  1  0  0  0  0
  4  9  1  0  0  0  0
  4 11  1  0  0  0  0
  4  5  1  0  0  0  0
  6  2  1  0  0  0  0
  7  2  1  0  0  0  0
 10  4  1  0  0  0  0
M  END
