12
q = 0.0, confidence = 0.928

 63 64  0  0  1  0  0  0  0  0999 V2000
   -3.2792   -2.5991    0.0735 Si  0  0  0  0  0  0  0  0  0  0  0  0
   -2.0210    3.1977    0.2667 Si  0  0  0  0  0  0  0  0  0  0  0  0
    4.0424   -0.5561    2.1208 N   0  0  0  0  0  0  0  0  0  0  0  0
    0.9989   -0.5936    2.1285 N   0  0  0  0  0  0  0  0  0  0  0  0
   -4.0853    0.6270   -0.0436 O   0  0  0  0  0  0  0  0  0  0  0  0
   -1.0659   -0.8160    1.0949 C   0  0  2  0  0  3  0  0  0  0  0  0
   -1.7832    1.3309    0.4850 C   0  0  2  0  0  3  0  0  0  0  0  0
   -2.3004   -1.0137    0.3979 C   0  0  2  0  0  3  0  0  0  0  0  0
   -0.0833   -1.5675    1.9413 C   0  0  0  0  0  0  0  0  0  0  0  0
   -2.9264    0.3616    0.2753 C   0  0  0  0  0  0  0  0  0  0  0  0
    3.1916   -0.0916    3.1904 C   0  0  0  0  0  0  0  0  0  0  0  0
   -0.7450    0.5826    1.1383 C   0  0  1  0  0  3  0  0  0  0  0  0
    1.8414   -0.8194    3.2794 C   0  0  0  0  0  0  0  0  0  0  0  0
    0.4860    0.7801    1.9735 C   0  0  0  0  0  0  0  0  0  0  0  0
    4.0318    0.0078    0.8691 C   0  0  0  0  0  0  0  0  0  0  0  0
    3.8268   -0.2747   -2.1572 C   0  0  0  0  0  0  0  0  0  0  0  0
    5.1111   -0.3283   -1.3257 C   0  0  0  0  0  0  0  0  0  0  0  0
    6.0360   -1.4420   -1.8227 C   0  0  0  0  0  0  0  0  0  0  0  0
    5.8391    1.0202   -1.3047 C   0  0  0  0  0  0  0  0  0  0  0  0
   -0.4186    4.0907    0.7304 C   0  0  0  0  0  0  0  0  0  0  0  0
   -2.5030    3.5230   -1.5287 C   0  0  0  0  0  0  0  0  0  0  0  0
   -4.6132   -2.6819    1.4118 C   0  0  0  0  0  0  0  0  0  0  0  0
   -3.4278    3.6989    1.4247 C   0  0  0  0  0  0  0  0  0  0  0  0
   -4.0788   -2.4987   -1.6302 C   0  0  0  0  0  0  0  0  0  0  0  0
   -2.1104   -4.0836    0.1979 C   0  0  0  0  0  0  0  0  0  0  0  0
    3.4452    1.0435    0.5719 O   0  0  0  0  0  0  0  0  0  0  0  0
    4.8050   -0.7521    0.0475 O   0  0  0  0  0  0  0  0  0  0  0  0
    2.0334   -1.9113    3.3586 H   0  0  0  0  0  0  0  0  0  0  0  0
    1.2565    1.4359    1.5191 H   0  0  0  0  0  0  0  0  0  0  0  0
    0.2942   -2.5125    1.4977 H   0  0  0  0  0  0  0  0  0  0  0  0
    3.0333    0.9943    3.0346 H   0  0  0  0  0  0  0  0  0  0  0  0
    4.0774   -0.1090   -3.2241 H   0  0  0  0  0  0  0  0  0  0  0  0
    5.5146   -2.4192   -1.7991 H   0  0  0  0  0  0  0  0  0  0  0  0
    6.7483    0.9590   -0.6734 H   0  0  0  0  0  0  0  0  0  0  0  0
   -3.6864    4.7706    1.2998 H   0  0  0  0  0  0  0  0  0  0  0  0
   -3.3639    2.8790   -1.8000 H   0  0  0  0  0  0  0  0  0  0  0  0
   -4.6136   -1.5323   -1.7249 H   0  0  0  0  0  0  0  0  0  0  0  0
   -0.5503    5.1878    0.6262 H   0  0  0  0  0  0  0  0  0  0  0  0
   -5.2365   -1.7662    1.3623 H   0  0  0  0  0  0  0  0  0  0  0  0
   -1.6851   -4.1829    1.2177 H   0  0  0  0  0  0  0  0  0  0  0  0
    0.1806    1.2339    2.9566 H   0  0  0  0  0  0  0  0  0  0  0  0
   -0.6037   -1.8401    2.9010 H   0  0  0  0  0  0  0  0  0  0  0  0
    1.3410   -0.5163    4.2426 H   0  0  0  0  0  0  0  0  0  0  0  0
    3.7227   -0.2055    4.1590 H   0  0  0  0  0  0  0  0  0  0  0  0
   -1.6655    3.2980   -2.2194 H   0  0  0  0  0  0  0  0  0  0  0  0
   -5.2718   -3.5634    1.2688 H   0  0  0  0  0  0  0  0  0  0  0  0
    6.9396   -1.5120   -1.1856 H   0  0  0  0  0  0  0  0  0  0  0  0
   -3.3275   -2.5631   -2.4422 H   0  0  0  0  0  0  0  0  0  0  0  0
   -3.1571    3.5316    2.4872 H   0  0  0  0  0  0  0  0  0  0  0  0
    3.1767    0.5481   -1.8146 H   0  0  0  0  0  0  0  0  0  0  0  0
   -0.1362    3.8881    1.7841 H   0  0  0  0  0  0  0  0  0  0  0  0
    5.1791    1.8138   -0.9094 H   0  0  0  0  0  0  0  0  0  0  0  0
   -2.6581   -5.0223   -0.0265 H   0  0  0  0  0  0  0  0  0  0  0  0
    3.2748   -1.2318   -2.0748 H   0  0  0  0  0  0  0  0  0  0  0  0
    6.3537   -1.2384   -2.8640 H   0  0  0  0  0  0  0  0  0  0  0  0
    6.1505    1.2940   -2.3324 H   0  0  0  0  0  0  0  0  0  0  0  0
   -2.7980    4.5818   -1.6790 H   0  0  0  0  0  0  0  0  0  0  0  0
   -4.3222    3.0865    1.1926 H   0  0  0  0  0  0  0  0  0  0  0  0
   -4.8095   -3.3214   -1.7704 H   0  0  0  0  0  0  0  0  0  0  0  0
    0.4285    3.7897    0.0826 H   0  0  0  0  0  0  0  0  0  0  0  0
   -4.1692   -2.7446    2.4263 H   0  0  0  0  0  0  0  0  0  0  0  0
   -1.2695   -4.0045   -0.5205 H   0  0  0  0  0  0  0  0  0  0  0  0
    4.5021   -1.4636    2.2025 H   0  0  0  0  0  0  0  0  0  0  0  0
  1 25  1  0  0  0  0
  1 22  1  0  0  0  0
  2 20  1  0  0  0  0
  2 23  1  0  0  0  0
  3 63  1  0  0  0  0
  3 11  1  0  0  0  0
  4 13  1  0  0  0  0
  5 10  2  0  0  0  0
  6 12  1  0  0  0  0
  6  9  1  1  0  0  0
  7  2  1  1  0  0  0
  7 12  1  0  0  0  0
  8  1  1  1  0  0  0
  8  6  1  0  0  0  0
  9  4  1  0  0  0  0
  9 42  1  0  0  0  0
 10  8  1  0  0  0  0
 10  7  1  0  0  0  0
 11 13  1  0  0  0  0
 11 44  1  0  0  0  0
 12 14  1  1  0  0  0
 13 28  1  0  0  0  0
 13 43  1  0  0  0  0
 14  4  1  0  0  0  0
 14 41  1  0  0  0  0
 15  3  1  0  0  0  0
 16 54  1  0  0  0  0
 16 50  1  0  0  0  0
 16 17  1  0  0  0  0
 17 19  1  0  0  0  0
 17 27  1  0  0  0  0
 18 33  1  0  0  0  0
 18 17  1  0  0  0  0
 18 47  1  0  0  0  0
 19 52  1  0  0  0  0
 19 34  1  0  0  0  0
 20 51  1  0  0  0  0
 21  2  1  0  0  0  0
 22 61  1  0  0  0  0
 23 49  1  0  0  0  0
 24  1  1  0  0  0  0
 25 40  1  0  0  0  0
 26 15  2  0  0  0  0
 27 15  1  0  0  0  0
 29 14  1  0  0  0  0
 30  9  1  0  0  0  0
 31 11  1  0  0  0  0
 32 16  1  0  0  0  0
 35 23  1  0  0  0  0
 36 21  1  0  0  0  0
 37 24  1  0  0  0  0
 38 20  1  0  0  0  0
 39 22  1  0  0  0  0
 45 21  1  0  0  0  0
 46 22  1  0  0  0  0
 48 24  1  0  0  0  0
 53 25  1  0  0  0  0
 55 18  1  0  0  0  0
 56 19  1  0  0  0  0
 57 21  1  0  0  0  0
 58 23  1  0  0  0  0
 59 24  1  0  0  0  0
 60 20  1  0  0  0  0
 62 25  1  0  0  0  0
M  END
