3
q = 0.0, confidence = 0.998

 51 54  0  0  0  0  0  0  0  0999 V2000
    0.7716   -1.1627   -0.1873 N   0  0  0  0  0  0  0  0  0  0  0  0
    0.8855    1.0219   -0.3326 N   0  0  0  0  0  0  0  0  0  0  0  0
    0.0079   -0.0249   -0.2252 C   0  0  0  0  0  2  0  0  0  0  0  0
    2.1319   -0.8418   -0.2589 C   0  0  0  0  0  0  0  0  0  0  0  0
    3.3038   -1.6783   -0.2766 C   0  0  0  0  0  0  0  0  0  0  0  0
    3.2731   -3.0989   -0.2175 C   0  0  0  0  0  0  0  0  0  0  0  0
    2.3134   -3.6221   -0.1601 H   0  0  0  0  0  0  0  0  0  0  0  0
    4.4426   -3.8511   -0.2325 C   0  0  0  0  0  0  0  0  0  0  0  0
    4.3862   -4.9488   -0.1841 H   0  0  0  0  0  0  0  0  0  0  0  0
    5.6924   -3.2037   -0.3083 C   0  0  0  0  0  0  0  0  0  0  0  0
    6.6231   -3.7902   -0.3171 H   0  0  0  0  0  0  0  0  0  0  0  0
    5.7473   -1.8152   -0.3747 C   0  0  0  0  0  0  0  0  0  0  0  0
    6.7333   -1.3371   -0.4381 H   0  0  0  0  0  0  0  0  0  0  0  0
    4.5778   -1.0097   -0.3659 C   0  0  0  0  0  0  0  0  0  0  0  0
    4.6550    0.4511   -0.4563 C   0  0  0  0  0  0  0  0  0  0  0  0
    5.9031    1.1218   -0.5515 C   0  0  0  0  0  0  0  0  0  0  0  0
    6.8327    0.5382   -0.5444 H   0  0  0  0  0  0  0  0  0  0  0  0
    5.9958    2.5059   -0.6559 C   0  0  0  0  0  0  0  0  0  0  0  0
    6.9833    2.9856   -0.7265 H   0  0  0  0  0  0  0  0  0  0  0  0
    4.8218    3.2856   -0.6718 C   0  0  0  0  0  0  0  0  0  0  0  0
    4.8818    4.3808   -0.7570 H   0  0  0  0  0  0  0  0  0  0  0  0
    3.5792    2.6685   -0.5766 C   0  0  0  0  0  0  0  0  0  0  0  0
    2.6816    3.2946   -0.5904 H   0  0  0  0  0  0  0  0  0  0  0  0
    3.4586    1.2557   -0.4628 C   0  0  0  0  0  0  0  0  0  0  0  0
    2.2054    0.5551   -0.3513 C   0  0  0  0  0  0  0  0  0  0  0  0
    0.1360   -2.4411    0.1390 C   0  0  0  0  0  0  0  0  0  0  0  0
    0.5012   -3.2316   -0.5471 H   0  0  0  0  0  0  0  0  0  0  0  0
   -0.9388   -2.2709   -0.0883 H   0  0  0  0  0  0  0  0  0  0  0  0
    0.2985   -2.8138    1.6150 C   0  0  0  0  0  0  0  0  0  0  0  0
   -0.0141   -1.9305    2.2126 H   0  0  0  0  0  0  0  0  0  0  0  0
    1.3700   -2.9991    1.8414 H   0  0  0  0  0  0  0  0  0  0  0  0
   -0.5440   -4.0309    2.0199 C   0  0  0  0  0  0  0  0  0  0  0  0
   -0.2825   -4.9022    1.3766 H   0  0  0  0  0  0  0  0  0  0  0  0
   -0.2497   -4.3247    3.0498 H   0  0  0  0  0  0  0  0  0  0  0  0
   -2.0553   -3.7824    1.9816 C   0  0  0  0  0  0  0  0  0  0  0  0
   -2.3245   -2.8995    2.5963 H   0  0  0  0  0  0  0  0  0  0  0  0
   -2.6174   -4.6591    2.3614 H   0  0  0  0  0  0  0  0  0  0  0  0
   -2.4209   -3.5784    0.9541 H   0  0  0  0  0  0  0  0  0  0  0  0
    0.3974    2.3949   -0.1888 C   0  0  0  0  0  0  0  0  0  0  0  0
   -0.6925    2.3301   -0.3974 H   0  0  0  0  0  0  0  0  0  0  0  0
    0.8482    3.0362   -0.9728 H   0  0  0  0  0  0  0  0  0  0  0  0
    0.6046    2.9466    1.2218 C   0  0  0  0  0  0  0  0  0  0  0  0
    1.6856    2.9433    1.4824 H   0  0  0  0  0  0  0  0  0  0  0  0
    0.0988    2.2513    1.9266 H   0  0  0  0  0  0  0  0  0  0  0  0
    0.0334    4.3577    1.3776 C   0  0  0  0  0  0  0  0  0  0  0  0
    0.5284    5.0453    0.6542 H   0  0  0  0  0  0  0  0  0  0  0  0
   -1.0425    4.3438    1.0945 H   0  0  0  0  0  0  0  0  0  0  0  0
    0.1829    4.9043    2.7974 C   0  0  0  0  0  0  0  0  0  0  0  0
   -0.3385    4.2533    3.5288 H   0  0  0  0  0  0  0  0  0  0  0  0
   -0.2403    5.9246    2.8910 H   0  0  0  0  0  0  0  0  0  0  0  0
    1.2498    4.9537    3.1000 H   0  0  0  0  0  0  0  0  0  0  0  0
  1 26  1  0  0  0  0
  2  3  1  0  0  0  0
  2 39  1  0  0  0  0
  3  1  1  0  0  0  0
  4  1  1  0  0  0  0
  5  4  1  0  0  0  0
  5  6  1  0  0  0  0
  6  7  1  0  0  0  0
  8  6  2  0  0  0  0
  8  9  1  0  0  0  0
 10  8  1  0  0  0  0
 11 10  1  0  0  0  0
 12 14  1  0  0  0  0
 12 10  2  0  0  0  0
 13 12  1  0  0  0  0
 14  5  2  0  0  0  0
 15 14  1  0  0  0  0
 16 17  1  0  0  0  0
 16 15  2  0  0  0  0
 18 16  1  0  0  0  0
 19 18  1  0  0  0  0
 20 18  2  0  0  0  0
 20 22  1  0  0  0  0
 21 20  1  0  0  0  0
 22 24  2  0  0  0  0
 23 22  1  0  0  0  0
 24 15  1  0  0  0  0
 24 25  1  0  0  0  0
 25  2  1  0  0  0  0
 25  4  2  0  0  0  0
 26 29  1  0  0  0  0
 27 26  1  0  0  0  0
 28 26  1  0  0  0  0
 29 31  1  0  0  0  0
 29 32  1  0  0  0  0
 29 30  1  0  0  0  0
 32 34  1  0  0  0  0
 33 32  1  0  0  0  0
 35 32  1  0  0  0  0
 35 37  1  0  0  0  0
 35 36  1  0  0  0  0
 38 35  1  0  0  0  0
 39 42  1  0  0  0  0
 40 39  1  0  0  0  0
 41 39  1  0  0  0  0
 42 45  1  0  0  0  0
 42 43  1  0  0  0  0
 42 44  1  0  0  0  0
 45 48  1  0  0  0  0
 46 45  1  0  0  0  0
 47 45  1  0  0  0  0
 48 50  1  0  0  0  0
 48 51  1  0  0  0  0
 48 49  1  0  0  0  0
M  END
