3
q = 0.0, confidence = 0.998

 55 57  0  0  0  0  0  0  0  0999 V2000
   -0.4308   -1.3805   -1.4516 N   0  0  0  0  0  0  0  0  0  0  0  0
    1.5445   -0.4156   -1.3154 N   0  0  0  0  0  0  0  0  0  0  0  0
    0.3017   -0.4628   -0.7735 C   0  0  0  0  0  2  0  0  0  0  0  0
    0.3425   -2.0177   -2.5329 C   0  0  0  0  0  0  0  0  0  0  0  0
   -0.2359   -2.0333   -3.4773 H   0  0  0  0  0  0  0  0  0  0  0  0
    0.5798   -3.0687   -2.2570 H   0  0  0  0  0  0  0  0  0  0  0  0
    1.5954   -1.1325   -2.6034 C   0  0  0  0  0  0  0  0  0  0  0  0
    2.5343   -1.7089   -2.7107 H   0  0  0  0  0  0  0  0  0  0  0  0
    1.5511   -0.3924   -3.4344 H   0  0  0  0  0  0  0  0  0  0  0  0
   -1.8331   -1.6295   -1.2617 C   0  0  0  0  0  0  0  0  0  0  0  0
   -2.3847   -2.3741   -0.1850 C   0  0  0  0  0  0  0  0  0  0  0  0
   -3.8005   -2.3757   -0.1052 C   0  0  0  0  0  0  0  0  0  0  0  0
   -4.2746   -2.9007    0.7363 H   0  0  0  0  0  0  0  0  0  0  0  0
   -4.6290   -1.7579   -1.0451 C   0  0  0  0  0  0  0  0  0  0  0  0
   -5.7218   -1.7981   -0.9208 H   0  0  0  0  0  0  0  0  0  0  0  0
   -4.0599   -1.1041   -2.1470 C   0  0  0  0  0  0  0  0  0  0  0  0
   -4.6870   -0.6177   -2.9084 H   0  0  0  0  0  0  0  0  0  0  0  0
   -2.6701   -1.0445   -2.2379 C   0  0  0  0  0  0  0  0  0  0  0  0
   -2.1983   -0.4924   -3.0618 H   0  0  0  0  0  0  0  0  0  0  0  0
   -1.6367   -3.2017    0.8874 C   0  0  0  0  0  0  0  0  0  0  0  0
   -2.2354   -4.6318    0.9032 C   0  0  0  0  0  0  0  0  0  0  0  0
   -3.3119   -4.6488    1.1610 H   0  0  0  0  0  0  0  0  0  0  0  0
   -1.7045   -5.2462    1.6584 H   0  0  0  0  0  0  0  0  0  0  0  0
   -2.1156   -5.1233   -0.0840 H   0  0  0  0  0  0  0  0  0  0  0  0
   -0.1241   -3.3587    0.6592 C   0  0  0  0  0  0  0  0  0  0  0  0
    0.2742   -4.0735    1.4072 H   0  0  0  0  0  0  0  0  0  0  0  0
    0.4207   -2.4112    0.8085 H   0  0  0  0  0  0  0  0  0  0  0  0
    0.1054   -3.7758   -0.3417 H   0  0  0  0  0  0  0  0  0  0  0  0
   -1.8453   -2.5374    2.2682 C   0  0  0  0  0  0  0  0  0  0  0  0
   -2.9203   -2.4316    2.5175 H   0  0  0  0  0  0  0  0  0  0  0  0
   -1.3676   -1.5375    2.2871 H   0  0  0  0  0  0  0  0  0  0  0  0
   -1.3671   -3.1491    3.0605 H   0  0  0  0  0  0  0  0  0  0  0  0
    2.5312    0.5780   -0.9975 C   0  0  0  0  0  0  0  0  0  0  0  0
    2.1653    1.9144   -1.2713 C   0  0  0  0  0  0  0  0  0  0  0  0
    1.1500    2.1107   -1.6408 H   0  0  0  0  0  0  0  0  0  0  0  0
    3.0571    2.9693   -1.0723 C   0  0  0  0  0  0  0  0  0  0  0  0
    2.7469    4.0033   -1.2847 H   0  0  0  0  0  0  0  0  0  0  0  0
    4.3491    2.6779   -0.6132 C   0  0  0  0  0  0  0  0  0  0  0  0
    5.0851    3.4821   -0.4624 H   0  0  0  0  0  0  0  0  0  0  0  0
    4.7025    1.3547   -0.3349 C   0  0  0  0  0  0  0  0  0  0  0  0
    5.7177    1.1596    0.0380 H   0  0  0  0  0  0  0  0  0  0  0  0
    3.8156    0.2595   -0.4849 C   0  0  0  0  0  0  0  0  0  0  0  0
    4.3574   -1.1304   -0.0641 C   0  0  0  0  0  0  0  0  0  0  0  0
    3.3121   -2.2571    0.0362 C   0  0  0  0  0  0  0  0  0  0  0  0
    2.8899   -2.5545   -0.9405 H   0  0  0  0  0  0  0  0  0  0  0  0
    2.4924   -1.9714    0.7208 H   0  0  0  0  0  0  0  0  0  0  0  0
    3.8095   -3.1577    0.4508 H   0  0  0  0  0  0  0  0  0  0  0  0
    5.4515   -1.5513   -1.0726 C   0  0  0  0  0  0  0  0  0  0  0  0
    5.8920   -2.5259   -0.7763 H   0  0  0  0  0  0  0  0  0  0  0  0
    6.2724   -0.8085   -1.1284 H   0  0  0  0  0  0  0  0  0  0  0  0
    5.0333   -1.6636   -2.0947 H   0  0  0  0  0  0  0  0  0  0  0  0
    4.9693   -1.0085    1.3554 C   0  0  0  0  0  0  0  0  0  0  0  0
    4.1928   -0.6729    2.0714 H   0  0  0  0  0  0  0  0  0  0  0  0
    5.8212   -0.3033    1.4013 H   0  0  0  0  0  0  0  0  0  0  0  0
    5.3437   -1.9993    1.6841 H   0  0  0  0  0  0  0  0  0  0  0  0
  1 10  1  0  0  0  0
  1  3  1  0  0  0  0
  2 33  1  0  0  0  0
  2  3  1  0  0  0  0
  4  6  1  0  0  0  0
  4  1  1  0  0  0  0
  5  4  1  0  0  0  0
  7  4  1  0  0  0  0
  7  2  1  0  0  0  0
  8  7  1  0  0  0  0
  9  7  1  0  0  0  0
 10 11  1  0  0  0  0
 11 12  2  0  0  0  0
 11 20  1  0  0  0  0
 12 13  1  0  0  0  0
 14 15  1  0  0  0  0
 14 12  1  0  0  0  0
 16 14  2  0  0  0  0
 17 16  1  0  0  0  0
 18 16  1  0  0  0  0
 18 10  2  0  0  0  0
 19 18  1  0  0  0  0
 20 21  1  0  0  0  0
 20 29  1  0  0  0  0
 21 22  1  0  0  0  0
 21 23  1  0  0  0  0
 24 21  1  0  0  0  0
 25 27  1  0  0  0  0
 25 20  1  0  0  0  0
 25 26  1  0  0  0  0
 28 25  1  0  0  0  0
 29 31  1  0  0  0  0
 29 30  1  0  0  0  0
 29 32  1  0  0  0  0
 33 42  1  0  0  0  0
 34 36  1  0  0  0  0
 34 33  2  0  0  0  0
 35 34  1  0  0  0  0
 36 38  2  0  0  0  0
 37 36  1  0  0  0  0
 38 39  1  0  0  0  0
 38 40  1  0  0  0  0
 40 41  1  0  0  0  0
 42 40  2  0  0  0  0
 42 43  1  0  0  0  0
 43 44  1  0  0  0  0
 43 52  1  0  0  0  0
 44 47  1  0  0  0  0
 44 46  1  0  0  0  0
 45 44  1  0  0  0  0
 48 49  1  0  0  0  0
 48 43  1  0  0  0  0
 50 48  1  0  0  0  0
 51 48  1  0  0  0  0
 52 54  1  0  0  0  0
 52 55  1  0  0  0  0
 52 53  1  0  0  0  0
M  END
