2
q = -1.0, confidence = 0.0

 23 25  0  0  0  0  0  0  0  0999 V2000
    1.2844   -1.8179    0.1732 C   0  0  0  0  0  0  0  0  0  0  0  0
    0.7292   -1.2149    1.3483 C   0  0  0  0  0  3  0  0  0  0  0  0
    1.2929   -0.6132    2.0689 H   0  0  0  0  0  0  0  0  0  0  0  0
   -0.6206   -1.7003    1.4961 C   0  0  0  0  0  0  0  0  0  0  0  0
   -1.6068   -1.5182    2.5096 C   0  0  0  0  0  0  0  0  0  0  0  0
   -1.3851   -0.9018    3.3937 H   0  0  0  0  0  0  0  0  0  0  0  0
   -2.8263   -2.1688    2.3817 C   0  0  0  0  0  0  0  0  0  0  0  0
   -3.5884   -2.0545    3.1675 H   0  0  0  0  0  0  0  0  0  0  0  0
   -3.1117   -2.9927    1.2528 C   0  0  0  0  0  0  0  0  0  0  0  0
   -4.0919   -3.4879    1.1869 H   0  0  0  0  0  0  0  0  0  0  0  0
   -2.1823   -3.1760    0.2402 C   0  0  0  0  0  0  0  0  0  0  0  0
   -2.4096   -3.8018   -0.6341 H   0  0  0  0  0  0  0  0  0  0  0  0
   -0.9134   -2.5404    0.3489 C   0  0  0  0  0  0  0  0  0  0  0  0
    0.2432   -2.5315   -0.5028 C   0  0  0  0  0  0  0  0  0  0  0  0
    0.3430   -3.0594   -1.4577 H   0  0  0  0  0  0  0  0  0  0  0  0
    2.6590   -1.6955   -0.2550 C   0  0  0  0  0  0  0  0  0  0  0  0
    3.3894   -2.2499   -1.2919 C   0  0  0  0  0  0  0  0  0  0  0  0
    3.0081   -2.9434   -2.0478 H   0  0  0  0  0  0  0  0  0  0  0  0
    4.7133   -1.7198   -1.1844 C   0  0  0  0  0  0  0  0  0  0  0  0
    5.5687   -1.9315   -1.8347 H   0  0  0  0  0  0  0  0  0  0  0  0
    4.7008   -0.8799   -0.0926 C   0  0  0  0  0  0  0  0  0  0  0  0
    5.4539   -0.2483    0.3872 H   0  0  0  0  0  0  0  0  0  0  0  0
    3.4668   -0.8623    0.4790 O   0  0  0  0  0  0  0  0  0  0  0  0
  1  2  1  0  0  0  0
  2  4  1  0  0  0  0
  2  3  1  0  0  0  0
  4  5  1  0  0  0  0
  5  6  1  0  0  0  0
  7  5  2  0  0  0  0
  7  8  1  0  0  0  0
  9  7  1  0  0  0  0
 10  9  1  0  0  0  0
 11 13  1  0  0  0  0
 11  9  2  0  0  0  0
 12 11  1  0  0  0  0
 13  4  2  0  0  0  0
 14  1  2  0  0  0  0
 14 13  1  0  0  0  0
 15 14  1  0  0  0  0
 16  1  1  0  0  0  0
 16 23  1  0  0  0  0
 17 19  1  0  0  0  0
 17 16  2  0  0  0  0
 18 17  1  0  0  0  0
 19 21  2  0  0  0  0
 20 19  1  0  0  0  0
 21 22  1  0  0  0  0
 21 23  1  0  0  0  0
M  END
