3
q = 0.0, confidence = 0.998

 62 66  0  0  1  0  0  0  0  0999 V2000
   -0.8703   -1.5866   -0.2483 N   0  0  0  0  0  0  0  0  0  0  0  0
    1.1454   -0.9543   -0.7266 N   0  0  0  0  0  0  0  0  0  0  0  0
   -0.0996   -0.4666   -0.4255 C   0  0  0  0  0  2  0  0  0  0  0  0
   -0.1324   -2.7453   -0.4566 C   0  0  0  0  0  0  0  0  0  0  0  0
    1.1401   -2.3446   -0.7652 C   0  0  0  0  0  0  0  0  0  0  0  0
   -2.2400   -1.5532    0.1952 C   0  0  0  0  0  0  0  0  0  0  0  0
   -3.2711   -1.5186   -0.7708 C   0  0  0  0  0  0  0  0  0  0  0  0
   -4.5965   -1.4838   -0.2984 C   0  0  0  0  0  0  0  0  0  0  0  0
   -4.8737   -1.4797    1.0736 C   0  0  0  0  0  0  0  0  0  0  0  0
   -3.8290   -1.5076    2.0062 C   0  0  0  0  0  0  0  0  0  0  0  0
   -2.4858   -1.5452    1.5894 C   0  0  0  0  0  0  0  0  0  0  0  0
   -2.9797   -1.4674   -2.2642 C   0  0  0  0  0  0  0  0  0  0  0  0
   -3.6640   -2.6160   -3.0230 C   0  0  0  0  0  0  0  0  0  0  0  0
   -3.3593   -0.0916   -2.8400 C   0  0  0  0  0  0  0  0  0  0  0  0
   -1.3531   -1.5154    2.6091 C   0  0  0  0  0  0  0  0  0  0  0  0
   -1.5295   -2.5708    3.7117 C   0  0  0  0  0  0  0  0  0  0  0  0
   -1.1983   -0.0997    3.1943 C   0  0  0  0  0  0  0  0  0  0  0  0
    2.3467   -0.1143   -1.0061 C   0  0  2  0  0  0  0  0  0  0  0  0
    3.6144   -0.9238   -0.8324 C   0  0  0  0  0  0  0  0  0  0  0  0
    4.4465   -1.1477   -1.9443 C   0  0  0  0  0  0  0  0  0  0  0  0
    5.5806   -1.9645   -1.8511 C   0  0  0  0  0  0  0  0  0  0  0  0
    5.8808   -2.5921   -0.6299 C   0  0  0  0  0  0  0  0  0  0  0  0
    5.0650   -2.3738    0.4836 C   0  0  0  0  0  0  0  0  0  0  0  0
    3.9388   -1.5137    0.4248 C   0  0  0  0  0  0  0  0  0  0  0  0
    3.1839   -1.2768    1.6516 C   0  0  0  0  0  0  0  0  0  0  0  0
    2.4874   -0.1550    2.0051 C   0  0  0  0  0  0  0  0  0  0  0  0
    2.3349    1.0819    1.2510 C   0  0  0  0  0  0  0  0  0  0  0  0
    2.1648    2.2907    1.9706 C   0  0  0  0  0  0  0  0  0  0  0  0
    2.1216    3.5258    1.3204 C   0  0  0  0  0  0  0  0  0  0  0  0
    2.2427    3.5850   -0.0773 C   0  0  0  0  0  0  0  0  0  0  0  0
    2.3533    2.3989   -0.8116 C   0  0  0  0  0  0  0  0  0  0  0  0
    2.3686    1.1479   -0.1701 C   0  0  0  0  0  0  0  0  0  0  0  0
   -0.5744   -3.7401   -0.3543 H   0  0  0  0  0  0  0  0  0  0  0  0
    2.0370   -2.9250   -0.9931 H   0  0  0  0  0  0  0  0  0  0  0  0
   -5.4252   -1.4475   -1.0216 H   0  0  0  0  0  0  0  0  0  0  0  0
   -5.9173   -1.4459    1.4216 H   0  0  0  0  0  0  0  0  0  0  0  0
   -4.0597   -1.4905    3.0818 H   0  0  0  0  0  0  0  0  0  0  0  0
   -1.8852   -1.5874   -2.3964 H   0  0  0  0  0  0  0  0  0  0  0  0
   -4.7696   -2.5439   -2.9635 H   0  0  0  0  0  0  0  0  0  0  0  0
   -3.3699   -3.6053   -2.6175 H   0  0  0  0  0  0  0  0  0  0  0  0
   -3.3894   -2.5886   -4.0972 H   0  0  0  0  0  0  0  0  0  0  0  0
   -2.8274    0.7216   -2.3045 H   0  0  0  0  0  0  0  0  0  0  0  0
   -4.4490    0.0958   -2.7469 H   0  0  0  0  0  0  0  0  0  0  0  0
   -3.0951   -0.0328   -3.9157 H   0  0  0  0  0  0  0  0  0  0  0  0
   -0.4093   -1.7522    2.0765 H   0  0  0  0  0  0  0  0  0  0  0  0
   -1.6431   -3.5891    3.2880 H   0  0  0  0  0  0  0  0  0  0  0  0
   -2.4197   -2.3662    4.3413 H   0  0  0  0  0  0  0  0  0  0  0  0
   -0.6481   -2.5747    4.3850 H   0  0  0  0  0  0  0  0  0  0  0  0
   -2.1196    0.2154    3.7260 H   0  0  0  0  0  0  0  0  0  0  0  0
   -0.9979    0.6410    2.3928 H   0  0  0  0  0  0  0  0  0  0  0  0
   -0.3586   -0.0670    3.9194 H   0  0  0  0  0  0  0  0  0  0  0  0
    2.2769    0.1909   -2.0699 H   0  0  0  0  0  0  0  0  0  0  0  0
    4.1807   -0.6855   -2.9081 H   0  0  0  0  0  0  0  0  0  0  0  0
    6.2148   -2.1304   -2.7345 H   0  0  0  0  0  0  0  0  0  0  0  0
    6.7569   -3.2528   -0.5472 H   0  0  0  0  0  0  0  0  0  0  0  0
    5.3083   -2.8540    1.4442 H   0  0  0  0  0  0  0  0  0  0  0  0
    3.2949   -2.0555    2.4246 H   0  0  0  0  0  0  0  0  0  0  0  0
    2.0903   -0.1252    3.0336 H   0  0  0  0  0  0  0  0  0  0  0  0
    2.0862    2.2432    3.0677 H   0  0  0  0  0  0  0  0  0  0  0  0
    1.9800    4.4484    1.9018 H   0  0  0  0  0  0  0  0  0  0  0  0
    2.1859    4.5504   -0.5995 H   0  0  0  0  0  0  0  0  0  0  0  0
    2.3668    2.4354   -1.9117 H   0  0  0  0  0  0  0  0  0  0  0  0
  1  6  1  0  0  0  0
  2  3  1  0  0  0  0
  3  1  1  0  0  0  0
  4 33  1  0  0  0  0
  4  1  1  0  0  0  0
  5  2  1  0  0  0  0
  5  4  2  0  0  0  0
  6 11  1  0  0  0  0
  7  8  1  0  0  0  0
  7  6  2  0  0  0  0
  8  9  2  0  0  0  0
  9 36  1  0  0  0  0
  9 10  1  0  0  0  0
 10 37  1  0  0  0  0
 11 10  2  0  0  0  0
 11 15  1  0  0  0  0
 12  7  1  0  0  0  0
 13 39  1  0  0  0  0
 13 40  1  0  0  0  0
 13 12  1  0  0  0  0
 14 43  1  0  0  0  0
 14 42  1  0  0  0  0
 14 12  1  0  0  0  0
 15 17  1  0  0  0  0
 15 16  1  0  0  0  0
 16 47  1  0  0  0  0
 16 48  1  0  0  0  0
 17 49  1  0  0  0  0
 17 51  1  0  0  0  0
 18 52  1  6  0  0  0
 18 19  1  0  0  0  0
 18  2  1  0  0  0  0
 18 32  1  0  0  0  0
 19 24  1  0  0  0  0
 20 21  1  0  0  0  0
 20 19  2  0  0  0  0
 21 22  2  0  0  0  0
 22 55  1  0  0  0  0
 22 23  1  0  0  0  0
 23 56  1  0  0  0  0
 24 23  2  0  0  0  0
 24 25  1  0  0  0  0
 25 26  2  0  0  0  0
 25 57  1  0  0  0  0
 26 58  1  0  0  0  0
 27 28  1  0  0  0  0
 27 26  1  0  0  0  0
 28 59  1  0  0  0  0
 29 60  1  0  0  0  0
 29 28  2  0  0  0  0
 30 29  1  0  0  0  0
 31 32  1  0  0  0  0
 31 30  2  0  0  0  0
 32 27  2  0  0  0  0
 34  5  1  0  0  0  0
 35  8  1  0  0  0  0
 38 12  1  0  0  0  0
 41 13  1  0  0  0  0
 44 14  1  0  0  0  0
 45 15  1  0  0  0  0
 46 16  1  0  0  0  0
 50 17  1  0  0  0  0
 53 20  1  0  0  0  0
 54 21  1  0  0  0  0
 61 30  1  0  0  0  0
 62 31  1  0  0  0  0
M  END
