3
q = 0.0, confidence = 0.996

 58 64  0  0  1  0  0  0  0  0999 V2000
    1.0906   -0.8596    0.0303 N   0  0  0  0  0  0  0  0  0  0  0  0
   -1.0064   -1.4387    0.0561 N   0  0  0  0  0  0  0  0  0  0  0  0
   -0.1792   -0.3459    0.0091 C   0  0  0  0  0  2  0  0  0  0  0  0
    1.0671   -2.2431    0.0899 C   0  0  0  0  0  0  0  0  0  0  0  0
   -0.2532   -2.6080    0.1061 C   0  0  0  0  0  0  0  0  0  0  0  0
    2.2976    0.0043   -0.0089 C   0  0  1  0  0  0  0  0  0  0  0  0
    3.0455   -0.0368    1.3114 C   0  0  0  0  0  0  0  0  0  0  0  0
    2.7151    0.9673    2.2432 C   0  0  0  0  0  0  0  0  0  0  0  0
    3.2474    0.9719    3.5383 C   0  0  0  0  0  0  0  0  0  0  0  0
    4.1235   -0.0542    3.9280 C   0  0  0  0  0  0  0  0  0  0  0  0
    4.4642   -1.0534    3.0144 C   0  0  0  0  0  0  0  0  0  0  0  0
    3.9582   -1.0633    1.6871 C   0  0  0  0  0  0  0  0  0  0  0  0
    4.4451   -2.1181    0.8059 C   0  0  0  0  0  0  0  0  0  0  0  0
    4.4550   -2.1925   -0.5576 C   0  0  0  0  0  0  0  0  0  0  0  0
    3.9805   -1.2407   -1.5553 C   0  0  0  0  0  0  0  0  0  0  0  0
    4.5040   -1.3758   -2.8688 C   0  0  0  0  0  0  0  0  0  0  0  0
    4.1753   -0.4836   -3.8911 C   0  0  0  0  0  0  0  0  0  0  0  0
    3.2941    0.5778   -3.6281 C   0  0  0  0  0  0  0  0  0  0  0  0
    2.7448    0.7146   -2.3474 C   0  0  0  0  0  0  0  0  0  0  0  0
    3.0627   -0.1806   -1.3066 C   0  0  0  0  0  0  0  0  0  0  0  0
   -2.4971   -1.3679    0.0537 C   0  0  2  0  0  0  0  0  0  0  0  0
   -2.9827   -0.5788    1.2918 C   0  0  0  0  0  0  0  0  0  0  0  0
   -4.5186   -0.4830    1.2822 C   0  0  2  0  0  0  0  0  0  0  0  0
   -5.1197   -1.8996    1.3331 C   0  0  0  0  0  0  0  0  0  0  0  0
   -4.6453   -2.6958    0.1031 C   0  0  2  0  0  0  0  0  0  0  0  0
   -3.1046   -2.7849    0.1064 C   0  0  0  0  0  0  0  0  0  0  0  0
   -2.9838   -0.6729   -1.2390 C   0  0  0  0  0  0  0  0  0  0  0  0
   -4.5195   -0.5754   -1.2349 C   0  0  1  0  0  0  0  0  0  0  0  0
   -5.1209   -1.9917   -1.1814 C   0  0  0  0  0  0  0  0  0  0  0  0
   -4.9759    0.2326   -0.0041 C   0  0  0  0  0  0  0  0  0  0  0  0
    1.9806   -2.8424    0.1156 H   0  0  0  0  0  0  0  0  0  0  0  0
   -0.7008   -3.6019    0.1489 H   0  0  0  0  0  0  0  0  0  0  0  0
    1.8460    1.0142   -0.0668 H   0  0  0  0  0  0  0  0  0  0  0  0
    1.9979    1.7486    1.9438 H   0  0  0  0  0  0  0  0  0  0  0  0
    2.9657    1.7667    4.2447 H   0  0  0  0  0  0  0  0  0  0  0  0
    4.5421   -0.0730    4.9455 H   0  0  0  0  0  0  0  0  0  0  0  0
    5.1610   -1.8523    3.3126 H   0  0  0  0  0  0  0  0  0  0  0  0
    4.9553   -2.9417    1.3333 H   0  0  0  0  0  0  0  0  0  0  0  0
    4.9721   -3.0681   -0.9849 H   0  0  0  0  0  0  0  0  0  0  0  0
    5.2047   -2.2016   -3.0684 H   0  0  0  0  0  0  0  0  0  0  0  0
    4.6073   -0.6135   -4.8948 H   0  0  0  0  0  0  0  0  0  0  0  0
    3.0219    1.2898   -4.4213 H   0  0  0  0  0  0  0  0  0  0  0  0
    2.0242    1.5233   -2.1449 H   0  0  0  0  0  0  0  0  0  0  0  0
   -2.5303    0.4355    1.2775 H   0  0  0  0  0  0  0  0  0  0  0  0
   -2.6212   -1.0879    2.2108 H   0  0  0  0  0  0  0  0  0  0  0  0
   -4.8449    0.0980    2.1699 H   0  0  0  0  0  0  0  0  0  0  0  0
   -4.8092   -2.4148    2.2676 H   0  0  0  0  0  0  0  0  0  0  0  0
   -6.2292   -1.8481    1.3453 H   0  0  0  0  0  0  0  0  0  0  0  0
   -5.0555   -3.7270    0.1411 H   0  0  0  0  0  0  0  0  0  0  0  0
   -2.7643   -3.3773   -0.7698 H   0  0  0  0  0  0  0  0  0  0  0  0
   -2.7651   -3.3108    1.0242 H   0  0  0  0  0  0  0  0  0  0  0  0
   -2.6238   -1.2493   -2.1180 H   0  0  0  0  0  0  0  0  0  0  0  0
   -2.5309    0.3392   -1.3013 H   0  0  0  0  0  0  0  0  0  0  0  0
   -4.8463   -0.0608   -2.1626 H   0  0  0  0  0  0  0  0  0  0  0  0
   -6.2304   -1.9412   -1.1961 H   0  0  0  0  0  0  0  0  0  0  0  0
   -4.8115   -2.5740   -2.0760 H   0  0  0  0  0  0  0  0  0  0  0  0
   -4.5491    1.2570   -0.0419 H   0  0  0  0  0  0  0  0  0  0  0  0
   -6.0816    0.3385   -0.0077 H   0  0  0  0  0  0  0  0  0  0  0  0
  1  4  1  0  0  0  0
  2  5  1  0  0  0  0
  3  1  1  0  0  0  0
  3  2  1  0  0  0  0
  4  5  2  0  0  0  0
  4 31  1  0  0  0  0
  5 32  1  0  0  0  0
  6 33  1  6  0  0  0
  6  1  1  0  0  0  0
  6  7  1  0  0  0  0
  7 12  2  0  0  0  0
  7  8  1  0  0  0  0
  8  9  2  0  0  0  0
  9 10  1  0  0  0  0
  9 35  1  0  0  0  0
 10 36  1  0  0  0  0
 11 37  1  0  0  0  0
 11 10  2  0  0  0  0
 12 11  1  0  0  0  0
 13 38  1  0  0  0  0
 13 12  1  0  0  0  0
 14 13  2  0  0  0  0
 15 20  1  0  0  0  0
 15 14  1  0  0  0  0
 16 15  2  0  0  0  0
 17 18  2  0  0  0  0
 17 16  1  0  0  0  0
 18 19  1  0  0  0  0
 19 43  1  0  0  0  0
 19 20  2  0  0  0  0
 20  6  1  0  0  0  0
 21  2  1  1  0  0  0
 21 26  1  0  0  0  0
 21 22  1  0  0  0  0
 22 45  1  0  0  0  0
 23 22  1  0  0  0  0
 23 24  1  0  0  0  0
 23 46  1  1  0  0  0
 24 48  1  0  0  0  0
 24 47  1  0  0  0  0
 25 26  1  0  0  0  0
 25 49  1  1  0  0  0
 25 24  1  0  0  0  0
 26 51  1  0  0  0  0
 27 28  1  0  0  0  0
 27 21  1  0  0  0  0
 28 54  1  6  0  0  0
 28 29  1  0  0  0  0
 28 30  1  0  0  0  0
 29 25  1  0  0  0  0
 30 23  1  0  0  0  0
 34  8  1  0  0  0  0
 39 14  1  0  0  0  0
 40 16  1  0  0  0  0
 41 17  1  0  0  0  0
 42 18  1  0  0  0  0
 44 22  1  0  0  0  0
 50 26  1  0  0  0  0
 52 27  1  0  0  0  0
 53 27  1  0  0  0  0
 55 29  1  0  0  0  0
 56 29  1  0  0  0  0
 57 30  1  0  0  0  0
 58 30  1  0  0  0  0
M  END
