2
q = 0.0, confidence = 0.96

 27 27  0  0  0  0  0  0  0  0999 V2000
   -2.8601    2.1095    0.5933 P   0  0  0  0  0  4  0  0  0  0  0  0
   -0.9321    0.2585   -0.3098 C   0  0  0  0  0  3  0  0  0  0  0  0
   -1.2973    1.5588   -0.0408 C   0  0  0  0  0  0  0  0  0  0  0  0
   -0.6186    2.4027   -0.2505 H   0  0  0  0  0  0  0  0  0  0  0  0
   -1.8712   -0.8552    0.0365 C   0  0  0  0  0  0  0  0  0  0  0  0
   -2.7862   -1.3663   -0.9125 C   0  0  0  0  0  0  0  0  0  0  0  0
   -2.7890   -0.9536   -1.9328 H   0  0  0  0  0  0  0  0  0  0  0  0
   -3.6624   -2.4048   -0.5677 C   0  0  0  0  0  0  0  0  0  0  0  0
   -4.3658   -2.7952   -1.3184 H   0  0  0  0  0  0  0  0  0  0  0  0
   -3.6361   -2.9560    0.7248 C   0  0  0  0  0  0  0  0  0  0  0  0
   -4.3199   -3.7760    0.9894 H   0  0  0  0  0  0  0  0  0  0  0  0
   -2.7229   -2.4650    1.6716 C   0  0  0  0  0  0  0  0  0  0  0  0
   -2.6890   -2.8992    2.6824 H   0  0  0  0  0  0  0  0  0  0  0  0
   -1.8444   -1.4248    1.3309 C   0  0  0  0  0  0  0  0  0  0  0  0
   -1.1222   -1.0447    2.0698 H   0  0  0  0  0  0  0  0  0  0  0  0
   -3.2571    1.5408    2.2795 C   0  0  0  0  0  0  0  0  0  0  0  0
   -4.1892    2.0272    2.6295 H   0  0  0  0  0  0  0  0  0  0  0  0
   -2.4208    1.8005    2.9563 H   0  0  0  0  0  0  0  0  0  0  0  0
   -3.3882    0.4420    2.2711 H   0  0  0  0  0  0  0  0  0  0  0  0
   -2.7698    3.9257    0.6555 C   0  0  0  0  0  0  0  0  0  0  0  0
   -3.7168    4.3440    1.0470 H   0  0  0  0  0  0  0  0  0  0  0  0
   -2.5896    4.3190   -0.3638 H   0  0  0  0  0  0  0  0  0  0  0  0
   -1.9336    4.2301    1.3142 H   0  0  0  0  0  0  0  0  0  0  0  0
   -4.2974    1.6826   -0.4420 C   0  0  0  0  0  0  0  0  0  0  0  0
   -5.2087    2.1674   -0.0389 H   0  0  0  0  0  0  0  0  0  0  0  0
   -4.4273    0.5835   -0.4464 H   0  0  0  0  0  0  0  0  0  0  0  0
   -4.1126    2.0284   -1.4770 H   0  0  0  0  0  0  0  0  0  0  0  0
  1 20  1  0  0  0  0
  1 16  1  0  0  0  0
  2  3  2  0  0  0  0
  2  5  1  0  0  0  0
  3  1  1  0  0  0  0
  4  3  1  0  0  0  0
  5 14  1  0  0  0  0
  6  8  1  0  0  0  0
  6  5  2  0  0  0  0
  7  6  1  0  0  0  0
  8 10  2  0  0  0  0
  9  8  1  0  0  0  0
 10 11  1  0  0  0  0
 10 12  1  0  0  0  0
 12 13  1  0  0  0  0
 14 12  2  0  0  0  0
 14 15  1  0  0  0  0
 16 17  1  0  0  0  0
 16 18  1  0  0  0  0
 19 16  1  0  0  0  0
 20 21  1  0  0  0  0
 20 23  1  0  0  0  0
 22 20  1  0  0  0  0
 24 25  1  0  0  0  0
 24  1  1  0  0  0  0
 26 24  1  0  0  0  0
 27 24  1  0  0  0  0
M  END
