12
q = -1.0, confidence = 0.0

 36 37  0  0  0  0  0  0  0  0999 V2000
    3.2929    0.6019   -0.8806 S   0  0  0  0  0  0  0  0  0  0  0  0
    4.3742    0.2487    0.0557 O   0  0  0  0  0  0  0  0  0  0  0  0
    0.2677    3.1605   -0.0124 C   0  0  0  0  0  0  0  0  0  0  0  0
   -0.3316    3.9121   -0.5482 H   0  0  0  0  0  0  0  0  0  0  0  0
    1.3037    2.5028   -0.6832 C   0  0  0  0  0  0  0  0  0  0  0  0
    1.5457    2.7252   -1.7328 H   0  0  0  0  0  0  0  0  0  0  0  0
    1.9543   -1.7089   -0.2691 C   0  0  0  0  0  0  0  0  0  0  0  0
    2.4754   -0.8715   -1.2797 N   0  0  0  0  0  0  0  0  0  0  0  0
    1.8615   -0.6931   -2.0811 H   0  0  0  0  0  0  0  0  0  0  0  0
    2.8545   -2.3124    0.6359 C   0  0  0  0  0  0  0  0  0  0  0  0
    3.9234   -2.0850    0.5310 H   0  0  0  0  0  0  0  0  0  0  0  0
   -2.5305   -1.2129   -2.3335 C   0  0  0  0  0  3  0  0  0  0  0  0
   -3.4721   -1.6983   -2.6294 H   0  0  0  0  0  0  0  0  0  0  0  0
   -2.1592   -0.4448   -3.0296 H   0  0  0  0  0  0  0  0  0  0  0  0
    3.5293    1.2367   -2.1896 O   0  0  0  0  0  0  0  0  0  0  0  0
   -0.3987   -1.3445   -1.0927 C   0  0  0  0  0  3  0  0  0  0  0  0
   -0.0453   -0.4622   -1.6534 H   0  0  0  0  0  0  0  0  0  0  0  0
   -1.6047   -1.9396   -1.5288 C   0  0  0  0  0  3  0  0  0  0  0  0
   -1.8872   -2.9288   -1.1332 H   0  0  0  0  0  0  0  0  0  0  0  0
    0.1221   -2.8892    0.8202 C   0  0  0  0  0  0  0  0  0  0  0  0
   -0.9545   -3.0962    0.9136 H   0  0  0  0  0  0  0  0  0  0  0  0
   -0.0448    2.8537    1.3307 C   0  0  0  0  0  0  0  0  0  0  0  0
    0.7430    1.8953    2.0013 C   0  0  0  0  0  0  0  0  0  0  0  0
    0.5141    1.6454    3.0482 H   0  0  0  0  0  0  0  0  0  0  0  0
    1.0161   -3.4778    1.7157 C   0  0  0  0  0  0  0  0  0  0  0  0
    0.6443   -4.1643    2.4905 H   0  0  0  0  0  0  0  0  0  0  0  0
    0.5557   -1.9788   -0.1743 C   0  0  0  0  0  0  0  0  0  0  0  0
    2.3880   -3.1764    1.6298 C   0  0  0  0  0  0  0  0  0  0  0  0
    3.1017   -3.6341    2.3311 H   0  0  0  0  0  0  0  0  0  0  0  0
    1.7979    1.2385    1.3554 C   0  0  0  0  0  0  0  0  0  0  0  0
    2.4145    0.4974    1.8828 H   0  0  0  0  0  0  0  0  0  0  0  0
    2.0561    1.5408    0.0094 C   0  0  0  0  0  0  0  0  0  0  0  0
   -1.1914    3.5410    2.0242 C   0  0  0  0  0  0  0  0  0  0  0  0
   -2.0779    3.5993    1.3613 H   0  0  0  0  0  0  0  0  0  0  0  0
   -0.9238    4.5832    2.3000 H   0  0  0  0  0  0  0  0  0  0  0  0
   -1.4821    3.0118    2.9518 H   0  0  0  0  0  0  0  0  0  0  0  0
  1 32  1  0  0  0  0
  1  2  2  0  0  0  0
  3 22  1  0  0  0  0
  4  3  1  0  0  0  0
  5  3  2  0  0  0  0
  5 32  1  0  0  0  0
  6  5  1  0  0  0  0
  7 27  2  0  0  0  0
  7 10  1  0  0  0  0
  8  1  1  0  0  0  0
  8  7  1  0  0  0  0
  9  8  1  0  0  0  0
 10 28  2  0  0  0  0
 11 10  1  0  0  0  0
 12 18  1  0  0  0  0
 13 12  1  0  0  0  0
 14 12  1  0  0  0  0
 15  1  2  0  0  0  0
 16 27  1  0  0  0  0
 17 16  1  0  0  0  0
 18 19  1  0  0  0  0
 18 16  1  0  0  0  0
 20 21  1  0  0  0  0
 20 25  2  0  0  0  0
 22 23  2  0  0  0  0
 22 33  1  0  0  0  0
 23 24  1  0  0  0  0
 25 26  1  0  0  0  0
 27 20  1  0  0  0  0
 28 25  1  0  0  0  0
 28 29  1  0  0  0  0
 30 31  1  0  0  0  0
 30 23  1  0  0  0  0
 32 30  2  0  0  0  0
 33 35  1  0  0  0  0
 33 36  1  0  0  0  0
 34 33  1  0  0  0  0
M  END
