4
q = -1.0, confidence = 0.0

 35 36  0  0  1  0  0  0  0  0999 V2000
    2.6166   -0.2430    2.5625 Si  0  0  0  0  0  0  0  0  0  0  0  0
    5.1648   -0.2745    1.0948 O   0  0  0  0  0  0  0  0  0  0  0  0
    3.3836   -1.2431   -2.8775 O   0  0  0  0  0  0  0  0  0  0  0  0
    1.8614    0.3106   -0.2474 C   0  0  0  0  0  3  0  0  0  0  0  0
    2.8371    0.0193    0.6810 C   0  0  0  0  0  0  0  0  0  0  0  0
    4.2598   -0.1027    0.2745 C   0  0  0  0  0  0  0  0  0  0  0  0
    4.6473    0.0173   -1.2340 C   0  0  1  0  0  0  0  0  0  0  0  0
    3.4245   -0.3286   -2.0620 C   0  0  0  0  0  0  0  0  0  0  0  0
    2.2342    0.5413   -1.7160 C   0  0  2  0  0  0  0  0  0  0  0  0
    1.3949    0.2427   -2.3742 H   0  0  0  0  0  0  0  0  0  0  0  0
    0.7994   -0.2543    3.1041 C   0  0  0  0  0  0  0  0  0  0  0  0
    0.7496   -0.5227    4.1808 H   0  0  0  0  0  0  0  0  0  0  0  0
    0.2033   -0.9939    2.5328 H   0  0  0  0  0  0  0  0  0  0  0  0
    0.3253    0.7391    2.9814 H   0  0  0  0  0  0  0  0  0  0  0  0
    3.3594   -1.9115    3.0729 C   0  0  0  0  0  0  0  0  0  0  0  0
    4.4432   -1.9318    2.8509 H   0  0  0  0  0  0  0  0  0  0  0  0
    2.8769   -2.7470    2.5261 H   0  0  0  0  0  0  0  0  0  0  0  0
    3.2119   -2.0852    4.1592 H   0  0  0  0  0  0  0  0  0  0  0  0
    3.4817    1.1693    3.4843 C   0  0  0  0  0  0  0  0  0  0  0  0
    4.5569    1.1893    3.2204 H   0  0  0  0  0  0  0  0  0  0  0  0
    3.3886    1.0429    4.5831 H   0  0  0  0  0  0  0  0  0  0  0  0
    3.0343    2.1480    3.2131 H   0  0  0  0  0  0  0  0  0  0  0  0
    4.9931    1.5218   -1.4853 C   0  0  0  0  0  0  0  0  0  0  0  0
    5.8653    1.7770   -0.8475 H   0  0  0  0  0  0  0  0  0  0  0  0
    5.3256    1.6132   -2.5429 H   0  0  0  0  0  0  0  0  0  0  0  0
    3.8242    2.4764   -1.2210 C   0  0  0  0  0  0  0  0  0  0  0  0
    3.6088    2.5144   -0.1327 H   0  0  0  0  0  0  0  0  0  0  0  0
    4.1059    3.5079   -1.5184 H   0  0  0  0  0  0  0  0  0  0  0  0
    2.5687    2.0353   -1.9754 C   0  0  0  0  0  0  0  0  0  0  0  0
    2.7168    2.1683   -3.0694 H   0  0  0  0  0  0  0  0  0  0  0  0
    1.6902    2.6523   -1.6873 H   0  0  0  0  0  0  0  0  0  0  0  0
    5.8410   -0.8794   -1.5536 C   0  0  0  0  0  0  0  0  0  0  0  0
    5.5715   -1.9469   -1.4398 H   0  0  0  0  0  0  0  0  0  0  0  0
    6.6760   -0.6527   -0.8654 H   0  0  0  0  0  0  0  0  0  0  0  0
    6.1670   -0.7277   -2.6009 H   0  0  0  0  0  0  0  0  0  0  0  0
  1 15  1  0  0  0  0
  1 11  1  0  0  0  0
  1 19  1  0  0  0  0
  3  8  2  0  0  0  0
  4  5  2  0  0  0  0
  5  1  1  0  0  0  0
  6  5  1  0  0  0  0
  6  2  2  0  0  0  0
  7 32  1  6  0  0  0
  7  6  1  0  0  0  0
  8  9  1  0  0  0  0
  8  7  1  0  0  0  0
  9 10  1  6  0  0  0
  9  4  1  0  0  0  0
 11 12  1  0  0  0  0
 13 11  1  0  0  0  0
 14 11  1  0  0  0  0
 15 18  1  0  0  0  0
 16 15  1  0  0  0  0
 17 15  1  0  0  0  0
 19 21  1  0  0  0  0
 20 19  1  0  0  0  0
 22 19  1  0  0  0  0
 23  7  1  0  0  0  0
 23 26  1  0  0  0  0
 23 24  1  0  0  0  0
 25 23  1  0  0  0  0
 26 27  1  0  0  0  0
 28 26  1  0  0  0  0
 29  9  1  0  0  0  0
 29 31  1  0  0  0  0
 29 26  1  0  0  0  0
 30 29  1  0  0  0  0
 32 33  1  0  0  0  0
 32 34  1  0  0  0  0
 35 32  1  0  0  0  0
M  END
