10
q = 0.0, confidence = 0.998

 58 60  0  0  1  0  0  0  0  0999 V2000
    1.1296   -0.1392    0.5434 P   0  0  0  0  0  0  0  0  0  0  0  0
    1.1130   -0.1902    2.3969 C   0  0  0  0  0  0  0  0  0  0  0  0
    0.3729    1.0003    3.0236 C   0  0  0  0  0  0  0  0  0  0  0  0
   -1.1686    0.9536    2.9507 C   0  0  0  0  0  0  0  0  0  0  0  0
   -1.8158    0.7446    1.5931 C   0  0  2  0  0  3  0  0  0  0  0  0
   -1.6806    1.7710    0.5705 C   0  0  0  0  0  0  0  0  0  0  0  0
   -2.2133    1.5341   -0.7404 C   0  0  0  0  0  0  0  0  0  0  0  0
   -3.0811    0.3859   -0.9980 C   0  0  0  0  0  0  0  0  0  0  0  0
   -3.2902   -0.5756    0.0289 C   0  0  0  0  0  0  0  0  0  0  0  0
   -2.5910   -0.4412    1.3105 C   0  0  2  0  0  3  0  0  0  0  0  0
   -1.0073    3.0911    0.8743 C   0  0  0  0  0  0  0  0  0  0  0  0
   -1.9455    2.5036   -1.8620 C   0  0  0  0  0  0  0  0  0  0  0  0
   -3.6057    0.2137   -2.3974 C   0  0  0  0  0  0  0  0  0  0  0  0
   -4.0748   -1.8383   -0.2041 C   0  0  0  0  0  0  0  0  0  0  0  0
   -2.7524   -1.5591    2.3087 C   0  0  0  0  0  0  0  0  0  0  0  0
    2.0633    1.4079    0.1465 C   0  0  0  0  0  0  0  0  0  0  0  0
    1.7702    2.0999   -1.0467 C   0  0  0  0  0  0  0  0  0  0  0  0
    2.4748    3.2687   -1.3758 C   0  0  0  0  0  0  0  0  0  0  0  0
    3.4677    3.7638   -0.5161 C   0  0  0  0  0  0  0  0  0  0  0  0
    3.7674    3.0753    0.6705 C   0  0  0  0  0  0  0  0  0  0  0  0
    3.0747    1.8999    0.9977 C   0  0  0  0  0  0  0  0  0  0  0  0
    2.3331   -1.4375    0.0509 C   0  0  0  0  0  0  0  0  0  0  0  0
    2.9345   -1.3565   -1.2212 C   0  0  0  0  0  0  0  0  0  0  0  0
    3.8444   -2.3403   -1.6315 C   0  0  0  0  0  0  0  0  0  0  0  0
    4.1627   -3.4101   -0.7802 C   0  0  0  0  0  0  0  0  0  0  0  0
    3.5595   -3.4975    0.4837 C   0  0  0  0  0  0  0  0  0  0  0  0
    2.6437   -2.5194    0.8979 C   0  0  0  0  0  0  0  0  0  0  0  0
    0.9982    1.6924   -1.7207 H   0  0  0  0  0  0  0  0  0  0  0  0
    2.2429    3.7959   -2.3140 H   0  0  0  0  0  0  0  0  0  0  0  0
    4.0142    4.6844   -0.7721 H   0  0  0  0  0  0  0  0  0  0  0  0
    4.5506    3.4524    1.3458 H   0  0  0  0  0  0  0  0  0  0  0  0
    2.1566   -0.2396    2.7688 H   0  0  0  0  0  0  0  0  0  0  0  0
    0.6266   -1.1528    2.6596 H   0  0  0  0  0  0  0  0  0  0  0  0
    3.3353    1.3644    1.9229 H   0  0  0  0  0  0  0  0  0  0  0  0
    2.6695   -0.5341   -1.9002 H   0  0  0  0  0  0  0  0  0  0  0  0
    4.3044   -2.2714   -2.6289 H   0  0  0  0  0  0  0  0  0  0  0  0
    4.8777   -4.1814   -1.1050 H   0  0  0  0  0  0  0  0  0  0  0  0
    3.7944   -4.3399    1.1520 H   0  0  0  0  0  0  0  0  0  0  0  0
    2.1603   -2.6187    1.8794 H   0  0  0  0  0  0  0  0  0  0  0  0
    0.7581    1.9396    2.5761 H   0  0  0  0  0  0  0  0  0  0  0  0
    0.6456    1.0529    4.0985 H   0  0  0  0  0  0  0  0  0  0  0  0
   -1.5608    1.9049    3.3713 H   0  0  0  0  0  0  0  0  0  0  0  0
   -1.5216    0.1697    3.6434 H   0  0  0  0  0  0  0  0  0  0  0  0
   -0.9125    3.2578    1.9615 H   0  0  0  0  0  0  0  0  0  0  0  0
   -1.6099    3.9261    0.4669 H   0  0  0  0  0  0  0  0  0  0  0  0
    0.0060    3.1690    0.4349 H   0  0  0  0  0  0  0  0  0  0  0  0
   -1.1523    3.2254   -1.6044 H   0  0  0  0  0  0  0  0  0  0  0  0
   -2.8608    3.0755   -2.1238 H   0  0  0  0  0  0  0  0  0  0  0  0
   -1.6081    1.9511   -2.7603 H   0  0  0  0  0  0  0  0  0  0  0  0
   -2.7536   -0.0156   -3.0748 H   0  0  0  0  0  0  0  0  0  0  0  0
   -4.0886    1.1423   -2.7598 H   0  0  0  0  0  0  0  0  0  0  0  0
   -4.3348   -0.6085   -2.4842 H   0  0  0  0  0  0  0  0  0  0  0  0
   -4.6774   -1.8014   -1.1266 H   0  0  0  0  0  0  0  0  0  0  0  0
   -4.7577   -2.0433    0.6428 H   0  0  0  0  0  0  0  0  0  0  0  0
   -3.3682   -2.6937   -0.2874 H   0  0  0  0  0  0  0  0  0  0  0  0
   -2.0411   -1.4862    3.1479 H   0  0  0  0  0  0  0  0  0  0  0  0
   -2.5574   -2.5314    1.8185 H   0  0  0  0  0  0  0  0  0  0  0  0
   -3.7800   -1.5681    2.7297 H   0  0  0  0  0  0  0  0  0  0  0  0
  1  2  1  0  0  0  0
  2 33  1  0  0  0  0
  2 32  1  0  0  0  0
  2  3  1  0  0  0  0
  3 41  1  0  0  0  0
  4  3  1  0  0  0  0
  4 42  1  0  0  0  0
  4 43  1  0  0  0  0
  5  4  1  1  0  0  0
  6 11  1  0  0  0  0
  6  5  1  0  0  0  0
  7  6  2  0  0  0  0
  8  7  1  0  0  0  0
  8  9  2  0  0  0  0
  9 10  1  0  0  0  0
 10  5  1  0  0  0  0
 10 15  1  1  0  0  0
 11 44  1  0  0  0  0
 12 47  1  0  0  0  0
 12  7  1  0  0  0  0
 13  8  1  0  0  0  0
 14  9  1  0  0  0  0
 14 54  1  0  0  0  0
 15 58  1  0  0  0  0
 15 56  1  0  0  0  0
 16  1  1  0  0  0  0
 16 21  1  0  0  0  0
 17 16  2  0  0  0  0
 18 17  1  0  0  0  0
 18 19  2  0  0  0  0
 19 20  1  0  0  0  0
 20 21  2  0  0  0  0
 20 31  1  0  0  0  0
 21 34  1  0  0  0  0
 22  1  1  0  0  0  0
 22 27  1  0  0  0  0
 23 22  2  0  0  0  0
 24 23  1  0  0  0  0
 24 25  2  0  0  0  0
 25 26  1  0  0  0  0
 26 27  2  0  0  0  0
 26 38  1  0  0  0  0
 27 39  1  0  0  0  0
 28 17  1  0  0  0  0
 29 18  1  0  0  0  0
 30 19  1  0  0  0  0
 35 23  1  0  0  0  0
 36 24  1  0  0  0  0
 37 25  1  0  0  0  0
 40  3  1  0  0  0  0
 45 11  1  0  0  0  0
 46 11  1  0  0  0  0
 48 12  1  0  0  0  0
 49 12  1  0  0  0  0
 50 13  1  0  0  0  0
 51 13  1  0  0  0  0
 52 13  1  0  0  0  0
 53 14  1  0  0  0  0
 55 14  1  0  0  0  0
 57 15  1  0  0  0  0
M  END
