1
q = 0.0, confidence = 0.968

 43 44  0  0  1  0  0  0  0  0999 V2000
   -0.6633   -0.6866   -0.4379 C   0  0  0  0  0  3  0  0  0  0  0  0
   -1.9456   -1.3199   -0.5499 C   0  0  0  0  0  0  0  0  0  0  0  0
   -1.9935   -2.4032   -0.7543 H   0  0  0  0  0  0  0  0  0  0  0  0
   -3.1056   -0.5881   -0.4177 C   0  0  0  0  0  3  0  0  0  0  0  0
   -3.0184    0.4986   -0.2406 H   0  0  0  0  0  0  0  0  0  0  0  0
   -4.4316   -1.0882   -0.5022 C   0  0  0  0  0  0  0  0  0  0  0  0
   -5.6762   -0.4597   -0.3963 C   0  0  0  0  0  0  0  0  0  0  0  0
   -5.8401    0.6090   -0.2177 H   0  0  0  0  0  0  0  0  0  0  0  0
   -6.6603   -1.4683   -0.5637 C   0  0  0  0  0  0  0  0  0  0  0  0
   -7.7493   -1.3534   -0.5436 H   0  0  0  0  0  0  0  0  0  0  0  0
   -5.9612   -2.6472   -0.7614 C   0  0  0  0  0  0  0  0  0  0  0  0
   -6.2774   -3.6820   -0.9344 H   0  0  0  0  0  0  0  0  0  0  0  0
   -4.6281   -2.4333   -0.7264 O   0  0  0  0  0  0  0  0  0  0  0  0
    0.3139   -1.5462   -0.6671 O   0  0  0  0  0  0  0  0  0  0  0  0
    1.6906   -1.0670   -0.6244 C   0  0  1  0  0  0  0  0  0  0  0  0
    1.6845   -0.1575    0.0193 H   0  0  0  0  0  0  0  0  0  0  0  0
    2.5641   -2.1541    0.0066 C   0  0  2  0  0  0  0  0  0  0  0  0
    2.4698   -3.0473   -0.6530 H   0  0  0  0  0  0  0  0  0  0  0  0
    2.0729   -2.5808    1.4155 C   0  0  0  0  0  0  0  0  0  0  0  0
    0.9973   -2.8355    1.2917 H   0  0  0  0  0  0  0  0  0  0  0  0
    2.1648   -1.4652    2.4666 C   0  0  0  0  0  0  0  0  0  0  0  0
    1.7164   -1.8012    3.4237 H   0  0  0  0  0  0  0  0  0  0  0  0
    1.6339   -0.5413    2.1598 H   0  0  0  0  0  0  0  0  0  0  0  0
    3.2188   -1.1943    2.6844 H   0  0  0  0  0  0  0  0  0  0  0  0
    2.7837   -3.8518    1.8970 C   0  0  0  0  0  0  0  0  0  0  0  0
    2.7121   -4.6674    1.1488 H   0  0  0  0  0  0  0  0  0  0  0  0
    2.3345   -4.2210    2.8406 H   0  0  0  0  0  0  0  0  0  0  0  0
    3.8599   -3.6716    2.0981 H   0  0  0  0  0  0  0  0  0  0  0  0
    4.0319   -1.6898   -0.0523 C   0  0  0  0  0  0  0  0  0  0  0  0
    4.1659   -0.7999    0.6022 H   0  0  0  0  0  0  0  0  0  0  0  0
    4.6853   -2.4801    0.3676 H   0  0  0  0  0  0  0  0  0  0  0  0
    4.4754   -1.3375   -1.4755 C   0  0  0  0  0  0  0  0  0  0  0  0
    4.4367   -2.2484   -2.1143 H   0  0  0  0  0  0  0  0  0  0  0  0
    5.5335   -1.0027   -1.4757 H   0  0  0  0  0  0  0  0  0  0  0  0
    3.5858   -0.2538   -2.1046 C   0  0  1  0  0  0  0  0  0  0  0  0
    3.6887    0.6648   -1.4800 H   0  0  0  0  0  0  0  0  0  0  0  0
    4.0051    0.0907   -3.5349 C   0  0  0  0  0  0  0  0  0  0  0  0
    3.3681    0.8896   -3.9663 H   0  0  0  0  0  0  0  0  0  0  0  0
    3.9223   -0.7975   -4.1955 H   0  0  0  0  0  0  0  0  0  0  0  0
    5.0571    0.4379   -3.5716 H   0  0  0  0  0  0  0  0  0  0  0  0
    2.1140   -0.6940   -2.0422 C   0  0  0  0  0  0  0  0  0  0  0  0
    1.4453    0.1120   -2.4162 H   0  0  0  0  0  0  0  0  0  0  0  0
    1.9587   -1.5760   -2.7015 H   0  0  0  0  0  0  0  0  0  0  0  0
  2  1  2  0  0  0  0
  2  4  1  0  0  0  0
  3  2  1  0  0  0  0
  4  5  1  0  0  0  0
  6  4  1  0  0  0  0
  6  7  2  0  0  0  0
  7  8  1  0  0  0  0
  9 10  1  0  0  0  0
  9  7  1  0  0  0  0
 11 13  1  0  0  0  0
 11  9  2  0  0  0  0
 12 11  1  0  0  0  0
 13  6  1  0  0  0  0
 14 15  1  0  0  0  0
 14  1  1  0  0  0  0
 15 17  1  0  0  0  0
 15 16  1  1  0  0  0
 17 18  1  6  0  0  0
 17 19  1  0  0  0  0
 19 25  1  0  0  0  0
 19 21  1  0  0  0  0
 20 19  1  0  0  0  0
 21 24  1  0  0  0  0
 21 22  1  0  0  0  0
 23 21  1  0  0  0  0
 25 28  1  0  0  0  0
 25 27  1  0  0  0  0
 26 25  1  0  0  0  0
 29 17  1  0  0  0  0
 29 31  1  0  0  0  0
 29 30  1  0  0  0  0
 32 29  1  0  0  0  0
 33 32  1  0  0  0  0
 34 32  1  0  0  0  0
 35 41  1  0  0  0  0
 35 36  1  1  0  0  0
 35 32  1  0  0  0  0
 37 35  1  0  0  0  0
 38 37  1  0  0  0  0
 39 37  1  0  0  0  0
 40 37  1  0  0  0  0
 41 15  1  0  0  0  0
 42 41  1  0  0  0  0
 43 41  1  0  0  0  0
M  END
