6
q = 0.0, confidence = 1.0

 45 47  0  0  1  0  0  0  0  0999 V2000
    2.2454   -0.3177   -1.7046 C   0  0  0  0  0  0  0  0  0  0  0  0
    1.4687   -1.5129   -1.5902 C   0  0  0  0  0  0  0  0  0  0  0  0
    1.9115   -2.4471   -1.9509 H   0  0  0  0  0  0  0  0  0  0  0  0
    0.1624   -1.4578   -1.0371 C   0  0  0  0  0  0  0  0  0  0  0  0
   -0.3700   -0.2272   -0.5007 C   0  0  1  0  0  3  0  0  0  0  0  0
    0.4592    0.9351   -0.5710 C   0  0  1  0  0  3  0  0  0  0  0  0
    1.7456    0.9044   -1.1900 C   0  0  0  0  0  0  0  0  0  0  0  0
    2.3273    1.8321   -1.1925 H   0  0  0  0  0  0  0  0  0  0  0  0
    3.4508   -0.4656   -2.2977 O   0  0  0  0  0  0  0  0  0  0  0  0
    4.3792    0.6086   -2.2010 C   0  0  0  0  0  0  0  0  0  0  0  0
    5.3144    0.2497   -2.6672 H   0  0  0  0  0  0  0  0  0  0  0  0
    4.5742    0.8708   -1.1392 H   0  0  0  0  0  0  0  0  0  0  0  0
    4.0224    1.5090   -2.7461 H   0  0  0  0  0  0  0  0  0  0  0  0
   -0.6454   -2.5357   -0.9395 O   0  0  0  0  0  0  0  0  0  0  0  0
   -0.1003   -3.8239   -1.1909 C   0  0  0  0  0  0  0  0  0  0  0  0
   -0.9076   -4.5450   -0.9703 H   0  0  0  0  0  0  0  0  0  0  0  0
    0.7660   -4.0255   -0.5250 H   0  0  0  0  0  0  0  0  0  0  0  0
    0.2091   -3.9397   -2.2522 H   0  0  0  0  0  0  0  0  0  0  0  0
   -1.7833   -0.2169   -0.0203 C   0  0  0  0  0  0  0  0  0  0  0  0
   -2.1576   -0.0043    1.3415 C   0  0  0  0  0  0  0  0  0  0  0  0
   -3.5155   -0.0699    1.7269 C   0  0  0  0  0  0  0  0  0  0  0  0
   -3.7962    0.0798    2.7774 H   0  0  0  0  0  0  0  0  0  0  0  0
   -4.5026   -0.3188    0.7706 C   0  0  0  0  0  0  0  0  0  0  0  0
   -5.5620   -0.3638    1.0720 H   0  0  0  0  0  0  0  0  0  0  0  0
   -4.1559   -0.5124   -0.5795 C   0  0  0  0  0  0  0  0  0  0  0  0
   -2.7967   -0.4621   -0.9515 C   0  0  0  0  0  0  0  0  0  0  0  0
   -2.5484   -0.6303   -2.0099 H   0  0  0  0  0  0  0  0  0  0  0  0
   -1.1565    0.2630    2.2060 O   0  0  0  0  0  0  0  0  0  0  0  0
   -1.4140    0.3374    3.6003 C   0  0  0  0  0  0  0  0  0  0  0  0
   -0.4336    0.5290    4.0719 H   0  0  0  0  0  0  0  0  0  0  0  0
   -1.8337   -0.6183    3.9811 H   0  0  0  0  0  0  0  0  0  0  0  0
   -2.1086    1.1704    3.8452 H   0  0  0  0  0  0  0  0  0  0  0  0
   -5.1948   -0.7754   -1.5966 C   0  0  0  0  0  0  0  0  0  0  0  0
   -6.2493   -0.7963   -1.1800 H   0  0  0  0  0  0  0  0  0  0  0  0
   -4.9834   -0.9602   -2.7856 O   0  0  0  0  0  0  0  0  0  0  0  0
   -0.0713    2.2652   -0.0677 C   0  0  0  0  0  0  0  0  0  0  0  0
   -0.4925    2.1493    0.9597 H   0  0  0  0  0  0  0  0  0  0  0  0
   -1.0594    2.7281   -0.9675 O   0  0  0  0  0  0  0  0  0  0  0  0
   -1.0743    4.1340   -0.7679 C   0  0  0  0  0  0  0  0  0  0  0  0
   -1.6481    4.4006    0.1526 H   0  0  0  0  0  0  0  0  0  0  0  0
   -1.5504    4.6138   -1.6442 H   0  0  0  0  0  0  0  0  0  0  0  0
    0.4175    4.4564   -0.5992 C   0  0  0  0  0  0  0  0  0  0  0  0
    0.9064    4.6618   -1.5786 H   0  0  0  0  0  0  0  0  0  0  0  0
    0.6044    5.3150    0.0796 H   0  0  0  0  0  0  0  0  0  0  0  0
    0.9507    3.2600   -0.0285 O   0  0  0  0  0  0  0  0  0  0  0  0
  1  2  1  0  0  0  0
  1  7  2  0  0  0  0
  2  4  2  0  0  0  0
  3  2  1  0  0  0  0
  4 14  1  0  0  0  0
  4  5  1  0  0  0  0
  5 19  1  6  0  0  0
  6  5  1  0  0  0  0
  6 36  1  6  0  0  0
  7  6  1  0  0  0  0
  8  7  1  0  0  0  0
  9 10  1  0  0  0  0
  9  1  1  0  0  0  0
 10 12  1  0  0  0  0
 11 10  1  0  0  0  0
 13 10  1  0  0  0  0
 15 16  1  0  0  0  0
 15 14  1  0  0  0  0
 15 17  1  0  0  0  0
 18 15  1  0  0  0  0
 19 20  1  0  0  0  0
 20 21  2  0  0  0  0
 20 28  1  0  0  0  0
 21 22  1  0  0  0  0
 23 24  1  0  0  0  0
 23 21  1  0  0  0  0
 25 23  2  0  0  0  0
 26 25  1  0  0  0  0
 26 19  2  0  0  0  0
 27 26  1  0  0  0  0
 28 29  1  0  0  0  0
 29 32  1  0  0  0  0
 29 31  1  0  0  0  0
 29 30  1  0  0  0  0
 33 34  1  0  0  0  0
 33 25  1  0  0  0  0
 35 33  2  0  0  0  0
 36 45  1  0  0  0  0
 36 37  1  0  0  0  0
 38 39  1  0  0  0  0
 38 36  1  0  0  0  0
 39 42  1  0  0  0  0
 39 40  1  0  0  0  0
 41 39  1  0  0  0  0
 42 45  1  0  0  0  0
 42 44  1  0  0  0  0
 43 42  1  0  0  0  0
M  END
