3
q = -1.0, confidence = 0.01

 59 63  0  0  1  0  0  0  0  0999 V2000
   -1.4178   -0.0943    1.3788 C   0  0  0  0  0  0  0  0  0  0  0  0
   -0.5988   -1.2339    1.0546 C   0  0  0  0  0  0  0  0  0  0  0  0
    0.6520   -0.7016    0.4928 C   0  0  1  0  0  3  0  0  0  0  0  0
    0.5635    0.7420    0.4619 C   0  0  0  0  0  0  0  0  0  0  0  0
   -0.7552    1.1262    0.9715 C   0  0  0  0  0  0  0  0  0  0  0  0
   -0.8650   -2.6436    1.4102 C   0  0  0  0  0  0  0  0  0  0  0  0
   -0.3597   -3.7038    0.6226 C   0  0  0  0  0  0  0  0  0  0  0  0
    0.2289   -3.4843   -0.2787 H   0  0  0  0  0  0  0  0  0  0  0  0
   -0.6049   -5.0350    0.9794 C   0  0  0  0  0  0  0  0  0  0  0  0
   -0.2063   -5.8467    0.3529 H   0  0  0  0  0  0  0  0  0  0  0  0
   -1.3538   -5.3350    2.1298 C   0  0  0  0  0  0  0  0  0  0  0  0
   -1.5446   -6.3821    2.4082 H   0  0  0  0  0  0  0  0  0  0  0  0
   -1.8520   -4.2911    2.9238 C   0  0  0  0  0  0  0  0  0  0  0  0
   -2.4304   -4.5160    3.8324 H   0  0  0  0  0  0  0  0  0  0  0  0
   -1.6111   -2.9554    2.5698 C   0  0  0  0  0  0  0  0  0  0  0  0
   -2.0027   -2.1464    3.2010 H   0  0  0  0  0  0  0  0  0  0  0  0
    1.8828   -1.4967    0.2826 C   0  0  0  0  0  0  0  0  0  0  0  0
    2.5038   -1.6601   -0.9680 C   0  0  0  0  0  0  0  0  0  0  0  0
    2.0460   -1.2150   -1.8629 H   0  0  0  0  0  0  0  0  0  0  0  0
    3.6844   -2.4032   -1.1077 C   0  0  0  0  0  0  0  0  0  0  0  0
    4.1335   -2.5133   -2.1031 H   0  0  0  0  0  0  0  0  0  0  0  0
    4.2718   -3.0042    0.0265 C   0  0  0  0  0  0  0  0  0  0  0  0
    3.6509   -2.8514    1.2886 C   0  0  0  0  0  0  0  0  0  0  0  0
    4.1195   -3.3287    2.1608 H   0  0  0  0  0  0  0  0  0  0  0  0
    2.4764   -2.1137    1.4107 C   0  0  0  0  0  0  0  0  0  0  0  0
    2.0048   -2.0073    2.3991 H   0  0  0  0  0  0  0  0  0  0  0  0
    6.0807   -3.9257   -1.2273 C   0  0  0  0  0  0  0  0  0  0  0  0
    6.9702   -4.5424   -1.0050 H   0  0  0  0  0  0  0  0  0  0  0  0
    6.4098   -2.9571   -1.6639 H   0  0  0  0  0  0  0  0  0  0  0  0
    5.4448   -4.4596   -1.9675 H   0  0  0  0  0  0  0  0  0  0  0  0
    1.6723    1.6855    0.2097 C   0  0  0  0  0  0  0  0  0  0  0  0
    2.0362    2.5806    1.2375 C   0  0  0  0  0  0  0  0  0  0  0  0
    1.4753    2.5787    2.1840 H   0  0  0  0  0  0  0  0  0  0  0  0
    3.1113    3.4657    1.0897 C   0  0  0  0  0  0  0  0  0  0  0  0
    3.3685    4.1393    1.9174 H   0  0  0  0  0  0  0  0  0  0  0  0
    3.8494    3.4767   -0.1144 C   0  0  0  0  0  0  0  0  0  0  0  0
    3.4862    2.5894   -1.1542 C   0  0  0  0  0  0  0  0  0  0  0  0
    4.0632    2.6191   -2.0892 H   0  0  0  0  0  0  0  0  0  0  0  0
    2.4190    1.7094   -0.9901 C   0  0  0  0  0  0  0  0  0  0  0  0
    2.1451    1.0395   -1.8157 H   0  0  0  0  0  0  0  0  0  0  0  0
    5.3150    5.2039    0.6370 C   0  0  0  0  0  0  0  0  0  0  0  0
    6.1766    5.7539    0.2175 H   0  0  0  0  0  0  0  0  0  0  0  0
    5.6356    4.6778    1.5628 H   0  0  0  0  0  0  0  0  0  0  0  0
    4.5105    5.9286    0.8915 H   0  0  0  0  0  0  0  0  0  0  0  0
   -1.2485    2.4927    1.2463 C   0  0  0  0  0  0  0  0  0  0  0  0
   -1.9579    2.7639    2.4411 C   0  0  0  0  0  0  0  0  0  0  0  0
   -2.0873    1.9758    3.2005 H   0  0  0  0  0  0  0  0  0  0  0  0
   -2.4352    4.0561    2.7157 C   0  0  0  0  0  0  0  0  0  0  0  0
   -2.9808    4.2468    3.6518 H   0  0  0  0  0  0  0  0  0  0  0  0
   -2.1937    5.1019    1.8142 C   0  0  0  0  0  0  0  0  0  0  0  0
   -2.5622    6.1154    2.0309 H   0  0  0  0  0  0  0  0  0  0  0  0
   -1.4617    4.8515    0.6400 C   0  0  0  0  0  0  0  0  0  0  0  0
   -1.2511    5.6714   -0.0628 H   0  0  0  0  0  0  0  0  0  0  0  0
   -0.9968    3.5624    0.3552 C   0  0  0  0  0  0  0  0  0  0  0  0
   -0.4205    3.3786   -0.5629 H   0  0  0  0  0  0  0  0  0  0  0  0
   -2.6361   -0.1876    1.9392 O   0  0  0  0  0  0  0  0  0  0  0  0
   -3.0209    0.7145    1.9901 H   0  0  0  0  0  0  0  0  0  0  0  0
    5.4049   -3.7407    0.0076 O   0  0  0  0  0  0  0  0  0  0  0  0
    4.8984    4.2899   -0.3670 O   0  0  0  0  0  0  0  0  0  0  0  0
  1 56  1  0  0  0  0
  2  1  2  0  0  0  0
  2  6  1  0  0  0  0
  3 17  1  1  0  0  0
  3  2  1  0  0  0  0
  4  3  1  0  0  0  0
  4  5  2  0  0  0  0
  5 45  1  0  0  0  0
  5  1  1  0  0  0  0
  6 15  1  0  0  0  0
  7  9  1  0  0  0  0
  7  6  2  0  0  0  0
  8  7  1  0  0  0  0
  9 11  2  0  0  0  0
 10  9  1  0  0  0  0
 11 12  1  0  0  0  0
 11 13  1  0  0  0  0
 13 14  1  0  0  0  0
 15 13  2  0  0  0  0
 15 16  1  0  0  0  0
 17 25  1  0  0  0  0
 18 17  2  0  0  0  0
 19 18  1  0  0  0  0
 20 18  1  0  0  0  0
 20 22  2  0  0  0  0
 21 20  1  0  0  0  0
 22 23  1  0  0  0  0
 23 25  2  0  0  0  0
 23 24  1  0  0  0  0
 25 26  1  0  0  0  0
 27 28  1  0  0  0  0
 27 58  1  0  0  0  0
 29 27  1  0  0  0  0
 30 27  1  0  0  0  0
 31  4  1  0  0  0  0
 31 32  1  0  0  0  0
 32 33  1  0  0  0  0
 34 32  2  0  0  0  0
 34 35  1  0  0  0  0
 36 34  1  0  0  0  0
 37 39  1  0  0  0  0
 37 36  2  0  0  0  0
 38 37  1  0  0  0  0
 39 31  2  0  0  0  0
 40 39  1  0  0  0  0
 41 44  1  0  0  0  0
 41 43  1  0  0  0  0
 42 41  1  0  0  0  0
 45 46  1  0  0  0  0
 46 48  2  0  0  0  0
 46 47  1  0  0  0  0
 48 49  1  0  0  0  0
 50 51  1  0  0  0  0
 50 48  1  0  0  0  0
 52 50  2  0  0  0  0
 53 52  1  0  0  0  0
 54 52  1  0  0  0  0
 54 45  2  0  0  0  0
 55 54  1  0  0  0  0
 56 57  1  0  0  0  0
 58 22  1  0  0  0  0
 59 36  1  0  0  0  0
 59 41  1  0  0  0  0
M  END
