3
q = 0.0, confidence = 0.992

 41 43  0  0  0  0  0  0  0  0999 V2000
   -1.4775    1.3554    0.9507 N   0  0  0  0  0  0  0  0  0  0  0  0
    0.0134    2.2490   -0.3402 N   0  0  0  0  0  0  0  0  0  0  0  0
   -0.3928    1.0433    0.1710 C   0  0  0  0  0  2  0  0  0  0  0  0
   -1.7401    2.7208    0.9276 C   0  0  0  0  0  0  0  0  0  0  0  0
   -0.7931    3.2858    0.1165 C   0  0  0  0  0  0  0  0  0  0  0  0
    1.0874    2.3824   -1.3235 C   0  0  0  0  0  0  0  0  0  0  0  0
    2.4677    2.1559   -0.7470 C   0  0  0  0  0  0  0  0  0  0  0  0
    3.3861    1.3298   -1.4180 C   0  0  0  0  0  0  0  0  0  0  0  0
    4.6681    1.1147   -0.8958 C   0  0  0  0  0  0  0  0  0  0  0  0
    5.0692    1.7033    0.3211 C   0  0  0  0  0  0  0  0  0  0  0  0
    4.1444    2.5351    0.9848 C   0  0  0  0  0  0  0  0  0  0  0  0
    2.8651    2.7616    0.4586 C   0  0  0  0  0  0  0  0  0  0  0  0
    6.4287    1.4178    0.9075 C   0  0  0  0  0  0  0  0  0  0  0  0
   -2.3652    0.3572    1.5539 C   0  0  0  0  0  0  0  0  0  0  0  0
   -3.7498    0.3799    0.9455 C   0  0  0  0  0  0  0  0  0  0  0  0
   -3.9194    0.1508   -0.4370 C   0  0  0  0  0  0  0  0  0  0  0  0
   -5.2003    0.1685   -0.9980 C   0  0  0  0  0  0  0  0  0  0  0  0
   -6.3487    0.4101   -0.2110 C   0  0  0  0  0  0  0  0  0  0  0  0
   -6.1673    0.6356    1.1660 C   0  0  0  0  0  0  0  0  0  0  0  0
   -4.8843    0.6236    1.7370 C   0  0  0  0  0  0  0  0  0  0  0  0
   -7.7205    0.4221   -0.8374 C   0  0  0  0  0  0  0  0  0  0  0  0
   -2.5866    3.1598    1.4629 H   0  0  0  0  0  0  0  0  0  0  0  0
   -0.6289    4.3257   -0.1807 H   0  0  0  0  0  0  0  0  0  0  0  0
    0.8809    1.6542   -2.1338 H   0  0  0  0  0  0  0  0  0  0  0  0
    1.0021    3.4030   -1.7513 H   0  0  0  0  0  0  0  0  0  0  0  0
    3.0818    0.8352   -2.3534 H   0  0  0  0  0  0  0  0  0  0  0  0
    5.3696    0.4583   -1.4354 H   0  0  0  0  0  0  0  0  0  0  0  0
    4.4330    3.0111    1.9355 H   0  0  0  0  0  0  0  0  0  0  0  0
    2.1576    3.4045    1.0064 H   0  0  0  0  0  0  0  0  0  0  0  0
    6.7124    2.1687    1.6704 H   0  0  0  0  0  0  0  0  0  0  0  0
    6.4460    0.4222    1.4018 H   0  0  0  0  0  0  0  0  0  0  0  0
    7.2155    1.4026    0.1269 H   0  0  0  0  0  0  0  0  0  0  0  0
   -1.8672   -0.6175    1.3653 H   0  0  0  0  0  0  0  0  0  0  0  0
   -2.4149    0.5252    2.6492 H   0  0  0  0  0  0  0  0  0  0  0  0
   -3.0400   -0.0434   -1.0761 H   0  0  0  0  0  0  0  0  0  0  0  0
   -5.3146   -0.0148   -2.0785 H   0  0  0  0  0  0  0  0  0  0  0  0
   -7.0452    0.8271    1.8034 H   0  0  0  0  0  0  0  0  0  0  0  0
   -4.7664    0.8034    2.8182 H   0  0  0  0  0  0  0  0  0  0  0  0
   -7.7924    1.1902   -1.6357 H   0  0  0  0  0  0  0  0  0  0  0  0
   -7.9537   -0.5536   -1.3131 H   0  0  0  0  0  0  0  0  0  0  0  0
   -8.5108    0.6327   -0.0911 H   0  0  0  0  0  0  0  0  0  0  0  0
  1 14  1  0  0  0  0
  2  5  1  0  0  0  0
  2  3  1  0  0  0  0
  3  1  1  0  0  0  0
  4  1  1  0  0  0  0
  4 22  1  0  0  0  0
  5  4  2  0  0  0  0
  6  7  1  0  0  0  0
  6  2  1  0  0  0  0
  7 12  1  0  0  0  0
  8  9  1  0  0  0  0
  8  7  2  0  0  0  0
  9 10  2  0  0  0  0
 10 13  1  0  0  0  0
 10 11  1  0  0  0  0
 11 28  1  0  0  0  0
 12 11  2  0  0  0  0
 12 29  1  0  0  0  0
 13 31  1  0  0  0  0
 13 30  1  0  0  0  0
 14 34  1  0  0  0  0
 15 14  1  0  0  0  0
 15 20  1  0  0  0  0
 16 15  2  0  0  0  0
 17 16  1  0  0  0  0
 17 18  2  0  0  0  0
 18 19  1  0  0  0  0
 19 20  2  0  0  0  0
 19 37  1  0  0  0  0
 20 38  1  0  0  0  0
 21 18  1  0  0  0  0
 21 41  1  0  0  0  0
 23  5  1  0  0  0  0
 24  6  1  0  0  0  0
 25  6  1  0  0  0  0
 26  8  1  0  0  0  0
 27  9  1  0  0  0  0
 32 13  1  0  0  0  0
 33 14  1  0  0  0  0
 35 16  1  0  0  0  0
 36 17  1  0  0  0  0
 39 21  1  0  0  0  0
 40 21  1  0  0  0  0
M  END
