2
q = -1.0, confidence = 0.0

 11 11  0  0  0  0  0  0  0  0999 V2000
   -5.6535   -0.0000   -2.0357 F   0  0  0  0  0  0  0  0  0  0  0  0
   -2.6865   -0.0000    0.1346 C   0  0  0  0  0  3  0  0  0  0  0  0
   -3.5089   -0.0000   -1.0236 C   0  0  0  0  0  0  0  0  0  0  0  0
   -3.0754   -0.0000   -2.0354 H   0  0  0  0  0  0  0  0  0  0  0  0
   -4.9039   -0.0000   -0.9058 C   0  0  0  0  0  0  0  0  0  0  0  0
   -5.5537   -0.0000    0.3347 C   0  0  0  0  0  0  0  0  0  0  0  0
   -6.6517   -0.0000    0.3795 H   0  0  0  0  0  0  0  0  0  0  0  0
   -4.7494   -0.0000    1.4865 C   0  0  0  0  0  0  0  0  0  0  0  0
   -5.2300   -0.0000    2.4785 H   0  0  0  0  0  0  0  0  0  0  0  0
   -3.3473   -0.0000    1.3933 C   0  0  0  0  0  0  0  0  0  0  0  0
   -2.7502   -0.0000    2.3190 H   0  0  0  0  0  0  0  0  0  0  0  0
  1  5  1  0  0  0  0
  2 10  1  0  0  0  0
  3  5  1  0  0  0  0
  3  2  2  0  0  0  0
  4  3  1  0  0  0  0
  5  6  2  0  0  0  0
  6  7  1  0  0  0  0
  6  8  1  0  0  0  0
  8  9  1  0  0  0  0
 10  8  2  0  0  0  0
 10 11  1  0  0  0  0
M  END
