1
q = -1.0, confidence = 0.0

 17 17  0  0  0  0  0  0  0  0999 V2000
   -1.9666   -0.1366    0.0233 C   0  0  0  0  0  3  0  0  0  0  0  0
   -2.5919   -1.3738    0.2761 C   0  0  0  0  0  0  0  0  0  0  0  0
   -4.0012   -1.3722    0.2785 C   0  0  0  0  0  0  0  0  0  0  0  0
   -4.7409   -0.2038    0.0451 C   0  0  0  0  0  0  0  0  0  0  0  0
   -4.1001    1.0220   -0.2048 C   0  0  0  0  0  0  0  0  0  0  0  0
   -2.6868    1.0352   -0.2140 C   0  0  0  0  0  0  0  0  0  0  0  0
   -1.8049   -2.6306    0.5445 C   0  0  0  0  0  0  0  0  0  0  0  0
   -4.8749    2.2901   -0.4624 C   0  0  0  0  0  0  0  0  0  0  0  0
   -4.5280   -2.3206    0.4721 H   0  0  0  0  0  0  0  0  0  0  0  0
   -5.8414   -0.2465    0.0563 H   0  0  0  0  0  0  0  0  0  0  0  0
   -2.1588    1.9800   -0.4175 H   0  0  0  0  0  0  0  0  0  0  0  0
   -1.1858   -2.5118    1.4587 H   0  0  0  0  0  0  0  0  0  0  0  0
   -1.1147   -2.8559   -0.2957 H   0  0  0  0  0  0  0  0  0  0  0  0
   -2.4717   -3.5028    0.6842 H   0  0  0  0  0  0  0  0  0  0  0  0
   -5.9672    2.1134   -0.4233 H   0  0  0  0  0  0  0  0  0  0  0  0
   -4.6310    3.0724    0.2866 H   0  0  0  0  0  0  0  0  0  0  0  0
   -4.6353    2.7142   -1.4599 H   0  0  0  0  0  0  0  0  0  0  0  0
  1  2  1  0  0  0  0
  2  3  2  0  0  0  0
  2  7  1  0  0  0  0
  3  9  1  0  0  0  0
  4 10  1  0  0  0  0
  4  3  1  0  0  0  0
  5  4  2  0  0  0  0
  6  5  1  0  0  0  0
  6  1  2  0  0  0  0
  7 14  1  0  0  0  0
  7 12  1  0  0  0  0
  8 15  1  0  0  0  0
  8  5  1  0  0  0  0
  8 16  1  0  0  0  0
 11  6  1  0  0  0  0
 13  7  1  0  0  0  0
 17  8  1  0  0  0  0
M  END
