18
q = 0.0, confidence = 0.944

 34 36  0  0  1  0  0  0  0  0999 V2000
    3.4096    2.1606   -0.2287 C   0  0  0  0  0  0  0  0  0  0  0  0
    2.3984    2.4954   -0.5010 H   0  0  0  0  0  0  0  0  0  0  0  0
    4.4281    3.0772    0.0479 C   0  0  0  0  0  0  0  0  0  0  0  0
    4.2214    4.1567   -0.0049 H   0  0  0  0  0  0  0  0  0  0  0  0
    5.7138    2.6229    0.3938 C   0  0  0  0  0  0  0  0  0  0  0  0
    6.5129    3.3475    0.6119 H   0  0  0  0  0  0  0  0  0  0  0  0
    5.9774    1.2453    0.4613 C   0  0  0  0  0  0  0  0  0  0  0  0
    6.9824    0.8888    0.7322 H   0  0  0  0  0  0  0  0  0  0  0  0
    4.9634    0.3193    0.1851 C   0  0  0  0  0  0  0  0  0  0  0  0
    5.1581   -0.7611    0.2353 H   0  0  0  0  0  0  0  0  0  0  0  0
    3.6713    0.7729   -0.1619 C   0  0  0  0  0  0  0  0  0  0  0  0
    2.6000   -0.1760   -0.4528 C   0  0  0  0  0  0  0  0  0  0  0  0
    1.3777    0.1059   -0.7950 N   0  0  0  0  0  0  0  0  0  0  0  0
    1.7238   -2.2121   -0.6951 C   0  0  0  0  0  0  0  0  0  0  0  0
    2.9025   -1.5205   -0.3559 O   0  0  0  0  0  0  0  0  0  0  0  0
    1.6738   -3.4135   -0.7845 O   0  0  0  0  0  0  0  0  0  0  0  0
    0.7111   -1.1333   -0.9094 C   0  0  2  0  0  3  0  0  0  0  0  0
   -0.4737   -1.4137   -1.6980 C   0  0  0  0  0  3  0  0  0  0  0  0
   -0.5294   -2.3620   -2.2531 H   0  0  0  0  0  0  0  0  0  0  0  0
   -1.5652   -0.5042   -1.6743 C   0  0  0  0  0  3  0  0  0  0  0  0
   -2.4907   -0.7758   -2.2063 H   0  0  0  0  0  0  0  0  0  0  0  0
   -1.4888    0.6525   -0.8366 C   0  0  0  0  0  3  0  0  0  0  0  0
   -0.4950    1.1109   -0.7238 H   0  0  0  0  0  0  0  0  0  0  0  0
   -2.6281    1.5360   -0.5368 C   0  0  0  0  0  0  0  0  0  0  0  0
   -3.9680    1.2270   -0.8693 C   0  0  0  0  0  0  0  0  0  0  0  0
   -4.2101    0.2760   -1.3665 H   0  0  0  0  0  0  0  0  0  0  0  0
   -5.0056    2.1174   -0.5667 C   0  0  0  0  0  0  0  0  0  0  0  0
   -6.0406    1.8577   -0.8359 H   0  0  0  0  0  0  0  0  0  0  0  0
   -4.7320    3.3328    0.0823 C   0  0  0  0  0  0  0  0  0  0  0  0
   -5.5503    4.0280    0.3230 H   0  0  0  0  0  0  0  0  0  0  0  0
   -3.4079    3.6521    0.4246 C   0  0  0  0  0  0  0  0  0  0  0  0
   -3.1828    4.6009    0.9348 H   0  0  0  0  0  0  0  0  0  0  0  0
   -2.3703    2.7644    0.1167 C   0  0  0  0  0  0  0  0  0  0  0  0
   -1.3322    3.0138    0.3873 H   0  0  0  0  0  0  0  0  0  0  0  0
  1 11  2  0  0  0  0
  1  3  1  0  0  0  0
  2  1  1  0  0  0  0
  3  5  2  0  0  0  0
  4  3  1  0  0  0  0
  5  7  1  0  0  0  0
  5  6  1  0  0  0  0
  7  8  1  0  0  0  0
  9 10  1  0  0  0  0
  9  7  2  0  0  0  0
 11  9  1  0  0  0  0
 12 15  1  0  0  0  0
 12 11  1  0  0  0  0
 13 12  2  0  0  0  0
 14 15  1  0  0  0  0
 16 14  2  0  0  0  0
 17 18  1  6  0  0  0
 17 13  1  0  0  0  0
 17 14  1  0  0  0  0
 18 20  1  0  0  0  0
 19 18  1  0  0  0  0
 20 22  1  0  0  0  0
 21 20  1  0  0  0  0
 22 23  1  0  0  0  0
 22 24  1  0  0  0  0
 24 33  1  0  0  0  0
 25 27  1  0  0  0  0
 25 24  2  0  0  0  0
 26 25  1  0  0  0  0
 27 29  2  0  0  0  0
 28 27  1  0  0  0  0
 29 30  1  0  0  0  0
 29 31  1  0  0  0  0
 31 32  1  0  0  0  0
 33 34  1  0  0  0  0
 33 31  2  0  0  0  0
M  END
