1
q = 0.0, confidence = 0.984

 30 32  0  0  0  0  0  0  0  0999 V2000
   -0.0032    0.2672    0.0197 C   0  0  0  0  0  2  0  0  0  0  0  0
    1.1134   -0.6064    0.0129 C   0  0  0  0  0  0  0  0  0  0  0  0
    2.4403   -0.1675    0.0118 C   0  0  0  0  0  0  0  0  0  0  0  0
    3.5332   -1.1738    0.0089 C   0  0  0  0  0  0  0  0  0  0  0  0
    3.5794   -2.1540   -1.0066 C   0  0  0  0  0  0  0  0  0  0  0  0
    4.5845   -3.1315   -1.0079 C   0  0  0  0  0  0  0  0  0  0  0  0
    5.5466   -3.1552    0.0135 C   0  0  0  0  0  0  0  0  0  0  0  0
    5.4977   -2.1975    1.0395 C   0  0  0  0  0  0  0  0  0  0  0  0
    4.5026   -1.2108    1.0362 C   0  0  0  0  0  0  0  0  0  0  0  0
    2.7038    1.2457   -0.0069 C   0  0  0  0  0  0  0  0  0  0  0  0
    4.0961    1.8336   -0.1200 C   0  0  0  0  0  0  0  0  0  0  0  0
    4.1448    3.3352    0.1858 C   0  0  0  0  0  0  0  0  0  0  0  0
    3.0198    4.0870   -0.5314 C   0  0  0  0  0  0  0  0  0  0  0  0
    1.6535    3.5803   -0.0578 C   0  0  0  0  0  0  0  0  0  0  0  0
    1.6016    2.0829   -0.0138 C   0  0  0  0  0  0  0  0  0  0  0  0
    0.3417    1.6037    0.0156 O   0  0  0  0  0  0  0  0  0  0  0  0
    0.9112   -1.6863    0.0314 H   0  0  0  0  0  0  0  0  0  0  0  0
    2.8245   -2.1349   -1.8072 H   0  0  0  0  0  0  0  0  0  0  0  0
    4.6131   -3.8822   -1.8119 H   0  0  0  0  0  0  0  0  0  0  0  0
    6.3320   -3.9258    0.0151 H   0  0  0  0  0  0  0  0  0  0  0  0
    6.2365   -2.2233    1.8546 H   0  0  0  0  0  0  0  0  0  0  0  0
    4.4512   -0.4826    1.8597 H   0  0  0  0  0  0  0  0  0  0  0  0
    4.4626    1.6421   -1.1544 H   0  0  0  0  0  0  0  0  0  0  0  0
    4.7988    1.2848    0.5350 H   0  0  0  0  0  0  0  0  0  0  0  0
    4.0473    3.4925    1.2827 H   0  0  0  0  0  0  0  0  0  0  0  0
    5.1354    3.7410   -0.1021 H   0  0  0  0  0  0  0  0  0  0  0  0
    3.1116    3.9322   -1.6285 H   0  0  0  0  0  0  0  0  0  0  0  0
    3.0965    5.1788   -0.3586 H   0  0  0  0  0  0  0  0  0  0  0  0
    1.4285    3.9622    0.9645 H   0  0  0  0  0  0  0  0  0  0  0  0
    0.8220    3.9412   -0.6976 H   0  0  0  0  0  0  0  0  0  0  0  0
  2  1  1  0  0  0  0
  2 17  1  0  0  0  0
  3  2  2  0  0  0  0
  4  3  1  0  0  0  0
  4  9  1  0  0  0  0
  5  4  2  0  0  0  0
  6  5  1  0  0  0  0
  6  7  2  0  0  0  0
  7 20  1  0  0  0  0
  7  8  1  0  0  0  0
  8 21  1  0  0  0  0
  9  8  2  0  0  0  0
  9 22  1  0  0  0  0
 10  3  1  0  0  0  0
 11 10  1  0  0  0  0
 11 12  1  0  0  0  0
 11 24  1  0  0  0  0
 12 25  1  0  0  0  0
 13 28  1  0  0  0  0
 13 14  1  0  0  0  0
 13 12  1  0  0  0  0
 14 15  1  0  0  0  0
 14 29  1  0  0  0  0
 15 10  2  0  0  0  0
 15 16  1  0  0  0  0
 16  1  1  0  0  0  0
 18  5  1  0  0  0  0
 19  6  1  0  0  0  0
 23 11  1  0  0  0  0
 26 12  1  0  0  0  0
 27 13  1  0  0  0  0
 30 14  1  0  0  0  0
M  END
