17
q = -2.0, confidence = 0.848

 33 32  0  0  1  0  0  0  0  0999 V2000
    0.3424    0.3283    1.3991 S   0  0  0  0  0  0  0  0  0  0  0  0
   -0.4334   -1.6955   -0.9345 S   0  0  0  0  0  0  0  0  0  0  0  0
   -3.5462    0.9259    1.1287 O   0  0  0  0  0  0  0  0  0  0  0  0
   -1.9241    1.8527    2.4281 O   0  0  0  0  0  0  0  0  0  0  0  0
   -3.7521   -1.7180   -0.2631 O   0  0  0  0  0  0  0  0  0  0  0  0
   -3.3216   -0.0865   -1.7810 O   0  0  0  0  0  0  0  0  0  0  0  0
   -0.4209    2.0879   -1.0886 O   0  0  0  0  0  0  0  0  0  0  0  0
    0.9808    0.9597   -2.4815 O   0  0  0  0  0  0  0  0  0  0  0  0
    3.0537    2.1675   -0.7712 O   0  0  0  0  0  0  0  0  0  0  0  0
    3.0052    1.5360    1.4054 O   0  0  0  0  0  0  0  0  0  0  0  0
   -1.3420    0.1569    0.8534 C   0  0  2  0  0  3  0  0  0  0  0  0
   -1.6198   -0.7101   -0.1877 C   0  0  0  0  0  0  0  0  0  0  0  0
   -2.2583    1.0625    1.5562 C   0  0  0  0  0  0  0  0  0  0  0  0
   -4.4880    1.8052    1.7463 C   0  0  0  0  0  0  0  0  0  0  0  0
   -2.9863   -0.7711   -0.8330 C   0  0  0  0  0  0  0  0  0  0  0  0
   -5.0810   -1.8217   -0.7914 C   0  0  0  0  0  0  0  0  0  0  0  0
    1.2777    0.7648   -0.1028 C   0  0  0  0  0  3  0  0  0  0  0  0
    0.6021    1.2523   -1.3650 C   0  0  0  0  0  0  0  0  0  0  0  0
   -1.2108    2.5227   -2.2099 C   0  0  0  0  0  0  0  0  0  0  0  0
    2.5166    1.5099    0.2846 C   0  0  0  0  0  0  0  0  0  0  0  0
    4.2422    2.9134   -0.4853 C   0  0  0  0  0  0  0  0  0  0  0  0
   -4.2015    2.8653    1.5926 H   0  0  0  0  0  0  0  0  0  0  0  0
   -5.4613    1.5970    1.2664 H   0  0  0  0  0  0  0  0  0  0  0  0
   -4.5484    1.6197    2.8380 H   0  0  0  0  0  0  0  0  0  0  0  0
   -5.0597   -2.0239   -1.8809 H   0  0  0  0  0  0  0  0  0  0  0  0
   -5.5613   -2.6552   -0.2497 H   0  0  0  0  0  0  0  0  0  0  0  0
   -5.6375   -0.8777   -0.6213 H   0  0  0  0  0  0  0  0  0  0  0  0
   -0.5654    2.7187   -3.0875 H   0  0  0  0  0  0  0  0  0  0  0  0
   -1.9549    1.7368   -2.4505 H   0  0  0  0  0  0  0  0  0  0  0  0
   -1.7251    3.4440   -1.8822 H   0  0  0  0  0  0  0  0  0  0  0  0
    4.0436    3.6962    0.2742 H   0  0  0  0  0  0  0  0  0  0  0  0
    5.0413    2.2504   -0.0958 H   0  0  0  0  0  0  0  0  0  0  0  0
    4.5509    3.3703   -1.4419 H   0  0  0  0  0  0  0  0  0  0  0  0
  2 12  2  0  0  0  0
  3 13  1  0  0  0  0
  3 14  1  0  0  0  0
  6 15  2  0  0  0  0
  8 18  2  0  0  0  0
  9 21  1  0  0  0  0
  9 20  1  0  0  0  0
 11 12  1  6  0  0  0
 11  1  1  0  0  0  0
 11 13  1  0  0  0  0
 13  4  2  0  0  0  0
 14 24  1  0  0  0  0
 15  5  1  0  0  0  0
 15 12  1  0  0  0  0
 16 27  1  0  0  0  0
 16  5  1  0  0  0  0
 16 26  1  0  0  0  0
 17 20  1  0  0  0  0
 17  1  1  0  0  0  0
 18  7  1  0  0  0  0
 18 17  1  0  0  0  0
 19 30  1  0  0  0  0
 19  7  1  0  0  0  0
 20 10  2  0  0  0  0
 21 32  1  0  0  0  0
 21 31  1  0  0  0  0
 22 14  1  0  0  0  0
 23 14  1  0  0  0  0
 25 16  1  0  0  0  0
 28 19  1  0  0  0  0
 29 19  1  0  0  0  0
 33 21  1  0  0  0  0
M  END
