3
q = 0.0, confidence = 0.994

 38 41  0  0  1  0  0  0  0  0999 V2000
   -0.9378   -1.7428    1.1691 N   0  0  0  0  0  0  0  0  0  0  0  0
   -2.6252   -0.1410    1.5210 N   0  0  0  0  0  0  0  0  0  0  0  0
   -0.3207   -0.8837    0.1519 C   0  0  0  0  0  3  0  0  0  0  0  0
   -1.1424    0.0804   -0.3405 C   0  0  0  0  0  0  0  0  0  0  0  0
   -2.5369    0.4185    0.1553 C   0  0  0  0  0  0  0  0  0  0  0  0
   -3.6713   -0.1916   -0.6880 C   0  0  0  0  0  0  0  0  0  0  0  0
   -3.4391   -1.3239   -1.4894 C   0  0  0  0  0  0  0  0  0  0  0  0
   -4.4942   -1.9369   -2.1830 C   0  0  0  0  0  0  0  0  0  0  0  0
   -5.7964   -1.4264   -2.0748 C   0  0  0  0  0  0  0  0  0  0  0  0
   -6.0391   -0.3004   -1.2704 C   0  0  0  0  0  0  0  0  0  0  0  0
   -4.9836    0.3143   -0.5825 C   0  0  0  0  0  0  0  0  0  0  0  0
   -2.6061    1.9516    0.2292 C   0  0  0  0  0  0  0  0  0  0  0  0
   -2.2925    2.6428    1.4136 C   0  0  0  0  0  0  0  0  0  0  0  0
   -2.2558    4.0471    1.4323 C   0  0  0  0  0  0  0  0  0  0  0  0
   -2.5150    4.7744    0.2616 C   0  0  0  0  0  0  0  0  0  0  0  0
   -2.8191    4.0899   -0.9272 C   0  0  0  0  0  0  0  0  0  0  0  0
   -2.8658    2.6892   -0.9437 C   0  0  0  0  0  0  0  0  0  0  0  0
   -2.0471   -1.3080    1.8752 C   0  0  2  0  0  3  0  0  0  0  0  0
   -2.5245   -2.0800    2.9649 C   0  0  0  0  0  0  0  0  0  0  0  0
   -1.9454   -3.3026    3.2667 C   0  0  0  0  0  0  0  0  0  0  0  0
   -0.8830   -3.7796    2.4662 C   0  0  0  0  0  0  0  0  0  0  0  0
   -0.4118   -2.9811    1.4444 C   0  0  0  0  0  0  0  0  0  0  0  0
   -3.4717    0.1029    2.0410 H   0  0  0  0  0  0  0  0  0  0  0  0
   -0.7548    0.7438   -1.1210 H   0  0  0  0  0  0  0  0  0  0  0  0
   -2.4166   -1.7235   -1.5684 H   0  0  0  0  0  0  0  0  0  0  0  0
   -4.2978   -2.8178   -2.8126 H   0  0  0  0  0  0  0  0  0  0  0  0
   -6.6244   -1.9040   -2.6195 H   0  0  0  0  0  0  0  0  0  0  0  0
   -7.0578    0.1065   -1.1845 H   0  0  0  0  0  0  0  0  0  0  0  0
   -5.1794    1.2077    0.0311 H   0  0  0  0  0  0  0  0  0  0  0  0
   -2.0616    2.0792    2.3299 H   0  0  0  0  0  0  0  0  0  0  0  0
   -2.0208    4.5739    2.3694 H   0  0  0  0  0  0  0  0  0  0  0  0
   -2.4849    5.8740    0.2748 H   0  0  0  0  0  0  0  0  0  0  0  0
   -3.0277    4.6525   -1.8495 H   0  0  0  0  0  0  0  0  0  0  0  0
   -3.1116    2.1601   -1.8767 H   0  0  0  0  0  0  0  0  0  0  0  0
   -3.3796   -1.6942    3.5378 H   0  0  0  0  0  0  0  0  0  0  0  0
   -2.3284   -3.9007    4.1063 H   0  0  0  0  0  0  0  0  0  0  0  0
   -0.4193   -4.7587    2.6412 H   0  0  0  0  0  0  0  0  0  0  0  0
    0.4159   -3.2589    0.7821 H   0  0  0  0  0  0  0  0  0  0  0  0
  1 22  1  0  0  0  0
  1 18  1  0  0  0  0
  2 18  1  0  0  0  0
  2 23  1  0  0  0  0
  3  1  1  0  0  0  0
  4  3  2  0  0  0  0
  4  5  1  0  0  0  0
  5 12  1  0  0  0  0
  5  2  1  0  0  0  0
  6 11  1  0  0  0  0
  6  5  1  0  0  0  0
  7  6  2  0  0  0  0
  8  9  2  0  0  0  0
  8  7  1  0  0  0  0
  9 10  1  0  0  0  0
 10 28  1  0  0  0  0
 10 11  2  0  0  0  0
 11 29  1  0  0  0  0
 12 13  1  0  0  0  0
 13 14  2  0  0  0  0
 13 30  1  0  0  0  0
 14 31  1  0  0  0  0
 15 32  1  0  0  0  0
 15 14  1  0  0  0  0
 16 15  2  0  0  0  0
 17 16  1  0  0  0  0
 17 12  2  0  0  0  0
 18 19  1  1  0  0  0
 19 20  2  0  0  0  0
 19 35  1  0  0  0  0
 20 36  1  0  0  0  0
 21 37  1  0  0  0  0
 21 20  1  0  0  0  0
 22 21  2  0  0  0  0
 24  4  1  0  0  0  0
 25  7  1  0  0  0  0
 26  8  1  0  0  0  0
 27  9  1  0  0  0  0
 33 16  1  0  0  0  0
 34 17  1  0  0  0  0
 38 22  1  0  0  0  0
M  END
