3
q = 0.0, confidence = 1.0

 19 20  0  0  0  0  0  0  0  0999 V2000
   -0.9578    1.4758   -0.0629 N   0  0  0  0  0  0  0  0  0  0  0  0
   -1.2696    2.7972   -0.2383 N   0  0  0  0  0  0  0  0  0  0  0  0
    0.4048    1.3074   -0.0698 C   0  0  0  0  0  2  0  0  0  0  0  0
    0.9345    2.6177   -0.2385 C   0  0  0  0  0  0  0  0  0  0  0  0
   -0.1286    3.5121   -0.3366 C   0  0  0  0  0  0  0  0  0  0  0  0
   -2.0280    0.5213    0.0219 C   0  0  0  0  0  0  0  0  0  0  0  0
   -2.7544    0.2106   -1.1419 C   0  0  0  0  0  0  0  0  0  0  0  0
   -3.7958   -0.7260   -1.0684 C   0  0  0  0  0  0  0  0  0  0  0  0
   -4.1019   -1.3423    0.1564 C   0  0  0  0  0  0  0  0  0  0  0  0
   -3.3810   -1.0098    1.3156 C   0  0  0  0  0  0  0  0  0  0  0  0
   -2.3443   -0.0668    1.2575 C   0  0  0  0  0  0  0  0  0  0  0  0
    1.9948    2.8833   -0.2864 H   0  0  0  0  0  0  0  0  0  0  0  0
   -0.1556    4.6005   -0.4653 H   0  0  0  0  0  0  0  0  0  0  0  0
   -2.2453    3.1041   -0.2076 H   0  0  0  0  0  0  0  0  0  0  0  0
   -2.4992    0.6938   -2.0971 H   0  0  0  0  0  0  0  0  0  0  0  0
   -4.3678   -0.9775   -1.9735 H   0  0  0  0  0  0  0  0  0  0  0  0
   -4.9158   -2.0803    0.2097 H   0  0  0  0  0  0  0  0  0  0  0  0
   -3.6328   -1.4796    2.2776 H   0  0  0  0  0  0  0  0  0  0  0  0
   -1.7844    0.2104    2.1607 H   0  0  0  0  0  0  0  0  0  0  0  0
  1  6  1  0  0  0  0
  2 14  1  0  0  0  0
  2  1  1  0  0  0  0
  3  1  1  0  0  0  0
  4  3  1  0  0  0  0
  5  4  2  0  0  0  0
  5  2  1  0  0  0  0
  6 11  1  0  0  0  0
  7  8  1  0  0  0  0
  7  6  2  0  0  0  0
  8  9  2  0  0  0  0
  9 17  1  0  0  0  0
  9 10  1  0  0  0  0
 10 18  1  0  0  0  0
 11 10  2  0  0  0  0
 11 19  1  0  0  0  0
 12  4  1  0  0  0  0
 13  5  1  0  0  0  0
 15  7  1  0  0  0  0
 16  8  1  0  0  0  0
M  END
