3
q = -1.0, confidence = 0.0

 37 40  0  0  0  0  0  0  0  0999 V2000
    0.7739   -1.6617    1.1188 N   0  0  0  0  0  0  0  0  0  0  0  0
    2.4722   -0.0217    1.6044 N   0  0  0  0  0  0  0  0  0  0  0  0
    0.2969   -0.9003    0.0062 C   0  0  0  0  0  3  0  0  0  0  0  0
    1.1583    0.0463   -0.4570 C   0  0  0  0  0  0  0  0  0  0  0  0
    2.5104    0.3255    0.1821 C   0  0  0  0  0  0  0  0  0  0  0  0
    3.6733   -0.4693   -0.4454 C   0  0  0  0  0  0  0  0  0  0  0  0
    4.9947   -0.1674   -0.0570 C   0  0  0  0  0  0  0  0  0  0  0  0
    6.0728   -0.9033   -0.5640 C   0  0  0  0  0  0  0  0  0  0  0  0
    5.8470   -1.9573   -1.4677 C   0  0  0  0  0  0  0  0  0  0  0  0
    4.5354   -2.2695   -1.8524 C   0  0  0  0  0  0  0  0  0  0  0  0
    3.4555   -1.5295   -1.3407 C   0  0  0  0  0  0  0  0  0  0  0  0
    2.7408    1.8401    0.0279 C   0  0  0  0  0  0  0  0  0  0  0  0
    3.0492    2.3886   -1.2324 C   0  0  0  0  0  0  0  0  0  0  0  0
    3.1235    3.7781   -1.4070 C   0  0  0  0  0  0  0  0  0  0  0  0
    2.8957    4.6401   -0.3203 C   0  0  0  0  0  0  0  0  0  0  0  0
    2.6050    4.0988    0.9418 C   0  0  0  0  0  0  0  0  0  0  0  0
    2.5273    2.7068    1.1131 C   0  0  0  0  0  0  0  0  0  0  0  0
    1.7487   -1.0380    1.9704 C   0  0  0  0  0  0  0  0  0  0  0  0
    1.8464   -1.5931    3.3042 C   0  0  0  0  0  0  0  0  0  0  0  0
    1.2567   -2.7895    3.6322 C   0  0  0  0  0  0  0  0  0  0  0  0
    0.4807   -3.4929    2.6573 C   0  0  0  0  0  0  0  0  0  0  0  0
    0.2552   -2.8953    1.4417 C   0  0  0  0  0  0  0  0  0  0  0  0
    0.8233    0.7270   -1.2481 H   0  0  0  0  0  0  0  0  0  0  0  0
    5.1651    0.6536    0.6558 H   0  0  0  0  0  0  0  0  0  0  0  0
    7.0998   -0.6548   -0.2542 H   0  0  0  0  0  0  0  0  0  0  0  0
    6.6946   -2.5346   -1.8679 H   0  0  0  0  0  0  0  0  0  0  0  0
    4.3482   -3.0969   -2.5546 H   0  0  0  0  0  0  0  0  0  0  0  0
    2.4218   -1.7757   -1.6282 H   0  0  0  0  0  0  0  0  0  0  0  0
    3.2330    1.7146   -2.0840 H   0  0  0  0  0  0  0  0  0  0  0  0
    3.3647    4.1931   -2.3980 H   0  0  0  0  0  0  0  0  0  0  0  0
    2.9539    5.7309   -0.4571 H   0  0  0  0  0  0  0  0  0  0  0  0
    2.4376    4.7657    1.8023 H   0  0  0  0  0  0  0  0  0  0  0  0
    2.3086    2.2540    2.0915 H   0  0  0  0  0  0  0  0  0  0  0  0
    2.4845   -1.0357    4.0033 H   0  0  0  0  0  0  0  0  0  0  0  0
    1.3956   -3.2165    4.6372 H   0  0  0  0  0  0  0  0  0  0  0  0
    0.0509   -4.4816    2.8623 H   0  0  0  0  0  0  0  0  0  0  0  0
   -0.3542   -3.3524    0.6527 H   0  0  0  0  0  0  0  0  0  0  0  0
  1 22  1  0  0  0  0
  1 18  1  0  0  0  0
  2 18  2  0  0  0  0
  3  1  1  0  0  0  0
  4  3  2  0  0  0  0
  4  5  1  0  0  0  0
  5  2  1  0  0  0  0
  6  7  1  0  0  0  0
  6  5  1  0  0  0  0
  7 24  1  0  0  0  0
  8 25  1  0  0  0  0
  8  7  2  0  0  0  0
  9  8  1  0  0  0  0
 10  9  2  0  0  0  0
 10 11  1  0  0  0  0
 11  6  2  0  0  0  0
 12  5  1  0  0  0  0
 12 17  1  0  0  0  0
 13 12  2  0  0  0  0
 14 13  1  0  0  0  0
 14 15  2  0  0  0  0
 15 16  1  0  0  0  0
 16 17  2  0  0  0  0
 16 32  1  0  0  0  0
 17 33  1  0  0  0  0
 18 19  1  0  0  0  0
 19 20  2  0  0  0  0
 19 34  1  0  0  0  0
 20 35  1  0  0  0  0
 21 36  1  0  0  0  0
 21 20  1  0  0  0  0
 22 21  2  0  0  0  0
 23  4  1  0  0  0  0
 26  9  1  0  0  0  0
 27 10  1  0  0  0  0
 28 11  1  0  0  0  0
 29 13  1  0  0  0  0
 30 14  1  0  0  0  0
 31 15  1  0  0  0  0
 37 22  1  0  0  0  0
M  END
