5
q = 0.0, confidence = 1.0

 55 59  0  0  1  0  0  0  0  0999 V2000
    3.3068    2.9452   -0.2047 O   0  0  0  0  0  0  0  0  0  0  0  0
   -0.9039    1.9043   -0.3539 N   0  0  0  0  0  0  0  0  0  0  0  0
   -0.2336    3.0998   -0.5296 N   0  0  0  0  0  0  0  0  0  0  0  0
    1.1418    1.3585   -0.6304 N   0  0  0  0  0  0  0  0  0  0  0  0
   -0.0984    0.7983   -0.4093 C   0  0  0  0  0  2  0  0  0  0  0  0
    1.0105    2.7277   -0.7065 C   0  0  0  0  0  0  0  0  0  0  0  0
    2.2374    3.5616   -0.8976 C   0  0  0  0  0  0  0  0  0  0  0  0
    2.4732    3.6732   -1.9858 H   0  0  0  0  0  0  0  0  0  0  0  0
    2.0805    4.5714   -0.4735 H   0  0  0  0  0  0  0  0  0  0  0  0
    3.6346    1.6647   -0.7356 C   0  0  2  0  0  0  0  0  0  0  0  0
    4.1257    1.8185   -1.7261 H   0  0  0  0  0  0  0  0  0  0  0  0
    2.4118    0.6775   -0.8931 C   0  0  1  0  0  0  0  0  0  0  0  0
    2.3308    0.2946   -1.9291 H   0  0  0  0  0  0  0  0  0  0  0  0
    2.7732   -0.4867    0.0557 C   0  0  1  0  0  0  0  0  0  0  0  0
    1.8773   -1.0877    0.3254 H   0  0  0  0  0  0  0  0  0  0  0  0
    3.8683   -1.2684   -0.6976 C   0  0  0  0  0  0  0  0  0  0  0  0
    3.5555   -1.4951   -1.7351 H   0  0  0  0  0  0  0  0  0  0  0  0
    4.0690   -2.2392   -0.2054 H   0  0  0  0  0  0  0  0  0  0  0  0
    5.0914   -0.3077   -0.6087 C   0  0  0  0  0  0  0  0  0  0  0  0
    5.9578   -0.7789   -0.1040 H   0  0  0  0  0  0  0  0  0  0  0  0
    5.4522    0.0267   -1.6027 H   0  0  0  0  0  0  0  0  0  0  0  0
    4.5744    0.8972    0.2316 C   0  0  2  0  0  0  0  0  0  0  0  0
    3.5629    0.1859    1.2159 C   0  0  0  0  0  0  0  0  0  0  0  0
    2.7320    1.1211    2.1098 C   0  0  0  0  0  0  0  0  0  0  0  0
    2.1974    1.9129    1.5627 H   0  0  0  0  0  0  0  0  0  0  0  0
    3.3873    1.6251    2.8495 H   0  0  0  0  0  0  0  0  0  0  0  0
    1.9872    0.5281    2.6796 H   0  0  0  0  0  0  0  0  0  0  0  0
    4.2322   -0.8299    2.1583 C   0  0  0  0  0  0  0  0  0  0  0  0
    3.4551   -1.4346    2.6703 H   0  0  0  0  0  0  0  0  0  0  0  0
    4.8101   -0.3051    2.9461 H   0  0  0  0  0  0  0  0  0  0  0  0
    4.9210   -1.5321    1.6539 H   0  0  0  0  0  0  0  0  0  0  0  0
    5.6678    1.7616    0.8375 C   0  0  0  0  0  0  0  0  0  0  0  0
    6.3393    2.1641    0.0509 H   0  0  0  0  0  0  0  0  0  0  0  0
    6.2912    1.1698    1.5379 H   0  0  0  0  0  0  0  0  0  0  0  0
    5.2419    2.6237    1.3857 H   0  0  0  0  0  0  0  0  0  0  0  0
   -2.3150    1.9373   -0.0959 C   0  0  0  0  0  0  0  0  0  0  0  0
   -3.2147    1.4894   -1.0848 C   0  0  0  0  0  0  0  0  0  0  0  0
   -4.5867    1.5074   -0.7652 C   0  0  0  0  0  0  0  0  0  0  0  0
   -5.3059    1.1559   -1.5223 H   0  0  0  0  0  0  0  0  0  0  0  0
   -5.0625    1.9654    0.4749 C   0  0  0  0  0  0  0  0  0  0  0  0
   -4.1258    2.4262    1.4220 C   0  0  0  0  0  0  0  0  0  0  0  0
   -4.4782    2.7907    2.4004 H   0  0  0  0  0  0  0  0  0  0  0  0
   -2.7472    2.4227    1.1610 C   0  0  0  0  0  0  0  0  0  0  0  0
   -2.7340    0.9960   -2.4197 C   0  0  0  0  0  0  0  0  0  0  0  0
   -1.9695    1.6713   -2.8529 H   0  0  0  0  0  0  0  0  0  0  0  0
   -3.5721    0.9042   -3.1355 H   0  0  0  0  0  0  0  0  0  0  0  0
   -2.2393    0.0043   -2.3240 H   0  0  0  0  0  0  0  0  0  0  0  0
   -6.5367    1.9755    0.7927 C   0  0  0  0  0  0  0  0  0  0  0  0
   -6.7545    1.3854    1.7071 H   0  0  0  0  0  0  0  0  0  0  0  0
   -7.1371    1.5533   -0.0358 H   0  0  0  0  0  0  0  0  0  0  0  0
   -6.8994    3.0071    0.9841 H   0  0  0  0  0  0  0  0  0  0  0  0
   -1.7507    2.8852    2.1911 C   0  0  0  0  0  0  0  0  0  0  0  0
   -2.2509    3.1404    3.1440 H   0  0  0  0  0  0  0  0  0  0  0  0
   -1.1913    3.7733    1.8337 H   0  0  0  0  0  0  0  0  0  0  0  0
   -0.9934    2.0987    2.3971 H   0  0  0  0  0  0  0  0  0  0  0  0
  2 36  1  0  0  0  0
  3  2  1  0  0  0  0
  4  5  1  0  0  0  0
  5  2  1  0  0  0  0
  6  4  1  0  0  0  0
  6  3  2  0  0  0  0
  7  6  1  0  0  0  0
  7  9  1  0  0  0  0
  7  1  1  0  0  0  0
  8  7  1  0  0  0  0
 10 11  1  6  0  0  0
 10  1  1  0  0  0  0
 10 22  1  0  0  0  0
 12 13  1  6  0  0  0
 12 10  1  0  0  0  0
 12  4  1  0  0  0  0
 12 14  1  0  0  0  0
 14 15  1  1  0  0  0
 14 23  1  0  0  0  0
 16 19  1  0  0  0  0
 16 18  1  0  0  0  0
 16 14  1  0  0  0  0
 17 16  1  0  0  0  0
 19 20  1  0  0  0  0
 19 22  1  0  0  0  0
 21 19  1  0  0  0  0
 22 32  1  1  0  0  0
 22 23  1  0  0  0  0
 23 24  1  0  0  0  0
 23 28  1  0  0  0  0
 24 27  1  0  0  0  0
 24 26  1  0  0  0  0
 25 24  1  0  0  0  0
 28 29  1  0  0  0  0
 28 30  1  0  0  0  0
 31 28  1  0  0  0  0
 32 35  1  0  0  0  0
 32 34  1  0  0  0  0
 33 32  1  0  0  0  0
 36 43  1  0  0  0  0
 37 38  1  0  0  0  0
 37 36  2  0  0  0  0
 38 40  2  0  0  0  0
 39 38  1  0  0  0  0
 40 48  1  0  0  0  0
 40 41  1  0  0  0  0
 41 42  1  0  0  0  0
 43 41  2  0  0  0  0
 43 52  1  0  0  0  0
 44 47  1  0  0  0  0
 44 37  1  0  0  0  0
 45 44  1  0  0  0  0
 46 44  1  0  0  0  0
 48 51  1  0  0  0  0
 48 49  1  0  0  0  0
 50 48  1  0  0  0  0
 52 55  1  0  0  0  0
 52 53  1  0  0  0  0
 54 52  1  0  0  0  0
M  END
