22
q = 0.0, confidence = 0.972

 67 71  0  0  0  0  0  0  0  0999 V2000
    3.3222   -0.2652   -0.5913 C   0  0  0  0  0  0  0  0  0  0  0  0
    2.4582   -0.2383   -1.2718 H   0  0  0  0  0  0  0  0  0  0  0  0
    4.6200   -0.2723   -1.1177 C   0  0  0  0  0  0  0  0  0  0  0  0
    4.7810   -0.2488   -2.2042 H   0  0  0  0  0  0  0  0  0  0  0  0
    5.7337   -0.3121   -0.2562 C   0  0  0  0  0  0  0  0  0  0  0  0
    7.1403   -0.3142   -0.7549 C   0  0  0  0  0  0  0  0  0  0  0  0
    8.1309   -0.3328   -0.0430 O   0  0  0  0  0  0  0  0  0  0  0  0
    7.2027   -0.2922   -2.1125 O   0  0  0  0  0  0  0  0  0  0  0  0
    8.5240   -0.3022   -2.6598 C   0  0  0  0  0  0  0  0  0  0  0  0
    9.0999    0.5830   -2.3210 H   0  0  0  0  0  0  0  0  0  0  0  0
    8.4024   -0.2865   -3.7575 H   0  0  0  0  0  0  0  0  0  0  0  0
    9.0759   -1.2109   -2.3446 H   0  0  0  0  0  0  0  0  0  0  0  0
    5.5276   -0.3515    1.1377 C   0  0  0  0  0  0  0  0  0  0  0  0
    6.4093   -0.3844    1.7942 H   0  0  0  0  0  0  0  0  0  0  0  0
    4.2314   -0.3428    1.6584 C   0  0  0  0  0  0  0  0  0  0  0  0
    4.0777   -0.3697    2.7484 H   0  0  0  0  0  0  0  0  0  0  0  0
    3.1129   -0.2951    0.8010 C   0  0  0  0  0  0  0  0  0  0  0  0
    1.7235   -0.3278    1.4009 C   0  0  0  0  0  0  0  0  0  0  0  0
    1.4328   -1.3967    1.5527 H   0  0  0  0  0  0  0  0  0  0  0  0
    1.7172    0.1719    2.3891 H   0  0  0  0  0  0  0  0  0  0  0  0
    0.6929    0.2930    0.5670 N   0  0  0  0  0  0  0  0  0  0  0  0
   -0.0829   -0.4280   -0.2974 C   0  0  0  0  0  2  0  0  0  0  0  0
    0.3508    1.6500    0.5491 C   0  0  0  0  0  0  0  0  0  0  0  0
    0.9584    2.6910    1.3958 C   0  0  0  0  0  0  0  0  0  0  0  0
    0.1181    3.5617    2.1281 C   0  0  0  0  0  0  0  0  0  0  0  0
   -0.9723    3.4286    2.0726 H   0  0  0  0  0  0  0  0  0  0  0  0
    0.6651    4.5775    2.9217 C   0  0  0  0  0  0  0  0  0  0  0  0
   -0.0022    5.2448    3.4878 H   0  0  0  0  0  0  0  0  0  0  0  0
    2.0581    4.7376    3.0036 C   0  0  0  0  0  0  0  0  0  0  0  0
    2.4869    5.5328    3.6320 H   0  0  0  0  0  0  0  0  0  0  0  0
    2.9005    3.8794    2.2800 C   0  0  0  0  0  0  0  0  0  0  0  0
    3.9929    4.0012    2.3327 H   0  0  0  0  0  0  0  0  0  0  0  0
    2.3586    2.8663    1.4766 C   0  0  0  0  0  0  0  0  0  0  0  0
    3.0264    2.2154    0.8953 H   0  0  0  0  0  0  0  0  0  0  0  0
   -0.6937    1.7738   -0.3585 C   0  0  0  0  0  0  0  0  0  0  0  0
   -1.3958    2.9919   -0.7971 C   0  0  0  0  0  0  0  0  0  0  0  0
   -0.6411    4.1209   -1.1927 C   0  0  0  0  0  0  0  0  0  0  0  0
    0.4571    4.0606   -1.1876 H   0  0  0  0  0  0  0  0  0  0  0  0
   -1.2821    5.3006   -1.5907 C   0  0  0  0  0  0  0  0  0  0  0  0
   -0.6808    6.1698   -1.8973 H   0  0  0  0  0  0  0  0  0  0  0  0
   -2.6848    5.3723   -1.6075 C   0  0  0  0  0  0  0  0  0  0  0  0
   -3.1870    6.2985   -1.9251 H   0  0  0  0  0  0  0  0  0  0  0  0
   -3.4430    4.2584   -1.2144 C   0  0  0  0  0  0  0  0  0  0  0  0
   -4.5423    4.3085   -1.2151 H   0  0  0  0  0  0  0  0  0  0  0  0
   -2.8067    3.0779   -0.8056 C   0  0  0  0  0  0  0  0  0  0  0  0
   -3.4088    2.2211   -0.4723 H   0  0  0  0  0  0  0  0  0  0  0  0
   -0.9263    0.4859   -0.8593 N   0  0  0  0  0  0  0  0  0  0  0  0
   -1.9160    0.1227   -1.8668 C   0  0  0  0  0  0  0  0  0  0  0  0
   -1.5138   -0.7790   -2.3753 H   0  0  0  0  0  0  0  0  0  0  0  0
   -1.9721    0.9376   -2.6148 H   0  0  0  0  0  0  0  0  0  0  0  0
   -3.2966   -0.1805   -1.3162 C   0  0  0  0  0  0  0  0  0  0  0  0
   -3.4713   -0.7650   -0.0470 C   0  0  0  0  0  0  0  0  0  0  0  0
   -2.5927   -0.9910    0.5759 H   0  0  0  0  0  0  0  0  0  0  0  0
   -4.7550   -1.0647    0.4261 C   0  0  0  0  0  0  0  0  0  0  0  0
   -4.8904   -1.5213    1.4159 H   0  0  0  0  0  0  0  0  0  0  0  0
   -5.8856   -0.7854   -0.3666 C   0  0  0  0  0  0  0  0  0  0  0  0
   -7.2801   -1.0764    0.0839 C   0  0  0  0  0  0  0  0  0  0  0  0
   -8.2827   -0.8407   -0.5698 O   0  0  0  0  0  0  0  0  0  0  0  0
   -7.3108   -1.6400    1.3180 O   0  0  0  0  0  0  0  0  0  0  0  0
   -8.6164   -1.9547    1.8124 C   0  0  0  0  0  0  0  0  0  0  0  0
   -9.2423   -1.0422    1.8838 H   0  0  0  0  0  0  0  0  0  0  0  0
   -8.4671   -2.4005    2.8117 H   0  0  0  0  0  0  0  0  0  0  0  0
   -9.1301   -2.6722    1.1409 H   0  0  0  0  0  0  0  0  0  0  0  0
   -5.7133   -0.2058   -1.6394 C   0  0  0  0  0  0  0  0  0  0  0  0
   -6.6091    0.0066   -2.2411 H   0  0  0  0  0  0  0  0  0  0  0  0
   -4.4309    0.0944   -2.1069 C   0  0  0  0  0  0  0  0  0  0  0  0
   -4.3040    0.5606   -3.0968 H   0  0  0  0  0  0  0  0  0  0  0  0
  1 17  1  0  0  0  0
  2  1  1  0  0  0  0
  3  1  2  0  0  0  0
  3  5  1  0  0  0  0
  4  3  1  0  0  0  0
  5 13  2  0  0  0  0
  6  5  1  0  0  0  0
  6  7  2  0  0  0  0
  8  6  1  0  0  0  0
  9 12  1  0  0  0  0
  9 10  1  0  0  0  0
  9  8  1  0  0  0  0
 11  9  1  0  0  0  0
 13 15  1  0  0  0  0
 13 14  1  0  0  0  0
 15 16  1  0  0  0  0
 17 18  1  0  0  0  0
 17 15  2  0  0  0  0
 18 19  1  0  0  0  0
 18 20  1  0  0  0  0
 21 18  1  0  0  0  0
 22 21  1  0  0  0  0
 23 21  1  0  0  0  0
 23 24  1  0  0  0  0
 24 33  2  0  0  0  0
 24 25  1  0  0  0  0
 25 27  2  0  0  0  0
 26 25  1  0  0  0  0
 27 29  1  0  0  0  0
 27 28  1  0  0  0  0
 29 30  1  0  0  0  0
 31 32  1  0  0  0  0
 31 29  2  0  0  0  0
 33 31  1  0  0  0  0
 34 33  1  0  0  0  0
 35 23  2  0  0  0  0
 36 35  1  0  0  0  0
 37 38  1  0  0  0  0
 37 36  2  0  0  0  0
 39 37  1  0  0  0  0
 40 39  1  0  0  0  0
 41 39  2  0  0  0  0
 41 43  1  0  0  0  0
 42 41  1  0  0  0  0
 43 45  2  0  0  0  0
 44 43  1  0  0  0  0
 45 36  1  0  0  0  0
 45 46  1  0  0  0  0
 47 35  1  0  0  0  0
 47 22  1  0  0  0  0
 48 51  1  0  0  0  0
 48 47  1  0  0  0  0
 49 48  1  0  0  0  0
 50 48  1  0  0  0  0
 51 52  1  0  0  0  0
 52 54  2  0  0  0  0
 52 53  1  0  0  0  0
 54 55  1  0  0  0  0
 56 57  1  0  0  0  0
 56 54  1  0  0  0  0
 57 59  1  0  0  0  0
 58 57  2  0  0  0  0
 59 60  1  0  0  0  0
 60 61  1  0  0  0  0
 60 62  1  0  0  0  0
 63 60  1  0  0  0  0
 64 56  2  0  0  0  0
 65 64  1  0  0  0  0
 66 64  1  0  0  0  0
 66 51  2  0  0  0  0
 67 66  1  0  0  0  0
M  END
