4
q = 0.0, confidence = 0.828

 20 19  0  0  0  0  0  0  0  0999 V2000
   -2.6891    0.4988    0.3969 C   0  0  0  0  0  3  0  0  0  0  0  0
   -1.7430    1.4390    0.9429 C   0  0  0  0  0  0  0  0  0  0  0  0
   -0.7180    0.9062    1.7765 C   0  0  0  0  0  0  0  0  0  0  0  0
   -0.7378   -0.5351    1.9238 C   0  0  0  0  0  3  0  0  0  0  0  0
   -0.7840   -1.3102    3.0284 C   0  0  0  0  0  0  0  0  0  0  0  0
   -3.7184    0.9375   -0.6135 C   0  0  0  0  0  0  0  0  0  0  0  0
   -1.8078    2.8937    0.5752 C   0  0  0  0  0  0  0  0  0  0  0  0
    0.2551    1.7595    2.5518 C   0  0  0  0  0  0  0  0  0  0  0  0
   -3.0140   -0.2826    1.1060 H   0  0  0  0  0  0  0  0  0  0  0  0
   -0.7103   -2.4102    2.9829 H   0  0  0  0  0  0  0  0  0  0  0  0
   -0.9026   -0.8704    4.0343 H   0  0  0  0  0  0  0  0  0  0  0  0
   -3.2380    1.3965   -1.5004 H   0  0  0  0  0  0  0  0  0  0  0  0
   -4.4222    1.6830   -0.1797 H   0  0  0  0  0  0  0  0  0  0  0  0
   -4.3296    0.0807   -0.9596 H   0  0  0  0  0  0  0  0  0  0  0  0
   -1.7857    3.0079   -0.5268 H   0  0  0  0  0  0  0  0  0  0  0  0
   -0.9728    3.4774    1.0008 H   0  0  0  0  0  0  0  0  0  0  0  0
   -2.7620    3.3252    0.9440 H   0  0  0  0  0  0  0  0  0  0  0  0
    1.1282    1.1620    2.8669 H   0  0  0  0  0  0  0  0  0  0  0  0
   -0.2528    2.1421    3.4635 H   0  0  0  0  0  0  0  0  0  0  0  0
    0.6300    2.6253    1.9760 H   0  0  0  0  0  0  0  0  0  0  0  0
  1  2  1  0  0  0  0
  1  9  1  0  0  0  0
  2  3  2  0  0  0  0
  3  4  1  0  0  0  0
  3  8  1  0  0  0  0
  4  5  2  0  0  0  0
  5 11  1  0  0  0  0
  6 13  1  0  0  0  0
  6  1  1  0  0  0  0
  7  2  1  0  0  0  0
  7 17  1  0  0  0  0
  7 16  1  0  0  0  0
  8 18  1  0  0  0  0
  8 19  1  0  0  0  0
 10  5  1  0  0  0  0
 12  6  1  0  0  0  0
 14  6  1  0  0  0  0
 15  7  1  0  0  0  0
 20  8  1  0  0  0  0
M  END
