4
q = -1.0, confidence = 0.0

 25 26  0  0  0  0  0  0  0  0999 V2000
   -1.2916    2.9710   -0.0781 N   0  0  0  0  0  0  0  0  0  0  0  0
   -0.1641    3.6068    0.0396 N   0  0  0  0  0  0  0  0  0  0  0  0
   -0.9736    1.6407   -0.0797 N   0  0  0  0  0  0  0  0  0  0  0  0
    0.3843    1.5176    0.0419 C   0  0  0  0  0  3  0  0  0  0  0  0
   -1.5447    0.4617   -2.6456 C   0  0  0  0  0  0  0  0  0  0  0  0
   -0.4712    0.1715   -2.6219 H   0  0  0  0  0  0  0  0  0  0  0  0
   -1.5618    1.5662   -2.7457 H   0  0  0  0  0  0  0  0  0  0  0  0
   -2.0093    0.0155   -3.5459 H   0  0  0  0  0  0  0  0  0  0  0  0
   -3.2483   -0.9769   -1.4302 C   0  0  0  0  0  0  0  0  0  0  0  0
   -3.4712   -1.4653   -2.3930 H   0  0  0  0  0  0  0  0  0  0  0  0
    0.8872    2.7465    0.1165 N   0  0  0  0  0  0  0  0  0  0  0  0
   -3.6793   -0.6996    0.9312 C   0  0  0  0  0  0  0  0  0  0  0  0
   -4.2396   -0.9726    1.8405 H   0  0  0  0  0  0  0  0  0  0  0  0
   -3.9553   -1.3641   -0.2781 C   0  0  0  0  0  0  0  0  0  0  0  0
   -1.9875    0.6347   -0.1535 C   0  0  0  0  0  0  0  0  0  0  0  0
   -2.4151    1.0175    2.3143 C   0  0  0  0  0  0  0  0  0  0  0  0
   -2.4842    2.1165    2.1847 H   0  0  0  0  0  0  0  0  0  0  0  0
   -1.3781    0.7904    2.6442 H   0  0  0  0  0  0  0  0  0  0  0  0
   -3.1194    0.7020    3.1078 H   0  0  0  0  0  0  0  0  0  0  0  0
   -2.2639    0.0278   -1.3989 C   0  0  0  0  0  0  0  0  0  0  0  0
   -2.7023    0.3064    1.0213 C   0  0  0  0  0  0  0  0  0  0  0  0
   -4.9692   -2.4807   -0.3309 C   0  0  0  0  0  0  0  0  0  0  0  0
   -5.7925   -2.3214    0.3946 H   0  0  0  0  0  0  0  0  0  0  0  0
   -4.4990   -3.4565   -0.0797 H   0  0  0  0  0  0  0  0  0  0  0  0
   -5.4131   -2.5836   -1.3414 H   0  0  0  0  0  0  0  0  0  0  0  0
  1  2  2  0  0  0  0
  2 11  1  0  0  0  0
  3  1  1  0  0  0  0
  3  4  1  0  0  0  0
  4 11  2  0  0  0  0
  5  6  1  0  0  0  0
  5 20  1  0  0  0  0
  7  5  1  0  0  0  0
  8  5  1  0  0  0  0
  9 20  2  0  0  0  0
  9 14  1  0  0  0  0
 10  9  1  0  0  0  0
 12 21  1  0  0  0  0
 12 13  1  0  0  0  0
 14 12  2  0  0  0  0
 15  3  1  0  0  0  0
 15 21  2  0  0  0  0
 16 18  1  0  0  0  0
 16 19  1  0  0  0  0
 17 16  1  0  0  0  0
 20 15  1  0  0  0  0
 21 16  1  0  0  0  0
 22 14  1  0  0  0  0
 22 24  1  0  0  0  0
 22 23  1  0  0  0  0
 25 22  1  0  0  0  0
M  END
