1
q = -1.0, confidence = 0.0

 34 35  0  0  1  0  0  0  0  0999 V2000
   -0.2518    0.4776   -1.5080 C   0  0  0  0  0  3  0  0  0  0  0  0
   -0.5712    1.4290   -1.0683 H   0  0  0  0  0  0  0  0  0  0  0  0
   -0.3523   -1.5708   -2.5695 C   0  0  0  0  0  0  0  0  0  0  0  0
    7.1313    1.9385    0.1272 C   0  0  0  0  0  0  0  0  0  0  0  0
    7.0599    1.1263    0.8879 H   0  0  0  0  0  0  0  0  0  0  0  0
    7.9431    2.6217    0.4358 H   0  0  0  0  0  0  0  0  0  0  0  0
    7.4348    1.4665   -0.8341 H   0  0  0  0  0  0  0  0  0  0  0  0
    4.7420    2.0428   -0.4085 C   0  0  0  0  0  0  0  0  0  0  0  0
    5.8983    2.6857   -0.0037 N   0  0  0  0  0  0  0  0  0  0  0  0
    1.1019    0.0127   -1.6620 C   0  0  1  0  0  3  0  0  0  0  0  0
    3.5688    0.0171   -1.1519 C   0  0  0  0  0  0  0  0  0  0  0  0
    3.6065   -1.0623   -1.3582 H   0  0  0  0  0  0  0  0  0  0  0  0
    1.0121   -1.2591   -2.3179 C   0  0  0  0  0  0  0  0  0  0  0  0
    1.8576   -1.9004   -2.5884 H   0  0  0  0  0  0  0  0  0  0  0  0
   -1.1469   -0.4807   -2.0673 C   0  0  2  0  0  3  0  0  0  0  0  0
    3.5005    2.7338   -0.5030 C   0  0  0  0  0  0  0  0  0  0  0  0
    3.4406    3.8029   -0.2627 H   0  0  0  0  0  0  0  0  0  0  0  0
    2.3406    2.0752   -0.9177 C   0  0  0  0  0  0  0  0  0  0  0  0
    1.4100    2.6569   -1.0032 H   0  0  0  0  0  0  0  0  0  0  0  0
    2.3345    0.7007   -1.2474 C   0  0  0  0  0  0  0  0  0  0  0  0
   -2.6331   -0.3473   -2.2029 C   0  0  0  0  0  0  0  0  0  0  0  0
   -2.9097   -0.2177   -3.2715 H   0  0  0  0  0  0  0  0  0  0  0  0
   -3.0149    0.5247   -1.6401 H   0  0  0  0  0  0  0  0  0  0  0  0
   -3.1553   -1.2511   -1.8307 H   0  0  0  0  0  0  0  0  0  0  0  0
   -0.8719   -2.7673   -3.3041 C   0  0  0  0  0  0  0  0  0  0  0  0
   -0.0835   -3.5340   -3.4278 H   0  0  0  0  0  0  0  0  0  0  0  0
   -1.2324   -2.4784   -4.3147 H   0  0  0  0  0  0  0  0  0  0  0  0
   -1.7191   -3.2323   -2.7614 H   0  0  0  0  0  0  0  0  0  0  0  0
    5.8482    4.0748    0.3991 C   0  0  0  0  0  0  0  0  0  0  0  0
    5.4911    4.7349   -0.4234 H   0  0  0  0  0  0  0  0  0  0  0  0
    6.8618    4.4117    0.6819 H   0  0  0  0  0  0  0  0  0  0  0  0
    5.1765    4.2411    1.2736 H   0  0  0  0  0  0  0  0  0  0  0  0
    4.7393    0.6598   -0.7486 C   0  0  0  0  0  0  0  0  0  0  0  0
    5.6623    0.0702   -0.6808 H   0  0  0  0  0  0  0  0  0  0  0  0
  1  2  1  0  0  0  0
  3 13  2  0  0  0  0
  3 15  1  0  0  0  0
  4  6  1  0  0  0  0
  4  5  1  0  0  0  0
  7  4  1  0  0  0  0
  8  9  1  0  0  0  0
  9  4  1  0  0  0  0
  9 29  1  0  0  0  0
 10  1  1  0  0  0  0
 10 20  1  6  0  0  0
 11 33  1  0  0  0  0
 12 11  1  0  0  0  0
 13 10  1  0  0  0  0
 14 13  1  0  0  0  0
 15 21  1  6  0  0  0
 15  1  1  0  0  0  0
 16  8  1  0  0  0  0
 16 17  1  0  0  0  0
 18 16  2  0  0  0  0
 19 18  1  0  0  0  0
 20 11  2  0  0  0  0
 20 18  1  0  0  0  0
 21 24  1  0  0  0  0
 21 23  1  0  0  0  0
 22 21  1  0  0  0  0
 25 28  1  0  0  0  0
 25  3  1  0  0  0  0
 26 25  1  0  0  0  0
 27 25  1  0  0  0  0
 29 31  1  0  0  0  0
 29 32  1  0  0  0  0
 30 29  1  0  0  0  0
 33 34  1  0  0  0  0
 33  8  2  0  0  0  0
M  END
