1
q = 0.0, confidence = 0.978

 39 41  0  0  0  0  0  0  0  0999 V2000
    0.1213    0.1492   -0.0965 C   0  0  0  0  0  2  0  0  0  0  0  0
    0.2613    1.5335   -0.0330 N   0  0  0  0  0  0  0  0  0  0  0  0
   -0.9366    2.3492   -0.1241 C   0  0  0  0  0  0  0  0  0  0  0  0
   -1.6346    2.7171    1.0347 C   0  0  0  0  0  0  0  0  0  0  0  0
   -1.3017    2.3498    2.0148 H   0  0  0  0  0  0  0  0  0  0  0  0
   -2.7619    3.5440    0.9205 C   0  0  0  0  0  0  0  0  0  0  0  0
   -3.3221    3.8228    1.8251 H   0  0  0  0  0  0  0  0  0  0  0  0
   -3.1749    4.0075   -0.3384 C   0  0  0  0  0  0  0  0  0  0  0  0
   -4.0619    4.6524   -0.4229 H   0  0  0  0  0  0  0  0  0  0  0  0
   -2.4640    3.6380   -1.4908 C   0  0  0  0  0  0  0  0  0  0  0  0
   -2.7938    3.9863   -2.4804 H   0  0  0  0  0  0  0  0  0  0  0  0
   -1.3416    2.8049   -1.3877 C   0  0  0  0  0  0  0  0  0  0  0  0
   -0.7812    2.4919   -2.2807 H   0  0  0  0  0  0  0  0  0  0  0  0
    1.4662    2.2176    0.0785 C   0  0  0  0  0  0  0  0  0  0  0  0
    1.4104    3.7152    0.1840 C   0  0  0  0  0  0  0  0  0  0  0  0
    0.7644    4.0343    1.0254 H   0  0  0  0  0  0  0  0  0  0  0  0
    0.9613    4.1509   -0.7303 H   0  0  0  0  0  0  0  0  0  0  0  0
    2.4202    4.1395    0.2932 H   0  0  0  0  0  0  0  0  0  0  0  0
    2.6617    1.4909    0.1233 C   0  0  0  0  0  0  0  0  0  0  0  0
    3.9725    2.1944    0.4182 C   0  0  0  0  0  0  0  0  0  0  0  0
    4.3522    3.1523   -0.2429 O   0  0  0  0  0  0  0  0  0  0  0  0
    4.7298    1.7215    1.6442 C   0  0  0  0  0  0  0  0  0  0  0  0
    5.7926    2.0151    1.5630 H   0  0  0  0  0  0  0  0  0  0  0  0
    4.6345    0.6368    1.8329 H   0  0  0  0  0  0  0  0  0  0  0  0
    4.2902    2.2502    2.5185 H   0  0  0  0  0  0  0  0  0  0  0  0
    2.6129    0.0744   -0.0677 C   0  0  0  0  0  0  0  0  0  0  0  0
    3.8392   -0.7487   -0.1944 C   0  0  0  0  0  0  0  0  0  0  0  0
    4.9333   -0.3071   -0.9740 C   0  0  0  0  0  0  0  0  0  0  0  0
    4.8733    0.6551   -1.5038 H   0  0  0  0  0  0  0  0  0  0  0  0
    6.0795   -1.1023   -1.1050 C   0  0  0  0  0  0  0  0  0  0  0  0
    6.9187   -0.7494   -1.7231 H   0  0  0  0  0  0  0  0  0  0  0  0
    6.1538   -2.3471   -0.4596 C   0  0  0  0  0  0  0  0  0  0  0  0
    7.0565   -2.9682   -0.5600 H   0  0  0  0  0  0  0  0  0  0  0  0
    5.0695   -2.7992    0.3101 C   0  0  0  0  0  0  0  0  0  0  0  0
    5.1209   -3.7738    0.8183 H   0  0  0  0  0  0  0  0  0  0  0  0
    3.9182   -2.0110    0.4382 C   0  0  0  0  0  0  0  0  0  0  0  0
    3.0751   -2.3644    1.0513 H   0  0  0  0  0  0  0  0  0  0  0  0
    1.3621   -0.5338   -0.1762 C   0  0  0  0  0  0  0  0  0  0  0  0
    1.3330   -1.6178   -0.3494 H   0  0  0  0  0  0  0  0  0  0  0  0
  1  2  1  0  0  0  0
  2 14  1  0  0  0  0
  3  2  1  0  0  0  0
  3  4  1  0  0  0  0
  4  5  1  0  0  0  0
  6  4  2  0  0  0  0
  6  7  1  0  0  0  0
  8  6  1  0  0  0  0
  9  8  1  0  0  0  0
 10 12  1  0  0  0  0
 10  8  2  0  0  0  0
 11 10  1  0  0  0  0
 12  3  2  0  0  0  0
 13 12  1  0  0  0  0
 14 19  2  0  0  0  0
 14 15  1  0  0  0  0
 15 18  1  0  0  0  0
 15 16  1  0  0  0  0
 17 15  1  0  0  0  0
 19 20  1  0  0  0  0
 20 22  1  0  0  0  0
 21 20  2  0  0  0  0
 22 24  1  0  0  0  0
 22 25  1  0  0  0  0
 23 22  1  0  0  0  0
 26 19  1  0  0  0  0
 27 26  1  0  0  0  0
 27 36  1  0  0  0  0
 28 27  2  0  0  0  0
 29 28  1  0  0  0  0
 30 28  1  0  0  0  0
 30 32  2  0  0  0  0
 31 30  1  0  0  0  0
 32 34  1  0  0  0  0
 33 32  1  0  0  0  0
 34 36  2  0  0  0  0
 34 35  1  0  0  0  0
 36 37  1  0  0  0  0
 38  1  1  0  0  0  0
 38 26  2  0  0  0  0
 39 38  1  0  0  0  0
M  END
