6
q = 0.0, confidence = 0.998

 42 43  0  0  0  0  0  0  0  0999 V2000
    3.1432    1.7349   -0.2844 O   0  0  0  0  0  0  0  0  0  0  0  0
   -3.8726    2.0681   -0.2069 O   0  0  0  0  0  0  0  0  0  0  0  0
   -4.2006   -0.1965   -0.0103 O   0  0  0  0  0  0  0  0  0  0  0  0
   -9.7079   -0.9246    0.1104 O   0  0  0  0  0  0  0  0  0  0  0  0
    2.1605   -0.2634   -0.0654 N   0  0  0  0  0  0  0  0  0  0  0  0
    3.3183    0.4320   -0.1440 C   0  0  0  0  0  2  0  0  0  0  0  0
    0.7934    0.0954   -0.0847 C   0  0  0  0  0  0  0  0  0  0  0  0
   -0.1303   -0.9713    0.0179 C   0  0  0  0  0  0  0  0  0  0  0  0
   -1.5034   -0.7289    0.0105 C   0  0  0  0  0  0  0  0  0  0  0  0
   -1.9885    0.5908   -0.0997 C   0  0  0  0  0  0  0  0  0  0  0  0
   -1.0656    1.6502   -0.2012 C   0  0  0  0  0  0  0  0  0  0  0  0
    0.3122    1.4195   -0.1954 C   0  0  0  0  0  0  0  0  0  0  0  0
   -3.4418    0.9317   -0.1143 C   0  0  0  0  0  0  0  0  0  0  0  0
   -5.5919   -0.2381    0.0081 C   0  0  0  0  0  0  0  0  0  0  0  0
   -6.1218   -1.5394    0.1186 C   0  0  0  0  0  0  0  0  0  0  0  0
   -7.5002   -1.7371    0.1503 C   0  0  0  0  0  0  0  0  0  0  0  0
   -8.3807   -0.6340    0.0719 C   0  0  0  0  0  0  0  0  0  0  0  0
   -7.8434    0.6642   -0.0383 C   0  0  0  0  0  0  0  0  0  0  0  0
   -6.4530    0.8680   -0.0707 C   0  0  0  0  0  0  0  0  0  0  0  0
  -10.6479    0.1446    0.0353 C   0  0  0  0  0  0  0  0  0  0  0  0
  -12.0410   -0.4514    0.0990 C   0  0  0  0  0  0  0  0  0  0  0  0
    4.3167    2.5967   -0.3273 C   0  0  0  0  0  0  0  0  0  0  0  0
    4.7439    3.0004    1.0691 C   0  0  0  0  0  0  0  0  0  0  0  0
    2.3276   -1.2689    0.0263 H   0  0  0  0  0  0  0  0  0  0  0  0
    0.2423   -2.0045    0.1045 H   0  0  0  0  0  0  0  0  0  0  0  0
   -2.2129   -1.5631    0.0904 H   0  0  0  0  0  0  0  0  0  0  0  0
   -1.4596    2.6734   -0.2863 H   0  0  0  0  0  0  0  0  0  0  0  0
    1.0131    2.2551   -0.2757 H   0  0  0  0  0  0  0  0  0  0  0  0
   -5.4290   -2.3911    0.1790 H   0  0  0  0  0  0  0  0  0  0  0  0
   -7.9297   -2.7454    0.2361 H   0  0  0  0  0  0  0  0  0  0  0  0
   -8.4994    1.5423   -0.1012 H   0  0  0  0  0  0  0  0  0  0  0  0
   -6.0404    1.8782   -0.1567 H   0  0  0  0  0  0  0  0  0  0  0  0
  -10.4998    0.7136   -0.9124 H   0  0  0  0  0  0  0  0  0  0  0  0
  -10.4795    0.8570    0.8767 H   0  0  0  0  0  0  0  0  0  0  0  0
  -12.8036    0.3501    0.0433 H   0  0  0  0  0  0  0  0  0  0  0  0
  -12.2067   -1.1518   -0.7432 H   0  0  0  0  0  0  0  0  0  0  0  0
  -12.1864   -1.0082    1.0456 H   0  0  0  0  0  0  0  0  0  0  0  0
    3.9907    3.4635   -0.9339 H   0  0  0  0  0  0  0  0  0  0  0  0
    5.1215    2.0541   -0.8662 H   0  0  0  0  0  0  0  0  0  0  0  0
    5.5962    3.7059    1.0050 H   0  0  0  0  0  0  0  0  0  0  0  0
    5.0759    2.1141    1.6463 H   0  0  0  0  0  0  0  0  0  0  0  0
    3.9188    3.4991    1.6150 H   0  0  0  0  0  0  0  0  0  0  0  0
  1  6  1  0  0  0  0
  2 13  2  0  0  0  0
  3 14  1  0  0  0  0
  5 24  1  0  0  0  0
  6  5  1  0  0  0  0
  7  5  1  0  0  0  0
  7  8  1  0  0  0  0
  8 25  1  0  0  0  0
  9  8  2  0  0  0  0
  9 26  1  0  0  0  0
 10  9  1  0  0  0  0
 11 12  1  0  0  0  0
 11 10  2  0  0  0  0
 12  7  2  0  0  0  0
 13 10  1  0  0  0  0
 13  3  1  0  0  0  0
 14 15  1  0  0  0  0
 15 16  2  0  0  0  0
 15 29  1  0  0  0  0
 16 30  1  0  0  0  0
 17  4  1  0  0  0  0
 17 16  1  0  0  0  0
 18 17  2  0  0  0  0
 19 18  1  0  0  0  0
 19 14  2  0  0  0  0
 20 21  1  0  0  0  0
 20  4  1  0  0  0  0
 20 34  1  0  0  0  0
 21 37  1  0  0  0  0
 22  1  1  0  0  0  0
 22 23  1  0  0  0  0
 23 42  1  0  0  0  0
 23 41  1  0  0  0  0
 27 11  1  0  0  0  0
 28 12  1  0  0  0  0
 31 18  1  0  0  0  0
 32 19  1  0  0  0  0
 33 20  1  0  0  0  0
 35 21  1  0  0  0  0
 36 21  1  0  0  0  0
 38 22  1  0  0  0  0
 39 22  1  0  0  0  0
 40 23  1  0  0  0  0
M  END
