2
q = -1.0, confidence = 0.0

 28 28  0  0  0  0  0  0  0  0999 V2000
    1.0179    1.6532   -0.0113 N   0  0  0  0  0  0  0  0  0  0  0  0
    1.3702   -1.1180   -0.1626 C   0  0  0  0  0  3  0  0  0  0  0  0
    2.5209   -0.3058   -0.3720 C   0  0  0  0  0  0  0  0  0  0  0  0
    3.8204   -0.8429   -0.3906 C   0  0  0  0  0  0  0  0  0  0  0  0
    4.0129   -2.2208   -0.2089 C   0  0  0  0  0  0  0  0  0  0  0  0
    2.8979   -3.0508   -0.0079 C   0  0  0  0  0  0  0  0  0  0  0  0
    1.6058   -2.5021    0.0149 C   0  0  0  0  0  0  0  0  0  0  0  0
    2.2909    1.1588   -0.6330 C   0  0  0  0  0  0  0  0  0  0  0  0
    0.4749    2.7988   -0.8044 C   0  0  0  0  0  0  0  0  0  0  0  0
    1.3802    4.0220   -0.9621 C   0  0  0  0  0  0  0  0  0  0  0  0
    1.2389    2.0835    1.4060 C   0  0  0  0  0  0  0  0  0  0  0  0
    1.5784    0.9718    2.3889 C   0  0  0  0  0  0  0  0  0  0  0  0
    4.6901   -0.1826   -0.5465 H   0  0  0  0  0  0  0  0  0  0  0  0
    5.0291   -2.6440   -0.2190 H   0  0  0  0  0  0  0  0  0  0  0  0
    3.0388   -4.1337    0.1384 H   0  0  0  0  0  0  0  0  0  0  0  0
    0.7567   -3.1858    0.1820 H   0  0  0  0  0  0  0  0  0  0  0  0
    3.1506    1.7818   -0.2964 H   0  0  0  0  0  0  0  0  0  0  0  0
    2.1885    1.3198   -1.7278 H   0  0  0  0  0  0  0  0  0  0  0  0
   -0.4753    3.0996   -0.3211 H   0  0  0  0  0  0  0  0  0  0  0  0
    0.2111    2.3872   -1.7989 H   0  0  0  0  0  0  0  0  0  0  0  0
    0.8583    4.7739   -1.5868 H   0  0  0  0  0  0  0  0  0  0  0  0
    1.6158    4.5082    0.0049 H   0  0  0  0  0  0  0  0  0  0  0  0
    2.3352    3.7806   -1.4691 H   0  0  0  0  0  0  0  0  0  0  0  0
    2.0432    2.8538    1.4185 H   0  0  0  0  0  0  0  0  0  0  0  0
    0.3037    2.5871    1.7248 H   0  0  0  0  0  0  0  0  0  0  0  0
    1.6591    1.4053    3.4063 H   0  0  0  0  0  0  0  0  0  0  0  0
    0.7852    0.1950    2.3828 H   0  0  0  0  0  0  0  0  0  0  0  0
    2.5348    0.4710    2.1466 H   0  0  0  0  0  0  0  0  0  0  0  0
  1 11  1  0  0  0  0
  2  7  1  0  0  0  0
  3  2  2  0  0  0  0
  4  3  1  0  0  0  0
  4  5  2  0  0  0  0
  5  6  1  0  0  0  0
  6  7  2  0  0  0  0
  6 15  1  0  0  0  0
  7 16  1  0  0  0  0
  8  3  1  0  0  0  0
  8 17  1  0  0  0  0
  8  1  1  0  0  0  0
  9 19  1  0  0  0  0
  9  1  1  0  0  0  0
 10  9  1  0  0  0  0
 10 22  1  0  0  0  0
 11 24  1  0  0  0  0
 11 25  1  0  0  0  0
 11 12  1  0  0  0  0
 12 26  1  0  0  0  0
 13  4  1  0  0  0  0
 14  5  1  0  0  0  0
 18  8  1  0  0  0  0
 20  9  1  0  0  0  0
 21 10  1  0  0  0  0
 23 10  1  0  0  0  0
 27 12  1  0  0  0  0
 28 12  1  0  0  0  0
M  END
