2
q = 0.0, confidence = 0.99

 27 26  0  0  0  0  0  0  0  0999 V2000
    2.3385    0.7155   -0.6006 N   0  0  0  0  0  2  0  0  0  0  0  0
    1.4135   -0.0143   -0.6210 C   0  0  0  0  0  1  0  0  0  0  0  0
    3.7046    2.4326    0.4133 C   0  0  0  0  0  0  0  0  0  0  0  0
    2.9051    3.1898    0.2935 H   0  0  0  0  0  0  0  0  0  0  0  0
    4.6876    2.9385    0.3658 H   0  0  0  0  0  0  0  0  0  0  0  0
    3.5916    1.9719    1.4110 H   0  0  0  0  0  0  0  0  0  0  0  0
    4.7191    0.2927   -0.7122 C   0  0  0  0  0  0  0  0  0  0  0  0
    5.6315    0.7780   -1.1210 H   0  0  0  0  0  0  0  0  0  0  0  0
    4.3928   -0.4486   -1.4716 H   0  0  0  0  0  0  0  0  0  0  0  0
    6.0555    0.3562    1.4735 C   0  0  0  0  0  0  0  0  0  0  0  0
    6.9280    0.7427    0.9058 H   0  0  0  0  0  0  0  0  0  0  0  0
    6.4474   -0.2661    2.3041 H   0  0  0  0  0  0  0  0  0  0  0  0
    5.5385    1.2209    1.9309 H   0  0  0  0  0  0  0  0  0  0  0  0
    3.6078    1.3845   -0.7088 C   0  0  0  0  0  0  0  0  0  0  0  0
    5.1305   -0.4864    0.5714 C   0  0  0  0  0  0  0  0  0  0  0  0
    5.9295   -1.7119    0.0758 C   0  0  0  0  0  0  0  0  0  0  0  0
    5.2851   -2.3804   -0.5305 H   0  0  0  0  0  0  0  0  0  0  0  0
    6.3179   -2.2979    0.9337 H   0  0  0  0  0  0  0  0  0  0  0  0
    6.7975   -1.4067   -0.5456 H   0  0  0  0  0  0  0  0  0  0  0  0
    3.9277   -1.0020    1.3847 C   0  0  0  0  0  0  0  0  0  0  0  0
    3.3120   -0.1795    1.8014 H   0  0  0  0  0  0  0  0  0  0  0  0
    4.2925   -1.6035    2.2429 H   0  0  0  0  0  0  0  0  0  0  0  0
    3.2708   -1.6506    0.7702 H   0  0  0  0  0  0  0  0  0  0  0  0
    3.6135    2.0970   -2.0799 C   0  0  0  0  0  0  0  0  0  0  0  0
    3.5402    1.3611   -2.9039 H   0  0  0  0  0  0  0  0  0  0  0  0
    4.5544    2.6688   -2.1969 H   0  0  0  0  0  0  0  0  0  0  0  0
    2.7604    2.7998   -2.1539 H   0  0  0  0  0  0  0  0  0  0  0  0
  2  1  1  0  0  0  0
  3  6  1  0  0  0  0
  4  3  1  0  0  0  0
  5  3  1  0  0  0  0
  7 14  1  0  0  0  0
  7 15  1  0  0  0  0
  8  7  1  0  0  0  0
  9  7  1  0  0  0  0
 10 13  1  0  0  0  0
 10 12  1  0  0  0  0
 11 10  1  0  0  0  0
 14  1  1  0  0  0  0
 14  3  1  0  0  0  0
 15 20  1  0  0  0  0
 15 10  1  0  0  0  0
 16 15  1  0  0  0  0
 16 18  1  0  0  0  0
 17 16  1  0  0  0  0
 19 16  1  0  0  0  0
 20 21  1  0  0  0  0
 20 22  1  0  0  0  0
 23 20  1  0  0  0  0
 24 14  1  0  0  0  0
 25 24  1  0  0  0  0
 26 24  1  0  0  0  0
 27 24  1  0  0  0  0
M  END
