4
q = -1.0, confidence = 0.0

 22 24  0  0  0  0  0  0  0  0999 V2000
    1.2080    1.1201   -1.4585 O   0  0  0  0  0  0  0  0  0  0  0  0
   -0.1929   -2.2422   -0.7860 C   0  0  0  0  0  0  0  0  0  0  0  0
   -1.6414   -1.7956   -0.9099 C   0  0  0  0  0  3  0  0  0  0  0  0
   -2.0108   -0.6925   -1.7216 C   0  0  0  0  0  3  0  0  0  0  0  0
   -1.0857    0.3726   -1.9872 C   0  0  0  0  0  3  0  0  0  0  0  0
    0.2108    0.1798   -1.4276 C   0  0  0  0  0  0  0  0  0  0  0  0
    2.2270    0.6254   -0.6661 C   0  0  0  0  0  0  0  0  0  0  0  0
    3.4368    1.2685   -0.4122 C   0  0  0  0  0  0  0  0  0  0  0  0
    4.3503    0.5839    0.4089 C   0  0  0  0  0  0  0  0  0  0  0  0
    4.0505   -0.6878    0.9423 C   0  0  0  0  0  0  0  0  0  0  0  0
    2.8234   -1.3152    0.6785 C   0  0  0  0  0  0  0  0  0  0  0  0
    1.8919   -0.6446   -0.1332 C   0  0  0  0  0  0  0  0  0  0  0  0
    0.5544   -0.9418   -0.6221 C   0  0  0  0  0  0  0  0  0  0  0  0
    0.1733   -2.8396   -1.6574 H   0  0  0  0  0  0  0  0  0  0  0  0
   -0.0707   -2.8762    0.1140 H   0  0  0  0  0  0  0  0  0  0  0  0
   -2.4374   -2.5010   -0.6286 H   0  0  0  0  0  0  0  0  0  0  0  0
   -3.0574   -0.5708   -2.0400 H   0  0  0  0  0  0  0  0  0  0  0  0
   -1.3389    1.2559   -2.5848 H   0  0  0  0  0  0  0  0  0  0  0  0
    3.6560    2.2582   -0.8355 H   0  0  0  0  0  0  0  0  0  0  0  0
    5.3188    1.0524    0.6387 H   0  0  0  0  0  0  0  0  0  0  0  0
    4.7916   -1.1923    1.5796 H   0  0  0  0  0  0  0  0  0  0  0  0
    2.5897   -2.3025    1.1034 H   0  0  0  0  0  0  0  0  0  0  0  0
  1  6  1  0  0  0  0
  1  7  1  0  0  0  0
  2 13  1  0  0  0  0
  2 15  1  0  0  0  0
  3  2  1  0  0  0  0
  3 16  1  0  0  0  0
  4  3  1  0  0  0  0
  5  4  1  0  0  0  0
  5  6  1  0  0  0  0
  6 13  2  0  0  0  0
  7  8  2  0  0  0  0
  7 12  1  0  0  0  0
  8  9  1  0  0  0  0
  9 20  1  0  0  0  0
  9 10  2  0  0  0  0
 10 21  1  0  0  0  0
 11 10  1  0  0  0  0
 11 22  1  0  0  0  0
 12 11  2  0  0  0  0
 13 12  1  0  0  0  0
 14  2  1  0  0  0  0
 17  4  1  0  0  0  0
 18  5  1  0  0  0  0
 19  8  1  0  0  0  0
M  END
