1
q = 0.0, confidence = 0.97

 36 38  0  0  1  0  0  0  0  0999 V2000
   -1.3724   -0.2508   -0.1184 C   0  0  0  0  0  3  0  0  0  0  0  0
   -1.6561    1.1576    0.0166 C   0  0  0  0  0  0  0  0  0  0  0  0
   -0.8262    2.3146   -0.0577 C   0  0  1  0  0  3  0  0  0  0  0  0
   -1.4625    3.5630   -0.0022 C   0  0  0  0  0  0  0  0  0  0  0  0
   -0.8488    4.4741   -0.0536 H   0  0  0  0  0  0  0  0  0  0  0  0
   -2.8644    3.6793    0.1605 C   0  0  0  0  0  0  0  0  0  0  0  0
   -3.3127    4.6831    0.2104 H   0  0  0  0  0  0  0  0  0  0  0  0
   -3.6927    2.5616    0.2769 C   0  0  0  0  0  0  0  0  0  0  0  0
   -4.7780    2.6694    0.4120 H   0  0  0  0  0  0  0  0  0  0  0  0
   -3.0646    1.3020    0.2050 C   0  0  0  0  0  0  0  0  0  0  0  0
   -5.0020   -0.3252    0.1580 C   0  0  0  0  0  0  0  0  0  0  0  0
   -5.6020    0.5474    0.4730 H   0  0  0  0  0  0  0  0  0  0  0  0
   -5.2446   -1.1628    0.8404 H   0  0  0  0  0  0  0  0  0  0  0  0
   -5.2934   -0.5977   -0.8798 H   0  0  0  0  0  0  0  0  0  0  0  0
   -2.8061   -2.3008    0.0969 C   0  0  0  0  0  0  0  0  0  0  0  0
   -1.9879   -2.7476   -0.5014 H   0  0  0  0  0  0  0  0  0  0  0  0
   -3.7627   -2.5437   -0.4079 H   0  0  0  0  0  0  0  0  0  0  0  0
   -2.7615   -2.8144    1.5336 C   0  0  0  0  0  0  0  0  0  0  0  0
   -1.7710   -2.5943    1.9786 H   0  0  0  0  0  0  0  0  0  0  0  0
   -2.9119   -3.9116    1.5459 H   0  0  0  0  0  0  0  0  0  0  0  0
   -3.5437   -2.3509    2.1683 H   0  0  0  0  0  0  0  0  0  0  0  0
    0.6477    2.2024   -0.1772 C   0  0  0  0  0  0  0  0  0  0  0  0
    1.3491    2.8626   -1.2083 C   0  0  0  0  0  0  0  0  0  0  0  0
    0.7880    3.4669   -1.9370 H   0  0  0  0  0  0  0  0  0  0  0  0
    2.7403    2.7210   -1.3366 C   0  0  0  0  0  0  0  0  0  0  0  0
    3.2673    3.2240   -2.1607 H   0  0  0  0  0  0  0  0  0  0  0  0
    3.4592    1.9297   -0.4314 C   0  0  0  0  0  0  0  0  0  0  0  0
    4.5443    1.7815   -0.5038 H   0  0  0  0  0  0  0  0  0  0  0  0
    2.7567    1.3008    0.6023 C   0  0  0  0  0  0  0  0  0  0  0  0
    1.3710    1.4140    0.7422 C   0  0  0  0  0  0  0  0  0  0  0  0
    0.8825    0.9104    1.5857 H   0  0  0  0  0  0  0  0  0  0  0  0
   -2.5780   -0.8597    0.0079 N   0  0  0  0  0  0  0  0  0  0  0  0
   -3.6089    0.0416    0.2576 N   0  0  0  0  0  0  0  0  0  0  0  0
    3.4977    0.4633    1.5781 N   0  0  0  0  0  0  0  0  0  0  0  0
    2.8434   -0.0808    2.4669 O   0  0  0  0  0  0  0  0  0  0  0  0
    4.7164    0.3802    1.4387 O   0  0  0  0  0  0  0  0  0  0  0  0
  1 32  1  0  0  0  0
  1  2  2  0  0  0  0
  2 10  1  0  0  0  0
  3 22  1  1  0  0  0
  3  4  1  0  0  0  0
  3  2  1  0  0  0  0
  4  6  2  0  0  0  0
  5  4  1  0  0  0  0
  6  7  1  0  0  0  0
  6  8  1  0  0  0  0
  8  9  1  0  0  0  0
 10 33  1  0  0  0  0
 10  8  2  0  0  0  0
 11 33  1  0  0  0  0
 11 12  1  0  0  0  0
 11 13  1  0  0  0  0
 14 11  1  0  0  0  0
 15 18  1  0  0  0  0
 16 15  1  0  0  0  0
 17 15  1  0  0  0  0
 18 20  1  0  0  0  0
 18 19  1  0  0  0  0
 18 21  1  0  0  0  0
 22 30  1  0  0  0  0
 23 22  2  0  0  0  0
 24 23  1  0  0  0  0
 25 23  1  0  0  0  0
 25 27  2  0  0  0  0
 26 25  1  0  0  0  0
 27 29  1  0  0  0  0
 28 27  1  0  0  0  0
 29 30  2  0  0  0  0
 29 34  1  0  0  0  0
 30 31  1  0  0  0  0
 32 15  1  0  0  0  0
 32 33  1  0  0  0  0
 34 35  2  0  0  0  0
 36 34  2  0  0  0  0
M  END
