3
q = 0.0, confidence = 1.0

 34 36  0  0  1  0  0  0  0  0999 V2000
    2.1447   -0.9427   -0.2421 N   0  0  0  0  0  0  0  0  0  0  0  0
    3.2463   -0.0996   -0.1429 N   0  0  0  0  0  0  0  0  0  0  0  0
    0.9664   -0.2717   -0.1681 C   0  0  0  0  0  3  0  0  0  0  0  0
    1.3384    1.1226   -0.1000 C   0  0  0  0  0  0  0  0  0  0  0  0
    0.5747    2.3251    0.0011 C   0  0  0  0  0  0  0  0  0  0  0  0
    1.2944    3.5247    0.1275 C   0  0  0  0  0  0  0  0  0  0  0  0
    0.7338    4.4682    0.1977 H   0  0  0  0  0  0  0  0  0  0  0  0
    2.7083    3.5609    0.1197 C   0  0  0  0  0  0  0  0  0  0  0  0
    3.2171    4.5335    0.1992 H   0  0  0  0  0  0  0  0  0  0  0  0
    3.4760    2.4013    0.0000 C   0  0  0  0  0  0  0  0  0  0  0  0
    4.5742    2.4422   -0.0113 H   0  0  0  0  0  0  0  0  0  0  0  0
    2.7670    1.1875   -0.0873 C   0  0  1  0  0  3  0  0  0  0  0  0
    4.5835   -0.5280   -0.4803 C   0  0  0  0  0  0  0  0  0  0  0  0
    5.2688    0.3117   -0.2665 H   0  0  0  0  0  0  0  0  0  0  0  0
    4.6808   -0.7959   -1.5551 H   0  0  0  0  0  0  0  0  0  0  0  0
    4.8997   -1.3873    0.1426 H   0  0  0  0  0  0  0  0  0  0  0  0
    2.3170   -2.3918   -0.1496 C   0  0  0  0  0  0  0  0  0  0  0  0
    3.1572   -2.6938   -0.8071 H   0  0  0  0  0  0  0  0  0  0  0  0
    1.3867   -2.8102   -0.5799 H   0  0  0  0  0  0  0  0  0  0  0  0
    2.5045   -2.8704    1.2876 C   0  0  0  0  0  0  0  0  0  0  0  0
    3.4052   -2.4306    1.7616 H   0  0  0  0  0  0  0  0  0  0  0  0
    2.6067   -3.9731    1.3070 H   0  0  0  0  0  0  0  0  0  0  0  0
    1.6175   -2.5925    1.8906 H   0  0  0  0  0  0  0  0  0  0  0  0
   -0.9070    2.3402   -0.0238 C   0  0  0  0  0  0  0  0  0  0  0  0
   -1.6284    1.6725   -1.0389 C   0  0  0  0  0  0  0  0  0  0  0  0
   -1.0831    1.1459   -1.8350 H   0  0  0  0  0  0  0  0  0  0  0  0
   -3.0294    1.7014   -1.0529 C   0  0  0  0  0  0  0  0  0  0  0  0
   -3.5749    1.1625   -1.8411 H   0  0  0  0  0  0  0  0  0  0  0  0
   -3.7309    2.3912   -0.0529 C   0  0  0  0  0  0  0  0  0  0  0  0
   -4.8313    2.3974   -0.0561 H   0  0  0  0  0  0  0  0  0  0  0  0
   -3.0251    3.0658    0.9560 C   0  0  0  0  0  0  0  0  0  0  0  0
   -3.5700    3.6023    1.7476 H   0  0  0  0  0  0  0  0  0  0  0  0
   -1.6239    3.0448    0.9682 C   0  0  0  0  0  0  0  0  0  0  0  0
   -1.0709    3.5528    1.7731 H   0  0  0  0  0  0  0  0  0  0  0  0
  1  3  1  0  0  0  0
  1 17  1  0  0  0  0
  1  2  1  0  0  0  0
  2 12  1  0  0  0  0
  3  4  2  0  0  0  0
  4  5  1  0  0  0  0
  5  6  2  0  0  0  0
  6  7  1  0  0  0  0
  8  6  1  0  0  0  0
  8  9  1  0  0  0  0
 10  8  2  0  0  0  0
 11 10  1  0  0  0  0
 12  4  1  1  0  0  0
 12 10  1  0  0  0  0
 13 14  1  0  0  0  0
 13  2  1  0  0  0  0
 13 16  1  0  0  0  0
 15 13  1  0  0  0  0
 17 20  1  0  0  0  0
 18 17  1  0  0  0  0
 19 17  1  0  0  0  0
 20 22  1  0  0  0  0
 20 21  1  0  0  0  0
 20 23  1  0  0  0  0
 24  5  1  0  0  0  0
 24 33  1  0  0  0  0
 25 24  2  0  0  0  0
 26 25  1  0  0  0  0
 27 25  1  0  0  0  0
 27 29  2  0  0  0  0
 28 27  1  0  0  0  0
 29 31  1  0  0  0  0
 30 29  1  0  0  0  0
 31 33  2  0  0  0  0
 31 32  1  0  0  0  0
 33 34  1  0  0  0  0
M  END
