6
q = -1.0, confidence = 0.008

 19 19  0  0  0  0  0  0  0  0999 V2000
    6.7401   -1.6738   -0.0006 F   0  0  0  0  0  0  0  0  0  0  0  0
    5.0480   -2.5210    1.0919 F   0  0  0  0  0  0  0  0  0  0  0  0
    5.0472   -2.5211   -1.0920 F   0  0  0  0  0  0  0  0  0  0  0  0
    2.1890    1.6050   -1.1496 C   0  0  0  0  0  0  0  0  0  0  0  0
    2.3163    1.2854   -2.1906 H   0  0  0  0  0  0  0  0  0  0  0  0
    1.5995    2.8238   -0.7156 C   0  0  0  0  0  3  0  0  0  0  0  0
    1.2430    3.6334   -1.3629 H   0  0  0  0  0  0  0  0  0  0  0  0
    1.5992    2.8235    0.7172 C   0  0  0  0  0  0  0  0  0  0  0  0
    1.2425    3.6329    1.3646 H   0  0  0  0  0  0  0  0  0  0  0  0
    2.1885    1.6045    1.1510 C   0  0  0  0  0  0  0  0  0  0  0  0
    2.3152    1.2846    2.1919 H   0  0  0  0  0  0  0  0  0  0  0  0
    2.5391    0.8295    0.0007 C   0  0  0  0  0  0  0  0  0  0  0  0
    3.1869   -0.5255    0.0005 C   0  0  0  0  0  0  0  0  0  0  0  0
    2.8489   -1.0952   -0.8883 H   0  0  0  0  0  0  0  0  0  0  0  0
    2.8495   -1.0952    0.8896 H   0  0  0  0  0  0  0  0  0  0  0  0
    4.7200   -0.4347    0.0000 C   0  0  0  0  0  0  0  0  0  0  0  0
    5.0849    0.1136   -0.8919 H   0  0  0  0  0  0  0  0  0  0  0  0
    5.0855    0.1137    0.8916 H   0  0  0  0  0  0  0  0  0  0  0  0
    5.3906   -1.7934   -0.0002 C   0  0  0  0  0  0  0  0  0  0  0  0
  1 19  1  0  0  0  0
  3 19  1  0  0  0  0
  4  6  1  0  0  0  0
  4 12  2  0  0  0  0
  5  4  1  0  0  0  0
  6  8  1  0  0  0  0
  7  6  1  0  0  0  0
  8 10  2  0  0  0  0
  8  9  1  0  0  0  0
 10 11  1  0  0  0  0
 12 10  1  0  0  0  0
 13 12  1  0  0  0  0
 13 15  1  0  0  0  0
 14 13  1  0  0  0  0
 16 13  1  0  0  0  0
 16 18  1  0  0  0  0
 17 16  1  0  0  0  0
 19 16  1  0  0  0  0
 19  2  1  0  0  0  0
M  END
