32
q = 0.0, confidence = 0.988

 42 44  0  0  0  0  0  0  0  0999 V2000
    3.9312    1.8398    1.5865 C   0  0  0  0  0  0  0  0  0  0  0  0
    3.9540    2.4999    2.4780 H   0  0  0  0  0  0  0  0  0  0  0  0
    4.6718    2.2336    0.8594 H   0  0  0  0  0  0  0  0  0  0  0  0
    4.3965    0.3977    2.0210 C   0  0  0  0  0  0  0  0  0  0  0  0
    5.3994    0.4847    2.4876 H   0  0  0  0  0  0  0  0  0  0  0  0
    3.6961    0.0238    2.7961 H   0  0  0  0  0  0  0  0  0  0  0  0
    4.4252   -0.5338    0.8332 C   0  0  0  0  0  0  0  0  0  0  0  0
    5.5579   -0.6343    0.0016 C   0  0  0  0  0  0  0  0  0  0  0  0
    6.5229   -0.2261    0.3430 H   0  0  0  0  0  0  0  0  0  0  0  0
    5.4532   -1.2123   -1.2745 C   0  0  0  0  0  0  0  0  0  0  0  0
    6.3486   -1.3067   -1.9082 H   0  0  0  0  0  0  0  0  0  0  0  0
    4.1991   -1.6007   -1.7737 C   0  0  0  0  0  0  0  0  0  0  0  0
    4.1045   -1.9476   -2.8154 H   0  0  0  0  0  0  0  0  0  0  0  0
    3.0507   -1.5104   -0.9628 C   0  0  0  0  0  0  0  0  0  0  0  0
    3.2083   -1.0751    0.3696 C   0  0  0  0  0  0  0  0  0  0  0  0
    2.3232   -1.0292    1.0215 H   0  0  0  0  0  0  0  0  0  0  0  0
    1.6611   -1.5588   -1.5481 C   0  0  0  0  0  0  0  0  0  0  0  0
    0.9431   -1.9611   -0.8079 H   0  0  0  0  0  0  0  0  0  0  0  0
    1.6176   -2.2174   -2.4393 H   0  0  0  0  0  0  0  0  0  0  0  0
    1.1759   -0.1233   -1.9866 C   0  0  0  0  0  0  0  0  0  0  0  0
    1.8720    0.2453   -2.7686 H   0  0  0  0  0  0  0  0  0  0  0  0
    0.1779   -0.2273   -2.4562 H   0  0  0  0  0  0  0  0  0  0  0  0
    1.1532    0.8385   -0.8187 C   0  0  0  0  0  0  0  0  0  0  0  0
   -0.0086    1.0686   -0.0296 C   0  0  0  0  0  0  0  0  0  0  0  0
    0.1257    1.6996    1.2276 C   0  0  0  0  0  0  0  0  0  0  0  0
   -0.7717    1.8968    1.8304 H   0  0  0  0  0  0  0  0  0  0  0  0
    1.3891    2.0210    1.7408 C   0  0  0  0  0  0  0  0  0  0  0  0
    1.4707    2.4189    2.7648 H   0  0  0  0  0  0  0  0  0  0  0  0
    2.5513    1.8158    0.9746 C   0  0  0  0  0  0  0  0  0  0  0  0
    2.3878    1.3166   -0.3339 C   0  0  0  0  0  0  0  0  0  0  0  0
    3.2788    1.1869   -0.9667 H   0  0  0  0  0  0  0  0  0  0  0  0
   -1.3630    0.6548   -0.4892 C   0  0  0  0  0  2  0  0  0  0  0  0
   -1.8794    1.4063   -1.4571 N   0  0  0  0  0  0  0  0  0  0  0  0
   -2.8276    1.1597   -1.7633 H   0  0  0  0  0  0  0  0  0  0  0  0
   -1.3613    2.6503   -2.0252 C   0  0  0  0  0  0  0  0  0  0  0  0
   -1.4859    2.6113   -3.1294 H   0  0  0  0  0  0  0  0  0  0  0  0
   -0.2692    2.6941   -1.8335 H   0  0  0  0  0  0  0  0  0  0  0  0
   -2.0381    3.8768   -1.4686 C   0  0  0  0  0  0  0  0  0  0  0  0
   -1.8046    4.8120   -2.0073 H   0  0  0  0  0  0  0  0  0  0  0  0
   -2.8509    3.9061   -0.3998 C   0  0  0  0  0  0  0  0  0  0  0  0
   -3.1035    2.9972    0.1696 H   0  0  0  0  0  0  0  0  0  0  0  0
   -3.2900    4.8520   -0.0496 H   0  0  0  0  0  0  0  0  0  0  0  0
  1  4  1  0  0  0  0
  1  2  1  0  0  0  0
  3  1  1  0  0  0  0
  4  5  1  0  0  0  0
  4  6  1  0  0  0  0
  7  4  1  0  0  0  0
  8  9  1  0  0  0  0
  8  7  2  0  0  0  0
 10  8  1  0  0  0  0
 11 10  1  0  0  0  0
 12 10  2  0  0  0  0
 12 14  1  0  0  0  0
 13 12  1  0  0  0  0
 14 15  2  0  0  0  0
 15  7  1  0  0  0  0
 15 16  1  0  0  0  0
 17 14  1  0  0  0  0
 17 18  1  0  0  0  0
 19 17  1  0  0  0  0
 20 17  1  0  0  0  0
 20 23  1  0  0  0  0
 21 20  1  0  0  0  0
 22 20  1  0  0  0  0
 23 30  2  0  0  0  0
 23 24  1  0  0  0  0
 24 25  2  0  0  0  0
 25 27  1  0  0  0  0
 25 26  1  0  0  0  0
 27 28  1  0  0  0  0
 29  1  1  0  0  0  0
 29 27  2  0  0  0  0
 30 29  1  0  0  0  0
 31 30  1  0  0  0  0
 32 24  1  0  0  0  0
 33 32  1  0  0  0  0
 34 33  1  0  0  0  0
 35 37  1  0  0  0  0
 35 38  1  0  0  0  0
 35 33  1  0  0  0  0
 36 35  1  0  0  0  0
 38 40  2  0  0  0  0
 39 38  1  0  0  0  0
 40 42  1  0  0  0  0
 40 41  1  0  0  0  0
M  END
