4
q = 0.0, confidence = 0.552

 14 15  0  0  1  0  0  0  0  0999 V2000
   -0.4012   -1.2065    2.0863 C   0  0  0  0  0  0  0  0  0  0  0  0
    0.5786   -1.8672    1.3140 C   0  0  0  0  0  0  0  0  0  0  0  0
    0.0238   -2.0690   -0.0000 C   0  0  1  0  0  3  0  0  0  0  0  0
   -1.3515   -1.5365   -0.0000 C   0  0  1  0  0  3  0  0  0  0  0  0
   -1.5790   -0.9735    1.3043 C   0  0  0  0  0  3  0  0  0  0  0  0
   -0.2639   -0.8789    3.1257 H   0  0  0  0  0  0  0  0  0  0  0  0
    1.6105   -2.0684    1.6164 H   0  0  0  0  0  0  0  0  0  0  0  0
   -2.4842   -0.4648    1.6531 H   0  0  0  0  0  0  0  0  0  0  0  0
   -0.4012   -1.2065   -2.0863 C   0  0  0  0  0  0  0  0  0  0  0  0
    0.5786   -1.8672   -1.3140 C   0  0  0  0  0  0  0  0  0  0  0  0
    1.6105   -2.0684   -1.6164 H   0  0  0  0  0  0  0  0  0  0  0  0
   -1.5790   -0.9735   -1.3043 C   0  0  0  0  0  3  0  0  0  0  0  0
   -0.2639   -0.8789   -3.1257 H   0  0  0  0  0  0  0  0  0  0  0  0
   -2.4842   -0.4648   -1.6531 H   0  0  0  0  0  0  0  0  0  0  0  0
  1  6  1  0  0  0  0
  2  7  1  0  0  0  0
  2  1  2  0  0  0  0
  3 10  1  6  0  0  0
  3  2  1  0  0  0  0
  4 12  1  6  0  0  0
  4  3  1  0  0  0  0
  4  5  1  0  0  0  0
  5  8  1  0  0  0  0
  5  1  1  0  0  0  0
  9 10  2  0  0  0  0
  9 12  1  0  0  0  0
 11 10  1  0  0  0  0
 13  9  1  0  0  0  0
 14 12  1  0  0  0  0
M  END
