6
q = -1.0, confidence = 0.02

 61 65  0  0  1  0  0  0  0  0999 V2000
    4.7721   -0.4299    0.4246 O   0  0  0  0  0  0  0  0  0  0  0  0
   -6.2236   -0.2687   -0.8227 O   0  0  0  0  0  0  0  0  0  0  0  0
    1.5379    1.0848   -0.8306 C   0  0  1  0  0  0  0  0  0  0  0  0
    2.8153    0.2708   -0.9060 C   0  0  0  0  0  3  0  0  0  0  0  0
    3.4572   -0.1330    0.2900 C   0  0  1  0  0  3  0  0  0  0  0  0
    2.6463   -0.3785    1.4454 C   0  0  0  0  0  3  0  0  0  0  0  0
    1.2386   -0.1216    1.3803 C   0  0  2  0  0  3  0  0  0  0  0  0
    0.4144   -0.3695    2.6334 C   0  0  0  0  0  0  0  0  0  0  0  0
   -0.9972    0.2097    2.5428 C   0  0  0  0  0  0  0  0  0  0  0  0
   -1.6373   -0.1648    1.2061 C   0  0  2  0  0  0  0  0  0  0  0  0
   -0.8512    0.5015    0.0527 C   0  0  1  0  0  0  0  0  0  0  0  0
    0.6527    0.3062    0.1533 C   0  0  1  0  0  3  0  0  0  0  0  0
   -1.4547    0.1218   -1.3129 C   0  0  0  0  0  0  0  0  0  0  0  0
   -2.9573    0.4353   -1.4083 C   0  0  0  0  0  0  0  0  0  0  0  0
   -3.7463   -0.2200   -0.2603 C   0  0  1  0  0  0  0  0  0  0  0  0
   -3.1068    0.2336    1.0788 C   0  0  1  0  0  0  0  0  0  0  0  0
   -4.1145   -0.2088    2.1529 C   0  0  0  0  0  0  0  0  0  0  0  0
   -5.4903   -0.0383    1.4590 C   0  0  0  0  0  0  0  0  0  0  0  0
   -5.2003    0.2954   -0.0263 C   0  0  2  0  0  0  0  0  0  0  0  0
   -3.7822   -1.7488   -0.4317 C   0  0  0  0  0  0  0  0  0  0  0  0
   -6.3151    0.2408   -2.1322 C   0  0  0  0  0  0  0  0  0  0  0  0
    5.5901   -0.4091   -0.7374 C   0  0  0  0  0  0  0  0  0  0  0  0
    1.6599    2.5695   -0.5013 C   0  0  0  0  0  0  0  0  0  0  0  0
    0.7846    3.4878   -1.1172 C   0  0  0  0  0  0  0  0  0  0  0  0
    0.8227    4.8527   -0.7954 C   0  0  0  0  0  0  0  0  0  0  0  0
    1.7485    5.3252    0.1479 C   0  0  0  0  0  0  0  0  0  0  0  0
    2.6322    4.4233    0.7618 C   0  0  0  0  0  0  0  0  0  0  0  0
    2.5870    3.0581    0.4412 C   0  0  0  0  0  0  0  0  0  0  0  0
    1.0571    1.0187   -1.8260 H   0  0  0  0  0  0  0  0  0  0  0  0
    3.4039    0.3175   -1.8324 H   0  0  0  0  0  0  0  0  0  0  0  0
    3.1220   -0.7258    2.3717 H   0  0  0  0  0  0  0  0  0  0  0  0
    0.9667    0.0802    3.4851 H   0  0  0  0  0  0  0  0  0  0  0  0
    0.3645   -1.4573    2.8467 H   0  0  0  0  0  0  0  0  0  0  0  0
   -0.9657    1.3188    2.6327 H   0  0  0  0  0  0  0  0  0  0  0  0
   -1.6056   -0.1612    3.3919 H   0  0  0  0  0  0  0  0  0  0  0  0
   -1.5636   -1.2698    1.0939 H   0  0  0  0  0  0  0  0  0  0  0  0
   -1.0097    1.6036    0.1725 H   0  0  0  0  0  0  0  0  0  0  0  0
   -1.2844   -0.9596   -1.4863 H   0  0  0  0  0  0  0  0  0  0  0  0
   -0.9207    0.6437   -2.1333 H   0  0  0  0  0  0  0  0  0  0  0  0
   -3.3355    0.1015   -2.3967 H   0  0  0  0  0  0  0  0  0  0  0  0
   -3.1101    1.5373   -1.3638 H   0  0  0  0  0  0  0  0  0  0  0  0
   -3.1292    1.3508    1.0615 H   0  0  0  0  0  0  0  0  0  0  0  0
   -4.0282    0.3914    3.0797 H   0  0  0  0  0  0  0  0  0  0  0  0
   -3.9358   -1.2661    2.4397 H   0  0  0  0  0  0  0  0  0  0  0  0
   -6.1094    0.7512    1.9273 H   0  0  0  0  0  0  0  0  0  0  0  0
   -6.0914   -0.9686    1.4835 H   0  0  0  0  0  0  0  0  0  0  0  0
   -5.1890    1.4056   -0.1770 H   0  0  0  0  0  0  0  0  0  0  0  0
   -2.7712   -2.1886   -0.5277 H   0  0  0  0  0  0  0  0  0  0  0  0
   -4.2834   -2.2547    0.4158 H   0  0  0  0  0  0  0  0  0  0  0  0
   -4.3558   -2.0085   -1.3428 H   0  0  0  0  0  0  0  0  0  0  0  0
   -7.2654   -0.1275   -2.5674 H   0  0  0  0  0  0  0  0  0  0  0  0
   -6.3287    1.3582   -2.1432 H   0  0  0  0  0  0  0  0  0  0  0  0
   -5.4805   -0.0931   -2.7921 H   0  0  0  0  0  0  0  0  0  0  0  0
    6.6150   -0.6413   -0.3958 H   0  0  0  0  0  0  0  0  0  0  0  0
    5.2701   -1.1818   -1.4694 H   0  0  0  0  0  0  0  0  0  0  0  0
    5.5827    0.5886   -1.2274 H   0  0  0  0  0  0  0  0  0  0  0  0
    0.0637    3.1227   -1.8669 H   0  0  0  0  0  0  0  0  0  0  0  0
    0.1304    5.5521   -1.2889 H   0  0  0  0  0  0  0  0  0  0  0  0
    1.7851    6.3958    0.4004 H   0  0  0  0  0  0  0  0  0  0  0  0
    3.3662    4.7866    1.4975 H   0  0  0  0  0  0  0  0  0  0  0  0
    3.2859    2.3633    0.9292 H   0  0  0  0  0  0  0  0  0  0  0  0
  2 19  1  0  0  0  0
  3 29  1  6  0  0  0
  3 23  1  0  0  0  0
  3 12  1  0  0  0  0
  4  3  1  0  0  0  0
  4  5  1  0  0  0  0
  5  1  1  6  0  0  0
  5  6  1  0  0  0  0
  6 31  1  0  0  0  0
  7  6  1  6  0  0  0
  7  8  1  0  0  0  0
  8 33  1  0  0  0  0
  8 32  1  0  0  0  0
  9 34  1  0  0  0  0
  9  8  1  0  0  0  0
  9 35  1  0  0  0  0
 10 36  1  6  0  0  0
 10  9  1  0  0  0  0
 11 12  1  0  0  0  0
 11 37  1  1  0  0  0
 11 10  1  0  0  0  0
 12  7  1  0  0  0  0
 13 11  1  0  0  0  0
 14 41  1  0  0  0  0
 14 13  1  0  0  0  0
 14 15  1  0  0  0  0
 15 19  1  0  0  0  0
 15 16  1  0  0  0  0
 16 10  1  0  0  0  0
 16 17  1  0  0  0  0
 17 44  1  0  0  0  0
 17 43  1  0  0  0  0
 18 46  1  0  0  0  0
 18 45  1  0  0  0  0
 18 17  1  0  0  0  0
 19 18  1  0  0  0  0
 20 15  1  0  0  0  0
 20 49  1  0  0  0  0
 21  2  1  0  0  0  0
 22 54  1  0  0  0  0
 22  1  1  0  0  0  0
 23 28  1  0  0  0  0
 24 25  1  0  0  0  0
 24 23  2  0  0  0  0
 25 26  2  0  0  0  0
 26 59  1  0  0  0  0
 26 27  1  0  0  0  0
 27 60  1  0  0  0  0
 28 27  2  0  0  0  0
 28 61  1  0  0  0  0
 30  4  1  0  0  0  0
 38 13  1  0  0  0  0
 39 13  1  0  0  0  0
 40 14  1  0  0  0  0
 42 16  1  0  0  0  0
 47 19  1  0  0  0  0
 48 20  1  0  0  0  0
 50 20  1  0  0  0  0
 51 21  1  0  0  0  0
 52 21  1  0  0  0  0
 53 21  1  0  0  0  0
 55 22  1  0  0  0  0
 56 22  1  0  0  0  0
 57 24  1  0  0  0  0
 58 25  1  0  0  0  0
M  END
