3
q = -1.0, confidence = 0.022

 61 65  0  0  1  0  0  0  0  0999 V2000
    6.3441    0.2967   -0.9993 O   0  0  0  0  0  0  0  0  0  0  0  0
   -4.5300    0.4560   -0.1714 O   0  0  0  0  0  0  0  0  0  0  0  0
   -1.2040   -0.4568   -1.6090 C   0  0  0  0  0  3  0  0  0  0  0  0
   -2.6200   -0.2183   -1.5463 C   0  0  0  0  0  3  0  0  0  0  0  0
   -3.2005    0.2802   -0.3651 C   0  0  1  0  0  3  0  0  0  0  0  0
   -2.3451    1.0024    0.6520 C   0  0  1  0  0  0  0  0  0  0  0  0
   -1.0981    0.1376    0.7633 C   0  0  2  0  0  3  0  0  0  0  0  0
   -0.3746    0.2026    2.0895 C   0  0  0  0  0  0  0  0  0  0  0  0
    0.9971   -0.4727    2.0758 C   0  0  0  0  0  0  0  0  0  0  0  0
    1.7730   -0.0062    0.8416 C   0  0  2  0  0  0  0  0  0  0  0  0
    1.0901   -0.5443   -0.4400 C   0  0  1  0  0  0  0  0  0  0  0  0
   -0.4138   -0.2628   -0.4289 C   0  0  1  0  0  3  0  0  0  0  0  0
    1.7852   -0.0214   -1.7167 C   0  0  0  0  0  0  0  0  0  0  0  0
    3.2952   -0.3192   -1.7140 C   0  0  0  0  0  0  0  0  0  0  0  0
    3.9733    0.1930   -0.4349 C   0  0  1  0  0  0  0  0  0  0  0  0
    3.2449   -0.4061    0.7946 C   0  0  1  0  0  0  0  0  0  0  0  0
    4.1801   -0.0901    1.9754 C   0  0  0  0  0  0  0  0  0  0  0  0
    5.6056   -0.1634    1.3566 C   0  0  0  0  0  0  0  0  0  0  0  0
    5.3946   -0.3500   -0.1775 C   0  0  2  0  0  0  0  0  0  0  0  0
    4.0127    1.7336   -0.4323 C   0  0  0  0  0  0  0  0  0  0  0  0
    7.6209   -0.2946   -0.9724 C   0  0  0  0  0  0  0  0  0  0  0  0
   -5.4351   -0.1678   -1.0708 C   0  0  0  0  0  0  0  0  0  0  0  0
   -3.2036    3.3855    0.5724 C   0  0  0  0  0  0  0  0  0  0  0  0
   -3.0713    4.7458    0.2606 C   0  0  0  0  0  0  0  0  0  0  0  0
   -1.8710    5.2310   -0.2846 C   0  0  0  0  0  0  0  0  0  0  0  0
   -0.8093    4.3441   -0.5179 C   0  0  0  0  0  0  0  0  0  0  0  0
   -0.9479    2.9806   -0.2137 C   0  0  0  0  0  0  0  0  0  0  0  0
   -2.1448    2.4843    0.3358 C   0  0  0  0  0  0  0  0  0  0  0  0
   -0.7518   -0.7936   -2.5489 H   0  0  0  0  0  0  0  0  0  0  0  0
   -3.2415   -0.5018   -2.4066 H   0  0  0  0  0  0  0  0  0  0  0  0
   -2.8955    0.9353    1.6141 H   0  0  0  0  0  0  0  0  0  0  0  0
   -1.0276   -0.2130    2.8860 H   0  0  0  0  0  0  0  0  0  0  0  0
   -0.2455    1.2806    2.3445 H   0  0  0  0  0  0  0  0  0  0  0  0
    0.8942   -1.5793    2.0593 H   0  0  0  0  0  0  0  0  0  0  0  0
    1.5463   -0.2176    3.0048 H   0  0  0  0  0  0  0  0  0  0  0  0
    1.7175    1.1076    0.8262 H   0  0  0  0  0  0  0  0  0  0  0  0
    1.2444   -1.6455   -0.4313 H   0  0  0  0  0  0  0  0  0  0  0  0
    1.6023    1.0706   -1.8151 H   0  0  0  0  0  0  0  0  0  0  0  0
    1.3316   -0.4859   -2.6153 H   0  0  0  0  0  0  0  0  0  0  0  0
    3.7782    0.1175   -2.6129 H   0  0  0  0  0  0  0  0  0  0  0  0
    3.4430   -1.4204   -1.7761 H   0  0  0  0  0  0  0  0  0  0  0  0
    3.2667   -1.5137    0.6548 H   0  0  0  0  0  0  0  0  0  0  0  0
    4.0449   -0.7988    2.8154 H   0  0  0  0  0  0  0  0  0  0  0  0
    3.9709    0.9230    2.3777 H   0  0  0  0  0  0  0  0  0  0  0  0
    6.2063   -0.9859    1.7915 H   0  0  0  0  0  0  0  0  0  0  0  0
    6.1737    0.7747    1.5216 H   0  0  0  0  0  0  0  0  0  0  0  0
    5.3918   -1.4448   -0.4160 H   0  0  0  0  0  0  0  0  0  0  0  0
    4.3978    2.1463    0.5203 H   0  0  0  0  0  0  0  0  0  0  0  0
    4.6893    2.0792   -1.2369 H   0  0  0  0  0  0  0  0  0  0  0  0
    3.0142    2.1786   -0.6047 H   0  0  0  0  0  0  0  0  0  0  0  0
    8.2572    0.2473   -1.6994 H   0  0  0  0  0  0  0  0  0  0  0  0
    8.1047   -0.2307    0.0316 H   0  0  0  0  0  0  0  0  0  0  0  0
    7.5872   -1.3734   -1.2645 H   0  0  0  0  0  0  0  0  0  0  0  0
   -6.4479    0.0002   -0.6617 H   0  0  0  0  0  0  0  0  0  0  0  0
   -5.3778    0.2782   -2.0879 H   0  0  0  0  0  0  0  0  0  0  0  0
   -5.2404   -1.2603   -1.1392 H   0  0  0  0  0  0  0  0  0  0  0  0
   -4.1449    3.0056    0.9991 H   0  0  0  0  0  0  0  0  0  0  0  0
   -3.9088    5.4347    0.4504 H   0  0  0  0  0  0  0  0  0  0  0  0
   -1.7633    6.2998   -0.5240 H   0  0  0  0  0  0  0  0  0  0  0  0
    0.1372    4.7145   -0.9412 H   0  0  0  0  0  0  0  0  0  0  0  0
   -0.1120    2.2921   -0.4045 H   0  0  0  0  0  0  0  0  0  0  0  0
  1 21  1  0  0  0  0
  1 19  1  0  0  0  0
  3  4  1  0  0  0  0
  4  5  1  0  0  0  0
  5  2  1  6  0  0  0
  5  6  1  0  0  0  0
  6  7  1  0  0  0  0
  6 31  1  1  0  0  0
  7  8  1  1  0  0  0
  8 33  1  0  0  0  0
  8 32  1  0  0  0  0
  9  8  1  0  0  0  0
  9 35  1  0  0  0  0
 10 36  1  6  0  0  0
 10  9  1  0  0  0  0
 11 37  1  1  0  0  0
 11 12  1  0  0  0  0
 11 10  1  0  0  0  0
 12  3  1  1  0  0  0
 12  7  1  0  0  0  0
 13 14  1  0  0  0  0
 13 11  1  0  0  0  0
 14 15  1  0  0  0  0
 15 20  1  1  0  0  0
 15 19  1  0  0  0  0
 15 16  1  0  0  0  0
 16 42  1  6  0  0  0
 16 10  1  0  0  0  0
 16 17  1  0  0  0  0
 17 44  1  0  0  0  0
 17 43  1  0  0  0  0
 18 46  1  0  0  0  0
 18 45  1  0  0  0  0
 18 17  1  0  0  0  0
 19 47  1  6  0  0  0
 19 18  1  0  0  0  0
 20 48  1  0  0  0  0
 21 52  1  0  0  0  0
 22 54  1  0  0  0  0
 22  2  1  0  0  0  0
 23 57  1  0  0  0  0
 24 58  1  0  0  0  0
 24 23  2  0  0  0  0
 25 24  1  0  0  0  0
 26 25  2  0  0  0  0
 26 27  1  0  0  0  0
 27 28  2  0  0  0  0
 28 23  1  0  0  0  0
 28  6  1  0  0  0  0
 29  3  1  0  0  0  0
 30  4  1  0  0  0  0
 34  9  1  0  0  0  0
 38 13  1  0  0  0  0
 39 13  1  0  0  0  0
 40 14  1  0  0  0  0
 41 14  1  0  0  0  0
 49 20  1  0  0  0  0
 50 20  1  0  0  0  0
 51 21  1  0  0  0  0
 53 21  1  0  0  0  0
 55 22  1  0  0  0  0
 56 22  1  0  0  0  0
 59 25  1  0  0  0  0
 60 26  1  0  0  0  0
 61 27  1  0  0  0  0
M  END
