2
q = -1.0, confidence = 0.0

 28 28  0  0  1  0  0  0  0  0999 V2000
    2.4455   -1.4560    0.9165 N   0  0  0  0  0  0  0  0  0  0  0  0
    1.8389   -0.6898   -0.0203 C   0  0  0  0  0  2  0  0  0  0  0  0
    2.6297    0.0321   -0.9405 C   0  0  0  0  0  0  0  0  0  0  0  0
    4.0893    0.1643   -1.0281 C   0  0  1  0  0  3  0  0  0  0  0  0
    4.3596    1.0439   -2.0758 C   0  0  0  0  0  0  0  0  0  0  0  0
    3.1221    1.4756   -2.6766 C   0  0  0  0  0  0  0  0  0  0  0  0
    2.0760    0.8672   -1.9933 C   0  0  0  0  0  0  0  0  0  0  0  0
    5.1319   -0.4857   -0.1641 C   0  0  0  0  0  0  0  0  0  0  0  0
    1.8763   -2.2297    2.0414 C   0  0  0  0  0  0  0  0  0  0  0  0
    1.0267   -3.3997    1.5167 C   0  0  0  0  0  0  0  0  0  0  0  0
    1.0274   -1.3304    2.9538 C   0  0  0  0  0  0  0  0  0  0  0  0
    3.0770   -2.7771    2.8304 C   0  0  0  0  0  0  0  0  0  0  0  0
    3.4689   -1.4801    0.8849 H   0  0  0  0  0  0  0  0  0  0  0  0
    1.0020    0.9923   -2.1798 H   0  0  0  0  0  0  0  0  0  0  0  0
    3.0293    2.1649   -3.5271 H   0  0  0  0  0  0  0  0  0  0  0  0
    5.3679    1.3525   -2.3902 H   0  0  0  0  0  0  0  0  0  0  0  0
    5.0320   -0.2220    0.9153 H   0  0  0  0  0  0  0  0  0  0  0  0
    6.1484   -0.1668   -0.4704 H   0  0  0  0  0  0  0  0  0  0  0  0
    5.1231   -1.5998   -0.2258 H   0  0  0  0  0  0  0  0  0  0  0  0
    0.2050   -3.0073    0.8857 H   0  0  0  0  0  0  0  0  0  0  0  0
    0.5753   -3.9681    2.3541 H   0  0  0  0  0  0  0  0  0  0  0  0
    1.6417   -4.0965    0.9121 H   0  0  0  0  0  0  0  0  0  0  0  0
    1.6175   -0.4616    3.3083 H   0  0  0  0  0  0  0  0  0  0  0  0
    0.6647   -1.8981    3.8338 H   0  0  0  0  0  0  0  0  0  0  0  0
    0.1474   -0.9444    2.4037 H   0  0  0  0  0  0  0  0  0  0  0  0
    2.7314   -3.3900    3.6849 H   0  0  0  0  0  0  0  0  0  0  0  0
    3.6984   -1.9499    3.2310 H   0  0  0  0  0  0  0  0  0  0  0  0
    3.7174   -3.4170    2.1883 H   0  0  0  0  0  0  0  0  0  0  0  0
  1  9  1  0  0  0  0
  2  1  1  0  0  0  0
  3  2  1  0  0  0  0
  4  3  1  0  0  0  0
  4  8  1  1  0  0  0
  5  4  1  0  0  0  0
  6  5  2  0  0  0  0
  6  7  1  0  0  0  0
  7  3  2  0  0  0  0
  8 17  1  0  0  0  0
  9 12  1  0  0  0  0
  9 11  1  0  0  0  0
 10  9  1  0  0  0  0
 10 21  1  0  0  0  0
 11 23  1  0  0  0  0
 11 24  1  0  0  0  0
 12 27  1  0  0  0  0
 12 26  1  0  0  0  0
 13  1  1  0  0  0  0
 14  7  1  0  0  0  0
 15  6  1  0  0  0  0
 16  5  1  0  0  0  0
 18  8  1  0  0  0  0
 19  8  1  0  0  0  0
 20 10  1  0  0  0  0
 22 10  1  0  0  0  0
 25 11  1  0  0  0  0
 28 12  1  0  0  0  0
M  END
