2
q = 0.0, confidence = 0.948

 19 18  0  0  0  0  0  0  0  0999 V2000
   -0.5225    2.1847   -0.3716 O   0  0  0  0  0  0  0  0  0  0  0  0
   -0.8135    0.9584    0.0412 C   0  0  0  0  0  2  0  0  0  0  0  0
   -2.3012    0.8911    0.3086 C   0  0  0  0  0  0  0  0  0  0  0  0
   -2.7181    1.9202    0.3025 H   0  0  0  0  0  0  0  0  0  0  0  0
   -2.4429    0.4759    1.3292 H   0  0  0  0  0  0  0  0  0  0  0  0
   -3.0670    0.0152   -0.7008 C   0  0  0  0  0  0  0  0  0  0  0  0
   -2.9142    0.4283   -1.7219 H   0  0  0  0  0  0  0  0  0  0  0  0
   -2.6185   -1.0000   -0.7085 H   0  0  0  0  0  0  0  0  0  0  0  0
   -4.5595   -0.0698   -0.3845 C   0  0  0  0  0  0  0  0  0  0  0  0
   -5.0942   -0.6948   -1.1275 H   0  0  0  0  0  0  0  0  0  0  0  0
   -5.0345    0.9331   -0.3847 H   0  0  0  0  0  0  0  0  0  0  0  0
   -4.7287   -0.5183    0.6162 H   0  0  0  0  0  0  0  0  0  0  0  0
    0.8355    2.6564   -0.5859 C   0  0  0  0  0  0  0  0  0  0  0  0
    1.0451    2.5552   -1.6714 H   0  0  0  0  0  0  0  0  0  0  0  0
    1.5243    2.0100   -0.0048 H   0  0  0  0  0  0  0  0  0  0  0  0
    0.8980    4.1011   -0.1352 C   0  0  0  0  0  0  0  0  0  0  0  0
    1.9063    4.5110   -0.3437 H   0  0  0  0  0  0  0  0  0  0  0  0
    0.7170    4.1727    0.9552 H   0  0  0  0  0  0  0  0  0  0  0  0
    0.1515    4.7272   -0.6631 H   0  0  0  0  0  0  0  0  0  0  0  0
  1  2  1  0  0  0  0
  2  3  1  0  0  0  0
  3  5  1  0  0  0  0
  4  3  1  0  0  0  0
  6  9  1  0  0  0  0
  6  3  1  0  0  0  0
  7  6  1  0  0  0  0
  8  6  1  0  0  0  0
  9 12  1  0  0  0  0
 10  9  1  0  0  0  0
 11  9  1  0  0  0  0
 13  1  1  0  0  0  0
 13 16  1  0  0  0  0
 13 15  1  0  0  0  0
 14 13  1  0  0  0  0
 16 18  1  0  0  0  0
 17 16  1  0  0  0  0
 19 16  1  0  0  0  0
M  END
