7
q = 0.0, confidence = 0.982

 66 69  0  0  1  0  0  0  0  0999 V2000
    1.6596   -1.9112   -0.2850 N   0  0  0  0  0  0  0  0  0  0  0  0
   -0.4971   -2.1915   -0.5465 N   0  0  0  0  0  0  0  0  0  0  0  0
    2.9200   -1.3850    0.1630 C   0  0  0  0  0  0  0  0  0  0  0  0
    3.7052   -0.6283   -0.7359 C   0  0  0  0  0  0  0  0  0  0  0  0
   -0.9792   -0.0875    1.4524 N   0  0  0  0  0  0  0  0  0  0  0  0
    5.3636   -0.3525    1.0638 C   0  0  0  0  0  0  0  0  0  0  0  0
    0.2337   -0.0818    0.6917 C   0  0  0  0  0  3  0  0  0  0  0  0
    1.1522    0.1639    1.2720 H   0  0  0  0  0  0  0  0  0  0  0  0
    0.4408   -1.3517   -0.0076 C   0  0  2  0  0  3  0  0  0  0  0  0
    3.3190   -1.6490    1.4914 C   0  0  0  0  0  0  0  0  0  0  0  0
    2.4436   -2.4547    2.4169 C   0  0  0  0  0  0  0  0  0  0  0  0
    1.5084   -1.9089    2.6665 H   0  0  0  0  0  0  0  0  0  0  0  0
    2.9672   -2.6784    3.3651 H   0  0  0  0  0  0  0  0  0  0  0  0
    2.1336   -3.4154    1.9568 H   0  0  0  0  0  0  0  0  0  0  0  0
    4.9265   -0.1255   -0.2556 C   0  0  0  0  0  0  0  0  0  0  0  0
    5.5523    0.4716   -0.9378 H   0  0  0  0  0  0  0  0  0  0  0  0
    1.4885   -3.0850   -1.0182 C   0  0  0  0  0  0  0  0  0  0  0  0
    2.3445   -3.6826   -1.3420 H   0  0  0  0  0  0  0  0  0  0  0  0
   -1.9298   -2.0153   -0.5494 C   0  0  0  0  0  0  0  0  0  0  0  0
   -1.7003   -0.8676   -2.8061 C   0  0  0  0  0  0  0  0  0  0  0  0
   -1.0198   -0.0472   -2.4746 H   0  0  0  0  0  0  0  0  0  0  0  0
   -2.3414   -0.4650   -3.6117 H   0  0  0  0  0  0  0  0  0  0  0  0
   -1.0557   -1.6610   -3.2375 H   0  0  0  0  0  0  0  0  0  0  0  0
    0.1425   -3.2605   -1.1779 C   0  0  0  0  0  0  0  0  0  0  0  0
   -0.4339   -4.0424   -1.6789 H   0  0  0  0  0  0  0  0  0  0  0  0
    4.5493   -1.1183    1.9184 C   0  0  0  0  0  0  0  0  0  0  0  0
    4.8802   -1.3116    2.9512 H   0  0  0  0  0  0  0  0  0  0  0  0
   -1.3345    0.8926    2.2084 C   0  0  0  0  0  0  0  0  0  0  0  0
    3.2323   -0.3493   -2.1364 C   0  0  0  0  0  0  0  0  0  0  0  0
    2.9827   -1.2790   -2.6873 H   0  0  0  0  0  0  0  0  0  0  0  0
    3.9968    0.2026   -2.7134 H   0  0  0  0  0  0  0  0  0  0  0  0
    2.3072    0.2734   -2.1140 H   0  0  0  0  0  0  0  0  0  0  0  0
   -3.9245   -1.2164   -1.6324 C   0  0  0  0  0  0  0  0  0  0  0  0
   -4.4087   -0.7064   -2.4801 H   0  0  0  0  0  0  0  0  0  0  0  0
    6.6660    0.2328    1.5477 C   0  0  0  0  0  0  0  0  0  0  0  0
    7.4826    0.0646    0.8168 H   0  0  0  0  0  0  0  0  0  0  0  0
    6.9756   -0.1997    2.5184 H   0  0  0  0  0  0  0  0  0  0  0  0
    6.5781    1.3318    1.6827 H   0  0  0  0  0  0  0  0  0  0  0  0
   -4.0724   -2.3594    0.4930 C   0  0  0  0  0  0  0  0  0  0  0  0
   -4.6751   -2.7494    1.3291 H   0  0  0  0  0  0  0  0  0  0  0  0
   -2.6807   -2.5373    0.5259 C   0  0  0  0  0  0  0  0  0  0  0  0
   -4.7121   -1.6877   -0.5676 C   0  0  0  0  0  0  0  0  0  0  0  0
   -2.5259   -1.3749   -1.6559 C   0  0  0  0  0  0  0  0  0  0  0  0
   -2.6773    0.8138    2.9004 C   0  0  0  0  0  0  0  0  0  0  0  0
   -2.5336    0.9021    4.0019 H   0  0  0  0  0  0  0  0  0  0  0  0
   -3.1362   -0.1717    2.6886 H   0  0  0  0  0  0  0  0  0  0  0  0
   -1.9977   -3.1883    1.6953 C   0  0  0  0  0  0  0  0  0  0  0  0
   -1.2617   -3.9562    1.3802 H   0  0  0  0  0  0  0  0  0  0  0  0
   -2.7278   -3.6635    2.3771 H   0  0  0  0  0  0  0  0  0  0  0  0
   -1.4423   -2.4034    2.2539 H   0  0  0  0  0  0  0  0  0  0  0  0
   -0.6166    2.2133    2.3872 C   0  0  0  0  0  0  0  0  0  0  0  0
    0.3385    2.2355    1.8270 H   0  0  0  0  0  0  0  0  0  0  0  0
   -0.3808    2.3476    3.4674 H   0  0  0  0  0  0  0  0  0  0  0  0
   -6.2028   -1.4617   -0.5447 C   0  0  0  0  0  0  0  0  0  0  0  0
   -6.4575   -0.5869    0.0918 H   0  0  0  0  0  0  0  0  0  0  0  0
   -6.7427   -2.3342   -0.1255 H   0  0  0  0  0  0  0  0  0  0  0  0
   -6.6027   -1.2587   -1.5570 H   0  0  0  0  0  0  0  0  0  0  0  0
   -3.5830    1.9677    2.4219 C   0  0  0  0  0  0  0  0  0  0  0  0
   -3.8080    1.8124    1.3436 H   0  0  0  0  0  0  0  0  0  0  0  0
   -4.5546    1.9372    2.9590 H   0  0  0  0  0  0  0  0  0  0  0  0
   -1.5306    3.3676    1.9187 C   0  0  0  0  0  0  0  0  0  0  0  0
   -1.0262    4.3397    2.0972 H   0  0  0  0  0  0  0  0  0  0  0  0
   -1.6589    3.2805    0.8173 H   0  0  0  0  0  0  0  0  0  0  0  0
   -2.8986    3.3273    2.6096 C   0  0  0  0  0  0  0  0  0  0  0  0
   -2.7685    3.5235    3.6987 H   0  0  0  0  0  0  0  0  0  0  0  0
   -3.5463    4.1417    2.2221 H   0  0  0  0  0  0  0  0  0  0  0  0
  1  9  1  0  0  0  0
  1  3  1  0  0  0  0
  2  9  1  0  0  0  0
  3 10  1  0  0  0  0
  4 15  1  0  0  0  0
  4  3  2  0  0  0  0
  5 28  2  0  0  0  0
  6 35  1  0  0  0  0
  6 26  1  0  0  0  0
  7  8  1  0  0  0  0
  7  5  1  0  0  0  0
  9  7  1  6  0  0  0
 10 26  2  0  0  0  0
 10 11  1  0  0  0  0
 11 12  1  0  0  0  0
 11 13  1  0  0  0  0
 14 11  1  0  0  0  0
 15  6  2  0  0  0  0
 16 15  1  0  0  0  0
 17  1  1  0  0  0  0
 18 17  1  0  0  0  0
 19  2  1  0  0  0  0
 19 41  1  0  0  0  0
 20 21  1  0  0  0  0
 20 43  1  0  0  0  0
 22 20  1  0  0  0  0
 23 20  1  0  0  0  0
 24 17  2  0  0  0  0
 24  2  1  0  0  0  0
 25 24  1  0  0  0  0
 26 27  1  0  0  0  0
 28 51  1  0  0  0  0
 28 44  1  0  0  0  0
 29 32  1  0  0  0  0
 29  4  1  0  0  0  0
 30 29  1  0  0  0  0
 31 29  1  0  0  0  0
 33 42  2  0  0  0  0
 34 33  1  0  0  0  0
 35 38  1  0  0  0  0
 35 37  1  0  0  0  0
 36 35  1  0  0  0  0
 39 41  2  0  0  0  0
 39 40  1  0  0  0  0
 41 47  1  0  0  0  0
 42 54  1  0  0  0  0
 42 39  1  0  0  0  0
 43 33  1  0  0  0  0
 43 19  2  0  0  0  0
 44 45  1  0  0  0  0
 46 44  1  0  0  0  0
 47 50  1  0  0  0  0
 47 49  1  0  0  0  0
 48 47  1  0  0  0  0
 51 53  1  0  0  0  0
 52 51  1  0  0  0  0
 54 56  1  0  0  0  0
 54 55  1  0  0  0  0
 57 54  1  0  0  0  0
 58 64  1  0  0  0  0
 58 44  1  0  0  0  0
 58 60  1  0  0  0  0
 59 58  1  0  0  0  0
 61 62  1  0  0  0  0
 61 51  1  0  0  0  0
 61 64  1  0  0  0  0
 63 61  1  0  0  0  0
 64 65  1  0  0  0  0
 66 64  1  0  0  0  0
M  END
