6
q = -1.0, confidence = 0.0

 25 27  0  0  0  0  0  0  0  0999 V2000
   -1.2964    2.0608   -1.3516 C   0  0  0  0  0  0  0  0  0  0  0  0
   -1.7724    2.8581   -0.7478 H   0  0  0  0  0  0  0  0  0  0  0  0
   -1.0035    2.5248   -2.3259 H   0  0  0  0  0  0  0  0  0  0  0  0
   -2.2340    0.8880   -1.5092 C   0  0  0  0  0  3  0  0  0  0  0  0
   -3.3177    1.0618   -1.5839 H   0  0  0  0  0  0  0  0  0  0  0  0
   -1.7154   -0.3403   -1.9784 C   0  0  0  0  0  3  0  0  0  0  0  0
   -2.3806   -1.1062   -2.4063 H   0  0  0  0  0  0  0  0  0  0  0  0
   -0.3491   -0.6748   -1.7336 C   0  0  0  0  0  3  0  0  0  0  0  0
    0.0438   -1.6443   -2.0593 H   0  0  0  0  0  0  0  0  0  0  0  0
    2.5127   -1.2414   -1.0251 C   0  0  0  0  0  0  0  0  0  0  0  0
    2.0074   -1.9332   -1.7129 H   0  0  0  0  0  0  0  0  0  0  0  0
    3.8083   -1.5366   -0.6041 C   0  0  0  0  0  0  0  0  0  0  0  0
    4.3022   -2.4531   -0.9597 H   0  0  0  0  0  0  0  0  0  0  0  0
    4.4850   -0.6658    0.2782 C   0  0  0  0  0  0  0  0  0  0  0  0
    5.5055   -0.9046    0.6133 H   0  0  0  0  0  0  0  0  0  0  0  0
    3.8567    0.4935    0.7204 C   0  0  0  0  0  0  0  0  0  0  0  0
    4.3743    1.1808    1.4074 H   0  0  0  0  0  0  0  0  0  0  0  0
    1.8935    2.0223    0.7497 C   0  0  0  0  0  0  0  0  0  0  0  0
    2.4365    2.6819    1.4435 H   0  0  0  0  0  0  0  0  0  0  0  0
    0.6404    2.3593    0.3040 C   0  0  0  0  0  0  0  0  0  0  0  0
    0.1716    3.3041    0.6199 H   0  0  0  0  0  0  0  0  0  0  0  0
   -0.0917    1.5155   -0.6012 C   0  0  0  0  0  0  0  0  0  0  0  0
    0.4847    0.2623   -1.0098 C   0  0  0  0  0  0  0  0  0  0  0  0
    1.8487   -0.0696   -0.5883 C   0  0  0  0  0  0  0  0  0  0  0  0
    2.5395    0.8187    0.3004 C   0  0  0  0  0  0  0  0  0  0  0  0
  1  2  1  0  0  0  0
  1 22  1  0  0  0  0
  3  1  1  0  0  0  0
  4  1  1  0  0  0  0
  5  4  1  0  0  0  0
  6  8  1  0  0  0  0
  6  4  1  0  0  0  0
  7  6  1  0  0  0  0
  8 23  1  0  0  0  0
  9  8  1  0  0  0  0
 10 12  2  0  0  0  0
 10 24  1  0  0  0  0
 11 10  1  0  0  0  0
 12 14  1  0  0  0  0
 13 12  1  0  0  0  0
 14 15  1  0  0  0  0
 14 16  2  0  0  0  0
 16 17  1  0  0  0  0
 18 19  1  0  0  0  0
 20 21  1  0  0  0  0
 20 18  1  0  0  0  0
 22 20  2  0  0  0  0
 23 22  1  0  0  0  0
 23 24  2  0  0  0  0
 24 25  1  0  0  0  0
 25 16  1  0  0  0  0
 25 18  2  0  0  0  0
M  END
