1
q = -1.0, confidence = 0.05

 10  9  0  0  0  0  0  0  0  0999 V2000
    1.8972   -0.0433   -0.0506 C   0  0  0  0  0  3  0  0  0  0  0  0
    3.1467   -0.1039   -0.0317 C   0  0  0  0  0  0  0  0  0  0  0  0
    4.5720   -0.1470   -0.0831 C   0  0  0  0  0  0  0  0  0  0  0  0
    5.3176   -0.9879    0.6895 C   0  0  0  0  0  0  0  0  0  0  0  0
    4.8410   -1.6798    1.4005 H   0  0  0  0  0  0  0  0  0  0  0  0
    6.4167   -0.9970    0.6215 H   0  0  0  0  0  0  0  0  0  0  0  0
    5.2359    0.8050   -1.0611 C   0  0  0  0  0  0  0  0  0  0  0  0
    6.3386    0.6973   -1.0613 H   0  0  0  0  0  0  0  0  0  0  0  0
    4.8626    0.6292   -2.0921 H   0  0  0  0  0  0  0  0  0  0  0  0
    4.9869    1.8586   -0.8123 H   0  0  0  0  0  0  0  0  0  0  0  0
  1  2  3  0  0  0  0
  3  2  1  0  0  0  0
  3  4  2  0  0  0  0
  4  5  1  0  0  0  0
  6  4  1  0  0  0  0
  7 10  1  0  0  0  0
  7  3  1  0  0  0  0
  8  7  1  0  0  0  0
  9  7  1  0  0  0  0
M  END
