2
q = 0.0, confidence = 0.992

 20 20  0  0  0  0  0  0  0  0999 V2000
   -1.5630   -0.5875   -0.1218 C   0  0  0  0  0  3  0  0  0  0  0  0
   -2.0707    0.5619   -0.1446 C   0  0  0  0  0  3  0  0  0  0  0  0
   -3.1896    1.5162   -0.1250 C   0  0  0  0  0  0  0  0  0  0  0  0
   -3.4668    1.7612   -1.1741 H   0  0  0  0  0  0  0  0  0  0  0  0
   -2.9127    2.4749    0.3585 H   0  0  0  0  0  0  0  0  0  0  0  0
   -4.3882    0.8780    0.6176 C   0  0  0  0  0  0  0  0  0  0  0  0
   -4.1290    0.7761    1.6931 H   0  0  0  0  0  0  0  0  0  0  0  0
   -5.2082    1.6243    0.5689 H   0  0  0  0  0  0  0  0  0  0  0  0
   -4.9072   -0.4699    0.0806 C   0  0  0  0  0  0  0  0  0  0  0  0
   -4.9320   -0.4498   -1.0321 H   0  0  0  0  0  0  0  0  0  0  0  0
   -5.9723   -0.5209    0.3850 H   0  0  0  0  0  0  0  0  0  0  0  0
   -4.2479   -1.7882    0.5674 C   0  0  0  0  0  0  0  0  0  0  0  0
   -3.8771   -1.6637    1.6095 H   0  0  0  0  0  0  0  0  0  0  0  0
   -5.0650   -2.5333    0.6470 H   0  0  0  0  0  0  0  0  0  0  0  0
   -3.1606   -2.4495   -0.3046 C   0  0  0  0  0  0  0  0  0  0  0  0
   -3.3805   -2.2649   -1.3777 H   0  0  0  0  0  0  0  0  0  0  0  0
   -3.2055   -3.5500   -0.1692 H   0  0  0  0  0  0  0  0  0  0  0  0
   -1.6925   -2.0485   -0.0243 C   0  0  0  0  0  0  0  0  0  0  0  0
   -1.3823   -2.3733    0.9929 H   0  0  0  0  0  0  0  0  0  0  0  0
   -1.0208   -2.5669   -0.7362 H   0  0  0  0  0  0  0  0  0  0  0  0
  1 18  1  0  0  0  0
  2  3  1  0  0  0  0
  2  1  2  0  0  0  0
  3  5  1  0  0  0  0
  3  6  1  0  0  0  0
  4  3  1  0  0  0  0
  6  7  1  0  0  0  0
  8  6  1  0  0  0  0
  9 11  1  0  0  0  0
  9 12  1  0  0  0  0
  9  6  1  0  0  0  0
 10  9  1  0  0  0  0
 12 14  1  0  0  0  0
 12 13  1  0  0  0  0
 15 17  1  0  0  0  0
 15 18  1  0  0  0  0
 15 12  1  0  0  0  0
 16 15  1  0  0  0  0
 18 19  1  0  0  0  0
 20 18  1  0  0  0  0
M  END
