6
q = -1.0, confidence = 0.0

 15 14  0  0  0  0  0  0  0  0999 V2000
    1.7238    0.0096   -2.5888 Cl  0  0  0  0  0  0  0  0  0  0  0  0
    2.6766    0.3845    0.1998 P   0  0  0  0  0  0  0  0  0  0  0  0
    2.2704    1.2777    1.5262 O   0  0  0  0  0  0  0  0  0  0  0  0
    3.7612    1.3790   -0.5128 O   0  0  0  0  0  0  0  0  0  0  0  0
    3.1821   -0.9959    0.5403 O   0  0  0  0  0  0  0  0  0  0  0  0
    1.2448    0.5502   -0.9182 C   0  0  0  0  0  3  0  0  0  0  0  0
    1.9323    0.6205    2.7545 C   0  0  0  0  0  0  0  0  0  0  0  0
    5.0752    1.4460    0.0505 C   0  0  0  0  0  0  0  0  0  0  0  0
    1.0484    1.6351   -1.0108 H   0  0  0  0  0  0  0  0  0  0  0  0
    2.2802    1.2685    3.5825 H   0  0  0  0  0  0  0  0  0  0  0  0
    2.4313   -0.3676    2.8189 H   0  0  0  0  0  0  0  0  0  0  0  0
    0.8323    0.4931    2.8324 H   0  0  0  0  0  0  0  0  0  0  0  0
    5.7329    1.9142   -0.7061 H   0  0  0  0  0  0  0  0  0  0  0  0
    5.4531    0.4311    0.2943 H   0  0  0  0  0  0  0  0  0  0  0  0
    5.0766    2.0661    0.9726 H   0  0  0  0  0  0  0  0  0  0  0  0
  1  6  1  0  0  0  0
  2  5  2  0  0  0  0
  2  3  1  0  0  0  0
  3  7  1  0  0  0  0
  4  8  1  0  0  0  0
  4  2  1  0  0  0  0
  6  2  1  0  0  0  0
  7 11  1  0  0  0  0
  7 12  1  0  0  0  0
  7 10  1  0  0  0  0
  8 14  1  0  0  0  0
  8 15  1  0  0  0  0
  9  6  1  0  0  0  0
 13  8  1  0  0  0  0
M  END
