3
q = -1.0, confidence = 0.0

 23 22  0  0  0  0  0  0  0  0999 V2000
    1.8484    0.3667   -1.3125 Si  0  0  0  0  0  0  0  0  0  0  0  0
    2.1671   -0.0329    0.3236 O   0  0  0  0  0  0  0  0  0  0  0  0
   -0.0002    0.3782   -1.5636 C   0  0  0  0  0  3  0  0  0  0  0  0
   -0.2619   -0.3809   -2.3294 H   0  0  0  0  0  0  0  0  0  0  0  0
   -0.3142    1.3643   -1.9636 H   0  0  0  0  0  0  0  0  0  0  0  0
    2.6481    2.0488   -1.6690 C   0  0  0  0  0  0  0  0  0  0  0  0
    2.4883    2.3360   -2.7289 H   0  0  0  0  0  0  0  0  0  0  0  0
    3.7434    2.0221   -1.4912 H   0  0  0  0  0  0  0  0  0  0  0  0
    2.2280    2.8567   -1.0356 H   0  0  0  0  0  0  0  0  0  0  0  0
    2.7005   -0.9249   -2.4096 C   0  0  0  0  0  0  0  0  0  0  0  0
    2.5672   -0.6662   -3.4806 H   0  0  0  0  0  0  0  0  0  0  0  0
    2.2781   -1.9396   -2.2586 H   0  0  0  0  0  0  0  0  0  0  0  0
    3.7911   -0.9792   -2.2114 H   0  0  0  0  0  0  0  0  0  0  0  0
    3.4904   -0.1857    0.8357 C   0  0  0  0  0  0  0  0  0  0  0  0
    4.2413    0.1164    0.0636 H   0  0  0  0  0  0  0  0  0  0  0  0
    3.6632    0.7359    2.0424 C   0  0  0  0  0  0  0  0  0  0  0  0
    4.6902    0.6727    2.4558 H   0  0  0  0  0  0  0  0  0  0  0  0
    2.9510    0.4544    2.8462 H   0  0  0  0  0  0  0  0  0  0  0  0
    3.4633    1.7882    1.7591 H   0  0  0  0  0  0  0  0  0  0  0  0
    3.7315   -1.6556    1.1809 C   0  0  0  0  0  0  0  0  0  0  0  0
    2.9943   -1.9950    1.9377 H   0  0  0  0  0  0  0  0  0  0  0  0
    4.7496   -1.8140    1.5911 H   0  0  0  0  0  0  0  0  0  0  0  0
    3.6166   -2.2928    0.2817 H   0  0  0  0  0  0  0  0  0  0  0  0
  1  2  1  0  0  0  0
  2 14  1  0  0  0  0
  3  1  1  0  0  0  0
  4  3  1  0  0  0  0
  5  3  1  0  0  0  0
  6  8  1  0  0  0  0
  6  1  1  0  0  0  0
  6  9  1  0  0  0  0
  7  6  1  0  0  0  0
 10 12  1  0  0  0  0
 10 13  1  0  0  0  0
 10  1  1  0  0  0  0
 11 10  1  0  0  0  0
 14 20  1  0  0  0  0
 14 16  1  0  0  0  0
 15 14  1  0  0  0  0
 16 17  1  0  0  0  0
 16 18  1  0  0  0  0
 19 16  1  0  0  0  0
 20 22  1  0  0  0  0
 20 21  1  0  0  0  0
 23 20  1  0  0  0  0
M  END
