5
q = 0.0, confidence = 1.0

 35 36  0  0  0  0  0  0  0  0999 V2000
    3.2582    0.8652   -1.5192 O   0  0  0  0  0  0  0  0  0  0  0  0
    2.3619    0.7705   -1.9161 H   0  0  0  0  0  0  0  0  0  0  0  0
    1.3245    2.1382    0.6619 N   0  0  0  0  0  0  0  0  0  0  0  0
   -0.7979    1.6784    0.5066 N   0  0  0  0  0  0  0  0  0  0  0  0
    0.4469    1.1344    0.4103 C   0  0  0  0  0  2  0  0  0  0  0  0
    0.6358    3.3197    0.9097 C   0  0  0  0  0  0  0  0  0  0  0  0
    1.1549    4.2538    1.1428 H   0  0  0  0  0  0  0  0  0  0  0  0
   -0.7010    3.0299    0.8177 C   0  0  0  0  0  0  0  0  0  0  0  0
   -1.5901    3.6505    0.9582 H   0  0  0  0  0  0  0  0  0  0  0  0
    2.7851    2.0164    0.6226 C   0  0  0  0  0  0  0  0  0  0  0  0
    3.0544    1.0644    1.1228 H   0  0  0  0  0  0  0  0  0  0  0  0
    3.1905    2.8531    1.2251 H   0  0  0  0  0  0  0  0  0  0  0  0
    3.3734    2.0592   -0.8000 C   0  0  0  0  0  0  0  0  0  0  0  0
    2.9437    2.9408   -1.3377 H   0  0  0  0  0  0  0  0  0  0  0  0
    4.4599    2.2617   -0.6772 H   0  0  0  0  0  0  0  0  0  0  0  0
   -2.0367    0.9660    0.2982 C   0  0  0  0  0  0  0  0  0  0  0  0
   -2.5298    0.1436    1.3353 C   0  0  0  0  0  0  0  0  0  0  0  0
   -3.7178   -0.5654    1.0815 C   0  0  0  0  0  0  0  0  0  0  0  0
   -4.1180   -1.2179    1.8735 H   0  0  0  0  0  0  0  0  0  0  0  0
   -4.4057   -0.4612   -0.1406 C   0  0  0  0  0  0  0  0  0  0  0  0
   -3.8963    0.4088   -1.1229 C   0  0  0  0  0  0  0  0  0  0  0  0
   -4.4329    0.5195   -2.0785 H   0  0  0  0  0  0  0  0  0  0  0  0
   -2.7126    1.1402   -0.9306 C   0  0  0  0  0  0  0  0  0  0  0  0
   -1.8329    0.0394    2.6651 C   0  0  0  0  0  0  0  0  0  0  0  0
   -2.4850   -0.4531    3.4101 H   0  0  0  0  0  0  0  0  0  0  0  0
   -1.5514    1.0379    3.0580 H   0  0  0  0  0  0  0  0  0  0  0  0
   -0.8904   -0.5449    2.5980 H   0  0  0  0  0  0  0  0  0  0  0  0
   -2.1909    2.0739   -1.9908 C   0  0  0  0  0  0  0  0  0  0  0  0
   -2.2213    3.1332   -1.6596 H   0  0  0  0  0  0  0  0  0  0  0  0
   -2.7939    1.9935   -2.9142 H   0  0  0  0  0  0  0  0  0  0  0  0
   -1.1400    1.8280   -2.2447 H   0  0  0  0  0  0  0  0  0  0  0  0
   -5.6458   -1.2767   -0.4014 C   0  0  0  0  0  0  0  0  0  0  0  0
   -5.3815   -2.2431   -0.8821 H   0  0  0  0  0  0  0  0  0  0  0  0
   -6.3446   -0.7540   -1.0837 H   0  0  0  0  0  0  0  0  0  0  0  0
   -6.1845   -1.5152    0.5363 H   0  0  0  0  0  0  0  0  0  0  0  0
  1 13  1  0  0  0  0
  2  1  1  0  0  0  0
  3  6  1  0  0  0  0
  4  8  1  0  0  0  0
  5  4  1  0  0  0  0
  5  3  1  0  0  0  0
  6  7  1  0  0  0  0
  8  6  2  0  0  0  0
  8  9  1  0  0  0  0
 10  3  1  0  0  0  0
 10 11  1  0  0  0  0
 10 12  1  0  0  0  0
 13 15  1  0  0  0  0
 13 10  1  0  0  0  0
 14 13  1  0  0  0  0
 16  4  1  0  0  0  0
 16 17  1  0  0  0  0
 17 24  1  0  0  0  0
 18 17  2  0  0  0  0
 18 19  1  0  0  0  0
 20 18  1  0  0  0  0
 21 23  1  0  0  0  0
 21 20  2  0  0  0  0
 22 21  1  0  0  0  0
 23 16  2  0  0  0  0
 24 26  1  0  0  0  0
 24 25  1  0  0  0  0
 27 24  1  0  0  0  0
 28 29  1  0  0  0  0
 28 23  1  0  0  0  0
 30 28  1  0  0  0  0
 31 28  1  0  0  0  0
 32 20  1  0  0  0  0
 32 35  1  0  0  0  0
 33 32  1  0  0  0  0
 34 32  1  0  0  0  0
M  END
