6
q = 0.0, confidence = 0.942

 34 36  0  0  1  0  0  0  0  0999 V2000
   -4.1534   -0.1855    1.3431 S   0  0  0  0  0  0  0  0  0  0  0  0
   -1.2278    2.6588   -1.9301 O   0  0  0  0  0  0  0  0  0  0  0  0
   -3.5779    3.7022   -0.8870 O   0  0  0  0  0  0  0  0  0  0  0  0
   -2.8076    3.6257   -1.4986 H   0  0  0  0  0  0  0  0  0  0  0  0
   -1.2630    1.9902   -0.8789 C   0  0  0  0  0  0  0  0  0  0  0  0
   -0.1069    1.8642    0.0210 C   0  0  0  0  0  3  0  0  0  0  0  0
   -0.2712    1.2074    1.3150 C   0  0  0  0  0  3  0  0  0  0  0  0
   -1.6910    0.9412    1.8172 C   0  0  2  0  0  0  0  0  0  0  0  0
   -1.6677    0.1831    2.6286 H   0  0  0  0  0  0  0  0  0  0  0  0
   -2.5377    0.3949    0.6597 C   0  0  2  0  0  0  0  0  0  0  0  0
   -2.0461   -0.5019    0.2507 H   0  0  0  0  0  0  0  0  0  0  0  0
   -2.6315    1.4744   -0.4206 C   0  0  1  0  0  0  0  0  0  0  0  0
   -3.1750    1.1151   -1.3169 H   0  0  0  0  0  0  0  0  0  0  0  0
   -3.3822    2.7368    0.1171 C   0  0  1  0  0  0  0  0  0  0  0  0
   -4.3853    2.3767    0.4387 H   0  0  0  0  0  0  0  0  0  0  0  0
   -2.6463    3.2997    1.3502 C   0  0  0  0  0  0  0  0  0  0  0  0
   -3.2640    4.1083    1.7919 H   0  0  0  0  0  0  0  0  0  0  0  0
   -1.7078    3.7847    1.0070 H   0  0  0  0  0  0  0  0  0  0  0  0
   -2.3442    2.2205    2.4035 C   0  0  0  0  0  0  0  0  0  0  0  0
   -3.2911    1.9238    2.9049 H   0  0  0  0  0  0  0  0  0  0  0  0
   -1.6893    2.6344    3.2000 H   0  0  0  0  0  0  0  0  0  0  0  0
   -4.9480   -0.9662   -0.0460 C   0  0  0  0  0  0  0  0  0  0  0  0
   -6.3573   -1.0504    0.0054 C   0  0  0  0  0  0  0  0  0  0  0  0
   -6.8955   -0.5952    0.8510 H   0  0  0  0  0  0  0  0  0  0  0  0
   -7.0642   -1.6963   -1.0174 C   0  0  0  0  0  0  0  0  0  0  0  0
   -8.1622   -1.7545   -0.9623 H   0  0  0  0  0  0  0  0  0  0  0  0
   -6.3814   -2.2467   -2.1145 C   0  0  0  0  0  0  0  0  0  0  0  0
   -6.9384   -2.7409   -2.9246 H   0  0  0  0  0  0  0  0  0  0  0  0
   -4.9822   -2.1526   -2.1696 C   0  0  0  0  0  0  0  0  0  0  0  0
   -4.4317   -2.5775   -3.0232 H   0  0  0  0  0  0  0  0  0  0  0  0
   -4.2598   -1.5265   -1.1424 C   0  0  0  0  0  0  0  0  0  0  0  0
   -3.1629   -1.4902   -1.2084 H   0  0  0  0  0  0  0  0  0  0  0  0
    0.6294    2.6780   -0.0989 H   0  0  0  0  0  0  0  0  0  0  0  0
    0.3471    1.6501    2.1182 H   0  0  0  0  0  0  0  0  0  0  0  0
  2  5  2  0  0  0  0
  3 14  1  0  0  0  0
  4  3  1  0  0  0  0
  5 12  1  0  0  0  0
  5  6  1  0  0  0  0
  6  7  1  0  0  0  0
  7  8  1  0  0  0  0
  7 34  1  0  0  0  0
  8 19  1  0  0  0  0
  8  9  1  1  0  0  0
 10 11  1  6  0  0  0
 10  1  1  0  0  0  0
 10  8  1  0  0  0  0
 12 13  1  6  0  0  0
 12 14  1  0  0  0  0
 12 10  1  0  0  0  0
 14 15  1  1  0  0  0
 14 16  1  0  0  0  0
 16 17  1  0  0  0  0
 16 19  1  0  0  0  0
 18 16  1  0  0  0  0
 19 20  1  0  0  0  0
 19 21  1  0  0  0  0
 22 23  1  0  0  0  0
 22  1  1  0  0  0  0
 23 24  1  0  0  0  0
 25 26  1  0  0  0  0
 25 23  2  0  0  0  0
 27 25  1  0  0  0  0
 28 27  1  0  0  0  0
 29 27  2  0  0  0  0
 29 31  1  0  0  0  0
 30 29  1  0  0  0  0
 31 22  2  0  0  0  0
 32 31  1  0  0  0  0
 33  6  1  0  0  0  0
M  END
