2
q = -1.0, confidence = 0.0

 38 40  0  0  0  0  0  0  0  0999 V2000
   -0.9267   -0.6057    1.4022 N   0  0  0  0  0  0  0  0  0  0  0  0
    0.8682    1.1450    0.1127 C   0  0  0  0  0  3  0  0  0  0  0  0
    2.2756    1.5726    0.3761 C   0  0  0  0  0  0  0  0  0  0  0  0
    3.1705    1.4947   -0.4552 O   0  0  0  0  0  0  0  0  0  0  0  0
    2.4653    1.9890    1.6466 O   0  0  0  0  0  0  0  0  0  0  0  0
    3.8290    2.2184    2.0095 C   0  0  0  0  0  0  0  0  0  0  0  0
    3.8120    2.5834    3.0522 H   0  0  0  0  0  0  0  0  0  0  0  0
    4.2996    2.9683    1.3415 H   0  0  0  0  0  0  0  0  0  0  0  0
    4.4023    1.2714    1.9444 H   0  0  0  0  0  0  0  0  0  0  0  0
   -0.1488    2.0432   -0.0465 C   0  0  0  0  0  0  0  0  0  0  0  0
    0.0277    3.5085    0.2058 C   0  0  0  0  0  0  0  0  0  0  0  0
    1.2956    3.9366   -0.0462 O   0  0  0  0  0  0  0  0  0  0  0  0
   -0.8549    4.2580    0.5947 O   0  0  0  0  0  0  0  0  0  0  0  0
    1.5899    5.2708    0.3658 C   0  0  0  0  0  0  0  0  0  0  0  0
    2.6115    5.4856    0.0037 H   0  0  0  0  0  0  0  0  0  0  0  0
    1.5513    5.3574    1.4716 H   0  0  0  0  0  0  0  0  0  0  0  0
    0.8627    5.9893   -0.0631 H   0  0  0  0  0  0  0  0  0  0  0  0
   -1.5116    1.7085   -0.5527 C   0  0  0  0  0  0  0  0  0  0  0  0
   -1.9063    2.4864   -1.6585 C   0  0  0  0  0  0  0  0  0  0  0  0
   -1.1717    3.1886   -2.0799 H   0  0  0  0  0  0  0  0  0  0  0  0
   -3.1891    2.4226   -2.2269 C   0  0  0  0  0  0  0  0  0  0  0  0
   -3.4361    3.0382   -3.1045 H   0  0  0  0  0  0  0  0  0  0  0  0
   -4.1489    1.6222   -1.6248 C   0  0  0  0  0  0  0  0  0  0  0  0
   -5.1874    1.6093   -1.9886 H   0  0  0  0  0  0  0  0  0  0  0  0
   -3.8157    0.8330   -0.4955 C   0  0  0  0  0  0  0  0  0  0  0  0
   -2.4581    0.7804    0.0021 C   0  0  0  0  0  0  0  0  0  0  0  0
   -2.1942   -0.1612    1.0891 C   0  0  0  0  0  0  0  0  0  0  0  0
   -3.3072   -0.6988    1.8305 C   0  0  0  0  0  0  0  0  0  0  0  0
   -3.0635   -1.4492    3.0060 C   0  0  0  0  0  0  0  0  0  0  0  0
   -3.9206   -1.8325    3.5810 H   0  0  0  0  0  0  0  0  0  0  0  0
   -1.7577   -1.6969    3.3988 C   0  0  0  0  0  0  0  0  0  0  0  0
   -1.5155   -2.2500    4.3169 H   0  0  0  0  0  0  0  0  0  0  0  0
   -0.7221   -1.3006    2.5382 C   0  0  0  0  0  0  0  0  0  0  0  0
    0.3310   -1.5699    2.7297 H   0  0  0  0  0  0  0  0  0  0  0  0
   -4.6487   -0.5277    1.3517 C   0  0  0  0  0  0  0  0  0  0  0  0
   -5.4708   -0.9857    1.9222 H   0  0  0  0  0  0  0  0  0  0  0  0
   -4.8787    0.1467    0.1856 C   0  0  0  0  0  0  0  0  0  0  0  0
   -5.8963    0.2323   -0.2247 H   0  0  0  0  0  0  0  0  0  0  0  0
  1 33  1  0  0  0  0
  2  3  1  0  0  0  0
  3  5  1  0  0  0  0
  4  3  2  0  0  0  0
  5  6  1  0  0  0  0
  6  7  1  0  0  0  0
  8  6  1  0  0  0  0
  9  6  1  0  0  0  0
 10  2  2  0  0  0  0
 10 11  1  0  0  0  0
 11 13  2  0  0  0  0
 12 11  1  0  0  0  0
 12 14  1  0  0  0  0
 14 16  1  0  0  0  0
 15 14  1  0  0  0  0
 17 14  1  0  0  0  0
 18 10  1  0  0  0  0
 18 26  1  0  0  0  0
 19 18  2  0  0  0  0
 20 19  1  0  0  0  0
 21 19  1  0  0  0  0
 21 23  2  0  0  0  0
 22 21  1  0  0  0  0
 23 25  1  0  0  0  0
 24 23  1  0  0  0  0
 25 26  2  0  0  0  0
 25 37  1  0  0  0  0
 26 27  1  0  0  0  0
 27  1  2  0  0  0  0
 27 28  1  0  0  0  0
 28 29  2  0  0  0  0
 29 31  1  0  0  0  0
 29 30  1  0  0  0  0
 31 32  1  0  0  0  0
 33 34  1  0  0  0  0
 33 31  2  0  0  0  0
 35 28  1  0  0  0  0
 35 36  1  0  0  0  0
 37 35  2  0  0  0  0
 38 37  1  0  0  0  0
M  END
