23
q = -2.0, confidence = 0.864

 37 43  0  0  1  0  0  0  0  0999 V2000
   -2.2692    0.6533    0.0342 B   0  0  0  0  0  0  0  0  0  0  0  0
   -1.5073    1.4209    0.5659 H   0  0  0  0  0  0  0  0  0  0  0  0
   -3.3100    1.1396   -1.3409 B   0  0  1  0  0  0  0  0  0  0  0  0
   -3.2756    2.2765   -1.7432 H   0  0  0  0  0  0  0  0  0  0  0  0
   -3.3294   -0.2206   -2.4891 B   0  0  2  0  0  0  0  0  0  0  0  0
   -3.2785   -0.0235   -3.6788 H   0  0  0  0  0  0  0  0  0  0  0  0
   -2.2850   -1.4879   -1.7885 B   0  0  1  0  0  0  0  0  0  0  0  0
   -1.5815   -2.1763   -2.4832 H   0  0  0  0  0  0  0  0  0  0  0  0
   -3.0062   -0.7178    0.8469 B   0  0  1  0  0  0  0  0  0  0  0  0
   -2.7843   -0.8803    2.0201 H   0  0  0  0  0  0  0  0  0  0  0  0
   -4.0345    0.5860    0.1946 B   0  0  0  0  0  2  0  0  0  0  0  0
   -4.6138    1.3590    0.9227 H   0  0  0  0  0  0  0  0  0  0  0  0
   -4.6941    0.0145   -1.3696 B   0  0  0  0  0  0  0  0  0  0  0  0
   -5.7740    0.3731   -1.7822 H   0  0  0  0  0  0  0  0  0  0  0  0
   -4.0474   -1.6283   -1.6683 B   0  0  0  0  0  0  0  0  0  0  0  0
   -4.6317   -2.4806   -2.2984 H   0  0  0  0  0  0  0  0  0  0  0  0
   -2.9955   -2.0525   -0.2841 B   0  0  2  0  0  0  0  0  0  0  0  0
   -2.7673   -3.1880    0.0743 H   0  0  0  0  0  0  0  0  0  0  0  0
   -4.5052   -1.1303   -0.0141 B   0  0  1  0  0  0  0  0  0  0  0  0
   -5.4460   -1.6194    0.5700 H   0  0  0  0  0  0  0  0  0  0  0  0
   -1.9368    0.1599   -1.5725 C   0  0  2  0  0  0  0  0  0  0  0  0
   -1.7078   -0.9216   -0.2651 C   0  0  2  0  0  0  0  0  0  0  0  0
   -0.6149    0.6172   -2.1025 C   0  0  1  0  0  3  0  0  0  0  0  0
    0.0930    1.8328   -1.7606 C   0  0  0  0  0  0  0  0  0  0  0  0
   -0.3043    3.0639   -1.1617 C   0  0  0  0  0  0  0  0  0  0  0  0
   -1.3482    3.2223   -0.8636 H   0  0  0  0  0  0  0  0  0  0  0  0
    0.6335    4.0758   -0.9995 C   0  0  0  0  0  0  0  0  0  0  0  0
    0.3215    5.0331   -0.5552 H   0  0  0  0  0  0  0  0  0  0  0  0
    1.9869    3.9092   -1.4119 C   0  0  0  0  0  0  0  0  0  0  0  0
    2.6961    4.7410   -1.2831 H   0  0  0  0  0  0  0  0  0  0  0  0
    2.4132    2.7193   -1.9874 C   0  0  0  0  0  0  0  0  0  0  0  0
    3.4527    2.6036   -2.3318 H   0  0  0  0  0  0  0  0  0  0  0  0
    1.4814    1.6594   -2.1646 C   0  0  0  0  0  0  0  0  0  0  0  0
    1.6069    0.3536   -2.7454 C   0  0  0  0  0  0  0  0  0  0  0  0
    2.5081   -0.0550   -3.2210 H   0  0  0  0  0  0  0  0  0  0  0  0
    0.3274   -0.2477   -2.7447 C   0  0  0  0  0  0  0  0  0  0  0  0
    0.0897   -1.2413   -3.1388 H   0  0  0  0  0  0  0  0  0  0  0  0
  1  2  1  0  0  0  0
  1  9  1  0  0  0  0
  3  4  1  6  0  0  0
  5  6  1  6  0  0  0
  5 15  1  0  0  0  0
  5 21  1  0  0  0  0
  5  3  1  0  0  0  0
  7  8  1  6  0  0  0
  7 21  1  0  0  0  0
  7 17  1  0  0  0  0
  7 22  1  0  0  0  0
  9 10  1  1  0  0  0
 11 12  1  0  0  0  0
 13  3  1  0  0  0  0
 13 19  1  0  0  0  0
 14 13  1  0  0  0  0
 15 19  1  0  0  0  0
 16 15  1  0  0  0  0
 17 22  1  0  0  0  0
 17 18  1  1  0  0  0
 17  9  1  0  0  0  0
 19 11  1  0  0  0  0
 19 20  1  1  0  0  0
 21 23  1  6  0  0  0
 21  3  1  0  0  0  0
 22  1  1  1  0  0  0
 22  9  1  0  0  0  0
 23 36  1  1  0  0  0
 23 24  1  0  0  0  0
 24 25  1  0  0  0  0
 25 27  2  0  0  0  0
 25 26  1  0  0  0  0
 27 28  1  0  0  0  0
 29 30  1  0  0  0  0
 29 27  1  0  0  0  0
 31 29  2  0  0  0  0
 32 31  1  0  0  0  0
 33 31  1  0  0  0  0
 33 24  2  0  0  0  0
 34 36  2  0  0  0  0
 34 33  1  0  0  0  0
 35 34  1  0  0  0  0
 37 36  1  0  0  0  0
M  END
