3
q = 0.0, confidence = 0.972

 36 36  0  0  1  0  0  0  0  0999 V2000
    0.7907   -0.9307   -2.3875 C   0  0  0  0  0  3  0  0  0  0  0  0
    0.3661   -0.8347   -3.4012 H   0  0  0  0  0  0  0  0  0  0  0  0
    0.0934   -1.7406   -1.4466 C   0  0  0  0  0  3  0  0  0  0  0  0
   -0.8430   -2.2173   -1.7791 H   0  0  0  0  0  0  0  0  0  0  0  0
    0.4895   -1.7368   -0.0595 C   0  0  0  0  0  3  0  0  0  0  0  0
   -0.3042   -2.1179    0.6128 H   0  0  0  0  0  0  0  0  0  0  0  0
    1.8634   -2.2175    0.4197 C   0  0  0  0  0  0  0  0  0  0  0  0
    2.9333   -1.9745   -0.6681 C   0  0  0  0  0  0  0  0  0  0  0  0
    2.6846   -2.6118   -1.5426 H   0  0  0  0  0  0  0  0  0  0  0  0
    3.9177   -2.2832   -0.2746 H   0  0  0  0  0  0  0  0  0  0  0  0
    2.9943   -0.5470   -1.1339 C   0  0  0  0  0  0  0  0  0  0  0  0
    1.9003   -0.0767   -2.0115 C   0  0  1  0  0  3  0  0  0  0  0  0
    2.2920   -1.5654    1.7435 C   0  0  0  0  0  0  0  0  0  0  0  0
    3.2772   -1.9567    2.0637 H   0  0  0  0  0  0  0  0  0  0  0  0
    2.3910   -0.4682    1.6414 H   0  0  0  0  0  0  0  0  0  0  0  0
    1.5547   -1.7789    2.5436 H   0  0  0  0  0  0  0  0  0  0  0  0
    1.7528   -3.7442    0.6398 C   0  0  0  0  0  0  0  0  0  0  0  0
    2.7320   -4.1637    0.9501 H   0  0  0  0  0  0  0  0  0  0  0  0
    1.0135   -3.9791    1.4331 H   0  0  0  0  0  0  0  0  0  0  0  0
    1.4344   -4.2588   -0.2896 H   0  0  0  0  0  0  0  0  0  0  0  0
    2.2480    1.0406   -2.9814 C   0  0  0  0  0  0  0  0  0  0  0  0
    3.1657    0.7880   -3.5541 H   0  0  0  0  0  0  0  0  0  0  0  0
    1.4252    1.2232   -3.6975 H   0  0  0  0  0  0  0  0  0  0  0  0
    2.4424    1.9987   -2.4615 H   0  0  0  0  0  0  0  0  0  0  0  0
    4.0375    0.2898   -0.8238 C   0  0  0  0  0  0  0  0  0  0  0  0
    4.0444    1.3189   -1.2071 H   0  0  0  0  0  0  0  0  0  0  0  0
    5.1957   -0.0289    0.0212 C   0  0  0  0  0  0  0  0  0  0  0  0
    6.0408    1.0491    0.0593 O   0  0  0  0  0  0  0  0  0  0  0  0
    7.2182    0.8866    0.8643 C   0  0  0  0  0  0  0  0  0  0  0  0
    6.9182    0.6203    1.9011 H   0  0  0  0  0  0  0  0  0  0  0  0
    7.8074    0.0248    0.4818 H   0  0  0  0  0  0  0  0  0  0  0  0
    8.0024    2.1828    0.8109 C   0  0  0  0  0  0  0  0  0  0  0  0
    8.9232    2.0987    1.4218 H   0  0  0  0  0  0  0  0  0  0  0  0
    7.4006    3.0265    1.2036 H   0  0  0  0  0  0  0  0  0  0  0  0
    8.2970    2.4262   -0.2294 H   0  0  0  0  0  0  0  0  0  0  0  0
    5.4490   -1.0643    0.6318 O   0  0  0  0  0  0  0  0  0  0  0  0
  1 12  1  0  0  0  0
  1  3  1  0  0  0  0
  2  1  1  0  0  0  0
  3  5  1  0  0  0  0
  4  3  1  0  0  0  0
  5  7  1  0  0  0  0
  5  6  1  0  0  0  0
  7 17  1  0  0  0  0
  7 13  1  0  0  0  0
  8 10  1  0  0  0  0
  8  7  1  0  0  0  0
  9  8  1  0  0  0  0
 11 25  2  0  0  0  0
 11  8  1  0  0  0  0
 12 21  1  6  0  0  0
 12 11  1  0  0  0  0
 13 14  1  0  0  0  0
 13 16  1  0  0  0  0
 15 13  1  0  0  0  0
 17 18  1  0  0  0  0
 17 19  1  0  0  0  0
 20 17  1  0  0  0  0
 21 24  1  0  0  0  0
 22 21  1  0  0  0  0
 23 21  1  0  0  0  0
 25 27  1  0  0  0  0
 26 25  1  0  0  0  0
 27 28  1  0  0  0  0
 27 36  2  0  0  0  0
 28 29  1  0  0  0  0
 29 30  1  0  0  0  0
 31 29  1  0  0  0  0
 32 29  1  0  0  0  0
 32 34  1  0  0  0  0
 32 33  1  0  0  0  0
 35 32  1  0  0  0  0
M  END
