1
q = -1.0, confidence = 0.022

 17 17  0  0  0  0  0  0  0  0999 V2000
   -1.4093   -0.9642    0.2694 C   0  0  0  0  0  3  0  0  0  0  0  0
   -3.2288   -2.5304   -0.3631 C   0  0  0  0  0  0  0  0  0  0  0  0
   -4.5512   -2.7763   -0.7420 C   0  0  0  0  0  0  0  0  0  0  0  0
   -5.4890   -1.7260   -0.8599 C   0  0  0  0  0  0  0  0  0  0  0  0
   -5.0513   -0.4133   -0.5841 C   0  0  0  0  0  0  0  0  0  0  0  0
   -3.7246   -0.1510   -0.2261 C   0  0  0  0  0  0  0  0  0  0  0  0
   -2.7858   -1.2052   -0.1149 C   0  0  0  0  0  0  0  0  0  0  0  0
   -6.9187   -2.0113   -1.2433 C   0  0  0  0  0  0  0  0  0  0  0  0
   -0.4307   -1.6986    0.8775 C   0  0  0  0  0  3  0  0  0  0  0  0
   -0.0556   -3.3544    1.4953 Se  0  0  0  0  0  1  0  0  0  0  0  0
   -2.5087   -3.3546   -0.2382 H   0  0  0  0  0  0  0  0  0  0  0  0
   -4.8744   -3.8113   -0.9402 H   0  0  0  0  0  0  0  0  0  0  0  0
   -5.7692    0.4195   -0.6570 H   0  0  0  0  0  0  0  0  0  0  0  0
   -3.3990    0.8771   -0.0112 H   0  0  0  0  0  0  0  0  0  0  0  0
   -7.4831   -1.0804   -1.4458 H   0  0  0  0  0  0  0  0  0  0  0  0
   -7.4495   -2.5550   -0.4324 H   0  0  0  0  0  0  0  0  0  0  0  0
   -6.9773   -2.6530   -2.1466 H   0  0  0  0  0  0  0  0  0  0  0  0
  1  9  2  0  0  0  0
  2 11  1  0  0  0  0
  2  7  1  0  0  0  0
  3  2  2  0  0  0  0
  4  3  1  0  0  0  0
  4  5  2  0  0  0  0
  5  6  1  0  0  0  0
  6  7  2  0  0  0  0
  6 14  1  0  0  0  0
  7  1  1  0  0  0  0
  8  4  1  0  0  0  0
  8 16  1  0  0  0  0
  9 10  1  0  0  0  0
 12  3  1  0  0  0  0
 13  5  1  0  0  0  0
 15  8  1  0  0  0  0
 17  8  1  0  0  0  0
M  END
