1
q = 0.0, confidence = 0.988

 29 30  0  0  0  0  0  0  0  0999 V2000
    1.9885    1.0068   -0.3376 C   0  0  0  0  0  2  0  0  0  0  0  0
    2.1709    2.3013   -0.5831 O   0  0  0  0  0  0  0  0  0  0  0  0
    3.4449    2.9432   -0.6397 C   0  0  0  0  0  0  0  0  0  0  0  0
    3.2291    4.0264   -0.6829 H   0  0  0  0  0  0  0  0  0  0  0  0
    3.9882    2.6360   -1.5528 H   0  0  0  0  0  0  0  0  0  0  0  0
    4.0542    2.7128    0.2536 H   0  0  0  0  0  0  0  0  0  0  0  0
    0.5178    0.7929   -0.3002 C   0  0  0  0  0  0  0  0  0  0  0  0
   -0.0820   -0.4475   -0.6300 C   0  0  0  0  0  0  0  0  0  0  0  0
    0.5435   -1.2877   -0.9530 H   0  0  0  0  0  0  0  0  0  0  0  0
   -1.4637   -0.6196   -0.5877 C   0  0  0  0  0  0  0  0  0  0  0  0
   -1.9064   -1.5863   -0.8659 H   0  0  0  0  0  0  0  0  0  0  0  0
   -2.3171    0.4413   -0.1830 C   0  0  0  0  0  0  0  0  0  0  0  0
   -1.7227    1.6872    0.1556 C   0  0  0  0  0  0  0  0  0  0  0  0
   -2.3682    2.5170    0.4774 H   0  0  0  0  0  0  0  0  0  0  0  0
   -0.3435    1.8583    0.0810 C   0  0  0  0  0  0  0  0  0  0  0  0
    0.0988    2.8287    0.3436 H   0  0  0  0  0  0  0  0  0  0  0  0
   -3.7234    0.2622   -0.1171 C   0  0  0  0  0  0  0  0  0  0  0  0
   -4.9455    0.1062   -0.0591 C   0  0  0  0  0  0  0  0  0  0  0  0
   -6.3550   -0.0752    0.0077 C   0  0  0  0  0  0  0  0  0  0  0  0
   -6.9391   -1.3253   -0.3274 C   0  0  0  0  0  0  0  0  0  0  0  0
   -6.2858   -2.1528   -0.6397 H   0  0  0  0  0  0  0  0  0  0  0  0
   -8.3255   -1.4981   -0.2596 C   0  0  0  0  0  0  0  0  0  0  0  0
   -8.7659   -2.4720   -0.5217 H   0  0  0  0  0  0  0  0  0  0  0  0
   -9.1543   -0.4362    0.1409 C   0  0  0  0  0  0  0  0  0  0  0  0
  -10.2444   -0.5769    0.1929 H   0  0  0  0  0  0  0  0  0  0  0  0
   -8.5876    0.8056    0.4750 C   0  0  0  0  0  0  0  0  0  0  0  0
   -9.2338    1.6392    0.7892 H   0  0  0  0  0  0  0  0  0  0  0  0
   -7.2026    0.9902    0.4109 C   0  0  0  0  0  0  0  0  0  0  0  0
   -6.7539    1.9596    0.6714 H   0  0  0  0  0  0  0  0  0  0  0  0
  1  7  1  0  0  0  0
  2  1  1  0  0  0  0
  3  2  1  0  0  0  0
  3  6  1  0  0  0  0
  4  3  1  0  0  0  0
  5  3  1  0  0  0  0
  7 15  1  0  0  0  0
  8 10  1  0  0  0  0
  8  7  2  0  0  0  0
  9  8  1  0  0  0  0
 10 12  2  0  0  0  0
 11 10  1  0  0  0  0
 12 17  1  0  0  0  0
 12 13  1  0  0  0  0
 13 14  1  0  0  0  0
 15 13  2  0  0  0  0
 15 16  1  0  0  0  0
 17 18  3  0  0  0  0
 18 19  1  0  0  0  0
 19 28  1  0  0  0  0
 20 22  1  0  0  0  0
 20 19  2  0  0  0  0
 21 20  1  0  0  0  0
 22 24  2  0  0  0  0
 23 22  1  0  0  0  0
 24 25  1  0  0  0  0
 24 26  1  0  0  0  0
 26 27  1  0  0  0  0
 28 26  2  0  0  0  0
 28 29  1  0  0  0  0
M  END
