3
q = 0.0, confidence = 0.992

 47 49  0  0  1  0  0  0  0  0999 V2000
   -1.4163   -0.6407   -1.2705 N   0  0  0  0  0  0  0  0  0  0  0  0
   -1.8250   -0.1974   -2.1004 H   0  0  0  0  0  0  0  0  0  0  0  0
   -2.0955   -0.7951   -0.1409 C   0  0  0  0  0  2  0  0  0  0  0  0
   -1.1047   -1.3397    0.8651 C   0  0  0  0  0  0  0  0  0  0  0  0
   -1.5340   -2.1932    1.4251 H   0  0  0  0  0  0  0  0  0  0  0  0
   -0.9279   -0.5334    1.6071 H   0  0  0  0  0  0  0  0  0  0  0  0
    0.1770   -1.6671    0.0812 C   0  0  0  0  0  0  0  0  0  0  0  0
    1.1055   -1.4538    0.6391 H   0  0  0  0  0  0  0  0  0  0  0  0
    0.1854   -2.7379   -0.2181 H   0  0  0  0  0  0  0  0  0  0  0  0
    0.0607   -0.8330   -1.2099 C   0  0  1  0  0  0  0  0  0  0  0  0
    0.5573   -1.4245   -2.3806 O   0  0  0  0  0  0  0  0  0  0  0  0
    0.2917   -2.3642   -2.3736 H   0  0  0  0  0  0  0  0  0  0  0  0
    0.2950    1.2099    0.0289 O   0  0  0  0  0  0  0  0  0  0  0  0
    2.3537    2.0337   -0.5479 O   0  0  0  0  0  0  0  0  0  0  0  0
    2.9119   -0.4537    0.7639 O   0  0  0  0  0  0  0  0  0  0  0  0
    3.7489   -0.2064    1.2225 H   0  0  0  0  0  0  0  0  0  0  0  0
    5.3938   -1.1954   -0.6964 O   0  0  0  0  0  0  0  0  0  0  0  0
    5.5850    0.2295    1.0876 O   0  0  0  0  0  0  0  0  0  0  0  0
    0.6749    0.5786   -1.1727 C   0  0  1  0  0  0  0  0  0  0  0  0
    0.2456    1.1161   -2.0570 H   0  0  0  0  0  0  0  0  0  0  0  0
    2.2073    0.7893   -1.2303 C   0  0  2  0  0  0  0  0  0  0  0  0
    2.5041    0.9226   -2.2944 H   0  0  0  0  0  0  0  0  0  0  0  0
    3.1207   -0.2999   -0.6345 C   0  0  1  0  0  0  0  0  0  0  0  0
    2.8589   -1.2519   -1.1525 H   0  0  0  0  0  0  0  0  0  0  0  0
    4.6034   -0.0350   -0.9656 C   0  0  1  0  0  0  0  0  0  0  0  0
    4.6978    0.2140   -2.0438 H   0  0  0  0  0  0  0  0  0  0  0  0
    5.2407    1.0246   -0.0558 C   0  0  0  0  0  0  0  0  0  0  0  0
    6.1424    1.4806   -0.5220 H   0  0  0  0  0  0  0  0  0  0  0  0
    4.5368    1.8174    0.2551 H   0  0  0  0  0  0  0  0  0  0  0  0
    6.0905   -1.0114    0.5521 C   0  0  0  0  0  0  0  0  0  0  0  0
    7.5909   -0.9126    0.2787 C   0  0  0  0  0  0  0  0  0  0  0  0
    8.1520   -0.7958    1.2261 H   0  0  0  0  0  0  0  0  0  0  0  0
    7.8162   -0.0515   -0.3792 H   0  0  0  0  0  0  0  0  0  0  0  0
    7.9380   -1.8307   -0.2329 H   0  0  0  0  0  0  0  0  0  0  0  0
    5.7325   -2.1315    1.5185 C   0  0  0  0  0  0  0  0  0  0  0  0
    6.1899   -1.9479    2.5097 H   0  0  0  0  0  0  0  0  0  0  0  0
    6.1052   -3.0973    1.1281 H   0  0  0  0  0  0  0  0  0  0  0  0
    4.6328   -2.1918    1.6229 H   0  0  0  0  0  0  0  0  0  0  0  0
    1.1483    2.3435    0.1952 C   0  0  0  0  0  0  0  0  0  0  0  0
    0.5052    3.5903   -0.4107 C   0  0  0  0  0  0  0  0  0  0  0  0
    1.1946    4.4530   -0.3339 H   0  0  0  0  0  0  0  0  0  0  0  0
   -0.4375    3.8250    0.1198 H   0  0  0  0  0  0  0  0  0  0  0  0
    0.2781    3.4274   -1.4824 H   0  0  0  0  0  0  0  0  0  0  0  0
    1.4616    2.4780    1.6768 C   0  0  0  0  0  0  0  0  0  0  0  0
    2.1502    3.3271    1.8491 H   0  0  0  0  0  0  0  0  0  0  0  0
    1.9305    1.5390    2.0230 H   0  0  0  0  0  0  0  0  0  0  0  0
    0.5277    2.6570    2.2438 H   0  0  0  0  0  0  0  0  0  0  0  0
  1 10  1  0  0  0  0
  1  3  1  0  0  0  0
  2  1  1  0  0  0  0
  3  4  1  0  0  0  0
  4  5  1  0  0  0  0
  4  6  1  0  0  0  0
  7  8  1  0  0  0  0
  7  4  1  0  0  0  0
  9  7  1  0  0  0  0
 10 11  1  6  0  0  0
 10 19  1  0  0  0  0
 10  7  1  0  0  0  0
 11 12  1  0  0  0  0
 13 39  1  0  0  0  0
 14 39  1  0  0  0  0
 15 16  1  0  0  0  0
 17 30  1  0  0  0  0
 19 20  1  6  0  0  0
 19 13  1  0  0  0  0
 21 22  1  6  0  0  0
 21 19  1  0  0  0  0
 21 23  1  0  0  0  0
 21 14  1  0  0  0  0
 23 24  1  6  0  0  0
 23 15  1  0  0  0  0
 25 26  1  6  0  0  0
 25 17  1  0  0  0  0
 25 23  1  0  0  0  0
 25 27  1  0  0  0  0
 27 29  1  0  0  0  0
 27 18  1  0  0  0  0
 28 27  1  0  0  0  0
 30 18  1  0  0  0  0
 30 35  1  0  0  0  0
 31 30  1  0  0  0  0
 31 32  1  0  0  0  0
 33 31  1  0  0  0  0
 34 31  1  0  0  0  0
 35 38  1  0  0  0  0
 35 36  1  0  0  0  0
 37 35  1  0  0  0  0
 39 44  1  0  0  0  0
 40 41  1  0  0  0  0
 40 42  1  0  0  0  0
 40 39  1  0  0  0  0
 43 40  1  0  0  0  0
 44 45  1  0  0  0  0
 44 46  1  0  0  0  0
 44 47  1  0  0  0  0
M  END
