3
q = -1.0, confidence = 0.0

 19 19  0  0  1  0  0  0  0  0999 V2000
    0.8741   -1.3086   -0.9177 S   0  0  0  0  0  0  0  0  0  0  0  0
    3.0196    0.9588    0.7746 O   0  0  0  0  0  0  0  0  0  0  0  0
    0.7981    1.5191    0.0593 C   0  0  2  0  0  3  0  0  0  0  0  0
    0.0910    1.6060    1.3004 C   0  0  0  0  0  0  0  0  0  0  0  0
   -1.2840    1.8810    1.0018 C   0  0  0  0  0  0  0  0  0  0  0  0
   -1.4145    1.9966   -0.4208 C   0  0  0  0  0  0  0  0  0  0  0  0
   -0.1317    1.7846   -1.0230 C   0  0  0  0  0  0  0  0  0  0  0  0
    2.1401    0.8876   -0.0713 C   0  0  0  0  0  0  0  0  0  0  0  0
    2.2181   -0.0742   -1.2580 C   0  0  0  0  0  0  0  0  0  0  0  0
    1.7428   -2.2224    0.4117 C   0  0  0  0  0  0  0  0  0  0  0  0
    0.5335    1.4273    2.2870 H   0  0  0  0  0  0  0  0  0  0  0  0
   -2.0962    1.9793    1.7310 H   0  0  0  0  0  0  0  0  0  0  0  0
   -2.3429    2.2242   -0.9584 H   0  0  0  0  0  0  0  0  0  0  0  0
    0.1016    1.8565   -2.0908 H   0  0  0  0  0  0  0  0  0  0  0  0
    3.2010   -0.5768   -1.3210 H   0  0  0  0  0  0  0  0  0  0  0  0
    1.9639    0.3997   -2.2256 H   0  0  0  0  0  0  0  0  0  0  0  0
    0.9952   -2.8965    0.8681 H   0  0  0  0  0  0  0  0  0  0  0  0
    2.1274   -1.5225    1.1787 H   0  0  0  0  0  0  0  0  0  0  0  0
    2.5695   -2.8111   -0.0310 H   0  0  0  0  0  0  0  0  0  0  0  0
  1 10  1  0  0  0  0
  3  8  1  6  0  0  0
  3  4  1  0  0  0  0
  4 11  1  0  0  0  0
  5  4  2  0  0  0  0
  5 12  1  0  0  0  0
  6  5  1  0  0  0  0
  7  6  2  0  0  0  0
  7  3  1  0  0  0  0
  8  2  2  0  0  0  0
  9  1  1  0  0  0  0
  9  8  1  0  0  0  0
 10 17  1  0  0  0  0
 10 18  1  0  0  0  0
 13  6  1  0  0  0  0
 14  7  1  0  0  0  0
 15  9  1  0  0  0  0
 16  9  1  0  0  0  0
 19 10  1  0  0  0  0
M  END
