3
q = -1.0, confidence = 0.042

  8  7  0  0  0  0  0  0  0  0999 V2000
    2.3120    0.0002   -1.1590 C   0  0  0  0  0  0  0  0  0  0  0  0
    3.4039    0.0003   -0.9432 H   0  0  0  0  0  0  0  0  0  0  0  0
    1.4436    0.0001    0.0576 C   0  0  0  0  0  3  0  0  0  0  0  0
    2.0846    0.0002    1.2363 C   0  0  0  0  0  0  0  0  0  0  0  0
    3.4168    0.0003    1.4248 F   0  0  0  0  0  0  0  0  0  0  0  0
    1.5011    0.0001    2.4389 F   0  0  0  0  0  0  0  0  0  0  0  0
    2.0612    1.1070   -1.9503 F   0  0  0  0  0  0  0  0  0  0  0  0
    2.0615   -1.1069   -1.9502 F   0  0  0  0  0  0  0  0  0  0  0  0
  1  2  1  0  0  0  0
  1  3  1  0  0  0  0
  3  4  2  0  0  0  0
  4  5  1  0  0  0  0
  4  6  1  0  0  0  0
  7  1  1  0  0  0  0
  8  1  1  0  0  0  0
M  END
