4
q = 0.0, confidence = 0.996

 62 66  0  0  1  0  0  0  0  0999 V2000
   -1.6706    0.1100    0.1908 P   0  0  0  0  0  0  0  0  0  0  0  0
   -0.1415   -1.8400    1.4791 C   0  0  0  0  0  3  0  0  0  0  0  0
   -0.5887   -2.8544    1.4958 H   0  0  0  0  0  0  0  0  0  0  0  0
    1.2794   -1.8859    1.2021 C   0  0  0  0  0  3  0  0  0  0  0  0
    1.7955   -2.8568    1.1298 H   0  0  0  0  0  0  0  0  0  0  0  0
    2.0288   -0.6978    0.8464 C   0  0  1  0  0  3  0  0  0  0  0  0
    1.2935    0.5611    0.8498 C   0  0  0  0  0  3  0  0  0  0  0  0
    0.6813    0.7379    1.7485 H   0  0  0  0  0  0  0  0  0  0  0  0
   -0.8043   -0.9467    2.4984 C   0  0  0  0  0  0  0  0  0  0  0  0
   -1.6652    0.0720    2.0314 C   0  0  0  0  0  0  0  0  0  0  0  0
   -2.3231    0.9366    2.9207 C   0  0  0  0  0  0  0  0  0  0  0  0
   -2.9627    1.7473    2.5427 H   0  0  0  0  0  0  0  0  0  0  0  0
   -2.1352    0.7727    4.3026 C   0  0  0  0  0  0  0  0  0  0  0  0
   -2.6394    1.4504    5.0081 H   0  0  0  0  0  0  0  0  0  0  0  0
   -1.2975   -0.2485    4.7825 C   0  0  0  0  0  0  0  0  0  0  0  0
   -1.1463   -0.3687    5.8663 H   0  0  0  0  0  0  0  0  0  0  0  0
   -0.6377   -1.1057    3.8870 C   0  0  0  0  0  0  0  0  0  0  0  0
    0.0303   -1.8965    4.2621 H   0  0  0  0  0  0  0  0  0  0  0  0
    3.4928   -0.8330    0.5792 C   0  0  0  0  0  0  0  0  0  0  0  0
    4.3826    0.1481    1.0709 C   0  0  0  0  0  0  0  0  0  0  0  0
    3.9763    1.0218    1.5993 H   0  0  0  0  0  0  0  0  0  0  0  0
    5.7679    0.0185    0.8984 C   0  0  0  0  0  0  0  0  0  0  0  0
    6.4382    0.7997    1.2886 H   0  0  0  0  0  0  0  0  0  0  0  0
    6.2997   -1.0993    0.2373 C   0  0  0  0  0  0  0  0  0  0  0  0
    7.3870   -1.1990    0.0985 H   0  0  0  0  0  0  0  0  0  0  0  0
    5.4300   -2.0932   -0.2403 C   0  0  0  0  0  0  0  0  0  0  0  0
    5.8332   -2.9793   -0.7545 H   0  0  0  0  0  0  0  0  0  0  0  0
    4.0452   -1.9609   -0.0695 C   0  0  0  0  0  0  0  0  0  0  0  0
    3.3769   -2.7458   -0.4530 H   0  0  0  0  0  0  0  0  0  0  0  0
    1.8226    1.8308    0.2973 C   0  0  0  0  0  0  0  0  0  0  0  0
    2.6172    1.9110   -0.8731 C   0  0  0  0  0  0  0  0  0  0  0  0
    2.9028    0.9843   -1.3891 H   0  0  0  0  0  0  0  0  0  0  0  0
    3.0291    3.1464   -1.3851 C   0  0  0  0  0  0  0  0  0  0  0  0
    3.6480    3.1769   -2.2955 H   0  0  0  0  0  0  0  0  0  0  0  0
    2.6566    4.3459   -0.7490 C   0  0  0  0  0  0  0  0  0  0  0  0
    2.9774    5.3161   -1.1579 H   0  0  0  0  0  0  0  0  0  0  0  0
    1.8731    4.2862    0.4129 C   0  0  0  0  0  0  0  0  0  0  0  0
    1.5683    5.2134    0.9226 H   0  0  0  0  0  0  0  0  0  0  0  0
    1.4666    3.0460    0.9276 C   0  0  0  0  0  0  0  0  0  0  0  0
    0.8389    3.0081    1.8322 H   0  0  0  0  0  0  0  0  0  0  0  0
   -3.2250   -0.7891   -0.2697 C   0  0  0  0  0  0  0  0  0  0  0  0
   -3.9550   -0.4438   -1.4258 C   0  0  0  0  0  0  0  0  0  0  0  0
   -3.6691    0.4438   -2.0109 H   0  0  0  0  0  0  0  0  0  0  0  0
   -5.0590   -1.2133   -1.8261 C   0  0  0  0  0  0  0  0  0  0  0  0
   -5.6191   -0.9326   -2.7313 H   0  0  0  0  0  0  0  0  0  0  0  0
   -5.4514   -2.3298   -1.0722 C   0  0  0  0  0  0  0  0  0  0  0  0
   -6.3192   -2.9305   -1.3841 H   0  0  0  0  0  0  0  0  0  0  0  0
   -4.7351   -2.6727    0.0868 C   0  0  0  0  0  0  0  0  0  0  0  0
   -5.0432   -3.5411    0.6891 H   0  0  0  0  0  0  0  0  0  0  0  0
   -3.6274   -1.9106    0.4845 C   0  0  0  0  0  0  0  0  0  0  0  0
   -3.0714   -2.1841    1.3935 H   0  0  0  0  0  0  0  0  0  0  0  0
   -2.0609    1.8358   -0.3259 C   0  0  0  0  0  0  0  0  0  0  0  0
   -1.0996    2.5490   -1.0659 C   0  0  0  0  0  0  0  0  0  0  0  0
   -0.1502    2.0528   -1.3154 H   0  0  0  0  0  0  0  0  0  0  0  0
   -1.3510    3.8716   -1.4641 C   0  0  0  0  0  0  0  0  0  0  0  0
   -0.5829    4.4210   -2.0288 H   0  0  0  0  0  0  0  0  0  0  0  0
   -2.5663    4.4869   -1.1299 C   0  0  0  0  0  0  0  0  0  0  0  0
   -2.7634    5.5249   -1.4391 H   0  0  0  0  0  0  0  0  0  0  0  0
   -3.5390    3.7743   -0.4062 C   0  0  0  0  0  0  0  0  0  0  0  0
   -4.4995    4.2503   -0.1557 H   0  0  0  0  0  0  0  0  0  0  0  0
   -3.2919    2.4528   -0.0089 C   0  0  0  0  0  0  0  0  0  0  0  0
   -4.0705    1.8890    0.5279 H   0  0  0  0  0  0  0  0  0  0  0  0
  1 10  1  0  0  0  0
  2  3  1  0  0  0  0
  2  9  1  0  0  0  0
  4  2  1  0  0  0  0
  5  4  1  0  0  0  0
  6  7  1  1  0  0  0
  6  4  1  0  0  0  0
  7  8  1  0  0  0  0
  9 17  1  0  0  0  0
 10  9  2  0  0  0  0
 10 11  1  0  0  0  0
 11 13  2  0  0  0  0
 12 11  1  0  0  0  0
 13 15  1  0  0  0  0
 13 14  1  0  0  0  0
 15 16  1  0  0  0  0
 17 18  1  0  0  0  0
 17 15  2  0  0  0  0
 19  6  1  0  0  0  0
 19 20  1  0  0  0  0
 20 21  1  0  0  0  0
 22 20  2  0  0  0  0
 22 23  1  0  0  0  0
 24 22  1  0  0  0  0
 25 24  1  0  0  0  0
 26 28  1  0  0  0  0
 26 24  2  0  0  0  0
 27 26  1  0  0  0  0
 28 19  2  0  0  0  0
 29 28  1  0  0  0  0
 30  7  1  0  0  0  0
 30 39  1  0  0  0  0
 31 30  2  0  0  0  0
 32 31  1  0  0  0  0
 33 31  1  0  0  0  0
 33 35  2  0  0  0  0
 34 33  1  0  0  0  0
 35 37  1  0  0  0  0
 36 35  1  0  0  0  0
 37 38  1  0  0  0  0
 37 39  2  0  0  0  0
 39 40  1  0  0  0  0
 41  1  1  0  0  0  0
 41 50  1  0  0  0  0
 42 41  2  0  0  0  0
 43 42  1  0  0  0  0
 44 42  1  0  0  0  0
 44 46  2  0  0  0  0
 45 44  1  0  0  0  0
 46 48  1  0  0  0  0
 47 46  1  0  0  0  0
 48 50  2  0  0  0  0
 48 49  1  0  0  0  0
 50 51  1  0  0  0  0
 52 61  1  0  0  0  0
 52  1  1  0  0  0  0
 53 52  2  0  0  0  0
 54 53  1  0  0  0  0
 55 57  2  0  0  0  0
 55 53  1  0  0  0  0
 56 55  1  0  0  0  0
 57 59  1  0  0  0  0
 58 57  1  0  0  0  0
 59 60  1  0  0  0  0
 59 61  2  0  0  0  0
 61 62  1  0  0  0  0
M  END
