3
q = 0.0, confidence = 0.998

 60 63  0  0  0  0  0  0  0  0999 V2000
   -2.4158   -0.7004   -0.7074 P   0  0  2  0  0  0  0  0  0  0  0  0
    1.5145    1.2864   -2.0893 O   0  0  0  0  0  0  0  0  0  0  0  0
    1.6450    0.3336   -1.1715 C   0  0  0  0  0  2  0  0  0  0  0  0
    2.6109    2.1163   -2.4699 C   0  0  0  0  0  0  0  0  0  0  0  0
    0.3620   -0.2755   -0.8717 C   0  0  0  0  0  0  0  0  0  0  0  0
   -0.8867    0.3106   -0.8772 C   0  0  0  0  0  0  0  0  0  0  0  0
   -3.2714    0.0620    0.7450 C   0  0  0  0  0  0  0  0  0  0  0  0
   -4.6262   -0.0618    0.9046 C   0  0  0  0  0  0  0  0  0  0  0  0
   -5.6169   -0.7977    0.1167 C   0  0  0  0  0  0  0  0  0  0  0  0
   -5.3326   -1.9684   -0.6297 C   0  0  0  0  0  0  0  0  0  0  0  0
   -6.3284   -2.5889   -1.3966 C   0  0  0  0  0  0  0  0  0  0  0  0
   -7.6314   -2.0686   -1.4270 C   0  0  0  0  0  0  0  0  0  0  0  0
   -7.9404   -0.9285   -0.6654 C   0  0  0  0  0  0  0  0  0  0  0  0
   -6.9492   -0.3100    0.1035 C   0  0  0  0  0  0  0  0  0  0  0  0
   -1.1517    1.7584   -0.9958 C   0  0  0  0  0  0  0  0  0  0  0  0
   -0.3541    2.6881   -0.2832 C   0  0  0  0  0  0  0  0  0  0  0  0
   -0.6617    4.0476   -0.2907 C   0  0  0  0  0  0  0  0  0  0  0  0
   -1.7752    4.5460   -1.0051 C   0  0  0  0  0  0  0  0  0  0  0  0
   -2.5654    3.6219   -1.7139 C   0  0  0  0  0  0  0  0  0  0  0  0
   -2.2682    2.2520   -1.7056 C   0  0  0  0  0  0  0  0  0  0  0  0
   -2.1063    6.0156   -0.9812 C   0  0  0  0  0  0  0  0  0  0  0  0
   -1.8022   -2.3351   -0.1264 C   0  0  0  0  0  0  0  0  0  0  0  0
   -2.0130   -2.8126    1.1840 C   0  0  0  0  0  0  0  0  0  0  0  0
   -1.5105   -4.0647    1.5693 C   0  0  0  0  0  0  0  0  0  0  0  0
   -0.7901   -4.8509    0.6565 C   0  0  0  0  0  0  0  0  0  0  0  0
   -0.5948   -4.3932   -0.6569 C   0  0  0  0  0  0  0  0  0  0  0  0
   -1.1141   -3.1526   -1.0528 C   0  0  0  0  0  0  0  0  0  0  0  0
   -2.5029    0.9483    1.6603 C   0  0  0  0  0  0  0  0  0  0  0  0
   -1.2730    0.5359    2.2222 C   0  0  0  0  0  0  0  0  0  0  0  0
   -0.5532    1.3854    3.0728 C   0  0  0  0  0  0  0  0  0  0  0  0
   -1.0398    2.6689    3.3699 C   0  0  0  0  0  0  0  0  0  0  0  0
   -2.2569    3.0935    2.8133 C   0  0  0  0  0  0  0  0  0  0  0  0
   -2.9811    2.2425    1.9678 C   0  0  0  0  0  0  0  0  0  0  0  0
    2.1768    2.9320   -3.0766 H   0  0  0  0  0  0  0  0  0  0  0  0
    3.3369    1.5409   -3.0770 H   0  0  0  0  0  0  0  0  0  0  0  0
    3.1216    2.5325   -1.5804 H   0  0  0  0  0  0  0  0  0  0  0  0
    0.4282   -1.3184   -0.5265 H   0  0  0  0  0  0  0  0  0  0  0  0
   -5.0565    0.5096    1.7477 H   0  0  0  0  0  0  0  0  0  0  0  0
   -4.3391   -2.4322   -0.5719 H   0  0  0  0  0  0  0  0  0  0  0  0
   -6.0844   -3.5001   -1.9635 H   0  0  0  0  0  0  0  0  0  0  0  0
   -8.4107   -2.5611   -2.0281 H   0  0  0  0  0  0  0  0  0  0  0  0
   -8.9634   -0.5225   -0.6688 H   0  0  0  0  0  0  0  0  0  0  0  0
   -7.1945    0.5840    0.6983 H   0  0  0  0  0  0  0  0  0  0  0  0
    0.4888    2.3217    0.3204 H   0  0  0  0  0  0  0  0  0  0  0  0
   -0.0368    4.7422    0.2930 H   0  0  0  0  0  0  0  0  0  0  0  0
   -3.4370    3.9812   -2.2836 H   0  0  0  0  0  0  0  0  0  0  0  0
   -2.9045    1.5500   -2.2663 H   0  0  0  0  0  0  0  0  0  0  0  0
   -1.2471    6.6301   -1.3221 H   0  0  0  0  0  0  0  0  0  0  0  0
   -2.3488    6.3531    0.0488 H   0  0  0  0  0  0  0  0  0  0  0  0
   -2.9734    6.2521   -1.6275 H   0  0  0  0  0  0  0  0  0  0  0  0
   -2.5714   -2.1974    1.9057 H   0  0  0  0  0  0  0  0  0  0  0  0
   -1.6751   -4.4228    2.5969 H   0  0  0  0  0  0  0  0  0  0  0  0
   -0.3842   -5.8254    0.9669 H   0  0  0  0  0  0  0  0  0  0  0  0
   -0.0330   -5.0039   -1.3794 H   0  0  0  0  0  0  0  0  0  0  0  0
   -0.9708   -2.8057   -2.0883 H   0  0  0  0  0  0  0  0  0  0  0  0
   -0.8738   -0.4616    1.9943 H   0  0  0  0  0  0  0  0  0  0  0  0
    0.3978    1.0358    3.5018 H   0  0  0  0  0  0  0  0  0  0  0  0
   -0.4665    3.3399    4.0275 H   0  0  0  0  0  0  0  0  0  0  0  0
   -2.6382    4.1045    3.0241 H   0  0  0  0  0  0  0  0  0  0  0  0
   -3.9106    2.5953    1.4965 H   0  0  0  0  0  0  0  0  0  0  0  0
  1  6  1  1  0  0  0
  1 22  1  0  0  0  0
  1  7  1  0  0  0  0
  2  3  1  0  0  0  0
  3  5  1  0  0  0  0
  4  2  1  0  0  0  0
  4 36  1  0  0  0  0
  5 37  1  0  0  0  0
  6  5  2  0  0  0  0
  7  8  2  0  0  0  0
  7 28  1  0  0  0  0
  8 38  1  0  0  0  0
  9  8  1  0  0  0  0
 10 39  1  0  0  0  0
 10  9  2  0  0  0  0
 11 10  1  0  0  0  0
 12 11  2  0  0  0  0
 12 13  1  0  0  0  0
 13 14  2  0  0  0  0
 14  9  1  0  0  0  0
 14 43  1  0  0  0  0
 15  6  1  0  0  0  0
 15 16  1  0  0  0  0
 16 44  1  0  0  0  0
 17 16  2  0  0  0  0
 17 45  1  0  0  0  0
 18 21  1  0  0  0  0
 18 17  1  0  0  0  0
 19 20  1  0  0  0  0
 19 18  2  0  0  0  0
 20 15  2  0  0  0  0
 21 49  1  0  0  0  0
 22 23  1  0  0  0  0
 23 24  2  0  0  0  0
 23 51  1  0  0  0  0
 24 52  1  0  0  0  0
 25 53  1  0  0  0  0
 25 24  1  0  0  0  0
 26 25  2  0  0  0  0
 27 26  1  0  0  0  0
 27 22  2  0  0  0  0
 28 33  2  0  0  0  0
 28 29  1  0  0  0  0
 29 30  2  0  0  0  0
 30 31  1  0  0  0  0
 30 57  1  0  0  0  0
 31 58  1  0  0  0  0
 32 59  1  0  0  0  0
 32 31  2  0  0  0  0
 33 32  1  0  0  0  0
 34  4  1  0  0  0  0
 35  4  1  0  0  0  0
 40 11  1  0  0  0  0
 41 12  1  0  0  0  0
 42 13  1  0  0  0  0
 46 19  1  0  0  0  0
 47 20  1  0  0  0  0
 48 21  1  0  0  0  0
 50 21  1  0  0  0  0
 54 26  1  0  0  0  0
 55 27  1  0  0  0  0
 56 29  1  0  0  0  0
 60 33  1  0  0  0  0
M  END
