24
q = 0.0, confidence = 0.988

 65 70  0  0  1  0  0  0  0  0999 V2000
    2.4858    1.0002   -1.0525 P   0  0  1  0  0  0  0  0  0  0  0  0
    2.5756   -0.7530   -0.3191 C   0  0  1  0  0  0  0  0  0  0  0  0
    1.1059   -1.1721   -0.1379 C   0  0  2  0  0  0  0  0  0  0  0  0
    0.3344    0.1087    0.2587 C   0  0  0  0  0  0  0  0  0  0  0  0
    0.9484    1.2949   -0.0638 C   0  0  0  0  0  0  0  0  0  0  0  0
    3.8230    1.8027   -0.0554 C   0  0  0  0  0  0  0  0  0  0  0  0
    3.6582    2.2126    1.2845 C   0  0  0  0  0  0  0  0  0  0  0  0
    4.7322    2.7717    1.9921 C   0  0  0  0  0  0  0  0  0  0  0  0
    5.9858    2.9174    1.3743 C   0  0  0  0  0  0  0  0  0  0  0  0
    6.1599    2.5093    0.0425 C   0  0  0  0  0  0  0  0  0  0  0  0
    5.0813    1.9647   -0.6722 C   0  0  0  0  0  0  0  0  0  0  0  0
    3.4517   -1.6914   -1.1082 C   0  0  0  0  0  0  0  0  0  0  0  0
    4.7811   -1.9137   -0.6931 C   0  0  0  0  0  0  0  0  0  0  0  0
    5.6370   -2.7482   -1.4273 C   0  0  0  0  0  0  0  0  0  0  0  0
    5.1745   -3.3787   -2.5922 C   0  0  0  0  0  0  0  0  0  0  0  0
    3.8535   -3.1626   -3.0176 C   0  0  0  0  0  0  0  0  0  0  0  0
    3.0009   -2.3248   -2.2856 C   0  0  0  0  0  0  0  0  0  0  0  0
    0.8943   -2.3760    0.7783 C   0  0  0  0  0  0  0  0  0  0  0  0
    1.8519   -2.7883    1.7273 C   0  0  0  0  0  0  0  0  0  0  0  0
    1.5889   -3.8562    2.6009 C   0  0  0  0  0  0  0  0  0  0  0  0
    0.3609   -4.5329    2.5444 C   0  0  0  0  0  0  0  0  0  0  0  0
   -0.5912   -4.1516    1.5847 C   0  0  0  0  0  0  0  0  0  0  0  0
   -0.3172   -3.0947    0.7056 C   0  0  0  0  0  0  0  0  0  0  0  0
   -1.0501   -0.0789    0.7525 C   0  0  0  0  0  2  0  0  0  0  0  0
   -1.1495   -0.2526    2.0634 N   0  0  0  0  0  0  0  0  0  0  0  0
   -0.0230   -0.1053    3.0303 C   0  0  0  0  0  0  0  0  0  0  0  0
   -0.6836   -0.1990    4.4069 C   0  0  0  0  0  0  0  0  0  0  0  0
   -1.8856   -1.1151    4.1425 C   0  0  0  0  0  0  0  0  0  0  0  0
   -2.3856   -0.6167    2.7869 C   0  0  0  0  0  0  0  0  0  0  0  0
    0.4168    2.6564    0.1120 C   0  0  0  0  0  0  0  0  0  0  0  0
   -0.6663    2.9578    0.9757 C   0  0  0  0  0  0  0  0  0  0  0  0
   -1.1770    4.2583    1.0745 C   0  0  0  0  0  0  0  0  0  0  0  0
   -0.6112    5.3019    0.3261 C   0  0  0  0  0  0  0  0  0  0  0  0
    0.4777    5.0297   -0.5180 C   0  0  0  0  0  0  0  0  0  0  0  0
    0.9846    3.7298   -0.6189 C   0  0  0  0  0  0  0  0  0  0  0  0
    3.0217   -0.5942    0.6834 H   0  0  0  0  0  0  0  0  0  0  0  0
    0.7000   -1.4658   -1.1298 H   0  0  0  0  0  0  0  0  0  0  0  0
    2.6773    2.0965    1.7713 H   0  0  0  0  0  0  0  0  0  0  0  0
    4.5905    3.0980    3.0341 H   0  0  0  0  0  0  0  0  0  0  0  0
    6.8278    3.3553    1.9319 H   0  0  0  0  0  0  0  0  0  0  0  0
    7.1394    2.6230   -0.4467 H   0  0  0  0  0  0  0  0  0  0  0  0
    5.2130    1.6562   -1.7218 H   0  0  0  0  0  0  0  0  0  0  0  0
    5.1471   -1.4169    0.2198 H   0  0  0  0  0  0  0  0  0  0  0  0
    6.6705   -2.9091   -1.0841 H   0  0  0  0  0  0  0  0  0  0  0  0
    5.8412   -4.0381   -3.1684 H   0  0  0  0  0  0  0  0  0  0  0  0
    3.4815   -3.6512   -3.9312 H   0  0  0  0  0  0  0  0  0  0  0  0
    1.9720   -2.1610   -2.6417 H   0  0  0  0  0  0  0  0  0  0  0  0
    2.8228   -2.2759    1.7883 H   0  0  0  0  0  0  0  0  0  0  0  0
    2.3549   -4.1625    3.3296 H   0  0  0  0  0  0  0  0  0  0  0  0
    0.1541   -5.3667    3.2323 H   0  0  0  0  0  0  0  0  0  0  0  0
   -1.5533   -4.6812    1.5102 H   0  0  0  0  0  0  0  0  0  0  0  0
   -1.0654   -2.8072   -0.0460 H   0  0  0  0  0  0  0  0  0  0  0  0
    0.5048    0.8481    2.8356 H   0  0  0  0  0  0  0  0  0  0  0  0
    0.6924   -0.9343    2.8617 H   0  0  0  0  0  0  0  0  0  0  0  0
    0.0107   -0.5890    5.1754 H   0  0  0  0  0  0  0  0  0  0  0  0
   -1.0296    0.8018    4.7406 H   0  0  0  0  0  0  0  0  0  0  0  0
   -1.5514   -2.1703    4.0538 H   0  0  0  0  0  0  0  0  0  0  0  0
   -2.6664   -1.0646    4.9250 H   0  0  0  0  0  0  0  0  0  0  0  0
   -2.9474   -1.3638    2.2011 H   0  0  0  0  0  0  0  0  0  0  0  0
   -3.0259    0.2847    2.8929 H   0  0  0  0  0  0  0  0  0  0  0  0
   -1.1301    2.1651    1.5738 H   0  0  0  0  0  0  0  0  0  0  0  0
   -2.0315    4.4526    1.7404 H   0  0  0  0  0  0  0  0  0  0  0  0
   -1.0145    6.3228    0.4022 H   0  0  0  0  0  0  0  0  0  0  0  0
    0.9333    5.8373   -1.1104 H   0  0  0  0  0  0  0  0  0  0  0  0
    1.8248    3.5300   -1.3022 H   0  0  0  0  0  0  0  0  0  0  0  0
  1  2  1  0  0  0  0
  1  5  1  0  0  0  0
  1  6  1  1  0  0  0
  2  3  1  0  0  0  0
  2 36  1  1  0  0  0
  3 37  1  6  0  0  0
  3  4  1  0  0  0  0
  3 18  1  0  0  0  0
  4 24  1  0  0  0  0
  5 30  1  0  0  0  0
  5  4  2  0  0  0  0
  6  7  1  0  0  0  0
  7 38  1  0  0  0  0
  7  8  2  0  0  0  0
  8 39  1  0  0  0  0
  9 40  1  0  0  0  0
  9  8  1  0  0  0  0
 10  9  2  0  0  0  0
 11  6  2  0  0  0  0
 11 10  1  0  0  0  0
 12 13  1  0  0  0  0
 12  2  1  0  0  0  0
 13 43  1  0  0  0  0
 14 44  1  0  0  0  0
 14 13  2  0  0  0  0
 15 14  1  0  0  0  0
 16 15  2  0  0  0  0
 16 17  1  0  0  0  0
 17 12  2  0  0  0  0
 18 19  1  0  0  0  0
 19 48  1  0  0  0  0
 19 20  2  0  0  0  0
 20 49  1  0  0  0  0
 21 20  1  0  0  0  0
 21 50  1  0  0  0  0
 22 21  2  0  0  0  0
 23 18  2  0  0  0  0
 23 22  1  0  0  0  0
 24 25  1  0  0  0  0
 25 29  1  0  0  0  0
 25 26  1  0  0  0  0
 26 27  1  0  0  0  0
 27 56  1  0  0  0  0
 27 55  1  0  0  0  0
 28 27  1  0  0  0  0
 28 58  1  0  0  0  0
 29 60  1  0  0  0  0
 29 28  1  0  0  0  0
 30 31  1  0  0  0  0
 31 32  2  0  0  0  0
 31 61  1  0  0  0  0
 32 62  1  0  0  0  0
 33 63  1  0  0  0  0
 33 32  1  0  0  0  0
 34 33  2  0  0  0  0
 35 34  1  0  0  0  0
 35 30  2  0  0  0  0
 41 10  1  0  0  0  0
 42 11  1  0  0  0  0
 45 15  1  0  0  0  0
 46 16  1  0  0  0  0
 47 17  1  0  0  0  0
 51 22  1  0  0  0  0
 52 23  1  0  0  0  0
 53 26  1  0  0  0  0
 54 26  1  0  0  0  0
 57 28  1  0  0  0  0
 59 29  1  0  0  0  0
 64 34  1  0  0  0  0
 65 35  1  0  0  0  0
M  END
