7
q = -1.0, confidence = 0.026

 34 34  0  0  0  0  0  0  0  0999 V2000
    0.2064    1.5609    0.2045 N   0  0  0  0  0  0  0  0  0  0  0  0
    6.0838   -0.5685   -0.5127 O   0  0  0  0  0  0  0  0  0  0  0  0
   -0.6260    2.5090   -0.6194 C   0  0  0  0  0  0  0  0  0  0  0  0
   -2.1313    2.4186   -0.3299 C   0  0  0  0  0  0  0  0  0  0  0  0
   -2.5822    0.9781   -0.3980 C   0  0  0  0  0  0  0  0  0  0  0  0
   -2.4416    0.1295   -1.5521 C   0  0  0  0  0  3  0  0  0  0  0  0
   -2.6359   -1.2360   -1.1109 C   0  0  0  0  0  3  0  0  0  0  0  0
   -2.9530   -1.2129    0.2935 C   0  0  0  0  0  3  0  0  0  0  0  0
   -2.9582    0.1688    0.7286 C   0  0  0  0  0  0  0  0  0  0  0  0
    1.5966    1.6035   -0.3555 C   0  0  0  0  0  0  0  0  0  0  0  0
    2.6304    0.7711    0.3963 C   0  0  0  0  0  0  0  0  0  0  0  0
    3.8716    0.5049   -0.4595 C   0  0  0  0  0  0  0  0  0  0  0  0
    4.9594   -0.2667    0.2908 C   0  0  0  0  0  0  0  0  0  0  0  0
    0.2206    2.0177    1.6162 C   0  0  0  0  0  0  0  0  0  0  0  0
    6.4603    0.2806   -0.8083 H   0  0  0  0  0  0  0  0  0  0  0  0
   -0.4425    2.2338   -1.6763 H   0  0  0  0  0  0  0  0  0  0  0  0
   -0.2466    3.5477   -0.4723 H   0  0  0  0  0  0  0  0  0  0  0  0
   -2.6607    3.0446   -1.0785 H   0  0  0  0  0  0  0  0  0  0  0  0
   -2.3771    2.8446    0.6631 H   0  0  0  0  0  0  0  0  0  0  0  0
   -2.2123    0.4548   -2.5736 H   0  0  0  0  0  0  0  0  0  0  0  0
   -2.6211   -2.1256   -1.7508 H   0  0  0  0  0  0  0  0  0  0  0  0
   -3.2188   -2.0817    0.9062 H   0  0  0  0  0  0  0  0  0  0  0  0
   -3.1770    0.5337    1.7390 H   0  0  0  0  0  0  0  0  0  0  0  0
    1.5156    1.2424   -1.3991 H   0  0  0  0  0  0  0  0  0  0  0  0
    1.9232    2.6716   -0.3924 H   0  0  0  0  0  0  0  0  0  0  0  0
    2.1664   -0.1953    0.6817 H   0  0  0  0  0  0  0  0  0  0  0  0
    2.9282    1.2783    1.3392 H   0  0  0  0  0  0  0  0  0  0  0  0
    4.2995    1.4695   -0.8221 H   0  0  0  0  0  0  0  0  0  0  0  0
    3.5869   -0.0780   -1.3610 H   0  0  0  0  0  0  0  0  0  0  0  0
    4.5501   -1.2421    0.6298 H   0  0  0  0  0  0  0  0  0  0  0  0
    5.2422    0.2948    1.2187 H   0  0  0  0  0  0  0  0  0  0  0  0
    0.6669    3.0368    1.6933 H   0  0  0  0  0  0  0  0  0  0  0  0
   -0.8093    2.0353    2.0124 H   0  0  0  0  0  0  0  0  0  0  0  0
    0.8008    1.3084    2.2292 H   0  0  0  0  0  0  0  0  0  0  0  0
  1 14  1  0  0  0  0
  2 13  1  0  0  0  0
  3 17  1  0  0  0  0
  3  4  1  0  0  0  0
  3  1  1  0  0  0  0
  4 19  1  0  0  0  0
  5  4  1  0  0  0  0
  5  9  2  0  0  0  0
  6  7  1  0  0  0  0
  6  5  1  0  0  0  0
  7  8  1  0  0  0  0
  8  9  1  0  0  0  0
  8 22  1  0  0  0  0
  9 23  1  0  0  0  0
 10  1  1  0  0  0  0
 10 11  1  0  0  0  0
 11 26  1  0  0  0  0
 11 27  1  0  0  0  0
 12 13  1  0  0  0  0
 12 11  1  0  0  0  0
 13 30  1  0  0  0  0
 13 31  1  0  0  0  0
 14 32  1  0  0  0  0
 14 33  1  0  0  0  0
 14 34  1  0  0  0  0
 15  2  1  0  0  0  0
 16  3  1  0  0  0  0
 18  4  1  0  0  0  0
 20  6  1  0  0  0  0
 21  7  1  0  0  0  0
 24 10  1  0  0  0  0
 25 10  1  0  0  0  0
 28 12  1  0  0  0  0
 29 12  1  0  0  0  0
M  END
