1
q = -1.0, confidence = 0.0

 21 21  0  0  1  0  0  0  0  0999 V2000
   -0.9767    1.0770    0.3548 C   0  0  0  0  0  3  0  0  0  0  0  0
   -2.2080    0.6827   -0.4334 C   0  0  2  0  0  0  0  0  0  0  0  0
   -3.3896    1.6647   -0.2422 C   0  0  2  0  0  0  0  0  0  0  0  0
   -4.6239    0.7334   -0.2901 C   0  0  2  0  0  0  0  0  0  0  0  0
   -4.0540   -0.4954    0.4165 C   0  0  1  0  0  0  0  0  0  0  0  0
   -3.5289   -1.2400    2.6027 C   0  0  0  0  0  0  0  0  0  0  0  0
   -2.7271   -0.6160   -0.0545 O   0  0  0  0  0  0  0  0  0  0  0  0
   -3.3898    2.6045   -1.3123 O   0  0  0  0  0  0  0  0  0  0  0  0
   -4.9340    0.4348   -1.6295 O   0  0  0  0  0  0  0  0  0  0  0  0
   -4.1272   -0.2379    1.8003 O   0  0  0  0  0  0  0  0  0  0  0  0
   -0.7687    2.1462    0.1428 H   0  0  0  0  0  0  0  0  0  0  0  0
   -1.1841    0.9635    1.4395 H   0  0  0  0  0  0  0  0  0  0  0  0
   -1.9896    0.6555   -1.5232 H   0  0  0  0  0  0  0  0  0  0  0  0
   -3.3243    2.1627    0.7487 H   0  0  0  0  0  0  0  0  0  0  0  0
   -5.4969    1.1415    0.2731 H   0  0  0  0  0  0  0  0  0  0  0  0
   -4.5740   -1.4498    0.1597 H   0  0  0  0  0  0  0  0  0  0  0  0
   -3.7575   -0.9940    3.6576 H   0  0  0  0  0  0  0  0  0  0  0  0
   -2.4258   -1.2828    2.4720 H   0  0  0  0  0  0  0  0  0  0  0  0
   -3.9496   -2.2498    2.3739 H   0  0  0  0  0  0  0  0  0  0  0  0
   -3.9240    3.3700   -1.0318 H   0  0  0  0  0  0  0  0  0  0  0  0
   -4.5675    1.1966   -2.1328 H   0  0  0  0  0  0  0  0  0  0  0  0
  1 12  1  0  0  0  0
  2 13  1  6  0  0  0
  2  3  1  0  0  0  0
  2  7  1  0  0  0  0
  2  1  1  0  0  0  0
  3 14  1  1  0  0  0
  4  3  1  0  0  0  0
  4 15  1  1  0  0  0
  4  5  1  0  0  0  0
  5 16  1  6  0  0  0
  5 10  1  0  0  0  0
  6 17  1  0  0  0  0
  7  5  1  0  0  0  0
  8 20  1  0  0  0  0
  8  3  1  0  0  0  0
  9  4  1  0  0  0  0
 10  6  1  0  0  0  0
 11  1  1  0  0  0  0
 18  6  1  0  0  0  0
 19  6  1  0  0  0  0
 21  9  1  0  0  0  0
M  END
