1
q = -1.0, confidence = 0.034

 28 29  0  0  0  0  0  0  0  0999 V2000
   -0.2787    1.1284    0.4762 C   0  0  0  0  0  2  0  0  0  0  0  0
    0.6410    2.2176    0.9145 C   0  0  0  0  0  0  0  0  0  0  0  0
    0.7818    3.3766    0.1076 C   0  0  0  0  0  0  0  0  0  0  0  0
    1.6709    4.4048    0.4519 C   0  0  0  0  0  0  0  0  0  0  0  0
    2.4234    4.3244    1.6344 C   0  0  0  0  0  0  0  0  0  0  0  0
    2.2669    3.2055    2.4686 C   0  0  0  0  0  0  0  0  0  0  0  0
    1.3923    2.1712    2.1122 C   0  0  0  0  0  0  0  0  0  0  0  0
   -1.9909   -0.6674   -0.4763 C   0  0  0  0  0  3  0  0  0  0  0  0
   -2.5557    0.7235   -0.3603 C   0  0  0  0  0  0  0  0  0  0  0  0
   -3.9468    1.0882   -0.6634 C   0  0  0  0  0  0  0  0  0  0  0  0
   -4.7377    0.3187   -1.5568 C   0  0  0  0  0  0  0  0  0  0  0  0
   -6.0571    0.6907   -1.8474 C   0  0  0  0  0  0  0  0  0  0  0  0
   -6.6273    1.8288   -1.2559 C   0  0  0  0  0  0  0  0  0  0  0  0
   -5.8634    2.5942   -0.3574 C   0  0  0  0  0  0  0  0  0  0  0  0
   -4.5464    2.2268   -0.0627 C   0  0  0  0  0  0  0  0  0  0  0  0
   -1.6003    1.6028    0.0983 C   0  0  0  0  0  0  0  0  0  0  0  0
   -2.6592   -1.6007   -0.9205 O   0  0  0  0  0  0  0  0  0  0  0  0
    0.2043    3.4540   -0.8259 H   0  0  0  0  0  0  0  0  0  0  0  0
    1.7760    5.2767   -0.2123 H   0  0  0  0  0  0  0  0  0  0  0  0
    3.1208    5.1304    1.9077 H   0  0  0  0  0  0  0  0  0  0  0  0
    2.8355    3.1350    3.4085 H   0  0  0  0  0  0  0  0  0  0  0  0
    1.2787    1.3009    2.7711 H   0  0  0  0  0  0  0  0  0  0  0  0
   -4.2984   -0.5814   -2.0038 H   0  0  0  0  0  0  0  0  0  0  0  0
   -6.6486    0.0806   -2.5475 H   0  0  0  0  0  0  0  0  0  0  0  0
   -7.6647    2.1156   -1.4862 H   0  0  0  0  0  0  0  0  0  0  0  0
   -6.3032    3.4806    0.1252 H   0  0  0  0  0  0  0  0  0  0  0  0
   -3.9712    2.8193    0.6648 H   0  0  0  0  0  0  0  0  0  0  0  0
   -1.8296    2.6786    0.2024 H   0  0  0  0  0  0  0  0  0  0  0  0
  1  2  1  0  0  0  0
  2  7  1  0  0  0  0
  3  4  1  0  0  0  0
  3  2  2  0  0  0  0
  4  5  2  0  0  0  0
  5 20  1  0  0  0  0
  5  6  1  0  0  0  0
  6 21  1  0  0  0  0
  7  6  2  0  0  0  0
  7 22  1  0  0  0  0
  8  9  1  0  0  0  0
  9 16  2  0  0  0  0
 10  9  1  0  0  0  0
 10 15  1  0  0  0  0
 11 10  2  0  0  0  0
 12 11  1  0  0  0  0
 12 13  2  0  0  0  0
 13 14  1  0  0  0  0
 14 15  2  0  0  0  0
 14 26  1  0  0  0  0
 15 27  1  0  0  0  0
 16 28  1  0  0  0  0
 16  1  1  0  0  0  0
 17  8  2  0  0  0  0
 18  3  1  0  0  0  0
 19  4  1  0  0  0  0
 23 11  1  0  0  0  0
 24 12  1  0  0  0  0
 25 13  1  0  0  0  0
M  END
