3
q = -1.0, confidence = 0.0

 13 12  0  0  0  0  0  0  0  0999 V2000
    1.1662   -2.4590    1.5206 O   0  0  0  0  0  0  0  0  0  0  0  0
    1.7894   -2.3920   -0.6677 O   0  0  0  0  0  0  0  0  0  0  0  0
    1.1005   -1.8911    0.4329 C   0  0  0  0  0  3  0  0  0  0  0  0
    2.5371   -3.6354   -0.5162 C   0  0  0  0  0  0  0  0  0  0  0  0
    2.0782   -4.1902    0.3296 H   0  0  0  0  0  0  0  0  0  0  0  0
    2.3804   -4.4018   -1.8220 C   0  0  0  0  0  0  0  0  0  0  0  0
    1.3143   -4.6180   -2.0315 H   0  0  0  0  0  0  0  0  0  0  0  0
    2.9266   -5.3657   -1.7763 H   0  0  0  0  0  0  0  0  0  0  0  0
    2.7847   -3.8135   -2.6712 H   0  0  0  0  0  0  0  0  0  0  0  0
    3.9895   -3.3177   -0.1774 C   0  0  0  0  0  0  0  0  0  0  0  0
    4.4507   -2.7003   -0.9762 H   0  0  0  0  0  0  0  0  0  0  0  0
    4.5810   -4.2511   -0.0799 H   0  0  0  0  0  0  0  0  0  0  0  0
    4.0582   -2.7669    0.7794 H   0  0  0  0  0  0  0  0  0  0  0  0
  2  4  1  0  0  0  0
  2  3  1  0  0  0  0
  3  1  2  0  0  0  0
  4 10  1  0  0  0  0
  4  5  1  0  0  0  0
  6  8  1  0  0  0  0
  6  4  1  0  0  0  0
  7  6  1  0  0  0  0
  9  6  1  0  0  0  0
 10 12  1  0  0  0  0
 10 13  1  0  0  0  0
 11 10  1  0  0  0  0
M  END
