2
q = -1.0, confidence = 0.008

 43 46  0  0  1  0  0  0  0  0999 V2000
   -0.3891   -0.7417   -0.9791 C   0  0  0  0  0  0  0  0  0  0  0  0
   -0.1669   -1.1672    0.4020 C   0  0  2  0  0  3  0  0  0  0  0  0
   -0.8963   -0.2657    1.2469 C   0  0  0  0  0  0  0  0  0  0  0  0
   -1.5951    0.7035    0.4387 C   0  0  0  0  0  0  0  0  0  0  0  0
   -1.2525    0.3984   -0.9331 C   0  0  0  0  0  0  0  0  0  0  0  0
    0.3677   -1.4404   -2.4156 S   0  0  0  0  0  0  0  0  0  0  0  0
    3.1070   -1.5130   -1.9890 C   0  0  0  0  0  0  0  0  0  0  0  0
    4.3764   -0.9357   -1.8355 C   0  0  0  0  0  0  0  0  0  0  0  0
    4.5307    0.4576   -1.8984 C   0  0  0  0  0  0  0  0  0  0  0  0
    3.4140    1.2787   -2.1278 C   0  0  0  0  0  0  0  0  0  0  0  0
    2.1439    0.7108   -2.3003 C   0  0  0  0  0  0  0  0  0  0  0  0
    1.9925   -0.6875   -2.2210 C   0  0  0  0  0  0  0  0  0  0  0  0
    0.9050   -2.4517    0.9414 S   0  0  0  0  0  0  0  0  0  0  0  0
    3.4983   -2.2767    1.7584 C   0  0  0  0  0  0  0  0  0  0  0  0
    4.7060   -1.6316    2.0577 C   0  0  0  0  0  0  0  0  0  0  0  0
    4.8254   -0.2396    1.9143 C   0  0  0  0  0  0  0  0  0  0  0  0
    3.7220    0.5013    1.4649 C   0  0  0  0  0  0  0  0  0  0  0  0
    2.5075   -0.1307    1.1634 C   0  0  0  0  0  0  0  0  0  0  0  0
    2.3927   -1.5256    1.3091 C   0  0  0  0  0  0  0  0  0  0  0  0
   -0.8176   -0.2372    2.9631 Cl  0  0  0  0  0  0  0  0  0  0  0  0
   -2.4855    2.1217    0.9931 S   0  0  0  0  0  0  0  0  0  0  0  0
    0.0840    3.1562    1.3692 C   0  0  0  0  0  0  0  0  0  0  0  0
    1.1152    4.0727    1.1192 C   0  0  0  0  0  0  0  0  0  0  0  0
    0.9009    5.1629    0.2586 C   0  0  0  0  0  0  0  0  0  0  0  0
   -0.3487    5.3312   -0.3582 C   0  0  0  0  0  0  0  0  0  0  0  0
   -1.3791    4.4036   -0.1364 C   0  0  0  0  0  0  0  0  0  0  0  0
   -1.1609    3.3162    0.7281 C   0  0  0  0  0  0  0  0  0  0  0  0
   -1.7006    1.3648   -2.2822 Cl  0  0  0  0  0  0  0  0  0  0  0  0
    2.9653   -2.5998   -1.9016 H   0  0  0  0  0  0  0  0  0  0  0  0
    5.2463   -1.5798   -1.6385 H   0  0  0  0  0  0  0  0  0  0  0  0
    5.5256    0.9067   -1.7599 H   0  0  0  0  0  0  0  0  0  0  0  0
    3.5302    2.3723   -2.1771 H   0  0  0  0  0  0  0  0  0  0  0  0
    1.2654    1.3452   -2.4899 H   0  0  0  0  0  0  0  0  0  0  0  0
    3.4115   -3.3687    1.8710 H   0  0  0  0  0  0  0  0  0  0  0  0
    5.5624   -2.2275    2.4085 H   0  0  0  0  0  0  0  0  0  0  0  0
    5.7753    0.2633    2.1484 H   0  0  0  0  0  0  0  0  0  0  0  0
    3.8017    1.5912    1.3323 H   0  0  0  0  0  0  0  0  0  0  0  0
    1.6650    0.4676    0.7918 H   0  0  0  0  0  0  0  0  0  0  0  0
    0.2389    2.3175    2.0641 H   0  0  0  0  0  0  0  0  0  0  0  0
    2.0889    3.9409    1.6161 H   0  0  0  0  0  0  0  0  0  0  0  0
    1.7098    5.8849    0.0711 H   0  0  0  0  0  0  0  0  0  0  0  0
   -0.5208    6.1826   -1.0341 H   0  0  0  0  0  0  0  0  0  0  0  0
   -2.3492    4.5064   -0.6444 H   0  0  0  0  0  0  0  0  0  0  0  0
  1  5  2  0  0  0  0
  1  2  1  0  0  0  0
  2 13  1  1  0  0  0
  2  3  1  0  0  0  0
  3 20  1  0  0  0  0
  4 21  1  0  0  0  0
  4  3  2  0  0  0  0
  5  4  1  0  0  0  0
  6 12  1  0  0  0  0
  6  1  1  0  0  0  0
  7 29  1  0  0  0  0
  7  8  1  0  0  0  0
  8 30  1  0  0  0  0
  9  8  2  0  0  0  0
  9 31  1  0  0  0  0
 10  9  1  0  0  0  0
 11 12  1  0  0  0  0
 11 10  2  0  0  0  0
 12  7  2  0  0  0  0
 13 19  1  0  0  0  0
 14 34  1  0  0  0  0
 14 15  1  0  0  0  0
 15 35  1  0  0  0  0
 16 15  2  0  0  0  0
 16 36  1  0  0  0  0
 17 16  1  0  0  0  0
 18 19  1  0  0  0  0
 18 17  2  0  0  0  0
 19 14  2  0  0  0  0
 22 39  1  0  0  0  0
 23 22  1  0  0  0  0
 23 40  1  0  0  0  0
 24 23  2  0  0  0  0
 25 26  2  0  0  0  0
 25 24  1  0  0  0  0
 26 27  1  0  0  0  0
 27 21  1  0  0  0  0
 27 22  2  0  0  0  0
 28  5  1  0  0  0  0
 32 10  1  0  0  0  0
 33 11  1  0  0  0  0
 37 17  1  0  0  0  0
 38 18  1  0  0  0  0
 41 24  1  0  0  0  0
 42 25  1  0  0  0  0
 43 26  1  0  0  0  0
M  END
