9
q = 0.0, confidence = 0.98

 21 22  0  0  0  0  0  0  0  0999 V2000
    3.2059   -0.2515    0.5738 C   0  0  0  0  0  0  0  0  0  0  0  0
    3.6070    1.0694    0.6903 C   0  0  0  0  0  0  0  0  0  0  0  0
    3.0404    2.0529   -0.1546 C   0  0  0  0  0  0  0  0  0  0  0  0
    2.0992    1.6745   -1.1053 C   0  0  0  0  0  0  0  0  0  0  0  0
    0.8470   -0.0318   -2.4845 C   0  0  0  0  0  0  0  0  0  0  0  0
   -0.3794   -0.8470   -2.1319 C   0  0  0  0  0  3  0  0  0  0  0  0
   -0.3015   -2.1947   -1.7455 C   0  0  0  0  0  0  0  0  0  0  0  0
    0.7636   -2.7631   -0.9781 C   0  0  0  0  0  0  0  0  0  0  0  0
    1.8128   -2.0679   -0.3249 C   0  0  0  0  0  3  0  0  0  0  0  0
    2.2422   -0.6749   -0.4028 C   0  0  0  0  0  0  0  0  0  0  0  0
    1.6924    0.3240   -1.2748 C   0  0  0  0  0  0  0  0  0  0  0  0
    3.6245   -1.0144    1.2478 H   0  0  0  0  0  0  0  0  0  0  0  0
    4.3582    1.3503    1.4437 H   0  0  0  0  0  0  0  0  0  0  0  0
    3.3472    3.1059   -0.0666 H   0  0  0  0  0  0  0  0  0  0  0  0
    1.6629    2.4273   -1.7785 H   0  0  0  0  0  0  0  0  0  0  0  0
   -1.3334   -0.5122   -2.5648 H   0  0  0  0  0  0  0  0  0  0  0  0
   -1.1858   -2.8378   -1.8848 H   0  0  0  0  0  0  0  0  0  0  0  0
    0.6511   -3.8206   -0.6933 H   0  0  0  0  0  0  0  0  0  0  0  0
    2.4011   -2.6758    0.3802 H   0  0  0  0  0  0  0  0  0  0  0  0
    0.5252    0.9102   -2.9635 H   0  0  0  0  0  0  0  0  0  0  0  0
    1.4769   -0.5793   -3.2224 H   0  0  0  0  0  0  0  0  0  0  0  0
  1  2  1  0  0  0  0
  1 12  1  0  0  0  0
  2 13  1  0  0  0  0
  3 14  1  0  0  0  0
  3  2  2  0  0  0  0
  4  3  1  0  0  0  0
  5  6  1  0  0  0  0
  5 11  1  0  0  0  0
  6  7  1  0  0  0  0
  7  8  2  0  0  0  0
  8 18  1  0  0  0  0
  8  9  1  0  0  0  0
  9 19  1  0  0  0  0
 10  9  1  0  0  0  0
 10  1  2  0  0  0  0
 11  4  2  0  0  0  0
 11 10  1  0  0  0  0
 15  4  1  0  0  0  0
 16  6  1  0  0  0  0
 17  7  1  0  0  0  0
 20  5  1  0  0  0  0
 21  5  1  0  0  0  0
M  END
