5
q = 0.0, confidence = 0.998

 38 39  0  0  0  0  0  0  0  0999 V2000
   -1.8723    1.0511   -2.1631 O   0  0  0  0  0  0  0  0  0  0  0  0
   -0.3745    1.5520    0.1858 N   0  0  0  0  0  0  0  0  0  0  0  0
    1.6675    2.3421    0.2601 N   0  0  0  0  0  0  0  0  0  0  0  0
   -3.2936   -0.3559   -1.0102 N   0  0  0  0  0  0  0  0  0  0  0  0
    0.9462    1.1695    0.2938 C   0  0  0  0  0  2  0  0  0  0  0  0
   -0.4899    2.9350    0.0676 C   0  0  0  0  0  0  0  0  0  0  0  0
    0.8245    3.4436    0.1167 C   0  0  0  0  0  0  0  0  0  0  0  0
    1.0829    4.8188    0.0282 C   0  0  0  0  0  0  0  0  0  0  0  0
   -0.0274    5.6670   -0.1052 C   0  0  0  0  0  0  0  0  0  0  0  0
   -1.3441    5.1566   -0.1489 C   0  0  0  0  0  0  0  0  0  0  0  0
   -1.5996    3.7798   -0.0630 C   0  0  0  0  0  0  0  0  0  0  0  0
    3.1094    2.4857    0.3482 C   0  0  0  0  0  0  0  0  0  0  0  0
   -1.5206    0.6787    0.2203 C   0  0  0  0  0  0  0  0  0  0  0  0
   -2.2451    0.5437   -1.1110 C   0  0  0  0  0  0  0  0  0  0  0  0
   -4.4614   -0.1408   -0.5442 C   0  0  0  0  0  0  0  0  0  0  0  0
   -5.4857   -1.2309   -0.3298 C   0  0  0  0  0  0  0  0  0  0  0  0
   -5.9475   -1.1210    1.1422 C   0  0  0  0  0  0  0  0  0  0  0  0
   -4.8759   -2.6109   -0.6049 C   0  0  0  0  0  0  0  0  0  0  0  0
   -6.6759   -0.9570   -1.2763 C   0  0  0  0  0  0  0  0  0  0  0  0
    2.1066    5.2165    0.0603 H   0  0  0  0  0  0  0  0  0  0  0  0
    0.1319    6.7528   -0.1792 H   0  0  0  0  0  0  0  0  0  0  0  0
   -2.1881    5.8535   -0.2577 H   0  0  0  0  0  0  0  0  0  0  0  0
   -2.6223    3.3822   -0.1098 H   0  0  0  0  0  0  0  0  0  0  0  0
    3.5343    2.7573   -0.6399 H   0  0  0  0  0  0  0  0  0  0  0  0
    3.5349    1.5387    0.7290 H   0  0  0  0  0  0  0  0  0  0  0  0
    3.3485    3.2895    1.0716 H   0  0  0  0  0  0  0  0  0  0  0  0
   -2.2395    1.0067    1.0035 H   0  0  0  0  0  0  0  0  0  0  0  0
   -1.1821   -0.3259    0.5622 H   0  0  0  0  0  0  0  0  0  0  0  0
   -4.7894    0.8879   -0.2538 H   0  0  0  0  0  0  0  0  0  0  0  0
   -6.4368   -0.1442    1.3376 H   0  0  0  0  0  0  0  0  0  0  0  0
   -6.6858   -1.9186    1.3630 H   0  0  0  0  0  0  0  0  0  0  0  0
   -5.0916   -1.2141    1.8403 H   0  0  0  0  0  0  0  0  0  0  0  0
   -6.3716   -1.0426   -2.3390 H   0  0  0  0  0  0  0  0  0  0  0  0
   -7.4846   -1.6920   -1.0871 H   0  0  0  0  0  0  0  0  0  0  0  0
   -7.0986    0.0567   -1.1177 H   0  0  0  0  0  0  0  0  0  0  0  0
   -5.6359   -3.4027   -0.4495 H   0  0  0  0  0  0  0  0  0  0  0  0
   -4.4996   -2.6816   -1.6442 H   0  0  0  0  0  0  0  0  0  0  0  0
   -4.0219   -2.8055    0.0736 H   0  0  0  0  0  0  0  0  0  0  0  0
  1 14  2  0  0  0  0
  2 13  1  0  0  0  0
  2  5  1  0  0  0  0
  3  5  1  0  0  0  0
  3 12  1  0  0  0  0
  4 15  2  0  0  0  0
  6  7  1  0  0  0  0
  6  2  1  0  0  0  0
  7  3  1  0  0  0  0
  8 20  1  0  0  0  0
  8  7  2  0  0  0  0
  9  8  1  0  0  0  0
 10  9  2  0  0  0  0
 10 11  1  0  0  0  0
 11  6  2  0  0  0  0
 12 25  1  0  0  0  0
 12 26  1  0  0  0  0
 13 28  1  0  0  0  0
 13 27  1  0  0  0  0
 14  4  1  0  0  0  0
 14 13  1  0  0  0  0
 15 16  1  0  0  0  0
 15 29  1  0  0  0  0
 16 17  1  0  0  0  0
 17 30  1  0  0  0  0
 17 31  1  0  0  0  0
 17 32  1  0  0  0  0
 18 36  1  0  0  0  0
 18 16  1  0  0  0  0
 18 38  1  0  0  0  0
 19 35  1  0  0  0  0
 19 34  1  0  0  0  0
 19 16  1  0  0  0  0
 21  9  1  0  0  0  0
 22 10  1  0  0  0  0
 23 11  1  0  0  0  0
 24 12  1  0  0  0  0
 33 19  1  0  0  0  0
 37 18  1  0  0  0  0
M  END
