27
q = 0.0, confidence = 1.0

 29 31  0  0  0  0  0  0  0  0999 V2000
    3.0361   -2.5868   -1.6235 F   0  0  0  0  0  0  0  0  0  0  0  0
   -6.3726    0.1432   -0.2949 F   0  0  0  0  0  0  0  0  0  0  0  0
   -3.0344   -2.5859    1.6246 F   0  0  0  0  0  0  0  0  0  0  0  0
    1.0833   -1.5511    0.0608 N   0  0  0  0  0  0  0  0  0  0  0  0
   -4.1644    0.2915   -1.1355 C   0  0  0  0  0  0  0  0  0  0  0  0
   -4.4844    1.0582   -1.8536 H   0  0  0  0  0  0  0  0  0  0  0  0
   -3.4035   -1.6557    0.7265 C   0  0  0  0  0  0  0  0  0  0  0  0
   -2.8371   -0.1471   -1.0822 C   0  0  0  0  0  0  0  0  0  0  0  0
   -2.0845    0.2729   -1.7636 H   0  0  0  0  0  0  0  0  0  0  0  0
   -4.7373   -1.2439    0.6842 C   0  0  0  0  0  0  0  0  0  0  0  0
   -5.4747   -1.6698    1.3770 H   0  0  0  0  0  0  0  0  0  0  0  0
    0.6819   -2.8875    0.0357 C   0  0  0  0  0  0  0  0  0  0  0  0
    1.3987   -3.7112    0.0734 H   0  0  0  0  0  0  0  0  0  0  0  0
    6.3731    0.1449    0.2945 F   0  0  0  0  0  0  0  0  0  0  0  0
    2.8375   -0.1456    1.0810 C   0  0  0  0  0  0  0  0  0  0  0  0
    2.0846    0.2750    1.7620 H   0  0  0  0  0  0  0  0  0  0  0  0
    3.4047   -1.6556   -0.7260 C   0  0  0  0  0  0  0  0  0  0  0  0
   -2.4381   -1.1204   -0.1489 C   0  0  0  0  0  0  0  0  0  0  0  0
    4.7384   -1.2435   -0.6837 C   0  0  0  0  0  0  0  0  0  0  0  0
    5.4760   -1.6699   -1.3759 H   0  0  0  0  0  0  0  0  0  0  0  0
   -5.0973   -0.2641   -0.2497 C   0  0  0  0  0  0  0  0  0  0  0  0
   -1.0824   -1.5514   -0.0610 N   0  0  0  0  0  0  0  0  0  0  0  0
    4.1646    0.2934    1.1343 C   0  0  0  0  0  0  0  0  0  0  0  0
    4.4843    1.0608    1.8519 H   0  0  0  0  0  0  0  0  0  0  0  0
    5.0979   -0.2628    0.2494 C   0  0  0  0  0  0  0  0  0  0  0  0
    2.4389   -1.1197    0.1486 C   0  0  0  0  0  0  0  0  0  0  0  0
    0.0003   -0.7034    0.0000 C   0  0  0  0  0  2  0  0  0  0  0  0
   -0.6807   -2.8877   -0.0362 C   0  0  0  0  0  0  0  0  0  0  0  0
   -1.3972   -3.7116   -0.0741 H   0  0  0  0  0  0  0  0  0  0  0  0
  1 17  1  0  0  0  0
  2 21  1  0  0  0  0
  4 26  1  0  0  0  0
  5  8  2  0  0  0  0
  5 21  1  0  0  0  0
  6  5  1  0  0  0  0
  7  3  1  0  0  0  0
  8 18  1  0  0  0  0
  9  8  1  0  0  0  0
 10  7  1  0  0  0  0
 10 11  1  0  0  0  0
 12  4  1  0  0  0  0
 12 13  1  0  0  0  0
 15 23  1  0  0  0  0
 15 16  1  0  0  0  0
 17 19  2  0  0  0  0
 17 26  1  0  0  0  0
 18 22  1  0  0  0  0
 18  7  2  0  0  0  0
 19 25  1  0  0  0  0
 20 19  1  0  0  0  0
 21 10  2  0  0  0  0
 22 28  1  0  0  0  0
 22 27  1  0  0  0  0
 23 24  1  0  0  0  0
 25 14  1  0  0  0  0
 25 23  2  0  0  0  0
 26 15  2  0  0  0  0
 27  4  1  0  0  0  0
 28 12  2  0  0  0  0
 29 28  1  0  0  0  0
M  END
