3
q = 0.0, confidence = 1.0

 53 57  0  0  1  0  0  0  0  0999 V2000
    0.8564   -0.8385    0.6617 N   0  0  0  0  0  0  0  0  0  0  0  0
   -0.8565   -0.8385   -0.6615 N   0  0  0  0  0  0  0  0  0  0  0  0
    0.0000   -0.0041    0.0001 C   0  0  0  0  0  2  0  0  0  0  0  0
    0.5422   -2.1681    0.4198 C   0  0  0  0  0  0  0  0  0  0  0  0
    1.1210   -2.9890    0.8523 H   0  0  0  0  0  0  0  0  0  0  0  0
   -0.5424   -2.1681   -0.4194 C   0  0  0  0  0  0  0  0  0  0  0  0
   -1.1212   -2.9890   -0.8518 H   0  0  0  0  0  0  0  0  0  0  0  0
   -1.9226   -0.3699   -1.5758 C   0  0  2  0  0  0  0  0  0  0  0  0
   -2.0648    0.6955   -1.2964 H   0  0  0  0  0  0  0  0  0  0  0  0
   -3.2087   -1.1322   -1.2930 C   0  0  0  0  0  0  0  0  0  0  0  0
   -3.8984   -0.9159   -0.0457 C   0  0  0  0  0  0  0  0  0  0  0  0
   -5.0926   -1.6813    0.2306 C   0  0  0  0  0  0  0  0  0  0  0  0
   -5.5643   -2.6193   -0.7344 C   0  0  0  0  0  0  0  0  0  0  0  0
   -6.4765   -3.1942   -0.5108 H   0  0  0  0  0  0  0  0  0  0  0  0
   -4.8928   -2.7984   -1.9308 C   0  0  0  0  0  0  0  0  0  0  0  0
   -5.2643   -3.5174   -2.6761 H   0  0  0  0  0  0  0  0  0  0  0  0
   -3.7151   -2.0538   -2.2039 C   0  0  0  0  0  0  0  0  0  0  0  0
   -3.1994   -2.2154   -3.1611 H   0  0  0  0  0  0  0  0  0  0  0  0
   -5.7827   -1.4789    1.4618 C   0  0  0  0  0  0  0  0  0  0  0  0
   -6.6913   -2.0696    1.6573 H   0  0  0  0  0  0  0  0  0  0  0  0
   -5.3279   -0.5574    2.3918 C   0  0  0  0  0  0  0  0  0  0  0  0
   -5.8716   -0.4092    3.3370 H   0  0  0  0  0  0  0  0  0  0  0  0
   -4.1615    0.2034    2.1196 C   0  0  0  0  0  0  0  0  0  0  0  0
   -3.8066    0.9443    2.8518 H   0  0  0  0  0  0  0  0  0  0  0  0
   -3.4631    0.0290    0.9328 C   0  0  0  0  0  0  0  0  0  0  0  0
   -2.5650    0.6392    0.7575 H   0  0  0  0  0  0  0  0  0  0  0  0
   -1.4138   -0.4043   -3.0171 C   0  0  0  0  0  0  0  0  0  0  0  0
   -0.5146    0.2366   -3.0984 H   0  0  0  0  0  0  0  0  0  0  0  0
   -2.1842   -0.0143   -3.7096 H   0  0  0  0  0  0  0  0  0  0  0  0
   -1.1363   -1.4286   -3.3364 H   0  0  0  0  0  0  0  0  0  0  0  0
    1.9227   -0.3699    1.5758 C   0  0  1  0  0  0  0  0  0  0  0  0
    2.0649    0.6955    1.2964 H   0  0  0  0  0  0  0  0  0  0  0  0
    3.8984   -0.9159    0.0457 C   0  0  0  0  0  0  0  0  0  0  0  0
    5.0925   -1.6814   -0.2308 C   0  0  0  0  0  0  0  0  0  0  0  0
    5.5642   -2.6195    0.7342 C   0  0  0  0  0  0  0  0  0  0  0  0
    6.4763   -3.1945    0.5105 H   0  0  0  0  0  0  0  0  0  0  0  0
    4.8927   -2.7986    1.9306 C   0  0  0  0  0  0  0  0  0  0  0  0
    5.2642   -3.5177    2.6759 H   0  0  0  0  0  0  0  0  0  0  0  0
    3.7151   -2.0539    2.2038 C   0  0  0  0  0  0  0  0  0  0  0  0
    3.1994   -2.2155    3.1610 H   0  0  0  0  0  0  0  0  0  0  0  0
    5.7826   -1.4790   -1.4619 C   0  0  0  0  0  0  0  0  0  0  0  0
    6.6912   -2.0697   -1.6575 H   0  0  0  0  0  0  0  0  0  0  0  0
    5.3279   -0.5573   -2.3919 C   0  0  0  0  0  0  0  0  0  0  0  0
    5.8715   -0.4091   -3.3371 H   0  0  0  0  0  0  0  0  0  0  0  0
    4.1616    0.2035   -2.1196 C   0  0  0  0  0  0  0  0  0  0  0  0
    3.8067    0.9446   -2.8517 H   0  0  0  0  0  0  0  0  0  0  0  0
    3.4632    0.0292   -0.9327 C   0  0  0  0  0  0  0  0  0  0  0  0
    2.5652    0.6395   -0.7574 H   0  0  0  0  0  0  0  0  0  0  0  0
    1.4141   -0.4042    3.0172 C   0  0  0  0  0  0  0  0  0  0  0  0
    1.1366   -1.4284    3.3366 H   0  0  0  0  0  0  0  0  0  0  0  0
    0.5149    0.2367    3.0986 H   0  0  0  0  0  0  0  0  0  0  0  0
    2.1845   -0.0141    3.7096 H   0  0  0  0  0  0  0  0  0  0  0  0
    3.2087   -1.1322    1.2930 C   0  0  0  0  0  0  0  0  0  0  0  0
  1 31  1  0  0  0  0
  2  6  1  0  0  0  0
  2  3  1  0  0  0  0
  3  1  1  0  0  0  0
  4  1  1  0  0  0  0
  4  5  1  0  0  0  0
  6  4  2  0  0  0  0
  7  6  1  0  0  0  0
  8  9  1  1  0  0  0
  8 10  1  0  0  0  0
  8  2  1  0  0  0  0
 10 11  1  0  0  0  0
 11 12  2  0  0  0  0
 11 25  1  0  0  0  0
 12 19  1  0  0  0  0
 13 14  1  0  0  0  0
 13 12  1  0  0  0  0
 15 13  2  0  0  0  0
 16 15  1  0  0  0  0
 17 15  1  0  0  0  0
 17 10  2  0  0  0  0
 18 17  1  0  0  0  0
 19 20  1  0  0  0  0
 19 21  2  0  0  0  0
 21 22  1  0  0  0  0
 23 21  1  0  0  0  0
 23 24  1  0  0  0  0
 25 23  2  0  0  0  0
 26 25  1  0  0  0  0
 27  8  1  0  0  0  0
 28 27  1  0  0  0  0
 29 27  1  0  0  0  0
 30 27  1  0  0  0  0
 31 32  1  6  0  0  0
 31 49  1  0  0  0  0
 33 53  2  0  0  0  0
 34 33  1  0  0  0  0
 34 35  2  0  0  0  0
 35 37  1  0  0  0  0
 36 35  1  0  0  0  0
 37 39  2  0  0  0  0
 37 38  1  0  0  0  0
 39 40  1  0  0  0  0
 41 34  1  0  0  0  0
 42 41  1  0  0  0  0
 43 45  1  0  0  0  0
 43 41  2  0  0  0  0
 44 43  1  0  0  0  0
 45 47  2  0  0  0  0
 46 45  1  0  0  0  0
 47 48  1  0  0  0  0
 47 33  1  0  0  0  0
 49 51  1  0  0  0  0
 49 50  1  0  0  0  0
 49 52  1  0  0  0  0
 53 31  1  0  0  0  0
 53 39  1  0  0  0  0
M  END
