14
q = -2.0, confidence = 0.734

 58 65  0  0  1  0  0  0  0  0999 V2000
    0.4678   -2.0342   -1.0142 N   0  0  0  0  0  0  0  0  0  0  0  0
    3.0994   -1.3142   -0.0962 C   0  0  1  0  0  0  0  0  0  0  0  0
    2.3364   -1.1928    1.3048 C   0  0  2  0  0  0  0  0  0  0  0  0
    1.6669   -2.0118    1.6068 H   0  0  0  0  0  0  0  0  0  0  0  0
    2.8950   -2.5326   -1.0038 C   0  0  0  0  0  0  0  0  0  0  0  0
    3.1301   -2.2171   -2.0385 H   0  0  0  0  0  0  0  0  0  0  0  0
    3.6108   -3.3410   -0.7567 H   0  0  0  0  0  0  0  0  0  0  0  0
    1.4860   -3.0979   -0.9144 C   0  0  0  0  0  0  0  0  0  0  0  0
    1.3152   -3.8654   -1.7043 H   0  0  0  0  0  0  0  0  0  0  0  0
    1.3415   -3.5993    0.0649 H   0  0  0  0  0  0  0  0  0  0  0  0
   -0.8887   -2.5105   -0.6901 C   0  0  0  0  0  0  0  0  0  0  0  0
   -1.3687   -2.9227   -1.6089 H   0  0  0  0  0  0  0  0  0  0  0  0
   -0.7961   -3.3706    0.0096 H   0  0  0  0  0  0  0  0  0  0  0  0
    0.6155   -1.1536   -2.2027 C   0  0  0  0  0  3  0  0  0  0  0  0
   -0.3731   -0.9784   -2.6726 H   0  0  0  0  0  0  0  0  0  0  0  0
    1.3257   -1.5564   -2.9463 H   0  0  0  0  0  0  0  0  0  0  0  0
   -1.7540   -1.4505   -0.0433 C   0  0  0  0  0  0  0  0  0  0  0  0
   -1.1998   -0.2605    0.3633 C   0  0  0  0  0  3  0  0  0  0  0  0
   -2.0349    0.8573    0.8589 C   0  0  0  0  0  0  0  0  0  0  0  0
   -1.6549    1.6158    1.9948 C   0  0  0  0  0  0  0  0  0  0  0  0
   -0.7550    1.3198    2.5539 H   0  0  0  0  0  0  0  0  0  0  0  0
   -2.4093    2.7194    2.4217 C   0  0  0  0  0  0  0  0  0  0  0  0
   -2.0903    3.2799    3.3141 H   0  0  0  0  0  0  0  0  0  0  0  0
   -3.5627    3.1083    1.7215 C   0  0  0  0  0  0  0  0  0  0  0  0
   -4.1523    3.9751    2.0558 H   0  0  0  0  0  0  0  0  0  0  0  0
   -3.9553    2.3744    0.5883 C   0  0  0  0  0  0  0  0  0  0  0  0
   -4.8592    2.6640    0.0299 H   0  0  0  0  0  0  0  0  0  0  0  0
   -3.2042    1.2710    0.1637 C   0  0  0  0  0  0  0  0  0  0  0  0
   -3.5298    0.6986   -0.7182 H   0  0  0  0  0  0  0  0  0  0  0  0
   -3.1759   -1.8531    0.1572 C   0  0  0  0  0  0  0  0  0  0  0  0
   -3.7913   -1.6801    1.4190 C   0  0  0  0  0  0  0  0  0  0  0  0
   -3.2034   -1.2488    2.2421 H   0  0  0  0  0  0  0  0  0  0  0  0
   -5.1251   -2.0519    1.6252 C   0  0  0  0  0  0  0  0  0  0  0  0
   -5.5820   -1.9124    2.6168 H   0  0  0  0  0  0  0  0  0  0  0  0
   -5.8781   -2.6026    0.5745 C   0  0  0  0  0  0  0  0  0  0  0  0
   -6.9275   -2.8919    0.7368 H   0  0  0  0  0  0  0  0  0  0  0  0
   -5.2814   -2.7859   -0.6822 C   0  0  0  0  0  0  0  0  0  0  0  0
   -5.8630   -3.2151   -1.5124 H   0  0  0  0  0  0  0  0  0  0  0  0
   -3.9418   -2.4227   -0.8861 C   0  0  0  0  0  0  0  0  0  0  0  0
   -3.4930   -2.5599   -1.8822 H   0  0  0  0  0  0  0  0  0  0  0  0
    2.1245    0.3941    1.7654 B   0  0  2  0  0  0  0  0  0  0  0  0
    1.1188    0.6846    2.3863 H   0  0  0  0  0  0  0  0  0  0  0  0
    2.8883    1.3750    0.5078 B   0  0  2  0  0  0  0  0  0  0  0  0
    2.5605    2.5180    0.2490 H   0  0  0  0  0  0  0  0  0  0  0  0
    3.4594    0.2118   -0.6898 B   0  0  1  0  0  0  0  0  0  0  0  0
    3.4677    0.3562   -1.9001 H   0  0  0  0  0  0  0  0  0  0  0  0
    3.9690   -1.7129    1.3487 B   0  0  2  0  0  0  0  0  0  0  0  0
    4.1949   -2.8812    1.5545 H   0  0  0  0  0  0  0  0  0  0  0  0
    3.3499   -0.5887    2.5645 B   0  0  1  0  0  0  0  0  0  0  0  0
    3.1940   -1.0126    3.6857 H   0  0  0  0  0  0  0  0  0  0  0  0
    3.7478    1.0645    2.0331 B   0  0  2  0  0  0  0  0  0  0  0  0
    3.9526    1.9407    2.8446 H   0  0  0  0  0  0  0  0  0  0  0  0
    4.6069    0.9428    0.4626 B   0  0  1  0  0  0  0  0  0  0  0  0
    5.4588    1.7312    0.1143 H   0  0  0  0  0  0  0  0  0  0  0  0
    4.7283   -0.7771    0.0427 B   0  0  1  0  0  0  0  0  0  0  0  0
    5.5641   -1.3452   -0.6227 H   0  0  0  0  0  0  0  0  0  0  0  0
    4.9051   -0.2723    1.7493 B   0  0  0  0  0  0  0  0  0  0  0  0
    5.9572   -0.3946    2.3338 H   0  0  0  0  0  0  0  0  0  0  0  0
  1  8  1  0  0  0  0
  1 11  1  0  0  0  0
  2  5  1  6  0  0  0
  2 55  1  0  0  0  0
  2  3  1  0  0  0  0
  3 47  1  0  0  0  0
  3  4  1  1  0  0  0
  3 41  1  0  0  0  0
  5  8  1  0  0  0  0
  5  7  1  0  0  0  0
  6  5  1  0  0  0  0
  8 10  1  0  0  0  0
  9  8  1  0  0  0  0
 11 17  1  0  0  0  0
 11 13  1  0  0  0  0
 12 11  1  0  0  0  0
 14  1  1  0  0  0  0
 15 14  1  0  0  0  0
 16 14  1  0  0  0  0
 17 30  1  0  0  0  0
 17 18  2  0  0  0  0
 18 19  1  0  0  0  0
 19 20  1  0  0  0  0
 20 22  2  0  0  0  0
 20 21  1  0  0  0  0
 22 23  1  0  0  0  0
 24 25  1  0  0  0  0
 24 22  1  0  0  0  0
 26 24  2  0  0  0  0
 27 26  1  0  0  0  0
 28 26  1  0  0  0  0
 28 19  2  0  0  0  0
 29 28  1  0  0  0  0
 30 31  1  0  0  0  0
 31 33  2  0  0  0  0
 31 32  1  0  0  0  0
 33 34  1  0  0  0  0
 35 36  1  0  0  0  0
 35 33  1  0  0  0  0
 37 35  2  0  0  0  0
 38 37  1  0  0  0  0
 39 37  1  0  0  0  0
 39 30  2  0  0  0  0
 40 39  1  0  0  0  0
 41 42  1  1  0  0  0
 41 49  1  0  0  0  0
 43 44  1  6  0  0  0
 43 41  1  0  0  0  0
 45 46  1  6  0  0  0
 45  2  1  0  0  0  0
 45 55  1  0  0  0  0
 45 43  1  0  0  0  0
 47 48  1  1  0  0  0
 47 57  1  0  0  0  0
 47 49  1  0  0  0  0
 49 50  1  1  0  0  0
 51 49  1  0  0  0  0
 51 52  1  1  0  0  0
 53 54  1  6  0  0  0
 53 43  1  0  0  0  0
 53 51  1  0  0  0  0
 55 56  1  6  0  0  0
 55 53  1  0  0  0  0
 57 51  1  0  0  0  0
 57 58  1  0  0  0  0
M  END
