3
q = 0.0, confidence = 0.992

 19 18  0  0  0  0  0  0  0  0999 V2000
   -3.1574    1.1058   -0.3723 N   0  0  0  0  0  0  0  0  0  0  0  0
   -3.0594   -1.0892    0.4178 N   0  0  0  0  0  0  0  0  0  0  0  0
   -2.4043    0.0252   -0.0191 C   0  0  0  0  0  2  0  0  0  0  0  0
   -2.5117    2.1957   -1.0920 C   0  0  0  0  0  0  0  0  0  0  0  0
   -1.5010    1.8647   -1.4011 H   0  0  0  0  0  0  0  0  0  0  0  0
   -2.4157    3.1006   -0.4525 H   0  0  0  0  0  0  0  0  0  0  0  0
   -3.0961    2.4641   -1.9980 H   0  0  0  0  0  0  0  0  0  0  0  0
   -4.4747    1.4364    0.1653 C   0  0  0  0  0  0  0  0  0  0  0  0
   -4.6895    0.8228    1.0580 H   0  0  0  0  0  0  0  0  0  0  0  0
   -5.3004    1.3110   -0.5684 H   0  0  0  0  0  0  0  0  0  0  0  0
   -4.4681    2.5006    0.4814 H   0  0  0  0  0  0  0  0  0  0  0  0
   -2.2847   -2.1451    1.0574 C   0  0  0  0  0  0  0  0  0  0  0  0
   -1.2679   -1.7600    1.2710 H   0  0  0  0  0  0  0  0  0  0  0  0
   -2.2027   -3.0406    0.4023 H   0  0  0  0  0  0  0  0  0  0  0  0
   -2.7611   -2.4520    2.0130 H   0  0  0  0  0  0  0  0  0  0  0  0
   -4.4095   -1.4877    0.0282 C   0  0  0  0  0  0  0  0  0  0  0  0
   -4.7541   -0.8870   -0.8320 H   0  0  0  0  0  0  0  0  0  0  0  0
   -5.1536   -1.4049    0.8500 H   0  0  0  0  0  0  0  0  0  0  0  0
   -4.3834   -2.5503   -0.2924 H   0  0  0  0  0  0  0  0  0  0  0  0
  1  3  1  0  0  0  0
  1  8  1  0  0  0  0
  2 12  1  0  0  0  0
  3  2  1  0  0  0  0
  4  6  1  0  0  0  0
  4  1  1  0  0  0  0
  5  4  1  0  0  0  0
  7  4  1  0  0  0  0
  8 11  1  0  0  0  0
  8  9  1  0  0  0  0
 10  8  1  0  0  0  0
 12 13  1  0  0  0  0
 12 15  1  0  0  0  0
 14 12  1  0  0  0  0
 16  2  1  0  0  0  0
 16 18  1  0  0  0  0
 17 16  1  0  0  0  0
 19 16  1  0  0  0  0
M  END
