1
q = -1.0, confidence = 0.0

 19 19  0  0  0  0  0  0  0  0999 V2000
    0.8158   -2.6212   -0.3613 C   0  0  0  0  0  3  0  0  0  0  0  0
    1.3280   -3.7478   -0.4437 C   0  0  0  0  0  0  0  0  0  0  0  0
    2.0147   -5.0355   -0.5203 C   0  0  0  0  0  0  0  0  0  0  0  0
    2.0981   -5.3386   -1.5889 H   0  0  0  0  0  0  0  0  0  0  0  0
    1.3956   -5.8227   -0.0357 H   0  0  0  0  0  0  0  0  0  0  0  0
    3.4269   -5.0312    0.1175 C   0  0  0  0  0  0  0  0  0  0  0  0
    3.8212   -6.0614    0.0007 H   0  0  0  0  0  0  0  0  0  0  0  0
    3.4252   -4.6474    1.6292 C   0  0  0  0  0  0  0  0  0  0  0  0
    2.4023   -4.6243    2.0562 H   0  0  0  0  0  0  0  0  0  0  0  0
    3.9990   -5.4010    2.2065 H   0  0  0  0  0  0  0  0  0  0  0  0
    4.3950   -4.0231   -0.5648 C   0  0  0  0  0  0  0  0  0  0  0  0
    5.0575   -4.5065   -1.3097 H   0  0  0  0  0  0  0  0  0  0  0  0
    3.7965   -3.2653   -1.1172 H   0  0  0  0  0  0  0  0  0  0  0  0
    4.1291   -3.2819    1.7151 C   0  0  0  0  0  0  0  0  0  0  0  0
    3.3938   -2.4727    1.5143 H   0  0  0  0  0  0  0  0  0  0  0  0
    4.5738   -3.0810    2.7105 H   0  0  0  0  0  0  0  0  0  0  0  0
    5.1644   -3.3457    0.5824 C   0  0  0  0  0  0  0  0  0  0  0  0
    6.0232   -3.9782    0.8947 H   0  0  0  0  0  0  0  0  0  0  0  0
    5.5856   -2.3559    0.3045 H   0  0  0  0  0  0  0  0  0  0  0  0
  2  1  3  0  0  0  0
  3  2  1  0  0  0  0
  3  5  1  0  0  0  0
  3  6  1  0  0  0  0
  4  3  1  0  0  0  0
  6  8  1  0  0  0  0
  7  6  1  0  0  0  0
  8 14  1  0  0  0  0
  8  9  1  0  0  0  0
  8 10  1  0  0  0  0
 11  6  1  0  0  0  0
 11 17  1  0  0  0  0
 12 11  1  0  0  0  0
 13 11  1  0  0  0  0
 14 16  1  0  0  0  0
 15 14  1  0  0  0  0
 17 18  1  0  0  0  0
 17 14  1  0  0  0  0
 19 17  1  0  0  0  0
M  END
