9
q = -1.0, confidence = 0.0

 32 33  0  0  1  0  0  0  0  0999 V2000
   -6.0875   -0.2431   -0.0423 Br  0  0  0  0  0  0  0  0  0  0  0  0
   -0.0104    0.9799    0.2352 C   0  0  2  0  0  3  0  0  0  0  0  0
   -1.4554    0.6539    0.1565 C   0  0  0  0  0  0  0  0  0  0  0  0
   -4.2216    0.1192    0.0407 C   0  0  0  0  0  0  0  0  0  0  0  0
   -3.7547    1.4156   -0.2269 C   0  0  0  0  0  0  0  0  0  0  0  0
   -4.4638    2.2167   -0.4786 H   0  0  0  0  0  0  0  0  0  0  0  0
   -2.3787    1.6736   -0.1626 C   0  0  0  0  0  0  0  0  0  0  0  0
   -2.0128    2.6933   -0.3566 H   0  0  0  0  0  0  0  0  0  0  0  0
    0.8047    0.9724    1.4362 C   0  0  2  0  0  3  0  0  0  0  0  0
   -3.3269   -0.9144    0.3609 C   0  0  0  0  0  0  0  0  0  0  0  0
   -3.7014   -1.9292    0.5550 H   0  0  0  0  0  0  0  0  0  0  0  0
    2.0948    1.8463   -0.3127 C   0  0  0  0  0  0  0  0  0  0  0  0
    0.3308    0.6073    2.8113 C   0  0  0  0  0  0  0  0  0  0  0  0
    1.1322    0.1356    3.4111 H   0  0  0  0  0  0  0  0  0  0  0  0
   -0.5259   -0.0903    2.7725 H   0  0  0  0  0  0  0  0  0  0  0  0
   -0.0035    1.5181    3.3518 H   0  0  0  0  0  0  0  0  0  0  0  0
    0.7961    1.5302   -0.8432 C   0  0  0  0  0  0  0  0  0  0  0  0
    3.2164    1.7889    2.0659 C   0  0  0  0  0  0  0  0  0  0  0  0
    3.1424    2.8265    2.4583 H   0  0  0  0  0  0  0  0  0  0  0  0
    4.2087    1.6852    1.5866 H   0  0  0  0  0  0  0  0  0  0  0  0
    3.1898    1.1014    2.9323 H   0  0  0  0  0  0  0  0  0  0  0  0
    3.2126    2.5228   -1.0494 C   0  0  0  0  0  0  0  0  0  0  0  0
    3.1531    2.3371   -2.1384 H   0  0  0  0  0  0  0  0  0  0  0  0
    4.2042    2.1740   -0.7028 H   0  0  0  0  0  0  0  0  0  0  0  0
    3.1725    3.6224   -0.8932 H   0  0  0  0  0  0  0  0  0  0  0  0
    2.1028    1.5035    1.1024 C   0  0  1  0  0  3  0  0  0  0  0  0
   -1.9536   -0.6423    0.4093 C   0  0  0  0  0  0  0  0  0  0  0  0
   -1.2431   -1.4547    0.6245 H   0  0  0  0  0  0  0  0  0  0  0  0
    0.3145    1.7915   -2.2399 C   0  0  0  0  0  0  0  0  0  0  0  0
   -0.0773    2.8268   -2.3317 H   0  0  0  0  0  0  0  0  0  0  0  0
   -0.5037    1.0998   -2.5157 H   0  0  0  0  0  0  0  0  0  0  0  0
    1.1283    1.6760   -2.9808 H   0  0  0  0  0  0  0  0  0  0  0  0
  1  4  1  0  0  0  0
  2  3  1  1  0  0  0
  2  9  1  0  0  0  0
  3 27  1  0  0  0  0
  4 10  1  0  0  0  0
  5  7  1  0  0  0  0
  5  4  2  0  0  0  0
  6  5  1  0  0  0  0
  7  3  2  0  0  0  0
  8  7  1  0  0  0  0
  9 13  1  1  0  0  0
 10 27  2  0  0  0  0
 10 11  1  0  0  0  0
 12 26  1  0  0  0  0
 13 16  1  0  0  0  0
 13 14  1  0  0  0  0
 15 13  1  0  0  0  0
 17 12  2  0  0  0  0
 17  2  1  0  0  0  0
 18 19  1  0  0  0  0
 18 21  1  0  0  0  0
 20 18  1  0  0  0  0
 22 25  1  0  0  0  0
 22 24  1  0  0  0  0
 22 12  1  0  0  0  0
 23 22  1  0  0  0  0
 26  9  1  0  0  0  0
 26 18  1  1  0  0  0
 27 28  1  0  0  0  0
 29 17  1  0  0  0  0
 30 29  1  0  0  0  0
 31 29  1  0  0  0  0
 32 29  1  0  0  0  0
M  END
