8
q = 0.0, confidence = 0.962

 39 40  0  0  1  0  0  0  0  0999 V2000
    3.1741    0.1788    2.0362 O   0  0  0  0  0  0  0  0  0  0  0  0
    4.3779   -0.0370    0.1234 O   0  0  0  0  0  0  0  0  0  0  0  0
    3.2203    2.8100   -1.1532 O   0  0  0  0  0  0  0  0  0  0  0  0
    2.0681    3.2365    0.7532 O   0  0  0  0  0  0  0  0  0  0  0  0
    0.4717   -0.9100    0.5304 C   0  0  1  0  0  0  0  0  0  0  0  0
    0.8018    0.6207    0.4419 C   0  0  2  0  0  0  0  0  0  0  0  0
   -0.2643    1.3387   -0.3688 C   0  0  0  0  0  3  0  0  0  0  0  0
   -0.8357    0.7496   -1.5459 C   0  0  0  0  0  3  0  0  0  0  0  0
   -1.1986   -0.6251   -1.4120 C   0  0  0  0  0  3  0  0  0  0  0  0
   -0.8883   -1.1757   -0.1134 C   0  0  0  0  0  3  0  0  0  0  0  0
    2.2380   -2.7102    0.8347 C   0  0  0  0  0  0  0  0  0  0  0  0
    3.2106   -3.5963    0.3459 C   0  0  0  0  0  0  0  0  0  0  0  0
    3.4832   -3.6536   -1.0293 C   0  0  0  0  0  0  0  0  0  0  0  0
    2.7662   -2.8261   -1.9089 C   0  0  0  0  0  0  0  0  0  0  0  0
    1.7886   -1.9501   -1.4171 C   0  0  0  0  0  0  0  0  0  0  0  0
    1.5163   -1.8666   -0.0344 C   0  0  0  0  0  0  0  0  0  0  0  0
    2.2232    0.9434   -0.0763 C   0  0  0  0  0  0  0  0  0  0  0  0
    3.2846    0.3195    0.8339 C   0  0  0  0  0  0  0  0  0  0  0  0
    2.4694    2.4514   -0.0830 C   0  0  0  0  0  0  0  0  0  0  0  0
    5.4294   -0.6414    0.8867 C   0  0  0  0  0  0  0  0  0  0  0  0
    3.5436    4.2044   -1.2276 C   0  0  0  0  0  0  0  0  0  0  0  0
    0.3869   -1.1562    1.6071 H   0  0  0  0  0  0  0  0  0  0  0  0
    0.7836    1.0283    1.4718 H   0  0  0  0  0  0  0  0  0  0  0  0
   -0.1995    2.4376   -0.3375 H   0  0  0  0  0  0  0  0  0  0  0  0
   -1.1252    1.3357   -2.4322 H   0  0  0  0  0  0  0  0  0  0  0  0
   -1.7044   -1.1839   -2.2148 H   0  0  0  0  0  0  0  0  0  0  0  0
   -1.2777   -2.1828    0.1031 H   0  0  0  0  0  0  0  0  0  0  0  0
    2.0447   -2.6482    1.9169 H   0  0  0  0  0  0  0  0  0  0  0  0
    3.7596   -4.2453    1.0460 H   0  0  0  0  0  0  0  0  0  0  0  0
    4.2487   -4.3435   -1.4161 H   0  0  0  0  0  0  0  0  0  0  0  0
    2.9693   -2.8653   -2.9902 H   0  0  0  0  0  0  0  0  0  0  0  0
    1.2251   -1.3156   -2.1177 H   0  0  0  0  0  0  0  0  0  0  0  0
    2.3979    0.5720   -1.1021 H   0  0  0  0  0  0  0  0  0  0  0  0
    6.2501   -0.8364    0.1739 H   0  0  0  0  0  0  0  0  0  0  0  0
    5.0796   -1.5917    1.3371 H   0  0  0  0  0  0  0  0  0  0  0  0
    5.7670    0.0330    1.6991 H   0  0  0  0  0  0  0  0  0  0  0  0
    4.1510    4.3299   -2.1414 H   0  0  0  0  0  0  0  0  0  0  0  0
    4.1161    4.5250   -0.3338 H   0  0  0  0  0  0  0  0  0  0  0  0
    2.6232    4.8199   -1.2853 H   0  0  0  0  0  0  0  0  0  0  0  0
  2 18  1  0  0  0  0
  2 20  1  0  0  0  0
  3 19  1  0  0  0  0
  5 22  1  1  0  0  0
  6  5  1  0  0  0  0
  6 23  1  1  0  0  0
  7 24  1  0  0  0  0
  7  6  1  0  0  0  0
  8  9  1  0  0  0  0
  8  7  1  0  0  0  0
  9 10  1  0  0  0  0
 10 27  1  0  0  0  0
 10  5  1  0  0  0  0
 11 28  1  0  0  0  0
 12 11  1  0  0  0  0
 12 29  1  0  0  0  0
 13 12  2  0  0  0  0
 14 15  2  0  0  0  0
 14 13  1  0  0  0  0
 15 16  1  0  0  0  0
 16  5  1  0  0  0  0
 16 11  2  0  0  0  0
 17  6  1  0  0  0  0
 17 18  1  0  0  0  0
 18  1  2  0  0  0  0
 19 17  1  0  0  0  0
 19  4  2  0  0  0  0
 20 35  1  0  0  0  0
 20 36  1  0  0  0  0
 21  3  1  0  0  0  0
 21 38  1  0  0  0  0
 25  8  1  0  0  0  0
 26  9  1  0  0  0  0
 30 13  1  0  0  0  0
 31 14  1  0  0  0  0
 32 15  1  0  0  0  0
 33 17  1  0  0  0  0
 34 20  1  0  0  0  0
 37 21  1  0  0  0  0
 39 21  1  0  0  0  0
M  END
