1
q = 0.0, confidence = 0.984

 37 39  0  0  0  0  0  0  0  0999 V2000
    1.9632   -0.0000   -0.0001 C   0  0  0  0  0  2  0  0  0  0  0  0
    2.7679    1.1061    0.0005 N   0  0  0  0  0  0  0  0  0  0  0  0
    2.7679   -1.1062   -0.0007 N   0  0  0  0  0  0  0  0  0  0  0  0
    4.1080    0.7161    0.0003 C   0  0  0  0  0  0  0  0  0  0  0  0
    4.1080   -0.7161   -0.0005 C   0  0  0  0  0  0  0  0  0  0  0  0
    5.1962    1.4525    0.0006 N   0  0  0  0  0  0  0  0  0  0  0  0
    5.1962   -1.4525   -0.0008 N   0  0  0  0  0  0  0  0  0  0  0  0
    6.3593    0.7307    0.0003 C   0  0  0  0  0  0  0  0  0  0  0  0
    6.3593   -0.7307   -0.0005 C   0  0  0  0  0  0  0  0  0  0  0  0
    7.6050   -1.4206   -0.0008 C   0  0  0  0  0  0  0  0  0  0  0  0
    7.5806   -2.5197   -0.0013 H   0  0  0  0  0  0  0  0  0  0  0  0
    8.7955   -0.7123   -0.0004 C   0  0  0  0  0  0  0  0  0  0  0  0
    9.7538   -1.2526   -0.0007 H   0  0  0  0  0  0  0  0  0  0  0  0
    8.7955    0.7123    0.0003 C   0  0  0  0  0  0  0  0  0  0  0  0
    9.7537    1.2526    0.0005 H   0  0  0  0  0  0  0  0  0  0  0  0
    7.6050    1.4207    0.0006 C   0  0  0  0  0  0  0  0  0  0  0  0
    7.5806    2.5197    0.0011 H   0  0  0  0  0  0  0  0  0  0  0  0
    2.2801    2.5040    0.0013 C   0  0  0  0  0  0  0  0  0  0  0  0
    1.1746    2.3944    0.0012 H   0  0  0  0  0  0  0  0  0  0  0  0
    2.7100    3.2241   -1.2783 C   0  0  0  0  0  0  0  0  0  0  0  0
    2.3640    2.6790   -2.1788 H   0  0  0  0  0  0  0  0  0  0  0  0
    3.8117    3.3239   -1.3237 H   0  0  0  0  0  0  0  0  0  0  0  0
    2.2694    4.2399   -1.2985 H   0  0  0  0  0  0  0  0  0  0  0  0
    2.7100    3.2226    1.2817 C   0  0  0  0  0  0  0  0  0  0  0  0
    2.3640    2.6764    2.1816 H   0  0  0  0  0  0  0  0  0  0  0  0
    2.2694    4.2383    1.3031 H   0  0  0  0  0  0  0  0  0  0  0  0
    3.8117    3.3223    1.3273 H   0  0  0  0  0  0  0  0  0  0  0  0
    2.2802   -2.5040   -0.0013 C   0  0  0  0  0  0  0  0  0  0  0  0
    1.1746   -2.3945   -0.0015 H   0  0  0  0  0  0  0  0  0  0  0  0
    2.7102   -3.2229   -1.2815 C   0  0  0  0  0  0  0  0  0  0  0  0
    2.3645   -2.6769   -2.1815 H   0  0  0  0  0  0  0  0  0  0  0  0
    2.2696   -4.2386   -1.3028 H   0  0  0  0  0  0  0  0  0  0  0  0
    3.8120   -3.3227   -1.3268 H   0  0  0  0  0  0  0  0  0  0  0  0
    2.7098   -3.2238    1.2785 C   0  0  0  0  0  0  0  0  0  0  0  0
    2.3636   -2.6786    2.1788 H   0  0  0  0  0  0  0  0  0  0  0  0
    3.8115   -3.3236    1.3242 H   0  0  0  0  0  0  0  0  0  0  0  0
    2.2693   -4.2396    1.2988 H   0  0  0  0  0  0  0  0  0  0  0  0
  1  2  1  0  0  0  0
  2 18  1  0  0  0  0
  3  5  1  0  0  0  0
  3  1  1  0  0  0  0
  4  2  1  0  0  0  0
  4  6  1  0  0  0  0
  5  4  2  0  0  0  0
  7  5  1  0  0  0  0
  7  9  2  0  0  0  0
  8 16  1  0  0  0  0
  8  6  2  0  0  0  0
  9  8  1  0  0  0  0
 10  9  1  0  0  0  0
 10 12  2  0  0  0  0
 11 10  1  0  0  0  0
 12 14  1  0  0  0  0
 13 12  1  0  0  0  0
 14 15  1  0  0  0  0
 14 16  2  0  0  0  0
 16 17  1  0  0  0  0
 18 24  1  0  0  0  0
 19 18  1  0  0  0  0
 20 18  1  0  0  0  0
 21 20  1  0  0  0  0
 22 20  1  0  0  0  0
 23 20  1  0  0  0  0
 24 26  1  0  0  0  0
 24 27  1  0  0  0  0
 24 25  1  0  0  0  0
 28  3  1  0  0  0  0
 28 34  1  0  0  0  0
 29 28  1  0  0  0  0
 30 28  1  0  0  0  0
 31 30  1  0  0  0  0
 32 30  1  0  0  0  0
 33 30  1  0  0  0  0
 34 37  1  0  0  0  0
 34 36  1  0  0  0  0
 34 35  1  0  0  0  0
M  END
