5
q = 0.0, confidence = 0.958

 50 50  0  0  1  0  0  0  0  0999 V2000
   -2.3717   -0.2049   -0.8644 O   0  0  0  0  0  0  0  0  0  0  0  0
   -2.0083   -2.0857    0.3825 O   0  0  0  0  0  0  0  0  0  0  0  0
    2.4382   -0.1832    0.0416 O   0  0  0  0  0  0  0  0  0  0  0  0
    2.6380   -1.2776   -1.9428 O   0  0  0  0  0  0  0  0  0  0  0  0
   -1.1024    0.3209   -0.7112 C   0  0  1  0  0  3  0  0  0  0  0  0
   -2.7627   -1.3860   -0.2550 C   0  0  0  0  0  0  0  0  0  0  0  0
   -4.2538   -1.6334   -0.4947 C   0  0  0  0  0  0  0  0  0  0  0  0
   -4.6369   -2.9606    0.1748 C   0  0  0  0  0  0  0  0  0  0  0  0
   -4.4431   -2.9295    1.2644 H   0  0  0  0  0  0  0  0  0  0  0  0
   -4.0540   -3.8043   -0.2432 H   0  0  0  0  0  0  0  0  0  0  0  0
   -5.7142   -3.1647    0.0150 H   0  0  0  0  0  0  0  0  0  0  0  0
   -4.5149   -1.6977   -2.0151 C   0  0  0  0  0  0  0  0  0  0  0  0
   -5.5935   -1.8777   -2.1987 H   0  0  0  0  0  0  0  0  0  0  0  0
   -3.9466   -2.5250   -2.4865 H   0  0  0  0  0  0  0  0  0  0  0  0
   -4.2298   -0.7510   -2.5127 H   0  0  0  0  0  0  0  0  0  0  0  0
   -5.0505   -0.4652    0.1288 C   0  0  0  0  0  0  0  0  0  0  0  0
   -4.8024    0.4959   -0.3609 H   0  0  0  0  0  0  0  0  0  0  0  0
   -4.8377   -0.3639    1.2117 H   0  0  0  0  0  0  0  0  0  0  0  0
   -6.1368   -0.6503    0.0057 H   0  0  0  0  0  0  0  0  0  0  0  0
    0.1057   -0.4139   -0.5513 C   0  0  0  0  0  3  0  0  0  0  0  0
    0.1361   -1.5040   -0.4460 H   0  0  0  0  0  0  0  0  0  0  0  0
    1.2544    0.4428   -0.4037 C   0  0  2  0  0  3  0  0  0  0  0  0
    3.0586   -1.0520   -0.8265 C   0  0  0  0  0  0  0  0  0  0  0  0
    4.2903   -1.6858   -0.1722 C   0  0  0  0  0  0  0  0  0  0  0  0
    5.2086   -0.5785    0.3845 C   0  0  0  0  0  0  0  0  0  0  0  0
    5.5560    0.0989   -0.4219 H   0  0  0  0  0  0  0  0  0  0  0  0
    6.1035   -1.0365    0.8527 H   0  0  0  0  0  0  0  0  0  0  0  0
    4.6868    0.0294    1.1476 H   0  0  0  0  0  0  0  0  0  0  0  0
    5.0281   -2.5210   -1.2277 C   0  0  0  0  0  0  0  0  0  0  0  0
    4.3678   -3.3010   -1.6530 H   0  0  0  0  0  0  0  0  0  0  0  0
    5.9090   -3.0142   -0.7704 H   0  0  0  0  0  0  0  0  0  0  0  0
    5.3782   -1.8884   -2.0670 H   0  0  0  0  0  0  0  0  0  0  0  0
    3.7964   -2.5890    0.9812 C   0  0  0  0  0  0  0  0  0  0  0  0
    3.2437   -2.0078    1.7441 H   0  0  0  0  0  0  0  0  0  0  0  0
    4.6644   -3.0748    1.4716 H   0  0  0  0  0  0  0  0  0  0  0  0
    3.1276   -3.3890    0.6038 H   0  0  0  0  0  0  0  0  0  0  0  0
    1.4890    1.6325   -1.3079 C   0  0  0  0  0  0  0  0  0  0  0  0
    1.9851    1.2738   -2.2355 H   0  0  0  0  0  0  0  0  0  0  0  0
    2.1988    2.3189   -0.8034 H   0  0  0  0  0  0  0  0  0  0  0  0
    0.1491    2.3482   -1.6285 C   0  0  0  0  0  0  0  0  0  0  0  0
   -0.9370    1.7512   -0.7199 C   0  0  0  0  0  3  0  0  0  0  0  0
   -1.8756    2.3285   -0.6702 H   0  0  0  0  0  0  0  0  0  0  0  0
   -0.2632    2.0882   -3.0957 C   0  0  0  0  0  0  0  0  0  0  0  0
    0.4570    2.5585   -3.7965 H   0  0  0  0  0  0  0  0  0  0  0  0
   -1.2672    2.5104   -3.3067 H   0  0  0  0  0  0  0  0  0  0  0  0
   -0.2949    1.0016   -3.3136 H   0  0  0  0  0  0  0  0  0  0  0  0
    0.2612    3.8627   -1.3972 C   0  0  0  0  0  0  0  0  0  0  0  0
    0.5189    4.0980   -0.3472 H   0  0  0  0  0  0  0  0  0  0  0  0
   -0.6963    4.3696   -1.6363 H   0  0  0  0  0  0  0  0  0  0  0  0
    1.0458    4.2990   -2.0485 H   0  0  0  0  0  0  0  0  0  0  0  0
  1  6  1  0  0  0  0
  4 23  2  0  0  0  0
  5  1  1  6  0  0  0
  5 20  1  0  0  0  0
  6  2  2  0  0  0  0
  7  6  1  0  0  0  0
  7 16  1  0  0  0  0
  7  8  1  0  0  0  0
  8  9  1  0  0  0  0
 10  8  1  0  0  0  0
 11  8  1  0  0  0  0
 12  7  1  0  0  0  0
 13 12  1  0  0  0  0
 14 12  1  0  0  0  0
 15 12  1  0  0  0  0
 16 18  1  0  0  0  0
 17 16  1  0  0  0  0
 19 16  1  0  0  0  0
 20 21  1  0  0  0  0
 20 22  1  0  0  0  0
 22  3  1  6  0  0  0
 23 24  1  0  0  0  0
 23  3  1  0  0  0  0
 24 25  1  0  0  0  0
 24 33  1  0  0  0  0
 25 27  1  0  0  0  0
 25 28  1  0  0  0  0
 26 25  1  0  0  0  0
 29 31  1  0  0  0  0
 29 24  1  0  0  0  0
 30 29  1  0  0  0  0
 32 29  1  0  0  0  0
 33 35  1  0  0  0  0
 33 34  1  0  0  0  0
 36 33  1  0  0  0  0
 37 39  1  0  0  0  0
 37 22  1  0  0  0  0
 38 37  1  0  0  0  0
 40 47  1  0  0  0  0
 40 37  1  0  0  0  0
 40 41  1  0  0  0  0
 41  5  1  0  0  0  0
 41 42  1  0  0  0  0
 43 40  1  0  0  0  0
 44 43  1  0  0  0  0
 45 43  1  0  0  0  0
 46 43  1  0  0  0  0
 47 48  1  0  0  0  0
 49 47  1  0  0  0  0
 50 47  1  0  0  0  0
M  END
