51
q = 0.0, confidence = 0.94

 62 62  0  0  1  0  0  0  0  0999 V2000
   -4.2846    1.3806    0.7038 O   0  0  0  0  0  0  0  0  0  0  0  0
   -4.5839    3.1515   -0.7119 O   0  0  0  0  0  0  0  0  0  0  0  0
   -5.4396    0.7716    0.2345 C   0  0  2  0  0  3  0  0  0  0  0  0
   -3.8974    2.5671    0.0950 C   0  0  0  0  0  0  0  0  0  0  0  0
   -2.5178    2.9480    0.5710 C   0  0  0  0  0  0  0  0  0  0  0  0
   -2.4972    2.9026    1.6802 H   0  0  0  0  0  0  0  0  0  0  0  0
   -2.3360    3.9944    0.2591 H   0  0  0  0  0  0  0  0  0  0  0  0
   -1.4394    2.0071    0.0008 C   0  0  0  0  0  0  0  0  0  0  0  0
   -1.6844    0.9604    0.2794 H   0  0  0  0  0  0  0  0  0  0  0  0
   -1.4751    2.0467   -1.1101 H   0  0  0  0  0  0  0  0  0  0  0  0
   -0.0290    2.3539    0.4820 C   0  0  0  0  0  0  0  0  0  0  0  0
   -0.0024    2.3168    1.5945 H   0  0  0  0  0  0  0  0  0  0  0  0
    0.2085    3.4074    0.2112 H   0  0  0  0  0  0  0  0  0  0  0  0
    1.0490    1.4257   -0.0836 C   0  0  0  0  0  0  0  0  0  0  0  0
    0.8009    0.3728    0.1793 H   0  0  0  0  0  0  0  0  0  0  0  0
    1.0238    1.4682   -1.1960 H   0  0  0  0  0  0  0  0  0  0  0  0
    2.4625    1.7532    0.4043 C   0  0  0  0  0  0  0  0  0  0  0  0
    2.4868    1.7097    1.5169 H   0  0  0  0  0  0  0  0  0  0  0  0
    2.7074    2.8078    0.1430 H   0  0  0  0  0  0  0  0  0  0  0  0
    3.5429    0.8279   -0.1614 C   0  0  0  0  0  0  0  0  0  0  0  0
    3.2973   -0.2265    0.0994 H   0  0  0  0  0  0  0  0  0  0  0  0
    3.5189    0.8715   -1.2739 H   0  0  0  0  0  0  0  0  0  0  0  0
    4.9563    1.1545    0.3276 C   0  0  0  0  0  0  0  0  0  0  0  0
    4.9798    1.1106    1.4403 H   0  0  0  0  0  0  0  0  0  0  0  0
    5.2009    2.2095    0.0675 H   0  0  0  0  0  0  0  0  0  0  0  0
    6.0382    0.2307   -0.2376 C   0  0  0  0  0  0  0  0  0  0  0  0
    6.0147    0.2744   -1.3502 H   0  0  0  0  0  0  0  0  0  0  0  0
    5.7940   -0.8242    0.0228 H   0  0  0  0  0  0  0  0  0  0  0  0
    7.4513    0.5583    0.2517 C   0  0  0  0  0  0  0  0  0  0  0  0
    7.6951    1.6136   -0.0084 H   0  0  0  0  0  0  0  0  0  0  0  0
    7.4746    0.5146    1.3644 H   0  0  0  0  0  0  0  0  0  0  0  0
    8.5343   -0.3645   -0.3132 C   0  0  0  0  0  0  0  0  0  0  0  0
    8.2908   -1.4197   -0.0529 H   0  0  0  0  0  0  0  0  0  0  0  0
    8.5109   -0.3209   -1.4259 H   0  0  0  0  0  0  0  0  0  0  0  0
    9.9471   -0.0359    0.1762 C   0  0  0  0  0  0  0  0  0  0  0  0
    9.9702   -0.0796    1.2889 H   0  0  0  0  0  0  0  0  0  0  0  0
   10.1901    1.0194   -0.0839 H   0  0  0  0  0  0  0  0  0  0  0  0
   11.0306   -0.9582   -0.3886 C   0  0  0  0  0  0  0  0  0  0  0  0
   10.7873   -2.0135   -0.1284 H   0  0  0  0  0  0  0  0  0  0  0  0
   11.0071   -0.9144   -1.5013 H   0  0  0  0  0  0  0  0  0  0  0  0
   12.4434   -0.6296    0.1006 C   0  0  0  0  0  0  0  0  0  0  0  0
   12.4670   -0.6733    1.2135 H   0  0  0  0  0  0  0  0  0  0  0  0
   12.6867    0.4260   -0.1594 H   0  0  0  0  0  0  0  0  0  0  0  0
   13.5282   -1.5517   -0.4641 C   0  0  0  0  0  0  0  0  0  0  0  0
   13.2813   -2.6054   -0.2039 H   0  0  0  0  0  0  0  0  0  0  0  0
   13.5012   -1.5065   -1.5759 H   0  0  0  0  0  0  0  0  0  0  0  0
   14.9351   -1.2150    0.0311 C   0  0  0  0  0  0  0  0  0  0  0  0
   15.2230   -0.1793   -0.2467 H   0  0  0  0  0  0  0  0  0  0  0  0
   15.6971   -1.8988   -0.3944 H   0  0  0  0  0  0  0  0  0  0  0  0
   15.0012   -1.2877    1.1370 H   0  0  0  0  0  0  0  0  0  0  0  0
   -6.4376    0.3369    1.1498 C   0  0  0  0  0  3  0  0  0  0  0  0
   -6.3185    0.4824    2.2334 H   0  0  0  0  0  0  0  0  0  0  0  0
   -7.5130   -0.3868    0.5184 C   0  0  0  0  0  3  0  0  0  0  0  0
   -8.2050   -0.9186    1.1919 H   0  0  0  0  0  0  0  0  0  0  0  0
   -8.1244    0.1366   -0.7706 C   0  0  0  0  0  0  0  0  0  0  0  0
   -8.8329    0.9602   -0.5278 H   0  0  0  0  0  0  0  0  0  0  0  0
   -8.7348   -0.6644   -1.2340 H   0  0  0  0  0  0  0  0  0  0  0  0
   -7.0273    0.6204   -1.7425 C   0  0  0  0  0  0  0  0  0  0  0  0
   -7.0911    0.0840   -2.7102 H   0  0  0  0  0  0  0  0  0  0  0  0
   -7.1358    1.7029   -1.9730 H   0  0  0  0  0  0  0  0  0  0  0  0
   -5.6531    0.4063   -1.1380 C   0  0  0  0  0  3  0  0  0  0  0  0
   -4.7956    0.5479   -1.8147 H   0  0  0  0  0  0  0  0  0  0  0  0
  2  4  2  0  0  0  0
  3  1  1  1  0  0  0
  3 51  1  0  0  0  0
  4  5  1  0  0  0  0
  4  1  1  0  0  0  0
  5  6  1  0  0  0  0
  7  5  1  0  0  0  0
  8  9  1  0  0  0  0
  8 11  1  0  0  0  0
  8  5  1  0  0  0  0
 10  8  1  0  0  0  0
 11 12  1  0  0  0  0
 13 11  1  0  0  0  0
 14 15  1  0  0  0  0
 14 17  1  0  0  0  0
 14 11  1  0  0  0  0
 16 14  1  0  0  0  0
 17 18  1  0  0  0  0
 19 17  1  0  0  0  0
 20 21  1  0  0  0  0
 20 23  1  0  0  0  0
 20 17  1  0  0  0  0
 22 20  1  0  0  0  0
 23 24  1  0  0  0  0
 25 23  1  0  0  0  0
 26 28  1  0  0  0  0
 26 29  1  0  0  0  0
 26 23  1  0  0  0  0
 27 26  1  0  0  0  0
 29 31  1  0  0  0  0
 30 29  1  0  0  0  0
 32 33  1  0  0  0  0
 32 35  1  0  0  0  0
 32 29  1  0  0  0  0
 34 32  1  0  0  0  0
 35 36  1  0  0  0  0
 37 35  1  0  0  0  0
 38 39  1  0  0  0  0
 38 41  1  0  0  0  0
 38 35  1  0  0  0  0
 40 38  1  0  0  0  0
 41 42  1  0  0  0  0
 43 41  1  0  0  0  0
 44 45  1  0  0  0  0
 44 47  1  0  0  0  0
 44 41  1  0  0  0  0
 46 44  1  0  0  0  0
 47 50  1  0  0  0  0
 48 47  1  0  0  0  0
 49 47  1  0  0  0  0
 51 52  1  0  0  0  0
 53 51  1  0  0  0  0
 53 54  1  0  0  0  0
 55 56  1  0  0  0  0
 55 53  1  0  0  0  0
 57 55  1  0  0  0  0
 58 61  1  0  0  0  0
 58 55  1  0  0  0  0
 59 58  1  0  0  0  0
 60 58  1  0  0  0  0
 61  3  1  0  0  0  0
 62 61  1  0  0  0  0
M  END
