5
q = -1.0, confidence = 0.096

 28 29  0  0  0  0  0  0  0  0999 V2000
  -11.8430   -1.4977   -0.4182 O   0  0  0  0  0  0  0  0  0  0  0  0
  -11.9309    0.3632    0.7281 O   0  0  0  0  0  0  0  0  0  0  0  0
  -11.3223   -0.5113    0.1078 N   0  0  0  0  0  0  0  0  0  0  0  0
   -4.9907    1.0405    0.1385 N   0  0  0  0  0  0  0  0  0  0  0  0
    1.8674    1.7945   -0.1506 C   0  0  0  0  0  3  0  0  0  0  0  0
    0.6257    1.7419   -0.0680 C   0  0  0  0  0  0  0  0  0  0  0  0
   -0.7792    1.5667   -0.0116 C   0  0  0  0  0  0  0  0  0  0  0  0
   -1.3370    0.2578   -0.1245 C   0  0  0  0  0  0  0  0  0  0  0  0
   -2.7128    0.0556   -0.0845 C   0  0  0  0  0  0  0  0  0  0  0  0
   -3.6069    1.1495    0.0814 C   0  0  0  0  0  0  0  0  0  0  0  0
   -3.0515    2.4468    0.2310 C   0  0  0  0  0  0  0  0  0  0  0  0
   -1.6766    2.6568    0.1687 C   0  0  0  0  0  0  0  0  0  0  0  0
   -7.0837   -0.0911   -0.2446 C   0  0  0  0  0  0  0  0  0  0  0  0
   -7.7483   -1.1987   -0.8254 C   0  0  0  0  0  0  0  0  0  0  0  0
   -9.1331   -1.3429   -0.7141 C   0  0  0  0  0  0  0  0  0  0  0  0
   -9.8566   -0.3658   -0.0149 C   0  0  0  0  0  0  0  0  0  0  0  0
   -9.2279    0.7468    0.5717 C   0  0  0  0  0  0  0  0  0  0  0  0
   -7.8459    0.8786    0.4560 C   0  0  0  0  0  0  0  0  0  0  0  0
   -5.6323    0.0389   -0.3721 C   0  0  0  0  0  0  0  0  0  0  0  0
   -0.6545   -0.5968   -0.2396 H   0  0  0  0  0  0  0  0  0  0  0  0
   -3.1076   -0.9697   -0.1494 H   0  0  0  0  0  0  0  0  0  0  0  0
   -3.7493    3.2840    0.3805 H   0  0  0  0  0  0  0  0  0  0  0  0
   -1.2640    3.6712    0.2687 H   0  0  0  0  0  0  0  0  0  0  0  0
   -7.1611   -1.9543   -1.3708 H   0  0  0  0  0  0  0  0  0  0  0  0
   -9.6751   -2.1906   -1.1533 H   0  0  0  0  0  0  0  0  0  0  0  0
   -9.8455    1.4809    1.1060 H   0  0  0  0  0  0  0  0  0  0  0  0
   -7.3096    1.7307    0.8983 H   0  0  0  0  0  0  0  0  0  0  0  0
   -5.1236   -0.7695   -0.9504 H   0  0  0  0  0  0  0  0  0  0  0  0
  1  3  2  0  0  0  0
  3  2  2  0  0  0  0
  5  6  3  0  0  0  0
  6  7  1  0  0  0  0
  7 12  1  0  0  0  0
  8  9  1  0  0  0  0
  8  7  2  0  0  0  0
  9 10  2  0  0  0  0
 10  4  1  0  0  0  0
 10 11  1  0  0  0  0
 11 22  1  0  0  0  0
 12 11  2  0  0  0  0
 12 23  1  0  0  0  0
 13 18  1  0  0  0  0
 14 15  1  0  0  0  0
 14 13  2  0  0  0  0
 15 16  2  0  0  0  0
 16  3  1  0  0  0  0
 16 17  1  0  0  0  0
 17 26  1  0  0  0  0
 18 17  2  0  0  0  0
 18 27  1  0  0  0  0
 19 13  1  0  0  0  0
 19  4  2  0  0  0  0
 20  8  1  0  0  0  0
 21  9  1  0  0  0  0
 24 14  1  0  0  0  0
 25 15  1  0  0  0  0
 28 19  1  0  0  0  0
M  END
