9
q = -1.0, confidence = 0.04

 27 27  0  0  0  0  0  0  0  0999 V2000
   -0.8278    2.3904    0.8050 F   0  0  0  0  0  0  0  0  0  0  0  0
   -2.7686    3.2081    1.3367 F   0  0  0  0  0  0  0  0  0  0  0  0
   -1.9933    3.4746   -0.6822 F   0  0  0  0  0  0  0  0  0  0  0  0
   -4.5600    2.8000   -0.6120 F   0  0  0  0  0  0  0  0  0  0  0  0
   -3.8721    1.4743   -2.1996 F   0  0  0  0  0  0  0  0  0  0  0  0
   -5.0485    0.6905   -0.5337 F   0  0  0  0  0  0  0  0  0  0  0  0
   -3.1484    0.8518    3.5115 N   0  0  0  0  0  0  0  0  0  0  0  0
    0.7234   -0.9801    3.9396 N   0  0  0  0  0  0  0  0  0  0  0  0
   -1.0525   -0.3070    0.8723 C   0  0  0  0  0  3  0  0  0  0  0  0
   -2.3080    0.0524    0.1532 C   0  0  0  0  0  0  0  0  0  0  0  0
   -2.7742    1.3136   -0.0934 C   0  0  0  0  0  0  0  0  0  0  0  0
   -1.0807   -0.1405    2.2569 C   0  0  0  0  0  0  0  0  0  0  0  0
   -2.2171    0.4202    2.9379 C   0  0  0  0  0  0  0  0  0  0  0  0
   -0.0502   -0.5832    3.1474 C   0  0  0  0  0  0  0  0  0  0  0  0
   -3.0828   -1.1801   -0.2306 C   0  0  0  0  0  0  0  0  0  0  0  0
   -2.0887    2.5926    0.3496 C   0  0  0  0  0  0  0  0  0  0  0  0
   -4.0723    1.5634   -0.8515 C   0  0  0  0  0  0  0  0  0  0  0  0
   -3.5213   -2.0432    0.7961 C   0  0  0  0  0  0  0  0  0  0  0  0
   -4.2007   -3.2293    0.4852 C   0  0  0  0  0  0  0  0  0  0  0  0
   -4.4349   -3.5791   -0.8545 C   0  0  0  0  0  0  0  0  0  0  0  0
   -4.0070   -2.7202   -1.8792 C   0  0  0  0  0  0  0  0  0  0  0  0
   -3.3436   -1.5238   -1.5718 C   0  0  0  0  0  0  0  0  0  0  0  0
   -3.3456   -1.7706    1.8468 H   0  0  0  0  0  0  0  0  0  0  0  0
   -4.5497   -3.8841    1.2979 H   0  0  0  0  0  0  0  0  0  0  0  0
   -4.9594   -4.5153   -1.0989 H   0  0  0  0  0  0  0  0  0  0  0  0
   -4.1944   -2.9786   -2.9323 H   0  0  0  0  0  0  0  0  0  0  0  0
   -3.0195   -0.8547   -2.3785 H   0  0  0  0  0  0  0  0  0  0  0  0
  3 16  1  0  0  0  0
  5 17  1  0  0  0  0
  9 12  2  0  0  0  0
 10  9  1  0  0  0  0
 11 10  2  0  0  0  0
 11 16  1  0  0  0  0
 12 13  1  0  0  0  0
 12 14  1  0  0  0  0
 13  7  3  0  0  0  0
 14  8  3  0  0  0  0
 15 10  1  0  0  0  0
 15 18  1  0  0  0  0
 16  1  1  0  0  0  0
 16  2  1  0  0  0  0
 17  4  1  0  0  0  0
 17  6  1  0  0  0  0
 17 11  1  0  0  0  0
 18 23  1  0  0  0  0
 19 18  2  0  0  0  0
 19 24  1  0  0  0  0
 20 19  1  0  0  0  0
 21 22  1  0  0  0  0
 21 20  2  0  0  0  0
 22 15  2  0  0  0  0
 25 20  1  0  0  0  0
 26 21  1  0  0  0  0
 27 22  1  0  0  0  0
M  END
