3
q = -1.0, confidence = 0.03

 21 21  0  0  0  0  0  0  0  0999 V2000
   -8.5433   -0.0900   -0.9475 O   0  0  0  0  0  0  0  0  0  0  0  0
   -8.0599    0.4878    1.1932 O   0  0  0  0  0  0  0  0  0  0  0  0
   -1.0047    0.8070   -0.3367 C   0  0  0  0  0  3  0  0  0  0  0  0
   -1.3159    1.1304    0.6802 H   0  0  0  0  0  0  0  0  0  0  0  0
   -2.0247    0.4970   -1.1926 C   0  0  0  0  0  0  0  0  0  0  0  0
   -1.7890    0.1810   -2.2250 H   0  0  0  0  0  0  0  0  0  0  0  0
   -3.4538    0.4694   -0.8712 C   0  0  0  0  0  0  0  0  0  0  0  0
   -4.3889    0.1190   -1.8821 C   0  0  0  0  0  0  0  0  0  0  0  0
   -4.0132   -0.0978   -2.8947 H   0  0  0  0  0  0  0  0  0  0  0  0
   -5.7562    0.0420   -1.6191 C   0  0  0  0  0  0  0  0  0  0  0  0
   -6.4761   -0.2297   -2.4055 H   0  0  0  0  0  0  0  0  0  0  0  0
   -6.2529    0.3101   -0.3258 C   0  0  0  0  0  0  0  0  0  0  0  0
   -5.3383    0.6611    0.6939 C   0  0  0  0  0  0  0  0  0  0  0  0
   -5.7195    0.8726    1.7029 H   0  0  0  0  0  0  0  0  0  0  0  0
   -3.9721    0.7378    0.4259 C   0  0  0  0  0  0  0  0  0  0  0  0
   -3.2805    1.0095    1.2374 H   0  0  0  0  0  0  0  0  0  0  0  0
   -7.7156    0.2081   -0.0990 C   0  0  0  0  0  0  0  0  0  0  0  0
   -9.4568    0.4096    1.4741 C   0  0  0  0  0  0  0  0  0  0  0  0
   -9.5718    0.6599    2.5443 H   0  0  0  0  0  0  0  0  0  0  0  0
   -9.8490   -0.6085    1.2721 H   0  0  0  0  0  0  0  0  0  0  0  0
  -10.0311    1.1233    0.8480 H   0  0  0  0  0  0  0  0  0  0  0  0
  1 17  2  0  0  0  0
  2 18  1  0  0  0  0
  3  4  1  0  0  0  0
  5  7  1  0  0  0  0
  5  3  2  0  0  0  0
  6  5  1  0  0  0  0
  7 15  1  0  0  0  0
  8 10  1  0  0  0  0
  8  7  2  0  0  0  0
  9  8  1  0  0  0  0
 10 12  2  0  0  0  0
 11 10  1  0  0  0  0
 12 17  1  0  0  0  0
 12 13  1  0  0  0  0
 13 14  1  0  0  0  0
 15 13  2  0  0  0  0
 15 16  1  0  0  0  0
 17  2  1  0  0  0  0
 18 19  1  0  0  0  0
 20 18  1  0  0  0  0
 21 18  1  0  0  0  0
M  END
