5
q = 0.0, confidence = 1.0

 35 36  0  0  1  0  0  0  0  0999 V2000
   -2.2518    2.4194    2.8131 O   0  0  0  0  0  0  0  0  0  0  0  0
   -3.4386    2.0594    0.9235 O   0  0  0  0  0  0  0  0  0  0  0  0
   -0.7875    2.3664   -0.2736 C   0  0  2  0  0  0  0  0  0  0  0  0
   -1.6470    1.8892   -0.7916 H   0  0  0  0  0  0  0  0  0  0  0  0
   -0.0370    1.3098    0.5188 C   0  0  0  0  0  3  0  0  0  0  0  0
    1.3943    1.3874    0.6731 C   0  0  0  0  0  3  0  0  0  0  0  0
    2.1599    2.4457    0.0004 C   0  0  0  0  0  0  0  0  0  0  0  0
    3.5060    2.7069    0.3459 C   0  0  0  0  0  0  0  0  0  0  0  0
    3.9853    2.0794    1.1138 H   0  0  0  0  0  0  0  0  0  0  0  0
    4.2258    3.7444   -0.2620 C   0  0  0  0  0  0  0  0  0  0  0  0
    5.2739    3.9261    0.0226 H   0  0  0  0  0  0  0  0  0  0  0  0
    3.6024    4.5565   -1.2227 C   0  0  0  0  0  0  0  0  0  0  0  0
    4.1552    5.3786   -1.7024 H   0  0  0  0  0  0  0  0  0  0  0  0
    2.2592    4.3193   -1.5587 C   0  0  0  0  0  0  0  0  0  0  0  0
    1.7593    4.9634   -2.3010 H   0  0  0  0  0  0  0  0  0  0  0  0
    1.5294    3.2748   -0.9677 C   0  0  0  0  0  0  0  0  0  0  0  0
    0.1001    2.9976   -1.3674 C   0  0  0  0  0  0  0  0  0  0  0  0
    0.1257    2.2942   -2.2258 H   0  0  0  0  0  0  0  0  0  0  0  0
   -0.3630    3.9222   -1.7668 H   0  0  0  0  0  0  0  0  0  0  0  0
   -1.4704    3.4127    0.7002 C   0  0  0  0  0  0  0  0  0  0  0  0
   -0.4501    4.1588    1.5696 C   0  0  0  0  0  0  0  0  0  0  0  0
   -0.9632    4.8506    2.2670 H   0  0  0  0  0  0  0  0  0  0  0  0
    0.2398    4.7457    0.9337 H   0  0  0  0  0  0  0  0  0  0  0  0
    0.1516    3.4563    2.1747 H   0  0  0  0  0  0  0  0  0  0  0  0
   -2.3310    4.4182   -0.0928 C   0  0  0  0  0  0  0  0  0  0  0  0
   -2.9388    5.0422    0.5938 H   0  0  0  0  0  0  0  0  0  0  0  0
   -3.0200    3.9021   -0.7889 H   0  0  0  0  0  0  0  0  0  0  0  0
   -1.6869    5.1052   -0.6757 H   0  0  0  0  0  0  0  0  0  0  0  0
   -2.3952    2.6027    1.6167 C   0  0  0  0  0  0  0  0  0  0  0  0
   -4.3477    1.2797    1.7020 C   0  0  0  0  0  0  0  0  0  0  0  0
   -3.8260    0.4312    2.1889 H   0  0  0  0  0  0  0  0  0  0  0  0
   -5.1082    0.8989    0.9962 H   0  0  0  0  0  0  0  0  0  0  0  0
   -4.8222    1.8956    2.4931 H   0  0  0  0  0  0  0  0  0  0  0  0
   -0.6005    0.9779    1.4072 H   0  0  0  0  0  0  0  0  0  0  0  0
    1.8351    1.0490    1.6265 H   0  0  0  0  0  0  0  0  0  0  0  0
  2 29  1  0  0  0  0
  2 30  1  0  0  0  0
  3  4  1  6  0  0  0
  3  5  1  0  0  0  0
  3 20  1  0  0  0  0
  5  6  1  0  0  0  0
  5 34  1  0  0  0  0
  6 35  1  0  0  0  0
  7  8  1  0  0  0  0
  7  6  1  0  0  0  0
  8  9  1  0  0  0  0
 10 11  1  0  0  0  0
 10  8  2  0  0  0  0
 12 10  1  0  0  0  0
 13 12  1  0  0  0  0
 14 12  2  0  0  0  0
 14 16  1  0  0  0  0
 15 14  1  0  0  0  0
 16  7  2  0  0  0  0
 17 16  1  0  0  0  0
 17  3  1  0  0  0  0
 18 17  1  0  0  0  0
 19 17  1  0  0  0  0
 20 21  1  0  0  0  0
 20 29  1  0  0  0  0
 21 24  1  0  0  0  0
 21 22  1  0  0  0  0
 23 21  1  0  0  0  0
 25 26  1  0  0  0  0
 25 20  1  0  0  0  0
 27 25  1  0  0  0  0
 28 25  1  0  0  0  0
 29  1  2  0  0  0  0
 30 31  1  0  0  0  0
 30 33  1  0  0  0  0
 32 30  1  0  0  0  0
M  END
