3
q = -1.0, confidence = 0.0

 31 31  0  0  0  0  0  0  0  0999 V2000
    0.6768   -2.0145   -0.2475 B   0  0  0  0  0  0  0  0  0  0  0  0
   -0.4490   -2.3039    0.7335 C   0  0  0  0  0  0  0  0  0  0  0  0
   -1.6269   -2.5851   -0.0493 C   0  0  0  0  0  3  0  0  0  0  0  0
   -1.3319   -2.4605   -1.4410 C   0  0  0  0  0  0  0  0  0  0  0  0
    0.0272   -2.0627   -1.6315 C   0  0  0  0  0  0  0  0  0  0  0  0
    2.1717   -1.6927    0.0966 N   0  3  0  0  0  0  0  0  0  0  0  0
    2.4450   -1.7031    1.5898 C   0  0  0  0  0  0  0  0  0  0  0  0
    2.4944   -3.1089    2.1801 C   0  0  0  0  0  0  0  0  0  0  0  0
    3.6873   -0.8815    1.9337 C   0  0  0  0  0  0  0  0  0  0  0  0
    3.2149   -2.4011   -0.7554 C   0  0  0  0  0  0  0  0  0  0  0  0
    2.8488   -3.8518   -1.0662 C   0  0  0  0  0  0  0  0  0  0  0  0
    3.4685   -1.5857   -2.0234 C   0  0  0  0  0  0  0  0  0  0  0  0
   -0.4749   -2.3481    1.8318 H   0  0  0  0  0  0  0  0  0  0  0  0
   -2.6017   -2.9010    0.3461 H   0  0  0  0  0  0  0  0  0  0  0  0
   -2.0740   -2.5897   -2.2420 H   0  0  0  0  0  0  0  0  0  0  0  0
    0.4037   -1.8226   -2.6357 H   0  0  0  0  0  0  0  0  0  0  0  0
    2.2173   -0.6663   -0.1491 H   0  0  0  0  0  0  0  0  0  0  0  0
    1.5652   -1.1719    2.0036 H   0  0  0  0  0  0  0  0  0  0  0  0
    2.5025   -3.0360    3.2856 H   0  0  0  0  0  0  0  0  0  0  0  0
    1.6112   -3.7036    1.8801 H   0  0  0  0  0  0  0  0  0  0  0  0
    3.4143   -3.6508    1.8806 H   0  0  0  0  0  0  0  0  0  0  0  0
    3.7752   -0.7938    3.0343 H   0  0  0  0  0  0  0  0  0  0  0  0
    4.6242   -1.3490    1.5676 H   0  0  0  0  0  0  0  0  0  0  0  0
    3.6137    0.1415    1.5174 H   0  0  0  0  0  0  0  0  0  0  0  0
    3.6914   -4.3272   -1.6068 H   0  0  0  0  0  0  0  0  0  0  0  0
    2.6525   -4.4421   -0.1532 H   0  0  0  0  0  0  0  0  0  0  0  0
    1.9450   -3.9029   -1.7021 H   0  0  0  0  0  0  0  0  0  0  0  0
    4.2802   -2.0551   -2.6128 H   0  0  0  0  0  0  0  0  0  0  0  0
    2.5637   -1.5414   -2.6587 H   0  0  0  0  0  0  0  0  0  0  0  0
    3.7706   -0.5473   -1.7852 H   0  0  0  0  0  0  0  0  0  0  0  0
    4.1463   -2.3918   -0.1521 H   0  0  0  0  0  0  0  0  0  0  0  0
  1  6  1  0  0  0  0
  1  2  2  0  0  0  0
  2 13  1  0  0  0  0
  3 14  1  0  0  0  0
  3  2  1  0  0  0  0
  4  3  1  0  0  0  0
  5  4  2  0  0  0  0
  5  1  1  0  0  0  0
  6  7  1  0  0  0  0
  7  9  1  0  0  0  0
  7 18  1  0  0  0  0
  7  8  1  0  0  0  0
  8 19  1  0  0  0  0
  9 22  1  0  0  0  0
 10 31  1  0  0  0  0
 10  6  1  0  0  0  0
 11 10  1  0  0  0  0
 11 26  1  0  0  0  0
 12 30  1  0  0  0  0
 12 10  1  0  0  0  0
 15  4  1  0  0  0  0
 16  5  1  0  0  0  0
 17  6  1  0  0  0  0
 20  8  1  0  0  0  0
 21  8  1  0  0  0  0
 23  9  1  0  0  0  0
 24  9  1  0  0  0  0
 25 11  1  0  0  0  0
 27 11  1  0  0  0  0
 28 12  1  0  0  0  0
 29 12  1  0  0  0  0
M  CHG  1   6   1
M  END
