4
q = 0.0, confidence = 0.798

 24 24  0  0  0  0  0  0  0  0999 V2000
    0.8382   -0.3135   -2.0290 B   0  0  0  0  0  0  0  0  0  0  0  0
    0.0196    0.9341   -2.4410 C   0  0  0  0  0  0  0  0  0  0  0  0
   -1.2843    0.5118   -2.8486 C   0  0  0  0  0  0  0  0  0  0  0  0
   -1.4108   -0.9021   -2.6772 C   0  0  0  0  0  3  0  0  0  0  0  0
   -0.1668   -1.4522   -2.2009 C   0  0  0  0  0  0  0  0  0  0  0  0
    2.2058   -0.3495   -1.3418 C   0  0  0  0  0  0  0  0  0  0  0  0
    3.3004   -0.3666   -0.7493 C   0  0  0  0  0  0  0  0  0  0  0  0
    4.9303   -0.3601    0.0977 Si  0  0  0  0  0  0  0  0  0  0  0  0
    4.6756   -0.6623    1.9536 C   0  0  0  0  0  0  0  0  0  0  0  0
    6.0221   -1.7267   -0.6213 C   0  0  0  0  0  0  0  0  0  0  0  0
    5.7458    1.3311   -0.1527 C   0  0  0  0  0  0  0  0  0  0  0  0
    0.3341    1.9836   -2.5202 H   0  0  0  0  0  0  0  0  0  0  0  0
   -2.0938    1.1650   -3.2027 H   0  0  0  0  0  0  0  0  0  0  0  0
   -2.3201   -1.4734   -2.9219 H   0  0  0  0  0  0  0  0  0  0  0  0
   -0.0471   -2.5267   -2.0160 H   0  0  0  0  0  0  0  0  0  0  0  0
    5.6531   -0.7187    2.4762 H   0  0  0  0  0  0  0  0  0  0  0  0
    4.0893    0.1563    2.4189 H   0  0  0  0  0  0  0  0  0  0  0  0
    4.1347   -1.6138    2.1322 H   0  0  0  0  0  0  0  0  0  0  0  0
    7.0171   -1.7397   -0.1298 H   0  0  0  0  0  0  0  0  0  0  0  0
    5.5518   -2.7207   -0.4791 H   0  0  0  0  0  0  0  0  0  0  0  0
    6.1735   -1.5760   -1.7091 H   0  0  0  0  0  0  0  0  0  0  0  0
    6.7317    1.3763    0.3547 H   0  0  0  0  0  0  0  0  0  0  0  0
    5.9016    1.5363   -1.2311 H   0  0  0  0  0  0  0  0  0  0  0  0
    5.1095    2.1415    0.2584 H   0  0  0  0  0  0  0  0  0  0  0  0
  1  6  1  0  0  0  0
  2  1  1  0  0  0  0
  3  4  1  0  0  0  0
  3  2  2  0  0  0  0
  4  5  1  0  0  0  0
  5  1  2  0  0  0  0
  5 15  1  0  0  0  0
  6  7  3  0  0  0  0
  7  8  1  0  0  0  0
  8  9  1  0  0  0  0
  9 18  1  0  0  0  0
  9 17  1  0  0  0  0
  9 16  1  0  0  0  0
 10 20  1  0  0  0  0
 10 19  1  0  0  0  0
 10  8  1  0  0  0  0
 11  8  1  0  0  0  0
 11 24  1  0  0  0  0
 11 22  1  0  0  0  0
 12  2  1  0  0  0  0
 13  3  1  0  0  0  0
 14  4  1  0  0  0  0
 21 10  1  0  0  0  0
 23 11  1  0  0  0  0
M  END
