4
q = 0.0, confidence = 0.982

 26 28  0  0  0  0  0  0  0  0999 V2000
    1.3627    3.0059   -0.0876 O   0  0  0  0  0  0  0  0  0  0  0  0
   -0.1803    1.2179    0.0750 N   0  0  0  0  0  0  0  0  0  0  0  0
   -1.5592    1.1429    0.0534 N   0  0  0  0  0  0  0  0  0  0  0  0
    0.4142   -0.0269    0.0196 C   0  0  0  0  0  2  0  0  0  0  0  0
   -0.7171   -0.9165   -0.0278 C   0  0  0  0  0  0  0  0  0  0  0  0
   -1.9083   -0.1974   -0.0066 C   0  0  0  0  0  0  0  0  0  0  0  0
    0.2127    2.6145   -0.0814 C   0  0  0  0  0  0  0  0  0  0  0  0
   -1.0657    3.3126   -0.2306 C   0  0  0  0  0  0  0  0  0  0  0  0
   -1.1497    4.3936   -0.3752 H   0  0  0  0  0  0  0  0  0  0  0  0
   -2.1022    2.4143   -0.1727 C   0  0  0  0  0  0  0  0  0  0  0  0
   -3.5645    2.6464   -0.3288 C   0  0  0  0  0  0  0  0  0  0  0  0
   -4.1074    2.5255    0.6299 H   0  0  0  0  0  0  0  0  0  0  0  0
   -4.0147    1.9309   -1.0453 H   0  0  0  0  0  0  0  0  0  0  0  0
   -3.7324    3.6754   -0.6943 H   0  0  0  0  0  0  0  0  0  0  0  0
   -3.2928   -0.6882    0.0205 C   0  0  0  0  0  0  0  0  0  0  0  0
   -3.7010   -1.6609   -0.9193 C   0  0  0  0  0  0  0  0  0  0  0  0
   -5.0037   -2.1758   -0.8820 C   0  0  0  0  0  0  0  0  0  0  0  0
   -5.3138   -2.9267   -1.6240 H   0  0  0  0  0  0  0  0  0  0  0  0
   -5.9101   -1.7341    0.0949 C   0  0  0  0  0  0  0  0  0  0  0  0
   -6.9323   -2.1400    0.1228 H   0  0  0  0  0  0  0  0  0  0  0  0
   -5.5062   -0.7804    1.0440 C   0  0  0  0  0  0  0  0  0  0  0  0
   -4.2061   -0.2613    1.0112 C   0  0  0  0  0  0  0  0  0  0  0  0
   -3.8791    0.4563    1.7783 H   0  0  0  0  0  0  0  0  0  0  0  0
   -0.6555   -2.0097   -0.0256 H   0  0  0  0  0  0  0  0  0  0  0  0
   -2.9893   -1.9968   -1.6881 H   0  0  0  0  0  0  0  0  0  0  0  0
   -6.2065   -0.4481    1.8250 H   0  0  0  0  0  0  0  0  0  0  0  0
  1  7  2  0  0  0  0
  3  2  1  0  0  0  0
  4  2  1  0  0  0  0
  5 24  1  0  0  0  0
  5  6  2  0  0  0  0
  5  4  1  0  0  0  0
  6 15  1  0  0  0  0
  6  3  1  0  0  0  0
  7  2  1  0  0  0  0
  8 10  2  0  0  0  0
  8  7  1  0  0  0  0
  9  8  1  0  0  0  0
 10  3  1  0  0  0  0
 11 10  1  0  0  0  0
 11 12  1  0  0  0  0
 13 11  1  0  0  0  0
 14 11  1  0  0  0  0
 15 22  1  0  0  0  0
 16 17  1  0  0  0  0
 16 15  2  0  0  0  0
 17 19  2  0  0  0  0
 18 17  1  0  0  0  0
 19 20  1  0  0  0  0
 19 21  1  0  0  0  0
 21 26  1  0  0  0  0
 22 21  2  0  0  0  0
 22 23  1  0  0  0  0
 25 16  1  0  0  0  0
M  END
