8
q = 0.0, confidence = 0.988

 26 26  0  0  1  0  0  0  0  0999 V2000
   -1.6725   -0.6891   -0.3618 C   0  0  2  0  0  0  0  0  0  0  0  0
   -1.8010    0.6911    0.3181 C   0  0  2  0  0  0  0  0  0  0  0  0
   -3.0078    1.4629   -0.2450 C   0  0  0  0  0  0  0  0  0  0  0  0
   -4.3001    0.6484   -0.1018 C   0  0  0  0  0  0  0  0  0  0  0  0
   -4.1754   -0.7359   -0.7507 C   0  0  0  0  0  0  0  0  0  0  0  0
   -2.9688   -1.5120   -0.2063 C   0  0  0  0  0  0  0  0  0  0  0  0
   -0.4535   -1.4339    0.1301 C   0  0  0  0  0  3  0  0  0  0  0  0
    0.0711   -1.3823    1.4280 C   0  0  0  0  0  3  0  0  0  0  0  0
   -0.5044    1.4579    0.1720 C   0  0  0  0  0  0  0  0  0  0  0  0
    0.3426    1.7579    1.2387 C   0  0  0  0  0  0  0  0  0  0  0  0
   -1.5205   -0.5091   -1.4510 H   0  0  0  0  0  0  0  0  0  0  0  0
   -1.9863    0.5198    1.4024 H   0  0  0  0  0  0  0  0  0  0  0  0
   -2.8197    1.6852   -1.3193 H   0  0  0  0  0  0  0  0  0  0  0  0
   -3.1015    2.4428    0.2675 H   0  0  0  0  0  0  0  0  0  0  0  0
   -5.1504    1.2072   -0.5441 H   0  0  0  0  0  0  0  0  0  0  0  0
   -4.5357    0.5271    0.9792 H   0  0  0  0  0  0  0  0  0  0  0  0
   -4.0630   -0.6169   -1.8512 H   0  0  0  0  0  0  0  0  0  0  0  0
   -5.1043   -1.3220   -0.5932 H   0  0  0  0  0  0  0  0  0  0  0  0
   -3.1168   -1.7390    0.8729 H   0  0  0  0  0  0  0  0  0  0  0  0
   -2.8618   -2.4879   -0.7238 H   0  0  0  0  0  0  0  0  0  0  0  0
   -0.0712   -2.2305   -0.5313 H   0  0  0  0  0  0  0  0  0  0  0  0
    0.8135   -2.1336    1.7357 H   0  0  0  0  0  0  0  0  0  0  0  0
   -0.4234   -0.8149    2.2317 H   0  0  0  0  0  0  0  0  0  0  0  0
   -0.3324    1.9669   -0.7938 H   0  0  0  0  0  0  0  0  0  0  0  0
    0.0788    1.4557    2.2657 H   0  0  0  0  0  0  0  0  0  0  0  0
    1.1471    2.4982    1.1201 H   0  0  0  0  0  0  0  0  0  0  0  0
  1 11  1  6  0  0  0
  1  6  1  0  0  0  0
  1  7  1  0  0  0  0
  1  2  1  0  0  0  0
  2 12  1  1  0  0  0
  3  4  1  0  0  0  0
  3 14  1  0  0  0  0
  3  2  1  0  0  0  0
  4 16  1  0  0  0  0
  5 18  1  0  0  0  0
  5  6  1  0  0  0  0
  5  4  1  0  0  0  0
  6 19  1  0  0  0  0
  7  8  1  0  0  0  0
  8 22  1  0  0  0  0
  8 23  1  0  0  0  0
  9  2  1  0  0  0  0
  9 10  2  0  0  0  0
 10 25  1  0  0  0  0
 13  3  1  0  0  0  0
 15  4  1  0  0  0  0
 17  5  1  0  0  0  0
 20  6  1  0  0  0  0
 21  7  1  0  0  0  0
 24  9  1  0  0  0  0
 26 10  1  0  0  0  0
M  END
