1
q = -1.0, confidence = 0.0

 34 34  0  0  0  0  0  0  0  0999 V2000
    1.4845    0.4074    1.5543 C   0  0  0  0  0  3  0  0  0  0  0  0
    1.0315    0.7076    2.5074 H   0  0  0  0  0  0  0  0  0  0  0  0
    1.7560   -0.9426    1.1557 C   0  0  0  0  0  0  0  0  0  0  0  0
    2.4305   -0.8823   -0.1113 C   0  0  0  0  0  0  0  0  0  0  0  0
    2.5394    0.4960   -0.4964 C   0  0  0  0  0  0  0  0  0  0  0  0
    1.9593    1.2999    0.5485 C   0  0  0  0  0  0  0  0  0  0  0  0
    1.5609   -2.1709    2.0059 C   0  0  0  0  0  0  0  0  0  0  0  0
    0.5978   -2.1041    2.5531 H   0  0  0  0  0  0  0  0  0  0  0  0
    1.4804   -3.0661    1.3546 H   0  0  0  0  0  0  0  0  0  0  0  0
    2.6947   -2.3717    3.0244 C   0  0  0  0  0  0  0  0  0  0  0  0
    3.6736   -2.4891    2.5187 H   0  0  0  0  0  0  0  0  0  0  0  0
    2.5207   -3.2743    3.6446 H   0  0  0  0  0  0  0  0  0  0  0  0
    2.7766   -1.4993    3.7039 H   0  0  0  0  0  0  0  0  0  0  0  0
    3.0266   -2.0499   -0.8474 C   0  0  0  0  0  0  0  0  0  0  0  0
    2.9063   -1.8963   -1.9386 H   0  0  0  0  0  0  0  0  0  0  0  0
    2.4414   -2.9639   -0.6211 H   0  0  0  0  0  0  0  0  0  0  0  0
    4.5082   -2.2810   -0.5124 C   0  0  0  0  0  0  0  0  0  0  0  0
    5.1261   -1.4008   -0.7799 H   0  0  0  0  0  0  0  0  0  0  0  0
    4.9056   -3.1541   -1.0681 H   0  0  0  0  0  0  0  0  0  0  0  0
    4.6581   -2.4714    0.5694 H   0  0  0  0  0  0  0  0  0  0  0  0
    3.2180    1.0153   -1.7350 C   0  0  0  0  0  0  0  0  0  0  0  0
    2.5929    1.8182   -2.1774 H   0  0  0  0  0  0  0  0  0  0  0  0
    3.2463    0.2083   -2.4955 H   0  0  0  0  0  0  0  0  0  0  0  0
    4.6393    1.5423   -1.4839 C   0  0  0  0  0  0  0  0  0  0  0  0
    4.6353    2.3969   -0.7782 H   0  0  0  0  0  0  0  0  0  0  0  0
    5.1029    1.8907   -2.4289 H   0  0  0  0  0  0  0  0  0  0  0  0
    5.2968    0.7613   -1.0512 H   0  0  0  0  0  0  0  0  0  0  0  0
    1.9487    2.8047    0.6299 C   0  0  0  0  0  0  0  0  0  0  0  0
    0.9456    3.1581    0.9462 H   0  0  0  0  0  0  0  0  0  0  0  0
    2.1043    3.2259   -0.3829 H   0  0  0  0  0  0  0  0  0  0  0  0
    3.0035    3.3466    1.6065 C   0  0  0  0  0  0  0  0  0  0  0  0
    2.8295    2.9696    2.6351 H   0  0  0  0  0  0  0  0  0  0  0  0
    2.9816    4.4546    1.6425 H   0  0  0  0  0  0  0  0  0  0  0  0
    4.0256    3.0344    1.3113 H   0  0  0  0  0  0  0  0  0  0  0  0
  1  2  1  0  0  0  0
  3  1  1  0  0  0  0
  3  7  1  0  0  0  0
  4  3  2  0  0  0  0
  5  4  1  0  0  0  0
  5  6  2  0  0  0  0
  6 28  1  0  0  0  0
  6  1  1  0  0  0  0
  7  8  1  0  0  0  0
  7 10  1  0  0  0  0
  9  7  1  0  0  0  0
 10 12  1  0  0  0  0
 10 13  1  0  0  0  0
 11 10  1  0  0  0  0
 14 16  1  0  0  0  0
 14 17  1  0  0  0  0
 14  4  1  0  0  0  0
 15 14  1  0  0  0  0
 17 20  1  0  0  0  0
 18 17  1  0  0  0  0
 19 17  1  0  0  0  0
 21 24  1  0  0  0  0
 21  5  1  0  0  0  0
 22 21  1  0  0  0  0
 23 21  1  0  0  0  0
 24 27  1  0  0  0  0
 24 25  1  0  0  0  0
 26 24  1  0  0  0  0
 28 29  1  0  0  0  0
 28 31  1  0  0  0  0
 30 28  1  0  0  0  0
 31 33  1  0  0  0  0
 31 32  1  0  0  0  0
 34 31  1  0  0  0  0
M  END
