1
q = 0.0, confidence = 0.998

 52 55  0  0  1  0  0  0  0  0999 V2000
   -0.2526   -0.2875   -0.6065 C   0  0  0  0  0  2  0  0  0  0  0  0
   -0.9033   -0.8167   -2.7187 C   0  0  0  0  0  0  0  0  0  0  0  0
   -1.6160   -0.9856   -3.5316 H   0  0  0  0  0  0  0  0  0  0  0  0
    0.4657   -0.8867   -2.6877 C   0  0  0  0  0  0  0  0  0  0  0  0
    1.1904   -1.1499   -3.4640 H   0  0  0  0  0  0  0  0  0  0  0  0
   -2.6951   -0.3021   -1.0390 C   0  0  0  0  0  0  0  0  0  0  0  0
   -3.2822    0.9796   -1.0610 C   0  0  0  0  0  0  0  0  0  0  0  0
   -2.4949    2.1989   -1.4655 C   0  0  0  0  0  0  0  0  0  0  0  0
   -1.8431    2.5380   -0.6307 H   0  0  0  0  0  0  0  0  0  0  0  0
   -3.1657    3.0397   -1.7220 H   0  0  0  0  0  0  0  0  0  0  0  0
   -1.8333    2.0057   -2.3331 H   0  0  0  0  0  0  0  0  0  0  0  0
   -4.6206    1.0864   -0.6415 C   0  0  0  0  0  0  0  0  0  0  0  0
   -5.1003    2.0779   -0.6519 H   0  0  0  0  0  0  0  0  0  0  0  0
   -5.3613   -0.0315   -0.2132 C   0  0  0  0  0  0  0  0  0  0  0  0
   -6.8049    0.1051    0.1933 C   0  0  0  0  0  0  0  0  0  0  0  0
   -7.4736   -0.1072   -0.6682 H   0  0  0  0  0  0  0  0  0  0  0  0
   -7.0381    1.1287    0.5440 H   0  0  0  0  0  0  0  0  0  0  0  0
   -7.0738   -0.6103    0.9947 H   0  0  0  0  0  0  0  0  0  0  0  0
   -4.7256   -1.2897   -0.2010 C   0  0  0  0  0  0  0  0  0  0  0  0
   -5.2868   -2.1741    0.1395 H   0  0  0  0  0  0  0  0  0  0  0  0
   -3.3915   -1.4541   -0.6105 C   0  0  0  0  0  0  0  0  0  0  0  0
   -2.7086   -2.7956   -0.5454 C   0  0  0  0  0  0  0  0  0  0  0  0
   -1.8845   -2.7838    0.2005 H   0  0  0  0  0  0  0  0  0  0  0  0
   -2.2547   -3.0835   -1.5155 H   0  0  0  0  0  0  0  0  0  0  0  0
   -3.4187   -3.5905   -0.2526 H   0  0  0  0  0  0  0  0  0  0  0  0
    2.1987   -0.6222   -0.8674 C   0  0  1  0  0  0  0  0  0  0  0  0
    2.8942   -0.1454   -1.5855 H   0  0  0  0  0  0  0  0  0  0  0  0
    2.6433   -2.0219   -0.5208 C   0  0  0  0  0  0  0  0  0  0  0  0
    1.7427   -2.9645    0.0139 C   0  0  0  0  0  0  0  0  0  0  0  0
    0.6818   -2.7011    0.1435 H   0  0  0  0  0  0  0  0  0  0  0  0
    2.1965   -4.2409    0.3756 C   0  0  0  0  0  0  0  0  0  0  0  0
    1.4888   -4.9749    0.7885 H   0  0  0  0  0  0  0  0  0  0  0  0
    3.5476   -4.5835    0.2075 C   0  0  0  0  0  0  0  0  0  0  0  0
    3.9003   -5.5869    0.4887 H   0  0  0  0  0  0  0  0  0  0  0  0
    4.4478   -3.6466   -0.3255 C   0  0  0  0  0  0  0  0  0  0  0  0
    5.5057   -3.9136   -0.4647 H   0  0  0  0  0  0  0  0  0  0  0  0
    3.9984   -2.3697   -0.6873 C   0  0  0  0  0  0  0  0  0  0  0  0
    4.7057   -1.6352   -1.1042 H   0  0  0  0  0  0  0  0  0  0  0  0
    2.5253    2.0806   -0.0098 C   0  0  0  0  0  0  0  0  0  0  0  0
    3.8313    2.6055    0.0189 C   0  0  0  0  0  0  0  0  0  0  0  0
    4.6504    2.0203    0.4629 H   0  0  0  0  0  0  0  0  0  0  0  0
    4.0712    3.8799   -0.5169 C   0  0  0  0  0  0  0  0  0  0  0  0
    5.0890    4.2966   -0.4935 H   0  0  0  0  0  0  0  0  0  0  0  0
    3.0170    4.6202   -1.0749 C   0  0  0  0  0  0  0  0  0  0  0  0
    3.2092    5.6200   -1.4916 H   0  0  0  0  0  0  0  0  0  0  0  0
    1.7157    4.0909   -1.0957 C   0  0  0  0  0  0  0  0  0  0  0  0
    0.8885    4.6747   -1.5263 H   0  0  0  0  0  0  0  0  0  0  0  0
    1.4612    2.8207   -0.5598 C   0  0  0  0  0  0  0  0  0  0  0  0
    0.4441    2.4026   -0.5606 H   0  0  0  0  0  0  0  0  0  0  0  0
   -1.3191   -0.4498   -1.4405 N   0  0  0  0  0  0  0  0  0  0  0  0
    0.8412   -0.5509   -1.3928 N   0  0  0  0  0  0  0  0  0  0  0  0
    2.2949    0.4384    0.6909 S   0  0  0  0  0  0  0  0  0  0  0  0
  2  4  2  0  0  0  0
  2 50  1  0  0  0  0
  3  2  1  0  0  0  0
  4 51  1  0  0  0  0
  5  4  1  0  0  0  0
  6 21  1  0  0  0  0
  7  6  2  0  0  0  0
  7 12  1  0  0  0  0
  8  7  1  0  0  0  0
  8  9  1  0  0  0  0
 10  8  1  0  0  0  0
 11  8  1  0  0  0  0
 12 14  2  0  0  0  0
 13 12  1  0  0  0  0
 14 19  1  0  0  0  0
 14 15  1  0  0  0  0
 15 17  1  0  0  0  0
 15 18  1  0  0  0  0
 16 15  1  0  0  0  0
 19 20  1  0  0  0  0
 21 22  1  0  0  0  0
 21 19  2  0  0  0  0
 22 25  1  0  0  0  0
 22 23  1  0  0  0  0
 24 22  1  0  0  0  0
 26 27  1  6  0  0  0
 26 28  1  0  0  0  0
 26 52  1  0  0  0  0
 28 29  1  0  0  0  0
 29 30  1  0  0  0  0
 29 31  2  0  0  0  0
 31 32  1  0  0  0  0
 33 31  1  0  0  0  0
 33 34  1  0  0  0  0
 35 33  2  0  0  0  0
 36 35  1  0  0  0  0
 37 28  2  0  0  0  0
 37 35  1  0  0  0  0
 38 37  1  0  0  0  0
 39 40  1  0  0  0  0
 39 52  1  0  0  0  0
 40 41  1  0  0  0  0
 42 43  1  0  0  0  0
 42 40  2  0  0  0  0
 44 42  1  0  0  0  0
 45 44  1  0  0  0  0
 46 44  2  0  0  0  0
 46 48  1  0  0  0  0
 47 46  1  0  0  0  0
 48 39  2  0  0  0  0
 49 48  1  0  0  0  0
 50  6  1  0  0  0  0
 50  1  1  0  0  0  0
 51 26  1  0  0  0  0
 51  1  1  0  0  0  0
M  END
