7
q = 0.0, confidence = 0.996

 46 49  0  0  1  0  0  0  0  0999 V2000
   -1.3402   -0.9946   -0.9001 C   0  0  0  0  0  0  0  0  0  0  0  0
   -2.0733    0.2168   -0.7888 C   0  0  0  0  0  0  0  0  0  0  0  0
   -3.1641    0.2888   -0.7117 H   0  0  0  0  0  0  0  0  0  0  0  0
   -1.1666    1.3466   -0.8335 C   0  0  0  0  0  0  0  0  0  0  0  0
    0.1551    0.8311   -0.9445 C   0  0  0  0  0  0  0  0  0  0  0  0
    1.0700    1.4304   -0.9789 H   0  0  0  0  0  0  0  0  0  0  0  0
    0.0865   -0.6294   -0.9359 C   0  0  1  0  0  3  0  0  0  0  0  0
    1.0072   -1.4104   -0.1810 C   0  0  0  0  0  3  0  0  0  0  0  0
    0.6811   -2.4317    0.0740 H   0  0  0  0  0  0  0  0  0  0  0  0
   -1.8876   -2.3616   -0.9628 C   0  0  0  0  0  0  0  0  0  0  0  0
   -3.0818   -2.7030   -0.2880 C   0  0  0  0  0  0  0  0  0  0  0  0
   -3.5767   -1.9501    0.3438 H   0  0  0  0  0  0  0  0  0  0  0  0
   -3.6117   -3.9941   -0.3856 C   0  0  0  0  0  0  0  0  0  0  0  0
   -4.5380   -4.2447    0.1530 H   0  0  0  0  0  0  0  0  0  0  0  0
   -2.9551   -4.9736   -1.1508 C   0  0  0  0  0  0  0  0  0  0  0  0
   -3.3693   -5.9907   -1.2199 H   0  0  0  0  0  0  0  0  0  0  0  0
   -1.7667   -4.6483   -1.8216 C   0  0  0  0  0  0  0  0  0  0  0  0
   -1.2482   -5.4075   -2.4266 H   0  0  0  0  0  0  0  0  0  0  0  0
   -1.2382   -3.3522   -1.7330 C   0  0  0  0  0  0  0  0  0  0  0  0
   -0.3198   -3.0932   -2.2807 H   0  0  0  0  0  0  0  0  0  0  0  0
   -1.5503    2.7704   -0.7884 C   0  0  0  0  0  0  0  0  0  0  0  0
   -0.6626    3.7412   -0.2720 C   0  0  0  0  0  0  0  0  0  0  0  0
    0.3058    3.4231    0.1425 H   0  0  0  0  0  0  0  0  0  0  0  0
   -1.0228    5.0931   -0.2449 C   0  0  0  0  0  0  0  0  0  0  0  0
   -0.3230    5.8349    0.1688 H   0  0  0  0  0  0  0  0  0  0  0  0
   -2.2782    5.5014   -0.7272 C   0  0  0  0  0  0  0  0  0  0  0  0
   -2.5622    6.5642   -0.7003 H   0  0  0  0  0  0  0  0  0  0  0  0
   -3.1699    4.5456   -1.2365 C   0  0  0  0  0  0  0  0  0  0  0  0
   -4.1548    4.8562   -1.6168 H   0  0  0  0  0  0  0  0  0  0  0  0
   -2.8095    3.1907   -1.2671 C   0  0  0  0  0  0  0  0  0  0  0  0
   -3.5078    2.4504   -1.6851 H   0  0  0  0  0  0  0  0  0  0  0  0
    2.4381   -1.1394    0.0085 C   0  0  0  0  0  0  0  0  0  0  0  0
    3.1120   -1.7315    1.1020 C   0  0  0  0  0  0  0  0  0  0  0  0
    2.5476   -2.3684    1.8002 H   0  0  0  0  0  0  0  0  0  0  0  0
    4.4740   -1.4836    1.3138 C   0  0  0  0  0  0  0  0  0  0  0  0
    4.9831   -1.9404    2.1758 H   0  0  0  0  0  0  0  0  0  0  0  0
    5.1923   -0.6570    0.4418 C   0  0  0  0  0  0  0  0  0  0  0  0
    6.2614   -0.4744    0.6241 H   0  0  0  0  0  0  0  0  0  0  0  0
    4.5557   -0.0669   -0.6757 C   0  0  0  0  0  0  0  0  0  0  0  0
    3.1820   -0.3238   -0.8727 C   0  0  0  0  0  0  0  0  0  0  0  0
    2.6920    0.0960   -1.7641 H   0  0  0  0  0  0  0  0  0  0  0  0
    5.2612    0.7910   -1.6418 C   0  0  0  0  0  0  0  0  0  0  0  0
    4.6330    1.1600   -2.4720 H   0  0  0  0  0  0  0  0  0  0  0  0
    6.5582    1.1632   -1.6126 C   0  0  0  0  0  0  0  0  0  0  0  0
    7.2486    0.8399   -0.8175 H   0  0  0  0  0  0  0  0  0  0  0  0
    6.9762    1.8146   -2.3943 H   0  0  0  0  0  0  0  0  0  0  0  0
  1  2  2  0  0  0  0
  2  3  1  0  0  0  0
  4  2  1  0  0  0  0
  4 21  1  0  0  0  0
  5  7  1  0  0  0  0
  5  4  2  0  0  0  0
  6  5  1  0  0  0  0
  7  1  1  0  0  0  0
  7  8  1  1  0  0  0
  8 32  1  0  0  0  0
  8  9  1  0  0  0  0
 10  1  1  0  0  0  0
 10 11  1  0  0  0  0
 11 12  1  0  0  0  0
 13 11  2  0  0  0  0
 13 14  1  0  0  0  0
 15 13  1  0  0  0  0
 16 15  1  0  0  0  0
 17 19  1  0  0  0  0
 17 15  2  0  0  0  0
 18 17  1  0  0  0  0
 19 10  2  0  0  0  0
 20 19  1  0  0  0  0
 21 22  1  0  0  0  0
 22 24  2  0  0  0  0
 22 23  1  0  0  0  0
 24 25  1  0  0  0  0
 26 27  1  0  0  0  0
 26 24  1  0  0  0  0
 28 26  2  0  0  0  0
 29 28  1  0  0  0  0
 30 28  1  0  0  0  0
 30 21  2  0  0  0  0
 31 30  1  0  0  0  0
 32 33  1  0  0  0  0
 33 35  2  0  0  0  0
 33 34  1  0  0  0  0
 35 36  1  0  0  0  0
 37 38  1  0  0  0  0
 37 35  1  0  0  0  0
 39 37  2  0  0  0  0
 40 39  1  0  0  0  0
 40 32  2  0  0  0  0
 41 40  1  0  0  0  0
 42 44  2  0  0  0  0
 42 39  1  0  0  0  0
 43 42  1  0  0  0  0
 44 45  1  0  0  0  0
 46 44  1  0  0  0  0
M  END
