5
q = 0.0, confidence = 0.972

 42 45  0  0  1  0  0  0  0  0999 V2000
    0.5472   -1.3273   -0.8387 C   0  0  0  0  0  0  0  0  0  0  0  0
   -0.8304   -1.6194   -0.6555 C   0  0  0  0  0  0  0  0  0  0  0  0
   -1.2394   -2.6194   -0.4731 H   0  0  0  0  0  0  0  0  0  0  0  0
   -1.6196   -0.4187   -0.8515 C   0  0  0  0  0  0  0  0  0  0  0  0
    0.6502    0.1235   -1.0685 C   0  0  1  0  0  3  0  0  0  0  0  0
   -0.7133    0.6466   -1.1153 C   0  0  0  0  0  0  0  0  0  0  0  0
   -0.9856    1.6989   -1.2407 H   0  0  0  0  0  0  0  0  0  0  0  0
    1.7003    0.8409   -0.4293 C   0  0  0  0  0  3  0  0  0  0  0  0
    2.5710    0.2443   -0.1127 H   0  0  0  0  0  0  0  0  0  0  0  0
    1.9006    2.2953   -0.4369 C   0  0  0  0  0  0  0  0  0  0  0  0
    1.6677   -2.2843   -0.8139 C   0  0  0  0  0  0  0  0  0  0  0  0
    1.3437    3.1396   -1.4272 C   0  0  0  0  0  0  0  0  0  0  0  0
    0.7660    2.6999   -2.2532 H   0  0  0  0  0  0  0  0  0  0  0  0
    1.6313   -3.4315    0.0110 C   0  0  0  0  0  0  0  0  0  0  0  0
    0.7772   -3.5796    0.6888 H   0  0  0  0  0  0  0  0  0  0  0  0
    1.5635    4.5231   -1.3947 C   0  0  0  0  0  0  0  0  0  0  0  0
    1.1284    5.1615   -2.1786 H   0  0  0  0  0  0  0  0  0  0  0  0
    2.6853   -4.3515   -0.0002 C   0  0  0  0  0  0  0  0  0  0  0  0
    2.6438   -5.2350    0.6545 H   0  0  0  0  0  0  0  0  0  0  0  0
    2.3452    5.0931   -0.3776 C   0  0  0  0  0  0  0  0  0  0  0  0
    2.5139    6.1801   -0.3523 H   0  0  0  0  0  0  0  0  0  0  0  0
    3.8018   -4.1400   -0.8276 C   0  0  0  0  0  0  0  0  0  0  0  0
    4.6334   -4.8606   -0.8289 H   0  0  0  0  0  0  0  0  0  0  0  0
    2.9195    4.2650    0.6021 C   0  0  0  0  0  0  0  0  0  0  0  0
    3.5378    4.7024    1.4005 H   0  0  0  0  0  0  0  0  0  0  0  0
    3.8516   -3.0029   -1.6478 C   0  0  0  0  0  0  0  0  0  0  0  0
    4.7197   -2.8316   -2.3023 H   0  0  0  0  0  0  0  0  0  0  0  0
    2.7051    2.8835    0.5691 C   0  0  0  0  0  0  0  0  0  0  0  0
    3.1426    2.2377    1.3462 H   0  0  0  0  0  0  0  0  0  0  0  0
    2.7921   -2.0840   -1.6456 C   0  0  0  0  0  0  0  0  0  0  0  0
    2.8227   -1.2066   -2.3086 H   0  0  0  0  0  0  0  0  0  0  0  0
   -3.0900   -0.3281   -0.8038 C   0  0  0  0  0  0  0  0  0  0  0  0
   -3.8654   -1.3373   -0.1894 C   0  0  0  0  0  0  0  0  0  0  0  0
   -3.3698   -2.1925    0.2920 H   0  0  0  0  0  0  0  0  0  0  0  0
   -5.2621   -1.2463   -0.1554 C   0  0  0  0  0  0  0  0  0  0  0  0
   -5.8464   -2.0389    0.3358 H   0  0  0  0  0  0  0  0  0  0  0  0
   -5.9147   -0.1464   -0.7351 C   0  0  0  0  0  0  0  0  0  0  0  0
   -7.0124   -0.0752   -0.7066 H   0  0  0  0  0  0  0  0  0  0  0  0
   -5.1565    0.8615   -1.3518 C   0  0  0  0  0  0  0  0  0  0  0  0
   -5.6581    1.7249   -1.8144 H   0  0  0  0  0  0  0  0  0  0  0  0
   -3.7594    0.7706   -1.3879 C   0  0  0  0  0  0  0  0  0  0  0  0
   -3.1779    1.5573   -1.8906 H   0  0  0  0  0  0  0  0  0  0  0  0
  1 11  1  0  0  0  0
  1  2  2  0  0  0  0
  2  3  1  0  0  0  0
  4 32  1  0  0  0  0
  4  2  1  0  0  0  0
  5  1  1  0  0  0  0
  5  8  1  1  0  0  0
  6  5  1  0  0  0  0
  6  4  2  0  0  0  0
  7  6  1  0  0  0  0
  8  9  1  0  0  0  0
 10  8  1  0  0  0  0
 10 28  1  0  0  0  0
 11 14  1  0  0  0  0
 12 16  1  0  0  0  0
 12 10  2  0  0  0  0
 13 12  1  0  0  0  0
 14 15  1  0  0  0  0
 16 20  2  0  0  0  0
 17 16  1  0  0  0  0
 18 14  2  0  0  0  0
 18 19  1  0  0  0  0
 20 21  1  0  0  0  0
 20 24  1  0  0  0  0
 22 18  1  0  0  0  0
 23 22  1  0  0  0  0
 24 25  1  0  0  0  0
 26 30  1  0  0  0  0
 26 22  2  0  0  0  0
 27 26  1  0  0  0  0
 28 24  2  0  0  0  0
 28 29  1  0  0  0  0
 30 11  2  0  0  0  0
 31 30  1  0  0  0  0
 32 33  1  0  0  0  0
 33 35  2  0  0  0  0
 33 34  1  0  0  0  0
 35 36  1  0  0  0  0
 37 38  1  0  0  0  0
 37 35  1  0  0  0  0
 39 37  2  0  0  0  0
 40 39  1  0  0  0  0
 41 39  1  0  0  0  0
 41 32  2  0  0  0  0
 42 41  1  0  0  0  0
M  END
