1
q = 0.0, confidence = 0.99

 26 27  0  0  1  0  0  0  0  0999 V2000
    0.6064    0.6915    0.1519 C   0  0  0  0  0  2  0  0  0  0  0  0
   -0.3764    0.1119    0.8254 O   0  0  0  0  0  0  0  0  0  0  0  0
   -1.6808    0.7750    0.6284 C   0  0  1  0  0  0  0  0  0  0  0  0
   -1.3163    2.1772    0.1487 C   0  0  0  0  0  0  0  0  0  0  0  0
    0.0666    1.9533   -0.4862 C   0  0  0  0  0  0  0  0  0  0  0  0
   -3.6859    0.5702   -0.7065 O   0  0  0  0  0  0  0  0  0  0  0  0
   -4.7661   -0.1464   -0.0465 C   0  0  0  0  0  0  0  0  0  0  0  0
   -4.1298   -1.0984    0.8014 O   0  0  0  0  0  0  0  0  0  0  0  0
   -2.8965   -1.4260    0.1806 C   0  0  0  0  0  0  0  0  0  0  0  0
   -2.4589   -0.0718   -0.3946 C   0  0  2  0  0  0  0  0  0  0  0  0
   -5.6160   -0.8279   -1.1205 C   0  0  0  0  0  0  0  0  0  0  0  0
   -5.5617    0.8164    0.8221 C   0  0  0  0  0  0  0  0  0  0  0  0
   -2.2013    0.7387    1.6050 H   0  0  0  0  0  0  0  0  0  0  0  0
   -1.2472    2.8754    1.0057 H   0  0  0  0  0  0  0  0  0  0  0  0
   -2.0804    2.5648   -0.5503 H   0  0  0  0  0  0  0  0  0  0  0  0
    0.0199    1.7703   -1.5829 H   0  0  0  0  0  0  0  0  0  0  0  0
    0.7777    2.7922   -0.3583 H   0  0  0  0  0  0  0  0  0  0  0  0
   -3.0161   -2.1835   -0.6285 H   0  0  0  0  0  0  0  0  0  0  0  0
   -2.2021   -1.8262    0.9442 H   0  0  0  0  0  0  0  0  0  0  0  0
   -1.8491   -0.1828   -1.3193 H   0  0  0  0  0  0  0  0  0  0  0  0
   -6.0159   -0.0741   -1.8256 H   0  0  0  0  0  0  0  0  0  0  0  0
   -6.4624   -1.3694   -0.6554 H   0  0  0  0  0  0  0  0  0  0  0  0
   -5.0081   -1.5491   -1.7001 H   0  0  0  0  0  0  0  0  0  0  0  0
   -6.0238    1.6030    0.1959 H   0  0  0  0  0  0  0  0  0  0  0  0
   -4.8934    1.2924    1.5642 H   0  0  0  0  0  0  0  0  0  0  0  0
   -6.3622    0.2735    1.3602 H   0  0  0  0  0  0  0  0  0  0  0  0
  1  2  1  0  0  0  0
  3  2  1  0  0  0  0
  3 13  1  1  0  0  0
  4  3  1  0  0  0  0
  4 14  1  0  0  0  0
  5 17  1  0  0  0  0
  5  4  1  0  0  0  0
  5  1  1  0  0  0  0
  6 10  1  0  0  0  0
  6  7  1  0  0  0  0
  7  8  1  0  0  0  0
  7 12  1  0  0  0  0
  9  8  1  0  0  0  0
  9 19  1  0  0  0  0
 10 20  1  6  0  0  0
 10  9  1  0  0  0  0
 10  3  1  0  0  0  0
 11 22  1  0  0  0  0
 11  7  1  0  0  0  0
 12 26  1  0  0  0  0
 12 25  1  0  0  0  0
 15  4  1  0  0  0  0
 16  5  1  0  0  0  0
 18  9  1  0  0  0  0
 21 11  1  0  0  0  0
 23 11  1  0  0  0  0
 24 12  1  0  0  0  0
M  END
