2
q = 0.0, confidence = 0.94

 36 37  0  0  1  0  0  0  0  0999 V2000
   -0.0613    1.5053   -0.8874 B   0  0  0  0  0  0  0  0  0  0  0  0
   -1.3531    0.6991   -0.5752 C   0  0  1  0  0  3  0  0  0  0  0  0
   -1.3556   -0.7459   -0.5397 C   0  0  0  0  0  0  0  0  0  0  0  0
   -0.0539   -1.5704   -0.7497 B   0  0  0  0  0  0  0  0  0  0  0  0
    1.2652   -0.7719   -1.0280 C   0  0  0  0  0  0  0  0  0  0  0  0
    1.2677    0.6784   -1.0374 C   0  0  0  0  0  0  0  0  0  0  0  0
    2.5203   -1.4538   -1.1888 C   0  0  0  0  0  0  0  0  0  0  0  0
    3.7037   -0.7636   -1.3790 C   0  0  0  0  0  0  0  0  0  0  0  0
    3.7097    0.6601   -1.3698 C   0  0  0  0  0  0  0  0  0  0  0  0
    2.5295    1.3549   -1.1799 C   0  0  0  0  0  0  0  0  0  0  0  0
   -0.0403    3.0876   -1.0699 C   0  0  0  0  0  0  0  0  0  0  0  0
   -2.6223    1.4879   -0.2893 C   0  0  0  0  0  0  0  0  0  0  0  0
   -3.3863    1.8176   -1.5797 C   0  0  0  0  0  0  0  0  0  0  0  0
   -2.6415   -1.5192   -0.2885 C   0  0  0  0  0  0  0  0  0  0  0  0
   -3.2114   -2.0768   -1.6025 C   0  0  0  0  0  0  0  0  0  0  0  0
   -0.0103   -3.1618   -0.6773 C   0  0  0  0  0  0  0  0  0  0  0  0
    0.8031    3.5889   -0.5527 H   0  0  0  0  0  0  0  0  0  0  0  0
    0.0875    3.3115   -2.1524 H   0  0  0  0  0  0  0  0  0  0  0  0
   -0.9678    3.5984   -0.7478 H   0  0  0  0  0  0  0  0  0  0  0  0
   -3.2946    0.9549    0.4130 H   0  0  0  0  0  0  0  0  0  0  0  0
   -2.3514    2.4348    0.2188 H   0  0  0  0  0  0  0  0  0  0  0  0
   -3.7189    0.8976   -2.1007 H   0  0  0  0  0  0  0  0  0  0  0  0
   -4.2856    2.4300   -1.3663 H   0  0  0  0  0  0  0  0  0  0  0  0
   -2.7471    2.3844   -2.2866 H   0  0  0  0  0  0  0  0  0  0  0  0
   -3.4142   -0.9032    0.2117 H   0  0  0  0  0  0  0  0  0  0  0  0
   -2.4364   -2.3652    0.3980 H   0  0  0  0  0  0  0  0  0  0  0  0
   -2.4873   -2.7528   -2.0996 H   0  0  0  0  0  0  0  0  0  0  0  0
   -3.4476   -1.2640   -2.3183 H   0  0  0  0  0  0  0  0  0  0  0  0
   -4.1431   -2.6493   -1.4193 H   0  0  0  0  0  0  0  0  0  0  0  0
    0.8462   -3.5428   -0.0834 H   0  0  0  0  0  0  0  0  0  0  0  0
    0.1219   -3.5755   -1.7021 H   0  0  0  0  0  0  0  0  0  0  0  0
   -0.9249   -3.6283   -0.2635 H   0  0  0  0  0  0  0  0  0  0  0  0
    2.5301   -2.5538   -1.1803 H   0  0  0  0  0  0  0  0  0  0  0  0
    4.6460   -1.3114   -1.5358 H   0  0  0  0  0  0  0  0  0  0  0  0
    4.6561    1.2030   -1.5181 H   0  0  0  0  0  0  0  0  0  0  0  0
    2.5451    2.4549   -1.1720 H   0  0  0  0  0  0  0  0  0  0  0  0
  1  2  1  0  0  0  0
  2  3  1  0  0  0  0
  2 12  1  1  0  0  0
  3 14  1  0  0  0  0
  4 16  1  0  0  0  0
  4  3  2  0  0  0  0
  5  4  1  0  0  0  0
  6  5  1  0  0  0  0
  6  1  1  0  0  0  0
  7 33  1  0  0  0  0
  7  5  2  0  0  0  0
  8  9  2  0  0  0  0
  8  7  1  0  0  0  0
  9 10  1  0  0  0  0
 10 36  1  0  0  0  0
 10  6  2  0  0  0  0
 11  1  1  0  0  0  0
 11 19  1  0  0  0  0
 11 17  1  0  0  0  0
 12 21  1  0  0  0  0
 12 20  1  0  0  0  0
 13 23  1  0  0  0  0
 13 12  1  0  0  0  0
 14 25  1  0  0  0  0
 14 26  1  0  0  0  0
 15 29  1  0  0  0  0
 15 14  1  0  0  0  0
 16 32  1  0  0  0  0
 16 30  1  0  0  0  0
 18 11  1  0  0  0  0
 22 13  1  0  0  0  0
 24 13  1  0  0  0  0
 27 15  1  0  0  0  0
 28 15  1  0  0  0  0
 31 16  1  0  0  0  0
 34  8  1  0  0  0  0
 35  9  1  0  0  0  0
M  END
