1
q = -1.0, confidence = 0.008

 18 17  0  0  0  0  0  0  0  0999 V2000
   -1.0045   -1.4519    0.3151 C   0  0  0  0  0  2  0  0  0  0  0  0
   -0.4196   -1.6538    1.5605 O   0  0  0  0  0  0  0  0  0  0  0  0
   -0.8814   -2.6313    2.4828 C   0  0  0  0  0  0  0  0  0  0  0  0
   -2.1242   -2.2361    0.0578 C   0  0  0  0  0  3  0  0  0  0  0  0
   -3.3070   -1.2313   -1.8166 O   0  0  0  0  0  0  0  0  0  0  0  0
   -3.1299   -2.1177   -0.9755 C   0  0  0  0  0  0  0  0  0  0  0  0
   -4.0154   -3.1793   -0.8803 O   0  0  0  0  0  0  0  0  0  0  0  0
   -5.1412   -3.1376   -1.7646 C   0  0  0  0  0  0  0  0  0  0  0  0
   -6.2535   -2.2437   -1.2309 C   0  0  0  0  0  0  0  0  0  0  0  0
   -1.9379   -2.4546    2.7793 H   0  0  0  0  0  0  0  0  0  0  0  0
   -0.7848   -3.6595    2.0711 H   0  0  0  0  0  0  0  0  0  0  0  0
   -0.2254   -2.5407    3.3702 H   0  0  0  0  0  0  0  0  0  0  0  0
   -2.3790   -3.0357    0.7674 H   0  0  0  0  0  0  0  0  0  0  0  0
   -4.8124   -2.7839   -2.7642 H   0  0  0  0  0  0  0  0  0  0  0  0
   -5.4795   -4.1904   -1.8475 H   0  0  0  0  0  0  0  0  0  0  0  0
   -7.1471   -2.3016   -1.8855 H   0  0  0  0  0  0  0  0  0  0  0  0
   -6.5501   -2.5494   -0.2073 H   0  0  0  0  0  0  0  0  0  0  0  0
   -5.9123   -1.1904   -1.2037 H   0  0  0  0  0  0  0  0  0  0  0  0
  1  2  1  0  0  0  0
  2  3  1  0  0  0  0
  3 10  1  0  0  0  0
  3 12  1  0  0  0  0
  4  1  1  0  0  0  0
  4 13  1  0  0  0  0
  5  6  2  0  0  0  0
  6  7  1  0  0  0  0
  6  4  1  0  0  0  0
  8  9  1  0  0  0  0
  8  7  1  0  0  0  0
  9 18  1  0  0  0  0
  9 17  1  0  0  0  0
 11  3  1  0  0  0  0
 14  8  1  0  0  0  0
 15  8  1  0  0  0  0
 16  9  1  0  0  0  0
M  END
