1
q = 0.0, confidence = 0.726

 21 22  0  0  0  0  0  0  0  0999 V2000
   -0.3113   -0.7699    0.3472 C   0  0  0  0  0  2  0  0  0  0  0  0
   -1.3464   -1.2665   -0.6974 C   0  0  0  0  0  0  0  0  0  0  0  0
   -2.3389   -0.5275    0.1911 C   0  0  0  0  0  0  0  0  0  0  0  0
   -1.3567   -0.1607    1.1277 C   0  0  0  0  0  0  0  0  0  0  0  0
   -1.3956    0.6034    2.4042 C   0  0  0  0  0  0  0  0  0  0  0  0
   -3.7457   -0.2947    0.0185 C   0  0  0  0  0  0  0  0  0  0  0  0
   -4.4067   -0.8474   -1.1135 C   0  0  0  0  0  0  0  0  0  0  0  0
   -5.7743   -0.6418   -1.3068 C   0  0  0  0  0  0  0  0  0  0  0  0
   -6.5064    0.1171   -0.3757 C   0  0  0  0  0  0  0  0  0  0  0  0
   -5.8684    0.6723    0.7501 C   0  0  0  0  0  0  0  0  0  0  0  0
   -4.5016    0.4726    0.9498 C   0  0  0  0  0  0  0  0  0  0  0  0
   -1.4800   -2.3672   -0.7567 H   0  0  0  0  0  0  0  0  0  0  0  0
   -1.2124   -0.8587   -1.7222 H   0  0  0  0  0  0  0  0  0  0  0  0
   -2.1251    0.1576    3.1112 H   0  0  0  0  0  0  0  0  0  0  0  0
   -0.4099    0.6291    2.8987 H   0  0  0  0  0  0  0  0  0  0  0  0
   -1.7072    1.6537    2.2268 H   0  0  0  0  0  0  0  0  0  0  0  0
   -3.8296   -1.4430   -1.8366 H   0  0  0  0  0  0  0  0  0  0  0  0
   -6.2788   -1.0738   -2.1834 H   0  0  0  0  0  0  0  0  0  0  0  0
   -7.5845    0.2775   -0.5274 H   0  0  0  0  0  0  0  0  0  0  0  0
   -6.4484    1.2639    1.4735 H   0  0  0  0  0  0  0  0  0  0  0  0
   -4.0072    0.9079    1.8284 H   0  0  0  0  0  0  0  0  0  0  0  0
  1  4  1  0  0  0  0
  2  3  1  0  0  0  0
  2  1  1  0  0  0  0
  3  4  2  0  0  0  0
  4  5  1  0  0  0  0
  5 15  1  0  0  0  0
  5 14  1  0  0  0  0
  6  3  1  0  0  0  0
  6 11  1  0  0  0  0
  7  6  2  0  0  0  0
  8  7  1  0  0  0  0
  8  9  2  0  0  0  0
  9 10  1  0  0  0  0
 10 11  2  0  0  0  0
 10 20  1  0  0  0  0
 11 21  1  0  0  0  0
 12  2  1  0  0  0  0
 13  2  1  0  0  0  0
 16  5  1  0  0  0  0
 17  7  1  0  0  0  0
 18  8  1  0  0  0  0
 19  9  1  0  0  0  0
M  END
