4
q = 0.0, confidence = 0.914

 16 15  0  0  0  0  0  0  0  0999 V2000
   -2.4932   -1.2924   -0.2912 Br  0  0  0  0  0  0  0  0  0  0  0  0
   -1.4837    0.3833   -0.5274 B   0  0  0  0  0  0  0  0  0  0  0  0
   -2.0217    1.5834   -0.0096 N   0  0  0  0  0  0  0  0  0  0  0  0
    0.5430   -0.8810   -1.7153 C   0  0  0  0  0  3  0  0  0  0  0  0
    0.0901   -1.8636   -1.5053 H   0  0  0  0  0  0  0  0  0  0  0  0
    1.2380   -0.8684   -2.5694 H   0  0  0  0  0  0  0  0  0  0  0  0
   -0.1537    0.3016   -1.3424 C   0  0  0  0  0  3  0  0  0  0  0  0
    0.0964    1.2041   -1.9303 H   0  0  0  0  0  0  0  0  0  0  0  0
   -1.3104    2.8506   -0.1001 C   0  0  0  0  0  0  0  0  0  0  0  0
   -0.3453    2.7328   -0.6211 H   0  0  0  0  0  0  0  0  0  0  0  0
   -1.0996    3.2541    0.9153 H   0  0  0  0  0  0  0  0  0  0  0  0
   -1.9154    3.6094   -0.6445 H   0  0  0  0  0  0  0  0  0  0  0  0
   -3.2774    1.7065    0.7132 C   0  0  0  0  0  0  0  0  0  0  0  0
   -3.7942    0.7323    0.7616 H   0  0  0  0  0  0  0  0  0  0  0  0
   -3.9469    2.4417    0.2137 H   0  0  0  0  0  0  0  0  0  0  0  0
   -3.1004    2.0679    1.7511 H   0  0  0  0  0  0  0  0  0  0  0  0
  2  1  1  0  0  0  0
  2  3  1  0  0  0  0
  3 13  1  0  0  0  0
  4  5  1  0  0  0  0
  4  7  1  0  0  0  0
  6  4  1  0  0  0  0
  7  2  1  0  0  0  0
  8  7  1  0  0  0  0
  9  3  1  0  0  0  0
  9 11  1  0  0  0  0
 10  9  1  0  0  0  0
 12  9  1  0  0  0  0
 13 14  1  0  0  0  0
 13 16  1  0  0  0  0
 15 13  1  0  0  0  0
M  END
