6
q = 0.0, confidence = 0.998

 45 46  0  0  1  0  0  0  0  0999 V2000
    0.2714    0.9237    2.7294 O   0  0  0  0  0  0  0  0  0  0  0  0
   -2.7849   -1.7488    0.1617 N   0  0  0  0  0  0  0  0  0  0  0  0
   -1.9112   -0.7989    0.5740 C   0  0  1  0  0  3  0  0  0  0  0  0
   -1.2687   -0.6361    1.8123 C   0  0  0  0  0  0  0  0  0  0  0  0
   -0.3494    0.4555    1.6498 C   0  0  0  0  0  0  0  0  0  0  0  0
   -0.2373    0.9181    0.2998 C   0  0  0  0  0  3  0  0  0  0  0  0
   -1.4728    0.2983   -0.3860 C   0  0  2  0  0  0  0  0  0  0  0  0
   -3.3546   -1.7351   -1.1921 C   0  0  0  0  0  0  0  0  0  0  0  0
   -2.5171   -2.5045   -2.2164 C   0  0  0  0  0  0  0  0  0  0  0  0
   -3.1345   -2.9147    0.9753 C   0  0  0  0  0  0  0  0  0  0  0  0
   -4.4452   -2.7455    1.7436 C   0  0  0  0  0  0  0  0  0  0  0  0
    1.0637    2.1241    2.6158 C   0  0  0  0  0  0  0  0  0  0  0  0
    1.8352    2.2993    3.9056 C   0  0  0  0  0  0  0  0  0  0  0  0
   -1.3569   -1.3888    3.1095 C   0  0  0  0  0  0  0  0  0  0  0  0
   -2.5358    1.3643   -0.6375 C   0  0  0  0  0  0  0  0  0  0  0  0
   -3.4073    1.8017    0.3799 C   0  0  0  0  0  0  0  0  0  0  0  0
   -4.3338    2.8249    0.1313 C   0  0  0  0  0  0  0  0  0  0  0  0
   -4.4020    3.4268   -1.1359 C   0  0  0  0  0  0  0  0  0  0  0  0
   -3.5357    2.9985   -2.1540 C   0  0  0  0  0  0  0  0  0  0  0  0
   -2.6095    1.9739   -1.9064 C   0  0  0  0  0  0  0  0  0  0  0  0
   -0.0864    1.9969    0.1311 H   0  0  0  0  0  0  0  0  0  0  0  0
   -1.2181   -0.1480   -1.3636 H   0  0  0  0  0  0  0  0  0  0  0  0
   -3.5058   -0.6862   -1.5101 H   0  0  0  0  0  0  0  0  0  0  0  0
   -4.3708   -2.1762   -1.1225 H   0  0  0  0  0  0  0  0  0  0  0  0
   -3.0377   -2.5255   -3.1944 H   0  0  0  0  0  0  0  0  0  0  0  0
   -1.5245   -2.0377   -2.3695 H   0  0  0  0  0  0  0  0  0  0  0  0
   -2.3450   -3.5522   -1.8979 H   0  0  0  0  0  0  0  0  0  0  0  0
   -2.2954   -3.1361    1.6574 H   0  0  0  0  0  0  0  0  0  0  0  0
   -3.2028   -3.7866    0.2913 H   0  0  0  0  0  0  0  0  0  0  0  0
   -4.6779   -3.6632    2.3201 H   0  0  0  0  0  0  0  0  0  0  0  0
   -4.3857   -1.8964    2.4535 H   0  0  0  0  0  0  0  0  0  0  0  0
   -5.2956   -2.5515    1.0590 H   0  0  0  0  0  0  0  0  0  0  0  0
    0.3788    2.9770    2.4157 H   0  0  0  0  0  0  0  0  0  0  0  0
    1.7423    2.0200    1.7429 H   0  0  0  0  0  0  0  0  0  0  0  0
    2.4419    3.2247    3.8567 H   0  0  0  0  0  0  0  0  0  0  0  0
    1.1510    2.3763    4.7737 H   0  0  0  0  0  0  0  0  0  0  0  0
    2.5170    1.4417    4.0664 H   0  0  0  0  0  0  0  0  0  0  0  0
   -0.9501   -0.7562    3.9216 H   0  0  0  0  0  0  0  0  0  0  0  0
   -2.3932   -1.6621    3.3854 H   0  0  0  0  0  0  0  0  0  0  0  0
   -0.7497   -2.3200    3.0997 H   0  0  0  0  0  0  0  0  0  0  0  0
   -3.3552    1.3319    1.3743 H   0  0  0  0  0  0  0  0  0  0  0  0
   -5.0114    3.1539    0.9342 H   0  0  0  0  0  0  0  0  0  0  0  0
   -5.1313    4.2278   -1.3299 H   0  0  0  0  0  0  0  0  0  0  0  0
   -3.5805    3.4643   -3.1503 H   0  0  0  0  0  0  0  0  0  0  0  0
   -1.9267    1.6398   -2.7041 H   0  0  0  0  0  0  0  0  0  0  0  0
  2 10  1  0  0  0  0
  3  2  1  6  0  0  0
  3  4  1  0  0  0  0
  4 14  1  0  0  0  0
  5  4  2  0  0  0  0
  5  1  1  0  0  0  0
  6  5  1  0  0  0  0
  7 22  1  6  0  0  0
  7  6  1  0  0  0  0
  7  3  1  0  0  0  0
  8 24  1  0  0  0  0
  8  2  1  0  0  0  0
  9 27  1  0  0  0  0
  9  8  1  0  0  0  0
 10 28  1  0  0  0  0
 10 11  1  0  0  0  0
 11 30  1  0  0  0  0
 11 31  1  0  0  0  0
 12  1  1  0  0  0  0
 12 13  1  0  0  0  0
 13 37  1  0  0  0  0
 13 36  1  0  0  0  0
 14 39  1  0  0  0  0
 14 38  1  0  0  0  0
 15  7  1  0  0  0  0
 15 16  1  0  0  0  0
 16 41  1  0  0  0  0
 17 16  2  0  0  0  0
 17 42  1  0  0  0  0
 18 17  1  0  0  0  0
 19 20  1  0  0  0  0
 19 18  2  0  0  0  0
 20 15  2  0  0  0  0
 21  6  1  0  0  0  0
 23  8  1  0  0  0  0
 25  9  1  0  0  0  0
 26  9  1  0  0  0  0
 29 10  1  0  0  0  0
 32 11  1  0  0  0  0
 33 12  1  0  0  0  0
 34 12  1  0  0  0  0
 35 13  1  0  0  0  0
 40 14  1  0  0  0  0
 43 18  1  0  0  0  0
 44 19  1  0  0  0  0
 45 20  1  0  0  0  0
M  END
