3
q = 0.0, confidence = 0.994

 28 29  0  0  1  0  0  0  0  0999 V2000
    3.3254    0.1946    1.2737 N   0  0  0  0  0  0  0  0  0  0  0  0
    3.1998   -0.1960   -0.0037 C   0  0  2  0  0  3  0  0  0  0  0  0
    2.5219    0.6175   -0.9792 C   0  0  0  0  0  3  0  0  0  0  0  0
    2.4321    1.6885   -0.7198 H   0  0  0  0  0  0  0  0  0  0  0  0
    2.8053    0.3736   -2.4626 C   0  0  0  0  0  0  0  0  0  0  0  0
    3.7167    0.9447   -2.7546 H   0  0  0  0  0  0  0  0  0  0  0  0
    1.9793    0.7943   -3.0697 H   0  0  0  0  0  0  0  0  0  0  0  0
    3.0217   -1.1062   -2.7810 C   0  0  0  0  0  0  0  0  0  0  0  0
    3.3008   -1.2354   -3.8460 H   0  0  0  0  0  0  0  0  0  0  0  0
    2.0702   -1.6649   -2.6283 H   0  0  0  0  0  0  0  0  0  0  0  0
    4.1123   -1.6792   -1.8743 C   0  0  0  0  0  0  0  0  0  0  0  0
    4.3146   -2.7434   -2.1078 H   0  0  0  0  0  0  0  0  0  0  0  0
    5.0615   -1.1331   -2.0651 H   0  0  0  0  0  0  0  0  0  0  0  0
    3.7557   -1.5543   -0.3858 C   0  0  0  0  0  0  0  0  0  0  0  0
    2.9934   -2.3177   -0.1098 H   0  0  0  0  0  0  0  0  0  0  0  0
    4.6443   -1.7776    0.2373 H   0  0  0  0  0  0  0  0  0  0  0  0
    3.7436   -0.6772    2.3936 C   0  0  0  0  0  0  0  0  0  0  0  0
    4.8531   -0.6867    2.4724 H   0  0  0  0  0  0  0  0  0  0  0  0
    3.4043   -1.7179    2.2322 H   0  0  0  0  0  0  0  0  0  0  0  0
    3.0980   -0.0215    3.6191 C   0  0  0  0  0  0  0  0  0  0  0  0
    3.6352   -0.2600    4.5562 H   0  0  0  0  0  0  0  0  0  0  0  0
    2.0523   -0.3797    3.7269 H   0  0  0  0  0  0  0  0  0  0  0  0
    3.1116    1.4702    3.2615 C   0  0  0  0  0  0  0  0  0  0  0  0
    4.1219    1.8990    3.4250 H   0  0  0  0  0  0  0  0  0  0  0  0
    2.3951    2.0719    3.8518 H   0  0  0  0  0  0  0  0  0  0  0  0
    2.7729    1.4643    1.7692 C   0  0  0  0  0  0  0  0  0  0  0  0
    1.6713    1.4678    1.5780 H   0  0  0  0  0  0  0  0  0  0  0  0
    3.1961    2.3214    1.2078 H   0  0  0  0  0  0  0  0  0  0  0  0
  1 26  1  0  0  0  0
  1 17  1  0  0  0  0
  2  1  1  1  0  0  0
  3  4  1  0  0  0  0
  3  2  1  0  0  0  0
  5  3  1  0  0  0  0
  6  5  1  0  0  0  0
  7  5  1  0  0  0  0
  8 10  1  0  0  0  0
  8  5  1  0  0  0  0
  8 11  1  0  0  0  0
  9  8  1  0  0  0  0
 11 14  1  0  0  0  0
 12 11  1  0  0  0  0
 13 11  1  0  0  0  0
 14 15  1  0  0  0  0
 14  2  1  0  0  0  0
 14 16  1  0  0  0  0
 17 18  1  0  0  0  0
 17 20  1  0  0  0  0
 19 17  1  0  0  0  0
 20 22  1  0  0  0  0
 20 21  1  0  0  0  0
 23 24  1  0  0  0  0
 23 20  1  0  0  0  0
 23 25  1  0  0  0  0
 26 23  1  0  0  0  0
 27 26  1  0  0  0  0
 28 26  1  0  0  0  0
M  END
