3
q = 0.0, confidence = 0.98

 18 18  0  0  1  0  0  0  0  0999 V2000
    3.7351   -0.4529   -1.4448 N   0  0  0  0  0  0  0  0  0  0  0  0
    4.4425   -0.1646    0.6024 N   0  0  0  0  0  0  0  0  0  0  0  0
    2.4276   -1.6621    0.3265 C   0  0  0  0  0  3  0  0  0  0  0  0
    2.6013   -1.9651    1.3751 H   0  0  0  0  0  0  0  0  0  0  0  0
    2.3695   -2.5757   -0.3006 H   0  0  0  0  0  0  0  0  0  0  0  0
    3.4908   -0.7943   -0.1457 C   0  0  2  0  0  3  0  0  0  0  0  0
    4.8398    0.3871   -1.5107 C   0  0  0  0  0  0  0  0  0  0  0  0
    5.2204    0.7740   -2.4601 H   0  0  0  0  0  0  0  0  0  0  0  0
    5.2821    0.5695   -0.2277 C   0  0  0  0  0  0  0  0  0  0  0  0
    6.1221    1.1507    0.1626 H   0  0  0  0  0  0  0  0  0  0  0  0
    2.9019   -0.8751   -2.5570 C   0  0  0  0  0  0  0  0  0  0  0  0
    3.0201   -1.9593   -2.7534 H   0  0  0  0  0  0  0  0  0  0  0  0
    3.1900   -0.3101   -3.4606 H   0  0  0  0  0  0  0  0  0  0  0  0
    1.8382   -0.6712   -2.3094 H   0  0  0  0  0  0  0  0  0  0  0  0
    4.5241   -0.2360    2.0529 C   0  0  0  0  0  0  0  0  0  0  0  0
    3.5906    0.1539    2.5046 H   0  0  0  0  0  0  0  0  0  0  0  0
    5.3751    0.3793    2.3933 H   0  0  0  0  0  0  0  0  0  0  0  0
    4.6836   -1.2807    2.3843 H   0  0  0  0  0  0  0  0  0  0  0  0
  1  6  1  0  0  0  0
  2 15  1  0  0  0  0
  3  4  1  0  0  0  0
  5  3  1  0  0  0  0
  6  3  1  6  0  0  0
  6  2  1  0  0  0  0
  7  1  1  0  0  0  0
  7  9  2  0  0  0  0
  8  7  1  0  0  0  0
  9 10  1  0  0  0  0
  9  2  1  0  0  0  0
 11 14  1  0  0  0  0
 11  1  1  0  0  0  0
 12 11  1  0  0  0  0
 13 11  1  0  0  0  0
 15 18  1  0  0  0  0
 15 17  1  0  0  0  0
 15 16  1  0  0  0  0
M  END
