3
q = -1.0, confidence = 0.0

 28 29  0  0  1  0  0  0  0  0999 V2000
    3.0635   -0.6418    0.0097 Si  0  0  0  0  0  0  0  0  0  0  0  0
    1.4220    0.0882   -0.5598 C   0  0  2  0  0  3  0  0  0  0  0  0
    0.7298   -0.3537   -1.7444 C   0  0  0  0  0  3  0  0  0  0  0  0
    1.0150   -1.2140   -2.3639 H   0  0  0  0  0  0  0  0  0  0  0  0
   -0.4227    0.4602   -1.9505 C   0  0  0  0  0  3  0  0  0  0  0  0
   -1.1453    0.3566   -2.7696 H   0  0  0  0  0  0  0  0  0  0  0  0
   -0.3815    1.5591   -0.9972 C   0  0  0  0  0  0  0  0  0  0  0  0
   -1.2316    2.6682   -0.7811 C   0  0  0  0  0  0  0  0  0  0  0  0
   -2.0939    2.8468   -1.4431 H   0  0  0  0  0  0  0  0  0  0  0  0
   -0.9448    3.5481    0.2698 C   0  0  0  0  0  0  0  0  0  0  0  0
   -1.5879    4.4259    0.4366 H   0  0  0  0  0  0  0  0  0  0  0  0
    0.1696    3.3309    1.1141 C   0  0  0  0  0  0  0  0  0  0  0  0
    0.3742    4.0395    1.9311 H   0  0  0  0  0  0  0  0  0  0  0  0
    1.0166    2.2320    0.9259 C   0  0  0  0  0  0  0  0  0  0  0  0
    1.8709    2.0679    1.5983 H   0  0  0  0  0  0  0  0  0  0  0  0
    0.7599    1.3340   -0.1342 C   0  0  0  0  0  0  0  0  0  0  0  0
    4.4563    0.2796   -0.8895 C   0  0  0  0  0  0  0  0  0  0  0  0
    5.4526   -0.1188   -0.6052 H   0  0  0  0  0  0  0  0  0  0  0  0
    4.4352    1.3603   -0.6397 H   0  0  0  0  0  0  0  0  0  0  0  0
    4.3482    0.1864   -1.9894 H   0  0  0  0  0  0  0  0  0  0  0  0
    3.3462   -0.4829    1.8749 C   0  0  0  0  0  0  0  0  0  0  0  0
    2.5267   -0.9481    2.4560 H   0  0  0  0  0  0  0  0  0  0  0  0
    3.4340    0.5766    2.1897 H   0  0  0  0  0  0  0  0  0  0  0  0
    4.2954   -0.9895    2.1479 H   0  0  0  0  0  0  0  0  0  0  0  0
    3.0910   -2.4696   -0.4862 C   0  0  0  0  0  0  0  0  0  0  0  0
    2.2389   -3.0160   -0.0337 H   0  0  0  0  0  0  0  0  0  0  0  0
    4.0311   -2.9549   -0.1519 H   0  0  0  0  0  0  0  0  0  0  0  0
    3.0257   -2.5895   -1.5871 H   0  0  0  0  0  0  0  0  0  0  0  0
  1 21  1  0  0  0  0
  2 16  1  0  0  0  0
  2  1  1  6  0  0  0
  3  2  1  0  0  0  0
  4  3  1  0  0  0  0
  5  3  1  0  0  0  0
  5  7  1  0  0  0  0
  6  5  1  0  0  0  0
  7  8  2  0  0  0  0
  7 16  1  0  0  0  0
  8 10  1  0  0  0  0
  9  8  1  0  0  0  0
 10 11  1  0  0  0  0
 10 12  2  0  0  0  0
 12 13  1  0  0  0  0
 14 12  1  0  0  0  0
 14 15  1  0  0  0  0
 16 14  2  0  0  0  0
 17 19  1  0  0  0  0
 17 18  1  0  0  0  0
 17  1  1  0  0  0  0
 20 17  1  0  0  0  0
 21 24  1  0  0  0  0
 21 23  1  0  0  0  0
 21 22  1  0  0  0  0
 25 27  1  0  0  0  0
 25 26  1  0  0  0  0
 25  1  1  0  0  0  0
 28 25  1  0  0  0  0
M  END
