13
q = 0.0, confidence = 0.998

 24 24  0  0  0  0  0  0  0  0999 V2000
   -8.2662   -0.9012   -0.3262 O   0  0  0  0  0  0  0  0  0  0  0  0
   -8.5115    1.2859   -0.8858 O   0  0  0  0  0  0  0  0  0  0  0  0
   -2.1707    0.7942   -0.1870 N   0  0  0  0  0  2  0  0  0  0  0  0
   -3.5377    0.6910   -0.2945 C   0  0  0  0  0  0  0  0  0  0  0  0
   -4.3116    1.8360   -0.6449 C   0  0  0  0  0  0  0  0  0  0  0  0
   -5.7075    1.6559   -0.7267 C   0  0  0  0  0  0  0  0  0  0  0  0
   -6.3552    2.5050   -0.9921 H   0  0  0  0  0  0  0  0  0  0  0  0
   -6.3080    0.4150   -0.4771 C   0  0  0  0  0  0  0  0  0  0  0  0
   -5.5166   -0.7047   -0.1339 C   0  0  0  0  0  0  0  0  0  0  0  0
   -5.9975   -1.6726    0.0595 H   0  0  0  0  0  0  0  0  0  0  0  0
   -4.1336   -0.5669   -0.0433 C   0  0  0  0  0  0  0  0  0  0  0  0
   -3.4920   -1.4170    0.2264 H   0  0  0  0  0  0  0  0  0  0  0  0
   -0.9955    0.7835   -0.0443 C   0  0  0  0  0  1  0  0  0  0  0  0
   -3.6695    3.1303   -0.9014 C   0  0  0  0  0  0  0  0  0  0  0  0
   -2.5698    3.1775   -0.8132 H   0  0  0  0  0  0  0  0  0  0  0  0
   -4.3209    4.2403   -1.2311 C   0  0  0  0  0  0  0  0  0  0  0  0
   -4.9703    5.3321   -1.5565 C   0  0  0  0  0  0  0  0  0  0  0  0
   -5.1725    5.5888   -2.6116 H   0  0  0  0  0  0  0  0  0  0  0  0
   -5.3381    6.0343   -0.7872 H   0  0  0  0  0  0  0  0  0  0  0  0
   -7.8026    0.3407   -0.5910 C   0  0  0  0  0  0  0  0  0  0  0  0
   -9.6910   -1.0564   -0.4154 C   0  0  0  0  0  0  0  0  0  0  0  0
  -10.2024   -0.3845    0.3024 H   0  0  0  0  0  0  0  0  0  0  0  0
   -9.8992   -2.1133   -0.1747 H   0  0  0  0  0  0  0  0  0  0  0  0
  -10.0469   -0.8113   -1.4359 H   0  0  0  0  0  0  0  0  0  0  0  0
  2 20  2  0  0  0  0
  3 13  1  0  0  0  0
  4  3  1  0  0  0  0
  4 11  1  0  0  0  0
  5  4  2  0  0  0  0
  6  5  1  0  0  0  0
  6  8  2  0  0  0  0
  7  6  1  0  0  0  0
  8  9  1  0  0  0  0
  9 11  2  0  0  0  0
  9 10  1  0  0  0  0
 11 12  1  0  0  0  0
 14 15  1  0  0  0  0
 14  5  1  0  0  0  0
 16 14  2  0  0  0  0
 17 16  2  0  0  0  0
 17 19  1  0  0  0  0
 18 17  1  0  0  0  0
 20  8  1  0  0  0  0
 20  1  1  0  0  0  0
 21  1  1  0  0  0  0
 21 23  1  0  0  0  0
 21 22  1  0  0  0  0
 24 21  1  0  0  0  0
M  END
