18
q = 0.0, confidence = 0.988

 27 29  0  0  0  0  0  0  0  0999 V2000
    4.9026   -2.1850    0.8455 C   0  0  0  0  0  0  0  0  0  0  0  0
    4.4025   -0.9437    0.6708 N   0  0  0  0  0  0  0  0  0  0  0  0
    2.6847   -1.8197   -0.7944 C   0  0  0  0  0  0  0  0  0  0  0  0
    1.8454   -1.6118   -1.4720 H   0  0  0  0  0  0  0  0  0  0  0  0
    4.3013   -3.3036    0.2293 C   0  0  0  0  0  0  0  0  0  0  0  0
    4.7178   -4.3086    0.3891 H   0  0  0  0  0  0  0  0  0  0  0  0
    3.3303   -0.7846   -0.0985 C   0  0  0  0  0  0  0  0  0  0  0  0
    3.1928   -3.1121   -0.6061 C   0  0  0  0  0  0  0  0  0  0  0  0
    2.7369   -3.9658   -1.1300 H   0  0  0  0  0  0  0  0  0  0  0  0
    6.1180   -2.3072    1.7199 C   0  0  0  0  0  0  0  0  0  0  0  0
    6.9478   -1.6978    1.3074 H   0  0  0  0  0  0  0  0  0  0  0  0
    6.4584   -3.3543    1.8149 H   0  0  0  0  0  0  0  0  0  0  0  0
    5.9038   -1.9054    2.7309 H   0  0  0  0  0  0  0  0  0  0  0  0
    3.7674    1.6408   -0.2141 C   0  0  0  0  0  0  0  0  0  0  0  0
    4.8398    1.4853   -0.0792 H   0  0  0  0  0  0  0  0  0  0  0  0
    3.0110    2.7887   -0.3876 C   0  0  0  0  0  0  0  0  0  0  0  0
    1.6652    2.3462   -0.4849 N   0  0  0  0  0  0  0  0  0  0  0  0
    1.5770    0.9791   -0.3697 C   0  0  0  0  0  2  0  0  0  0  0  0
    2.8824    0.5783   -0.2274 N   0  0  0  0  0  0  0  0  0  0  0  0
    2.2500    5.0664   -0.6640 C   0  0  0  0  0  0  0  0  0  0  0  0
    2.4460    6.1450   -0.7415 H   0  0  0  0  0  0  0  0  0  0  0  0
    0.9001    4.5836   -0.7571 C   0  0  0  0  0  0  0  0  0  0  0  0
    0.0684    5.2853   -0.9076 H   0  0  0  0  0  0  0  0  0  0  0  0
    3.2912    4.1828   -0.4829 C   0  0  0  0  0  0  0  0  0  0  0  0
    4.3344    4.5195   -0.4105 H   0  0  0  0  0  0  0  0  0  0  0  0
    0.6239    3.2451   -0.6676 C   0  0  0  0  0  0  0  0  0  0  0  0
   -0.3767    2.7971   -0.7347 H   0  0  0  0  0  0  0  0  0  0  0  0
  1 10  1  0  0  0  0
  2  1  1  0  0  0  0
  3  8  2  0  0  0  0
  3  7  1  0  0  0  0
  4  3  1  0  0  0  0
  5  6  1  0  0  0  0
  5  1  2  0  0  0  0
  7  2  2  0  0  0  0
  8  5  1  0  0  0  0
  9  8  1  0  0  0  0
 10 12  1  0  0  0  0
 10 13  1  0  0  0  0
 11 10  1  0  0  0  0
 14 15  1  0  0  0  0
 16 14  2  0  0  0  0
 17 16  1  0  0  0  0
 17 18  1  0  0  0  0
 18 19  1  0  0  0  0
 19 14  1  0  0  0  0
 19  7  1  0  0  0  0
 20 24  2  0  0  0  0
 21 20  1  0  0  0  0
 22 26  2  0  0  0  0
 22 20  1  0  0  0  0
 23 22  1  0  0  0  0
 24 25  1  0  0  0  0
 24 16  1  0  0  0  0
 26 17  1  0  0  0  0
 27 26  1  0  0  0  0
M  END
