6
q = -1.0, confidence = 0.0

 44 43  0  0  0  0  0  0  0  0999 V2000
    0.2411    0.1284   -0.4156 P   0  0  2  0  0  0  0  0  0  0  0  0
   -0.6316    2.9928   -0.6868 S   0  0  0  0  0  0  0  0  0  0  0  0
    2.9016   -1.3177   -1.2622 Si  0  0  0  0  0  0  0  0  0  0  0  0
    2.7991    0.5259    1.4044 Si  0  0  0  0  0  0  0  0  0  0  0  0
   -1.7905    3.1260   -1.6376 O   0  0  0  0  0  1  0  0  0  0  0  0
   -0.5646   -0.8065   -1.6890 C   0  0  0  0  0  3  0  0  0  0  0  0
   -1.0302   -0.1726   -2.4645 H   0  0  0  0  0  0  0  0  0  0  0  0
   -0.1194   -1.7325   -2.0800 H   0  0  0  0  0  0  0  0  0  0  0  0
    0.5716    1.8445   -0.8022 C   0  0  0  0  0  3  0  0  0  0  0  0
    1.2558    2.0700   -1.6391 H   0  0  0  0  0  0  0  0  0  0  0  0
   -1.2960    2.9214    0.9927 C   0  0  0  0  0  0  0  0  0  0  0  0
   -0.5445    3.2794    1.7176 H   0  0  0  0  0  0  0  0  0  0  0  0
   -1.5295    1.8517    1.1789 H   0  0  0  0  0  0  0  0  0  0  0  0
   -2.2116    3.5394    0.9855 H   0  0  0  0  0  0  0  0  0  0  0  0
    0.2410    4.5815   -0.7528 C   0  0  0  0  0  0  0  0  0  0  0  0
    1.0066    4.6377    0.0412 H   0  0  0  0  0  0  0  0  0  0  0  0
   -0.5258    5.3727   -0.6628 H   0  0  0  0  0  0  0  0  0  0  0  0
    0.7039    4.6227   -1.7564 H   0  0  0  0  0  0  0  0  0  0  0  0
    1.8363   -0.5945    0.1707 C   0  0  0  0  0  0  0  0  0  0  0  0
    1.5275   -1.4734    0.7798 H   0  0  0  0  0  0  0  0  0  0  0  0
    3.0139   -0.0660   -2.6791 C   0  0  0  0  0  0  0  0  0  0  0  0
    2.0055    0.1590   -3.0824 H   0  0  0  0  0  0  0  0  0  0  0  0
    3.6245   -0.4809   -3.5075 H   0  0  0  0  0  0  0  0  0  0  0  0
    3.4835    0.8837   -2.3531 H   0  0  0  0  0  0  0  0  0  0  0  0
    4.6539   -1.7498   -0.6705 C   0  0  0  0  0  0  0  0  0  0  0  0
    5.2194   -0.8926   -0.2575 H   0  0  0  0  0  0  0  0  0  0  0  0
    5.2241   -2.1444   -1.5376 H   0  0  0  0  0  0  0  0  0  0  0  0
    4.6278   -2.5489    0.0982 H   0  0  0  0  0  0  0  0  0  0  0  0
    2.1768   -2.9541   -1.8976 C   0  0  0  0  0  0  0  0  0  0  0  0
    2.9979   -3.5927   -2.2844 H   0  0  0  0  0  0  0  0  0  0  0  0
    1.4557   -2.8049   -2.7248 H   0  0  0  0  0  0  0  0  0  0  0  0
    1.6552   -3.5167   -1.0968 H   0  0  0  0  0  0  0  0  0  0  0  0
    1.6894    1.5880    2.5121 C   0  0  0  0  0  0  0  0  0  0  0  0
    1.3128    2.4591    1.9445 H   0  0  0  0  0  0  0  0  0  0  0  0
    2.2954    1.9643    3.3628 H   0  0  0  0  0  0  0  0  0  0  0  0
    0.8331    1.0204    2.9249 H   0  0  0  0  0  0  0  0  0  0  0  0
    3.7605   -0.6234    2.5639 C   0  0  0  0  0  0  0  0  0  0  0  0
    4.3413   -0.0228    3.2945 H   0  0  0  0  0  0  0  0  0  0  0  0
    4.4652   -1.2938    2.0369 H   0  0  0  0  0  0  0  0  0  0  0  0
    3.0491   -1.2529    3.1380 H   0  0  0  0  0  0  0  0  0  0  0  0
    3.9651    1.7250    0.5091 C   0  0  0  0  0  0  0  0  0  0  0  0
    4.5010    2.3467    1.2562 H   0  0  0  0  0  0  0  0  0  0  0  0
    3.3760    2.4039   -0.1401 H   0  0  0  0  0  0  0  0  0  0  0  0
    4.7262    1.2205   -0.1173 H   0  0  0  0  0  0  0  0  0  0  0  0
  1  6  1  6  0  0  0
  1 19  1  0  0  0  0
  2 11  1  0  0  0  0
  3 25  1  0  0  0  0
  3 19  1  0  0  0  0
  4 33  1  0  0  0  0
  4 37  1  0  0  0  0
  5  2  1  0  0  0  0
  7  6  1  0  0  0  0
  8  6  1  0  0  0  0
  9  2  1  0  0  0  0
  9  1  1  0  0  0  0
 10  9  1  0  0  0  0
 11 13  1  0  0  0  0
 11 12  1  0  0  0  0
 14 11  1  0  0  0  0
 15  2  1  0  0  0  0
 15 17  1  0  0  0  0
 15 16  1  0  0  0  0
 18 15  1  0  0  0  0
 19 20  1  0  0  0  0
 19  4  1  0  0  0  0
 21 24  1  0  0  0  0
 21  3  1  0  0  0  0
 22 21  1  0  0  0  0
 23 21  1  0  0  0  0
 25 26  1  0  0  0  0
 25 28  1  0  0  0  0
 27 25  1  0  0  0  0
 29  3  1  0  0  0  0
 29 32  1  0  0  0  0
 30 29  1  0  0  0  0
 31 29  1  0  0  0  0
 33 36  1  0  0  0  0
 33 35  1  0  0  0  0
 34 33  1  0  0  0  0
 37 40  1  0  0  0  0
 37 38  1  0  0  0  0
 39 37  1  0  0  0  0
 41 42  1  0  0  0  0
 41  4  1  0  0  0  0
 43 41  1  0  0  0  0
 44 41  1  0  0  0  0
M  END
