3
q = 0.0, confidence = 0.522

 17 17  0  0  0  0  0  0  0  0999 V2000
   -0.4115   -1.8798   -0.7364 S   0  0  0  0  0  0  0  0  0  0  0  0
   -0.7277   -3.0731    0.6279 C   0  0  0  0  0  0  0  0  0  0  0  0
   -1.0377   -0.2785   -0.2140 C   0  0  0  0  0  2  0  0  0  0  0  0
   -2.4351    0.0542   -0.1987 C   0  0  0  0  0  0  0  0  0  0  0  0
   -3.4391   -0.9111   -0.5010 C   0  0  0  0  0  0  0  0  0  0  0  0
   -4.7908   -0.5667   -0.4721 C   0  0  0  0  0  0  0  0  0  0  0  0
   -5.1738    0.7487   -0.1522 C   0  0  0  0  0  0  0  0  0  0  0  0
   -4.1971    1.7220    0.1320 C   0  0  0  0  0  0  0  0  0  0  0  0
   -2.8438    1.3852    0.1093 C   0  0  0  0  0  0  0  0  0  0  0  0
   -1.5112   -3.7802    0.2958 H   0  0  0  0  0  0  0  0  0  0  0  0
    0.2140   -3.6176    0.8283 H   0  0  0  0  0  0  0  0  0  0  0  0
   -1.0553   -2.5196    1.5272 H   0  0  0  0  0  0  0  0  0  0  0  0
   -3.1394   -1.9351   -0.7696 H   0  0  0  0  0  0  0  0  0  0  0  0
   -5.5545   -1.3226   -0.7060 H   0  0  0  0  0  0  0  0  0  0  0  0
   -6.2400    1.0198   -0.1322 H   0  0  0  0  0  0  0  0  0  0  0  0
   -4.4994    2.7525    0.3689 H   0  0  0  0  0  0  0  0  0  0  0  0
   -2.0877    2.1522    0.3201 H   0  0  0  0  0  0  0  0  0  0  0  0
  1  3  1  0  0  0  0
  1  2  1  0  0  0  0
  2 11  1  0  0  0  0
  2 12  1  0  0  0  0
  3  4  1  0  0  0  0
  4  9  1  0  0  0  0
  5  6  1  0  0  0  0
  5  4  2  0  0  0  0
  6  7  2  0  0  0  0
  7 15  1  0  0  0  0
  7  8  1  0  0  0  0
  8 16  1  0  0  0  0
  9  8  2  0  0  0  0
  9 17  1  0  0  0  0
 10  2  1  0  0  0  0
 13  5  1  0  0  0  0
 14  6  1  0  0  0  0
M  END
