3
q = 0.0, confidence = 0.922

 34 35  0  0  0  0  0  0  0  0999 V2000
   -1.1537   -1.7319    2.2353 O   0  0  0  0  0  0  0  0  0  0  0  0
    0.0379    3.2212    1.4828 O   0  0  0  0  0  0  0  0  0  0  0  0
   -0.3624    1.1325    0.4927 C   0  0  0  0  0  3  0  0  0  0  0  0
   -0.5833   -0.1549    0.5796 C   0  0  0  0  0  3  0  0  0  0  0  0
   -1.3646   -1.2837    1.1068 C   0  0  0  0  0  0  0  0  0  0  0  0
   -2.3938   -1.8651    0.1913 C   0  0  0  0  0  0  0  0  0  0  0  0
   -3.2847   -2.8258    0.7094 C   0  0  0  0  0  0  0  0  0  0  0  0
   -4.2723   -3.3850   -0.1065 C   0  0  0  0  0  0  0  0  0  0  0  0
   -4.3952   -3.0098   -1.4626 C   0  0  0  0  0  0  0  0  0  0  0  0
   -3.4935   -2.0509   -1.9734 C   0  0  0  0  0  0  0  0  0  0  0  0
   -2.5039   -1.4841   -1.1631 C   0  0  0  0  0  0  0  0  0  0  0  0
   -5.4380   -3.6364   -2.3514 C   0  0  0  0  0  0  0  0  0  0  0  0
   -0.7793    2.4744    0.9396 C   0  0  0  0  0  0  0  0  0  0  0  0
   -2.1970    2.8843    0.7028 C   0  0  0  0  0  0  0  0  0  0  0  0
   -3.1309    2.0629    0.0409 C   0  0  0  0  0  0  0  0  0  0  0  0
   -4.4481    2.5001   -0.1467 C   0  0  0  0  0  0  0  0  0  0  0  0
   -4.8700    3.7621    0.3170 C   0  0  0  0  0  0  0  0  0  0  0  0
   -3.9234    4.5814    0.9762 C   0  0  0  0  0  0  0  0  0  0  0  0
   -2.6093    4.1534    1.1656 C   0  0  0  0  0  0  0  0  0  0  0  0
   -6.2870    4.2355    0.1242 C   0  0  0  0  0  0  0  0  0  0  0  0
   -3.1804   -3.1086    1.7677 H   0  0  0  0  0  0  0  0  0  0  0  0
   -4.9709   -4.1276    0.3112 H   0  0  0  0  0  0  0  0  0  0  0  0
   -3.5654   -1.7498   -3.0305 H   0  0  0  0  0  0  0  0  0  0  0  0
   -1.7939   -0.7588   -1.5909 H   0  0  0  0  0  0  0  0  0  0  0  0
   -5.0002   -4.4656   -2.9483 H   0  0  0  0  0  0  0  0  0  0  0  0
   -5.8517   -2.9048   -3.0738 H   0  0  0  0  0  0  0  0  0  0  0  0
   -6.2761   -4.0607   -1.7649 H   0  0  0  0  0  0  0  0  0  0  0  0
   -2.8282    1.0756   -0.3343 H   0  0  0  0  0  0  0  0  0  0  0  0
   -5.1662    1.8458   -0.6656 H   0  0  0  0  0  0  0  0  0  0  0  0
   -4.2331    5.5728    1.3443 H   0  0  0  0  0  0  0  0  0  0  0  0
   -1.8642    4.7818    1.6760 H   0  0  0  0  0  0  0  0  0  0  0  0
   -6.8920    3.5022   -0.4426 H   0  0  0  0  0  0  0  0  0  0  0  0
   -6.3168    5.2012   -0.4223 H   0  0  0  0  0  0  0  0  0  0  0  0
   -6.7867    4.4076    1.1008 H   0  0  0  0  0  0  0  0  0  0  0  0
  3  4  2  0  0  0  0
  3 13  1  0  0  0  0
  4  5  1  0  0  0  0
  5  1  2  0  0  0  0
  6  7  1  0  0  0  0
  6  5  1  0  0  0  0
  7 21  1  0  0  0  0
  8 22  1  0  0  0  0
  8  7  2  0  0  0  0
  9  8  1  0  0  0  0
 10  9  2  0  0  0  0
 10 11  1  0  0  0  0
 11  6  2  0  0  0  0
 12 27  1  0  0  0  0
 12  9  1  0  0  0  0
 13  2  2  0  0  0  0
 14 13  1  0  0  0  0
 14 19  1  0  0  0  0
 15 14  2  0  0  0  0
 16 15  1  0  0  0  0
 16 17  2  0  0  0  0
 17 18  1  0  0  0  0
 18 19  2  0  0  0  0
 18 30  1  0  0  0  0
 19 31  1  0  0  0  0
 20 17  1  0  0  0  0
 20 34  1  0  0  0  0
 23 10  1  0  0  0  0
 24 11  1  0  0  0  0
 25 12  1  0  0  0  0
 26 12  1  0  0  0  0
 28 15  1  0  0  0  0
 29 16  1  0  0  0  0
 32 20  1  0  0  0  0
 33 20  1  0  0  0  0
M  END
