1
q = -1.0, confidence = 0.206

 27 28  0  0  0  0  0  0  0  0999 V2000
   -0.5921    0.1842    0.0096 C   0  0  0  0  0  1  0  0  0  0  0  0
   -1.8326    0.2479    0.0090 C   0  0  0  0  0  2  0  0  0  0  0  0
   -3.2538    0.3173    0.0078 C   0  0  0  0  0  0  0  0  0  0  0  0
   -3.9317    1.5649    0.0074 C   0  0  0  0  0  0  0  0  0  0  0  0
   -5.3254    1.6198    0.0056 C   0  0  0  0  0  0  0  0  0  0  0  0
   -6.1198    0.4449    0.0042 C   0  0  0  0  0  0  0  0  0  0  0  0
   -5.4375   -0.8000    0.0047 C   0  0  0  0  0  0  0  0  0  0  0  0
   -4.0467   -0.8649    0.0064 C   0  0  0  0  0  0  0  0  0  0  0  0
   -7.5736    0.5689    0.0021 C   0  0  0  0  0  0  0  0  0  0  0  0
   -8.4867   -0.4428    0.0004 C   0  0  0  0  0  0  0  0  0  0  0  0
   -9.9435   -0.3139   -0.0019 C   0  0  0  0  0  0  0  0  0  0  0  0
  -10.6185    0.9339   -0.0029 C   0  0  0  0  0  0  0  0  0  0  0  0
  -12.0152    0.9980   -0.0052 C   0  0  0  0  0  0  0  0  0  0  0  0
  -12.7847   -0.1796   -0.0065 C   0  0  0  0  0  0  0  0  0  0  0  0
  -12.1363   -1.4245   -0.0056 C   0  0  0  0  0  0  0  0  0  0  0  0
  -10.7373   -1.4884   -0.0034 C   0  0  0  0  0  0  0  0  0  0  0  0
   -3.3381    2.4905    0.0083 H   0  0  0  0  0  0  0  0  0  0  0  0
   -5.8290    2.5998    0.0053 H   0  0  0  0  0  0  0  0  0  0  0  0
   -6.0130   -1.7378    0.0036 H   0  0  0  0  0  0  0  0  0  0  0  0
   -3.5379   -1.8398    0.0066 H   0  0  0  0  0  0  0  0  0  0  0  0
   -7.9422    1.6094    0.0019 H   0  0  0  0  0  0  0  0  0  0  0  0
   -8.1196   -1.4835    0.0006 H   0  0  0  0  0  0  0  0  0  0  0  0
  -10.0380    1.8684   -0.0019 H   0  0  0  0  0  0  0  0  0  0  0  0
  -12.5138    1.9796   -0.0059 H   0  0  0  0  0  0  0  0  0  0  0  0
  -13.8838   -0.1244   -0.0083 H   0  0  0  0  0  0  0  0  0  0  0  0
  -12.7258   -2.3542   -0.0067 H   0  0  0  0  0  0  0  0  0  0  0  0
  -10.2337   -2.4683   -0.0026 H   0  0  0  0  0  0  0  0  0  0  0  0
  2  1  1  0  0  0  0
  3  2  1  0  0  0  0
  4  3  1  0  0  0  0
  4 17  1  0  0  0  0
  5  4  2  0  0  0  0
  6  7  2  0  0  0  0
  6  5  1  0  0  0  0
  7  8  1  0  0  0  0
  8 20  1  0  0  0  0
  8  3  2  0  0  0  0
  9  6  1  0  0  0  0
 10 22  1  0  0  0  0
 10  9  2  0  0  0  0
 11 10  1  0  0  0  0
 12 11  1  0  0  0  0
 12 23  1  0  0  0  0
 13 12  2  0  0  0  0
 14 15  2  0  0  0  0
 14 13  1  0  0  0  0
 15 16  1  0  0  0  0
 16 27  1  0  0  0  0
 16 11  2  0  0  0  0
 18  5  1  0  0  0  0
 19  7  1  0  0  0  0
 21  9  1  0  0  0  0
 24 13  1  0  0  0  0
 25 14  1  0  0  0  0
 26 15  1  0  0  0  0
M  END
