3
q = 0.0, confidence = 0.904

  3  2  0  0  0  0  0  0  0  0999 V2000
   -0.0000   -1.4068    0.9503 S   0  0  0  0  0  0  0  0  0  0  0  0
    0.0002   -2.5925   -1.9140 S   0  0  0  0  0  0  0  0  0  0  0  0
    0.0001   -1.4481   -0.7437 C   0  0  0  0  0  0  0  0  0  0  0  0
  2  3  2  0  0  0  0
  3  1  1  0  0  0  0
M  END
