9
q = 0.0, confidence = 0.98

 55 58  0  0  1  0  0  0  0  0999 V2000
    2.6085    0.2561   -1.2694 P   0  0  0  0  0  0  0  0  0  0  0  0
   -2.8576    1.3120    0.7711 C   0  0  1  0  0  0  0  0  0  0  0  0
   -2.0270    0.3457   -0.0370 C   0  0  1  0  0  3  0  0  0  0  0  0
   -2.6784   -0.3803   -1.0950 C   0  0  0  0  0  3  0  0  0  0  0  0
   -4.1805   -0.1402   -1.2361 C   0  0  0  0  0  0  0  0  0  0  0  0
   -4.6688    0.9810   -0.2939 C   0  0  2  0  0  0  0  0  0  0  0  0
   -3.6724    2.2012   -0.2659 C   0  0  0  0  0  0  0  0  0  0  0  0
   -4.2171    0.6756    1.1568 C   0  0  0  0  0  0  0  0  0  0  0  0
   -0.6351    0.1407    0.1564 C   0  0  0  0  0  3  0  0  0  0  0  0
    0.0628   -0.7271   -0.7474 C   0  0  0  0  0  3  0  0  0  0  0  0
    1.5029   -1.1027   -0.5073 C   0  0  1  0  0  0  0  0  0  0  0  0
    1.8859   -2.4491   -1.1318 C   0  0  0  0  0  0  0  0  0  0  0  0
   -3.0051    2.6482   -1.5668 C   0  0  0  0  0  0  0  0  0  0  0  0
   -4.2804    3.4386    0.4076 C   0  0  0  0  0  0  0  0  0  0  0  0
    2.0369    1.7162   -0.2747 C   0  0  0  0  0  0  0  0  0  0  0  0
    1.1338    2.6083   -0.8906 C   0  0  0  0  0  0  0  0  0  0  0  0
    0.5856    3.6816   -0.1705 C   0  0  0  0  0  0  0  0  0  0  0  0
    0.9392    3.8810    1.1731 C   0  0  0  0  0  0  0  0  0  0  0  0
    1.8533    3.0093    1.7895 C   0  0  0  0  0  0  0  0  0  0  0  0
    2.4018    1.9369    1.0701 C   0  0  0  0  0  0  0  0  0  0  0  0
    4.2440   -0.0744   -0.4601 C   0  0  0  0  0  0  0  0  0  0  0  0
    4.4622   -0.9408    0.6323 C   0  0  0  0  0  0  0  0  0  0  0  0
    5.7496   -1.1050    1.1692 C   0  0  0  0  0  0  0  0  0  0  0  0
    6.8368   -0.4009    0.6298 C   0  0  0  0  0  0  0  0  0  0  0  0
    6.6329    0.4642   -0.4576 C   0  0  0  0  0  0  0  0  0  0  0  0
    5.3504    0.6166   -1.0027 C   0  0  0  0  0  0  0  0  0  0  0  0
   -2.2554    1.8257    1.5475 H   0  0  0  0  0  0  0  0  0  0  0  0
   -2.1416   -0.5199   -2.0468 H   0  0  0  0  0  0  0  0  0  0  0  0
   -4.7660   -1.0635   -1.0376 H   0  0  0  0  0  0  0  0  0  0  0  0
   -4.3992    0.1316   -2.2907 H   0  0  0  0  0  0  0  0  0  0  0  0
   -5.7400    1.2105   -0.4745 H   0  0  0  0  0  0  0  0  0  0  0  0
   -4.7603    1.2773    1.9074 H   0  0  0  0  0  0  0  0  0  0  0  0
   -4.2120   -0.3756    1.4904 H   0  0  0  0  0  0  0  0  0  0  0  0
   -0.1361    0.5842    1.0320 H   0  0  0  0  0  0  0  0  0  0  0  0
   -0.2113   -0.6683   -1.8167 H   0  0  0  0  0  0  0  0  0  0  0  0
    1.6926   -1.1177    0.5871 H   0  0  0  0  0  0  0  0  0  0  0  0
    0.8514    2.4492   -1.9435 H   0  0  0  0  0  0  0  0  0  0  0  0
   -0.1176    4.3702   -0.6640 H   0  0  0  0  0  0  0  0  0  0  0  0
    0.5112    4.7229    1.7384 H   0  0  0  0  0  0  0  0  0  0  0  0
    2.1423    3.1671    2.8401 H   0  0  0  0  0  0  0  0  0  0  0  0
    3.1193    1.2599    1.5591 H   0  0  0  0  0  0  0  0  0  0  0  0
    3.6260   -1.4984    1.0800 H   0  0  0  0  0  0  0  0  0  0  0  0
    5.9009   -1.7878    2.0194 H   0  0  0  0  0  0  0  0  0  0  0  0
    7.8445   -0.5304    1.0532 H   0  0  0  0  0  0  0  0  0  0  0  0
    7.4806    1.0167   -0.8909 H   0  0  0  0  0  0  0  0  0  0  0  0
    5.1966    1.2839   -1.8662 H   0  0  0  0  0  0  0  0  0  0  0  0
    1.3454   -3.2754   -0.6279 H   0  0  0  0  0  0  0  0  0  0  0  0
    2.9724   -2.6494   -1.0511 H   0  0  0  0  0  0  0  0  0  0  0  0
    1.6159   -2.4751   -2.2069 H   0  0  0  0  0  0  0  0  0  0  0  0
   -3.7557    3.1135   -2.2390 H   0  0  0  0  0  0  0  0  0  0  0  0
   -2.5184    1.8255   -2.1211 H   0  0  0  0  0  0  0  0  0  0  0  0
   -2.2276    3.4115   -1.3579 H   0  0  0  0  0  0  0  0  0  0  0  0
   -3.4893    4.1868    0.6226 H   0  0  0  0  0  0  0  0  0  0  0  0
   -4.7955    3.2133    1.3605 H   0  0  0  0  0  0  0  0  0  0  0  0
   -5.0194    3.9185   -0.2670 H   0  0  0  0  0  0  0  0  0  0  0  0
  1 11  1  0  0  0  0
  1 21  1  0  0  0  0
  1 15  1  0  0  0  0
  2  8  1  0  0  0  0
  2 27  1  1  0  0  0
  3  9  1  6  0  0  0
  3  2  1  0  0  0  0
  4  3  1  0  0  0  0
  5  4  1  0  0  0  0
  5 29  1  0  0  0  0
  5  6  1  0  0  0  0
  6 31  1  6  0  0  0
  6  7  1  0  0  0  0
  6  8  1  0  0  0  0
  7 14  1  0  0  0  0
  7  2  1  0  0  0  0
  8 33  1  0  0  0  0
  8 32  1  0  0  0  0
  9 34  1  0  0  0  0
 10 11  1  0  0  0  0
 10  9  1  0  0  0  0
 11 36  1  1  0  0  0
 12 48  1  0  0  0  0
 12 47  1  0  0  0  0
 12 11  1  0  0  0  0
 13 52  1  0  0  0  0
 13  7  1  0  0  0  0
 14 53  1  0  0  0  0
 14 54  1  0  0  0  0
 15 20  1  0  0  0  0
 16 15  2  0  0  0  0
 16 17  1  0  0  0  0
 17 18  2  0  0  0  0
 18 39  1  0  0  0  0
 18 19  1  0  0  0  0
 19 40  1  0  0  0  0
 20 41  1  0  0  0  0
 20 19  2  0  0  0  0
 21 22  1  0  0  0  0
 22 42  1  0  0  0  0
 22 23  2  0  0  0  0
 23 43  1  0  0  0  0
 24 44  1  0  0  0  0
 24 23  1  0  0  0  0
 25 24  2  0  0  0  0
 26 21  2  0  0  0  0
 26 25  1  0  0  0  0
 28  4  1  0  0  0  0
 30  5  1  0  0  0  0
 35 10  1  0  0  0  0
 37 16  1  0  0  0  0
 38 17  1  0  0  0  0
 45 25  1  0  0  0  0
 46 26  1  0  0  0  0
 49 12  1  0  0  0  0
 50 13  1  0  0  0  0
 51 13  1  0  0  0  0
 55 14  1  0  0  0  0
M  END
