11
q = -1.0, confidence = 0.002

 37 39  0  0  1  0  0  0  0  0999 V2000
    1.2968   -1.0461    0.0043 N   0  0  0  0  0  0  0  0  0  0  0  0
    1.8033   -2.2605   -0.1799 C   0  0  0  0  0  0  0  0  0  0  0  0
    3.1970   -2.5020   -0.2807 C   0  0  0  0  0  0  0  0  0  0  0  0
    4.0791   -1.4359   -0.1997 C   0  0  0  0  0  0  0  0  0  0  0  0
    3.5711   -0.1233    0.0105 C   0  0  0  0  0  0  0  0  0  0  0  0
    4.3823    1.0453    0.0939 C   0  0  0  0  0  0  0  0  0  0  0  0
    3.7986    2.2889    0.2891 C   0  0  0  0  0  0  0  0  0  0  0  0
    2.3913    2.4178    0.4378 C   0  0  0  0  0  0  0  0  0  0  0  0
    1.5642    1.3001    0.3763 C   0  0  0  0  0  0  0  0  0  0  0  0
    2.1485    0.0199    0.1310 C   0  0  0  0  0  0  0  0  0  0  0  0
    0.1009    1.3189    0.5665 C   0  0  1  0  0  3  0  0  0  0  0  0
   -0.8690    1.8568   -0.3396 C   0  0  0  0  0  0  0  0  0  0  0  0
   -2.1606    1.5080    0.1693 C   0  0  0  0  0  0  0  0  0  0  0  0
   -1.9849    0.7678    1.3901 C   0  0  0  0  0  0  0  0  0  0  0  0
   -0.5838    0.6632    1.6522 C   0  0  0  0  0  0  0  0  0  0  0  0
   -0.5874    2.6789   -1.5568 C   0  0  0  0  0  0  0  0  0  0  0  0
   -3.4666    1.9512   -0.4056 C   0  0  0  0  0  0  0  0  0  0  0  0
   -3.0915    0.2160    2.2332 C   0  0  0  0  0  0  0  0  0  0  0  0
    0.0518    0.0566    2.8643 C   0  0  0  0  0  0  0  0  0  0  0  0
    1.0707   -3.0801   -0.2501 H   0  0  0  0  0  0  0  0  0  0  0  0
    3.5536   -3.5300   -0.4361 H   0  0  0  0  0  0  0  0  0  0  0  0
    5.1656   -1.5879   -0.2946 H   0  0  0  0  0  0  0  0  0  0  0  0
    5.4737    0.9447   -0.0069 H   0  0  0  0  0  0  0  0  0  0  0  0
    4.4298    3.1884    0.3435 H   0  0  0  0  0  0  0  0  0  0  0  0
    1.9468    3.4075    0.6196 H   0  0  0  0  0  0  0  0  0  0  0  0
   -0.6979    3.7606   -1.3257 H   0  0  0  0  0  0  0  0  0  0  0  0
   -1.2841    2.4330   -2.3804 H   0  0  0  0  0  0  0  0  0  0  0  0
    0.4402    2.5036   -1.9259 H   0  0  0  0  0  0  0  0  0  0  0  0
   -3.7293    2.9569   -0.0102 H   0  0  0  0  0  0  0  0  0  0  0  0
   -4.2826    1.2523   -0.1465 H   0  0  0  0  0  0  0  0  0  0  0  0
   -3.4242    2.0175   -1.5091 H   0  0  0  0  0  0  0  0  0  0  0  0
   -2.7132   -0.5290    2.9566 H   0  0  0  0  0  0  0  0  0  0  0  0
   -3.6009    1.0252    2.7991 H   0  0  0  0  0  0  0  0  0  0  0  0
   -3.8489   -0.2865    1.5994 H   0  0  0  0  0  0  0  0  0  0  0  0
    1.1534    0.0250    2.7676 H   0  0  0  0  0  0  0  0  0  0  0  0
   -0.1918    0.6564    3.7663 H   0  0  0  0  0  0  0  0  0  0  0  0
   -0.3070   -0.9788    3.0277 H   0  0  0  0  0  0  0  0  0  0  0  0
  1 10  1  0  0  0  0
  2  1  2  0  0  0  0
  3  4  2  0  0  0  0
  3  2  1  0  0  0  0
  4  5  1  0  0  0  0
  5  6  2  0  0  0  0
  5 10  1  0  0  0  0
  6  7  1  0  0  0  0
  7 24  1  0  0  0  0
  7  8  2  0  0  0  0
  8 25  1  0  0  0  0
  9  8  1  0  0  0  0
 10  9  2  0  0  0  0
 11  9  1  6  0  0  0
 11 15  1  0  0  0  0
 12 13  2  0  0  0  0
 12 11  1  0  0  0  0
 13 14  1  0  0  0  0
 14 15  2  0  0  0  0
 14 18  1  0  0  0  0
 15 19  1  0  0  0  0
 16 26  1  0  0  0  0
 16 12  1  0  0  0  0
 17 30  1  0  0  0  0
 17 29  1  0  0  0  0
 17 13  1  0  0  0  0
 18 33  1  0  0  0  0
 18 32  1  0  0  0  0
 19 37  1  0  0  0  0
 19 36  1  0  0  0  0
 20  2  1  0  0  0  0
 21  3  1  0  0  0  0
 22  4  1  0  0  0  0
 23  6  1  0  0  0  0
 27 16  1  0  0  0  0
 28 16  1  0  0  0  0
 31 17  1  0  0  0  0
 34 18  1  0  0  0  0
 35 19  1  0  0  0  0
M  END
