4
q = 0.0, confidence = 1.0

 31 34  0  0  0  0  0  0  0  0999 V2000
   -2.8364    1.0492   -0.1638 O   0  0  0  0  0  0  0  0  0  0  0  0
    1.6294    2.5314    0.2796 N   0  0  0  0  0  0  0  0  0  0  0  0
   -0.0336    1.2040    0.7022 N   0  0  0  0  0  0  0  0  0  0  0  0
    1.2821    1.2079    0.2841 C   0  0  0  0  0  2  0  0  0  0  0  0
    0.5659    3.3347    0.6706 C   0  0  0  0  0  0  0  0  0  0  0  0
    0.6452    4.4243    0.7279 H   0  0  0  0  0  0  0  0  0  0  0  0
   -0.4857    2.5022    0.9353 C   0  0  0  0  0  0  0  0  0  0  0  0
   -1.5074    2.7102    1.2612 H   0  0  0  0  0  0  0  0  0  0  0  0
    2.9400    3.0352   -0.1025 C   0  0  0  0  0  0  0  0  0  0  0  0
    2.8502    3.7241   -0.9652 H   0  0  0  0  0  0  0  0  0  0  0  0
    3.5677    2.1702   -0.3870 H   0  0  0  0  0  0  0  0  0  0  0  0
    3.4107    3.5676    0.7474 H   0  0  0  0  0  0  0  0  0  0  0  0
   -0.8344    0.0378    0.8732 C   0  0  0  0  0  0  0  0  0  0  0  0
   -0.3310   -1.1306    1.4726 C   0  0  0  0  0  0  0  0  0  0  0  0
    0.7087   -1.1337    1.8282 H   0  0  0  0  0  0  0  0  0  0  0  0
   -1.1325   -2.2812    1.6066 C   0  0  0  0  0  0  0  0  0  0  0  0
   -0.6950   -3.1768    2.0704 H   0  0  0  0  0  0  0  0  0  0  0  0
   -2.4623   -2.3016    1.1649 C   0  0  0  0  0  0  0  0  0  0  0  0
   -3.0790   -3.2054    1.2734 H   0  0  0  0  0  0  0  0  0  0  0  0
   -2.9896   -1.1374    0.5779 C   0  0  0  0  0  0  0  0  0  0  0  0
   -2.1684    0.0104    0.4387 C   0  0  0  0  0  0  0  0  0  0  0  0
   -4.1104    0.5840   -0.4300 C   0  0  0  0  0  0  0  0  0  0  0  0
   -4.2702   -0.7570    0.0024 C   0  0  0  0  0  0  0  0  0  0  0  0
   -5.5105   -1.3933   -0.1915 C   0  0  0  0  0  0  0  0  0  0  0  0
   -5.6644   -2.4335    0.1314 H   0  0  0  0  0  0  0  0  0  0  0  0
   -6.5429   -0.6717   -0.8066 C   0  0  0  0  0  0  0  0  0  0  0  0
   -7.5192   -1.1519   -0.9679 H   0  0  0  0  0  0  0  0  0  0  0  0
   -6.3522    0.6635   -1.2264 C   0  0  0  0  0  0  0  0  0  0  0  0
   -7.1814    1.2025   -1.7082 H   0  0  0  0  0  0  0  0  0  0  0  0
   -5.1238    1.3198   -1.0445 C   0  0  0  0  0  0  0  0  0  0  0  0
   -4.9598    2.3565   -1.3690 H   0  0  0  0  0  0  0  0  0  0  0  0
  1 21  1  0  0  0  0
  2  4  1  0  0  0  0
  2  5  1  0  0  0  0
  3 13  1  0  0  0  0
  3  7  1  0  0  0  0
  4  3  1  0  0  0  0
  5  6  1  0  0  0  0
  5  7  2  0  0  0  0
  7  8  1  0  0  0  0
  9  2  1  0  0  0  0
  9 12  1  0  0  0  0
 10  9  1  0  0  0  0
 11  9  1  0  0  0  0
 13 14  1  0  0  0  0
 14 16  2  0  0  0  0
 14 15  1  0  0  0  0
 16 17  1  0  0  0  0
 18 19  1  0  0  0  0
 18 16  1  0  0  0  0
 20 18  2  0  0  0  0
 21 20  1  0  0  0  0
 21 13  2  0  0  0  0
 22  1  1  0  0  0  0
 22 23  1  0  0  0  0
 23 20  1  0  0  0  0
 24 23  2  0  0  0  0
 24 25  1  0  0  0  0
 26 24  1  0  0  0  0
 27 26  1  0  0  0  0
 28 30  1  0  0  0  0
 28 26  2  0  0  0  0
 29 28  1  0  0  0  0
 30 22  2  0  0  0  0
 31 30  1  0  0  0  0
M  END
