5
q = 0.0, confidence = 0.994

 19 21  0  0  1  0  0  0  0  0999 V2000
    1.1543   -0.6977    1.0823 C   0  0  2  0  0  0  0  0  0  0  0  0
    1.0123   -1.1913    2.0598 H   0  0  0  0  0  0  0  0  0  0  0  0
    0.2475    0.5011    0.7218 C   0  0  0  0  0  3  0  0  0  0  0  0
    0.3551    1.4161    1.3240 H   0  0  0  0  0  0  0  0  0  0  0  0
    0.2476    0.5026   -0.7205 C   0  0  0  0  0  3  0  0  0  0  0  0
    0.3553    1.4188   -1.3209 H   0  0  0  0  0  0  0  0  0  0  0  0
    1.1544   -0.6956   -1.0833 C   0  0  1  0  0  0  0  0  0  0  0  0
    1.0125   -1.1872   -2.0618 H   0  0  0  0  0  0  0  0  0  0  0  0
    2.5657   -0.2346   -0.7079 C   0  0  0  0  0  0  0  0  0  0  0  0
    3.6812    0.1799   -1.4277 C   0  0  0  0  0  0  0  0  0  0  0  0
    3.6861    0.1873   -2.5285 H   0  0  0  0  0  0  0  0  0  0  0  0
    4.8255    0.5823   -0.7002 C   0  0  0  0  0  0  0  0  0  0  0  0
    5.7301    0.8961   -1.2428 H   0  0  0  0  0  0  0  0  0  0  0  0
    4.8255    0.5809    0.7021 C   0  0  0  0  0  0  0  0  0  0  0  0
    5.7300    0.8937    1.2454 H   0  0  0  0  0  0  0  0  0  0  0  0
    3.6811    0.1771    1.4287 C   0  0  0  0  0  0  0  0  0  0  0  0
    3.6858    0.1824    2.5295 H   0  0  0  0  0  0  0  0  0  0  0  0
    2.5657   -0.2359    0.7080 C   0  0  0  0  0  0  0  0  0  0  0  0
    0.8924   -1.6182   -0.0014 O   0  0  0  0  0  0  0  0  0  0  0  0
  1  2  1  1  0  0  0
  3  1  1  0  0  0  0
  3  4  1  0  0  0  0
  5  3  1  0  0  0  0
  6  5  1  0  0  0  0
  7  8  1  6  0  0  0
  7  5  1  0  0  0  0
  7  9  1  0  0  0  0
  7 19  1  0  0  0  0
  9 18  1  0  0  0  0
 10  9  2  0  0  0  0
 10 12  1  0  0  0  0
 11 10  1  0  0  0  0
 12 14  2  0  0  0  0
 13 12  1  0  0  0  0
 14 15  1  0  0  0  0
 14 16  1  0  0  0  0
 16 17  1  0  0  0  0
 18  1  1  0  0  0  0
 18 16  2  0  0  0  0
 19  1  1  0  0  0  0
M  END
