3
q = 0.0, confidence = 1.0

 32 32  0  0  1  0  0  0  0  0999 V2000
    0.6420    0.7143    0.7049 C   0  0  0  0  0  0  0  0  0  0  0  0
    0.7810   -0.7228    0.5874 C   0  0  2  0  0  3  0  0  0  0  0  0
   -0.0845   -1.5556    1.3486 C   0  0  0  0  0  3  0  0  0  0  0  0
   -0.0019   -2.6458    1.2618 H   0  0  0  0  0  0  0  0  0  0  0  0
   -1.1200   -1.0048    2.1634 C   0  0  0  0  0  0  0  0  0  0  0  0
   -1.8140   -1.6745    2.6896 H   0  0  0  0  0  0  0  0  0  0  0  0
   -1.2914    0.3953    2.2299 C   0  0  0  0  0  0  0  0  0  0  0  0
   -2.1203    0.8284    2.8061 H   0  0  0  0  0  0  0  0  0  0  0  0
   -0.4027    1.2433    1.5029 C   0  0  0  0  0  0  0  0  0  0  0  0
   -0.5289    2.3351    1.5162 H   0  0  0  0  0  0  0  0  0  0  0  0
    1.6202    1.7013    0.0650 C   0  0  2  0  0  0  0  0  0  0  0  0
    2.0098    1.2605   -0.8835 H   0  0  0  0  0  0  0  0  0  0  0  0
    2.7850    1.9522    1.0256 C   0  0  0  0  0  0  0  0  0  0  0  0
    3.5227    2.6257    0.5478 H   0  0  0  0  0  0  0  0  0  0  0  0
    3.2675    0.9960    1.2975 H   0  0  0  0  0  0  0  0  0  0  0  0
    2.4079    2.4434    1.9446 H   0  0  0  0  0  0  0  0  0  0  0  0
    1.0376    2.9629   -0.2072 O   0  0  0  0  0  0  0  0  0  0  0  0
    0.2579    3.0332   -1.3880 C   0  0  0  0  0  0  0  0  0  0  0  0
    0.0634    4.1054   -1.5839 H   0  0  0  0  0  0  0  0  0  0  0  0
   -0.7142    2.5039   -1.2887 H   0  0  0  0  0  0  0  0  0  0  0  0
    0.7972    2.5991   -2.2621 H   0  0  0  0  0  0  0  0  0  0  0  0
    1.8357   -1.3276   -0.3330 C   0  0  2  0  0  0  0  0  0  0  0  0
    1.8447   -0.7174   -1.2685 H   0  0  0  0  0  0  0  0  0  0  0  0
    1.5766   -2.7803   -0.7312 C   0  0  0  0  0  0  0  0  0  0  0  0
    2.3115   -3.1093   -1.4907 H   0  0  0  0  0  0  0  0  0  0  0  0
    0.5671   -2.8922   -1.1713 H   0  0  0  0  0  0  0  0  0  0  0  0
    1.6712   -3.4548    0.1425 H   0  0  0  0  0  0  0  0  0  0  0  0
    3.0927   -1.1689    0.3317 O   0  0  0  0  0  0  0  0  0  0  0  0
    4.2116   -1.2202   -0.5271 C   0  0  0  0  0  0  0  0  0  0  0  0
    5.1048   -0.9814    0.0821 H   0  0  0  0  0  0  0  0  0  0  0  0
    4.1345   -0.4728   -1.3543 H   0  0  0  0  0  0  0  0  0  0  0  0
    4.3606   -2.2252   -0.9857 H   0  0  0  0  0  0  0  0  0  0  0  0
  1  9  2  0  0  0  0
  2 22  1  1  0  0  0
  2  1  1  0  0  0  0
  2  3  1  0  0  0  0
  3  5  1  0  0  0  0
  4  3  1  0  0  0  0
  5  7  2  0  0  0  0
  5  6  1  0  0  0  0
  7  8  1  0  0  0  0
  9 10  1  0  0  0  0
  9  7  1  0  0  0  0
 11 12  1  6  0  0  0
 11  1  1  0  0  0  0
 11 13  1  0  0  0  0
 13 15  1  0  0  0  0
 13 16  1  0  0  0  0
 14 13  1  0  0  0  0
 17 11  1  0  0  0  0
 18 20  1  0  0  0  0
 18 17  1  0  0  0  0
 19 18  1  0  0  0  0
 21 18  1  0  0  0  0
 22 23  1  6  0  0  0
 22 28  1  0  0  0  0
 24 22  1  0  0  0  0
 24 27  1  0  0  0  0
 25 24  1  0  0  0  0
 26 24  1  0  0  0  0
 29 30  1  0  0  0  0
 29 28  1  0  0  0  0
 31 29  1  0  0  0  0
 32 29  1  0  0  0  0
M  END
