2
q = 0.0, confidence = 0.958

 15 14  0  0  0  0  0  0  0  0999 V2000
   -0.4699   -2.0721    0.0005 P   0  0  0  0  0  1  0  0  0  0  0  0
   -1.5164   -0.7699    0.0000 C   0  0  0  0  0  2  0  0  0  0  0  0
   -3.3691   -0.5901    0.0001 Si  0  0  0  0  0  0  0  0  0  0  0  0
   -3.8743    1.2428   -0.0005 C   0  0  0  0  0  0  0  0  0  0  0  0
   -3.4818    1.7676    0.8945 H   0  0  0  0  0  0  0  0  0  0  0  0
   -4.9785    1.3550   -0.0008 H   0  0  0  0  0  0  0  0  0  0  0  0
   -3.4812    1.7672   -0.8955 H   0  0  0  0  0  0  0  0  0  0  0  0
   -4.0858   -1.4229    1.5485 C   0  0  0  0  0  0  0  0  0  0  0  0
   -3.7926   -2.4921    1.5723 H   0  0  0  0  0  0  0  0  0  0  0  0
   -5.1939   -1.3610    1.5670 H   0  0  0  0  0  0  0  0  0  0  0  0
   -3.7019   -0.9491    2.4755 H   0  0  0  0  0  0  0  0  0  0  0  0
   -4.0862   -1.4239   -1.5475 C   0  0  0  0  0  0  0  0  0  0  0  0
   -3.7037   -0.9498   -2.4748 H   0  0  0  0  0  0  0  0  0  0  0  0
   -5.1944   -1.3634   -1.5650 H   0  0  0  0  0  0  0  0  0  0  0  0
   -3.7918   -2.4929   -1.5714 H   0  0  0  0  0  0  0  0  0  0  0  0
  2  3  1  0  0  0  0
  2  1  1  0  0  0  0
  3  8  1  0  0  0  0
  4  3  1  0  0  0  0
  4  5  1  0  0  0  0
  6  4  1  0  0  0  0
  7  4  1  0  0  0  0
  8 10  1  0  0  0  0
  8  9  1  0  0  0  0
  8 11  1  0  0  0  0
 12  3  1  0  0  0  0
 13 12  1  0  0  0  0
 14 12  1  0  0  0  0
 15 12  1  0  0  0  0
M  END
