5
q = -1.0, confidence = 0.014

  9  9  0  0  0  0  0  0  0  0999 V2000
   -4.0606    0.6663    0.7150 O   0  0  0  0  0  0  0  0  0  0  0  0
   -3.0551   -0.3716   -1.0642 O   0  0  0  0  0  0  0  0  0  0  0  0
   -3.1218    0.6056   -0.0391 C   0  0  0  0  0  0  0  0  0  0  0  0
   -1.8867    1.4223   -0.1556 C   0  0  0  0  0  3  0  0  0  0  0  0
   -1.2860    1.1072   -1.4249 C   0  0  0  0  0  3  0  0  0  0  0  0
   -1.8416   -0.1814   -1.7161 C   0  0  0  0  0  3  0  0  0  0  0  0
   -1.7934    2.3678    0.3931 H   0  0  0  0  0  0  0  0  0  0  0  0
   -0.6939    1.7457   -2.0929 H   0  0  0  0  0  0  0  0  0  0  0  0
   -1.7358   -0.7402   -2.6543 H   0  0  0  0  0  0  0  0  0  0  0  0
  2  3  1  0  0  0  0
  3  1  2  0  0  0  0
  4  3  1  0  0  0  0
  4  7  1  0  0  0  0
  5  4  1  0  0  0  0
  6  5  1  0  0  0  0
  6  2  1  0  0  0  0
  8  5  1  0  0  0  0
  9  6  1  0  0  0  0
M  END
