12
q = 0.0, confidence = 1.0

 44 48  0  0  0  0  0  0  0  0999 V2000
   -2.7426    2.7483    0.0404 C   0  0  0  0  0  0  0  0  0  0  0  0
   -3.5581    3.8787   -0.1130 C   0  0  0  0  0  0  0  0  0  0  0  0
   -4.6325    3.7929   -0.3260 H   0  0  0  0  0  0  0  0  0  0  0  0
   -2.9378    5.1296    0.0098 C   0  0  0  0  0  0  0  0  0  0  0  0
   -3.5426    6.0406   -0.1065 H   0  0  0  0  0  0  0  0  0  0  0  0
   -1.5541    5.2489    0.2754 C   0  0  0  0  0  0  0  0  0  0  0  0
   -1.1079    6.2502    0.3623 H   0  0  0  0  0  0  0  0  0  0  0  0
   -0.7363    4.1210    0.4282 C   0  0  0  0  0  0  0  0  0  0  0  0
    0.3396    4.2155    0.6315 H   0  0  0  0  0  0  0  0  0  0  0  0
   -1.3555    2.8692    0.3041 C   0  0  0  0  0  0  0  0  0  0  0  0
   -0.8605    1.5663    0.3975 N   0  0  0  0  0  0  0  0  0  0  0  0
   -1.8676    0.6820    0.1858 C   0  0  0  0  0  2  0  0  0  0  0  0
   -3.0135    1.3780   -0.0144 N   0  0  0  0  0  0  0  0  0  0  0  0
    0.5367    1.1862    0.5717 C   0  0  0  0  0  0  0  0  0  0  0  0
    0.5582    0.2574    1.1759 H   0  0  0  0  0  0  0  0  0  0  0  0
    1.0434    1.9774    1.1568 H   0  0  0  0  0  0  0  0  0  0  0  0
    1.2418    0.9685   -0.7846 C   0  0  0  0  0  0  0  0  0  0  0  0
    0.6639    0.2386   -1.3891 H   0  0  0  0  0  0  0  0  0  0  0  0
    1.2627    1.9136   -1.3644 H   0  0  0  0  0  0  0  0  0  0  0  0
    2.5855    0.4908   -0.5961 N   0  0  0  0  0  0  0  0  0  0  0  0
    2.9267   -0.8442   -0.3533 C   0  0  0  0  0  0  0  0  0  0  0  0
    2.1204   -1.9909   -0.4189 C   0  0  0  0  0  0  0  0  0  0  0  0
    1.0571   -1.9541   -0.6936 H   0  0  0  0  0  0  0  0  0  0  0  0
    2.7171   -3.2216   -0.1145 C   0  0  0  0  0  0  0  0  0  0  0  0
    2.0911   -4.1256   -0.1459 H   0  0  0  0  0  0  0  0  0  0  0  0
    4.0837   -3.3093    0.2338 C   0  0  0  0  0  0  0  0  0  0  0  0
    4.5209   -4.2919    0.4654 H   0  0  0  0  0  0  0  0  0  0  0  0
    4.8849   -2.1613    0.2935 C   0  0  0  0  0  0  0  0  0  0  0  0
    5.9481   -2.2336    0.5688 H   0  0  0  0  0  0  0  0  0  0  0  0
    4.3085   -0.9095    0.0060 C   0  0  0  0  0  0  0  0  0  0  0  0
    4.8061    0.4552   -0.0022 C   0  0  0  0  0  0  0  0  0  0  0  0
    6.0554    1.0428    0.2661 C   0  0  0  0  0  0  0  0  0  0  0  0
    6.9159    0.4143    0.5412 H   0  0  0  0  0  0  0  0  0  0  0  0
    6.1887    2.4359    0.1836 C   0  0  0  0  0  0  0  0  0  0  0  0
    7.1613    2.9051    0.3936 H   0  0  0  0  0  0  0  0  0  0  0  0
    5.0867    3.2476   -0.1646 C   0  0  0  0  0  0  0  0  0  0  0  0
    5.2144    4.3392   -0.2222 H   0  0  0  0  0  0  0  0  0  0  0  0
    3.8293    2.6898   -0.4412 C   0  0  0  0  0  0  0  0  0  0  0  0
    2.9793    3.3323   -0.7171 H   0  0  0  0  0  0  0  0  0  0  0  0
    3.7019    1.2929   -0.3625 C   0  0  0  0  0  0  0  0  0  0  0  0
   -4.2943    0.7716   -0.3507 C   0  0  0  0  0  0  0  0  0  0  0  0
   -4.3897   -0.1895    0.1865 H   0  0  0  0  0  0  0  0  0  0  0  0
   -4.3476    0.5778   -1.4403 H   0  0  0  0  0  0  0  0  0  0  0  0
   -5.1118    1.4445   -0.0354 H   0  0  0  0  0  0  0  0  0  0  0  0
  1 10  1  0  0  0  0
  2  4  1  0  0  0  0
  2  1  2  0  0  0  0
  3  2  1  0  0  0  0
  4  6  2  0  0  0  0
  5  4  1  0  0  0  0
  6  7  1  0  0  0  0
  6  8  1  0  0  0  0
  8  9  1  0  0  0  0
 10 11  1  0  0  0  0
 10  8  2  0  0  0  0
 11 14  1  0  0  0  0
 12 11  1  0  0  0  0
 13  1  1  0  0  0  0
 13 12  1  0  0  0  0
 14 16  1  0  0  0  0
 14 15  1  0  0  0  0
 17 20  1  0  0  0  0
 17 14  1  0  0  0  0
 18 17  1  0  0  0  0
 19 17  1  0  0  0  0
 20 40  1  0  0  0  0
 20 21  1  0  0  0  0
 21 30  1  0  0  0  0
 22 21  2  0  0  0  0
 22 24  1  0  0  0  0
 23 22  1  0  0  0  0
 24 26  2  0  0  0  0
 25 24  1  0  0  0  0
 26 28  1  0  0  0  0
 26 27  1  0  0  0  0
 28 29  1  0  0  0  0
 30 28  2  0  0  0  0
 31 30  1  0  0  0  0
 31 32  1  0  0  0  0
 32 33  1  0  0  0  0
 34 32  2  0  0  0  0
 34 35  1  0  0  0  0
 36 34  1  0  0  0  0
 37 36  1  0  0  0  0
 38 40  1  0  0  0  0
 38 36  2  0  0  0  0
 39 38  1  0  0  0  0
 40 31  2  0  0  0  0
 41 44  1  0  0  0  0
 41 13  1  0  0  0  0
 41 42  1  0  0  0  0
 43 41  1  0  0  0  0
M  END
