7
q = -1.0, confidence = 0.002

 29 29  0  0  0  0  0  0  0  0999 V2000
   -2.2920   -0.9284    0.3988 C   0  0  0  0  0  0  0  0  0  0  0  0
   -2.4580   -0.2291   -0.8376 C   0  0  0  0  0  0  0  0  0  0  0  0
   -2.7195   -0.6967   -1.7920 H   0  0  0  0  0  0  0  0  0  0  0  0
   -2.2690    1.1728   -0.6285 C   0  0  0  0  0  0  0  0  0  0  0  0
   -1.8830    1.3306    0.7437 C   0  0  0  0  0  0  0  0  0  0  0  0
   -1.6524    2.2738    1.2509 H   0  0  0  0  0  0  0  0  0  0  0  0
   -1.9185    0.0504    1.3727 C   0  0  0  0  0  3  0  0  0  0  0  0
   -1.7623   -0.1216    2.4425 H   0  0  0  0  0  0  0  0  0  0  0  0
   -2.4876    2.2656   -1.5947 C   0  0  0  0  0  0  0  0  0  0  0  0
   -2.8883    2.0219   -2.8636 C   0  0  0  0  0  0  0  0  0  0  0  0
   -3.0659    2.8494   -3.5666 H   0  0  0  0  0  0  0  0  0  0  0  0
   -3.0364    1.0013   -3.2458 H   0  0  0  0  0  0  0  0  0  0  0  0
   -2.2732    3.6676   -1.0865 C   0  0  0  0  0  0  0  0  0  0  0  0
   -2.4796    4.4159   -1.8744 H   0  0  0  0  0  0  0  0  0  0  0  0
   -1.2238    3.8028   -0.7521 H   0  0  0  0  0  0  0  0  0  0  0  0
   -2.9282    3.8875   -0.2170 H   0  0  0  0  0  0  0  0  0  0  0  0
   -2.6508   -2.3865    0.6840 C   0  0  0  0  0  0  0  0  0  0  0  0
   -3.8908   -2.3695    1.6104 C   0  0  0  0  0  0  0  0  0  0  0  0
   -4.7307   -1.8204    1.1394 H   0  0  0  0  0  0  0  0  0  0  0  0
   -3.6674   -1.8821    2.5808 H   0  0  0  0  0  0  0  0  0  0  0  0
   -4.2284   -3.4060    1.8177 H   0  0  0  0  0  0  0  0  0  0  0  0
   -3.0087   -3.1300   -0.6146 C   0  0  0  0  0  0  0  0  0  0  0  0
   -3.8861   -2.6714   -1.1133 H   0  0  0  0  0  0  0  0  0  0  0  0
   -3.2666   -4.1839   -0.3870 H   0  0  0  0  0  0  0  0  0  0  0  0
   -2.1594   -3.1260   -1.3250 H   0  0  0  0  0  0  0  0  0  0  0  0
   -1.5009   -3.1291    1.3933 C   0  0  0  0  0  0  0  0  0  0  0  0
   -1.8139   -4.1615    1.6505 H   0  0  0  0  0  0  0  0  0  0  0  0
   -1.2089   -2.6271    2.3377 H   0  0  0  0  0  0  0  0  0  0  0  0
   -0.6126   -3.1930    0.7352 H   0  0  0  0  0  0  0  0  0  0  0  0
  1 17  1  0  0  0  0
  1  7  1  0  0  0  0
  2  4  1  0  0  0  0
  2  1  2  0  0  0  0
  3  2  1  0  0  0  0
  4  5  2  0  0  0  0
  5  6  1  0  0  0  0
  5  7  1  0  0  0  0
  7  8  1  0  0  0  0
  9 13  1  0  0  0  0
  9  4  1  0  0  0  0
 10  9  2  0  0  0  0
 11 10  1  0  0  0  0
 12 10  1  0  0  0  0
 13 15  1  0  0  0  0
 13 16  1  0  0  0  0
 14 13  1  0  0  0  0
 17 26  1  0  0  0  0
 17 18  1  0  0  0  0
 18 21  1  0  0  0  0
 18 20  1  0  0  0  0
 19 18  1  0  0  0  0
 22 24  1  0  0  0  0
 22 17  1  0  0  0  0
 23 22  1  0  0  0  0
 25 22  1  0  0  0  0
 26 27  1  0  0  0  0
 26 28  1  0  0  0  0
 29 26  1  0  0  0  0
M  END
