2
q = -1.0, confidence = 0.0

 20 20  0  0  0  0  0  0  0  0999 V2000
    0.9700   -1.3345    1.2372 N   0  0  0  0  0  0  0  0  0  0  0  0
    0.0100   -2.1245    1.0202 C   0  0  0  0  0  3  0  0  0  0  0  0
   -0.3487   -3.4818    1.4762 C   0  0  0  0  0  0  0  0  0  0  0  0
    2.2635   -1.4033    1.8926 C   0  0  0  0  0  0  0  0  0  0  0  0
    3.3973   -1.2757    0.8937 C   0  0  0  0  0  0  0  0  0  0  0  0
    4.4638   -0.3911    1.1354 C   0  0  0  0  0  0  0  0  0  0  0  0
    5.5023   -0.2575    0.2011 C   0  0  0  0  0  0  0  0  0  0  0  0
    5.4759   -0.9988   -0.9907 C   0  0  0  0  0  0  0  0  0  0  0  0
    4.4150   -1.8866   -1.2370 C   0  0  0  0  0  0  0  0  0  0  0  0
    3.3854   -2.0291   -0.2957 C   0  0  0  0  0  0  0  0  0  0  0  0
    0.2789   -3.8312    2.3212 H   0  0  0  0  0  0  0  0  0  0  0  0
   -0.2354   -4.1910    0.6298 H   0  0  0  0  0  0  0  0  0  0  0  0
   -1.4190   -3.5161    1.7621 H   0  0  0  0  0  0  0  0  0  0  0  0
    2.3308   -0.5799    2.6336 H   0  0  0  0  0  0  0  0  0  0  0  0
    2.3275   -2.3625    2.4541 H   0  0  0  0  0  0  0  0  0  0  0  0
    4.4794    0.2041    2.0623 H   0  0  0  0  0  0  0  0  0  0  0  0
    6.3350    0.4328    0.4037 H   0  0  0  0  0  0  0  0  0  0  0  0
    6.2862   -0.8901   -1.7271 H   0  0  0  0  0  0  0  0  0  0  0  0
    4.3864   -2.4719   -2.1680 H   0  0  0  0  0  0  0  0  0  0  0  0
    2.5540   -2.7194   -0.5046 H   0  0  0  0  0  0  0  0  0  0  0  0
  1  4  1  0  0  0  0
  2  1  2  0  0  0  0
  2  3  1  0  0  0  0
  3 13  1  0  0  0  0
  3 11  1  0  0  0  0
  4 15  1  0  0  0  0
  4 14  1  0  0  0  0
  5  6  1  0  0  0  0
  5  4  1  0  0  0  0
  6 16  1  0  0  0  0
  7 17  1  0  0  0  0
  7  6  2  0  0  0  0
  8  7  1  0  0  0  0
  9  8  2  0  0  0  0
  9 10  1  0  0  0  0
 10  5  2  0  0  0  0
 12  3  1  0  0  0  0
 18  8  1  0  0  0  0
 19  9  1  0  0  0  0
 20 10  1  0  0  0  0
M  END
