31
q = -1.0, confidence = 0.0

 41 42  0  0  0  0  0  0  0  0999 V2000
    3.2065    0.3449    1.7183 Cl  0  0  0  0  0  0  0  0  0  0  0  0
    2.4290    0.4437   -0.8525 N   0  0  0  0  0  0  0  0  0  0  0  0
    1.6703    1.5940   -0.5901 C   0  0  0  0  0  0  0  0  0  0  0  0
    0.3214    1.4593   -0.1591 C   0  0  0  0  0  0  0  0  0  0  0  0
   -0.4253    2.6271    0.0934 C   0  0  0  0  0  0  0  0  0  0  0  0
   -1.4679    2.5246    0.4280 H   0  0  0  0  0  0  0  0  0  0  0  0
    0.1365    3.8979   -0.0891 C   0  0  0  0  0  0  0  0  0  0  0  0
   -0.4678    4.7955    0.1070 H   0  0  0  0  0  0  0  0  0  0  0  0
    1.4625    4.0174   -0.5334 C   0  0  0  0  0  0  0  0  0  0  0  0
    1.9092    5.0117   -0.6844 H   0  0  0  0  0  0  0  0  0  0  0  0
    2.2276    2.8721   -0.7861 C   0  0  0  0  0  0  0  0  0  0  0  0
    3.2693    2.9489   -1.1290 H   0  0  0  0  0  0  0  0  0  0  0  0
    3.0924   -0.2116   -0.0018 C   0  0  0  0  0  0  0  0  0  0  0  0
    3.8234   -1.5174   -0.2842 C   0  0  0  0  0  0  0  0  0  0  0  0
    3.7017   -1.8437   -1.7824 C   0  0  0  0  0  0  0  0  0  0  0  0
    2.6445   -1.9853   -2.0772 H   0  0  0  0  0  0  0  0  0  0  0  0
    4.2526   -2.7800   -2.0011 H   0  0  0  0  0  0  0  0  0  0  0  0
    4.1216   -1.0318   -2.4068 H   0  0  0  0  0  0  0  0  0  0  0  0
    5.3109   -1.3865    0.1041 C   0  0  0  0  0  0  0  0  0  0  0  0
    5.8102   -0.5940   -0.4890 H   0  0  0  0  0  0  0  0  0  0  0  0
    5.8301   -2.3448   -0.0972 H   0  0  0  0  0  0  0  0  0  0  0  0
    5.4287   -1.1441    1.1773 H   0  0  0  0  0  0  0  0  0  0  0  0
    3.1494   -2.6333    0.5479 C   0  0  0  0  0  0  0  0  0  0  0  0
    3.2394   -2.4353    1.6331 H   0  0  0  0  0  0  0  0  0  0  0  0
    3.6376   -3.6036    0.3267 H   0  0  0  0  0  0  0  0  0  0  0  0
    2.0724   -2.7197    0.2977 H   0  0  0  0  0  0  0  0  0  0  0  0
   -0.2351    0.0975    0.0212 C   0  0  0  0  0  0  0  0  0  0  0  0
   -0.4492   -0.8539   -1.0416 C   0  0  0  0  0  0  0  0  0  0  0  0
   -0.9357   -2.0505   -0.4399 C   0  0  0  0  0  0  0  0  0  0  0  0
   -1.2527   -2.9504   -0.9802 H   0  0  0  0  0  0  0  0  0  0  0  0
   -1.0063   -1.8541    0.9729 C   0  0  0  0  0  3  0  0  0  0  0  0
   -1.3812   -2.5798    1.7054 H   0  0  0  0  0  0  0  0  0  0  0  0
   -0.5523   -0.5348    1.2744 C   0  0  0  0  0  0  0  0  0  0  0  0
   -0.1675   -0.6255   -2.4913 C   0  0  0  0  0  0  0  0  0  0  0  0
    0.9226   -0.7230   -2.6743 H   0  0  0  0  0  0  0  0  0  0  0  0
   -0.4623    0.3966   -2.7958 H   0  0  0  0  0  0  0  0  0  0  0  0
   -0.7067   -1.3521   -3.1278 H   0  0  0  0  0  0  0  0  0  0  0  0
   -0.3540    0.0456    2.6371 C   0  0  0  0  0  0  0  0  0  0  0  0
   -1.0883   -0.3596    3.3582 H   0  0  0  0  0  0  0  0  0  0  0  0
   -0.4462    1.1471    2.6259 H   0  0  0  0  0  0  0  0  0  0  0  0
    0.6681   -0.2017    2.9917 H   0  0  0  0  0  0  0  0  0  0  0  0
  2  3  1  0  0  0  0
  2 13  2  0  0  0  0
  3  4  1  0  0  0  0
  4 27  1  0  0  0  0
  4  5  2  0  0  0  0
  5  6  1  0  0  0  0
  7  5  1  0  0  0  0
  7  8  1  0  0  0  0
  9  7  2  0  0  0  0
 10  9  1  0  0  0  0
 11  3  2  0  0  0  0
 11  9  1  0  0  0  0
 12 11  1  0  0  0  0
 13  1  1  0  0  0  0
 14 13  1  0  0  0  0
 14 19  1  0  0  0  0
 14 23  1  0  0  0  0
 15 14  1  0  0  0  0
 16 15  1  0  0  0  0
 17 15  1  0  0  0  0
 18 15  1  0  0  0  0
 19 22  1  0  0  0  0
 20 19  1  0  0  0  0
 21 19  1  0  0  0  0
 23 24  1  0  0  0  0
 25 23  1  0  0  0  0
 26 23  1  0  0  0  0
 27 33  2  0  0  0  0
 28 29  2  0  0  0  0
 28 27  1  0  0  0  0
 29 31  1  0  0  0  0
 30 29  1  0  0  0  0
 31 33  1  0  0  0  0
 31 32  1  0  0  0  0
 33 38  1  0  0  0  0
 34 28  1  0  0  0  0
 35 34  1  0  0  0  0
 36 34  1  0  0  0  0
 37 34  1  0  0  0  0
 38 41  1  0  0  0  0
 38 39  1  0  0  0  0
 40 38  1  0  0  0  0
M  END
