8
q = 0.0, confidence = 0.974

 23 24  0  0  0  0  0  0  0  0999 V2000
    0.9363    2.6628   -0.9009 F   0  0  0  0  0  0  0  0  0  0  0  0
    2.7818    1.4012   -2.4443 F   0  0  0  0  0  0  0  0  0  0  0  0
    4.2985   -0.6138   -1.3900 F   0  0  0  0  0  0  0  0  0  0  0  0
    3.9919   -1.3468    1.2293 F   0  0  0  0  0  0  0  0  0  0  0  0
    2.2135   -0.0370    2.8077 F   0  0  0  0  0  0  0  0  0  0  0  0
   -0.7005    2.1704    1.3641 N   0  0  0  0  0  0  0  0  0  0  0  0
   -2.5485    2.0309    0.1850 N   0  0  0  0  0  0  0  0  0  0  0  0
   -1.3737    1.3830    0.3669 C   0  0  0  0  0  2  0  0  0  0  0  0
   -1.5591    3.2045    1.8027 C   0  0  0  0  0  0  0  0  0  0  0  0
   -1.2217    3.9087    2.5671 H   0  0  0  0  0  0  0  0  0  0  0  0
   -2.6815    3.1355    1.0433 C   0  0  0  0  0  0  0  0  0  0  0  0
   -3.5718    3.7717    1.0238 H   0  0  0  0  0  0  0  0  0  0  0  0
    0.5558    2.0337    1.8549 C   0  0  0  0  0  2  0  0  0  0  0  0
    1.4465    1.2944    0.9889 C   0  0  0  0  0  0  0  0  0  0  0  0
    1.6391    1.6558   -0.3774 C   0  0  0  0  0  0  0  0  0  0  0  0
    2.6130    1.0422   -1.1738 C   0  0  0  0  0  0  0  0  0  0  0  0
    3.4058    0.0165   -0.6279 C   0  0  0  0  0  0  0  0  0  0  0  0
    3.2590   -0.3479    0.7246 C   0  0  0  0  0  0  0  0  0  0  0  0
    2.3385    0.3308    1.5265 C   0  0  0  0  0  0  0  0  0  0  0  0
   -3.5777    1.5834   -0.7460 C   0  0  0  0  0  0  0  0  0  0  0  0
   -3.0734    1.1912   -1.6505 H   0  0  0  0  0  0  0  0  0  0  0  0
   -4.2240    2.4417   -1.0086 H   0  0  0  0  0  0  0  0  0  0  0  0
   -4.1916    0.7800   -0.2911 H   0  0  0  0  0  0  0  0  0  0  0  0
  1 15  1  0  0  0  0
  2 16  1  0  0  0  0
  3 17  1  0  0  0  0
  6  9  1  0  0  0  0
  6 13  1  0  0  0  0
  7  8  1  0  0  0  0
  7 11  1  0  0  0  0
  8  6  1  0  0  0  0
  9 10  1  0  0  0  0
 11  9  2  0  0  0  0
 12 11  1  0  0  0  0
 14 19  1  0  0  0  0
 14 13  1  0  0  0  0
 15 14  2  0  0  0  0
 16 17  2  0  0  0  0
 16 15  1  0  0  0  0
 17 18  1  0  0  0  0
 18  4  1  0  0  0  0
 18 19  2  0  0  0  0
 19  5  1  0  0  0  0
 20 23  1  0  0  0  0
 20  7  1  0  0  0  0
 21 20  1  0  0  0  0
 22 20  1  0  0  0  0
M  END
