47
q = 0.0, confidence = 0.952

 63 66  0  0  1  0  0  0  0  0999 V2000
    3.0568    1.4064   -1.0991 N   0  0  0  0  0  0  0  0  0  0  0  0
   -7.7312   -0.7321   -0.1050 O   0  0  0  0  0  0  0  0  0  0  0  0
    1.4778    1.4588    1.6785 O   0  0  0  0  0  0  0  0  0  0  0  0
    4.2293    3.9991   -0.7915 O   0  0  0  0  0  0  0  0  0  0  0  0
   -3.7069    1.5294    1.3715 C   0  0  0  0  0  0  0  0  0  0  0  0
   -3.1863    1.5546    2.3513 H   0  0  0  0  0  0  0  0  0  0  0  0
   -3.3885    2.4421    0.8211 H   0  0  0  0  0  0  0  0  0  0  0  0
   -5.2197    1.5803    1.5978 C   0  0  0  0  0  0  0  0  0  0  0  0
   -5.5421    0.7232    2.2274 H   0  0  0  0  0  0  0  0  0  0  0  0
   -5.4780    2.4895    2.1800 H   0  0  0  0  0  0  0  0  0  0  0  0
   -5.9807    1.5792    0.2739 C   0  0  0  0  0  0  0  0  0  0  0  0
   -5.7242    2.5071   -0.2840 H   0  0  0  0  0  0  0  0  0  0  0  0
   -7.0758    1.6023    0.4452 H   0  0  0  0  0  0  0  0  0  0  0  0
   -5.6529    0.3714   -0.6367 C   0  0  2  0  0  0  0  0  0  0  0  0
   -4.0999    0.2274   -0.7609 C   0  0  2  0  0  0  0  0  0  0  0  0
   -3.8047    1.1592   -1.2997 H   0  0  0  0  0  0  0  0  0  0  0  0
   -3.6220   -0.9396   -1.6361 C   0  0  0  0  0  0  0  0  0  0  0  0
   -3.6590   -1.8907   -1.0654 H   0  0  0  0  0  0  0  0  0  0  0  0
   -4.2878   -1.0806   -2.5095 H   0  0  0  0  0  0  0  0  0  0  0  0
   -2.1979   -0.6760   -2.1245 C   0  0  0  0  0  0  0  0  0  0  0  0
   -1.7470   -1.5958   -2.5533 H   0  0  0  0  0  0  0  0  0  0  0  0
   -2.2367    0.0568   -2.9630 H   0  0  0  0  0  0  0  0  0  0  0  0
   -1.2828   -0.1206   -1.0534 C   0  0  0  0  0  0  0  0  0  0  0  0
   -1.7698    0.3853    0.1740 C   0  0  0  0  0  0  0  0  0  0  0  0
   -3.2588    0.2856    0.5622 C   0  0  1  0  0  0  0  0  0  0  0  0
   -0.8445    0.9174    1.1002 C   0  0  0  0  0  0  0  0  0  0  0  0
   -1.2098    1.3048    2.0591 H   0  0  0  0  0  0  0  0  0  0  0  0
    0.5286    0.9489    0.8327 C   0  0  0  0  0  0  0  0  0  0  0  0
    1.0282    0.4087   -0.3798 C   0  0  0  0  0  0  0  0  0  0  0  0
    0.1046   -0.0964   -1.3037 C   0  0  0  0  0  0  0  0  0  0  0  0
    0.4788   -0.5159   -2.2500 H   0  0  0  0  0  0  0  0  0  0  0  0
   -6.2472    0.6644   -2.0307 C   0  0  0  0  0  0  0  0  0  0  0  0
   -7.3306    0.8696   -1.9449 H   0  0  0  0  0  0  0  0  0  0  0  0
   -6.1313   -0.1914   -2.7255 H   0  0  0  0  0  0  0  0  0  0  0  0
   -5.7551    1.5474   -2.4876 H   0  0  0  0  0  0  0  0  0  0  0  0
   -6.3270   -0.9051   -0.0983 C   0  0  0  0  0  0  0  0  0  0  0  0
   -6.0432   -1.7810   -0.7342 H   0  0  0  0  0  0  0  0  0  0  0  0
   -5.9866   -1.1420    0.9363 H   0  0  0  0  0  0  0  0  0  0  0  0
   -3.3737   -0.9698    1.4648 C   0  0  0  0  0  0  0  0  0  0  0  0
   -2.6240   -0.9081    2.2784 H   0  0  0  0  0  0  0  0  0  0  0  0
   -3.1649   -1.9033    0.9083 H   0  0  0  0  0  0  0  0  0  0  0  0
   -4.3696   -1.0659    1.9370 H   0  0  0  0  0  0  0  0  0  0  0  0
   -8.4226   -1.8546    0.3785 C   0  0  0  0  0  0  0  0  0  0  0  0
   -9.5061   -1.6275    0.3438 H   0  0  0  0  0  0  0  0  0  0  0  0
   -8.1443   -2.1002    1.4337 H   0  0  0  0  0  0  0  0  0  0  0  0
   -8.2308   -2.7671   -0.2390 H   0  0  0  0  0  0  0  0  0  0  0  0
    2.5027    0.3156   -0.5753 C   0  0  0  0  0  2  0  0  0  0  0  0
    1.1059    1.7350    3.0182 C   0  0  0  0  0  0  0  0  0  0  0  0
    2.0345    2.0251    3.5437 H   0  0  0  0  0  0  0  0  0  0  0  0
    0.6748    0.8341    3.5066 H   0  0  0  0  0  0  0  0  0  0  0  0
    0.3757    2.5722    3.0844 H   0  0  0  0  0  0  0  0  0  0  0  0
    4.5006    1.6159   -1.2697 C   0  0  0  0  0  0  0  0  0  0  0  0
    4.7020    1.8001   -2.3463 H   0  0  0  0  0  0  0  0  0  0  0  0
    5.0380    0.7081   -0.9556 H   0  0  0  0  0  0  0  0  0  0  0  0
    4.9469    2.8284   -0.4421 C   0  0  0  0  0  0  0  0  0  0  0  0
    4.8196    2.5913    0.6410 H   0  0  0  0  0  0  0  0  0  0  0  0
    6.0193    3.0324   -0.6310 H   0  0  0  0  0  0  0  0  0  0  0  0
    2.8396    3.8040   -0.6053 C   0  0  0  0  0  0  0  0  0  0  0  0
    2.3332    4.7437   -0.9031 H   0  0  0  0  0  0  0  0  0  0  0  0
    2.6029    3.5911    0.4652 H   0  0  0  0  0  0  0  0  0  0  0  0
    2.3213    2.6394   -1.4550 C   0  0  0  0  0  0  0  0  0  0  0  0
    1.2395    2.4795   -1.3030 H   0  0  0  0  0  0  0  0  0  0  0  0
    2.5086    2.8508   -2.5293 H   0  0  0  0  0  0  0  0  0  0  0  0
  1 47  1  0  0  0  0
  2 36  1  0  0  0  0
  2 43  1  0  0  0  0
  3 48  1  0  0  0  0
  4 58  1  0  0  0  0
  4 55  1  0  0  0  0
  5  8  1  0  0  0  0
  5  6  1  0  0  0  0
  7  5  1  0  0  0  0
  8 10  1  0  0  0  0
  8  9  1  0  0  0  0
 11 13  1  0  0  0  0
 11  8  1  0  0  0  0
 12 11  1  0  0  0  0
 14 32  1  6  0  0  0
 14 36  1  0  0  0  0
 14 11  1  0  0  0  0
 15 16  1  6  0  0  0
 15 14  1  0  0  0  0
 15 25  1  0  0  0  0
 17 18  1  0  0  0  0
 17 15  1  0  0  0  0
 19 17  1  0  0  0  0
 20 17  1  0  0  0  0
 20 23  1  0  0  0  0
 21 20  1  0  0  0  0
 22 20  1  0  0  0  0
 23 24  1  0  0  0  0
 24 25  1  0  0  0  0
 24 26  2  0  0  0  0
 25  5  1  0  0  0  0
 25 39  1  1  0  0  0
 26 27  1  0  0  0  0
 28 26  1  0  0  0  0
 28  3  1  0  0  0  0
 29 28  2  0  0  0  0
 30 23  2  0  0  0  0
 30 29  1  0  0  0  0
 31 30  1  0  0  0  0
 32 33  1  0  0  0  0
 34 32  1  0  0  0  0
 35 32  1  0  0  0  0
 36 38  1  0  0  0  0
 37 36  1  0  0  0  0
 39 42  1  0  0  0  0
 39 40  1  0  0  0  0
 41 39  1  0  0  0  0
 43 45  1  0  0  0  0
 44 43  1  0  0  0  0
 46 43  1  0  0  0  0
 47 29  1  0  0  0  0
 48 51  1  0  0  0  0
 48 50  1  0  0  0  0
 48 49  1  0  0  0  0
 52  1  1  0  0  0  0
 52 54  1  0  0  0  0
 52 55  1  0  0  0  0
 53 52  1  0  0  0  0
 55 56  1  0  0  0  0
 57 55  1  0  0  0  0
 58 60  1  0  0  0  0
 59 58  1  0  0  0  0
 61 62  1  0  0  0  0
 61  1  1  0  0  0  0
 61 58  1  0  0  0  0
 63 61  1  0  0  0  0
M  END
