17
q = 0.0, confidence = 0.99

 34 35  0  0  0  0  0  0  0  0999 V2000
    1.9375    2.1549   -0.9457 N   0  0  0  0  0  0  0  0  0  0  0  0
    0.2746    3.0410    0.1135 N   0  0  0  0  0  0  0  0  0  0  0  0
    3.7928    0.7628    0.8998 C   0  0  0  0  0  0  0  0  0  0  0  0
    2.7680    0.8301    1.3018 H   0  0  0  0  0  0  0  0  0  0  0  0
    4.8632    0.5221    1.7738 C   0  0  0  0  0  0  0  0  0  0  0  0
    4.6635    0.4104    2.8504 H   0  0  0  0  0  0  0  0  0  0  0  0
    6.1753    0.4168    1.2828 C   0  0  0  0  0  0  0  0  0  0  0  0
    7.0119    0.2283    1.9728 H   0  0  0  0  0  0  0  0  0  0  0  0
    6.4133    0.5489   -0.0937 C   0  0  0  0  0  0  0  0  0  0  0  0
    7.4373    0.4669   -0.4891 H   0  0  0  0  0  0  0  0  0  0  0  0
    5.3444    0.7961   -0.9697 C   0  0  0  0  0  0  0  0  0  0  0  0
    5.5356    0.9091   -2.0492 H   0  0  0  0  0  0  0  0  0  0  0  0
    4.0282    0.9071   -0.4834 C   0  0  0  0  0  0  0  0  0  0  0  0
    2.8807    1.1579   -1.4431 C   0  0  0  0  0  0  0  0  0  0  0  0
    2.2817    0.2396   -1.6186 H   0  0  0  0  0  0  0  0  0  0  0  0
    3.2616    1.4927   -2.4281 H   0  0  0  0  0  0  0  0  0  0  0  0
    0.7812    1.8421   -0.2923 C   0  0  0  0  0  2  0  0  0  0  0  0
    2.1578    3.5262   -0.9456 C   0  0  0  0  0  0  0  0  0  0  0  0
    3.0437    3.9768   -1.4016 H   0  0  0  0  0  0  0  0  0  0  0  0
    1.0965    4.0876   -0.2835 C   0  0  0  0  0  0  0  0  0  0  0  0
    0.8595    5.1322   -0.0614 H   0  0  0  0  0  0  0  0  0  0  0  0
   -0.9695    3.1763    0.8734 C   0  0  0  0  0  0  0  0  0  0  0  0
   -0.9171    2.4320    1.6951 H   0  0  0  0  0  0  0  0  0  0  0  0
   -0.9676    4.1874    1.3288 H   0  0  0  0  0  0  0  0  0  0  0  0
   -2.2220    2.9607    0.0245 C   0  0  0  0  0  0  0  0  0  0  0  0
   -2.2519    3.7139   -0.7937 H   0  0  0  0  0  0  0  0  0  0  0  0
   -2.1479    1.9658   -0.4680 H   0  0  0  0  0  0  0  0  0  0  0  0
   -3.5015    3.0378    0.8620 C   0  0  0  0  0  0  0  0  0  0  0  0
   -3.5124    3.9932    1.4342 H   0  0  0  0  0  0  0  0  0  0  0  0
   -3.4789    2.2303    1.6276 H   0  0  0  0  0  0  0  0  0  0  0  0
   -4.7758    2.9183    0.0276 C   0  0  0  0  0  0  0  0  0  0  0  0
   -5.6839    2.9602    0.6617 H   0  0  0  0  0  0  0  0  0  0  0  0
   -4.8463    3.7388   -0.7170 H   0  0  0  0  0  0  0  0  0  0  0  0
   -4.8018    1.9596   -0.5269 H   0  0  0  0  0  0  0  0  0  0  0  0
  1 18  1  0  0  0  0
  1 17  1  0  0  0  0
  2 22  1  0  0  0  0
  3  4  1  0  0  0  0
  3  5  1  0  0  0  0
  5  6  1  0  0  0  0
  7  5  2  0  0  0  0
  7  8  1  0  0  0  0
  9  7  1  0  0  0  0
 10  9  1  0  0  0  0
 11 13  1  0  0  0  0
 11  9  2  0  0  0  0
 12 11  1  0  0  0  0
 13  3  2  0  0  0  0
 14  1  1  0  0  0  0
 14 13  1  0  0  0  0
 15 14  1  0  0  0  0
 16 14  1  0  0  0  0
 17  2  1  0  0  0  0
 18 20  2  0  0  0  0
 19 18  1  0  0  0  0
 20 21  1  0  0  0  0
 20  2  1  0  0  0  0
 22 24  1  0  0  0  0
 22 23  1  0  0  0  0
 25 28  1  0  0  0  0
 25 22  1  0  0  0  0
 26 25  1  0  0  0  0
 27 25  1  0  0  0  0
 28 29  1  0  0  0  0
 28 30  1  0  0  0  0
 31 32  1  0  0  0  0
 31 28  1  0  0  0  0
 33 31  1  0  0  0  0
 34 31  1  0  0  0  0
M  END
