15
q = 0.0, confidence = 1.0

 28 28  0  0  0  0  0  0  0  0999 V2000
    0.4731    2.6660    0.1805 N   0  0  0  0  0  0  0  0  0  0  0  0
    2.1345    1.4136    0.7823 N   0  0  0  0  0  0  0  0  0  0  0  0
   -2.6120    4.4487    0.7213 C   0  0  0  0  0  0  0  0  0  0  0  0
   -2.4897    5.2795    0.0059 H   0  0  0  0  0  0  0  0  0  0  0  0
   -3.3938    4.5594    1.4883 H   0  0  0  0  0  0  0  0  0  0  0  0
   -1.8493    3.3449    0.6516 C   0  0  0  0  0  0  0  0  0  0  0  0
   -1.9878    2.5263    1.3804 H   0  0  0  0  0  0  0  0  0  0  0  0
   -0.7964    3.1030   -0.3943 C   0  0  0  0  0  0  0  0  0  0  0  0
   -1.0977    2.2829   -1.0802 H   0  0  0  0  0  0  0  0  0  0  0  0
   -0.6246    4.0088   -1.0108 H   0  0  0  0  0  0  0  0  0  0  0  0
    1.3470    3.4831    0.8880 C   0  0  0  0  0  0  0  0  0  0  0  0
    1.1441    4.5438    1.0614 H   0  0  0  0  0  0  0  0  0  0  0  0
    2.4005    2.6910    1.2608 C   0  0  0  0  0  0  0  0  0  0  0  0
    3.3136    2.9279    1.8146 H   0  0  0  0  0  0  0  0  0  0  0  0
    0.9443    1.3828    0.1085 C   0  0  0  0  0  2  0  0  0  0  0  0
    3.0511    0.2777    0.8954 C   0  0  0  0  0  0  0  0  0  0  0  0
    2.4929   -0.5993    0.5140 H   0  0  0  0  0  0  0  0  0  0  0  0
    3.2739    0.1129    1.9721 H   0  0  0  0  0  0  0  0  0  0  0  0
    4.3293    0.4641    0.0787 C   0  0  0  0  0  0  0  0  0  0  0  0
    4.0191    0.7346   -0.9522 H   0  0  0  0  0  0  0  0  0  0  0  0
    4.9310    1.3057    0.4903 H   0  0  0  0  0  0  0  0  0  0  0  0
    5.1684   -0.8149    0.0362 C   0  0  0  0  0  0  0  0  0  0  0  0
    4.5501   -1.6179   -0.4209 H   0  0  0  0  0  0  0  0  0  0  0  0
    5.4020   -1.1512    1.0720 H   0  0  0  0  0  0  0  0  0  0  0  0
    6.4626   -0.6498   -0.7603 C   0  0  0  0  0  0  0  0  0  0  0  0
    7.0457   -1.5919   -0.7915 H   0  0  0  0  0  0  0  0  0  0  0  0
    7.1145    0.1339   -0.3199 H   0  0  0  0  0  0  0  0  0  0  0  0
    6.2471   -0.3535   -1.8074 H   0  0  0  0  0  0  0  0  0  0  0  0
  1 11  1  0  0  0  0
  2 16  1  0  0  0  0
  2 13  1  0  0  0  0
  3  5  1  0  0  0  0
  4  3  1  0  0  0  0
  6  3  2  0  0  0  0
  6  7  1  0  0  0  0
  8  1  1  0  0  0  0
  8  6  1  0  0  0  0
  9  8  1  0  0  0  0
 10  8  1  0  0  0  0
 11 12  1  0  0  0  0
 11 13  2  0  0  0  0
 13 14  1  0  0  0  0
 15  1  1  0  0  0  0
 15  2  1  0  0  0  0
 16 18  1  0  0  0  0
 17 16  1  0  0  0  0
 19 21  1  0  0  0  0
 19 16  1  0  0  0  0
 20 19  1  0  0  0  0
 22 19  1  0  0  0  0
 22 24  1  0  0  0  0
 23 22  1  0  0  0  0
 25 27  1  0  0  0  0
 25 22  1  0  0  0  0
 26 25  1  0  0  0  0
 28 25  1  0  0  0  0
M  END
