2
q = 0.0, confidence = 0.956

 76 81  0  0  1  0  0  0  0  0999 V2000
    0.2872    0.7493   -0.8049 C   0  0  2  0  0  3  0  0  0  0  0  0
   -0.9581    0.2781   -1.3835 C   0  0  1  0  0  3  0  0  0  0  0  0
   -1.2747   -0.9670   -0.7297 C   0  0  1  0  0  3  0  0  0  0  0  0
   -0.2022   -1.2223    0.2094 C   0  0  1  0  0  3  0  0  0  0  0  0
    0.4299    0.1159    0.5823 C   0  0  2  0  0  0  0  0  0  0  0  0
    0.9660    2.0398   -1.2085 C   0  0  0  0  0  0  0  0  0  0  0  0
    2.4773    1.9721   -1.2858 C   0  0  0  0  0  0  0  0  0  0  0  0
    3.1176    1.7109   -2.5136 C   0  0  0  0  0  0  0  0  0  0  0  0
    4.5124    1.5859   -2.5824 C   0  0  0  0  0  0  0  0  0  0  0  0
    5.2901    1.7218   -1.4217 C   0  0  0  0  0  0  0  0  0  0  0  0
    4.6634    2.0013   -0.1978 C   0  0  0  0  0  0  0  0  0  0  0  0
    3.2682    2.1328   -0.1319 C   0  0  0  0  0  0  0  0  0  0  0  0
   -1.8297    0.9818   -2.3971 C   0  0  0  0  0  0  0  0  0  0  0  0
   -2.9509    1.7511   -1.7235 C   0  0  0  0  0  0  0  0  0  0  0  0
   -2.6630    2.7779   -0.7999 C   0  0  0  0  0  0  0  0  0  0  0  0
   -3.6933    3.4365   -0.1134 C   0  0  0  0  0  0  0  0  0  0  0  0
   -5.0335    3.0833   -0.3442 C   0  0  0  0  0  0  0  0  0  0  0  0
   -5.3330    2.0777   -1.2755 C   0  0  0  0  0  0  0  0  0  0  0  0
   -4.2987    1.4186   -1.9581 C   0  0  0  0  0  0  0  0  0  0  0  0
   -2.5354   -1.7828   -0.8763 C   0  0  0  0  0  0  0  0  0  0  0  0
   -3.3886   -1.7394    0.3822 C   0  0  0  0  0  0  0  0  0  0  0  0
   -3.8091   -2.9340    0.9983 C   0  0  0  0  0  0  0  0  0  0  0  0
   -4.5812   -2.9087    2.1704 C   0  0  0  0  0  0  0  0  0  0  0  0
   -4.9411   -1.6820    2.7491 C   0  0  0  0  0  0  0  0  0  0  0  0
   -4.5256   -0.4844    2.1449 C   0  0  0  0  0  0  0  0  0  0  0  0
   -3.7553   -0.5130    0.9736 C   0  0  0  0  0  0  0  0  0  0  0  0
   -0.1916   -2.4197    1.1315 C   0  0  0  0  0  0  0  0  0  0  0  0
    1.1700   -2.7396    1.7076 C   0  0  0  0  0  0  0  0  0  0  0  0
    1.5743   -2.2075    2.9481 C   0  0  0  0  0  0  0  0  0  0  0  0
    2.8615   -2.4502    3.4525 C   0  0  0  0  0  0  0  0  0  0  0  0
    3.7651   -3.2371    2.7217 C   0  0  0  0  0  0  0  0  0  0  0  0
    3.3675   -3.7883    1.4934 C   0  0  0  0  0  0  0  0  0  0  0  0
    2.0802   -3.5433    0.9942 C   0  0  0  0  0  0  0  0  0  0  0  0
   -0.3079    0.8468    1.7448 C   0  0  0  0  0  0  0  0  0  0  0  0
    0.4645    1.9954    2.3434 C   0  0  0  0  0  0  0  0  0  0  0  0
    0.0594    3.3329    2.1593 C   0  0  0  0  0  0  0  0  0  0  0  0
    0.8178    4.3976    2.6716 C   0  0  0  0  0  0  0  0  0  0  0  0
    1.9966    4.1415    3.3886 C   0  0  0  0  0  0  0  0  0  0  0  0
    2.4040    2.8131    3.5962 C   0  0  0  0  0  0  0  0  0  0  0  0
    1.6459    1.7530    3.0785 C   0  0  0  0  0  0  0  0  0  0  0  0
    1.4948   -0.0104    0.8644 H   0  0  0  0  0  0  0  0  0  0  0  0
    0.5693    2.3687   -2.1901 H   0  0  0  0  0  0  0  0  0  0  0  0
    0.6845    2.8228   -0.4693 H   0  0  0  0  0  0  0  0  0  0  0  0
    2.5135    1.5950   -3.4266 H   0  0  0  0  0  0  0  0  0  0  0  0
    4.9948    1.3771   -3.5495 H   0  0  0  0  0  0  0  0  0  0  0  0
    6.3844    1.6159   -1.4731 H   0  0  0  0  0  0  0  0  0  0  0  0
    5.2640    2.1213    0.7171 H   0  0  0  0  0  0  0  0  0  0  0  0
    2.7868    2.3612    0.8301 H   0  0  0  0  0  0  0  0  0  0  0  0
   -1.2053    1.6668   -3.0067 H   0  0  0  0  0  0  0  0  0  0  0  0
   -2.2567    0.2445   -3.1042 H   0  0  0  0  0  0  0  0  0  0  0  0
   -1.6159    3.0590   -0.6137 H   0  0  0  0  0  0  0  0  0  0  0  0
   -3.4485    4.2322    0.6072 H   0  0  0  0  0  0  0  0  0  0  0  0
   -5.8425    3.5952    0.1983 H   0  0  0  0  0  0  0  0  0  0  0  0
   -6.3795    1.7956   -1.4662 H   0  0  0  0  0  0  0  0  0  0  0  0
   -4.5406    0.6207   -2.6780 H   0  0  0  0  0  0  0  0  0  0  0  0
   -3.1157   -1.4098   -1.7458 H   0  0  0  0  0  0  0  0  0  0  0  0
   -2.2919   -2.8394   -1.1018 H   0  0  0  0  0  0  0  0  0  0  0  0
   -3.5224   -3.9000    0.5524 H   0  0  0  0  0  0  0  0  0  0  0  0
   -4.8983   -3.8543    2.6363 H   0  0  0  0  0  0  0  0  0  0  0  0
   -5.5433   -1.6594    3.6700 H   0  0  0  0  0  0  0  0  0  0  0  0
   -4.8027    0.4851    2.5866 H   0  0  0  0  0  0  0  0  0  0  0  0
   -3.4396    0.4320    0.5094 H   0  0  0  0  0  0  0  0  0  0  0  0
   -0.5899   -3.3016    0.5900 H   0  0  0  0  0  0  0  0  0  0  0  0
   -0.9086   -2.2274    1.9618 H   0  0  0  0  0  0  0  0  0  0  0  0
    0.8647   -1.5997    3.5319 H   0  0  0  0  0  0  0  0  0  0  0  0
    3.1579   -2.0254    4.4240 H   0  0  0  0  0  0  0  0  0  0  0  0
    4.7763   -3.4269    3.1123 H   0  0  0  0  0  0  0  0  0  0  0  0
    4.0667   -4.4123    0.9165 H   0  0  0  0  0  0  0  0  0  0  0  0
    1.7746   -3.9761    0.0290 H   0  0  0  0  0  0  0  0  0  0  0  0
   -0.5072    0.0938    2.5362 H   0  0  0  0  0  0  0  0  0  0  0  0
   -1.3000    1.1869    1.3859 H   0  0  0  0  0  0  0  0  0  0  0  0
   -0.8711    3.5390    1.6069 H   0  0  0  0  0  0  0  0  0  0  0  0
    0.4843    5.4342    2.5104 H   0  0  0  0  0  0  0  0  0  0  0  0
    2.5943    4.9742    3.7888 H   0  0  0  0  0  0  0  0  0  0  0  0
    3.3233    2.6008    4.1634 H   0  0  0  0  0  0  0  0  0  0  0  0
    1.9821    0.7154    3.2334 H   0  0  0  0  0  0  0  0  0  0  0  0
  1  6  1  1  0  0  0
  1  5  1  0  0  0  0
  2 13  1  1  0  0  0
  2  1  1  0  0  0  0
  2  3  1  0  0  0  0
  3 20  1  1  0  0  0
  3  4  1  0  0  0  0
  4  5  1  0  0  0  0
  4 27  1  1  0  0  0
  5 41  1  1  0  0  0
  5 34  1  0  0  0  0
  6 43  1  0  0  0  0
  7  6  1  0  0  0  0
  7 12  1  0  0  0  0
  8  7  2  0  0  0  0
  9  8  1  0  0  0  0
  9 10  2  0  0  0  0
 10 11  1  0  0  0  0
 11 12  2  0  0  0  0
 11 47  1  0  0  0  0
 12 48  1  0  0  0  0
 13 14  1  0  0  0  0
 14 15  1  0  0  0  0
 15 51  1  0  0  0  0
 15 16  2  0  0  0  0
 16 52  1  0  0  0  0
 17 16  1  0  0  0  0
 17 53  1  0  0  0  0
 18 17  2  0  0  0  0
 19 14  2  0  0  0  0
 19 18  1  0  0  0  0
 20 21  1  0  0  0  0
 21 26  2  0  0  0  0
 21 22  1  0  0  0  0
 22 23  2  0  0  0  0
 23 59  1  0  0  0  0
 23 24  1  0  0  0  0
 24 60  1  0  0  0  0
 25 61  1  0  0  0  0
 25 24  2  0  0  0  0
 26 25  1  0  0  0  0
 27 28  1  0  0  0  0
 27 64  1  0  0  0  0
 28 29  1  0  0  0  0
 29 30  2  0  0  0  0
 29 65  1  0  0  0  0
 30 66  1  0  0  0  0
 31 67  1  0  0  0  0
 31 30  1  0  0  0  0
 32 31  2  0  0  0  0
 33 32  1  0  0  0  0
 33 28  2  0  0  0  0
 34 35  1  0  0  0  0
 34 70  1  0  0  0  0
 35 40  1  0  0  0  0
 36 35  2  0  0  0  0
 36 37  1  0  0  0  0
 37 38  2  0  0  0  0
 38 39  1  0  0  0  0
 38 74  1  0  0  0  0
 39 75  1  0  0  0  0
 40 76  1  0  0  0  0
 40 39  2  0  0  0  0
 42  6  1  0  0  0  0
 44  8  1  0  0  0  0
 45  9  1  0  0  0  0
 46 10  1  0  0  0  0
 49 13  1  0  0  0  0
 50 13  1  0  0  0  0
 54 18  1  0  0  0  0
 55 19  1  0  0  0  0
 56 20  1  0  0  0  0
 57 20  1  0  0  0  0
 58 22  1  0  0  0  0
 62 26  1  0  0  0  0
 63 27  1  0  0  0  0
 68 32  1  0  0  0  0
 69 33  1  0  0  0  0
 71 34  1  0  0  0  0
 72 36  1  0  0  0  0
 73 37  1  0  0  0  0
M  END
