43
q = 0.0, confidence = 0.998

 43 45  0  0  1  0  0  0  0  0999 V2000
   -0.2845    3.1903   -0.3155 O   0  0  0  0  0  0  0  0  0  0  0  0
   -2.5494    2.0611   -1.0955 N   0  0  0  0  0  0  0  0  0  0  0  0
   -1.9201    2.8354   -1.3399 H   0  0  0  0  0  0  0  0  0  0  0  0
   -3.5565    2.2241   -1.1455 H   0  0  0  0  0  0  0  0  0  0  0  0
    4.3339    1.1913    0.9487 C   0  0  0  0  0  0  0  0  0  0  0  0
    4.1319    2.2607    0.7323 H   0  0  0  0  0  0  0  0  0  0  0  0
    3.7927    0.9549    1.8911 H   0  0  0  0  0  0  0  0  0  0  0  0
    5.8410    1.0032    1.1582 C   0  0  0  0  0  0  0  0  0  0  0  0
    6.3941    1.3836    0.2735 H   0  0  0  0  0  0  0  0  0  0  0  0
    6.1761    1.6172    2.0200 H   0  0  0  0  0  0  0  0  0  0  0  0
    6.2085   -0.4729    1.3862 C   0  0  0  0  0  0  0  0  0  0  0  0
    7.3080   -0.6026    1.4420 H   0  0  0  0  0  0  0  0  0  0  0  0
    5.7934   -0.7918    2.3702 H   0  0  0  0  0  0  0  0  0  0  0  0
    5.6171   -1.3517    0.3092 C   0  0  0  0  0  0  0  0  0  0  0  0
    4.1163   -1.1916    0.1684 C   0  0  2  0  0  0  0  0  0  0  0  0
    3.6940   -1.3591    1.1890 H   0  0  0  0  0  0  0  0  0  0  0  0
    3.4154   -2.1746   -0.7681 C   0  0  0  0  0  0  0  0  0  0  0  0
    3.7592   -3.2075   -0.5597 H   0  0  0  0  0  0  0  0  0  0  0  0
    3.6890   -1.9605   -1.8227 H   0  0  0  0  0  0  0  0  0  0  0  0
    1.9021   -2.0838   -0.5772 C   0  0  0  0  0  0  0  0  0  0  0  0
    1.3667   -2.6330   -1.3794 H   0  0  0  0  0  0  0  0  0  0  0  0
    1.6200   -2.5965    0.3705 H   0  0  0  0  0  0  0  0  0  0  0  0
    1.3836   -0.6629   -0.5054 C   0  0  0  0  0  0  0  0  0  0  0  0
    2.2309    0.4466   -0.2788 C   0  0  0  0  0  0  0  0  0  0  0  0
    3.7540    0.2962   -0.1796 C   0  0  1  0  0  0  0  0  0  0  0  0
    1.6507    1.7305   -0.2142 C   0  0  0  0  0  0  0  0  0  0  0  0
    2.3063    2.5968   -0.0664 H   0  0  0  0  0  0  0  0  0  0  0  0
    0.2711    1.9370   -0.3510 C   0  0  0  0  0  0  0  0  0  0  0  0
   -0.6131    0.8219   -0.5210 C   0  0  0  0  0  0  0  0  0  0  0  0
    0.0019   -0.4429   -0.6040 C   0  0  0  0  0  0  0  0  0  0  0  0
   -0.6478   -1.3118   -0.7668 H   0  0  0  0  0  0  0  0  0  0  0  0
    6.3677   -2.1694   -0.4557 C   0  0  0  0  0  0  0  0  0  0  0  0
    7.4570   -2.2385   -0.3063 H   0  0  0  0  0  0  0  0  0  0  0  0
    5.9334   -2.7986   -1.2469 H   0  0  0  0  0  0  0  0  0  0  0  0
    4.3513    0.7087   -1.5464 C   0  0  0  0  0  0  0  0  0  0  0  0
    4.1776    1.7876   -1.7328 H   0  0  0  0  0  0  0  0  0  0  0  0
    3.8772    0.1525   -2.3778 H   0  0  0  0  0  0  0  0  0  0  0  0
    5.4407    0.5145   -1.5893 H   0  0  0  0  0  0  0  0  0  0  0  0
    0.5341    4.3041    0.0026 C   0  0  0  0  0  0  0  0  0  0  0  0
   -0.1375    5.1815    0.0395 H   0  0  0  0  0  0  0  0  0  0  0  0
    1.3163    4.4770   -0.7691 H   0  0  0  0  0  0  0  0  0  0  0  0
    1.0240    4.1781    0.9922 H   0  0  0  0  0  0  0  0  0  0  0  0
   -2.0924    0.9203   -0.5860 C   0  0  0  0  0  2  0  0  0  0  0  0
  1 39  1  0  0  0  0
  2 43  1  0  0  0  0
  3  2  1  0  0  0  0
  4  2  1  0  0  0  0
  5  8  1  0  0  0  0
  5  7  1  0  0  0  0
  6  5  1  0  0  0  0
  8 11  1  0  0  0  0
  8 10  1  0  0  0  0
  9  8  1  0  0  0  0
 11 12  1  0  0  0  0
 11 13  1  0  0  0  0
 14 11  1  0  0  0  0
 15 14  1  0  0  0  0
 15 16  1  1  0  0  0
 17 20  1  0  0  0  0
 17 18  1  0  0  0  0
 17 15  1  0  0  0  0
 19 17  1  0  0  0  0
 20 23  1  0  0  0  0
 20 22  1  0  0  0  0
 21 20  1  0  0  0  0
 23 24  1  0  0  0  0
 24 26  2  0  0  0  0
 24 25  1  0  0  0  0
 25 35  1  6  0  0  0
 25 15  1  0  0  0  0
 25  5  1  0  0  0  0
 26 27  1  0  0  0  0
 28  1  1  0  0  0  0
 28 26  1  0  0  0  0
 29 28  2  0  0  0  0
 30 29  1  0  0  0  0
 30 23  2  0  0  0  0
 31 30  1  0  0  0  0
 32 33  1  0  0  0  0
 32 14  2  0  0  0  0
 34 32  1  0  0  0  0
 36 35  1  0  0  0  0
 37 35  1  0  0  0  0
 38 35  1  0  0  0  0
 39 40  1  0  0  0  0
 39 42  1  0  0  0  0
 41 39  1  0  0  0  0
 43 29  1  0  0  0  0
M  END
