8
q = 0.0, confidence = 0.92

 14 14  0  0  0  0  0  0  0  0999 V2000
    3.4286   -0.7441   -1.6068 Cl  0  0  0  0  0  0  0  0  0  0  0  0
    3.9450    1.5666    0.1060 Cl  0  0  0  0  0  0  0  0  0  0  0  0
    3.9016   -1.1430    1.2488 Cl  0  0  0  0  0  0  0  0  0  0  0  0
    1.6504    0.1248    0.3820 C   0  0  0  0  0  0  0  0  0  0  0  0
    3.1512   -0.0480    0.0219 C   0  0  0  0  0  0  0  0  0  0  0  0
    0.7894   -1.1236    0.2725 C   0  0  0  0  0  3  0  0  0  0  0  0
    0.2977   -1.2013   -1.0768 C   0  0  0  0  0  3  0  0  0  0  0  0
    0.2973    0.1384   -1.6190 C   0  0  0  0  0  3  0  0  0  0  0  0
    0.8088    0.9734   -0.5604 C   0  0  0  0  0  3  0  0  0  0  0  0
    1.6834    0.5410    1.4077 H   0  0  0  0  0  0  0  0  0  0  0  0
    0.9182   -1.9993    0.9227 H   0  0  0  0  0  0  0  0  0  0  0  0
    0.0043   -2.1061   -1.6209 H   0  0  0  0  0  0  0  0  0  0  0  0
   -0.0004    0.4449   -2.6273 H   0  0  0  0  0  0  0  0  0  0  0  0
    0.9078    2.0621   -0.6470 H   0  0  0  0  0  0  0  0  0  0  0  0
  1  5  1  0  0  0  0
  4 10  1  0  0  0  0
  5  2  1  0  0  0  0
  5  4  1  0  0  0  0
  5  3  1  0  0  0  0
  6  4  1  0  0  0  0
  6 11  1  0  0  0  0
  7  6  1  0  0  0  0
  8  7  1  0  0  0  0
  8  9  1  0  0  0  0
  9  4  1  0  0  0  0
 12  7  1  0  0  0  0
 13  8  1  0  0  0  0
 14  9  1  0  0  0  0
M  END
