1
q = 0.0, confidence = 1.0

 34 37  0  0  0  0  0  0  0  0999 V2000
   -0.5088   -0.1367    0.0334 C   0  0  0  0  0  2  0  0  0  0  0  0
    0.4503    0.9045    0.0014 C   0  0  0  0  0  0  0  0  0  0  0  0
    0.0674    1.9342    0.0180 H   0  0  0  0  0  0  0  0  0  0  0  0
    1.8355    0.7042    0.0132 C   0  0  0  0  0  0  0  0  0  0  0  0
    2.3253   -0.6517   -0.0158 C   0  0  0  0  0  0  0  0  0  0  0  0
    3.7303   -1.0855   -0.2186 C   0  0  0  0  0  0  0  0  0  0  0  0
    4.6703   -0.3081   -0.9304 C   0  0  0  0  0  0  0  0  0  0  0  0
    4.3705    0.6606   -1.3511 H   0  0  0  0  0  0  0  0  0  0  0  0
    5.9802   -0.7653   -1.1224 C   0  0  0  0  0  0  0  0  0  0  0  0
    6.6957   -0.1444   -1.6817 H   0  0  0  0  0  0  0  0  0  0  0  0
    6.3728   -2.0115   -0.6113 C   0  0  0  0  0  0  0  0  0  0  0  0
    7.4021   -2.3726   -0.7561 H   0  0  0  0  0  0  0  0  0  0  0  0
    5.4371   -2.8093    0.0644 C   0  0  0  0  0  0  0  0  0  0  0  0
    5.7304   -3.8015    0.4419 H   0  0  0  0  0  0  0  0  0  0  0  0
    4.1186   -2.3690    0.2585 C   0  0  0  0  0  0  0  0  0  0  0  0
    3.0809   -3.2291    0.9442 C   0  0  0  0  0  0  0  0  0  0  0  0
    2.9623   -2.9038    2.0030 H   0  0  0  0  0  0  0  0  0  0  0  0
    3.4094   -4.2860    0.9706 H   0  0  0  0  0  0  0  0  0  0  0  0
    1.7294   -3.1001    0.2319 C   0  0  0  0  0  0  0  0  0  0  0  0
    1.7887   -3.5425   -0.7893 H   0  0  0  0  0  0  0  0  0  0  0  0
    0.9138   -3.6289    0.7631 H   0  0  0  0  0  0  0  0  0  0  0  0
    1.3695   -1.6531    0.1127 C   0  0  0  0  0  0  0  0  0  0  0  0
    2.7231    1.8856    0.1282 C   0  0  0  0  0  0  0  0  0  0  0  0
    3.7607    1.9124    1.0886 C   0  0  0  0  0  0  0  0  0  0  0  0
    3.9315    1.0326    1.7260 H   0  0  0  0  0  0  0  0  0  0  0  0
    4.5568    3.0535    1.2399 C   0  0  0  0  0  0  0  0  0  0  0  0
    5.3526    3.0650    1.9998 H   0  0  0  0  0  0  0  0  0  0  0  0
    4.3420    4.1795    0.4272 C   0  0  0  0  0  0  0  0  0  0  0  0
    4.9751    5.0721    0.5424 H   0  0  0  0  0  0  0  0  0  0  0  0
    3.3149    4.1633   -0.5292 C   0  0  0  0  0  0  0  0  0  0  0  0
    3.1414    5.0410   -1.1696 H   0  0  0  0  0  0  0  0  0  0  0  0
    2.5037    3.0287   -0.6720 C   0  0  0  0  0  0  0  0  0  0  0  0
    1.7037    3.0150   -1.4275 H   0  0  0  0  0  0  0  0  0  0  0  0
    0.0548   -1.3992    0.1439 O   0  0  0  0  0  0  0  0  0  0  0  0
  1 34  1  0  0  0  0
  2  4  2  0  0  0  0
  2  3  1  0  0  0  0
  2  1  1  0  0  0  0
  4 23  1  0  0  0  0
  5  4  1  0  0  0  0
  5 22  2  0  0  0  0
  6  5  1  0  0  0  0
  6 15  1  0  0  0  0
  7  6  2  0  0  0  0
  8  7  1  0  0  0  0
  9  7  1  0  0  0  0
  9 11  2  0  0  0  0
 10  9  1  0  0  0  0
 11 13  1  0  0  0  0
 12 11  1  0  0  0  0
 13 15  2  0  0  0  0
 13 14  1  0  0  0  0
 15 16  1  0  0  0  0
 16 18  1  0  0  0  0
 16 17  1  0  0  0  0
 19 21  1  0  0  0  0
 19 16  1  0  0  0  0
 20 19  1  0  0  0  0
 22 34  1  0  0  0  0
 22 19  1  0  0  0  0
 23 24  1  0  0  0  0
 24 26  2  0  0  0  0
 24 25  1  0  0  0  0
 26 27  1  0  0  0  0
 28 29  1  0  0  0  0
 28 26  1  0  0  0  0
 30 28  2  0  0  0  0
 31 30  1  0  0  0  0
 32 30  1  0  0  0  0
 32 23  2  0  0  0  0
 33 32  1  0  0  0  0
M  END
