3
q = -1.0, confidence = 0.046

 12 12  0  0  1  0  0  0  0  0999 V2000
    6.4571   -1.4066    0.2006 O   0  0  0  0  0  0  0  0  0  0  0  0
    5.4109    0.5412   -0.3399 O   0  0  0  0  0  0  0  0  0  0  0  0
    3.1739   -0.1911   -0.0992 C   0  0  0  0  0  3  0  0  0  0  0  0
    4.0120   -1.2230    0.1803 C   0  0  0  0  0  0  0  0  0  0  0  0
    3.7574   -2.2471    0.4816 H   0  0  0  0  0  0  0  0  0  0  0  0
    5.4248   -0.7919    0.0382 C   0  0  0  0  0  0  0  0  0  0  0  0
    4.0498    0.9942   -0.4570 C   0  0  1  0  0  0  0  0  0  0  0  0
    3.8837    1.2666   -1.5262 H   0  0  0  0  0  0  0  0  0  0  0  0
    3.8429    2.2281    0.4169 C   0  0  0  0  0  0  0  0  0  0  0  0
    3.9895    1.9681    1.4841 H   0  0  0  0  0  0  0  0  0  0  0  0
    2.8130    2.6173    0.2869 H   0  0  0  0  0  0  0  0  0  0  0  0
    4.5636    3.0231    0.1429 H   0  0  0  0  0  0  0  0  0  0  0  0
  2  6  1  0  0  0  0
  3  4  2  0  0  0  0
  4  5  1  0  0  0  0
  6  4  1  0  0  0  0
  6  1  2  0  0  0  0
  7  8  1  6  0  0  0
  7  2  1  0  0  0  0
  7  3  1  0  0  0  0
  7  9  1  0  0  0  0
  9 10  1  0  0  0  0
 11  9  1  0  0  0  0
 12  9  1  0  0  0  0
M  END
