4
q = 0.0, confidence = 0.996

 34 36  0  0  1  0  0  0  0  0999 V2000
   -0.4361    2.9628   -0.8512 N   0  0  0  0  0  0  0  0  0  0  0  0
    0.4166    3.9558   -1.2709 N   0  0  0  0  0  0  0  0  0  0  0  0
    1.4488    1.9978   -1.1203 N   0  0  0  0  0  0  0  0  0  0  0  0
    0.1615    1.7466   -0.7228 C   0  0  0  0  0  2  0  0  0  0  0  0
    1.5605    3.3349   -1.4282 C   0  0  0  0  0  0  0  0  0  0  0  0
    2.5121    0.9790   -1.2454 C   0  0  1  0  0  0  0  0  0  0  0  0
    2.7930    0.6919   -2.7181 C   0  0  0  0  0  0  0  0  0  0  0  0
    3.7119    1.3629   -0.3896 C   0  0  0  0  0  0  0  0  0  0  0  0
    5.0216    1.3921   -0.9017 C   0  0  0  0  0  0  0  0  0  0  0  0
    6.1099    1.6905   -0.0643 C   0  0  0  0  0  0  0  0  0  0  0  0
    5.9011    1.9647    1.2949 C   0  0  0  0  0  0  0  0  0  0  0  0
    4.5944    1.9442    1.8125 C   0  0  0  0  0  0  0  0  0  0  0  0
    3.5092    1.6475    0.9780 C   0  0  0  0  0  0  0  0  0  0  0  0
   -1.8064    3.2791   -0.6064 C   0  0  0  0  0  0  0  0  0  0  0  0
   -2.8089    2.3702   -0.9814 C   0  0  0  0  0  0  0  0  0  0  0  0
   -4.1503    2.7167   -0.7660 C   0  0  0  0  0  0  0  0  0  0  0  0
   -4.4853    3.9478   -0.1806 C   0  0  0  0  0  0  0  0  0  0  0  0
   -3.4697    4.8456    0.1878 C   0  0  0  0  0  0  0  0  0  0  0  0
   -2.1248    4.5179   -0.0264 C   0  0  0  0  0  0  0  0  0  0  0  0
    2.0517    0.0682   -0.8009 H   0  0  0  0  0  0  0  0  0  0  0  0
    3.2266    1.5698   -3.2389 H   0  0  0  0  0  0  0  0  0  0  0  0
    3.4955   -0.1583   -2.8053 H   0  0  0  0  0  0  0  0  0  0  0  0
    1.8488    0.4012   -3.2181 H   0  0  0  0  0  0  0  0  0  0  0  0
   -2.5371    1.4143   -1.4542 H   0  0  0  0  0  0  0  0  0  0  0  0
   -4.9384    2.0165   -1.0790 H   0  0  0  0  0  0  0  0  0  0  0  0
   -5.5408    4.2131   -0.0177 H   0  0  0  0  0  0  0  0  0  0  0  0
   -3.7254    5.8119    0.6477 H   0  0  0  0  0  0  0  0  0  0  0  0
   -1.3144    5.2079    0.2443 H   0  0  0  0  0  0  0  0  0  0  0  0
    5.2046    1.1689   -1.9622 H   0  0  0  0  0  0  0  0  0  0  0  0
    7.1285    1.7084   -0.4814 H   0  0  0  0  0  0  0  0  0  0  0  0
    6.7541    2.1974    1.9503 H   0  0  0  0  0  0  0  0  0  0  0  0
    4.4158    2.1591    2.8773 H   0  0  0  0  0  0  0  0  0  0  0  0
    2.4887    1.6254    1.3968 H   0  0  0  0  0  0  0  0  0  0  0  0
    2.4923    3.8110   -1.7528 H   0  0  0  0  0  0  0  0  0  0  0  0
  1  4  1  0  0  0  0
  1 14  1  0  0  0  0
  2  1  1  0  0  0  0
  3  4  1  0  0  0  0
  5  2  2  0  0  0  0
  5  3  1  0  0  0  0
  6  3  1  0  0  0  0
  6 20  1  1  0  0  0
  6  8  1  0  0  0  0
  7  6  1  0  0  0  0
  8 13  1  0  0  0  0
  9  8  2  0  0  0  0
  9 10  1  0  0  0  0
 10 11  2  0  0  0  0
 11 12  1  0  0  0  0
 11 31  1  0  0  0  0
 12 32  1  0  0  0  0
 13 33  1  0  0  0  0
 13 12  2  0  0  0  0
 14 19  1  0  0  0  0
 15 16  1  0  0  0  0
 15 14  2  0  0  0  0
 16 17  2  0  0  0  0
 17 26  1  0  0  0  0
 17 18  1  0  0  0  0
 18 27  1  0  0  0  0
 19 18  2  0  0  0  0
 19 28  1  0  0  0  0
 21  7  1  0  0  0  0
 22  7  1  0  0  0  0
 23  7  1  0  0  0  0
 24 15  1  0  0  0  0
 25 16  1  0  0  0  0
 29  9  1  0  0  0  0
 30 10  1  0  0  0  0
 34  5  1  0  0  0  0
M  END
