3
q = 0.0, confidence = 0.994

 25 26  0  0  0  0  0  0  0  0999 V2000
   -4.4699   -1.7324    0.8950 Br  0  0  0  0  0  0  0  0  0  0  0  0
   -2.0720    2.6822   -0.6315 F   0  0  0  0  0  0  0  0  0  0  0  0
    0.1259   -0.5987   -1.1179 C   0  0  0  0  0  2  0  0  0  0  0  0
   -1.2278   -0.4374   -0.9135 N   0  0  0  0  0  0  0  0  0  0  0  0
    0.2106   -1.0468   -2.4169 N   0  0  0  0  0  0  0  0  0  0  0  0
   -3.1743    0.7133    0.0880 C   0  0  0  0  0  0  0  0  0  0  0  0
   -1.8421    0.0525    0.3275 C   0  0  0  0  0  0  0  0  0  0  0  0
   -1.9559   -0.7979   -2.0381 C   0  0  0  0  0  0  0  0  0  0  0  0
   -5.6414    0.7388    0.0982 C   0  0  0  0  0  0  0  0  0  0  0  0
   -5.6392    2.0626   -0.3617 C   0  0  0  0  0  0  0  0  0  0  0  0
   -4.4186    0.0796    0.3113 C   0  0  0  0  0  0  0  0  0  0  0  0
    1.4394   -1.2771   -3.1628 C   0  0  0  0  0  0  0  0  0  0  0  0
   -3.2374    2.0391   -0.3845 C   0  0  0  0  0  0  0  0  0  0  0  0
   -1.0476   -1.1758   -2.9868 C   0  0  0  0  0  0  0  0  0  0  0  0
   -4.4304    2.7278   -0.6112 C   0  0  0  0  0  0  0  0  0  0  0  0
   -4.3940    3.7637   -0.9752 H   0  0  0  0  0  0  0  0  0  0  0  0
   -6.5944    2.5819   -0.5296 H   0  0  0  0  0  0  0  0  0  0  0  0
   -6.5848    0.2103    0.2902 H   0  0  0  0  0  0  0  0  0  0  0  0
   -1.9352   -0.7877    1.0392 H   0  0  0  0  0  0  0  0  0  0  0  0
   -1.1220    0.7575    0.7774 H   0  0  0  0  0  0  0  0  0  0  0  0
   -3.0477   -0.7630   -2.0623 H   0  0  0  0  0  0  0  0  0  0  0  0
    2.2087   -1.6614   -2.4643 H   0  0  0  0  0  0  0  0  0  0  0  0
    1.2432   -2.0345   -3.9442 H   0  0  0  0  0  0  0  0  0  0  0  0
    1.7825   -0.3404   -3.6470 H   0  0  0  0  0  0  0  0  0  0  0  0
   -1.1871   -1.5296   -4.0121 H   0  0  0  0  0  0  0  0  0  0  0  0
  2 13  1  0  0  0  0
  3  4  1  0  0  0  0
  4  7  1  0  0  0  0
  5  3  1  0  0  0  0
  6 11  1  0  0  0  0
  6  7  1  0  0  0  0
  7 20  1  0  0  0  0
  7 19  1  0  0  0  0
  8  4  1  0  0  0  0
  9 18  1  0  0  0  0
  9 11  2  0  0  0  0
 10  9  1  0  0  0  0
 11  1  1  0  0  0  0
 12 22  1  0  0  0  0
 12  5  1  0  0  0  0
 13  6  2  0  0  0  0
 14  5  1  0  0  0  0
 14  8  2  0  0  0  0
 15 13  1  0  0  0  0
 15 10  2  0  0  0  0
 16 15  1  0  0  0  0
 17 10  1  0  0  0  0
 21  8  1  0  0  0  0
 23 12  1  0  0  0  0
 24 12  1  0  0  0  0
 25 14  1  0  0  0  0
M  END
