2
q = 0.0, confidence = 0.972

 60 90  0  0  1  0  0  0  0  0999 V2000
    2.1884    0.9063   -0.0977 C   0  0  0  0  0  0  0  0  0  0  0  0
    2.2729   -0.5555    0.0620 C   0  0  2  0  0  0  0  0  0  0  0  0
    1.7146   -1.3932   -1.0329 C   0  0  0  0  0  0  0  0  0  0  0  0
    1.2505   -0.8476   -2.2354 C   0  0  0  0  0  0  0  0  0  0  0  0
    1.1758    0.6149   -2.3927 C   0  0  0  0  0  0  0  0  0  0  0  0
    1.5768    1.4469   -1.3413 C   0  0  0  0  0  0  0  0  0  0  0  0
    0.7701    2.6064   -1.0083 C   0  0  0  0  0  0  0  0  0  0  0  0
    0.7625    2.7527    0.4402 C   0  0  0  0  0  0  0  0  0  0  0  0
    1.5548    1.6816    1.0038 C   0  0  0  0  0  0  0  0  0  0  0  0
    1.1654    1.0864    2.2062 C   0  0  0  0  0  0  0  0  0  0  0  0
    1.2462   -0.3743    2.3610 C   0  0  0  0  0  0  0  0  0  0  0  0
    1.7222   -1.1585    1.3050 C   0  0  0  0  0  0  0  0  0  0  0  0
    1.0446   -2.3985    0.9817 C   0  0  0  0  0  0  0  0  0  0  0  0
    1.0431   -2.5454   -0.4663 C   0  0  0  0  0  0  0  0  0  0  0  0
   -0.0618   -3.1293   -1.1203 C   0  0  0  0  0  0  0  0  0  0  0  0
   -0.5445   -2.5597   -2.3654 C   0  0  0  0  0  0  0  0  0  0  0  0
    0.1009   -1.4288   -2.9066 C   0  0  0  0  0  0  0  0  0  0  0  0
   -0.6878   -0.3408   -3.4729 C   0  0  0  0  0  0  0  0  0  0  0  0
   -0.0227    0.9181   -3.1546 C   0  0  0  0  0  0  0  0  0  0  0  0
   -0.7920    2.0602   -2.8483 C   0  0  0  0  0  0  0  0  0  0  0  0
   -0.3854    2.9219   -1.7529 C   0  0  0  0  0  0  0  0  0  0  0  0
   -1.5876    3.3852   -1.0667 C   0  0  0  0  0  0  0  0  0  0  0  0
   -1.5910    3.5302    0.3317 C   0  0  0  0  0  0  0  0  0  0  0  0
   -0.3923    3.2170    1.1019 C   0  0  0  0  0  0  0  0  0  0  0  0
   -0.8012    2.5983    2.3496 C   0  0  0  0  0  0  0  0  0  0  0  0
   -0.0344    1.5431    2.8862 C   0  0  0  0  0  0  0  0  0  0  0  0
   -0.6998    0.3776    3.4563 C   0  0  0  0  0  0  0  0  0  0  0  0
    0.0927   -0.8037    3.1309 C   0  0  0  0  0  0  0  0  0  0  0  0
   -0.5525   -2.0223    2.8334 C   0  0  0  0  0  0  0  0  0  0  0  0
   -0.0649   -2.8363    1.7348 C   0  0  0  0  0  0  0  0  0  0  0  0
   -1.2158   -3.4236    1.0564 C   0  0  0  0  0  0  0  0  0  0  0  0
   -1.2142   -3.5702   -0.3421 C   0  0  0  0  0  0  0  0  0  0  0  0
   -2.4143   -3.2618   -1.1110 C   0  0  0  0  0  0  0  0  0  0  0  0
   -1.9990   -2.6356   -2.3618 C   0  0  0  0  0  0  0  0  0  0  0  0
   -2.7598   -1.5839   -2.9067 C   0  0  0  0  0  0  0  0  0  0  0  0
   -2.0916   -0.4175   -3.4750 C   0  0  0  0  0  0  0  0  0  0  0  0
   -2.8861    0.7629   -3.1511 C   0  0  0  0  0  0  0  0  0  0  0  0
   -2.2463    1.9783   -2.8421 C   0  0  0  0  0  0  0  0  0  0  0  0
   -2.7396    2.7995   -1.7415 C   0  0  0  0  0  0  0  0  0  0  0  0
   -3.8532    2.3771   -0.9923 C   0  0  0  0  0  0  0  0  0  0  0  0
   -3.8566    2.5282    0.4588 C   0  0  0  0  0  0  0  0  0  0  0  0
   -2.7457    3.0960    1.1090 C   0  0  0  0  0  0  0  0  0  0  0  0
   -2.2555    2.5177    2.3560 C   0  0  0  0  0  0  0  0  0  0  0  0
   -2.8963    1.3920    2.9069 C   0  0  0  0  0  0  0  0  0  0  0  0
   -2.1036    0.3037    3.4699 C   0  0  1  0  0  0  0  0  0  0  0  0
   -2.7703   -0.9546    3.1513 C   0  0  0  0  0  0  0  0  0  0  0  0
   -2.0074   -2.0952    2.8375 C   0  0  0  0  0  0  0  0  0  0  0  0
   -2.4190   -2.9645    1.7403 C   0  0  0  0  0  0  0  0  0  0  0  0
   -3.5765   -2.6638    0.9992 C   0  0  0  0  0  0  0  0  0  0  0  0
   -3.5739   -2.8146   -0.4520 C   0  0  0  0  0  0  0  0  0  0  0  0
   -4.3617   -1.7272   -1.0190 C   0  0  0  0  0  0  0  0  0  0  0  0
   -3.9609   -1.1233   -2.2254 C   0  0  0  0  0  0  0  0  0  0  0  0
   -4.0391    0.3272   -2.3767 C   0  0  0  0  0  0  0  0  0  0  0  0
   -4.5149    1.1194   -1.3153 C   0  0  0  0  0  0  0  0  0  0  0  0
   -4.9272    0.4926   -0.0650 C   0  0  0  0  0  0  0  0  0  0  0  0
   -4.5194    1.3632    1.0312 C   0  0  0  0  0  0  0  0  0  0  0  0
   -4.0464    0.8059    2.2338 C   0  0  0  0  0  0  0  0  0  0  0  0
   -3.9682   -0.6444    2.3846 C   0  0  0  0  0  0  0  0  0  0  0  0
   -4.3664   -1.4836    1.3274 C   0  0  0  0  0  0  0  0  0  0  0  0
   -4.8523   -0.9048    0.0806 C   0  0  0  0  0  0  0  0  0  0  0  0
  1  2  1  0  0  0  0
  1  9  1  0  0  0  0
  2  3  1  6  0  0  0
  2 12  1  0  0  0  0
  3 14  1  0  0  0  0
  4  3  2  0  0  0  0
  5  4  1  0  0  0  0
  5  6  1  0  0  0  0
  6  7  1  0  0  0  0
  6  1  2  0  0  0  0
  7  8  1  0  0  0  0
  8  9  2  0  0  0  0
  8 24  1  0  0  0  0
  9 10  1  0  0  0  0
 10 11  2  0  0  0  0
 10 26  1  0  0  0  0
 11 28  1  0  0  0  0
 12 11  1  0  0  0  0
 13 12  2  0  0  0  0
 13 30  1  0  0  0  0
 14 13  1  0  0  0  0
 15 14  2  0  0  0  0
 15 32  1  0  0  0  0
 16 34  1  0  0  0  0
 16 15  1  0  0  0  0
 17 16  2  0  0  0  0
 17  4  1  0  0  0  0
 18 19  1  0  0  0  0
 18 17  1  0  0  0  0
 19 20  1  0  0  0  0
 19  5  2  0  0  0  0
 20 38  2  0  0  0  0
 20 21  1  0  0  0  0
 21 22  1  0  0  0  0
 21  7  2  0  0  0  0
 22 23  1  0  0  0  0
 23 24  2  0  0  0  0
 23 42  1  0  0  0  0
 24 25  1  0  0  0  0
 25 43  2  0  0  0  0
 25 26  1  0  0  0  0
 26 27  2  0  0  0  0
 27 45  1  0  0  0  0
 28 27  1  0  0  0  0
 29 47  1  0  0  0  0
 29 28  2  0  0  0  0
 30 29  1  0  0  0  0
 31 30  2  0  0  0  0
 31 48  1  0  0  0  0
 32 31  1  0  0  0  0
 33 50  1  0  0  0  0
 33 32  2  0  0  0  0
 34 33  1  0  0  0  0
 35 34  2  0  0  0  0
 35 52  1  0  0  0  0
 36 18  2  0  0  0  0
 36 37  1  0  0  0  0
 36 35  1  0  0  0  0
 37 38  1  0  0  0  0
 37 53  2  0  0  0  0
 38 39  1  0  0  0  0
 39 22  2  0  0  0  0
 39 40  1  0  0  0  0
 40 41  1  0  0  0  0
 41 56  1  0  0  0  0
 41 42  2  0  0  0  0
 42 43  1  0  0  0  0
 43 44  1  0  0  0  0
 45 44  1  6  0  0  0
 46 45  1  0  0  0  0
 47 46  1  0  0  0  0
 48 47  2  0  0  0  0
 49 59  1  0  0  0  0
 49 48  1  0  0  0  0
 50 49  2  0  0  0  0
 51 50  1  0  0  0  0
 51 60  1  0  0  0  0
 52 51  2  0  0  0  0
 53 52  1  0  0  0  0
 53 54  1  0  0  0  0
 54 40  2  0  0  0  0
 54 55  1  0  0  0  0
 55 60  1  0  0  0  0
 55 56  2  0  0  0  0
 56 57  1  0  0  0  0
 57 58  1  0  0  0  0
 57 44  2  0  0  0  0
 58 46  2  0  0  0  0
 59 58  1  0  0  0  0
 60 59  2  0  0  0  0
M  END
