3
q = -1.0, confidence = 0.0

 34 34  0  0  0  0  0  0  0  0999 V2000
   -2.4468   -0.1973    0.8636 C   0  0  0  0  0  0  0  0  0  0  0  0
   -1.6103   -0.0078    2.0119 C   0  0  0  0  0  0  0  0  0  0  0  0
   -1.0081    1.2804    1.9675 C   0  0  0  0  0  3  0  0  0  0  0  0
   -1.4477    1.8900    0.7745 C   0  0  0  0  0  0  0  0  0  0  0  0
   -2.3381    1.0182    0.0661 C   0  0  0  0  0  0  0  0  0  0  0  0
   -3.3878   -1.4226    0.8587 C   0  0  0  0  0  0  0  0  0  0  0  0
   -3.9486   -1.8813   -0.4994 C   0  0  0  0  0  0  0  0  0  0  0  0
   -4.5749   -1.0426    1.7830 C   0  0  0  0  0  0  0  0  0  0  0  0
   -2.6687   -2.6504    1.4688 C   0  0  0  0  0  0  0  0  0  0  0  0
   -3.0898    1.5260   -1.1816 C   0  0  0  0  0  0  0  0  0  0  0  0
   -2.8440    0.6853   -2.4513 C   0  0  0  0  0  0  0  0  0  0  0  0
   -4.6004    1.6067   -0.8516 C   0  0  0  0  0  0  0  0  0  0  0  0
   -2.6453    2.9684   -1.5209 C   0  0  0  0  0  0  0  0  0  0  0  0
   -1.5335   -0.7094    2.8454 H   0  0  0  0  0  0  0  0  0  0  0  0
   -0.3778    1.7415    2.7328 H   0  0  0  0  0  0  0  0  0  0  0  0
   -1.1389    2.8799    0.4325 H   0  0  0  0  0  0  0  0  0  0  0  0
   -4.5647   -1.1115   -0.9944 H   0  0  0  0  0  0  0  0  0  0  0  0
   -3.1363   -2.1792   -1.1863 H   0  0  0  0  0  0  0  0  0  0  0  0
   -4.6017   -2.7616   -0.3323 H   0  0  0  0  0  0  0  0  0  0  0  0
   -4.2255   -0.7853    2.8030 H   0  0  0  0  0  0  0  0  0  0  0  0
   -5.1342   -0.1720    1.3889 H   0  0  0  0  0  0  0  0  0  0  0  0
   -5.2796   -1.8960    1.8640 H   0  0  0  0  0  0  0  0  0  0  0  0
   -2.3851   -2.5020    2.5291 H   0  0  0  0  0  0  0  0  0  0  0  0
   -3.3467   -3.5265    1.4396 H   0  0  0  0  0  0  0  0  0  0  0  0
   -1.7602   -2.8956    0.8851 H   0  0  0  0  0  0  0  0  0  0  0  0
   -3.1227   -0.3730   -2.3301 H   0  0  0  0  0  0  0  0  0  0  0  0
   -3.4373    1.1073   -3.2887 H   0  0  0  0  0  0  0  0  0  0  0  0
   -1.7730    0.7166   -2.7266 H   0  0  0  0  0  0  0  0  0  0  0  0
   -5.0561    0.6188   -0.6617 H   0  0  0  0  0  0  0  0  0  0  0  0
   -4.7746    2.2379    0.0437 H   0  0  0  0  0  0  0  0  0  0  0  0
   -5.1432    2.0662   -1.7032 H   0  0  0  0  0  0  0  0  0  0  0  0
   -3.1955    3.3119   -2.4195 H   0  0  0  0  0  0  0  0  0  0  0  0
   -2.8740    3.6795   -0.7015 H   0  0  0  0  0  0  0  0  0  0  0  0
   -1.5625    3.0147   -1.7453 H   0  0  0  0  0  0  0  0  0  0  0  0
  1  2  2  0  0  0  0
  2 14  1  0  0  0  0
  3  2  1  0  0  0  0
  3 15  1  0  0  0  0
  4  3  1  0  0  0  0
  5  4  2  0  0  0  0
  5  1  1  0  0  0  0
  6  1  1  0  0  0  0
  6  9  1  0  0  0  0
  6  8  1  0  0  0  0
  7 19  1  0  0  0  0
  7  6  1  0  0  0  0
  8 22  1  0  0  0  0
  8 20  1  0  0  0  0
  9 23  1  0  0  0  0
 10 12  1  0  0  0  0
 10  5  1  0  0  0  0
 11 26  1  0  0  0  0
 11 10  1  0  0  0  0
 12 29  1  0  0  0  0
 12 30  1  0  0  0  0
 13 10  1  0  0  0  0
 13 33  1  0  0  0  0
 16  4  1  0  0  0  0
 17  7  1  0  0  0  0
 18  7  1  0  0  0  0
 21  8  1  0  0  0  0
 24  9  1  0  0  0  0
 25  9  1  0  0  0  0
 27 11  1  0  0  0  0
 28 11  1  0  0  0  0
 31 12  1  0  0  0  0
 32 13  1  0  0  0  0
 34 13  1  0  0  0  0
M  END
