3
q = 0.0, confidence = 0.872

  6  5  0  0  0  0  0  0  0  0999 V2000
    0.0054   -5.0023   -1.2912 N   0  0  0  0  0  0  0  0  0  0  0  0
    3.7261   -3.2479    0.7288 N   0  0  0  0  0  0  0  0  0  0  0  0
    0.6626   -1.8432    0.1111 C   0  0  0  0  0  0  0  0  0  0  0  0
    1.2821   -3.0354   -0.1548 C   0  0  0  0  0  0  0  0  0  0  0  0
    0.5918   -4.1228   -0.7779 C   0  0  0  0  0  0  0  0  0  0  0  0
    2.6345   -3.1769    0.2971 C   0  0  0  0  0  0  0  0  0  0  0  0
  1  5  3  0  0  0  0
  4  3  1  0  0  0  0
  4  6  1  0  0  0  0
  5  4  1  0  0  0  0
  6  2  3  0  0  0  0
M  END
