4
q = -1.0, confidence = 0.0

 28 29  0  0  1  0  0  0  0  0999 V2000
    3.4624   -0.5105   -1.3866 S   0  0  0  0  0  0  0  0  0  0  0  0
   -3.6289   -0.3763   -1.3905 O   0  0  0  0  0  0  0  0  0  0  0  0
    0.2326   -1.3984   -0.0911 C   0  0  1  0  0  3  0  0  0  0  0  0
    0.0176   -0.6827   -1.3015 C   0  0  0  0  0  3  0  0  0  0  0  0
   -1.3001   -0.3873   -1.7704 C   0  0  0  0  0  0  0  0  0  0  0  0
   -2.4119   -0.7731   -0.9506 C   0  0  0  0  0  0  0  0  0  0  0  0
   -2.1353   -1.3924    0.2957 C   0  0  0  0  0  3  0  0  0  0  0  0
   -0.9070   -2.2712    0.4138 C   0  0  0  0  0  0  0  0  0  0  0  0
   -4.7498   -0.5564   -0.5355 C   0  0  0  0  0  0  0  0  0  0  0  0
    1.5883   -1.5457    0.4851 C   0  0  0  0  0  0  0  0  0  0  0  0
    1.8980   -2.5302    1.3690 C   0  0  0  0  0  0  0  0  0  0  0  0
    2.6284   -0.5381    0.1529 C   0  0  0  0  0  0  0  0  0  0  0  0
    3.0877    0.4846    0.9671 C   0  0  0  0  0  0  0  0  0  0  0  0
    4.0920    1.2915    0.3501 C   0  0  0  0  0  0  0  0  0  0  0  0
    4.3975    0.8744   -0.9297 C   0  0  0  0  0  0  0  0  0  0  0  0
    0.8733   -0.2627   -1.8500 H   0  0  0  0  0  0  0  0  0  0  0  0
   -1.4776    0.1501   -2.7102 H   0  0  0  0  0  0  0  0  0  0  0  0
   -2.9582   -1.5394    1.0086 H   0  0  0  0  0  0  0  0  0  0  0  0
   -0.7464   -2.5087    1.4821 H   0  0  0  0  0  0  0  0  0  0  0  0
   -0.9834   -3.2449   -0.1300 H   0  0  0  0  0  0  0  0  0  0  0  0
   -5.6324   -0.2263   -1.1128 H   0  0  0  0  0  0  0  0  0  0  0  0
   -4.8784   -1.6216   -0.2448 H   0  0  0  0  0  0  0  0  0  0  0  0
   -4.6647    0.0681    0.3796 H   0  0  0  0  0  0  0  0  0  0  0  0
    1.1627   -3.2803    1.6945 H   0  0  0  0  0  0  0  0  0  0  0  0
    2.9134   -2.6028    1.7840 H   0  0  0  0  0  0  0  0  0  0  0  0
    2.6830    0.6498    1.9751 H   0  0  0  0  0  0  0  0  0  0  0  0
    4.5699    2.1550    0.8323 H   0  0  0  0  0  0  0  0  0  0  0  0
    5.1259    1.2977   -1.6319 H   0  0  0  0  0  0  0  0  0  0  0  0
  1 15  1  0  0  0  0
  1 12  1  0  0  0  0
  2  6  1  0  0  0  0
  2  9  1  0  0  0  0
  3  8  1  0  0  0  0
  3 10  1  6  0  0  0
  4  3  1  0  0  0  0
  5  4  1  0  0  0  0
  5  6  2  0  0  0  0
  6  7  1  0  0  0  0
  7  8  1  0  0  0  0
  7 18  1  0  0  0  0
  8 19  1  0  0  0  0
  9 22  1  0  0  0  0
  9 23  1  0  0  0  0
 10 11  2  0  0  0  0
 11 24  1  0  0  0  0
 11 25  1  0  0  0  0
 12 10  1  0  0  0  0
 12 13  2  0  0  0  0
 13 26  1  0  0  0  0
 14 27  1  0  0  0  0
 14 13  1  0  0  0  0
 15 14  2  0  0  0  0
 16  4  1  0  0  0  0
 17  5  1  0  0  0  0
 20  8  1  0  0  0  0
 21  9  1  0  0  0  0
 28 15  1  0  0  0  0
M  END
