18
q = 0.0, confidence = 0.85

 54 55  0  0  1  0  0  0  0  0999 V2000
    1.4056    0.3043    0.6567 B   0  0  0  0  0  0  0  0  0  0  0  0
    0.4682   -0.7950    1.1112 C   0  0  0  0  0  0  0  0  0  0  0  0
    0.9966   -1.7008    1.4633 H   0  0  0  0  0  0  0  0  0  0  0  0
   -0.9230   -0.7703    1.5922 C   0  0  1  0  0  3  0  0  0  0  0  0
   -1.4059   -1.4761    3.3049 Si  0  0  0  0  0  0  0  0  0  0  0  0
   -1.3199   -0.0218    4.5095 C   0  0  0  0  0  0  0  0  0  0  0  0
   -2.0547    0.7601    4.2320 H   0  0  0  0  0  0  0  0  0  0  0  0
   -0.3148    0.4440    4.4988 H   0  0  0  0  0  0  0  0  0  0  0  0
   -1.5405   -0.3597    5.5434 H   0  0  0  0  0  0  0  0  0  0  0  0
   -3.1817   -2.1342    3.2901 C   0  0  0  0  0  0  0  0  0  0  0  0
   -3.8468   -1.4111    2.7738 H   0  0  0  0  0  0  0  0  0  0  0  0
   -3.5496   -2.2481    4.3304 H   0  0  0  0  0  0  0  0  0  0  0  0
   -3.2864   -3.1146    2.7857 H   0  0  0  0  0  0  0  0  0  0  0  0
   -0.1514   -2.7788    3.8708 C   0  0  0  0  0  0  0  0  0  0  0  0
    0.8670   -2.3400    3.8967 H   0  0  0  0  0  0  0  0  0  0  0  0
   -0.1124   -3.6884    3.2392 H   0  0  0  0  0  0  0  0  0  0  0  0
   -0.4023   -3.1002    4.9031 H   0  0  0  0  0  0  0  0  0  0  0  0
   -1.9123   -0.1154    0.9140 C   0  0  0  0  0  2  0  0  0  0  0  0
   -2.7214    0.0846   -0.0854 C   0  0  0  0  0  2  0  0  0  0  0  0
   -4.0355    1.3780   -0.4265 Si  0  0  0  0  0  0  0  0  0  0  0  0
   -5.4475    0.5278   -1.3549 C   0  0  0  0  0  0  0  0  0  0  0  0
   -5.8500   -0.3195   -0.7630 H   0  0  0  0  0  0  0  0  0  0  0  0
   -5.1006    0.1219   -2.3274 H   0  0  0  0  0  0  0  0  0  0  0  0
   -6.2796    1.2333   -1.5563 H   0  0  0  0  0  0  0  0  0  0  0  0
   -4.5996    2.0251    1.2589 C   0  0  0  0  0  0  0  0  0  0  0  0
   -5.4254    2.7597    1.1627 H   0  0  0  0  0  0  0  0  0  0  0  0
   -3.7463    2.5276    1.7599 H   0  0  0  0  0  0  0  0  0  0  0  0
   -4.9438    1.1979    1.9125 H   0  0  0  0  0  0  0  0  0  0  0  0
   -3.3977    2.8480   -1.4394 C   0  0  0  0  0  0  0  0  0  0  0  0
   -4.2390    3.5525   -1.6081 H   0  0  0  0  0  0  0  0  0  0  0  0
   -2.9965    2.5635   -2.4314 H   0  0  0  0  0  0  0  0  0  0  0  0
   -2.6110    3.4015   -0.8898 H   0  0  0  0  0  0  0  0  0  0  0  0
    2.9309   -0.1019    0.4285 C   0  0  0  0  0  0  0  0  0  0  0  0
    3.3383   -1.2821   -0.2222 C   0  0  0  0  0  0  0  0  0  0  0  0
    2.4268   -2.1426   -0.7346 F   0  0  0  0  0  0  0  0  0  0  0  0
    4.6837   -1.6314   -0.4181 C   0  0  0  0  0  0  0  0  0  0  0  0
    5.0133   -2.7574   -1.0625 F   0  0  0  0  0  0  0  0  0  0  0  0
    5.6899   -0.7892    0.0819 C   0  0  0  0  0  0  0  0  0  0  0  0
    6.9754   -1.1123   -0.0755 F   0  0  0  0  0  0  0  0  0  0  0  0
    5.3353    0.3942    0.7512 C   0  0  0  0  0  0  0  0  0  0  0  0
    6.2894    1.1959    1.2354 F   0  0  0  0  0  0  0  0  0  0  0  0
    3.9772    0.7103    0.9091 C   0  0  0  0  0  0  0  0  0  0  0  0
    3.6941    1.8513    1.5637 F   0  0  0  0  0  0  0  0  0  0  0  0
    0.9918    1.8329    0.4484 C   0  0  0  0  0  0  0  0  0  0  0  0
   -0.0160    2.4811    1.1920 C   0  0  0  0  0  0  0  0  0  0  0  0
   -0.5412    1.9190    2.2909 F   0  0  0  0  0  0  0  0  0  0  0  0
   -0.5278    3.7447    0.8583 C   0  0  0  0  0  0  0  0  0  0  0  0
   -1.5488    4.2704    1.5497 F   0  0  0  0  0  0  0  0  0  0  0  0
    0.0210    4.4538   -0.2198 C   0  0  0  0  0  0  0  0  0  0  0  0
   -0.4744    5.6440   -0.5617 F   0  0  0  0  0  0  0  0  0  0  0  0
    1.0976    3.8989   -0.9302 C   0  0  0  0  0  0  0  0  0  0  0  0
    1.6527    4.5760   -1.9394 F   0  0  0  0  0  0  0  0  0  0  0  0
    1.5611    2.6228   -0.5750 C   0  0  0  0  0  0  0  0  0  0  0  0
    2.5827    2.1497   -1.3188 F   0  0  0  0  0  0  0  0  0  0  0  0
  1  2  2  0  0  0  0
  2  3  1  0  0  0  0
  2  4  1  0  0  0  0
  4 18  1  1  0  0  0
  4  5  1  0  0  0  0
  5 14  1  0  0  0  0
  5  6  1  0  0  0  0
  6  9  1  0  0  0  0
  7  6  1  0  0  0  0
  8  6  1  0  0  0  0
 10  5  1  0  0  0  0
 10 12  1  0  0  0  0
 11 10  1  0  0  0  0
 13 10  1  0  0  0  0
 14 15  1  0  0  0  0
 14 17  1  0  0  0  0
 16 14  1  0  0  0  0
 19 18  1  0  0  0  0
 20 19  1  0  0  0  0
 20 25  1  0  0  0  0
 21 22  1  0  0  0  0
 21 20  1  0  0  0  0
 23 21  1  0  0  0  0
 24 21  1  0  0  0  0
 25 27  1  0  0  0  0
 25 28  1  0  0  0  0
 26 25  1  0  0  0  0
 29 32  1  0  0  0  0
 29 20  1  0  0  0  0
 30 29  1  0  0  0  0
 31 29  1  0  0  0  0
 33  1  1  0  0  0  0
 33 42  1  0  0  0  0
 34 33  2  0  0  0  0
 35 34  1  0  0  0  0
 36 34  1  0  0  0  0
 36 38  2  0  0  0  0
 37 36  1  0  0  0  0
 38 40  1  0  0  0  0
 39 38  1  0  0  0  0
 40 42  2  0  0  0  0
 40 41  1  0  0  0  0
 42 43  1  0  0  0  0
 44  1  1  0  0  0  0
 44 45  1  0  0  0  0
 45 46  1  0  0  0  0
 47 45  2  0  0  0  0
 47 48  1  0  0  0  0
 49 47  1  0  0  0  0
 50 49  1  0  0  0  0
 51 53  1  0  0  0  0
 51 49  2  0  0  0  0
 52 51  1  0  0  0  0
 53 44  2  0  0  0  0
 54 53  1  0  0  0  0
M  END
