1
q = -1.0, confidence = 0.0

 23 23  0  0  0  0  0  0  0  0999 V2000
    1.5183   -2.8187    0.4525 C   0  0  0  0  0  3  0  0  0  0  0  0
    2.7448   -2.2756   -0.1919 C   0  0  0  0  0  0  0  0  0  0  0  0
    3.0984   -2.4837   -1.3432 O   0  0  0  0  0  0  0  0  0  0  0  0
    3.4365   -1.4584    0.6602 O   0  0  0  0  0  0  0  0  0  0  0  0
    4.4977   -0.6724    0.0795 C   0  0  0  0  0  0  0  0  0  0  0  0
    5.4290   -0.2494    1.2118 C   0  0  0  0  0  0  0  0  0  0  0  0
    6.5472    0.6627    0.6882 C   0  0  0  0  0  0  0  0  0  0  0  0
    5.9811    1.8798   -0.0570 C   0  0  0  0  0  0  0  0  0  0  0  0
    5.0336    1.4497   -1.1850 C   0  0  0  0  0  0  0  0  0  0  0  0
    3.9165    0.5394   -0.6582 C   0  0  0  0  0  0  0  0  0  0  0  0
    1.1993   -3.7410   -0.0611 H   0  0  0  0  0  0  0  0  0  0  0  0
    1.6474   -2.9769    1.5376 H   0  0  0  0  0  0  0  0  0  0  0  0
    5.0384   -1.3095   -0.6543 H   0  0  0  0  0  0  0  0  0  0  0  0
    5.8449   -1.1513    1.7062 H   0  0  0  0  0  0  0  0  0  0  0  0
    4.8245    0.2867    1.9763 H   0  0  0  0  0  0  0  0  0  0  0  0
    7.1981    0.0828   -0.0042 H   0  0  0  0  0  0  0  0  0  0  0  0
    7.1975    0.9868    1.5271 H   0  0  0  0  0  0  0  0  0  0  0  0
    6.8058    2.5050   -0.4589 H   0  0  0  0  0  0  0  0  0  0  0  0
    5.4228    2.5196    0.6631 H   0  0  0  0  0  0  0  0  0  0  0  0
    5.6122    0.9054   -1.9644 H   0  0  0  0  0  0  0  0  0  0  0  0
    4.5962    2.3375   -1.6891 H   0  0  0  0  0  0  0  0  0  0  0  0
    3.2768    1.1024    0.0567 H   0  0  0  0  0  0  0  0  0  0  0  0
    3.2697    0.1843   -1.4857 H   0  0  0  0  0  0  0  0  0  0  0  0
  1 12  1  0  0  0  0
  2  1  1  0  0  0  0
  2  4  1  0  0  0  0
  3  2  2  0  0  0  0
  5  4  1  0  0  0  0
  5  6  1  0  0  0  0
  6 14  1  0  0  0  0
  6 15  1  0  0  0  0
  7  6  1  0  0  0  0
  7 17  1  0  0  0  0
  8 19  1  0  0  0  0
  8  7  1  0  0  0  0
  9 10  1  0  0  0  0
  9  8  1  0  0  0  0
 10 22  1  0  0  0  0
 10  5  1  0  0  0  0
 11  1  1  0  0  0  0
 13  5  1  0  0  0  0
 16  7  1  0  0  0  0
 18  8  1  0  0  0  0
 20  9  1  0  0  0  0
 21  9  1  0  0  0  0
 23 10  1  0  0  0  0
M  END
