1
q = -1.0, confidence = 0.0

 35 35  0  0  1  0  0  0  0  0999 V2000
    1.1586   -2.5382   -0.7762 C   0  0  0  0  0  3  0  0  0  0  0  0
    2.3705   -1.7672   -1.1676 C   0  0  0  0  0  0  0  0  0  0  0  0
    2.6986   -1.5096   -2.3171 O   0  0  0  0  0  0  0  0  0  0  0  0
    3.0846   -1.3774   -0.0713 O   0  0  0  0  0  0  0  0  0  0  0  0
    4.3047   -0.6285   -0.2777 C   0  0  1  0  0  0  0  0  0  0  0  0
    4.1135    0.8305    0.1721 C   0  0  1  0  0  0  0  0  0  0  0  0
    5.4703    1.5546    0.0837 C   0  0  0  0  0  0  0  0  0  0  0  0
    6.5644    0.8501    0.8911 C   0  0  0  0  0  0  0  0  0  0  0  0
    6.7480   -0.6101    0.4507 C   0  0  2  0  0  0  0  0  0  0  0  0
    5.3989   -1.3405    0.5183 C   0  0  0  0  0  0  0  0  0  0  0  0
    2.9613    1.5621   -0.5663 C   0  0  0  0  0  0  0  0  0  0  0  0
    3.2088    1.7850   -2.0642 C   0  0  0  0  0  0  0  0  0  0  0  0
    2.6021    2.8786    0.1340 C   0  0  0  0  0  0  0  0  0  0  0  0
    7.8230   -1.3319    1.2657 C   0  0  0  0  0  0  0  0  0  0  0  0
    0.8447   -3.1659   -1.6268 H   0  0  0  0  0  0  0  0  0  0  0  0
    1.3347   -3.1426    0.1310 H   0  0  0  0  0  0  0  0  0  0  0  0
    4.5399   -0.6595   -1.3624 H   0  0  0  0  0  0  0  0  0  0  0  0
    3.8229    0.7843    1.2477 H   0  0  0  0  0  0  0  0  0  0  0  0
    5.3588    2.6032    0.4279 H   0  0  0  0  0  0  0  0  0  0  0  0
    5.7862    1.6100   -0.9812 H   0  0  0  0  0  0  0  0  0  0  0  0
    6.2980    0.8658    1.9728 H   0  0  0  0  0  0  0  0  0  0  0  0
    7.5265    1.3981    0.7980 H   0  0  0  0  0  0  0  0  0  0  0  0
    7.0703   -0.5969   -0.6169 H   0  0  0  0  0  0  0  0  0  0  0  0
    5.4988   -2.3813    0.1448 H   0  0  0  0  0  0  0  0  0  0  0  0
    5.0701   -1.4122    1.5794 H   0  0  0  0  0  0  0  0  0  0  0  0
    2.0720    0.9019   -0.4769 H   0  0  0  0  0  0  0  0  0  0  0  0
    2.3081    2.2289   -2.5348 H   0  0  0  0  0  0  0  0  0  0  0  0
    4.0541    2.4818   -2.2444 H   0  0  0  0  0  0  0  0  0  0  0  0
    3.4085    0.8318   -2.5911 H   0  0  0  0  0  0  0  0  0  0  0  0
    1.7256    3.3508   -0.3520 H   0  0  0  0  0  0  0  0  0  0  0  0
    2.3510    2.7148    1.2030 H   0  0  0  0  0  0  0  0  0  0  0  0
    3.4357    3.6108    0.0904 H   0  0  0  0  0  0  0  0  0  0  0  0
    8.8016   -0.8146    1.1930 H   0  0  0  0  0  0  0  0  0  0  0  0
    7.5432   -1.3708    2.3400 H   0  0  0  0  0  0  0  0  0  0  0  0
    7.9637   -2.3762    0.9192 H   0  0  0  0  0  0  0  0  0  0  0  0
  1 16  1  0  0  0  0
  2  1  1  0  0  0  0
  2  4  1  0  0  0  0
  3  2  2  0  0  0  0
  5 17  1  6  0  0  0
  5  4  1  0  0  0  0
  5  6  1  0  0  0  0
  5 10  1  0  0  0  0
  6 18  1  1  0  0  0
  7  6  1  0  0  0  0
  7 19  1  0  0  0  0
  7  8  1  0  0  0  0
  8 21  1  0  0  0  0
  9 23  1  6  0  0  0
  9 10  1  0  0  0  0
  9  8  1  0  0  0  0
  9 14  1  0  0  0  0
 10 25  1  0  0  0  0
 11 26  1  0  0  0  0
 11 13  1  0  0  0  0
 11  6  1  0  0  0  0
 12 11  1  0  0  0  0
 13 31  1  0  0  0  0
 14 34  1  0  0  0  0
 15  1  1  0  0  0  0
 20  7  1  0  0  0  0
 22  8  1  0  0  0  0
 24 10  1  0  0  0  0
 27 12  1  0  0  0  0
 28 12  1  0  0  0  0
 29 12  1  0  0  0  0
 30 13  1  0  0  0  0
 32 13  1  0  0  0  0
 33 14  1  0  0  0  0
 35 14  1  0  0  0  0
M  END
