4
q = 0.0, confidence = 0.916

 22 22  0  0  1  0  0  0  0  0999 V2000
   -2.5058   -0.1366   -1.8020 O   0  0  0  0  0  0  0  0  0  0  0  0
   -1.8520    0.2236   -0.6937 C   0  0  0  0  0  0  0  0  0  0  0  0
   -1.8131   -0.4454    0.5871 C   0  0  0  0  0  0  0  0  0  0  0  0
   -1.0700    0.4179    1.5092 C   0  0  2  0  0  3  0  0  0  0  0  0
   -0.7170    1.6283    0.7707 C   0  0  0  0  0  0  0  0  0  0  0  0
   -1.1334    1.4634   -0.6052 C   0  0  0  0  0  0  0  0  0  0  0  0
   -2.6058   -1.6594    0.9634 C   0  0  0  0  0  0  0  0  0  0  0  0
   -0.0678   -0.1995    2.3359 C   0  0  0  0  0  3  0  0  0  0  0  0
   -0.1099    2.8598    1.3677 C   0  0  0  0  0  0  0  0  0  0  0  0
   -1.0582    2.4663   -1.7095 C   0  0  0  0  0  0  0  0  0  0  0  0
   -2.7519   -2.3603    0.1178 H   0  0  0  0  0  0  0  0  0  0  0  0
   -2.1285   -2.2268    1.7839 H   0  0  0  0  0  0  0  0  0  0  0  0
   -3.6058   -1.3356    1.3204 H   0  0  0  0  0  0  0  0  0  0  0  0
   -0.2745   -1.1810    2.7876 H   0  0  0  0  0  0  0  0  0  0  0  0
    0.5917    0.4516    2.9296 H   0  0  0  0  0  0  0  0  0  0  0  0
   -0.9245    3.5015    1.7663 H   0  0  0  0  0  0  0  0  0  0  0  0
    0.5621    2.6290    2.2157 H   0  0  0  0  0  0  0  0  0  0  0  0
    0.4445    3.4615    0.6235 H   0  0  0  0  0  0  0  0  0  0  0  0
   -1.0414    1.9713   -2.6986 H   0  0  0  0  0  0  0  0  0  0  0  0
   -0.1733    3.1237   -1.6166 H   0  0  0  0  0  0  0  0  0  0  0  0
   -1.9577    3.1177   -1.6851 H   0  0  0  0  0  0  0  0  0  0  0  0
   -2.9129   -1.0188   -1.6907 H   0  0  0  0  0  0  0  0  0  0  0  0
  1 22  1  0  0  0  0
  1  2  1  0  0  0  0
  2  6  1  0  0  0  0
  2  3  2  0  0  0  0
  3  7  1  0  0  0  0
  3  4  1  0  0  0  0
  4  8  1  6  0  0  0
  5  9  1  0  0  0  0
  5  4  1  0  0  0  0
  6  5  2  0  0  0  0
  7 13  1  0  0  0  0
  7 12  1  0  0  0  0
  8 14  1  0  0  0  0
  8 15  1  0  0  0  0
  9 16  1  0  0  0  0
  9 17  1  0  0  0  0
 10 21  1  0  0  0  0
 10 20  1  0  0  0  0
 10  6  1  0  0  0  0
 11  7  1  0  0  0  0
 18  9  1  0  0  0  0
 19 10  1  0  0  0  0
M  END
