2
q = -1.0, confidence = 0.018

 32 33  0  0  0  0  0  0  0  0999 V2000
    0.4700   -1.3650    1.4455 C   0  0  0  0  0  3  0  0  0  0  0  0
    0.1903   -2.3388    0.4247 C   0  0  0  0  0  3  0  0  0  0  0  0
   -1.2354   -2.7552    0.1535 C   0  0  0  0  0  0  0  0  0  0  0  0
   -2.1237   -1.5390    0.0619 C   0  0  0  0  0  0  0  0  0  0  0  0
   -1.5366   -0.3472   -0.2626 C   0  0  0  0  0  3  0  0  0  0  0  0
   -2.3772    0.8764   -0.3035 C   0  0  0  0  0  0  0  0  0  0  0  0
   -3.5790   -1.7359    0.3194 C   0  0  0  0  0  0  0  0  0  0  0  0
   -4.5656   -1.2628   -0.5764 C   0  0  0  0  0  0  0  0  0  0  0  0
   -5.9299   -1.4540   -0.3205 C   0  0  0  0  0  0  0  0  0  0  0  0
   -6.3473   -2.1245    0.8405 C   0  0  0  0  0  0  0  0  0  0  0  0
   -5.3828   -2.6074    1.7391 C   0  0  0  0  0  0  0  0  0  0  0  0
   -4.0181   -2.4210    1.4768 C   0  0  0  0  0  0  0  0  0  0  0  0
   -2.9299    1.3744    0.9014 C   0  0  0  0  0  0  0  0  0  0  0  0
   -3.7701    2.4958    0.9139 C   0  0  0  0  0  0  0  0  0  0  0  0
   -4.0843    3.1607   -0.2822 C   0  0  0  0  0  0  0  0  0  0  0  0
   -3.5416    2.6870   -1.4877 C   0  0  0  0  0  0  0  0  0  0  0  0
   -2.6997    1.5667   -1.4957 C   0  0  0  0  0  0  0  0  0  0  0  0
   -4.2500   -0.7330   -1.4860 H   0  0  0  0  0  0  0  0  0  0  0  0
   -6.6754   -1.0746   -1.0365 H   0  0  0  0  0  0  0  0  0  0  0  0
   -7.4192   -2.2716    1.0433 H   0  0  0  0  0  0  0  0  0  0  0  0
   -5.6958   -3.1321    2.6553 H   0  0  0  0  0  0  0  0  0  0  0  0
   -3.2725   -2.7927    2.1970 H   0  0  0  0  0  0  0  0  0  0  0  0
   -2.6922    0.8547    1.8403 H   0  0  0  0  0  0  0  0  0  0  0  0
   -4.1904    2.8488    1.8687 H   0  0  0  0  0  0  0  0  0  0  0  0
   -4.7484    4.0385   -0.2760 H   0  0  0  0  0  0  0  0  0  0  0  0
   -3.7829    3.1916   -2.4365 H   0  0  0  0  0  0  0  0  0  0  0  0
   -2.2999    1.2133   -2.4558 H   0  0  0  0  0  0  0  0  0  0  0  0
    0.9336   -3.1427    0.2990 H   0  0  0  0  0  0  0  0  0  0  0  0
   -1.3109   -3.3358   -0.7970 H   0  0  0  0  0  0  0  0  0  0  0  0
   -1.5935   -3.4577    0.9412 H   0  0  0  0  0  0  0  0  0  0  0  0
    1.3510   -1.5357    2.0851 H   0  0  0  0  0  0  0  0  0  0  0  0
   -0.3662   -0.8786    1.9705 H   0  0  0  0  0  0  0  0  0  0  0  0
  1 32  1  0  0  0  0
  1 31  1  0  0  0  0
  2  1  1  0  0  0  0
  3  2  1  0  0  0  0
  3 30  1  0  0  0  0
  4  3  1  0  0  0  0
  4  7  1  0  0  0  0
  5  4  2  0  0  0  0
  6  5  1  0  0  0  0
  6 13  1  0  0  0  0
  7 12  1  0  0  0  0
  8  9  1  0  0  0  0
  8  7  2  0  0  0  0
  9 10  2  0  0  0  0
 10 20  1  0  0  0  0
 10 11  1  0  0  0  0
 11 21  1  0  0  0  0
 12 11  2  0  0  0  0
 12 22  1  0  0  0  0
 13 14  2  0  0  0  0
 13 23  1  0  0  0  0
 14 24  1  0  0  0  0
 15 25  1  0  0  0  0
 15 14  1  0  0  0  0
 16 15  2  0  0  0  0
 17 16  1  0  0  0  0
 17  6  2  0  0  0  0
 18  8  1  0  0  0  0
 19  9  1  0  0  0  0
 26 16  1  0  0  0  0
 27 17  1  0  0  0  0
 28  2  1  0  0  0  0
 29  3  1  0  0  0  0
M  END
