2
q = 0.0, confidence = 0.998

 33 33  0  0  0  0  0  0  0  0999 V2000
    0.0946    0.7911    2.4711 N   0  0  0  0  0  0  0  0  0  0  0  0
    0.8665    0.6348    1.3441 C   0  0  0  0  0  2  0  0  0  0  0  0
    1.8930    1.5461    1.5212 N   0  0  0  0  0  0  0  0  0  0  0  0
   -1.1397    0.0773    2.8066 C   0  0  0  0  0  0  0  0  0  0  0  0
   -1.0737   -0.2002    3.8793 H   0  0  0  0  0  0  0  0  0  0  0  0
   -1.1458   -0.8556    2.2177 H   0  0  0  0  0  0  0  0  0  0  0  0
    3.0249    1.7493    0.6216 C   0  0  0  0  0  0  0  0  0  0  0  0
    2.9506    0.9521   -0.1422 H   0  0  0  0  0  0  0  0  0  0  0  0
    3.9608    1.5618    1.1894 H   0  0  0  0  0  0  0  0  0  0  0  0
   -2.4011    0.9007    2.5423 C   0  0  0  0  0  0  0  0  0  0  0  0
   -2.4863    1.0790    1.4501 H   0  0  0  0  0  0  0  0  0  0  0  0
   -2.2969    1.8999    3.0206 H   0  0  0  0  0  0  0  0  0  0  0  0
    4.2847    4.6425   -1.6936 C   0  0  0  0  0  0  0  0  0  0  0  0
    5.1109    4.6999   -2.4288 H   0  0  0  0  0  0  0  0  0  0  0  0
    4.4565    5.4339   -0.9358 H   0  0  0  0  0  0  0  0  0  0  0  0
    3.3439    4.8929   -2.2265 H   0  0  0  0  0  0  0  0  0  0  0  0
   -3.6680    0.2129    3.0586 C   0  0  0  0  0  0  0  0  0  0  0  0
   -3.6020    0.0986    4.1636 H   0  0  0  0  0  0  0  0  0  0  0  0
   -3.7124   -0.8181    2.6462 H   0  0  0  0  0  0  0  0  0  0  0  0
    0.6146    1.7698    3.3076 C   0  0  0  0  0  0  0  0  0  0  0  0
    0.1394    2.0339    4.2570 H   0  0  0  0  0  0  0  0  0  0  0  0
    4.2090    3.2607   -1.0447 C   0  0  0  0  0  0  0  0  0  0  0  0
    5.1754    3.0234   -0.5479 H   0  0  0  0  0  0  0  0  0  0  0  0
    4.0820    2.4806   -1.8301 H   0  0  0  0  0  0  0  0  0  0  0  0
    3.0740    3.1360   -0.0231 C   0  0  0  0  0  0  0  0  0  0  0  0
    3.1888    3.9161    0.7604 H   0  0  0  0  0  0  0  0  0  0  0  0
    2.0974    3.3539   -0.5087 H   0  0  0  0  0  0  0  0  0  0  0  0
    1.7484    2.2450    2.7112 C   0  0  0  0  0  0  0  0  0  0  0  0
    2.4660    3.0035    3.0375 H   0  0  0  0  0  0  0  0  0  0  0  0
   -4.9432    0.9681    2.6842 C   0  0  0  0  0  0  0  0  0  0  0  0
   -5.0548    1.0401    1.5827 H   0  0  0  0  0  0  0  0  0  0  0  0
   -4.9353    2.0014    3.0889 H   0  0  0  0  0  0  0  0  0  0  0  0
   -5.8451    0.4621    3.0816 H   0  0  0  0  0  0  0  0  0  0  0  0
  1  4  1  0  0  0  0
  1 20  1  0  0  0  0
  2  3  1  0  0  0  0
  2  1  1  0  0  0  0
  3 28  1  0  0  0  0
  4  5  1  0  0  0  0
  6  4  1  0  0  0  0
  7  9  1  0  0  0  0
  7  3  1  0  0  0  0
  8  7  1  0  0  0  0
 10  4  1  0  0  0  0
 10 12  1  0  0  0  0
 10 17  1  0  0  0  0
 11 10  1  0  0  0  0
 13 22  1  0  0  0  0
 13 15  1  0  0  0  0
 14 13  1  0  0  0  0
 16 13  1  0  0  0  0
 17 18  1  0  0  0  0
 19 17  1  0  0  0  0
 20 21  1  0  0  0  0
 22 23  1  0  0  0  0
 22 25  1  0  0  0  0
 24 22  1  0  0  0  0
 25  7  1  0  0  0  0
 25 26  1  0  0  0  0
 27 25  1  0  0  0  0
 28 29  1  0  0  0  0
 28 20  2  0  0  0  0
 30 17  1  0  0  0  0
 30 33  1  0  0  0  0
 30 32  1  0  0  0  0
 31 30  1  0  0  0  0
M  END
