5
q = -1.0, confidence = 0.0

 36 36  0  0  0  0  0  0  0  0999 V2000
    4.7542   -0.6462   -0.0243 N   0  0  0  0  0  0  0  0  0  0  0  0
    2.1332    0.6289   -1.1176 C   0  0  0  0  0  0  0  0  0  0  0  0
    1.3010    1.4212   -1.9684 C   0  0  0  0  0  0  0  0  0  0  0  0
    0.9947    2.6389   -1.3089 C   0  0  0  0  0  0  0  0  0  0  0  0
    1.6543    2.6210   -0.0371 C   0  0  0  0  0  3  0  0  0  0  0  0
    2.3556    1.3923    0.0716 C   0  0  0  0  0  0  0  0  0  0  0  0
    2.6580   -0.7439   -1.4101 C   0  0  0  0  0  0  0  0  0  0  0  0
    4.1946   -0.8535   -1.3502 C   0  0  0  0  0  0  0  0  0  0  0  0
    4.4987   -1.7361    0.9320 C   0  0  0  0  0  0  0  0  0  0  0  0
    4.4512   -1.2227    2.3761 C   0  0  0  0  0  0  0  0  0  0  0  0
    5.4357   -2.9527    0.7986 C   0  0  0  0  0  0  0  0  0  0  0  0
    6.0817   -0.0093    0.0175 C   0  0  0  0  0  0  0  0  0  0  0  0
    5.9573    1.5128   -0.1472 C   0  0  0  0  0  0  0  0  0  0  0  0
    7.1200   -0.5806   -0.9708 C   0  0  0  0  0  0  0  0  0  0  0  0
    0.9184    1.1065   -2.9454 H   0  0  0  0  0  0  0  0  0  0  0  0
    0.3989    3.4603   -1.7198 H   0  0  0  0  0  0  0  0  0  0  0  0
    1.6582    3.4293    0.7015 H   0  0  0  0  0  0  0  0  0  0  0  0
    2.9541    1.0515    0.9195 H   0  0  0  0  0  0  0  0  0  0  0  0
    2.3136   -1.0579   -2.4152 H   0  0  0  0  0  0  0  0  0  0  0  0
    2.1992   -1.4602   -0.6970 H   0  0  0  0  0  0  0  0  0  0  0  0
    4.4823   -1.8437   -1.7917 H   0  0  0  0  0  0  0  0  0  0  0  0
    4.6215   -0.0885   -2.0304 H   0  0  0  0  0  0  0  0  0  0  0  0
    3.4700   -2.0862    0.7036 H   0  0  0  0  0  0  0  0  0  0  0  0
    5.4243   -0.7993    2.7018 H   0  0  0  0  0  0  0  0  0  0  0  0
    4.2063   -2.0511    3.0708 H   0  0  0  0  0  0  0  0  0  0  0  0
    3.6688   -0.4476    2.4902 H   0  0  0  0  0  0  0  0  0  0  0  0
    5.0816   -3.7900    1.4339 H   0  0  0  0  0  0  0  0  0  0  0  0
    6.4696   -2.7086    1.1203 H   0  0  0  0  0  0  0  0  0  0  0  0
    5.4784   -3.3231   -0.2459 H   0  0  0  0  0  0  0  0  0  0  0  0
    6.4725   -0.1943    1.0400 H   0  0  0  0  0  0  0  0  0  0  0  0
    6.9517    2.0030   -0.1083 H   0  0  0  0  0  0  0  0  0  0  0  0
    5.3202    1.9444    0.6487 H   0  0  0  0  0  0  0  0  0  0  0  0
    5.4947    1.7728   -1.1223 H   0  0  0  0  0  0  0  0  0  0  0  0
    8.1181   -0.1349   -0.7829 H   0  0  0  0  0  0  0  0  0  0  0  0
    6.8533   -0.3493   -2.0225 H   0  0  0  0  0  0  0  0  0  0  0  0
    7.2165   -1.6791   -0.8805 H   0  0  0  0  0  0  0  0  0  0  0  0
  1 12  1  0  0  0  0
  1  9  1  0  0  0  0
  2  6  2  0  0  0  0
  3  4  2  0  0  0  0
  3  2  1  0  0  0  0
  4  5  1  0  0  0  0
  5  6  1  0  0  0  0
  5 17  1  0  0  0  0
  6 18  1  0  0  0  0
  7  8  1  0  0  0  0
  7  2  1  0  0  0  0
  7 20  1  0  0  0  0
  8  1  1  0  0  0  0
  9 10  1  0  0  0  0
 10 26  1  0  0  0  0
 10 24  1  0  0  0  0
 10 25  1  0  0  0  0
 11  9  1  0  0  0  0
 11 28  1  0  0  0  0
 11 27  1  0  0  0  0
 12 30  1  0  0  0  0
 13 31  1  0  0  0  0
 13 12  1  0  0  0  0
 13 32  1  0  0  0  0
 14 36  1  0  0  0  0
 14 34  1  0  0  0  0
 14 12  1  0  0  0  0
 15  3  1  0  0  0  0
 16  4  1  0  0  0  0
 19  7  1  0  0  0  0
 21  8  1  0  0  0  0
 22  8  1  0  0  0  0
 23  9  1  0  0  0  0
 29 11  1  0  0  0  0
 33 13  1  0  0  0  0
 35 14  1  0  0  0  0
M  END
