3
q = -1.0, confidence = 0.004

 28 29  0  0  0  0  0  0  0  0999 V2000
   -1.4464   -1.3881   -0.0003 S   0  0  0  0  0  0  0  0  0  0  0  0
   -0.1037    0.7859   -1.2182 C   0  0  0  0  0  3  0  0  0  0  0  0
   -0.4073    0.0830    0.0002 C   0  0  0  0  0  3  0  0  0  0  0  0
   -0.1026    0.7848    1.2190 C   0  0  0  0  0  3  0  0  0  0  0  0
   -0.4305    2.2673    1.2842 C   0  0  0  0  0  0  0  0  0  0  0  0
   -0.0639    3.0263    0.0014 C   0  0  0  0  0  0  0  0  0  0  0  0
   -0.4314    2.2685   -1.2818 C   0  0  0  0  0  0  0  0  0  0  0  0
   -3.0878   -0.6329   -0.0001 C   0  0  0  0  0  0  0  0  0  0  0  0
   -3.6974   -0.3338    1.2273 C   0  0  0  0  0  0  0  0  0  0  0  0
   -4.9497    0.2984    1.2196 C   0  0  0  0  0  0  0  0  0  0  0  0
   -5.5712    0.6174    0.0003 C   0  0  0  0  0  0  0  0  0  0  0  0
   -4.9503    0.2979   -1.2191 C   0  0  0  0  0  0  0  0  0  0  0  0
   -3.6980   -0.3342   -1.2272 C   0  0  0  0  0  0  0  0  0  0  0  0
   -1.2868   -2.1011    1.2966 O   0  0  0  0  0  0  0  0  0  0  0  0
   -1.2869   -2.1003   -1.2977 O   0  0  0  0  0  0  0  0  0  0  0  0
   -0.2576    0.2137   -2.1497 H   0  0  0  0  0  0  0  0  0  0  0  0
   -0.2557    0.2116    2.1500 H   0  0  0  0  0  0  0  0  0  0  0  0
    0.0662    2.7371    2.1578 H   0  0  0  0  0  0  0  0  0  0  0  0
   -1.5274    2.3413    1.4737 H   0  0  0  0  0  0  0  0  0  0  0  0
   -0.5479    4.0243    0.0020 H   0  0  0  0  0  0  0  0  0  0  0  0
    1.0286    3.2154    0.0011 H   0  0  0  0  0  0  0  0  0  0  0  0
    0.0646    2.7391   -2.1554 H   0  0  0  0  0  0  0  0  0  0  0  0
   -1.5285    2.3426   -1.4704 H   0  0  0  0  0  0  0  0  0  0  0  0
   -3.1940   -0.6120    2.1644 H   0  0  0  0  0  0  0  0  0  0  0  0
   -5.4465    0.5380    2.1717 H   0  0  0  0  0  0  0  0  0  0  0  0
   -6.5532    1.1139    0.0005 H   0  0  0  0  0  0  0  0  0  0  0  0
   -5.4476    0.5372   -2.1711 H   0  0  0  0  0  0  0  0  0  0  0  0
   -3.1950   -0.6128   -2.1645 H   0  0  0  0  0  0  0  0  0  0  0  0
  1  8  1  0  0  0  0
  1  3  1  0  0  0  0
  1 14  2  0  0  0  0
  2  3  1  0  0  0  0
  3  4  1  0  0  0  0
  4  5  1  0  0  0  0
  4 17  1  0  0  0  0
  5 19  1  0  0  0  0
  5 18  1  0  0  0  0
  6 20  1  0  0  0  0
  6  5  1  0  0  0  0
  7  2  1  0  0  0  0
  7  6  1  0  0  0  0
  8  9  1  0  0  0  0
  9 24  1  0  0  0  0
 10  9  2  0  0  0  0
 10 25  1  0  0  0  0
 11 26  1  0  0  0  0
 11 10  1  0  0  0  0
 12 11  2  0  0  0  0
 13 12  1  0  0  0  0
 13  8  2  0  0  0  0
 15  1  2  0  0  0  0
 16  2  1  0  0  0  0
 21  6  1  0  0  0  0
 22  7  1  0  0  0  0
 23  7  1  0  0  0  0
 27 12  1  0  0  0  0
 28 13  1  0  0  0  0
M  END
