2
q = 0.0, confidence = 0.998

 23 24  0  0  0  0  0  0  0  0999 V2000
   -0.8275   -1.1380    0.0010 N   0  0  0  0  0  2  0  0  0  0  0  0
    0.3196   -0.8443   -0.0384 C   0  0  0  0  0  1  0  0  0  0  0  0
   -2.1762   -1.4082    0.0453 C   0  0  0  0  0  0  0  0  0  0  0  0
   -2.5921   -2.7575    0.0287 C   0  0  0  0  0  0  0  0  0  0  0  0
   -1.8278   -3.5468    0.0059 H   0  0  0  0  0  0  0  0  0  0  0  0
   -3.9552   -3.0653    0.0280 C   0  0  0  0  0  0  0  0  0  0  0  0
   -4.2772   -4.1168    0.0176 H   0  0  0  0  0  0  0  0  0  0  0  0
   -4.9026   -2.0285    0.0372 C   0  0  0  0  0  0  0  0  0  0  0  0
   -5.9774   -2.2630    0.0384 H   0  0  0  0  0  0  0  0  0  0  0  0
   -4.4839   -0.6916    0.0557 C   0  0  0  0  0  0  0  0  0  0  0  0
   -5.2294    0.1168    0.0845 H   0  0  0  0  0  0  0  0  0  0  0  0
   -3.1185   -0.3382    0.0681 C   0  0  0  0  0  0  0  0  0  0  0  0
   -2.7069    1.0880    0.0787 C   0  0  0  0  0  0  0  0  0  0  0  0
   -3.3100    1.9983   -0.8181 C   0  0  0  0  0  0  0  0  0  0  0  0
   -4.0570    1.6313   -1.5384 H   0  0  0  0  0  0  0  0  0  0  0  0
   -2.9416    3.3504   -0.8199 C   0  0  0  0  0  0  0  0  0  0  0  0
   -3.4121    4.0427   -1.5343 H   0  0  0  0  0  0  0  0  0  0  0  0
   -1.9683    3.8172    0.0773 C   0  0  0  0  0  0  0  0  0  0  0  0
   -1.6747    4.8776    0.0724 H   0  0  0  0  0  0  0  0  0  0  0  0
   -1.3698    2.9247    0.9806 C   0  0  0  0  0  0  0  0  0  0  0  0
   -0.6117    3.2834    1.6927 H   0  0  0  0  0  0  0  0  0  0  0  0
   -1.7349    1.5720    0.9829 C   0  0  0  0  0  0  0  0  0  0  0  0
   -1.2729    0.8884    1.7099 H   0  0  0  0  0  0  0  0  0  0  0  0
  1  3  1  0  0  0  0
  2  1  1  0  0  0  0
  3 12  1  0  0  0  0
  4  3  2  0  0  0  0
  5  4  1  0  0  0  0
  6  4  1  0  0  0  0
  6  8  2  0  0  0  0
  7  6  1  0  0  0  0
  8  9  1  0  0  0  0
  8 10  1  0  0  0  0
 10 12  2  0  0  0  0
 10 11  1  0  0  0  0
 12 13  1  0  0  0  0
 13 22  1  0  0  0  0
 14 13  2  0  0  0  0
 15 14  1  0  0  0  0
 16 14  1  0  0  0  0
 16 18  2  0  0  0  0
 17 16  1  0  0  0  0
 18 20  1  0  0  0  0
 19 18  1  0  0  0  0
 20 22  2  0  0  0  0
 20 21  1  0  0  0  0
 22 23  1  0  0  0  0
M  END
