3
q = 0.0, confidence = 0.988

 75 77  0  0  0  0  0  0  0  0999 V2000
    1.7003   -0.2031   -1.1651 N   0  0  0  0  0  0  0  0  0  0  0  0
    2.3367    0.6147   -1.0929 H   0  0  0  0  0  0  0  0  0  0  0  0
    0.3800    0.0049   -0.9572 C   0  0  0  0  0  2  0  0  0  0  0  0
   -0.0720    1.2698   -1.1554 N   0  0  0  0  0  0  0  0  0  0  0  0
    0.6966    2.2808   -1.8804 C   0  0  0  0  0  0  0  0  0  0  0  0
   -0.0228    2.9695   -2.3630 H   0  0  0  0  0  0  0  0  0  0  0  0
    1.2790    1.7948   -2.6914 H   0  0  0  0  0  0  0  0  0  0  0  0
    1.6865    3.1383   -1.0732 C   0  0  0  0  0  0  0  0  0  0  0  0
    1.2037    3.5601   -0.1538 H   0  0  0  0  0  0  0  0  0  0  0  0
    2.7648    2.3243   -0.7177 O   0  0  0  0  0  0  0  0  0  0  0  0
    3.6975    2.9203    0.1806 C   0  0  0  0  0  0  0  0  0  0  0  0
    4.1854    3.7989   -0.2890 H   0  0  0  0  0  0  0  0  0  0  0  0
    4.4487    2.1474    0.4224 H   0  0  0  0  0  0  0  0  0  0  0  0
    3.1926    3.2312    1.1221 H   0  0  0  0  0  0  0  0  0  0  0  0
    2.1648    4.1965   -1.8787 O   0  0  0  0  0  0  0  0  0  0  0  0
    1.4088    5.3872   -1.7930 C   0  0  0  0  0  0  0  0  0  0  0  0
    0.3723    5.2695   -2.1900 H   0  0  0  0  0  0  0  0  0  0  0  0
    1.9264    6.1505   -2.4045 H   0  0  0  0  0  0  0  0  0  0  0  0
    1.3331    5.7578   -0.7428 H   0  0  0  0  0  0  0  0  0  0  0  0
   -1.4526    1.6248   -0.7557 C   0  0  0  0  0  0  0  0  0  0  0  0
   -1.8221    0.7025   -0.2655 H   0  0  0  0  0  0  0  0  0  0  0  0
   -2.3769    1.8847   -1.9604 C   0  0  0  0  0  0  0  0  0  0  0  0
   -2.2333    2.9179   -2.3478 H   0  0  0  0  0  0  0  0  0  0  0  0
   -2.0875    1.1896   -2.7776 H   0  0  0  0  0  0  0  0  0  0  0  0
   -3.8579    1.6636   -1.6064 C   0  0  0  0  0  0  0  0  0  0  0  0
   -4.4943    2.0931   -2.4087 H   0  0  0  0  0  0  0  0  0  0  0  0
   -4.0976    2.2593   -0.6994 H   0  0  0  0  0  0  0  0  0  0  0  0
   -4.2353    0.1880   -1.3782 C   0  0  0  0  0  0  0  0  0  0  0  0
   -4.4381   -0.2900   -2.3601 H   0  0  0  0  0  0  0  0  0  0  0  0
   -3.3672   -0.3751   -0.9707 H   0  0  0  0  0  0  0  0  0  0  0  0
   -5.4401   -0.0283   -0.4475 C   0  0  0  0  0  0  0  0  0  0  0  0
   -6.3251    0.5049   -0.8612 H   0  0  0  0  0  0  0  0  0  0  0  0
   -5.6999   -1.1087   -0.4558 H   0  0  0  0  0  0  0  0  0  0  0  0
   -5.2185    0.4204    1.0072 C   0  0  0  0  0  0  0  0  0  0  0  0
   -6.1842    0.3648    1.5560 H   0  0  0  0  0  0  0  0  0  0  0  0
   -4.9489    1.5004    1.0171 H   0  0  0  0  0  0  0  0  0  0  0  0
   -4.1591   -0.3851    1.7715 C   0  0  0  0  0  0  0  0  0  0  0  0
   -3.2694   -0.5601    1.1306 H   0  0  0  0  0  0  0  0  0  0  0  0
   -4.5444   -1.4079    1.9650 H   0  0  0  0  0  0  0  0  0  0  0  0
   -3.7060    0.2596    3.0912 C   0  0  0  0  0  0  0  0  0  0  0  0
   -4.5993    0.5157    3.7030 H   0  0  0  0  0  0  0  0  0  0  0  0
   -3.1327   -0.4862    3.6837 H   0  0  0  0  0  0  0  0  0  0  0  0
   -2.8424    1.5191    2.9027 C   0  0  0  0  0  0  0  0  0  0  0  0
   -2.7746    2.0807    3.8594 H   0  0  0  0  0  0  0  0  0  0  0  0
   -3.3686    2.2058    2.2040 H   0  0  0  0  0  0  0  0  0  0  0  0
   -1.4227    1.2326    2.3822 C   0  0  0  0  0  0  0  0  0  0  0  0
   -0.7703    0.9502    3.2365 H   0  0  0  0  0  0  0  0  0  0  0  0
   -1.4320    0.3311    1.7299 H   0  0  0  0  0  0  0  0  0  0  0  0
   -0.7707    2.3959    1.6170 C   0  0  0  0  0  0  0  0  0  0  0  0
   -0.7529    3.3032    2.2604 H   0  0  0  0  0  0  0  0  0  0  0  0
    0.2936    2.1410    1.4190 H   0  0  0  0  0  0  0  0  0  0  0  0
   -1.4604    2.7510    0.2891 C   0  0  0  0  0  0  0  0  0  0  0  0
   -1.0132    3.6731   -0.1447 H   0  0  0  0  0  0  0  0  0  0  0  0
   -2.5206    3.0151    0.4801 H   0  0  0  0  0  0  0  0  0  0  0  0
    2.3108   -1.4878   -1.0871 C   0  0  0  0  0  0  0  0  0  0  0  0
    1.9892   -2.4649   -2.0454 C   0  0  0  0  0  0  0  0  0  0  0  0
    1.2436   -2.2220   -2.8156 H   0  0  0  0  0  0  0  0  0  0  0  0
    2.6191   -3.7152   -2.0206 C   0  0  0  0  0  0  0  0  0  0  0  0
    2.3510   -4.4772   -2.7671 H   0  0  0  0  0  0  0  0  0  0  0  0
    3.5952   -3.9831   -1.0487 C   0  0  0  0  0  0  0  0  0  0  0  0
    4.0995   -4.9606   -1.0243 H   0  0  0  0  0  0  0  0  0  0  0  0
    3.9125   -3.0114   -0.0909 C   0  0  0  0  0  0  0  0  0  0  0  0
    4.6440   -3.2372    0.6996 H   0  0  0  0  0  0  0  0  0  0  0  0
    3.2663   -1.7563   -0.0737 C   0  0  0  0  0  0  0  0  0  0  0  0
    3.5466   -0.7938    1.0260 C   0  0  0  0  0  0  0  0  0  0  0  0
    4.8745   -0.4847    1.3954 C   0  0  0  0  0  0  0  0  0  0  0  0
    5.7064   -0.9153    0.8168 H   0  0  0  0  0  0  0  0  0  0  0  0
    5.1405    0.3644    2.4813 C   0  0  0  0  0  0  0  0  0  0  0  0
    6.1825    0.5917    2.7538 H   0  0  0  0  0  0  0  0  0  0  0  0
    4.0823    0.9222    3.2160 C   0  0  0  0  0  0  0  0  0  0  0  0
    4.2898    1.5848    4.0700 H   0  0  0  0  0  0  0  0  0  0  0  0
    2.7569    0.6210    2.8592 C   0  0  0  0  0  0  0  0  0  0  0  0
    1.9188    1.0372    3.4394 H   0  0  0  0  0  0  0  0  0  0  0  0
    2.4891   -0.2278    1.7768 C   0  0  0  0  0  0  0  0  0  0  0  0
    1.4489   -0.4899    1.5283 H   0  0  0  0  0  0  0  0  0  0  0  0
  1  2  1  0  0  0  0
  1 55  1  0  0  0  0
  1  3  1  0  0  0  0
  4  3  1  0  0  0  0
  4 20  1  0  0  0  0
  5  4  1  0  0  0  0
  5  8  1  0  0  0  0
  6  5  1  0  0  0  0
  7  5  1  0  0  0  0
  8 10  1  0  0  0  0
  8  9  1  0  0  0  0
 10 11  1  0  0  0  0
 11 13  1  0  0  0  0
 11 14  1  0  0  0  0
 12 11  1  0  0  0  0
 15 16  1  0  0  0  0
 15  8  1  0  0  0  0
 16 19  1  0  0  0  0
 17 16  1  0  0  0  0
 18 16  1  0  0  0  0
 20 21  1  0  0  0  0
 20 52  1  0  0  0  0
 22 25  1  0  0  0  0
 22 20  1  0  0  0  0
 23 22  1  0  0  0  0
 24 22  1  0  0  0  0
 25 28  1  0  0  0  0
 25 27  1  0  0  0  0
 26 25  1  0  0  0  0
 28 30  1  0  0  0  0
 28 31  1  0  0  0  0
 29 28  1  0  0  0  0
 31 34  1  0  0  0  0
 32 31  1  0  0  0  0
 33 31  1  0  0  0  0
 34 36  1  0  0  0  0
 34 35  1  0  0  0  0
 34 37  1  0  0  0  0
 37 39  1  0  0  0  0
 37 40  1  0  0  0  0
 38 37  1  0  0  0  0
 40 42  1  0  0  0  0
 40 41  1  0  0  0  0
 43 40  1  0  0  0  0
 43 44  1  0  0  0  0
 45 43  1  0  0  0  0
 46 43  1  0  0  0  0
 46 47  1  0  0  0  0
 48 46  1  0  0  0  0
 49 50  1  0  0  0  0
 49 46  1  0  0  0  0
 51 49  1  0  0  0  0
 52 54  1  0  0  0  0
 52 49  1  0  0  0  0
 53 52  1  0  0  0  0
 55 64  1  0  0  0  0
 56 58  1  0  0  0  0
 56 55  2  0  0  0  0
 57 56  1  0  0  0  0
 58 60  2  0  0  0  0
 59 58  1  0  0  0  0
 60 61  1  0  0  0  0
 60 62  1  0  0  0  0
 62 64  2  0  0  0  0
 62 63  1  0  0  0  0
 64 65  1  0  0  0  0
 65 66  2  0  0  0  0
 65 74  1  0  0  0  0
 66 68  1  0  0  0  0
 67 66  1  0  0  0  0
 68 69  1  0  0  0  0
 68 70  2  0  0  0  0
 70 71  1  0  0  0  0
 72 70  1  0  0  0  0
 72 73  1  0  0  0  0
 74 72  2  0  0  0  0
 75 74  1  0  0  0  0
M  END
