1
q = 0.0, confidence = 0.996

 43 45  0  0  0  0  0  0  0  0999 V2000
    0.5769   -0.7252    0.1322 C   0  0  0  0  0  2  0  0  0  0  0  0
    1.6845   -1.5151    0.2684 N   0  0  0  0  0  0  0  0  0  0  0  0
    1.3334   -2.8159    0.6033 C   0  0  0  0  0  0  0  0  0  0  0  0
    2.0732   -3.6039    0.7692 H   0  0  0  0  0  0  0  0  0  0  0  0
   -0.0332   -2.8502    0.6797 C   0  0  0  0  0  0  0  0  0  0  0  0
   -0.7191   -3.6602    0.9405 H   0  0  0  0  0  0  0  0  0  0  0  0
   -0.4849   -1.5653    0.3931 N   0  0  0  0  0  0  0  0  0  0  0  0
    3.0583   -1.0258    0.0897 C   0  0  0  0  0  0  0  0  0  0  0  0
    2.9267    0.0306   -0.2315 H   0  0  0  0  0  0  0  0  0  0  0  0
    3.7955   -1.7878   -1.0196 C   0  0  0  0  0  0  0  0  0  0  0  0
    3.2090   -1.7279   -1.9595 H   0  0  0  0  0  0  0  0  0  0  0  0
    3.8638   -2.8652   -0.7473 H   0  0  0  0  0  0  0  0  0  0  0  0
    5.2086   -1.2214   -1.2129 C   0  0  0  0  0  0  0  0  0  0  0  0
    5.7417   -1.7988   -1.9959 H   0  0  0  0  0  0  0  0  0  0  0  0
    5.1311   -0.1785   -1.5924 H   0  0  0  0  0  0  0  0  0  0  0  0
    6.0022   -1.2260    0.1003 C   0  0  0  0  0  0  0  0  0  0  0  0
    6.1739   -2.2786    0.4210 H   0  0  0  0  0  0  0  0  0  0  0  0
    7.0063   -0.7800   -0.0550 H   0  0  0  0  0  0  0  0  0  0  0  0
    5.2517   -0.4760    1.2087 C   0  0  0  0  0  0  0  0  0  0  0  0
    5.1772    0.6008    0.9389 H   0  0  0  0  0  0  0  0  0  0  0  0
    5.8154   -0.5194    2.1632 H   0  0  0  0  0  0  0  0  0  0  0  0
    3.8381   -1.0368    1.4122 C   0  0  0  0  0  0  0  0  0  0  0  0
    3.9015   -2.0811    1.7934 H   0  0  0  0  0  0  0  0  0  0  0  0
    3.2804   -0.4480    2.1694 H   0  0  0  0  0  0  0  0  0  0  0  0
   -1.8685   -1.1944    0.3351 C   0  0  0  0  0  0  0  0  0  0  0  0
   -2.7871   -2.0934   -0.2137 C   0  0  0  0  0  0  0  0  0  0  0  0
   -2.4832   -3.0621   -0.6303 H   0  0  0  0  0  0  0  0  0  0  0  0
   -4.1484   -1.7155   -0.2872 C   0  0  0  0  0  0  0  0  0  0  0  0
   -4.5595   -0.4475    0.1509 C   0  0  0  0  0  0  0  0  0  0  0  0
   -5.5987   -0.1047    0.0800 H   0  0  0  0  0  0  0  0  0  0  0  0
   -3.6070    0.4497    0.6866 C   0  0  0  0  0  0  0  0  0  0  0  0
   -2.2604    0.0665    0.8183 C   0  0  0  0  0  0  0  0  0  0  0  0
   -1.5132    0.7330    1.2633 H   0  0  0  0  0  0  0  0  0  0  0  0
   -4.9821   -2.6444   -0.8270 O   0  0  0  0  0  0  0  0  0  0  0  0
   -6.3514   -2.3138   -0.9694 C   0  0  0  0  0  0  0  0  0  0  0  0
   -6.8394   -3.1938   -1.4276 H   0  0  0  0  0  0  0  0  0  0  0  0
   -6.4969   -1.4318   -1.6324 H   0  0  0  0  0  0  0  0  0  0  0  0
   -6.8308   -2.1032    0.0127 H   0  0  0  0  0  0  0  0  0  0  0  0
   -4.0780    1.6633    1.0557 O   0  0  0  0  0  0  0  0  0  0  0  0
   -3.1422    2.6491    1.4843 C   0  0  0  0  0  0  0  0  0  0  0  0
   -3.7276    3.5702    1.6582 H   0  0  0  0  0  0  0  0  0  0  0  0
   -2.3614    2.8476    0.7170 H   0  0  0  0  0  0  0  0  0  0  0  0
   -2.6461    2.3542    2.4354 H   0  0  0  0  0  0  0  0  0  0  0  0
  1  2  1  0  0  0  0
  1  7  1  0  0  0  0
  2  3  1  0  0  0  0
  3  5  2  0  0  0  0
  3  4  1  0  0  0  0
  5  6  1  0  0  0  0
  7  5  1  0  0  0  0
  8  2  1  0  0  0  0
  8 22  1  0  0  0  0
  9  8  1  0  0  0  0
 10 12  1  0  0  0  0
 10  8  1  0  0  0  0
 11 10  1  0  0  0  0
 13 10  1  0  0  0  0
 13 16  1  0  0  0  0
 14 13  1  0  0  0  0
 15 13  1  0  0  0  0
 16 17  1  0  0  0  0
 16 19  1  0  0  0  0
 18 16  1  0  0  0  0
 19 22  1  0  0  0  0
 19 21  1  0  0  0  0
 20 19  1  0  0  0  0
 22 23  1  0  0  0  0
 22 24  1  0  0  0  0
 25  7  1  0  0  0  0
 25 32  1  0  0  0  0
 26 25  2  0  0  0  0
 27 26  1  0  0  0  0
 28 26  1  0  0  0  0
 28 29  2  0  0  0  0
 29 31  1  0  0  0  0
 30 29  1  0  0  0  0
 31 32  2  0  0  0  0
 31 39  1  0  0  0  0
 32 33  1  0  0  0  0
 34 28  1  0  0  0  0
 35 34  1  0  0  0  0
 35 38  1  0  0  0  0
 36 35  1  0  0  0  0
 37 35  1  0  0  0  0
 39 40  1  0  0  0  0
 40 41  1  0  0  0  0
 40 43  1  0  0  0  0
 42 40  1  0  0  0  0
M  END
