1
q = 0.0, confidence = 1.0

 63 66  0  0  1  0  0  0  0  0999 V2000
    0.0717   -0.3442   -0.4578 C   0  0  0  0  0  2  0  0  0  0  0  0
   -1.0776   -0.9154   -0.9431 N   0  0  0  0  0  0  0  0  0  0  0  0
   -0.8284   -2.2037   -1.4038 C   0  0  0  0  0  0  0  0  0  0  0  0
   -1.6031   -2.8311   -1.8511 H   0  0  0  0  0  0  0  0  0  0  0  0
    0.5040   -2.4524   -1.1971 C   0  0  0  0  0  0  0  0  0  0  0  0
    1.1199   -3.3294   -1.4138 H   0  0  0  0  0  0  0  0  0  0  0  0
    1.0333   -1.3075   -0.6136 N   0  0  0  0  0  0  0  0  0  0  0  0
   -2.3738   -0.2359   -0.8774 C   0  0  2  0  0  0  0  0  0  0  0  0
   -2.0963    0.8335   -0.8096 H   0  0  0  0  0  0  0  0  0  0  0  0
   -3.2431   -0.5834    0.3774 C   0  0  2  0  0  0  0  0  0  0  0  0
   -3.5232   -2.1066    0.3625 C   0  0  0  0  0  0  0  0  0  0  0  0
   -3.9931   -2.4079    1.3194 H   0  0  0  0  0  0  0  0  0  0  0  0
   -2.5881   -2.6961    0.2909 H   0  0  0  0  0  0  0  0  0  0  0  0
   -4.4874   -2.3066   -0.8430 C   0  0  0  0  0  0  0  0  0  0  0  0
   -4.0824   -2.9919   -1.6164 H   0  0  0  0  0  0  0  0  0  0  0  0
   -5.4573   -2.7356   -0.5240 H   0  0  0  0  0  0  0  0  0  0  0  0
   -4.6544   -0.8721   -1.3930 C   0  0  2  0  0  0  0  0  0  0  0  0
   -5.5446   -0.7338   -2.0380 H   0  0  0  0  0  0  0  0  0  0  0  0
   -3.3258   -0.4902   -2.0796 C   0  0  0  0  0  0  0  0  0  0  0  0
   -3.4175    0.4208   -2.7016 H   0  0  0  0  0  0  0  0  0  0  0  0
   -2.9636   -1.2929   -2.7513 H   0  0  0  0  0  0  0  0  0  0  0  0
   -4.6328   -0.0003   -0.0973 C   0  0  0  0  0  0  0  0  0  0  0  0
   -5.7880   -0.2950    0.8717 C   0  0  0  0  0  0  0  0  0  0  0  0
   -5.6783    0.3023    1.7995 H   0  0  0  0  0  0  0  0  0  0  0  0
   -5.8666   -1.3572    1.1682 H   0  0  0  0  0  0  0  0  0  0  0  0
   -6.7537   -0.0059    0.4088 H   0  0  0  0  0  0  0  0  0  0  0  0
   -4.6412    1.5152   -0.3564 C   0  0  0  0  0  0  0  0  0  0  0  0
   -4.4747    2.0725    0.5875 H   0  0  0  0  0  0  0  0  0  0  0  0
   -5.6301    1.8257   -0.7510 H   0  0  0  0  0  0  0  0  0  0  0  0
   -3.8792    1.8627   -1.0784 H   0  0  0  0  0  0  0  0  0  0  0  0
   -2.6716   -0.0663    1.6868 C   0  0  0  0  0  0  0  0  0  0  0  0
   -2.4796    1.0249    1.6533 H   0  0  0  0  0  0  0  0  0  0  0  0
   -1.7008   -0.5501    1.9189 H   0  0  0  0  0  0  0  0  0  0  0  0
   -3.3605   -0.2791    2.5292 H   0  0  0  0  0  0  0  0  0  0  0  0
    2.3991   -1.1571   -0.1812 C   0  0  0  0  0  0  0  0  0  0  0  0
    2.7290   -1.5623    1.1344 C   0  0  0  0  0  0  0  0  0  0  0  0
    4.0661   -1.4023    1.5418 C   0  0  0  0  0  0  0  0  0  0  0  0
    4.3587   -1.6979    2.5603 H   0  0  0  0  0  0  0  0  0  0  0  0
    5.0244   -0.8615    0.6753 C   0  0  0  0  0  0  0  0  0  0  0  0
    6.0639   -0.7405    1.0159 H   0  0  0  0  0  0  0  0  0  0  0  0
    4.6643   -0.4644   -0.6177 C   0  0  0  0  0  0  0  0  0  0  0  0
    5.4232   -0.0283   -1.2846 H   0  0  0  0  0  0  0  0  0  0  0  0
    3.3408   -0.6015   -1.0772 C   0  0  0  0  0  0  0  0  0  0  0  0
    1.6760   -2.0867    2.1031 C   0  0  0  0  0  0  0  0  0  0  0  0
    0.7687   -2.3322    1.5136 H   0  0  0  0  0  0  0  0  0  0  0  0
    2.9506   -0.1191   -2.4676 C   0  0  0  0  0  0  0  0  0  0  0  0
    1.8945   -0.4100   -2.6406 H   0  0  0  0  0  0  0  0  0  0  0  0
    2.1174   -3.3749    2.8143 C   0  0  0  0  0  0  0  0  0  0  0  0
    2.4015   -4.1650    2.0903 H   0  0  0  0  0  0  0  0  0  0  0  0
    1.2950   -3.7661    3.4468 H   0  0  0  0  0  0  0  0  0  0  0  0
    2.9862   -3.2003    3.4816 H   0  0  0  0  0  0  0  0  0  0  0  0
    1.2828   -0.9876    3.1078 C   0  0  0  0  0  0  0  0  0  0  0  0
    0.4745   -1.3424    3.7798 H   0  0  0  0  0  0  0  0  0  0  0  0
    0.9271   -0.0767    2.5832 H   0  0  0  0  0  0  0  0  0  0  0  0
    2.1489   -0.6967    3.7372 H   0  0  0  0  0  0  0  0  0  0  0  0
    3.7961   -0.7845   -3.5656 C   0  0  0  0  0  0  0  0  0  0  0  0
    3.7287   -1.8904   -3.5188 H   0  0  0  0  0  0  0  0  0  0  0  0
    4.8676   -0.5093   -3.4803 H   0  0  0  0  0  0  0  0  0  0  0  0
    3.4519   -0.4605   -4.5687 H   0  0  0  0  0  0  0  0  0  0  0  0
    3.0178    1.4167   -2.5433 C   0  0  0  0  0  0  0  0  0  0  0  0
    2.6816    1.7730   -3.5384 H   0  0  0  0  0  0  0  0  0  0  0  0
    4.0536    1.7812   -2.3837 H   0  0  0  0  0  0  0  0  0  0  0  0
    2.3711    1.8809   -1.7706 H   0  0  0  0  0  0  0  0  0  0  0  0
  2  8  1  0  0  0  0
  2  1  1  0  0  0  0
  3  5  2  0  0  0  0
  3  2  1  0  0  0  0
  4  3  1  0  0  0  0
  5  7  1  0  0  0  0
  6  5  1  0  0  0  0
  7  1  1  0  0  0  0
  7 35  1  0  0  0  0
  8  9  1  1  0  0  0
  8 10  1  0  0  0  0
 10 31  1  1  0  0  0
 11 10  1  0  0  0  0
 11 12  1  0  0  0  0
 13 11  1  0  0  0  0
 14 16  1  0  0  0  0
 14 11  1  0  0  0  0
 15 14  1  0  0  0  0
 17 18  1  6  0  0  0
 17 14  1  0  0  0  0
 17 22  1  0  0  0  0
 19 17  1  0  0  0  0
 19  8  1  0  0  0  0
 20 19  1  0  0  0  0
 21 19  1  0  0  0  0
 22 10  1  0  0  0  0
 22 23  1  0  0  0  0
 23 25  1  0  0  0  0
 23 24  1  0  0  0  0
 26 23  1  0  0  0  0
 27 22  1  0  0  0  0
 27 28  1  0  0  0  0
 29 27  1  0  0  0  0
 30 27  1  0  0  0  0
 31 33  1  0  0  0  0
 31 34  1  0  0  0  0
 32 31  1  0  0  0  0
 35 36  1  0  0  0  0
 36 37  2  0  0  0  0
 36 44  1  0  0  0  0
 37 38  1  0  0  0  0
 39 40  1  0  0  0  0
 39 37  1  0  0  0  0
 41 39  2  0  0  0  0
 42 41  1  0  0  0  0
 43 41  1  0  0  0  0
 43 35  2  0  0  0  0
 44 48  1  0  0  0  0
 44 52  1  0  0  0  0
 45 44  1  0  0  0  0
 46 43  1  0  0  0  0
 47 46  1  0  0  0  0
 48 50  1  0  0  0  0
 48 51  1  0  0  0  0
 49 48  1  0  0  0  0
 52 55  1  0  0  0  0
 52 53  1  0  0  0  0
 54 52  1  0  0  0  0
 56 57  1  0  0  0  0
 56 58  1  0  0  0  0
 56 46  1  0  0  0  0
 59 56  1  0  0  0  0
 60 46  1  0  0  0  0
 60 62  1  0  0  0  0
 60 63  1  0  0  0  0
 61 60  1  0  0  0  0
M  END
