1
q = 0.0, confidence = 0.976

  5  4  0  0  0  0  0  0  0  0999 V2000
   -1.6117    0.0006   -0.0025 C   0  0  0  0  0  1  0  0  0  0  0  0
   -2.7988   -0.0057   -0.0327 N   0  0  0  0  0  2  0  0  0  0  0  0
   -4.1273    0.0267    0.1147 N   0  0  0  0  0  0  0  0  0  0  0  0
   -4.5395    0.7511   -0.4898 H   0  0  0  0  0  0  0  0  0  0  0  0
   -4.5382   -0.8883   -0.1180 H   0  0  0  0  0  0  0  0  0  0  0  0
  2  1  1  0  0  0  0
  2  3  1  0  0  0  0
  4  3  1  0  0  0  0
  5  3  1  0  0  0  0
M  END
