1
q = 0.0, confidence = 0.898

 15 15  0  0  0  0  0  0  0  0999 V2000
   -1.7068   -0.8666    0.9911 C   0  0  0  0  0  3  0  0  0  0  0  0
   -2.8993   -0.3016    1.2708 C   0  0  0  0  0  3  0  0  0  0  0  0
   -4.2195   -0.7753    0.8485 C   0  0  0  0  0  0  0  0  0  0  0  0
   -5.3481    0.0385    1.1114 C   0  0  0  0  0  0  0  0  0  0  0  0
   -6.6223   -0.3278    0.6621 C   0  0  0  0  0  0  0  0  0  0  0  0
   -6.8012   -1.5219   -0.0555 C   0  0  0  0  0  0  0  0  0  0  0  0
   -5.6931   -2.3485   -0.3102 C   0  0  0  0  0  0  0  0  0  0  0  0
   -4.4178   -1.9822    0.1351 C   0  0  0  0  0  0  0  0  0  0  0  0
   -0.9535   -2.1773    0.2418 S   0  0  0  0  0  0  0  0  0  0  0  0
   -2.8846    0.6636    1.8052 H   0  0  0  0  0  0  0  0  0  0  0  0
   -5.2110    0.9802    1.6658 H   0  0  0  0  0  0  0  0  0  0  0  0
   -7.4845    0.3224    0.8747 H   0  0  0  0  0  0  0  0  0  0  0  0
   -7.8020   -1.8130   -0.4077 H   0  0  0  0  0  0  0  0  0  0  0  0
   -5.8265   -3.2918   -0.8614 H   0  0  0  0  0  0  0  0  0  0  0  0
   -3.5608   -2.6392   -0.0765 H   0  0  0  0  0  0  0  0  0  0  0  0
  1  2  1  0  0  0  0
  2 10  1  0  0  0  0
  3  4  1  0  0  0  0
  3  2  1  0  0  0  0
  4 11  1  0  0  0  0
  5 12  1  0  0  0  0
  5  4  2  0  0  0  0
  6  5  1  0  0  0  0
  7  6  2  0  0  0  0
  7  8  1  0  0  0  0
  8  3  2  0  0  0  0
  9  1  2  0  0  0  0
 13  6  1  0  0  0  0
 14  7  1  0  0  0  0
 15  8  1  0  0  0  0
M  END
