15
q = -2.0, confidence = 0.822

 46 53  0  0  1  0  0  0  0  0999 V2000
    0.2485    1.9023   -0.0187 C   0  0  2  0  0  0  0  0  0  0  0  0
   -1.3738    1.4929    0.0350 C   0  0  1  0  0  0  0  0  0  0  0  0
    1.1702    0.7039   -0.0611 C   0  0  0  0  0  0  0  0  0  0  0  0
    2.6400    0.9695   -0.0899 C   0  0  0  0  0  0  0  0  0  0  0  0
    3.3432    1.3332    1.0774 C   0  0  0  0  0  0  0  0  0  0  0  0
    2.7956    1.4507    2.0240 H   0  0  0  0  0  0  0  0  0  0  0  0
    4.7311    1.5296    1.0406 C   0  0  0  0  0  0  0  0  0  0  0  0
    5.2672    1.8078    1.9607 H   0  0  0  0  0  0  0  0  0  0  0  0
    5.4349    1.3701   -0.1635 C   0  0  0  0  0  0  0  0  0  0  0  0
    6.5239    1.5269   -0.1917 H   0  0  0  0  0  0  0  0  0  0  0  0
    4.7444    1.0072   -1.3303 C   0  0  0  0  0  0  0  0  0  0  0  0
    5.2897    0.8787   -2.2777 H   0  0  0  0  0  0  0  0  0  0  0  0
    3.3574    0.8058   -1.2930 C   0  0  0  0  0  0  0  0  0  0  0  0
    2.8122    0.5182   -2.2044 H   0  0  0  0  0  0  0  0  0  0  0  0
    0.6537   -0.5601   -0.1100 C   0  0  0  0  0  3  0  0  0  0  0  0
    1.5529   -1.7403   -0.0785 C   0  0  0  0  0  0  0  0  0  0  0  0
    2.2616   -2.0692    1.1044 C   0  0  0  0  0  0  0  0  0  0  0  0
    2.1708   -1.4076    1.9789 H   0  0  0  0  0  0  0  0  0  0  0  0
    3.0808   -3.2038    1.1694 C   0  0  0  0  0  0  0  0  0  0  0  0
    3.6223   -3.4306    2.1008 H   0  0  0  0  0  0  0  0  0  0  0  0
    3.2237   -4.0412    0.0505 C   0  0  0  0  0  0  0  0  0  0  0  0
    3.8690   -4.9310    0.1005 H   0  0  0  0  0  0  0  0  0  0  0  0
    2.5454   -3.7222   -1.1358 C   0  0  0  0  0  0  0  0  0  0  0  0
    2.6662   -4.3561   -2.0278 H   0  0  0  0  0  0  0  0  0  0  0  0
    1.7176   -2.5911   -1.1974 C   0  0  0  0  0  0  0  0  0  0  0  0
    1.2139   -2.3410   -2.1419 H   0  0  0  0  0  0  0  0  0  0  0  0
   -0.6145    2.1783    1.4301 B   0  0  2  0  0  0  0  0  0  0  0  0
   -0.3571    1.4957    2.3836 H   0  0  0  0  0  0  0  0  0  0  0  0
    0.5662    3.3611    0.8354 B   0  0  2  0  0  0  0  0  0  0  0  0
    1.6126    3.4699    1.4195 H   0  0  0  0  0  0  0  0  0  0  0  0
    0.5194    3.3330   -0.9346 B   0  0  0  0  0  0  0  0  0  0  0  0
    1.5385    3.3985   -1.5752 H   0  0  0  0  0  0  0  0  0  0  0  0
   -0.6950    2.1357   -1.4223 B   0  0  2  0  0  0  0  0  0  0  0  0
   -0.4811    1.4148   -2.3592 H   0  0  0  0  0  0  0  0  0  0  0  0
   -2.2278    2.6865    0.9234 B   0  0  1  0  0  0  0  0  0  0  0  0
   -3.1856    2.3352    1.5736 H   0  0  0  0  0  0  0  0  0  0  0  0
   -1.0232    3.9012    1.4335 B   0  0  0  0  0  0  0  0  0  0  0  0
   -1.1272    4.4861    2.4868 H   0  0  0  0  0  0  0  0  0  0  0  0
   -0.3241    4.6260   -0.0446 B   0  0  1  0  0  0  0  0  0  0  0  0
    0.0878    5.7628   -0.0713 H   0  0  0  0  0  0  0  0  0  0  0  0
   -1.1049    3.8584   -1.4559 B   0  0  0  0  0  0  0  0  0  0  0  0
   -1.2726    4.4104   -2.5188 H   0  0  0  0  0  0  0  0  0  0  0  0
   -2.2769    2.6633   -0.8386 B   0  0  2  0  0  0  0  0  0  0  0  0
   -3.2739    2.3014   -1.4184 H   0  0  0  0  0  0  0  0  0  0  0  0
   -2.0600    4.2141    0.0131 B   0  0  1  0  0  0  0  0  0  0  0  0
   -2.9395    5.0444    0.0260 H   0  0  0  0  0  0  0  0  0  0  0  0
  1  3  1  6  0  0  0
  1  2  1  0  0  0  0
  1 27  1  0  0  0  0
  2 35  1  0  0  0  0
  2 27  1  0  0  0  0
  4  3  1  0  0  0  0
  4  5  1  0  0  0  0
  5  6  1  0  0  0  0
  7  5  2  0  0  0  0
  7  8  1  0  0  0  0
  9  7  1  0  0  0  0
 10  9  1  0  0  0  0
 11 13  1  0  0  0  0
 11  9  2  0  0  0  0
 12 11  1  0  0  0  0
 13  4  2  0  0  0  0
 14 13  1  0  0  0  0
 15 16  1  0  0  0  0
 15  3  2  0  0  0  0
 16 17  1  0  0  0  0
 17 19  2  0  0  0  0
 17 18  1  0  0  0  0
 19 20  1  0  0  0  0
 21 22  1  0  0  0  0
 21 19  1  0  0  0  0
 23 21  2  0  0  0  0
 24 23  1  0  0  0  0
 25 23  1  0  0  0  0
 25 16  2  0  0  0  0
 26 25  1  0  0  0  0
 27 28  1  0  0  0  0
 29 30  1  0  0  0  0
 29 37  1  0  0  0  0
 31 39  1  0  0  0  0
 31 29  1  0  0  0  0
 32 31  1  0  0  0  0
 33 43  1  0  0  0  0
 33  1  1  0  0  0  0
 34 33  1  0  0  0  0
 35 27  1  0  0  0  0
 35 36  1  0  0  0  0
 37 38  1  0  0  0  0
 39 45  1  0  0  0  0
 39 29  1  0  0  0  0
 40 39  1  0  0  0  0
 41 33  1  0  0  0  0
 41 45  1  0  0  0  0
 42 41  1  0  0  0  0
 43  2  1  0  0  0  0
 43 35  1  0  0  0  0
 44 43  1  0  0  0  0
 45 46  1  0  0  0  0
 45 37  1  0  0  0  0
M  END
