8
q = -2.0, confidence = 0.888

 39 45  0  0  1  0  0  0  0  0999 V2000
   -1.6839    1.4511   -0.0175 C   0  0  2  0  0  0  0  0  0  0  0  0
   -1.8189   -0.2178    0.0070 C   0  0  1  0  0  0  0  0  0  0  0  0
   -0.2563    1.9542   -0.0301 C   0  0  0  0  0  0  0  0  0  0  0  0
   -0.0900    3.4503   -0.0445 C   0  0  0  0  0  0  0  0  0  0  0  0
    0.9780    3.7335   -0.0611 H   0  0  0  0  0  0  0  0  0  0  0  0
   -0.5670    3.9120    0.8447 H   0  0  0  0  0  0  0  0  0  0  0  0
   -0.5910    3.8967   -0.9282 H   0  0  0  0  0  0  0  0  0  0  0  0
    0.7714    1.0560   -0.0284 C   0  0  0  0  0  3  0  0  0  0  0  0
    2.1834    1.5131   -0.0286 C   0  0  0  0  0  0  0  0  0  0  0  0
    2.8649    1.7897    1.1830 C   0  0  0  0  0  0  0  0  0  0  0  0
    2.3176    1.7027    2.1336 H   0  0  0  0  0  0  0  0  0  0  0  0
    4.2077    2.1939    1.1877 C   0  0  0  0  0  0  0  0  0  0  0  0
    4.7072    2.4094    2.1449 H   0  0  0  0  0  0  0  0  0  0  0  0
    4.9105    2.3357   -0.0198 C   0  0  0  0  0  0  0  0  0  0  0  0
    5.9645    2.6514   -0.0164 H   0  0  0  0  0  0  0  0  0  0  0  0
    4.2480    2.0859   -1.2323 C   0  0  0  0  0  0  0  0  0  0  0  0
    4.7791    2.2166   -2.1878 H   0  0  0  0  0  0  0  0  0  0  0  0
    2.9053    1.6806   -1.2364 C   0  0  0  0  0  0  0  0  0  0  0  0
    2.3905    1.5104   -2.1937 H   0  0  0  0  0  0  0  0  0  0  0  0
   -2.2124    0.6963    1.4213 B   0  0  2  0  0  0  0  0  0  0  0  0
   -1.4743    0.7058    2.3680 H   0  0  0  0  0  0  0  0  0  0  0  0
   -2.9586    2.2046    0.8616 B   0  0  2  0  0  0  0  0  0  0  0  0
   -2.7132    3.2180    1.4673 H   0  0  0  0  0  0  0  0  0  0  0  0
   -2.9643    2.1792   -0.9094 B   0  0  0  0  0  0  0  0  0  0  0  0
   -2.7232    3.1747   -1.5457 H   0  0  0  0  0  0  0  0  0  0  0  0
   -2.2215    0.6556   -1.4305 B   0  0  2  0  0  0  0  0  0  0  0  0
   -1.4874    0.6390   -2.3805 H   0  0  0  0  0  0  0  0  0  0  0  0
   -3.2188   -0.6572    0.8991 B   0  0  1  0  0  0  0  0  0  0  0  0
   -3.1948   -1.6885    1.5297 H   0  0  0  0  0  0  0  0  0  0  0  0
   -3.9767    0.8633    1.4436 B   0  0  0  0  0  0  0  0  0  0  0  0
   -4.5550    0.9328    2.5033 H   0  0  0  0  0  0  0  0  0  0  0  0
   -4.4513    1.7836   -0.0132 B   0  0  1  0  0  0  0  0  0  0  0  0
   -5.3955    2.5396   -0.0210 H   0  0  0  0  0  0  0  0  0  0  0  0
   -3.9860    0.8219   -1.4462 B   0  0  0  0  0  0  0  0  0  0  0  0
   -4.5712    0.8611   -2.5037 H   0  0  0  0  0  0  0  0  0  0  0  0
   -3.2249   -0.6824   -0.8630 B   0  0  2  0  0  0  0  0  0  0  0  0
   -3.2056   -1.7316   -1.4634 H   0  0  0  0  0  0  0  0  0  0  0  0
   -4.6179    0.0072    0.0128 B   0  0  1  0  0  0  0  0  0  0  0  0
   -5.6865   -0.5592    0.0244 H   0  0  0  0  0  0  0  0  0  0  0  0
  1  3  1  6  0  0  0
  1  2  1  0  0  0  0
  1 20  1  0  0  0  0
  2 28  1  0  0  0  0
  2 20  1  0  0  0  0
  3  8  2  0  0  0  0
  4  3  1  0  0  0  0
  4  6  1  0  0  0  0
  5  4  1  0  0  0  0
  7  4  1  0  0  0  0
  9  8  1  0  0  0  0
  9 10  1  0  0  0  0
 10 12  2  0  0  0  0
 10 11  1  0  0  0  0
 12 13  1  0  0  0  0
 14 15  1  0  0  0  0
 14 12  1  0  0  0  0
 16 14  2  0  0  0  0
 17 16  1  0  0  0  0
 18 16  1  0  0  0  0
 18  9  2  0  0  0  0
 19 18  1  0  0  0  0
 20 21  1  0  0  0  0
 22 30  1  0  0  0  0
 22 23  1  0  0  0  0
 24 32  1  0  0  0  0
 24 22  1  0  0  0  0
 25 24  1  0  0  0  0
 26 36  1  0  0  0  0
 26  1  1  0  0  0  0
 27 26  1  0  0  0  0
 28 20  1  0  0  0  0
 28 29  1  0  0  0  0
 30 31  1  0  0  0  0
 32 38  1  0  0  0  0
 32 22  1  0  0  0  0
 33 32  1  0  0  0  0
 34 26  1  0  0  0  0
 34 38  1  0  0  0  0
 35 34  1  0  0  0  0
 36  2  1  0  0  0  0
 36 28  1  0  0  0  0
 37 36  1  0  0  0  0
 38 39  1  0  0  0  0
 38 30  1  0  0  0  0
M  END
