4
q = -1.0, confidence = 0.002

 15 14  0  0  0  0  0  0  0  0999 V2000
    1.0638   -1.2203    1.8127 O   0  0  0  0  0  0  0  0  0  0  0  0
    4.4209   -0.6989   -0.6154 O   0  0  0  0  0  0  0  0  0  0  0  0
    1.5995   -1.5336   -0.3758 N   0  0  0  0  0  0  0  0  0  0  0  0
    0.8393   -0.9554    0.6282 C   0  0  0  0  0  3  0  0  0  0  0  0
    2.7178   -2.3868    0.0112 C   0  0  0  0  0  0  0  0  0  0  0  0
    3.9745   -1.5982    0.3925 C   0  0  0  0  0  0  0  0  0  0  0  0
    1.4363   -1.2103   -1.7775 C   0  0  0  0  0  0  0  0  0  0  0  0
    2.4087   -2.9883    0.8919 H   0  0  0  0  0  0  0  0  0  0  0  0
    2.9307   -3.0860   -0.8278 H   0  0  0  0  0  0  0  0  0  0  0  0
    3.7340   -0.9743    1.2760 H   0  0  0  0  0  0  0  0  0  0  0  0
    4.7773   -2.3117    0.7012 H   0  0  0  0  0  0  0  0  0  0  0  0
    4.7102   -1.2294   -1.3803 H   0  0  0  0  0  0  0  0  0  0  0  0
    1.2810   -2.1280   -2.3883 H   0  0  0  0  0  0  0  0  0  0  0  0
    2.3199   -0.6665   -2.1752 H   0  0  0  0  0  0  0  0  0  0  0  0
    0.5402   -0.5595   -1.8813 H   0  0  0  0  0  0  0  0  0  0  0  0
  2  6  1  0  0  0  0
  3  5  1  0  0  0  0
  3  4  1  0  0  0  0
  4  1  2  0  0  0  0
  5  6  1  0  0  0  0
  5  8  1  0  0  0  0
  6 11  1  0  0  0  0
  6 10  1  0  0  0  0
  7  3  1  0  0  0  0
  9  5  1  0  0  0  0
 12  2  1  0  0  0  0
 13  7  1  0  0  0  0
 14  7  1  0  0  0  0
 15  7  1  0  0  0  0
M  END
