33
q = 0.0, confidence = 0.99

 46 48  0  0  0  0  0  0  0  0999 V2000
    1.6916   -0.0037    1.0437 O   0  0  0  0  0  0  0  0  0  0  0  0
    1.5666    0.2539    2.4352 C   0  0  0  0  0  0  0  0  0  0  0  0
    2.2683    1.0598    2.7490 H   0  0  0  0  0  0  0  0  0  0  0  0
    1.7852   -0.6683    3.0173 H   0  0  0  0  0  0  0  0  0  0  0  0
    0.1307    0.6773    2.6752 C   0  0  0  0  0  0  0  0  0  0  0  0
    0.0099    0.9520    3.7526 H   0  0  0  0  0  0  0  0  0  0  0  0
   -0.0907    1.5858    2.0646 H   0  0  0  0  0  0  0  0  0  0  0  0
   -0.6866   -0.4171    2.3253 O   0  0  0  0  0  0  0  0  0  0  0  0
   -2.0619   -0.3099    2.6467 C   0  0  0  0  0  0  0  0  0  0  0  0
   -2.2008   -0.0733    3.7302 H   0  0  0  0  0  0  0  0  0  0  0  0
   -2.4831   -1.3121    2.4310 H   0  0  0  0  0  0  0  0  0  0  0  0
   -2.8130    0.7247    1.8186 C   0  0  0  0  0  0  0  0  0  0  0  0
   -3.8790    0.7416    2.1533 H   0  0  0  0  0  0  0  0  0  0  0  0
   -2.4024    1.7504    1.9910 H   0  0  0  0  0  0  0  0  0  0  0  0
   -2.7232    0.3498    0.4591 O   0  0  0  0  0  0  0  0  0  0  0  0
   -3.4217    1.1641   -0.4659 C   0  0  0  0  0  0  0  0  0  0  0  0
   -4.4316    1.4389   -0.0785 H   0  0  0  0  0  0  0  0  0  0  0  0
   -3.5508    0.5310   -1.3666 H   0  0  0  0  0  0  0  0  0  0  0  0
   -2.6461    2.4314   -0.8069 C   0  0  0  0  0  0  0  0  0  0  0  0
   -3.2215    3.0568   -1.5255 H   0  0  0  0  0  0  0  0  0  0  0  0
   -2.4699    3.0393    0.1061 H   0  0  0  0  0  0  0  0  0  0  0  0
   -1.4063    2.0346   -1.3870 O   0  0  0  0  0  0  0  0  0  0  0  0
   -0.2276    2.5656   -0.9637 C   0  0  0  0  0  0  0  0  0  0  0  0
   -0.1027    3.8387   -0.3766 C   0  0  0  0  0  0  0  0  0  0  0  0
   -0.9853    4.4819   -0.2544 H   0  0  0  0  0  0  0  0  0  0  0  0
    1.1600    4.2994    0.0293 C   0  0  0  0  0  0  0  0  0  0  0  0
    1.2487    5.2980    0.4835 H   0  0  0  0  0  0  0  0  0  0  0  0
    2.3013    3.5059   -0.1641 C   0  0  0  0  0  0  0  0  0  0  0  0
    3.2930    3.8758    0.1347 H   0  0  0  0  0  0  0  0  0  0  0  0
    2.1735    2.2417   -0.7549 C   0  0  0  0  0  0  0  0  0  0  0  0
    3.0664    1.6222   -0.9214 H   0  0  0  0  0  0  0  0  0  0  0  0
    0.9185    1.7388   -1.1518 C   0  0  0  0  0  0  0  0  0  0  0  0
    0.7395    0.4231   -1.7936 C   0  0  0  0  0  3  0  0  0  0  0  0
    0.0335    0.4318   -2.6430 H   0  0  0  0  0  0  0  0  0  0  0  0
    1.5220   -0.7347   -1.6832 C   0  0  0  0  0  3  0  0  0  0  0  0
    1.3810   -1.4636   -2.5007 H   0  0  0  0  0  0  0  0  0  0  0  0
    2.6726   -1.0511   -0.8198 C   0  0  0  0  0  0  0  0  0  0  0  0
    3.7279   -1.8234   -1.3546 C   0  0  0  0  0  0  0  0  0  0  0  0
    3.6523   -2.1527   -2.4026 H   0  0  0  0  0  0  0  0  0  0  0  0
    4.8574   -2.1598   -0.5982 C   0  0  0  0  0  0  0  0  0  0  0  0
    5.6681   -2.7496   -1.0498 H   0  0  0  0  0  0  0  0  0  0  0  0
    4.9407   -1.7412    0.7378 C   0  0  0  0  0  0  0  0  0  0  0  0
    5.8222   -1.9950    1.3456 H   0  0  0  0  0  0  0  0  0  0  0  0
    3.8949   -1.0063    1.3176 C   0  0  0  0  0  0  0  0  0  0  0  0
    3.9623   -0.6986    2.3695 H   0  0  0  0  0  0  0  0  0  0  0  0
    2.7630   -0.6708    0.5529 C   0  0  0  0  0  0  0  0  0  0  0  0
  1  2  1  0  0  0  0
  2  5  1  0  0  0  0
  2  3  1  0  0  0  0
  2  4  1  0  0  0  0
  5  6  1  0  0  0  0
  7  5  1  0  0  0  0
  8  9  1  0  0  0  0
  8  5  1  0  0  0  0
  9 10  1  0  0  0  0
 11  9  1  0  0  0  0
 12 14  1  0  0  0  0
 12 13  1  0  0  0  0
 12  9  1  0  0  0  0
 15 12  1  0  0  0  0
 16 17  1  0  0  0  0
 16 15  1  0  0  0  0
 18 16  1  0  0  0  0
 19 16  1  0  0  0  0
 19 21  1  0  0  0  0
 20 19  1  0  0  0  0
 22 23  1  0  0  0  0
 22 19  1  0  0  0  0
 23 24  1  0  0  0  0
 24 25  1  0  0  0  0
 24 26  2  0  0  0  0
 26 27  1  0  0  0  0
 28 26  1  0  0  0  0
 28 29  1  0  0  0  0
 30 28  2  0  0  0  0
 31 30  1  0  0  0  0
 32 23  2  0  0  0  0
 32 30  1  0  0  0  0
 33 35  1  0  0  0  0
 33 32  1  0  0  0  0
 34 33  1  0  0  0  0
 35 37  1  0  0  0  0
 36 35  1  0  0  0  0
 37 46  1  0  0  0  0
 38 37  2  0  0  0  0
 38 40  1  0  0  0  0
 39 38  1  0  0  0  0
 40 42  2  0  0  0  0
 41 40  1  0  0  0  0
 42 44  1  0  0  0  0
 42 43  1  0  0  0  0
 44 45  1  0  0  0  0
 46  1  1  0  0  0  0
 46 44  2  0  0  0  0
M  END
