14
q = 0.0, confidence = 0.976

 38 40  0  0  0  0  0  0  0  0999 V2000
   -1.4683    0.1927    1.2302 B   0  0  0  0  0  0  0  0  0  0  0  0
   -2.1820    0.8257   -1.5024 F   0  0  0  0  0  0  0  0  0  0  0  0
   -2.0756    3.2575   -2.6484 F   0  0  0  0  0  0  0  0  0  0  0  0
   -1.5509    5.4838   -1.1210 F   0  0  0  0  0  0  0  0  0  0  0  0
   -1.0879    5.2101    1.5690 F   0  0  0  0  0  0  0  0  0  0  0  0
   -1.1176    2.7761    2.7175 F   0  0  0  0  0  0  0  0  0  0  0  0
   -4.2994    0.8517    0.8095 F   0  0  0  0  0  0  0  0  0  0  0  0
   -6.2497   -0.8804    0.1784 F   0  0  0  0  0  0  0  0  0  0  0  0
   -5.6992   -3.5537   -0.0846 F   0  0  0  0  0  0  0  0  0  0  0  0
   -3.1407   -4.4643    0.3033 F   0  0  0  0  0  0  0  0  0  0  0  0
   -1.1770   -2.7712    0.9480 F   0  0  0  0  0  0  0  0  0  0  0  0
   -0.3685   -0.2041    2.2354 C   0  0  0  0  0  3  0  0  0  0  0  0
   -0.4243   -1.1596    2.7821 H   0  0  0  0  0  0  0  0  0  0  0  0
    0.8628    0.5181    2.2712 C   0  0  0  0  0  3  0  0  0  0  0  0
    0.8509    1.5958    2.0344 H   0  0  0  0  0  0  0  0  0  0  0  0
   -1.5964    1.6763    0.6487 C   0  0  0  0  0  0  0  0  0  0  0  0
   -1.8953    1.8824   -0.7102 C   0  0  0  0  0  0  0  0  0  0  0  0
   -1.8663    3.1369   -1.3293 C   0  0  0  0  0  0  0  0  0  0  0  0
   -1.5824    4.2741   -0.5544 C   0  0  0  0  0  0  0  0  0  0  0  0
   -1.3343    4.1284    0.8200 C   0  0  0  0  0  0  0  0  0  0  0  0
   -1.3540    2.8446    1.3933 C   0  0  0  0  0  0  0  0  0  0  0  0
   -2.6266   -0.8555    0.8902 C   0  0  0  0  0  0  0  0  0  0  0  0
   -3.9600   -0.4435    0.6845 C   0  0  0  0  0  0  0  0  0  0  0  0
   -5.0016   -1.3266    0.3574 C   0  0  0  0  0  0  0  0  0  0  0  0
   -4.7241   -2.6967    0.2268 C   0  0  0  0  0  0  0  0  0  0  0  0
   -3.4139   -3.1597    0.4276 C   0  0  0  0  0  0  0  0  0  0  0  0
   -2.4067   -2.2430    0.7673 C   0  0  0  0  0  0  0  0  0  0  0  0
    2.0905    0.0921    2.9735 C   0  0  0  0  0  0  0  0  0  0  0  0
    2.2575   -1.2076    3.5069 C   0  0  0  0  0  0  0  0  0  0  0  0
    1.4380   -1.9365    3.4260 H   0  0  0  0  0  0  0  0  0  0  0  0
    3.4621   -1.5805    4.1132 C   0  0  0  0  0  0  0  0  0  0  0  0
    3.5756   -2.5963    4.5216 H   0  0  0  0  0  0  0  0  0  0  0  0
    4.5282   -0.6671    4.1967 C   0  0  0  0  0  0  0  0  0  0  0  0
    5.4759   -0.9656    4.6698 H   0  0  0  0  0  0  0  0  0  0  0  0
    4.3763    0.6279    3.6755 C   0  0  0  0  0  0  0  0  0  0  0  0
    5.2037    1.3506    3.7418 H   0  0  0  0  0  0  0  0  0  0  0  0
    3.1682    1.0022    3.0730 C   0  0  0  0  0  0  0  0  0  0  0  0
    3.0451    2.0180    2.6652 H   0  0  0  0  0  0  0  0  0  0  0  0
  1 12  1  0  0  0  0
  2 17  1  0  0  0  0
  3 18  1  0  0  0  0
  4 19  1  0  0  0  0
  8 24  1  0  0  0  0
  9 25  1  0  0  0  0
 10 26  1  0  0  0  0
 12 14  1  0  0  0  0
 12 13  1  0  0  0  0
 14 28  1  0  0  0  0
 15 14  1  0  0  0  0
 16  1  1  0  0  0  0
 16 21  1  0  0  0  0
 17 16  2  0  0  0  0
 18 17  1  0  0  0  0
 18 19  2  0  0  0  0
 19 20  1  0  0  0  0
 20 21  2  0  0  0  0
 20  5  1  0  0  0  0
 21  6  1  0  0  0  0
 22  1  1  0  0  0  0
 23  7  1  0  0  0  0
 23 22  2  0  0  0  0
 24 23  1  0  0  0  0
 25 24  2  0  0  0  0
 25 26  1  0  0  0  0
 26 27  2  0  0  0  0
 27 22  1  0  0  0  0
 27 11  1  0  0  0  0
 28 37  2  0  0  0  0
 28 29  1  0  0  0  0
 29 31  2  0  0  0  0
 30 29  1  0  0  0  0
 31 33  1  0  0  0  0
 31 32  1  0  0  0  0
 33 34  1  0  0  0  0
 35 36  1  0  0  0  0
 35 33  2  0  0  0  0
 37 35  1  0  0  0  0
 38 37  1  0  0  0  0
M  END
