4
q = -1.0, confidence = 0.006

 25 26  0  0  0  0  0  0  0  0999 V2000
    2.0579   -2.1319   -1.1895 C   0  0  0  0  0  0  0  0  0  0  0  0
    0.9635   -2.3613   -2.0792 C   0  0  0  0  0  0  0  0  0  0  0  0
    0.9792   -2.2232   -3.1667 H   0  0  0  0  0  0  0  0  0  0  0  0
   -0.1882   -2.6775   -1.2861 C   0  0  0  0  0  3  0  0  0  0  0  0
   -1.1928   -2.8993   -1.6673 H   0  0  0  0  0  0  0  0  0  0  0  0
    0.2508   -2.9223    0.0953 C   0  0  0  0  0  0  0  0  0  0  0  0
   -0.4339   -3.3493    1.2483 C   0  0  0  0  0  0  0  0  0  0  0  0
   -1.4968   -3.6260    1.1980 H   0  0  0  0  0  0  0  0  0  0  0  0
    0.2750   -3.4069    2.4593 C   0  0  0  0  0  0  0  0  0  0  0  0
   -0.2376   -3.7499    3.3708 H   0  0  0  0  0  0  0  0  0  0  0  0
    1.6302   -3.0211    2.5308 C   0  0  0  0  0  0  0  0  0  0  0  0
    2.1529   -3.0575    3.4983 H   0  0  0  0  0  0  0  0  0  0  0  0
    2.3234   -2.5840    1.3900 C   0  0  0  0  0  0  0  0  0  0  0  0
    3.3656   -2.2448    1.4618 H   0  0  0  0  0  0  0  0  0  0  0  0
    1.6430   -2.5623    0.1596 C   0  0  0  0  0  0  0  0  0  0  0  0
    3.4617   -1.7369   -1.5627 C   0  0  0  0  0  0  0  0  0  0  0  0
    3.8545   -1.1029   -0.7397 H   0  0  0  0  0  0  0  0  0  0  0  0
    4.3421   -3.0007   -1.6453 C   0  0  0  0  0  0  0  0  0  0  0  0
    4.3147   -3.5833   -0.7031 H   0  0  0  0  0  0  0  0  0  0  0  0
    5.3956   -2.7205   -1.8473 H   0  0  0  0  0  0  0  0  0  0  0  0
    3.9996   -3.6655   -2.4651 H   0  0  0  0  0  0  0  0  0  0  0  0
    3.5261   -0.9108   -2.8504 C   0  0  0  0  0  0  0  0  0  0  0  0
    3.1971   -1.5026   -3.7304 H   0  0  0  0  0  0  0  0  0  0  0  0
    4.5650   -0.5768   -3.0385 H   0  0  0  0  0  0  0  0  0  0  0  0
    2.8954   -0.0062   -2.7643 H   0  0  0  0  0  0  0  0  0  0  0  0
  1 15  1  0  0  0  0
  2  4  1  0  0  0  0
  2  1  2  0  0  0  0
  3  2  1  0  0  0  0
  4  6  1  0  0  0  0
  5  4  1  0  0  0  0
  6 15  2  0  0  0  0
  6  7  1  0  0  0  0
  7  9  2  0  0  0  0
  8  7  1  0  0  0  0
  9 11  1  0  0  0  0
  9 10  1  0  0  0  0
 11 12  1  0  0  0  0
 13 14  1  0  0  0  0
 13 11  2  0  0  0  0
 15 13  1  0  0  0  0
 16  1  1  0  0  0  0
 16 17  1  0  0  0  0
 18 16  1  0  0  0  0
 18 19  1  0  0  0  0
 20 18  1  0  0  0  0
 21 18  1  0  0  0  0
 22 25  1  0  0  0  0
 22 16  1  0  0  0  0
 23 22  1  0  0  0  0
 24 22  1  0  0  0  0
M  END
