4
 OpenBabel05122313113D

 20 20  0  0  0  0  0  0  0  0999 V2000
    3.4447    1.3891   -0.9284 C   0  0  0  0  0  3  0  0  0  0  0  0
    4.5460    0.9670   -1.9012 C   0  0  0  0  0  0  0  0  0  0  0  0
    4.4115   -0.5032   -2.3455 C   0  0  0  0  0  0  0  0  0  0  0  0
    2.9703   -0.9824   -2.3437 C   0  0  0  0  0  3  0  0  0  0  0  0
    1.8861   -0.2840   -2.9430 C   0  0  0  0  0  3  0  0  0  0  0  0
    2.0412    1.0349   -3.7008 C   0  0  0  0  0  0  0  0  0  0  0  0
    1.8522    2.2705   -2.7926 C   0  0  0  0  0  0  0  0  0  0  0  0
    2.2380    2.0083   -1.3467 C   0  0  0  0  0  3  0  0  0  0  0  0
    3.7855    1.6209    0.0918 H   0  0  0  0  0  0  0  0  0  0  0  0
    4.5357    1.6424   -2.7813 H   0  0  0  0  0  0  0  0  0  0  0  0
    5.5328    1.1194   -1.4203 H   0  0  0  0  0  0  0  0  0  0  0  0
    4.9760   -1.1509   -1.6434 H   0  0  0  0  0  0  0  0  0  0  0  0
    4.8719   -0.6607   -3.3484 H   0  0  0  0  0  0  0  0  0  0  0  0
    2.8752   -2.0812   -2.2690 H   0  0  0  0  0  0  0  0  0  0  0  0
    1.0188   -0.8963   -3.2582 H   0  0  0  0  0  0  0  0  0  0  0  0
    3.0369    1.0580   -4.1901 H   0  0  0  0  0  0  0  0  0  0  0  0
    1.3018    1.0683   -4.5255 H   0  0  0  0  0  0  0  0  0  0  0  0
    0.7866    2.5753   -2.8067 H   0  0  0  0  0  0  0  0  0  0  0  0
    2.4240    3.1407   -3.1903 H   0  0  0  0  0  0  0  0  0  0  0  0
    1.7501    2.6850   -0.6211 H   0  0  0  0  0  0  0  0  0  0  0  0
  1  9  1  0  0  0  0
  2 11  1  0  0  0  0
  2  1  1  0  0  0  0
  3  4  1  0  0  0  0
  3  2  1  0  0  0  0
  3 12  1  0  0  0  0
  4 14  1  0  0  0  0
  5  4  1  0  0  0  0
  6  5  1  0  0  0  0
  6  7  1  0  0  0  0
  7  8  1  0  0  0  0
  8  1  1  0  0  0  0
  8 20  1  0  0  0  0
 10  2  1  0  0  0  0
 13  3  1  0  0  0  0
 15  5  1  0  0  0  0
 16  6  1  0  0  0  0
 17  6  1  0  0  0  0
 18  7  1  0  0  0  0
 19  7  1  0  0  0  0
M  END
