1
 OpenBabel05122313113D

 44 46  0  0  0  0  0  0  0  0999 V2000
   -2.5326    1.9187   -2.6111 C   0  0  0  0  0  3  0  0  0  0  0  0
   -1.3057    1.1532   -2.6984 C   0  0  0  0  0  3  0  0  0  0  0  0
   -0.2755    1.1767   -1.7691 C   0  0  0  0  0  3  0  0  0  0  0  0
    0.8913    0.2533   -1.7736 C   0  0  0  0  0  0  0  0  0  0  0  0
    1.7532    0.0615   -0.3583 B   0  0  0  0  0  0  0  0  0  0  0  0
    0.9672   -0.7414    0.8626 C   0  0  0  0  0  0  0  0  0  0  0  0
   -0.2806   -1.3472    0.7976 C   0  0  0  0  0  0  0  0  0  0  0  0
   -1.0751   -1.1964   -0.3496 F   0  0  0  0  0  0  0  0  0  0  0  0
   -0.8636   -2.1383    1.7973 C   0  0  0  0  0  0  0  0  0  0  0  0
   -2.0942   -2.6762    1.6475 F   0  0  0  0  0  0  0  0  0  0  0  0
   -0.1545   -2.3409    2.9872 C   0  0  0  0  0  0  0  0  0  0  0  0
   -0.6802   -3.0744    3.9718 F   0  0  0  0  0  0  0  0  0  0  0  0
    1.1179   -1.7576    3.1261 C   0  0  0  0  0  0  0  0  0  0  0  0
    1.8059   -1.9427    4.2556 F   0  0  0  0  0  0  0  0  0  0  0  0
    1.6428   -0.9868    2.0770 C   0  0  0  0  0  0  0  0  0  0  0  0
    2.8582   -0.4572    2.2766 F   0  0  0  0  0  0  0  0  0  0  0  0
    3.0275   -0.9498   -0.6721 C   0  0  0  0  0  0  0  0  0  0  0  0
    4.3789   -0.7004   -0.3737 C   0  0  0  0  0  0  0  0  0  0  0  0
    4.7636    0.4453    0.2186 F   0  0  0  0  0  0  0  0  0  0  0  0
    5.4148   -1.6110   -0.6512 C   0  0  0  0  0  0  0  0  0  0  0  0
    6.6862   -1.3100   -0.3561 F   0  0  0  0  0  0  0  0  0  0  0  0
    5.1108   -2.8538   -1.2255 C   0  0  0  0  0  0  0  0  0  0  0  0
    6.0827   -3.7341   -1.4910 F   0  0  0  0  0  0  0  0  0  0  0  0
    3.7737   -3.1651   -1.5150 C   0  0  0  0  0  0  0  0  0  0  0  0
    3.4613   -4.3562   -2.0464 F   0  0  0  0  0  0  0  0  0  0  0  0
    2.7771   -2.2212   -1.2211 C   0  0  0  0  0  0  0  0  0  0  0  0
    1.5039   -2.6174   -1.4835 F   0  0  0  0  0  0  0  0  0  0  0  0
    2.1859    1.5957    0.0735 C   0  0  0  0  0  0  0  0  0  0  0  0
    2.9965    2.3586   -0.7915 C   0  0  0  0  0  0  0  0  0  0  0  0
    3.5169    1.7928   -1.9029 F   0  0  0  0  0  0  0  0  0  0  0  0
    3.3311    3.7049   -0.5815 C   0  0  0  0  0  0  0  0  0  0  0  0
    4.1149    4.3624   -1.4447 F   0  0  0  0  0  0  0  0  0  0  0  0
    2.8299    4.3670    0.5509 C   0  0  0  0  0  0  0  0  0  0  0  0
    3.1271    5.6522    0.7718 F   0  0  0  0  0  0  0  0  0  0  0  0
    2.0121    3.6619    1.4437 C   0  0  0  0  0  0  0  0  0  0  0  0
    1.5159    4.2757    2.5273 F   0  0  0  0  0  0  0  0  0  0  0  0
    1.7154    2.3113    1.1849 C   0  0  0  0  0  0  0  0  0  0  0  0
    0.9089    1.7259    2.1130 F   0  0  0  0  0  0  0  0  0  0  0  0
   -2.4576    2.9185   -2.1541 H   0  0  0  0  0  0  0  0  0  0  0  0
   -3.1889    1.9039   -3.4948 H   0  0  0  0  0  0  0  0  0  0  0  0
   -1.2360    0.3636   -3.4707 H   0  0  0  0  0  0  0  0  0  0  0  0
   -0.2441    2.0228   -1.0543 H   0  0  0  0  0  0  0  0  0  0  0  0
    1.6469    0.7061   -2.4561 H   0  0  0  0  0  0  0  0  0  0  0  0
    0.6105   -0.7058   -2.2506 H   0  0  0  0  0  0  0  0  0  0  0  0
  1 39  1  0  0  0  0
  2  1  1  0  0  0  0
  2  3  1  0  0  0  0
  3 42  1  0  0  0  0
  4  3  1  0  0  0  0
  4  5  1  0  0  0  0
  5 28  1  0  0  0  0
  5  6  1  0  0  0  0
  6 15  1  0  0  0  0
  7  6  2  0  0  0  0
  7  9  1  0  0  0  0
  8  7  1  0  0  0  0
  9 11  2  0  0  0  0
 10  9  1  0  0  0  0
 11 13  1  0  0  0  0
 11 12  1  0  0  0  0
 13 14  1  0  0  0  0
 15 16  1  0  0  0  0
 15 13  2  0  0  0  0
 17 18  1  0  0  0  0
 17  5  1  0  0  0  0
 18 19  1  0  0  0  0
 20 18  2  0  0  0  0
 20 21  1  0  0  0  0
 22 20  1  0  0  0  0
 23 22  1  0  0  0  0
 24 22  2  0  0  0  0
 24 26  1  0  0  0  0
 25 24  1  0  0  0  0
 26 17  2  0  0  0  0
 27 26  1  0  0  0  0
 28 37  1  0  0  0  0
 29 31  1  0  0  0  0
 29 28  2  0  0  0  0
 30 29  1  0  0  0  0
 31 33  2  0  0  0  0
 32 31  1  0  0  0  0
 33 34  1  0  0  0  0
 33 35  1  0  0  0  0
 35 36  1  0  0  0  0
 37 35  2  0  0  0  0
 37 38  1  0  0  0  0
 40  1  1  0  0  0  0
 41  2  1  0  0  0  0
 43  4  1  0  0  0  0
 44  4  1  0  0  0  0
M  END
