3
 OpenBabel05122313113D

 24 26  0  0  0  0  0  0  0  0999 V2000
   -1.0462   -0.2188   -1.7499 C   0  0  0  0  0  3  0  0  0  0  0  0
    0.1746    0.4818   -2.1000 C   0  0  0  0  0  3  0  0  0  0  0  0
    0.4455    1.6654   -1.3576 C   0  0  0  0  0  3  0  0  0  0  0  0
   -0.5584    2.0116   -0.3614 C   0  0  0  0  0  3  0  0  0  0  0  0
   -1.9814    1.7864   -0.6826 C   0  0  0  0  0  0  0  0  0  0  0  0
   -5.5019    2.9796   -0.0707 C   0  0  0  0  0  0  0  0  0  0  0  0
   -6.8115    2.5800   -0.3211 C   0  0  0  0  0  0  0  0  0  0  0  0
   -7.0647    1.3855   -1.0411 C   0  0  0  0  0  0  0  0  0  0  0  0
   -6.0038    0.6111   -1.5018 C   0  0  0  0  0  0  0  0  0  0  0  0
   -4.6548    0.9956   -1.2660 C   0  0  0  0  0  0  0  0  0  0  0  0
   -3.5471    0.2065   -1.7081 C   0  0  0  0  0  0  0  0  0  0  0  0
   -2.2432    0.5746   -1.4207 C   0  0  0  0  0  0  0  0  0  0  0  0
   -3.0384    2.5828   -0.2674 C   0  0  0  0  0  0  0  0  0  0  0  0
   -4.3965    2.2097   -0.5284 C   0  0  0  0  0  0  0  0  0  0  0  0
   -1.2301   -1.1963   -2.2211 H   0  0  0  0  0  0  0  0  0  0  0  0
    0.8549    0.1287   -2.8904 H   0  0  0  0  0  0  0  0  0  0  0  0
    1.3554    2.2617   -1.5268 H   0  0  0  0  0  0  0  0  0  0  0  0
   -0.3454    2.8779    0.2872 H   0  0  0  0  0  0  0  0  0  0  0  0
   -5.3022    3.9065    0.4907 H   0  0  0  0  0  0  0  0  0  0  0  0
   -7.6527    3.1920    0.0391 H   0  0  0  0  0  0  0  0  0  0  0  0
   -8.1020    1.0735   -1.2379 H   0  0  0  0  0  0  0  0  0  0  0  0
   -6.1942   -0.3190   -2.0607 H   0  0  0  0  0  0  0  0  0  0  0  0
   -3.7458   -0.7335   -2.2473 H   0  0  0  0  0  0  0  0  0  0  0  0
   -2.8418    3.5071    0.3011 H   0  0  0  0  0  0  0  0  0  0  0  0
  1 12  1  0  0  0  0
  2  1  1  0  0  0  0
  2  3  1  0  0  0  0
  3  4  1  0  0  0  0
  4 18  1  0  0  0  0
  5  4  1  0  0  0  0
  5 13  1  0  0  0  0
  6 19  1  0  0  0  0
  7  6  2  0  0  0  0
  7 20  1  0  0  0  0
  8  7  1  0  0  0  0
  9 10  1  0  0  0  0
  9  8  2  0  0  0  0
 10 14  1  0  0  0  0
 11 12  1  0  0  0  0
 11 10  2  0  0  0  0
 12  5  2  0  0  0  0
 13 24  1  0  0  0  0
 14 13  2  0  0  0  0
 14  6  1  0  0  0  0
 15  1  1  0  0  0  0
 16  2  1  0  0  0  0
 17  3  1  0  0  0  0
 21  8  1  0  0  0  0
 22  9  1  0  0  0  0
 23 11  1  0  0  0  0
M  END
