4
 OpenBabel05122313113D

 41 43  0  0  1  0  0  0  0  0999 V2000
   -1.9557    1.2302   -0.6602 C   0  0  1  0  0  3  0  0  0  0  0  0
   -2.7123    2.1169   -1.3467 O   0  0  0  0  0  0  0  0  0  0  0  0
   -3.7077    2.8281   -0.6215 C   0  0  0  0  0  0  0  0  0  0  0  0
   -1.8569    1.1241    0.7620 C   0  0  0  0  0  3  0  0  0  0  0  0
   -0.9731    0.0610    1.1882 C   0  0  0  0  0  3  0  0  0  0  0  0
    0.3930   -0.0890    0.5154 C   0  0  1  0  0  0  0  0  0  0  0  0
    0.1760   -0.1413   -1.0187 C   0  0  0  0  0  0  0  0  0  0  0  0
   -1.2548    0.1996   -1.3813 C   0  0  0  0  0  3  0  0  0  0  0  0
    1.2980    1.1014    0.9365 C   0  0  2  0  0  0  0  0  0  0  0  0
    0.9843    2.5357    0.4618 C   0  0  0  0  0  0  0  0  0  0  0  0
    2.3621    3.2295    0.5167 C   0  0  0  0  0  0  0  0  0  0  0  0
    3.2789    2.1302    0.2676 N   0  0  0  0  0  0  0  0  0  0  0  0
    2.7253    0.9087    0.4636 C   0  0  0  0  0  0  0  0  0  0  0  0
    3.3157   -0.3238    0.2594 C   0  0  0  0  0  0  0  0  0  0  0  0
    4.6936   -0.3490   -0.1995 C   0  0  0  0  0  0  0  0  0  0  0  0
    5.4204    0.6382   -0.3878 O   0  0  0  0  0  0  0  0  0  0  0  0
    5.1495   -1.6193   -0.4247 O   0  0  0  0  0  0  0  0  0  0  0  0
    6.4970   -1.7102   -0.8816 C   0  0  0  0  0  0  0  0  0  0  0  0
    2.4946   -1.5877    0.3948 C   0  0  0  0  0  0  0  0  0  0  0  0
    1.1192   -1.3536    1.0359 C   0  0  0  0  0  0  0  0  0  0  0  0
   -4.2877    3.4047   -1.3645 H   0  0  0  0  0  0  0  0  0  0  0  0
   -3.2578    3.5310    0.1131 H   0  0  0  0  0  0  0  0  0  0  0  0
   -4.3847    2.1248   -0.0878 H   0  0  0  0  0  0  0  0  0  0  0  0
   -2.4270    1.7634    1.4502 H   0  0  0  0  0  0  0  0  0  0  0  0
   -0.9727   -0.1639    2.2688 H   0  0  0  0  0  0  0  0  0  0  0  0
    0.8800    0.5404   -1.5474 H   0  0  0  0  0  0  0  0  0  0  0  0
    0.4107   -1.1550   -1.4013 H   0  0  0  0  0  0  0  0  0  0  0  0
   -1.5226    0.1255   -2.4484 H   0  0  0  0  0  0  0  0  0  0  0  0
    1.3226    1.1056    2.0517 H   0  0  0  0  0  0  0  0  0  0  0  0
    0.6161    2.5220   -0.5848 H   0  0  0  0  0  0  0  0  0  0  0  0
    0.2229    3.0454    1.0809 H   0  0  0  0  0  0  0  0  0  0  0  0
    2.4740    4.0297   -0.2440 H   0  0  0  0  0  0  0  0  0  0  0  0
    2.5386    3.6969    1.5155 H   0  0  0  0  0  0  0  0  0  0  0  0
    4.2687    2.1719   -0.0131 H   0  0  0  0  0  0  0  0  0  0  0  0
    6.7062   -2.7875   -1.0138 H   0  0  0  0  0  0  0  0  0  0  0  0
    7.2018   -1.2700   -0.1460 H   0  0  0  0  0  0  0  0  0  0  0  0
    6.6334   -1.1722   -1.8425 H   0  0  0  0  0  0  0  0  0  0  0  0
    3.0505   -2.3466    0.9839 H   0  0  0  0  0  0  0  0  0  0  0  0
    2.3703   -2.0541   -0.6097 H   0  0  0  0  0  0  0  0  0  0  0  0
    1.2349   -1.2457    2.1367 H   0  0  0  0  0  0  0  0  0  0  0  0
    0.4767   -2.2415    0.8763 H   0  0  0  0  0  0  0  0  0  0  0  0
  1  2  1  1  0  0  0
  1  4  1  0  0  0  0
  2  3  1  0  0  0  0
  3 23  1  0  0  0  0
  3 22  1  0  0  0  0
  4  5  1  0  0  0  0
  4 24  1  0  0  0  0
  5 25  1  0  0  0  0
  6  9  1  0  0  0  0
  6 20  1  0  0  0  0
  6  5  1  1  0  0  0
  7  6  1  0  0  0  0
  8  7  1  0  0  0  0
  8  1  1  0  0  0  0
  9 29  1  1  0  0  0
 10 11  1  0  0  0  0
 10  9  1  0  0  0  0
 10 31  1  0  0  0  0
 11 33  1  0  0  0  0
 12 13  1  0  0  0  0
 12 11  1  0  0  0  0
 13  9  1  0  0  0  0
 14 19  1  0  0  0  0
 14 13  2  0  0  0  0
 15 14  1  0  0  0  0
 16 15  2  0  0  0  0
 17 15  1  0  0  0  0
 18 17  1  0  0  0  0
 18 36  1  0  0  0  0
 19 38  1  0  0  0  0
 19 20  1  0  0  0  0
 20 40  1  0  0  0  0
 21  3  1  0  0  0  0
 26  7  1  0  0  0  0
 27  7  1  0  0  0  0
 28  8  1  0  0  0  0
 30 10  1  0  0  0  0
 32 11  1  0  0  0  0
 34 12  1  0  0  0  0
 35 18  1  0  0  0  0
 37 18  1  0  0  0  0
 39 19  1  0  0  0  0
 41 20  1  0  0  0  0
M  END
