9
 OpenBabel05122313113D

 42 44  0  0  0  0  0  0  0  0999 V2000
   -2.8004   -0.5724   -0.9997 N   0  0  0  0  0  0  0  0  0  0  0  0
   -4.2516   -0.5237   -0.7113 C   0  0  0  0  0  0  0  0  0  0  0  0
   -4.5029    0.5875    0.3187 C   0  0  0  0  0  0  0  0  0  0  0  0
   -5.0287   -0.2702   -2.0067 C   0  0  0  0  0  0  0  0  0  0  0  0
   -4.5476   -1.9465   -0.1186 C   0  0  0  0  0  0  0  0  0  0  0  0
   -3.2402   -2.5409    0.0820 O   0  0  0  0  0  0  0  0  0  0  0  0
   -2.3755   -1.6556   -0.4736 C   0  0  0  0  0  0  0  0  0  0  0  0
   -1.0309   -2.0485   -0.3987 N   0  0  0  0  0  0  0  0  0  0  0  0
    0.0103   -1.1484   -0.2397 C   0  0  0  0  0  2  0  0  0  0  0  0
    1.1179   -1.9554   -0.2098 N   0  0  0  0  0  0  0  0  0  0  0  0
    0.7766   -3.3091   -0.3031 C   0  0  0  0  0  0  0  0  0  0  0  0
   -0.5820   -3.3718   -0.4129 C   0  0  0  0  0  0  0  0  0  0  0  0
    2.4719   -1.4713   -0.1494 C   0  0  0  0  0  0  0  0  0  0  0  0
    3.1913   -1.3664   -1.3606 C   0  0  0  0  0  0  0  0  0  0  0  0
    4.4985   -0.8509   -1.3047 C   0  0  0  0  0  0  0  0  0  0  0  0
    5.0868   -0.4534   -0.0901 C   0  0  0  0  0  0  0  0  0  0  0  0
    4.3434   -0.6094    1.0949 C   0  0  0  0  0  0  0  0  0  0  0  0
    3.0337   -1.1226    1.0985 C   0  0  0  0  0  0  0  0  0  0  0  0
    2.5696   -1.7777   -2.6716 C   0  0  0  0  0  0  0  0  0  0  0  0
    6.4711    0.1442   -0.0563 C   0  0  0  0  0  0  0  0  0  0  0  0
    2.2635   -1.2947    2.3765 C   0  0  0  0  0  0  0  0  0  0  0  0
   -5.5774    0.6285    0.5931 H   0  0  0  0  0  0  0  0  0  0  0  0
   -3.8916    0.4201    1.2282 H   0  0  0  0  0  0  0  0  0  0  0  0
   -4.2089    1.5681   -0.1045 H   0  0  0  0  0  0  0  0  0  0  0  0
   -6.1212   -0.2576   -1.8144 H   0  0  0  0  0  0  0  0  0  0  0  0
   -4.7411    0.7091   -2.4373 H   0  0  0  0  0  0  0  0  0  0  0  0
   -4.8120   -1.0542   -2.7596 H   0  0  0  0  0  0  0  0  0  0  0  0
   -5.1201   -2.5948   -0.8153 H   0  0  0  0  0  0  0  0  0  0  0  0
   -5.0613   -1.9169    0.8619 H   0  0  0  0  0  0  0  0  0  0  0  0
    1.5352   -4.0962   -0.2742 H   0  0  0  0  0  0  0  0  0  0  0  0
   -1.2731   -4.2137   -0.4970 H   0  0  0  0  0  0  0  0  0  0  0  0
    5.0693   -0.7511   -2.2418 H   0  0  0  0  0  0  0  0  0  0  0  0
    4.7967   -0.3251    2.0582 H   0  0  0  0  0  0  0  0  0  0  0  0
    3.2183   -1.4985   -3.5228 H   0  0  0  0  0  0  0  0  0  0  0  0
    2.3989   -2.8736   -2.7199 H   0  0  0  0  0  0  0  0  0  0  0  0
    1.5794   -1.2994   -2.8203 H   0  0  0  0  0  0  0  0  0  0  0  0
    7.0512   -0.1116   -0.9641 H   0  0  0  0  0  0  0  0  0  0  0  0
    6.4211    1.2527    0.0029 H   0  0  0  0  0  0  0  0  0  0  0  0
    7.0421   -0.1996    0.8292 H   0  0  0  0  0  0  0  0  0  0  0  0
    2.8990   -1.0791    3.2557 H   0  0  0  0  0  0  0  0  0  0  0  0
    1.3736   -0.6277    2.4091 H   0  0  0  0  0  0  0  0  0  0  0  0
    1.8677   -2.3263    2.4767 H   0  0  0  0  0  0  0  0  0  0  0  0
  1  2  1  0  0  0  0
  1  7  2  0  0  0  0
  2  5  1  0  0  0  0
  2  3  1  0  0  0  0
  3 22  1  0  0  0  0
  3 23  1  0  0  0  0
  4 25  1  0  0  0  0
  4  2  1  0  0  0  0
  5  6  1  0  0  0  0
  5 29  1  0  0  0  0
  7  8  1  0  0  0  0
  7  6  1  0  0  0  0
  8  9  1  0  0  0  0
  9 10  1  0  0  0  0
 10 13  1  0  0  0  0
 11 30  1  0  0  0  0
 11 10  1  0  0  0  0
 12  8  1  0  0  0  0
 12 11  2  0  0  0  0
 13 18  1  0  0  0  0
 14 15  1  0  0  0  0
 14 13  2  0  0  0  0
 15 16  2  0  0  0  0
 16 20  1  0  0  0  0
 16 17  1  0  0  0  0
 17 18  2  0  0  0  0
 17 33  1  0  0  0  0
 18 21  1  0  0  0  0
 19 14  1  0  0  0  0
 20 38  1  0  0  0  0
 20 39  1  0  0  0  0
 21 41  1  0  0  0  0
 21 42  1  0  0  0  0
 21 40  1  0  0  0  0
 24  3  1  0  0  0  0
 26  4  1  0  0  0  0
 27  4  1  0  0  0  0
 28  5  1  0  0  0  0
 31 12  1  0  0  0  0
 32 15  1  0  0  0  0
 34 19  1  0  0  0  0
 35 19  1  0  0  0  0
 36 19  1  0  0  0  0
 37 20  1  0  0  0  0
M  END
