3
 OpenBabel05122313113D

 39 42  0  0  1  0  0  0  0  0999 V2000
   -0.0963   -0.9441    1.8937 C   0  0  0  0  0  0  0  0  0  0  0  0
    0.8363    0.0670    1.4962 C   0  0  0  0  0  0  0  0  0  0  0  0
    1.4423   -0.3480    0.2605 C   0  0  2  0  0  3  0  0  0  0  0  0
    1.0377   -1.7380    0.0106 C   0  0  0  0  0  0  0  0  0  0  0  0
    1.4042   -2.6635   -0.9924 C   0  0  0  0  0  0  0  0  0  0  0  0
    0.8502   -3.9472   -0.9560 C   0  0  0  0  0  0  0  0  0  0  0  0
   -0.0673   -4.3216    0.0549 C   0  0  0  0  0  0  0  0  0  0  0  0
   -0.4570   -3.4158    1.0479 C   0  0  0  0  0  0  0  0  0  0  0  0
    0.0950   -2.1165    1.0404 C   0  0  0  0  0  0  0  0  0  0  0  0
    2.5541    0.3630   -0.4875 C   0  0  0  0  0  0  0  0  0  0  0  0
    3.9101   -0.3166   -0.2901 C   0  0  0  0  0  0  0  0  0  0  0  0
    4.1933   -1.1175    0.8321 C   0  0  0  0  0  0  0  0  0  0  0  0
    5.4635   -1.6930    0.9987 C   0  0  0  0  0  0  0  0  0  0  0  0
    6.4674   -1.4799    0.0426 C   0  0  0  0  0  0  0  0  0  0  0  0
    6.1933   -0.6857   -1.0834 C   0  0  0  0  0  0  0  0  0  0  0  0
    4.9257   -0.1102   -1.2452 C   0  0  0  0  0  0  0  0  0  0  0  0
    2.6079    1.8469   -0.1290 C   0  0  0  0  0  0  0  0  0  0  0  0
    3.3041    2.2934    1.0115 C   0  0  0  0  0  0  0  0  0  0  0  0
    3.2909    3.6490    1.3743 C   0  0  0  0  0  0  0  0  0  0  0  0
    2.5867    4.5816    0.5963 C   0  0  0  0  0  0  0  0  0  0  0  0
    1.9011    4.1486   -0.5495 C   0  0  0  0  0  0  0  0  0  0  0  0
    1.9122    2.7918   -0.9075 C   0  0  0  0  0  0  0  0  0  0  0  0
   -0.6909   -0.9274    2.8143 H   0  0  0  0  0  0  0  0  0  0  0  0
    1.0321    1.0148    2.0107 H   0  0  0  0  0  0  0  0  0  0  0  0
    2.1285   -2.3820   -1.7711 H   0  0  0  0  0  0  0  0  0  0  0  0
    1.1401   -4.6844   -1.7201 H   0  0  0  0  0  0  0  0  0  0  0  0
   -0.4752   -5.3438    0.0618 H   0  0  0  0  0  0  0  0  0  0  0  0
   -1.1679   -3.7156    1.8330 H   0  0  0  0  0  0  0  0  0  0  0  0
    2.3207    0.2972   -1.5709 H   0  0  0  0  0  0  0  0  0  0  0  0
    3.4071   -1.2990    1.5805 H   0  0  0  0  0  0  0  0  0  0  0  0
    5.6662   -2.3186    1.8815 H   0  0  0  0  0  0  0  0  0  0  0  0
    7.4613   -1.9351    0.1709 H   0  0  0  0  0  0  0  0  0  0  0  0
    6.9728   -0.5152   -1.8418 H   0  0  0  0  0  0  0  0  0  0  0  0
    4.7155    0.5183   -2.1255 H   0  0  0  0  0  0  0  0  0  0  0  0
    3.8700    1.5685    1.6165 H   0  0  0  0  0  0  0  0  0  0  0  0
    3.8412    3.9797    2.2686 H   0  0  0  0  0  0  0  0  0  0  0  0
    2.5795    5.6456    0.8781 H   0  0  0  0  0  0  0  0  0  0  0  0
    1.3532    4.8717   -1.1729 H   0  0  0  0  0  0  0  0  0  0  0  0
    1.3688    2.4603   -1.8045 H   0  0  0  0  0  0  0  0  0  0  0  0
  1 23  1  0  0  0  0
  2  1  2  0  0  0  0
  2 24  1  0  0  0  0
  3 10  1  1  0  0  0
  3  2  1  0  0  0  0
  4  3  1  0  0  0  0
  4  9  1  0  0  0  0
  5  6  1  0  0  0  0
  5  4  2  0  0  0  0
  6  7  2  0  0  0  0
  7 27  1  0  0  0  0
  7  8  1  0  0  0  0
  8 28  1  0  0  0  0
  9  8  2  0  0  0  0
  9  1  1  0  0  0  0
 10 11  1  0  0  0  0
 10 17  1  0  0  0  0
 11 12  1  0  0  0  0
 12 13  2  0  0  0  0
 12 30  1  0  0  0  0
 13 31  1  0  0  0  0
 14 32  1  0  0  0  0
 14 13  1  0  0  0  0
 15 14  2  0  0  0  0
 16 15  1  0  0  0  0
 16 11  2  0  0  0  0
 17 18  1  0  0  0  0
 18 19  2  0  0  0  0
 18 35  1  0  0  0  0
 19 36  1  0  0  0  0
 20 37  1  0  0  0  0
 20 19  1  0  0  0  0
 21 20  2  0  0  0  0
 22 21  1  0  0  0  0
 22 17  2  0  0  0  0
 25  5  1  0  0  0  0
 26  6  1  0  0  0  0
 29 10  1  0  0  0  0
 33 15  1  0  0  0  0
 34 16  1  0  0  0  0
 38 21  1  0  0  0  0
 39 22  1  0  0  0  0
M  END
