6
 OpenBabel05122313113D

 34 36  0  0  1  0  0  0  0  0999 V2000
   -0.8146    0.3246    1.6419 C   0  0  0  0  0  0  0  0  0  0  0  0
   -0.5838   -0.2722    2.5363 H   0  0  0  0  0  0  0  0  0  0  0  0
    0.1308    0.3619    0.5777 C   0  0  0  0  0  0  0  0  0  0  0  0
   -0.2665    1.0818   -0.6063 C   0  0  0  0  0  0  0  0  0  0  0  0
    0.3911    1.0441   -1.4872 H   0  0  0  0  0  0  0  0  0  0  0  0
   -1.4793    1.8041   -0.6698 C   0  0  0  0  0  3  0  0  0  0  0  0
   -1.7499    2.3260   -1.5994 H   0  0  0  0  0  0  0  0  0  0  0  0
   -2.3945    1.8161    0.4377 C   0  0  1  0  0  3  0  0  0  0  0  0
   -3.6660    2.6093    0.3832 C   0  0  0  0  0  0  0  0  0  0  0  0
   -3.4548    3.6505    0.7069 H   0  0  0  0  0  0  0  0  0  0  0  0
   -4.4371    2.1973    1.0603 H   0  0  0  0  0  0  0  0  0  0  0  0
   -4.0790    2.6600   -0.6419 H   0  0  0  0  0  0  0  0  0  0  0  0
   -2.0467    1.0440    1.5795 C   0  0  0  0  0  0  0  0  0  0  0  0
   -2.7516    0.9771    2.4210 H   0  0  0  0  0  0  0  0  0  0  0  0
    1.3926   -0.4133    0.6022 C   0  0  0  0  0  0  0  0  0  0  0  0
    1.2948   -1.7739    0.9213 C   0  0  0  0  0  0  0  0  0  0  0  0
    0.3226   -2.1854    1.2325 H   0  0  0  0  0  0  0  0  0  0  0  0
    2.3839   -2.6555    0.7597 C   0  0  0  0  0  0  0  0  0  0  0  0
    2.2675   -3.7211    1.0033 H   0  0  0  0  0  0  0  0  0  0  0  0
    3.5695   -2.1720    0.2310 C   0  0  0  0  0  0  0  0  0  0  0  0
    4.4125   -2.8533    0.0403 H   0  0  0  0  0  0  0  0  0  0  0  0
    3.7375   -0.7891   -0.0658 C   0  0  0  0  0  0  0  0  0  0  0  0
    4.9860   -0.3268   -0.5715 C   0  0  0  0  0  0  0  0  0  0  0  0
    5.7812   -1.0620   -0.7657 H   0  0  0  0  0  0  0  0  0  0  0  0
    5.1985    1.0232   -0.7843 C   0  0  0  0  0  0  0  0  0  0  0  0
    6.1609    1.3850   -1.1746 H   0  0  0  0  0  0  0  0  0  0  0  0
    4.1897    1.9488   -0.4318 C   0  0  0  0  0  0  0  0  0  0  0  0
    4.4053    3.0255   -0.5152 H   0  0  0  0  0  0  0  0  0  0  0  0
    2.9421    1.5582    0.0627 C   0  0  0  0  0  0  0  0  0  0  0  0
    2.6588    0.1491    0.1823 C   0  0  0  0  0  0  0  0  0  0  0  0
    2.0105    2.6494    0.5384 C   0  0  0  0  0  0  0  0  0  0  0  0
    2.5940    3.5539    0.7952 H   0  0  0  0  0  0  0  0  0  0  0  0
    1.4443    2.3554    1.4437 H   0  0  0  0  0  0  0  0  0  0  0  0
    1.2691    2.9654   -0.2261 H   0  0  0  0  0  0  0  0  0  0  0  0
  1  2  1  0  0  0  0
  3 15  1  0  0  0  0
  3  1  1  0  0  0  0
  4  3  2  0  0  0  0
  5  4  1  0  0  0  0
  6  4  1  0  0  0  0
  6  8  1  0  0  0  0
  7  6  1  0  0  0  0
  8  9  1  6  0  0  0
  8 13  1  0  0  0  0
  9 10  1  0  0  0  0
  9 11  1  0  0  0  0
 12  9  1  0  0  0  0
 13  1  2  0  0  0  0
 13 14  1  0  0  0  0
 15 16  1  0  0  0  0
 16 17  1  0  0  0  0
 18 16  2  0  0  0  0
 18 19  1  0  0  0  0
 20 18  1  0  0  0  0
 21 20  1  0  0  0  0
 22 30  1  0  0  0  0
 22 20  2  0  0  0  0
 23 22  1  0  0  0  0
 24 23  1  0  0  0  0
 25 23  2  0  0  0  0
 25 27  1  0  0  0  0
 26 25  1  0  0  0  0
 27 29  2  0  0  0  0
 28 27  1  0  0  0  0
 29 30  1  0  0  0  0
 29 31  1  0  0  0  0
 30 15  2  0  0  0  0
 31 32  1  0  0  0  0
 31 33  1  0  0  0  0
 34 31  1  0  0  0  0
M  END
