3
 OpenBabel05122313113D

 17 17  0  0  0  0  0  0  0  0999 V2000
   -7.4361    1.6397   -2.5567 O   0  0  0  0  0  0  0  0  0  0  0  0
   -2.1541    0.1674   -1.7343 N   0  0  0  0  0  2  0  0  0  0  0  0
   -1.0393   -0.1492   -1.4355 C   0  0  0  0  0  1  0  0  0  0  0  0
   -3.4533    0.5373   -1.9687 C   0  0  0  0  0  0  0  0  0  0  0  0
   -4.4183    0.4317   -0.9340 C   0  0  0  0  0  0  0  0  0  0  0  0
   -4.1118    0.0479    0.0502 H   0  0  0  0  0  0  0  0  0  0  0  0
   -5.7368    0.8095   -1.1669 C   0  0  0  0  0  0  0  0  0  0  0  0
   -6.4986    0.7351   -0.3779 H   0  0  0  0  0  0  0  0  0  0  0  0
   -6.1329    1.3004   -2.4344 C   0  0  0  0  0  0  0  0  0  0  0  0
   -5.1737    1.4041   -3.4666 C   0  0  0  0  0  0  0  0  0  0  0  0
   -5.4517    1.7815   -4.4592 H   0  0  0  0  0  0  0  0  0  0  0  0
   -3.8468    1.0257   -3.2329 C   0  0  0  0  0  0  0  0  0  0  0  0
   -3.0985    1.1081   -4.0338 H   0  0  0  0  0  0  0  0  0  0  0  0
   -7.8993    2.1401   -3.8023 C   0  0  0  0  0  0  0  0  0  0  0  0
   -7.3793    3.0817   -4.0852 H   0  0  0  0  0  0  0  0  0  0  0  0
   -8.9766    2.3480   -3.6718 H   0  0  0  0  0  0  0  0  0  0  0  0
   -7.7695    1.3950   -4.6178 H   0  0  0  0  0  0  0  0  0  0  0  0
  1  9  1  0  0  0  0
  2  3  1  0  0  0  0
  4  2  1  0  0  0  0
  4  5  1  0  0  0  0
  5  6  1  0  0  0  0
  7  5  2  0  0  0  0
  7  8  1  0  0  0  0
  9  7  1  0  0  0  0
 10 12  1  0  0  0  0
 10  9  2  0  0  0  0
 11 10  1  0  0  0  0
 12  4  2  0  0  0  0
 13 12  1  0  0  0  0
 14 16  1  0  0  0  0
 14  1  1  0  0  0  0
 15 14  1  0  0  0  0
 17 14  1  0  0  0  0
M  END
