3
 OpenBabel05122313113D

 13 13  0  0  0  0  0  0  0  0999 V2000
   -5.4202    6.7130   -0.5072 Cl  0  0  0  0  0  0  0  0  0  0  0  0
   -1.4682    2.3325   -0.8547 N   0  0  0  0  0  2  0  0  0  0  0  0
   -0.6922    1.4259   -0.9452 C   0  0  0  0  0  1  0  0  0  0  0  0
   -2.3858    3.3476   -0.7746 C   0  0  0  0  0  0  0  0  0  0  0  0
   -2.6234    3.9930    0.4619 C   0  0  0  0  0  0  0  0  0  0  0  0
   -2.0683    3.6717    1.3547 H   0  0  0  0  0  0  0  0  0  0  0  0
   -3.5579    5.0282    0.5428 C   0  0  0  0  0  0  0  0  0  0  0  0
   -3.7501    5.5348    1.4987 H   0  0  0  0  0  0  0  0  0  0  0  0
   -4.2607    5.4265   -0.6095 C   0  0  0  0  0  0  0  0  0  0  0  0
   -4.0312    4.7902   -1.8436 C   0  0  0  0  0  0  0  0  0  0  0  0
   -4.5895    5.1120   -2.7336 H   0  0  0  0  0  0  0  0  0  0  0  0
   -3.0977    3.7544   -1.9278 C   0  0  0  0  0  0  0  0  0  0  0  0
   -2.9108    3.2482   -2.8854 H   0  0  0  0  0  0  0  0  0  0  0  0
  2  4  1  0  0  0  0
  3  2  1  0  0  0  0
  4  5  1  0  0  0  0
  5  7  2  0  0  0  0
  5  6  1  0  0  0  0
  7  8  1  0  0  0  0
  9  1  1  0  0  0  0
  9  7  1  0  0  0  0
 10  9  2  0  0  0  0
 11 10  1  0  0  0  0
 12 10  1  0  0  0  0
 12  4  2  0  0  0  0
 13 12  1  0  0  0  0
M  END
