1
 OpenBabel05122313113D

  4  3  0  0  0  0  0  0  0  0999 V2000
    0.0000    0.3510   -2.3521 C   0  0  0  0  0  3  0  0  0  0  0  0
    0.9033    0.9304   -2.6295 H   0  0  0  0  0  0  0  0  0  0  0  0
   -0.9030    0.9309   -2.6294 H   0  0  0  0  0  0  0  0  0  0  0  0
   -0.0003   -0.6146   -2.9059 H   0  0  0  0  0  0  0  0  0  0  0  0
  2  1  1  0  0  0  0
  3  1  1  0  0  0  0
  4  1  1  0  0  0  0
M  END
