1
 OpenBabel05122313113D

 28 29  0  0  1  0  0  0  0  0999 V2000
   -1.1734   -1.5005   -0.0804 C   0  0  0  0  0  2  0  0  0  0  0  0
   -0.4953   -2.6440   -0.3970 C   0  0  2  0  0  3  0  0  0  0  0  0
   -0.8786   -3.9806    0.2029 C   0  0  0  0  0  0  0  0  0  0  0  0
   -2.4382   -1.4446    0.6791 C   0  0  0  0  0  0  0  0  0  0  0  0
   -4.8576   -1.8461    0.7682 C   0  0  0  0  0  0  0  0  0  0  0  0
   -4.9223   -1.2767    2.0516 C   0  0  0  0  0  0  0  0  0  0  0  0
   -3.7485   -0.7898    2.6489 C   0  0  0  0  0  0  0  0  0  0  0  0
   -2.5247   -0.8672    1.9699 C   0  0  0  0  0  0  0  0  0  0  0  0
    0.7030   -2.6189   -1.2664 C   0  0  0  0  0  0  0  0  0  0  0  0
    0.8581   -1.6370   -2.2778 C   0  0  0  0  0  0  0  0  0  0  0  0
    2.0189   -1.5727   -3.0596 C   0  0  0  0  0  0  0  0  0  0  0  0
    3.0569   -2.4995   -2.8675 C   0  0  0  0  0  0  0  0  0  0  0  0
    2.9019   -3.5073   -1.9025 C   0  0  0  0  0  0  0  0  0  0  0  0
    1.7393   -3.5724   -1.1228 C   0  0  0  0  0  0  0  0  0  0  0  0
    0.0198   -0.9482   -2.4727 H   0  0  0  0  0  0  0  0  0  0  0  0
    2.1055   -0.8043   -3.8442 H   0  0  0  0  0  0  0  0  0  0  0  0
    3.9693   -2.4503   -3.4814 H   0  0  0  0  0  0  0  0  0  0  0  0
    3.7011   -4.2487   -1.7473 H   0  0  0  0  0  0  0  0  0  0  0  0
    1.6529   -4.3571   -0.3585 H   0  0  0  0  0  0  0  0  0  0  0  0
   -3.5819   -2.3559   -0.9219 H   0  0  0  0  0  0  0  0  0  0  0  0
   -5.7728   -2.2290    0.2898 H   0  0  0  0  0  0  0  0  0  0  0  0
   -5.8845   -1.2108    2.5821 H   0  0  0  0  0  0  0  0  0  0  0  0
   -3.7831   -0.3383    3.6525 H   0  0  0  0  0  0  0  0  0  0  0  0
   -1.6189   -0.4651    2.4452 H   0  0  0  0  0  0  0  0  0  0  0  0
   -0.9331   -4.7743   -0.5712 H   0  0  0  0  0  0  0  0  0  0  0  0
   -1.8523   -3.9275    0.7233 H   0  0  0  0  0  0  0  0  0  0  0  0
   -0.1219   -4.3131    0.9483 H   0  0  0  0  0  0  0  0  0  0  0  0
   -3.6353   -1.9282    0.0894 C   0  0  0  0  0  0  0  0  0  0  0  0
  1  4  1  0  0  0  0
  2  1  1  1  0  0  0
  2  3  1  0  0  0  0
  3 26  1  0  0  0  0
  3 27  1  0  0  0  0
  4  8  1  0  0  0  0
  5  6  2  0  0  0  0
  6 22  1  0  0  0  0
  6  7  1  0  0  0  0
  7 23  1  0  0  0  0
  8 24  1  0  0  0  0
  8  7  2  0  0  0  0
  9 14  1  0  0  0  0
  9  2  1  0  0  0  0
 10  9  2  0  0  0  0
 11 12  2  0  0  0  0
 11 10  1  0  0  0  0
 12 13  1  0  0  0  0
 13 18  1  0  0  0  0
 13 14  2  0  0  0  0
 14 19  1  0  0  0  0
 15 10  1  0  0  0  0
 16 11  1  0  0  0  0
 17 12  1  0  0  0  0
 20 28  1  0  0  0  0
 21  5  1  0  0  0  0
 25  3  1  0  0  0  0
 28  4  2  0  0  0  0
 28  5  1  0  0  0  0
M  END
