2
 OpenBabel05122313113D

 13 13  0  0  0  0  0  0  0  0999 V2000
   -0.5869   -2.2625   -0.0036 N   0  0  0  0  0  2  0  0  0  0  0  0
   -1.5131   -1.4256   -0.0164 C   0  0  0  0  0  3  0  0  0  0  0  0
   -2.9748   -1.4342   -0.0072 C   0  0  0  0  0  0  0  0  0  0  0  0
   -3.6782   -2.6585   -0.1020 C   0  0  0  0  0  0  0  0  0  0  0  0
   -5.0778   -2.6715   -0.0934 C   0  0  0  0  0  0  0  0  0  0  0  0
   -5.7963   -1.4672    0.0145 C   0  0  0  0  0  0  0  0  0  0  0  0
   -5.1062   -0.2478    0.1134 C   0  0  0  0  0  0  0  0  0  0  0  0
   -3.7053   -0.2324    0.1003 C   0  0  0  0  0  0  0  0  0  0  0  0
   -3.0991   -3.5904   -0.1830 H   0  0  0  0  0  0  0  0  0  0  0  0
   -5.6172   -3.6283   -0.1703 H   0  0  0  0  0  0  0  0  0  0  0  0
   -6.8970   -1.4806    0.0213 H   0  0  0  0  0  0  0  0  0  0  0  0
   -5.6656    0.6965    0.1998 H   0  0  0  0  0  0  0  0  0  0  0  0
   -3.1461    0.7113    0.1734 H   0  0  0  0  0  0  0  0  0  0  0  0
  2  3  1  0  0  0  0
  2  1  2  0  0  0  0
  3  8  1  0  0  0  0
  4  5  1  0  0  0  0
  4  3  2  0  0  0  0
  5  6  2  0  0  0  0
  6 11  1  0  0  0  0
  6  7  1  0  0  0  0
  7 12  1  0  0  0  0
  8  7  2  0  0  0  0
  8 13  1  0  0  0  0
  9  4  1  0  0  0  0
 10  5  1  0  0  0  0
M  END
