3
 OpenBabel05122313113D

 47 49  0  0  0  0  0  0  0  0999 V2000
   -2.7274    0.2864   -0.1356 N   0  0  0  0  0  0  0  0  0  0  0  0
   -1.6478    2.1657    0.0018 N   0  0  0  0  0  0  0  0  0  0  0  0
   -1.4676    0.8094   -0.0267 C   0  0  0  0  0  2  0  0  0  0  0  0
   -3.6808    1.3018   -0.1757 C   0  0  0  0  0  0  0  0  0  0  0  0
   -4.7476    1.0812   -0.2688 H   0  0  0  0  0  0  0  0  0  0  0  0
   -3.0010    2.4856   -0.0866 C   0  0  0  0  0  0  0  0  0  0  0  0
   -3.3460    3.5230   -0.0731 H   0  0  0  0  0  0  0  0  0  0  0  0
   -3.0505   -1.1172   -0.1939 C   0  0  0  0  0  0  0  0  0  0  0  0
   -2.8927   -1.8010   -1.4193 C   0  0  0  0  0  0  0  0  0  0  0  0
   -3.2074   -3.1723   -1.4399 C   0  0  0  0  0  0  0  0  0  0  0  0
   -3.0872   -3.7247   -2.3856 H   0  0  0  0  0  0  0  0  0  0  0  0
   -3.6775   -3.8485   -0.3003 C   0  0  0  0  0  0  0  0  0  0  0  0
   -3.8604   -3.1123    0.8851 C   0  0  0  0  0  0  0  0  0  0  0  0
   -4.2471   -3.6199    1.7833 H   0  0  0  0  0  0  0  0  0  0  0  0
   -3.5585   -1.7426    0.9674 C   0  0  0  0  0  0  0  0  0  0  0  0
   -2.4213   -1.0952   -2.6615 C   0  0  0  0  0  0  0  0  0  0  0  0
   -2.9532   -0.1330   -2.8105 H   0  0  0  0  0  0  0  0  0  0  0  0
   -2.5861   -1.7241   -3.5566 H   0  0  0  0  0  0  0  0  0  0  0  0
   -1.3400   -0.8438   -2.6066 H   0  0  0  0  0  0  0  0  0  0  0  0
   -3.7576   -0.9758    2.2474 C   0  0  0  0  0  0  0  0  0  0  0  0
   -4.4749   -0.1381    2.1245 H   0  0  0  0  0  0  0  0  0  0  0  0
   -2.7908   -0.5458    2.5837 H   0  0  0  0  0  0  0  0  0  0  0  0
   -4.1413   -1.6378    3.0462 H   0  0  0  0  0  0  0  0  0  0  0  0
   -3.9621   -5.3288   -0.3393 C   0  0  0  0  0  0  0  0  0  0  0  0
   -4.1895   -5.6758   -1.3663 H   0  0  0  0  0  0  0  0  0  0  0  0
   -4.8135   -5.5995    0.3163 H   0  0  0  0  0  0  0  0  0  0  0  0
   -3.0823   -5.9076    0.0157 H   0  0  0  0  0  0  0  0  0  0  0  0
   -0.5953    3.1464    0.0934 C   0  0  0  0  0  0  0  0  0  0  0  0
   -0.2026    3.8258   -1.0819 C   0  0  0  0  0  0  0  0  0  0  0  0
    0.8320    4.7699   -0.9694 C   0  0  0  0  0  0  0  0  0  0  0  0
    1.1590    5.3024   -1.8768 H   0  0  0  0  0  0  0  0  0  0  0  0
    1.4597    5.0469    0.2593 C   0  0  0  0  0  0  0  0  0  0  0  0
    1.0051    4.3747    1.4077 C   0  0  0  0  0  0  0  0  0  0  0  0
    1.4627    4.6014    2.3840 H   0  0  0  0  0  0  0  0  0  0  0  0
   -0.0300    3.4229    1.3578 C   0  0  0  0  0  0  0  0  0  0  0  0
   -0.8623    3.5465   -2.4064 C   0  0  0  0  0  0  0  0  0  0  0  0
   -0.7515    2.4749   -2.6719 H   0  0  0  0  0  0  0  0  0  0  0  0
   -0.4011    4.1510   -3.2097 H   0  0  0  0  0  0  0  0  0  0  0  0
   -1.9477    3.7773   -2.3869 H   0  0  0  0  0  0  0  0  0  0  0  0
   -0.5215    2.7431    2.6060 C   0  0  0  0  0  0  0  0  0  0  0  0
   -0.1104    3.2339    3.5082 H   0  0  0  0  0  0  0  0  0  0  0  0
   -0.2349    1.6688    2.6301 H   0  0  0  0  0  0  0  0  0  0  0  0
   -1.6289    2.7666    2.6721 H   0  0  0  0  0  0  0  0  0  0  0  0
    2.6025    6.0276    0.3374 C   0  0  0  0  0  0  0  0  0  0  0  0
    2.6871    6.4791    1.3454 H   0  0  0  0  0  0  0  0  0  0  0  0
    2.4921    6.8453   -0.4023 H   0  0  0  0  0  0  0  0  0  0  0  0
    3.5692    5.5231    0.1225 H   0  0  0  0  0  0  0  0  0  0  0  0
  1  3  1  0  0  0  0
  2 28  1  0  0  0  0
  3  2  1  0  0  0  0
  4  1  1  0  0  0  0
  4  6  2  0  0  0  0
  5  4  1  0  0  0  0
  6  7  1  0  0  0  0
  6  2  1  0  0  0  0
  8  1  1  0  0  0  0
  8 15  1  0  0  0  0
  9  8  2  0  0  0  0
 10  9  1  0  0  0  0
 10 12  2  0  0  0  0
 11 10  1  0  0  0  0
 12 13  1  0  0  0  0
 13 15  2  0  0  0  0
 13 14  1  0  0  0  0
 15 20  1  0  0  0  0
 16 19  1  0  0  0  0
 16  9  1  0  0  0  0
 17 16  1  0  0  0  0
 18 16  1  0  0  0  0
 20 22  1  0  0  0  0
 20 23  1  0  0  0  0
 21 20  1  0  0  0  0
 24 12  1  0  0  0  0
 24 27  1  0  0  0  0
 24 26  1  0  0  0  0
 25 24  1  0  0  0  0
 28 35  1  0  0  0  0
 29 30  1  0  0  0  0
 29 28  2  0  0  0  0
 30 32  2  0  0  0  0
 31 30  1  0  0  0  0
 32 44  1  0  0  0  0
 32 33  1  0  0  0  0
 33 34  1  0  0  0  0
 35 33  2  0  0  0  0
 35 40  1  0  0  0  0
 36 39  1  0  0  0  0
 36 29  1  0  0  0  0
 37 36  1  0  0  0  0
 38 36  1  0  0  0  0
 40 42  1  0  0  0  0
 40 43  1  0  0  0  0
 40 41  1  0  0  0  0
 44 45  1  0  0  0  0
 46 44  1  0  0  0  0
 47 44  1  0  0  0  0
M  END
