4
 OpenBabel05122313113D

  7  6  0  0  0  0  0  0  0  0999 V2000
    0.9180   -0.4219   -1.9645 C   0  0  0  0  0  3  0  0  0  0  0  0
    0.3440   -1.1654   -2.5485 H   0  0  0  0  0  0  0  0  0  0  0  0
    1.2652    0.4391   -2.5640 H   0  0  0  0  0  0  0  0  0  0  0  0
    1.7086   -0.8880   -0.8814 C   0  0  0  0  0  3  0  0  0  0  0  0
    2.7797   -1.6218   -0.5563 C   0  0  0  0  0  0  0  0  0  0  0  0
    3.4079   -2.0776   -1.3422 H   0  0  0  0  0  0  0  0  0  0  0  0
    3.0853   -1.7896    0.4896 H   0  0  0  0  0  0  0  0  0  0  0  0
  1  4  1  0  0  0  0
  2  1  1  0  0  0  0
  3  1  1  0  0  0  0
  4  5  2  0  0  0  0
  5  7  1  0  0  0  0
  6  5  1  0  0  0  0
M  END
