4
 OpenBabel05122313113D

 16 15  0  0  0  0  0  0  0  0999 V2000
   -0.6182   -1.6115    1.5756 C   0  0  0  0  0  3  0  0  0  0  0  0
   -0.9671   -1.2935    2.5769 H   0  0  0  0  0  0  0  0  0  0  0  0
   -0.8183   -2.6764    1.3626 H   0  0  0  0  0  0  0  0  0  0  0  0
    0.5161   -0.9751    1.0027 C   0  0  0  0  0  3  0  0  0  0  0  0
    1.8656   -0.9816    1.0784 C   0  0  0  0  0  0  0  0  0  0  0  0
    2.3841   -1.6492    1.7876 H   0  0  0  0  0  0  0  0  0  0  0  0
    2.7278   -0.1498    0.2193 C   0  0  0  0  0  0  0  0  0  0  0  0
    2.3680    0.6880   -0.6013 O   0  0  0  0  0  0  0  0  0  0  0  0
    4.0417   -0.4293    0.4491 O   0  0  0  0  0  0  0  0  0  0  0  0
    4.9860    0.3095   -0.3460 C   0  0  0  0  0  0  0  0  0  0  0  0
    4.8292    1.3972   -0.1784 H   0  0  0  0  0  0  0  0  0  0  0  0
    4.7756    0.1260   -1.4218 H   0  0  0  0  0  0  0  0  0  0  0  0
    6.3795   -0.1358    0.0489 C   0  0  0  0  0  0  0  0  0  0  0  0
    7.1376    0.4125   -0.5448 H   0  0  0  0  0  0  0  0  0  0  0  0
    6.5155   -1.2206   -0.1320 H   0  0  0  0  0  0  0  0  0  0  0  0
    6.5707    0.0610    1.1226 H   0  0  0  0  0  0  0  0  0  0  0  0
  1  2  1  0  0  0  0
  3  1  1  0  0  0  0
  4  5  2  0  0  0  0
  4  1  1  0  0  0  0
  5  6  1  0  0  0  0
  7  9  1  0  0  0  0
  7  5  1  0  0  0  0
  8  7  2  0  0  0  0
 10 11  1  0  0  0  0
 10 13  1  0  0  0  0
 10  9  1  0  0  0  0
 12 10  1  0  0  0  0
 13 16  1  0  0  0  0
 14 13  1  0  0  0  0
 15 13  1  0  0  0  0
M  END
