3
 OpenBabel05122313113D

  7  6  0  0  0  0  0  0  0  0999 V2000
    1.7371   -3.0891   -1.5085 O   0  0  0  0  0  0  0  0  0  0  0  0
    3.0030   -3.5191    0.3117 O   0  0  0  0  0  0  0  0  0  0  0  0
    0.9550   -2.2381    0.5717 C   0  0  0  0  0  3  0  0  0  0  0  0
    2.0042   -3.0036   -0.1578 C   0  0  0  0  0  0  0  0  0  0  0  0
   -0.0532   -2.5964    0.2859 H   0  0  0  0  0  0  0  0  0  0  0  0
    1.0998   -2.3539    1.6624 H   0  0  0  0  0  0  0  0  0  0  0  0
    2.4967   -3.5901   -1.8754 H   0  0  0  0  0  0  0  0  0  0  0  0
  1  4  1  0  0  0  0
  3  6  1  0  0  0  0
  4  2  2  0  0  0  0
  4  3  1  0  0  0  0
  5  3  1  0  0  0  0
  7  1  1  0  0  0  0
M  END
