5
 OpenBabel05122313113D

 25 26  0  0  0  0  0  0  0  0999 V2000
    2.1663    0.3221   -2.0169 P   0  0  0  0  0  0  0  0  0  0  0  0
    2.5295   -0.7601   -0.6104 C   0  0  0  0  0  0  0  0  0  0  0  0
    1.6970   -1.9116   -0.5756 C   0  0  0  0  0  0  0  0  0  0  0  0
    0.7076   -1.9048   -1.6294 C   0  0  0  0  0  0  0  0  0  0  0  0
    0.8488   -0.7849   -2.4805 C   0  0  0  0  0  3  0  0  0  0  0  0
    0.2057   -0.6343   -3.3589 H   0  0  0  0  0  0  0  0  0  0  0  0
    1.8706   -3.0903    0.3373 C   0  0  0  0  0  0  0  0  0  0  0  0
    1.7729   -4.0337   -0.2366 H   0  0  0  0  0  0  0  0  0  0  0  0
    1.0944   -3.1041    1.1312 H   0  0  0  0  0  0  0  0  0  0  0  0
    2.8628   -3.0782    0.8238 H   0  0  0  0  0  0  0  0  0  0  0  0
   -0.2867   -3.0139   -1.8323 C   0  0  0  0  0  0  0  0  0  0  0  0
   -0.7503   -3.3220   -0.8744 H   0  0  0  0  0  0  0  0  0  0  0  0
    0.2118   -3.9096   -2.2616 H   0  0  0  0  0  0  0  0  0  0  0  0
   -1.0899   -2.7038   -2.5273 H   0  0  0  0  0  0  0  0  0  0  0  0
    3.6453   -0.4824    0.3168 C   0  0  0  0  0  0  0  0  0  0  0  0
    4.8628    0.0336   -0.1822 C   0  0  0  0  0  0  0  0  0  0  0  0
    4.9649    0.2097   -1.2644 H   0  0  0  0  0  0  0  0  0  0  0  0
    5.9368    0.3039    0.6767 C   0  0  0  0  0  0  0  0  0  0  0  0
    6.8772    0.7011    0.2655 H   0  0  0  0  0  0  0  0  0  0  0  0
    5.8144    0.0645    2.0542 C   0  0  0  0  0  0  0  0  0  0  0  0
    6.6570    0.2758    2.7300 H   0  0  0  0  0  0  0  0  0  0  0  0
    4.6069   -0.4375    2.5662 C   0  0  0  0  0  0  0  0  0  0  0  0
    4.4946   -0.6086    3.6476 H   0  0  0  0  0  0  0  0  0  0  0  0
    3.5312   -0.7036    1.7101 C   0  0  0  0  0  0  0  0  0  0  0  0
    2.5747   -1.0507    2.1265 H   0  0  0  0  0  0  0  0  0  0  0  0
  1  2  2  0  0  0  0
  2  3  1  0  0  0  0
  2 15  1  0  0  0  0
  3  7  1  0  0  0  0
  4  3  2  0  0  0  0
  5  1  1  0  0  0  0
  5  4  1  0  0  0  0
  6  5  1  0  0  0  0
  7 10  1  0  0  0  0
  7  9  1  0  0  0  0
  8  7  1  0  0  0  0
 11  4  1  0  0  0  0
 11 12  1  0  0  0  0
 13 11  1  0  0  0  0
 14 11  1  0  0  0  0
 15 24  1  0  0  0  0
 16 15  2  0  0  0  0
 16 18  1  0  0  0  0
 17 16  1  0  0  0  0
 18 20  2  0  0  0  0
 19 18  1  0  0  0  0
 20 22  1  0  0  0  0
 20 21  1  0  0  0  0
 22 23  1  0  0  0  0
 24 25  1  0  0  0  0
 24 22  2  0  0  0  0
M  END
