2
 OpenBabel05122313113D

 19 19  0  0  0  0  0  0  0  0999 V2000
    1.9338   -0.0030   -0.4026 N   0  0  0  0  0  2  0  0  0  0  0  0
    0.7226   -0.0014   -0.2065 C   0  0  0  0  0  1  0  0  0  0  0  0
    3.2427   -0.0032    0.0174 C   0  0  0  0  0  0  0  0  0  0  0  0
    4.2656   -0.0045   -0.9740 C   0  0  0  0  0  0  0  0  0  0  0  0
    5.6066   -0.0047   -0.5576 C   0  0  0  0  0  0  0  0  0  0  0  0
    6.4006   -0.0057   -1.3211 H   0  0  0  0  0  0  0  0  0  0  0  0
    5.9423   -0.0037    0.8047 C   0  0  0  0  0  0  0  0  0  0  0  0
    6.9984   -0.0040    1.1138 H   0  0  0  0  0  0  0  0  0  0  0  0
    4.9261   -0.0025    1.7715 C   0  0  0  0  0  0  0  0  0  0  0  0
    5.1850   -0.0018    2.8424 H   0  0  0  0  0  0  0  0  0  0  0  0
    3.5692   -0.0023    1.4056 C   0  0  0  0  0  0  0  0  0  0  0  0
    3.8809   -0.0055   -2.4286 C   0  0  0  0  0  0  0  0  0  0  0  0
    3.2600   -0.8914   -2.6785 H   0  0  0  0  0  0  0  0  0  0  0  0
    4.7734   -0.0064   -3.0833 H   0  0  0  0  0  0  0  0  0  0  0  0
    3.2607    0.8806   -2.6800 H   0  0  0  0  0  0  0  0  0  0  0  0
    2.4722   -0.0010    2.4323 C   0  0  0  0  0  0  0  0  0  0  0  0
    1.8094    0.8816    2.3174 H   0  0  0  0  0  0  0  0  0  0  0  0
    2.8819   -0.0004    3.4603 H   0  0  0  0  0  0  0  0  0  0  0  0
    1.8088   -0.8835    2.3188 H   0  0  0  0  0  0  0  0  0  0  0  0
  1  2  1  0  0  0  0
  1  3  1  0  0  0  0
  3 11  1  0  0  0  0
  4  5  1  0  0  0  0
  4  3  2  0  0  0  0
  5  7  2  0  0  0  0
  6  5  1  0  0  0  0
  7  8  1  0  0  0  0
  7  9  1  0  0  0  0
  9 10  1  0  0  0  0
 11  9  2  0  0  0  0
 11 16  1  0  0  0  0
 12  4  1  0  0  0  0
 13 12  1  0  0  0  0
 14 12  1  0  0  0  0
 15 12  1  0  0  0  0
 16 18  1  0  0  0  0
 17 16  1  0  0  0  0
 19 16  1  0  0  0  0
M  END
