1
 OpenBabel05122313113D

 19 19  0  0  0  0  0  0  0  0999 V2000
    1.9284   -0.3275   -0.4984 C   0  0  0  0  0  1  0  0  0  0  0  0
    3.1701   -0.3604   -0.4998 C   0  0  0  0  0  2  0  0  0  0  0  0
    4.6062    0.9158    1.6625 C   0  0  0  0  0  0  0  0  0  0  0  0
    4.0068    1.4785    2.5723 C   0  0  0  0  0  0  0  0  0  0  0  0
    3.4642    1.9689    3.3668 H   0  0  0  0  0  0  0  0  0  0  0  0
    4.5907   -0.3736   -0.4651 C   0  0  0  0  0  0  0  0  0  0  0  0
    5.3117    0.2612    0.6074 C   0  0  0  0  0  0  0  0  0  0  0  0
    6.7195    0.2366    0.6205 C   0  0  0  0  0  0  0  0  0  0  0  0
    7.2729    0.7195    1.4375 H   0  0  0  0  0  0  0  0  0  0  0  0
    7.4453   -0.4006   -0.4023 C   0  0  0  0  0  0  0  0  0  0  0  0
    6.7501   -1.0267   -1.4587 C   0  0  0  0  0  0  0  0  0  0  0  0
    7.2891   -1.5323   -2.2709 H   0  0  0  0  0  0  0  0  0  0  0  0
    5.3502   -1.0062   -1.4765 C   0  0  0  0  0  0  0  0  0  0  0  0
    4.8104   -1.4948   -2.3005 H   0  0  0  0  0  0  0  0  0  0  0  0
    8.8044   -0.3602   -0.2851 O   0  0  0  0  0  0  0  0  0  0  0  0
    9.5794   -0.9860   -1.2864 C   0  0  0  0  0  0  0  0  0  0  0  0
   10.6384   -0.8379   -1.0032 H   0  0  0  0  0  0  0  0  0  0  0  0
    9.4091   -0.5348   -2.2905 H   0  0  0  0  0  0  0  0  0  0  0  0
    9.3742   -2.0790   -1.3523 H   0  0  0  0  0  0  0  0  0  0  0  0
  2  1  1  0  0  0  0
  2  6  1  0  0  0  0
  3  4  3  0  0  0  0
  4  5  1  0  0  0  0
  6  7  1  0  0  0  0
  7  8  2  0  0  0  0
  7  3  1  0  0  0  0
  8  9  1  0  0  0  0
 10 15  1  0  0  0  0
 10  8  1  0  0  0  0
 11 10  2  0  0  0  0
 12 11  1  0  0  0  0
 13 11  1  0  0  0  0
 13  6  2  0  0  0  0
 14 13  1  0  0  0  0
 16 17  1  0  0  0  0
 16 15  1  0  0  0  0
 18 16  1  0  0  0  0
 19 16  1  0  0  0  0
M  END
