2
 OpenBabel05122313113D

 21 20  0  0  1  0  0  0  0  0999 V2000
   -1.7551   -0.3056   -0.8035 N   0  0  0  0  0  2  0  0  0  0  0  0
   -1.0395    0.5832   -0.5044 C   0  0  0  0  0  1  0  0  0  0  0  0
   -2.6029   -1.4394   -1.0187 C   0  0  1  0  0  0  0  0  0  0  0  0
   -3.3888   -1.1028   -1.7313 H   0  0  0  0  0  0  0  0  0  0  0  0
   -1.7880   -2.5565   -1.6837 C   0  0  0  0  0  0  0  0  0  0  0  0
   -1.3070   -2.1841   -2.6084 H   0  0  0  0  0  0  0  0  0  0  0  0
   -2.4506   -3.3963   -1.9602 H   0  0  0  0  0  0  0  0  0  0  0  0
   -0.9965   -2.9348   -1.0091 H   0  0  0  0  0  0  0  0  0  0  0  0
   -3.3376   -1.8149    0.3201 C   0  0  0  0  0  0  0  0  0  0  0  0
   -4.1726   -0.6052    0.7790 C   0  0  0  0  0  0  0  0  0  0  0  0
   -3.5368    0.2725    1.0120 H   0  0  0  0  0  0  0  0  0  0  0  0
   -4.7362   -0.8575    1.6986 H   0  0  0  0  0  0  0  0  0  0  0  0
   -4.9098   -0.3047    0.0062 H   0  0  0  0  0  0  0  0  0  0  0  0
   -4.2803   -2.9980    0.0337 C   0  0  0  0  0  0  0  0  0  0  0  0
   -4.9017   -3.2035    0.9275 H   0  0  0  0  0  0  0  0  0  0  0  0
   -3.7286   -3.9283   -0.2033 H   0  0  0  0  0  0  0  0  0  0  0  0
   -4.9697   -2.7774   -0.8072 H   0  0  0  0  0  0  0  0  0  0  0  0
   -2.3297   -2.1950    1.4177 C   0  0  0  0  0  0  0  0  0  0  0  0
   -1.6471   -1.3546    1.6591 H   0  0  0  0  0  0  0  0  0  0  0  0
   -1.7155   -3.0734    1.1368 H   0  0  0  0  0  0  0  0  0  0  0  0
   -2.8691   -2.4554    2.3495 H   0  0  0  0  0  0  0  0  0  0  0  0
  1  2  1  0  0  0  0
  3  4  1  6  0  0  0
  3  1  1  0  0  0  0
  3  9  1  0  0  0  0
  5  3  1  0  0  0  0
  5  8  1  0  0  0  0
  6  5  1  0  0  0  0
  7  5  1  0  0  0  0
  9 10  1  0  0  0  0
  9 18  1  0  0  0  0
 10 11  1  0  0  0  0
 10 12  1  0  0  0  0
 13 10  1  0  0  0  0
 14  9  1  0  0  0  0
 14 15  1  0  0  0  0
 16 14  1  0  0  0  0
 17 14  1  0  0  0  0
 18 19  1  0  0  0  0
 18 21  1  0  0  0  0
 20 18  1  0  0  0  0
M  END
