2
 OpenBabel05122313113D

 20 20  0  0  0  0  0  0  0  0999 V2000
   -2.0525   -0.0541   -2.0301 O   0  0  0  0  0  0  0  0  0  0  0  0
   -1.5593    0.3266   -0.8657 C   0  0  0  0  0  2  0  0  0  0  0  0
   -2.8619    0.7953   -2.8789 C   0  0  0  0  0  0  0  0  0  0  0  0
   -1.9426    1.6955   -0.3591 C   0  0  0  0  0  0  0  0  0  0  0  0
   -3.3742    1.6892    0.1708 C   0  0  0  0  0  0  0  0  0  0  0  0
   -3.7524    0.7805    1.1816 C   0  0  0  0  0  0  0  0  0  0  0  0
   -5.0669    0.7749    1.6705 C   0  0  0  0  0  0  0  0  0  0  0  0
   -6.0174    1.6757    1.1637 C   0  0  0  0  0  0  0  0  0  0  0  0
   -5.6439    2.5926    0.1691 C   0  0  0  0  0  0  0  0  0  0  0  0
   -4.3310    2.5962   -0.3273 C   0  0  0  0  0  0  0  0  0  0  0  0
   -3.7802    1.1124   -2.3505 H   0  0  0  0  0  0  0  0  0  0  0  0
   -2.2716    1.6754   -3.2018 H   0  0  0  0  0  0  0  0  0  0  0  0
   -3.1132    0.1736   -3.7557 H   0  0  0  0  0  0  0  0  0  0  0  0
   -1.2416    1.9935    0.4416 H   0  0  0  0  0  0  0  0  0  0  0  0
   -1.8418    2.4432   -1.1729 H   0  0  0  0  0  0  0  0  0  0  0  0
   -2.9914    0.1100    1.6066 H   0  0  0  0  0  0  0  0  0  0  0  0
   -5.3490    0.0675    2.4653 H   0  0  0  0  0  0  0  0  0  0  0  0
   -7.0471    1.6708    1.5511 H   0  0  0  0  0  0  0  0  0  0  0  0
   -6.3770    3.3139   -0.2220 H   0  0  0  0  0  0  0  0  0  0  0  0
   -4.0423    3.3253   -1.1016 H   0  0  0  0  0  0  0  0  0  0  0  0
  1  2  1  0  0  0  0
  2  4  1  0  0  0  0
  3 11  1  0  0  0  0
  3  1  1  0  0  0  0
  4  5  1  0  0  0  0
  4 14  1  0  0  0  0
  5  6  1  0  0  0  0
  6 16  1  0  0  0  0
  6  7  2  0  0  0  0
  7 17  1  0  0  0  0
  8 18  1  0  0  0  0
  8  7  1  0  0  0  0
  9  8  2  0  0  0  0
 10  9  1  0  0  0  0
 10  5  2  0  0  0  0
 12  3  1  0  0  0  0
 13  3  1  0  0  0  0
 15  4  1  0  0  0  0
 19  9  1  0  0  0  0
 20 10  1  0  0  0  0
M  END
