5
 OpenBabel05122313113D

 21 22  0  0  0  0  0  0  0  0999 V2000
   -1.4498    0.8545    0.9199 C   0  0  0  0  0  3  0  0  0  0  0  0
   -1.8439    0.7484    1.9406 H   0  0  0  0  0  0  0  0  0  0  0  0
   -0.2684    1.5853    0.6293 C   0  0  0  0  0  3  0  0  0  0  0  0
    0.3958    2.0815    1.3485 H   0  0  0  0  0  0  0  0  0  0  0  0
   -0.1019    1.5704   -0.8054 C   0  0  0  0  0  3  0  0  0  0  0  0
    0.7186    2.0449   -1.3595 H   0  0  0  0  0  0  0  0  0  0  0  0
   -1.1840    0.8311   -1.3493 C   0  0  0  0  0  3  0  0  0  0  0  0
   -1.3314    0.6943   -2.4305 H   0  0  0  0  0  0  0  0  0  0  0  0
   -2.3192    0.7646   -0.3370 C   0  0  0  0  0  0  0  0  0  0  0  0
   -3.2789    1.9964   -0.4342 C   0  0  0  0  0  0  0  0  0  0  0  0
   -2.7838    2.9406   -0.1325 H   0  0  0  0  0  0  0  0  0  0  0  0
   -3.5678    2.1052   -1.5009 H   0  0  0  0  0  0  0  0  0  0  0  0
   -4.4998    1.6145    0.4294 C   0  0  0  0  0  0  0  0  0  0  0  0
   -4.4138    2.0505    1.4446 H   0  0  0  0  0  0  0  0  0  0  0  0
   -5.4336    2.0220   -0.0030 H   0  0  0  0  0  0  0  0  0  0  0  0
   -4.5005    0.0602    0.4905 C   0  0  0  0  0  0  0  0  0  0  0  0
   -5.4592   -0.3824    0.1599 H   0  0  0  0  0  0  0  0  0  0  0  0
   -4.3419   -0.2912    1.5305 H   0  0  0  0  0  0  0  0  0  0  0  0
   -3.3317   -0.3920   -0.4064 C   0  0  0  0  0  0  0  0  0  0  0  0
   -3.6633   -0.4888   -1.4614 H   0  0  0  0  0  0  0  0  0  0  0  0
   -2.9122   -1.3716   -0.1119 H   0  0  0  0  0  0  0  0  0  0  0  0
  1  2  1  0  0  0  0
  3  1  1  0  0  0  0
  3  4  1  0  0  0  0
  5  3  1  0  0  0  0
  6  5  1  0  0  0  0
  7  5  1  0  0  0  0
  7  9  1  0  0  0  0
  8  7  1  0  0  0  0
  9  1  1  0  0  0  0
 10  9  1  0  0  0  0
 10 11  1  0  0  0  0
 10 13  1  0  0  0  0
 12 10  1  0  0  0  0
 13 16  1  0  0  0  0
 13 14  1  0  0  0  0
 15 13  1  0  0  0  0
 16 18  1  0  0  0  0
 17 16  1  0  0  0  0
 19  9  1  0  0  0  0
 19 21  1  0  0  0  0
 19 16  1  0  0  0  0
 20 19  1  0  0  0  0
M  END
