1
 OpenBabel05122313113D

 38 41  0  0  0  0  0  0  0  0999 V2000
   -0.2362    0.5986   -0.3917 C   0  0  0  0  0  2  0  0  0  0  0  0
   -1.5283    0.5303   -0.8183 N   0  0  0  0  0  0  0  0  0  0  0  0
   -1.1344    2.6834   -0.2976 C   0  0  0  0  0  0  0  0  0  0  0  0
    1.2670    2.4005    0.3988 C   0  0  0  0  0  0  0  0  0  0  0  0
   -2.6896    4.4921   -0.4383 C   0  0  0  0  0  0  0  0  0  0  0  0
   -2.9380    5.5555   -0.3071 H   0  0  0  0  0  0  0  0  0  0  0  0
   -3.4139    2.2389   -1.0996 C   0  0  0  0  0  0  0  0  0  0  0  0
   -4.1866    1.5451   -1.4554 H   0  0  0  0  0  0  0  0  0  0  0  0
   -1.3997    4.0463   -0.1124 C   0  0  0  0  0  0  0  0  0  0  0  0
   -0.6300    4.7292    0.2723 H   0  0  0  0  0  0  0  0  0  0  0  0
    1.8318    1.8644    1.5691 C   0  0  0  0  0  0  0  0  0  0  0  0
    1.3042    1.0625    2.1083 H   0  0  0  0  0  0  0  0  0  0  0  0
   -3.6762    3.6061   -0.9251 C   0  0  0  0  0  0  0  0  0  0  0  0
   -4.6768    3.9942   -1.1658 H   0  0  0  0  0  0  0  0  0  0  0  0
   -2.1245    1.7931   -0.7773 C   0  0  0  0  0  0  0  0  0  0  0  0
    3.7182    3.3487    1.2899 C   0  0  0  0  0  0  0  0  0  0  0  0
    1.9282    3.4051   -0.3274 C   0  0  0  0  0  0  0  0  0  0  0  0
    1.4861    3.7869   -1.2586 H   0  0  0  0  0  0  0  0  0  0  0  0
    3.0717    2.3391    2.0146 C   0  0  0  0  0  0  0  0  0  0  0  0
    3.5438    1.9365    2.9217 H   0  0  0  0  0  0  0  0  0  0  0  0
    3.1615    3.8914    0.1245 C   0  0  0  0  0  0  0  0  0  0  0  0
    3.7079    4.6716   -0.4235 H   0  0  0  0  0  0  0  0  0  0  0  0
   -2.1712   -0.6938   -1.2947 C   0  0  0  0  0  0  0  0  0  0  0  0
   -1.3779   -1.4701   -1.2625 H   0  0  0  0  0  0  0  0  0  0  0  0
   -2.4544   -0.5500   -2.3577 H   0  0  0  0  0  0  0  0  0  0  0  0
   -3.3744   -1.0934   -0.4684 C   0  0  0  0  0  0  0  0  0  0  0  0
   -3.2482   -1.2868    0.9231 C   0  0  0  0  0  0  0  0  0  0  0  0
   -2.2647   -1.1542    1.4061 H   0  0  0  0  0  0  0  0  0  0  0  0
   -4.3572   -1.6631    1.6906 C   0  0  0  0  0  0  0  0  0  0  0  0
   -4.2768   -1.8200    2.7759 H   0  0  0  0  0  0  0  0  0  0  0  0
    0.0099    1.9065   -0.0717 N   0  0  0  0  0  0  0  0  0  0  0  0
    4.9056    3.8086    1.7216 F   0  0  0  0  0  0  0  0  0  0  0  0
   -6.6611   -2.2122    1.7954 F   0  0  0  0  0  0  0  0  0  0  0  0
   -5.5938   -1.8514    1.0588 C   0  0  0  0  0  0  0  0  0  0  0  0
   -4.6276   -1.2916   -1.0770 C   0  0  0  0  0  0  0  0  0  0  0  0
   -4.7353   -1.1471   -2.1643 H   0  0  0  0  0  0  0  0  0  0  0  0
   -5.7458   -1.6743   -0.3210 C   0  0  0  0  0  0  0  0  0  0  0  0
   -6.7309   -1.8331   -0.7820 H   0  0  0  0  0  0  0  0  0  0  0  0
  1 31  1  0  0  0  0
  2 15  1  0  0  0  0
  2  1  1  0  0  0  0
  3  9  1  0  0  0  0
  3 31  1  0  0  0  0
  4 11  1  0  0  0  0
  5  6  1  0  0  0  0
  5  9  2  0  0  0  0
  7 13  2  0  0  0  0
  7 15  1  0  0  0  0
  8  7  1  0  0  0  0
  9 10  1  0  0  0  0
 11 19  2  0  0  0  0
 11 12  1  0  0  0  0
 13  5  1  0  0  0  0
 14 13  1  0  0  0  0
 15  3  2  0  0  0  0
 16 32  1  0  0  0  0
 16 19  1  0  0  0  0
 17 21  1  0  0  0  0
 17  4  2  0  0  0  0
 18 17  1  0  0  0  0
 19 20  1  0  0  0  0
 21 16  2  0  0  0  0
 22 21  1  0  0  0  0
 23 24  1  0  0  0  0
 23  2  1  0  0  0  0
 23 26  1  0  0  0  0
 25 23  1  0  0  0  0
 26 27  1  0  0  0  0
 27 28  1  0  0  0  0
 27 29  2  0  0  0  0
 29 30  1  0  0  0  0
 31  4  1  0  0  0  0
 34 29  1  0  0  0  0
 34 33  1  0  0  0  0
 35 26  2  0  0  0  0
 35 37  1  0  0  0  0
 36 35  1  0  0  0  0
 37 34  2  0  0  0  0
 38 37  1  0  0  0  0
M  END
