1
 OpenBabel05122313113D

 42 45  0  0  0  0  0  0  0  0999 V2000
   -0.7797   -1.0210   -0.3095 C   0  0  0  0  0  2  0  0  0  0  0  0
   -2.7832   -2.0630   -0.0786 C   0  0  0  0  0  0  0  0  0  0  0  0
    0.6757   -2.9552   -0.9515 C   0  0  0  0  0  0  0  0  0  0  0  0
    0.8151   -2.7056   -2.0228 H   0  0  0  0  0  0  0  0  0  0  0  0
    0.5553   -4.0529   -0.8609 H   0  0  0  0  0  0  0  0  0  0  0  0
    1.8719   -2.4815   -0.1556 C   0  0  0  0  0  0  0  0  0  0  0  0
   -1.8049   -3.0426   -0.3813 C   0  0  0  0  0  0  0  0  0  0  0  0
   -2.7081    0.4412    0.1796 C   0  0  0  0  0  0  0  0  0  0  0  0
   -4.0397    1.9207    1.5617 C   0  0  0  0  0  0  0  0  0  0  0  0
   -4.6301    2.1278    2.4653 H   0  0  0  0  0  0  0  0  0  0  0  0
   -4.1312   -2.4013    0.0977 C   0  0  0  0  0  0  0  0  0  0  0  0
   -4.8849   -1.6326    0.3157 H   0  0  0  0  0  0  0  0  0  0  0  0
   -3.4961   -4.7370   -0.3155 C   0  0  0  0  0  0  0  0  0  0  0  0
   -3.7997   -5.7905   -0.4033 H   0  0  0  0  0  0  0  0  0  0  0  0
   -2.5062    1.4729   -0.7482 C   0  0  0  0  0  0  0  0  0  0  0  0
   -1.8921    1.2855   -1.6421 H   0  0  0  0  0  0  0  0  0  0  0  0
   -3.0661    2.7380   -0.5216 C   0  0  0  0  0  0  0  0  0  0  0  0
   -2.8902    3.5351   -1.2555 H   0  0  0  0  0  0  0  0  0  0  0  0
    3.0041   -2.1517    1.9816 C   0  0  0  0  0  0  0  0  0  0  0  0
    3.0390   -2.2347    3.0766 H   0  0  0  0  0  0  0  0  0  0  0  0
   -2.1483   -4.3964   -0.5058 C   0  0  0  0  0  0  0  0  0  0  0  0
   -1.3990   -5.1626   -0.7486 H   0  0  0  0  0  0  0  0  0  0  0  0
    2.9428   -1.8405   -0.8099 C   0  0  0  0  0  0  0  0  0  0  0  0
    2.8892   -1.6723   -1.8956 H   0  0  0  0  0  0  0  0  0  0  0  0
    4.0462   -1.5065    1.3054 C   0  0  0  0  0  0  0  0  0  0  0  0
   -3.4685    0.6675    1.3408 C   0  0  0  0  0  0  0  0  0  0  0  0
   -3.5838   -0.1341    2.0839 H   0  0  0  0  0  0  0  0  0  0  0  0
   -3.8409    2.9684    0.6348 C   0  0  0  0  0  0  0  0  0  0  0  0
    1.9238   -2.6458    1.2415 C   0  0  0  0  0  0  0  0  0  0  0  0
    1.0829   -3.1209    1.7692 H   0  0  0  0  0  0  0  0  0  0  0  0
   -4.2377    5.2487    0.0667 C   0  0  0  0  0  0  0  0  0  0  0  0
   -3.1620    5.5177   -0.0306 H   0  0  0  0  0  0  0  0  0  0  0  0
   -4.7836    6.1028    0.5084 H   0  0  0  0  0  0  0  0  0  0  0  0
   -4.6468    5.0447   -0.9485 H   0  0  0  0  0  0  0  0  0  0  0  0
   -4.4704   -3.7572   -0.0229 C   0  0  0  0  0  0  0  0  0  0  0  0
   -5.5188   -4.0622    0.1096 H   0  0  0  0  0  0  0  0  0  0  0  0
    4.0412   -1.3592   -0.0857 C   0  0  0  0  0  0  0  0  0  0  0  0
    4.8720   -0.8353   -0.5789 H   0  0  0  0  0  0  0  0  0  0  0  0
   -4.4297    4.1542    0.9432 O   0  0  0  0  0  0  0  0  0  0  0  0
    5.0725   -0.9932    2.0152 F   0  0  0  0  0  0  0  0  0  0  0  0
   -2.1088   -0.8365   -0.0477 N   0  0  0  0  0  0  0  0  0  0  0  0
   -0.5938   -2.3589   -0.5141 N   0  0  0  0  0  0  0  0  0  0  0  0
  1 41  1  0  0  0  0
  2 41  1  0  0  0  0
  2 11  1  0  0  0  0
  3  5  1  0  0  0  0
  3 42  1  0  0  0  0
  3  6  1  0  0  0  0
  4  3  1  0  0  0  0
  6 29  1  0  0  0  0
  7  2  2  0  0  0  0
  8 26  1  0  0  0  0
  9 10  1  0  0  0  0
 11 12  1  0  0  0  0
 13 35  1  0  0  0  0
 14 13  1  0  0  0  0
 15 17  1  0  0  0  0
 15  8  2  0  0  0  0
 16 15  1  0  0  0  0
 17 28  2  0  0  0  0
 18 17  1  0  0  0  0
 19 20  1  0  0  0  0
 21  7  1  0  0  0  0
 21 13  2  0  0  0  0
 22 21  1  0  0  0  0
 23  6  2  0  0  0  0
 23 37  1  0  0  0  0
 24 23  1  0  0  0  0
 25 19  1  0  0  0  0
 25 40  1  0  0  0  0
 26  9  2  0  0  0  0
 26 27  1  0  0  0  0
 28 39  1  0  0  0  0
 28  9  1  0  0  0  0
 29 30  1  0  0  0  0
 29 19  2  0  0  0  0
 31 33  1  0  0  0  0
 31 39  1  0  0  0  0
 32 31  1  0  0  0  0
 34 31  1  0  0  0  0
 35 11  2  0  0  0  0
 35 36  1  0  0  0  0
 37 25  2  0  0  0  0
 38 37  1  0  0  0  0
 41  8  1  0  0  0  0
 42  7  1  0  0  0  0
 42  1  1  0  0  0  0
M  END
