8
 OpenBabel05122313113D

 54 57  0  0  1  0  0  0  0  0999 V2000
    0.2068    1.4154    0.5558 P   0  0  0  0  0  0  0  0  0  0  0  0
    0.7842   -0.8112    4.0147 O   0  0  0  0  0  0  0  0  0  0  0  0
   -0.8172    0.6765    3.3267 O   0  0  0  0  0  0  0  0  0  0  0  0
   -0.8140   -1.4233    2.3122 C   0  0  2  0  0  3  0  0  0  0  0  0
   -0.2390   -2.6307    1.7355 C   0  0  0  0  0  0  0  0  0  0  0  0
   -0.9560   -2.9209    0.5371 C   0  0  0  0  0  0  0  0  0  0  0  0
   -2.0085   -1.9249    0.3424 C   0  0  2  0  0  3  0  0  0  0  0  0
   -1.8848   -0.9860    1.4294 C   0  0  0  0  0  3  0  0  0  0  0  0
    0.9290   -3.3871    2.2763 C   0  0  0  0  0  0  0  0  0  0  0  0
   -3.0714   -1.9587   -0.6730 C   0  0  0  0  0  0  0  0  0  0  0  0
   -4.1802   -1.0802   -0.6048 C   0  0  0  0  0  0  0  0  0  0  0  0
   -5.1725   -1.0905   -1.5932 C   0  0  0  0  0  0  0  0  0  0  0  0
   -5.0962   -1.9898   -2.6699 C   0  0  0  0  0  0  0  0  0  0  0  0
   -4.0181   -2.8870   -2.7374 C   0  0  0  0  0  0  0  0  0  0  0  0
   -3.0210   -2.8736   -1.7531 C   0  0  0  0  0  0  0  0  0  0  0  0
   -0.1893   -0.5630    3.3237 C   0  0  0  0  0  0  0  0  0  0  0  0
    0.0701    1.7949    3.4149 C   0  0  0  0  0  0  0  0  0  0  0  0
    0.9915    1.8791    2.1925 C   0  0  0  0  0  0  0  0  0  0  0  0
   -1.2692    2.5059    0.3955 C   0  0  0  0  0  0  0  0  0  0  0  0
   -1.2712    3.8387    0.8559 C   0  0  0  0  0  0  0  0  0  0  0  0
   -2.4076    4.6428    0.6833 C   0  0  0  0  0  0  0  0  0  0  0  0
   -3.5462    4.1289    0.0394 C   0  0  0  0  0  0  0  0  0  0  0  0
   -3.5448    2.8077   -0.4342 C   0  0  0  0  0  0  0  0  0  0  0  0
   -2.4114    2.0000   -0.2533 C   0  0  0  0  0  0  0  0  0  0  0  0
    1.3831    2.1686   -0.6505 C   0  0  0  0  0  0  0  0  0  0  0  0
    2.7757    2.0260   -0.4720 C   0  0  0  0  0  0  0  0  0  0  0  0
    3.6667    2.4649   -1.4618 C   0  0  0  0  0  0  0  0  0  0  0  0
    3.1819    3.0496   -2.6419 C   0  0  0  0  0  0  0  0  0  0  0  0
    1.7981    3.2031   -2.8234 C   0  0  0  0  0  0  0  0  0  0  0  0
    0.9033    2.7671   -1.8348 C   0  0  0  0  0  0  0  0  0  0  0  0
   -0.7533   -3.7849   -0.1067 H   0  0  0  0  0  0  0  0  0  0  0  0
   -2.5305   -0.1254    1.6336 H   0  0  0  0  0  0  0  0  0  0  0  0
    1.3338   -4.0862    1.5203 H   0  0  0  0  0  0  0  0  0  0  0  0
    1.7233   -2.6853    2.5926 H   0  0  0  0  0  0  0  0  0  0  0  0
    0.6249   -3.9655    3.1730 H   0  0  0  0  0  0  0  0  0  0  0  0
   -4.2717   -0.3873    0.2436 H   0  0  0  0  0  0  0  0  0  0  0  0
   -6.0238   -0.3967   -1.5139 H   0  0  0  0  0  0  0  0  0  0  0  0
   -5.8784   -2.0001   -3.4435 H   0  0  0  0  0  0  0  0  0  0  0  0
   -3.9517   -3.6072   -3.5673 H   0  0  0  0  0  0  0  0  0  0  0  0
   -2.1796   -3.5777   -1.8284 H   0  0  0  0  0  0  0  0  0  0  0  0
   -0.5928    2.6790    3.4812 H   0  0  0  0  0  0  0  0  0  0  0  0
    0.6822    1.7307    4.3400 H   0  0  0  0  0  0  0  0  0  0  0  0
    1.8217    1.1485    2.2888 H   0  0  0  0  0  0  0  0  0  0  0  0
    1.4353    2.8922    2.1172 H   0  0  0  0  0  0  0  0  0  0  0  0
   -0.3770    4.2583    1.3421 H   0  0  0  0  0  0  0  0  0  0  0  0
   -2.4038    5.6804    1.0506 H   0  0  0  0  0  0  0  0  0  0  0  0
   -4.4354    4.7636   -0.0948 H   0  0  0  0  0  0  0  0  0  0  0  0
   -4.4289    2.3973   -0.9462 H   0  0  0  0  0  0  0  0  0  0  0  0
   -2.3988    0.9604   -0.6152 H   0  0  0  0  0  0  0  0  0  0  0  0
    3.1739    1.5511    0.4349 H   0  0  0  0  0  0  0  0  0  0  0  0
    4.7486    2.3320   -1.3113 H   0  0  0  0  0  0  0  0  0  0  0  0
    3.8828    3.3878   -3.4201 H   0  0  0  0  0  0  0  0  0  0  0  0
    1.4093    3.6702   -3.7413 H   0  0  0  0  0  0  0  0  0  0  0  0
   -0.1793    2.9029   -1.9808 H   0  0  0  0  0  0  0  0  0  0  0  0
  1 18  1  0  0  0  0
  3 17  1  0  0  0  0
  4 16  1  6  0  0  0
  5  9  1  0  0  0  0
  5  4  1  0  0  0  0
  6  5  2  0  0  0  0
  7 10  1  1  0  0  0
  7  6  1  0  0  0  0
  7  8  1  0  0  0  0
  8 32  1  0  0  0  0
  8  4  1  0  0  0  0
  9 34  1  0  0  0  0
  9 35  1  0  0  0  0
 10 11  1  0  0  0  0
 11 36  1  0  0  0  0
 12 37  1  0  0  0  0
 12 11  2  0  0  0  0
 13 12  1  0  0  0  0
 14 13  2  0  0  0  0
 14 15  1  0  0  0  0
 15 10  2  0  0  0  0
 16  3  1  0  0  0  0
 16  2  2  0  0  0  0
 17 41  1  0  0  0  0
 17 42  1  0  0  0  0
 18 43  1  0  0  0  0
 18 17  1  0  0  0  0
 19  1  1  0  0  0  0
 19 20  1  0  0  0  0
 20 45  1  0  0  0  0
 21 20  2  0  0  0  0
 21 46  1  0  0  0  0
 22 21  1  0  0  0  0
 23 24  1  0  0  0  0
 23 22  2  0  0  0  0
 24 19  2  0  0  0  0
 25 26  1  0  0  0  0
 25  1  1  0  0  0  0
 26 50  1  0  0  0  0
 27 51  1  0  0  0  0
 27 26  2  0  0  0  0
 28 27  1  0  0  0  0
 29 28  2  0  0  0  0
 29 30  1  0  0  0  0
 30 25  2  0  0  0  0
 31  6  1  0  0  0  0
 33  9  1  0  0  0  0
 38 13  1  0  0  0  0
 39 14  1  0  0  0  0
 40 15  1  0  0  0  0
 44 18  1  0  0  0  0
 47 22  1  0  0  0  0
 48 23  1  0  0  0  0
 49 24  1  0  0  0  0
 52 28  1  0  0  0  0
 53 29  1  0  0  0  0
 54 30  1  0  0  0  0
M  END
