3
 OpenBabel05122313113D

 51 52  0  0  1  0  0  0  0  0999 V2000
    3.8294   -3.3392    0.9248 C   0  0  0  0  0  0  0  0  0  0  0  0
    2.7949   -2.3322    0.4967 C   0  0  0  0  0  3  0  0  0  0  0  0
    2.5467   -2.0541   -0.8875 C   0  0  0  0  0  3  0  0  0  0  0  0
    1.6713   -0.9742   -1.2155 C   0  0  0  0  0  3  0  0  0  0  0  0
    1.0823   -0.2311   -0.1474 C   0  0  0  0  0  3  0  0  0  0  0  0
    0.1669    0.9833   -0.3273 C   0  0  2  0  0  0  0  0  0  0  0  0
    0.5603    2.0465    0.7356 C   0  0  0  0  0  0  0  0  0  0  0  0
   -0.4739    3.1571    0.9295 C   0  0  0  0  0  0  0  0  0  0  0  0
   -1.8405    2.5815    1.3049 C   0  0  0  0  0  0  0  0  0  0  0  0
   -2.3729    1.5740    0.2625 C   0  0  2  0  0  0  0  0  0  0  0  0
   -1.2840    0.4734    0.0185 C   0  0  1  0  0  0  0  0  0  0  0  0
    0.2725    1.5687   -1.7459 C   0  0  0  0  0  0  0  0  0  0  0  0
   -2.8173    2.3351   -1.0062 C   0  0  0  0  0  0  0  0  0  0  0  0
   -3.6072    0.8527    0.8618 C   0  0  0  0  0  0  0  0  0  0  0  0
   -4.1452   -0.2495   -0.0425 C   0  0  1  0  0  0  0  0  0  0  0  0
   -3.0725   -1.2920   -0.3544 C   0  0  0  0  0  0  0  0  0  0  0  0
   -1.8065   -0.6316   -0.9141 C   0  0  0  0  0  0  0  0  0  0  0  0
   -5.2591   -0.8669    0.6520 O   0  0  0  0  0  0  0  0  0  0  0  0
   -6.2201   -1.4371   -0.1227 C   0  0  0  0  0  0  0  0  0  0  0  0
   -6.1996   -1.4405   -1.3393 O   0  0  0  0  0  0  0  0  0  0  0  0
   -7.2910   -2.0650    0.7394 C   0  0  0  0  0  0  0  0  0  0  0  0
    4.2428   -3.0939    1.9232 H   0  0  0  0  0  0  0  0  0  0  0  0
    3.3785   -4.3530    1.0024 H   0  0  0  0  0  0  0  0  0  0  0  0
    4.6769   -3.3998    0.2142 H   0  0  0  0  0  0  0  0  0  0  0  0
    1.9418   -2.2400    1.1907 H   0  0  0  0  0  0  0  0  0  0  0  0
    3.0978   -2.5758   -1.6865 H   0  0  0  0  0  0  0  0  0  0  0  0
    1.5573   -0.6699   -2.2662 H   0  0  0  0  0  0  0  0  0  0  0  0
    0.8247   -0.7935    0.7663 H   0  0  0  0  0  0  0  0  0  0  0  0
    1.5476    2.4746    0.4684 H   0  0  0  0  0  0  0  0  0  0  0  0
    0.7054    1.5244    1.7066 H   0  0  0  0  0  0  0  0  0  0  0  0
   -0.5537    3.7752    0.0097 H   0  0  0  0  0  0  0  0  0  0  0  0
   -0.1243    3.8501    1.7227 H   0  0  0  0  0  0  0  0  0  0  0  0
   -2.5874    3.3913    1.4514 H   0  0  0  0  0  0  0  0  0  0  0  0
   -1.7507    2.0586    2.2834 H   0  0  0  0  0  0  0  0  0  0  0  0
   -1.1649   -0.0031    1.0208 H   0  0  0  0  0  0  0  0  0  0  0  0
   -0.1637    0.8943   -2.5083 H   0  0  0  0  0  0  0  0  0  0  0  0
   -0.2531    2.5356   -1.8288 H   0  0  0  0  0  0  0  0  0  0  0  0
    1.3262    1.7561   -2.0233 H   0  0  0  0  0  0  0  0  0  0  0  0
   -2.0813    3.0970   -1.3211 H   0  0  0  0  0  0  0  0  0  0  0  0
   -2.9900    1.6706   -1.8742 H   0  0  0  0  0  0  0  0  0  0  0  0
   -3.7687    2.8692   -0.8053 H   0  0  0  0  0  0  0  0  0  0  0  0
   -4.4102    1.5914    1.0688 H   0  0  0  0  0  0  0  0  0  0  0  0
   -3.3299    0.3982    1.8380 H   0  0  0  0  0  0  0  0  0  0  0  0
   -4.5371    0.1662   -0.9938 H   0  0  0  0  0  0  0  0  0  0  0  0
   -3.4783   -2.0381   -1.0668 H   0  0  0  0  0  0  0  0  0  0  0  0
   -2.8300   -1.8279    0.5895 H   0  0  0  0  0  0  0  0  0  0  0  0
   -1.0259   -1.4049   -1.0617 H   0  0  0  0  0  0  0  0  0  0  0  0
   -2.0196   -0.2183   -1.9227 H   0  0  0  0  0  0  0  0  0  0  0  0
   -8.1302   -2.3972    0.1045 H   0  0  0  0  0  0  0  0  0  0  0  0
   -6.8685   -2.9361    1.2798 H   0  0  0  0  0  0  0  0  0  0  0  0
   -7.6431   -1.3481    1.5062 H   0  0  0  0  0  0  0  0  0  0  0  0
  1 23  1  0  0  0  0
  1 22  1  0  0  0  0
  2  1  1  0  0  0  0
  2 25  1  0  0  0  0
  3  2  1  0  0  0  0
  4  3  1  0  0  0  0
  4  5  1  0  0  0  0
  5 28  1  0  0  0  0
  6  5  1  1  0  0  0
  6 11  1  0  0  0  0
  6  7  1  0  0  0  0
  7  8  1  0  0  0  0
  7 30  1  0  0  0  0
  8  9  1  0  0  0  0
  8 32  1  0  0  0  0
  9 33  1  0  0  0  0
  9 34  1  0  0  0  0
 10 13  1  6  0  0  0
 10 14  1  0  0  0  0
 10  9  1  0  0  0  0
 11 10  1  0  0  0  0
 11 35  1  1  0  0  0
 12  6  1  0  0  0  0
 13 41  1  0  0  0  0
 14 42  1  0  0  0  0
 14 43  1  0  0  0  0
 15 44  1  6  0  0  0
 15 18  1  0  0  0  0
 15 14  1  0  0  0  0
 16 15  1  0  0  0  0
 16 46  1  0  0  0  0
 17 16  1  0  0  0  0
 17 11  1  0  0  0  0
 19 18  1  0  0  0  0
 19 21  1  0  0  0  0
 20 19  2  0  0  0  0
 21 50  1  0  0  0  0
 21 51  1  0  0  0  0
 24  1  1  0  0  0  0
 26  3  1  0  0  0  0
 27  4  1  0  0  0  0
 29  7  1  0  0  0  0
 31  8  1  0  0  0  0
 36 12  1  0  0  0  0
 37 12  1  0  0  0  0
 38 12  1  0  0  0  0
 39 13  1  0  0  0  0
 40 13  1  0  0  0  0
 45 16  1  0  0  0  0
 47 17  1  0  0  0  0
 48 17  1  0  0  0  0
 49 21  1  0  0  0  0
M  END
