4
 OpenBabel05122313113D

 77 79  0  0  0  0  0  0  0  0999 V2000
    3.1395   -2.5741   -0.0007 Si  0  0  0  0  0  0  0  0  0  0  0  0
    1.1631   -0.3374    0.0001 N   0  0  0  0  0  0  0  0  0  0  0  0
   -0.7537   -1.3229   -0.0001 N   0  0  0  0  0  0  0  0  0  0  0  0
   -0.1794   -0.0818    0.0002 C   0  0  0  0  0  2  0  0  0  0  0  0
    1.4487   -1.7168   -0.0004 C   0  0  0  0  0  0  0  0  0  0  0  0
    0.2082   -2.3232   -0.0005 C   0  0  0  0  0  0  0  0  0  0  0  0
   -0.0673   -3.3820   -0.0007 H   0  0  0  0  0  0  0  0  0  0  0  0
    2.1603    0.7047    0.0000 C   0  0  0  0  0  0  0  0  0  0  0  0
    2.6302    1.1945   -1.2438 C   0  0  0  0  0  0  0  0  0  0  0  0
    3.6553    2.1588   -1.2147 C   0  0  0  0  0  0  0  0  0  0  0  0
    4.0462    2.5593   -2.1610 H   0  0  0  0  0  0  0  0  0  0  0  0
    4.1739    2.6241   -0.0002 C   0  0  0  0  0  0  0  0  0  0  0  0
    4.9786    3.3749   -0.0003 H   0  0  0  0  0  0  0  0  0  0  0  0
    3.6560    2.1583    1.2144 C   0  0  0  0  0  0  0  0  0  0  0  0
    4.0475    2.5584    2.1606 H   0  0  0  0  0  0  0  0  0  0  0  0
    2.6310    1.1940    1.2438 C   0  0  0  0  0  0  0  0  0  0  0  0
    1.9755    0.7856   -2.5581 C   0  0  0  0  0  0  0  0  0  0  0  0
    1.5280   -0.2203   -2.4103 H   0  0  0  0  0  0  0  0  0  0  0  0
    0.8310    1.7676   -2.8805 C   0  0  0  0  0  0  0  0  0  0  0  0
    0.0866    1.8196   -2.0562 H   0  0  0  0  0  0  0  0  0  0  0  0
    0.2982    1.4624   -3.8038 H   0  0  0  0  0  0  0  0  0  0  0  0
    1.2282    2.7922   -3.0316 H   0  0  0  0  0  0  0  0  0  0  0  0
    2.9516    0.6937   -3.7393 C   0  0  0  0  0  0  0  0  0  0  0  0
    3.8145    0.0355   -3.5194 H   0  0  0  0  0  0  0  0  0  0  0  0
    3.3455    1.6905   -4.0249 H   0  0  0  0  0  0  0  0  0  0  0  0
    2.4300    0.2896   -4.6301 H   0  0  0  0  0  0  0  0  0  0  0  0
    1.9770    0.7845    2.5582 C   0  0  0  0  0  0  0  0  0  0  0  0
    1.5300   -0.2216    2.4104 H   0  0  0  0  0  0  0  0  0  0  0  0
    0.8322    1.7659    2.8815 C   0  0  0  0  0  0  0  0  0  0  0  0
    0.0874    1.8177    2.0574 H   0  0  0  0  0  0  0  0  0  0  0  0
    1.2290    2.7906    3.0326 H   0  0  0  0  0  0  0  0  0  0  0  0
    0.2999    1.4601    3.8049 H   0  0  0  0  0  0  0  0  0  0  0  0
    2.9537    0.6929    3.7390 C   0  0  0  0  0  0  0  0  0  0  0  0
    3.8170    0.0353    3.5185 H   0  0  0  0  0  0  0  0  0  0  0  0
    2.4328    0.2881    4.6299 H   0  0  0  0  0  0  0  0  0  0  0  0
    3.3470    1.6899    4.0248 H   0  0  0  0  0  0  0  0  0  0  0  0
   -2.1777   -1.5401   -0.0002 C   0  0  0  0  0  0  0  0  0  0  0  0
   -2.8465   -1.6396   -1.2429 C   0  0  0  0  0  0  0  0  0  0  0  0
   -4.2264   -1.9141   -1.2145 C   0  0  0  0  0  0  0  0  0  0  0  0
   -4.7800   -1.9934   -2.1620 H   0  0  0  0  0  0  0  0  0  0  0  0
   -4.9066   -2.0669   -0.0003 C   0  0  0  0  0  0  0  0  0  0  0  0
   -5.9858   -2.2828   -0.0003 H   0  0  0  0  0  0  0  0  0  0  0  0
   -4.2263   -1.9149    1.2140 C   0  0  0  0  0  0  0  0  0  0  0  0
   -4.7798   -1.9949    2.1615 H   0  0  0  0  0  0  0  0  0  0  0  0
   -2.8464   -1.6404    1.2426 C   0  0  0  0  0  0  0  0  0  0  0  0
   -2.1408   -1.3393    2.5576 C   0  0  0  0  0  0  0  0  0  0  0  0
   -1.0484   -1.3337    2.3632 H   0  0  0  0  0  0  0  0  0  0  0  0
   -2.5331    0.0756    3.0260 C   0  0  0  0  0  0  0  0  0  0  0  0
   -2.3276    0.8376    2.2446 H   0  0  0  0  0  0  0  0  0  0  0  0
   -1.9732    0.3572    3.9411 H   0  0  0  0  0  0  0  0  0  0  0  0
   -3.6169    0.1288    3.2570 H   0  0  0  0  0  0  0  0  0  0  0  0
   -2.4079   -2.3947    3.6402 C   0  0  0  0  0  0  0  0  0  0  0  0
   -2.1232   -3.4106    3.2991 H   0  0  0  0  0  0  0  0  0  0  0  0
   -3.4777   -2.4239    3.9327 H   0  0  0  0  0  0  0  0  0  0  0  0
   -1.8268   -2.1632    4.5558 H   0  0  0  0  0  0  0  0  0  0  0  0
   -2.1410   -1.3377   -2.5579 C   0  0  0  0  0  0  0  0  0  0  0  0
   -1.0486   -1.3318   -2.3635 H   0  0  0  0  0  0  0  0  0  0  0  0
   -2.4078   -2.3928   -3.6409 C   0  0  0  0  0  0  0  0  0  0  0  0
   -2.1227   -3.4087   -3.3002 H   0  0  0  0  0  0  0  0  0  0  0  0
   -1.8268   -2.1607   -4.5564 H   0  0  0  0  0  0  0  0  0  0  0  0
   -3.4775   -2.4222   -3.9333 H   0  0  0  0  0  0  0  0  0  0  0  0
   -2.5337    0.0773   -3.0257 C   0  0  0  0  0  0  0  0  0  0  0  0
   -2.3285    0.8390   -2.2439 H   0  0  0  0  0  0  0  0  0  0  0  0
   -3.6176    0.1303   -3.2567 H   0  0  0  0  0  0  0  0  0  0  0  0
   -1.9740    0.3594   -3.9407 H   0  0  0  0  0  0  0  0  0  0  0  0
    4.1236   -2.1063    1.5394 C   0  0  0  0  0  0  0  0  0  0  0  0
    5.0637   -2.6947    1.5794 H   0  0  0  0  0  0  0  0  0  0  0  0
    3.5520   -2.3075    2.4674 H   0  0  0  0  0  0  0  0  0  0  0  0
    4.3930   -1.0317    1.5211 H   0  0  0  0  0  0  0  0  0  0  0  0
    4.1237   -2.1055   -1.5406 C   0  0  0  0  0  0  0  0  0  0  0  0
    5.0644   -2.6929   -1.5799 H   0  0  0  0  0  0  0  0  0  0  0  0
    4.3919   -1.0306   -1.5223 H   0  0  0  0  0  0  0  0  0  0  0  0
    3.5527   -2.3075   -2.4688 H   0  0  0  0  0  0  0  0  0  0  0  0
    2.7512   -4.4243   -0.0012 C   0  0  0  0  0  0  0  0  0  0  0  0
    3.6930   -5.0105   -0.0016 H   0  0  0  0  0  0  0  0  0  0  0  0
    2.1721   -4.7188   -0.9000 H   0  0  0  0  0  0  0  0  0  0  0  0
    2.1727   -4.7192    0.8979 H   0  0  0  0  0  0  0  0  0  0  0  0
  1  5  1  0  0  0  0
  1 66  1  0  0  0  0
  2  4  1  0  0  0  0
  3  4  1  0  0  0  0
  5  2  1  0  0  0  0
  6  5  2  0  0  0  0
  6  3  1  0  0  0  0
  7  6  1  0  0  0  0
  8  2  1  0  0  0  0
  8 16  1  0  0  0  0
  9 10  1  0  0  0  0
  9  8  2  0  0  0  0
 10 12  2  0  0  0  0
 11 10  1  0  0  0  0
 12 14  1  0  0  0  0
 13 12  1  0  0  0  0
 14 16  2  0  0  0  0
 14 15  1  0  0  0  0
 16 27  1  0  0  0  0
 17 18  1  0  0  0  0
 17  9  1  0  0  0  0
 19 17  1  0  0  0  0
 19 20  1  0  0  0  0
 21 19  1  0  0  0  0
 22 19  1  0  0  0  0
 23 24  1  0  0  0  0
 23 17  1  0  0  0  0
 25 23  1  0  0  0  0
 26 23  1  0  0  0  0
 27 29  1  0  0  0  0
 27 33  1  0  0  0  0
 28 27  1  0  0  0  0
 29 31  1  0  0  0  0
 29 32  1  0  0  0  0
 30 29  1  0  0  0  0
 33 36  1  0  0  0  0
 33 35  1  0  0  0  0
 34 33  1  0  0  0  0
 37  3  1  0  0  0  0
 37 45  1  0  0  0  0
 38 39  1  0  0  0  0
 38 37  2  0  0  0  0
 39 41  2  0  0  0  0
 40 39  1  0  0  0  0
 41 43  1  0  0  0  0
 42 41  1  0  0  0  0
 43 45  2  0  0  0  0
 43 44  1  0  0  0  0
 45 46  1  0  0  0  0
 46 48  1  0  0  0  0
 46 52  1  0  0  0  0
 47 46  1  0  0  0  0
 48 51  1  0  0  0  0
 48 50  1  0  0  0  0
 49 48  1  0  0  0  0
 52 54  1  0  0  0  0
 52 55  1  0  0  0  0
 53 52  1  0  0  0  0
 56 57  1  0  0  0  0
 56 38  1  0  0  0  0
 58 59  1  0  0  0  0
 58 56  1  0  0  0  0
 60 58  1  0  0  0  0
 61 58  1  0  0  0  0
 62 56  1  0  0  0  0
 62 63  1  0  0  0  0
 64 62  1  0  0  0  0
 65 62  1  0  0  0  0
 66 67  1  0  0  0  0
 66 68  1  0  0  0  0
 69 66  1  0  0  0  0
 70 72  1  0  0  0  0
 70  1  1  0  0  0  0
 71 70  1  0  0  0  0
 73 70  1  0  0  0  0
 74  1  1  0  0  0  0
 74 77  1  0  0  0  0
 75 74  1  0  0  0  0
 76 74  1  0  0  0  0
M  END
