4
 OpenBabel05122313113D

  8  7  0  0  0  0  0  0  0  0999 V2000
    1.6905    3.0264   -1.3832 C   0  0  0  0  0  3  0  0  0  0  0  0
    1.1945    3.9236   -1.7880 H   0  0  0  0  0  0  0  0  0  0  0  0
    2.3967    2.5423   -2.0770 H   0  0  0  0  0  0  0  0  0  0  0  0
    1.9370    2.9578    0.0204 C   0  0  0  0  0  3  0  0  0  0  0  0
    2.7816    2.3822    0.4340 H   0  0  0  0  0  0  0  0  0  0  0  0
    0.9063    3.4789    0.8530 C   0  0  0  0  0  3  0  0  0  0  0  0
    0.3818    4.3944    0.5350 H   0  0  0  0  0  0  0  0  0  0  0  0
    0.9736    3.3417    1.9445 H   0  0  0  0  0  0  0  0  0  0  0  0
  1  4  1  0  0  0  0
  2  1  1  0  0  0  0
  3  1  1  0  0  0  0
  4  5  1  0  0  0  0
  4  6  1  0  0  0  0
  6  8  1  0  0  0  0
  7  6  1  0  0  0  0
M  END
