3
 OpenBabel05122313113D

 29 29  0  0  0  0  0  0  0  0999 V2000
   -1.1779    1.4099   -0.0780 N   0  0  0  0  0  0  0  0  0  0  0  0
   -1.9519   -0.6346    0.0852 N   0  0  0  0  0  0  0  0  0  0  0  0
   -0.8284    0.1086    0.0121 C   0  0  0  0  0  2  0  0  0  0  0  0
   -2.6273    1.6083    0.0717 C   0  0  0  0  0  0  0  0  0  0  0  0
   -3.0269    2.3123   -0.6847 H   0  0  0  0  0  0  0  0  0  0  0  0
   -2.8591    2.0232    1.0783 H   0  0  0  0  0  0  0  0  0  0  0  0
   -3.1666    0.1749   -0.1001 C   0  0  0  0  0  0  0  0  0  0  0  0
   -3.9495   -0.0820    0.6407 H   0  0  0  0  0  0  0  0  0  0  0  0
   -3.5913    0.0082   -1.1154 H   0  0  0  0  0  0  0  0  0  0  0  0
   -1.9413   -2.1002    0.0535 C   0  0  0  0  0  0  0  0  0  0  0  0
   -0.8702   -2.3548    0.2103 H   0  0  0  0  0  0  0  0  0  0  0  0
   -2.3702   -2.6398   -1.3155 C   0  0  0  0  0  0  0  0  0  0  0  0
   -3.4326   -2.4063   -1.5366 H   0  0  0  0  0  0  0  0  0  0  0  0
   -2.2614   -3.7419   -1.3442 H   0  0  0  0  0  0  0  0  0  0  0  0
   -1.7397   -2.2109   -2.1194 H   0  0  0  0  0  0  0  0  0  0  0  0
   -2.7612   -2.6864    1.2058 C   0  0  0  0  0  0  0  0  0  0  0  0
   -2.4219   -2.2793    2.1786 H   0  0  0  0  0  0  0  0  0  0  0  0
   -2.6482   -3.7879    1.2334 H   0  0  0  0  0  0  0  0  0  0  0  0
   -3.8440   -2.4695    1.0925 H   0  0  0  0  0  0  0  0  0  0  0  0
   -0.1974    2.5028   -0.0445 C   0  0  0  0  0  0  0  0  0  0  0  0
    0.7816    1.9826   -0.1565 H   0  0  0  0  0  0  0  0  0  0  0  0
   -0.3866    3.4520   -1.2297 C   0  0  0  0  0  0  0  0  0  0  0  0
   -0.3659    2.8953   -2.1872 H   0  0  0  0  0  0  0  0  0  0  0  0
    0.4278    4.2024   -1.2496 H   0  0  0  0  0  0  0  0  0  0  0  0
   -1.3460    4.0072   -1.1653 H   0  0  0  0  0  0  0  0  0  0  0  0
   -0.2033    3.2247    1.3064 C   0  0  0  0  0  0  0  0  0  0  0  0
   -1.1602    3.7577    1.4877 H   0  0  0  0  0  0  0  0  0  0  0  0
    0.6076    3.9785    1.3390 H   0  0  0  0  0  0  0  0  0  0  0  0
   -0.0357    2.5060    2.1330 H   0  0  0  0  0  0  0  0  0  0  0  0
  1 20  1  0  0  0  0
  1  3  1  0  0  0  0
  1  4  1  0  0  0  0
  3  2  1  0  0  0  0
  4  6  1  0  0  0  0
  5  4  1  0  0  0  0
  7  4  1  0  0  0  0
  7  2  1  0  0  0  0
  7  8  1  0  0  0  0
  9  7  1  0  0  0  0
 10  2  1  0  0  0  0
 10 11  1  0  0  0  0
 10 16  1  0  0  0  0
 12 10  1  0  0  0  0
 13 12  1  0  0  0  0
 14 12  1  0  0  0  0
 15 12  1  0  0  0  0
 16 18  1  0  0  0  0
 16 17  1  0  0  0  0
 19 16  1  0  0  0  0
 20 26  1  0  0  0  0
 21 20  1  0  0  0  0
 22 25  1  0  0  0  0
 22 20  1  0  0  0  0
 23 22  1  0  0  0  0
 24 22  1  0  0  0  0
 26 28  1  0  0  0  0
 26 27  1  0  0  0  0
 26 29  1  0  0  0  0
M  END
