6
 OpenBabel05122313113D

 65 67  0  0  1  0  0  0  0  0999 V2000
    0.0825    1.8574    2.8897 Br  0  0  0  0  0  0  0  0  0  0  0  0
   -7.7504   -0.5560   -1.2620 Br  0  0  0  0  0  0  0  0  0  0  0  0
    1.9434    2.2083   -1.5392 N   0  0  0  0  0  0  0  0  0  0  0  0
    0.6943    1.5881    0.1356 N   0  0  0  0  0  0  0  0  0  0  0  0
   -2.0057    0.8727    0.2415 N   0  0  0  0  0  0  0  0  0  0  0  0
    1.7918    1.2410   -0.6024 C   0  0  0  0  0  2  0  0  0  0  0  0
    0.9437    3.1716   -1.3708 C   0  0  0  0  0  0  0  0  0  0  0  0
    0.8716    4.0563   -2.0051 H   0  0  0  0  0  0  0  0  0  0  0  0
    0.1540    2.7785   -0.3281 C   0  0  0  0  0  0  0  0  0  0  0  0
   -0.7313    3.2275    0.1248 H   0  0  0  0  0  0  0  0  0  0  0  0
    3.0820    2.3941   -2.5137 C   0  0  0  0  0  0  0  0  0  0  0  0
    2.5158    3.0297   -3.7952 C   0  0  0  0  0  0  0  0  0  0  0  0
    1.7000    2.4128   -4.2210 H   0  0  0  0  0  0  0  0  0  0  0  0
    3.3260    3.0947   -4.5458 H   0  0  0  0  0  0  0  0  0  0  0  0
    2.1426    4.0599   -3.6369 H   0  0  0  0  0  0  0  0  0  0  0  0
    4.1075    3.3192   -1.8367 C   0  0  0  0  0  0  0  0  0  0  0  0
    3.6612    4.3045   -1.5945 H   0  0  0  0  0  0  0  0  0  0  0  0
    4.9663    3.4859   -2.5161 H   0  0  0  0  0  0  0  0  0  0  0  0
    4.4803    2.8596   -0.8994 H   0  0  0  0  0  0  0  0  0  0  0  0
    3.7258    1.0513   -2.8772 C   0  0  0  0  0  0  0  0  0  0  0  0
    4.2881    0.6129   -2.0298 H   0  0  0  0  0  0  0  0  0  0  0  0
    4.4565    1.2276   -3.6895 H   0  0  0  0  0  0  0  0  0  0  0  0
    2.9783    0.3147   -3.2299 H   0  0  0  0  0  0  0  0  0  0  0  0
    0.1784    0.7879    1.2194 C   0  0  2  0  0  0  0  0  0  0  0  0
    0.9275    0.0113    1.4473 H   0  0  0  0  0  0  0  0  0  0  0  0
   -1.2028    0.1912    0.9791 C   0  0  0  0  0  0  0  0  0  0  0  0
   -1.4814   -1.0912    1.6825 C   0  0  0  0  0  0  0  0  0  0  0  0
   -0.5154   -2.1227    1.7030 C   0  0  0  0  0  0  0  0  0  0  0  0
    0.4497   -2.0010    1.1887 H   0  0  0  0  0  0  0  0  0  0  0  0
   -0.7981   -3.3463    2.3241 C   0  0  0  0  0  0  0  0  0  0  0  0
   -0.0404   -4.1435    2.3132 H   0  0  0  0  0  0  0  0  0  0  0  0
   -2.0385   -3.5487    2.9483 C   0  0  0  0  0  0  0  0  0  0  0  0
   -2.2583   -4.5082    3.4403 H   0  0  0  0  0  0  0  0  0  0  0  0
   -2.9994   -2.5232    2.9456 C   0  0  0  0  0  0  0  0  0  0  0  0
   -3.9702   -2.6742    3.4406 H   0  0  0  0  0  0  0  0  0  0  0  0
   -2.7287   -1.3050    2.3117 C   0  0  0  0  0  0  0  0  0  0  0  0
   -3.4842   -0.5077    2.3105 H   0  0  0  0  0  0  0  0  0  0  0  0
   -3.3131    0.4796   -0.0958 C   0  0  0  0  0  0  0  0  0  0  0  0
   -3.5674   -0.6271   -0.9511 C   0  0  0  0  0  0  0  0  0  0  0  0
   -4.9031   -0.9082   -1.2974 C   0  0  0  0  0  0  0  0  0  0  0  0
   -5.1250   -1.7570   -1.9599 H   0  0  0  0  0  0  0  0  0  0  0  0
   -5.9495   -0.1274   -0.8003 C   0  0  0  0  0  0  0  0  0  0  0  0
   -5.6960    0.9704    0.0351 C   0  0  0  0  0  0  0  0  0  0  0  0
   -6.5348    1.5702    0.4124 H   0  0  0  0  0  0  0  0  0  0  0  0
   -4.3780    1.2984    0.3831 C   0  0  0  0  0  0  0  0  0  0  0  0
   -2.4515   -1.4765   -1.5430 C   0  0  0  0  0  0  0  0  0  0  0  0
   -1.4926   -1.1511   -1.0979 H   0  0  0  0  0  0  0  0  0  0  0  0
   -2.3284   -1.2393   -3.0582 C   0  0  0  0  0  0  0  0  0  0  0  0
   -3.2420   -1.5661   -3.5971 H   0  0  0  0  0  0  0  0  0  0  0  0
   -1.4676   -1.8058   -3.4688 H   0  0  0  0  0  0  0  0  0  0  0  0
   -2.1677   -0.1658   -3.2828 H   0  0  0  0  0  0  0  0  0  0  0  0
   -2.6144   -2.9684   -1.2129 C   0  0  0  0  0  0  0  0  0  0  0  0
   -3.5081   -3.4039   -1.7066 H   0  0  0  0  0  0  0  0  0  0  0  0
   -2.7136   -3.1320   -0.1218 H   0  0  0  0  0  0  0  0  0  0  0  0
   -1.7276   -3.5346   -1.5627 H   0  0  0  0  0  0  0  0  0  0  0  0
   -4.0574    2.5199    1.2384 C   0  0  0  0  0  0  0  0  0  0  0  0
   -3.1569    2.2698    1.8396 H   0  0  0  0  0  0  0  0  0  0  0  0
   -3.6820    3.7051    0.3274 C   0  0  0  0  0  0  0  0  0  0  0  0
   -2.8871    3.4178   -0.3887 H   0  0  0  0  0  0  0  0  0  0  0  0
   -3.3271    4.5706    0.9244 H   0  0  0  0  0  0  0  0  0  0  0  0
   -4.5606    4.0332   -0.2654 H   0  0  0  0  0  0  0  0  0  0  0  0
   -5.1694    2.9081    2.2188 C   0  0  0  0  0  0  0  0  0  0  0  0
   -4.8277    3.7293    2.8803 H   0  0  0  0  0  0  0  0  0  0  0  0
   -5.4681    2.0543    2.8596 H   0  0  0  0  0  0  0  0  0  0  0  0
   -6.0769    3.2724    1.6941 H   0  0  0  0  0  0  0  0  0  0  0  0
  2 42  1  0  0  0  0
  3  7  1  0  0  0  0
  3  6  1  0  0  0  0
  4 24  1  0  0  0  0
  5 26  2  0  0  0  0
  6  4  1  0  0  0  0
  7  9  2  0  0  0  0
  8  7  1  0  0  0  0
  9 10  1  0  0  0  0
  9  4  1  0  0  0  0
 11 16  1  0  0  0  0
 11  3  1  0  0  0  0
 12 15  1  0  0  0  0
 12 11  1  0  0  0  0
 13 12  1  0  0  0  0
 14 12  1  0  0  0  0
 16 17  1  0  0  0  0
 16 19  1  0  0  0  0
 18 16  1  0  0  0  0
 20 11  1  0  0  0  0
 20 21  1  0  0  0  0
 22 20  1  0  0  0  0
 23 20  1  0  0  0  0
 24 25  1  1  0  0  0
 24  1  1  0  0  0  0
 26 24  1  0  0  0  0
 26 27  1  0  0  0  0
 27 28  2  0  0  0  0
 27 36  1  0  0  0  0
 28 30  1  0  0  0  0
 29 28  1  0  0  0  0
 30 32  2  0  0  0  0
 31 30  1  0  0  0  0
 32 33  1  0  0  0  0
 34 32  1  0  0  0  0
 34 35  1  0  0  0  0
 36 34  2  0  0  0  0
 37 36  1  0  0  0  0
 38  5  1  0  0  0  0
 38 45  1  0  0  0  0
 39 38  2  0  0  0  0
 40 39  1  0  0  0  0
 40 42  2  0  0  0  0
 41 40  1  0  0  0  0
 42 43  1  0  0  0  0
 43 45  2  0  0  0  0
 43 44  1  0  0  0  0
 45 56  1  0  0  0  0
 46 52  1  0  0  0  0
 46 47  1  0  0  0  0
 46 39  1  0  0  0  0
 48 46  1  0  0  0  0
 49 48  1  0  0  0  0
 50 48  1  0  0  0  0
 51 48  1  0  0  0  0
 52 54  1  0  0  0  0
 53 52  1  0  0  0  0
 55 52  1  0  0  0  0
 56 57  1  0  0  0  0
 56 62  1  0  0  0  0
 58 60  1  0  0  0  0
 58 56  1  0  0  0  0
 59 58  1  0  0  0  0
 61 58  1  0  0  0  0
 62 64  1  0  0  0  0
 62 63  1  0  0  0  0
 65 62  1  0  0  0  0
M  END
