1
 OpenBabel05122313113D

 13 13  0  0  0  0  0  0  0  0999 V2000
   -0.7044   -0.6480   -1.3916 C   0  0  0  0  0  3  0  0  0  0  0  0
   -0.5622   -0.2656   -2.5512 O   0  0  0  0  0  0  0  0  0  0  0  0
   -1.0351   -2.0832   -1.0936 C   0  0  0  0  0  0  0  0  0  0  0  0
   -1.0085   -3.0263   -2.1421 C   0  0  0  0  0  0  0  0  0  0  0  0
   -0.7595   -2.6698   -3.1527 H   0  0  0  0  0  0  0  0  0  0  0  0
   -1.2683   -4.3761   -1.8798 C   0  0  0  0  0  0  0  0  0  0  0  0
   -1.2302   -5.1139   -2.6962 H   0  0  0  0  0  0  0  0  0  0  0  0
   -1.5724   -4.7918   -0.5707 C   0  0  0  0  0  0  0  0  0  0  0  0
   -1.7792   -5.8539   -0.3659 H   0  0  0  0  0  0  0  0  0  0  0  0
   -1.6126   -3.8548    0.4758 C   0  0  0  0  0  0  0  0  0  0  0  0
   -1.8575   -4.1775    1.4992 H   0  0  0  0  0  0  0  0  0  0  0  0
   -1.3379   -2.5058    0.2156 C   0  0  0  0  0  0  0  0  0  0  0  0
   -1.3455   -1.7560    1.0238 H   0  0  0  0  0  0  0  0  0  0  0  0
  1  3  1  0  0  0  0
  2  1  2  0  0  0  0
  3 12  1  0  0  0  0
  4  6  1  0  0  0  0
  4  3  2  0  0  0  0
  5  4  1  0  0  0  0
  6  8  2  0  0  0  0
  7  6  1  0  0  0  0
  8  9  1  0  0  0  0
  8 10  1  0  0  0  0
 10 11  1  0  0  0  0
 12 10  2  0  0  0  0
 12 13  1  0  0  0  0
M  END
