6
 OpenBabel05122313113D

 62 64  0  0  1  0  0  0  0  0999 V2000
   -0.0271    3.4596    1.2201 Br  0  0  0  0  0  0  0  0  0  0  0  0
   -7.4861   -1.5206   -0.6227 Br  0  0  0  0  0  0  0  0  0  0  0  0
    1.8665    0.9966   -2.5291 N   0  0  0  0  0  0  0  0  0  0  0  0
    0.7201    1.6015   -0.7864 N   0  0  0  0  0  0  0  0  0  0  0  0
   -1.9514    1.0183   -0.1920 N   0  0  0  0  0  0  0  0  0  0  0  0
    1.7525    0.8094   -1.1971 C   0  0  0  0  0  2  0  0  0  0  0  0
    0.1734    2.2788   -1.8687 C   0  0  0  0  0  0  0  0  0  0  0  0
   -0.6697    2.9624   -1.7504 H   0  0  0  0  0  0  0  0  0  0  0  0
    0.9059    1.9067   -2.9648 C   0  0  0  0  0  0  0  0  0  0  0  0
    0.8231    2.2136   -4.0106 H   0  0  0  0  0  0  0  0  0  0  0  0
    2.8922    0.3572   -3.3853 C   0  0  0  0  0  0  0  0  0  0  0  0
    3.3754   -0.3871   -2.7208 H   0  0  0  0  0  0  0  0  0  0  0  0
    3.9309    1.3925   -3.8175 C   0  0  0  0  0  0  0  0  0  0  0  0
    3.4831    2.1707   -4.4691 H   0  0  0  0  0  0  0  0  0  0  0  0
    4.7385    0.8952   -4.3889 H   0  0  0  0  0  0  0  0  0  0  0  0
    4.3824    1.8869   -2.9349 H   0  0  0  0  0  0  0  0  0  0  0  0
    2.2282   -0.3921   -4.5388 C   0  0  0  0  0  0  0  0  0  0  0  0
    1.4923   -1.1228   -4.1507 H   0  0  0  0  0  0  0  0  0  0  0  0
    2.9986   -0.9457   -5.1095 H   0  0  0  0  0  0  0  0  0  0  0  0
    1.7200    0.2969   -5.2441 H   0  0  0  0  0  0  0  0  0  0  0  0
    0.2283    1.6099    0.5748 C   0  0  2  0  0  0  0  0  0  0  0  0
    1.0335    1.2179    1.2180 H   0  0  0  0  0  0  0  0  0  0  0  0
   -1.0877    0.8534    0.7459 C   0  0  0  0  0  0  0  0  0  0  0  0
   -1.2255    0.0334    1.9789 C   0  0  0  0  0  0  0  0  0  0  0  0
   -0.1385   -0.7396    2.4474 C   0  0  0  0  0  0  0  0  0  0  0  0
    0.8267   -0.7381    1.9189 H   0  0  0  0  0  0  0  0  0  0  0  0
   -0.2828   -1.5704    3.5655 C   0  0  0  0  0  0  0  0  0  0  0  0
    0.5726   -2.1783    3.8953 H   0  0  0  0  0  0  0  0  0  0  0  0
   -1.5084   -1.6218    4.2466 C   0  0  0  0  0  0  0  0  0  0  0  0
   -1.6226   -2.2697    5.1288 H   0  0  0  0  0  0  0  0  0  0  0  0
   -2.5903   -0.8424    3.8015 C   0  0  0  0  0  0  0  0  0  0  0  0
   -3.5503   -0.8728    4.3380 H   0  0  0  0  0  0  0  0  0  0  0  0
   -2.4566   -0.0272    2.6717 C   0  0  0  0  0  0  0  0  0  0  0  0
   -3.3081    0.5736    2.3256 H   0  0  0  0  0  0  0  0  0  0  0  0
   -3.2053    0.3876   -0.2535 C   0  0  0  0  0  0  0  0  0  0  0  0
   -3.3245   -1.0046   -0.5122 C   0  0  0  0  0  0  0  0  0  0  0  0
   -2.1145   -1.9066   -0.7153 C   0  0  0  0  0  0  0  0  0  0  0  0
   -1.1993   -1.3120   -0.5303 H   0  0  0  0  0  0  0  0  0  0  0  0
   -2.0337   -2.3892   -2.1740 C   0  0  0  0  0  0  0  0  0  0  0  0
   -2.9048   -3.0228   -2.4415 H   0  0  0  0  0  0  0  0  0  0  0  0
   -1.1130   -2.9872   -2.3302 H   0  0  0  0  0  0  0  0  0  0  0  0
   -2.0097   -1.5327   -2.8778 H   0  0  0  0  0  0  0  0  0  0  0  0
   -2.0903   -3.0826    0.2738 C   0  0  0  0  0  0  0  0  0  0  0  0
   -2.1586   -2.7297    1.3216 H   0  0  0  0  0  0  0  0  0  0  0  0
   -1.1437   -3.6494    0.1658 H   0  0  0  0  0  0  0  0  0  0  0  0
   -2.9303   -3.7856    0.0946 H   0  0  0  0  0  0  0  0  0  0  0  0
   -4.6174   -1.5505   -0.6311 C   0  0  0  0  0  0  0  0  0  0  0  0
   -4.7372   -2.6246   -0.8321 H   0  0  0  0  0  0  0  0  0  0  0  0
   -5.7488   -0.7436   -0.4873 C   0  0  0  0  0  0  0  0  0  0  0  0
   -5.6279    0.6328   -0.2451 C   0  0  0  0  0  0  0  0  0  0  0  0
   -6.5323    1.2457   -0.1373 H   0  0  0  0  0  0  0  0  0  0  0  0
   -4.3584    1.2193   -0.1424 C   0  0  0  0  0  0  0  0  0  0  0  0
   -4.1790    2.7191    0.0704 C   0  0  0  0  0  0  0  0  0  0  0  0
   -3.2950    2.8504    0.7318 H   0  0  0  0  0  0  0  0  0  0  0  0
   -5.3688    3.4018    0.7526 C   0  0  0  0  0  0  0  0  0  0  0  0
   -6.2710    3.4047    0.1064 H   0  0  0  0  0  0  0  0  0  0  0  0
   -5.1270    4.4606    0.9741 H   0  0  0  0  0  0  0  0  0  0  0  0
   -5.6367    2.9054    1.7070 H   0  0  0  0  0  0  0  0  0  0  0  0
   -3.8429    3.4016   -1.2700 C   0  0  0  0  0  0  0  0  0  0  0  0
   -4.7049    3.3386   -1.9655 H   0  0  0  0  0  0  0  0  0  0  0  0
   -2.9789    2.9082   -1.7562 H   0  0  0  0  0  0  0  0  0  0  0  0
   -3.5974    4.4730   -1.1189 H   0  0  0  0  0  0  0  0  0  0  0  0
  2 49  1  0  0  0  0
  3  6  1  0  0  0  0
  4 21  1  0  0  0  0
  5 23  2  0  0  0  0
  6  4  1  0  0  0  0
  7  8  1  0  0  0  0
  7  4  1  0  0  0  0
  9  3  1  0  0  0  0
  9  7  2  0  0  0  0
 10  9  1  0  0  0  0
 11 12  1  0  0  0  0
 11  3  1  0  0  0  0
 13 11  1  0  0  0  0
 13 16  1  0  0  0  0
 14 13  1  0  0  0  0
 15 13  1  0  0  0  0
 17 18  1  0  0  0  0
 17 11  1  0  0  0  0
 19 17  1  0  0  0  0
 20 17  1  0  0  0  0
 21 23  1  0  0  0  0
 21 22  1  1  0  0  0
 21  1  1  0  0  0  0
 23 24  1  0  0  0  0
 24 25  2  0  0  0  0
 24 33  1  0  0  0  0
 25 27  1  0  0  0  0
 26 25  1  0  0  0  0
 27 28  1  0  0  0  0
 27 29  2  0  0  0  0
 29 30  1  0  0  0  0
 31 29  1  0  0  0  0
 31 32  1  0  0  0  0
 33 31  2  0  0  0  0
 34 33  1  0  0  0  0
 35  5  1  0  0  0  0
 35 52  1  0  0  0  0
 36 35  2  0  0  0  0
 37 38  1  0  0  0  0
 37 36  1  0  0  0  0
 37 43  1  0  0  0  0
 39 37  1  0  0  0  0
 40 39  1  0  0  0  0
 41 39  1  0  0  0  0
 42 39  1  0  0  0  0
 43 44  1  0  0  0  0
 45 43  1  0  0  0  0
 46 43  1  0  0  0  0
 47 36  1  0  0  0  0
 47 49  2  0  0  0  0
 48 47  1  0  0  0  0
 49 50  1  0  0  0  0
 50 52  2  0  0  0  0
 50 51  1  0  0  0  0
 52 53  1  0  0  0  0
 53 54  1  0  0  0  0
 53 55  1  0  0  0  0
 55 57  1  0  0  0  0
 55 58  1  0  0  0  0
 56 55  1  0  0  0  0
 59 62  1  0  0  0  0
 59 53  1  0  0  0  0
 60 59  1  0  0  0  0
 61 59  1  0  0  0  0
M  END
