4
 OpenBabel05122313113D

 11 10  0  0  0  0  0  0  0  0999 V2000
   -1.5006   -1.8789   -1.9673 C   0  0  0  0  0  3  0  0  0  0  0  0
   -1.4465   -2.9610   -2.1761 H   0  0  0  0  0  0  0  0  0  0  0  0
   -0.7869   -1.2743   -2.5534 H   0  0  0  0  0  0  0  0  0  0  0  0
   -2.7604   -1.3079   -1.6081 C   0  0  0  0  0  3  0  0  0  0  0  0
   -3.6588   -1.9397   -1.4842 H   0  0  0  0  0  0  0  0  0  0  0  0
   -2.7652    0.0464   -1.1727 C   0  0  0  0  0  3  0  0  0  0  0  0
   -2.0529    0.7276   -1.6702 H   0  0  0  0  0  0  0  0  0  0  0  0
   -3.9805    0.7415   -0.6238 C   0  0  0  0  0  0  0  0  0  0  0  0
   -3.6958    1.5012    0.1337 H   0  0  0  0  0  0  0  0  0  0  0  0
   -4.5310    1.2861   -1.4232 H   0  0  0  0  0  0  0  0  0  0  0  0
   -4.6911    0.0347   -0.1497 H   0  0  0  0  0  0  0  0  0  0  0  0
  1  4  1  0  0  0  0
  2  1  1  0  0  0  0
  3  1  1  0  0  0  0
  4  5  1  0  0  0  0
  4  6  1  0  0  0  0
  6  8  1  0  0  0  0
  7  6  1  0  0  0  0
  8 11  1  0  0  0  0
  8  9  1  0  0  0  0
 10  8  1  0  0  0  0
M  END
