6
 OpenBabel05122313113D

 56 58  0  0  1  0  0  0  0  0999 V2000
   -0.0719    3.5761    0.6811 Br  0  0  0  0  0  0  0  0  0  0  0  0
    7.3912   -1.6311   -0.3150 Br  0  0  0  0  0  0  0  0  0  0  0  0
   -1.8457    0.7864   -2.8664 N   0  0  0  0  0  0  0  0  0  0  0  0
   -0.7445    1.5170   -1.1439 N   0  0  0  0  0  0  0  0  0  0  0  0
    1.9036    1.0335   -0.3281 N   0  0  0  0  0  0  0  0  0  0  0  0
   -1.7935    0.7298   -1.5168 C   0  0  0  0  0  2  0  0  0  0  0  0
   -0.8227    1.5983   -3.3485 C   0  0  0  0  0  0  0  0  0  0  0  0
   -0.6871    1.7863   -4.4173 H   0  0  0  0  0  0  0  0  0  0  0  0
   -0.1207    2.0531   -2.2633 C   0  0  0  0  0  0  0  0  0  0  0  0
    0.7485    2.7072   -2.1754 H   0  0  0  0  0  0  0  0  0  0  0  0
   -2.8168    0.0623   -3.6805 C   0  0  0  0  0  0  0  0  0  0  0  0
   -2.6485   -1.0272   -3.5688 H   0  0  0  0  0  0  0  0  0  0  0  0
   -2.6927    0.3620   -4.7357 H   0  0  0  0  0  0  0  0  0  0  0  0
   -3.8422    0.3078   -3.3453 H   0  0  0  0  0  0  0  0  0  0  0  0
   -0.3204    1.6690    0.2348 C   0  0  1  0  0  0  0  0  0  0  0  0
   -1.1663    1.3618    0.8710 H   0  0  0  0  0  0  0  0  0  0  0  0
    0.9696    0.9112    0.5485 C   0  0  0  0  0  0  0  0  0  0  0  0
    1.0014    0.1471    1.8255 C   0  0  0  0  0  0  0  0  0  0  0  0
   -0.1508   -0.5317    2.2846 C   0  0  0  0  0  0  0  0  0  0  0  0
   -1.0901   -0.5050    1.7127 H   0  0  0  0  0  0  0  0  0  0  0  0
   -0.1134   -1.3026    3.4530 C   0  0  0  0  0  0  0  0  0  0  0  0
   -1.0210   -1.8372    3.7699 H   0  0  0  0  0  0  0  0  0  0  0  0
    1.0721   -1.3870    4.1984 C   0  0  0  0  0  0  0  0  0  0  0  0
    1.1034   -1.9865    5.1207 H   0  0  0  0  0  0  0  0  0  0  0  0
    2.2206   -0.7030    3.7632 C   0  0  0  0  0  0  0  0  0  0  0  0
    3.1515   -0.7598    4.3466 H   0  0  0  0  0  0  0  0  0  0  0  0
    2.1925    0.0483    2.5829 C   0  0  0  0  0  0  0  0  0  0  0  0
    3.0991    0.5684    2.2483 H   0  0  0  0  0  0  0  0  0  0  0  0
    3.1394    0.3762   -0.3055 C   0  0  0  0  0  0  0  0  0  0  0  0
    3.2403   -1.0421   -0.4022 C   0  0  0  0  0  0  0  0  0  0  0  0
    2.0257   -1.9429   -0.5900 C   0  0  0  0  0  0  0  0  0  0  0  0
    1.1110   -1.3301   -0.4787 H   0  0  0  0  0  0  0  0  0  0  0  0
    1.9985   -2.5097   -2.0209 C   0  0  0  0  0  0  0  0  0  0  0  0
    2.0201   -1.6960   -2.7737 H   0  0  0  0  0  0  0  0  0  0  0  0
    1.0743   -3.1008   -2.1822 H   0  0  0  0  0  0  0  0  0  0  0  0
    2.8696   -3.1704   -2.2117 H   0  0  0  0  0  0  0  0  0  0  0  0
    1.9432   -3.0593    0.4622 C   0  0  0  0  0  0  0  0  0  0  0  0
    2.7803   -3.7811    0.3611 H   0  0  0  0  0  0  0  0  0  0  0  0
    0.9954   -3.6215    0.3427 H   0  0  0  0  0  0  0  0  0  0  0  0
    1.9686   -2.6489    1.4906 H   0  0  0  0  0  0  0  0  0  0  0  0
    4.5245   -1.6155   -0.4134 C   0  0  0  0  0  0  0  0  0  0  0  0
    4.6314   -2.7069   -0.4893 H   0  0  0  0  0  0  0  0  0  0  0  0
    5.6680   -0.8135   -0.3351 C   0  0  0  0  0  0  0  0  0  0  0  0
    5.5678    0.5836   -0.2913 C   0  0  0  0  0  0  0  0  0  0  0  0
    6.4807    1.1931   -0.2605 H   0  0  0  0  0  0  0  0  0  0  0  0
    4.3057    1.1973   -0.2960 C   0  0  0  0  0  0  0  0  0  0  0  0
    4.1530    2.7118   -0.2432 C   0  0  0  0  0  0  0  0  0  0  0  0
    3.2133    2.9358   -0.7964 H   0  0  0  0  0  0  0  0  0  0  0  0
    3.9442    3.2097    1.1997 C   0  0  0  0  0  0  0  0  0  0  0  0
    3.0439    2.7648    1.6660 H   0  0  0  0  0  0  0  0  0  0  0  0
    3.8116    4.3110    1.2182 H   0  0  0  0  0  0  0  0  0  0  0  0
    4.8212    2.9597    1.8325 H   0  0  0  0  0  0  0  0  0  0  0  0
    5.3038    3.4660   -0.9193 C   0  0  0  0  0  0  0  0  0  0  0  0
    6.2497    3.3782   -0.3454 H   0  0  0  0  0  0  0  0  0  0  0  0
    5.0677    4.5472   -0.9842 H   0  0  0  0  0  0  0  0  0  0  0  0
    5.4936    3.0920   -1.9452 H   0  0  0  0  0  0  0  0  0  0  0  0
  3  6  1  0  0  0  0
  4 15  1  0  0  0  0
  5 29  1  0  0  0  0
  5 17  2  0  0  0  0
  6  4  1  0  0  0  0
  7  3  1  0  0  0  0
  7  9  2  0  0  0  0
  8  7  1  0  0  0  0
  9 10  1  0  0  0  0
  9  4  1  0  0  0  0
 11 12  1  0  0  0  0
 11 14  1  0  0  0  0
 11  3  1  0  0  0  0
 13 11  1  0  0  0  0
 15 17  1  0  0  0  0
 15  1  1  0  0  0  0
 15 16  1  1  0  0  0
 17 18  1  0  0  0  0
 18 19  2  0  0  0  0
 18 27  1  0  0  0  0
 19 21  1  0  0  0  0
 20 19  1  0  0  0  0
 21 22  1  0  0  0  0
 21 23  2  0  0  0  0
 23 24  1  0  0  0  0
 25 23  1  0  0  0  0
 25 26  1  0  0  0  0
 27 25  2  0  0  0  0
 28 27  1  0  0  0  0
 29 46  1  0  0  0  0
 30 29  2  0  0  0  0
 31 32  1  0  0  0  0
 31 30  1  0  0  0  0
 31 37  1  0  0  0  0
 33 31  1  0  0  0  0
 34 33  1  0  0  0  0
 35 33  1  0  0  0  0
 36 33  1  0  0  0  0
 37 40  1  0  0  0  0
 38 37  1  0  0  0  0
 39 37  1  0  0  0  0
 41 30  1  0  0  0  0
 41 43  2  0  0  0  0
 42 41  1  0  0  0  0
 43  2  1  0  0  0  0
 43 44  1  0  0  0  0
 44 45  1  0  0  0  0
 46 44  2  0  0  0  0
 46 47  1  0  0  0  0
 47 49  1  0  0  0  0
 48 47  1  0  0  0  0
 49 51  1  0  0  0  0
 49 50  1  0  0  0  0
 49 52  1  0  0  0  0
 53 54  1  0  0  0  0
 53 47  1  0  0  0  0
 55 53  1  0  0  0  0
 56 53  1  0  0  0  0
M  END
