1
 OpenBabel05122313113D

 15 15  0  0  0  0  0  0  0  0999 V2000
    1.9258    0.0000    0.0003 C   0  0  0  0  0  2  0  0  0  0  0  0
    2.7505    0.7925   -0.7406 N   0  0  0  0  0  0  0  0  0  0  0  0
    4.0800    0.4999   -0.4694 C   0  0  0  0  0  0  0  0  0  0  0  0
    4.9056    1.0207   -0.9624 H   0  0  0  0  0  0  0  0  0  0  0  0
    2.2741    1.7943   -1.6858 C   0  0  0  0  0  0  0  0  0  0  0  0
    1.4877    2.3955   -1.1884 H   0  0  0  0  0  0  0  0  0  0  0  0
    1.8490    1.3036   -2.5832 H   0  0  0  0  0  0  0  0  0  0  0  0
    3.1201    2.4412   -1.9810 H   0  0  0  0  0  0  0  0  0  0  0  0
    2.7506   -0.7923    0.7412 N   0  0  0  0  0  0  0  0  0  0  0  0
    4.0800   -0.4995    0.4701 C   0  0  0  0  0  0  0  0  0  0  0  0
    4.9056   -1.0201    0.9633 H   0  0  0  0  0  0  0  0  0  0  0  0
    2.2741   -1.7944    1.6860 C   0  0  0  0  0  0  0  0  0  0  0  0
    1.4878   -2.3954    1.1883 H   0  0  0  0  0  0  0  0  0  0  0  0
    1.8490   -1.3041    2.5836 H   0  0  0  0  0  0  0  0  0  0  0  0
    3.1201   -2.4415    1.9810 H   0  0  0  0  0  0  0  0  0  0  0  0
  1  9  1  0  0  0  0
  2  3  1  0  0  0  0
  2  1  1  0  0  0  0
  3 10  2  0  0  0  0
  4  3  1  0  0  0  0
  5  6  1  0  0  0  0
  5  2  1  0  0  0  0
  7  5  1  0  0  0  0
  8  5  1  0  0  0  0
  9 12  1  0  0  0  0
 10  9  1  0  0  0  0
 10 11  1  0  0  0  0
 12 15  1  0  0  0  0
 12 14  1  0  0  0  0
 13 12  1  0  0  0  0
M  END
