13
 OpenBabel05122313113D

 19 19  0  0  0  0  0  0  0  0999 V2000
    6.1319    0.0000   -0.1744 C   0  0  0  0  0  0  0  0  0  0  0  0
    5.6482   -0.0002    1.1483 C   0  0  0  0  0  0  0  0  0  0  0  0
    6.3372   -0.0003    2.0038 H   0  0  0  0  0  0  0  0  0  0  0  0
    4.2638   -0.0002    1.3807 C   0  0  0  0  0  0  0  0  0  0  0  0
    3.8983   -0.0004    2.4205 H   0  0  0  0  0  0  0  0  0  0  0  0
    5.2066    0.0002   -1.2426 C   0  0  0  0  0  0  0  0  0  0  0  0
    5.6004    0.0004   -2.2699 H   0  0  0  0  0  0  0  0  0  0  0  0
    3.8360    0.0002   -0.9926 C   0  0  0  0  0  0  0  0  0  0  0  0
    3.1381    0.0004   -1.8438 H   0  0  0  0  0  0  0  0  0  0  0  0
    3.3189    0.0000    0.3304 C   0  0  0  0  0  0  0  0  0  0  0  0
    1.8791   -0.0000    0.6398 C   0  0  0  0  0  0  0  0  0  0  0  0
    1.6565   -0.0000    1.7237 H   0  0  0  0  0  0  0  0  0  0  0  0
    0.8510   -0.0000   -0.2511 C   0  0  0  0  0  3  0  0  0  0  0  0
    1.1150   -0.0000   -1.3293 H   0  0  0  0  0  0  0  0  0  0  0  0
    8.4120   -0.0001    0.5136 C   0  0  0  0  0  0  0  0  0  0  0  0
    8.3292    0.9029    1.1613 H   0  0  0  0  0  0  0  0  0  0  0  0
    9.4051   -0.0000    0.0260 H   0  0  0  0  0  0  0  0  0  0  0  0
    8.3292   -0.9033    1.1610 H   0  0  0  0  0  0  0  0  0  0  0  0
    7.4534    0.0001   -0.5221 O   0  0  0  0  0  0  0  0  0  0  0  0
  1  2  1  0  0  0  0
  2  4  2  0  0  0  0
  2  3  1  0  0  0  0
  4  5  1  0  0  0  0
  6  8  1  0  0  0  0
  6  1  2  0  0  0  0
  7  6  1  0  0  0  0
  8 10  2  0  0  0  0
  9  8  1  0  0  0  0
 10 11  1  0  0  0  0
 10  4  1  0  0  0  0
 11 12  1  0  0  0  0
 13 11  2  0  0  0  0
 14 13  1  0  0  0  0
 15 18  1  0  0  0  0
 15 16  1  0  0  0  0
 17 15  1  0  0  0  0
 19  1  1  0  0  0  0
 19 15  1  0  0  0  0
M  END
