5
 OpenBabel05122313113D

  6  5  0  0  0  0  0  0  0  0999 V2000
    1.8088    1.8913    0.0008 F   0  0  0  0  0  0  0  0  0  0  0  0
    3.1033   -1.3776   -0.0013 F   0  0  0  0  0  0  0  0  0  0  0  0
    3.7512    0.3970   -1.0919 F   0  0  0  0  0  0  0  0  0  0  0  0
    3.7508    0.3952    1.0925 F   0  0  0  0  0  0  0  0  0  0  0  0
    1.6548    0.5279   -0.0001 C   0  0  0  0  0  0  0  0  0  0  0  0
    3.0699   -0.0334   -0.0002 C   0  0  0  0  0  0  0  0  0  0  0  0
  2  6  1  0  0  0  0
  3  6  1  0  0  0  0
  5  1  1  0  0  0  0
  6  5  1  0  0  0  0
  6  4  1  0  0  0  0
M  END
