13
 OpenBabel05122313113D

 25 26  0  0  0  0  0  0  0  0999 V2000
    6.0453    2.0576    1.6003 F   0  0  0  0  0  0  0  0  0  0  0  0
   -4.1478    3.3490   -1.5172 N   0  0  0  0  0  0  0  0  0  0  0  0
    2.1627    1.8638    0.0693 C   0  0  0  0  0  0  0  0  0  0  0  0
    2.4252    1.6389    1.4446 C   0  0  0  0  0  0  0  0  0  0  0  0
    1.5924    1.3790    2.1153 H   0  0  0  0  0  0  0  0  0  0  0  0
    3.7234    1.7057    1.9640 C   0  0  0  0  0  0  0  0  0  0  0  0
    3.9261    1.5254    3.0297 H   0  0  0  0  0  0  0  0  0  0  0  0
    4.7903    2.0011    1.1045 C   0  0  0  0  0  0  0  0  0  0  0  0
    4.5747    2.2386   -0.2570 C   0  0  0  0  0  0  0  0  0  0  0  0
    5.4301    2.4783   -0.9051 H   0  0  0  0  0  0  0  0  0  0  0  0
    3.2670    2.1732   -0.7591 C   0  0  0  0  0  0  0  0  0  0  0  0
    3.0928    2.3642   -1.8299 H   0  0  0  0  0  0  0  0  0  0  0  0
    0.8071    1.7400   -0.5164 C   0  0  0  0  0  3  0  0  0  0  0  0
    0.7817    1.9689   -1.5968 H   0  0  0  0  0  0  0  0  0  0  0  0
   -0.4080    2.0232    0.2443 C   0  0  0  0  0  3  0  0  0  0  0  0
   -0.2866    2.3607    1.2890 H   0  0  0  0  0  0  0  0  0  0  0  0
   -1.6515    2.4996   -0.3872 C   0  0  0  0  0  0  0  0  0  0  0  0
   -2.6431    3.1613    0.3771 C   0  0  0  0  0  0  0  0  0  0  0  0
   -2.4691    3.3610    1.4466 H   0  0  0  0  0  0  0  0  0  0  0  0
   -3.8474    3.5518   -0.2226 C   0  0  0  0  0  0  0  0  0  0  0  0
   -4.6185    4.0626    0.3840 H   0  0  0  0  0  0  0  0  0  0  0  0
   -3.1997    2.7404   -2.2545 C   0  0  0  0  0  0  0  0  0  0  0  0
   -3.4417    2.5792   -3.3216 H   0  0  0  0  0  0  0  0  0  0  0  0
   -1.9651    2.3081   -1.7572 C   0  0  0  0  0  0  0  0  0  0  0  0
   -1.2552    1.7996   -2.4267 H   0  0  0  0  0  0  0  0  0  0  0  0
  2 20  1  0  0  0  0
  3  4  1  0  0  0  0
  4  6  2  0  0  0  0
  4  5  1  0  0  0  0
  6  7  1  0  0  0  0
  8  1  1  0  0  0  0
  8  6  1  0  0  0  0
  9  8  2  0  0  0  0
 10  9  1  0  0  0  0
 11  9  1  0  0  0  0
 11  3  2  0  0  0  0
 12 11  1  0  0  0  0
 13  3  1  0  0  0  0
 13 15  1  0  0  0  0
 14 13  1  0  0  0  0
 15 16  1  0  0  0  0
 17 15  1  0  0  0  0
 17 18  1  0  0  0  0
 18 19  1  0  0  0  0
 20 18  2  0  0  0  0
 20 21  1  0  0  0  0
 22 24  1  0  0  0  0
 22  2  2  0  0  0  0
 23 22  1  0  0  0  0
 24 17  2  0  0  0  0
 25 24  1  0  0  0  0
M  END
