2
 OpenBabel05122313113D

  9  9  0  0  0  0  0  0  0  0999 V2000
    0.4819   -2.4333    0.8628 C   0  0  0  0  0  0  0  0  0  0  0  0
    0.4138   -1.8647   -0.5085 C   0  0  0  0  0  3  0  0  0  0  0  0
    1.3470   -1.6666   -1.0543 H   0  0  0  0  0  0  0  0  0  0  0  0
   -0.8563   -2.2764   -1.0529 C   0  0  0  0  0  3  0  0  0  0  0  0
   -1.1276   -2.4087   -2.1094 H   0  0  0  0  0  0  0  0  0  0  0  0
   -1.5956   -2.9640    0.0112 C   0  0  0  0  0  0  0  0  0  0  0  0
    1.3776   -2.4525    1.6795 O   0  0  0  0  0  0  0  0  0  0  0  0
   -0.7653   -3.0310    1.1526 O   0  0  0  0  0  0  0  0  0  0  0  0
   -2.7376   -3.3913    0.0462 O   0  0  0  0  0  0  0  0  0  0  0  0
  1  8  1  0  0  0  0
  1  7  2  0  0  0  0
  2  1  1  0  0  0  0
  3  2  1  0  0  0  0
  4  2  1  0  0  0  0
  4  6  1  0  0  0  0
  5  4  1  0  0  0  0
  6  9  2  0  0  0  0
  6  8  1  0  0  0  0
M  END
