1
 OpenBabel05122313113D

 13 13  0  0  0  0  0  0  0  0999 V2000
    1.7864    0.1003   -0.2100 C   0  0  0  0  0  3  0  0  0  0  0  0
    2.6555    0.2457    0.8975 C   0  0  0  0  0  0  0  0  0  0  0  0
    2.2831    0.6856    1.8341 H   0  0  0  0  0  0  0  0  0  0  0  0
    3.9951   -0.1544    0.8163 C   0  0  0  0  0  0  0  0  0  0  0  0
    4.6861   -0.0559    1.6645 H   0  0  0  0  0  0  0  0  0  0  0  0
    4.4731   -0.6881   -0.3895 C   0  0  0  0  0  0  0  0  0  0  0  0
    3.6448   -0.8186   -1.5131 C   0  0  0  0  0  0  0  0  0  0  0  0
    4.0670   -1.2326   -2.4388 H   0  0  0  0  0  0  0  0  0  0  0  0
    2.3043   -0.4230   -1.4168 C   0  0  0  0  0  0  0  0  0  0  0  0
    1.6532   -0.5294   -2.2977 H   0  0  0  0  0  0  0  0  0  0  0  0
    5.8814   -1.1208   -0.4785 N   0  0  0  0  0  0  0  0  0  0  0  0
    6.5824   -0.9978    0.5289 O   0  0  0  0  0  0  0  0  0  0  0  0
    6.2711   -1.5838   -1.5534 O   0  0  0  0  0  0  0  0  0  0  0  0
  1  2  1  0  0  0  0
  2  3  1  0  0  0  0
  4  2  2  0  0  0  0
  4  5  1  0  0  0  0
  6  4  1  0  0  0  0
  7  9  1  0  0  0  0
  7  6  2  0  0  0  0
  8  7  1  0  0  0  0
  9  1  2  0  0  0  0
 10  9  1  0  0  0  0
 11  6  1  0  0  0  0
 11 12  2  0  0  0  0
 13 11  2  0  0  0  0
M  END
