2
 OpenBabel05122313113D

 27 27  0  0  0  0  0  0  0  0999 V2000
   -1.8885   -1.0814   -0.0005 N   0  0  0  0  0  0  0  0  0  0  0  0
   -1.0372   -0.0000    0.0000 C   0  0  0  0  0  2  0  0  0  0  0  0
   -3.2178   -0.6854   -0.0003 C   0  0  0  0  0  0  0  0  0  0  0  0
   -1.4325   -2.4808   -0.0008 C   0  0  0  0  0  0  0  0  0  0  0  0
   -1.8771   -3.1967   -1.2765 C   0  0  0  0  0  0  0  0  0  0  0  0
   -1.8758   -3.1967    1.2754 C   0  0  0  0  0  0  0  0  0  0  0  0
   -4.0492   -1.3965   -0.0006 H   0  0  0  0  0  0  0  0  0  0  0  0
   -0.3212   -2.3635   -0.0013 H   0  0  0  0  0  0  0  0  0  0  0  0
   -1.4362   -4.2127   -1.3126 H   0  0  0  0  0  0  0  0  0  0  0  0
   -1.5420   -2.6449   -2.1764 H   0  0  0  0  0  0  0  0  0  0  0  0
   -2.9810   -3.3096   -1.3297 H   0  0  0  0  0  0  0  0  0  0  0  0
   -1.5394   -2.6451    2.1751 H   0  0  0  0  0  0  0  0  0  0  0  0
   -2.9796   -3.3093    1.3300 H   0  0  0  0  0  0  0  0  0  0  0  0
   -1.4351   -4.2128    1.3110 H   0  0  0  0  0  0  0  0  0  0  0  0
   -3.2178    0.6854    0.0003 C   0  0  0  0  0  0  0  0  0  0  0  0
   -1.8885    1.0814    0.0005 N   0  0  0  0  0  0  0  0  0  0  0  0
   -1.4325    2.4808    0.0008 C   0  0  0  0  0  0  0  0  0  0  0  0
   -1.8771    3.1967    1.2765 C   0  0  0  0  0  0  0  0  0  0  0  0
   -1.4363    4.2127    1.3126 H   0  0  0  0  0  0  0  0  0  0  0  0
   -1.5420    2.6449    2.1764 H   0  0  0  0  0  0  0  0  0  0  0  0
   -2.9810    3.3096    1.3297 H   0  0  0  0  0  0  0  0  0  0  0  0
   -1.8758    3.1967   -1.2754 C   0  0  0  0  0  0  0  0  0  0  0  0
   -1.5394    2.6451   -2.1751 H   0  0  0  0  0  0  0  0  0  0  0  0
   -2.9796    3.3092   -1.3300 H   0  0  0  0  0  0  0  0  0  0  0  0
   -1.4352    4.2128   -1.3110 H   0  0  0  0  0  0  0  0  0  0  0  0
   -0.3212    2.3635    0.0013 H   0  0  0  0  0  0  0  0  0  0  0  0
   -4.0493    1.3965    0.0006 H   0  0  0  0  0  0  0  0  0  0  0  0
  1  3  1  0  0  0  0
  1  2  1  0  0  0  0
  2 16  1  0  0  0  0
  3 15  2  0  0  0  0
  4  1  1  0  0  0  0
  4  6  1  0  0  0  0
  5  4  1  0  0  0  0
  6 14  1  0  0  0  0
  6 13  1  0  0  0  0
  6 12  1  0  0  0  0
  7  3  1  0  0  0  0
  8  4  1  0  0  0  0
  9  5  1  0  0  0  0
 10  5  1  0  0  0  0
 11  5  1  0  0  0  0
 15 16  1  0  0  0  0
 15 27  1  0  0  0  0
 16 17  1  0  0  0  0
 17 26  1  0  0  0  0
 17 18  1  0  0  0  0
 18 19  1  0  0  0  0
 18 21  1  0  0  0  0
 18 20  1  0  0  0  0
 22 17  1  0  0  0  0
 23 22  1  0  0  0  0
 24 22  1  0  0  0  0
 25 22  1  0  0  0  0
M  END
