3
 OpenBabel05122313113D

 34 35  0  0  1  0  0  0  0  0999 V2000
   -2.6364   -1.2376   -0.0449 Si  0  0  0  0  0  0  0  0  0  0  0  0
   -0.8194   -1.6447   -0.3613 C   0  0  1  0  0  3  0  0  0  0  0  0
   -0.1184   -1.2989   -1.5694 C   0  0  0  0  0  3  0  0  0  0  0  0
   -0.5805   -1.0745   -2.5402 H   0  0  0  0  0  0  0  0  0  0  0  0
    1.2835   -1.3087   -1.3082 C   0  0  0  0  0  0  0  0  0  0  0  0
    2.0815   -1.0847   -2.0256 H   0  0  0  0  0  0  0  0  0  0  0  0
    1.4847   -1.6222    0.0637 C   0  0  0  0  0  0  0  0  0  0  0  0
    0.1863   -1.8015    0.6471 C   0  0  0  0  0  3  0  0  0  0  0  0
    0.0045   -2.0221    1.7078 H   0  0  0  0  0  0  0  0  0  0  0  0
    2.8128   -1.7887    0.7583 C   0  0  0  0  0  0  0  0  0  0  0  0
    2.6791   -1.5101    1.8260 H   0  0  0  0  0  0  0  0  0  0  0  0
    3.0933   -2.8649    0.7358 H   0  0  0  0  0  0  0  0  0  0  0  0
    3.9122   -0.9575    0.1552 C   0  0  0  0  0  0  0  0  0  0  0  0
    3.7599    0.1356    0.2066 H   0  0  0  0  0  0  0  0  0  0  0  0
    5.0153   -1.4498   -0.4333 C   0  0  0  0  0  0  0  0  0  0  0  0
    5.1929   -2.5364   -0.5067 H   0  0  0  0  0  0  0  0  0  0  0  0
    5.7850   -0.7863   -0.8570 H   0  0  0  0  0  0  0  0  0  0  0  0
   -2.3434    0.6186    0.1448 C   0  0  0  0  0  0  0  0  0  0  0  0
   -1.9991    1.4915   -0.9468 C   0  0  0  0  0  0  0  0  0  0  0  0
   -2.1913    1.2970   -2.0105 H   0  0  0  0  0  0  0  0  0  0  0  0
   -1.3744    2.6631   -0.4242 C   0  0  0  0  0  0  0  0  0  0  0  0
   -0.9921    3.5054   -1.0119 H   0  0  0  0  0  0  0  0  0  0  0  0
   -1.2803    2.5170    0.9824 C   0  0  0  0  0  0  0  0  0  0  0  0
   -0.8123    3.2246    1.6767 H   0  0  0  0  0  0  0  0  0  0  0  0
   -1.8635    1.2600    1.3328 C   0  0  0  0  0  3  0  0  0  0  0  0
   -1.9117    0.8481    2.3493 H   0  0  0  0  0  0  0  0  0  0  0  0
   -3.7142   -1.6321   -1.5344 C   0  0  0  0  0  0  0  0  0  0  0  0
   -3.7604   -2.7267   -1.7059 H   0  0  0  0  0  0  0  0  0  0  0  0
   -3.3169   -1.1611   -2.4558 H   0  0  0  0  0  0  0  0  0  0  0  0
   -4.7475   -1.2601   -1.3810 H   0  0  0  0  0  0  0  0  0  0  0  0
   -3.2555   -2.0112    1.5528 C   0  0  0  0  0  0  0  0  0  0  0  0
   -2.5947   -1.7569    2.4057 H   0  0  0  0  0  0  0  0  0  0  0  0
   -3.2895   -3.1162    1.4663 H   0  0  0  0  0  0  0  0  0  0  0  0
   -4.2763   -1.6516    1.7938 H   0  0  0  0  0  0  0  0  0  0  0  0
  1 18  1  0  0  0  0
  1 31  1  0  0  0  0
  2  1  1  1  0  0  0
  2  8  1  0  0  0  0
  3  5  1  0  0  0  0
  3  2  1  0  0  0  0
  4  3  1  0  0  0  0
  5  7  2  0  0  0  0
  6  5  1  0  0  0  0
  7  8  1  0  0  0  0
  7 10  1  0  0  0  0
  8  9  1  0  0  0  0
 10 11  1  0  0  0  0
 12 10  1  0  0  0  0
 13 14  1  0  0  0  0
 13 10  1  0  0  0  0
 15 13  2  0  0  0  0
 16 15  1  0  0  0  0
 17 15  1  0  0  0  0
 18 25  1  0  0  0  0
 19 21  1  0  0  0  0
 19 18  2  0  0  0  0
 20 19  1  0  0  0  0
 21 23  2  0  0  0  0
 22 21  1  0  0  0  0
 23 25  1  0  0  0  0
 23 24  1  0  0  0  0
 25 26  1  0  0  0  0
 27 30  1  0  0  0  0
 27  1  1  0  0  0  0
 28 27  1  0  0  0  0
 29 27  1  0  0  0  0
 31 34  1  0  0  0  0
 31 32  1  0  0  0  0
 33 31  1  0  0  0  0
M  END
