1
 OpenBabel05122313113D

 10  9  0  0  0  0  0  0  0  0999 V2000
   -2.7177   -0.4386   -0.5585 C   0  0  0  0  0  3  0  0  0  0  0  0
   -3.0763    0.3920   -1.2107 H   0  0  0  0  0  0  0  0  0  0  0  0
   -2.8113   -1.3467   -1.2011 H   0  0  0  0  0  0  0  0  0  0  0  0
   -3.6692   -0.5979    0.6293 C   0  0  0  0  0  0  0  0  0  0  0  0
   -3.6648    0.3220    1.2584 H   0  0  0  0  0  0  0  0  0  0  0  0
   -3.3075   -1.4043    1.3069 H   0  0  0  0  0  0  0  0  0  0  0  0
   -5.1213   -0.8993    0.2322 C   0  0  0  0  0  0  0  0  0  0  0  0
   -5.5340   -0.0931   -0.4104 H   0  0  0  0  0  0  0  0  0  0  0  0
   -5.7859   -1.0027    1.1157 H   0  0  0  0  0  0  0  0  0  0  0  0
   -5.1860   -1.8425   -0.3507 H   0  0  0  0  0  0  0  0  0  0  0  0
  1  4  1  0  0  0  0
  2  1  1  0  0  0  0
  3  1  1  0  0  0  0
  4  5  1  0  0  0  0
  4  6  1  0  0  0  0
  7  4  1  0  0  0  0
  7  9  1  0  0  0  0
  8  7  1  0  0  0  0
 10  7  1  0  0  0  0
M  END
