3
 OpenBabel05122313113D

 45 49  0  0  1  0  0  0  0  0999 V2000
    0.6390    1.6380   -0.4861 N   0  0  0  0  0  0  0  0  0  0  0  0
   -1.4520    0.9717   -0.3962 N   0  0  0  0  0  0  0  0  0  0  0  0
   -0.1556    0.5606   -0.2487 C   0  0  0  0  0  2  0  0  0  0  0  0
   -0.1403    2.9026   -0.5337 C   0  0  1  0  0  0  0  0  0  0  0  0
   -1.4935    2.3388   -1.0044 C   0  0  2  0  0  0  0  0  0  0  0  0
    2.0625    1.6024   -0.5597 C   0  0  0  0  0  0  0  0  0  0  0  0
    2.6649    0.8775   -1.6041 C   0  0  0  0  0  0  0  0  0  0  0  0
    4.0593    0.8196   -1.7159 C   0  0  0  0  0  0  0  0  0  0  0  0
    4.8548    1.5080   -0.7873 C   0  0  0  0  0  0  0  0  0  0  0  0
    4.2475    2.2352    0.2456 C   0  0  0  0  0  0  0  0  0  0  0  0
    2.8470    2.2927    0.3948 C   0  0  0  0  0  0  0  0  0  0  0  0
    2.2307    2.9833    1.5866 C   0  0  0  0  0  0  0  0  0  0  0  0
    1.2172    4.1018    1.2899 C   0  0  0  0  0  0  0  0  0  0  0  0
   -0.1577    3.6164    0.8209 C   0  0  0  0  0  0  0  0  0  0  0  0
   -2.7659    3.1116   -0.6846 C   0  0  0  0  0  0  0  0  0  0  0  0
   -3.9509    2.6573   -1.5596 C   0  0  0  0  0  0  0  0  0  0  0  0
   -3.9924    1.1322   -1.7895 C   0  0  0  0  0  0  0  0  0  0  0  0
   -3.8294    0.3403   -0.5152 C   0  0  0  0  0  0  0  0  0  0  0  0
   -4.9086   -0.3623    0.0511 C   0  0  0  0  0  0  0  0  0  0  0  0
   -4.7638   -1.1035    1.2332 C   0  0  0  0  0  0  0  0  0  0  0  0
   -3.5234   -1.1194    1.8888 C   0  0  0  0  0  0  0  0  0  0  0  0
   -2.4375   -0.4060    1.3643 C   0  0  0  0  0  0  0  0  0  0  0  0
   -2.5777    0.3008    0.1514 C   0  0  0  0  0  0  0  0  0  0  0  0
    0.2950    3.5648   -1.3100 H   0  0  0  0  0  0  0  0  0  0  0  0
   -1.4198    2.2062   -2.1088 H   0  0  0  0  0  0  0  0  0  0  0  0
    2.0201    0.3627   -2.3283 H   0  0  0  0  0  0  0  0  0  0  0  0
    4.5211    0.2461   -2.5336 H   0  0  0  0  0  0  0  0  0  0  0  0
    5.9520    1.4775   -0.8653 H   0  0  0  0  0  0  0  0  0  0  0  0
    4.8738    2.7595    0.9844 H   0  0  0  0  0  0  0  0  0  0  0  0
    3.0521    3.3983    2.2041 H   0  0  0  0  0  0  0  0  0  0  0  0
    1.7366    2.1927    2.1986 H   0  0  0  0  0  0  0  0  0  0  0  0
    1.6414    4.8101    0.5435 H   0  0  0  0  0  0  0  0  0  0  0  0
    1.0707    4.6881    2.2207 H   0  0  0  0  0  0  0  0  0  0  0  0
   -0.5884    2.9262    1.5781 H   0  0  0  0  0  0  0  0  0  0  0  0
   -0.8450    4.4851    0.7440 H   0  0  0  0  0  0  0  0  0  0  0  0
   -2.5819    4.1942   -0.8412 H   0  0  0  0  0  0  0  0  0  0  0  0
   -3.0029    2.9871    0.3917 H   0  0  0  0  0  0  0  0  0  0  0  0
   -4.8974    2.9874   -1.0844 H   0  0  0  0  0  0  0  0  0  0  0  0
   -3.9010    3.1639   -2.5472 H   0  0  0  0  0  0  0  0  0  0  0  0
   -4.9461    0.8580   -2.2825 H   0  0  0  0  0  0  0  0  0  0  0  0
   -3.1865    0.8442   -2.4989 H   0  0  0  0  0  0  0  0  0  0  0  0
   -5.8806   -0.3373   -0.4669 H   0  0  0  0  0  0  0  0  0  0  0  0
   -5.6211   -1.6567    1.6452 H   0  0  0  0  0  0  0  0  0  0  0  0
   -3.3960   -1.6751    2.8301 H   0  0  0  0  0  0  0  0  0  0  0  0
   -1.4708   -0.3829    1.8918 H   0  0  0  0  0  0  0  0  0  0  0  0
  1  3  1  0  0  0  0
  2  3  1  0  0  0  0
  2 23  1  0  0  0  0
  4 24  1  6  0  0  0
  4  1  1  0  0  0  0
  4 14  1  0  0  0  0
  5 25  1  6  0  0  0
  5 15  1  0  0  0  0
  5  4  1  0  0  0  0
  5  2  1  0  0  0  0
  6  1  1  0  0  0  0
  6 11  1  0  0  0  0
  7  6  2  0  0  0  0
  8  7  1  0  0  0  0
  8  9  2  0  0  0  0
  9 10  1  0  0  0  0
 10 11  2  0  0  0  0
 10 29  1  0  0  0  0
 11 12  1  0  0  0  0
 12 31  1  0  0  0  0
 12 30  1  0  0  0  0
 13 12  1  0  0  0  0
 13 33  1  0  0  0  0
 14 13  1  0  0  0  0
 14 34  1  0  0  0  0
 15 37  1  0  0  0  0
 16 38  1  0  0  0  0
 16 15  1  0  0  0  0
 17 16  1  0  0  0  0
 17 18  1  0  0  0  0
 18 19  2  0  0  0  0
 18 23  1  0  0  0  0
 19 20  1  0  0  0  0
 20 43  1  0  0  0  0
 20 21  2  0  0  0  0
 21 44  1  0  0  0  0
 22 21  1  0  0  0  0
 22 45  1  0  0  0  0
 23 22  2  0  0  0  0
 26  7  1  0  0  0  0
 27  8  1  0  0  0  0
 28  9  1  0  0  0  0
 32 13  1  0  0  0  0
 35 14  1  0  0  0  0
 36 15  1  0  0  0  0
 39 16  1  0  0  0  0
 40 17  1  0  0  0  0
 41 17  1  0  0  0  0
 42 19  1  0  0  0  0
M  END
