3
 OpenBabel05122313113D

 38 40  0  0  0  0  0  0  0  0999 V2000
    1.7499   -2.1789   -0.9021 N   0  0  0  0  0  0  0  0  0  0  0  0
   -0.3173   -2.7476   -0.6228 N   0  0  0  0  0  0  0  0  0  0  0  0
    0.4967   -1.6581   -0.7523 C   0  0  0  0  0  2  0  0  0  0  0  0
    0.4133   -3.9252   -0.6886 C   0  0  0  0  0  0  0  0  0  0  0  0
   -0.0457   -4.9149   -0.6114 H   0  0  0  0  0  0  0  0  0  0  0  0
    1.7255   -3.5639   -0.8600 C   0  0  0  0  0  0  0  0  0  0  0  0
    2.6328   -4.1697   -0.9437 H   0  0  0  0  0  0  0  0  0  0  0  0
    2.9711   -1.3830   -1.0260 C   0  0  0  0  0  0  0  0  0  0  0  0
    2.6475   -0.3301   -1.1655 H   0  0  0  0  0  0  0  0  0  0  0  0
    3.5034   -1.6889   -1.9489 H   0  0  0  0  0  0  0  0  0  0  0  0
    3.8822   -1.4969    0.1773 C   0  0  0  0  0  0  0  0  0  0  0  0
    3.3625   -1.3890    1.4818 C   0  0  0  0  0  0  0  0  0  0  0  0
    2.2770   -1.2718    1.6283 H   0  0  0  0  0  0  0  0  0  0  0  0
    4.2192   -1.4198    2.5903 C   0  0  0  0  0  0  0  0  0  0  0  0
    3.8039   -1.3359    3.6059 H   0  0  0  0  0  0  0  0  0  0  0  0
    5.6062   -1.5545    2.4072 C   0  0  0  0  0  0  0  0  0  0  0  0
    6.2782   -1.5788    3.2779 H   0  0  0  0  0  0  0  0  0  0  0  0
    6.1299   -1.6689    1.1103 C   0  0  0  0  0  0  0  0  0  0  0  0
    7.2136   -1.7857    0.9602 H   0  0  0  0  0  0  0  0  0  0  0  0
    5.2695   -1.6457    0.0009 C   0  0  0  0  0  0  0  0  0  0  0  0
    5.6834   -1.7383   -1.0160 H   0  0  0  0  0  0  0  0  0  0  0  0
   -1.7753   -2.6680   -0.4416 C   0  0  0  0  0  0  0  0  0  0  0  0
   -1.9835   -1.5765   -0.3880 H   0  0  0  0  0  0  0  0  0  0  0  0
   -2.2220   -3.3111    0.8789 C   0  0  0  0  0  0  0  0  0  0  0  0
   -1.6692   -2.8485    1.7231 H   0  0  0  0  0  0  0  0  0  0  0  0
   -1.9518   -4.3901    0.8714 H   0  0  0  0  0  0  0  0  0  0  0  0
   -3.7387   -3.1683    1.0651 C   0  0  0  0  0  0  0  0  0  0  0  0
   -4.0496   -3.6683    2.0046 H   0  0  0  0  0  0  0  0  0  0  0  0
   -3.9881   -2.0906    1.1915 H   0  0  0  0  0  0  0  0  0  0  0  0
   -4.5133   -3.7304   -0.1337 C   0  0  0  0  0  0  0  0  0  0  0  0
   -4.3594   -4.8312   -0.1859 H   0  0  0  0  0  0  0  0  0  0  0  0
   -5.6027   -3.5764    0.0058 H   0  0  0  0  0  0  0  0  0  0  0  0
   -4.0486   -3.0922   -1.4490 C   0  0  0  0  0  0  0  0  0  0  0  0
   -4.3085   -2.0091   -1.4458 H   0  0  0  0  0  0  0  0  0  0  0  0
   -4.5853   -3.5347   -2.3122 H   0  0  0  0  0  0  0  0  0  0  0  0
   -2.5341   -3.2426   -1.6458 C   0  0  0  0  0  0  0  0  0  0  0  0
   -2.2788   -4.3196   -1.7586 H   0  0  0  0  0  0  0  0  0  0  0  0
   -2.1974   -2.7336   -2.5726 H   0  0  0  0  0  0  0  0  0  0  0  0
  1  6  1  0  0  0  0
  1  3  1  0  0  0  0
  2 22  1  0  0  0  0
  3  2  1  0  0  0  0
  4  2  1  0  0  0  0
  4  5  1  0  0  0  0
  6  4  2  0  0  0  0
  7  6  1  0  0  0  0
  8  1  1  0  0  0  0
  8 11  1  0  0  0  0
  9  8  1  0  0  0  0
 10  8  1  0  0  0  0
 11 12  1  0  0  0  0
 12 13  1  0  0  0  0
 12 14  2  0  0  0  0
 14 15  1  0  0  0  0
 16 14  1  0  0  0  0
 16 17  1  0  0  0  0
 18 16  2  0  0  0  0
 19 18  1  0  0  0  0
 20 11  2  0  0  0  0
 20 18  1  0  0  0  0
 21 20  1  0  0  0  0
 22 23  1  0  0  0  0
 22 24  1  0  0  0  0
 24 27  1  0  0  0  0
 24 25  1  0  0  0  0
 26 24  1  0  0  0  0
 27 29  1  0  0  0  0
 27 28  1  0  0  0  0
 30 32  1  0  0  0  0
 30 27  1  0  0  0  0
 31 30  1  0  0  0  0
 33 34  1  0  0  0  0
 33 30  1  0  0  0  0
 35 33  1  0  0  0  0
 36 33  1  0  0  0  0
 36 22  1  0  0  0  0
 37 36  1  0  0  0  0
 38 36  1  0  0  0  0
M  END
