1
 OpenBabel05122313113D

  7  6  0  0  0  0  0  0  0  0999 V2000
    1.0745    0.0713   -0.0002 C   0  0  0  0  0  3  0  0  0  0  0  0
    2.3186   -0.0750   -0.0004 C   0  0  0  0  0  0  0  0  0  0  0  0
    3.6711   -0.1836   -0.0003 C   0  0  0  0  0  0  0  0  0  0  0  0
    4.9119   -0.2928   -0.0002 C   0  0  0  0  0  0  0  0  0  0  0  0
    6.2640   -0.4109   -0.0002 C   0  0  0  0  0  0  0  0  0  0  0  0
    7.4932   -0.5182   -0.0001 C   0  0  0  0  0  0  0  0  0  0  0  0
    8.5712   -0.6122   -0.0001 H   0  0  0  0  0  0  0  0  0  0  0  0
  2  3  1  0  0  0  0
  2  1  3  0  0  0  0
  3  4  3  0  0  0  0
  4  5  1  0  0  0  0
  5  6  3  0  0  0  0
  6  7  1  0  0  0  0
M  END
