4
 OpenBabel05122313113D

 37 37  0  0  0  0  0  0  0  0999 V2000
    4.6289   -0.3828    0.4992 O   0  0  0  0  0  0  0  0  0  0  0  0
   -1.8244   -2.5510   -1.9685 N   0  0  0  0  0  2  0  0  0  0  0  0
    1.2438   -2.8984    0.7698 N   0  0  0  0  0  0  0  0  0  0  0  0
   -1.9288   -1.5162   -1.3492 C   0  0  0  0  0  1  0  0  0  0  0  0
   -1.0014   -3.6981   -2.1975 C   0  0  0  0  0  0  0  0  0  0  0  0
   -0.8263   -3.8057   -3.2898 H   0  0  0  0  0  0  0  0  0  0  0  0
   -1.5599   -4.6106   -1.8871 H   0  0  0  0  0  0  0  0  0  0  0  0
    0.3424   -3.6074   -1.4555 C   0  0  0  0  0  0  0  0  0  0  0  0
    0.9860   -4.4441   -1.8006 H   0  0  0  0  0  0  0  0  0  0  0  0
    0.8413   -2.6605   -1.7521 H   0  0  0  0  0  0  0  0  0  0  0  0
    0.1815   -3.6060    0.0732 C   0  0  0  0  0  0  0  0  0  0  0  0
   -0.7599   -3.0780    0.3264 H   0  0  0  0  0  0  0  0  0  0  0  0
    0.0544   -4.6622    0.4414 H   0  0  0  0  0  0  0  0  0  0  0  0
    2.5567   -3.5197    0.6758 C   0  0  0  0  0  0  0  0  0  0  0  0
    2.6799   -3.8992   -0.3599 H   0  0  0  0  0  0  0  0  0  0  0  0
    2.6516   -4.4164    1.3487 H   0  0  0  0  0  0  0  0  0  0  0  0
    3.7004   -2.5399    0.9706 C   0  0  0  0  0  0  0  0  0  0  0  0
    3.7066   -2.2432    2.0406 H   0  0  0  0  0  0  0  0  0  0  0  0
    4.6726   -3.0423    0.7858 H   0  0  0  0  0  0  0  0  0  0  0  0
    3.5879   -1.2829    0.1218 C   0  0  0  0  0  0  0  0  0  0  0  0
    3.6682   -1.5324   -0.9635 H   0  0  0  0  0  0  0  0  0  0  0  0
    2.5880   -0.8183    0.2660 H   0  0  0  0  0  0  0  0  0  0  0  0
    4.6236    0.8669   -0.0349 C   0  0  0  0  0  0  0  0  0  0  0  0
    5.6270    1.7482    0.4284 C   0  0  0  0  0  0  0  0  0  0  0  0
    6.3415    1.3737    1.1759 H   0  0  0  0  0  0  0  0  0  0  0  0
    5.6924    3.0577   -0.0567 C   0  0  0  0  0  0  0  0  0  0  0  0
    6.4790    3.7321    0.3159 H   0  0  0  0  0  0  0  0  0  0  0  0
    4.7651    3.5161   -1.0112 C   0  0  0  0  0  0  0  0  0  0  0  0
    4.8202    4.5467   -1.3917 H   0  0  0  0  0  0  0  0  0  0  0  0
    3.7753    2.6380   -1.4743 C   0  0  0  0  0  0  0  0  0  0  0  0
    3.0451    2.9752   -2.2270 H   0  0  0  0  0  0  0  0  0  0  0  0
    3.6952    1.3174   -0.9989 C   0  0  0  0  0  0  0  0  0  0  0  0
    2.9015    0.6566   -1.3727 H   0  0  0  0  0  0  0  0  0  0  0  0
    0.8696   -2.5181    2.1173 C   0  0  0  0  0  0  0  0  0  0  0  0
   -0.0913   -1.9651    2.0910 H   0  0  0  0  0  0  0  0  0  0  0  0
    1.6322   -1.8443    2.5577 H   0  0  0  0  0  0  0  0  0  0  0  0
    0.7530   -3.3933    2.8132 H   0  0  0  0  0  0  0  0  0  0  0  0
  2  4  1  0  0  0  0
  3 34  1  0  0  0  0
  5  2  1  0  0  0  0
  5  7  1  0  0  0  0
  5  8  1  0  0  0  0
  6  5  1  0  0  0  0
  8 11  1  0  0  0  0
  9  8  1  0  0  0  0
 10  8  1  0  0  0  0
 11 12  1  0  0  0  0
 11 13  1  0  0  0  0
 11  3  1  0  0  0  0
 14  3  1  0  0  0  0
 14 17  1  0  0  0  0
 14 16  1  0  0  0  0
 15 14  1  0  0  0  0
 17 18  1  0  0  0  0
 19 17  1  0  0  0  0
 20 22  1  0  0  0  0
 20  1  1  0  0  0  0
 20 17  1  0  0  0  0
 21 20  1  0  0  0  0
 23 24  1  0  0  0  0
 23  1  1  0  0  0  0
 24 25  1  0  0  0  0
 26 27  1  0  0  0  0
 26 24  2  0  0  0  0
 28 26  1  0  0  0  0
 29 28  1  0  0  0  0
 30 28  2  0  0  0  0
 30 32  1  0  0  0  0
 31 30  1  0  0  0  0
 32 23  2  0  0  0  0
 33 32  1  0  0  0  0
 34 36  1  0  0  0  0
 34 37  1  0  0  0  0
 35 34  1  0  0  0  0
M  END
