3
 OpenBabel05122313113D

  7  6  0  0  0  0  0  0  0  0999 V2000
   -0.0984    2.8601    1.0099 O   0  0  0  0  0  0  0  0  0  0  0  0
    0.2051    2.3697   -1.1755 O   0  0  0  0  0  0  0  0  0  0  0  0
    0.0137    2.0200    0.1292 C   0  0  0  0  0  3  0  0  0  0  0  0
    0.2429    3.7806   -1.4510 C   0  0  0  0  0  0  0  0  0  0  0  0
    1.1080    4.2529   -0.9421 H   0  0  0  0  0  0  0  0  0  0  0  0
   -0.6903    4.2710   -1.1083 H   0  0  0  0  0  0  0  0  0  0  0  0
    0.3434    3.8717   -2.5473 H   0  0  0  0  0  0  0  0  0  0  0  0
  2  3  1  0  0  0  0
  3  1  2  0  0  0  0
  4  2  1  0  0  0  0
  4  6  1  0  0  0  0
  4  5  1  0  0  0  0
  7  4  1  0  0  0  0
M  END
