4
 OpenBabel05122313113D

 21 21  0  0  1  0  0  0  0  0999 V2000
    0.9888    1.4349   -1.8758 C   0  0  0  0  0  3  0  0  0  0  0  0
   -0.0663    1.3489   -2.1712 H   0  0  0  0  0  0  0  0  0  0  0  0
    1.6881    1.4733   -2.7288 H   0  0  0  0  0  0  0  0  0  0  0  0
    1.3944    2.1434   -0.6886 C   0  0  1  0  0  3  0  0  0  0  0  0
    0.6556    1.9661    0.5474 C   0  0  0  0  0  3  0  0  0  0  0  0
    1.2207    2.2798    1.4462 H   0  0  0  0  0  0  0  0  0  0  0  0
   -0.8114    2.0759    0.7407 C   0  0  0  0  0  0  0  0  0  0  0  0
   -1.6781    2.6129   -0.2383 C   0  0  0  0  0  0  0  0  0  0  0  0
   -1.2509    3.0090   -1.1713 H   0  0  0  0  0  0  0  0  0  0  0  0
   -3.0662    2.6519   -0.0333 C   0  0  0  0  0  0  0  0  0  0  0  0
   -3.7197    3.0624   -0.8189 H   0  0  0  0  0  0  0  0  0  0  0  0
   -3.6250    2.1744    1.1614 C   0  0  0  0  0  0  0  0  0  0  0  0
   -4.7144    2.1888    1.3127 H   0  0  0  0  0  0  0  0  0  0  0  0
   -2.7727    1.6779    2.1628 C   0  0  0  0  0  0  0  0  0  0  0  0
   -3.1951    1.3100    3.1110 H   0  0  0  0  0  0  0  0  0  0  0  0
   -1.3891    1.6333    1.9551 C   0  0  0  0  0  0  0  0  0  0  0  0
   -0.7271    1.2224    2.7346 H   0  0  0  0  0  0  0  0  0  0  0  0
    2.6542    2.9763   -0.6915 C   0  0  0  0  0  0  0  0  0  0  0  0
    3.3661    2.6572   -1.4766 H   0  0  0  0  0  0  0  0  0  0  0  0
    3.1703    2.9621    0.2893 H   0  0  0  0  0  0  0  0  0  0  0  0
    2.3856    4.0347   -0.9017 H   0  0  0  0  0  0  0  0  0  0  0  0
  2  1  1  0  0  0  0
  3  1  1  0  0  0  0
  4  1  1  1  0  0  0
  4  5  1  0  0  0  0
  5  7  1  0  0  0  0
  5  6  1  0  0  0  0
  7 16  1  0  0  0  0
  8 10  1  0  0  0  0
  8  7  2  0  0  0  0
  9  8  1  0  0  0  0
 10 12  2  0  0  0  0
 11 10  1  0  0  0  0
 12 13  1  0  0  0  0
 12 14  1  0  0  0  0
 14 15  1  0  0  0  0
 16 14  2  0  0  0  0
 16 17  1  0  0  0  0
 18  4  1  0  0  0  0
 18 20  1  0  0  0  0
 19 18  1  0  0  0  0
 21 18  1  0  0  0  0
M  END
