23
 OpenBabel05122313113D

 34 34  0  0  1  0  0  0  0  0999 V2000
   -2.3275   -0.2950   -0.3502 P   0  0  0  0  0  0  0  0  0  0  0  0
   -0.9920   -0.4788    0.6670 O   0  0  0  0  0  0  0  0  0  0  0  0
   -2.1828   -1.0103   -1.6653 O   0  0  0  0  0  0  0  0  0  0  0  0
   -3.4840   -0.7713    0.7867 N   0  0  0  0  0  0  0  0  0  0  0  0
   -2.5944    1.3468   -0.5198 N   0  0  0  0  0  0  0  0  0  0  0  0
    0.2465   -0.8673    0.2300 C   0  0  2  0  0  3  0  0  0  0  0  0
   -3.2830   -1.9741    1.5864 C   0  0  0  0  0  0  0  0  0  0  0  0
   -3.8772   -1.8938    2.5216 H   0  0  0  0  0  0  0  0  0  0  0  0
   -2.2186   -2.0724    1.8635 H   0  0  0  0  0  0  0  0  0  0  0  0
   -3.6037   -2.9003    1.0544 H   0  0  0  0  0  0  0  0  0  0  0  0
   -4.8785   -0.5057    0.4488 C   0  0  0  0  0  0  0  0  0  0  0  0
   -5.3437   -1.3390   -0.1276 H   0  0  0  0  0  0  0  0  0  0  0  0
   -4.9498    0.4171   -0.1573 H   0  0  0  0  0  0  0  0  0  0  0  0
   -5.4668   -0.3579    1.3798 H   0  0  0  0  0  0  0  0  0  0  0  0
   -2.7071    2.2351    0.6283 C   0  0  0  0  0  0  0  0  0  0  0  0
   -1.8248    2.9064    0.7067 H   0  0  0  0  0  0  0  0  0  0  0  0
   -2.7834    1.6385    1.5562 H   0  0  0  0  0  0  0  0  0  0  0  0
   -3.6208    2.8652    0.5440 H   0  0  0  0  0  0  0  0  0  0  0  0
   -2.4626    1.9790   -1.8255 C   0  0  0  0  0  0  0  0  0  0  0  0
   -3.3512    2.6143   -2.0370 H   0  0  0  0  0  0  0  0  0  0  0  0
   -2.3951    1.1938   -2.6010 H   0  0  0  0  0  0  0  0  0  0  0  0
   -1.5554    2.6207   -1.8762 H   0  0  0  0  0  0  0  0  0  0  0  0
    1.1873   -1.3369    1.1918 C   0  0  0  0  0  3  0  0  0  0  0  0
    0.9403   -1.3468    2.2638 H   0  0  0  0  0  0  0  0  0  0  0  0
    2.4675   -1.6936    0.6316 C   0  0  0  0  0  3  0  0  0  0  0  0
    3.2786   -1.8862    1.3532 H   0  0  0  0  0  0  0  0  0  0  0  0
    2.5236   -2.5023   -0.6539 C   0  0  0  0  0  0  0  0  0  0  0  0
    2.3033   -3.5688   -0.4221 H   0  0  0  0  0  0  0  0  0  0  0  0
    3.5577   -2.4841   -1.0531 H   0  0  0  0  0  0  0  0  0  0  0  0
    1.5259   -1.9428   -1.6891 C   0  0  0  0  0  0  0  0  0  0  0  0
    2.0534   -1.6154   -2.6074 H   0  0  0  0  0  0  0  0  0  0  0  0
    0.7913   -2.7132   -2.0118 H   0  0  0  0  0  0  0  0  0  0  0  0
    0.7614   -0.7641   -1.1129 C   0  0  0  0  0  3  0  0  0  0  0  0
    0.1358   -0.2158   -1.8320 H   0  0  0  0  0  0  0  0  0  0  0  0
  1  2  1  0  0  0  0
  1  4  1  0  0  0  0
  3  1  2  0  0  0  0
  4  7  1  0  0  0  0
  5  1  1  0  0  0  0
  5 15  1  0  0  0  0
  6  2  1  1  0  0  0
  6 23  1  0  0  0  0
  7  9  1  0  0  0  0
  7  8  1  0  0  0  0
 10  7  1  0  0  0  0
 11  4  1  0  0  0  0
 11 14  1  0  0  0  0
 12 11  1  0  0  0  0
 13 11  1  0  0  0  0
 15 16  1  0  0  0  0
 15 17  1  0  0  0  0
 18 15  1  0  0  0  0
 19  5  1  0  0  0  0
 20 19  1  0  0  0  0
 21 19  1  0  0  0  0
 22 19  1  0  0  0  0
 23 24  1  0  0  0  0
 25 23  1  0  0  0  0
 25 26  1  0  0  0  0
 27 28  1  0  0  0  0
 27 25  1  0  0  0  0
 29 27  1  0  0  0  0
 30 33  1  0  0  0  0
 30 27  1  0  0  0  0
 31 30  1  0  0  0  0
 32 30  1  0  0  0  0
 33  6  1  0  0  0  0
 34 33  1  0  0  0  0
M  END
