17
 OpenBabel05122313113D

 26 26  0  0  1  0  0  0  0  0999 V2000
    2.3021    0.1486    0.4160 P   0  0  0  0  0  0  0  0  0  0  0  0
    1.3008   -0.1577   -0.8688 O   0  0  0  0  0  0  0  0  0  0  0  0
    1.6208    0.5425    1.6791 O   0  0  0  0  0  0  0  0  0  0  0  0
    3.2319   -1.1669    0.5557 O   0  0  0  0  0  0  0  0  0  0  0  0
    3.3297    1.1829   -0.2909 O   0  0  0  0  0  0  0  0  0  0  0  0
    0.0667   -0.8043   -0.7104 C   0  0  1  0  0  3  0  0  0  0  0  0
    3.9937   -1.6579   -0.5542 C   0  0  0  0  0  0  0  0  0  0  0  0
    3.3435   -1.8418   -1.4353 H   0  0  0  0  0  0  0  0  0  0  0  0
    4.4516   -2.6106   -0.2292 H   0  0  0  0  0  0  0  0  0  0  0  0
    4.7884   -0.9371   -0.8340 H   0  0  0  0  0  0  0  0  0  0  0  0
    2.9045    2.5313   -0.5460 C   0  0  0  0  0  0  0  0  0  0  0  0
    2.2349    2.5683   -1.4294 H   0  0  0  0  0  0  0  0  0  0  0  0
    3.8174    3.1228   -0.7444 H   0  0  0  0  0  0  0  0  0  0  0  0
    2.3690    2.9501    0.3295 H   0  0  0  0  0  0  0  0  0  0  0  0
   -0.8471   -0.5456   -1.7898 C   0  0  0  0  0  3  0  0  0  0  0  0
   -0.5602    0.0707   -2.6541 H   0  0  0  0  0  0  0  0  0  0  0  0
   -2.1604   -1.0533   -1.5852 C   0  0  0  0  0  3  0  0  0  0  0  0
   -2.9747   -0.8394   -2.2937 H   0  0  0  0  0  0  0  0  0  0  0  0
   -2.3471   -1.7451   -0.3377 C   0  0  0  0  0  3  0  0  0  0  0  0
   -3.3859   -1.9846   -0.0575 H   0  0  0  0  0  0  0  0  0  0  0  0
   -1.2967   -2.7243    0.1561 C   0  0  0  0  0  0  0  0  0  0  0  0
   -1.4150   -3.6902   -0.3849 H   0  0  0  0  0  0  0  0  0  0  0  0
   -1.4800   -2.9493    1.2255 H   0  0  0  0  0  0  0  0  0  0  0  0
    0.1250   -2.1622   -0.0365 C   0  0  0  0  0  0  0  0  0  0  0  0
    0.6414   -2.0539    0.9382 H   0  0  0  0  0  0  0  0  0  0  0  0
    0.7568   -2.8402   -0.6536 H   0  0  0  0  0  0  0  0  0  0  0  0
  1  4  1  0  0  0  0
  1  3  2  0  0  0  0
  2  1  1  0  0  0  0
  5  1  1  0  0  0  0
  6  2  1  6  0  0  0
  6 24  1  0  0  0  0
  7  9  1  0  0  0  0
  7  4  1  0  0  0  0
  8  7  1  0  0  0  0
 10  7  1  0  0  0  0
 11  5  1  0  0  0  0
 11 14  1  0  0  0  0
 12 11  1  0  0  0  0
 13 11  1  0  0  0  0
 15 17  1  0  0  0  0
 15  6  1  0  0  0  0
 16 15  1  0  0  0  0
 17 19  1  0  0  0  0
 18 17  1  0  0  0  0
 19 20  1  0  0  0  0
 19 21  1  0  0  0  0
 21 23  1  0  0  0  0
 22 21  1  0  0  0  0
 24 21  1  0  0  0  0
 24 25  1  0  0  0  0
 26 24  1  0  0  0  0
M  END
