3
 OpenBabel05122313113D

 25 26  0  0  0  0  0  0  0  0999 V2000
   -0.6952    1.6230   -0.5221 C   0  0  0  0  0  3  0  0  0  0  0  0
   -0.2077    2.6152   -0.5201 H   0  0  0  0  0  0  0  0  0  0  0  0
   -0.4114    0.7683   -1.6385 C   0  0  0  0  0  3  0  0  0  0  0  0
    0.2627    1.0568   -2.4593 H   0  0  0  0  0  0  0  0  0  0  0  0
   -0.9285   -0.5624   -1.5200 C   0  0  0  0  0  3  0  0  0  0  0  0
   -0.6505   -1.3111   -2.2792 H   0  0  0  0  0  0  0  0  0  0  0  0
   -2.2429   -0.7501   -0.8664 C   0  0  0  0  0  0  0  0  0  0  0  0
   -2.8250    0.3054   -0.1056 C   0  0  0  0  0  0  0  0  0  0  0  0
   -2.1195    1.6644    0.0435 C   0  0  0  0  0  0  0  0  0  0  0  0
   -4.0798    0.0877    0.4879 C   0  0  0  0  0  0  0  0  0  0  0  0
   -4.5447    0.8942    1.0755 H   0  0  0  0  0  0  0  0  0  0  0  0
   -4.7586   -1.1344    0.3582 C   0  0  0  0  0  0  0  0  0  0  0  0
   -5.7369   -1.2737    0.8425 H   0  0  0  0  0  0  0  0  0  0  0  0
   -4.1790   -2.1722   -0.3856 C   0  0  0  0  0  0  0  0  0  0  0  0
   -4.6972   -3.1373   -0.4937 H   0  0  0  0  0  0  0  0  0  0  0  0
   -2.9322   -1.9737   -0.9919 C   0  0  0  0  0  0  0  0  0  0  0  0
   -2.4683   -2.7835   -1.5775 H   0  0  0  0  0  0  0  0  0  0  0  0
   -2.0910    2.1473    1.5067 C   0  0  0  0  0  0  0  0  0  0  0  0
   -1.5978    1.4088    2.1652 H   0  0  0  0  0  0  0  0  0  0  0  0
   -3.1099    2.3370    1.8988 H   0  0  0  0  0  0  0  0  0  0  0  0
   -1.5269    3.1006    1.5755 H   0  0  0  0  0  0  0  0  0  0  0  0
   -2.9040    2.7031   -0.8059 C   0  0  0  0  0  0  0  0  0  0  0  0
   -2.4246    3.7026   -0.7431 H   0  0  0  0  0  0  0  0  0  0  0  0
   -3.9492    2.8003   -0.4489 H   0  0  0  0  0  0  0  0  0  0  0  0
   -2.9320    2.3976   -1.8708 H   0  0  0  0  0  0  0  0  0  0  0  0
  1  2  1  0  0  0  0
  1  9  1  0  0  0  0
  3  5  1  0  0  0  0
  3  1  1  0  0  0  0
  4  3  1  0  0  0  0
  5  7  1  0  0  0  0
  6  5  1  0  0  0  0
  7  8  1  0  0  0  0
  8  9  1  0  0  0  0
  8 10  2  0  0  0  0
  9 18  1  0  0  0  0
 10 11  1  0  0  0  0
 12 10  1  0  0  0  0
 12 13  1  0  0  0  0
 14 12  2  0  0  0  0
 15 14  1  0  0  0  0
 16  7  2  0  0  0  0
 16 14  1  0  0  0  0
 17 16  1  0  0  0  0
 18 21  1  0  0  0  0
 18 20  1  0  0  0  0
 18 19  1  0  0  0  0
 22 23  1  0  0  0  0
 22 24  1  0  0  0  0
 22  9  1  0  0  0  0
 25 22  1  0  0  0  0
M  END
