3
 OpenBabel05122313113D

 27 28  0  0  0  0  0  0  0  0999 V2000
   -1.4708   -1.1495    0.1525 N   0  0  0  0  0  0  0  0  0  0  0  0
   -1.4707    1.1496   -0.1523 N   0  0  0  0  0  0  0  0  0  0  0  0
   -0.7720   -0.0000    0.0001 C   0  0  0  0  0  2  0  0  0  0  0  0
   -2.8199   -1.4237   -0.3906 C   0  0  0  0  0  0  0  0  0  0  0  0
   -3.0027   -0.7782   -1.2718 H   0  0  0  0  0  0  0  0  0  0  0  0
   -3.6172   -1.2169    0.3562 H   0  0  0  0  0  0  0  0  0  0  0  0
   -2.7737   -2.9177   -0.7292 C   0  0  0  0  0  0  0  0  0  0  0  0
   -3.7820   -3.3741   -0.7624 H   0  0  0  0  0  0  0  0  0  0  0  0
   -2.2991   -3.0658   -1.7216 H   0  0  0  0  0  0  0  0  0  0  0  0
   -1.8724   -3.4803    0.3764 C   0  0  0  0  0  0  0  0  0  0  0  0
   -1.4589   -4.4803    0.1453 H   0  0  0  0  0  0  0  0  0  0  0  0
   -2.4393   -3.5627    1.3278 H   0  0  0  0  0  0  0  0  0  0  0  0
   -0.7785   -2.4148    0.4915 C   0  0  0  0  0  0  0  0  0  0  0  0
   -0.3229   -2.3476    1.4982 H   0  0  0  0  0  0  0  0  0  0  0  0
    0.0481   -2.5844   -0.2325 H   0  0  0  0  0  0  0  0  0  0  0  0
   -2.8196    1.4241    0.3911 C   0  0  0  0  0  0  0  0  0  0  0  0
   -3.0022    0.7788    1.2725 H   0  0  0  0  0  0  0  0  0  0  0  0
   -3.6171    1.2172   -0.3554 H   0  0  0  0  0  0  0  0  0  0  0  0
   -2.7731    2.9181    0.7293 C   0  0  0  0  0  0  0  0  0  0  0  0
   -2.2981    3.0664    1.7215 H   0  0  0  0  0  0  0  0  0  0  0  0
   -3.7813    3.3746    0.7628 H   0  0  0  0  0  0  0  0  0  0  0  0
   -1.8721    3.4803   -0.3768 C   0  0  0  0  0  0  0  0  0  0  0  0
   -2.4394    3.5626   -1.3280 H   0  0  0  0  0  0  0  0  0  0  0  0
   -1.4585    4.4804   -0.1461 H   0  0  0  0  0  0  0  0  0  0  0  0
   -0.7784    2.4147   -0.4919 C   0  0  0  0  0  0  0  0  0  0  0  0
   -0.3232    2.3471   -1.4989 H   0  0  0  0  0  0  0  0  0  0  0  0
    0.0486    2.5845    0.2317 H   0  0  0  0  0  0  0  0  0  0  0  0
  1 13  1  0  0  0  0
  2  3  1  0  0  0  0
  2 16  1  0  0  0  0
  3  1  1  0  0  0  0
  4  1  1  0  0  0  0
  4  6  1  0  0  0  0
  5  4  1  0  0  0  0
  7  4  1  0  0  0  0
  7 10  1  0  0  0  0
  8  7  1  0  0  0  0
  9  7  1  0  0  0  0
 10 13  1  0  0  0  0
 10 12  1  0  0  0  0
 11 10  1  0  0  0  0
 13 14  1  0  0  0  0
 15 13  1  0  0  0  0
 16 19  1  0  0  0  0
 16 17  1  0  0  0  0
 18 16  1  0  0  0  0
 19 21  1  0  0  0  0
 19 20  1  0  0  0  0
 22 24  1  0  0  0  0
 22 19  1  0  0  0  0
 23 22  1  0  0  0  0
 25 22  1  0  0  0  0
 25  2  1  0  0  0  0
 25 27  1  0  0  0  0
 26 25  1  0  0  0  0
M  END
