9
 OpenBabel05122313113D

 43 45  0  0  0  0  0  0  0  0999 V2000
    2.3785    1.7528    2.9840 Cl  0  0  0  0  0  0  0  0  0  0  0  0
    2.3792   -1.7520    2.9840 Cl  0  0  0  0  0  0  0  0  0  0  0  0
    0.4472   -1.0930    1.1528 N   0  0  0  0  0  0  0  0  0  0  0  0
    0.4467    1.0931    1.1528 N   0  0  0  0  0  0  0  0  0  0  0  0
    4.6072    4.9394   -1.8551 O   0  0  0  0  0  0  0  0  0  0  0  0
    4.6094   -4.9373   -1.8551 O   0  0  0  0  0  0  0  0  0  0  0  0
    1.9269   -2.6134   -1.0341 C   0  0  0  0  0  0  0  0  0  0  0  0
    1.4712   -1.7101   -1.4674 H   0  0  0  0  0  0  0  0  0  0  0  0
   -0.2016   -0.0001    0.6106 C   0  0  0  0  0  2  0  0  0  0  0  0
    1.9258    2.6141   -1.0340 C   0  0  0  0  0  0  0  0  0  0  0  0
    1.4705    1.7107   -1.4674 H   0  0  0  0  0  0  0  0  0  0  0  0
    3.0293   -4.9750    0.0211 C   0  0  0  0  0  0  0  0  0  0  0  0
    3.4439   -5.8966    0.4505 H   0  0  0  0  0  0  0  0  0  0  0  0
    1.4414   -0.6858    2.0390 C   0  0  0  0  0  0  0  0  0  0  0  0
    3.5642   -4.4137   -1.1558 C   0  0  0  0  0  0  0  0  0  0  0  0
    1.9521    4.3391    0.6622 C   0  0  0  0  0  0  0  0  0  0  0  0
    1.5499    4.7760    1.5905 H   0  0  0  0  0  0  0  0  0  0  0  0
    3.0012    3.2274   -1.6757 C   0  0  0  0  0  0  0  0  0  0  0  0
    3.4267    2.8116   -2.6004 H   0  0  0  0  0  0  0  0  0  0  0  0
    3.5622    4.4152   -1.1557 C   0  0  0  0  0  0  0  0  0  0  0  0
    3.0026   -3.2261   -1.6757 C   0  0  0  0  0  0  0  0  0  0  0  0
    3.4279   -2.8101   -2.6004 H   0  0  0  0  0  0  0  0  0  0  0  0
    1.9539   -4.3383    0.6622 C   0  0  0  0  0  0  0  0  0  0  0  0
    1.5519   -4.7755    1.5904 H   0  0  0  0  0  0  0  0  0  0  0  0
    0.2049    2.5056    0.8293 C   0  0  0  0  0  0  0  0  0  0  0  0
   -0.0500    3.0393    1.7676 H   0  0  0  0  0  0  0  0  0  0  0  0
   -0.6680    2.5059    0.1456 H   0  0  0  0  0  0  0  0  0  0  0  0
    1.3880   -3.1608    0.1513 C   0  0  0  0  0  0  0  0  0  0  0  0
    1.3867    3.1613    0.1514 C   0  0  0  0  0  0  0  0  0  0  0  0
    1.4411    0.6863    2.0390 C   0  0  0  0  0  0  0  0  0  0  0  0
    3.0272    4.9763    0.0211 C   0  0  0  0  0  0  0  0  0  0  0  0
    3.4413    5.8981    0.4505 H   0  0  0  0  0  0  0  0  0  0  0  0
    0.2059   -2.5056    0.8292 C   0  0  0  0  0  0  0  0  0  0  0  0
   -0.6669   -2.5063    0.1455 H   0  0  0  0  0  0  0  0  0  0  0  0
   -0.0487   -3.0395    1.7675 H   0  0  0  0  0  0  0  0  0  0  0  0
    5.2014   -6.1302   -1.3828 C   0  0  0  0  0  0  0  0  0  0  0  0
    6.0146   -6.3795   -2.0898 H   0  0  0  0  0  0  0  0  0  0  0  0
    4.4751   -6.9742   -1.3568 H   0  0  0  0  0  0  0  0  0  0  0  0
    5.6350   -6.0061   -0.3643 H   0  0  0  0  0  0  0  0  0  0  0  0
    5.1987    6.1326   -1.3827 C   0  0  0  0  0  0  0  0  0  0  0  0
    4.4720    6.9762   -1.3567 H   0  0  0  0  0  0  0  0  0  0  0  0
    6.0117    6.3822   -2.0898 H   0  0  0  0  0  0  0  0  0  0  0  0
    5.6323    6.0086   -0.3643 H   0  0  0  0  0  0  0  0  0  0  0  0
  3 14  1  0  0  0  0
  4 30  1  0  0  0  0
  5 40  1  0  0  0  0
  5 20  1  0  0  0  0
  6 36  1  0  0  0  0
  6 15  1  0  0  0  0
  7 28  1  0  0  0  0
  8  7  1  0  0  0  0
  9  3  1  0  0  0  0
  9  4  1  0  0  0  0
 10 29  1  0  0  0  0
 11 10  1  0  0  0  0
 12 13  1  0  0  0  0
 12 23  1  0  0  0  0
 14 30  2  0  0  0  0
 14  2  1  0  0  0  0
 15 12  2  0  0  0  0
 16 17  1  0  0  0  0
 18 20  1  0  0  0  0
 18 10  2  0  0  0  0
 19 18  1  0  0  0  0
 20 31  2  0  0  0  0
 21 15  1  0  0  0  0
 21  7  2  0  0  0  0
 22 21  1  0  0  0  0
 23 24  1  0  0  0  0
 25  4  1  0  0  0  0
 25 26  1  0  0  0  0
 27 25  1  0  0  0  0
 28 23  2  0  0  0  0
 28 33  1  0  0  0  0
 29 16  2  0  0  0  0
 29 25  1  0  0  0  0
 30  1  1  0  0  0  0
 31 32  1  0  0  0  0
 31 16  1  0  0  0  0
 33  3  1  0  0  0  0
 33 35  1  0  0  0  0
 34 33  1  0  0  0  0
 36 38  1  0  0  0  0
 36 39  1  0  0  0  0
 37 36  1  0  0  0  0
 40 41  1  0  0  0  0
 40 43  1  0  0  0  0
 42 40  1  0  0  0  0
M  END
