2
 OpenBabel05122313113D

 75 82  0  0  1  0  0  0  0  0999 V2000
   -1.1653    0.8687   -0.0866 N   0  0  0  0  0  0  0  0  0  0  0  0
   -0.0000    0.1470    0.0000 C   0  0  0  0  0  2  0  0  0  0  0  0
   -1.1632    2.1545   -0.7406 C   0  0  0  0  0  0  0  0  0  0  0  0
   -1.5371    3.3351   -0.0734 C   0  0  0  0  0  0  0  0  0  0  0  0
   -1.7634    3.2995    1.0003 H   0  0  0  0  0  0  0  0  0  0  0  0
   -1.5745    4.5507   -0.7671 C   0  0  0  0  0  0  0  0  0  0  0  0
   -1.8629    5.4694   -0.2349 H   0  0  0  0  0  0  0  0  0  0  0  0
   -1.2207    4.6031   -2.1251 C   0  0  0  0  0  0  0  0  0  0  0  0
   -1.2447    5.5612   -2.6659 H   0  0  0  0  0  0  0  0  0  0  0  0
   -0.8339    3.4284   -2.7900 C   0  0  0  0  0  0  0  0  0  0  0  0
   -0.5587    3.4598   -3.8551 H   0  0  0  0  0  0  0  0  0  0  0  0
   -0.8122    2.2055   -2.1033 C   0  0  0  0  0  0  0  0  0  0  0  0
   -0.5191    1.2762   -2.6132 H   0  0  0  0  0  0  0  0  0  0  0  0
   -2.5355    0.2048    0.0524 C   0  0  1  0  0  0  0  0  0  0  0  0
   -3.6714    1.2586    0.0768 C   0  0  0  0  0  0  0  0  0  0  0  0
   -3.5267    1.9570    0.9256 H   0  0  0  0  0  0  0  0  0  0  0  0
   -3.6619    1.8631   -0.8516 H   0  0  0  0  0  0  0  0  0  0  0  0
   -2.8053   -0.7217   -1.1570 C   0  0  0  0  0  0  0  0  0  0  0  0
   -2.7910   -0.1113   -2.0858 H   0  0  0  0  0  0  0  0  0  0  0  0
   -1.9920   -1.4743   -1.2393 H   0  0  0  0  0  0  0  0  0  0  0  0
   -2.6169   -0.5695    1.3868 C   0  0  0  0  0  0  0  0  0  0  0  0
   -2.4631    0.1469    2.2231 H   0  0  0  0  0  0  0  0  0  0  0  0
   -1.8006   -1.3196    1.4425 H   0  0  0  0  0  0  0  0  0  0  0  0
   -5.0469    0.5689    0.2183 C   0  0  1  0  0  0  0  0  0  0  0  0
   -5.8257    1.3607    0.2280 H   0  0  0  0  0  0  0  0  0  0  0  0
   -4.1611   -1.4317   -0.9969 C   0  0  2  0  0  0  0  0  0  0  0  0
   -4.3063   -2.1203   -1.8557 H   0  0  0  0  0  0  0  0  0  0  0  0
   -3.9756   -1.2813    1.5133 C   0  0  2  0  0  0  0  0  0  0  0  0
   -3.9834   -1.8622    2.4593 H   0  0  0  0  0  0  0  0  0  0  0  0
   -5.2823   -0.3790   -0.9709 C   0  0  0  0  0  0  0  0  0  0  0  0
   -5.2919    0.1937   -1.9232 H   0  0  0  0  0  0  0  0  0  0  0  0
   -6.2749   -0.8689   -0.8759 H   0  0  0  0  0  0  0  0  0  0  0  0
   -4.1634   -2.2368    0.3178 C   0  0  0  0  0  0  0  0  0  0  0  0
   -5.1218   -2.7887    0.4220 H   0  0  0  0  0  0  0  0  0  0  0  0
   -3.3493   -2.9921    0.3022 H   0  0  0  0  0  0  0  0  0  0  0  0
   -5.1001   -0.2325    1.5299 C   0  0  0  0  0  0  0  0  0  0  0  0
   -4.9781    0.4462    2.4016 H   0  0  0  0  0  0  0  0  0  0  0  0
   -6.0905   -0.7244    1.6370 H   0  0  0  0  0  0  0  0  0  0  0  0
    1.1653    0.8687    0.0866 N   0  0  0  0  0  0  0  0  0  0  0  0
    1.1632    2.1545    0.7406 C   0  0  0  0  0  0  0  0  0  0  0  0
    1.5370    3.3351    0.0734 C   0  0  0  0  0  0  0  0  0  0  0  0
    1.7633    3.2995   -1.0003 H   0  0  0  0  0  0  0  0  0  0  0  0
    1.5744    4.5507    0.7670 C   0  0  0  0  0  0  0  0  0  0  0  0
    1.8628    5.4694    0.2348 H   0  0  0  0  0  0  0  0  0  0  0  0
    1.2207    4.6032    2.1251 C   0  0  0  0  0  0  0  0  0  0  0  0
    1.2447    5.5612    2.6658 H   0  0  0  0  0  0  0  0  0  0  0  0
    0.8339    3.4284    2.7900 C   0  0  0  0  0  0  0  0  0  0  0  0
    0.5587    3.4598    3.8551 H   0  0  0  0  0  0  0  0  0  0  0  0
    0.8122    2.2055    2.1034 C   0  0  0  0  0  0  0  0  0  0  0  0
    0.5191    1.2763    2.6132 H   0  0  0  0  0  0  0  0  0  0  0  0
    2.5354    0.2048   -0.0524 C   0  0  1  0  0  0  0  0  0  0  0  0
    3.6713    1.2586   -0.0767 C   0  0  0  0  0  0  0  0  0  0  0  0
    3.5267    1.9570   -0.9256 H   0  0  0  0  0  0  0  0  0  0  0  0
    3.6619    1.8631    0.8516 H   0  0  0  0  0  0  0  0  0  0  0  0
    2.8053   -0.7217    1.1570 C   0  0  0  0  0  0  0  0  0  0  0  0
    2.7910   -0.1113    2.0859 H   0  0  0  0  0  0  0  0  0  0  0  0
    1.9920   -1.4743    1.2393 H   0  0  0  0  0  0  0  0  0  0  0  0
    2.6169   -0.5695   -1.3868 C   0  0  0  0  0  0  0  0  0  0  0  0
    2.4630    0.1469   -2.2230 H   0  0  0  0  0  0  0  0  0  0  0  0
    1.8006   -1.3196   -1.4424 H   0  0  0  0  0  0  0  0  0  0  0  0
    5.0469    0.5689   -0.2183 C   0  0  1  0  0  0  0  0  0  0  0  0
    5.8257    1.3607   -0.2280 H   0  0  0  0  0  0  0  0  0  0  0  0
    4.1611   -1.4317    0.9970 C   0  0  2  0  0  0  0  0  0  0  0  0
    4.3063   -2.1202    1.8558 H   0  0  0  0  0  0  0  0  0  0  0  0
    3.9756   -1.2812   -1.5133 C   0  0  2  0  0  0  0  0  0  0  0  0
    3.9834   -1.8622   -2.4593 H   0  0  0  0  0  0  0  0  0  0  0  0
    5.2823   -0.3789    0.9709 C   0  0  0  0  0  0  0  0  0  0  0  0
    5.2919    0.1938    1.9232 H   0  0  0  0  0  0  0  0  0  0  0  0
    6.2749   -0.8689    0.8759 H   0  0  0  0  0  0  0  0  0  0  0  0
    4.1634   -2.2368   -0.3177 C   0  0  0  0  0  0  0  0  0  0  0  0
    5.1218   -2.7887   -0.4220 H   0  0  0  0  0  0  0  0  0  0  0  0
    3.3493   -2.9921   -0.3022 H   0  0  0  0  0  0  0  0  0  0  0  0
    5.1001   -0.2325   -1.5299 C   0  0  0  0  0  0  0  0  0  0  0  0
    4.9781    0.4463   -2.4016 H   0  0  0  0  0  0  0  0  0  0  0  0
    6.0905   -0.7244   -1.6370 H   0  0  0  0  0  0  0  0  0  0  0  0
  1  2  1  0  0  0  0
  2 39  1  0  0  0  0
  3  1  1  0  0  0  0
  3  4  1  0  0  0  0
  4  5  1  0  0  0  0
  6  7  1  0  0  0  0
  6  4  2  0  0  0  0
  8  6  1  0  0  0  0
  9  8  1  0  0  0  0
 10  8  2  0  0  0  0
 10 12  1  0  0  0  0
 11 10  1  0  0  0  0
 12  3  2  0  0  0  0
 13 12  1  0  0  0  0
 14  1  1  6  0  0  0
 14 15  1  0  0  0  0
 14 21  1  0  0  0  0
 15 24  1  0  0  0  0
 15 16  1  0  0  0  0
 17 15  1  0  0  0  0
 18 26  1  0  0  0  0
 18 14  1  0  0  0  0
 19 18  1  0  0  0  0
 20 18  1  0  0  0  0
 21 23  1  0  0  0  0
 21 28  1  0  0  0  0
 21 22  1  0  0  0  0
 24 25  1  1  0  0  0
 24 36  1  0  0  0  0
 26 27  1  6  0  0  0
 26 30  1  0  0  0  0
 26 33  1  0  0  0  0
 28 36  1  0  0  0  0
 28 29  1  1  0  0  0
 30 32  1  0  0  0  0
 30 24  1  0  0  0  0
 31 30  1  0  0  0  0
 33 34  1  0  0  0  0
 33 28  1  0  0  0  0
 35 33  1  0  0  0  0
 36 38  1  0  0  0  0
 36 37  1  0  0  0  0
 39 40  1  0  0  0  0
 40 49  1  0  0  0  0
 41 40  2  0  0  0  0
 41 43  1  0  0  0  0
 42 41  1  0  0  0  0
 43 45  2  0  0  0  0
 44 43  1  0  0  0  0
 45 46  1  0  0  0  0
 45 47  1  0  0  0  0
 47 48  1  0  0  0  0
 49 50  1  0  0  0  0
 49 47  2  0  0  0  0
 51 39  1  1  0  0  0
 51 55  1  0  0  0  0
 52 51  1  0  0  0  0
 52 54  1  0  0  0  0
 53 52  1  0  0  0  0
 55 57  1  0  0  0  0
 55 56  1  0  0  0  0
 58 51  1  0  0  0  0
 59 58  1  0  0  0  0
 60 58  1  0  0  0  0
 61 62  1  6  0  0  0
 61 52  1  0  0  0  0
 61 67  1  0  0  0  0
 63 55  1  0  0  0  0
 63 64  1  1  0  0  0
 65 66  1  6  0  0  0
 65 58  1  0  0  0  0
 65 70  1  0  0  0  0
 67 63  1  0  0  0  0
 67 68  1  0  0  0  0
 69 67  1  0  0  0  0
 70 72  1  0  0  0  0
 70 63  1  0  0  0  0
 71 70  1  0  0  0  0
 73 65  1  0  0  0  0
 73 61  1  0  0  0  0
 74 73  1  0  0  0  0
 75 73  1  0  0  0  0
M  END
