5
 OpenBabel05122313113D

 17 17  0  0  0  0  0  0  0  0999 V2000
   -0.7323   -0.6840   -3.2709 C   0  0  0  0  0  0  0  0  0  0  0  0
   -0.5333   -1.7142   -2.9021 H   0  0  0  0  0  0  0  0  0  0  0  0
    0.2312   -0.3113   -3.6726 H   0  0  0  0  0  0  0  0  0  0  0  0
   -1.4293   -0.7842   -4.1380 H   0  0  0  0  0  0  0  0  0  0  0  0
   -1.2480    0.2312   -2.1823 C   0  0  0  0  0  3  0  0  0  0  0  0
   -1.1047    1.3112   -2.3720 H   0  0  0  0  0  0  0  0  0  0  0  0
   -2.4661   -0.0668   -1.4773 C   0  0  0  0  0  0  0  0  0  0  0  0
   -3.1661   -1.3186   -1.5879 C   0  0  0  0  0  0  0  0  0  0  0  0
   -2.8139   -2.0593   -2.3212 H   0  0  0  0  0  0  0  0  0  0  0  0
   -4.3226   -1.5813   -0.8500 C   0  0  0  0  0  0  0  0  0  0  0  0
   -4.8465   -2.5389   -1.0010 H   0  0  0  0  0  0  0  0  0  0  0  0
   -4.8405   -0.6430    0.0695 C   0  0  0  0  0  0  0  0  0  0  0  0
   -5.7580   -0.8582    0.6360 H   0  0  0  0  0  0  0  0  0  0  0  0
   -4.1563    0.5707    0.2397 C   0  0  0  0  0  0  0  0  0  0  0  0
   -4.5389    1.3254    0.9455 H   0  0  0  0  0  0  0  0  0  0  0  0
   -2.9909    0.8495   -0.4925 C   0  0  0  0  0  0  0  0  0  0  0  0
   -2.5355    1.8511   -0.4078 H   0  0  0  0  0  0  0  0  0  0  0  0
  1  2  1  0  0  0  0
  1  5  1  0  0  0  0
  3  1  1  0  0  0  0
  4  1  1  0  0  0  0
  5  7  1  0  0  0  0
  6  5  1  0  0  0  0
  7 16  1  0  0  0  0
  8  7  2  0  0  0  0
  8 10  1  0  0  0  0
  9  8  1  0  0  0  0
 10 12  2  0  0  0  0
 11 10  1  0  0  0  0
 12 14  1  0  0  0  0
 12 13  1  0  0  0  0
 14 15  1  0  0  0  0
 16 17  1  0  0  0  0
 16 14  2  0  0  0  0
M  END
