4
 OpenBabel05122313113D

 15 15  0  0  0  0  0  0  0  0999 V2000
    9.5692   -1.2088    0.3864 O   0  0  0  0  0  0  0  0  0  0  0  0
    9.5921    0.9050   -0.1734 O   0  0  0  0  0  0  0  0  0  0  0  0
    9.0094   -0.1480    0.0980 N   0  0  0  0  0  0  0  0  0  0  0  0
    2.0626   -0.0972    0.0011 C   0  0  0  0  0  1  0  0  0  0  0  0
    3.3051   -0.1073    0.0160 C   0  0  0  0  0  2  0  0  0  0  0  0
    4.7263   -0.1180    0.0354 C   0  0  0  0  0  0  0  0  0  0  0  0
    5.4428   -1.3044    0.3601 C   0  0  0  0  0  0  0  0  0  0  0  0
    4.8765   -2.2165    0.5959 H   0  0  0  0  0  0  0  0  0  0  0  0
    6.8372   -1.3170    0.3811 C   0  0  0  0  0  0  0  0  0  0  0  0
    7.4098   -2.2206    0.6288 H   0  0  0  0  0  0  0  0  0  0  0  0
    7.5346   -0.1377    0.0762 C   0  0  0  0  0  0  0  0  0  0  0  0
    6.8630    1.0511   -0.2488 C   0  0  0  0  0  0  0  0  0  0  0  0
    7.4553    1.9466   -0.4794 H   0  0  0  0  0  0  0  0  0  0  0  0
    5.4686    1.0582   -0.2685 C   0  0  0  0  0  0  0  0  0  0  0  0
    4.9223    1.9782   -0.5201 H   0  0  0  0  0  0  0  0  0  0  0  0
  2  3  2  0  0  0  0
  3  1  2  0  0  0  0
  4  5  1  0  0  0  0
  5  6  1  0  0  0  0
  6  7  1  0  0  0  0
  7  9  2  0  0  0  0
  7  8  1  0  0  0  0
  9 10  1  0  0  0  0
 11  3  1  0  0  0  0
 11  9  1  0  0  0  0
 12 11  2  0  0  0  0
 13 12  1  0  0  0  0
 14 12  1  0  0  0  0
 14  6  2  0  0  0  0
 15 14  1  0  0  0  0
M  END
