2
 OpenBabel05122313113D

 23 23  0  0  0  0  0  0  0  0999 V2000
    0.1207    2.8437   -0.2506 O   0  0  0  0  0  0  0  0  0  0  0  0
    1.5239    0.5883   -0.1646 C   0  0  0  0  0  2  0  0  0  0  0  0
    2.1716   -0.3038   -0.1338 H   0  0  0  0  0  0  0  0  0  0  0  0
    2.1958    1.8226   -0.5121 C   0  0  0  0  0  0  0  0  0  0  0  0
    3.5751    1.8779   -0.8212 C   0  0  0  0  0  0  0  0  0  0  0  0
    4.1535    0.9410   -0.7904 H   0  0  0  0  0  0  0  0  0  0  0  0
    4.1850    3.0920   -1.1561 C   0  0  0  0  0  0  0  0  0  0  0  0
    5.2581    3.1277   -1.3943 H   0  0  0  0  0  0  0  0  0  0  0  0
    3.4164    4.2687   -1.1838 C   0  0  0  0  0  0  0  0  0  0  0  0
    3.8895    5.2275   -1.4448 H   0  0  0  0  0  0  0  0  0  0  0  0
    2.0432    4.2497   -0.8795 C   0  0  0  0  0  0  0  0  0  0  0  0
    1.4668    5.1833   -0.9043 H   0  0  0  0  0  0  0  0  0  0  0  0
    1.4396    3.0281   -0.5488 C   0  0  0  0  0  0  0  0  0  0  0  0
   -0.7742    3.9860   -0.0674 C   0  0  0  0  0  0  0  0  0  0  0  0
   -0.5618    4.6873   -0.9036 H   0  0  0  0  0  0  0  0  0  0  0  0
   -0.5002    4.6396    1.2820 C   0  0  0  0  0  0  0  0  0  0  0  0
   -0.6716    3.8998    2.0887 H   0  0  0  0  0  0  0  0  0  0  0  0
   -1.1781    5.5045    1.4259 H   0  0  0  0  0  0  0  0  0  0  0  0
    0.5433    5.0016    1.3615 H   0  0  0  0  0  0  0  0  0  0  0  0
   -2.1905    3.4581   -0.2064 C   0  0  0  0  0  0  0  0  0  0  0  0
   -2.3184    2.9037   -1.1554 H   0  0  0  0  0  0  0  0  0  0  0  0
   -2.9055    4.3036   -0.1739 H   0  0  0  0  0  0  0  0  0  0  0  0
   -2.4263    2.7710    0.6284 H   0  0  0  0  0  0  0  0  0  0  0  0
  1 14  1  0  0  0  0
  2  3  1  0  0  0  0
  4  2  1  0  0  0  0
  5  6  1  0  0  0  0
  5  4  2  0  0  0  0
  7  5  1  0  0  0  0
  8  7  1  0  0  0  0
  9  7  2  0  0  0  0
  9 11  1  0  0  0  0
 10  9  1  0  0  0  0
 11 13  2  0  0  0  0
 12 11  1  0  0  0  0
 13  4  1  0  0  0  0
 13  1  1  0  0  0  0
 14 16  1  0  0  0  0
 15 14  1  0  0  0  0
 16 19  1  0  0  0  0
 16 18  1  0  0  0  0
 16 17  1  0  0  0  0
 20 22  1  0  0  0  0
 20 14  1  0  0  0  0
 20 23  1  0  0  0  0
 21 20  1  0  0  0  0
M  END
