3
 OpenBabel05122313113D

 17 18  0  0  0  0  0  0  0  0999 V2000
    1.8381   -2.0129   -0.0505 I   0  0  0  0  0  0  0  0  0  0  0  0
    3.5737   -0.7459    0.0270 C   0  0  0  0  0  0  0  0  0  0  0  0
    2.3260    1.5058   -0.0511 C   0  0  0  0  0  3  0  0  0  0  0  0
    3.5175    0.6905   -0.0008 C   0  0  0  0  0  0  0  0  0  0  0  0
    4.7644   -1.4614    0.0880 C   0  0  0  0  0  0  0  0  0  0  0  0
    4.7436   -2.5600    0.1073 H   0  0  0  0  0  0  0  0  0  0  0  0
    4.8198    1.3511    0.0267 C   0  0  0  0  0  0  0  0  0  0  0  0
    2.4777    2.8987   -0.0838 C   0  0  0  0  0  0  0  0  0  0  0  0
    1.5790    3.5332   -0.1234 H   0  0  0  0  0  0  0  0  0  0  0  0
    3.7425    3.5384   -0.0658 C   0  0  0  0  0  0  0  0  0  0  0  0
    3.8031    4.6377   -0.0942 H   0  0  0  0  0  0  0  0  0  0  0  0
    6.0071   -0.7832    0.1217 C   0  0  0  0  0  0  0  0  0  0  0  0
    6.9403   -1.3643    0.1707 H   0  0  0  0  0  0  0  0  0  0  0  0
    6.0278    0.5983    0.0886 C   0  0  0  0  0  0  0  0  0  0  0  0
    6.9826    1.1466    0.1095 H   0  0  0  0  0  0  0  0  0  0  0  0
    4.8919    2.7737   -0.0084 C   0  0  0  0  0  0  0  0  0  0  0  0
    5.8872    3.2447    0.0116 H   0  0  0  0  0  0  0  0  0  0  0  0
  1  2  1  0  0  0  0
  2  5  1  0  0  0  0
  3  4  1  0  0  0  0
  4  7  1  0  0  0  0
  4  2  2  0  0  0  0
  5  6  1  0  0  0  0
  5 12  2  0  0  0  0
  7 14  2  0  0  0  0
  8 10  1  0  0  0  0
  8  3  2  0  0  0  0
  9  8  1  0  0  0  0
 10 16  2  0  0  0  0
 11 10  1  0  0  0  0
 12 13  1  0  0  0  0
 14 15  1  0  0  0  0
 14 12  1  0  0  0  0
 16 17  1  0  0  0  0
 16  7  1  0  0  0  0
M  END
