7
 OpenBabel05122313113D

 50 56  0  0  1  0  0  0  0  0999 V2000
    3.8904   -0.2843   -0.0001 C   0  0  1  0  0  0  0  0  0  0  0  0
    4.8657    0.2483   -0.0001 H   0  0  0  0  0  0  0  0  0  0  0  0
    2.0444   -2.1726   -1.3212 C   0  0  0  0  0  0  0  0  0  0  0  0
    1.0595   -2.6839   -1.3565 H   0  0  0  0  0  0  0  0  0  0  0  0
    2.6464   -2.5989   -2.1526 H   0  0  0  0  0  0  0  0  0  0  0  0
    0.7197   -0.2013   -0.7232 C   0  0  1  0  0  3  0  0  0  0  0  0
   -0.7486   -0.1794   -0.7299 C   0  0  2  0  0  3  0  0  0  0  0  0
   -3.2001    0.0726   -1.3203 C   0  0  0  0  0  0  0  0  0  0  0  0
   -3.9006   -0.1794   -2.1458 H   0  0  0  0  0  0  0  0  0  0  0  0
   -3.0390    1.1658   -1.3733 H   0  0  0  0  0  0  0  0  0  0  0  0
    0.7197   -0.2013    0.7231 C   0  0  1  0  0  3  0  0  0  0  0  0
    2.0444   -2.1725    1.3213 C   0  0  0  0  0  0  0  0  0  0  0  0
    2.6466   -2.5987    2.1526 H   0  0  0  0  0  0  0  0  0  0  0  0
    1.0596   -2.6839    1.3567 H   0  0  0  0  0  0  0  0  0  0  0  0
   -3.9060   -0.3189   -0.0001 C   0  0  2  0  0  0  0  0  0  0  0  0
   -4.8874    0.2023   -0.0001 H   0  0  0  0  0  0  0  0  0  0  0  0
   -2.7698   -2.5316    0.0000 C   0  0  2  0  0  0  0  0  0  0  0  0
   -2.9182   -3.6333    0.0000 H   0  0  0  0  0  0  0  0  0  0  0  0
   -0.7486   -0.1794    0.7299 C   0  0  2  0  0  3  0  0  0  0  0  0
   -3.2001    0.0727    1.3202 C   0  0  0  0  0  0  0  0  0  0  0  0
   -3.0390    1.1659    1.3732 H   0  0  0  0  0  0  0  0  0  0  0  0
   -3.9006   -0.1793    2.1457 H   0  0  0  0  0  0  0  0  0  0  0  0
    1.8526   -0.6497   -1.5895 C   0  0  1  0  0  0  0  0  0  0  0  0
    1.5782   -0.5044   -2.6555 H   0  0  0  0  0  0  0  0  0  0  0  0
    2.7811   -2.5086    0.0000 C   0  0  2  0  0  0  0  0  0  0  0  0
    2.9408   -3.6086    0.0001 H   0  0  0  0  0  0  0  0  0  0  0  0
    1.8526   -0.6496    1.5894 C   0  0  1  0  0  0  0  0  0  0  0  0
    1.5783   -0.5042    2.6555 H   0  0  0  0  0  0  0  0  0  0  0  0
   -2.0355   -2.1883    1.3202 C   0  0  0  0  0  0  0  0  0  0  0  0
   -1.0425   -2.6840    1.3503 H   0  0  0  0  0  0  0  0  0  0  0  0
   -2.6284   -2.6273    2.1517 H   0  0  0  0  0  0  0  0  0  0  0  0
    3.1731    0.1096   -1.3101 C   0  0  0  0  0  0  0  0  0  0  0  0
    3.8711   -0.1122   -2.1460 H   0  0  0  0  0  0  0  0  0  0  0  0
    2.9896    1.2006   -1.3374 H   0  0  0  0  0  0  0  0  0  0  0  0
   -1.8671   -0.6630   -1.5938 C   0  0  2  0  0  0  0  0  0  0  0  0
   -1.5944   -0.5196   -2.6609 H   0  0  0  0  0  0  0  0  0  0  0  0
   -1.8671   -0.6629    1.5938 C   0  0  1  0  0  0  0  0  0  0  0  0
   -1.5945   -0.5195    2.6609 H   0  0  0  0  0  0  0  0  0  0  0  0
    3.1732    0.1097    1.3098 C   0  0  0  0  0  0  0  0  0  0  0  0
    2.9896    1.2007    1.3370 H   0  0  0  0  0  0  0  0  0  0  0  0
    3.8711   -0.1119    2.1458 H   0  0  0  0  0  0  0  0  0  0  0  0
   -2.0354   -2.1883   -1.3202 C   0  0  0  0  0  0  0  0  0  0  0  0
   -2.6283   -2.6274   -2.1517 H   0  0  0  0  0  0  0  0  0  0  0  0
   -1.0424   -2.6841   -1.3502 H   0  0  0  0  0  0  0  0  0  0  0  0
   -4.1401   -1.8373   -0.0000 C   0  0  0  0  0  0  0  0  0  0  0  0
   -4.7272   -2.1405    0.8933 H   0  0  0  0  0  0  0  0  0  0  0  0
   -4.7271   -2.1405   -0.8933 H   0  0  0  0  0  0  0  0  0  0  0  0
    4.1429   -1.7988   -0.0000 C   0  0  0  0  0  0  0  0  0  0  0  0
    4.7336   -2.0946   -0.8933 H   0  0  0  0  0  0  0  0  0  0  0  0
    4.7337   -2.0945    0.8933 H   0  0  0  0  0  0  0  0  0  0  0  0
  1 48  1  0  0  0  0
  1 39  1  0  0  0  0
  2  1  1  0  0  0  0
  3 25  1  0  0  0  0
  4  3  1  0  0  0  0
  5  3  1  0  0  0  0
  6 11  1  0  0  0  0
  7  6  1  0  0  0  0
  7 19  1  0  0  0  0
  8 15  1  0  0  0  0
  9  8  1  0  0  0  0
 10  8  1  0  0  0  0
 11 19  1  0  0  0  0
 11 27  1  0  0  0  0
 12 14  1  0  0  0  0
 12 27  1  0  0  0  0
 12 13  1  0  0  0  0
 15 45  1  0  0  0  0
 15 20  1  0  0  0  0
 16 15  1  0  0  0  0
 17 18  1  0  0  0  0
 17 29  1  0  0  0  0
 19 37  1  0  0  0  0
 20 21  1  0  0  0  0
 20 37  1  0  0  0  0
 20 22  1  0  0  0  0
 23  3  1  0  0  0  0
 23 32  1  0  0  0  0
 23  6  1  0  0  0  0
 24 23  1  0  0  0  0
 25 26  1  0  0  0  0
 25 12  1  0  0  0  0
 27 28  1  0  0  0  0
 29 30  1  0  0  0  0
 29 37  1  0  0  0  0
 29 31  1  0  0  0  0
 32  1  1  0  0  0  0
 33 32  1  0  0  0  0
 34 32  1  0  0  0  0
 35  8  1  0  0  0  0
 35 42  1  0  0  0  0
 35  7  1  0  0  0  0
 36 35  1  0  0  0  0
 37 38  1  0  0  0  0
 39 40  1  0  0  0  0
 39 27  1  0  0  0  0
 39 41  1  0  0  0  0
 42 17  1  0  0  0  0
 43 42  1  0  0  0  0
 44 42  1  0  0  0  0
 45 17  1  0  0  0  0
 45 46  1  0  0  0  0
 47 45  1  0  0  0  0
 48 25  1  0  0  0  0
 48 50  1  0  0  0  0
 49 48  1  0  0  0  0
M  END
