6
 OpenBabel05122313113D

 15 16  0  0  1  0  0  0  0  0999 V2000
   -2.6960   -0.9539    0.5612 C   0  0  0  0  0  0  0  0  0  0  0  0
   -2.0331   -0.5255    1.7137 C   0  0  0  0  0  0  0  0  0  0  0  0
   -1.4029   -1.7857    2.3486 C   0  0  1  0  0  0  0  0  0  0  0  0
   -2.4519   -2.8620    1.9759 C   0  0  0  0  0  0  0  0  0  0  0  0
   -2.4649   -2.4797    0.4747 C   0  0  2  0  0  0  0  0  0  0  0  0
   -0.9541   -2.5315    0.1515 C   0  0  0  0  0  3  0  0  0  0  0  0
   -0.2858   -2.0878    1.3206 C   0  0  0  0  0  3  0  0  0  0  0  0
   -3.4051   -0.4019   -0.0680 H   0  0  0  0  0  0  0  0  0  0  0  0
   -2.1256    0.4358    2.2364 H   0  0  0  0  0  0  0  0  0  0  0  0
   -1.0934   -1.7024    3.4046 H   0  0  0  0  0  0  0  0  0  0  0  0
   -2.0946   -3.8966    2.1593 H   0  0  0  0  0  0  0  0  0  0  0  0
   -3.4312   -2.7032    2.4730 H   0  0  0  0  0  0  0  0  0  0  0  0
   -3.1228   -3.0299   -0.2173 H   0  0  0  0  0  0  0  0  0  0  0  0
   -0.5309   -3.1288   -0.6636 H   0  0  0  0  0  0  0  0  0  0  0  0
    0.7510   -2.3163    1.5943 H   0  0  0  0  0  0  0  0  0  0  0  0
  1  2  2  0  0  0  0
  2  9  1  0  0  0  0
  2  3  1  0  0  0  0
  3 10  1  1  0  0  0
  4 11  1  0  0  0  0
  4  3  1  0  0  0  0
  4 12  1  0  0  0  0
  5 13  1  6  0  0  0
  5  1  1  0  0  0  0
  5  4  1  0  0  0  0
  6  5  1  0  0  0  0
  6  7  1  0  0  0  0
  7 15  1  0  0  0  0
  7  3  1  0  0  0  0
  8  1  1  0  0  0  0
 14  6  1  0  0  0  0
M  END
