29
 OpenBabel05122313113D

 43 49  0  0  1  0  0  0  0  0999 V2000
    1.8164    2.8684   -0.1379 N   0  0  0  0  0  0  0  0  0  0  0  0
   -3.6655   -0.4062   -2.5711 C   0  0  0  0  0  0  0  0  0  0  0  0
   -3.7720    0.5500   -3.1151 H   0  0  0  0  0  0  0  0  0  0  0  0
   -4.1508   -1.1997   -3.1679 H   0  0  0  0  0  0  0  0  0  0  0  0
   -2.5904   -0.6544   -2.4752 H   0  0  0  0  0  0  0  0  0  0  0  0
   -0.1534    2.1164    0.3729 N   0  0  0  0  0  0  0  0  0  0  0  0
   -4.3446   -0.3466   -1.2159 C   0  0  1  0  0  0  0  0  0  0  0  0
   -3.6613    0.5881   -0.0020 C   0  0  1  0  0  0  0  0  0  0  0  0
   -5.1114    1.1282   -0.7542 B   0  0  2  0  0  0  0  0  0  0  0  0
   -5.0129    2.0574   -1.5143 H   0  0  0  0  0  0  0  0  0  0  0  0
   -2.4113    1.3952   -0.3377 C   0  0  0  0  0  0  0  0  0  0  0  0
   -1.9911    1.0534   -1.3032 H   0  0  0  0  0  0  0  0  0  0  0  0
   -2.7087    2.4562   -0.4483 H   0  0  0  0  0  0  0  0  0  0  0  0
   -6.0495   -0.3332   -1.0892 B   0  0  2  0  0  0  0  0  0  0  0  0
   -6.6730   -0.3802   -2.1207 H   0  0  0  0  0  0  0  0  0  0  0  0
   -1.2911    1.2630    0.6968 C   0  0  0  0  0  0  0  0  0  0  0  0
   -1.6469    1.5397    1.7086 H   0  0  0  0  0  0  0  0  0  0  0  0
   -0.9204    0.2241    0.7151 H   0  0  0  0  0  0  0  0  0  0  0  0
   -5.0936   -1.7325   -0.5546 B   0  0  2  0  0  0  0  0  0  0  0  0
   -5.0670   -2.7372   -1.2211 H   0  0  0  0  0  0  0  0  0  0  0  0
   -0.2104    3.4991    0.4902 C   0  0  0  0  0  0  0  0  0  0  0  0
   -1.1235    4.0220    0.7893 H   0  0  0  0  0  0  0  0  0  0  0  0
   -3.5593   -1.1319    0.1035 B   0  0  2  0  0  0  0  0  0  0  0  0
   -2.4910   -1.6345   -0.1178 H   0  0  0  0  0  0  0  0  0  0  0  0
    1.0313    3.9708    0.1705 C   0  0  0  0  0  0  0  0  0  0  0  0
    1.4241    4.9908    0.1324 H   0  0  0  0  0  0  0  0  0  0  0  0
   -4.8794    1.2569    0.9972 B   0  0  1  0  0  0  0  0  0  0  0  0
   -4.6540    2.3516    1.4558 H   0  0  0  0  0  0  0  0  0  0  0  0
    1.1002    1.6981   -0.0221 C   0  0  0  0  0  2  0  0  0  0  0  0
   -6.4248    0.6655    0.3386 B   0  0  1  0  0  0  0  0  0  0  0  0
   -7.4260    1.3400    0.3869 H   0  0  0  0  0  0  0  0  0  0  0  0
    3.2386    2.9810   -0.4334 C   0  0  0  0  0  0  0  0  0  0  0  0
    3.8311    2.9712    0.5040 H   0  0  0  0  0  0  0  0  0  0  0  0
    3.4181    3.9356   -0.9620 H   0  0  0  0  0  0  0  0  0  0  0  0
    3.5328    2.1376   -1.0887 H   0  0  0  0  0  0  0  0  0  0  0  0
   -6.4171   -1.1191    0.4673 B   0  0  1  0  0  0  0  0  0  0  0  0
   -7.4317   -1.7596    0.6109 H   0  0  0  0  0  0  0  0  0  0  0  0
   -4.8638   -1.6160    1.2040 B   0  0  0  0  0  0  0  0  0  0  0  0
   -4.7302   -2.6033    1.8877 H   0  0  0  0  0  0  0  0  0  0  0  0
   -3.9291   -0.1434    1.5283 B   0  0  2  0  0  0  0  0  0  0  0  0
   -3.0793   -0.0255    2.3742 H   0  0  0  0  0  0  0  0  0  0  0  0
   -5.6919   -0.1295    1.7626 B   0  0  0  0  0  0  0  0  0  0  0  0
   -6.1627   -0.0316    2.8715 H   0  0  0  0  0  0  0  0  0  0  0  0
  1 29  1  0  0  0  0
  1 25  1  0  0  0  0
  2  5  1  0  0  0  0
  3  2  1  0  0  0  0
  4  2  1  0  0  0  0
  6 21  1  0  0  0  0
  6 16  1  0  0  0  0
  7  2  1  6  0  0  0
  7 14  1  0  0  0  0
  7 19  1  0  0  0  0
  7  8  1  0  0  0  0
  8 11  1  6  0  0  0
  8 27  1  0  0  0  0
  8 40  1  0  0  0  0
  9 10  1  6  0  0  0
  9 30  1  0  0  0  0
  9 27  1  0  0  0  0
 11 16  1  0  0  0  0
 12 11  1  0  0  0  0
 13 11  1  0  0  0  0
 14 15  1  6  0  0  0
 14  9  1  0  0  0  0
 14 19  1  0  0  0  0
 16 18  1  0  0  0  0
 16 17  1  0  0  0  0
 19 20  1  6  0  0  0
 19 23  1  0  0  0  0
 21 22  1  0  0  0  0
 23 24  1  6  0  0  0
 23 38  1  0  0  0  0
 23 40  1  0  0  0  0
 25 21  2  0  0  0  0
 26 25  1  0  0  0  0
 27 28  1  1  0  0  0
 27 40  1  0  0  0  0
 29  6  1  0  0  0  0
 30 31  1  1  0  0  0
 30 36  1  0  0  0  0
 30 42  1  0  0  0  0
 32  1  1  0  0  0  0
 32 33  1  0  0  0  0
 34 32  1  0  0  0  0
 35 32  1  0  0  0  0
 36 37  1  1  0  0  0
 36 38  1  0  0  0  0
 36 42  1  0  0  0  0
 38 39  1  0  0  0  0
 40 41  1  1  0  0  0
 42 43  1  0  0  0  0
M  END
