8
 OpenBabel05122313113D

 27 28  0  0  0  0  0  0  0  0999 V2000
   -2.4354   -1.9676   -0.3647 C   0  0  0  0  0  0  0  0  0  0  0  0
   -2.2214   -1.6082    0.9927 C   0  0  0  0  0  0  0  0  0  0  0  0
   -2.5003   -0.6477    1.4399 H   0  0  0  0  0  0  0  0  0  0  0  0
   -1.5220   -2.6687    1.6423 C   0  0  0  0  0  0  0  0  0  0  0  0
   -1.1893   -2.6720    2.6870 H   0  0  0  0  0  0  0  0  0  0  0  0
   -1.2904   -3.6881    0.6857 C   0  0  0  0  0  0  0  0  0  0  0  0
   -0.7985   -4.6480    0.8777 H   0  0  0  0  0  0  0  0  0  0  0  0
   -1.8160   -3.2410   -0.5684 C   0  0  0  0  0  3  0  0  0  0  0  0
   -1.7862   -3.7913   -1.5174 H   0  0  0  0  0  0  0  0  0  0  0  0
   -3.1203   -1.1377   -1.4191 C   0  0  0  0  0  0  0  0  0  0  0  0
   -3.9535   -1.7356   -1.8461 H   0  0  0  0  0  0  0  0  0  0  0  0
   -2.3900   -0.9702   -2.2385 H   0  0  0  0  0  0  0  0  0  0  0  0
   -3.6420    0.1906   -0.9181 C   0  0  0  0  0  0  0  0  0  0  0  0
   -4.9968    0.3688   -0.5952 C   0  0  0  0  0  0  0  0  0  0  0  0
   -5.7011   -0.4670   -0.7364 H   0  0  0  0  0  0  0  0  0  0  0  0
   -5.4847    1.5891   -0.0962 C   0  0  0  0  0  0  0  0  0  0  0  0
   -6.5532    1.6863    0.1383 H   0  0  0  0  0  0  0  0  0  0  0  0
   -4.5968    2.6664    0.0931 C   0  0  0  0  0  0  0  0  0  0  0  0
   -4.9573    3.8926    0.5692 O   0  0  0  0  0  0  0  0  0  0  0  0
   -6.3131    4.1079    0.9020 C   0  0  0  0  0  0  0  0  0  0  0  0
   -6.9843    3.9831    0.0218 H   0  0  0  0  0  0  0  0  0  0  0  0
   -6.3874    5.1506    1.2633 H   0  0  0  0  0  0  0  0  0  0  0  0
   -6.6594    3.4219    1.7085 H   0  0  0  0  0  0  0  0  0  0  0  0
   -3.2307    2.4997   -0.2238 C   0  0  0  0  0  0  0  0  0  0  0  0
   -2.5529    3.3520   -0.0701 H   0  0  0  0  0  0  0  0  0  0  0  0
   -2.7642    1.2817   -0.7208 C   0  0  0  0  0  0  0  0  0  0  0  0
   -1.6979    1.1521   -0.9596 H   0  0  0  0  0  0  0  0  0  0  0  0
  1  2  2  0  0  0  0
  2  3  1  0  0  0  0
  2  4  1  0  0  0  0
  4  5  1  0  0  0  0
  6  7  1  0  0  0  0
  6  4  2  0  0  0  0
  8  1  1  0  0  0  0
  8  6  1  0  0  0  0
  9  8  1  0  0  0  0
 10 13  1  0  0  0  0
 10  1  1  0  0  0  0
 11 10  1  0  0  0  0
 12 10  1  0  0  0  0
 13 26  2  0  0  0  0
 13 14  1  0  0  0  0
 14 16  2  0  0  0  0
 15 14  1  0  0  0  0
 16 18  1  0  0  0  0
 16 17  1  0  0  0  0
 18 19  1  0  0  0  0
 19 20  1  0  0  0  0
 20 22  1  0  0  0  0
 20 23  1  0  0  0  0
 21 20  1  0  0  0  0
 24 25  1  0  0  0  0
 24 18  2  0  0  0  0
 26 24  1  0  0  0  0
 27 26  1  0  0  0  0
M  END
