3
 OpenBabel05122313113D

 40 43  0  0  0  0  0  0  0  0999 V2000
    1.3342    1.0780   -0.1238 N   0  0  0  0  0  0  0  0  0  0  0  0
    1.6112   -1.2259   -0.4447 N   0  0  0  0  0  0  0  0  0  0  0  0
    0.7647   -0.1602   -0.2772 C   0  0  0  0  0  2  0  0  0  0  0  0
    2.7249    1.3132   -0.0207 C   0  0  0  0  0  0  0  0  0  0  0  0
    3.2533    2.5734    0.2670 C   0  0  0  0  0  0  0  0  0  0  0  0
    2.5857    3.4238    0.4508 H   0  0  0  0  0  0  0  0  0  0  0  0
    4.6572    2.7448    0.3142 C   0  0  0  0  0  0  0  0  0  0  0  0
    5.0610    3.7430    0.5412 H   0  0  0  0  0  0  0  0  0  0  0  0
    5.5203    1.6864    0.0743 C   0  0  0  0  0  0  0  0  0  0  0  0
    6.6104    1.8317    0.0999 H   0  0  0  0  0  0  0  0  0  0  0  0
    5.0084    0.3860   -0.2065 C   0  0  0  0  0  0  0  0  0  0  0  0
    5.8500   -0.7354   -0.4568 C   0  0  0  0  0  0  0  0  0  0  0  0
    6.9414   -0.5996   -0.4347 H   0  0  0  0  0  0  0  0  0  0  0  0
    5.2904   -1.9742   -0.7225 C   0  0  0  0  0  0  0  0  0  0  0  0
    5.9397   -2.8401   -0.9216 H   0  0  0  0  0  0  0  0  0  0  0  0
    3.8880   -2.1664   -0.7363 C   0  0  0  0  0  0  0  0  0  0  0  0
    3.5002   -3.1669   -0.9396 H   0  0  0  0  0  0  0  0  0  0  0  0
    3.0230   -1.0967   -0.4839 C   0  0  0  0  0  0  0  0  0  0  0  0
    3.5821    0.1970   -0.2380 C   0  0  0  0  0  0  0  0  0  0  0  0
    0.4590    2.2275   -0.0193 C   0  0  0  0  0  0  0  0  0  0  0  0
   -0.1822    2.5216    1.1951 C   0  0  0  0  0  0  0  0  0  0  0  0
   -0.0545    1.8431    2.0501 H   0  0  0  0  0  0  0  0  0  0  0  0
   -0.9992    3.6582    1.2829 C   0  0  0  0  0  0  0  0  0  0  0  0
   -1.5159    3.8794    2.2286 H   0  0  0  0  0  0  0  0  0  0  0  0
   -1.1630    4.5020    0.1714 C   0  0  0  0  0  0  0  0  0  0  0  0
   -1.8106    5.3888    0.2430 H   0  0  0  0  0  0  0  0  0  0  0  0
   -0.4868    4.2220   -1.0275 C   0  0  0  0  0  0  0  0  0  0  0  0
   -0.5970    4.8900   -1.8948 H   0  0  0  0  0  0  0  0  0  0  0  0
    0.3372    3.0906   -1.1218 C   0  0  0  0  0  0  0  0  0  0  0  0
    0.8896    2.8689   -2.0465 H   0  0  0  0  0  0  0  0  0  0  0  0
    0.9654   -2.5744   -0.5092 C   0  0  0  0  0  0  0  0  0  0  0  0
   -0.1146   -2.3064   -0.3989 H   0  0  0  0  0  0  0  0  0  0  0  0
    1.1086   -3.2692   -1.8702 C   0  0  0  0  0  0  0  0  0  0  0  0
    2.0481   -3.8418   -1.9919 H   0  0  0  0  0  0  0  0  0  0  0  0
    1.0448   -2.5436   -2.7041 H   0  0  0  0  0  0  0  0  0  0  0  0
    0.2739   -3.9892   -1.9868 H   0  0  0  0  0  0  0  0  0  0  0  0
    1.3146   -3.4533    0.6923 C   0  0  0  0  0  0  0  0  0  0  0  0
    0.6868   -4.3660    0.6544 H   0  0  0  0  0  0  0  0  0  0  0  0
    1.0742   -2.9202    1.6327 H   0  0  0  0  0  0  0  0  0  0  0  0
    2.3741   -3.7716    0.7191 H   0  0  0  0  0  0  0  0  0  0  0  0
  1  4  1  0  0  0  0
  1 20  1  0  0  0  0
  2  3  1  0  0  0  0
  3  1  1  0  0  0  0
  4  5  1  0  0  0  0
  5  7  2  0  0  0  0
  5  6  1  0  0  0  0
  7  8  1  0  0  0  0
  9 10  1  0  0  0  0
  9  7  1  0  0  0  0
 11  9  2  0  0  0  0
 12 13  1  0  0  0  0
 12 11  1  0  0  0  0
 14 12  2  0  0  0  0
 15 14  1  0  0  0  0
 16 14  1  0  0  0  0
 16 18  2  0  0  0  0
 17 16  1  0  0  0  0
 18  2  1  0  0  0  0
 18 19  1  0  0  0  0
 19 11  1  0  0  0  0
 19  4  2  0  0  0  0
 20 21  1  0  0  0  0
 21 23  2  0  0  0  0
 21 22  1  0  0  0  0
 23 24  1  0  0  0  0
 25 26  1  0  0  0  0
 25 23  1  0  0  0  0
 27 25  2  0  0  0  0
 28 27  1  0  0  0  0
 29 27  1  0  0  0  0
 29 20  2  0  0  0  0
 30 29  1  0  0  0  0
 31  2  1  0  0  0  0
 31 32  1  0  0  0  0
 31 37  1  0  0  0  0
 33 31  1  0  0  0  0
 34 33  1  0  0  0  0
 35 33  1  0  0  0  0
 36 33  1  0  0  0  0
 37 40  1  0  0  0  0
 37 39  1  0  0  0  0
 38 37  1  0  0  0  0
M  END
