23
 OpenBabel05122313113D

 41 43  0  0  1  0  0  0  0  0999 V2000
   -1.5754    0.1854    1.3322 S   0  0  2  0  0  0  0  0  0  0  0  0
    2.1641   -2.7692    0.4974 O   0  0  0  0  0  0  0  0  0  0  0  0
    3.2705   -1.3800   -1.0345 O   0  0  0  0  0  0  0  0  0  0  0  0
   -1.8775    1.2959    2.3252 O   0  0  0  0  0  0  0  0  0  0  0  0
    3.3481   -3.3718    1.0325 C   0  0  0  0  0  0  0  0  0  0  0  0
    4.0397   -3.6528    0.2064 H   0  0  0  0  0  0  0  0  0  0  0  0
    3.0421   -4.2907    1.5690 H   0  0  0  0  0  0  0  0  0  0  0  0
    3.9733   -2.2901    1.9293 C   0  0  0  0  0  0  0  0  0  0  0  0
    5.0780   -2.3576    1.9501 H   0  0  0  0  0  0  0  0  0  0  0  0
    3.6118   -2.3929    2.9711 H   0  0  0  0  0  0  0  0  0  0  0  0
    3.4634   -0.9709    1.3047 C   0  0  0  0  0  0  0  0  0  0  0  0
    2.9141   -0.3576    2.0411 H   0  0  0  0  0  0  0  0  0  0  0  0
    4.2673   -0.3494    0.8697 H   0  0  0  0  0  0  0  0  0  0  0  0
    2.5102   -1.4240    0.1755 C   0  0  2  0  0  0  0  0  0  0  0  0
    1.2028   -0.6664    0.0391 C   0  0  0  0  0  3  0  0  0  0  0  0
    0.6967   -0.3801   -1.2766 C   0  0  2  0  0  3  0  0  0  0  0  0
    1.4080   -0.8771   -2.5212 C   0  0  0  0  0  0  0  0  0  0  0  0
    1.8065   -0.0190   -3.0997 H   0  0  0  0  0  0  0  0  0  0  0  0
    0.6662   -1.3840   -3.1745 H   0  0  0  0  0  0  0  0  0  0  0  0
    2.5223   -1.8576   -2.1494 C   0  0  0  0  0  0  0  0  0  0  0  0
    2.0904   -2.8529   -1.9026 H   0  0  0  0  0  0  0  0  0  0  0  0
    3.2406   -1.9839   -2.9820 H   0  0  0  0  0  0  0  0  0  0  0  0
   -0.4173    0.5040   -1.3662 C   0  0  0  0  0  3  0  0  0  0  0  0
   -0.9663    1.0803   -0.1630 C   0  0  0  0  0  3  0  0  0  0  0  0
   -3.1746   -0.2970    0.5866 C   0  0  0  0  0  0  0  0  0  0  0  0
   -4.3154    0.3926    1.0073 C   0  0  0  0  0  0  0  0  0  0  0  0
   -4.1946    1.2035    1.7435 H   0  0  0  0  0  0  0  0  0  0  0  0
   -5.5632    0.0253    0.4808 C   0  0  0  0  0  0  0  0  0  0  0  0
   -6.4680    0.5657    0.8018 H   0  0  0  0  0  0  0  0  0  0  0  0
   -5.6834   -1.0275   -0.4488 C   0  0  0  0  0  0  0  0  0  0  0  0
   -4.5104   -1.7112   -0.8434 C   0  0  0  0  0  0  0  0  0  0  0  0
   -4.5858   -2.5399   -1.5658 H   0  0  0  0  0  0  0  0  0  0  0  0
   -3.2575   -1.3582   -0.3285 C   0  0  0  0  0  0  0  0  0  0  0  0
   -2.3504   -1.9011   -0.6399 H   0  0  0  0  0  0  0  0  0  0  0  0
   -7.0261   -1.4354   -1.0002 C   0  0  0  0  0  0  0  0  0  0  0  0
   -7.0117   -1.4828   -2.1085 H   0  0  0  0  0  0  0  0  0  0  0  0
   -7.8236   -0.7299   -0.6978 H   0  0  0  0  0  0  0  0  0  0  0  0
   -7.3166   -2.4453   -0.6405 H   0  0  0  0  0  0  0  0  0  0  0  0
    0.4983   -0.8967    0.8523 H   0  0  0  0  0  0  0  0  0  0  0  0
   -0.7579    0.8390   -2.3603 H   0  0  0  0  0  0  0  0  0  0  0  0
   -1.6594    1.9326   -0.2811 H   0  0  0  0  0  0  0  0  0  0  0  0
  1  4  2  1  0  0  0
  2  5  1  0  0  0  0
  5  7  1  0  0  0  0
  5  8  1  0  0  0  0
  6  5  1  0  0  0  0
  8  9  1  0  0  0  0
  8 10  1  0  0  0  0
 11  8  1  0  0  0  0
 11 12  1  0  0  0  0
 13 11  1  0  0  0  0
 14  3  1  6  0  0  0
 14  2  1  0  0  0  0
 14 11  1  0  0  0  0
 15 14  1  0  0  0  0
 15 39  1  0  0  0  0
 16 23  1  6  0  0  0
 16 15  1  0  0  0  0
 17 20  1  0  0  0  0
 17 16  1  0  0  0  0
 18 17  1  0  0  0  0
 19 17  1  0  0  0  0
 20 21  1  0  0  0  0
 20  3  1  0  0  0  0
 22 20  1  0  0  0  0
 23 24  1  0  0  0  0
 24  1  1  0  0  0  0
 25 26  1  0  0  0  0
 25  1  1  0  0  0  0
 26 27  1  0  0  0  0
 28 29  1  0  0  0  0
 28 26  2  0  0  0  0
 30 28  1  0  0  0  0
 31 30  2  0  0  0  0
 31 33  1  0  0  0  0
 32 31  1  0  0  0  0
 33 25  2  0  0  0  0
 34 33  1  0  0  0  0
 35 37  1  0  0  0  0
 35 38  1  0  0  0  0
 35 30  1  0  0  0  0
 36 35  1  0  0  0  0
 40 23  1  0  0  0  0
 41 24  1  0  0  0  0
M  END
