5
 OpenBabel05122313113D

 22 21  0  0  0  0  0  0  0  0999 V2000
    4.3192    0.8384   -0.6076 Si  0  0  0  0  0  0  0  0  0  0  0  0
    0.8514    0.3916   -1.4359 C   0  0  0  0  0  3  0  0  0  0  0  0
    0.9298   -0.0801   -2.4328 H   0  0  0  0  0  0  0  0  0  0  0  0
    0.5895    1.4585   -1.4904 H   0  0  0  0  0  0  0  0  0  0  0  0
    1.6693   -0.0806   -0.3933 C   0  0  0  0  0  3  0  0  0  0  0  0
    2.8776   -0.1411    0.1831 C   0  0  0  0  0  0  0  0  0  0  0  0
    3.1916   -0.9449    1.4228 C   0  0  0  0  0  0  0  0  0  0  0  0
    2.3508   -1.5968    1.7306 H   0  0  0  0  0  0  0  0  0  0  0  0
    3.4519   -0.2840    2.2781 H   0  0  0  0  0  0  0  0  0  0  0  0
    4.0823   -1.5882    1.2609 H   0  0  0  0  0  0  0  0  0  0  0  0
    3.6920    1.9284   -2.0150 C   0  0  0  0  0  0  0  0  0  0  0  0
    3.2325    1.3314   -2.8280 H   0  0  0  0  0  0  0  0  0  0  0  0
    4.5394    2.4951   -2.4529 H   0  0  0  0  0  0  0  0  0  0  0  0
    2.9434    2.6650   -1.6595 H   0  0  0  0  0  0  0  0  0  0  0  0
    5.5951   -0.4022   -1.2473 C   0  0  0  0  0  0  0  0  0  0  0  0
    5.9720   -1.0592   -0.4372 H   0  0  0  0  0  0  0  0  0  0  0  0
    6.4693    0.1279   -1.6788 H   0  0  0  0  0  0  0  0  0  0  0  0
    5.1650   -1.0474   -2.0402 H   0  0  0  0  0  0  0  0  0  0  0  0
    5.0832    1.9098    0.7534 C   0  0  0  0  0  0  0  0  0  0  0  0
    4.3407    2.6200    1.1718 H   0  0  0  0  0  0  0  0  0  0  0  0
    5.9281    2.5045    0.3489 H   0  0  0  0  0  0  0  0  0  0  0  0
    5.4800    1.2940    1.5861 H   0  0  0  0  0  0  0  0  0  0  0  0
  1  6  1  0  0  0  0
  1 19  1  0  0  0  0
  2  5  1  0  0  0  0
  3  2  1  0  0  0  0
  4  2  1  0  0  0  0
  5  6  2  0  0  0  0
  6  7  1  0  0  0  0
  7  8  1  0  0  0  0
  7  9  1  0  0  0  0
 10  7  1  0  0  0  0
 11 14  1  0  0  0  0
 11  1  1  0  0  0  0
 12 11  1  0  0  0  0
 13 11  1  0  0  0  0
 15  1  1  0  0  0  0
 15 16  1  0  0  0  0
 17 15  1  0  0  0  0
 18 15  1  0  0  0  0
 19 20  1  0  0  0  0
 19 22  1  0  0  0  0
 21 19  1  0  0  0  0
M  END
