4
 OpenBabel05122313113D

 26 27  0  0  1  0  0  0  0  0999 V2000
   -0.4840    0.5156   -0.7247 C   0  0  1  0  0  3  0  0  0  0  0  0
    0.1440   -0.2667   -1.7571 C   0  0  0  0  0  3  0  0  0  0  0  0
   -0.3906   -1.0579   -2.3037 H   0  0  0  0  0  0  0  0  0  0  0  0
    1.5407   -0.0742   -1.9401 C   0  0  0  0  0  3  0  0  0  0  0  0
    2.1185   -0.6943   -2.6412 H   0  0  0  0  0  0  0  0  0  0  0  0
    2.1518    0.8718   -1.0498 C   0  0  0  0  0  3  0  0  0  0  0  0
    3.2540    0.9207   -1.0473 H   0  0  0  0  0  0  0  0  0  0  0  0
    1.4744    2.1765   -0.7193 C   0  0  2  0  0  0  0  0  0  0  0  0
    1.7081    2.9345   -1.5000 H   0  0  0  0  0  0  0  0  0  0  0  0
    1.9918    2.7295    0.4925 O   0  0  0  0  0  0  0  0  0  0  0  0
    2.2416    1.9666    1.0533 H   0  0  0  0  0  0  0  0  0  0  0  0
   -0.0821    2.0010   -0.6166 C   0  0  2  0  0  0  0  0  0  0  0  0
   -0.5581    2.4985   -1.4986 H   0  0  0  0  0  0  0  0  0  0  0  0
   -0.5568    2.6036    0.5555 O   0  0  0  0  0  0  0  0  0  0  0  0
    0.2626    2.9426    0.9922 H   0  0  0  0  0  0  0  0  0  0  0  0
   -1.8963    0.1916   -0.3530 C   0  0  0  0  0  0  0  0  0  0  0  0
   -2.3630    0.3486    0.9714 C   0  0  0  0  0  0  0  0  0  0  0  0
   -1.6710    0.7130    1.7402 H   0  0  0  0  0  0  0  0  0  0  0  0
   -3.6908    0.0507    1.3020 C   0  0  0  0  0  0  0  0  0  0  0  0
   -4.0302    0.1730    2.3418 H   0  0  0  0  0  0  0  0  0  0  0  0
   -4.5855   -0.4032    0.3192 C   0  0  0  0  0  0  0  0  0  0  0  0
   -5.6277   -0.6386    0.5832 H   0  0  0  0  0  0  0  0  0  0  0  0
   -4.1406   -0.5510   -1.0023 C   0  0  0  0  0  0  0  0  0  0  0  0
   -4.8334   -0.8951   -1.7853 H   0  0  0  0  0  0  0  0  0  0  0  0
   -2.8100   -0.2553   -1.3336 C   0  0  0  0  0  0  0  0  0  0  0  0
   -2.4834   -0.3557   -2.3800 H   0  0  0  0  0  0  0  0  0  0  0  0
  1 12  1  0  0  0  0
  1 16  1  6  0  0  0
  2  1  1  0  0  0  0
  3  2  1  0  0  0  0
  4  2  1  0  0  0  0
  4  6  1  0  0  0  0
  5  4  1  0  0  0  0
  6  7  1  0  0  0  0
  6  8  1  0  0  0  0
  8  9  1  6  0  0  0
  8 12  1  0  0  0  0
  8 10  1  0  0  0  0
 10 11  1  0  0  0  0
 12 13  1  6  0  0  0
 12 14  1  0  0  0  0
 14 15  1  0  0  0  0
 16 17  1  0  0  0  0
 17 19  2  0  0  0  0
 17 18  1  0  0  0  0
 19 20  1  0  0  0  0
 21 22  1  0  0  0  0
 21 19  1  0  0  0  0
 23 21  2  0  0  0  0
 24 23  1  0  0  0  0
 25 23  1  0  0  0  0
 25 16  2  0  0  0  0
 26 25  1  0  0  0  0
M  END
