8
 OpenBabel05122313113D

 15 15  0  0  1  0  0  0  0  0999 V2000
    2.0774   -2.3589    0.5613 C   0  0  0  0  0  0  0  0  0  0  0  0
    1.5955   -3.1766    1.1119 H   0  0  0  0  0  0  0  0  0  0  0  0
    2.9626   -1.0826   -1.1453 C   0  0  0  0  0  0  0  0  0  0  0  0
    3.3075   -0.7524   -2.1318 H   0  0  0  0  0  0  0  0  0  0  0  0
    2.2235   -0.6522    2.4990 C   0  0  0  0  0  0  0  0  0  0  0  0
    2.9922   -0.0203    2.9830 H   0  0  0  0  0  0  0  0  0  0  0  0
    1.9578   -1.4715    3.1929 H   0  0  0  0  0  0  0  0  0  0  0  0
    1.0060    0.1223    1.9689 C   0  0  0  0  0  3  0  0  0  0  0  0
    1.1984    1.2087    1.9303 H   0  0  0  0  0  0  0  0  0  0  0  0
    0.0620   -0.0959    2.4976 H   0  0  0  0  0  0  0  0  0  0  0  0
    2.6640   -1.1978    1.1664 C   0  0  2  0  0  3  0  0  0  0  0  0
    2.2511   -2.2926   -0.8705 C   0  0  0  0  0  0  0  0  0  0  0  0
    1.9594   -3.0640   -1.5923 H   0  0  0  0  0  0  0  0  0  0  0  0
    3.2108   -0.4070    0.1030 C   0  0  0  0  0  0  0  0  0  0  0  0
    3.7010    0.5670    0.2281 H   0  0  0  0  0  0  0  0  0  0  0  0
  1  2  1  0  0  0  0
  1 11  1  0  0  0  0
  3 12  1  0  0  0  0
  3 14  2  0  0  0  0
  4  3  1  0  0  0  0
  5  6  1  0  0  0  0
  5  7  1  0  0  0  0
  8 10  1  0  0  0  0
  8  5  1  0  0  0  0
  9  8  1  0  0  0  0
 11  5  1  6  0  0  0
 12  1  2  0  0  0  0
 13 12  1  0  0  0  0
 14 15  1  0  0  0  0
 14 11  1  0  0  0  0
M  END
