1
 OpenBabel05122313113D

 17 18  0  0  1  0  0  0  0  0999 V2000
   -0.7091   -2.1254   -0.8681 C   0  0  0  0  0  3  0  0  0  0  0  0
   -1.2988   -2.0954   -1.7986 H   0  0  0  0  0  0  0  0  0  0  0  0
    0.7091   -2.1255   -0.8680 C   0  0  0  0  0  3  0  0  0  0  0  0
    1.2988   -2.0954   -1.7985 H   0  0  0  0  0  0  0  0  0  0  0  0
    1.1318   -3.0261    0.2944 C   0  0  2  0  0  0  0  0  0  0  0  0
    2.1659   -2.9046    0.6567 H   0  0  0  0  0  0  0  0  0  0  0  0
    0.7796   -4.4678   -0.1905 C   0  0  0  0  0  0  0  0  0  0  0  0
    1.2161   -4.6894   -1.1848 H   0  0  0  0  0  0  0  0  0  0  0  0
    1.1858   -5.2159    0.5198 H   0  0  0  0  0  0  0  0  0  0  0  0
   -0.7797   -4.4677   -0.1905 C   0  0  0  0  0  0  0  0  0  0  0  0
   -1.1860   -5.2159    0.5198 H   0  0  0  0  0  0  0  0  0  0  0  0
   -1.2161   -4.6894   -1.1849 H   0  0  0  0  0  0  0  0  0  0  0  0
   -1.1319   -3.0260    0.2944 C   0  0  1  0  0  0  0  0  0  0  0  0
   -2.1660   -2.9046    0.6567 H   0  0  0  0  0  0  0  0  0  0  0  0
   -0.0001   -2.7754    1.3085 C   0  0  0  0  0  0  0  0  0  0  0  0
   -0.0000   -1.7410    1.7041 H   0  0  0  0  0  0  0  0  0  0  0  0
   -0.0001   -3.5023    2.1456 H   0  0  0  0  0  0  0  0  0  0  0  0
  1  3  1  0  0  0  0
  1 13  1  0  0  0  0
  2  1  1  0  0  0  0
  3  5  1  0  0  0  0
  4  3  1  0  0  0  0
  5  6  1  1  0  0  0
  5 15  1  0  0  0  0
  7  5  1  0  0  0  0
  7  9  1  0  0  0  0
  8  7  1  0  0  0  0
 10  7  1  0  0  0  0
 10 13  1  0  0  0  0
 10 11  1  0  0  0  0
 12 10  1  0  0  0  0
 13 14  1  1  0  0  0
 13 15  1  0  0  0  0
 15 16  1  0  0  0  0
 15 17  1  0  0  0  0
M  END
