1
 OpenBabel05122313113D

 36 37  0  0  0  0  0  0  0  0999 V2000
   -0.6949    2.1357   -0.5012 C   0  0  0  0  0  2  0  0  0  0  0  0
   -1.8957    2.5240   -0.9618 N   0  0  0  0  0  0  0  0  0  0  0  0
   -2.9849    1.5569   -1.1742 C   0  0  0  0  0  0  0  0  0  0  0  0
   -2.5665    0.5360   -1.0712 H   0  0  0  0  0  0  0  0  0  0  0  0
   -3.3517    1.6760   -2.2179 H   0  0  0  0  0  0  0  0  0  0  0  0
   -4.1209    1.7985   -0.1754 C   0  0  0  0  0  0  0  0  0  0  0  0
   -3.7494    1.5528    0.8433 H   0  0  0  0  0  0  0  0  0  0  0  0
   -4.9444    1.0883   -0.3903 H   0  0  0  0  0  0  0  0  0  0  0  0
   -4.6144    3.2497   -0.2302 C   0  0  0  0  0  0  0  0  0  0  0  0
   -5.1228    3.4283   -1.2037 H   0  0  0  0  0  0  0  0  0  0  0  0
   -5.3740    3.4348    0.5559 H   0  0  0  0  0  0  0  0  0  0  0  0
   -3.4472    4.2357   -0.0884 C   0  0  0  0  0  0  0  0  0  0  0  0
   -3.7887    5.2810   -0.2321 H   0  0  0  0  0  0  0  0  0  0  0  0
   -3.0146    4.1730    0.9340 H   0  0  0  0  0  0  0  0  0  0  0  0
   -2.3474    3.9165   -1.1091 C   0  0  0  0  0  0  0  0  0  0  0  0
   -2.7406    4.0319   -2.1430 H   0  0  0  0  0  0  0  0  0  0  0  0
   -1.4982    4.6212   -1.0277 H   0  0  0  0  0  0  0  0  0  0  0  0
    0.2330    3.0605   -0.1965 N   0  0  0  0  0  0  0  0  0  0  0  0
    0.0292    4.0630   -0.2896 H   0  0  0  0  0  0  0  0  0  0  0  0
    1.5222    2.7224    0.3503 C   0  0  0  0  0  0  0  0  0  0  0  0
    2.6131    2.5387   -0.5309 C   0  0  0  0  0  0  0  0  0  0  0  0
    3.8721    2.2700    0.0353 C   0  0  0  0  0  0  0  0  0  0  0  0
    4.7369    2.1280   -0.6294 H   0  0  0  0  0  0  0  0  0  0  0  0
    4.0308    2.1781    1.4239 C   0  0  0  0  0  0  0  0  0  0  0  0
    5.0255    1.9751    1.8480 H   0  0  0  0  0  0  0  0  0  0  0  0
    2.9308    2.3412    2.2759 C   0  0  0  0  0  0  0  0  0  0  0  0
    3.0594    2.2629    3.3663 H   0  0  0  0  0  0  0  0  0  0  0  0
    1.6532    2.6208    1.7551 C   0  0  0  0  0  0  0  0  0  0  0  0
    2.4194    2.5965   -2.0227 C   0  0  0  0  0  0  0  0  0  0  0  0
    1.9327    3.5394   -2.3457 H   0  0  0  0  0  0  0  0  0  0  0  0
    1.7640    1.7675   -2.3665 H   0  0  0  0  0  0  0  0  0  0  0  0
    3.3854    2.5083   -2.5535 H   0  0  0  0  0  0  0  0  0  0  0  0
    0.4563    2.7839    2.6554 C   0  0  0  0  0  0  0  0  0  0  0  0
   -0.0763    3.7400    2.4725 H   0  0  0  0  0  0  0  0  0  0  0  0
    0.7512    2.7568    3.7209 H   0  0  0  0  0  0  0  0  0  0  0  0
   -0.2840    1.9725    2.4833 H   0  0  0  0  0  0  0  0  0  0  0  0
  1 18  1  0  0  0  0
  2  1  1  0  0  0  0
  3  4  1  0  0  0  0
  3  2  1  0  0  0  0
  3  6  1  0  0  0  0
  5  3  1  0  0  0  0
  6  7  1  0  0  0  0
  8  6  1  0  0  0  0
  9  6  1  0  0  0  0
  9 12  1  0  0  0  0
  9 11  1  0  0  0  0
 10  9  1  0  0  0  0
 12 14  1  0  0  0  0
 13 12  1  0  0  0  0
 15 17  1  0  0  0  0
 15  2  1  0  0  0  0
 15 12  1  0  0  0  0
 16 15  1  0  0  0  0
 18 20  1  0  0  0  0
 19 18  1  0  0  0  0
 20 28  1  0  0  0  0
 21 22  1  0  0  0  0
 21 20  2  0  0  0  0
 22 24  2  0  0  0  0
 23 22  1  0  0  0  0
 24 25  1  0  0  0  0
 24 26  1  0  0  0  0
 26 27  1  0  0  0  0
 28 26  2  0  0  0  0
 28 33  1  0  0  0  0
 29 21  1  0  0  0  0
 30 29  1  0  0  0  0
 31 29  1  0  0  0  0
 32 29  1  0  0  0  0
 33 35  1  0  0  0  0
 34 33  1  0  0  0  0
 36 33  1  0  0  0  0
M  END
