3
 OpenBabel05122313113D

 54 58  0  0  1  0  0  0  0  0999 V2000
    1.6949   -1.8191   -0.4494 N   0  0  2  0  0  0  0  0  0  0  0  0
   -0.4186   -2.4588   -0.3881 N   0  0  0  0  0  0  0  0  0  0  0  0
    0.4000   -1.3613   -0.2771 C   0  0  0  0  0  2  0  0  0  0  0  0
    1.7536   -3.2862   -0.5180 C   0  0  0  0  0  0  0  0  0  0  0  0
    0.2996   -3.6799   -0.7574 C   0  0  0  0  0  0  0  0  0  0  0  0
    2.9399   -1.1051   -0.0934 C   0  0  2  0  0  0  0  0  0  0  0  0
    4.1216   -1.6623   -0.9271 C   0  0  0  0  0  0  0  0  0  0  0  0
    5.4300   -0.9336   -0.5634 C   0  0  2  0  0  0  0  0  0  0  0  0
    5.7279   -1.1321    0.9360 C   0  0  0  0  0  0  0  0  0  0  0  0
    4.5681   -0.5582    1.7717 C   0  0  2  0  0  0  0  0  0  0  0  0
    3.2614   -1.2906    1.4130 C   0  0  0  0  0  0  0  0  0  0  0  0
    4.4057    0.9440    1.4711 C   0  0  0  0  0  0  0  0  0  0  0  0
    4.1254    1.1344   -0.0314 C   0  0  2  0  0  0  0  0  0  0  0  0
    2.8268    0.3950   -0.4090 C   0  0  0  0  0  0  0  0  0  0  0  0
    5.2874    0.5676   -0.8643 C   0  0  0  0  0  0  0  0  0  0  0  0
   -1.8288   -2.5435   -0.1988 C   0  0  0  0  0  0  0  0  0  0  0  0
   -2.6933   -2.4762   -1.3162 C   0  0  0  0  0  0  0  0  0  0  0  0
   -4.0777   -2.5604   -1.0814 C   0  0  0  0  0  0  0  0  0  0  0  0
   -4.6067   -2.7092    0.2151 C   0  0  0  0  0  0  0  0  0  0  0  0
   -3.7115   -2.7775    1.3002 C   0  0  0  0  0  0  0  0  0  0  0  0
   -2.3192   -2.7008    1.1194 C   0  0  0  0  0  0  0  0  0  0  0  0
   -2.1461   -2.2245   -2.6958 C   0  0  0  0  0  0  0  0  0  0  0  0
   -6.0954   -2.8174    0.4340 C   0  0  0  0  0  0  0  0  0  0  0  0
   -1.3725   -2.6952    2.2896 C   0  0  0  0  0  0  0  0  0  0  0  0
    2.1480   -3.7069    0.4351 H   0  0  0  0  0  0  0  0  0  0  0  0
    2.4143   -3.6266   -1.3371 H   0  0  0  0  0  0  0  0  0  0  0  0
    0.1042   -3.9389   -1.8224 H   0  0  0  0  0  0  0  0  0  0  0  0
   -0.0326   -4.5350   -0.1350 H   0  0  0  0  0  0  0  0  0  0  0  0
    4.2551   -2.7454   -0.7280 H   0  0  0  0  0  0  0  0  0  0  0  0
    3.8926   -1.5468   -2.0083 H   0  0  0  0  0  0  0  0  0  0  0  0
    6.2558   -1.3625   -1.1698 H   0  0  0  0  0  0  0  0  0  0  0  0
    6.6814   -0.6275    1.2023 H   0  0  0  0  0  0  0  0  0  0  0  0
    5.8616   -2.2130    1.1591 H   0  0  0  0  0  0  0  0  0  0  0  0
    4.7770   -0.7013    2.8530 H   0  0  0  0  0  0  0  0  0  0  0  0
    2.4109   -0.8948    2.0047 H   0  0  0  0  0  0  0  0  0  0  0  0
    3.3648   -2.3732    1.6420 H   0  0  0  0  0  0  0  0  0  0  0  0
    3.5669    1.3581    2.0688 H   0  0  0  0  0  0  0  0  0  0  0  0
    5.3263    1.4954    1.7593 H   0  0  0  0  0  0  0  0  0  0  0  0
    3.9965    2.2131   -0.2562 H   0  0  0  0  0  0  0  0  0  0  0  0
    2.0206    0.8598    0.2148 H   0  0  0  0  0  0  0  0  0  0  0  0
    2.5719    0.5381   -1.4769 H   0  0  0  0  0  0  0  0  0  0  0  0
    5.0954    0.7267   -1.9470 H   0  0  0  0  0  0  0  0  0  0  0  0
    6.2310    1.1001   -0.6179 H   0  0  0  0  0  0  0  0  0  0  0  0
   -4.7650   -2.4867   -1.9398 H   0  0  0  0  0  0  0  0  0  0  0  0
   -4.1086   -2.8810    2.3230 H   0  0  0  0  0  0  0  0  0  0  0  0
   -2.9641   -2.1013   -3.4304 H   0  0  0  0  0  0  0  0  0  0  0  0
   -1.5057   -3.0610   -3.0470 H   0  0  0  0  0  0  0  0  0  0  0  0
   -1.5155   -1.3091   -2.7127 H   0  0  0  0  0  0  0  0  0  0  0  0
   -6.3924   -2.4248    1.4265 H   0  0  0  0  0  0  0  0  0  0  0  0
   -6.4275   -3.8773    0.3904 H   0  0  0  0  0  0  0  0  0  0  0  0
   -6.6635   -2.2671   -0.3419 H   0  0  0  0  0  0  0  0  0  0  0  0
   -1.8998   -2.9385    3.2313 H   0  0  0  0  0  0  0  0  0  0  0  0
   -0.8905   -1.6991    2.4047 H   0  0  0  0  0  0  0  0  0  0  0  0
   -0.5479   -3.4255    2.1547 H   0  0  0  0  0  0  0  0  0  0  0  0
  1  3  1  1  0  0  0
  1  6  1  0  0  0  0
  2  3  1  0  0  0  0
  2 16  1  0  0  0  0
  4  1  1  0  0  0  0
  4 25  1  0  0  0  0
  5  4  1  0  0  0  0
  5  2  1  0  0  0  0
  5 28  1  0  0  0  0
  6  7  1  6  0  0  0
  6 11  1  0  0  0  0
  7 29  1  0  0  0  0
  7  8  1  0  0  0  0
  8 31  1  6  0  0  0
  8  9  1  0  0  0  0
  9 33  1  0  0  0  0
  9 32  1  0  0  0  0
  9 10  1  0  0  0  0
 10 34  1  1  0  0  0
 11 36  1  0  0  0  0
 11 10  1  0  0  0  0
 11 35  1  0  0  0  0
 12 38  1  0  0  0  0
 12 10  1  0  0  0  0
 12 37  1  0  0  0  0
 13 39  1  6  0  0  0
 13 12  1  0  0  0  0
 14  6  1  0  0  0  0
 14 13  1  0  0  0  0
 14 40  1  0  0  0  0
 15 43  1  0  0  0  0
 15  8  1  0  0  0  0
 15 13  1  0  0  0  0
 16 21  1  0  0  0  0
 17 18  1  0  0  0  0
 17 16  2  0  0  0  0
 18 19  2  0  0  0  0
 19 23  1  0  0  0  0
 19 20  1  0  0  0  0
 20 45  1  0  0  0  0
 21 20  2  0  0  0  0
 21 24  1  0  0  0  0
 22 17  1  0  0  0  0
 23 49  1  0  0  0  0
 24 53  1  0  0  0  0
 24 52  1  0  0  0  0
 26  4  1  0  0  0  0
 27  5  1  0  0  0  0
 30  7  1  0  0  0  0
 41 14  1  0  0  0  0
 42 15  1  0  0  0  0
 44 18  1  0  0  0  0
 46 22  1  0  0  0  0
 47 22  1  0  0  0  0
 48 22  1  0  0  0  0
 50 23  1  0  0  0  0
 51 23  1  0  0  0  0
 54 24  1  0  0  0  0
M  END
