1
 OpenBabel05122313113D

 12 12  0  0  0  0  0  0  0  0999 V2000
   -4.3778   -1.0828    0.0959 C   0  0  0  0  0  3  0  0  0  0  0  0
   -4.3575   -0.3587   -1.1324 C   0  0  0  0  0  3  0  0  0  0  0  0
   -5.0063    0.8981   -1.2144 C   0  0  0  0  0  0  0  0  0  0  0  0
   -4.9855    1.4562   -2.1608 H   0  0  0  0  0  0  0  0  0  0  0  0
   -5.6641    1.4238   -0.0992 C   0  0  0  0  0  0  0  0  0  0  0  0
   -6.1612    2.4028   -0.1686 H   0  0  0  0  0  0  0  0  0  0  0  0
   -5.6824    0.7108    1.1168 C   0  0  0  0  0  0  0  0  0  0  0  0
   -6.1994    1.1321    1.9921 H   0  0  0  0  0  0  0  0  0  0  0  0
   -5.0453   -0.5293    1.2188 C   0  0  0  0  0  0  0  0  0  0  0  0
   -5.0609   -1.0885    2.1639 H   0  0  0  0  0  0  0  0  0  0  0  0
   -4.0112   -2.1200    0.1263 H   0  0  0  0  0  0  0  0  0  0  0  0
   -3.9616   -0.8322   -2.0431 H   0  0  0  0  0  0  0  0  0  0  0  0
  1 11  1  0  0  0  0
  1  9  1  0  0  0  0
  2  1  1  0  0  0  0
  3  2  1  0  0  0  0
  3  5  2  0  0  0  0
  4  3  1  0  0  0  0
  5  7  1  0  0  0  0
  6  5  1  0  0  0  0
  7  9  2  0  0  0  0
  7  8  1  0  0  0  0
  9 10  1  0  0  0  0
 12  2  1  0  0  0  0
M  END
