1
 OpenBabel05122313113D

 35 36  0  0  0  0  0  0  0  0999 V2000
    0.6165    1.1482    0.0211 C   0  0  0  0  0  2  0  0  0  0  0  0
   -0.5909    1.7624    0.1628 N   0  0  0  0  0  0  0  0  0  0  0  0
   -0.4348    3.1204    0.4284 C   0  0  0  0  0  0  0  0  0  0  0  0
    0.9129    3.3712    0.4580 C   0  0  0  0  0  0  0  0  0  0  0  0
    1.5360    2.1527    0.2055 N   0  0  0  0  0  0  0  0  0  0  0  0
    2.9626    1.9209    0.1133 C   0  0  0  0  0  0  0  0  0  0  0  0
    3.2985    0.1450    0.5505 S   0  0  0  0  0  0  0  0  0  0  0  0
    4.6117   -0.2377   -0.6560 C   0  0  0  0  0  0  0  0  0  0  0  0
    4.2631   -0.0756   -1.6928 H   0  0  0  0  0  0  0  0  0  0  0  0
    4.8521   -1.3069   -0.5063 H   0  0  0  0  0  0  0  0  0  0  0  0
    5.5095    0.3696   -0.4333 H   0  0  0  0  0  0  0  0  0  0  0  0
   -1.8544    1.0707    0.1072 C   0  0  0  0  0  0  0  0  0  0  0  0
   -2.5665    1.0588   -1.1108 C   0  0  0  0  0  0  0  0  0  0  0  0
   -3.7713    0.3349   -1.1471 C   0  0  0  0  0  0  0  0  0  0  0  0
   -4.2613   -0.3579   -0.0223 C   0  0  0  0  0  0  0  0  0  0  0  0
   -3.5081   -0.3186    1.1682 C   0  0  0  0  0  0  0  0  0  0  0  0
   -2.2988    0.3927    1.2627 C   0  0  0  0  0  0  0  0  0  0  0  0
   -2.0318    1.7607   -2.3317 C   0  0  0  0  0  0  0  0  0  0  0  0
   -1.9267    2.8534   -2.1693 H   0  0  0  0  0  0  0  0  0  0  0  0
   -2.6998    1.6132   -3.2000 H   0  0  0  0  0  0  0  0  0  0  0  0
   -1.0245    1.3809   -2.6041 H   0  0  0  0  0  0  0  0  0  0  0  0
   -5.5728   -1.0955   -0.0825 C   0  0  0  0  0  0  0  0  0  0  0  0
   -6.4139   -0.4130    0.1650 H   0  0  0  0  0  0  0  0  0  0  0  0
   -5.6081   -1.9315    0.6423 H   0  0  0  0  0  0  0  0  0  0  0  0
   -5.7703   -1.4990   -1.0945 H   0  0  0  0  0  0  0  0  0  0  0  0
   -1.4870    0.3991    2.5317 C   0  0  0  0  0  0  0  0  0  0  0  0
   -2.0327   -0.0952    3.3564 H   0  0  0  0  0  0  0  0  0  0  0  0
   -1.2362    1.4294    2.8572 H   0  0  0  0  0  0  0  0  0  0  0  0
   -0.5214   -0.1334    2.3905 H   0  0  0  0  0  0  0  0  0  0  0  0
   -1.2924    3.7823    0.5826 H   0  0  0  0  0  0  0  0  0  0  0  0
    1.4659    4.2999    0.6284 H   0  0  0  0  0  0  0  0  0  0  0  0
    3.3358    2.0916   -0.9175 H   0  0  0  0  0  0  0  0  0  0  0  0
    3.5004    2.5845    0.8179 H   0  0  0  0  0  0  0  0  0  0  0  0
   -4.3421    0.3069   -2.0885 H   0  0  0  0  0  0  0  0  0  0  0  0
   -3.8756   -0.8564    2.0565 H   0  0  0  0  0  0  0  0  0  0  0  0
  1  2  1  0  0  0  0
  1  5  1  0  0  0  0
  2  3  1  0  0  0  0
  3  4  2  0  0  0  0
  3 30  1  0  0  0  0
  4 31  1  0  0  0  0
  5  4  1  0  0  0  0
  6  5  1  0  0  0  0
  6  7  1  0  0  0  0
  6 33  1  0  0  0  0
  8 10  1  0  0  0  0
  8 11  1  0  0  0  0
  8  7  1  0  0  0  0
  9  8  1  0  0  0  0
 12  2  1  0  0  0  0
 12 17  1  0  0  0  0
 13 12  2  0  0  0  0
 14 13  1  0  0  0  0
 14 15  2  0  0  0  0
 15 16  1  0  0  0  0
 16 17  2  0  0  0  0
 16 35  1  0  0  0  0
 17 26  1  0  0  0  0
 18 19  1  0  0  0  0
 18 13  1  0  0  0  0
 20 18  1  0  0  0  0
 21 18  1  0  0  0  0
 22 15  1  0  0  0  0
 22 23  1  0  0  0  0
 22 24  1  0  0  0  0
 25 22  1  0  0  0  0
 26 28  1  0  0  0  0
 26 27  1  0  0  0  0
 29 26  1  0  0  0  0
 32  6  1  0  0  0  0
 34 14  1  0  0  0  0
M  END
