34
 OpenBabel05122313113D

 35 37  0  0  0  0  0  0  0  0999 V2000
    9.1474   -3.5328    1.7026 C   0  0  0  0  0  0  0  0  0  0  0  0
    9.5899   -2.7757    2.3827 H   0  0  0  0  0  0  0  0  0  0  0  0
    9.9131   -4.3145    1.5280 H   0  0  0  0  0  0  0  0  0  0  0  0
    8.3015   -4.0066    2.2424 H   0  0  0  0  0  0  0  0  0  0  0  0
    8.6830   -2.8972    0.3919 C   0  0  0  0  0  0  0  0  0  0  0  0
    8.2783   -3.6837   -0.2837 H   0  0  0  0  0  0  0  0  0  0  0  0
    9.5561   -2.4631   -0.1447 H   0  0  0  0  0  0  0  0  0  0  0  0
    7.6238   -1.8103    0.5922 C   0  0  0  0  0  0  0  0  0  0  0  0
    8.0203   -1.0104    1.2549 H   0  0  0  0  0  0  0  0  0  0  0  0
    6.7394   -2.2332    1.1173 H   0  0  0  0  0  0  0  0  0  0  0  0
    7.1637   -1.1788   -0.7270 C   0  0  0  0  0  0  0  0  0  0  0  0
    8.0267   -0.7372   -1.2677 H   0  0  0  0  0  0  0  0  0  0  0  0
    6.7439   -1.9525   -1.4032 H   0  0  0  0  0  0  0  0  0  0  0  0
    6.4362    1.2052   -0.2954 C   0  0  0  0  0  0  0  0  0  0  0  0
    7.6750    1.8634   -0.2198 C   0  0  0  0  0  0  0  0  0  0  0  0
    8.6236    1.3253   -0.3580 H   0  0  0  0  0  0  0  0  0  0  0  0
    7.6626    3.2397    0.0450 C   0  0  0  0  0  0  0  0  0  0  0  0
    8.6187    3.7806    0.1097 H   0  0  0  0  0  0  0  0  0  0  0  0
    6.4527    3.9457    0.2334 C   0  0  0  0  0  0  0  0  0  0  0  0
    6.4830    5.0254    0.4403 H   0  0  0  0  0  0  0  0  0  0  0  0
    5.2202    3.2854    0.1627 C   0  0  0  0  0  0  0  0  0  0  0  0
    4.2797    3.8367    0.3122 H   0  0  0  0  0  0  0  0  0  0  0  0
    5.2034    1.9036   -0.1009 C   0  0  0  0  0  0  0  0  0  0  0  0
    4.1497    0.9166   -0.2354 C   0  0  0  0  0  0  0  0  0  0  0  0
    4.7958   -0.3378   -0.5057 C   0  0  0  0  0  0  0  0  0  0  0  0
    4.0567   -1.5235   -0.6793 C   0  0  0  0  0  0  0  0  0  0  0  0
    4.5490   -2.4865   -0.8739 H   0  0  0  0  0  0  0  0  0  0  0  0
    2.6658   -1.4535   -0.5933 C   0  0  0  0  0  0  0  0  0  0  0  0
    2.0513   -2.3550   -0.7228 H   0  0  0  0  0  0  0  0  0  0  0  0
    2.0198   -0.2139   -0.3328 C   0  0  0  0  0  0  0  0  0  0  0  0
    2.7540    0.9766   -0.1517 C   0  0  0  0  0  0  0  0  0  0  0  0
    2.2275    1.9195    0.0517 H   0  0  0  0  0  0  0  0  0  0  0  0
    0.6458   -0.1805   -0.2530 N   0  0  0  0  0  2  0  0  0  0  0  0
   -0.5351   -0.1558   -0.1853 C   0  0  0  0  0  1  0  0  0  0  0  0
    6.1640   -0.1395   -0.5548 N   0  0  0  0  0  0  0  0  0  0  0  0
  1  4  1  0  0  0  0
  1  2  1  0  0  0  0
  3  1  1  0  0  0  0
  5  8  1  0  0  0  0
  5  1  1  0  0  0  0
  6  5  1  0  0  0  0
  7  5  1  0  0  0  0
  8 10  1  0  0  0  0
  8  9  1  0  0  0  0
 11 35  1  0  0  0  0
 11  8  1  0  0  0  0
 12 11  1  0  0  0  0
 13 11  1  0  0  0  0
 14 15  2  0  0  0  0
 14 23  1  0  0  0  0
 15 17  1  0  0  0  0
 16 15  1  0  0  0  0
 17 18  1  0  0  0  0
 17 19  2  0  0  0  0
 19 20  1  0  0  0  0
 21 19  1  0  0  0  0
 21 22  1  0  0  0  0
 23 21  2  0  0  0  0
 24 31  1  0  0  0  0
 24 23  1  0  0  0  0
 25 24  2  0  0  0  0
 26 28  2  0  0  0  0
 26 25  1  0  0  0  0
 27 26  1  0  0  0  0
 28 30  1  0  0  0  0
 29 28  1  0  0  0  0
 30 33  1  0  0  0  0
 30 31  2  0  0  0  0
 31 32  1  0  0  0  0
 33 34  1  0  0  0  0
 35 25  1  0  0  0  0
 35 14  1  0  0  0  0
M  END
