9
 OpenBabel05122313113D

 46 48  0  0  1  0  0  0  0  0999 V2000
    0.8091    0.1396    0.4491 P   0  0  0  0  0  0  0  0  0  0  0  0
   -0.6316    1.3477    2.5075 N   0  0  0  0  0  0  0  0  0  0  0  0
   -1.7621    0.4517    2.7637 C   0  0  0  0  0  0  0  0  0  0  0  0
   -3.0177    0.7854    1.9394 C   0  0  0  0  0  0  0  0  0  0  0  0
   -2.8450    0.6314    0.4504 C   0  0  2  0  0  3  0  0  0  0  0  0
   -2.0738    1.4859   -0.4188 C   0  0  0  0  0  0  0  0  0  0  0  0
   -2.2120    1.0378   -1.7688 C   0  0  0  0  0  0  0  0  0  0  0  0
   -3.0512   -0.1367   -1.7563 C   0  0  0  0  0  3  0  0  0  0  0  0
   -3.4363   -0.3810   -0.3949 C   0  0  0  0  0  3  0  0  0  0  0  0
    0.6321    0.6849    2.2501 C   0  0  0  0  0  0  0  0  0  0  0  0
   -0.5683    2.4592    3.4385 C   0  0  0  0  0  0  0  0  0  0  0  0
    2.3498   -0.8700    0.5642 C   0  0  0  0  0  0  0  0  0  0  0  0
    2.3018   -2.2666    0.3960 C   0  0  0  0  0  0  0  0  0  0  0  0
    3.4692   -3.0338    0.5346 C   0  0  0  0  0  0  0  0  0  0  0  0
    4.6898   -2.4133    0.8405 C   0  0  0  0  0  0  0  0  0  0  0  0
    4.7443   -1.0192    1.0068 C   0  0  0  0  0  0  0  0  0  0  0  0
    3.5809   -0.2496    0.8682 C   0  0  0  0  0  0  0  0  0  0  0  0
    1.4170    1.6500   -0.4265 C   0  0  0  0  0  0  0  0  0  0  0  0
    1.9755    1.4786   -1.7122 C   0  0  0  0  0  0  0  0  0  0  0  0
    2.4003    2.5886   -2.4538 C   0  0  0  0  0  0  0  0  0  0  0  0
    2.2607    3.8858   -1.9301 C   0  0  0  0  0  0  0  0  0  0  0  0
    1.6951    4.0643   -0.6595 C   0  0  0  0  0  0  0  0  0  0  0  0
    1.2766    2.9523    0.0913 C   0  0  0  0  0  0  0  0  0  0  0  0
   -1.4607   -0.5839    2.5116 H   0  0  0  0  0  0  0  0  0  0  0  0
   -2.0203    0.4585    3.8526 H   0  0  0  0  0  0  0  0  0  0  0  0
   -3.3415    1.8248    2.1660 H   0  0  0  0  0  0  0  0  0  0  0  0
   -3.8406    0.1234    2.2805 H   0  0  0  0  0  0  0  0  0  0  0  0
   -1.4898    2.3520   -0.0879 H   0  0  0  0  0  0  0  0  0  0  0  0
   -1.7543    1.5009   -2.6504 H   0  0  0  0  0  0  0  0  0  0  0  0
   -3.3717   -0.7128   -2.6316 H   0  0  0  0  0  0  0  0  0  0  0  0
   -4.0957   -1.1873   -0.0500 H   0  0  0  0  0  0  0  0  0  0  0  0
    1.4766    1.3668    2.4783 H   0  0  0  0  0  0  0  0  0  0  0  0
    0.7956   -0.2385    2.8598 H   0  0  0  0  0  0  0  0  0  0  0  0
    0.2030    3.1927    3.1252 H   0  0  0  0  0  0  0  0  0  0  0  0
   -0.3393    2.1504    4.4923 H   0  0  0  0  0  0  0  0  0  0  0  0
   -1.5401    2.9945    3.4520 H   0  0  0  0  0  0  0  0  0  0  0  0
    1.3465   -2.7502    0.1493 H   0  0  0  0  0  0  0  0  0  0  0  0
    3.4219   -4.1245    0.3962 H   0  0  0  0  0  0  0  0  0  0  0  0
    5.6048   -3.0163    0.9440 H   0  0  0  0  0  0  0  0  0  0  0  0
    5.7013   -0.5273    1.2393 H   0  0  0  0  0  0  0  0  0  0  0  0
    3.6328    0.8452    0.9786 H   0  0  0  0  0  0  0  0  0  0  0  0
    2.0732    0.4660   -2.1342 H   0  0  0  0  0  0  0  0  0  0  0  0
    2.8413    2.4402   -3.4513 H   0  0  0  0  0  0  0  0  0  0  0  0
    2.5907    4.7572   -2.5158 H   0  0  0  0  0  0  0  0  0  0  0  0
    1.5769    5.0770   -0.2443 H   0  0  0  0  0  0  0  0  0  0  0  0
    0.8226    3.1085    1.0796 H   0  0  0  0  0  0  0  0  0  0  0  0
  1 12  1  0  0  0  0
  1 10  1  0  0  0  0
  2  3  1  0  0  0  0
  2 11  1  0  0  0  0
  3 25  1  0  0  0  0
  4 26  1  0  0  0  0
  4 27  1  0  0  0  0
  4  3  1  0  0  0  0
  5  4  1  6  0  0  0
  6 28  1  0  0  0  0
  6  5  1  0  0  0  0
  7  8  1  0  0  0  0
  7  6  2  0  0  0  0
  8  9  1  0  0  0  0
  9 31  1  0  0  0  0
  9  5  1  0  0  0  0
 10 32  1  0  0  0  0
 10  2  1  0  0  0  0
 10 33  1  0  0  0  0
 11 36  1  0  0  0  0
 11 35  1  0  0  0  0
 12 17  1  0  0  0  0
 13 14  1  0  0  0  0
 13 12  2  0  0  0  0
 14 15  2  0  0  0  0
 15 39  1  0  0  0  0
 15 16  1  0  0  0  0
 16 40  1  0  0  0  0
 17 41  1  0  0  0  0
 17 16  2  0  0  0  0
 18 23  1  0  0  0  0
 18  1  1  0  0  0  0
 19 18  2  0  0  0  0
 20 21  2  0  0  0  0
 20 19  1  0  0  0  0
 21 22  1  0  0  0  0
 22 45  1  0  0  0  0
 22 23  2  0  0  0  0
 23 46  1  0  0  0  0
 24  3  1  0  0  0  0
 29  7  1  0  0  0  0
 30  8  1  0  0  0  0
 34 11  1  0  0  0  0
 37 13  1  0  0  0  0
 38 14  1  0  0  0  0
 42 19  1  0  0  0  0
 43 20  1  0  0  0  0
 44 21  1  0  0  0  0
M  END
