2
 OpenBabel05122313113D

 17 16  0  0  0  0  0  0  0  0999 V2000
    7.5745   -0.0015    0.0036 Si  0  0  0  0  0  0  0  0  0  0  0  0
    1.8776    0.0007   -0.0020 C   0  0  0  0  0  3  0  0  0  0  0  0
    3.1365    0.0005   -0.0017 C   0  0  0  0  0  0  0  0  0  0  0  0
    4.4962    0.0001   -0.0007 C   0  0  0  0  0  0  0  0  0  0  0  0
    5.7452   -0.0003    0.0004 C   0  0  0  0  0  0  0  0  0  0  0  0
    8.2126    1.7748   -0.1748 C   0  0  0  0  0  0  0  0  0  0  0  0
    7.8577    2.2283   -1.1225 H   0  0  0  0  0  0  0  0  0  0  0  0
    9.3225    1.7976   -0.1746 H   0  0  0  0  0  0  0  0  0  0  0  0
    7.8537    2.4089    0.6610 H   0  0  0  0  0  0  0  0  0  0  0  0
    8.2127   -1.0459   -1.4442 C   0  0  0  0  0  0  0  0  0  0  0  0
    7.8543   -2.0923   -1.3641 H   0  0  0  0  0  0  0  0  0  0  0  0
    9.3225   -1.0607   -1.4616 H   0  0  0  0  0  0  0  0  0  0  0  0
    7.8571   -0.6379   -2.4120 H   0  0  0  0  0  0  0  0  0  0  0  0
    8.2076   -0.7347    1.6334 C   0  0  0  0  0  0  0  0  0  0  0  0
    7.8483   -0.1415    2.4986 H   0  0  0  0  0  0  0  0  0  0  0  0
    9.3173   -0.7448    1.6574 H   0  0  0  0  0  0  0  0  0  0  0  0
    7.8493   -1.7761    1.7630 H   0  0  0  0  0  0  0  0  0  0  0  0
  1 14  1  0  0  0  0
  2  3  3  0  0  0  0
  3  4  1  0  0  0  0
  4  5  3  0  0  0  0
  5  1  1  0  0  0  0
  6  8  1  0  0  0  0
  6  1  1  0  0  0  0
  6  9  1  0  0  0  0
  7  6  1  0  0  0  0
 10 11  1  0  0  0  0
 10  1  1  0  0  0  0
 12 10  1  0  0  0  0
 13 10  1  0  0  0  0
 14 16  1  0  0  0  0
 14 17  1  0  0  0  0
 14 15  1  0  0  0  0
M  END
