9
 OpenBabel05122313113D

 12 11  0  0  0  0  0  0  0  0999 V2000
   -0.9759    5.4774   -0.0947 O   0  0  0  0  0  0  0  0  0  0  0  0
   -0.2351    5.5183   -0.7374 H   0  0  0  0  0  0  0  0  0  0  0  0
    1.8358    5.2033   -0.0783 O   0  0  0  0  0  0  0  0  0  0  0  0
    1.1160    5.3364    0.5758 H   0  0  0  0  0  0  0  0  0  0  0  0
   -0.4575    3.1109   -0.1795 C   0  0  0  0  0  3  0  0  0  0  0  0
   -1.5102    4.1584   -0.1903 C   0  0  0  0  0  0  0  0  0  0  0  0
   -2.1432    4.0390   -1.1044 H   0  0  0  0  0  0  0  0  0  0  0  0
   -2.2017    4.0220    0.6687 H   0  0  0  0  0  0  0  0  0  0  0  0
    0.8510    2.9885   -0.1618 C   0  0  0  0  0  3  0  0  0  0  0  0
    2.0919    3.8008   -0.1025 C   0  0  0  0  0  0  0  0  0  0  0  0
    2.7035    3.4771    0.7774 H   0  0  0  0  0  0  0  0  0  0  0  0
    2.7284    3.6020   -0.9919 H   0  0  0  0  0  0  0  0  0  0  0  0
  2  1  1  0  0  0  0
  3  4  1  0  0  0  0
  5  9  2  0  0  0  0
  6  5  1  0  0  0  0
  6  1  1  0  0  0  0
  6  8  1  0  0  0  0
  7  6  1  0  0  0  0
  9 10  1  0  0  0  0
 10  3  1  0  0  0  0
 10 11  1  0  0  0  0
 12 10  1  0  0  0  0
M  END
