10
 OpenBabel05122313113D

 47 49  0  0  0  0  0  0  0  0999 V2000
   -3.3244    3.9630    0.7762 O   0  0  0  0  0  0  0  0  0  0  0  0
   -1.4196    1.6444    0.9298 N   0  0  0  0  0  0  0  0  0  0  0  0
    0.6505    1.1152    0.4438 N   0  0  0  0  0  0  0  0  0  0  0  0
   -0.6404    2.7325    1.5388 C   0  0  0  0  0  0  0  0  0  0  0  0
   -0.7229    2.6672    2.6492 H   0  0  0  0  0  0  0  0  0  0  0  0
   -1.0500    3.7130    1.2337 H   0  0  0  0  0  0  0  0  0  0  0  0
    0.7761    2.4555    1.0297 C   0  0  0  0  0  0  0  0  0  0  0  0
    1.1064    3.1815    0.2556 H   0  0  0  0  0  0  0  0  0  0  0  0
    1.5441    2.4548    1.8317 H   0  0  0  0  0  0  0  0  0  0  0  0
   -0.6395    0.6836    0.3611 C   0  0  0  0  0  2  0  0  0  0  0  0
    1.8541    0.4151    0.0395 C   0  0  0  0  0  0  0  0  0  0  0  0
    1.5258   -0.5260   -0.4423 H   0  0  0  0  0  0  0  0  0  0  0  0
    2.4485    0.1703    0.9449 H   0  0  0  0  0  0  0  0  0  0  0  0
    2.7082    1.2124   -0.9293 C   0  0  0  0  0  0  0  0  0  0  0  0
    2.0819    1.9404   -1.9603 C   0  0  0  0  0  0  0  0  0  0  0  0
    0.9899    1.8578   -2.0699 H   0  0  0  0  0  0  0  0  0  0  0  0
    2.8268    2.7368   -2.8391 C   0  0  0  0  0  0  0  0  0  0  0  0
    2.3162    3.2911   -3.6413 H   0  0  0  0  0  0  0  0  0  0  0  0
    4.2211    2.8200   -2.6958 C   0  0  0  0  0  0  0  0  0  0  0  0
    4.8153    3.4462   -3.3786 H   0  0  0  0  0  0  0  0  0  0  0  0
    4.8580    2.0838   -1.6897 C   0  0  0  0  0  0  0  0  0  0  0  0
    5.9541    2.1159   -1.5912 H   0  0  0  0  0  0  0  0  0  0  0  0
    4.1219    1.2616   -0.8071 C   0  0  0  0  0  0  0  0  0  0  0  0
    4.8518    0.4549    0.2095 C   0  0  0  0  0  0  0  0  0  0  0  0
    4.6768   -0.9461    0.2821 C   0  0  0  0  0  0  0  0  0  0  0  0
    4.0047   -1.4382   -0.4372 H   0  0  0  0  0  0  0  0  0  0  0  0
    5.3685   -1.7102    1.2327 C   0  0  0  0  0  0  0  0  0  0  0  0
    5.2226   -2.8011    1.2669 H   0  0  0  0  0  0  0  0  0  0  0  0
    6.2541   -1.0890    2.1286 C   0  0  0  0  0  0  0  0  0  0  0  0
    6.7970   -1.6875    2.8759 H   0  0  0  0  0  0  0  0  0  0  0  0
    6.4485    0.2996    2.0588 C   0  0  0  0  0  0  0  0  0  0  0  0
    7.1430    0.7943    2.7551 H   0  0  0  0  0  0  0  0  0  0  0  0
    5.7563    1.0633    1.1069 C   0  0  0  0  0  0  0  0  0  0  0  0
    5.9007    2.1538    1.0625 H   0  0  0  0  0  0  0  0  0  0  0  0
   -2.8558    1.6213    1.1178 C   0  0  0  0  0  0  0  0  0  0  0  0
   -3.0788    1.7816    2.1977 H   0  0  0  0  0  0  0  0  0  0  0  0
   -3.2148    0.6253    0.8094 H   0  0  0  0  0  0  0  0  0  0  0  0
   -3.6053    2.6591    0.2937 C   0  0  0  0  0  0  0  0  0  0  0  0
   -3.3179    2.5414   -0.7769 H   0  0  0  0  0  0  0  0  0  0  0  0
   -4.7013    2.4425    0.3641 H   0  0  0  0  0  0  0  0  0  0  0  0
   -3.9490    4.9812    0.0163 C   0  0  0  0  0  0  0  0  0  0  0  0
   -5.0598    4.8409    0.0281 H   0  0  0  0  0  0  0  0  0  0  0  0
   -3.6366    4.9121   -1.0558 H   0  0  0  0  0  0  0  0  0  0  0  0
   -3.5777    6.3327    0.5992 C   0  0  0  0  0  0  0  0  0  0  0  0
   -3.8872    6.3970    1.6616 H   0  0  0  0  0  0  0  0  0  0  0  0
   -4.0754    7.1492    0.0396 H   0  0  0  0  0  0  0  0  0  0  0  0
   -2.4822    6.4963    0.5496 H   0  0  0  0  0  0  0  0  0  0  0  0
  2 35  1  0  0  0  0
  2  4  1  0  0  0  0
  3  7  1  0  0  0  0
  4  5  1  0  0  0  0
  6  4  1  0  0  0  0
  7  4  1  0  0  0  0
  7  9  1  0  0  0  0
  8  7  1  0  0  0  0
 10  3  1  0  0  0  0
 10  2  1  0  0  0  0
 11  3  1  0  0  0  0
 11 13  1  0  0  0  0
 12 11  1  0  0  0  0
 14 23  1  0  0  0  0
 14 11  1  0  0  0  0
 15 14  2  0  0  0  0
 16 15  1  0  0  0  0
 17 19  2  0  0  0  0
 17 15  1  0  0  0  0
 18 17  1  0  0  0  0
 19 21  1  0  0  0  0
 20 19  1  0  0  0  0
 21 22  1  0  0  0  0
 21 23  2  0  0  0  0
 23 24  1  0  0  0  0
 24 25  2  0  0  0  0
 24 33  1  0  0  0  0
 25 27  1  0  0  0  0
 26 25  1  0  0  0  0
 27 28  1  0  0  0  0
 27 29  2  0  0  0  0
 29 30  1  0  0  0  0
 31 29  1  0  0  0  0
 31 32  1  0  0  0  0
 33 31  2  0  0  0  0
 34 33  1  0  0  0  0
 35 36  1  0  0  0  0
 37 35  1  0  0  0  0
 38 40  1  0  0  0  0
 38  1  1  0  0  0  0
 38 35  1  0  0  0  0
 39 38  1  0  0  0  0
 41 42  1  0  0  0  0
 41 44  1  0  0  0  0
 41  1  1  0  0  0  0
 43 41  1  0  0  0  0
 44 45  1  0  0  0  0
 46 44  1  0  0  0  0
 47 44  1  0  0  0  0
M  END
