2
 OpenBabel05122313113D

 20 20  0  0  1  0  0  0  0  0999 V2000
   -0.6976    0.7566    0.7975 C   0  0  2  0  0  3  0  0  0  0  0  0
   -0.1218    1.7653   -0.0737 C   0  0  0  0  0  3  0  0  0  0  0  0
    1.1388    2.1522    0.4670 C   0  0  0  0  0  3  0  0  0  0  0  0
    1.3673    1.3990    1.6660 C   0  0  0  0  0  0  0  0  0  0  0  0
    0.2511    0.5438    1.8645 C   0  0  0  0  0  0  0  0  0  0  0  0
   -1.9155   -0.1269    0.7415 C   0  0  0  0  0  0  0  0  0  0  0  0
   -1.9701   -1.0949    1.5085 O   0  0  0  0  0  0  0  0  0  0  0  0
   -2.9226    0.1424   -0.1627 N   0  0  0  0  0  0  0  0  0  0  0  0
   -3.0076    1.3175   -1.0086 C   0  0  0  0  0  0  0  0  0  0  0  0
   -3.9795   -0.8448   -0.3164 C   0  0  0  0  0  0  0  0  0  0  0  0
   -0.5491    2.1719   -0.9937 H   0  0  0  0  0  0  0  0  0  0  0  0
    1.8250    2.8837    0.0228 H   0  0  0  0  0  0  0  0  0  0  0  0
    2.2580    1.4550    2.3028 H   0  0  0  0  0  0  0  0  0  0  0  0
    0.0887   -0.1757    2.6744 H   0  0  0  0  0  0  0  0  0  0  0  0
   -4.0723    1.5042   -1.2517 H   0  0  0  0  0  0  0  0  0  0  0  0
   -2.6316    2.2163   -0.4864 H   0  0  0  0  0  0  0  0  0  0  0  0
   -2.4593    1.1984   -1.9712 H   0  0  0  0  0  0  0  0  0  0  0  0
   -4.0155   -1.2216   -1.3618 H   0  0  0  0  0  0  0  0  0  0  0  0
   -3.7689   -1.6818    0.3724 H   0  0  0  0  0  0  0  0  0  0  0  0
   -4.9711   -0.4082   -0.0677 H   0  0  0  0  0  0  0  0  0  0  0  0
  1  6  1  6  0  0  0
  1  5  1  0  0  0  0
  2  3  1  0  0  0  0
  2  1  1  0  0  0  0
  3  4  1  0  0  0  0
  4  5  2  0  0  0  0
  4 13  1  0  0  0  0
  5 14  1  0  0  0  0
  6  7  2  0  0  0  0
  8  6  1  0  0  0  0
  9 16  1  0  0  0  0
  9  8  1  0  0  0  0
 10  8  1  0  0  0  0
 10 20  1  0  0  0  0
 10 19  1  0  0  0  0
 11  2  1  0  0  0  0
 12  3  1  0  0  0  0
 15  9  1  0  0  0  0
 17  9  1  0  0  0  0
 18 10  1  0  0  0  0
M  END
