5
 OpenBabel05122313113D

  9  9  0  0  0  0  0  0  0  0999 V2000
   -0.4112   -2.3912   -1.9325 C   0  0  0  0  0  0  0  0  0  0  0  0
   -0.4368   -3.7304   -1.5736 C   0  0  0  0  0  0  0  0  0  0  0  0
    0.7407   -4.0013   -0.7275 C   0  0  0  0  0  0  0  0  0  0  0  0
    1.4584   -2.8219   -0.6010 C   0  0  0  0  0  0  0  0  0  0  0  0
    0.6862   -1.7460   -1.2230 C   0  0  0  0  0  2  0  0  0  0  0  0
   -1.1505   -1.8818   -2.5671 H   0  0  0  0  0  0  0  0  0  0  0  0
   -1.2140   -4.4679   -1.8252 H   0  0  0  0  0  0  0  0  0  0  0  0
    0.9725   -4.9712   -0.2625 H   0  0  0  0  0  0  0  0  0  0  0  0
    2.3990   -2.6942   -0.0465 H   0  0  0  0  0  0  0  0  0  0  0  0
  1  2  2  0  0  0  0
  1  5  1  0  0  0  0
  2  3  1  0  0  0  0
  3  4  2  0  0  0  0
  3  8  1  0  0  0  0
  4  9  1  0  0  0  0
  5  4  1  0  0  0  0
  6  1  1  0  0  0  0
  7  2  1  0  0  0  0
M  END
