5
 OpenBabel05122313113D

 20 20  0  0  0  0  0  0  0  0999 V2000
   -2.3903   -1.0188   -1.1477 C   0  0  0  0  0  0  0  0  0  0  0  0
   -2.4026   -0.7036    1.2874 C   0  0  0  0  0  0  0  0  0  0  0  0
   -3.7923   -0.9396    1.2888 C   0  0  0  0  0  0  0  0  0  0  0  0
   -4.3329   -0.9172    2.2505 H   0  0  0  0  0  0  0  0  0  0  0  0
   -1.7141   -0.7152    0.0543 C   0  0  0  0  0  3  0  0  0  0  0  0
   -1.6590   -0.4443    2.5745 C   0  0  0  0  0  0  0  0  0  0  0  0
   -2.3332   -0.4641    3.4535 H   0  0  0  0  0  0  0  0  0  0  0  0
   -0.8667   -1.2084    2.7167 H   0  0  0  0  0  0  0  0  0  0  0  0
   -1.1454    0.5409    2.5551 H   0  0  0  0  0  0  0  0  0  0  0  0
   -3.7807   -1.2485   -1.1032 C   0  0  0  0  0  0  0  0  0  0  0  0
   -4.3117   -1.4719   -2.0443 H   0  0  0  0  0  0  0  0  0  0  0  0
   -4.5027   -1.2093    0.1041 C   0  0  0  0  0  0  0  0  0  0  0  0
   -1.6323   -1.0960   -2.4505 C   0  0  0  0  0  0  0  0  0  0  0  0
   -2.2896   -1.3790   -3.2964 H   0  0  0  0  0  0  0  0  0  0  0  0
   -1.1493   -0.1264   -2.6996 H   0  0  0  0  0  0  0  0  0  0  0  0
   -0.8163   -1.8436   -2.3672 H   0  0  0  0  0  0  0  0  0  0  0  0
   -5.9845   -1.4962    0.1344 C   0  0  0  0  0  0  0  0  0  0  0  0
   -6.4758   -1.2155   -0.8187 H   0  0  0  0  0  0  0  0  0  0  0  0
   -6.1823   -2.5786    0.2948 H   0  0  0  0  0  0  0  0  0  0  0  0
   -6.4908   -0.9508    0.9560 H   0  0  0  0  0  0  0  0  0  0  0  0
  1 10  2  0  0  0  0
  1  5  1  0  0  0  0
  2  3  1  0  0  0  0
  2  6  1  0  0  0  0
  3  4  1  0  0  0  0
  5  2  2  0  0  0  0
  6  8  1  0  0  0  0
  6  7  1  0  0  0  0
  9  6  1  0  0  0  0
 10 12  1  0  0  0  0
 11 10  1  0  0  0  0
 12 17  1  0  0  0  0
 12  3  2  0  0  0  0
 13 16  1  0  0  0  0
 13  1  1  0  0  0  0
 14 13  1  0  0  0  0
 15 13  1  0  0  0  0
 17 19  1  0  0  0  0
 17 20  1  0  0  0  0
 18 17  1  0  0  0  0
M  END
