6
 OpenBabel05122313113D

 57 62  0  0  0  0  0  0  0  0999 V2000
    0.2211   -2.6859   -0.6810 N   0  0  0  0  0  0  0  0  0  0  0  0
   -0.5797   -0.6976   -1.1555 N   0  0  0  0  0  0  0  0  0  0  0  0
   -0.5267   -0.2447    2.0146 N   0  0  0  0  0  0  0  0  0  0  0  0
   -0.0507    0.6222    1.7510 H   0  0  0  0  0  0  0  0  0  0  0  0
   -0.1174   -2.4102    2.6826 O   0  0  0  0  0  0  0  0  0  0  0  0
    0.5552   -1.3658   -0.7479 C   0  0  0  0  0  2  0  0  0  0  0  0
   -1.1105   -2.8778   -1.0520 C   0  0  0  0  0  0  0  0  0  0  0  0
   -1.8990   -4.0333   -1.1410 C   0  0  0  0  0  0  0  0  0  0  0  0
   -1.5026   -5.0211   -0.8691 H   0  0  0  0  0  0  0  0  0  0  0  0
   -3.2173   -3.8695   -1.5907 C   0  0  0  0  0  0  0  0  0  0  0  0
   -3.8707   -4.7506   -1.6711 H   0  0  0  0  0  0  0  0  0  0  0  0
   -3.7202   -2.5992   -1.9508 C   0  0  0  0  0  0  0  0  0  0  0  0
   -4.7563   -2.5090   -2.3081 H   0  0  0  0  0  0  0  0  0  0  0  0
   -2.9324   -1.4433   -1.8574 C   0  0  0  0  0  0  0  0  0  0  0  0
   -3.3264   -0.4576   -2.1338 H   0  0  0  0  0  0  0  0  0  0  0  0
   -1.6257   -1.6018   -1.3795 C   0  0  0  0  0  0  0  0  0  0  0  0
    1.0880   -3.7338   -0.1683 C   0  0  0  0  0  0  0  0  0  0  0  0
    0.7582   -4.0179    0.8513 H   0  0  0  0  0  0  0  0  0  0  0  0
    2.1177   -3.3346   -0.1181 H   0  0  0  0  0  0  0  0  0  0  0  0
    1.0636   -4.6117   -0.8427 H   0  0  0  0  0  0  0  0  0  0  0  0
   -0.6609    0.7349   -1.1078 C   0  0  0  0  0  0  0  0  0  0  0  0
    0.1810    1.4833   -1.9726 C   0  0  0  0  0  0  0  0  0  0  0  0
    0.8046    0.9454   -2.6997 H   0  0  0  0  0  0  0  0  0  0  0  0
    0.2104    2.8631   -1.8851 C   0  0  0  0  0  0  0  0  0  0  0  0
    0.8654    3.4444   -2.5510 H   0  0  0  0  0  0  0  0  0  0  0  0
   -0.5855    3.5494   -0.9240 C   0  0  0  0  0  0  0  0  0  0  0  0
   -0.5471    4.9688   -0.7948 C   0  0  0  0  0  0  0  0  0  0  0  0
    0.1128    5.5399   -1.4659 H   0  0  0  0  0  0  0  0  0  0  0  0
   -1.3148    5.6175    0.1597 C   0  0  0  0  0  0  0  0  0  0  0  0
   -1.2725    6.7133    0.2507 H   0  0  0  0  0  0  0  0  0  0  0  0
   -2.1526    4.8689    1.0290 C   0  0  0  0  0  0  0  0  0  0  0  0
   -2.7523    5.3895    1.7908 H   0  0  0  0  0  0  0  0  0  0  0  0
   -2.2186    3.4875    0.9266 C   0  0  0  0  0  0  0  0  0  0  0  0
   -2.8671    2.9092    1.6004 H   0  0  0  0  0  0  0  0  0  0  0  0
   -1.4471    2.7890   -0.0502 C   0  0  0  0  0  0  0  0  0  0  0  0
   -1.4898    1.3547   -0.1603 C   0  0  0  0  0  0  0  0  0  0  0  0
   -2.4043    0.5345    0.6891 C   0  0  0  0  0  0  0  0  0  0  0  0
   -3.8169    0.5411    0.4202 C   0  0  0  0  0  0  0  0  0  0  0  0
   -4.4083    1.3997   -0.5570 C   0  0  0  0  0  0  0  0  0  0  0  0
   -3.7714    2.1089   -1.1039 H   0  0  0  0  0  0  0  0  0  0  0  0
   -5.7688    1.3480   -0.8277 C   0  0  0  0  0  0  0  0  0  0  0  0
   -6.1985    2.0215   -1.5847 H   0  0  0  0  0  0  0  0  0  0  0  0
   -6.6100    0.4367   -0.1368 C   0  0  0  0  0  0  0  0  0  0  0  0
   -7.6873    0.4063   -0.3586 H   0  0  0  0  0  0  0  0  0  0  0  0
   -6.0665   -0.4125    0.8157 C   0  0  0  0  0  0  0  0  0  0  0  0
   -6.7048   -1.1285    1.3567 H   0  0  0  0  0  0  0  0  0  0  0  0
   -4.6742   -0.3869    1.1143 C   0  0  0  0  0  0  0  0  0  0  0  0
   -4.0944   -1.2772    2.0628 C   0  0  0  0  0  0  0  0  0  0  0  0
   -4.7471   -1.9951    2.5831 H   0  0  0  0  0  0  0  0  0  0  0  0
   -2.7439   -1.2513    2.3451 C   0  0  0  0  0  0  0  0  0  0  0  0
   -2.3036   -1.9427    3.0719 H   0  0  0  0  0  0  0  0  0  0  0  0
   -1.8858   -0.3296    1.6699 C   0  0  0  0  0  0  0  0  0  0  0  0
    0.2692   -1.2496    2.5582 C   0  0  0  0  0  0  0  0  0  0  0  0
    1.6313   -0.7882    3.0356 C   0  0  0  0  0  0  0  0  0  0  0  0
    1.6194   -0.7812    4.1455 H   0  0  0  0  0  0  0  0  0  0  0  0
    1.9305    0.2126    2.6722 H   0  0  0  0  0  0  0  0  0  0  0  0
    2.3950   -1.5212    2.7163 H   0  0  0  0  0  0  0  0  0  0  0  0
  1 17  1  0  0  0  0
  2 21  1  0  0  0  0
  2  6  1  0  0  0  0
  3 53  1  0  0  0  0
  4  3  1  0  0  0  0
  6  1  1  0  0  0  0
  7  1  1  0  0  0  0
  8  7  1  0  0  0  0
  8  9  1  0  0  0  0
 10  8  2  0  0  0  0
 11 10  1  0  0  0  0
 12 14  2  0  0  0  0
 12 10  1  0  0  0  0
 13 12  1  0  0  0  0
 14 16  1  0  0  0  0
 15 14  1  0  0  0  0
 16  2  1  0  0  0  0
 16  7  2  0  0  0  0
 17 19  1  0  0  0  0
 17 18  1  0  0  0  0
 20 17  1  0  0  0  0
 21 36  1  0  0  0  0
 22 24  1  0  0  0  0
 22 21  2  0  0  0  0
 23 22  1  0  0  0  0
 24 26  2  0  0  0  0
 25 24  1  0  0  0  0
 26 27  1  0  0  0  0
 26 35  1  0  0  0  0
 27 29  2  0  0  0  0
 28 27  1  0  0  0  0
 29 30  1  0  0  0  0
 29 31  1  0  0  0  0
 31 32  1  0  0  0  0
 33 31  2  0  0  0  0
 33 34  1  0  0  0  0
 35 33  1  0  0  0  0
 36 35  2  0  0  0  0
 36 37  1  0  0  0  0
 37 52  1  0  0  0  0
 38 37  2  0  0  0  0
 38 47  1  0  0  0  0
 39 38  1  0  0  0  0
 40 39  1  0  0  0  0
 41 39  2  0  0  0  0
 41 43  1  0  0  0  0
 42 41  1  0  0  0  0
 43 45  2  0  0  0  0
 44 43  1  0  0  0  0
 45 47  1  0  0  0  0
 45 46  1  0  0  0  0
 47 48  2  0  0  0  0
 48 50  1  0  0  0  0
 48 49  1  0  0  0  0
 50 51  1  0  0  0  0
 52  3  1  0  0  0  0
 52 50  2  0  0  0  0
 53  5  2  0  0  0  0
 53 54  1  0  0  0  0
 54 55  1  0  0  0  0
 56 54  1  0  0  0  0
 57 54  1  0  0  0  0
M  END
