3
 OpenBabel05122313113D

 19 19  0  0  0  0  0  0  0  0999 V2000
    3.6690    0.4968   -0.0913 O   0  0  0  0  0  0  0  0  0  0  0  0
    2.4729    1.0011    0.3659 B   0  0  0  0  0  0  0  0  0  0  0  0
    0.0155    2.3061    1.3557 C   0  0  0  0  0  3  0  0  0  0  0  0
    0.5661    1.2040    2.0622 C   0  0  0  0  0  3  0  0  0  0  0  0
    1.6568    0.4653    1.5684 C   0  0  0  0  0  0  0  0  0  0  0  0
   -0.8667    2.8267    1.7541 H   0  0  0  0  0  0  0  0  0  0  0  0
    0.0616    0.8934    2.9905 H   0  0  0  0  0  0  0  0  0  0  0  0
    1.9428   -0.4295    2.1455 H   0  0  0  0  0  0  0  0  0  0  0  0
    2.1937    2.5912   -1.3017 H   0  0  0  0  0  0  0  0  0  0  0  0
    0.2012    3.6615   -0.3300 H   0  0  0  0  0  0  0  0  0  0  0  0
    3.4367   -1.5207    0.3558 H   0  0  0  0  0  0  0  0  0  0  0  0
    4.4557   -0.5915    1.5067 H   0  0  0  0  0  0  0  0  0  0  0  0
    5.8803   -2.0360    0.0144 H   0  0  0  0  0  0  0  0  0  0  0  0
    6.2057   -0.2967   -0.3084 H   0  0  0  0  0  0  0  0  0  0  0  0
    5.1769   -1.2378   -1.4371 H   0  0  0  0  0  0  0  0  0  0  0  0
    1.8015    2.1921   -0.3517 C   0  0  0  0  0  0  0  0  0  0  0  0
    0.6698    2.8076    0.1839 C   0  0  0  0  0  0  0  0  0  0  0  0
    4.2032   -0.7139    0.4266 C   0  0  0  0  0  0  0  0  0  0  0  0
    5.4388   -1.0946   -0.3700 C   0  0  0  0  0  0  0  0  0  0  0  0
  1  2  1  0  0  0  0
  1 18  1  0  0  0  0
  2  5  2  0  0  0  0
  3  6  1  0  0  0  0
  3  4  1  0  0  0  0
  4  7  1  0  0  0  0
  5  4  1  0  0  0  0
  5  8  1  0  0  0  0
  9 16  1  0  0  0  0
 10 17  1  0  0  0  0
 11 18  1  0  0  0  0
 15 19  1  0  0  0  0
 16 17  2  0  0  0  0
 16  2  1  0  0  0  0
 17  3  1  0  0  0  0
 18 12  1  0  0  0  0
 19 14  1  0  0  0  0
 19 13  1  0  0  0  0
 19 18  1  0  0  0  0
M  END
