4
 OpenBabel05122313113D

 51 55  0  0  1  0  0  0  0  0999 V2000
    0.1489   -2.7706   -1.3623 O   0  0  0  0  0  0  0  0  0  0  0  0
    0.0799   -1.4933   -0.9996 C   0  0  0  0  0  0  0  0  0  0  0  0
   -1.1491   -0.7834   -0.7744 C   0  0  0  0  0  0  0  0  0  0  0  0
   -0.7696    0.5968   -0.4453 C   0  0  1  0  0  3  0  0  0  0  0  0
    0.6825    0.6943   -0.4593 C   0  0  0  0  0  0  0  0  0  0  0  0
    1.2144   -0.6346   -0.7326 C   0  0  0  0  0  0  0  0  0  0  0  0
   -2.5135   -1.3170   -0.9720 C   0  0  0  0  0  0  0  0  0  0  0  0
   -2.7599   -2.2739   -1.9823 C   0  0  0  0  0  0  0  0  0  0  0  0
   -1.9267   -2.6410   -2.5962 H   0  0  0  0  0  0  0  0  0  0  0  0
   -4.0564   -2.7590   -2.2057 C   0  0  0  0  0  0  0  0  0  0  0  0
   -4.2267   -3.5052   -2.9967 H   0  0  0  0  0  0  0  0  0  0  0  0
   -5.1294   -2.2992   -1.4282 C   0  0  0  0  0  0  0  0  0  0  0  0
   -6.1459   -2.6831   -1.6027 H   0  0  0  0  0  0  0  0  0  0  0  0
   -4.8948   -1.3507   -0.4191 C   0  0  0  0  0  0  0  0  0  0  0  0
   -5.7260   -0.9901    0.2054 H   0  0  0  0  0  0  0  0  0  0  0  0
   -3.6022   -0.8651   -0.1912 C   0  0  0  0  0  0  0  0  0  0  0  0
   -3.4346   -0.1339    0.6107 H   0  0  0  0  0  0  0  0  0  0  0  0
   -1.6984    1.7503   -0.3543 C   0  0  0  0  0  0  0  0  0  0  0  0
   -2.6145    1.9846   -1.4022 C   0  0  0  0  0  0  0  0  0  0  0  0
   -2.6609    1.2825   -2.2477 H   0  0  0  0  0  0  0  0  0  0  0  0
   -3.4601    3.1026   -1.3677 C   0  0  0  0  0  0  0  0  0  0  0  0
   -4.1727    3.2714   -2.1892 H   0  0  0  0  0  0  0  0  0  0  0  0
   -3.4005    4.0002   -0.2901 C   0  0  0  0  0  0  0  0  0  0  0  0
   -4.0678    4.8749   -0.2619 H   0  0  0  0  0  0  0  0  0  0  0  0
   -2.4901    3.7736    0.7552 C   0  0  0  0  0  0  0  0  0  0  0  0
   -2.4405    4.4700    1.6058 H   0  0  0  0  0  0  0  0  0  0  0  0
   -1.6466    2.6557    0.7253 C   0  0  0  0  0  0  0  0  0  0  0  0
   -0.9358    2.4676    1.5436 H   0  0  0  0  0  0  0  0  0  0  0  0
    1.4892    1.9377   -0.4145 C   0  0  0  0  0  0  0  0  0  0  0  0
    1.0693    3.0717   -1.1445 C   0  0  0  0  0  0  0  0  0  0  0  0
    0.1252    3.0385   -1.7056 H   0  0  0  0  0  0  0  0  0  0  0  0
    1.8516    4.2351   -1.1662 C   0  0  0  0  0  0  0  0  0  0  0  0
    1.5072    5.1094   -1.7390 H   0  0  0  0  0  0  0  0  0  0  0  0
    3.0652    4.2848   -0.4641 C   0  0  0  0  0  0  0  0  0  0  0  0
    3.6759    5.2002   -0.4774 H   0  0  0  0  0  0  0  0  0  0  0  0
    3.4972    3.1580    0.2546 C   0  0  0  0  0  0  0  0  0  0  0  0
    4.4483    3.1851    0.8073 H   0  0  0  0  0  0  0  0  0  0  0  0
    2.7193    1.9941    0.2773 C   0  0  0  0  0  0  0  0  0  0  0  0
    3.0684    1.1190    0.8419 H   0  0  0  0  0  0  0  0  0  0  0  0
    2.6080   -1.0631   -0.9819 C   0  0  0  0  0  0  0  0  0  0  0  0
    3.4230   -0.3743   -1.9076 C   0  0  0  0  0  0  0  0  0  0  0  0
    3.0347    0.5252   -2.4072 H   0  0  0  0  0  0  0  0  0  0  0  0
    4.7164   -0.8347   -2.1868 C   0  0  0  0  0  0  0  0  0  0  0  0
    5.3448   -0.2874   -2.9059 H   0  0  0  0  0  0  0  0  0  0  0  0
    5.2096   -1.9918   -1.5600 C   0  0  0  0  0  0  0  0  0  0  0  0
    6.2251   -2.3507   -1.7858 H   0  0  0  0  0  0  0  0  0  0  0  0
    4.4050   -2.6833   -0.6418 C   0  0  0  0  0  0  0  0  0  0  0  0
    4.7899   -3.5810   -0.1345 H   0  0  0  0  0  0  0  0  0  0  0  0
    3.1122   -2.2222   -0.3459 C   0  0  0  0  0  0  0  0  0  0  0  0
    2.4962   -2.7240    0.4228 H   0  0  0  0  0  0  0  0  0  0  0  0
    1.0769   -3.0758   -1.2450 H   0  0  0  0  0  0  0  0  0  0  0  0
  1 51  1  0  0  0  0
  1  2  1  0  0  0  0
  2  3  2  0  0  0  0
  2  6  1  0  0  0  0
  3  4  1  0  0  0  0
  4 18  1  6  0  0  0
  5  4  1  0  0  0  0
  5 29  1  0  0  0  0
  6  5  2  0  0  0  0
  7  3  1  0  0  0  0
  7 16  1  0  0  0  0
  8  7  2  0  0  0  0
  9  8  1  0  0  0  0
 10  8  1  0  0  0  0
 10 12  2  0  0  0  0
 11 10  1  0  0  0  0
 12 14  1  0  0  0  0
 13 12  1  0  0  0  0
 14 16  2  0  0  0  0
 14 15  1  0  0  0  0
 16 17  1  0  0  0  0
 18 27  1  0  0  0  0
 19 21  1  0  0  0  0
 19 18  2  0  0  0  0
 20 19  1  0  0  0  0
 21 23  2  0  0  0  0
 22 21  1  0  0  0  0
 23 24  1  0  0  0  0
 23 25  1  0  0  0  0
 25 26  1  0  0  0  0
 27 25  2  0  0  0  0
 27 28  1  0  0  0  0
 29 38  1  0  0  0  0
 30 29  2  0  0  0  0
 31 30  1  0  0  0  0
 32 30  1  0  0  0  0
 32 34  2  0  0  0  0
 33 32  1  0  0  0  0
 34 36  1  0  0  0  0
 35 34  1  0  0  0  0
 36 38  2  0  0  0  0
 36 37  1  0  0  0  0
 38 39  1  0  0  0  0
 40  6  1  0  0  0  0
 40 49  1  0  0  0  0
 41 40  2  0  0  0  0
 42 41  1  0  0  0  0
 43 41  1  0  0  0  0
 43 45  2  0  0  0  0
 44 43  1  0  0  0  0
 45 47  1  0  0  0  0
 46 45  1  0  0  0  0
 47 49  2  0  0  0  0
 47 48  1  0  0  0  0
 49 50  1  0  0  0  0
M  END
