8
 OpenBabel05122313113D

 76 81  0  0  1  0  0  0  0  0999 V2000
   -0.0772    0.9888    1.4451 P   0  0  0  0  0  0  0  0  0  0  0  0
    0.8060   -0.8634   -1.3104 P   0  0  0  0  0  0  0  0  0  0  0  0
   -2.7401   -0.5223    2.9015 O   0  0  0  0  0  0  0  0  0  0  0  0
   -1.7888   -2.9893   -1.9377 O   0  0  0  0  0  0  0  0  0  0  0  0
   -2.5155   -1.2327    1.7624 C   0  0  1  0  0  3  0  0  0  0  0  0
   -1.6339   -2.3533    1.7261 C   0  0  0  0  0  3  0  0  0  0  0  0
   -1.1419   -2.7147    2.6394 H   0  0  0  0  0  0  0  0  0  0  0  0
   -1.3764   -2.9871    0.4716 C   0  0  0  0  0  3  0  0  0  0  0  0
   -0.6772   -3.8323    0.4132 H   0  0  0  0  0  0  0  0  0  0  0  0
   -2.0283   -2.4922   -0.6991 C   0  0  2  0  0  3  0  0  0  0  0  0
   -3.1775   -1.5900   -0.6085 C   0  0  0  0  0  0  0  0  0  0  0  0
   -3.9878   -1.2786   -1.7240 C   0  0  0  0  0  0  0  0  0  0  0  0
   -3.7832   -1.7774   -2.6806 H   0  0  0  0  0  0  0  0  0  0  0  0
   -5.0267   -0.3544   -1.5939 C   0  0  0  0  0  0  0  0  0  0  0  0
   -5.6612   -0.1220   -2.4618 H   0  0  0  0  0  0  0  0  0  0  0  0
   -5.2679    0.2825   -0.3567 C   0  0  0  0  0  0  0  0  0  0  0  0
   -6.0904    1.0074   -0.2668 H   0  0  0  0  0  0  0  0  0  0  0  0
   -4.4734   -0.0012    0.7563 C   0  0  0  0  0  0  0  0  0  0  0  0
   -4.6466    0.4909    1.7225 H   0  0  0  0  0  0  0  0  0  0  0  0
   -3.4241   -0.9430    0.6516 C   0  0  0  0  0  0  0  0  0  0  0  0
   -1.6139   -0.0822    3.6705 C   0  0  0  0  0  0  0  0  0  0  0  0
   -0.8671   -0.8960    3.7905 H   0  0  0  0  0  0  0  0  0  0  0  0
   -2.0234    0.1448    4.6738 H   0  0  0  0  0  0  0  0  0  0  0  0
   -0.9936    1.1814    3.0709 C   0  0  0  0  0  0  0  0  0  0  0  0
   -0.2930    1.6413    3.7968 H   0  0  0  0  0  0  0  0  0  0  0  0
   -1.7997    1.9194    2.8876 H   0  0  0  0  0  0  0  0  0  0  0  0
    1.6945    1.0211    1.9109 C   0  0  0  0  0  0  0  0  0  0  0  0
    2.1209    0.4083    3.1090 C   0  0  0  0  0  0  0  0  0  0  0  0
    1.3890    0.0012    3.8230 H   0  0  0  0  0  0  0  0  0  0  0  0
    3.4879    0.2963    3.4006 C   0  0  0  0  0  0  0  0  0  0  0  0
    3.8068   -0.1792    4.3403 H   0  0  0  0  0  0  0  0  0  0  0  0
    4.4451    0.7893    2.4993 C   0  0  0  0  0  0  0  0  0  0  0  0
    5.5171    0.6992    2.7289 H   0  0  0  0  0  0  0  0  0  0  0  0
    4.0273    1.4016    1.3081 C   0  0  0  0  0  0  0  0  0  0  0  0
    4.7704    1.7960    0.5987 H   0  0  0  0  0  0  0  0  0  0  0  0
    2.6616    1.5163    1.0116 C   0  0  0  0  0  0  0  0  0  0  0  0
    2.3492    1.9937    0.0733 H   0  0  0  0  0  0  0  0  0  0  0  0
   -0.4708    2.5813    0.6191 C   0  0  0  0  0  0  0  0  0  0  0  0
    0.2952    3.7526    0.7785 C   0  0  0  0  0  0  0  0  0  0  0  0
    1.2086    3.7421    1.3909 H   0  0  0  0  0  0  0  0  0  0  0  0
   -0.1101    4.9427    0.1537 C   0  0  0  0  0  0  0  0  0  0  0  0
    0.4968    5.8527    0.2732 H   0  0  0  0  0  0  0  0  0  0  0  0
   -1.2880    4.9776   -0.6089 C   0  0  0  0  0  0  0  0  0  0  0  0
   -1.6030    5.9150   -1.0915 H   0  0  0  0  0  0  0  0  0  0  0  0
   -2.0672    3.8173   -0.7486 C   0  0  0  0  0  0  0  0  0  0  0  0
   -2.9963    3.8408   -1.3379 H   0  0  0  0  0  0  0  0  0  0  0  0
   -1.6567    2.6209   -0.1457 C   0  0  0  0  0  0  0  0  0  0  0  0
   -2.2560    1.7033   -0.2690 H   0  0  0  0  0  0  0  0  0  0  0  0
    2.3870   -1.6504   -0.8012 C   0  0  0  0  0  0  0  0  0  0  0  0
    2.5684   -1.9877    0.5546 C   0  0  0  0  0  0  0  0  0  0  0  0
    1.7556   -1.7674    1.2644 H   0  0  0  0  0  0  0  0  0  0  0  0
    3.7621   -2.5865    0.9828 C   0  0  0  0  0  0  0  0  0  0  0  0
    3.8960   -2.8374    2.0455 H   0  0  0  0  0  0  0  0  0  0  0  0
    4.7812   -2.8608    0.0583 C   0  0  0  0  0  0  0  0  0  0  0  0
    5.7183   -3.3310    0.3923 H   0  0  0  0  0  0  0  0  0  0  0  0
    4.6024   -2.5420   -1.2985 C   0  0  0  0  0  0  0  0  0  0  0  0
    5.3964   -2.7643   -2.0271 H   0  0  0  0  0  0  0  0  0  0  0  0
    3.4111   -1.9412   -1.7301 C   0  0  0  0  0  0  0  0  0  0  0  0
    3.2895   -1.6951   -2.7965 H   0  0  0  0  0  0  0  0  0  0  0  0
    1.2349    0.7086   -2.1622 C   0  0  0  0  0  0  0  0  0  0  0  0
    2.5515    1.1865   -2.3204 C   0  0  0  0  0  0  0  0  0  0  0  0
    3.4026    0.6000   -1.9462 H   0  0  0  0  0  0  0  0  0  0  0  0
    2.7784    2.4272   -2.9370 C   0  0  0  0  0  0  0  0  0  0  0  0
    3.8088    2.7953   -3.0542 H   0  0  0  0  0  0  0  0  0  0  0  0
    1.6996    3.1962   -3.4005 C   0  0  0  0  0  0  0  0  0  0  0  0
    1.8822    4.1699   -3.8791 H   0  0  0  0  0  0  0  0  0  0  0  0
    0.3866    2.7216   -3.2496 C   0  0  0  0  0  0  0  0  0  0  0  0
   -0.4641    3.3235   -3.6015 H   0  0  0  0  0  0  0  0  0  0  0  0
    0.1547    1.4868   -2.6301 C   0  0  0  0  0  0  0  0  0  0  0  0
   -0.8780    1.1307   -2.4878 H   0  0  0  0  0  0  0  0  0  0  0  0
    0.2600   -1.9271   -2.7468 C   0  0  0  0  0  0  0  0  0  0  0  0
   -0.4160   -1.3209   -3.3833 H   0  0  0  0  0  0  0  0  0  0  0  0
    1.1602   -2.1578   -3.3512 H   0  0  0  0  0  0  0  0  0  0  0  0
   -0.4384   -3.2306   -2.3568 C   0  0  0  0  0  0  0  0  0  0  0  0
   -0.5341   -3.8877   -3.2422 H   0  0  0  0  0  0  0  0  0  0  0  0
    0.1372   -3.7902   -1.5881 H   0  0  0  0  0  0  0  0  0  0  0  0
  1 27  1  0  0  0  0
  1 24  1  0  0  0  0
  2 49  1  0  0  0  0
  3 21  1  0  0  0  0
  5  3  1  1  0  0  0
  6  5  1  0  0  0  0
  6  7  1  0  0  0  0
  8  6  1  0  0  0  0
  9  8  1  0  0  0  0
 10  4  1  1  0  0  0
 10 11  1  0  0  0  0
 10  8  1  0  0  0  0
 11 20  1  0  0  0  0
 12 14  1  0  0  0  0
 12 11  2  0  0  0  0
 13 12  1  0  0  0  0
 14 16  2  0  0  0  0
 15 14  1  0  0  0  0
 16 17  1  0  0  0  0
 16 18  1  0  0  0  0
 18 19  1  0  0  0  0
 20 18  2  0  0  0  0
 20  5  1  0  0  0  0
 21 22  1  0  0  0  0
 21 23  1  0  0  0  0
 24 21  1  0  0  0  0
 24 25  1  0  0  0  0
 26 24  1  0  0  0  0
 27 28  1  0  0  0  0
 28 30  2  0  0  0  0
 28 29  1  0  0  0  0
 30 31  1  0  0  0  0
 32 33  1  0  0  0  0
 32 30  1  0  0  0  0
 34 32  2  0  0  0  0
 35 34  1  0  0  0  0
 36 34  1  0  0  0  0
 36 27  2  0  0  0  0
 37 36  1  0  0  0  0
 38 39  1  0  0  0  0
 38  1  1  0  0  0  0
 39 40  1  0  0  0  0
 41 42  1  0  0  0  0
 41 39  2  0  0  0  0
 43 41  1  0  0  0  0
 44 43  1  0  0  0  0
 45 43  2  0  0  0  0
 45 47  1  0  0  0  0
 46 45  1  0  0  0  0
 47 38  2  0  0  0  0
 48 47  1  0  0  0  0
 49 50  1  0  0  0  0
 50 52  2  0  0  0  0
 50 51  1  0  0  0  0
 52 53  1  0  0  0  0
 54 55  1  0  0  0  0
 54 52  1  0  0  0  0
 56 54  2  0  0  0  0
 57 56  1  0  0  0  0
 58 56  1  0  0  0  0
 58 49  2  0  0  0  0
 59 58  1  0  0  0  0
 60  2  1  0  0  0  0
 61 60  1  0  0  0  0
 61 62  1  0  0  0  0
 63 61  2  0  0  0  0
 64 63  1  0  0  0  0
 65 67  2  0  0  0  0
 65 63  1  0  0  0  0
 66 65  1  0  0  0  0
 67 69  1  0  0  0  0
 68 67  1  0  0  0  0
 69 70  1  0  0  0  0
 69 60  2  0  0  0  0
 71 74  1  0  0  0  0
 71  2  1  0  0  0  0
 72 71  1  0  0  0  0
 73 71  1  0  0  0  0
 74  4  1  0  0  0  0
 74 76  1  0  0  0  0
 75 74  1  0  0  0  0
M  END
