4
 OpenBabel05122313113D

  6  5  0  0  0  0  0  0  0  0999 V2000
    2.3831   -2.5690   -1.1683 O   0  0  0  0  0  0  0  0  0  0  0  0
    3.2238   -1.6812    0.6438 O   0  0  0  0  0  0  0  0  0  0  0  0
    2.2730   -2.1011   -0.0330 N   0  0  0  0  0  0  0  0  0  0  0  0
    0.9192   -1.9905    0.5408 C   0  0  0  0  0  3  0  0  0  0  0  0
    1.0172   -2.0347    1.6395 H   0  0  0  0  0  0  0  0  0  0  0  0
    0.3174   -2.8149    0.1216 H   0  0  0  0  0  0  0  0  0  0  0  0
  1  3  2  0  0  0  0
  3  4  1  0  0  0  0
  3  2  2  0  0  0  0
  4  5  1  0  0  0  0
  6  4  1  0  0  0  0
M  END
