3
 OpenBabel05122313113D

 51 59  0  0  1  0  0  0  0  0999 V2000
    1.3048   -0.0001   -2.2706 O   0  0  0  0  0  0  0  0  0  0  0  0
    1.0095   -0.7325   -0.1394 C   0  0  2  0  0  3  0  0  0  0  0  0
    1.0096    0.7323   -0.1394 C   0  0  1  0  0  3  0  0  0  0  0  0
    0.5760    1.0908   -1.5963 C   0  0  2  0  0  0  0  0  0  0  0  0
    0.8991    2.0742   -1.9787 H   0  0  0  0  0  0  0  0  0  0  0  0
   -0.8761    0.6873   -1.7188 C   0  0  0  0  0  0  0  0  0  0  0  0
   -0.8762   -0.6872   -1.7188 C   0  0  0  0  0  0  0  0  0  0  0  0
    0.5759   -1.0909   -1.5963 C   0  0  1  0  0  0  0  0  0  0  0  0
    0.8988   -2.0743   -1.9788 H   0  0  0  0  0  0  0  0  0  0  0  0
    0.5877   -1.5932    0.9937 C   0  0  0  0  0  0  0  0  0  0  0  0
    1.2724   -2.7797    1.3196 C   0  0  0  0  0  0  0  0  0  0  0  0
    2.1876   -3.0308    0.7616 H   0  0  0  0  0  0  0  0  0  0  0  0
    0.8055   -3.6253    2.3355 C   0  0  0  0  0  0  0  0  0  0  0  0
    1.3569   -4.5461    2.5785 H   0  0  0  0  0  0  0  0  0  0  0  0
   -0.3599   -3.2928    3.0434 C   0  0  0  0  0  0  0  0  0  0  0  0
   -0.7297   -3.9526    3.8428 H   0  0  0  0  0  0  0  0  0  0  0  0
   -1.0538   -2.1133    2.7339 C   0  0  0  0  0  0  0  0  0  0  0  0
   -1.9685   -1.8440    3.2832 H   0  0  0  0  0  0  0  0  0  0  0  0
   -0.5949   -1.2602    1.7157 C   0  0  0  0  0  0  0  0  0  0  0  0
    0.5878    1.5932    0.9937 C   0  0  0  0  0  0  0  0  0  0  0  0
   -0.5948    1.2602    1.7157 C   0  0  0  0  0  0  0  0  0  0  0  0
   -1.0536    2.1134    2.7339 C   0  0  0  0  0  0  0  0  0  0  0  0
   -1.9683    1.8442    3.2833 H   0  0  0  0  0  0  0  0  0  0  0  0
   -0.3596    3.2928    3.0433 C   0  0  0  0  0  0  0  0  0  0  0  0
   -0.7293    3.9527    3.8427 H   0  0  0  0  0  0  0  0  0  0  0  0
    0.8058    3.6252    2.3354 C   0  0  0  0  0  0  0  0  0  0  0  0
    1.3572    4.5460    2.5783 H   0  0  0  0  0  0  0  0  0  0  0  0
    1.2726    2.7795    1.3195 C   0  0  0  0  0  0  0  0  0  0  0  0
    2.1878    3.0305    0.7615 H   0  0  0  0  0  0  0  0  0  0  0  0
   -1.9870    1.5856   -1.3722 C   0  0  0  0  0  0  0  0  0  0  0  0
   -2.7739    1.2505   -0.2273 C   0  0  0  0  0  0  0  0  0  0  0  0
   -3.8156    2.1000    0.1754 C   0  0  0  0  0  0  0  0  0  0  0  0
   -4.4134    1.8360    1.0605 H   0  0  0  0  0  0  0  0  0  0  0  0
   -4.0738    3.2856   -0.5301 C   0  0  0  0  0  0  0  0  0  0  0  0
   -4.8873    3.9505   -0.2026 H   0  0  0  0  0  0  0  0  0  0  0  0
   -3.2877    3.6324   -1.6414 C   0  0  0  0  0  0  0  0  0  0  0  0
   -3.4880    4.5660   -2.1882 H   0  0  0  0  0  0  0  0  0  0  0  0
   -2.2459    2.7914   -2.0551 C   0  0  0  0  0  0  0  0  0  0  0  0
   -1.6298    3.0591   -2.9271 H   0  0  0  0  0  0  0  0  0  0  0  0
   -1.9872   -1.5853   -1.3722 C   0  0  1  0  0  3  0  0  0  0  0  0
   -2.2463   -2.7910   -2.0552 C   0  0  0  0  0  0  0  0  0  0  0  0
   -1.6302   -3.0588   -2.9272 H   0  0  0  0  0  0  0  0  0  0  0  0
   -3.2882   -3.6319   -1.6415 C   0  0  0  0  0  0  0  0  0  0  0  0
   -3.4886   -4.5655   -2.1884 H   0  0  0  0  0  0  0  0  0  0  0  0
   -4.0742   -3.2851   -0.5302 C   0  0  0  0  0  0  0  0  0  0  0  0
   -4.8878   -3.9500   -0.2028 H   0  0  0  0  0  0  0  0  0  0  0  0
   -3.8158   -2.0996    0.1753 C   0  0  0  0  0  0  0  0  0  0  0  0
   -4.4136   -1.8356    1.0604 H   0  0  0  0  0  0  0  0  0  0  0  0
   -2.7740   -1.2502   -0.2273 C   0  0  0  0  0  0  0  0  0  0  0  0
   -1.3066    0.0000    1.3401 C   0  0  1  0  0  3  0  0  0  0  0  0
   -2.3608    0.0001    0.4784 C   0  0  0  0  0  0  0  0  0  0  0  0
  1  8  1  0  0  0  0
  1  4  1  0  0  0  0
  2  3  1  0  0  0  0
  2 10  1  1  0  0  0
  3 20  1  1  0  0  0
  4  5  1  6  0  0  0
  4  3  1  0  0  0  0
  6  4  1  0  0  0  0
  6 30  1  0  0  0  0
  7  6  2  0  0  0  0
  7  8  1  0  0  0  0
  7 40  1  0  0  0  0
  8  9  1  6  0  0  0
  8  2  1  0  0  0  0
 10 11  2  0  0  0  0
 10 19  1  0  0  0  0
 11 13  1  0  0  0  0
 12 11  1  0  0  0  0
 13 14  1  0  0  0  0
 13 15  2  0  0  0  0
 15 16  1  0  0  0  0
 17 15  1  0  0  0  0
 17 18  1  0  0  0  0
 19 17  2  0  0  0  0
 20 28  2  0  0  0  0
 20 21  1  0  0  0  0
 21 22  2  0  0  0  0
 22 24  1  0  0  0  0
 22 23  1  0  0  0  0
 24 25  1  0  0  0  0
 26 27  1  0  0  0  0
 26 24  2  0  0  0  0
 28 26  1  0  0  0  0
 29 28  1  0  0  0  0
 30 31  1  0  0  0  0
 31 32  2  0  0  0  0
 31 51  1  0  0  0  0
 32 33  1  0  0  0  0
 34 35  1  0  0  0  0
 34 32  1  0  0  0  0
 36 34  2  0  0  0  0
 37 36  1  0  0  0  0
 38 36  1  0  0  0  0
 38 30  2  0  0  0  0
 39 38  1  0  0  0  0
 40 41  1  1  0  0  0
 40 49  1  0  0  0  0
 41 43  2  0  0  0  0
 42 41  1  0  0  0  0
 43 45  1  0  0  0  0
 44 43  1  0  0  0  0
 45 46  1  0  0  0  0
 45 47  2  0  0  0  0
 47 48  1  0  0  0  0
 49 47  1  0  0  0  0
 49 51  2  3  0  0  0
 50 51  1  6  0  0  0
 50 19  1  0  0  0  0
 50 21  1  0  0  0  0
M  END
