6
 OpenBabel05122313113D

 20 20  0  0  1  0  0  0  0  0999 V2000
   -3.5773   -1.2484    0.1592 F   0  0  0  0  0  0  0  0  0  0  0  0
   -1.8611   -2.4309   -0.8119 F   0  0  0  0  0  0  0  0  0  0  0  0
   -1.4249   -1.2252    1.2085 O   0  0  0  0  0  0  0  0  0  0  0  0
   -1.7604   -0.0380   -0.8070 O   0  0  0  0  0  0  0  0  0  0  0  0
   -2.2015   -1.2714   -0.0883 B   0  0  0  0  0  0  0  0  0  0  0  0
    0.4005    0.1295    2.1064 C   0  0  0  0  0  3  0  0  0  0  0  0
   -0.6827   -0.1066    1.2012 C   0  0  1  0  0  3  0  0  0  0  0  0
   -0.8779    0.6487   -0.0176 C   0  0  2  0  0  3  0  0  0  0  0  0
   -1.0586    2.1586   -0.1226 C   0  0  0  0  0  0  0  0  0  0  0  0
   -2.4932    2.5324    0.2962 C   0  0  0  0  0  0  0  0  0  0  0  0
   -0.7535    2.6502   -1.5423 C   0  0  0  0  0  0  0  0  0  0  0  0
    0.5571    1.1415    2.5137 H   0  0  0  0  0  0  0  0  0  0  0  0
    0.5770   -0.6774    2.8392 H   0  0  0  0  0  0  0  0  0  0  0  0
   -0.3524    2.6423    0.5825 H   0  0  0  0  0  0  0  0  0  0  0  0
   -3.2261    2.0190   -0.3572 H   0  0  0  0  0  0  0  0  0  0  0  0
   -2.6974    2.2110    1.3378 H   0  0  0  0  0  0  0  0  0  0  0  0
   -2.6584    3.6292    0.2289 H   0  0  0  0  0  0  0  0  0  0  0  0
   -0.9199    3.7439   -1.6398 H   0  0  0  0  0  0  0  0  0  0  0  0
    0.2962    2.4241   -1.8147 H   0  0  0  0  0  0  0  0  0  0  0  0
   -1.4131    2.1267   -2.2641 H   0  0  0  0  0  0  0  0  0  0  0  0
  2  5  1  0  0  0  0
  4  5  1  0  0  0  0
  4  8  1  0  0  0  0
  5  1  1  0  0  0  0
  5  3  1  0  0  0  0
  6 12  1  0  0  0  0
  6 13  1  0  0  0  0
  7  3  1  0  0  0  0
  7  6  1  6  0  0  0
  8  9  1  1  0  0  0
  8  7  1  0  0  0  0
  9 10  1  0  0  0  0
  9 14  1  0  0  0  0
 10 16  1  0  0  0  0
 11  9  1  0  0  0  0
 15 10  1  0  0  0  0
 17 10  1  0  0  0  0
 18 11  1  0  0  0  0
 19 11  1  0  0  0  0
 20 11  1  0  0  0  0
M  END
