1
 OpenBabel05122313113D

 44 47  0  0  0  0  0  0  0  0999 V2000
   -0.8033   -1.0175   -0.5067 C   0  0  0  0  0  2  0  0  0  0  0  0
    0.0201   -2.2880   -0.6236 C   0  0  0  0  0  0  0  0  0  0  0  0
   -0.0656   -2.9312    0.2731 H   0  0  0  0  0  0  0  0  0  0  0  0
   -0.4041   -2.8715   -1.4769 H   0  0  0  0  0  0  0  0  0  0  0  0
    1.4056   -1.8715   -0.8775 N   0  0  0  0  0  0  0  0  0  0  0  0
    1.2843   -0.5775   -1.4971 C   0  0  0  0  0  0  0  0  0  0  0  0
    1.2089   -0.6306   -2.6075 H   0  0  0  0  0  0  0  0  0  0  0  0
    2.1099    0.1088   -1.2245 H   0  0  0  0  0  0  0  0  0  0  0  0
   -0.0378   -0.0540   -0.9983 N   0  0  0  0  0  0  0  0  0  0  0  0
    2.2545   -1.8692    0.3264 C   0  0  0  0  0  0  0  0  0  0  0  0
    2.1752   -2.8838    0.7716 H   0  0  0  0  0  0  0  0  0  0  0  0
    1.9002   -1.1467    1.1019 H   0  0  0  0  0  0  0  0  0  0  0  0
    3.7006   -1.5775   -0.0113 C   0  0  0  0  0  0  0  0  0  0  0  0
    4.3532   -2.2973   -1.0334 C   0  0  0  0  0  0  0  0  0  0  0  0
    3.7884   -3.0584   -1.5931 H   0  0  0  0  0  0  0  0  0  0  0  0
    5.6945   -2.0347   -1.3426 C   0  0  0  0  0  0  0  0  0  0  0  0
    6.1943   -2.6050   -2.1407 H   0  0  0  0  0  0  0  0  0  0  0  0
    6.4022   -1.0457   -0.6371 C   0  0  0  0  0  0  0  0  0  0  0  0
    7.4552   -0.8393   -0.8822 H   0  0  0  0  0  0  0  0  0  0  0  0
    5.7577   -0.3199    0.3752 C   0  0  0  0  0  0  0  0  0  0  0  0
    6.3004    0.4636    0.9261 H   0  0  0  0  0  0  0  0  0  0  0  0
    4.4129   -0.5830    0.6834 C   0  0  0  0  0  0  0  0  0  0  0  0
    3.9030   -0.0017    1.4665 H   0  0  0  0  0  0  0  0  0  0  0  0
   -0.4285    1.2981   -1.2631 C   0  0  0  0  0  0  0  0  0  0  0  0
   -1.3396    1.5374   -2.3058 C   0  0  0  0  0  0  0  0  0  0  0  0
   -1.7847    0.6790   -2.8292 H   0  0  0  0  0  0  0  0  0  0  0  0
   -1.6678    2.8512   -2.6611 C   0  0  0  0  0  0  0  0  0  0  0  0
   -2.3896    3.0352   -3.4701 H   0  0  0  0  0  0  0  0  0  0  0  0
   -1.0714    3.9235   -1.9797 C   0  0  0  0  0  0  0  0  0  0  0  0
   -1.3221    4.9594   -2.2522 H   0  0  0  0  0  0  0  0  0  0  0  0
   -0.1735    3.6785   -0.9326 C   0  0  0  0  0  0  0  0  0  0  0  0
    0.2588    4.5190   -0.3694 H   0  0  0  0  0  0  0  0  0  0  0  0
    0.1594    2.3641   -0.5393 C   0  0  0  0  0  0  0  0  0  0  0  0
    1.0439    2.1406    0.6345 C   0  0  0  0  0  0  0  0  0  0  0  0
    2.2796    2.8161    0.7442 C   0  0  0  0  0  0  0  0  0  0  0  0
    2.6184    3.4574   -0.0839 H   0  0  0  0  0  0  0  0  0  0  0  0
    3.0745    2.6714    1.8902 C   0  0  0  0  0  0  0  0  0  0  0  0
    4.0360    3.2027    1.9580 H   0  0  0  0  0  0  0  0  0  0  0  0
    2.6468    1.8500    2.9460 C   0  0  0  0  0  0  0  0  0  0  0  0
    3.2672    1.7414    3.8484 H   0  0  0  0  0  0  0  0  0  0  0  0
    1.4216    1.1701    2.8459 C   0  0  0  0  0  0  0  0  0  0  0  0
    1.0727    0.5345    3.6738 H   0  0  0  0  0  0  0  0  0  0  0  0
    0.6252    1.3108    1.7002 C   0  0  0  0  0  0  0  0  0  0  0  0
   -0.3503    0.8032    1.6417 H   0  0  0  0  0  0  0  0  0  0  0  0
  2  1  1  0  0  0  0
  2  3  1  0  0  0  0
  4  2  1  0  0  0  0
  5  2  1  0  0  0  0
  5 10  1  0  0  0  0
  6  8  1  0  0  0  0
  6  9  1  0  0  0  0
  6  5  1  0  0  0  0
  7  6  1  0  0  0  0
  9  1  1  0  0  0  0
 10 11  1  0  0  0  0
 10 12  1  0  0  0  0
 13 10  1  0  0  0  0
 13 22  1  0  0  0  0
 14 13  2  0  0  0  0
 15 14  1  0  0  0  0
 16 14  1  0  0  0  0
 16 18  2  0  0  0  0
 17 16  1  0  0  0  0
 18 20  1  0  0  0  0
 19 18  1  0  0  0  0
 20 22  2  0  0  0  0
 20 21  1  0  0  0  0
 22 23  1  0  0  0  0
 24  9  1  0  0  0  0
 24 33  1  0  0  0  0
 25 24  2  0  0  0  0
 26 25  1  0  0  0  0
 27 25  1  0  0  0  0
 27 29  2  0  0  0  0
 28 27  1  0  0  0  0
 29 31  1  0  0  0  0
 30 29  1  0  0  0  0
 31 33  2  0  0  0  0
 31 32  1  0  0  0  0
 33 34  1  0  0  0  0
 34 35  2  0  0  0  0
 34 43  1  0  0  0  0
 35 37  1  0  0  0  0
 36 35  1  0  0  0  0
 37 38  1  0  0  0  0
 37 39  2  0  0  0  0
 39 40  1  0  0  0  0
 41 39  1  0  0  0  0
 41 42  1  0  0  0  0
 43 41  2  0  0  0  0
 44 43  1  0  0  0  0
M  END
