2
 OpenBabel05122313113D

 24 24  0  0  0  0  0  0  0  0999 V2000
   -1.7627    0.1843   -1.1816 C   0  0  0  0  0  3  0  0  0  0  0  0
   -1.6172    1.5803   -0.9013 C   0  0  0  0  0  3  0  0  0  0  0  0
   -0.4267    2.3161   -1.2502 C   0  0  0  0  0  3  0  0  0  0  0  0
    0.2284    2.0977   -2.6067 C   0  0  0  0  0  0  0  0  0  0  0  0
   -0.3254    3.7486   -0.7611 C   0  0  0  0  0  0  0  0  0  0  0  0
   -2.9211   -0.6312   -0.7620 C   0  0  0  0  0  0  0  0  0  0  0  0
   -2.9448   -2.0088   -1.0898 C   0  0  0  0  0  0  0  0  0  0  0  0
   -4.0049   -2.8320   -0.6913 C   0  0  0  0  0  0  0  0  0  0  0  0
   -5.0803   -2.3014    0.0411 C   0  0  0  0  0  0  0  0  0  0  0  0
   -5.0799   -0.9348    0.3637 C   0  0  0  0  0  0  0  0  0  0  0  0
   -4.0169   -0.1109   -0.0327 C   0  0  0  0  0  0  0  0  0  0  0  0
   -1.2355   -0.2181   -2.0609 H   0  0  0  0  0  0  0  0  0  0  0  0
   -2.3812    2.0845   -0.2905 H   0  0  0  0  0  0  0  0  0  0  0  0
    0.2473    1.0352   -2.9153 H   0  0  0  0  0  0  0  0  0  0  0  0
    1.2768    2.4532   -2.6056 H   0  0  0  0  0  0  0  0  0  0  0  0
   -0.3302    2.6719   -3.3813 H   0  0  0  0  0  0  0  0  0  0  0  0
    0.7335    4.0389   -0.6010 H   0  0  0  0  0  0  0  0  0  0  0  0
   -0.8703    3.9081    0.1907 H   0  0  0  0  0  0  0  0  0  0  0  0
   -0.7455    4.4541   -1.5137 H   0  0  0  0  0  0  0  0  0  0  0  0
   -2.1012   -2.4338   -1.6556 H   0  0  0  0  0  0  0  0  0  0  0  0
   -3.9926   -3.9004   -0.9565 H   0  0  0  0  0  0  0  0  0  0  0  0
   -5.9153   -2.9467    0.3526 H   0  0  0  0  0  0  0  0  0  0  0  0
   -5.9215   -0.5016    0.9263 H   0  0  0  0  0  0  0  0  0  0  0  0
   -4.0465    0.9589    0.2244 H   0  0  0  0  0  0  0  0  0  0  0  0
  1  2  1  0  0  0  0
  1  6  1  0  0  0  0
  2 13  1  0  0  0  0
  3  2  1  0  0  0  0
  3  5  1  0  0  0  0
  4 15  1  0  0  0  0
  4  3  1  0  0  0  0
  5 17  1  0  0  0  0
  5 18  1  0  0  0  0
  6 11  1  0  0  0  0
  7  6  2  0  0  0  0
  7  8  1  0  0  0  0
  8  9  2  0  0  0  0
  9 22  1  0  0  0  0
  9 10  1  0  0  0  0
 10 23  1  0  0  0  0
 11 24  1  0  0  0  0
 11 10  2  0  0  0  0
 12  1  1  0  0  0  0
 14  4  1  0  0  0  0
 16  4  1  0  0  0  0
 19  5  1  0  0  0  0
 20  7  1  0  0  0  0
 21  8  1  0  0  0  0
M  END
