13
 OpenBabel05122313113D

 14 14  0  0  0  0  0  0  0  0999 V2000
   -2.7118   -3.0842    0.3247 C   0  0  0  0  0  3  0  0  0  0  0  0
   -2.8412   -3.4994   -0.6861 H   0  0  0  0  0  0  0  0  0  0  0  0
   -3.5210   -1.9357    0.6348 C   0  0  0  0  0  0  0  0  0  0  0  0
   -4.1708   -1.5767   -0.1778 H   0  0  0  0  0  0  0  0  0  0  0  0
   -3.4885   -1.1079    1.8093 C   0  0  0  0  0  0  0  0  0  0  0  0
   -4.1173   -0.2061    1.7689 H   0  0  0  0  0  0  0  0  0  0  0  0
   -2.6393   -1.2234    2.9659 C   0  0  0  0  0  0  0  0  0  0  0  0
   -2.7299   -0.4150    3.7066 H   0  0  0  0  0  0  0  0  0  0  0  0
   -1.6118   -2.1966    3.2331 C   0  0  0  0  0  0  0  0  0  0  0  0
   -1.0175   -2.0222    4.1428 H   0  0  0  0  0  0  0  0  0  0  0  0
   -1.1814   -3.2952    2.4103 C   0  0  0  0  0  3  0  0  0  0  0  0
   -0.2976   -3.8423    2.7713 H   0  0  0  0  0  0  0  0  0  0  0  0
   -1.6699   -3.6897    1.1146 C   0  0  0  0  0  3  0  0  0  0  0  0
   -1.1137   -4.5025    0.6238 H   0  0  0  0  0  0  0  0  0  0  0  0
  1  3  1  0  0  0  0
  1 13  1  0  0  0  0
  2  1  1  0  0  0  0
  3  5  2  0  0  0  0
  4  3  1  0  0  0  0
  5  7  1  0  0  0  0
  6  5  1  0  0  0  0
  7  9  2  0  0  0  0
  7  8  1  0  0  0  0
  9 10  1  0  0  0  0
 11 12  1  0  0  0  0
 11  9  1  0  0  0  0
 13 11  1  0  0  0  0
 14 13  1  0  0  0  0
M  END
