28
 OpenBabel05122313113D

 40 42  0  0  0  0  0  0  0  0999 V2000
   -0.5162    2.7649   -0.0038 C   0  0  0  0  0  0  0  0  0  0  0  0
    0.0589    3.2272   -1.2071 C   0  0  0  0  0  0  0  0  0  0  0  0
   -0.8241    2.7711    2.5181 C   0  0  0  0  0  0  0  0  0  0  0  0
   -0.4747    3.3415    3.3989 H   0  0  0  0  0  0  0  0  0  0  0  0
   -0.6349    1.6891    2.6987 H   0  0  0  0  0  0  0  0  0  0  0  0
   -1.9232    2.8983    2.4353 H   0  0  0  0  0  0  0  0  0  0  0  0
    1.1083    4.1560   -1.0986 C   0  0  0  0  0  0  0  0  0  0  0  0
    1.5775    4.5285   -2.0231 H   0  0  0  0  0  0  0  0  0  0  0  0
    1.5667    4.6224    0.1477 C   0  0  0  0  0  0  0  0  0  0  0  0
    2.7273    5.5814    0.2316 C   0  0  0  0  0  0  0  0  0  0  0  0
    2.7710    6.2496   -0.6512 H   0  0  0  0  0  0  0  0  0  0  0  0
    3.6913    5.0296    0.2702 H   0  0  0  0  0  0  0  0  0  0  0  0
    2.6746    6.2099    1.1422 H   0  0  0  0  0  0  0  0  0  0  0  0
    0.9257    4.1636    1.3131 C   0  0  0  0  0  0  0  0  0  0  0  0
    1.2497    4.5430    2.2952 H   0  0  0  0  0  0  0  0  0  0  0  0
   -0.1300    3.2354    1.2689 C   0  0  0  0  0  0  0  0  0  0  0  0
   -0.4350    2.7465   -2.5433 C   0  0  0  0  0  0  0  0  0  0  0  0
    0.0491    3.3041   -3.3667 H   0  0  0  0  0  0  0  0  0  0  0  0
   -1.5331    2.8747   -2.6350 H   0  0  0  0  0  0  0  0  0  0  0  0
   -0.2130    1.6638   -2.6719 H   0  0  0  0  0  0  0  0  0  0  0  0
   -1.5700    1.7813   -0.0863 N   0  0  0  0  0  0  0  0  0  0  0  0
   -2.8302    2.2043   -0.2281 N   0  0  0  0  0  2  0  0  0  0  0  0
   -3.5313    1.0839   -0.3002 N   0  0  0  0  0  0  0  0  0  0  0  0
   -4.9699    1.1849   -0.4938 C   0  0  0  0  0  0  0  0  0  0  0  0
   -5.4983    1.1638    0.4790 H   0  0  0  0  0  0  0  0  0  0  0  0
   -5.3095    0.3342   -1.1116 H   0  0  0  0  0  0  0  0  0  0  0  0
   -5.1773    2.1414   -1.0044 H   0  0  0  0  0  0  0  0  0  0  0  0
   -1.4278    0.4123   -0.0619 C   0  0  0  0  0  3  0  0  0  0  0  0
   -2.7504   -0.0489   -0.2054 C   0  0  0  0  0  0  0  0  0  0  0  0
   -3.2496   -1.4272   -0.2828 C   0  0  0  0  0  0  0  0  0  0  0  0
   -2.5397   -2.3607   -1.0735 C   0  0  0  0  0  0  0  0  0  0  0  0
   -1.6474   -2.0260   -1.6266 H   0  0  0  0  0  0  0  0  0  0  0  0
   -2.9787   -3.6884   -1.1505 C   0  0  0  0  0  0  0  0  0  0  0  0
   -2.4210   -4.4064   -1.7705 H   0  0  0  0  0  0  0  0  0  0  0  0
   -4.1211   -4.1029   -0.4462 C   0  0  0  0  0  0  0  0  0  0  0  0
   -4.4605   -5.1481   -0.5086 H   0  0  0  0  0  0  0  0  0  0  0  0
   -4.8255   -3.1824    0.3456 C   0  0  0  0  0  0  0  0  0  0  0  0
   -5.7103   -3.5052    0.9147 H   0  0  0  0  0  0  0  0  0  0  0  0
   -4.3923   -1.8521    0.4311 C   0  0  0  0  0  0  0  0  0  0  0  0
   -4.9233   -1.1504    1.0910 H   0  0  0  0  0  0  0  0  0  0  0  0
  1 16  1  0  0  0  0
  2  7  1  0  0  0  0
  2  1  2  0  0  0  0
  3  5  1  0  0  0  0
  3  4  1  0  0  0  0
  6  3  1  0  0  0  0
  7  9  2  0  0  0  0
  8  7  1  0  0  0  0
  9 10  1  0  0  0  0
  9 14  1  0  0  0  0
 10 12  1  0  0  0  0
 10 13  1  0  0  0  0
 11 10  1  0  0  0  0
 14 15  1  0  0  0  0
 16 14  2  0  0  0  0
 16  3  1  0  0  0  0
 17  2  1  0  0  0  0
 18 17  1  0  0  0  0
 19 17  1  0  0  0  0
 20 17  1  0  0  0  0
 21 28  1  0  0  0  0
 21  1  1  0  0  0  0
 22 21  1  0  0  0  0
 23 22  1  0  0  0  0
 23 29  1  0  0  0  0
 24 23  1  0  0  0  0
 24 25  1  0  0  0  0
 26 24  1  0  0  0  0
 27 24  1  0  0  0  0
 29 28  2  0  0  0  0
 30 29  1  0  0  0  0
 30 39  1  0  0  0  0
 31 30  2  0  0  0  0
 32 31  1  0  0  0  0
 33 31  1  0  0  0  0
 33 35  2  0  0  0  0
 34 33  1  0  0  0  0
 35 37  1  0  0  0  0
 36 35  1  0  0  0  0
 37 39  2  0  0  0  0
 37 38  1  0  0  0  0
 39 40  1  0  0  0  0
M  END
