4
 OpenBabel05122313113D

 10  9  0  0  0  0  0  0  0  0999 V2000
    0.6114   -0.0990   -2.4256 C   0  0  0  0  0  3  0  0  0  0  0  0
    2.0067   -0.1452   -2.0548 C   0  0  0  0  0  0  0  0  0  0  0  0
    2.5367   -1.1075   -1.1662 C   0  0  0  0  0  0  0  0  0  0  0  0
    1.7040   -2.1257   -0.5616 C   0  0  0  0  0  3  0  0  0  0  0  0
    0.3092    0.7160   -3.1023 H   0  0  0  0  0  0  0  0  0  0  0  0
    0.1000   -1.0536   -2.6484 H   0  0  0  0  0  0  0  0  0  0  0  0
    2.6607    0.6986   -2.3350 H   0  0  0  0  0  0  0  0  0  0  0  0
    3.5759   -0.9721   -0.8259 H   0  0  0  0  0  0  0  0  0  0  0  0
    2.1908   -2.7773    0.1832 H   0  0  0  0  0  0  0  0  0  0  0  0
    1.0133   -2.6803   -1.2230 H   0  0  0  0  0  0  0  0  0  0  0  0
  1  2  1  0  0  0  0
  2  3  2  0  0  0  0
  3  8  1  0  0  0  0
  3  4  1  0  0  0  0
  4  9  1  0  0  0  0
  5  1  1  0  0  0  0
  6  1  1  0  0  0  0
  7  2  1  0  0  0  0
 10  4  1  0  0  0  0
M  END
