15
 OpenBabel05122313113D

 18 18  0  0  0  0  0  0  0  0999 V2000
   -1.1298   -0.2326    2.2493 O   0  0  0  0  0  1  0  0  0  0  0  0
    2.5754   -0.6278    0.4585 C   0  0  0  0  0  0  0  0  0  0  0  0
    2.9481   -1.6127   -0.4910 C   0  0  0  0  0  0  0  0  0  0  0  0
    2.2424   -2.4176   -0.7412 H   0  0  0  0  0  0  0  0  0  0  0  0
    4.2018   -1.5802   -1.1160 C   0  0  0  0  0  0  0  0  0  0  0  0
    4.4626   -2.3603   -1.8481 H   0  0  0  0  0  0  0  0  0  0  0  0
    5.1234   -0.5629   -0.8187 C   0  0  0  0  0  0  0  0  0  0  0  0
    6.1060   -0.5391   -1.3136 H   0  0  0  0  0  0  0  0  0  0  0  0
    4.7782    0.4187    0.1256 C   0  0  0  0  0  0  0  0  0  0  0  0
    5.4939    1.2158    0.3800 H   0  0  0  0  0  0  0  0  0  0  0  0
    3.5269    0.3822    0.7531 C   0  0  0  0  0  0  0  0  0  0  0  0
    3.2711    1.1471    1.5041 H   0  0  0  0  0  0  0  0  0  0  0  0
    1.2702   -0.6036    1.1273 C   0  0  0  0  0  3  0  0  0  0  0  0
    1.2059    0.0946    1.9809 H   0  0  0  0  0  0  0  0  0  0  0  0
    0.3801   -1.7257    1.2184 C   0  0  0  0  0  3  0  0  0  0  0  0
    0.5895   -2.7232    0.8009 H   0  0  0  0  0  0  0  0  0  0  0  0
   -0.8764   -1.4446    1.8476 C   0  0  0  0  0  3  0  0  0  0  0  0
   -1.6201   -2.2625    2.0111 H   0  0  0  0  0  0  0  0  0  0  0  0
  2 11  1  0  0  0  0
  2 13  1  0  0  0  0
  3  2  2  0  0  0  0
  4  3  1  0  0  0  0
  5  7  2  0  0  0  0
  5  3  1  0  0  0  0
  6  5  1  0  0  0  0
  7  9  1  0  0  0  0
  8  7  1  0  0  0  0
  9 10  1  0  0  0  0
  9 11  2  0  0  0  0
 11 12  1  0  0  0  0
 13 15  1  0  0  0  0
 13 14  1  0  0  0  0
 15 17  1  0  0  0  0
 16 15  1  0  0  0  0
 17 18  1  0  0  0  0
 17  1  1  0  0  0  0
M  END
