5
 OpenBabel05122313113D

 21 21  0  0  1  0  0  0  0  0999 V2000
    2.1564    0.5861   -0.8633 O   0  0  0  0  0  0  0  0  0  0  0  0
    0.6712    1.9920    0.2251 O   0  0  0  0  0  0  0  0  0  0  0  0
   -1.2318    3.1097    0.8444 O   0  0  0  0  0  0  0  0  0  0  0  0
   -0.3843   -0.6807   -2.0505 C   0  0  0  0  0  3  0  0  0  0  0  0
   -0.2468    0.5750   -1.3946 C   0  0  2  0  0  3  0  0  0  0  0  0
    0.8930    0.8654   -0.5549 C   0  0  1  0  0  3  0  0  0  0  0  0
   -1.3415    1.1683   -0.6538 C   0  0  1  0  0  3  0  0  0  0  0  0
   -0.7315    2.2085    0.2221 C   0  0  0  0  0  0  0  0  0  0  0  0
   -2.7773    1.2960   -1.0610 C   0  0  0  0  0  0  0  0  0  0  0  0
    3.0928    0.5674    0.2423 C   0  0  0  0  0  0  0  0  0  0  0  0
    4.3887   -0.0353   -0.2528 C   0  0  0  0  0  0  0  0  0  0  0  0
   -1.3292   -0.9047   -2.5662 H   0  0  0  0  0  0  0  0  0  0  0  0
    0.5149   -1.1627   -2.4617 H   0  0  0  0  0  0  0  0  0  0  0  0
   -3.1144    0.4347   -1.6675 H   0  0  0  0  0  0  0  0  0  0  0  0
   -3.4258    1.3695   -0.1671 H   0  0  0  0  0  0  0  0  0  0  0  0
   -2.9329    2.2228   -1.6535 H   0  0  0  0  0  0  0  0  0  0  0  0
    3.2233    1.6044    0.6161 H   0  0  0  0  0  0  0  0  0  0  0  0
    2.6431   -0.0369    1.0619 H   0  0  0  0  0  0  0  0  0  0  0  0
    4.8019    0.5513   -1.0968 H   0  0  0  0  0  0  0  0  0  0  0  0
    5.1360   -0.0408    0.5647 H   0  0  0  0  0  0  0  0  0  0  0  0
    4.2326   -1.0789   -0.5899 H   0  0  0  0  0  0  0  0  0  0  0  0
  1 10  1  0  0  0  0
  5  4  1  1  0  0  0
  5  7  1  0  0  0  0
  5  6  1  0  0  0  0
  6  1  1  6  0  0  0
  6  2  1  0  0  0  0
  7  9  1  6  0  0  0
  7  8  1  0  0  0  0
  8  2  1  0  0  0  0
  8  3  2  0  0  0  0
  9 15  1  0  0  0  0
 10 17  1  0  0  0  0
 10 18  1  0  0  0  0
 11 10  1  0  0  0  0
 11 20  1  0  0  0  0
 12  4  1  0  0  0  0
 13  4  1  0  0  0  0
 14  9  1  0  0  0  0
 16  9  1  0  0  0  0
 19 11  1  0  0  0  0
 21 11  1  0  0  0  0
M  END
