3
 OpenBabel05122313113D

 17 18  0  0  0  0  0  0  0  0999 V2000
    0.2983   -0.8447    2.5737 C   0  0  0  0  0  0  0  0  0  0  0  0
    1.2578   -1.7664    2.0387 C   0  0  0  0  0  3  0  0  0  0  0  0
    0.8636   -2.9293    1.3148 C   0  0  0  0  0  3  0  0  0  0  0  0
   -0.5304   -3.1729    1.0675 C   0  0  0  0  0  0  0  0  0  0  0  0
   -1.4903   -2.2869    1.6080 C   0  0  0  0  0  0  0  0  0  0  0  0
   -2.9954   -2.3574    1.6328 C   0  0  0  0  0  0  0  0  0  0  0  0
   -3.3771   -1.1076    2.3815 C   0  0  0  0  0  0  0  0  0  0  0  0
   -2.2841   -0.3992    2.7721 C   0  0  0  0  0  0  0  0  0  0  0  0
   -1.0758   -1.1073    2.3425 C   0  0  0  0  0  0  0  0  0  0  0  0
    0.6169    0.0314    3.1542 H   0  0  0  0  0  0  0  0  0  0  0  0
    2.3332   -1.5806    2.1799 H   0  0  0  0  0  0  0  0  0  0  0  0
    1.6287   -3.6120    0.9229 H   0  0  0  0  0  0  0  0  0  0  0  0
   -0.8438   -4.0537    0.4891 H   0  0  0  0  0  0  0  0  0  0  0  0
   -3.4554   -2.4072    0.6233 H   0  0  0  0  0  0  0  0  0  0  0  0
   -3.3358   -3.2727    2.1687 H   0  0  0  0  0  0  0  0  0  0  0  0
   -4.4210   -0.8298    2.5789 H   0  0  0  0  0  0  0  0  0  0  0  0
   -2.2815    0.5466    3.3290 H   0  0  0  0  0  0  0  0  0  0  0  0
  1 10  1  0  0  0  0
  2 11  1  0  0  0  0
  2  1  1  0  0  0  0
  3  2  1  0  0  0  0
  4  3  1  0  0  0  0
  4  5  2  0  0  0  0
  5  6  1  0  0  0  0
  5  9  1  0  0  0  0
  6 15  1  0  0  0  0
  6  7  1  0  0  0  0
  7 16  1  0  0  0  0
  7  8  2  0  0  0  0
  8 17  1  0  0  0  0
  9  1  2  0  0  0  0
  9  8  1  0  0  0  0
 12  3  1  0  0  0  0
 13  4  1  0  0  0  0
 14  6  1  0  0  0  0
M  END
