3
 OpenBabel05122313113D

 13 12  0  0  0  0  0  0  0  0999 V2000
   -3.5999   -0.1930   -0.1357 S   0  0  0  0  0  0  0  0  0  0  0  0
   -4.9486   -0.8046   -0.1152 O   0  0  0  0  0  1  0  0  0  0  0  0
   -2.2190   -1.2730    0.0428 C   0  0  0  0  0  3  0  0  0  0  0  0
   -2.3621   -2.0052   -0.7818 H   0  0  0  0  0  0  0  0  0  0  0  0
   -2.4309   -1.7987    0.9996 H   0  0  0  0  0  0  0  0  0  0  0  0
   -3.4593    1.0516    1.1619 C   0  0  0  0  0  0  0  0  0  0  0  0
   -4.3211    1.7326    1.0311 H   0  0  0  0  0  0  0  0  0  0  0  0
   -2.4872    1.5732    1.0990 H   0  0  0  0  0  0  0  0  0  0  0  0
   -3.5538    0.4994    2.1161 H   0  0  0  0  0  0  0  0  0  0  0  0
   -3.3504    0.7178   -1.6719 C   0  0  0  0  0  0  0  0  0  0  0  0
   -4.2152    1.4003   -1.7713 H   0  0  0  0  0  0  0  0  0  0  0  0
   -3.3704   -0.0411   -2.4769 H   0  0  0  0  0  0  0  0  0  0  0  0
   -2.3833    1.2520   -1.6532 H   0  0  0  0  0  0  0  0  0  0  0  0
  1  2  1  0  0  0  0
  1  3  1  0  0  0  0
  1  6  1  0  0  0  0
  3  5  1  0  0  0  0
  4  3  1  0  0  0  0
  6  9  1  0  0  0  0
  7  6  1  0  0  0  0
  8  6  1  0  0  0  0
 10 13  1  0  0  0  0
 10  1  1  0  0  0  0
 11 10  1  0  0  0  0
 12 10  1  0  0  0  0
M  END
