6
 OpenBabel05122313113D

 40 42  0  0  0  0  0  0  0  0999 V2000
    6.4008   -2.8768   -0.9727 O   0  0  0  0  0  0  0  0  0  0  0  0
    7.6733   -1.1048   -0.8150 O   0  0  0  0  0  0  0  0  0  0  0  0
   -0.9344   -0.3136    1.9964 N   0  0  0  0  0  0  0  0  0  0  0  0
    0.9997    0.6285    1.7673 N   0  0  0  0  0  0  0  0  0  0  0  0
    6.5973   -1.6920   -0.7023 N   0  0  0  0  0  0  0  0  0  0  0  0
   -0.1810    0.4019    1.1023 C   0  0  0  0  0  2  0  0  0  0  0  0
    0.9873    0.0593    3.0363 C   0  0  0  0  0  0  0  0  0  0  0  0
    1.8387    0.1271    3.7193 H   0  0  0  0  0  0  0  0  0  0  0  0
   -0.2393   -0.5337    3.1776 C   0  0  0  0  0  0  0  0  0  0  0  0
   -0.6787   -1.0785    4.0185 H   0  0  0  0  0  0  0  0  0  0  0  0
    2.0942    1.4008    1.2110 C   0  0  0  0  0  0  0  0  0  0  0  0
    2.4184    2.1614    1.9503 H   0  0  0  0  0  0  0  0  0  0  0  0
    1.6510    1.9460    0.3458 H   0  0  0  0  0  0  0  0  0  0  0  0
    3.2698    0.5677    0.7528 C   0  0  0  0  0  0  0  0  0  0  0  0
    4.5350    1.1737    0.6022 C   0  0  0  0  0  0  0  0  0  0  0  0
    4.6652    2.2355    0.8638 H   0  0  0  0  0  0  0  0  0  0  0  0
    5.6272    0.4435    0.1232 C   0  0  0  0  0  0  0  0  0  0  0  0
    6.6224    0.8898   -0.0032 H   0  0  0  0  0  0  0  0  0  0  0  0
    5.4431   -0.9078   -0.1996 C   0  0  0  0  0  0  0  0  0  0  0  0
    4.2015   -1.5393   -0.0563 C   0  0  0  0  0  0  0  0  0  0  0  0
    4.1113   -2.6008   -0.3225 H   0  0  0  0  0  0  0  0  0  0  0  0
    3.1173   -0.7942    0.4205 C   0  0  0  0  0  0  0  0  0  0  0  0
    2.1341   -1.2729    0.5374 H   0  0  0  0  0  0  0  0  0  0  0  0
   -2.3218   -0.7066    1.7480 C   0  0  0  0  0  0  0  0  0  0  0  0
   -2.8537    0.2113    1.4225 H   0  0  0  0  0  0  0  0  0  0  0  0
   -2.7592   -1.0297    2.7126 H   0  0  0  0  0  0  0  0  0  0  0  0
   -2.4459   -1.8048    0.6829 C   0  0  0  0  0  0  0  0  0  0  0  0
   -2.0728   -2.7715    1.0797 H   0  0  0  0  0  0  0  0  0  0  0  0
   -1.7812   -1.5073   -0.1547 H   0  0  0  0  0  0  0  0  0  0  0  0
   -3.8581   -1.9450    0.1645 C   0  0  0  0  0  0  0  0  0  0  0  0
   -4.4677   -0.8631   -0.5098 C   0  0  0  0  0  0  0  0  0  0  0  0
   -3.9094    0.0791   -0.6416 H   0  0  0  0  0  0  0  0  0  0  0  0
   -5.7748   -0.9772   -1.0034 C   0  0  0  0  0  0  0  0  0  0  0  0
   -6.2348   -0.1251   -1.5268 H   0  0  0  0  0  0  0  0  0  0  0  0
   -6.4958   -2.1708   -0.8316 C   0  0  0  0  0  0  0  0  0  0  0  0
   -7.5218   -2.2588   -1.2202 H   0  0  0  0  0  0  0  0  0  0  0  0
   -5.9007   -3.2496   -0.1606 C   0  0  0  0  0  0  0  0  0  0  0  0
   -6.4582   -4.1884   -0.0202 H   0  0  0  0  0  0  0  0  0  0  0  0
   -4.5919   -3.1343    0.3349 C   0  0  0  0  0  0  0  0  0  0  0  0
   -4.1273   -3.9847    0.8598 H   0  0  0  0  0  0  0  0  0  0  0  0
  1  5  2  0  0  0  0
  2  5  2  0  0  0  0
  3  9  1  0  0  0  0
  4  7  1  0  0  0  0
  5 19  1  0  0  0  0
  6  4  1  0  0  0  0
  6  3  1  0  0  0  0
  7  9  2  0  0  0  0
  7  8  1  0  0  0  0
  9 10  1  0  0  0  0
 11  4  1  0  0  0  0
 11 12  1  0  0  0  0
 13 11  1  0  0  0  0
 14 11  1  0  0  0  0
 15 14  1  0  0  0  0
 15 16  1  0  0  0  0
 17 15  2  0  0  0  0
 18 17  1  0  0  0  0
 19 20  2  0  0  0  0
 19 17  1  0  0  0  0
 20 22  1  0  0  0  0
 21 20  1  0  0  0  0
 22 23  1  0  0  0  0
 22 14  2  0  0  0  0
 24  3  1  0  0  0  0
 24 26  1  0  0  0  0
 25 24  1  0  0  0  0
 27 28  1  0  0  0  0
 27 24  1  0  0  0  0
 29 27  1  0  0  0  0
 30 39  1  0  0  0  0
 30 27  1  0  0  0  0
 31 30  2  0  0  0  0
 32 31  1  0  0  0  0
 33 35  2  0  0  0  0
 33 31  1  0  0  0  0
 34 33  1  0  0  0  0
 35 37  1  0  0  0  0
 36 35  1  0  0  0  0
 37 38  1  0  0  0  0
 37 39  2  0  0  0  0
 39 40  1  0  0  0  0
M  END
