3
 OpenBabel05122313113D

 69 69  0  0  0  0  0  0  0  0999 V2000
   -2.3114   -0.0018    0.1801 P   0  0  0  0  0  0  0  0  0  0  0  0
    2.3344   -0.0399   -0.0107 P   0  0  0  0  0  0  0  0  0  0  0  0
    0.0234    1.6947   -0.3837 C   0  0  0  0  0  3  0  0  0  0  0  0
   -1.1567    2.4868   -0.2229 C   0  0  0  0  0  0  0  0  0  0  0  0
   -1.1389    3.8701   -0.4836 C   0  0  0  0  0  0  0  0  0  0  0  0
    0.0455    4.5110   -0.8689 C   0  0  0  0  0  0  0  0  0  0  0  0
    1.2286    3.7663   -0.9748 C   0  0  0  0  0  0  0  0  0  0  0  0
    1.2299    2.3801   -0.7372 C   0  0  0  0  0  0  0  0  0  0  0  0
    2.5280    1.6120   -0.8426 C   0  0  0  0  0  0  0  0  0  0  0  0
   -2.4285    1.8542    0.2959 C   0  0  0  0  0  0  0  0  0  0  0  0
   -3.0193   -0.6471    1.8299 C   0  0  0  0  0  0  0  0  0  0  0  0
   -4.4309   -0.1365    2.1515 C   0  0  0  0  0  0  0  0  0  0  0  0
   -2.9813   -2.1864    1.8140 C   0  0  0  0  0  0  0  0  0  0  0  0
   -2.0302   -0.1528    2.9066 C   0  0  0  0  0  0  0  0  0  0  0  0
   -3.4072   -0.4120   -1.3350 C   0  0  0  0  0  0  0  0  0  0  0  0
   -4.8150    0.2018   -1.2559 C   0  0  0  0  0  0  0  0  0  0  0  0
   -3.5372   -1.9319   -1.5368 C   0  0  0  0  0  0  0  0  0  0  0  0
   -2.6427    0.1972   -2.5300 C   0  0  0  0  0  0  0  0  0  0  0  0
    2.9323    0.2242    1.7894 C   0  0  0  0  0  0  0  0  0  0  0  0
    2.5872   -1.0392    2.5998 C   0  0  0  0  0  0  0  0  0  0  0  0
    2.0897    1.3952    2.3373 C   0  0  0  0  0  0  0  0  0  0  0  0
    4.4213    0.5667    1.9343 C   0  0  0  0  0  0  0  0  0  0  0  0
    3.4845   -1.1892   -1.0124 C   0  0  0  0  0  0  0  0  0  0  0  0
    4.9310   -0.6720   -1.1001 C   0  0  0  0  0  0  0  0  0  0  0  0
    3.4509   -2.5972   -0.3912 C   0  0  0  0  0  0  0  0  0  0  0  0
    2.9086   -1.2475   -2.4436 C   0  0  0  0  0  0  0  0  0  0  0  0
   -2.0659    4.4546   -0.3669 H   0  0  0  0  0  0  0  0  0  0  0  0
    0.0511    5.5930   -1.0702 H   0  0  0  0  0  0  0  0  0  0  0  0
    2.1702    4.2693   -1.2484 H   0  0  0  0  0  0  0  0  0  0  0  0
    3.3867    2.1897   -0.4408 H   0  0  0  0  0  0  0  0  0  0  0  0
    2.7635    1.3982   -1.9063 H   0  0  0  0  0  0  0  0  0  0  0  0
   -3.3273    2.2457   -0.2208 H   0  0  0  0  0  0  0  0  0  0  0  0
   -2.5614    2.1060    1.3695 H   0  0  0  0  0  0  0  0  0  0  0  0
   -4.7036   -0.4369    3.1860 H   0  0  0  0  0  0  0  0  0  0  0  0
   -5.1941   -0.5657    1.4755 H   0  0  0  0  0  0  0  0  0  0  0  0
   -4.5049    0.9688    2.0991 H   0  0  0  0  0  0  0  0  0  0  0  0
   -3.1400   -2.5672    2.8452 H   0  0  0  0  0  0  0  0  0  0  0  0
   -2.0050   -2.5663    1.4505 H   0  0  0  0  0  0  0  0  0  0  0  0
   -3.7784   -2.6155    1.1787 H   0  0  0  0  0  0  0  0  0  0  0  0
   -2.3414   -0.5496    3.8961 H   0  0  0  0  0  0  0  0  0  0  0  0
   -1.9987    0.9527    2.9866 H   0  0  0  0  0  0  0  0  0  0  0  0
   -1.0019   -0.5093    2.6897 H   0  0  0  0  0  0  0  0  0  0  0  0
   -5.3325    0.0239   -2.2225 H   0  0  0  0  0  0  0  0  0  0  0  0
   -4.8037    1.2976   -1.0942 H   0  0  0  0  0  0  0  0  0  0  0  0
   -5.4345   -0.2588   -0.4639 H   0  0  0  0  0  0  0  0  0  0  0  0
   -4.0253   -2.1150   -2.5178 H   0  0  0  0  0  0  0  0  0  0  0  0
   -4.1719   -2.4031   -0.7628 H   0  0  0  0  0  0  0  0  0  0  0  0
   -2.5584   -2.4437   -1.5630 H   0  0  0  0  0  0  0  0  0  0  0  0
   -3.2328    0.0228   -3.4548 H   0  0  0  0  0  0  0  0  0  0  0  0
   -1.6507   -0.2768   -2.6557 H   0  0  0  0  0  0  0  0  0  0  0  0
   -2.4971    1.2910   -2.4252 H   0  0  0  0  0  0  0  0  0  0  0  0
    2.7601   -0.8425    3.6794 H   0  0  0  0  0  0  0  0  0  0  0  0
    3.2084   -1.9086    2.3141 H   0  0  0  0  0  0  0  0  0  0  0  0
    1.5232   -1.3200    2.4594 H   0  0  0  0  0  0  0  0  0  0  0  0
    2.3367    1.5402    3.4105 H   0  0  0  0  0  0  0  0  0  0  0  0
    1.0035    1.1847    2.2564 H   0  0  0  0  0  0  0  0  0  0  0  0
    2.2842    2.3499    1.8104 H   0  0  0  0  0  0  0  0  0  0  0  0
    4.6216    0.8828    2.9804 H   0  0  0  0  0  0  0  0  0  0  0  0
    4.7323    1.4011    1.2737 H   0  0  0  0  0  0  0  0  0  0  0  0
    5.0729   -0.3029    1.7277 H   0  0  0  0  0  0  0  0  0  0  0  0
    5.4888   -1.2981   -1.8289 H   0  0  0  0  0  0  0  0  0  0  0  0
    5.4689   -0.7319   -0.1377 H   0  0  0  0  0  0  0  0  0  0  0  0
    4.9831    0.3742   -1.4631 H   0  0  0  0  0  0  0  0  0  0  0  0
    3.9593   -3.3104   -1.0740 H   0  0  0  0  0  0  0  0  0  0  0  0
    3.9868   -2.6324    0.5773 H   0  0  0  0  0  0  0  0  0  0  0  0
    2.4151   -2.9553   -0.2288 H   0  0  0  0  0  0  0  0  0  0  0  0
    3.5085   -1.9755   -3.0298 H   0  0  0  0  0  0  0  0  0  0  0  0
    2.9863   -0.2730   -2.9656 H   0  0  0  0  0  0  0  0  0  0  0  0
    1.8530   -1.5710   -2.4800 H   0  0  0  0  0  0  0  0  0  0  0  0
  1 10  1  0  0  0  0
  1 11  1  0  0  0  0
  2 19  1  0  0  0  0
  3  4  1  0  0  0  0
  4 10  1  0  0  0  0
  5 27  1  0  0  0  0
  5  4  2  0  0  0  0
  6  5  1  0  0  0  0
  7  6  2  0  0  0  0
  7  8  1  0  0  0  0
  8  3  2  0  0  0  0
  9  8  1  0  0  0  0
  9 30  1  0  0  0  0
  9  2  1  0  0  0  0
 10 33  1  0  0  0  0
 11 12  1  0  0  0  0
 11 14  1  0  0  0  0
 12 34  1  0  0  0  0
 13 11  1  0  0  0  0
 13 37  1  0  0  0  0
 14 41  1  0  0  0  0
 14 40  1  0  0  0  0
 15 16  1  0  0  0  0
 15  1  1  0  0  0  0
 16 44  1  0  0  0  0
 16 45  1  0  0  0  0
 17 15  1  0  0  0  0
 17 47  1  0  0  0  0
 18 51  1  0  0  0  0
 18 15  1  0  0  0  0
 19 22  1  0  0  0  0
 19 21  1  0  0  0  0
 19 20  1  0  0  0  0
 20 52  1  0  0  0  0
 21 55  1  0  0  0  0
 22 58  1  0  0  0  0
 23 25  1  0  0  0  0
 23  2  1  0  0  0  0
 24 23  1  0  0  0  0
 24 62  1  0  0  0  0
 25 66  1  0  0  0  0
 25 65  1  0  0  0  0
 26 23  1  0  0  0  0
 28  6  1  0  0  0  0
 29  7  1  0  0  0  0
 31  9  1  0  0  0  0
 32 10  1  0  0  0  0
 35 12  1  0  0  0  0
 36 12  1  0  0  0  0
 38 13  1  0  0  0  0
 39 13  1  0  0  0  0
 42 14  1  0  0  0  0
 43 16  1  0  0  0  0
 46 17  1  0  0  0  0
 48 17  1  0  0  0  0
 49 18  1  0  0  0  0
 50 18  1  0  0  0  0
 53 20  1  0  0  0  0
 54 20  1  0  0  0  0
 56 21  1  0  0  0  0
 57 21  1  0  0  0  0
 59 22  1  0  0  0  0
 60 22  1  0  0  0  0
 61 24  1  0  0  0  0
 63 24  1  0  0  0  0
 64 25  1  0  0  0  0
 67 26  1  0  0  0  0
 68 26  1  0  0  0  0
 69 26  1  0  0  0  0
M  END
