2
 OpenBabel05122313113D

 34 34  0  0  1  0  0  0  0  0999 V2000
    1.1216    0.9671   -0.3743 C   0  0  1  0  0  3  0  0  0  0  0  0
   -0.0617    1.2334    0.3996 C   0  0  0  0  0  3  0  0  0  0  0  0
   -0.0663    1.6381    1.4195 H   0  0  0  0  0  0  0  0  0  0  0  0
   -1.2399    0.8930   -0.3571 C   0  0  2  0  0  3  0  0  0  0  0  0
   -0.7630    0.4134   -1.6372 C   0  0  0  0  0  0  0  0  0  0  0  0
   -1.3886    0.0455   -2.4584 H   0  0  0  0  0  0  0  0  0  0  0  0
    0.6587    0.4438   -1.6366 C   0  0  0  0  0  0  0  0  0  0  0  0
    1.2985    0.0543   -2.4351 H   0  0  0  0  0  0  0  0  0  0  0  0
    2.5541    1.2869    0.0301 C   0  0  0  0  0  0  0  0  0  0  0  0
    2.6665    2.8252    0.1468 C   0  0  0  0  0  0  0  0  0  0  0  0
    3.7061    3.1128    0.4055 H   0  0  0  0  0  0  0  0  0  0  0  0
    1.9973    3.2242    0.9362 H   0  0  0  0  0  0  0  0  0  0  0  0
    2.4012    3.3211   -0.8091 H   0  0  0  0  0  0  0  0  0  0  0  0
    3.5387    0.7789   -1.0382 C   0  0  0  0  0  0  0  0  0  0  0  0
    4.5793    1.0011   -0.7277 H   0  0  0  0  0  0  0  0  0  0  0  0
    3.3691    1.2746   -2.0160 H   0  0  0  0  0  0  0  0  0  0  0  0
    3.4355   -0.3163   -1.1693 H   0  0  0  0  0  0  0  0  0  0  0  0
    2.8951    0.6336    1.3846 C   0  0  0  0  0  0  0  0  0  0  0  0
    3.9163    0.9277    1.7019 H   0  0  0  0  0  0  0  0  0  0  0  0
    2.8545   -0.4697    1.2954 H   0  0  0  0  0  0  0  0  0  0  0  0
    2.1939    0.9490    2.1839 H   0  0  0  0  0  0  0  0  0  0  0  0
   -2.6781    1.1667    0.0577 C   0  0  0  0  0  0  0  0  0  0  0  0
   -2.8854    2.6989   -0.0177 C   0  0  0  0  0  0  0  0  0  0  0  0
   -3.9302    2.9600    0.2478 H   0  0  0  0  0  0  0  0  0  0  0  0
   -2.6848    3.0793   -1.0396 H   0  0  0  0  0  0  0  0  0  0  0  0
   -2.2105    3.2315    0.6822 H   0  0  0  0  0  0  0  0  0  0  0  0
   -3.6688    0.4757   -0.8956 C   0  0  0  0  0  0  0  0  0  0  0  0
   -4.7091    0.6796   -0.5722 H   0  0  0  0  0  0  0  0  0  0  0  0
   -3.5289   -0.6230   -0.9063 H   0  0  0  0  0  0  0  0  0  0  0  0
   -3.5670    0.8502   -1.9340 H   0  0  0  0  0  0  0  0  0  0  0  0
   -2.9334    0.6827    1.4978 C   0  0  0  0  0  0  0  0  0  0  0  0
   -3.9566    0.9635    1.8199 H   0  0  0  0  0  0  0  0  0  0  0  0
   -2.2220    1.1317    2.2195 H   0  0  0  0  0  0  0  0  0  0  0  0
   -2.8373   -0.4184    1.5694 H   0  0  0  0  0  0  0  0  0  0  0  0
  1  9  1  6  0  0  0
  1  2  1  0  0  0  0
  2  3  1  0  0  0  0
  4 22  1  6  0  0  0
  4  2  1  0  0  0  0
  5  7  2  0  0  0  0
  5  4  1  0  0  0  0
  6  5  1  0  0  0  0
  7  1  1  0  0  0  0
  8  7  1  0  0  0  0
  9 10  1  0  0  0  0
  9 18  1  0  0  0  0
 10 11  1  0  0  0  0
 10 12  1  0  0  0  0
 13 10  1  0  0  0  0
 14 15  1  0  0  0  0
 14  9  1  0  0  0  0
 16 14  1  0  0  0  0
 17 14  1  0  0  0  0
 18 19  1  0  0  0  0
 18 21  1  0  0  0  0
 20 18  1  0  0  0  0
 22 31  1  0  0  0  0
 23 22  1  0  0  0  0
 23 24  1  0  0  0  0
 23 26  1  0  0  0  0
 25 23  1  0  0  0  0
 27 28  1  0  0  0  0
 27 22  1  0  0  0  0
 29 27  1  0  0  0  0
 30 27  1  0  0  0  0
 31 34  1  0  0  0  0
 31 32  1  0  0  0  0
 31 33  1  0  0  0  0
M  END
