3
 OpenBabel05122313113D

 33 34  0  0  1  0  0  0  0  0999 V2000
    0.7091    0.4591   -0.6794 C   0  0  0  0  0  3  0  0  0  0  0  0
    0.6090   -0.6974   -1.5382 C   0  0  0  0  0  3  0  0  0  0  0  0
    0.4593   -1.9876   -0.9493 C   0  0  0  0  0  3  0  0  0  0  0  0
    0.3847   -2.0966    0.4894 C   0  0  0  0  0  3  0  0  0  0  0  0
   -0.6833   -1.4204    1.3508 C   0  0  0  0  0  0  0  0  0  0  0  0
   -1.2941   -0.2492    0.6541 C   0  0  0  0  0  0  0  0  0  0  0  0
   -2.5485   -0.2069    0.1103 C   0  0  0  0  0  0  0  0  0  0  0  0
   -2.9691    0.9465   -0.5740 N   0  0  0  0  0  0  0  0  0  0  0  0
   -2.3184    2.1020   -0.5622 N   0  0  0  0  0  0  0  0  0  0  0  0
   -1.1016    2.1198   -0.0887 C   0  0  0  0  0  0  0  0  0  0  0  0
   -0.3372    0.8813    0.3711 C   0  0  2  0  0  0  0  0  0  0  0  0
   -3.5591   -1.2984    0.1990 C   0  0  0  0  0  0  0  0  0  0  0  0
   -3.4091   -2.4023    0.6942 O   0  0  0  0  0  0  0  0  0  0  0  0
   -4.7339   -0.9061   -0.3746 O   0  0  0  0  0  0  0  0  0  0  0  0
   -5.7830   -1.8825   -0.3598 C   0  0  0  0  0  0  0  0  0  0  0  0
   -0.4552    3.4622   -0.0464 C   0  0  0  0  0  0  0  0  0  0  0  0
   -0.9333    4.5187   -0.4116 O   0  0  0  0  0  0  0  0  0  0  0  0
    0.8041    3.3518    0.4840 O   0  0  0  0  0  0  0  0  0  0  0  0
    1.5249    4.5810    0.5932 C   0  0  0  0  0  0  0  0  0  0  0  0
    1.1583    1.3466   -1.1572 H   0  0  0  0  0  0  0  0  0  0  0  0
    0.8307   -0.6280   -2.6156 H   0  0  0  0  0  0  0  0  0  0  0  0
    0.5743   -2.8791   -1.5871 H   0  0  0  0  0  0  0  0  0  0  0  0
    0.6234   -3.1031    0.8751 H   0  0  0  0  0  0  0  0  0  0  0  0
   -1.4547   -2.1781    1.5846 H   0  0  0  0  0  0  0  0  0  0  0  0
   -0.2338   -1.0859    2.3118 H   0  0  0  0  0  0  0  0  0  0  0  0
   -3.9433    0.9867   -0.8777 H   0  0  0  0  0  0  0  0  0  0  0  0
    0.2091    1.1486    1.2995 H   0  0  0  0  0  0  0  0  0  0  0  0
   -6.0442   -2.1596    0.6810 H   0  0  0  0  0  0  0  0  0  0  0  0
   -5.4708   -2.8007   -0.8962 H   0  0  0  0  0  0  0  0  0  0  0  0
   -6.6454   -1.4124   -0.8639 H   0  0  0  0  0  0  0  0  0  0  0  0
    0.9894    5.2969    1.2494 H   0  0  0  0  0  0  0  0  0  0  0  0
    2.5088    4.3236    1.0243 H   0  0  0  0  0  0  0  0  0  0  0  0
    1.6487    5.0563   -0.4011 H   0  0  0  0  0  0  0  0  0  0  0  0
  1 11  1  0  0  0  0
  2  3  1  0  0  0  0
  2  1  1  0  0  0  0
  3  4  1  0  0  0  0
  4 23  1  0  0  0  0
  4  5  1  0  0  0  0
  5 24  1  0  0  0  0
  5 25  1  0  0  0  0
  6  5  1  0  0  0  0
  7 12  1  0  0  0  0
  7  6  2  0  0  0  0
  8  9  1  0  0  0  0
  8  7  1  0  0  0  0
  9 10  2  0  0  0  0
 10 16  1  0  0  0  0
 10 11  1  0  0  0  0
 11  6  1  0  0  0  0
 11 27  1  1  0  0  0
 12 13  2  0  0  0  0
 14 15  1  0  0  0  0
 14 12  1  0  0  0  0
 15 28  1  0  0  0  0
 16 18  1  0  0  0  0
 17 16  2  0  0  0  0
 18 19  1  0  0  0  0
 19 32  1  0  0  0  0
 19 31  1  0  0  0  0
 20  1  1  0  0  0  0
 21  2  1  0  0  0  0
 22  3  1  0  0  0  0
 26  8  1  0  0  0  0
 29 15  1  0  0  0  0
 30 15  1  0  0  0  0
 33 19  1  0  0  0  0
M  END
