4
 OpenBabel05122313113D

 36 37  0  0  0  0  0  0  0  0999 V2000
   -0.2928    0.0658   -0.1514 P   0  0  0  0  0  0  0  0  0  0  0  0
    1.9512   -1.2136    2.3586 O   0  0  0  0  0  0  0  0  0  0  0  0
   -0.0513   -0.3943    1.5006 N   0  0  0  0  0  0  0  0  0  0  0  0
    1.3113   -0.7816    1.4143 C   0  0  0  0  0  3  0  0  0  0  0  0
   -0.8018    1.8290   -0.1494 C   0  0  0  0  0  0  0  0  0  0  0  0
   -0.5385    2.6451    0.9681 C   0  0  0  0  0  0  0  0  0  0  0  0
   -0.0929    2.1947    1.8681 H   0  0  0  0  0  0  0  0  0  0  0  0
   -0.8401    4.0151    0.9277 C   0  0  0  0  0  0  0  0  0  0  0  0
   -0.6396    4.6444    1.8082 H   0  0  0  0  0  0  0  0  0  0  0  0
   -1.3944    4.5815   -0.2314 C   0  0  0  0  0  0  0  0  0  0  0  0
   -1.6281    5.6565   -0.2627 H   0  0  0  0  0  0  0  0  0  0  0  0
   -1.6502    3.7732   -1.3516 C   0  0  0  0  0  0  0  0  0  0  0  0
   -2.0838    4.2136   -2.2624 H   0  0  0  0  0  0  0  0  0  0  0  0
   -1.3569    2.4022   -1.3126 C   0  0  0  0  0  0  0  0  0  0  0  0
   -1.5682    1.7700   -2.1896 H   0  0  0  0  0  0  0  0  0  0  0  0
   -1.8235   -0.7791   -0.7247 C   0  0  0  0  0  0  0  0  0  0  0  0
   -3.0952   -0.2946   -0.3436 C   0  0  0  0  0  0  0  0  0  0  0  0
   -3.1774    0.6392    0.2335 H   0  0  0  0  0  0  0  0  0  0  0  0
   -4.2556   -0.9922   -0.7073 C   0  0  0  0  0  0  0  0  0  0  0  0
   -5.2413   -0.6097   -0.4012 H   0  0  0  0  0  0  0  0  0  0  0  0
   -4.1600   -2.1720   -1.4631 C   0  0  0  0  0  0  0  0  0  0  0  0
   -5.0719   -2.7171   -1.7509 H   0  0  0  0  0  0  0  0  0  0  0  0
   -2.9004   -2.6512   -1.8555 C   0  0  0  0  0  0  0  0  0  0  0  0
   -2.8205   -3.5720   -2.4528 H   0  0  0  0  0  0  0  0  0  0  0  0
   -1.7355   -1.9594   -1.4901 C   0  0  0  0  0  0  0  0  0  0  0  0
   -0.7536   -2.3464   -1.7942 H   0  0  0  0  0  0  0  0  0  0  0  0
   -0.9913   -0.6748    2.6039 C   0  0  0  0  0  0  0  0  0  0  0  0
   -1.9465   -0.1904    2.3026 H   0  0  0  0  0  0  0  0  0  0  0  0
   -1.2271   -2.1848    2.7316 C   0  0  0  0  0  0  0  0  0  0  0  0
   -1.9679   -2.4025    3.5274 H   0  0  0  0  0  0  0  0  0  0  0  0
   -0.2772   -2.6952    2.9862 H   0  0  0  0  0  0  0  0  0  0  0  0
   -1.6050   -2.6040    1.7780 H   0  0  0  0  0  0  0  0  0  0  0  0
   -0.5125   -0.0399    3.9142 C   0  0  0  0  0  0  0  0  0  0  0  0
   -1.2390   -0.2405    4.7272 H   0  0  0  0  0  0  0  0  0  0  0  0
   -0.4064    1.0588    3.8129 H   0  0  0  0  0  0  0  0  0  0  0  0
    0.4717   -0.4591    4.1976 H   0  0  0  0  0  0  0  0  0  0  0  0
  1  5  1  0  0  0  0
  1  3  1  0  0  0  0
  3 27  1  0  0  0  0
  4  3  1  0  0  0  0
  4  2  2  0  0  0  0
  5  6  1  0  0  0  0
  6  7  1  0  0  0  0
  8  6  2  0  0  0  0
  8  9  1  0  0  0  0
 10  8  1  0  0  0  0
 11 10  1  0  0  0  0
 12 14  1  0  0  0  0
 12 10  2  0  0  0  0
 13 12  1  0  0  0  0
 14  5  2  0  0  0  0
 15 14  1  0  0  0  0
 16 17  1  0  0  0  0
 16  1  1  0  0  0  0
 17 18  1  0  0  0  0
 19 20  1  0  0  0  0
 19 17  2  0  0  0  0
 21 19  1  0  0  0  0
 22 21  1  0  0  0  0
 23 25  1  0  0  0  0
 23 21  2  0  0  0  0
 24 23  1  0  0  0  0
 25 16  2  0  0  0  0
 26 25  1  0  0  0  0
 27 29  1  0  0  0  0
 27 33  1  0  0  0  0
 28 27  1  0  0  0  0
 29 31  1  0  0  0  0
 29 30  1  0  0  0  0
 32 29  1  0  0  0  0
 33 36  1  0  0  0  0
 33 34  1  0  0  0  0
 35 33  1  0  0  0  0
M  END
