1
 OpenBabel05122313113D

 44 44  0  0  0  0  0  0  0  0999 V2000
    2.0247   -0.3508   -0.2274 C   0  0  0  0  0  1  0  0  0  0  0  0
   -0.4825   -0.8120   -0.4486 C   0  0  0  0  0  0  0  0  0  0  0  0
   -1.0375   -1.9808    0.1108 C   0  0  0  0  0  0  0  0  0  0  0  0
   -0.3842   -2.6884    0.6405 H   0  0  0  0  0  0  0  0  0  0  0  0
   -2.4071   -2.2355   -0.0089 C   0  0  0  0  0  0  0  0  0  0  0  0
   -2.8186   -3.1517    0.4330 H   0  0  0  0  0  0  0  0  0  0  0  0
   -3.2396   -1.3191   -0.6922 C   0  0  0  0  0  0  0  0  0  0  0  0
   -2.6738   -0.1474   -1.2519 C   0  0  0  0  0  0  0  0  0  0  0  0
   -3.3387    0.5511   -1.7793 H   0  0  0  0  0  0  0  0  0  0  0  0
   -1.3120    0.1080   -1.1343 C   0  0  0  0  0  0  0  0  0  0  0  0
   -0.8704    1.0164   -1.5672 H   0  0  0  0  0  0  0  0  0  0  0  0
   -5.2220   -2.6275   -0.3198 C   0  0  0  0  0  0  0  0  0  0  0  0
   -5.0469   -2.6690    0.7804 H   0  0  0  0  0  0  0  0  0  0  0  0
   -4.7850   -3.5472   -0.7709 H   0  0  0  0  0  0  0  0  0  0  0  0
   -6.7067   -2.5203   -0.6253 C   0  0  0  0  0  0  0  0  0  0  0  0
   -6.8388   -2.4738   -1.7282 H   0  0  0  0  0  0  0  0  0  0  0  0
   -7.1859   -3.4675   -0.2954 H   0  0  0  0  0  0  0  0  0  0  0  0
   -7.3926   -1.3222    0.0364 C   0  0  0  0  0  0  0  0  0  0  0  0
   -6.8677   -0.3922   -0.2714 H   0  0  0  0  0  0  0  0  0  0  0  0
   -7.2661   -1.3907    1.1408 H   0  0  0  0  0  0  0  0  0  0  0  0
   -8.8808   -1.2081   -0.3011 C   0  0  0  0  0  0  0  0  0  0  0  0
   -9.0024   -1.1428   -1.4061 H   0  0  0  0  0  0  0  0  0  0  0  0
   -9.4026   -2.1447    0.0005 H   0  0  0  0  0  0  0  0  0  0  0  0
   -9.5703   -0.0095    0.3555 C   0  0  0  0  0  0  0  0  0  0  0  0
   -9.0442    0.9252    0.0560 H   0  0  0  0  0  0  0  0  0  0  0  0
   -9.4508   -0.0762    1.4608 H   0  0  0  0  0  0  0  0  0  0  0  0
  -11.0572    0.1138    0.0136 C   0  0  0  0  0  0  0  0  0  0  0  0
  -11.1760    0.1806   -1.0917 H   0  0  0  0  0  0  0  0  0  0  0  0
  -11.5823   -0.8218    0.3124 H   0  0  0  0  0  0  0  0  0  0  0  0
  -11.7467    1.3127    0.6699 C   0  0  0  0  0  0  0  0  0  0  0  0
  -11.2205    2.2478    0.3714 H   0  0  0  0  0  0  0  0  0  0  0  0
  -11.6278    1.2454    1.7752 H   0  0  0  0  0  0  0  0  0  0  0  0
  -13.2334    1.4376    0.3277 C   0  0  0  0  0  0  0  0  0  0  0  0
  -13.3523    1.5047   -0.7779 H   0  0  0  0  0  0  0  0  0  0  0  0
  -13.7598    0.5022    0.6260 H   0  0  0  0  0  0  0  0  0  0  0  0
  -13.9240    2.6371    0.9837 C   0  0  0  0  0  0  0  0  0  0  0  0
  -13.8022    2.5675    2.0879 H   0  0  0  0  0  0  0  0  0  0  0  0
  -13.3949    3.5695    0.6847 H   0  0  0  0  0  0  0  0  0  0  0  0
  -15.4083    2.7528    0.6354 C   0  0  0  0  0  0  0  0  0  0  0  0
  -15.5583    2.8603   -0.4594 H   0  0  0  0  0  0  0  0  0  0  0  0
  -15.8794    3.6293    1.1243 H   0  0  0  0  0  0  0  0  0  0  0  0
  -15.9693    1.8499    0.9558 H   0  0  0  0  0  0  0  0  0  0  0  0
    0.8653   -0.5649   -0.3291 N   0  0  0  0  0  2  0  0  0  0  0  0
   -4.5689   -1.4730   -0.8627 O   0  0  0  0  0  0  0  0  0  0  0  0
  2 43  1  0  0  0  0
  2  3  1  0  0  0  0
  3  4  1  0  0  0  0
  5  3  2  0  0  0  0
  5  6  1  0  0  0  0
  7  5  1  0  0  0  0
  8 10  1  0  0  0  0
  8  7  2  0  0  0  0
  9  8  1  0  0  0  0
 10  2  2  0  0  0  0
 11 10  1  0  0  0  0
 12 13  1  0  0  0  0
 14 12  1  0  0  0  0
 15 12  1  0  0  0  0
 15 17  1  0  0  0  0
 15 18  1  0  0  0  0
 16 15  1  0  0  0  0
 18 20  1  0  0  0  0
 19 18  1  0  0  0  0
 21 23  1  0  0  0  0
 21 18  1  0  0  0  0
 21 24  1  0  0  0  0
 22 21  1  0  0  0  0
 24 26  1  0  0  0  0
 25 24  1  0  0  0  0
 27 29  1  0  0  0  0
 27 24  1  0  0  0  0
 27 30  1  0  0  0  0
 28 27  1  0  0  0  0
 30 32  1  0  0  0  0
 31 30  1  0  0  0  0
 33 35  1  0  0  0  0
 33 30  1  0  0  0  0
 33 36  1  0  0  0  0
 34 33  1  0  0  0  0
 36 37  1  0  0  0  0
 38 36  1  0  0  0  0
 39 42  1  0  0  0  0
 39 36  1  0  0  0  0
 39 41  1  0  0  0  0
 40 39  1  0  0  0  0
 43  1  1  0  0  0  0
 44  7  1  0  0  0  0
 44 12  1  0  0  0  0
M  END
