7
 OpenBabel05122313113D

 50 54  0  0  1  0  0  0  0  0999 V2000
    3.1729    1.6638    0.6981 S   0  0  0  0  0  0  0  0  0  0  0  0
   -0.9404    1.9122   -1.7063 O   0  0  0  0  0  0  0  0  0  0  0  0
    0.7566   -0.6843   -1.2844 O   0  0  0  0  0  0  0  0  0  0  0  0
    2.8262    2.9315    0.0213 O   0  0  0  0  0  0  0  0  0  0  0  0
    2.8825    1.5127    2.1397 O   0  0  0  0  0  0  0  0  0  0  0  0
    2.4778    0.3050   -0.1922 N   0  0  0  0  0  0  0  0  0  0  0  0
   -2.0982    0.1784   -0.5221 C   0  0  0  0  0  3  0  0  0  0  0  0
   -2.2411    1.5427   -1.2149 C   0  0  1  0  0  0  0  0  0  0  0  0
   -2.6121    2.6992   -0.2517 C   0  0  0  0  0  0  0  0  0  0  0  0
   -1.2311    3.2195    0.2240 C   0  0  0  0  0  0  0  0  0  0  0  0
   -0.2316    2.3115   -0.5350 C   0  0  1  0  0  0  0  0  0  0  0  0
    0.1508    1.0535    0.3022 C   0  0  1  0  0  0  0  0  0  0  0  0
   -1.1362    0.2688    0.6730 C   0  0  0  0  0  0  0  0  0  0  0  0
    1.1125    0.1622   -0.4702 C   0  0  0  0  0  0  0  0  0  0  0  0
    3.4781   -0.4494   -0.9515 C   0  0  2  0  0  0  0  0  0  0  0  0
    3.3551   -2.0007   -0.9269 C   0  0  0  0  0  0  0  0  0  0  0  0
    4.7432   -2.4473   -0.4219 C   0  0  1  0  0  0  0  0  0  0  0  0
    5.7882   -2.0782   -1.5040 C   0  0  0  0  0  0  0  0  0  0  0  0
    5.9106   -0.5287   -1.3749 C   0  0  0  0  0  0  0  0  0  0  0  0
    4.8684   -0.1990   -0.2812 C   0  0  2  0  0  0  0  0  0  0  0  0
    5.0309   -1.4155    0.7097 C   0  0  0  0  0  0  0  0  0  0  0  0
    4.9003    1.2044    0.2900 C   0  0  0  0  0  0  0  0  0  0  0  0
    4.0356   -1.4716    1.8792 C   0  0  0  0  0  0  0  0  0  0  0  0
    6.4385   -1.5152    1.3192 C   0  0  0  0  0  0  0  0  0  0  0  0
   -1.6845   -0.5333   -1.2637 H   0  0  0  0  0  0  0  0  0  0  0  0
   -2.9095    1.4753   -2.0961 H   0  0  0  0  0  0  0  0  0  0  0  0
   -3.1687    3.4847   -0.7970 H   0  0  0  0  0  0  0  0  0  0  0  0
   -3.2564    2.3579    0.5834 H   0  0  0  0  0  0  0  0  0  0  0  0
   -1.0750    4.2726   -0.0770 H   0  0  0  0  0  0  0  0  0  0  0  0
   -1.0966    3.1674    1.3221 H   0  0  0  0  0  0  0  0  0  0  0  0
    0.6839    2.8438   -0.8509 H   0  0  0  0  0  0  0  0  0  0  0  0
    0.6440    1.3943    1.2354 H   0  0  0  0  0  0  0  0  0  0  0  0
   -1.6138    0.7938    1.5264 H   0  0  0  0  0  0  0  0  0  0  0  0
   -0.8695   -0.7425    1.0405 H   0  0  0  0  0  0  0  0  0  0  0  0
    3.4764   -0.0710   -1.9969 H   0  0  0  0  0  0  0  0  0  0  0  0
    2.5438   -2.3206   -0.2500 H   0  0  0  0  0  0  0  0  0  0  0  0
    3.1088   -2.3969   -1.9293 H   0  0  0  0  0  0  0  0  0  0  0  0
    4.7790   -3.5089   -0.1072 H   0  0  0  0  0  0  0  0  0  0  0  0
    6.7591   -2.5782   -1.3215 H   0  0  0  0  0  0  0  0  0  0  0  0
    5.4511   -2.3912   -2.5119 H   0  0  0  0  0  0  0  0  0  0  0  0
    6.9259   -0.2152   -1.0633 H   0  0  0  0  0  0  0  0  0  0  0  0
    5.6798    0.0082   -2.3164 H   0  0  0  0  0  0  0  0  0  0  0  0
    5.2149    1.9700   -0.4449 H   0  0  0  0  0  0  0  0  0  0  0  0
    5.4800    1.3139    1.2267 H   0  0  0  0  0  0  0  0  0  0  0  0
    4.2387   -0.6696    2.6154 H   0  0  0  0  0  0  0  0  0  0  0  0
    2.9797   -1.3631    1.5790 H   0  0  0  0  0  0  0  0  0  0  0  0
    4.1440   -2.4429    2.4041 H   0  0  0  0  0  0  0  0  0  0  0  0
    7.2553   -1.5551    0.5756 H   0  0  0  0  0  0  0  0  0  0  0  0
    6.6360   -0.6536    1.9909 H   0  0  0  0  0  0  0  0  0  0  0  0
    6.5129   -2.4291    1.9423 H   0  0  0  0  0  0  0  0  0  0  0  0
  1  5  2  0  0  0  0
  2  8  1  0  0  0  0
  2 11  1  0  0  0  0
  3 14  2  0  0  0  0
  4  1  2  0  0  0  0
  6  1  1  0  0  0  0
  7 13  1  0  0  0  0
  8 26  1  6  0  0  0
  8  7  1  0  0  0  0
  8  9  1  0  0  0  0
  9 10  1  0  0  0  0
  9 28  1  0  0  0  0
 10 30  1  0  0  0  0
 11 31  1  6  0  0  0
 11 10  1  0  0  0  0
 11 12  1  0  0  0  0
 12 13  1  0  0  0  0
 12 32  1  1  0  0  0
 13 34  1  0  0  0  0
 13 33  1  0  0  0  0
 14  6  1  0  0  0  0
 14 12  1  0  0  0  0
 15 35  1  6  0  0  0
 15 16  1  0  0  0  0
 15 20  1  0  0  0  0
 15  6  1  0  0  0  0
 16 17  1  0  0  0  0
 16 36  1  0  0  0  0
 17 38  1  1  0  0  0
 17 21  1  0  0  0  0
 18 19  1  0  0  0  0
 18 39  1  0  0  0  0
 18 17  1  0  0  0  0
 19 41  1  0  0  0  0
 20 19  1  6  0  0  0
 20 22  1  0  0  0  0
 20 21  1  0  0  0  0
 21 24  1  0  0  0  0
 21 23  1  0  0  0  0
 22  1  1  0  0  0  0
 22 44  1  0  0  0  0
 23 47  1  0  0  0  0
 23 45  1  0  0  0  0
 24 50  1  0  0  0  0
 24 49  1  0  0  0  0
 25  7  1  0  0  0  0
 27  9  1  0  0  0  0
 29 10  1  0  0  0  0
 37 16  1  0  0  0  0
 40 18  1  0  0  0  0
 42 19  1  0  0  0  0
 43 22  1  0  0  0  0
 46 23  1  0  0  0  0
 48 24  1  0  0  0  0
M  END
