2
 OpenBabel05122313113D

 50 50  0  0  1  0  0  0  0  0999 V2000
   -1.7099    0.6464    0.0005 P   0  0  1  0  0  0  0  0  0  0  0  0
    0.5835    0.3221    1.8408 C   0  0  1  0  0  3  0  0  0  0  0  0
    1.1261   -1.0035    1.6203 C   0  0  2  0  0  3  0  0  0  0  0  0
    2.2669   -1.1643    0.7184 C   0  0  0  0  0  0  0  0  0  0  0  0
    2.7352   -0.0638   -0.0565 C   0  0  0  0  0  0  0  0  0  0  0  0
    2.1883    1.2658    0.1928 C   0  0  0  0  0  0  0  0  0  0  0  0
    1.2078    1.4806    1.2146 C   0  0  0  0  0  0  0  0  0  0  0  0
   -0.6955    0.5459    2.6409 C   0  0  0  0  0  0  0  0  0  0  0  0
   -0.4794    1.1682    3.5365 H   0  0  0  0  0  0  0  0  0  0  0  0
   -1.0546   -0.4221    3.0292 H   0  0  0  0  0  0  0  0  0  0  0  0
   -1.8114    1.1945    1.8002 C   0  0  0  0  0  0  0  0  0  0  0  0
   -1.7260    2.2985    1.7844 H   0  0  0  0  0  0  0  0  0  0  0  0
   -2.8114    0.9689    2.2213 H   0  0  0  0  0  0  0  0  0  0  0  0
    0.5688   -2.2448    2.2690 C   0  0  0  0  0  0  0  0  0  0  0  0
   -0.3736   -2.0580    2.8100 H   0  0  0  0  0  0  0  0  0  0  0  0
    1.2919   -2.6729    2.9948 H   0  0  0  0  0  0  0  0  0  0  0  0
    0.3550   -3.0099    1.4968 H   0  0  0  0  0  0  0  0  0  0  0  0
    2.7986   -2.5526    0.4941 C   0  0  0  0  0  0  0  0  0  0  0  0
    3.8051   -2.5458    0.0423 H   0  0  0  0  0  0  0  0  0  0  0  0
    2.1080   -3.0988   -0.1879 H   0  0  0  0  0  0  0  0  0  0  0  0
    2.8536   -3.1158    1.4440 H   0  0  0  0  0  0  0  0  0  0  0  0
    3.7118   -0.2180   -1.1919 C   0  0  0  0  0  0  0  0  0  0  0  0
    4.6437    0.3572   -1.0132 H   0  0  0  0  0  0  0  0  0  0  0  0
    3.2454    0.1664   -2.1228 H   0  0  0  0  0  0  0  0  0  0  0  0
    3.9828   -1.2703   -1.3760 H   0  0  0  0  0  0  0  0  0  0  0  0
    2.7063    2.4140   -0.6312 C   0  0  0  0  0  0  0  0  0  0  0  0
    2.2561    3.3791   -0.3461 H   0  0  0  0  0  0  0  0  0  0  0  0
    2.4569    2.2335   -1.6973 H   0  0  0  0  0  0  0  0  0  0  0  0
    3.8076    2.5023   -0.5377 H   0  0  0  0  0  0  0  0  0  0  0  0
    0.8289    2.8927    1.6061 C   0  0  0  0  0  0  0  0  0  0  0  0
    1.7443    3.4907    1.7861 H   0  0  0  0  0  0  0  0  0  0  0  0
    0.2403    2.9139    2.5402 H   0  0  0  0  0  0  0  0  0  0  0  0
    0.2470    3.4205    0.8247 H   0  0  0  0  0  0  0  0  0  0  0  0
   -3.2217   -0.4660   -0.2693 C   0  0  0  0  0  0  0  0  0  0  0  0
   -3.0536   -1.6979    0.6366 C   0  0  0  0  0  0  0  0  0  0  0  0
   -3.9130   -2.3850    0.4855 H   0  0  0  0  0  0  0  0  0  0  0  0
   -3.0391   -1.4225    1.7120 H   0  0  0  0  0  0  0  0  0  0  0  0
   -2.1227   -2.2432    0.3854 H   0  0  0  0  0  0  0  0  0  0  0  0
   -4.5223    0.2763    0.0819 C   0  0  0  0  0  0  0  0  0  0  0  0
   -5.3769   -0.4209   -0.0493 H   0  0  0  0  0  0  0  0  0  0  0  0
   -4.7059    1.1444   -0.5813 H   0  0  0  0  0  0  0  0  0  0  0  0
   -4.5504    0.6274    1.1338 H   0  0  0  0  0  0  0  0  0  0  0  0
   -3.2426   -0.8793   -1.7519 C   0  0  0  0  0  0  0  0  0  0  0  0
   -2.3048   -1.3947   -2.0356 H   0  0  0  0  0  0  0  0  0  0  0  0
   -3.3842   -0.0058   -2.4193 H   0  0  0  0  0  0  0  0  0  0  0  0
   -4.0943   -1.5717   -1.9232 H   0  0  0  0  0  0  0  0  0  0  0  0
   -2.1016    2.1880   -0.9267 C   0  0  0  0  0  0  0  0  0  0  0  0
   -2.1023    1.9550   -2.0074 H   0  0  0  0  0  0  0  0  0  0  0  0
   -1.2776    2.9058   -0.7545 H   0  0  0  0  0  0  0  0  0  0  0  0
   -3.0654    2.6334   -0.6134 H   0  0  0  0  0  0  0  0  0  0  0  0
  1 47  1  6  0  0  0
  1 11  1  0  0  0  0
  2  8  1  6  0  0  0
  3  2  1  0  0  0  0
  3 14  1  6  0  0  0
  4  3  1  0  0  0  0
  5  6  1  0  0  0  0
  5  4  2  0  0  0  0
  6  7  2  0  0  0  0
  7 30  1  0  0  0  0
  7  2  1  0  0  0  0
  8 10  1  0  0  0  0
  8  9  1  0  0  0  0
 11 13  1  0  0  0  0
 11  8  1  0  0  0  0
 12 11  1  0  0  0  0
 14 15  1  0  0  0  0
 14 16  1  0  0  0  0
 17 14  1  0  0  0  0
 18  4  1  0  0  0  0
 18 21  1  0  0  0  0
 19 18  1  0  0  0  0
 20 18  1  0  0  0  0
 22 23  1  0  0  0  0
 22  5  1  0  0  0  0
 24 22  1  0  0  0  0
 25 22  1  0  0  0  0
 26 29  1  0  0  0  0
 26 27  1  0  0  0  0
 26  6  1  0  0  0  0
 28 26  1  0  0  0  0
 30 31  1  0  0  0  0
 30 32  1  0  0  0  0
 33 30  1  0  0  0  0
 34  1  1  0  0  0  0
 34 39  1  0  0  0  0
 34 35  1  0  0  0  0
 35 37  1  0  0  0  0
 36 35  1  0  0  0  0
 38 35  1  0  0  0  0
 39 42  1  0  0  0  0
 40 39  1  0  0  0  0
 41 39  1  0  0  0  0
 43 34  1  0  0  0  0
 44 43  1  0  0  0  0
 45 43  1  0  0  0  0
 46 43  1  0  0  0  0
 47 49  1  0  0  0  0
 47 50  1  0  0  0  0
 48 47  1  0  0  0  0
M  END
