2
 OpenBabel05122313113D

  6  5  0  0  0  0  0  0  0  0999 V2000
    7.1376    3.6637   -1.4573 N   0  0  0  0  0  0  0  0  0  0  0  0
    1.6207    0.8821    0.2293 C   0  0  0  0  0  0  0  0  0  0  0  0
    2.7003    1.4575   -0.0866 C   0  0  0  0  0  0  0  0  0  0  0  0
    3.8577    2.0448   -0.4367 C   0  0  0  0  0  0  0  0  0  0  0  0
    4.9389    2.5782   -0.7735 C   0  0  0  0  0  0  0  0  0  0  0  0
    6.1123    3.1589   -1.1381 C   0  0  0  0  0  0  0  0  0  0  0  0
  1  6  3  0  0  0  0
  3  2  3  0  0  0  0
  4  3  1  0  0  0  0
  5  4  3  0  0  0  0
  6  5  1  0  0  0  0
M  END
