3
 OpenBabel05122313113D

 32 34  0  0  0  0  0  0  0  0999 V2000
    0.8837   -1.3169   -0.8559 C   0  0  0  0  0  3  0  0  0  0  0  0
    2.0149   -1.1049   -1.7173 C   0  0  0  0  0  3  0  0  0  0  0  0
    2.0802    0.2993   -1.9811 C   0  0  0  0  0  3  0  0  0  0  0  0
    0.9894    0.9194   -1.2744 C   0  0  0  0  0  3  0  0  0  0  0  0
    0.0207   -0.1146   -0.8612 C   0  0  0  0  0  0  0  0  0  0  0  0
   -1.2901   -0.0008   -0.4439 C   0  0  0  0  0  0  0  0  0  0  0  0
   -2.0811   -1.2182   -0.1339 C   0  0  0  0  0  0  0  0  0  0  0  0
   -2.0796   -2.3463   -0.9894 C   0  0  0  0  0  0  0  0  0  0  0  0
   -2.8178   -3.4956   -0.6727 C   0  0  0  0  0  0  0  0  0  0  0  0
   -3.5850   -3.5421    0.5022 C   0  0  0  0  0  0  0  0  0  0  0  0
   -3.6118   -2.4246    1.3536 C   0  0  0  0  0  0  0  0  0  0  0  0
   -2.8738   -1.2767    1.0383 C   0  0  0  0  0  0  0  0  0  0  0  0
   -1.9489    1.3126   -0.2544 C   0  0  0  0  0  0  0  0  0  0  0  0
   -3.2984    1.4933   -0.6485 C   0  0  0  0  0  0  0  0  0  0  0  0
   -3.9422    2.7252   -0.4825 C   0  0  0  0  0  0  0  0  0  0  0  0
   -3.2607    3.8105    0.0942 C   0  0  0  0  0  0  0  0  0  0  0  0
   -1.9308    3.6443    0.5109 C   0  0  0  0  0  0  0  0  0  0  0  0
   -1.2839    2.4118    0.3416 C   0  0  0  0  0  0  0  0  0  0  0  0
    0.5796   -2.2949   -0.4641 H   0  0  0  0  0  0  0  0  0  0  0  0
    2.6963   -1.8732   -2.1026 H   0  0  0  0  0  0  0  0  0  0  0  0
    2.8173    0.8121   -2.6111 H   0  0  0  0  0  0  0  0  0  0  0  0
    0.7819    1.9950   -1.3084 H   0  0  0  0  0  0  0  0  0  0  0  0
   -1.5114   -2.3013   -1.9310 H   0  0  0  0  0  0  0  0  0  0  0  0
   -2.8066   -4.3570   -1.3583 H   0  0  0  0  0  0  0  0  0  0  0  0
   -4.1677   -4.4424    0.7492 H   0  0  0  0  0  0  0  0  0  0  0  0
   -4.2115   -2.4498    2.2766 H   0  0  0  0  0  0  0  0  0  0  0  0
   -2.8929   -0.4064    1.7114 H   0  0  0  0  0  0  0  0  0  0  0  0
   -3.8382    0.6473   -1.1002 H   0  0  0  0  0  0  0  0  0  0  0  0
   -4.9875    2.8414   -0.8082 H   0  0  0  0  0  0  0  0  0  0  0  0
   -3.7680    4.7781    0.2271 H   0  0  0  0  0  0  0  0  0  0  0  0
   -1.3934    4.4790    0.9870 H   0  0  0  0  0  0  0  0  0  0  0  0
   -0.2574    2.2860    0.7141 H   0  0  0  0  0  0  0  0  0  0  0  0
  1 19  1  0  0  0  0
  2  1  1  0  0  0  0
  3  2  1  0  0  0  0
  3  4  1  0  0  0  0
  4  5  1  0  0  0  0
  5  1  1  0  0  0  0
  5  6  2  0  0  0  0
  6 13  1  0  0  0  0
  6  7  1  0  0  0  0
  7 12  1  0  0  0  0
  8  9  1  0  0  0  0
  8  7  2  0  0  0  0
  9 10  2  0  0  0  0
 10 25  1  0  0  0  0
 10 11  1  0  0  0  0
 11 26  1  0  0  0  0
 12 11  2  0  0  0  0
 12 27  1  0  0  0  0
 13 18  1  0  0  0  0
 14 15  1  0  0  0  0
 14 13  2  0  0  0  0
 15 16  2  0  0  0  0
 16 30  1  0  0  0  0
 16 17  1  0  0  0  0
 17 31  1  0  0  0  0
 18 17  2  0  0  0  0
 18 32  1  0  0  0  0
 20  2  1  0  0  0  0
 21  3  1  0  0  0  0
 22  4  1  0  0  0  0
 23  8  1  0  0  0  0
 24  9  1  0  0  0  0
 28 14  1  0  0  0  0
 29 15  1  0  0  0  0
M  END
