1
 OpenBabel05122313113D

 17 17  0  0  0  0  0  0  0  0999 V2000
   -2.2764    0.1972   -0.7838 C   0  0  0  0  0  1  0  0  0  0  0  0
   -3.4696    0.2827   -1.1128 C   0  0  0  0  0  2  0  0  0  0  0  0
   -4.8589    0.3916   -1.5227 C   0  0  0  0  0  0  0  0  0  0  0  0
   -5.2188    0.6331   -2.6823 O   0  0  0  0  0  0  0  0  0  0  0  0
   -5.7733    0.2033   -0.5080 N   0  0  0  0  0  0  0  0  0  0  0  0
   -7.2068    0.3246   -0.7665 C   0  0  0  0  0  0  0  0  0  0  0  0
   -7.5826   -0.5661   -1.3224 H   0  0  0  0  0  0  0  0  0  0  0  0
   -7.4090    1.2043   -1.4108 H   0  0  0  0  0  0  0  0  0  0  0  0
   -7.8106    0.4152    0.6418 C   0  0  0  0  0  0  0  0  0  0  0  0
   -7.8015    1.4698    0.9906 H   0  0  0  0  0  0  0  0  0  0  0  0
   -8.8581    0.0575    0.6847 H   0  0  0  0  0  0  0  0  0  0  0  0
   -6.8390   -0.4243    1.4871 C   0  0  0  0  0  0  0  0  0  0  0  0
   -7.0411   -1.5057    1.3331 H   0  0  0  0  0  0  0  0  0  0  0  0
   -6.9056   -0.2225    2.5743 H   0  0  0  0  0  0  0  0  0  0  0  0
   -5.4671   -0.0606    0.8991 C   0  0  0  0  0  0  0  0  0  0  0  0
   -5.0392    0.8436    1.3917 H   0  0  0  0  0  0  0  0  0  0  0  0
   -4.7130   -0.8672    1.0001 H   0  0  0  0  0  0  0  0  0  0  0  0
  2  1  1  0  0  0  0
  3  2  1  0  0  0  0
  3  5  1  0  0  0  0
  4  3  2  0  0  0  0
  5 15  1  0  0  0  0
  6  5  1  0  0  0  0
  6  9  1  0  0  0  0
  7  6  1  0  0  0  0
  8  6  1  0  0  0  0
  9 11  1  0  0  0  0
  9 10  1  0  0  0  0
  9 12  1  0  0  0  0
 12 14  1  0  0  0  0
 13 12  1  0  0  0  0
 15 17  1  0  0  0  0
 15 16  1  0  0  0  0
 15 12  1  0  0  0  0
M  END
