1
 OpenBabel05122313113D

 22 22  0  0  0  0  0  0  0  0999 V2000
   -1.8221    0.6961   -0.5726 C   0  0  0  0  0  3  0  0  0  0  0  0
   -1.8267   -0.7650   -0.6252 C   0  0  0  0  0  3  0  0  0  0  0  0
   -2.5880   -1.6277    0.3682 C   0  0  0  0  0  0  0  0  0  0  0  0
   -2.4943   -1.2464    1.4129 H   0  0  0  0  0  0  0  0  0  0  0  0
   -2.1317   -2.6427    0.3841 H   0  0  0  0  0  0  0  0  0  0  0  0
   -4.0934   -1.7984    0.0785 C   0  0  0  0  0  0  0  0  0  0  0  0
   -4.2158   -2.0951   -0.9875 H   0  0  0  0  0  0  0  0  0  0  0  0
   -4.4655   -2.6596    0.6765 H   0  0  0  0  0  0  0  0  0  0  0  0
   -5.0058   -0.5937    0.3677 C   0  0  0  0  0  0  0  0  0  0  0  0
   -4.8899   -0.2917    1.4344 H   0  0  0  0  0  0  0  0  0  0  0  0
   -6.0530   -0.9548    0.2851 H   0  0  0  0  0  0  0  0  0  0  0  0
   -4.8376    0.6402   -0.5475 C   0  0  0  0  0  0  0  0  0  0  0  0
   -4.3783    0.3191   -1.5067 H   0  0  0  0  0  0  0  0  0  0  0  0
   -5.8415    1.0329   -0.8149 H   0  0  0  0  0  0  0  0  0  0  0  0
   -4.0290    1.8111    0.0318 C   0  0  0  0  0  0  0  0  0  0  0  0
   -4.5834    2.2561    0.8891 H   0  0  0  0  0  0  0  0  0  0  0  0
   -3.9740    2.6078   -0.7422 H   0  0  0  0  0  0  0  0  0  0  0  0
   -2.5935    1.4685    0.4780 C   0  0  0  0  0  0  0  0  0  0  0  0
   -2.0699    2.4199    0.7239 H   0  0  0  0  0  0  0  0  0  0  0  0
   -2.6435    0.8986    1.4346 H   0  0  0  0  0  0  0  0  0  0  0  0
   -1.8505    1.1987   -1.5614 H   0  0  0  0  0  0  0  0  0  0  0  0
   -1.8459   -1.2022   -1.6438 H   0  0  0  0  0  0  0  0  0  0  0  0
  1 18  1  0  0  0  0
  2  1  1  0  0  0  0
  2  3  1  0  0  0  0
  3  5  1  0  0  0  0
  3  4  1  0  0  0  0
  6  9  1  0  0  0  0
  6  3  1  0  0  0  0
  6  8  1  0  0  0  0
  7  6  1  0  0  0  0
  9 10  1  0  0  0  0
 11  9  1  0  0  0  0
 12 15  1  0  0  0  0
 12  9  1  0  0  0  0
 13 12  1  0  0  0  0
 14 12  1  0  0  0  0
 15 18  1  0  0  0  0
 15 16  1  0  0  0  0
 17 15  1  0  0  0  0
 18 19  1  0  0  0  0
 18 20  1  0  0  0  0
 21  1  1  0  0  0  0
 22  2  1  0  0  0  0
M  END
