17
 OpenBabel05122313113D

 38 38  0  0  1  0  0  0  0  0999 V2000
    3.3160    3.2230    1.2824 C   0  0  0  0  0  0  0  0  0  0  0  0
    3.9834    3.6860    2.0390 H   0  0  0  0  0  0  0  0  0  0  0  0
    2.2748    3.3595    1.6328 H   0  0  0  0  0  0  0  0  0  0  0  0
    3.4383    3.7982    0.3440 H   0  0  0  0  0  0  0  0  0  0  0  0
    5.1162    1.6625    0.5400 C   0  0  0  0  0  0  0  0  0  0  0  0
    5.7950    2.2947    1.1496 H   0  0  0  0  0  0  0  0  0  0  0  0
    5.1762    2.0266   -0.5049 H   0  0  0  0  0  0  0  0  0  0  0  0
    5.5160    0.6309    0.5639 H   0  0  0  0  0  0  0  0  0  0  0  0
    3.6943    1.0760    2.4969 C   0  0  0  0  0  0  0  0  0  0  0  0
    3.9351   -0.0036    2.4400 H   0  0  0  0  0  0  0  0  0  0  0  0
    2.7201    1.1794    3.0149 H   0  0  0  0  0  0  0  0  0  0  0  0
    4.4640    1.5582    3.1345 H   0  0  0  0  0  0  0  0  0  0  0  0
    3.6835    1.7340    1.1051 C   0  0  0  0  0  0  0  0  0  0  0  0
    2.6479    1.0083    0.1239 C   0  0  1  0  0  0  0  0  0  0  0  0
    3.0272   -0.4482   -0.2476 C   0  0  2  0  0  3  0  0  0  0  0  0
    2.5125   -1.3622    0.7319 C   0  0  2  0  0  3  0  0  0  0  0  0
    1.4132   -0.6713    1.4138 C   0  0  2  0  0  3  0  0  0  0  0  0
    1.3056    0.6298    0.7963 C   0  0  1  0  0  3  0  0  0  0  0  0
    0.2622    1.6275    1.2126 C   0  0  0  0  0  0  0  0  0  0  0  0
   -0.7381    1.1572    1.3036 H   0  0  0  0  0  0  0  0  0  0  0  0
    0.1707    2.4520    0.4798 H   0  0  0  0  0  0  0  0  0  0  0  0
    0.4981    2.0908    2.1974 H   0  0  0  0  0  0  0  0  0  0  0  0
    2.4192    1.8465   -1.1486 C   0  0  0  0  0  0  0  0  0  0  0  0
    1.8525    1.2508   -1.8925 H   0  0  0  0  0  0  0  0  0  0  0  0
    3.3732    2.1570   -1.6188 H   0  0  0  0  0  0  0  0  0  0  0  0
    1.8415    2.7674   -0.9377 H   0  0  0  0  0  0  0  0  0  0  0  0
    4.0739   -0.8275   -1.2569 C   0  0  0  0  0  0  0  0  0  0  0  0
    5.0725   -0.9697   -0.7905 H   0  0  0  0  0  0  0  0  0  0  0  0
    4.1786   -0.0517   -2.0390 H   0  0  0  0  0  0  0  0  0  0  0  0
    3.7894   -1.7683   -1.7681 H   0  0  0  0  0  0  0  0  0  0  0  0
    3.0049   -2.7451    1.0215 C   0  0  0  0  0  0  0  0  0  0  0  0
    3.4540   -3.2019    0.1198 H   0  0  0  0  0  0  0  0  0  0  0  0
    2.1847   -3.4061    1.3635 H   0  0  0  0  0  0  0  0  0  0  0  0
    3.7825   -2.7281    1.8177 H   0  0  0  0  0  0  0  0  0  0  0  0
    0.6585   -1.1809    2.6005 C   0  0  0  0  0  0  0  0  0  0  0  0
    1.2144   -0.9635    3.5403 H   0  0  0  0  0  0  0  0  0  0  0  0
    0.5066   -2.2775    2.5520 H   0  0  0  0  0  0  0  0  0  0  0  0
   -0.3337   -0.6976    2.6877 H   0  0  0  0  0  0  0  0  0  0  0  0
  1  3  1  0  0  0  0
  1  2  1  0  0  0  0
  4  1  1  0  0  0  0
  5  8  1  0  0  0  0
  5 13  1  0  0  0  0
  5  6  1  0  0  0  0
  7  5  1  0  0  0  0
  9 11  1  0  0  0  0
  9 12  1  0  0  0  0
 10  9  1  0  0  0  0
 13  1  1  0  0  0  0
 13  9  1  0  0  0  0
 14 23  1  6  0  0  0
 14 18  1  0  0  0  0
 14 13  1  0  0  0  0
 15 27  1  1  0  0  0
 15 14  1  0  0  0  0
 15 16  1  0  0  0  0
 16 31  1  1  0  0  0
 16 17  1  0  0  0  0
 17 35  1  1  0  0  0
 18 19  1  1  0  0  0
 18 17  1  0  0  0  0
 19 20  1  0  0  0  0
 19 22  1  0  0  0  0
 21 19  1  0  0  0  0
 23 26  1  0  0  0  0
 24 23  1  0  0  0  0
 25 23  1  0  0  0  0
 27 28  1  0  0  0  0
 29 27  1  0  0  0  0
 30 27  1  0  0  0  0
 31 33  1  0  0  0  0
 31 34  1  0  0  0  0
 32 31  1  0  0  0  0
 35 38  1  0  0  0  0
 35 36  1  0  0  0  0
 37 35  1  0  0  0  0
M  END
