11
 OpenBabel05122313113D

 70 72  0  0  1  0  0  0  0  0999 V2000
   -0.7620   -1.9343    1.7912 Si  0  0  0  0  0  0  0  0  0  0  0  0
   -0.7707    1.5728    2.0750 Si  0  0  0  0  0  0  0  0  0  0  0  0
    0.7600   -0.8689    1.4445 C   0  0  0  0  0  0  0  0  0  0  0  0
    0.7645    0.5835    1.5616 C   0  0  1  0  0  3  0  0  0  0  0  0
    1.8157    1.0643    0.7100 C   0  0  0  0  0  0  0  0  0  0  0  0
    2.0634    2.1202    0.5455 H   0  0  0  0  0  0  0  0  0  0  0  0
    2.4597   -0.0368    0.0646 C   0  0  0  0  0  0  0  0  0  0  0  0
    1.7971   -1.2150    0.5256 C   0  0  0  0  0  0  0  0  0  0  0  0
    2.0390   -2.2298    0.1855 H   0  0  0  0  0  0  0  0  0  0  0  0
   -1.8779   -0.8235    0.7196 C   0  0  1  0  0  3  0  0  0  0  0  0
   -1.8904    0.6458    0.8434 C   0  0  2  0  0  3  0  0  0  0  0  0
   -2.4618    1.1719   -0.3686 C   0  0  0  0  0  0  0  0  0  0  0  0
   -2.7287    0.0768   -1.2369 C   0  0  0  0  0  0  0  0  0  0  0  0
   -3.1338    0.1603   -2.2507 H   0  0  0  0  0  0  0  0  0  0  0  0
   -2.4297   -1.1460   -0.5726 C   0  0  2  0  0  3  0  0  0  0  0  0
   -0.4417   -3.6527    1.0787 C   0  0  0  0  0  0  0  0  0  0  0  0
    0.3555   -4.1313    1.6853 H   0  0  0  0  0  0  0  0  0  0  0  0
   -0.0956   -3.6121    0.0277 H   0  0  0  0  0  0  0  0  0  0  0  0
   -1.3377   -4.3019    1.1330 H   0  0  0  0  0  0  0  0  0  0  0  0
   -1.2553   -2.1402    3.6002 C   0  0  0  0  0  0  0  0  0  0  0  0
   -0.5990   -2.9036    4.0662 H   0  0  0  0  0  0  0  0  0  0  0  0
   -2.3026   -2.4989    3.6734 H   0  0  0  0  0  0  0  0  0  0  0  0
   -1.1643   -1.2102    4.1885 H   0  0  0  0  0  0  0  0  0  0  0  0
   -1.3337    1.4775    3.8771 C   0  0  0  0  0  0  0  0  0  0  0  0
   -0.4661    1.4725    4.5677 H   0  0  0  0  0  0  0  0  0  0  0  0
   -1.9577    0.5893    4.0843 H   0  0  0  0  0  0  0  0  0  0  0  0
   -1.9445    2.3755    4.1042 H   0  0  0  0  0  0  0  0  0  0  0  0
   -0.4411    3.3845    1.6633 C   0  0  0  0  0  0  0  0  0  0  0  0
   -0.0749    3.5169    0.6267 H   0  0  0  0  0  0  0  0  0  0  0  0
    0.3407    3.7571    2.3581 H   0  0  0  0  0  0  0  0  0  0  0  0
   -1.3419    4.0132    1.8063 H   0  0  0  0  0  0  0  0  0  0  0  0
    3.6729   -0.0236   -0.8387 C   0  0  1  0  0  0  0  0  0  0  0  0
    3.6246   -0.9638   -1.4319 H   0  0  0  0  0  0  0  0  0  0  0  0
    3.6479    1.1452   -1.8324 C   0  0  0  0  0  0  0  0  0  0  0  0
    2.7248    1.1171   -2.4408 H   0  0  0  0  0  0  0  0  0  0  0  0
    4.5103    1.1056   -2.5241 H   0  0  0  0  0  0  0  0  0  0  0  0
    3.6681    2.1298   -1.3237 H   0  0  0  0  0  0  0  0  0  0  0  0
    5.0129   -0.1238   -0.0049 C   0  0  0  0  0  0  0  0  0  0  0  0
    4.9805   -1.3746    0.8935 C   0  0  0  0  0  0  0  0  0  0  0  0
    5.9517   -1.4975    1.4154 H   0  0  0  0  0  0  0  0  0  0  0  0
    4.8008   -2.2942    0.2981 H   0  0  0  0  0  0  0  0  0  0  0  0
    4.1902   -1.3099    1.6671 H   0  0  0  0  0  0  0  0  0  0  0  0
    6.2035   -0.2650   -0.9734 C   0  0  0  0  0  0  0  0  0  0  0  0
    7.1395   -0.4462   -0.4065 H   0  0  0  0  0  0  0  0  0  0  0  0
    6.3597    0.6459   -1.5836 H   0  0  0  0  0  0  0  0  0  0  0  0
    6.0582   -1.1200   -1.6663 H   0  0  0  0  0  0  0  0  0  0  0  0
    5.2188    1.1184    0.8796 C   0  0  0  0  0  0  0  0  0  0  0  0
    4.3958    1.2354    1.6134 H   0  0  0  0  0  0  0  0  0  0  0  0
    5.2795    2.0481    0.2790 H   0  0  0  0  0  0  0  0  0  0  0  0
    6.1658    1.0307    1.4509 H   0  0  0  0  0  0  0  0  0  0  0  0
   -2.8387    2.6137   -0.6372 C   0  0  0  0  0  0  0  0  0  0  0  0
   -1.9393    3.2392   -0.4674 H   0  0  0  0  0  0  0  0  0  0  0  0
   -3.9221    3.0541    0.3657 C   0  0  0  0  0  0  0  0  0  0  0  0
   -4.8522    2.4650    0.2258 H   0  0  0  0  0  0  0  0  0  0  0  0
   -4.1717    4.1259    0.2266 H   0  0  0  0  0  0  0  0  0  0  0  0
   -3.5936    2.9095    1.4145 H   0  0  0  0  0  0  0  0  0  0  0  0
   -3.2912    2.8519   -2.0812 C   0  0  0  0  0  0  0  0  0  0  0  0
   -2.5049    2.5488   -2.7993 H   0  0  0  0  0  0  0  0  0  0  0  0
   -3.5049    3.9270   -2.2449 H   0  0  0  0  0  0  0  0  0  0  0  0
   -4.2197    2.2896   -2.3131 H   0  0  0  0  0  0  0  0  0  0  0  0
   -2.7700   -2.5251   -1.0991 C   0  0  0  0  0  0  0  0  0  0  0  0
   -1.8644   -3.1581   -1.0151 H   0  0  0  0  0  0  0  0  0  0  0  0
   -3.8702   -3.1501   -0.2203 C   0  0  0  0  0  0  0  0  0  0  0  0
   -4.8077   -2.5598   -0.2847 H   0  0  0  0  0  0  0  0  0  0  0  0
   -3.5728   -3.1840    0.8471 H   0  0  0  0  0  0  0  0  0  0  0  0
   -4.0942   -4.1854   -0.5495 H   0  0  0  0  0  0  0  0  0  0  0  0
   -3.1792   -2.5155   -2.5755 C   0  0  0  0  0  0  0  0  0  0  0  0
   -3.3613   -3.5497   -2.9299 H   0  0  0  0  0  0  0  0  0  0  0  0
   -2.3824   -2.0754   -3.2060 H   0  0  0  0  0  0  0  0  0  0  0  0
   -4.1157   -1.9412   -2.7339 H   0  0  0  0  0  0  0  0  0  0  0  0
  1 20  1  0  0  0  0
  2 24  1  0  0  0  0
  3  4  1  0  0  0  0
  3  1  1  0  0  0  0
  4  5  1  6  0  0  0
  4  2  1  0  0  0  0
  6  5  1  0  0  0  0
  7  8  1  0  0  0  0
  7  5  2  0  0  0  0
  8  3  2  0  0  0  0
  9  8  1  0  0  0  0
 10 11  1  0  0  0  0
 10  1  1  6  0  0  0
 11 12  1  6  0  0  0
 11  2  1  0  0  0  0
 13 15  1  0  0  0  0
 13 12  2  0  0  0  0
 14 13  1  0  0  0  0
 15 61  1  1  0  0  0
 15 10  1  0  0  0  0
 16 19  1  0  0  0  0
 16 17  1  0  0  0  0
 16  1  1  0  0  0  0
 18 16  1  0  0  0  0
 20 22  1  0  0  0  0
 20 21  1  0  0  0  0
 20 23  1  0  0  0  0
 24 26  1  0  0  0  0
 24 27  1  0  0  0  0
 24 25  1  0  0  0  0
 28 31  1  0  0  0  0
 28  2  1  0  0  0  0
 28 30  1  0  0  0  0
 29 28  1  0  0  0  0
 32 33  1  6  0  0  0
 32 38  1  0  0  0  0
 32  7  1  0  0  0  0
 34 37  1  0  0  0  0
 34 32  1  0  0  0  0
 35 34  1  0  0  0  0
 36 34  1  0  0  0  0
 38 47  1  0  0  0  0
 38 39  1  0  0  0  0
 39 40  1  0  0  0  0
 39 42  1  0  0  0  0
 41 39  1  0  0  0  0
 43 44  1  0  0  0  0
 43 38  1  0  0  0  0
 45 43  1  0  0  0  0
 46 43  1  0  0  0  0
 47 50  1  0  0  0  0
 47 48  1  0  0  0  0
 49 47  1  0  0  0  0
 51 52  1  0  0  0  0
 51 12  1  0  0  0  0
 51 53  1  0  0  0  0
 53 56  1  0  0  0  0
 54 53  1  0  0  0  0
 55 53  1  0  0  0  0
 57 51  1  0  0  0  0
 58 57  1  0  0  0  0
 59 57  1  0  0  0  0
 60 57  1  0  0  0  0
 61 62  1  0  0  0  0
 61 63  1  0  0  0  0
 63 65  1  0  0  0  0
 64 63  1  0  0  0  0
 66 63  1  0  0  0  0
 67 61  1  0  0  0  0
 68 67  1  0  0  0  0
 69 67  1  0  0  0  0
 70 67  1  0  0  0  0
M  END
