10
 OpenBabel05122313113D

 82 84  0  0  1  0  0  0  0  0999 V2000
   -0.1678   -1.8242    2.0496 Si  0  0  0  0  0  0  0  0  0  0  0  0
    1.3095   -0.7652    1.5316 C   0  0  0  0  0  0  0  0  0  0  0  0
    1.3025    0.6913    1.5645 C   0  0  1  0  0  3  0  0  0  0  0  0
    2.2822    1.1316    0.6120 C   0  0  0  0  0  0  0  0  0  0  0  0
    2.5038    2.1784    0.3702 H   0  0  0  0  0  0  0  0  0  0  0  0
    2.8924    0.0013   -0.0153 C   0  0  0  0  0  0  0  0  0  0  0  0
    2.2810   -1.1545    0.5595 C   0  0  0  0  0  0  0  0  0  0  0  0
    2.5094   -2.1848    0.2597 H   0  0  0  0  0  0  0  0  0  0  0  0
   -1.3744   -0.7873    1.0024 C   0  0  1  0  0  3  0  0  0  0  0  0
   -1.3976    0.6865    1.0407 C   0  0  2  0  0  3  0  0  0  0  0  0
   -2.0625    1.1345   -0.1549 C   0  0  0  0  0  0  0  0  0  0  0  0
   -2.3778   -0.0127   -0.9348 C   0  0  0  0  0  0  0  0  0  0  0  0
   -2.8632    0.0064   -1.9157 H   0  0  0  0  0  0  0  0  0  0  0  0
   -2.0146   -1.1910   -0.2245 C   0  0  2  0  0  3  0  0  0  0  0  0
    0.1317   -3.5768    1.4146 C   0  0  0  0  0  0  0  0  0  0  0  0
    0.9838   -4.0038    1.9840 H   0  0  0  0  0  0  0  0  0  0  0  0
    0.3947   -3.5931    0.3392 H   0  0  0  0  0  0  0  0  0  0  0  0
   -0.7427   -4.2372    1.5768 H   0  0  0  0  0  0  0  0  0  0  0  0
   -0.5283   -1.9334    3.8978 C   0  0  0  0  0  0  0  0  0  0  0  0
    0.1716   -2.6608    4.3580 H   0  0  0  0  0  0  0  0  0  0  0  0
   -1.5617   -2.3014    4.0637 H   0  0  0  0  0  0  0  0  0  0  0  0
   -0.4128   -0.9707    4.4262 H   0  0  0  0  0  0  0  0  0  0  0  0
   -0.6369    1.7033    3.9699 C   0  0  0  0  0  0  0  0  0  0  0  0
    0.2765    1.7708    4.5951 H   0  0  0  0  0  0  0  0  0  0  0  0
   -1.2139    0.8130    4.2787 H   0  0  0  0  0  0  0  0  0  0  0  0
   -1.2611    2.5959    4.1813 H   0  0  0  0  0  0  0  0  0  0  0  0
    0.0779    3.4820    1.5915 C   0  0  0  0  0  0  0  0  0  0  0  0
   -0.8139    4.1155    1.7658 H   0  0  0  0  0  0  0  0  0  0  0  0
    0.3640    3.5548    0.5244 H   0  0  0  0  0  0  0  0  0  0  0  0
    0.9072    3.8961    2.2027 H   0  0  0  0  0  0  0  0  0  0  0  0
    4.0349   -0.0238   -1.0062 C   0  0  1  0  0  0  0  0  0  0  0  0
    3.9363   -0.9802   -1.5665 H   0  0  0  0  0  0  0  0  0  0  0  0
    3.9446    1.1170   -2.0283 C   0  0  0  0  0  0  0  0  0  0  0  0
    2.9678    1.0981   -2.5465 H   0  0  0  0  0  0  0  0  0  0  0  0
    4.7369    1.0350   -2.7957 H   0  0  0  0  0  0  0  0  0  0  0  0
    4.0382    2.1143   -1.5531 H   0  0  0  0  0  0  0  0  0  0  0  0
    5.4331   -0.1104   -0.2717 C   0  0  0  0  0  0  0  0  0  0  0  0
    5.4715   -1.3471    0.6457 C   0  0  0  0  0  0  0  0  0  0  0  0
    5.2500   -2.2763    0.0800 H   0  0  0  0  0  0  0  0  0  0  0  0
    4.7420   -1.2709    1.4759 H   0  0  0  0  0  0  0  0  0  0  0  0
    6.4794   -1.4602    1.0950 H   0  0  0  0  0  0  0  0  0  0  0  0
    6.5495   -0.2641   -1.3232 C   0  0  0  0  0  0  0  0  0  0  0  0
    7.5248   -0.4380   -0.8242 H   0  0  0  0  0  0  0  0  0  0  0  0
    6.6593    0.6389   -1.9547 H   0  0  0  0  0  0  0  0  0  0  0  0
    6.3547   -1.1280   -1.9925 H   0  0  0  0  0  0  0  0  0  0  0  0
    5.6999    1.1454    0.5766 C   0  0  0  0  0  0  0  0  0  0  0  0
    4.9320    1.2724    1.3665 H   0  0  0  0  0  0  0  0  0  0  0  0
    5.7138    2.0662   -0.0407 H   0  0  0  0  0  0  0  0  0  0  0  0
    6.6864    1.0683    1.0781 H   0  0  0  0  0  0  0  0  0  0  0  0
   -2.4895    2.5524   -0.4649 C   0  0  0  0  0  0  0  0  0  0  0  0
   -1.5953    3.2040   -0.3871 H   0  0  0  0  0  0  0  0  0  0  0  0
   -3.4892    3.0283    0.6227 C   0  0  0  0  0  0  0  0  0  0  0  0
   -2.9886    2.9445    1.6112 H   0  0  0  0  0  0  0  0  0  0  0  0
   -3.6854    4.1118    0.4763 H   0  0  0  0  0  0  0  0  0  0  0  0
   -4.8094    2.2584    0.6635 C   0  0  0  0  0  0  0  0  0  0  0  0
   -5.3898    2.3815   -0.2735 H   0  0  0  0  0  0  0  0  0  0  0  0
   -5.4512    2.6091    1.4963 H   0  0  0  0  0  0  0  0  0  0  0  0
   -4.6371    1.1712    0.8064 H   0  0  0  0  0  0  0  0  0  0  0  0
   -3.0196    2.7091   -1.9017 C   0  0  0  0  0  0  0  0  0  0  0  0
   -2.2553    2.2909   -2.5883 H   0  0  0  0  0  0  0  0  0  0  0  0
   -3.9335    2.0912   -2.0377 H   0  0  0  0  0  0  0  0  0  0  0  0
   -3.3118    4.1559   -2.2994 C   0  0  0  0  0  0  0  0  0  0  0  0
   -4.1288    4.6032   -1.6969 H   0  0  0  0  0  0  0  0  0  0  0  0
   -3.6145    4.2237   -3.3634 H   0  0  0  0  0  0  0  0  0  0  0  0
   -2.4127    4.7936   -2.1682 H   0  0  0  0  0  0  0  0  0  0  0  0
   -2.3870   -2.6012   -0.6281 C   0  0  0  0  0  0  0  0  0  0  0  0
   -1.4770   -3.2305   -0.5601 H   0  0  0  0  0  0  0  0  0  0  0  0
   -3.4025   -3.1696    0.3991 C   0  0  0  0  0  0  0  0  0  0  0  0
   -3.5616   -4.2476    0.1832 H   0  0  0  0  0  0  0  0  0  0  0  0
   -2.9329   -3.1308    1.4053 H   0  0  0  0  0  0  0  0  0  0  0  0
   -4.7462   -2.4417    0.4451 C   0  0  0  0  0  0  0  0  0  0  0  0
   -4.6120   -1.3609    0.6593 H   0  0  0  0  0  0  0  0  0  0  0  0
   -5.4012   -2.8618    1.2344 H   0  0  0  0  0  0  0  0  0  0  0  0
   -5.2947   -2.5235   -0.5153 H   0  0  0  0  0  0  0  0  0  0  0  0
   -2.8693   -2.6911   -2.0877 C   0  0  0  0  0  0  0  0  0  0  0  0
   -3.8020   -2.1004   -2.2161 H   0  0  0  0  0  0  0  0  0  0  0  0
   -2.1020   -2.2056   -2.7251 H   0  0  0  0  0  0  0  0  0  0  0  0
   -3.0949   -4.1216   -2.5769 C   0  0  0  0  0  0  0  0  0  0  0  0
   -2.1762   -4.7329   -2.4565 H   0  0  0  0  0  0  0  0  0  0  0  0
   -3.3655   -4.1374   -3.6516 H   0  0  0  0  0  0  0  0  0  0  0  0
   -3.9106   -4.6332   -2.0258 H   0  0  0  0  0  0  0  0  0  0  0  0
   -0.2044    1.6957    2.1300 Si  0  0  0  0  0  0  0  0  0  0  0  0
  1 19  1  0  0  0  0
  2  3  1  0  0  0  0
  2  1  1  0  0  0  0
  3  4  1  6  0  0  0
  3 82  1  0  0  0  0
  5  4  1  0  0  0  0
  6  7  1  0  0  0  0
  6  4  2  0  0  0  0
  7  2  2  0  0  0  0
  8  7  1  0  0  0  0
  9 10  1  0  0  0  0
  9  1  1  6  0  0  0
 10 11  1  6  0  0  0
 10 82  1  0  0  0  0
 12 14  1  0  0  0  0
 12 11  2  0  0  0  0
 13 12  1  0  0  0  0
 14 66  1  1  0  0  0
 14  9  1  0  0  0  0
 15 18  1  0  0  0  0
 15 16  1  0  0  0  0
 15  1  1  0  0  0  0
 17 15  1  0  0  0  0
 19 21  1  0  0  0  0
 19 20  1  0  0  0  0
 19 22  1  0  0  0  0
 23 26  1  0  0  0  0
 23 25  1  0  0  0  0
 23 24  1  0  0  0  0
 27 28  1  0  0  0  0
 27 82  1  0  0  0  0
 27 30  1  0  0  0  0
 29 27  1  0  0  0  0
 31 32  1  6  0  0  0
 31 37  1  0  0  0  0
 31  6  1  0  0  0  0
 33 36  1  0  0  0  0
 33 31  1  0  0  0  0
 34 33  1  0  0  0  0
 35 33  1  0  0  0  0
 37 46  1  0  0  0  0
 37 38  1  0  0  0  0
 38 41  1  0  0  0  0
 38 40  1  0  0  0  0
 39 38  1  0  0  0  0
 42 43  1  0  0  0  0
 42 37  1  0  0  0  0
 44 42  1  0  0  0  0
 45 42  1  0  0  0  0
 46 49  1  0  0  0  0
 46 47  1  0  0  0  0
 48 46  1  0  0  0  0
 50 51  1  0  0  0  0
 50 11  1  0  0  0  0
 50 52  1  0  0  0  0
 52 55  1  0  0  0  0
 52 53  1  0  0  0  0
 54 52  1  0  0  0  0
 55 58  1  0  0  0  0
 55 57  1  0  0  0  0
 56 55  1  0  0  0  0
 59 50  1  0  0  0  0
 60 59  1  0  0  0  0
 61 59  1  0  0  0  0
 62 65  1  0  0  0  0
 62 59  1  0  0  0  0
 62 63  1  0  0  0  0
 64 62  1  0  0  0  0
 66 67  1  0  0  0  0
 66 68  1  0  0  0  0
 68 71  1  0  0  0  0
 68 70  1  0  0  0  0
 69 68  1  0  0  0  0
 71 72  1  0  0  0  0
 71 73  1  0  0  0  0
 74 71  1  0  0  0  0
 75 66  1  0  0  0  0
 76 75  1  0  0  0  0
 77 75  1  0  0  0  0
 78 79  1  0  0  0  0
 78 75  1  0  0  0  0
 78 81  1  0  0  0  0
 80 78  1  0  0  0  0
 82 23  1  0  0  0  0
M  END
