2
 OpenBabel05122313113D

 26 26  0  0  1  0  0  0  0  0999 V2000
   -0.4076    0.2908    0.8203 C   0  0  1  0  0  3  0  0  0  0  0  0
    0.7116    0.4354    1.7297 C   0  0  0  0  0  3  0  0  0  0  0  0
    1.4589   -0.7549    1.9470 C   0  0  0  0  0  3  0  0  0  0  0  0
    1.0259   -1.8917    1.1839 C   0  0  0  0  0  3  0  0  0  0  0  0
   -0.4417   -2.2199    1.0382 C   0  0  0  0  0  0  0  0  0  0  0  0
   -1.3072   -0.9434    1.0008 C   0  0  2  0  0  0  0  0  0  0  0  0
   -1.0807    1.5216    0.3137 C   0  0  0  0  0  0  0  0  0  0  0  0
   -2.1295    1.5434   -0.3123 O   0  0  0  0  0  0  0  0  0  0  0  0
   -0.3851    2.6516    0.6129 O   0  0  0  0  0  0  0  0  0  0  0  0
   -0.9098    3.8626    0.0600 C   0  0  0  0  0  0  0  0  0  0  0  0
   -2.3730   -1.0636   -0.0881 C   0  0  0  0  0  0  0  0  0  0  0  0
   -2.1561   -1.4207   -1.2306 O   0  0  0  0  0  0  0  0  0  0  0  0
   -3.6032   -0.8022    0.4058 O   0  0  0  0  0  0  0  0  0  0  0  0
   -4.6469   -0.7509   -0.5724 C   0  0  0  0  0  0  0  0  0  0  0  0
    0.9944    1.4034    2.1648 H   0  0  0  0  0  0  0  0  0  0  0  0
    2.3810   -0.7481    2.5482 H   0  0  0  0  0  0  0  0  0  0  0  0
    1.7076   -2.7579    1.1550 H   0  0  0  0  0  0  0  0  0  0  0  0
   -0.5984   -2.7889    0.0999 H   0  0  0  0  0  0  0  0  0  0  0  0
   -0.7640   -2.8833    1.8723 H   0  0  0  0  0  0  0  0  0  0  0  0
   -1.8462   -0.8078    1.9618 H   0  0  0  0  0  0  0  0  0  0  0  0
   -0.2322    4.6686    0.3925 H   0  0  0  0  0  0  0  0  0  0  0  0
   -1.9422    4.0469    0.4187 H   0  0  0  0  0  0  0  0  0  0  0  0
   -0.9286    3.8104   -1.0473 H   0  0  0  0  0  0  0  0  0  0  0  0
   -5.5914   -0.6321   -0.0120 H   0  0  0  0  0  0  0  0  0  0  0  0
   -4.6662   -1.6748   -1.1842 H   0  0  0  0  0  0  0  0  0  0  0  0
   -4.4838    0.1170   -1.2431 H   0  0  0  0  0  0  0  0  0  0  0  0
  1  7  1  1  0  0  0
  1  6  1  0  0  0  0
  1  2  1  0  0  0  0
  2  3  1  0  0  0  0
  2 15  1  0  0  0  0
  3 16  1  0  0  0  0
  4  3  1  0  0  0  0
  5  4  1  0  0  0  0
  5 19  1  0  0  0  0
  6  5  1  0  0  0  0
  6 20  1  1  0  0  0
  7  9  1  0  0  0  0
  8  7  2  0  0  0  0
 10 21  1  0  0  0  0
 10 22  1  0  0  0  0
 10  9  1  0  0  0  0
 11 13  1  0  0  0  0
 11  6  1  0  0  0  0
 12 11  2  0  0  0  0
 14 24  1  0  0  0  0
 14 13  1  0  0  0  0
 17  4  1  0  0  0  0
 18  5  1  0  0  0  0
 23 10  1  0  0  0  0
 25 14  1  0  0  0  0
 26 14  1  0  0  0  0
M  END
