1
 OpenBabel05122313113D

 48 48  0  0  1  0  0  0  0  0999 V2000
   -1.6917   -1.1633   -0.3677 C   0  0  1  0  0  3  0  0  0  0  0  0
   -2.0323    0.1490   -0.8541 C   0  0  0  0  0  0  0  0  0  0  0  0
   -1.5619    1.3119   -0.1413 C   0  0  0  0  0  0  0  0  0  0  0  0
   -0.7914    1.1707    1.0692 C   0  0  0  0  0  0  0  0  0  0  0  0
   -0.4731   -0.1515    1.5560 C   0  0  0  0  0  0  0  0  0  0  0  0
   -0.9310   -1.3190    0.8551 C   0  0  2  0  0  3  0  0  0  0  0  0
   -2.1629   -2.3929   -1.1297 C   0  0  0  0  0  0  0  0  0  0  0  0
   -2.8085    0.3112   -2.1517 C   0  0  0  0  0  0  0  0  0  0  0  0
   -1.8824    2.7036   -0.6676 C   0  0  0  0  0  0  0  0  0  0  0  0
   -0.3296    2.4009    1.8356 C   0  0  0  0  0  0  0  0  0  0  0  0
    0.2641   -0.3163    2.8762 C   0  0  0  0  0  0  0  0  0  0  0  0
   -0.6026   -2.7111    1.3723 C   0  0  0  0  0  0  0  0  0  0  0  0
   -3.3716   -3.1087   -0.5085 C   0  0  0  0  0  0  0  0  0  0  0  0
   -4.3165    0.0334   -2.0531 C   0  0  0  0  0  0  0  0  0  0  0  0
   -3.3339    3.1528   -0.4425 C   0  0  0  0  0  0  0  0  0  0  0  0
   -1.4289    3.1426    2.6139 C   0  0  0  0  0  0  0  0  0  0  0  0
   -0.5980   -0.0428    4.1189 C   0  0  0  0  0  0  0  0  0  0  0  0
   -1.4539   -3.1877    2.5610 C   0  0  0  0  0  0  0  0  0  0  0  0
   -2.4061   -2.1000   -2.1666 H   0  0  0  0  0  0  0  0  0  0  0  0
   -1.3244   -3.1085   -1.2389 H   0  0  0  0  0  0  0  0  0  0  0  0
   -2.6536    1.3358   -2.5347 H   0  0  0  0  0  0  0  0  0  0  0  0
   -2.3600   -0.3433   -2.9256 H   0  0  0  0  0  0  0  0  0  0  0  0
   -1.1973    3.4330   -0.1989 H   0  0  0  0  0  0  0  0  0  0  0  0
   -1.6430    2.7571   -1.7476 H   0  0  0  0  0  0  0  0  0  0  0  0
    0.4671    2.1082    2.5431 H   0  0  0  0  0  0  0  0  0  0  0  0
    0.1616    3.1101    1.1404 H   0  0  0  0  0  0  0  0  0  0  0  0
    0.6658   -1.3432    2.9427 H   0  0  0  0  0  0  0  0  0  0  0  0
    1.1542    0.3432    2.9031 H   0  0  0  0  0  0  0  0  0  0  0  0
   -0.7064   -3.4341    0.5430 H   0  0  0  0  0  0  0  0  0  0  0  0
    0.4681   -2.7618    1.6514 H   0  0  0  0  0  0  0  0  0  0  0  0
   -3.7583   -3.8864   -1.1974 H   0  0  0  0  0  0  0  0  0  0  0  0
   -4.2000   -2.4042   -0.2947 H   0  0  0  0  0  0  0  0  0  0  0  0
   -3.1161   -3.6093    0.4446 H   0  0  0  0  0  0  0  0  0  0  0  0
   -4.8276    0.3181   -2.9950 H   0  0  0  0  0  0  0  0  0  0  0  0
   -4.7852    0.6061   -1.2278 H   0  0  0  0  0  0  0  0  0  0  0  0
   -4.5324   -1.0363   -1.8702 H   0  0  0  0  0  0  0  0  0  0  0  0
   -3.4557    4.2217   -0.7101 H   0  0  0  0  0  0  0  0  0  0  0  0
   -3.6438    3.0308    0.6144 H   0  0  0  0  0  0  0  0  0  0  0  0
   -4.0475    2.5741   -1.0591 H   0  0  0  0  0  0  0  0  0  0  0  0
   -0.9851    3.9138    3.2759 H   0  0  0  0  0  0  0  0  0  0  0  0
   -2.0201    2.4515    3.2469 H   0  0  0  0  0  0  0  0  0  0  0  0
   -2.1412    3.6555    1.9410 H   0  0  0  0  0  0  0  0  0  0  0  0
   -0.0585   -0.3409    5.0405 H   0  0  0  0  0  0  0  0  0  0  0  0
   -1.5497   -0.6089    4.0839 H   0  0  0  0  0  0  0  0  0  0  0  0
   -0.8581    1.0276    4.2173 H   0  0  0  0  0  0  0  0  0  0  0  0
   -1.2764   -4.2637    2.7621 H   0  0  0  0  0  0  0  0  0  0  0  0
   -2.5366   -3.0534    2.3682 H   0  0  0  0  0  0  0  0  0  0  0  0
   -1.2187   -2.6350    3.4905 H   0  0  0  0  0  0  0  0  0  0  0  0
  1  7  1  1  0  0  0
  1  6  1  0  0  0  0
  2  1  1  0  0  0  0
  2  3  2  0  0  0  0
  3  4  1  0  0  0  0
  4  5  2  0  0  0  0
  4 10  1  0  0  0  0
  5 11  1  0  0  0  0
  6 12  1  6  0  0  0
  6  5  1  0  0  0  0
  7 13  1  0  0  0  0
  8 14  1  0  0  0  0
  8  2  1  0  0  0  0
  9 15  1  0  0  0  0
  9 23  1  0  0  0  0
  9  3  1  0  0  0  0
 10 25  1  0  0  0  0
 10 16  1  0  0  0  0
 11 28  1  0  0  0  0
 11 27  1  0  0  0  0
 11 17  1  0  0  0  0
 12 30  1  0  0  0  0
 12 18  1  0  0  0  0
 13 32  1  0  0  0  0
 13 33  1  0  0  0  0
 14 36  1  0  0  0  0
 14 35  1  0  0  0  0
 15 38  1  0  0  0  0
 16 41  1  0  0  0  0
 16 40  1  0  0  0  0
 17 45  1  0  0  0  0
 17 43  1  0  0  0  0
 18 46  1  0  0  0  0
 18 48  1  0  0  0  0
 19  7  1  0  0  0  0
 20  7  1  0  0  0  0
 21  8  1  0  0  0  0
 22  8  1  0  0  0  0
 24  9  1  0  0  0  0
 26 10  1  0  0  0  0
 29 12  1  0  0  0  0
 31 13  1  0  0  0  0
 34 14  1  0  0  0  0
 37 15  1  0  0  0  0
 39 15  1  0  0  0  0
 42 16  1  0  0  0  0
 44 17  1  0  0  0  0
 47 18  1  0  0  0  0
M  END
