16
 OpenBabel05122313113D

 44 46  0  0  0  0  0  0  0  0999 V2000
   -0.4403    2.5031   -1.6475 F   0  0  0  0  0  0  0  0  0  0  0  0
   -1.6035    4.9012   -1.4509 F   0  0  0  0  0  0  0  0  0  0  0  0
   -3.7276    5.2959    0.2552 F   0  0  0  0  0  0  0  0  0  0  0  0
   -4.6575    3.2002    1.7656 F   0  0  0  0  0  0  0  0  0  0  0  0
   -3.4976    0.7721    1.5791 F   0  0  0  0  0  0  0  0  0  0  0  0
   -3.8835    0.3094   -1.4785 F   0  0  0  0  0  0  0  0  0  0  0  0
   -5.3214   -1.6876   -2.4890 F   0  0  0  0  0  0  0  0  0  0  0  0
   -4.4881   -4.2914   -2.2427 F   0  0  0  0  0  0  0  0  0  0  0  0
   -2.1398   -4.8415   -0.9174 F   0  0  0  0  0  0  0  0  0  0  0  0
   -0.6804   -2.8506    0.1337 F   0  0  0  0  0  0  0  0  0  0  0  0
   -2.2722   -1.8809    2.2243 F   0  0  0  0  0  0  0  0  0  0  0  0
   -1.1767   -2.1862    4.6412 F   0  0  0  0  0  0  0  0  0  0  0  0
    0.9626   -0.6519    5.4160 F   0  0  0  0  0  0  0  0  0  0  0  0
    1.9640    1.2463    3.6952 F   0  0  0  0  0  0  0  0  0  0  0  0
    0.8633    1.6049    1.2779 F   0  0  0  0  0  0  0  0  0  0  0  0
    1.9678   -1.9906   -2.6861 C   0  0  0  0  0  3  0  0  0  0  0  0
    1.9157   -2.4802   -1.6979 H   0  0  0  0  0  0  0  0  0  0  0  0
    2.5787   -2.5364   -3.4185 H   0  0  0  0  0  0  0  0  0  0  0  0
    0.8476   -1.2345   -3.1492 C   0  0  0  0  0  0  0  0  0  0  0  0
    0.7363   -1.1203   -4.2408 H   0  0  0  0  0  0  0  0  0  0  0  0
    0.0832   -0.3542   -2.3765 C   0  0  0  0  0  0  0  0  0  0  0  0
   -0.5722    0.3489   -2.9113 H   0  0  0  0  0  0  0  0  0  0  0  0
    0.1754   -0.1762   -0.9097 C   0  0  0  0  0  0  0  0  0  0  0  0
    0.7084   -1.0213   -0.4156 H   0  0  0  0  0  0  0  0  0  0  0  0
    0.7530    0.7794   -0.6494 H   0  0  0  0  0  0  0  0  0  0  0  0
   -1.9058    1.5124   -0.0277 C   0  0  0  0  0  0  0  0  0  0  0  0
   -1.4834    2.6146   -0.7759 C   0  0  0  0  0  0  0  0  0  0  0  0
   -2.0688    3.8898   -0.7036 C   0  0  0  0  0  0  0  0  0  0  0  0
   -3.1490    4.0942    0.1659 C   0  0  0  0  0  0  0  0  0  0  0  0
   -3.6209    3.0197    0.9392 C   0  0  0  0  0  0  0  0  0  0  0  0
   -2.9926    1.7707    0.8291 C   0  0  0  0  0  0  0  0  0  0  0  0
   -2.2235   -1.1632   -0.5559 C   0  0  0  0  0  0  0  0  0  0  0  0
   -3.4139   -0.9366   -1.2693 C   0  0  0  0  0  0  0  0  0  0  0  0
   -4.1913   -1.9692   -1.8284 C   0  0  0  0  0  0  0  0  0  0  0  0
   -3.7668   -3.2998   -1.7104 C   0  0  0  0  0  0  0  0  0  0  0  0
   -2.5708   -3.5781   -1.0299 C   0  0  0  0  0  0  0  0  0  0  0  0
   -1.8384   -2.5132   -0.4893 C   0  0  0  0  0  0  0  0  0  0  0  0
   -0.7218   -0.1732    1.5858 C   0  0  0  0  0  0  0  0  0  0  0  0
   -1.2226   -1.0984    2.5187 C   0  0  0  0  0  0  0  0  0  0  0  0
   -0.6720   -1.2750    3.8023 C   0  0  0  0  0  0  0  0  0  0  0  0
    0.4161   -0.4868    4.2078 C   0  0  0  0  0  0  0  0  0  0  0  0
    0.9160    0.4866    3.3307 C   0  0  0  0  0  0  0  0  0  0  0  0
    0.3306    0.6264    2.0651 C   0  0  0  0  0  0  0  0  0  0  0  0
   -1.2343    0.0148    0.0248 B   0  0  0  0  0  0  0  0  0  0  0  0
  1 27  1  0  0  0  0
  2 28  1  0  0  0  0
  6 33  1  0  0  0  0
  7 34  1  0  0  0  0
  8 35  1  0  0  0  0
 11 39  1  0  0  0  0
 15 43  1  0  0  0  0
 16 17  1  0  0  0  0
 18 16  1  0  0  0  0
 19 16  1  0  0  0  0
 19 21  2  0  0  0  0
 20 19  1  0  0  0  0
 21 23  1  0  0  0  0
 22 21  1  0  0  0  0
 23 25  1  0  0  0  0
 23 24  1  0  0  0  0
 23 44  1  0  0  0  0
 26 44  1  0  0  0  0
 26 31  1  0  0  0  0
 27 28  1  0  0  0  0
 27 26  2  0  0  0  0
 28 29  2  0  0  0  0
 29  3  1  0  0  0  0
 29 30  1  0  0  0  0
 30  4  1  0  0  0  0
 31 30  2  0  0  0  0
 31  5  1  0  0  0  0
 32 37  1  0  0  0  0
 32 44  1  0  0  0  0
 33 32  2  0  0  0  0
 34 35  2  0  0  0  0
 34 33  1  0  0  0  0
 35 36  1  0  0  0  0
 36  9  1  0  0  0  0
 36 37  2  0  0  0  0
 37 10  1  0  0  0  0
 38 43  2  0  0  0  0
 38 39  1  0  0  0  0
 39 40  2  0  0  0  0
 40 41  1  0  0  0  0
 40 12  1  0  0  0  0
 41 13  1  0  0  0  0
 42 14  1  0  0  0  0
 42 41  2  0  0  0  0
 43 42  1  0  0  0  0
 44 38  1  0  0  0  0
M  END
