4
 OpenBabel05122313113D

 30 31  0  0  1  0  0  0  0  0999 V2000
    3.3736   -1.8268    0.8375 C   0  0  0  0  0  0  0  0  0  0  0  0
    4.3010   -2.4120    0.6794 H   0  0  0  0  0  0  0  0  0  0  0  0
    3.4141   -1.3943    1.8570 H   0  0  0  0  0  0  0  0  0  0  0  0
    0.7872   -0.7142    0.3013 C   0  0  0  0  0  3  0  0  0  0  0  0
    1.0857    0.1842    0.8714 H   0  0  0  0  0  0  0  0  0  0  0  0
    0.8830   -1.9701    1.2278 C   0  0  1  0  0  0  0  0  0  0  0  0
    1.1243   -1.6325    2.2598 H   0  0  0  0  0  0  0  0  0  0  0  0
    3.4065    0.7016    0.2693 C   0  0  0  0  0  0  0  0  0  0  0  0
    1.8579   -2.5280   -0.8939 C   0  0  0  0  0  0  0  0  0  0  0  0
    2.6908   -2.9013   -1.5244 H   0  0  0  0  0  0  0  0  0  0  0  0
    0.9070   -2.9604   -1.2533 H   0  0  0  0  0  0  0  0  0  0  0  0
    3.2357   -0.7106   -0.2368 C   0  0  2  0  0  0  0  0  0  0  0  0
    3.9570   -0.8482   -1.0673 H   0  0  0  0  0  0  0  0  0  0  0  0
   -0.3572   -2.8700    1.3074 C   0  0  0  0  0  0  0  0  0  0  0  0
   -0.6747   -3.2225    0.3068 H   0  0  0  0  0  0  0  0  0  0  0  0
   -1.2154   -2.3217    1.7489 H   0  0  0  0  0  0  0  0  0  0  0  0
   -0.1553   -3.7530    1.9489 H   0  0  0  0  0  0  0  0  0  0  0  0
    1.8042   -0.9902   -0.8279 C   0  0  2  0  0  0  0  0  0  0  0  0
    1.6152   -0.4525   -1.7740 H   0  0  0  0  0  0  0  0  0  0  0  0
    2.1121   -2.6990    0.6162 C   0  0  1  0  0  0  0  0  0  0  0  0
    2.2193   -3.7396    0.9821 H   0  0  0  0  0  0  0  0  0  0  0  0
    3.6727    1.5463   -0.7639 O   0  0  0  0  0  0  0  0  0  0  0  0
    3.2834    1.0776    1.4248 O   0  0  0  0  0  0  0  0  0  0  0  0
    3.7829    2.9473   -0.4397 C   0  0  0  0  0  0  0  0  0  0  0  0
    4.3866    3.3776   -1.2626 H   0  0  0  0  0  0  0  0  0  0  0  0
    4.3388    3.0534    0.5145 H   0  0  0  0  0  0  0  0  0  0  0  0
    2.4191    3.6142   -0.3439 C   0  0  0  0  0  0  0  0  0  0  0  0
    1.8220    3.4278   -1.2593 H   0  0  0  0  0  0  0  0  0  0  0  0
    2.5355    4.7098   -0.2205 H   0  0  0  0  0  0  0  0  0  0  0  0
    1.8633    3.2283    0.5325 H   0  0  0  0  0  0  0  0  0  0  0  0
  1  3  1  0  0  0  0
  2  1  1  0  0  0  0
  4  5  1  0  0  0  0
  4  6  1  0  0  0  0
  6 14  1  0  0  0  0
  6  7  1  1  0  0  0
  8 23  2  0  0  0  0
  9 18  1  0  0  0  0
  9 20  1  0  0  0  0
 10  9  1  0  0  0  0
 11  9  1  0  0  0  0
 12 13  1  6  0  0  0
 12  8  1  0  0  0  0
 12  1  1  0  0  0  0
 14 16  1  0  0  0  0
 14 17  1  0  0  0  0
 15 14  1  0  0  0  0
 18 19  1  6  0  0  0
 18 12  1  0  0  0  0
 18  4  1  0  0  0  0
 20  1  1  0  0  0  0
 20 21  1  1  0  0  0
 20  6  1  0  0  0  0
 22 24  1  0  0  0  0
 22  8  1  0  0  0  0
 24 27  1  0  0  0  0
 24 26  1  0  0  0  0
 25 24  1  0  0  0  0
 27 29  1  0  0  0  0
 27 30  1  0  0  0  0
 28 27  1  0  0  0  0
M  END
