1
 OpenBabel05122313113D

 21 22  0  0  1  0  0  0  0  0999 V2000
    1.3908   -0.5733   -0.2091 C   0  0  0  0  0  3  0  0  0  0  0  0
    1.1567   -1.5878   -0.5924 H   0  0  0  0  0  0  0  0  0  0  0  0
    2.3735    0.1209   -1.1803 C   0  0  1  0  0  0  0  0  0  0  0  0
    1.8952    0.6432   -2.0295 H   0  0  0  0  0  0  0  0  0  0  0  0
    3.2484    0.9809   -0.2469 C   0  0  0  0  0  0  0  0  0  0  0  0
    4.1377    1.4009   -0.7613 H   0  0  0  0  0  0  0  0  0  0  0  0
    2.6820    1.8015    0.2285 H   0  0  0  0  0  0  0  0  0  0  0  0
    3.5947   -0.1883    0.6954 C   0  0  1  0  0  0  0  0  0  0  0  0
    4.2515    0.0511    1.5556 H   0  0  0  0  0  0  0  0  0  0  0  0
    3.3893   -0.9759   -1.6002 C   0  0  0  0  0  0  0  0  0  0  0  0
    4.0429   -0.5954   -2.4123 H   0  0  0  0  0  0  0  0  0  0  0  0
    2.8918   -1.8906   -1.9830 H   0  0  0  0  0  0  0  0  0  0  0  0
    2.1845   -0.6742    1.1356 C   0  0  1  0  0  0  0  0  0  0  0  0
    2.2362   -1.7430    1.4428 H   0  0  0  0  0  0  0  0  0  0  0  0
    4.1976   -1.2211   -0.2868 C   0  0  0  0  0  0  0  0  0  0  0  0
    4.0998   -2.2592    0.0926 H   0  0  0  0  0  0  0  0  0  0  0  0
    5.2794   -1.0318   -0.4385 H   0  0  0  0  0  0  0  0  0  0  0  0
    1.6353    0.1246    2.3243 C   0  0  0  0  0  0  0  0  0  0  0  0
    1.5427    1.2013    2.0844 H   0  0  0  0  0  0  0  0  0  0  0  0
    2.2979    0.0090    3.2071 H   0  0  0  0  0  0  0  0  0  0  0  0
    0.6240   -0.2300    2.6124 H   0  0  0  0  0  0  0  0  0  0  0  0
  1 13  1  0  0  0  0
  2  1  1  0  0  0  0
  3  4  1  6  0  0  0
  3  5  1  0  0  0  0
  3  1  1  0  0  0  0
  5  7  1  0  0  0  0
  5  8  1  0  0  0  0
  6  5  1  0  0  0  0
  8 13  1  0  0  0  0
  8  9  1  1  0  0  0
 10  3  1  0  0  0  0
 10 15  1  0  0  0  0
 11 10  1  0  0  0  0
 12 10  1  0  0  0  0
 13 14  1  1  0  0  0
 13 18  1  0  0  0  0
 15 16  1  0  0  0  0
 15  8  1  0  0  0  0
 17 15  1  0  0  0  0
 18 21  1  0  0  0  0
 18 20  1  0  0  0  0
 19 18  1  0  0  0  0
M  END
