1
 OpenBabel05122313113D

 15 15  0  0  0  0  0  0  0  0999 V2000
   -1.1095   -0.9233   -0.1637 C   0  0  0  0  0  2  0  0  0  0  0  0
   -0.6104   -2.1526   -0.2572 N   0  0  0  0  0  0  0  0  0  0  0  0
   -2.5913   -0.9009   -0.2030 C   0  0  0  0  0  0  0  0  0  0  0  0
   -3.3326   -1.7478    0.6564 C   0  0  0  0  0  0  0  0  0  0  0  0
   -4.7344   -1.7226    0.6486 C   0  0  0  0  0  0  0  0  0  0  0  0
   -5.4178   -0.8766   -0.2380 C   0  0  0  0  0  0  0  0  0  0  0  0
   -4.6909   -0.0432   -1.1051 C   0  0  0  0  0  0  0  0  0  0  0  0
   -3.2914   -0.0400   -1.0779 C   0  0  0  0  0  0  0  0  0  0  0  0
   -2.7996   -2.3962    1.3695 H   0  0  0  0  0  0  0  0  0  0  0  0
   -5.2957   -2.3656    1.3436 H   0  0  0  0  0  0  0  0  0  0  0  0
   -6.5181   -0.8589   -0.2479 H   0  0  0  0  0  0  0  0  0  0  0  0
   -5.2209    0.6221   -1.8032 H   0  0  0  0  0  0  0  0  0  0  0  0
   -2.7253    0.6227   -1.7471 H   0  0  0  0  0  0  0  0  0  0  0  0
   -1.2056   -2.9759   -0.4123 H   0  0  0  0  0  0  0  0  0  0  0  0
    0.4025   -2.2927   -0.1964 H   0  0  0  0  0  0  0  0  0  0  0  0
  2 15  1  0  0  0  0
  2  1  1  0  0  0  0
  3  1  1  0  0  0  0
  3  4  1  0  0  0  0
  4  9  1  0  0  0  0
  5  4  2  0  0  0  0
  5 10  1  0  0  0  0
  6  5  1  0  0  0  0
  7  8  1  0  0  0  0
  7  6  2  0  0  0  0
  8  3  2  0  0  0  0
 11  6  1  0  0  0  0
 12  7  1  0  0  0  0
 13  8  1  0  0  0  0
 14  2  1  0  0  0  0
M  END
