17
 OpenBabel05122313113D

 23 25  0  0  0  0  0  0  0  0999 V2000
    0.5912    2.5118   -0.0002 C   0  0  0  0  0  0  0  0  0  0  0  0
   -0.5112    2.5403   -0.0003 H   0  0  0  0  0  0  0  0  0  0  0  0
    1.3029    3.6952   -0.0002 C   0  0  0  0  0  0  0  0  0  0  0  0
    0.7674    4.6563   -0.0003 H   0  0  0  0  0  0  0  0  0  0  0  0
    2.7305    3.6807    0.0000 C   0  0  0  0  0  0  0  0  0  0  0  0
    3.2851    4.6310    0.0000 H   0  0  0  0  0  0  0  0  0  0  0  0
    3.4089    2.4788    0.0001 C   0  0  0  0  0  0  0  0  0  0  0  0
    4.5099    2.4566    0.0002 H   0  0  0  0  0  0  0  0  0  0  0  0
    3.4089   -2.4788    0.0001 C   0  0  0  0  0  0  0  0  0  0  0  0
    4.5099   -2.4566    0.0002 H   0  0  0  0  0  0  0  0  0  0  0  0
    2.7305   -3.6807    0.0000 C   0  0  0  0  0  0  0  0  0  0  0  0
    3.2851   -4.6310    0.0000 H   0  0  0  0  0  0  0  0  0  0  0  0
    1.3029   -3.6952   -0.0002 C   0  0  0  0  0  0  0  0  0  0  0  0
    0.7674   -4.6563   -0.0003 H   0  0  0  0  0  0  0  0  0  0  0  0
    0.5912   -2.5118   -0.0002 C   0  0  0  0  0  0  0  0  0  0  0  0
   -0.5111   -2.5404   -0.0003 H   0  0  0  0  0  0  0  0  0  0  0  0
    0.5555    0.0000   -0.0001 C   0  0  0  0  0  3  0  0  0  0  0  0
    3.3883    0.0000    0.0002 C   0  0  0  0  0  0  0  0  0  0  0  0
    4.4900   -0.0000    0.0003 H   0  0  0  0  0  0  0  0  0  0  0  0
    1.2483   -1.2361   -0.0001 C   0  0  0  0  0  0  0  0  0  0  0  0
    2.7058   -1.2296    0.0001 C   0  0  0  0  0  0  0  0  0  0  0  0
    2.7058    1.2296    0.0001 C   0  0  0  0  0  0  0  0  0  0  0  0
    1.2483    1.2361   -0.0001 C   0  0  0  0  0  0  0  0  0  0  0  0
  1  3  2  0  0  0  0
  1 23  1  0  0  0  0
  2  1  1  0  0  0  0
  3  5  1  0  0  0  0
  4  3  1  0  0  0  0
  5  6  1  0  0  0  0
  5  7  2  0  0  0  0
  7  8  1  0  0  0  0
  9 10  1  0  0  0  0
 11 12  1  0  0  0  0
 11  9  2  0  0  0  0
 13 11  1  0  0  0  0
 14 13  1  0  0  0  0
 15 13  2  0  0  0  0
 15 20  1  0  0  0  0
 16 15  1  0  0  0  0
 17 23  2  0  0  0  0
 17 20  1  0  0  0  0
 18 19  1  0  0  0  0
 20 21  2  0  0  0  0
 21  9  1  0  0  0  0
 21 18  1  0  0  0  0
 22  7  1  0  0  0  0
 22 18  2  0  0  0  0
 23 22  1  0  0  0  0
M  END
