1
 OpenBabel05122313113D

 16 16  0  0  0  0  0  0  0  0999 V2000
   -0.8520    0.5255   -1.7975 C   0  0  0  0  0  3  0  0  0  0  0  0
   -0.1699    0.2518   -2.6200 H   0  0  0  0  0  0  0  0  0  0  0  0
   -1.8435    0.0496   -1.8545 H   0  0  0  0  0  0  0  0  0  0  0  0
   -0.7285    1.8117   -1.2164 C   0  0  0  0  0  3  0  0  0  0  0  0
    0.1024    2.4595   -1.5451 H   0  0  0  0  0  0  0  0  0  0  0  0
   -1.8473    2.5219   -0.5650 C   0  0  0  0  0  0  0  0  0  0  0  0
   -1.7999    3.9272   -0.4037 C   0  0  0  0  0  0  0  0  0  0  0  0
   -0.9310    4.4768   -0.7976 H   0  0  0  0  0  0  0  0  0  0  0  0
   -2.8369    4.6227    0.2357 C   0  0  0  0  0  0  0  0  0  0  0  0
   -2.7719    5.7166    0.3455 H   0  0  0  0  0  0  0  0  0  0  0  0
   -3.9552    3.9326    0.7298 C   0  0  0  0  0  0  0  0  0  0  0  0
   -4.7681    4.4767    1.2344 H   0  0  0  0  0  0  0  0  0  0  0  0
   -4.0222    2.5371    0.5690 C   0  0  0  0  0  0  0  0  0  0  0  0
   -4.8891    1.9759    0.9532 H   0  0  0  0  0  0  0  0  0  0  0  0
   -2.9880    1.8434   -0.0693 C   0  0  0  0  0  0  0  0  0  0  0  0
   -3.0544    0.7520   -0.1689 H   0  0  0  0  0  0  0  0  0  0  0  0
  1  4  1  0  0  0  0
  2  1  1  0  0  0  0
  3  1  1  0  0  0  0
  4  6  1  0  0  0  0
  5  4  1  0  0  0  0
  6  7  2  0  0  0  0
  6 15  1  0  0  0  0
  7  9  1  0  0  0  0
  8  7  1  0  0  0  0
  9 10  1  0  0  0  0
  9 11  2  0  0  0  0
 11 12  1  0  0  0  0
 13 11  1  0  0  0  0
 13 14  1  0  0  0  0
 15 13  2  0  0  0  0
 16 15  1  0  0  0  0
M  END
