6
 OpenBabel05122313113D

 41 42  0  0  0  0  0  0  0  0999 V2000
   -2.5190   -2.6780    0.0571 O   0  0  0  0  0  0  0  0  0  0  0  0
    0.0689   -1.6642   -0.8292 N   0  0  0  0  0  0  0  0  0  0  0  0
    1.6465   -1.1272    0.5400 N   0  0  0  0  0  0  0  0  0  0  0  0
   -3.1749   -0.5665   -0.6264 N   0  0  0  0  0  0  0  0  0  0  0  0
   -2.8176    0.2706   -1.0985 H   0  0  0  0  0  0  0  0  0  0  0  0
    0.5816   -0.6047   -0.1316 C   0  0  0  0  0  2  0  0  0  0  0  0
    0.7788   -2.8269   -0.5783 C   0  0  0  0  0  0  0  0  0  0  0  0
    0.4976   -3.7900   -1.0129 H   0  0  0  0  0  0  0  0  0  0  0  0
    1.7951   -2.4831    0.2767 C   0  0  0  0  0  0  0  0  0  0  0  0
    2.6053   -3.0789    0.7065 H   0  0  0  0  0  0  0  0  0  0  0  0
   -1.1688   -1.5759   -1.5942 C   0  0  0  0  0  0  0  0  0  0  0  0
   -1.2167   -2.4372   -2.2871 H   0  0  0  0  0  0  0  0  0  0  0  0
   -1.1466   -0.6405   -2.1863 H   0  0  0  0  0  0  0  0  0  0  0  0
   -2.3753   -1.6656   -0.6282 C   0  0  0  0  0  0  0  0  0  0  0  0
   -4.2885   -0.3165    0.3254 C   0  0  0  0  0  0  0  0  0  0  0  0
   -5.3136   -1.4592    0.2375 C   0  0  0  0  0  0  0  0  0  0  0  0
   -5.7122   -1.5455   -0.7936 H   0  0  0  0  0  0  0  0  0  0  0  0
   -6.1615   -1.2500    0.9196 H   0  0  0  0  0  0  0  0  0  0  0  0
   -4.8527   -2.4235    0.5201 H   0  0  0  0  0  0  0  0  0  0  0  0
   -4.9285    1.0133   -0.1009 C   0  0  0  0  0  0  0  0  0  0  0  0
   -5.3481    0.9407   -1.1253 H   0  0  0  0  0  0  0  0  0  0  0  0
   -4.1834    1.8364   -0.0735 H   0  0  0  0  0  0  0  0  0  0  0  0
   -5.7546    1.2708    0.5902 H   0  0  0  0  0  0  0  0  0  0  0  0
   -3.7122   -0.1941    1.7492 C   0  0  0  0  0  0  0  0  0  0  0  0
   -4.5270   -0.0138    2.4787 H   0  0  0  0  0  0  0  0  0  0  0  0
   -3.0041    0.6578    1.7996 H   0  0  0  0  0  0  0  0  0  0  0  0
   -3.1854   -1.1255    2.0340 H   0  0  0  0  0  0  0  0  0  0  0  0
    2.5612   -0.3360    1.3674 C   0  0  0  0  0  0  0  0  0  0  0  0
    2.7262   -0.8774    2.3198 H   0  0  0  0  0  0  0  0  0  0  0  0
    2.0237    0.6053    1.5985 H   0  0  0  0  0  0  0  0  0  0  0  0
    3.8779   -0.0565    0.6735 C   0  0  0  0  0  0  0  0  0  0  0  0
    3.9086    0.7604   -0.4749 C   0  0  0  0  0  0  0  0  0  0  0  0
    2.9713    1.1999   -0.8530 H   0  0  0  0  0  0  0  0  0  0  0  0
    5.1206    1.0119   -1.1313 C   0  0  0  0  0  0  0  0  0  0  0  0
    5.1350    1.6543   -2.0247 H   0  0  0  0  0  0  0  0  0  0  0  0
    6.3154    0.4521   -0.6470 C   0  0  0  0  0  0  0  0  0  0  0  0
    7.2668    0.6527   -1.1623 H   0  0  0  0  0  0  0  0  0  0  0  0
    6.2928   -0.3595    0.4967 C   0  0  0  0  0  0  0  0  0  0  0  0
    7.2255   -0.7981    0.8823 H   0  0  0  0  0  0  0  0  0  0  0  0
    5.0773   -0.6134    1.1525 C   0  0  0  0  0  0  0  0  0  0  0  0
    5.0610   -1.2481    2.0533 H   0  0  0  0  0  0  0  0  0  0  0  0
  2  7  1  0  0  0  0
  2  6  1  0  0  0  0
  3 28  1  0  0  0  0
  4 15  1  0  0  0  0
  5  4  1  0  0  0  0
  6  3  1  0  0  0  0
  7  9  2  0  0  0  0
  8  7  1  0  0  0  0
  9  3  1  0  0  0  0
  9 10  1  0  0  0  0
 11  2  1  0  0  0  0
 11 14  1  0  0  0  0
 12 11  1  0  0  0  0
 13 11  1  0  0  0  0
 14  4  1  0  0  0  0
 14  1  2  0  0  0  0
 15 24  1  0  0  0  0
 16 15  1  0  0  0  0
 16 19  1  0  0  0  0
 16 18  1  0  0  0  0
 17 16  1  0  0  0  0
 20 22  1  0  0  0  0
 20 15  1  0  0  0  0
 20 23  1  0  0  0  0
 21 20  1  0  0  0  0
 24 26  1  0  0  0  0
 24 27  1  0  0  0  0
 24 25  1  0  0  0  0
 28 30  1  0  0  0  0
 28 29  1  0  0  0  0
 31 40  1  0  0  0  0
 31 28  1  0  0  0  0
 32 31  2  0  0  0  0
 33 32  1  0  0  0  0
 34 36  2  0  0  0  0
 34 32  1  0  0  0  0
 35 34  1  0  0  0  0
 36 38  1  0  0  0  0
 37 36  1  0  0  0  0
 38 39  1  0  0  0  0
 38 40  2  0  0  0  0
 40 41  1  0  0  0  0
M  END
