5
 OpenBabel05122313113D

 46 53  0  0  1  0  0  0  0  0999 V2000
   -0.2442    1.1403   -1.2881 N   0  0  0  0  0  0  0  0  0  0  0  0
   -0.0114    2.4430   -1.4312 N   0  0  0  0  0  2  0  0  0  0  0  0
    1.1968    2.5997   -0.9176 N   0  0  0  0  0  0  0  0  0  0  0  0
    1.7380    1.4209   -0.4409 C   0  0  0  0  0  0  0  0  0  0  0  0
    0.7717    0.4206   -0.6917 C   0  0  0  0  0  3  0  0  0  0  0  0
    1.7899    3.9298   -0.9701 C   0  0  0  0  0  0  0  0  0  0  0  0
    1.5795    4.4859   -0.0364 H   0  0  0  0  0  0  0  0  0  0  0  0
    1.3422    4.4661   -1.8247 H   0  0  0  0  0  0  0  0  0  0  0  0
    2.8820    3.8318   -1.1029 H   0  0  0  0  0  0  0  0  0  0  0  0
   -1.5441    0.6200   -1.6794 C   0  0  0  0  0  0  0  0  0  0  0  0
   -1.3834   -0.4253   -2.0012 H   0  0  0  0  0  0  0  0  0  0  0  0
   -1.9063    1.2182   -2.5339 H   0  0  0  0  0  0  0  0  0  0  0  0
   -2.6077    0.6748   -0.5778 C   0  0  1  0  0  0  0  0  0  0  0  0
   -2.5878   -0.4511    0.6135 C   0  0  2  0  0  0  0  0  0  0  0  0
   -1.7382   -1.1574    0.5766 H   0  0  0  0  0  0  0  0  0  0  0  0
   -2.1706    1.1631    1.0165 B   0  0  2  0  0  0  0  0  0  0  0  0
   -1.0148    1.4082    1.2337 H   0  0  0  0  0  0  0  0  0  0  0  0
   -3.2400    2.1526   -0.0044 B   0  0  0  0  0  0  0  0  0  0  0  0
   -2.7884    3.1647   -0.4795 H   0  0  0  0  0  0  0  0  0  0  0  0
   -4.2159    1.0572   -1.0132 B   0  0  1  0  0  0  0  0  0  0  0  0
   -4.4144    1.3346   -2.1707 H   0  0  0  0  0  0  0  0  0  0  0  0
   -3.7520   -0.6183   -0.6308 B   0  0  1  0  0  0  0  0  0  0  0  0
   -3.5667   -1.4714   -1.4587 H   0  0  0  0  0  0  0  0  0  0  0  0
   -4.1547   -0.9300    1.0705 B   0  0  2  0  0  0  0  0  0  0  0  0
   -4.3193   -2.0758    1.4021 H   0  0  0  0  0  0  0  0  0  0  0  0
   -3.1794    0.1638    2.0810 B   0  0  1  0  0  0  0  0  0  0  0  0
   -2.6817   -0.2358    3.1023 H   0  0  0  0  0  0  0  0  0  0  0  0
   -3.6499    1.8468    1.7030 B   0  0  1  0  0  0  0  0  0  0  0  0
   -3.5706    2.7227    2.5306 H   0  0  0  0  0  0  0  0  0  0  0  0
   -4.9256    1.7815    0.4488 B   0  0  2  0  0  0  0  0  0  0  0  0
   -5.7835    2.6272    0.3594 H   0  0  0  0  0  0  0  0  0  0  0  0
   -5.2368    0.0616    0.0529 B   0  0  0  0  0  0  0  0  0  0  0  0
   -6.3075   -0.3540   -0.3188 H   0  0  0  0  0  0  0  0  0  0  0  0
   -4.8868    0.5511    1.7409 B   0  0  1  0  0  0  0  0  0  0  0  0
   -5.7188    0.4867    2.6138 H   0  0  0  0  0  0  0  0  0  0  0  0
    3.0594    1.2923    0.1840 C   0  0  0  0  0  0  0  0  0  0  0  0
    3.5600    2.2564    1.0897 C   0  0  0  0  0  0  0  0  0  0  0  0
    2.9491    3.1273    1.3671 H   0  0  0  0  0  0  0  0  0  0  0  0
    4.8159    2.0834    1.6866 C   0  0  0  0  0  0  0  0  0  0  0  0
    5.1886    2.8365    2.3968 H   0  0  0  0  0  0  0  0  0  0  0  0
    5.5847    0.9455    1.3970 C   0  0  0  0  0  0  0  0  0  0  0  0
    6.5684    0.8097    1.8708 H   0  0  0  0  0  0  0  0  0  0  0  0
    5.0882   -0.0256    0.5122 C   0  0  0  0  0  0  0  0  0  0  0  0
    5.6800   -0.9257    0.2894 H   0  0  0  0  0  0  0  0  0  0  0  0
    3.8365    0.1426   -0.0911 C   0  0  0  0  0  0  0  0  0  0  0  0
    3.4439   -0.6197   -0.7802 H   0  0  0  0  0  0  0  0  0  0  0  0
  1  5  1  0  0  0  0
  2  1  1  0  0  0  0
  2  3  1  0  0  0  0
  3  4  1  0  0  0  0
  4 36  1  0  0  0  0
  5  4  2  0  0  0  0
  6  3  1  0  0  0  0
  6  7  1  0  0  0  0
  8  6  1  0  0  0  0
  9  6  1  0  0  0  0
 10  1  1  0  0  0  0
 11 10  1  0  0  0  0
 12 10  1  0  0  0  0
 13 10  1  6  0  0  0
 13 18  1  0  0  0  0
 13 14  1  0  0  0  0
 14 15  1  1  0  0  0
 14 24  1  0  0  0  0
 14 26  1  0  0  0  0
 16 17  1  1  0  0  0
 16 28  1  0  0  0  0
 16 26  1  0  0  0  0
 18 16  1  0  0  0  0
 19 18  1  0  0  0  0
 20 21  1  6  0  0  0
 20 22  1  0  0  0  0
 20 13  1  0  0  0  0
 20 30  1  0  0  0  0
 22 23  1  6  0  0  0
 22 32  1  0  0  0  0
 22 24  1  0  0  0  0
 24 25  1  1  0  0  0
 24 26  1  0  0  0  0
 26 27  1  1  0  0  0
 28 34  1  0  0  0  0
 28 29  1  1  0  0  0
 30 31  1  6  0  0  0
 30 28  1  0  0  0  0
 30 34  1  0  0  0  0
 32 34  1  0  0  0  0
 33 32  1  0  0  0  0
 34 35  1  1  0  0  0
 36 37  1  0  0  0  0
 37 38  1  0  0  0  0
 37 39  2  0  0  0  0
 39 40  1  0  0  0  0
 41 39  1  0  0  0  0
 41 42  1  0  0  0  0
 43 41  2  0  0  0  0
 44 43  1  0  0  0  0
 45 36  2  0  0  0  0
 45 43  1  0  0  0  0
 46 45  1  0  0  0  0
M  END
