5
 OpenBabel05122313113D

 41 43  0  0  0  0  0  0  0  0999 V2000
    7.0560    0.0421    0.0477 Br  0  0  0  0  0  0  0  0  0  0  0  0
   -6.8788   -0.3358    0.3958 Br  0  0  0  0  0  0  0  0  0  0  0  0
    1.1931   -1.5568   -0.5689 N   0  0  0  0  0  0  0  0  0  0  0  0
   -0.9705   -1.5924   -0.5476 N   0  0  0  0  0  0  0  0  0  0  0  0
    0.1011   -0.7662   -0.2471 C   0  0  0  0  0  2  0  0  0  0  0  0
    0.8108   -2.8102   -1.0466 C   0  0  0  0  0  0  0  0  0  0  0  0
    1.5446   -3.5583   -1.3591 H   0  0  0  0  0  0  0  0  0  0  0  0
   -0.5538   -2.8322   -1.0340 C   0  0  0  0  0  0  0  0  0  0  0  0
   -1.2681   -3.6111   -1.3147 H   0  0  0  0  0  0  0  0  0  0  0  0
    2.5654   -1.1714   -0.4265 C   0  0  0  0  0  0  0  0  0  0  0  0
    3.1264   -0.2662   -1.3558 C   0  0  0  0  0  0  0  0  0  0  0  0
    4.4783    0.0874   -1.1998 C   0  0  0  0  0  0  0  0  0  0  0  0
    4.9423    0.7955   -1.9008 H   0  0  0  0  0  0  0  0  0  0  0  0
    5.2296   -0.4554   -0.1475 C   0  0  0  0  0  0  0  0  0  0  0  0
    4.6615   -1.3516    0.7684 C   0  0  0  0  0  0  0  0  0  0  0  0
    5.2656   -1.7536    1.5940 H   0  0  0  0  0  0  0  0  0  0  0  0
    3.3109   -1.7247    0.6384 C   0  0  0  0  0  0  0  0  0  0  0  0
    2.2803    0.3486   -2.4337 C   0  0  0  0  0  0  0  0  0  0  0  0
    1.7134   -0.4186   -2.9991 H   0  0  0  0  0  0  0  0  0  0  0  0
    2.8898    0.9375   -3.1436 H   0  0  0  0  0  0  0  0  0  0  0  0
    1.5277    1.0151   -1.9591 H   0  0  0  0  0  0  0  0  0  0  0  0
    2.6726   -2.6670    1.6262 C   0  0  0  0  0  0  0  0  0  0  0  0
    3.2837   -2.7545    2.5440 H   0  0  0  0  0  0  0  0  0  0  0  0
    2.5548   -3.6869    1.2034 H   0  0  0  0  0  0  0  0  0  0  0  0
    1.6576   -2.3217    1.9069 H   0  0  0  0  0  0  0  0  0  0  0  0
   -2.3545   -1.2840   -0.3287 C   0  0  0  0  0  0  0  0  0  0  0  0
   -2.8465   -1.2722    0.9981 C   0  0  0  0  0  0  0  0  0  0  0  0
   -4.2076   -0.9838    1.1986 C   0  0  0  0  0  0  0  0  0  0  0  0
   -4.6159   -0.9565    2.2186 H   0  0  0  0  0  0  0  0  0  0  0  0
   -5.0426   -0.7378    0.0994 C   0  0  0  0  0  0  0  0  0  0  0  0
   -4.5520   -0.7837   -1.2107 C   0  0  0  0  0  0  0  0  0  0  0  0
   -5.2229   -0.5846   -2.0580 H   0  0  0  0  0  0  0  0  0  0  0  0
   -3.1934   -1.0662   -1.4453 C   0  0  0  0  0  0  0  0  0  0  0  0
   -1.9389   -1.5533    2.1630 C   0  0  0  0  0  0  0  0  0  0  0  0
   -1.1990   -0.7326    2.2651 H   0  0  0  0  0  0  0  0  0  0  0  0
   -1.3611   -2.4879    2.0085 H   0  0  0  0  0  0  0  0  0  0  0  0
   -2.5108   -1.6435    3.1050 H   0  0  0  0  0  0  0  0  0  0  0  0
   -2.6736   -1.1387   -2.8582 C   0  0  0  0  0  0  0  0  0  0  0  0
   -2.7103   -2.1786   -3.2476 H   0  0  0  0  0  0  0  0  0  0  0  0
   -1.6209   -0.8040   -2.9300 H   0  0  0  0  0  0  0  0  0  0  0  0
   -3.2830   -0.5090   -3.5333 H   0  0  0  0  0  0  0  0  0  0  0  0
  3 10  1  0  0  0  0
  3  5  1  0  0  0  0
  4 26  1  0  0  0  0
  4  5  1  0  0  0  0
  6  8  2  0  0  0  0
  6  3  1  0  0  0  0
  7  6  1  0  0  0  0
  8  4  1  0  0  0  0
  9  8  1  0  0  0  0
 10 17  1  0  0  0  0
 11 12  1  0  0  0  0
 11 10  2  0  0  0  0
 12 14  2  0  0  0  0
 13 12  1  0  0  0  0
 14  1  1  0  0  0  0
 14 15  1  0  0  0  0
 15 16  1  0  0  0  0
 17 15  2  0  0  0  0
 17 22  1  0  0  0  0
 18 21  1  0  0  0  0
 18 11  1  0  0  0  0
 19 18  1  0  0  0  0
 20 18  1  0  0  0  0
 22 25  1  0  0  0  0
 22 23  1  0  0  0  0
 24 22  1  0  0  0  0
 26 27  1  0  0  0  0
 27 28  2  0  0  0  0
 27 34  1  0  0  0  0
 28 29  1  0  0  0  0
 30  2  1  0  0  0  0
 30 28  1  0  0  0  0
 31 30  2  0  0  0  0
 32 31  1  0  0  0  0
 33 31  1  0  0  0  0
 33 26  2  0  0  0  0
 34 35  1  0  0  0  0
 34 37  1  0  0  0  0
 36 34  1  0  0  0  0
 38 33  1  0  0  0  0
 39 38  1  0  0  0  0
 40 38  1  0  0  0  0
 41 38  1  0  0  0  0
M  END
