1
 OpenBabel05122313113D

 14 13  0  0  0  0  0  0  0  0999 V2000
    1.3934   -0.0012    1.4744 C   0  0  0  0  0  1  0  0  0  0  0  0
    2.0289   -0.0017    2.8234 C   0  0  0  0  0  0  0  0  0  0  0  0
    1.5891    1.2616    3.6000 C   0  0  0  0  0  0  0  0  0  0  0  0
    3.5668   -0.0034    2.6660 C   0  0  0  0  0  0  0  0  0  0  0  0
    2.0157    1.2527    4.6249 H   0  0  0  0  0  0  0  0  0  0  0  0
    0.4856    1.3190    3.6830 H   0  0  0  0  0  0  0  0  0  0  0  0
    1.9428    2.1789    3.0906 H   0  0  0  0  0  0  0  0  0  0  0  0
    4.0542   -0.0037    3.6636 H   0  0  0  0  0  0  0  0  0  0  0  0
    3.9110    0.8907    2.1110 H   0  0  0  0  0  0  0  0  0  0  0  0
    1.5864   -1.2641    3.6002 C   0  0  0  0  0  0  0  0  0  0  0  0
    3.9092   -0.8984    2.1113 H   0  0  0  0  0  0  0  0  0  0  0  0
    2.0134   -1.2561    4.6249 H   0  0  0  0  0  0  0  0  0  0  0  0
    0.4828   -1.3190    3.6835 H   0  0  0  0  0  0  0  0  0  0  0  0
    1.9379   -2.1822    3.0907 H   0  0  0  0  0  0  0  0  0  0  0  0
  1  2  1  0  0  0  0
  2  3  1  0  0  0  0
  2 10  1  0  0  0  0
  3  6  1  0  0  0  0
  3  5  1  0  0  0  0
  4  2  1  0  0  0  0
  4  8  1  0  0  0  0
  7  3  1  0  0  0  0
  9  4  1  0  0  0  0
 10 13  1  0  0  0  0
 10 12  1  0  0  0  0
 11  4  1  0  0  0  0
 14 10  1  0  0  0  0
M  END
