6
 OpenBabel05122313113D

 18 18  0  0  0  0  0  0  0  0999 V2000
   -5.2982    0.3247   -0.5447 F   0  0  0  0  0  0  0  0  0  0  0  0
   -4.5808   -0.8923    1.1285 F   0  0  0  0  0  0  0  0  0  0  0  0
   -4.3659   -1.6234   -0.9103 F   0  0  0  0  0  0  0  0  0  0  0  0
   -1.7727   -0.4174    0.0838 N   0  0  0  0  0  0  0  0  0  0  0  0
   -1.3302    1.5900   -0.6145 N   0  0  0  0  0  0  0  0  0  0  0  0
   -0.7362    0.4493   -0.1320 C   0  0  0  0  0  2  0  0  0  0  0  0
   -2.9875    0.1778   -0.2501 C   0  0  0  0  0  0  0  0  0  0  0  0
   -2.7032    1.4461   -0.6909 C   0  0  0  0  0  0  0  0  0  0  0  0
   -3.3711    2.2355   -1.0468 H   0  0  0  0  0  0  0  0  0  0  0  0
   -1.6095   -1.7392    0.6740 C   0  0  0  0  0  0  0  0  0  0  0  0
   -0.5211   -1.9102    0.7806 H   0  0  0  0  0  0  0  0  0  0  0  0
   -2.0651   -2.5092    0.0228 H   0  0  0  0  0  0  0  0  0  0  0  0
   -2.0867   -1.7719    1.6719 H   0  0  0  0  0  0  0  0  0  0  0  0
   -0.5995    2.8171   -0.8926 C   0  0  0  0  0  0  0  0  0  0  0  0
   -0.8302    3.5835   -0.1270 H   0  0  0  0  0  0  0  0  0  0  0  0
   -0.8556    3.2002   -1.8996 H   0  0  0  0  0  0  0  0  0  0  0  0
    0.4797    2.5784   -0.8350 H   0  0  0  0  0  0  0  0  0  0  0  0
   -4.3111   -0.5021   -0.1426 C   0  0  0  0  0  0  0  0  0  0  0  0
  1 18  1  0  0  0  0
  3 18  1  0  0  0  0
  4 10  1  0  0  0  0
  5  6  1  0  0  0  0
  6  4  1  0  0  0  0
  7 18  1  0  0  0  0
  7  4  1  0  0  0  0
  8  5  1  0  0  0  0
  8  7  2  0  0  0  0
  9  8  1  0  0  0  0
 10 11  1  0  0  0  0
 10 13  1  0  0  0  0
 12 10  1  0  0  0  0
 14 17  1  0  0  0  0
 14  5  1  0  0  0  0
 14 15  1  0  0  0  0
 16 14  1  0  0  0  0
 18  2  1  0  0  0  0
M  END
