5
 OpenBabel05122313113D

 38 38  0  0  1  0  0  0  0  0999 V2000
    1.9743    1.8078   -1.2644 P   0  0  0  0  0  0  0  0  0  0  0  0
    1.4612    1.6770   -2.6686 O   0  0  0  0  0  0  0  0  0  0  0  0
    1.2362    2.9565   -0.3359 O   0  0  0  0  0  0  0  0  0  0  0  0
    3.5479    2.2895   -1.2965 O   0  0  0  0  0  0  0  0  0  0  0  0
    1.8592    0.3929   -0.1554 C   0  0  0  0  0  3  0  0  0  0  0  0
    2.3043   -0.9318   -0.5502 C   0  0  2  0  0  3  0  0  0  0  0  0
    2.0285   -1.3532   -1.8799 C   0  0  0  0  0  3  0  0  0  0  0  0
    2.2099   -2.7479   -2.3955 C   0  0  0  0  0  0  0  0  0  0  0  0
    3.1738   -2.8417   -2.9433 H   0  0  0  0  0  0  0  0  0  0  0  0
    1.3994   -2.9870   -3.1130 H   0  0  0  0  0  0  0  0  0  0  0  0
    2.1920   -3.5055   -1.5893 H   0  0  0  0  0  0  0  0  0  0  0  0
    2.8428   -1.8333    0.5120 C   0  0  0  0  0  0  0  0  0  0  0  0
    2.2189   -1.9288    1.7758 C   0  0  0  0  0  0  0  0  0  0  0  0
    1.2830   -1.3790    1.9605 H   0  0  0  0  0  0  0  0  0  0  0  0
    2.7698   -2.7314    2.7826 C   0  0  0  0  0  0  0  0  0  0  0  0
    2.2650   -2.7992    3.7583 H   0  0  0  0  0  0  0  0  0  0  0  0
    3.9556   -3.4473    2.5468 C   0  0  0  0  0  0  0  0  0  0  0  0
    4.3876   -4.0787    3.3379 H   0  0  0  0  0  0  0  0  0  0  0  0
    4.5861   -3.3543    1.2966 C   0  0  0  0  0  0  0  0  0  0  0  0
    5.5178   -3.9082    1.1055 H   0  0  0  0  0  0  0  0  0  0  0  0
    4.0332   -2.5548    0.2845 C   0  0  0  0  0  0  0  0  0  0  0  0
    4.5358   -2.4744   -0.6905 H   0  0  0  0  0  0  0  0  0  0  0  0
    0.9888    4.2423   -0.9508 C   0  0  0  0  0  0  0  0  0  0  0  0
    1.9504    4.6546   -1.3295 H   0  0  0  0  0  0  0  0  0  0  0  0
    0.3176    4.0963   -1.8230 H   0  0  0  0  0  0  0  0  0  0  0  0
    0.3653    5.1543    0.0849 C   0  0  0  0  0  0  0  0  0  0  0  0
   -0.5968    4.7395    0.4430 H   0  0  0  0  0  0  0  0  0  0  0  0
    0.1661    6.1503   -0.3586 H   0  0  0  0  0  0  0  0  0  0  0  0
    1.0401    5.2905    0.9541 H   0  0  0  0  0  0  0  0  0  0  0  0
    4.2873    2.5456   -0.0876 C   0  0  0  0  0  0  0  0  0  0  0  0
    3.5883    2.7669    0.7498 H   0  0  0  0  0  0  0  0  0  0  0  0
    4.8681    3.4731   -0.2768 H   0  0  0  0  0  0  0  0  0  0  0  0
    5.2174    1.3929    0.2542 C   0  0  0  0  0  0  0  0  0  0  0  0
    4.6562    0.4709    0.5041 H   0  0  0  0  0  0  0  0  0  0  0  0
    5.8484    1.6565    1.1274 H   0  0  0  0  0  0  0  0  0  0  0  0
    5.8852    1.1686   -0.6011 H   0  0  0  0  0  0  0  0  0  0  0  0
    1.9159   -0.5573   -2.6392 H   0  0  0  0  0  0  0  0  0  0  0  0
    1.9894    0.6601    0.9074 H   0  0  0  0  0  0  0  0  0  0  0  0
  1  3  1  0  0  0  0
  1  5  1  0  0  0  0
  2  1  2  0  0  0  0
  4  1  1  0  0  0  0
  4 30  1  0  0  0  0
  5 38  1  0  0  0  0
  6  7  1  1  0  0  0
  6  5  1  0  0  0  0
  6 12  1  0  0  0  0
  8  7  1  0  0  0  0
  8 11  1  0  0  0  0
  9  8  1  0  0  0  0
 10  8  1  0  0  0  0
 12 13  1  0  0  0  0
 13 14  1  0  0  0  0
 13 15  2  0  0  0  0
 15 16  1  0  0  0  0
 17 15  1  0  0  0  0
 17 18  1  0  0  0  0
 19 17  2  0  0  0  0
 20 19  1  0  0  0  0
 21 12  2  0  0  0  0
 21 19  1  0  0  0  0
 22 21  1  0  0  0  0
 23  3  1  0  0  0  0
 23 26  1  0  0  0  0
 24 23  1  0  0  0  0
 25 23  1  0  0  0  0
 26 27  1  0  0  0  0
 26 29  1  0  0  0  0
 28 26  1  0  0  0  0
 30 33  1  0  0  0  0
 30 31  1  0  0  0  0
 32 30  1  0  0  0  0
 33 34  1  0  0  0  0
 33 35  1  0  0  0  0
 36 33  1  0  0  0  0
 37  7  1  0  0  0  0
M  END
