4
 OpenBabel05122313113D

 41 43  0  0  1  0  0  0  0  0999 V2000
    0.7869    1.4256    0.7775 C   0  0  0  0  0  3  0  0  0  0  0  0
    0.4452    0.0832    1.0844 C   0  0  0  0  0  0  0  0  0  0  0  0
    0.2713   -0.8537    0.0045 C   0  0  0  0  0  0  0  0  0  0  0  0
    0.3676   -0.3287   -1.3271 C   0  0  0  0  0  3  0  0  0  0  0  0
    0.6164    1.0376   -1.5526 C   0  0  0  0  0  3  0  0  0  0  0  0
    0.2387    2.0616   -0.4967 C   0  0  1  0  0  0  0  0  0  0  0  0
   -1.2295    2.4725   -0.4329 C   0  0  0  0  0  0  0  0  0  0  0  0
   -1.5680    3.8350   -0.3135 C   0  0  0  0  0  0  0  0  0  0  0  0
   -2.9072    4.2403   -0.2044 C   0  0  0  0  0  0  0  0  0  0  0  0
   -3.9330    3.2825   -0.2139 C   0  0  0  0  0  0  0  0  0  0  0  0
   -3.6090    1.9213   -0.3360 C   0  0  0  0  0  0  0  0  0  0  0  0
   -2.2702    1.5202   -0.4466 C   0  0  0  0  0  0  0  0  0  0  0  0
    0.7717    0.3718    3.4364 C   0  0  0  0  0  0  0  0  0  0  0  0
   -0.1082   -2.3118    0.2327 C   0  0  1  0  0  0  0  0  0  0  0  0
   -1.6240   -2.4231    0.1224 C   0  0  0  0  0  0  0  0  0  0  0  0
   -2.2245   -2.9992   -1.0110 C   0  0  0  0  0  0  0  0  0  0  0  0
   -3.6227   -3.0132   -1.1385 C   0  0  0  0  0  0  0  0  0  0  0  0
   -4.4319   -2.4529   -0.1380 C   0  0  0  0  0  0  0  0  0  0  0  0
   -3.8352   -1.8847    1.0002 C   0  0  0  0  0  0  0  0  0  0  0  0
   -2.4393   -1.8718    1.1311 C   0  0  0  0  0  0  0  0  0  0  0  0
    0.4005   -0.4468    2.3337 O   0  0  0  0  0  0  0  0  0  0  0  0
    0.4931   -3.1543   -0.7313 O   0  0  0  0  0  0  0  0  0  0  0  0
    1.4551   -2.9945   -0.6802 H   0  0  0  0  0  0  0  0  0  0  0  0
    1.0864    2.0918    1.5981 H   0  0  0  0  0  0  0  0  0  0  0  0
    0.3562   -1.0558   -2.1530 H   0  0  0  0  0  0  0  0  0  0  0  0
    0.8038    1.3710   -2.5844 H   0  0  0  0  0  0  0  0  0  0  0  0
    0.8304    2.9801   -0.6815 H   0  0  0  0  0  0  0  0  0  0  0  0
   -0.7651    4.5903   -0.3065 H   0  0  0  0  0  0  0  0  0  0  0  0
   -3.1504    5.3102   -0.1143 H   0  0  0  0  0  0  0  0  0  0  0  0
   -4.9844    3.5969   -0.1292 H   0  0  0  0  0  0  0  0  0  0  0  0
   -4.4019    1.1575   -0.3457 H   0  0  0  0  0  0  0  0  0  0  0  0
   -2.0421    0.4493   -0.5418 H   0  0  0  0  0  0  0  0  0  0  0  0
    0.6119   -0.2433    4.3402 H   0  0  0  0  0  0  0  0  0  0  0  0
    1.8428    0.6605    3.3801 H   0  0  0  0  0  0  0  0  0  0  0  0
    0.1424    1.2855    3.4954 H   0  0  0  0  0  0  0  0  0  0  0  0
    0.1963   -2.5857    1.2679 H   0  0  0  0  0  0  0  0  0  0  0  0
   -1.5809   -3.4401   -1.7847 H   0  0  0  0  0  0  0  0  0  0  0  0
   -4.0838   -3.4685   -2.0285 H   0  0  0  0  0  0  0  0  0  0  0  0
   -5.5277   -2.4644   -0.2408 H   0  0  0  0  0  0  0  0  0  0  0  0
   -4.4618   -1.4493    1.7936 H   0  0  0  0  0  0  0  0  0  0  0  0
   -1.9706   -1.4212    2.0194 H   0  0  0  0  0  0  0  0  0  0  0  0
  1  2  1  0  0  0  0
  1 24  1  0  0  0  0
  2 21  1  0  0  0  0
  3 14  1  0  0  0  0
  3  2  2  0  0  0  0
  4  3  1  0  0  0  0
  5  4  1  0  0  0  0
  5  6  1  0  0  0  0
  6 27  1  6  0  0  0
  6  7  1  0  0  0  0
  6  1  1  0  0  0  0
  7  8  1  0  0  0  0
  8 28  1  0  0  0  0
  8  9  2  0  0  0  0
  9 29  1  0  0  0  0
 10  9  1  0  0  0  0
 10 30  1  0  0  0  0
 11 10  2  0  0  0  0
 12  7  2  0  0  0  0
 12 11  1  0  0  0  0
 13 35  1  0  0  0  0
 13 33  1  0  0  0  0
 14 36  1  1  0  0  0
 15 14  1  0  0  0  0
 15 20  1  0  0  0  0
 16 15  2  0  0  0  0
 17 16  1  0  0  0  0
 17 18  2  0  0  0  0
 18 19  1  0  0  0  0
 19 20  2  0  0  0  0
 19 40  1  0  0  0  0
 20 41  1  0  0  0  0
 21 13  1  0  0  0  0
 22 23  1  0  0  0  0
 22 14  1  0  0  0  0
 25  4  1  0  0  0  0
 26  5  1  0  0  0  0
 31 11  1  0  0  0  0
 32 12  1  0  0  0  0
 34 13  1  0  0  0  0
 37 16  1  0  0  0  0
 38 17  1  0  0  0  0
 39 18  1  0  0  0  0
M  END
