6
 OpenBabel05122313113D

 31 32  0  0  1  0  0  0  0  0999 V2000
    2.2549   -1.4254   -0.9335 S   0  0  0  0  0  0  0  0  0  0  0  0
    1.7774   -2.6525   -0.2419 O   0  0  0  0  0  0  0  0  0  0  0  0
    1.9743   -1.2153   -2.3773 O   0  0  0  0  0  0  0  0  0  0  0  0
    1.5164    1.6981   -1.7192 C   0  0  0  0  0  3  0  0  0  0  0  0
    1.8845    1.3606   -0.3953 C   0  0  2  0  0  3  0  0  0  0  0  0
    1.7012   -0.0120    0.0383 C   0  0  0  0  0  3  0  0  0  0  0  0
    2.1896    2.3957    0.6310 C   0  0  0  0  0  0  0  0  0  0  0  0
    1.4827    3.6171    0.6773 C   0  0  0  0  0  0  0  0  0  0  0  0
    0.6520    3.7882   -0.0254 H   0  0  0  0  0  0  0  0  0  0  0  0
    1.8054    4.5812    1.6406 C   0  0  0  0  0  0  0  0  0  0  0  0
    1.2390    5.5241    1.6775 H   0  0  0  0  0  0  0  0  0  0  0  0
    2.8379    4.3431    2.5640 C   0  0  0  0  0  0  0  0  0  0  0  0
    3.0882    5.1028    3.3199 H   0  0  0  0  0  0  0  0  0  0  0  0
    3.5443    3.1312    2.5232 C   0  0  0  0  0  0  0  0  0  0  0  0
    4.3558    2.9399    3.2416 H   0  0  0  0  0  0  0  0  0  0  0  0
    3.2193    2.1592    1.5659 C   0  0  0  0  0  0  0  0  0  0  0  0
    3.7824    1.2138    1.5234 H   0  0  0  0  0  0  0  0  0  0  0  0
    4.0475   -1.3506   -0.7086 C   0  0  0  0  0  0  0  0  0  0  0  0
    4.8157   -0.5819   -1.5959 C   0  0  0  0  0  0  0  0  0  0  0  0
    4.3280   -0.0779   -2.4428 H   0  0  0  0  0  0  0  0  0  0  0  0
    6.1986   -0.4890   -1.3822 C   0  0  0  0  0  0  0  0  0  0  0  0
    6.8181    0.1071   -2.0690 H   0  0  0  0  0  0  0  0  0  0  0  0
    6.7926   -1.1602   -0.2997 C   0  0  0  0  0  0  0  0  0  0  0  0
    7.8783   -1.0833   -0.1375 H   0  0  0  0  0  0  0  0  0  0  0  0
    6.0090   -1.9356    0.5716 C   0  0  0  0  0  0  0  0  0  0  0  0
    6.4803   -2.4708    1.4097 H   0  0  0  0  0  0  0  0  0  0  0  0
    4.6242   -2.0368    0.3705 C   0  0  0  0  0  0  0  0  0  0  0  0
    3.9861   -2.6492    1.0244 H   0  0  0  0  0  0  0  0  0  0  0  0
    1.4697    2.7570   -2.0096 H   0  0  0  0  0  0  0  0  0  0  0  0
    1.5691    0.9475   -2.5228 H   0  0  0  0  0  0  0  0  0  0  0  0
    1.8310   -0.2445    1.1090 H   0  0  0  0  0  0  0  0  0  0  0  0
  1 18  1  0  0  0  0
  1  2  2  0  0  0  0
  1  6  1  0  0  0  0
  3  1  2  0  0  0  0
  5  4  1  1  0  0  0
  5  6  1  0  0  0  0
  5  7  1  0  0  0  0
  6 31  1  0  0  0  0
  7  8  2  0  0  0  0
  7 16  1  0  0  0  0
  8 10  1  0  0  0  0
  9  8  1  0  0  0  0
 10 11  1  0  0  0  0
 10 12  2  0  0  0  0
 12 13  1  0  0  0  0
 14 12  1  0  0  0  0
 14 15  1  0  0  0  0
 16 14  2  0  0  0  0
 17 16  1  0  0  0  0
 18 27  1  0  0  0  0
 19 21  1  0  0  0  0
 19 18  2  0  0  0  0
 20 19  1  0  0  0  0
 21 23  2  0  0  0  0
 22 21  1  0  0  0  0
 23 24  1  0  0  0  0
 23 25  1  0  0  0  0
 25 26  1  0  0  0  0
 27 25  2  0  0  0  0
 27 28  1  0  0  0  0
 29  4  1  0  0  0  0
 30  4  1  0  0  0  0
M  END
