7
 OpenBabel05122313113D

 34 35  0  0  1  0  0  0  0  0999 V2000
   -2.2207   -0.8531   -1.6113 S   0  0  0  0  0  0  0  0  0  0  0  0
   -1.4230   -2.1037   -1.5024 O   0  0  0  0  0  0  0  0  0  0  0  0
   -2.3689   -0.1700   -2.9221 O   0  0  0  0  0  0  0  0  0  0  0  0
   -1.0923    2.2689   -1.6993 C   0  0  0  0  0  3  0  0  0  0  0  0
   -1.1306    1.5978   -2.5757 H   0  0  0  0  0  0  0  0  0  0  0  0
   -1.6238    1.7408   -0.4973 C   0  0  1  0  0  3  0  0  0  0  0  0
   -1.6420    0.2977   -0.3381 C   0  0  0  0  0  3  0  0  0  0  0  0
   -1.9273   -0.1146    0.6441 H   0  0  0  0  0  0  0  0  0  0  0  0
   -0.8495    3.7167   -1.9873 C   0  0  0  0  0  0  0  0  0  0  0  0
   -1.5224    4.0540   -2.8043 H   0  0  0  0  0  0  0  0  0  0  0  0
    0.1921    3.8610   -2.3450 H   0  0  0  0  0  0  0  0  0  0  0  0
   -1.0087    4.3683   -1.1085 H   0  0  0  0  0  0  0  0  0  0  0  0
   -1.9423    2.5555    0.7130 C   0  0  0  0  0  0  0  0  0  0  0  0
   -3.2304    2.4548    1.2789 C   0  0  0  0  0  0  0  0  0  0  0  0
   -3.9764    1.7950    0.8078 H   0  0  0  0  0  0  0  0  0  0  0  0
   -3.5601    3.1904    2.4267 C   0  0  0  0  0  0  0  0  0  0  0  0
   -4.5701    3.1087    2.8562 H   0  0  0  0  0  0  0  0  0  0  0  0
   -2.6036    4.0239    3.0280 C   0  0  0  0  0  0  0  0  0  0  0  0
   -2.8607    4.5963    3.9322 H   0  0  0  0  0  0  0  0  0  0  0  0
   -1.3142    4.1164    2.4787 C   0  0  0  0  0  0  0  0  0  0  0  0
   -0.5554    4.7552    2.9554 H   0  0  0  0  0  0  0  0  0  0  0  0
   -0.9823    3.3868    1.3283 C   0  0  0  0  0  0  0  0  0  0  0  0
    0.0360    3.4313    0.9103 H   0  0  0  0  0  0  0  0  0  0  0  0
   -3.8736   -1.2312   -0.9878 C   0  0  0  0  0  0  0  0  0  0  0  0
   -4.9574   -0.4539   -1.4218 C   0  0  0  0  0  0  0  0  0  0  0  0
   -4.7923    0.3330   -2.1726 H   0  0  0  0  0  0  0  0  0  0  0  0
   -6.2292   -0.7204   -0.8925 C   0  0  0  0  0  0  0  0  0  0  0  0
   -7.0949   -0.1274   -1.2243 H   0  0  0  0  0  0  0  0  0  0  0  0
   -6.3982   -1.7466    0.0530 C   0  0  0  0  0  0  0  0  0  0  0  0
   -7.3980   -1.9503    0.4655 H   0  0  0  0  0  0  0  0  0  0  0  0
   -5.2997   -2.5182    0.4693 C   0  0  0  0  0  0  0  0  0  0  0  0
   -5.4381   -3.3259    1.2040 H   0  0  0  0  0  0  0  0  0  0  0  0
   -4.0224   -2.2665   -0.0525 C   0  0  0  0  0  0  0  0  0  0  0  0
   -3.1462   -2.8586    0.2509 H   0  0  0  0  0  0  0  0  0  0  0  0
  1  2  2  0  0  0  0
  1 24  1  0  0  0  0
  1  7  1  0  0  0  0
  3  1  2  0  0  0  0
  5  4  1  0  0  0  0
  6  4  1  1  0  0  0
  6  7  1  0  0  0  0
  6 13  1  0  0  0  0
  7  8  1  0  0  0  0
  9  4  1  0  0  0  0
  9 12  1  0  0  0  0
 10  9  1  0  0  0  0
 11  9  1  0  0  0  0
 13 14  2  0  0  0  0
 13 22  1  0  0  0  0
 14 16  1  0  0  0  0
 15 14  1  0  0  0  0
 16 17  1  0  0  0  0
 16 18  2  0  0  0  0
 18 19  1  0  0  0  0
 20 21  1  0  0  0  0
 20 18  1  0  0  0  0
 22 20  2  0  0  0  0
 23 22  1  0  0  0  0
 24 33  1  0  0  0  0
 25 24  2  0  0  0  0
 25 27  1  0  0  0  0
 26 25  1  0  0  0  0
 27 29  2  0  0  0  0
 28 27  1  0  0  0  0
 29 30  1  0  0  0  0
 29 31  1  0  0  0  0
 31 32  1  0  0  0  0
 33 34  1  0  0  0  0
 33 31  2  0  0  0  0
M  END
