4
 OpenBabel05122313113D

 51 54  0  0  1  0  0  0  0  0999 V2000
   -3.1913   -3.6173    0.4239 O   0  0  0  0  0  0  0  0  0  0  0  0
    0.5837    0.6543    0.7939 N   0  0  0  0  0  0  0  0  0  0  0  0
    1.0091   -1.5110    0.0873 N   0  0  0  0  0  0  0  0  0  0  0  0
   -2.2868   -1.5722   -0.4212 C   0  0  2  0  0  3  0  0  0  0  0  0
   -1.2695   -0.5399   -0.3490 C   0  0  0  0  0  0  0  0  0  0  0  0
   -1.3611    0.5589   -1.2371 C   0  0  0  0  0  0  0  0  0  0  0  0
   -2.4385    0.6776   -2.1657 C   0  0  0  0  0  0  0  0  0  0  0  0
   -3.4080   -0.3478   -2.2686 C   0  0  0  0  0  0  0  0  0  0  0  0
   -3.3312   -1.4612   -1.3870 C   0  0  0  0  0  3  0  0  0  0  0  0
   -0.0652   -0.6397    0.6033 C   0  0  2  0  0  0  0  0  0  0  0  0
   -2.4031   -2.6949    0.5553 C   0  0  0  0  0  0  0  0  0  0  0  0
    0.0960    1.4595    1.8977 C   0  0  0  0  0  0  0  0  0  0  0  0
    0.6911   -2.5964   -0.8175 C   0  0  0  0  0  0  0  0  0  0  0  0
    2.1407   -0.6778   -0.2972 C   0  0  1  0  0  0  0  0  0  0  0  0
    2.0276    0.4639    0.7389 C   0  0  1  0  0  0  0  0  0  0  0  0
    3.4735   -1.3936   -0.2442 C   0  0  0  0  0  0  0  0  0  0  0  0
    3.7293   -2.3654    0.7430 C   0  0  0  0  0  0  0  0  0  0  0  0
    4.9920   -2.9677    0.8366 C   0  0  0  0  0  0  0  0  0  0  0  0
    6.0165   -2.6007   -0.0522 C   0  0  0  0  0  0  0  0  0  0  0  0
    5.7689   -1.6324   -1.0377 C   0  0  0  0  0  0  0  0  0  0  0  0
    4.5026   -1.0353   -1.1341 C   0  0  0  0  0  0  0  0  0  0  0  0
    2.8135    1.7008    0.3620 C   0  0  0  0  0  0  0  0  0  0  0  0
    2.2747    2.6862   -0.4872 C   0  0  0  0  0  0  0  0  0  0  0  0
    3.0474    3.7875   -0.8836 C   0  0  0  0  0  0  0  0  0  0  0  0
    4.3740    3.9143   -0.4409 C   0  0  0  0  0  0  0  0  0  0  0  0
    4.9199    2.9360    0.4051 C   0  0  0  0  0  0  0  0  0  0  0  0
    4.1425    1.8397    0.8065 C   0  0  0  0  0  0  0  0  0  0  0  0
   -0.6113    1.3534   -1.1274 H   0  0  0  0  0  0  0  0  0  0  0  0
   -2.5229    1.5788   -2.7891 H   0  0  0  0  0  0  0  0  0  0  0  0
   -4.2527   -0.2490   -2.9638 H   0  0  0  0  0  0  0  0  0  0  0  0
   -4.1004   -2.2470   -1.3814 H   0  0  0  0  0  0  0  0  0  0  0  0
   -0.4322   -1.0475    1.5798 H   0  0  0  0  0  0  0  0  0  0  0  0
   -1.7174   -2.6414    1.4461 H   0  0  0  0  0  0  0  0  0  0  0  0
    0.6723    2.4042    1.9372 H   0  0  0  0  0  0  0  0  0  0  0  0
    0.1900    0.9475    2.8882 H   0  0  0  0  0  0  0  0  0  0  0  0
   -0.9675    1.7198    1.7407 H   0  0  0  0  0  0  0  0  0  0  0  0
    1.6153   -3.1799   -0.9996 H   0  0  0  0  0  0  0  0  0  0  0  0
   -0.0438   -3.2911   -0.3647 H   0  0  0  0  0  0  0  0  0  0  0  0
    0.2929   -2.2675   -1.8099 H   0  0  0  0  0  0  0  0  0  0  0  0
    2.0192   -0.2271   -1.3175 H   0  0  0  0  0  0  0  0  0  0  0  0
    2.4317    0.0697    1.7076 H   0  0  0  0  0  0  0  0  0  0  0  0
    2.9145   -2.6434    1.4293 H   0  0  0  0  0  0  0  0  0  0  0  0
    5.1795   -3.7297    1.6087 H   0  0  0  0  0  0  0  0  0  0  0  0
    7.0077   -3.0737    0.0212 H   0  0  0  0  0  0  0  0  0  0  0  0
    6.5660   -1.3413   -1.7386 H   0  0  0  0  0  0  0  0  0  0  0  0
    4.3072   -0.2731   -1.9048 H   0  0  0  0  0  0  0  0  0  0  0  0
    1.2335    2.5830   -0.8270 H   0  0  0  0  0  0  0  0  0  0  0  0
    2.6103    4.5541   -1.5417 H   0  0  0  0  0  0  0  0  0  0  0  0
    4.9805    4.7788   -0.7511 H   0  0  0  0  0  0  0  0  0  0  0  0
    5.9579    3.0290    0.7593 H   0  0  0  0  0  0  0  0  0  0  0  0
    4.5705    1.0722    1.4702 H   0  0  0  0  0  0  0  0  0  0  0  0
  1 11  2  0  0  0  0
  2 12  1  0  0  0  0
  3 10  1  0  0  0  0
  4  5  1  0  0  0  0
  4 11  1  1  0  0  0
  5 10  1  0  0  0  0
  6 28  1  0  0  0  0
  6  5  2  0  0  0  0
  7  6  1  0  0  0  0
  8  7  2  0  0  0  0
  8  9  1  0  0  0  0
  9 31  1  0  0  0  0
  9  4  1  0  0  0  0
 10  2  1  0  0  0  0
 10 32  1  1  0  0  0
 11 33  1  0  0  0  0
 12 34  1  0  0  0  0
 12 35  1  0  0  0  0
 13 38  1  0  0  0  0
 13  3  1  0  0  0  0
 14 40  1  6  0  0  0
 14 16  1  0  0  0  0
 14  3  1  0  0  0  0
 14 15  1  0  0  0  0
 15  2  1  0  0  0  0
 15 41  1  1  0  0  0
 16 17  1  0  0  0  0
 17 18  2  0  0  0  0
 17 42  1  0  0  0  0
 18 43  1  0  0  0  0
 19 44  1  0  0  0  0
 19 18  1  0  0  0  0
 20 19  2  0  0  0  0
 21 20  1  0  0  0  0
 21 16  2  0  0  0  0
 22 15  1  0  0  0  0
 22 27  1  0  0  0  0
 23 22  2  0  0  0  0
 24 23  1  0  0  0  0
 24 25  2  0  0  0  0
 25 26  1  0  0  0  0
 26 50  1  0  0  0  0
 26 27  2  0  0  0  0
 27 51  1  0  0  0  0
 29  7  1  0  0  0  0
 30  8  1  0  0  0  0
 36 12  1  0  0  0  0
 37 13  1  0  0  0  0
 39 13  1  0  0  0  0
 45 20  1  0  0  0  0
 46 21  1  0  0  0  0
 47 23  1  0  0  0  0
 48 24  1  0  0  0  0
 49 25  1  0  0  0  0
M  END
