5
 OpenBabel05122313113D

 26 28  0  0  1  0  0  0  0  0999 V2000
   -0.3988   -1.8040   -0.8584 C   0  0  0  0  0  0  0  0  0  0  0  0
   -1.7057   -1.6599   -1.3786 C   0  0  0  0  0  0  0  0  0  0  0  0
   -1.7778   -0.4173   -2.1042 C   0  0  0  0  0  0  0  0  0  0  0  0
   -0.5154    0.2164   -2.0340 C   0  0  0  0  0  0  0  0  0  0  0  0
    0.3819   -0.6169   -1.2295 C   0  0  1  0  0  3  0  0  0  0  0  0
    1.3826   -0.0561   -0.3793 C   0  0  0  0  0  3  0  0  0  0  0  0
    2.1471   -0.8963    0.5965 C   0  0  0  0  0  0  0  0  0  0  0  0
    2.3946   -2.3803    0.4554 C   0  0  0  0  0  0  0  0  0  0  0  0
    3.5405   -1.4248    0.2630 C   0  0  0  0  0  0  0  0  0  0  0  0
    1.8574    1.3367   -0.5957 C   0  0  0  0  0  0  0  0  0  0  0  0
    2.4525    2.1631    0.5352 C   0  0  0  0  0  0  0  0  0  0  0  0
    3.3337    1.7398   -0.5995 C   0  0  0  0  0  0  0  0  0  0  0  0
   -0.0539   -2.6309   -0.2328 H   0  0  0  0  0  0  0  0  0  0  0  0
   -2.5300   -2.3700   -1.2442 H   0  0  0  0  0  0  0  0  0  0  0  0
   -2.6639   -0.0255   -2.6168 H   0  0  0  0  0  0  0  0  0  0  0  0
   -0.2654    1.1813   -2.4872 H   0  0  0  0  0  0  0  0  0  0  0  0
    2.0457   -0.5506    1.6394 H   0  0  0  0  0  0  0  0  0  0  0  0
    2.0337   -2.8923   -0.4478 H   0  0  0  0  0  0  0  0  0  0  0  0
    2.3495   -2.9880    1.3718 H   0  0  0  0  0  0  0  0  0  0  0  0
    3.9016   -1.2914   -0.7684 H   0  0  0  0  0  0  0  0  0  0  0  0
    4.3206   -1.3432    1.0354 H   0  0  0  0  0  0  0  0  0  0  0  0
    1.2353    1.9204   -1.2876 H   0  0  0  0  0  0  0  0  0  0  0  0
    2.1181    3.2084    0.6087 H   0  0  0  0  0  0  0  0  0  0  0  0
    2.5894    1.6627    1.5056 H   0  0  0  0  0  0  0  0  0  0  0  0
    3.6309    2.4874   -1.3512 H   0  0  0  0  0  0  0  0  0  0  0  0
    4.0837    0.9615   -0.4057 H   0  0  0  0  0  0  0  0  0  0  0  0
  1 13  1  0  0  0  0
  2 14  1  0  0  0  0
  2  1  2  0  0  0  0
  3  4  2  0  0  0  0
  3  2  1  0  0  0  0
  4  5  1  0  0  0  0
  5  1  1  0  0  0  0
  5  6  1  1  0  0  0
  6  7  1  0  0  0  0
  7 17  1  0  0  0  0
  8  7  1  0  0  0  0
  8 19  1  0  0  0  0
  9  8  1  0  0  0  0
  9  7  1  0  0  0  0
  9 21  1  0  0  0  0
 10  6  1  0  0  0  0
 10 11  1  0  0  0  0
 11 23  1  0  0  0  0
 11 24  1  0  0  0  0
 12 10  1  0  0  0  0
 12 26  1  0  0  0  0
 12 11  1  0  0  0  0
 15  3  1  0  0  0  0
 16  4  1  0  0  0  0
 18  8  1  0  0  0  0
 20  9  1  0  0  0  0
 22 10  1  0  0  0  0
 25 12  1  0  0  0  0
M  END
