6
 OpenBabel05122313113D

 39 41  0  0  0  0  0  0  0  0999 V2000
   -2.0350    1.6045   -0.5527 C   0  0  0  0  0  0  0  0  0  0  0  0
   -3.3788    1.3322   -0.1148 C   0  0  0  0  0  0  0  0  0  0  0  0
   -3.8286    1.6968    0.8169 H   0  0  0  0  0  0  0  0  0  0  0  0
   -4.0130    0.4872   -1.0605 C   0  0  0  0  0  0  0  0  0  0  0  0
   -5.0277    0.0811   -0.9854 H   0  0  0  0  0  0  0  0  0  0  0  0
   -3.0692    0.1925   -2.0896 C   0  0  0  0  0  3  0  0  0  0  0  0
   -3.2496   -0.4453   -2.9646 H   0  0  0  0  0  0  0  0  0  0  0  0
   -1.8644    0.8961   -1.7848 C   0  0  0  0  0  0  0  0  0  0  0  0
   -0.9535    0.9018   -2.3970 H   0  0  0  0  0  0  0  0  0  0  0  0
   -0.8091    2.8461    0.1888 Si  0  0  0  0  0  0  0  0  0  0  0  0
    0.9078    2.0482    0.1894 C   0  0  0  0  0  0  0  0  0  0  0  0
    1.3713    1.2963    1.2930 C   0  0  0  0  0  0  0  0  0  0  0  0
    0.7541    1.2203    2.2011 H   0  0  0  0  0  0  0  0  0  0  0  0
    2.5939    0.6148    1.2479 C   0  0  0  0  0  0  0  0  0  0  0  0
    2.9345    0.0518    2.1304 H   0  0  0  0  0  0  0  0  0  0  0  0
    3.4106    0.6533    0.0945 C   0  0  0  0  0  0  0  0  0  0  0  0
    2.9640    1.4247   -1.0024 C   0  0  0  0  0  0  0  0  0  0  0  0
    3.5724    1.4631   -1.9190 H   0  0  0  0  0  0  0  0  0  0  0  0
    1.7414    2.1085   -0.9512 C   0  0  0  0  0  0  0  0  0  0  0  0
    1.4264    2.6915   -1.8318 H   0  0  0  0  0  0  0  0  0  0  0  0
    4.6878   -0.0996    0.0348 C   0  0  0  0  0  0  0  0  0  0  0  0
    4.8045   -1.3723    0.6390 C   0  0  0  0  0  0  0  0  0  0  0  0
    3.9284   -1.8164    1.1355 H   0  0  0  0  0  0  0  0  0  0  0  0
    6.0071   -2.0892    0.5803 C   0  0  0  0  0  0  0  0  0  0  0  0
    6.0725   -3.0831    1.0486 H   0  0  0  0  0  0  0  0  0  0  0  0
    7.1208   -1.5486   -0.0822 C   0  0  0  0  0  0  0  0  0  0  0  0
    8.0656   -2.1110   -0.1273 H   0  0  0  0  0  0  0  0  0  0  0  0
    7.0200   -0.2856   -0.6873 C   0  0  0  0  0  0  0  0  0  0  0  0
    7.8901    0.1505   -1.2014 H   0  0  0  0  0  0  0  0  0  0  0  0
    5.8165    0.4302   -0.6307 C   0  0  0  0  0  0  0  0  0  0  0  0
    5.7549    1.4304   -1.0856 H   0  0  0  0  0  0  0  0  0  0  0  0
   -1.3568    3.3487    1.9176 C   0  0  0  0  0  0  0  0  0  0  0  0
   -0.6195    4.0398    2.3739 H   0  0  0  0  0  0  0  0  0  0  0  0
   -1.4717    2.4622    2.5718 H   0  0  0  0  0  0  0  0  0  0  0  0
   -2.3339    3.8722    1.8746 H   0  0  0  0  0  0  0  0  0  0  0  0
   -0.8015    4.3444   -0.9680 C   0  0  0  0  0  0  0  0  0  0  0  0
   -0.0680    5.1045   -0.6292 H   0  0  0  0  0  0  0  0  0  0  0  0
   -1.8057    4.8148   -0.9861 H   0  0  0  0  0  0  0  0  0  0  0  0
   -0.5497    4.0606   -2.0099 H   0  0  0  0  0  0  0  0  0  0  0  0
  1  2  1  0  0  0  0
  1 10  1  0  0  0  0
  2  3  1  0  0  0  0
  4  5  1  0  0  0  0
  4  2  2  0  0  0  0
  6  8  1  0  0  0  0
  6  4  1  0  0  0  0
  7  6  1  0  0  0  0
  8  1  2  0  0  0  0
  9  8  1  0  0  0  0
 10 11  1  0  0  0  0
 10 32  1  0  0  0  0
 11 12  1  0  0  0  0
 12 13  1  0  0  0  0
 14 12  2  0  0  0  0
 14 15  1  0  0  0  0
 16 14  1  0  0  0  0
 17 19  1  0  0  0  0
 17 16  2  0  0  0  0
 18 17  1  0  0  0  0
 19 11  2  0  0  0  0
 20 19  1  0  0  0  0
 21 16  1  0  0  0  0
 21 22  1  0  0  0  0
 22 23  1  0  0  0  0
 24 22  2  0  0  0  0
 24 25  1  0  0  0  0
 26 24  1  0  0  0  0
 27 26  1  0  0  0  0
 28 30  1  0  0  0  0
 28 26  2  0  0  0  0
 29 28  1  0  0  0  0
 30 21  2  0  0  0  0
 31 30  1  0  0  0  0
 32 33  1  0  0  0  0
 32 34  1  0  0  0  0
 35 32  1  0  0  0  0
 36 37  1  0  0  0  0
 36 10  1  0  0  0  0
 38 36  1  0  0  0  0
 39 36  1  0  0  0  0
M  END
