7
 OpenBabel05122313113D

 20 20  0  0  1  0  0  0  0  0999 V2000
   -2.2195    1.3396   -0.8539 S   0  0  0  0  0  0  0  0  0  0  0  0
   -2.0396   -1.2461    0.7876 S   0  0  0  0  0  0  0  0  0  0  0  0
    0.4689   -1.7835   -1.0346 C   0  0  0  0  0  0  0  0  0  0  0  0
    1.7843   -1.5535   -1.5023 C   0  0  0  0  0  0  0  0  0  0  0  0
    1.8370   -0.2438   -2.1064 C   0  0  0  0  0  0  0  0  0  0  0  0
    0.5535    0.3474   -2.0205 C   0  0  0  0  0  0  0  0  0  0  0  0
   -0.3212   -0.5889   -1.3179 C   0  0  2  0  0  3  0  0  0  0  0  0
   -1.3377   -0.1367   -0.4204 C   0  0  0  0  0  3  0  0  0  0  0  0
   -2.6364    2.0236    0.7822 C   0  0  0  0  0  0  0  0  0  0  0  0
   -3.6849   -1.5729    0.0550 C   0  0  0  0  0  0  0  0  0  0  0  0
    0.0953   -2.6631   -0.4993 H   0  0  0  0  0  0  0  0  0  0  0  0
    2.6279   -2.2478   -1.4114 H   0  0  0  0  0  0  0  0  0  0  0  0
    2.7266    0.2174   -2.5517 H   0  0  0  0  0  0  0  0  0  0  0  0
    0.2640    1.3486   -2.3573 H   0  0  0  0  0  0  0  0  0  0  0  0
   -2.9398    1.1993    1.4568 H   0  0  0  0  0  0  0  0  0  0  0  0
   -1.7669    2.5620    1.2030 H   0  0  0  0  0  0  0  0  0  0  0  0
   -3.4802    2.7219    0.6296 H   0  0  0  0  0  0  0  0  0  0  0  0
   -4.2096   -0.6226   -0.1616 H   0  0  0  0  0  0  0  0  0  0  0  0
   -3.5942   -2.1716   -0.8718 H   0  0  0  0  0  0  0  0  0  0  0  0
   -4.2496   -2.1468    0.8148 H   0  0  0  0  0  0  0  0  0  0  0  0
  1  8  1  0  0  0  0
  1  9  1  0  0  0  0
  3 11  1  0  0  0  0
  4 12  1  0  0  0  0
  4  3  2  0  0  0  0
  5  6  2  0  0  0  0
  5  4  1  0  0  0  0
  6  7  1  0  0  0  0
  7  3  1  0  0  0  0
  7  8  1  1  0  0  0
  8  2  1  0  0  0  0
  9 16  1  0  0  0  0
  9 15  1  0  0  0  0
 10  2  1  0  0  0  0
 10 20  1  0  0  0  0
 13  5  1  0  0  0  0
 14  6  1  0  0  0  0
 17  9  1  0  0  0  0
 18 10  1  0  0  0  0
 19 10  1  0  0  0  0
M  END
