4
 OpenBabel05122313113D

 24 23  0  0  0  0  0  0  0  0999 V2000
   -4.6513    0.0211    0.0175 Si  0  0  0  0  0  0  0  0  0  0  0  0
   -0.7152   -0.5599   -1.4737 C   0  0  0  0  0  3  0  0  0  0  0  0
   -3.0439    0.1647   -0.9506 C   0  0  0  0  0  0  0  0  0  0  0  0
    0.2388   -1.6175   -1.6283 C   0  0  0  0  0  3  0  0  0  0  0  0
   -2.0213   -0.7260   -0.8486 C   0  0  0  0  0  0  0  0  0  0  0  0
    1.5083   -1.2076   -2.1475 C   0  0  0  0  0  3  0  0  0  0  0  0
    1.5283   -0.4118   -2.9090 H   0  0  0  0  0  0  0  0  0  0  0  0
    2.3322   -1.9347   -2.1839 H   0  0  0  0  0  0  0  0  0  0  0  0
   -4.6052   -1.5589    1.0519 C   0  0  0  0  0  0  0  0  0  0  0  0
   -4.5904   -2.4633    0.4100 H   0  0  0  0  0  0  0  0  0  0  0  0
   -5.4935   -1.6269    1.7127 H   0  0  0  0  0  0  0  0  0  0  0  0
   -3.6969   -1.5794    1.6889 H   0  0  0  0  0  0  0  0  0  0  0  0
   -4.7622    1.5377    1.1542 C   0  0  0  0  0  0  0  0  0  0  0  0
   -3.9178    1.5482    1.8737 H   0  0  0  0  0  0  0  0  0  0  0  0
   -5.7074    1.5327    1.7358 H   0  0  0  0  0  0  0  0  0  0  0  0
   -4.7279    2.4815    0.5716 H   0  0  0  0  0  0  0  0  0  0  0  0
   -6.1354    0.0208   -1.1613 C   0  0  0  0  0  0  0  0  0  0  0  0
   -6.1530    0.9389   -1.7841 H   0  0  0  0  0  0  0  0  0  0  0  0
   -7.0898   -0.0235   -0.5967 H   0  0  0  0  0  0  0  0  0  0  0  0
   -6.1009   -0.8522   -1.8445 H   0  0  0  0  0  0  0  0  0  0  0  0
   -2.1394   -1.6294   -0.2302 H   0  0  0  0  0  0  0  0  0  0  0  0
    0.0494   -2.6343   -1.2505 H   0  0  0  0  0  0  0  0  0  0  0  0
   -2.8739    1.0649   -1.5752 H   0  0  0  0  0  0  0  0  0  0  0  0
   -0.6310    0.2914   -2.1710 H   0  0  0  0  0  0  0  0  0  0  0  0
  1  9  1  0  0  0  0
  1 13  1  0  0  0  0
  2  5  1  0  0  0  0
  3  5  2  0  0  0  0
  3  1  1  0  0  0  0
  4  2  1  0  0  0  0
  4 22  1  0  0  0  0
  5 21  1  0  0  0  0
  6  4  1  0  0  0  0
  7  6  1  0  0  0  0
  8  6  1  0  0  0  0
  9 12  1  0  0  0  0
  9 11  1  0  0  0  0
 10  9  1  0  0  0  0
 13 15  1  0  0  0  0
 13 14  1  0  0  0  0
 16 13  1  0  0  0  0
 17 19  1  0  0  0  0
 17  1  1  0  0  0  0
 18 17  1  0  0  0  0
 20 17  1  0  0  0  0
 23  3  1  0  0  0  0
 24  2  1  0  0  0  0
M  END
