9
 OpenBabel05122313113D

 28 29  0  0  0  0  0  0  0  0999 V2000
   -1.3731    1.5996    0.0398 S   0  0  0  0  0  0  0  0  0  0  0  0
   -0.6598   -0.4997    2.1825 O   0  0  0  0  0  0  0  0  0  0  0  0
   -1.1398    2.2673   -1.2573 O   0  0  0  0  0  0  0  0  0  0  0  0
   -1.3887    2.3305    1.3115 O   0  0  0  0  0  0  0  0  0  0  0  0
   -0.0743    0.4174    0.1263 N   0  0  0  0  0  0  0  0  0  0  0  0
    0.0768   -0.4574    1.2085 C   0  0  0  0  0  0  0  0  0  0  0  0
    1.2432   -1.3729    0.9815 C   0  0  0  0  0  3  0  0  0  0  0  0
    1.5033   -1.9753    1.8639 H   0  0  0  0  0  0  0  0  0  0  0  0
    1.4302   -1.9414   -0.3367 C   0  0  0  0  0  3  0  0  0  0  0  0
    1.7706   -2.9743   -0.5016 H   0  0  0  0  0  0  0  0  0  0  0  0
    1.2307   -1.0230   -1.4013 C   0  0  0  0  0  3  0  0  0  0  0  0
    1.4361   -1.2699   -2.4528 H   0  0  0  0  0  0  0  0  0  0  0  0
    0.8688    0.2996   -0.9429 C   0  0  0  0  0  3  0  0  0  0  0  0
    0.8242    1.1426   -1.6461 H   0  0  0  0  0  0  0  0  0  0  0  0
   -2.8337    0.5809   -0.0842 C   0  0  0  0  0  0  0  0  0  0  0  0
   -3.4631    0.1334    1.0888 C   0  0  0  0  0  0  0  0  0  0  0  0
   -3.0410    0.3991    2.0670 H   0  0  0  0  0  0  0  0  0  0  0  0
   -4.6055   -0.6645    0.9672 C   0  0  0  0  0  0  0  0  0  0  0  0
   -5.1064   -1.0264    1.8788 H   0  0  0  0  0  0  0  0  0  0  0  0
   -5.1293   -1.0142   -0.2972 C   0  0  0  0  0  0  0  0  0  0  0  0
   -4.4718   -0.5400   -1.4521 C   0  0  0  0  0  0  0  0  0  0  0  0
   -4.8708   -0.7977   -2.4455 H   0  0  0  0  0  0  0  0  0  0  0  0
   -3.3252    0.2588   -1.3579 C   0  0  0  0  0  0  0  0  0  0  0  0
   -2.8174    0.6454   -2.2530 H   0  0  0  0  0  0  0  0  0  0  0  0
   -6.3756   -1.8542   -0.4007 C   0  0  0  0  0  0  0  0  0  0  0  0
   -6.3288   -2.7318    0.2752 H   0  0  0  0  0  0  0  0  0  0  0  0
   -6.5421   -2.2183   -1.4325 H   0  0  0  0  0  0  0  0  0  0  0  0
   -7.2713   -1.2683   -0.1033 H   0  0  0  0  0  0  0  0  0  0  0  0
  1  5  1  0  0  0  0
  1  4  2  0  0  0  0
  3  1  2  0  0  0  0
  5  6  1  0  0  0  0
  6  2  2  0  0  0  0
  7  6  1  0  0  0  0
  7  8  1  0  0  0  0
  9  7  1  0  0  0  0
 10  9  1  0  0  0  0
 11 13  1  0  0  0  0
 11  9  1  0  0  0  0
 12 11  1  0  0  0  0
 13  5  1  0  0  0  0
 14 13  1  0  0  0  0
 15  1  1  0  0  0  0
 15 16  1  0  0  0  0
 16 17  1  0  0  0  0
 18 16  2  0  0  0  0
 18 19  1  0  0  0  0
 20 18  1  0  0  0  0
 21 23  1  0  0  0  0
 21 20  2  0  0  0  0
 22 21  1  0  0  0  0
 23 15  2  0  0  0  0
 24 23  1  0  0  0  0
 25 20  1  0  0  0  0
 25 28  1  0  0  0  0
 25 26  1  0  0  0  0
 27 25  1  0  0  0  0
M  END
