7
 OpenBabel05122313113D

 17 17  0  0  1  0  0  0  0  0999 V2000
   -3.1938    0.9768    1.0453 O   0  0  0  0  0  0  0  0  0  0  0  0
   -2.2465   -0.5627   -0.2943 O   0  0  0  0  0  0  0  0  0  0  0  0
   -2.2249    0.6209    0.4159 C   0  0  0  0  0  0  0  0  0  0  0  0
   -0.9344    1.3492    0.2923 C   0  0  0  0  0  3  0  0  0  0  0  0
   -0.8603    2.2363    0.9385 H   0  0  0  0  0  0  0  0  0  0  0  0
   -0.2742    1.3757   -1.0017 C   0  0  1  0  0  3  0  0  0  0  0  0
   -0.3272    0.1108   -1.6549 C   0  0  0  0  0  3  0  0  0  0  0  0
    0.2059   -0.0892   -2.5964 H   0  0  0  0  0  0  0  0  0  0  0  0
   -1.0293   -0.9115   -0.9144 C   0  0  2  0  0  3  0  0  0  0  0  0
    0.3733    2.5974   -1.5855 C   0  0  0  0  0  0  0  0  0  0  0  0
    0.7943    3.2470   -0.7943 H   0  0  0  0  0  0  0  0  0  0  0  0
   -0.3825    3.1951   -2.1376 H   0  0  0  0  0  0  0  0  0  0  0  0
    1.1825    2.3294   -2.2921 H   0  0  0  0  0  0  0  0  0  0  0  0
   -1.0660   -2.3460   -1.3502 C   0  0  0  0  0  0  0  0  0  0  0  0
   -1.2381   -3.0119   -0.4827 H   0  0  0  0  0  0  0  0  0  0  0  0
   -0.1204   -2.6402   -1.8417 H   0  0  0  0  0  0  0  0  0  0  0  0
   -1.9048   -2.5041   -2.0612 H   0  0  0  0  0  0  0  0  0  0  0  0
  2  3  1  0  0  0  0
  3  1  2  0  0  0  0
  4  3  1  0  0  0  0
  4  5  1  0  0  0  0
  6 10  1  6  0  0  0
  6  4  1  0  0  0  0
  7  6  1  0  0  0  0
  7  9  1  0  0  0  0
  8  7  1  0  0  0  0
  9 14  1  6  0  0  0
  9  2  1  0  0  0  0
 10 11  1  0  0  0  0
 12 10  1  0  0  0  0
 13 10  1  0  0  0  0
 14 15  1  0  0  0  0
 16 14  1  0  0  0  0
 17 14  1  0  0  0  0
M  END
