4
 OpenBabel05122313113D

 31 31  0  0  0  0  0  0  0  0999 V2000
    2.3549   -0.0396   -0.0900 C   0  0  0  0  0  0  0  0  0  0  0  0
    1.4350   -1.0736   -0.4224 C   0  0  0  0  0  0  0  0  0  0  0  0
    1.3165   -2.0183    0.1201 H   0  0  0  0  0  0  0  0  0  0  0  0
    0.7412   -0.7118   -1.6202 C   0  0  0  0  0  3  0  0  0  0  0  0
   -0.0073   -1.3139   -2.1453 H   0  0  0  0  0  0  0  0  0  0  0  0
    1.2321    0.5572   -2.0327 C   0  0  0  0  0  0  0  0  0  0  0  0
    0.8906    1.1297   -2.8998 H   0  0  0  0  0  0  0  0  0  0  0  0
    2.1832    0.9905   -1.0745 C   0  0  0  0  0  0  0  0  0  0  0  0
    2.6919    1.9594   -1.0801 H   0  0  0  0  0  0  0  0  0  0  0  0
    3.4289   -0.1236    0.9884 C   0  0  0  0  0  0  0  0  0  0  0  0
    2.7991   -0.4272    2.3657 C   0  0  0  0  0  0  0  0  0  0  0  0
    3.5897   -0.4772    3.1415 H   0  0  0  0  0  0  0  0  0  0  0  0
    2.2796   -1.4076    2.3650 H   0  0  0  0  0  0  0  0  0  0  0  0
    2.0775    0.3626    2.6472 H   0  0  0  0  0  0  0  0  0  0  0  0
    4.2205    1.1919    1.0800 C   0  0  0  0  0  0  0  0  0  0  0  0
    5.0147    1.1036    1.8487 H   0  0  0  0  0  0  0  0  0  0  0  0
    3.5510    2.0279    1.3588 H   0  0  0  0  0  0  0  0  0  0  0  0
    4.7098    1.4492    0.1200 H   0  0  0  0  0  0  0  0  0  0  0  0
    4.3943   -1.3127    0.6705 C   0  0  0  0  0  0  0  0  0  0  0  0
    5.0592   -1.3965    1.5582 H   0  0  0  0  0  0  0  0  0  0  0  0
    3.8033   -2.2564    0.6534 H   0  0  0  0  0  0  0  0  0  0  0  0
    5.2910   -1.2752   -0.5830 C   0  0  0  0  0  0  0  0  0  0  0  0
    5.7732   -0.2734   -0.6335 H   0  0  0  0  0  0  0  0  0  0  0  0
    6.4133   -2.3136   -0.4297 C   0  0  0  0  0  0  0  0  0  0  0  0
    7.0961   -2.3016   -1.3037 H   0  0  0  0  0  0  0  0  0  0  0  0
    5.9936   -3.3396   -0.3502 H   0  0  0  0  0  0  0  0  0  0  0  0
    7.0214   -2.1306    0.4799 H   0  0  0  0  0  0  0  0  0  0  0  0
    4.5373   -1.5083   -1.8996 C   0  0  0  0  0  0  0  0  0  0  0  0
    5.2456   -1.5534   -2.7524 H   0  0  0  0  0  0  0  0  0  0  0  0
    3.8018   -0.7127   -2.1187 H   0  0  0  0  0  0  0  0  0  0  0  0
    3.9875   -2.4733   -1.8716 H   0  0  0  0  0  0  0  0  0  0  0  0
  1 10  1  0  0  0  0
  2  1  2  0  0  0  0
  2  3  1  0  0  0  0
  4  2  1  0  0  0  0
  5  4  1  0  0  0  0
  6  4  1  0  0  0  0
  6  8  2  0  0  0  0
  7  6  1  0  0  0  0
  8  1  1  0  0  0  0
  9  8  1  0  0  0  0
 10 15  1  0  0  0  0
 10 11  1  0  0  0  0
 11 14  1  0  0  0  0
 11 12  1  0  0  0  0
 13 11  1  0  0  0  0
 15 17  1  0  0  0  0
 15 16  1  0  0  0  0
 18 15  1  0  0  0  0
 19 10  1  0  0  0  0
 19 20  1  0  0  0  0
 21 19  1  0  0  0  0
 22 24  1  0  0  0  0
 22 19  1  0  0  0  0
 23 22  1  0  0  0  0
 24 26  1  0  0  0  0
 24 27  1  0  0  0  0
 25 24  1  0  0  0  0
 28 31  1  0  0  0  0
 28 22  1  0  0  0  0
 29 28  1  0  0  0  0
 30 28  1  0  0  0  0
M  END
