1
 OpenBabel05122313113D

 11 11  0  0  0  0  0  0  0  0999 V2000
   -1.9240   -0.1393   -0.5707 C   0  0  0  0  0  2  0  0  0  0  0  0
   -2.4606   -1.1290   -1.3424 N   0  0  0  0  0  0  0  0  0  0  0  0
   -1.8431   -1.9322   -1.5050 H   0  0  0  0  0  0  0  0  0  0  0  0
   -2.9325    0.5290    0.0072 N   0  0  0  0  0  0  0  0  0  0  0  0
   -2.7197    1.2304    0.7304 H   0  0  0  0  0  0  0  0  0  0  0  0
   -3.8734   -1.3540   -1.0014 C   0  0  0  0  0  0  0  0  0  0  0  0
   -3.9711   -2.2205   -0.3103 H   0  0  0  0  0  0  0  0  0  0  0  0
   -4.4901   -1.5522   -1.8999 H   0  0  0  0  0  0  0  0  0  0  0  0
   -4.2494   -0.0234   -0.3048 C   0  0  0  0  0  0  0  0  0  0  0  0
   -4.8113    0.6557   -0.9845 H   0  0  0  0  0  0  0  0  0  0  0  0
   -4.8579   -0.1721    0.6093 H   0  0  0  0  0  0  0  0  0  0  0  0
  1  4  1  0  0  0  0
  2  6  1  0  0  0  0
  2  1  1  0  0  0  0
  3  2  1  0  0  0  0
  4  5  1  0  0  0  0
  6  7  1  0  0  0  0
  6  9  1  0  0  0  0
  8  6  1  0  0  0  0
  9  4  1  0  0  0  0
  9 11  1  0  0  0  0
 10  9  1  0  0  0  0
M  END
