1
 OpenBabel05122313113D

 42 42  0  0  1  0  0  0  0  0999 V2000
   -0.3006   -0.3035   -0.7468 C   0  0  0  0  0  3  0  0  0  0  0  0
   -0.2361   -0.6993   -1.7894 H   0  0  0  0  0  0  0  0  0  0  0  0
   -1.0154    0.9433   -0.8140 O   0  0  0  0  0  0  0  0  0  0  0  0
   -2.2060    0.8667   -1.5831 C   0  0  1  0  0  0  0  0  0  0  0  0
   -1.9823    0.4223   -2.5867 H   0  0  0  0  0  0  0  0  0  0  0  0
   -3.2105   -0.0304   -0.8545 C   0  0  2  0  0  0  0  0  0  0  0  0
   -3.5793    0.4800    0.0534 H   0  0  0  0  0  0  0  0  0  0  0  0
   -2.5796   -1.3769   -0.4918 C   0  0  1  0  0  0  0  0  0  0  0  0
   -2.5257   -1.9720   -1.4277 H   0  0  0  0  0  0  0  0  0  0  0  0
   -1.1386   -1.3046    0.0634 C   0  0  1  0  0  0  0  0  0  0  0  0
   -1.1515   -1.0485    1.1366 H   0  0  0  0  0  0  0  0  0  0  0  0
   -2.7360    2.2759   -1.8163 C   0  0  0  0  0  0  0  0  0  0  0  0
   -1.9091    2.9396   -2.1371 H   0  0  0  0  0  0  0  0  0  0  0  0
   -3.5304    2.2460   -2.5870 H   0  0  0  0  0  0  0  0  0  0  0  0
   -3.3396    2.7949   -0.6217 O   0  0  0  0  0  0  0  0  0  0  0  0
   -2.6850    3.7817    0.0535 C   0  0  0  0  0  0  0  0  0  0  0  0
   -1.6597    4.3062   -0.3372 O   0  0  0  0  0  0  0  0  0  0  0  0
   -3.4073    4.0974    1.3381 C   0  0  0  0  0  0  0  0  0  0  0  0
   -2.9961    5.0210    1.7802 H   0  0  0  0  0  0  0  0  0  0  0  0
   -3.2698    3.2535    2.0449 H   0  0  0  0  0  0  0  0  0  0  0  0
   -4.4954    4.1946    1.1620 H   0  0  0  0  0  0  0  0  0  0  0  0
   -4.3162   -0.2634   -1.7545 O   0  0  0  0  0  0  0  0  0  0  0  0
   -5.5718   -0.3036   -1.2118 C   0  0  0  0  0  0  0  0  0  0  0  0
   -5.8115   -0.1354   -0.0348 O   0  0  0  0  0  0  0  0  0  0  0  0
   -6.5894   -0.6010   -2.2865 C   0  0  0  0  0  0  0  0  0  0  0  0
   -7.6064   -0.4636   -1.8811 H   0  0  0  0  0  0  0  0  0  0  0  0
   -6.4672   -1.6498   -2.6255 H   0  0  0  0  0  0  0  0  0  0  0  0
   -6.4308    0.0473   -3.1698 H   0  0  0  0  0  0  0  0  0  0  0  0
   -3.4507   -2.1541    0.3498 O   0  0  0  0  0  0  0  0  0  0  0  0
   -3.6941   -1.6979    1.6195 C   0  0  0  0  0  0  0  0  0  0  0  0
   -3.2808   -0.6393    2.0517 O   0  0  0  0  0  0  0  0  0  0  0  0
   -4.5025   -2.7064    2.3867 C   0  0  0  0  0  0  0  0  0  0  0  0
   -4.9609   -2.2207    3.2652 H   0  0  0  0  0  0  0  0  0  0  0  0
   -3.8039   -3.4979    2.7269 H   0  0  0  0  0  0  0  0  0  0  0  0
   -5.2729   -3.1724    1.7451 H   0  0  0  0  0  0  0  0  0  0  0  0
   -0.5597   -2.6164   -0.0965 O   0  0  0  0  0  0  0  0  0  0  0  0
   -0.6218   -3.4661    0.9724 C   0  0  0  0  0  0  0  0  0  0  0  0
   -1.2557   -3.2449    1.9833 O   0  0  0  0  0  0  0  0  0  0  0  0
    0.2222   -4.6899    0.7234 C   0  0  0  0  0  0  0  0  0  0  0  0
    1.2667   -4.4265    0.9887 H   0  0  0  0  0  0  0  0  0  0  0  0
    0.2000   -4.9987   -0.3386 H   0  0  0  0  0  0  0  0  0  0  0  0
   -0.1137   -5.5133    1.3775 H   0  0  0  0  0  0  0  0  0  0  0  0
  1 10  1  0  0  0  0
  2  1  1  0  0  0  0
  3  1  1  0  0  0  0
  4  5  1  6  0  0  0
  4  6  1  0  0  0  0
  4  3  1  0  0  0  0
  6  8  1  0  0  0  0
  6  7  1  1  0  0  0
  8  9  1  6  0  0  0
  8 10  1  0  0  0  0
  8 29  1  0  0  0  0
 10 11  1  1  0  0  0
 12  4  1  0  0  0  0
 12 15  1  0  0  0  0
 13 12  1  0  0  0  0
 14 12  1  0  0  0  0
 15 16  1  0  0  0  0
 16 18  1  0  0  0  0
 17 16  2  0  0  0  0
 18 19  1  0  0  0  0
 18 20  1  0  0  0  0
 21 18  1  0  0  0  0
 22 23  1  0  0  0  0
 22  6  1  0  0  0  0
 23 24  2  0  0  0  0
 25 26  1  0  0  0  0
 25 23  1  0  0  0  0
 27 25  1  0  0  0  0
 28 25  1  0  0  0  0
 29 30  1  0  0  0  0
 30 31  2  0  0  0  0
 30 32  1  0  0  0  0
 32 34  1  0  0  0  0
 32 33  1  0  0  0  0
 35 32  1  0  0  0  0
 36 10  1  0  0  0  0
 36 37  1  0  0  0  0
 37 38  2  0  0  0  0
 39 37  1  0  0  0  0
 39 40  1  0  0  0  0
 39 42  1  0  0  0  0
 41 39  1  0  0  0  0
M  END
