4
 OpenBabel05122313113D

 34 36  0  0  1  0  0  0  0  0999 V2000
   -0.1937    5.9880   -1.4844 F   0  0  0  0  0  0  0  0  0  0  0  0
    1.9251   -1.2857    0.1608 N   0  0  0  0  0  0  0  0  0  0  0  0
    3.1575    0.4897   -0.2788 N   0  0  0  0  0  0  0  0  0  0  0  0
    1.0091   -0.2497   -0.0498 C   0  0  0  0  0  3  0  0  0  0  0  0
    1.7979    0.8656   -0.3268 C   0  0  0  0  0  0  0  0  0  0  0  0
    3.2318   -0.8351    0.0194 C   0  0  2  0  0  3  0  0  0  0  0  0
    4.3212   -1.7137    0.1577 C   0  0  0  0  0  0  0  0  0  0  0  0
    5.3458   -1.3381    0.0328 H   0  0  0  0  0  0  0  0  0  0  0  0
    4.0766   -3.0557    0.4562 C   0  0  0  0  0  0  0  0  0  0  0  0
    5.1975   -4.0447    0.6183 C   0  0  0  0  0  0  0  0  0  0  0  0
    6.1879   -3.5756    0.4659 H   0  0  0  0  0  0  0  0  0  0  0  0
    5.0972   -4.8805   -0.1055 H   0  0  0  0  0  0  0  0  0  0  0  0
    5.1837   -4.4983    1.6316 H   0  0  0  0  0  0  0  0  0  0  0  0
    2.7189   -3.4806    0.6103 C   0  0  0  0  0  0  0  0  0  0  0  0
    2.4953   -4.5298    0.8488 H   0  0  0  0  0  0  0  0  0  0  0  0
    1.6694   -2.6020    0.4609 C   0  0  0  0  0  0  0  0  0  0  0  0
    0.6036   -2.8525    0.5497 H   0  0  0  0  0  0  0  0  0  0  0  0
    4.3238    1.3166   -0.5791 C   0  0  0  0  0  0  0  0  0  0  0  0
    3.9528    2.2023   -1.1293 H   0  0  0  0  0  0  0  0  0  0  0  0
    4.9687    0.7495   -1.2830 H   0  0  0  0  0  0  0  0  0  0  0  0
    5.1135    1.7323    0.6614 C   0  0  0  0  0  0  0  0  0  0  0  0
    4.4842    2.3113    1.3652 H   0  0  0  0  0  0  0  0  0  0  0  0
    5.9740    2.3650    0.3670 H   0  0  0  0  0  0  0  0  0  0  0  0
    5.5063    0.8540    1.2105 H   0  0  0  0  0  0  0  0  0  0  0  0
    1.3285    2.2209   -0.6364 C   0  0  0  0  0  0  0  0  0  0  0  0
    0.2526    2.3764   -1.5434 C   0  0  0  0  0  0  0  0  0  0  0  0
   -0.1735    1.4831   -2.0258 H   0  0  0  0  0  0  0  0  0  0  0  0
   -0.2643    3.6441   -1.8307 C   0  0  0  0  0  0  0  0  0  0  0  0
   -1.0968    3.7762   -2.5364 H   0  0  0  0  0  0  0  0  0  0  0  0
    0.2979    4.7662   -1.2089 C   0  0  0  0  0  0  0  0  0  0  0  0
    1.3584    4.6468   -0.3026 C   0  0  0  0  0  0  0  0  0  0  0  0
    1.7574    5.5481    0.1838 H   0  0  0  0  0  0  0  0  0  0  0  0
    1.8644    3.3728   -0.0163 C   0  0  0  0  0  0  0  0  0  0  0  0
    2.6582    3.2731    0.7372 H   0  0  0  0  0  0  0  0  0  0  0  0
  1 30  1  0  0  0  0
  2 16  1  0  0  0  0
  3  6  1  0  0  0  0
  4  2  1  0  0  0  0
  5  3  1  0  0  0  0
  5  4  2  0  0  0  0
  6  7  1  6  0  0  0
  6  2  1  0  0  0  0
  7  9  2  0  0  0  0
  8  7  1  0  0  0  0
  9 14  1  0  0  0  0
  9 10  1  0  0  0  0
 10 13  1  0  0  0  0
 11 10  1  0  0  0  0
 12 10  1  0  0  0  0
 14 15  1  0  0  0  0
 16 17  1  0  0  0  0
 16 14  2  0  0  0  0
 18  3  1  0  0  0  0
 18 21  1  0  0  0  0
 19 18  1  0  0  0  0
 20 18  1  0  0  0  0
 21 24  1  0  0  0  0
 21 22  1  0  0  0  0
 23 21  1  0  0  0  0
 25  5  1  0  0  0  0
 25 33  1  0  0  0  0
 26 25  2  0  0  0  0
 27 26  1  0  0  0  0
 28 26  1  0  0  0  0
 28 30  2  0  0  0  0
 29 28  1  0  0  0  0
 30 31  1  0  0  0  0
 31 33  2  0  0  0  0
 31 32  1  0  0  0  0
 33 34  1  0  0  0  0
M  END
