6
 OpenBabel05122313113D

 38 38  0  0  0  0  0  0  0  0999 V2000
    3.9139    0.0740   -0.3122 O   0  0  0  0  0  0  0  0  0  0  0  0
    5.1448   -1.2752    1.0673 O   0  0  0  0  0  0  0  0  0  0  0  0
   -0.0834    1.8795   -1.0106 N   0  0  0  0  0  0  0  0  0  0  0  0
    0.9250    2.7210   -1.2190 N   0  0  0  0  0  2  0  0  0  0  0  0
    1.9845    2.0552   -0.7886 N   0  0  0  0  0  0  0  0  0  0  0  0
    0.2685    0.6650   -0.4540 C   0  0  0  0  0  3  0  0  0  0  0  0
    1.6665    0.7958   -0.3208 C   0  0  0  0  0  0  0  0  0  0  0  0
    2.6437   -0.0975    0.4222 C   0  0  0  0  0  0  0  0  0  0  0  0
    2.2108   -1.5614    0.3692 C   0  0  0  0  0  0  0  0  0  0  0  0
    2.2347   -1.9324   -0.6732 H   0  0  0  0  0  0  0  0  0  0  0  0
    1.1632   -1.6441    0.7354 H   0  0  0  0  0  0  0  0  0  0  0  0
    2.8819   -2.1736    0.9961 H   0  0  0  0  0  0  0  0  0  0  0  0
    2.7571    0.4069    1.8702 C   0  0  0  0  0  0  0  0  0  0  0  0
    3.4490   -0.2319    2.4477 H   0  0  0  0  0  0  0  0  0  0  0  0
    1.7435    0.3820    2.3218 H   0  0  0  0  0  0  0  0  0  0  0  0
    3.1199    1.4539    1.9012 H   0  0  0  0  0  0  0  0  0  0  0  0
    5.0527   -0.5476    0.0992 C   0  0  0  0  0  0  0  0  0  0  0  0
    6.1930   -0.1901   -0.8312 C   0  0  0  0  0  0  0  0  0  0  0  0
    5.9206   -0.4138   -1.8813 H   0  0  0  0  0  0  0  0  0  0  0  0
    7.0939   -0.7578   -0.5418 H   0  0  0  0  0  0  0  0  0  0  0  0
    6.4061    0.8966   -0.7716 H   0  0  0  0  0  0  0  0  0  0  0  0
   -1.4464    2.3774   -1.2000 C   0  0  0  0  0  0  0  0  0  0  0  0
   -2.0698    1.4813   -1.3784 H   0  0  0  0  0  0  0  0  0  0  0  0
   -1.4490    3.0130   -2.1081 H   0  0  0  0  0  0  0  0  0  0  0  0
   -1.9479    3.1305    0.0331 C   0  0  0  0  0  0  0  0  0  0  0  0
   -1.7696    2.4872    0.9226 H   0  0  0  0  0  0  0  0  0  0  0  0
   -1.3417    4.0528    0.1676 H   0  0  0  0  0  0  0  0  0  0  0  0
   -3.4346    3.4776   -0.0690 C   0  0  0  0  0  0  0  0  0  0  0  0
   -3.6211    4.0887   -0.9811 H   0  0  0  0  0  0  0  0  0  0  0  0
   -4.0122    2.5365   -0.2097 H   0  0  0  0  0  0  0  0  0  0  0  0
   -3.9528    4.2145    1.1665 C   0  0  0  0  0  0  0  0  0  0  0  0
   -3.4154    5.1738    1.3181 H   0  0  0  0  0  0  0  0  0  0  0  0
   -3.8053    3.6045    2.0813 H   0  0  0  0  0  0  0  0  0  0  0  0
   -5.0338    4.4452    1.0827 H   0  0  0  0  0  0  0  0  0  0  0  0
    3.2751    2.7244   -0.9072 C   0  0  0  0  0  0  0  0  0  0  0  0
    3.9014    2.2165   -1.6617 H   0  0  0  0  0  0  0  0  0  0  0  0
    3.8015    2.7017    0.0633 H   0  0  0  0  0  0  0  0  0  0  0  0
    3.0691    3.7665   -1.2065 H   0  0  0  0  0  0  0  0  0  0  0  0
  1 17  1  0  0  0  0
  1  8  1  0  0  0  0
  3  6  1  0  0  0  0
  4  3  1  0  0  0  0
  4  5  1  0  0  0  0
  5  7  1  0  0  0  0
  6  7  2  0  0  0  0
  7  8  1  0  0  0  0
  8 13  1  0  0  0  0
  9  8  1  0  0  0  0
  9 11  1  0  0  0  0
  9 12  1  0  0  0  0
 10  9  1  0  0  0  0
 13 16  1  0  0  0  0
 13 15  1  0  0  0  0
 13 14  1  0  0  0  0
 17  2  2  0  0  0  0
 18 21  1  0  0  0  0
 18 20  1  0  0  0  0
 18 17  1  0  0  0  0
 19 18  1  0  0  0  0
 22  3  1  0  0  0  0
 22 25  1  0  0  0  0
 23 22  1  0  0  0  0
 24 22  1  0  0  0  0
 25 27  1  0  0  0  0
 25 26  1  0  0  0  0
 28 25  1  0  0  0  0
 28 31  1  0  0  0  0
 29 28  1  0  0  0  0
 30 28  1  0  0  0  0
 31 32  1  0  0  0  0
 31 33  1  0  0  0  0
 34 31  1  0  0  0  0
 35  5  1  0  0  0  0
 35 37  1  0  0  0  0
 36 35  1  0  0  0  0
 38 35  1  0  0  0  0
M  END
