1
 OpenBabel05122313113D

 36 36  0  0  0  0  0  0  0  0999 V2000
    1.9021    0.7179   -0.0056 C   0  0  0  0  0  3  0  0  0  0  0  0
    3.1697    0.1428    0.1965 C   0  0  0  0  0  0  0  0  0  0  0  0
    3.5856   -1.2524    0.6436 C   0  0  0  0  0  0  0  0  0  0  0  0
    4.3650   -1.1957    1.9666 C   0  0  0  0  0  0  0  0  0  0  0  0
    4.6370   -2.2250    2.2708 H   0  0  0  0  0  0  0  0  0  0  0  0
    3.7372   -0.7397    2.7559 H   0  0  0  0  0  0  0  0  0  0  0  0
    5.3008   -0.6138    1.8767 H   0  0  0  0  0  0  0  0  0  0  0  0
    2.3563   -2.1460    0.8278 C   0  0  0  0  0  0  0  0  0  0  0  0
    1.7303   -2.1701   -0.0837 H   0  0  0  0  0  0  0  0  0  0  0  0
    1.7262   -1.7549    1.6498 H   0  0  0  0  0  0  0  0  0  0  0  0
    2.6958   -3.1703    1.0802 H   0  0  0  0  0  0  0  0  0  0  0  0
    4.5066   -1.8046   -0.3223 O   0  0  0  0  0  0  0  0  0  0  0  0
    3.9402   -2.1201   -1.5896 C   0  0  0  0  0  0  0  0  0  0  0  0
    3.2282   -1.3427   -1.9498 H   0  0  0  0  0  0  0  0  0  0  0  0
    3.3951   -3.0905   -1.5715 H   0  0  0  0  0  0  0  0  0  0  0  0
    4.7818   -2.2065   -2.3046 H   0  0  0  0  0  0  0  0  0  0  0  0
    2.2226    1.9998   -0.3958 N   0  0  0  0  0  0  0  0  0  0  0  0
    1.2891    3.0947   -0.6503 C   0  0  0  0  0  0  0  0  0  0  0  0
    0.3996    2.6369   -1.1233 H   0  0  0  0  0  0  0  0  0  0  0  0
    1.7791    3.7650   -1.3820 H   0  0  0  0  0  0  0  0  0  0  0  0
    0.9198    3.8212    0.6473 C   0  0  0  0  0  0  0  0  0  0  0  0
    1.8561    4.2048    1.1096 H   0  0  0  0  0  0  0  0  0  0  0  0
    0.4955    3.0699    1.3483 H   0  0  0  0  0  0  0  0  0  0  0  0
   -0.0702    4.9742    0.4430 C   0  0  0  0  0  0  0  0  0  0  0  0
   -1.0105    4.5747    0.0050 H   0  0  0  0  0  0  0  0  0  0  0  0
   -0.3521    5.3619    1.4449 H   0  0  0  0  0  0  0  0  0  0  0  0
    0.4517    6.1277   -0.4180 C   0  0  0  0  0  0  0  0  0  0  0  0
   -0.2826    6.9566   -0.4712 H   0  0  0  0  0  0  0  0  0  0  0  0
    0.6593    5.8127   -1.4617 H   0  0  0  0  0  0  0  0  0  0  0  0
    1.3949    6.5434   -0.0050 H   0  0  0  0  0  0  0  0  0  0  0  0
    3.5239    2.2607   -0.4749 N   0  0  0  0  0  2  0  0  0  0  0  0
    4.0920    1.1230   -0.1178 N   0  0  0  0  0  0  0  0  0  0  0  0
    5.5480    1.0499   -0.1460 C   0  0  0  0  0  0  0  0  0  0  0  0
    5.9079    1.7303   -0.9377 H   0  0  0  0  0  0  0  0  0  0  0  0
    5.8294    0.0039   -0.3619 H   0  0  0  0  0  0  0  0  0  0  0  0
    5.9694    1.3664    0.8281 H   0  0  0  0  0  0  0  0  0  0  0  0
  1  2  2  0  0  0  0
  2  3  1  0  0  0  0
  3  8  1  0  0  0  0
  3  4  1  0  0  0  0
  4  5  1  0  0  0  0
  4  6  1  0  0  0  0
  7  4  1  0  0  0  0
  8 11  1  0  0  0  0
  8 10  1  0  0  0  0
  9  8  1  0  0  0  0
 12  3  1  0  0  0  0
 13 15  1  0  0  0  0
 13 12  1  0  0  0  0
 14 13  1  0  0  0  0
 16 13  1  0  0  0  0
 17  1  1  0  0  0  0
 18 17  1  0  0  0  0
 18 21  1  0  0  0  0
 19 18  1  0  0  0  0
 20 18  1  0  0  0  0
 21 22  1  0  0  0  0
 21 23  1  0  0  0  0
 24 21  1  0  0  0  0
 24 26  1  0  0  0  0
 25 24  1  0  0  0  0
 27 30  1  0  0  0  0
 27 24  1  0  0  0  0
 28 27  1  0  0  0  0
 29 27  1  0  0  0  0
 31 17  1  0  0  0  0
 31 32  1  0  0  0  0
 32  2  1  0  0  0  0
 33 32  1  0  0  0  0
 33 36  1  0  0  0  0
 34 33  1  0  0  0  0
 35 33  1  0  0  0  0
M  END
