8
 OpenBabel05122313113D

 50 52  0  0  0  0  0  0  0  0999 V2000
   -2.9983   -2.1087    1.8968 F   0  0  0  0  0  0  0  0  0  0  0  0
   -4.6578   -1.6884   -0.2166 F   0  0  0  0  0  0  0  0  0  0  0  0
   -4.6374    0.7189   -1.5161 F   0  0  0  0  0  0  0  0  0  0  0  0
   -2.9711    2.7220   -0.6788 F   0  0  0  0  0  0  0  0  0  0  0  0
   -1.3509    2.3272    1.4817 F   0  0  0  0  0  0  0  0  0  0  0  0
    0.2068    0.0986    2.4994 N   0  0  0  0  0  0  0  0  0  0  0  0
    1.9822    0.2876    1.2904 N   0  0  0  0  0  0  0  0  0  0  0  0
    0.6823   -0.1399    1.2383 C   0  0  0  0  0  2  0  0  0  0  0  0
    1.1806    0.6567    3.3172 C   0  0  0  0  0  0  0  0  0  0  0  0
    0.9928    0.9230    4.3618 H   0  0  0  0  0  0  0  0  0  0  0  0
    2.3107    0.7783    2.5492 C   0  0  0  0  0  0  0  0  0  0  0  0
    3.3021    1.1790    2.7785 H   0  0  0  0  0  0  0  0  0  0  0  0
   -1.1878   -0.1352    2.8941 C   0  0  0  0  0  0  0  0  0  0  0  0
   -1.4058    0.5494    3.7387 H   0  0  0  0  0  0  0  0  0  0  0  0
   -1.3094   -1.1743    3.2579 H   0  0  0  0  0  0  0  0  0  0  0  0
   -2.1432    0.1042    1.7531 C   0  0  0  0  0  0  0  0  0  0  0  0
   -3.0130   -0.9050    1.3048 C   0  0  0  0  0  0  0  0  0  0  0  0
   -3.8659   -0.7076    0.2084 C   0  0  0  0  0  0  0  0  0  0  0  0
   -3.8529    0.5262   -0.4611 C   0  0  0  0  0  0  0  0  0  0  0  0
   -2.9988    1.5560   -0.0274 C   0  0  0  0  0  0  0  0  0  0  0  0
   -2.1736    1.3405    1.0818 C   0  0  0  0  0  0  0  0  0  0  0  0
    2.8208    0.3678    0.1209 C   0  0  0  0  0  0  0  0  0  0  0  0
    2.7209    1.5253   -0.6883 C   0  0  0  0  0  0  0  0  0  0  0  0
    3.5501    1.5879   -1.8241 C   0  0  0  0  0  0  0  0  0  0  0  0
    3.4957    2.4675   -2.4826 H   0  0  0  0  0  0  0  0  0  0  0  0
    4.4319    0.5452   -2.1324 C   0  0  0  0  0  0  0  0  0  0  0  0
    5.0710    0.6153   -3.0257 H   0  0  0  0  0  0  0  0  0  0  0  0
    4.4944   -0.5944   -1.3201 C   0  0  0  0  0  0  0  0  0  0  0  0
    5.1762   -1.4150   -1.5864 H   0  0  0  0  0  0  0  0  0  0  0  0
    3.6853   -0.7118   -0.1752 C   0  0  0  0  0  0  0  0  0  0  0  0
    1.7085    2.6278   -0.4011 C   0  0  0  0  0  0  0  0  0  0  0  0
    1.3166    2.4729    0.6242 H   0  0  0  0  0  0  0  0  0  0  0  0
    0.5098    2.5135   -1.3615 C   0  0  0  0  0  0  0  0  0  0  0  0
    0.8183    2.6946   -2.4117 H   0  0  0  0  0  0  0  0  0  0  0  0
   -0.2782    3.2465   -1.0967 H   0  0  0  0  0  0  0  0  0  0  0  0
    0.0571    1.4991   -1.3225 H   0  0  0  0  0  0  0  0  0  0  0  0
    2.3335    4.0304   -0.4401 C   0  0  0  0  0  0  0  0  0  0  0  0
    3.1908    4.1161    0.2579 H   0  0  0  0  0  0  0  0  0  0  0  0
    1.5800    4.7927   -0.1566 H   0  0  0  0  0  0  0  0  0  0  0  0
    2.6965    4.2928   -1.4551 H   0  0  0  0  0  0  0  0  0  0  0  0
    3.6559   -1.9922    0.6483 C   0  0  0  0  0  0  0  0  0  0  0  0
    3.2576   -1.7338    1.6520 H   0  0  0  0  0  0  0  0  0  0  0  0
    5.0411   -2.6204    0.8518 C   0  0  0  0  0  0  0  0  0  0  0  0
    5.4691   -2.9945   -0.1008 H   0  0  0  0  0  0  0  0  0  0  0  0
    4.9703   -3.4898    1.5359 H   0  0  0  0  0  0  0  0  0  0  0  0
    5.7605   -1.8974    1.2863 H   0  0  0  0  0  0  0  0  0  0  0  0
    2.6715   -2.9884    0.0041 C   0  0  0  0  0  0  0  0  0  0  0  0
    1.6646   -2.5363   -0.1212 H   0  0  0  0  0  0  0  0  0  0  0  0
    2.5694   -3.9025    0.6242 H   0  0  0  0  0  0  0  0  0  0  0  0
    3.0235   -3.2903   -1.0037 H   0  0  0  0  0  0  0  0  0  0  0  0
  2 18  1  0  0  0  0
  3 19  1  0  0  0  0
  4 20  1  0  0  0  0
  6 13  1  0  0  0  0
  6  9  1  0  0  0  0
  7 11  1  0  0  0  0
  8  7  1  0  0  0  0
  8  6  1  0  0  0  0
  9 10  1  0  0  0  0
 11 12  1  0  0  0  0
 11  9  2  0  0  0  0
 13 15  1  0  0  0  0
 13 14  1  0  0  0  0
 16 13  1  0  0  0  0
 17 16  1  0  0  0  0
 17  1  1  0  0  0  0
 18 17  2  0  0  0  0
 19 20  2  0  0  0  0
 19 18  1  0  0  0  0
 20 21  1  0  0  0  0
 21  5  1  0  0  0  0
 21 16  2  0  0  0  0
 22  7  1  0  0  0  0
 23 31  1  0  0  0  0
 23 22  2  0  0  0  0
 24 23  1  0  0  0  0
 25 24  1  0  0  0  0
 26 24  2  0  0  0  0
 26 28  1  0  0  0  0
 27 26  1  0  0  0  0
 28 30  2  0  0  0  0
 29 28  1  0  0  0  0
 30 22  1  0  0  0  0
 30 41  1  0  0  0  0
 31 32  1  0  0  0  0
 33 36  1  0  0  0  0
 33 35  1  0  0  0  0
 33 31  1  0  0  0  0
 34 33  1  0  0  0  0
 37 31  1  0  0  0  0
 37 39  1  0  0  0  0
 37 38  1  0  0  0  0
 40 37  1  0  0  0  0
 41 43  1  0  0  0  0
 41 42  1  0  0  0  0
 43 46  1  0  0  0  0
 43 45  1  0  0  0  0
 44 43  1  0  0  0  0
 47 49  1  0  0  0  0
 47 41  1  0  0  0  0
 48 47  1  0  0  0  0
 50 47  1  0  0  0  0
M  END
