7
q = 0.0, confidence = 1.0

 29 30  0  0  0  0  0  0  0  0999 V2000
    0.0743   -1.1578    0.2343 C   0  0  0  0  0  0  0  0  0  0  0  0
    1.0136   -1.3665    1.2869 C   0  0  0  0  0  0  0  0  0  0  0  0
    2.4042   -1.3911    1.0320 C   0  0  0  0  0  0  0  0  0  0  0  0
    4.2064   -1.3735   -0.4603 O   0  0  0  0  0  0  0  0  0  0  0  0
    2.8966   -1.2834   -0.3109 C   0  0  0  0  0  0  0  0  0  0  0  0
    1.9665   -0.9814   -1.3600 C   0  0  0  0  0  3  0  0  0  0  0  0
    0.5734   -0.9484   -1.0849 C   0  0  0  0  0  3  0  0  0  0  0  0
   -1.7903   -1.2566    1.7218 O   0  0  0  0  0  0  0  0  0  0  0  0
   -1.3841   -1.0358    0.6017 C   0  0  0  0  0  0  0  0  0  0  0  0
   -2.0900   -0.6271   -0.4708 O   0  0  0  0  0  0  0  0  0  0  0  0
    4.8135   -1.1602   -1.7490 C   0  0  0  0  0  0  0  0  0  0  0  0
   -3.4711   -0.3427   -0.3988 C   0  0  0  0  0  0  0  0  0  0  0  0
   -3.8853    0.7772   -1.1315 C   0  0  0  0  0  0  0  0  0  0  0  0
   -5.2486    1.1023   -1.1550 C   0  0  0  0  0  0  0  0  0  0  0  0
   -6.1735    0.3100   -0.4558 C   0  0  0  0  0  0  0  0  0  0  0  0
   -5.7338   -0.8102    0.2671 C   0  0  0  0  0  0  0  0  0  0  0  0
   -4.3729   -1.1519    0.3047 C   0  0  0  0  0  0  0  0  0  0  0  0
    0.6229   -1.4634    2.3118 H   0  0  0  0  0  0  0  0  0  0  0  0
    3.1329   -1.5138    1.8452 H   0  0  0  0  0  0  0  0  0  0  0  0
    2.3165   -0.7843   -2.3812 H   0  0  0  0  0  0  0  0  0  0  0  0
   -0.1394   -0.7260   -1.8917 H   0  0  0  0  0  0  0  0  0  0  0  0
    5.8934   -1.3272   -1.5977 H   0  0  0  0  0  0  0  0  0  0  0  0
    4.6442   -0.1182   -2.0896 H   0  0  0  0  0  0  0  0  0  0  0  0
    4.4253   -1.8847   -2.4927 H   0  0  0  0  0  0  0  0  0  0  0  0
   -3.1400    1.3819   -1.6681 H   0  0  0  0  0  0  0  0  0  0  0  0
   -5.5878    1.9802   -1.7241 H   0  0  0  0  0  0  0  0  0  0  0  0
   -7.2427    0.5661   -0.4754 H   0  0  0  0  0  0  0  0  0  0  0  0
   -6.4572   -1.4333    0.8131 H   0  0  0  0  0  0  0  0  0  0  0  0
   -4.0278   -2.0238    0.8735 H   0  0  0  0  0  0  0  0  0  0  0  0
  1  9  1  0  0  0  0
  1  2  2  0  0  0  0
  2 18  1  0  0  0  0
  3  2  1  0  0  0  0
  3 19  1  0  0  0  0
  4  5  1  0  0  0  0
  5  3  2  0  0  0  0
  6  7  1  0  0  0  0
  6  5  1  0  0  0  0
  7  1  1  0  0  0  0
  9  8  2  0  0  0  0
 10 12  1  0  0  0  0
 10  9  1  0  0  0  0
 11 22  1  0  0  0  0
 11  4  1  0  0  0  0
 12 17  1  0  0  0  0
 13 12  2  0  0  0  0
 14 13  1  0  0  0  0
 14 15  2  0  0  0  0
 15 16  1  0  0  0  0
 16 17  2  0  0  0  0
 16 28  1  0  0  0  0
 17 29  1  0  0  0  0
 20  6  1  0  0  0  0
 21  7  1  0  0  0  0
 23 11  1  0  0  0  0
 24 11  1  0  0  0  0
 25 13  1  0  0  0  0
 26 14  1  0  0  0  0
 27 15  1  0  0  0  0
M  END
