25
 OpenBabel05122313113D

 32 32  0  0  1  0  0  0  0  0999 V2000
    2.7645    3.2423   -1.3419 C   0  0  0  0  0  0  0  0  0  0  0  0
    2.6237    4.1334   -1.9857 H   0  0  0  0  0  0  0  0  0  0  0  0
    3.6983    2.7384   -1.6617 H   0  0  0  0  0  0  0  0  0  0  0  0
    2.9176    3.5963   -0.3037 H   0  0  0  0  0  0  0  0  0  0  0  0
    1.5448    2.3103   -1.4414 C   0  0  0  0  0  0  0  0  0  0  0  0
    0.6357    2.8751   -1.1739 H   0  0  0  0  0  0  0  0  0  0  0  0
    1.4074    1.9800   -2.4922 H   0  0  0  0  0  0  0  0  0  0  0  0
    1.6738    1.1002   -0.5745 C   0  0  1  0  0  3  0  0  0  0  0  0
    2.4993   -0.0806   -0.7618 C   0  0  1  0  0  3  0  0  0  0  0  0
    3.3329   -0.6078   -1.8876 C   0  0  0  0  0  0  0  0  0  0  0  0
    2.8419   -0.3495   -2.8492 H   0  0  0  0  0  0  0  0  0  0  0  0
    3.3594   -1.7170   -1.8405 H   0  0  0  0  0  0  0  0  0  0  0  0
    4.7770   -0.0796   -1.8698 C   0  0  0  0  0  0  0  0  0  0  0  0
    5.3611   -0.5016   -2.7117 H   0  0  0  0  0  0  0  0  0  0  0  0
    5.2939   -0.3552   -0.9284 H   0  0  0  0  0  0  0  0  0  0  0  0
    4.8076    1.0242   -1.9548 H   0  0  0  0  0  0  0  0  0  0  0  0
    2.1006    2.7888    2.3765 C   0  0  0  0  0  0  0  0  0  0  0  0
    1.9390    3.2125    3.3878 H   0  0  0  0  0  0  0  0  0  0  0  0
    1.7899    3.5584    1.6415 H   0  0  0  0  0  0  0  0  0  0  0  0
    3.1892    2.6192    2.2457 H   0  0  0  0  0  0  0  0  0  0  0  0
    1.2912    1.4983    2.1900 C   0  0  0  0  0  0  0  0  0  0  0  0
    1.5181    0.7835    3.0105 H   0  0  0  0  0  0  0  0  0  0  0  0
    0.2160    1.7331    2.2892 H   0  0  0  0  0  0  0  0  0  0  0  0
    1.5701    0.7885    0.8997 C   0  0  2  0  0  3  0  0  0  0  0  0
    2.4269   -0.3698    0.6790 C   0  0  2  0  0  3  0  0  0  0  0  0
    3.2200   -1.2138    1.6278 C   0  0  0  0  0  0  0  0  0  0  0  0
    3.5923   -2.1208    1.1074 H   0  0  0  0  0  0  0  0  0  0  0  0
    2.5588   -1.5688    2.4465 H   0  0  0  0  0  0  0  0  0  0  0  0
    4.4129   -0.4446    2.2196 C   0  0  0  0  0  0  0  0  0  0  0  0
    5.0042   -1.0929    2.8964 H   0  0  0  0  0  0  0  0  0  0  0  0
    4.0763    0.4368    2.7998 H   0  0  0  0  0  0  0  0  0  0  0  0
    5.0893   -0.0783    1.4214 H   0  0  0  0  0  0  0  0  0  0  0  0
  1  4  1  0  0  0  0
  2  1  1  0  0  0  0
  3  1  1  0  0  0  0
  5  1  1  0  0  0  0
  5  6  1  0  0  0  0
  7  5  1  0  0  0  0
  8  5  1  1  0  0  0
  8 24  1  0  0  0  0
  9 10  1  1  0  0  0
  9  8  1  0  0  0  0
  9 25  1  0  0  0  0
 10 13  1  0  0  0  0
 10 12  1  0  0  0  0
 11 10  1  0  0  0  0
 13 15  1  0  0  0  0
 14 13  1  0  0  0  0
 16 13  1  0  0  0  0
 17 18  1  0  0  0  0
 19 17  1  0  0  0  0
 20 17  1  0  0  0  0
 21 23  1  0  0  0  0
 21 17  1  0  0  0  0
 21 22  1  0  0  0  0
 24 21  1  1  0  0  0
 25 24  1  0  0  0  0
 25 26  1  1  0  0  0
 26 29  1  0  0  0  0
 26 28  1  0  0  0  0
 27 26  1  0  0  0  0
 29 31  1  0  0  0  0
 29 30  1  0  0  0  0
 32 29  1  0  0  0  0
M  END
