2
 OpenBabel05122313113D

 15 14  0  0  0  0  0  0  0  0999 V2000
    1.1688   -1.3790    1.6080 P   0  0  0  0  0  1  0  0  0  0  0  0
    1.7718   -0.3384    0.4073 C   0  0  0  0  0  2  0  0  0  0  0  0
    3.1689    0.0933    0.0143 C   0  0  0  0  0  0  0  0  0  0  0  0
    4.0888    0.1810    1.2482 C   0  0  0  0  0  0  0  0  0  0  0  0
    3.7254    0.9511    1.9592 H   0  0  0  0  0  0  0  0  0  0  0  0
    5.1226    0.4507    0.9480 H   0  0  0  0  0  0  0  0  0  0  0  0
    4.1225   -0.7876    1.7862 H   0  0  0  0  0  0  0  0  0  0  0  0
    3.6964   -1.0073   -0.9436 C   0  0  0  0  0  0  0  0  0  0  0  0
    3.7354   -1.9881   -0.4294 H   0  0  0  0  0  0  0  0  0  0  0  0
    4.7205   -0.7466   -1.2836 H   0  0  0  0  0  0  0  0  0  0  0  0
    3.0428   -1.1042   -1.8320 H   0  0  0  0  0  0  0  0  0  0  0  0
    3.1641    1.4433   -0.7298 C   0  0  0  0  0  0  0  0  0  0  0  0
    2.4983    1.4079   -1.6127 H   0  0  0  0  0  0  0  0  0  0  0  0
    4.1886    1.6957   -1.0728 H   0  0  0  0  0  0  0  0  0  0  0  0
    2.8247    2.2624   -0.0652 H   0  0  0  0  0  0  0  0  0  0  0  0
  2  1  1  0  0  0  0
  3  2  1  0  0  0  0
  3  4  1  0  0  0  0
  4  7  1  0  0  0  0
  4  5  1  0  0  0  0
  6  4  1  0  0  0  0
  8  9  1  0  0  0  0
  8  3  1  0  0  0  0
 10  8  1  0  0  0  0
 11  8  1  0  0  0  0
 12 15  1  0  0  0  0
 12  3  1  0  0  0  0
 13 12  1  0  0  0  0
 14 12  1  0  0  0  0
M  END
