18
 OpenBabel05122313113D

 40 43  0  0  0  0  0  0  0  0999 V2000
    0.6060    0.1149    0.3570 P   0  0  0  0  0  0  0  0  0  0  0  0
    1.8215    1.3579    0.3075 C   0  0  0  0  0  0  0  0  0  0  0  0
    3.1678    0.9567    0.1939 C   0  0  0  0  0  0  0  0  0  0  0  0
    3.9136    1.7678    0.1692 H   0  0  0  0  0  0  0  0  0  0  0  0
    3.6593   -0.3695    0.1125 C   0  0  0  0  0  0  0  0  0  0  0  0
    2.8012   -1.4987    0.1422 C   0  0  0  0  0  0  0  0  0  0  0  0
    3.2738   -2.4930    0.1029 H   0  0  0  0  0  0  0  0  0  0  0  0
    1.4064   -1.4248    0.2352 C   0  0  0  0  0  0  0  0  0  0  0  0
    0.4250   -2.5207    0.2957 C   0  0  0  0  0  0  0  0  0  0  0  0
    0.8077   -3.8769    0.4023 C   0  0  0  0  0  0  0  0  0  0  0  0
    1.8750   -4.1448    0.3795 H   0  0  0  0  0  0  0  0  0  0  0  0
   -0.1517   -4.8827    0.5624 C   0  0  0  0  0  0  0  0  0  0  0  0
    0.1613   -5.9338    0.6454 H   0  0  0  0  0  0  0  0  0  0  0  0
   -1.5103   -4.5380    0.6427 C   0  0  0  0  0  0  0  0  0  0  0  0
   -2.2706   -5.3190    0.7969 H   0  0  0  0  0  0  0  0  0  0  0  0
   -1.9048   -3.1931    0.5269 C   0  0  0  0  0  0  0  0  0  0  0  0
   -2.9754   -2.9457    0.5997 H   0  0  0  0  0  0  0  0  0  0  0  0
   -0.9655   -2.1680    0.3160 C   0  0  0  0  0  3  0  0  0  0  0  0
    1.4112    2.7785    0.3808 C   0  0  0  0  0  0  0  0  0  0  0  0
    2.0629    3.7622   -0.3975 C   0  0  0  0  0  0  0  0  0  0  0  0
    2.8915    3.4709   -1.0604 H   0  0  0  0  0  0  0  0  0  0  0  0
    1.6365    5.0971   -0.3622 C   0  0  0  0  0  0  0  0  0  0  0  0
    2.1494    5.8485   -0.9809 H   0  0  0  0  0  0  0  0  0  0  0  0
    0.5555    5.4749    0.4510 C   0  0  0  0  0  0  0  0  0  0  0  0
    0.2246    6.5237    0.4780 H   0  0  0  0  0  0  0  0  0  0  0  0
   -0.0930    4.5083    1.2381 C   0  0  0  0  0  0  0  0  0  0  0  0
   -0.9265    4.8010    1.8947 H   0  0  0  0  0  0  0  0  0  0  0  0
    0.3305    3.1732    1.2040 C   0  0  0  0  0  0  0  0  0  0  0  0
   -0.1702    2.4202    1.8323 H   0  0  0  0  0  0  0  0  0  0  0  0
    5.1261   -0.5811   -0.0004 C   0  0  0  0  0  0  0  0  0  0  0  0
    6.0357    0.2384    0.7072 C   0  0  0  0  0  0  0  0  0  0  0  0
    5.6548    1.0212    1.3805 H   0  0  0  0  0  0  0  0  0  0  0  0
    7.4177    0.0368    0.5966 C   0  0  0  0  0  0  0  0  0  0  0  0
    8.1088    0.6761    1.1661 H   0  0  0  0  0  0  0  0  0  0  0  0
    7.9191   -0.9837   -0.2268 C   0  0  0  0  0  0  0  0  0  0  0  0
    9.0045   -1.1403   -0.3147 H   0  0  0  0  0  0  0  0  0  0  0  0
    7.0279   -1.8043   -0.9367 C   0  0  0  0  0  0  0  0  0  0  0  0
    7.4131   -2.5994   -1.5925 H   0  0  0  0  0  0  0  0  0  0  0  0
    5.6457   -1.6078   -0.8225 C   0  0  0  0  0  0  0  0  0  0  0  0
    4.9587   -2.2387   -1.4068 H   0  0  0  0  0  0  0  0  0  0  0  0
  2  1  1  0  0  0  0
  2 19  1  0  0  0  0
  3  2  2  0  0  0  0
  4  3  1  0  0  0  0
  5  6  2  0  0  0  0
  5  3  1  0  0  0  0
  6  8  1  0  0  0  0
  7  6  1  0  0  0  0
  8  9  1  0  0  0  0
  8  1  2  0  0  0  0
  9 18  2  0  0  0  0
  9 10  1  0  0  0  0
 10 12  2  0  0  0  0
 11 10  1  0  0  0  0
 12 14  1  0  0  0  0
 12 13  1  0  0  0  0
 14 15  1  0  0  0  0
 16 17  1  0  0  0  0
 16 14  2  0  0  0  0
 18 16  1  0  0  0  0
 19 28  1  0  0  0  0
 20 22  1  0  0  0  0
 20 19  2  0  0  0  0
 21 20  1  0  0  0  0
 22 24  2  0  0  0  0
 23 22  1  0  0  0  0
 24 25  1  0  0  0  0
 24 26  1  0  0  0  0
 26 27  1  0  0  0  0
 28 26  2  0  0  0  0
 28 29  1  0  0  0  0
 30  5  1  0  0  0  0
 30 31  1  0  0  0  0
 31 32  1  0  0  0  0
 33 31  2  0  0  0  0
 33 34  1  0  0  0  0
 35 33  1  0  0  0  0
 36 35  1  0  0  0  0
 37 39  1  0  0  0  0
 37 35  2  0  0  0  0
 38 37  1  0  0  0  0
 39 30  2  0  0  0  0
 40 39  1  0  0  0  0
M  END
