1
 OpenBabel05122313113D

 18 18  0  0  0  0  0  0  0  0999 V2000
    4.4014   -0.0085   -0.1064 C   0  0  0  0  0  3  0  0  0  0  0  0
    5.1331   -1.0270   -0.7389 C   0  0  0  0  0  0  0  0  0  0  0  0
    4.4882   -2.0494   -1.3413 F   0  0  0  0  0  0  0  0  0  0  0  0
    6.5338   -1.0492   -0.7652 C   0  0  0  0  0  0  0  0  0  0  0  0
    7.1873   -2.0550   -1.3666 F   0  0  0  0  0  0  0  0  0  0  0  0
    7.2826   -0.0126   -0.1566 C   0  0  0  0  0  0  0  0  0  0  0  0
    6.5621    1.0293    0.4702 C   0  0  0  0  0  0  0  0  0  0  0  0
    7.2151    2.0675    1.0384 F   0  0  0  0  0  0  0  0  0  0  0  0
    5.1580    1.0059    0.4960 C   0  0  0  0  0  0  0  0  0  0  0  0
    4.5427    2.0343    1.1202 F   0  0  0  0  0  0  0  0  0  0  0  0
    8.6302   -0.0937   -0.2609 O   0  0  0  0  0  0  0  0  0  0  0  0
    9.4575    0.3836    0.8149 C   0  0  0  0  0  0  0  0  0  0  0  0
    9.5041    1.4926    0.7963 H   0  0  0  0  0  0  0  0  0  0  0  0
    9.0070    0.0841    1.7877 H   0  0  0  0  0  0  0  0  0  0  0  0
   10.8325   -0.2283    0.6332 C   0  0  0  0  0  0  0  0  0  0  0  0
   10.7820   -1.3341    0.6744 H   0  0  0  0  0  0  0  0  0  0  0  0
   11.5160    0.1255    1.4305 H   0  0  0  0  0  0  0  0  0  0  0  0
   11.2617    0.0614   -0.3465 H   0  0  0  0  0  0  0  0  0  0  0  0
  1  9  1  0  0  0  0
  2  1  2  0  0  0  0
  3  2  1  0  0  0  0
  4  2  1  0  0  0  0
  4  6  2  0  0  0  0
  5  4  1  0  0  0  0
  6  7  1  0  0  0  0
  7  9  2  0  0  0  0
  7  8  1  0  0  0  0
  9 10  1  0  0  0  0
 11  6  1  0  0  0  0
 11 12  1  0  0  0  0
 12 14  1  0  0  0  0
 13 12  1  0  0  0  0
 15 16  1  0  0  0  0
 15 12  1  0  0  0  0
 15 17  1  0  0  0  0
 18 15  1  0  0  0  0
M  END
