1
 OpenBabel05122313113D

 32 34  0  0  0  0  0  0  0  0999 V2000
   -2.2573    0.4041    0.4088 C   0  0  0  0  0  2  0  0  0  0  0  0
   -4.1025    1.5285    1.0907 C   0  0  0  0  0  0  0  0  0  0  0  0
   -4.8740    1.8574    1.7925 H   0  0  0  0  0  0  0  0  0  0  0  0
   -3.9059    1.8250   -0.2313 C   0  0  0  0  0  0  0  0  0  0  0  0
   -4.4758    2.4586   -0.9166 H   0  0  0  0  0  0  0  0  0  0  0  0
   -2.9295    0.0661    2.7829 C   0  0  0  0  0  0  0  0  0  0  0  0
   -3.8568    0.2273    3.3622 H   0  0  0  0  0  0  0  0  0  0  0  0
   -2.0642    0.5294    3.2983 H   0  0  0  0  0  0  0  0  0  0  0  0
   -2.7394   -1.0188    2.6779 H   0  0  0  0  0  0  0  0  0  0  0  0
   -2.3101    1.0566   -2.0168 C   0  0  0  0  0  0  0  0  0  0  0  0
   -3.2026    0.9762   -2.6691 H   0  0  0  0  0  0  0  0  0  0  0  0
   -1.7366    0.1164   -2.1304 H   0  0  0  0  0  0  0  0  0  0  0  0
   -1.4733    2.2534   -2.4787 C   0  0  0  0  0  0  0  0  0  0  0  0
   -1.3910    2.1894   -3.5845 H   0  0  0  0  0  0  0  0  0  0  0  0
   -1.9576    3.2168   -2.2184 H   0  0  0  0  0  0  0  0  0  0  0  0
   -0.1454    2.3036   -1.9089 N   0  0  0  0  0  0  0  0  0  0  0  0
    1.7548    3.0581   -0.8254 C   0  0  0  0  0  0  0  0  0  0  0  0
    2.0684    1.8357   -1.4449 C   0  0  0  0  0  0  0  0  0  0  0  0
    3.3308    1.2571   -1.3159 C   0  0  0  0  0  0  0  0  0  0  0  0
    3.5592    0.2925   -1.7922 H   0  0  0  0  0  0  0  0  0  0  0  0
    4.2849    1.9466   -0.5434 C   0  0  0  0  0  0  0  0  0  0  0  0
    5.2896    1.5178   -0.4104 H   0  0  0  0  0  0  0  0  0  0  0  0
    3.9744    3.1783    0.0650 C   0  0  0  0  0  0  0  0  0  0  0  0
    4.7421    3.6924    0.6629 H   0  0  0  0  0  0  0  0  0  0  0  0
    2.6971    3.7543   -0.0697 C   0  0  0  0  0  0  0  0  0  0  0  0
    2.4348    4.7058    0.4150 H   0  0  0  0  0  0  0  0  0  0  0  0
   -0.3432    4.3461   -0.7915 O   0  0  0  0  0  0  0  0  0  0  0  0
    0.7093    0.3564   -2.8663 O   0  0  0  0  0  0  0  0  0  0  0  0
    0.8563    1.3512   -2.1680 C   0  0  0  0  0  0  0  0  0  0  0  0
    0.3236    3.3790   -1.1130 C   0  0  0  0  0  0  0  0  0  0  0  0
   -2.7774    1.1209   -0.6360 N   0  0  0  0  0  0  0  0  0  0  0  0
   -3.0908    0.6521    1.4599 N   0  0  0  0  0  0  0  0  0  0  0  0
  1 32  1  0  0  0  0
  2 32  1  0  0  0  0
  2  3  1  0  0  0  0
  4  2  2  0  0  0  0
  5  4  1  0  0  0  0
  6  8  1  0  0  0  0
  6  7  1  0  0  0  0
  9  6  1  0  0  0  0
 10 31  1  0  0  0  0
 11 10  1  0  0  0  0
 12 10  1  0  0  0  0
 13 15  1  0  0  0  0
 13 10  1  0  0  0  0
 13 16  1  0  0  0  0
 14 13  1  0  0  0  0
 16 30  1  0  0  0  0
 17 25  1  0  0  0  0
 18 19  1  0  0  0  0
 18 17  2  0  0  0  0
 19 21  2  0  0  0  0
 20 19  1  0  0  0  0
 21 22  1  0  0  0  0
 21 23  1  0  0  0  0
 23 24  1  0  0  0  0
 25 23  2  0  0  0  0
 25 26  1  0  0  0  0
 28 29  2  0  0  0  0
 29 16  1  0  0  0  0
 29 18  1  0  0  0  0
 30 17  1  0  0  0  0
 30 27  2  0  0  0  0
 31  4  1  0  0  0  0
 31  1  1  0  0  0  0
 32  6  1  0  0  0  0
M  END
