1
 OpenBabel05122313113D

 29 29  0  0  0  0  0  0  0  0999 V2000
   -0.8600    0.3380   -0.0107 C   0  0  0  0  0  2  0  0  0  0  0  0
   -1.9925   -0.3952   -0.0344 N   0  0  0  0  0  0  0  0  0  0  0  0
   -1.0308    1.6743    0.0008 N   0  0  0  0  0  0  0  0  0  0  0  0
   -1.9885    2.0387   -0.0030 H   0  0  0  0  0  0  0  0  0  0  0  0
   -3.3573    0.1554   -0.0608 C   0  0  0  0  0  0  0  0  0  0  0  0
   -3.4700    0.8994   -0.8806 H   0  0  0  0  0  0  0  0  0  0  0  0
   -3.5786    0.6774    0.8997 H   0  0  0  0  0  0  0  0  0  0  0  0
   -4.2557   -1.0738   -0.2606 C   0  0  0  0  0  0  0  0  0  0  0  0
   -5.2608   -0.9375    0.1827 H   0  0  0  0  0  0  0  0  0  0  0  0
   -4.3906   -1.2668   -1.3450 H   0  0  0  0  0  0  0  0  0  0  0  0
   -3.4429   -2.2082    0.3793 C   0  0  0  0  0  0  0  0  0  0  0  0
   -3.5383   -2.1740    1.4850 H   0  0  0  0  0  0  0  0  0  0  0  0
   -3.7556   -3.2153    0.0443 H   0  0  0  0  0  0  0  0  0  0  0  0
   -2.0086   -1.8705   -0.0350 C   0  0  0  0  0  0  0  0  0  0  0  0
   -1.2307   -2.2571    0.6508 H   0  0  0  0  0  0  0  0  0  0  0  0
   -1.7733   -2.2517   -1.0534 H   0  0  0  0  0  0  0  0  0  0  0  0
    0.0113    2.7388    0.0280 C   0  0  0  0  0  0  0  0  0  0  0  0
    0.8891    2.6589   -1.2323 C   0  0  0  0  0  0  0  0  0  0  0  0
    1.4362    1.6948   -1.2682 H   0  0  0  0  0  0  0  0  0  0  0  0
    1.6321    3.4807   -1.2309 H   0  0  0  0  0  0  0  0  0  0  0  0
    0.2707    2.7432   -2.1485 H   0  0  0  0  0  0  0  0  0  0  0  0
   -0.7616    4.0676    0.0403 C   0  0  0  0  0  0  0  0  0  0  0  0
   -1.4096    4.1469    0.9382 H   0  0  0  0  0  0  0  0  0  0  0  0
   -1.3928    4.1733   -0.8668 H   0  0  0  0  0  0  0  0  0  0  0  0
   -0.0549    4.9187    0.0593 H   0  0  0  0  0  0  0  0  0  0  0  0
    0.8637    2.6207    1.3026 C   0  0  0  0  0  0  0  0  0  0  0  0
    1.4109    1.6562    1.3202 H   0  0  0  0  0  0  0  0  0  0  0  0
    0.2272    2.6774    2.2084 H   0  0  0  0  0  0  0  0  0  0  0  0
    1.6061    3.4422    1.3407 H   0  0  0  0  0  0  0  0  0  0  0  0
  1  3  1  0  0  0  0
  2  1  1  0  0  0  0
  3 17  1  0  0  0  0
  4  3  1  0  0  0  0
  5  2  1  0  0  0  0
  5  7  1  0  0  0  0
  6  5  1  0  0  0  0
  8  5  1  0  0  0  0
  8  9  1  0  0  0  0
  8 11  1  0  0  0  0
 10  8  1  0  0  0  0
 11 12  1  0  0  0  0
 13 11  1  0  0  0  0
 14  2  1  0  0  0  0
 14 11  1  0  0  0  0
 14 15  1  0  0  0  0
 16 14  1  0  0  0  0
 17 22  1  0  0  0  0
 17 26  1  0  0  0  0
 18 20  1  0  0  0  0
 18 17  1  0  0  0  0
 19 18  1  0  0  0  0
 21 18  1  0  0  0  0
 22 25  1  0  0  0  0
 22 23  1  0  0  0  0
 24 22  1  0  0  0  0
 26 27  1  0  0  0  0
 26 29  1  0  0  0  0
 26 28  1  0  0  0  0
M  END
