1
 OpenBabel05122313113D

 37 36  0  0  1  0  0  0  0  0999 V2000
    0.0991    1.0079    0.2927 C   0  0  0  0  0  2  0  0  0  0  0  0
    0.9551    2.0377    0.1643 N   0  0  0  0  0  0  0  0  0  0  0  0
    0.5803    2.9886    0.2726 H   0  0  0  0  0  0  0  0  0  0  0  0
   -1.1736    1.3508    0.5725 N   0  0  0  0  0  0  0  0  0  0  0  0
   -1.4060    2.3474    0.6761 H   0  0  0  0  0  0  0  0  0  0  0  0
   -2.3082    0.4346    0.7194 C   0  0  1  0  0  0  0  0  0  0  0  0
   -1.8541   -0.5800    0.7121 H   0  0  0  0  0  0  0  0  0  0  0  0
   -2.9594    0.6684    2.0853 C   0  0  0  0  0  0  0  0  0  0  0  0
   -2.2102    0.5192    2.8871 H   0  0  0  0  0  0  0  0  0  0  0  0
   -3.7906   -0.0394    2.2618 H   0  0  0  0  0  0  0  0  0  0  0  0
   -3.3661    1.6968    2.1829 H   0  0  0  0  0  0  0  0  0  0  0  0
   -3.2729    0.5067   -0.5133 C   0  0  0  0  0  0  0  0  0  0  0  0
   -3.9393    1.8902   -0.6256 C   0  0  0  0  0  0  0  0  0  0  0  0
   -4.5665    2.1271    0.2575 H   0  0  0  0  0  0  0  0  0  0  0  0
   -4.5966    1.9288   -1.5178 H   0  0  0  0  0  0  0  0  0  0  0  0
   -3.1894    2.7007   -0.7468 H   0  0  0  0  0  0  0  0  0  0  0  0
   -2.4695    0.2207   -1.7960 C   0  0  0  0  0  0  0  0  0  0  0  0
   -1.6999    0.9956   -1.9830 H   0  0  0  0  0  0  0  0  0  0  0  0
   -3.1456    0.1964   -2.6746 H   0  0  0  0  0  0  0  0  0  0  0  0
   -1.9441   -0.7544   -1.7356 H   0  0  0  0  0  0  0  0  0  0  0  0
   -4.3564   -0.5774   -0.3613 C   0  0  0  0  0  0  0  0  0  0  0  0
   -3.9016   -1.5801   -0.2242 H   0  0  0  0  0  0  0  0  0  0  0  0
   -4.9872   -0.6173   -1.2722 H   0  0  0  0  0  0  0  0  0  0  0  0
   -5.0295   -0.3834    0.4973 H   0  0  0  0  0  0  0  0  0  0  0  0
    2.4138    2.0003   -0.1378 C   0  0  0  0  0  0  0  0  0  0  0  0
    2.8698    3.4682   -0.1499 C   0  0  0  0  0  0  0  0  0  0  0  0
    2.3335    4.0494   -0.9291 H   0  0  0  0  0  0  0  0  0  0  0  0
    3.9520    3.5272   -0.3726 H   0  0  0  0  0  0  0  0  0  0  0  0
    2.7013    3.9497    0.8360 H   0  0  0  0  0  0  0  0  0  0  0  0
    2.6530    1.3688   -1.5198 C   0  0  0  0  0  0  0  0  0  0  0  0
    2.3049    0.3158   -1.5349 H   0  0  0  0  0  0  0  0  0  0  0  0
    3.7339    1.3809   -1.7625 H   0  0  0  0  0  0  0  0  0  0  0  0
    2.1079    1.9271   -2.3073 H   0  0  0  0  0  0  0  0  0  0  0  0
    3.1669    1.2302    0.9597 C   0  0  0  0  0  0  0  0  0  0  0  0
    2.9905    1.6879    1.9537 H   0  0  0  0  0  0  0  0  0  0  0  0
    4.2553    1.2424    0.7534 H   0  0  0  0  0  0  0  0  0  0  0  0
    2.8323    0.1734    0.9978 H   0  0  0  0  0  0  0  0  0  0  0  0
  1  4  1  0  0  0  0
  2  3  1  0  0  0  0
  2  1  1  0  0  0  0
  4  5  1  0  0  0  0
  4  6  1  0  0  0  0
  6  7  1  1  0  0  0
  6  8  1  0  0  0  0
  8 11  1  0  0  0  0
  8 10  1  0  0  0  0
  8  9  1  0  0  0  0
 12 21  1  0  0  0  0
 12  6  1  0  0  0  0
 13 12  1  0  0  0  0
 13 14  1  0  0  0  0
 15 13  1  0  0  0  0
 16 13  1  0  0  0  0
 17 20  1  0  0  0  0
 17 12  1  0  0  0  0
 18 17  1  0  0  0  0
 19 17  1  0  0  0  0
 21 22  1  0  0  0  0
 21 24  1  0  0  0  0
 23 21  1  0  0  0  0
 25  2  1  0  0  0  0
 25 34  1  0  0  0  0
 26 25  1  0  0  0  0
 26 29  1  0  0  0  0
 27 26  1  0  0  0  0
 28 26  1  0  0  0  0
 30 25  1  0  0  0  0
 31 30  1  0  0  0  0
 32 30  1  0  0  0  0
 33 30  1  0  0  0  0
 34 37  1  0  0  0  0
 34 35  1  0  0  0  0
 36 34  1  0  0  0  0
M  END
