2
 OpenBabel05122313113D

 16 16  0  0  0  0  0  0  0  0999 V2000
   -7.1690    0.2695    0.5121 Cl  0  0  0  0  0  0  0  0  0  0  0  0
   -0.7462    0.2536   -2.2504 C   0  0  0  0  0  3  0  0  0  0  0  0
   -1.4059    0.8484   -1.1471 C   0  0  0  0  0  3  0  0  0  0  0  0
   -2.8262    0.7035   -0.7907 C   0  0  0  0  0  0  0  0  0  0  0  0
   -3.2963    1.3217    0.3924 C   0  0  0  0  0  0  0  0  0  0  0  0
   -4.6259    1.1936    0.8025 C   0  0  0  0  0  0  0  0  0  0  0  0
   -5.5183    0.4414    0.0160 C   0  0  0  0  0  0  0  0  0  0  0  0
   -5.0826   -0.1629   -1.1805 C   0  0  0  0  0  0  0  0  0  0  0  0
   -3.7498   -0.0277   -1.5750 C   0  0  0  0  0  0  0  0  0  0  0  0
    0.1659    0.7215   -2.6471 H   0  0  0  0  0  0  0  0  0  0  0  0
   -1.2963   -0.3767   -2.9668 H   0  0  0  0  0  0  0  0  0  0  0  0
   -0.8984    1.6950   -0.6563 H   0  0  0  0  0  0  0  0  0  0  0  0
   -2.5965    1.9130    1.0043 H   0  0  0  0  0  0  0  0  0  0  0  0
   -4.9853    1.6748    1.7226 H   0  0  0  0  0  0  0  0  0  0  0  0
   -5.7996   -0.7247   -1.7953 H   0  0  0  0  0  0  0  0  0  0  0  0
   -3.4275   -0.4924   -2.5186 H   0  0  0  0  0  0  0  0  0  0  0  0
  2  3  1  0  0  0  0
  3  4  1  0  0  0  0
  3 12  1  0  0  0  0
  4  5  1  0  0  0  0
  5  6  2  0  0  0  0
  5 13  1  0  0  0  0
  6 14  1  0  0  0  0
  7  1  1  0  0  0  0
  7  6  1  0  0  0  0
  8  7  2  0  0  0  0
  9  8  1  0  0  0  0
  9  4  2  0  0  0  0
 10  2  1  0  0  0  0
 11  2  1  0  0  0  0
 15  8  1  0  0  0  0
 16  9  1  0  0  0  0
M  END
