2
 OpenBabel05122313113D

 20 20  0  0  0  0  0  0  0  0999 V2000
   -6.8604    0.0826    0.0763 O   0  0  0  0  0  0  0  0  0  0  0  0
   -0.6925    0.0358   -2.2953 C   0  0  0  0  0  3  0  0  0  0  0  0
   -1.4071    0.6984   -1.2655 C   0  0  0  0  0  3  0  0  0  0  0  0
   -2.8271    0.5447   -0.9418 C   0  0  0  0  0  0  0  0  0  0  0  0
   -3.3656    1.2742    0.1430 C   0  0  0  0  0  0  0  0  0  0  0  0
   -4.7054    1.1522    0.5240 C   0  0  0  0  0  0  0  0  0  0  0  0
   -5.5568    0.2819   -0.1955 C   0  0  0  0  0  0  0  0  0  0  0  0
   -5.0367   -0.4434   -1.2992 C   0  0  0  0  0  0  0  0  0  0  0  0
   -3.7026   -0.3099   -1.6627 C   0  0  0  0  0  0  0  0  0  0  0  0
   -7.4611    0.7915    1.1539 C   0  0  0  0  0  0  0  0  0  0  0  0
    0.2149    0.5039   -2.7025 H   0  0  0  0  0  0  0  0  0  0  0  0
   -1.2053   -0.6573   -2.9808 H   0  0  0  0  0  0  0  0  0  0  0  0
   -0.9312    1.5877   -0.8204 H   0  0  0  0  0  0  0  0  0  0  0  0
   -2.7086    1.9575    0.7049 H   0  0  0  0  0  0  0  0  0  0  0  0
   -5.0842    1.7399    1.3702 H   0  0  0  0  0  0  0  0  0  0  0  0
   -5.7231   -1.0951   -1.8584 H   0  0  0  0  0  0  0  0  0  0  0  0
   -3.3307   -0.8725   -2.5319 H   0  0  0  0  0  0  0  0  0  0  0  0
   -7.4143    1.8903    0.9937 H   0  0  0  0  0  0  0  0  0  0  0  0
   -8.5184    0.4733    1.1809 H   0  0  0  0  0  0  0  0  0  0  0  0
   -6.9797    0.5415    2.1242 H   0  0  0  0  0  0  0  0  0  0  0  0
  1 10  1  0  0  0  0
  2  3  1  0  0  0  0
  3  4  1  0  0  0  0
  3 13  1  0  0  0  0
  4  5  1  0  0  0  0
  5  6  2  0  0  0  0
  5 14  1  0  0  0  0
  6 15  1  0  0  0  0
  7  1  1  0  0  0  0
  7  6  1  0  0  0  0
  8  7  2  0  0  0  0
  9  8  1  0  0  0  0
  9  4  2  0  0  0  0
 10 19  1  0  0  0  0
 10 20  1  0  0  0  0
 11  2  1  0  0  0  0
 12  2  1  0  0  0  0
 16  8  1  0  0  0  0
 17  9  1  0  0  0  0
 18 10  1  0  0  0  0
M  END
