2
 OpenBabel05122313113D

 52 53  0  0  0  0  0  0  0  0999 V2000
   -2.3249   -0.4630    0.0601 N   0  0  0  0  0  0  0  0  0  0  0  0
   -1.2652   -1.2821    0.1004 C   0  0  0  0  0  2  0  0  0  0  0  0
   -1.7826   -2.7208    0.1465 C   0  0  0  0  0  0  0  0  0  0  0  0
   -3.2957   -2.5705    0.4563 C   0  0  0  0  0  0  0  0  0  0  0  0
   -3.9187   -3.3139   -0.0791 H   0  0  0  0  0  0  0  0  0  0  0  0
   -3.4644   -2.7236    1.5416 H   0  0  0  0  0  0  0  0  0  0  0  0
   -1.5137   -3.3575   -1.2340 C   0  0  0  0  0  0  0  0  0  0  0  0
   -1.8613   -4.4115   -1.2428 H   0  0  0  0  0  0  0  0  0  0  0  0
   -0.4277   -3.3309   -1.4530 H   0  0  0  0  0  0  0  0  0  0  0  0
   -2.0317   -2.8152   -2.0499 H   0  0  0  0  0  0  0  0  0  0  0  0
   -3.6902   -1.1229    0.0816 C   0  0  0  0  0  0  0  0  0  0  0  0
   -1.0455   -3.5238    1.2290 C   0  0  0  0  0  0  0  0  0  0  0  0
   -1.1788   -3.0624    2.2283 H   0  0  0  0  0  0  0  0  0  0  0  0
    0.0414   -3.5398    1.0129 H   0  0  0  0  0  0  0  0  0  0  0  0
   -1.4287   -4.5653    1.2687 H   0  0  0  0  0  0  0  0  0  0  0  0
   -4.3683   -1.0272   -1.2946 C   0  0  0  0  0  0  0  0  0  0  0  0
   -5.3593   -1.5207   -1.2485 H   0  0  0  0  0  0  0  0  0  0  0  0
   -3.7775   -1.5231   -2.0869 H   0  0  0  0  0  0  0  0  0  0  0  0
   -4.5291    0.0292   -1.5853 H   0  0  0  0  0  0  0  0  0  0  0  0
   -4.6122   -0.4798    1.1242 C   0  0  0  0  0  0  0  0  0  0  0  0
   -4.7861    0.5925    0.9056 H   0  0  0  0  0  0  0  0  0  0  0  0
   -4.2005   -0.5673    2.1466 H   0  0  0  0  0  0  0  0  0  0  0  0
   -5.5931   -0.9951    1.1081 H   0  0  0  0  0  0  0  0  0  0  0  0
   -2.1791    0.9725   -0.0274 C   0  0  0  0  0  0  0  0  0  0  0  0
   -2.1257    1.7307    1.1737 C   0  0  0  0  0  0  0  0  0  0  0  0
   -2.0789    3.1334    1.0701 C   0  0  0  0  0  0  0  0  0  0  0  0
   -2.0348    3.7373    1.9889 H   0  0  0  0  0  0  0  0  0  0  0  0
   -2.0644    3.7702   -0.1759 C   0  0  0  0  0  0  0  0  0  0  0  0
   -2.0360    4.8689   -0.2349 H   0  0  0  0  0  0  0  0  0  0  0  0
   -2.0456    3.0029   -1.3454 C   0  0  0  0  0  0  0  0  0  0  0  0
   -1.9749    3.5047   -2.3222 H   0  0  0  0  0  0  0  0  0  0  0  0
   -2.0895    1.5961   -1.3010 C   0  0  0  0  0  0  0  0  0  0  0  0
   -1.9749    1.0790    2.5437 C   0  0  0  0  0  0  0  0  0  0  0  0
   -2.2049    0.0015    2.4299 H   0  0  0  0  0  0  0  0  0  0  0  0
   -2.9233    1.6594    3.6024 C   0  0  0  0  0  0  0  0  0  0  0  0
   -3.9830    1.6130    3.2797 H   0  0  0  0  0  0  0  0  0  0  0  0
   -2.6882    2.7201    3.8273 H   0  0  0  0  0  0  0  0  0  0  0  0
   -2.8278    1.0983    4.5544 H   0  0  0  0  0  0  0  0  0  0  0  0
   -0.5027    1.1644    2.9864 C   0  0  0  0  0  0  0  0  0  0  0  0
    0.1442    0.6792    2.2170 H   0  0  0  0  0  0  0  0  0  0  0  0
   -0.3522    0.6447    3.9554 H   0  0  0  0  0  0  0  0  0  0  0  0
   -0.1807    2.2202    3.1048 H   0  0  0  0  0  0  0  0  0  0  0  0
   -1.8959    0.8093   -2.5926 C   0  0  0  0  0  0  0  0  0  0  0  0
   -2.0931   -0.2559   -2.3704 H   0  0  0  0  0  0  0  0  0  0  0  0
   -2.8432    1.2458   -3.7195 C   0  0  0  0  0  0  0  0  0  0  0  0
   -3.9075    1.1954   -3.4126 H   0  0  0  0  0  0  0  0  0  0  0  0
   -2.7118    0.5943   -4.6074 H   0  0  0  0  0  0  0  0  0  0  0  0
   -2.6397    2.2860   -4.0473 H   0  0  0  0  0  0  0  0  0  0  0  0
   -0.4207    0.8935   -3.0258 C   0  0  0  0  0  0  0  0  0  0  0  0
   -0.2460    0.2916   -3.9416 H   0  0  0  0  0  0  0  0  0  0  0  0
    0.2236    0.4901   -2.2087 H   0  0  0  0  0  0  0  0  0  0  0  0
   -0.1220    1.9416   -3.2378 H   0  0  0  0  0  0  0  0  0  0  0  0
  1 11  1  0  0  0  0
  1  2  1  0  0  0  0
  2  3  1  0  0  0  0
  3  4  1  0  0  0  0
  3 12  1  0  0  0  0
  4  6  1  0  0  0  0
  5  4  1  0  0  0  0
  7  3  1  0  0  0  0
  8  7  1  0  0  0  0
  9  7  1  0  0  0  0
 10  7  1  0  0  0  0
 11  4  1  0  0  0  0
 11 20  1  0  0  0  0
 12 15  1  0  0  0  0
 12 13  1  0  0  0  0
 14 12  1  0  0  0  0
 16 17  1  0  0  0  0
 16 11  1  0  0  0  0
 18 16  1  0  0  0  0
 19 16  1  0  0  0  0
 20 22  1  0  0  0  0
 21 20  1  0  0  0  0
 23 20  1  0  0  0  0
 24  1  1  0  0  0  0
 24 25  1  0  0  0  0
 25 33  1  0  0  0  0
 26 25  2  0  0  0  0
 26 27  1  0  0  0  0
 28 26  1  0  0  0  0
 29 28  1  0  0  0  0
 30 32  1  0  0  0  0
 30 28  2  0  0  0  0
 31 30  1  0  0  0  0
 32 24  2  0  0  0  0
 33 39  1  0  0  0  0
 33 35  1  0  0  0  0
 34 33  1  0  0  0  0
 35 37  1  0  0  0  0
 35 38  1  0  0  0  0
 36 35  1  0  0  0  0
 39 42  1  0  0  0  0
 39 41  1  0  0  0  0
 40 39  1  0  0  0  0
 43 44  1  0  0  0  0
 43 32  1  0  0  0  0
 45 46  1  0  0  0  0
 45 43  1  0  0  0  0
 47 45  1  0  0  0  0
 48 45  1  0  0  0  0
 49 43  1  0  0  0  0
 49 51  1  0  0  0  0
 50 49  1  0  0  0  0
 52 49  1  0  0  0  0
M  END
