19
 OpenBabel05122313113D

 35 36  0  0  0  0  0  0  0  0999 V2000
    3.4662    5.8367    0.4895 O   0  0  0  0  0  0  0  0  0  0  0  0
   -7.3576    2.0807   -0.0818 O   0  0  0  0  0  0  0  0  0  0  0  0
    4.1012    6.4565   -0.6204 C   0  0  0  0  0  0  0  0  0  0  0  0
    4.8394    5.7776   -1.1011 H   0  0  0  0  0  0  0  0  0  0  0  0
    4.6300    7.3403   -0.2206 H   0  0  0  0  0  0  0  0  0  0  0  0
    3.3619    6.7885   -1.3816 H   0  0  0  0  0  0  0  0  0  0  0  0
    2.7356    4.7206    0.2858 C   0  0  0  0  0  0  0  0  0  0  0  0
    2.1170    4.1640    1.4311 C   0  0  0  0  0  0  0  0  0  0  0  0
    2.2579    4.6719    2.3959 H   0  0  0  0  0  0  0  0  0  0  0  0
    1.3460    3.0103    1.3262 C   0  0  0  0  0  0  0  0  0  0  0  0
    0.8678    2.5963    2.2254 H   0  0  0  0  0  0  0  0  0  0  0  0
    1.1585    2.3561    0.0766 C   0  0  0  0  0  0  0  0  0  0  0  0
    1.7755    2.9326   -1.0589 C   0  0  0  0  0  0  0  0  0  0  0  0
    1.6432    2.4611   -2.0435 H   0  0  0  0  0  0  0  0  0  0  0  0
    2.5514    4.0942   -0.9676 C   0  0  0  0  0  0  0  0  0  0  0  0
    3.0041    4.5095   -1.8774 H   0  0  0  0  0  0  0  0  0  0  0  0
    0.3886    1.1442    0.0012 C   0  0  0  0  0  3  0  0  0  0  0  0
   -0.7048    0.4872    0.0633 C   0  0  0  0  0  3  0  0  0  0  0  0
   -1.3658   -0.7245    0.0511 C   0  0  0  0  0  3  0  0  0  0  0  0
   -2.6754   -1.0943   -0.0075 C   0  0  0  0  0  0  0  0  0  0  0  0
   -2.9173   -2.1667   -0.0558 H   0  0  0  0  0  0  0  0  0  0  0  0
   -3.8427   -0.2144   -0.0193 C   0  0  0  0  0  0  0  0  0  0  0  0
   -3.7646    1.1969    0.0483 C   0  0  0  0  0  0  0  0  0  0  0  0
   -2.7786    1.6816    0.1190 H   0  0  0  0  0  0  0  0  0  0  0  0
   -4.9102    1.9979    0.0296 C   0  0  0  0  0  0  0  0  0  0  0  0
   -4.8032    3.0893    0.0847 H   0  0  0  0  0  0  0  0  0  0  0  0
   -6.1892    1.3994   -0.0574 C   0  0  0  0  0  0  0  0  0  0  0  0
   -6.2880   -0.0098   -0.1241 C   0  0  0  0  0  0  0  0  0  0  0  0
   -7.2891   -0.4589   -0.1903 H   0  0  0  0  0  0  0  0  0  0  0  0
   -5.1380   -0.7928   -0.1042 C   0  0  0  0  0  0  0  0  0  0  0  0
   -5.2320   -1.8892   -0.1564 H   0  0  0  0  0  0  0  0  0  0  0  0
   -7.3273    3.4977   -0.0152 C   0  0  0  0  0  0  0  0  0  0  0  0
   -6.8634    3.8550    0.9306 H   0  0  0  0  0  0  0  0  0  0  0  0
   -8.3797    3.8329   -0.0495 H   0  0  0  0  0  0  0  0  0  0  0  0
   -6.7779    3.9383   -0.8762 H   0  0  0  0  0  0  0  0  0  0  0  0
  2 27  1  0  0  0  0
  2 32  1  0  0  0  0
  3  5  1  0  0  0  0
  3  1  1  0  0  0  0
  4  3  1  0  0  0  0
  6  3  1  0  0  0  0
  7  1  1  0  0  0  0
  7  8  1  0  0  0  0
  8  9  1  0  0  0  0
 10  8  2  0  0  0  0
 10 11  1  0  0  0  0
 12 10  1  0  0  0  0
 13 15  1  0  0  0  0
 13 12  2  0  0  0  0
 14 13  1  0  0  0  0
 15  7  2  0  0  0  0
 16 15  1  0  0  0  0
 17 18  2  0  0  0  0
 17 12  1  0  0  0  0
 19 18  1  0  0  0  0
 20 19  2  0  0  0  0
 21 20  1  0  0  0  0
 22 20  1  0  0  0  0
 22 23  1  0  0  0  0
 23 24  1  0  0  0  0
 25 23  2  0  0  0  0
 25 26  1  0  0  0  0
 27 25  1  0  0  0  0
 28 30  1  0  0  0  0
 28 27  2  0  0  0  0
 29 28  1  0  0  0  0
 30 22  2  0  0  0  0
 31 30  1  0  0  0  0
 32 33  1  0  0  0  0
 34 32  1  0  0  0  0
 35 32  1  0  0  0  0
M  END
