3
 OpenBabel05122313113D

 16 15  0  0  0  0  0  0  0  0999 V2000
    0.8279   -4.0506    0.0736 O   0  0  0  0  0  0  0  0  0  0  0  0
   -0.2616   -1.3919   -2.2542 C   0  0  0  0  0  3  0  0  0  0  0  0
   -0.3123   -2.6608   -1.6135 C   0  0  0  0  0  3  0  0  0  0  0  0
    0.8549   -3.0178   -0.8542 C   0  0  0  0  0  3  0  0  0  0  0  0
   -0.3725   -4.0172    0.8521 C   0  0  0  0  0  0  0  0  0  0  0  0
   -0.7246   -2.5909    1.2368 C   0  0  0  0  0  3  0  0  0  0  0  0
    0.2598   -1.7255    1.7905 C   0  0  0  0  0  3  0  0  0  0  0  0
   -1.1798   -1.0372   -2.7516 H   0  0  0  0  0  0  0  0  0  0  0  0
    0.6692   -1.0405   -2.7305 H   0  0  0  0  0  0  0  0  0  0  0  0
   -1.2410   -3.2530   -1.5839 H   0  0  0  0  0  0  0  0  0  0  0  0
    1.8641   -2.9326   -1.2929 H   0  0  0  0  0  0  0  0  0  0  0  0
   -1.2144   -4.4899    0.2919 H   0  0  0  0  0  0  0  0  0  0  0  0
   -0.1726   -4.6590    1.7380 H   0  0  0  0  0  0  0  0  0  0  0  0
   -1.7767   -2.4488    1.5442 H   0  0  0  0  0  0  0  0  0  0  0  0
   -0.0613   -0.9204    2.4696 H   0  0  0  0  0  0  0  0  0  0  0  0
    1.2553   -2.1332    2.0283 H   0  0  0  0  0  0  0  0  0  0  0  0
  1  5  1  0  0  0  0
  2  3  1  0  0  0  0
  3 10  1  0  0  0  0
  3  4  1  0  0  0  0
  4  1  1  0  0  0  0
  5  6  1  0  0  0  0
  5 13  1  0  0  0  0
  6 14  1  0  0  0  0
  6  7  1  0  0  0  0
  7 16  1  0  0  0  0
  7 15  1  0  0  0  0
  8  2  1  0  0  0  0
  9  2  1  0  0  0  0
 11  4  1  0  0  0  0
 12  5  1  0  0  0  0
M  END
