2
 OpenBabel05122313113D

  6  5  0  0  0  0  0  0  0  0999 V2000
   -3.0168    0.0001    0.0001 N   0  0  0  0  0  2  0  0  0  0  0  0
   -1.8308    0.0001    0.0000 C   0  0  0  0  0  1  0  0  0  0  0  0
   -4.4228    0.0001    0.0001 C   0  0  0  0  0  0  0  0  0  0  0  0
   -4.8148   -0.6224    0.8317 H   0  0  0  0  0  0  0  0  0  0  0  0
   -4.8148    1.0315    0.1233 H   0  0  0  0  0  0  0  0  0  0  0  0
   -4.8148   -0.4089   -0.9548 H   0  0  0  0  0  0  0  0  0  0  0  0
  2  1  1  0  0  0  0
  3  1  1  0  0  0  0
  3  5  1  0  0  0  0
  3  4  1  0  0  0  0
  6  3  1  0  0  0  0
M  END
