12
 OpenBabel05122313113D

 52 54  0  0  1  0  0  0  0  0999 V2000
   -4.3663   -0.7769   -1.4688 O   0  0  0  0  0  0  0  0  0  0  0  0
   -4.9534   -0.7251    0.7093 O   0  0  0  0  0  0  0  0  0  0  0  0
    3.7242   -1.9382    0.9587 O   0  0  0  0  0  0  0  0  0  0  0  0
   -1.1058   -0.0391    1.8516 C   0  0  0  0  0  0  0  0  0  0  0  0
   -2.5258    0.2132    2.3595 C   0  0  0  0  0  0  0  0  0  0  0  0
   -3.2577    1.2274    1.4820 C   0  0  0  0  0  0  0  0  0  0  0  0
   -3.2822    0.8658   -0.0203 C   0  0  2  0  0  0  0  0  0  0  0  0
   -1.8156    0.5764   -0.4943 C   0  0  2  0  0  0  0  0  0  0  0  0
   -1.6560    0.2828   -1.9919 C   0  0  0  0  0  0  0  0  0  0  0  0
   -0.1963    0.4049   -2.4336 C   0  0  0  0  0  0  0  0  0  0  0  0
    0.7800   -0.2410   -1.4690 C   0  0  2  0  0  3  0  0  0  0  0  0
    0.3909   -0.5812   -0.1271 C   0  0  1  0  0  3  0  0  0  0  0  0
   -1.0573   -0.4851    0.3699 C   0  0  1  0  0  0  0  0  0  0  0  0
    1.4240   -1.1562    0.7110 C   0  0  0  0  0  3  0  0  0  0  0  0
    2.6976   -1.4764    0.2060 C   0  0  2  0  0  3  0  0  0  0  0  0
    2.9080   -1.6383   -1.2808 C   0  0  2  0  0  0  0  0  0  0  0  0
    2.1404   -0.4538   -1.8377 C   0  0  0  0  0  3  0  0  0  0  0  0
   -3.8531    2.0783   -0.7951 C   0  0  0  0  0  0  0  0  0  0  0  0
   -4.2239   -0.2995   -0.3570 C   0  0  0  0  0  0  0  0  0  0  0  0
   -1.6497   -1.9105    0.2418 C   0  0  0  0  0  0  0  0  0  0  0  0
    3.6445   -1.8094    2.3709 C   0  0  0  0  0  0  0  0  0  0  0  0
   -5.8795   -1.7828    0.4308 C   0  0  0  0  0  0  0  0  0  0  0  0
    2.4934   -3.0148   -1.8243 C   0  0  0  0  0  0  0  0  0  0  0  0
   -0.6155   -0.7971    2.4975 H   0  0  0  0  0  0  0  0  0  0  0  0
   -0.5114    0.8927    1.9496 H   0  0  0  0  0  0  0  0  0  0  0  0
   -2.4800    0.5883    3.4031 H   0  0  0  0  0  0  0  0  0  0  0  0
   -3.1047   -0.7318    2.3986 H   0  0  0  0  0  0  0  0  0  0  0  0
   -2.7428    2.2099    1.5651 H   0  0  0  0  0  0  0  0  0  0  0  0
   -4.2943    1.3802    1.8417 H   0  0  0  0  0  0  0  0  0  0  0  0
   -1.2865    1.5369   -0.2941 H   0  0  0  0  0  0  0  0  0  0  0  0
   -2.2707    0.9798   -2.5915 H   0  0  0  0  0  0  0  0  0  0  0  0
   -2.0526   -0.7246   -2.2217 H   0  0  0  0  0  0  0  0  0  0  0  0
    0.0695    1.4726   -2.5747 H   0  0  0  0  0  0  0  0  0  0  0  0
   -0.0620   -0.0717   -3.4262 H   0  0  0  0  0  0  0  0  0  0  0  0
    1.2137   -1.2854    1.7802 H   0  0  0  0  0  0  0  0  0  0  0  0
    3.9905   -1.4834   -1.4670 H   0  0  0  0  0  0  0  0  0  0  0  0
    2.4641   -0.0368   -2.8050 H   0  0  0  0  0  0  0  0  0  0  0  0
   -4.8250    2.3872   -0.3600 H   0  0  0  0  0  0  0  0  0  0  0  0
   -3.1552    2.9369   -0.7205 H   0  0  0  0  0  0  0  0  0  0  0  0
   -4.0189    1.8443   -1.8629 H   0  0  0  0  0  0  0  0  0  0  0  0
   -1.7002   -2.2456   -0.8113 H   0  0  0  0  0  0  0  0  0  0  0  0
   -1.0109   -2.6305    0.7920 H   0  0  0  0  0  0  0  0  0  0  0  0
   -2.6668   -1.9791    0.6721 H   0  0  0  0  0  0  0  0  0  0  0  0
    4.6270   -2.1210    2.7695 H   0  0  0  0  0  0  0  0  0  0  0  0
    3.4423   -0.7562    2.6641 H   0  0  0  0  0  0  0  0  0  0  0  0
    2.8559   -2.4647    2.8022 H   0  0  0  0  0  0  0  0  0  0  0  0
   -6.4066   -1.9862    1.3798 H   0  0  0  0  0  0  0  0  0  0  0  0
   -6.5966   -1.4816   -0.3587 H   0  0  0  0  0  0  0  0  0  0  0  0
   -5.3445   -2.6895    0.0820 H   0  0  0  0  0  0  0  0  0  0  0  0
    3.0842   -3.8238   -1.3491 H   0  0  0  0  0  0  0  0  0  0  0  0
    1.4182   -3.2042   -1.6301 H   0  0  0  0  0  0  0  0  0  0  0  0
    2.6585   -3.0667   -2.9199 H   0  0  0  0  0  0  0  0  0  0  0  0
  1 19  2  0  0  0  0
  3 21  1  0  0  0  0
  4 25  1  0  0  0  0
  4  5  1  0  0  0  0
  4 24  1  0  0  0  0
  5 27  1  0  0  0  0
  5 26  1  0  0  0  0
  6 28  1  0  0  0  0
  6 29  1  0  0  0  0
  6  5  1  0  0  0  0
  7 19  1  6  0  0  0
  7  6  1  0  0  0  0
  8 30  1  1  0  0  0
  8  7  1  0  0  0  0
  8 13  1  0  0  0  0
  9  8  1  0  0  0  0
 10  9  1  0  0  0  0
 10 11  1  0  0  0  0
 11 17  1  1  0  0  0
 11 12  1  0  0  0  0
 12 13  1  0  0  0  0
 12 14  1  6  0  0  0
 13 20  1  6  0  0  0
 13  4  1  0  0  0  0
 14 35  1  0  0  0  0
 15 14  1  0  0  0  0
 15  3  1  1  0  0  0
 16 36  1  6  0  0  0
 16 15  1  0  0  0  0
 17 16  1  0  0  0  0
 18 39  1  0  0  0  0
 18 38  1  0  0  0  0
 18  7  1  0  0  0  0
 19  2  1  0  0  0  0
 20 43  1  0  0  0  0
 20 42  1  0  0  0  0
 21 45  1  0  0  0  0
 21 44  1  0  0  0  0
 21 46  1  0  0  0  0
 22  2  1  0  0  0  0
 22 47  1  0  0  0  0
 23 51  1  0  0  0  0
 23 50  1  0  0  0  0
 23 16  1  0  0  0  0
 31  9  1  0  0  0  0
 32  9  1  0  0  0  0
 33 10  1  0  0  0  0
 34 10  1  0  0  0  0
 37 17  1  0  0  0  0
 40 18  1  0  0  0  0
 41 20  1  0  0  0  0
 48 22  1  0  0  0  0
 49 22  1  0  0  0  0
 52 23  1  0  0  0  0
M  END
