2
 OpenBabel05122313113D

 12 11  0  0  0  0  0  0  0  0999 V2000
    0.0020    2.6140    0.1913 P   0  0  0  0  0  0  0  0  0  0  0  0
    0.0012    1.8828   -1.4594 C   0  0  0  0  0  3  0  0  0  0  0  0
   -1.3901    3.8410    0.3918 C   0  0  0  0  0  0  0  0  0  0  0  0
    1.3962    3.8388    0.3908 C   0  0  0  0  0  0  0  0  0  0  0  0
   -0.9052    2.0911   -2.0633 H   0  0  0  0  0  0  0  0  0  0  0  0
    0.9073    2.0904   -2.0640 H   0  0  0  0  0  0  0  0  0  0  0  0
   -1.4029    4.2107    1.4380 H   0  0  0  0  0  0  0  0  0  0  0  0
   -2.3642    3.3607    0.1906 H   0  0  0  0  0  0  0  0  0  0  0  0
   -1.2652    4.7060   -0.2919 H   0  0  0  0  0  0  0  0  0  0  0  0
    1.2722    4.7038   -0.2929 H   0  0  0  0  0  0  0  0  0  0  0  0
    1.4104    4.2085    1.4369 H   0  0  0  0  0  0  0  0  0  0  0  0
    2.3694    3.3568    0.1889 H   0  0  0  0  0  0  0  0  0  0  0  0
  1  4  1  0  0  0  0
  1  3  1  0  0  0  0
  2  1  1  0  0  0  0
  3  7  1  0  0  0  0
  4 11  1  0  0  0  0
  5  2  1  0  0  0  0
  6  2  1  0  0  0  0
  8  3  1  0  0  0  0
  9  3  1  0  0  0  0
 10  4  1  0  0  0  0
 12  4  1  0  0  0  0
M  END
