7
 OpenBabel05122313113D

 19 21  0  0  1  0  0  0  0  0999 V2000
    0.9141   -1.1082    0.0777 C   0  0  1  0  0  0  0  0  0  0  0  0
    2.2134   -0.9300   -0.8144 C   0  0  1  0  0  0  0  0  0  0  0  0
    2.3023    0.5957   -0.9988 C   0  0  1  0  0  0  0  0  0  0  0  0
    1.0420    1.1289   -0.1977 C   0  0  2  0  0  0  0  0  0  0  0  0
    1.3296    0.8353    1.2622 C   0  0  0  0  0  0  0  0  0  0  0  0
    1.2526   -0.5048    1.4272 C   0  0  0  0  0  0  0  0  0  0  0  0
    0.0381    0.0019   -0.5657 C   0  0  0  0  0  3  0  0  0  0  0  0
    3.5107   -1.3162   -0.1263 C   0  0  0  0  0  0  0  0  0  0  0  0
    3.6449    0.9806   -0.4025 C   0  0  0  0  0  0  0  0  0  0  0  0
    3.8916   -2.4017    0.2233 O   0  0  0  0  0  0  0  0  0  0  0  0
    4.1569    2.0638   -0.3128 O   0  0  0  0  0  0  0  0  0  0  0  0
    4.2764   -0.1677    0.0914 O   0  0  0  0  0  0  0  0  0  0  0  0
    0.5408   -2.1474    0.0821 H   0  0  0  0  0  0  0  0  0  0  0  0
    2.1144   -1.5059   -1.7551 H   0  0  0  0  0  0  0  0  0  0  0  0
    2.2594    0.9392   -2.0506 H   0  0  0  0  0  0  0  0  0  0  0  0
    0.7796    2.1700   -0.4546 H   0  0  0  0  0  0  0  0  0  0  0  0
    1.6415    1.5808    2.0063 H   0  0  0  0  0  0  0  0  0  0  0  0
    1.4940   -1.0790    2.3323 H   0  0  0  0  0  0  0  0  0  0  0  0
   -0.0026   -0.1178   -1.6702 H   0  0  0  0  0  0  0  0  0  0  0  0
  1 13  1  1  0  0  0
  1  6  1  0  0  0  0
  2 14  1  6  0  0  0
  2  8  1  0  0  0  0
  2  1  1  0  0  0  0
  3 15  1  6  0  0  0
  3  2  1  0  0  0  0
  3  9  1  0  0  0  0
  3  4  1  0  0  0  0
  4 16  1  6  0  0  0
  4  5  1  0  0  0  0
  5  6  2  0  0  0  0
  5 17  1  0  0  0  0
  6 18  1  0  0  0  0
  7  4  1  0  0  0  0
  7  1  1  0  0  0  0
  8 12  1  0  0  0  0
  8 10  2  0  0  0  0
  9 11  2  0  0  0  0
  9 12  1  0  0  0  0
 19  7  1  0  0  0  0
M  END
