14
 OpenBabel05122313113D

 52 54  0  0  1  0  0  0  0  0999 V2000
   -4.7838    0.4639   -1.3929 O   0  0  0  0  0  0  0  0  0  0  0  0
   -3.7810    1.6289    0.2658 O   0  0  0  0  0  0  0  0  0  0  0  0
    3.6377   -1.2579   -1.7422 O   0  0  0  0  0  0  0  0  0  0  0  0
   -1.4023   -1.9820   -1.3885 C   0  0  0  0  0  0  0  0  0  0  0  0
   -2.8894   -2.1449   -1.7263 C   0  0  0  0  0  0  0  0  0  0  0  0
   -3.7968   -2.0175   -0.5005 C   0  0  0  0  0  0  0  0  0  0  0  0
   -3.5469   -0.7480    0.3464 C   0  0  2  0  0  0  0  0  0  0  0  0
   -2.0190   -0.6778    0.6555 C   0  0  2  0  0  0  0  0  0  0  0  0
   -1.5171    0.3319    1.6946 C   0  0  0  0  0  0  0  0  0  0  0  0
   -0.2217   -0.2283    2.2831 C   0  0  0  0  0  0  0  0  0  0  0  0
    0.7622   -0.6539    1.2181 C   0  0  2  0  0  3  0  0  0  0  0  0
    0.3636   -0.7256   -0.1518 C   0  0  2  0  0  3  0  0  0  0  0  0
   -1.1113   -0.6615   -0.6145 C   0  0  1  0  0  0  0  0  0  0  0  0
    1.3825   -0.9244   -1.1415 C   0  0  0  0  0  3  0  0  0  0  0  0
    2.7422   -1.1240   -0.7326 C   0  0  2  0  0  3  0  0  0  0  0  0
    3.0514   -1.0364    0.6471 C   0  0  0  0  0  3  0  0  0  0  0  0
    1.9888   -1.4546    1.6490 C   0  0  2  0  0  0  0  0  0  0  0  0
   -4.3566   -0.8715    1.6582 C   0  0  0  0  0  0  0  0  0  0  0  0
   -4.0995    0.4811   -0.3853 C   0  0  0  0  0  0  0  0  0  0  0  0
   -1.3637    0.5346   -1.5531 C   0  0  0  0  0  0  0  0  0  0  0  0
    5.0210   -1.2647   -1.4202 C   0  0  0  0  0  0  0  0  0  0  0  0
   -4.2463    2.8378   -0.3466 C   0  0  0  0  0  0  0  0  0  0  0  0
    1.7516   -2.9692    1.7517 C   0  0  0  0  0  0  0  0  0  0  0  0
   -0.8023   -2.0177   -2.3209 H   0  0  0  0  0  0  0  0  0  0  0  0
   -1.0616   -2.8369   -0.7627 H   0  0  0  0  0  0  0  0  0  0  0  0
   -3.0498   -3.1338   -2.2042 H   0  0  0  0  0  0  0  0  0  0  0  0
   -3.1961   -1.3920   -2.4805 H   0  0  0  0  0  0  0  0  0  0  0  0
   -3.6343   -2.8894    0.1704 H   0  0  0  0  0  0  0  0  0  0  0  0
   -4.8597   -2.0415   -0.8133 H   0  0  0  0  0  0  0  0  0  0  0  0
   -1.8321   -1.6771    1.1172 H   0  0  0  0  0  0  0  0  0  0  0  0
   -2.2569    0.4895    2.5016 H   0  0  0  0  0  0  0  0  0  0  0  0
   -1.3471    1.3246    1.2326 H   0  0  0  0  0  0  0  0  0  0  0  0
   -0.4662   -1.1153    2.9143 H   0  0  0  0  0  0  0  0  0  0  0  0
    0.2658    0.4975    2.9678 H   0  0  0  0  0  0  0  0  0  0  0  0
    1.1521   -0.9652   -2.2133 H   0  0  0  0  0  0  0  0  0  0  0  0
    4.1056   -1.0333    0.9579 H   0  0  0  0  0  0  0  0  0  0  0  0
    2.2999   -1.0745    2.6446 H   0  0  0  0  0  0  0  0  0  0  0  0
   -3.9662   -1.7127    2.2673 H   0  0  0  0  0  0  0  0  0  0  0  0
   -4.3116    0.0528    2.2633 H   0  0  0  0  0  0  0  0  0  0  0  0
   -5.4215   -1.0794    1.4312 H   0  0  0  0  0  0  0  0  0  0  0  0
   -0.5299    0.6446   -2.2730 H   0  0  0  0  0  0  0  0  0  0  0  0
   -2.2897    0.4042   -2.1409 H   0  0  0  0  0  0  0  0  0  0  0  0
   -1.4498    1.4840   -0.9996 H   0  0  0  0  0  0  0  0  0  0  0  0
    5.5576   -1.4313   -2.3718 H   0  0  0  0  0  0  0  0  0  0  0  0
    5.3421   -0.2905   -0.9923 H   0  0  0  0  0  0  0  0  0  0  0  0
    5.2740   -2.0806   -0.7085 H   0  0  0  0  0  0  0  0  0  0  0  0
   -3.9398    3.6586    0.3256 H   0  0  0  0  0  0  0  0  0  0  0  0
   -3.7844    2.9699   -1.3461 H   0  0  0  0  0  0  0  0  0  0  0  0
   -5.3474    2.8201   -0.4702 H   0  0  0  0  0  0  0  0  0  0  0  0
    0.9587   -3.2024    2.4920 H   0  0  0  0  0  0  0  0  0  0  0  0
    1.4390   -3.3824    0.7710 H   0  0  0  0  0  0  0  0  0  0  0  0
    2.6751   -3.4966    2.0685 H   0  0  0  0  0  0  0  0  0  0  0  0
  1 19  2  0  0  0  0
  3 21  1  0  0  0  0
  4 25  1  0  0  0  0
  4 13  1  0  0  0  0
  5  4  1  0  0  0  0
  5  6  1  0  0  0  0
  6 28  1  0  0  0  0
  6  7  1  0  0  0  0
  7 19  1  6  0  0  0
  7  8  1  0  0  0  0
  7 18  1  0  0  0  0
  8 30  1  1  0  0  0
  8  9  1  0  0  0  0
  9 10  1  0  0  0  0
  9 31  1  0  0  0  0
 10 33  1  0  0  0  0
 10 34  1  0  0  0  0
 11 17  1  0  0  0  0
 11 10  1  1  0  0  0
 12 14  1  1  0  0  0
 12 11  1  0  0  0  0
 13 20  1  6  0  0  0
 13 12  1  0  0  0  0
 13  8  1  0  0  0  0
 14 15  1  0  0  0  0
 15  3  1  6  0  0  0
 15 16  1  0  0  0  0
 16 36  1  0  0  0  0
 16 17  1  0  0  0  0
 17 23  1  0  0  0  0
 17 37  1  1  0  0  0
 18 39  1  0  0  0  0
 18 38  1  0  0  0  0
 19  2  1  0  0  0  0
 20 43  1  0  0  0  0
 21 45  1  0  0  0  0
 21 46  1  0  0  0  0
 22  2  1  0  0  0  0
 22 47  1  0  0  0  0
 23 52  1  0  0  0  0
 23 50  1  0  0  0  0
 24  4  1  0  0  0  0
 26  5  1  0  0  0  0
 27  5  1  0  0  0  0
 29  6  1  0  0  0  0
 32  9  1  0  0  0  0
 35 14  1  0  0  0  0
 40 18  1  0  0  0  0
 41 20  1  0  0  0  0
 42 20  1  0  0  0  0
 44 21  1  0  0  0  0
 48 22  1  0  0  0  0
 49 22  1  0  0  0  0
 51 23  1  0  0  0  0
M  END
