1
 OpenBabel05122313113D

 58 58  0  0  0  0  0  0  0  0999 V2000
    0.8553   -0.5643    1.0262 C   0  0  0  0  0  2  0  0  0  0  0  0
    0.7131    0.7258    1.3197 N   0  0  0  0  0  0  0  0  0  0  0  0
    1.4687    1.1793    1.8523 H   0  0  0  0  0  0  0  0  0  0  0  0
    1.9837   -1.1728    1.4967 N   0  0  0  0  0  0  0  0  0  0  0  0
    2.1805   -2.1047    1.1193 H   0  0  0  0  0  0  0  0  0  0  0  0
    3.0439   -0.4464    2.0076 N   0  0  0  0  0  0  0  0  0  0  0  0
    3.3267   -0.6312    2.9745 H   0  0  0  0  0  0  0  0  0  0  0  0
    5.0576    0.5929    1.6594 O   0  0  0  0  0  0  0  0  0  0  0  0
    4.0410    0.1148    1.1892 C   0  0  0  0  0  0  0  0  0  0  0  0
    3.6495    0.0595   -0.0921 O   0  0  0  0  0  0  0  0  0  0  0  0
   -0.3769    1.5738    0.8336 C   0  0  0  0  0  0  0  0  0  0  0  0
   -1.0794    0.8640    0.3533 H   0  0  0  0  0  0  0  0  0  0  0  0
   -1.0921    2.2590    2.0050 C   0  0  0  0  0  0  0  0  0  0  0  0
   -0.3501    2.8485    2.5899 H   0  0  0  0  0  0  0  0  0  0  0  0
   -1.7921    3.0078    1.5800 H   0  0  0  0  0  0  0  0  0  0  0  0
   -1.8497    1.2946    2.9339 C   0  0  0  0  0  0  0  0  0  0  0  0
   -2.3041    1.8854    3.7589 H   0  0  0  0  0  0  0  0  0  0  0  0
   -1.1166    0.6119    3.4159 H   0  0  0  0  0  0  0  0  0  0  0  0
   -2.9316    0.4488    2.2427 C   0  0  0  0  0  0  0  0  0  0  0  0
   -2.4565   -0.1725    1.4511 H   0  0  0  0  0  0  0  0  0  0  0  0
   -3.3280   -0.2904    2.9707 H   0  0  0  0  0  0  0  0  0  0  0  0
   -4.1029    1.2479    1.6465 C   0  0  0  0  0  0  0  0  0  0  0  0
   -4.8160    1.5097    2.4577 H   0  0  0  0  0  0  0  0  0  0  0  0
   -3.7390    2.2245    1.2585 H   0  0  0  0  0  0  0  0  0  0  0  0
   -4.8396    0.5157    0.5106 C   0  0  0  0  0  0  0  0  0  0  0  0
   -5.8276    0.9971    0.3396 H   0  0  0  0  0  0  0  0  0  0  0  0
   -5.0578   -0.5254    0.8330 H   0  0  0  0  0  0  0  0  0  0  0  0
   -4.0558    0.4848   -0.8119 C   0  0  0  0  0  0  0  0  0  0  0  0
   -3.0313    0.1035   -0.6146 H   0  0  0  0  0  0  0  0  0  0  0  0
   -4.4916   -0.2758   -1.4931 H   0  0  0  0  0  0  0  0  0  0  0  0
   -3.9981    1.8408   -1.5303 C   0  0  0  0  0  0  0  0  0  0  0  0
   -4.9974    2.0644   -1.9632 H   0  0  0  0  0  0  0  0  0  0  0  0
   -3.8250    2.6500   -0.7860 H   0  0  0  0  0  0  0  0  0  0  0  0
   -2.9365    1.9451   -2.6382 C   0  0  0  0  0  0  0  0  0  0  0  0
   -3.0682    2.9101   -3.1765 H   0  0  0  0  0  0  0  0  0  0  0  0
   -3.1175    1.1473   -3.3906 H   0  0  0  0  0  0  0  0  0  0  0  0
   -1.4838    1.8311   -2.1481 C   0  0  0  0  0  0  0  0  0  0  0  0
   -0.8007    1.7952   -3.0236 H   0  0  0  0  0  0  0  0  0  0  0  0
   -1.3540    0.8440   -1.6523 H   0  0  0  0  0  0  0  0  0  0  0  0
   -1.0286    2.9604   -1.2041 C   0  0  0  0  0  0  0  0  0  0  0  0
   -0.7173    3.8451   -1.7983 H   0  0  0  0  0  0  0  0  0  0  0  0
   -1.8854    3.3107   -0.5890 H   0  0  0  0  0  0  0  0  0  0  0  0
    0.1114    2.5418   -0.2625 C   0  0  0  0  0  0  0  0  0  0  0  0
    0.5889    3.4318    0.2045 H   0  0  0  0  0  0  0  0  0  0  0  0
    0.9006    2.0259   -0.8506 H   0  0  0  0  0  0  0  0  0  0  0  0
    4.4216    0.7293   -1.1641 C   0  0  0  0  0  0  0  0  0  0  0  0
    5.8114    0.0966   -1.2661 C   0  0  0  0  0  0  0  0  0  0  0  0
    6.3516    0.5283   -2.1317 H   0  0  0  0  0  0  0  0  0  0  0  0
    5.7269   -0.9966   -1.4261 H   0  0  0  0  0  0  0  0  0  0  0  0
    6.4007    0.2829   -0.3498 H   0  0  0  0  0  0  0  0  0  0  0  0
    4.4828    2.2315   -0.8740 C   0  0  0  0  0  0  0  0  0  0  0  0
    4.9694    2.7531   -1.7215 H   0  0  0  0  0  0  0  0  0  0  0  0
    5.0622    2.4360    0.0452 H   0  0  0  0  0  0  0  0  0  0  0  0
    3.4605    2.6448   -0.7592 H   0  0  0  0  0  0  0  0  0  0  0  0
    3.5822    0.4372   -2.4080 C   0  0  0  0  0  0  0  0  0  0  0  0
    4.0554    0.8913   -3.3001 H   0  0  0  0  0  0  0  0  0  0  0  0
    2.5610    0.8527   -2.2994 H   0  0  0  0  0  0  0  0  0  0  0  0
    3.4925   -0.6541   -2.5727 H   0  0  0  0  0  0  0  0  0  0  0  0
  1  2  1  0  0  0  0
  1  4  1  0  0  0  0
  2  3  1  0  0  0  0
  4  6  1  0  0  0  0
  5  4  1  0  0  0  0
  6  7  1  0  0  0  0
  9  8  2  0  0  0  0
  9  6  1  0  0  0  0
 10  9  1  0  0  0  0
 11  2  1  0  0  0  0
 11 13  1  0  0  0  0
 12 11  1  0  0  0  0
 13 14  1  0  0  0  0
 13 16  1  0  0  0  0
 15 13  1  0  0  0  0
 16 18  1  0  0  0  0
 16 17  1  0  0  0  0
 19 16  1  0  0  0  0
 19 21  1  0  0  0  0
 20 19  1  0  0  0  0
 22 19  1  0  0  0  0
 22 23  1  0  0  0  0
 24 22  1  0  0  0  0
 25 27  1  0  0  0  0
 25 22  1  0  0  0  0
 26 25  1  0  0  0  0
 28 29  1  0  0  0  0
 28 25  1  0  0  0  0
 30 28  1  0  0  0  0
 31 28  1  0  0  0  0
 31 33  1  0  0  0  0
 32 31  1  0  0  0  0
 34 37  1  0  0  0  0
 34 31  1  0  0  0  0
 35 34  1  0  0  0  0
 36 34  1  0  0  0  0
 37 39  1  0  0  0  0
 37 40  1  0  0  0  0
 38 37  1  0  0  0  0
 40 42  1  0  0  0  0
 40 43  1  0  0  0  0
 41 40  1  0  0  0  0
 43 44  1  0  0  0  0
 43 11  1  0  0  0  0
 45 43  1  0  0  0  0
 46 51  1  0  0  0  0
 46 10  1  0  0  0  0
 47 46  1  0  0  0  0
 47 50  1  0  0  0  0
 48 47  1  0  0  0  0
 49 47  1  0  0  0  0
 51 54  1  0  0  0  0
 51 53  1  0  0  0  0
 52 51  1  0  0  0  0
 55 57  1  0  0  0  0
 55 46  1  0  0  0  0
 56 55  1  0  0  0  0
 58 55  1  0  0  0  0
M  END
