3
 OpenBabel05122313113D

 69 74  0  0  0  0  0  0  0  0999 V2000
   -1.5291    0.2144   -0.1478 P   0  0  0  0  0  4  0  0  0  0  0  0
    1.5478    0.2086   -0.0473 P   0  0  0  0  0  4  0  0  0  0  0  0
    0.0208   -0.4040   -0.4448 C   0  0  0  0  0  2  0  0  0  0  0  0
   -3.9340    0.3577   -1.6237 C   0  0  0  0  0  0  0  0  0  0  0  0
   -4.8234   -0.0431   -2.6323 C   0  0  0  0  0  0  0  0  0  0  0  0
   -4.4805   -1.0974   -3.4947 C   0  0  0  0  0  0  0  0  0  0  0  0
   -3.2451   -1.7492   -3.3490 C   0  0  0  0  0  0  0  0  0  0  0  0
   -2.3558   -1.3550   -2.3390 C   0  0  0  0  0  0  0  0  0  0  0  0
   -2.6995   -0.3053   -1.4693 C   0  0  0  0  0  0  0  0  0  0  0  0
   -2.3223    2.7668    0.8811 C   0  0  0  0  0  0  0  0  0  0  0  0
   -2.4212    4.1663    0.8080 C   0  0  0  0  0  0  0  0  0  0  0  0
   -1.9184    4.8510   -0.3082 C   0  0  0  0  0  0  0  0  0  0  0  0
   -1.3154    4.1357   -1.3574 C   0  0  0  0  0  0  0  0  0  0  0  0
   -1.2182    2.7409   -1.2911 C   0  0  0  0  0  0  0  0  0  0  0  0
   -1.7188    2.0483   -0.1682 C   0  0  0  0  0  0  0  0  0  0  0  0
   -1.4886   -0.1654    2.6077 C   0  0  0  0  0  0  0  0  0  0  0  0
   -1.9727   -0.5882    3.8520 C   0  0  0  0  0  0  0  0  0  0  0  0
   -3.2473   -1.1729    3.9478 C   0  0  0  0  0  0  0  0  0  0  0  0
   -4.0324   -1.3293    2.7957 C   0  0  0  0  0  0  0  0  0  0  0  0
   -3.5540   -0.8982    1.5482 C   0  0  0  0  0  0  0  0  0  0  0  0
   -2.2780   -0.3141    1.4481 C   0  0  0  0  0  0  0  0  0  0  0  0
    1.2013    2.7779    1.0652 C   0  0  0  0  0  0  0  0  0  0  0  0
    1.2457    4.1778    1.0569 C   0  0  0  0  0  0  0  0  0  0  0  0
    1.8275    4.8574   -0.0261 C   0  0  0  0  0  0  0  0  0  0  0  0
    2.3607    4.1317   -1.1022 C   0  0  0  0  0  0  0  0  0  0  0  0
    2.3134    2.7288   -1.0995 C   0  0  0  0  0  0  0  0  0  0  0  0
    1.7350    2.0419   -0.0142 C   0  0  0  0  0  0  0  0  0  0  0  0
    1.7155   -1.4959    2.1755 C   0  0  0  0  0  0  0  0  0  0  0  0
    2.1857   -1.9275    3.4234 C   0  0  0  0  0  0  0  0  0  0  0  0
    3.1491   -1.1720    4.1119 C   0  0  0  0  0  0  0  0  0  0  0  0
    3.6431    0.0151    3.5467 C   0  0  0  0  0  0  0  0  0  0  0  0
    3.1754    0.4488    2.2961 C   0  0  0  0  0  0  0  0  0  0  0  0
    2.2064   -0.3075    1.6038 C   0  0  0  0  0  0  0  0  0  0  0  0
    4.1520   -0.4879   -0.9522 C   0  0  0  0  0  0  0  0  0  0  0  0
    5.0687   -0.8801   -1.9407 C   0  0  0  0  0  0  0  0  0  0  0  0
    4.6280   -1.1410   -3.2470 C   0  0  0  0  0  0  0  0  0  0  0  0
    3.2653   -1.0136   -3.5669 C   0  0  0  0  0  0  0  0  0  0  0  0
    2.3463   -0.6252   -2.5836 C   0  0  0  0  0  0  0  0  0  0  0  0
    2.7886   -0.3606   -1.2731 C   0  0  0  0  0  0  0  0  0  0  0  0
   -4.1975    1.1955   -0.9595 H   0  0  0  0  0  0  0  0  0  0  0  0
   -5.7876    0.4750   -2.7485 H   0  0  0  0  0  0  0  0  0  0  0  0
   -5.1777   -1.4079   -4.2880 H   0  0  0  0  0  0  0  0  0  0  0  0
   -2.9699   -2.5721   -4.0261 H   0  0  0  0  0  0  0  0  0  0  0  0
   -1.3797   -1.8570   -2.2034 H   0  0  0  0  0  0  0  0  0  0  0  0
   -2.7160    2.2303    1.7572 H   0  0  0  0  0  0  0  0  0  0  0  0
   -2.8963    4.7232    1.6302 H   0  0  0  0  0  0  0  0  0  0  0  0
   -1.9939    5.9477   -0.3623 H   0  0  0  0  0  0  0  0  0  0  0  0
   -0.9129    4.6705   -2.2307 H   0  0  0  0  0  0  0  0  0  0  0  0
   -0.7413    2.1761   -2.1068 H   0  0  0  0  0  0  0  0  0  0  0  0
   -0.4746    0.2550    2.5265 H   0  0  0  0  0  0  0  0  0  0  0  0
   -1.3447   -0.4740    4.7487 H   0  0  0  0  0  0  0  0  0  0  0  0
   -3.6241   -1.5175    4.9228 H   0  0  0  0  0  0  0  0  0  0  0  0
   -5.0235   -1.8028    2.8633 H   0  0  0  0  0  0  0  0  0  0  0  0
   -4.1663   -1.0419    0.6463 H   0  0  0  0  0  0  0  0  0  0  0  0
    0.7474    2.2518    1.9187 H   0  0  0  0  0  0  0  0  0  0  0  0
    0.8171    4.7420    1.8985 H   0  0  0  0  0  0  0  0  0  0  0  0
    1.8626    5.9574   -0.0307 H   0  0  0  0  0  0  0  0  0  0  0  0
    2.8207    4.6600   -1.9513 H   0  0  0  0  0  0  0  0  0  0  0  0
    2.7326    2.1613   -1.9439 H   0  0  0  0  0  0  0  0  0  0  0  0
    0.9460   -2.0766    1.6241 H   0  0  0  0  0  0  0  0  0  0  0  0
    1.7923   -2.8580    3.8603 H   0  0  0  0  0  0  0  0  0  0  0  0
    3.5146   -1.5071    5.0948 H   0  0  0  0  0  0  0  0  0  0  0  0
    4.3974    0.6105    4.0839 H   0  0  0  0  0  0  0  0  0  0  0  0
    3.5602    1.3846    1.8627 H   0  0  0  0  0  0  0  0  0  0  0  0
    4.4990   -0.3002    0.0747 H   0  0  0  0  0  0  0  0  0  0  0  0
    6.1331   -0.9917   -1.6841 H   0  0  0  0  0  0  0  0  0  0  0  0
    5.3477   -1.4556   -4.0180 H   0  0  0  0  0  0  0  0  0  0  0  0
    2.9155   -1.2303   -4.5877 H   0  0  0  0  0  0  0  0  0  0  0  0
    1.2684   -0.5512   -2.7979 H   0  0  0  0  0  0  0  0  0  0  0  0
  1 21  1  0  0  0  0
  2 27  1  0  0  0  0
  2 33  1  0  0  0  0
  3  1  1  0  0  0  0
  3  2  1  0  0  0  0
  4  9  1  0  0  0  0
  4 40  1  0  0  0  0
  5  4  2  0  0  0  0
  6  7  2  0  0  0  0
  6  5  1  0  0  0  0
  7  8  1  0  0  0  0
  8 44  1  0  0  0  0
  8  9  2  0  0  0  0
  9  1  1  0  0  0  0
 10 45  1  0  0  0  0
 11 10  1  0  0  0  0
 11 46  1  0  0  0  0
 12 11  2  0  0  0  0
 13 14  2  0  0  0  0
 13 12  1  0  0  0  0
 14 15  1  0  0  0  0
 15  1  1  0  0  0  0
 15 10  2  0  0  0  0
 16 17  1  0  0  0  0
 17 18  2  0  0  0  0
 17 51  1  0  0  0  0
 18 52  1  0  0  0  0
 19 53  1  0  0  0  0
 19 18  1  0  0  0  0
 20 19  2  0  0  0  0
 21 20  1  0  0  0  0
 21 16  2  0  0  0  0
 22 55  1  0  0  0  0
 23 22  1  0  0  0  0
 23 56  1  0  0  0  0
 24 23  2  0  0  0  0
 25 26  2  0  0  0  0
 25 24  1  0  0  0  0
 26 27  1  0  0  0  0
 27 22  2  0  0  0  0
 28 29  1  0  0  0  0
 29 61  1  0  0  0  0
 29 30  2  0  0  0  0
 30 62  1  0  0  0  0
 31 63  1  0  0  0  0
 31 30  1  0  0  0  0
 32 31  2  0  0  0  0
 33 28  2  0  0  0  0
 33 32  1  0  0  0  0
 34 65  1  0  0  0  0
 35 66  1  0  0  0  0
 35 34  2  0  0  0  0
 36 35  1  0  0  0  0
 37 36  2  0  0  0  0
 37 38  1  0  0  0  0
 38 39  2  0  0  0  0
 39 34  1  0  0  0  0
 39  2  1  0  0  0  0
 41  5  1  0  0  0  0
 42  6  1  0  0  0  0
 43  7  1  0  0  0  0
 47 12  1  0  0  0  0
 48 13  1  0  0  0  0
 49 14  1  0  0  0  0
 50 16  1  0  0  0  0
 54 20  1  0  0  0  0
 57 24  1  0  0  0  0
 58 25  1  0  0  0  0
 59 26  1  0  0  0  0
 60 28  1  0  0  0  0
 64 32  1  0  0  0  0
 67 36  1  0  0  0  0
 68 37  1  0  0  0  0
 69 38  1  0  0  0  0
M  END
