16
 OpenBabel05122313113D

 18 18  0  0  0  0  0  0  0  0999 V2000
    2.4621    1.8831    1.0700 O   0  0  0  0  0  0  0  0  0  0  0  0
   -0.2718    2.1207   -2.6088 O   0  0  0  0  0  0  0  0  0  0  0  0
   -2.0686    1.8591    1.7800 O   0  0  0  0  0  0  0  0  0  0  0  0
    0.1975    1.8351    1.4364 N   0  0  0  0  0  0  0  0  0  0  0  0
    1.1159    1.9784   -0.7794 N   0  0  0  0  0  0  0  0  0  0  0  0
    0.4708    1.7396    2.8733 C   0  0  0  0  0  0  0  0  0  0  0  0
    1.1887    2.5270    3.1665 H   0  0  0  0  0  0  0  0  0  0  0  0
    0.9160    0.7503    3.1075 H   0  0  0  0  0  0  0  0  0  0  0  0
   -0.4899    1.8704    3.3979 H   0  0  0  0  0  0  0  0  0  0  0  0
    1.3337    1.8816    0.5994 C   0  0  0  0  0  0  0  0  0  0  0  0
    2.3075    2.1994   -1.5980 C   0  0  0  0  0  0  0  0  0  0  0  0
    3.0273    1.3682   -1.4784 H   0  0  0  0  0  0  0  0  0  0  0  0
    2.8130    3.1351   -1.2905 H   0  0  0  0  0  0  0  0  0  0  0  0
    1.9669    2.2753   -2.6446 H   0  0  0  0  0  0  0  0  0  0  0  0
   -0.1489    1.9461   -1.4007 C   0  0  0  0  0  0  0  0  0  0  0  0
   -1.2964    1.6847   -0.4914 C   0  0  0  0  0  3  0  0  0  0  0  0
   -2.1789    2.2492   -0.8455 H   0  0  0  0  0  0  0  0  0  0  0  0
   -1.1106    1.8171    0.9770 C   0  0  0  0  0  0  0  0  0  0  0  0
  2 15  2  0  0  0  0
  4  6  1  0  0  0  0
  5 10  1  0  0  0  0
  6  8  1  0  0  0  0
  6  7  1  0  0  0  0
  6  9  1  0  0  0  0
 10  1  2  0  0  0  0
 10  4  1  0  0  0  0
 11 12  1  0  0  0  0
 11 13  1  0  0  0  0
 11  5  1  0  0  0  0
 14 11  1  0  0  0  0
 15  5  1  0  0  0  0
 15 16  1  0  0  0  0
 16 18  1  0  0  0  0
 17 16  1  0  0  0  0
 18  4  1  0  0  0  0
 18  3  2  0  0  0  0
M  END
