7
 OpenBabel05122313113D

 40 47  0  0  1  0  0  0  0  0999 V2000
    1.6730    2.1044    0.1186 Si  0  0  0  0  0  0  0  0  0  0  0  0
    2.1118    0.2386   -0.0264 C   0  0  0  0  0  0  0  0  0  0  0  0
    0.8024   -0.8338   -0.0662 C   0  0  1  0  0  0  0  0  0  0  0  0
    2.5486    2.8395    1.6112 C   0  0  0  0  0  0  0  0  0  0  0  0
    2.1328    3.0053   -1.4663 C   0  0  0  0  0  0  0  0  0  0  0  0
   -0.1914    2.1305    0.3616 C   0  0  0  0  0  0  0  0  0  0  0  0
   -0.9037    1.8391    1.5786 C   0  0  0  0  0  3  0  0  0  0  0  0
   -2.3011    1.9092    1.3284 C   0  0  0  0  0  0  0  0  0  0  0  0
   -2.4753    2.2420   -0.0507 C   0  0  0  0  0  0  0  0  0  0  0  0
   -1.1846    2.3981   -0.6330 C   0  0  0  0  0  0  0  0  0  0  0  0
    1.7744   -0.7188    1.3385 B   0  0  1  0  0  0  0  0  0  0  0  0
    3.4495   -0.4381    0.7894 B   0  0  1  0  0  0  0  0  0  0  0  0
    3.4084   -0.3190   -0.9792 B   0  0  1  0  0  0  0  0  0  0  0  0
    1.7073   -0.5319   -1.4897 B   0  0  2  0  0  0  0  0  0  0  0  0
    1.2529   -2.2920    0.7147 B   0  0  2  0  0  0  0  0  0  0  0  0
    2.9354   -2.0737    1.2598 B   0  0  1  0  0  0  0  0  0  0  0  0
    3.9490   -1.8288   -0.2012 B   0  0  0  0  0  0  0  0  0  0  0  0
    2.8719   -1.8822   -1.6341 B   0  0  0  0  0  0  0  0  0  0  0  0
    1.2197   -2.1748   -1.0447 B   0  0  1  0  0  0  0  0  0  0  0  0
    2.5918   -2.9809   -0.2449 B   0  0  2  0  0  0  0  0  0  0  0  0
    2.2180    3.8867    1.7651 H   0  0  0  0  0  0  0  0  0  0  0  0
    3.6466    2.8374    1.4629 H   0  0  0  0  0  0  0  0  0  0  0  0
    2.3296    2.2641    2.5321 H   0  0  0  0  0  0  0  0  0  0  0  0
    1.8304    4.0701   -1.3997 H   0  0  0  0  0  0  0  0  0  0  0  0
    1.6416    2.5537   -2.3502 H   0  0  0  0  0  0  0  0  0  0  0  0
    3.2277    2.9646   -1.6306 H   0  0  0  0  0  0  0  0  0  0  0  0
   -0.4385    1.5970    2.5431 H   0  0  0  0  0  0  0  0  0  0  0  0
   -3.1017    1.7379    2.0590 H   0  0  0  0  0  0  0  0  0  0  0  0
   -3.4389    2.3687   -0.5602 H   0  0  0  0  0  0  0  0  0  0  0  0
   -0.9795    2.6457   -1.6823 H   0  0  0  0  0  0  0  0  0  0  0  0
    1.3258   -0.1946    2.3314 H   0  0  0  0  0  0  0  0  0  0  0  0
    4.1444    0.3009    1.4435 H   0  0  0  0  0  0  0  0  0  0  0  0
    4.0774    0.5033   -1.5581 H   0  0  0  0  0  0  0  0  0  0  0  0
    1.2012    0.1077   -2.3805 H   0  0  0  0  0  0  0  0  0  0  0  0
    0.3981   -2.8970    1.3165 H   0  0  0  0  0  0  0  0  0  0  0  0
    3.3400   -2.5868    2.2774 H   0  0  0  0  0  0  0  0  0  0  0  0
    5.1083   -2.1715   -0.2497 H   0  0  0  0  0  0  0  0  0  0  0  0
    3.2276   -2.2626   -2.7255 H   0  0  0  0  0  0  0  0  0  0  0  0
    0.3566   -2.7121   -1.6927 H   0  0  0  0  0  0  0  0  0  0  0  0
    2.7437   -4.1783   -0.3291 H   0  0  0  0  0  0  0  0  0  0  0  0
  1  6  1  0  0  0  0
  1  4  1  0  0  0  0
  1  2  1  0  0  0  0
  2 11  1  0  0  0  0
  3  2  1  6  0  0  0
  3 11  1  0  0  0  0
  4 21  1  0  0  0  0
  4 23  1  0  0  0  0
  5 24  1  0  0  0  0
  5  1  1  0  0  0  0
  6  7  1  0  0  0  0
  7 27  1  0  0  0  0
  8  7  1  0  0  0  0
  8 28  1  0  0  0  0
  9  8  2  0  0  0  0
 10  9  1  0  0  0  0
 10  6  2  0  0  0  0
 11 31  1  1  0  0  0
 12 16  1  0  0  0  0
 12 32  1  1  0  0  0
 13 33  1  6  0  0  0
 13  2  1  0  0  0  0
 13 12  1  0  0  0  0
 14 34  1  6  0  0  0
 14 19  1  0  0  0  0
 14  3  1  0  0  0  0
 14  2  1  0  0  0  0
 15 16  1  0  0  0  0
 15 35  1  1  0  0  0
 15 11  1  0  0  0  0
 16 36  1  1  0  0  0
 17 12  1  0  0  0  0
 18 13  1  0  0  0  0
 18 20  1  0  0  0  0
 19 39  1  6  0  0  0
 19  3  1  0  0  0  0
 19 15  1  0  0  0  0
 20 40  1  6  0  0  0
 20 17  1  0  0  0  0
 20 16  1  0  0  0  0
 22  4  1  0  0  0  0
 25  5  1  0  0  0  0
 26  5  1  0  0  0  0
 29  9  1  0  0  0  0
 30 10  1  0  0  0  0
 37 17  1  0  0  0  0
 38 18  1  0  0  0  0
M  HYD  1   7   0
M  ZBO  1   3   0
M  END
