2
 OpenBabel05122313113D

 24 25  0  0  0  0  0  0  0  0999 V2000
   -2.5704    0.1981   -0.4844 C   0  0  0  0  0  3  0  0  0  0  0  0
   -1.9157    0.3824    0.6652 C   0  0  0  0  0  3  0  0  0  0  0  0
   -1.9985    0.7377    2.0623 C   0  0  0  0  0  0  0  0  0  0  0  0
   -0.9023    0.4911    2.9243 C   0  0  0  0  0  0  0  0  0  0  0  0
   -0.9785    0.8264    4.2808 C   0  0  0  0  0  0  0  0  0  0  0  0
   -2.1343    1.4400    4.7913 C   0  0  0  0  0  0  0  0  0  0  0  0
   -3.2202    1.7146    3.9407 C   0  0  0  0  0  0  0  0  0  0  0  0
   -3.1595    1.3601    2.5888 C   0  0  0  0  0  0  0  0  0  0  0  0
   -3.8617    0.1078   -1.1225 C   0  0  0  0  0  0  0  0  0  0  0  0
   -3.9700    0.1458   -2.5349 C   0  0  0  0  0  0  0  0  0  0  0  0
   -5.2259    0.0530   -3.1453 C   0  0  0  0  0  0  0  0  0  0  0  0
   -6.3833   -0.1023   -2.3645 C   0  0  0  0  0  0  0  0  0  0  0  0
   -6.2866   -0.1600   -0.9625 C   0  0  0  0  0  0  0  0  0  0  0  0
   -5.0379   -0.0484   -0.3433 C   0  0  0  0  0  0  0  0  0  0  0  0
    0.0032    0.0335    2.5045 H   0  0  0  0  0  0  0  0  0  0  0  0
   -0.1245    0.6204    4.9434 H   0  0  0  0  0  0  0  0  0  0  0  0
   -2.1889    1.7117    5.8565 H   0  0  0  0  0  0  0  0  0  0  0  0
   -4.1208    2.2067    4.3378 H   0  0  0  0  0  0  0  0  0  0  0  0
   -4.0027    1.5797    1.9178 H   0  0  0  0  0  0  0  0  0  0  0  0
   -3.0536    0.2603   -3.1294 H   0  0  0  0  0  0  0  0  0  0  0  0
   -5.3032    0.0933   -4.2422 H   0  0  0  0  0  0  0  0  0  0  0  0
   -7.3680   -0.1835   -2.8500 H   0  0  0  0  0  0  0  0  0  0  0  0
   -7.1924   -0.2920   -0.3515 H   0  0  0  0  0  0  0  0  0  0  0  0
   -4.9541   -0.1048    0.7519 H   0  0  0  0  0  0  0  0  0  0  0  0
  1  2  2  0  0  0  0
  2  3  1  0  0  0  0
  3  8  2  0  0  0  0
  3  4  1  0  0  0  0
  4  5  2  0  0  0  0
  5  6  1  0  0  0  0
  5 16  1  0  0  0  0
  6 17  1  0  0  0  0
  7 18  1  0  0  0  0
  7  6  2  0  0  0  0
  8  7  1  0  0  0  0
  9  1  1  0  0  0  0
  9 14  1  0  0  0  0
 10  9  2  0  0  0  0
 11 10  1  0  0  0  0
 11 12  2  0  0  0  0
 12 13  1  0  0  0  0
 13 23  1  0  0  0  0
 13 14  2  0  0  0  0
 14 24  1  0  0  0  0
 15  4  1  0  0  0  0
 19  8  1  0  0  0  0
 20 10  1  0  0  0  0
 21 11  1  0  0  0  0
 22 12  1  0  0  0  0
M  END
