8
 OpenBabel05122313113D

 67 69  0  0  1  0  0  0  0  0999 V2000
   -2.6967   -1.3711   -0.7544 Si  0  0  0  0  0  0  0  0  0  0  0  0
    3.5663    1.6364   -1.1066 O   0  0  0  0  0  0  0  0  0  0  0  0
   -1.1472   -1.1129   -0.0570 O   0  0  0  0  0  0  0  0  0  0  0  0
   -1.1907    2.0555   -2.1184 O   0  0  0  0  0  0  0  0  0  0  0  0
   -1.5975    4.2223   -1.5907 O   0  0  0  0  0  0  0  0  0  0  0  0
    2.2870   -0.4273   -1.2329 C   0  0  0  0  0  0  0  0  0  0  0  0
    2.4314    0.9300   -0.7923 C   0  0  0  0  0  0  0  0  0  0  0  0
    1.3789    1.5944   -0.0927 C   0  0  2  0  0  3  0  0  0  0  0  0
    0.1404    0.9019    0.1341 C   0  0  0  0  0  0  0  0  0  0  0  0
   -0.0136   -0.4436   -0.3267 C   0  0  0  0  0  0  0  0  0  0  0  0
    1.0649   -1.1277   -0.9876 C   0  0  1  0  0  3  0  0  0  0  0  0
    0.8792   -2.5607   -1.4282 C   0  0  0  0  0  0  0  0  0  0  0  0
    2.1984   -3.2566   -1.7634 C   0  0  0  0  0  0  0  0  0  0  0  0
    3.0269   -2.3750   -2.6999 C   0  0  0  0  0  0  0  0  0  0  0  0
    3.4269   -1.0760   -1.9948 C   0  0  0  0  0  0  0  0  0  0  0  0
    4.7087    1.4665   -0.2668 C   0  0  0  0  0  0  0  0  0  0  0  0
    1.5574    3.0206    0.3556 C   0  0  0  0  0  0  0  0  0  0  0  0
   -1.3376    1.2721    2.1431 C   0  0  0  0  0  0  0  0  0  0  0  0
   -2.3570    1.9672    2.8096 C   0  0  0  0  0  0  0  0  0  0  0  0
   -3.0220    3.0271    2.1724 C   0  0  0  0  0  0  0  0  0  0  0  0
   -2.6798    3.3692    0.8585 C   0  0  0  0  0  0  0  0  0  0  0  0
   -1.6904    2.6422    0.1670 C   0  0  0  0  0  0  0  0  0  0  0  0
   -0.9883    1.5956    0.8194 C   0  0  0  0  0  0  0  0  0  0  0  0
   -1.4526    2.9083   -1.2832 C   0  0  0  0  0  0  0  0  0  0  0  0
   -1.4518    4.5423   -2.9804 C   0  0  0  0  0  0  0  0  0  0  0  0
   -2.4900   -1.7551   -2.5868 C   0  0  0  0  0  0  0  0  0  0  0  0
   -3.7957    0.1440   -0.5788 C   0  0  0  0  0  0  0  0  0  0  0  0
   -3.3471   -2.8341    0.2887 C   0  0  0  0  0  0  0  0  0  0  0  0
   -2.3512   -4.0078    0.2447 C   0  0  0  0  0  0  0  0  0  0  0  0
   -4.7056   -3.2780   -0.2880 C   0  0  0  0  0  0  0  0  0  0  0  0
   -3.5156   -2.3675    1.7486 C   0  0  0  0  0  0  0  0  0  0  0  0
    0.2276   -2.5606   -2.3304 H   0  0  0  0  0  0  0  0  0  0  0  0
    0.3154   -3.1077   -0.6488 H   0  0  0  0  0  0  0  0  0  0  0  0
    2.7696   -3.4487   -0.8290 H   0  0  0  0  0  0  0  0  0  0  0  0
    1.9927   -4.2442   -2.2237 H   0  0  0  0  0  0  0  0  0  0  0  0
    2.4288   -2.1461   -3.6098 H   0  0  0  0  0  0  0  0  0  0  0  0
    3.9389   -2.9015   -3.0468 H   0  0  0  0  0  0  0  0  0  0  0  0
    4.2580   -1.2903   -1.2912 H   0  0  0  0  0  0  0  0  0  0  0  0
    3.8239   -0.3263   -2.7101 H   0  0  0  0  0  0  0  0  0  0  0  0
    5.4654    2.1935   -0.6184 H   0  0  0  0  0  0  0  0  0  0  0  0
    5.1305    0.4415   -0.3320 H   0  0  0  0  0  0  0  0  0  0  0  0
    4.4558    1.6693    0.7957 H   0  0  0  0  0  0  0  0  0  0  0  0
    1.0665    3.7148   -0.3583 H   0  0  0  0  0  0  0  0  0  0  0  0
    2.6262    3.2913    0.3978 H   0  0  0  0  0  0  0  0  0  0  0  0
    1.1004    3.1894    1.3479 H   0  0  0  0  0  0  0  0  0  0  0  0
   -0.7810    0.4706    2.6482 H   0  0  0  0  0  0  0  0  0  0  0  0
   -2.6190    1.6888    3.8414 H   0  0  0  0  0  0  0  0  0  0  0  0
   -3.8085    3.5874    2.6998 H   0  0  0  0  0  0  0  0  0  0  0  0
   -3.1947    4.1895    0.3391 H   0  0  0  0  0  0  0  0  0  0  0  0
   -1.5981    5.6338   -3.0599 H   0  0  0  0  0  0  0  0  0  0  0  0
   -2.2043    4.0029   -3.5904 H   0  0  0  0  0  0  0  0  0  0  0  0
   -0.4441    4.2576   -3.3442 H   0  0  0  0  0  0  0  0  0  0  0  0
   -1.8968   -0.9468   -3.0630 H   0  0  0  0  0  0  0  0  0  0  0  0
   -3.4805   -1.7819   -3.0854 H   0  0  0  0  0  0  0  0  0  0  0  0
   -1.9847   -2.7231   -2.7712 H   0  0  0  0  0  0  0  0  0  0  0  0
   -3.4538    0.9384   -1.2691 H   0  0  0  0  0  0  0  0  0  0  0  0
   -3.8000    0.5498    0.4512 H   0  0  0  0  0  0  0  0  0  0  0  0
   -4.8371   -0.1241   -0.8537 H   0  0  0  0  0  0  0  0  0  0  0  0
   -2.7596   -4.8780    0.8046 H   0  0  0  0  0  0  0  0  0  0  0  0
   -1.3864   -3.7339    0.7158 H   0  0  0  0  0  0  0  0  0  0  0  0
   -2.1485   -4.3500   -0.7918 H   0  0  0  0  0  0  0  0  0  0  0  0
   -5.1225   -4.1179    0.3108 H   0  0  0  0  0  0  0  0  0  0  0  0
   -4.6177   -3.6345   -1.3358 H   0  0  0  0  0  0  0  0  0  0  0  0
   -5.4569   -2.4609   -0.2700 H   0  0  0  0  0  0  0  0  0  0  0  0
   -3.8955   -3.2028    2.3777 H   0  0  0  0  0  0  0  0  0  0  0  0
   -4.2380   -1.5302    1.8392 H   0  0  0  0  0  0  0  0  0  0  0  0
   -2.5490   -2.0375    2.1801 H   0  0  0  0  0  0  0  0  0  0  0  0
  1 27  1  0  0  0  0
  1  3  1  0  0  0  0
  1 28  1  0  0  0  0
  2  7  1  0  0  0  0
  2 16  1  0  0  0  0
  4 24  2  0  0  0  0
  5 24  1  0  0  0  0
  6  7  2  0  0  0  0
  7  8  1  0  0  0  0
  8  9  1  0  0  0  0
  8 17  1  6  0  0  0
  9 23  1  0  0  0  0
 10  3  1  0  0  0  0
 10  9  2  0  0  0  0
 11  6  1  6  0  0  0
 11 10  1  0  0  0  0
 12 11  1  0  0  0  0
 12 33  1  0  0  0  0
 13 12  1  0  0  0  0
 13 34  1  0  0  0  0
 14 15  1  0  0  0  0
 14 13  1  0  0  0  0
 15 38  1  0  0  0  0
 15  6  1  0  0  0  0
 16 42  1  0  0  0  0
 17 44  1  0  0  0  0
 17 45  1  0  0  0  0
 18 46  1  0  0  0  0
 18 19  1  0  0  0  0
 19 47  1  0  0  0  0
 20 48  1  0  0  0  0
 20 19  2  0  0  0  0
 21 20  1  0  0  0  0
 22 23  1  0  0  0  0
 22 21  2  0  0  0  0
 23 18  2  0  0  0  0
 24 22  1  0  0  0  0
 25  5  1  0  0  0  0
 26  1  1  0  0  0  0
 27 57  1  0  0  0  0
 28 31  1  0  0  0  0
 29 28  1  0  0  0  0
 29 60  1  0  0  0  0
 29 59  1  0  0  0  0
 30 64  1  0  0  0  0
 30 28  1  0  0  0  0
 30 62  1  0  0  0  0
 31 66  1  0  0  0  0
 31 67  1  0  0  0  0
 31 65  1  0  0  0  0
 32 12  1  0  0  0  0
 35 13  1  0  0  0  0
 36 14  1  0  0  0  0
 37 14  1  0  0  0  0
 39 15  1  0  0  0  0
 40 16  1  0  0  0  0
 41 16  1  0  0  0  0
 43 17  1  0  0  0  0
 49 21  1  0  0  0  0
 50 25  1  0  0  0  0
 51 25  1  0  0  0  0
 52 25  1  0  0  0  0
 53 26  1  0  0  0  0
 54 26  1  0  0  0  0
 55 26  1  0  0  0  0
 56 27  1  0  0  0  0
 58 27  1  0  0  0  0
 61 29  1  0  0  0  0
 63 30  1  0  0  0  0
M  END
