3
 OpenBabel05122313113D

 63 69  0  0  0  0  0  0  0  0999 V2000
   -0.8927    1.0838   -0.2160 N   0  0  0  0  0  0  0  0  0  0  0  0
   -0.9143   -1.1169   -0.1370 N   0  0  0  0  0  0  0  0  0  0  0  0
   -1.7310   -0.0079   -0.1613 C   0  0  0  0  0  2  0  0  0  0  0  0
   -1.3517    2.4678   -0.1715 C   0  0  0  0  0  0  0  0  0  0  0  0
   -2.4284    2.4162    0.0982 H   0  0  0  0  0  0  0  0  0  0  0  0
   -0.8256    2.9690    0.6673 H   0  0  0  0  0  0  0  0  0  0  0  0
    3.9908   -1.4754   -0.0359 N   0  0  0  0  0  0  0  0  0  0  0  0
   -1.2477   -3.2984   -1.3142 C   0  0  0  0  0  0  0  0  0  0  0  0
   -0.1753   -3.3404   -1.5994 H   0  0  0  0  0  0  0  0  0  0  0  0
   -1.7662   -2.7612   -2.1380 H   0  0  0  0  0  0  0  0  0  0  0  0
    4.0185    1.3511   -0.1267 N   0  0  0  0  0  0  0  0  0  0  0  0
   -1.7711    4.6298   -1.4689 C   0  0  0  0  0  0  0  0  0  0  0  0
   -1.6894    5.0597   -2.4896 H   0  0  0  0  0  0  0  0  0  0  0  0
   -2.8620    4.5426   -1.2655 H   0  0  0  0  0  0  0  0  0  0  0  0
    1.6231    1.4110   -0.1849 C   0  0  0  0  0  0  0  0  0  0  0  0
    1.6665    2.5075   -0.2099 H   0  0  0  0  0  0  0  0  0  0  0  0
   -1.8048   -4.7229   -1.1919 C   0  0  0  0  0  0  0  0  0  0  0  0
   -1.5350   -5.2836   -2.1118 H   0  0  0  0  0  0  0  0  0  0  0  0
   -1.2856   -5.2483   -0.3594 H   0  0  0  0  0  0  0  0  0  0  0  0
    2.8306   -0.7806   -0.0855 C   0  0  0  0  0  0  0  0  0  0  0  0
    0.4276   -0.7477   -0.1464 C   0  0  0  0  0  0  0  0  0  0  0  0
   10.1264    0.5686    0.0369 C   0  0  0  0  0  0  0  0  0  0  0  0
   11.0806    1.1178    0.0408 H   0  0  0  0  0  0  0  0  0  0  0  0
    1.5944   -1.4917   -0.0886 C   0  0  0  0  0  0  0  0  0  0  0  0
    1.6163   -2.5881   -0.0403 H   0  0  0  0  0  0  0  0  0  0  0  0
    0.4418    0.6880   -0.1961 C   0  0  0  0  0  0  0  0  0  0  0  0
   -1.1549    3.2246   -1.4888 C   0  0  0  0  0  0  0  0  0  0  0  0
   -0.0719    3.2938   -1.7307 H   0  0  0  0  0  0  0  0  0  0  0  0
   -1.6149    2.6297   -2.3055 H   0  0  0  0  0  0  0  0  0  0  0  0
    8.8757   -1.5382    0.0767 C   0  0  0  0  0  0  0  0  0  0  0  0
   -1.4054   -2.4849   -0.0262 C   0  0  0  0  0  0  0  0  0  0  0  0
   -0.8736   -2.9750    0.8175 H   0  0  0  0  0  0  0  0  0  0  0  0
   -2.4727   -2.3878    0.2623 H   0  0  0  0  0  0  0  0  0  0  0  0
    7.6309   -3.6440    0.1180 C   0  0  0  0  0  0  0  0  0  0  0  0
    7.6250   -4.7439    0.1544 H   0  0  0  0  0  0  0  0  0  0  0  0
    8.9037    1.3257   -0.0145 C   0  0  0  0  0  0  0  0  0  0  0  0
    6.4035   -1.5372    0.0217 C   0  0  0  0  0  0  0  0  0  0  0  0
    6.4319    1.3694   -0.0710 C   0  0  0  0  0  0  0  0  0  0  0  0
    7.7002    3.4537   -0.1081 C   0  0  0  0  0  0  0  0  0  0  0  0
    7.7159    4.5536   -0.1418 H   0  0  0  0  0  0  0  0  0  0  0  0
    2.8450    0.6773   -0.1328 C   0  0  0  0  0  0  0  0  0  0  0  0
   10.1130   -0.8034    0.0806 C   0  0  0  0  0  0  0  0  0  0  0  0
   11.0563   -1.3698    0.1200 H   0  0  0  0  0  0  0  0  0  0  0  0
    5.1537    0.6516   -0.0773 C   0  0  0  0  0  0  0  0  0  0  0  0
   -1.1334    5.5908   -0.4620 C   0  0  0  0  0  0  0  0  0  0  0  0
   -1.2801    5.2594    0.5862 H   0  0  0  0  0  0  0  0  0  0  0  0
   -0.0400    5.6833   -0.6323 H   0  0  0  0  0  0  0  0  0  0  0  0
   -1.5695    6.6064   -0.5444 H   0  0  0  0  0  0  0  0  0  0  0  0
    7.6510    0.6248   -0.0201 C   0  0  0  0  0  0  0  0  0  0  0  0
    7.6370   -0.8148    0.0257 C   0  0  0  0  0  0  0  0  0  0  0  0
    5.1395   -0.7964   -0.0310 C   0  0  0  0  0  0  0  0  0  0  0  0
    8.9011    2.7412   -0.0591 C   0  0  0  0  0  0  0  0  0  0  0  0
    9.8650    3.2736   -0.0542 H   0  0  0  0  0  0  0  0  0  0  0  0
    6.4157   -2.9419    0.0680 C   0  0  0  0  0  0  0  0  0  0  0  0
    5.4480   -3.4631    0.0642 H   0  0  0  0  0  0  0  0  0  0  0  0
    6.4715    2.7737   -0.1141 C   0  0  0  0  0  0  0  0  0  0  0  0
    5.5142    3.3123   -0.1519 H   0  0  0  0  0  0  0  0  0  0  0  0
    8.8455   -2.9534    0.1222 C   0  0  0  0  0  0  0  0  0  0  0  0
    9.7988   -3.5031    0.1615 H   0  0  0  0  0  0  0  0  0  0  0  0
   -3.3198   -4.7946   -0.9808 C   0  0  0  0  0  0  0  0  0  0  0  0
   -3.6347   -4.3204   -0.0290 H   0  0  0  0  0  0  0  0  0  0  0  0
   -3.8628   -4.2788   -1.8004 H   0  0  0  0  0  0  0  0  0  0  0  0
   -3.6726   -5.8448   -0.9548 H   0  0  0  0  0  0  0  0  0  0  0  0
  1 26  1  0  0  0  0
  1  4  1  0  0  0  0
  1  3  1  0  0  0  0
  2 31  1  0  0  0  0
  3  2  1  0  0  0  0
  4  5  1  0  0  0  0
  4  6  1  0  0  0  0
  7 51  1  0  0  0  0
  8 17  1  0  0  0  0
  8 31  1  0  0  0  0
  9  8  1  0  0  0  0
 10  8  1  0  0  0  0
 11 44  1  0  0  0  0
 12 14  1  0  0  0  0
 12 45  1  0  0  0  0
 13 12  1  0  0  0  0
 15 41  1  0  0  0  0
 16 15  1  0  0  0  0
 17 60  1  0  0  0  0
 17 19  1  0  0  0  0
 18 17  1  0  0  0  0
 20  7  2  0  0  0  0
 21  2  1  0  0  0  0
 21 24  2  0  0  0  0
 22 23  1  0  0  0  0
 22 42  1  0  0  0  0
 24 20  1  0  0  0  0
 24 25  1  0  0  0  0
 26 15  2  0  0  0  0
 26 21  1  0  0  0  0
 27 12  1  0  0  0  0
 27  4  1  0  0  0  0
 28 27  1  0  0  0  0
 29 27  1  0  0  0  0
 30 42  2  0  0  0  0
 30 58  1  0  0  0  0
 31 33  1  0  0  0  0
 31 32  1  0  0  0  0
 34 58  2  0  0  0  0
 34 35  1  0  0  0  0
 36 22  2  0  0  0  0
 37 50  1  0  0  0  0
 37 54  2  0  0  0  0
 38 49  1  0  0  0  0
 39 52  2  0  0  0  0
 40 39  1  0  0  0  0
 41 11  2  0  0  0  0
 41 20  1  0  0  0  0
 42 43  1  0  0  0  0
 44 38  1  0  0  0  0
 44 51  2  0  0  0  0
 45 46  1  0  0  0  0
 47 45  1  0  0  0  0
 48 45  1  0  0  0  0
 49 36  1  0  0  0  0
 49 50  2  0  0  0  0
 50 30  1  0  0  0  0
 51 37  1  0  0  0  0
 52 53  1  0  0  0  0
 52 36  1  0  0  0  0
 54 34  1  0  0  0  0
 55 54  1  0  0  0  0
 56 39  1  0  0  0  0
 56 38  2  0  0  0  0
 57 56  1  0  0  0  0
 58 59  1  0  0  0  0
 60 63  1  0  0  0  0
 60 61  1  0  0  0  0
 62 60  1  0  0  0  0
M  END
