34
 OpenBabel05122313113D

 35 35  0  0  0  0  0  0  0  0999 V2000
    1.2848    1.6157    1.7425 O   0  0  0  0  0  0  0  0  0  0  0  0
   -1.4125    1.3259    0.1127 N   0  0  0  0  0  0  0  0  0  0  0  0
   -2.5441    0.6413   -0.1694 C   0  0  0  0  0  3  0  0  0  0  0  0
   -2.3982   -0.6358    0.2373 N   0  0  0  0  0  0  0  0  0  0  0  0
   -1.1349   -0.7746    0.7752 C   0  0  0  0  0  0  0  0  0  0  0  0
   -0.7432   -1.7255    1.1436 H   0  0  0  0  0  0  0  0  0  0  0  0
   -0.4908    0.4451    0.6901 C   0  0  0  0  0  0  0  0  0  0  0  0
   -1.2090    2.7913   -0.1922 C   0  0  0  0  0  0  0  0  0  0  0  0
   -2.4329    3.3179   -0.9551 C   0  0  0  0  0  0  0  0  0  0  0  0
   -3.3644    3.2509   -0.3574 H   0  0  0  0  0  0  0  0  0  0  0  0
   -2.5765    2.8014   -1.9257 H   0  0  0  0  0  0  0  0  0  0  0  0
   -2.2648    4.3891   -1.1734 H   0  0  0  0  0  0  0  0  0  0  0  0
   -1.0651    3.5335    1.1463 C   0  0  0  0  0  0  0  0  0  0  0  0
   -1.9941    3.4421    1.7449 H   0  0  0  0  0  0  0  0  0  0  0  0
   -0.8827    4.6084    0.9505 H   0  0  0  0  0  0  0  0  0  0  0  0
   -0.2156    3.1199    1.7241 H   0  0  0  0  0  0  0  0  0  0  0  0
    0.0390    2.9397   -1.0779 C   0  0  0  0  0  0  0  0  0  0  0  0
    0.9628    2.6435   -0.5509 H   0  0  0  0  0  0  0  0  0  0  0  0
    0.1419    4.0024   -1.3710 H   0  0  0  0  0  0  0  0  0  0  0  0
   -0.0543    2.3256   -1.9945 H   0  0  0  0  0  0  0  0  0  0  0  0
   -3.3458   -1.7723    0.0045 C   0  0  0  0  0  0  0  0  0  0  0  0
   -4.6404   -1.2390   -0.6189 C   0  0  0  0  0  0  0  0  0  0  0  0
   -4.4642   -0.7892   -1.6161 H   0  0  0  0  0  0  0  0  0  0  0  0
   -5.1383   -0.4956    0.0354 H   0  0  0  0  0  0  0  0  0  0  0  0
   -5.3418   -2.0832   -0.7579 H   0  0  0  0  0  0  0  0  0  0  0  0
   -3.6412   -2.4331    1.3598 C   0  0  0  0  0  0  0  0  0  0  0  0
   -2.7195   -2.8190    1.8365 H   0  0  0  0  0  0  0  0  0  0  0  0
   -4.3272   -3.2896    1.2124 H   0  0  0  0  0  0  0  0  0  0  0  0
   -4.1206   -1.7166    2.0558 H   0  0  0  0  0  0  0  0  0  0  0  0
   -2.6507   -2.7506   -0.9601 C   0  0  0  0  0  0  0  0  0  0  0  0
   -2.3441   -2.2331   -1.8903 H   0  0  0  0  0  0  0  0  0  0  0  0
   -3.3405   -3.5773   -1.2183 H   0  0  0  0  0  0  0  0  0  0  0  0
   -1.7424   -3.1913   -0.5055 H   0  0  0  0  0  0  0  0  0  0  0  0
    0.9923    0.7061    0.9690 C   0  0  0  0  0  3  0  0  0  0  0  0
   -3.4250    1.0475   -0.6640 H   0  0  0  0  0  0  0  0  0  0  0  0
  2  7  1  0  0  0  0
  3  2  1  0  0  0  0
  3  4  1  0  0  0  0
  4  5  1  0  0  0  0
  5  6  1  0  0  0  0
  7  5  2  0  0  0  0
  7 34  1  0  0  0  0
  8  2  1  0  0  0  0
  8 13  1  0  0  0  0
  9 10  1  0  0  0  0
  9  8  1  0  0  0  0
 11  9  1  0  0  0  0
 12  9  1  0  0  0  0
 13 16  1  0  0  0  0
 13 14  1  0  0  0  0
 15 13  1  0  0  0  0
 17 18  1  0  0  0  0
 17  8  1  0  0  0  0
 19 17  1  0  0  0  0
 20 17  1  0  0  0  0
 21  4  1  0  0  0  0
 21 26  1  0  0  0  0
 22 21  1  0  0  0  0
 22 24  1  0  0  0  0
 23 22  1  0  0  0  0
 25 22  1  0  0  0  0
 26 27  1  0  0  0  0
 26 29  1  0  0  0  0
 28 26  1  0  0  0  0
 30 33  1  0  0  0  0
 30 21  1  0  0  0  0
 31 30  1  0  0  0  0
 32 30  1  0  0  0  0
 34  1  2  0  0  0  0
 35  3  1  0  0  0  0
M  END
