7
 OpenBabel05122313113D

 48 51  0  0  0  0  0  0  0  0999 V2000
    2.5244   -2.0612   -3.5198 C   0  0  0  0  0  0  0  0  0  0  0  0
    3.5510   -1.7627   -3.8163 H   0  0  0  0  0  0  0  0  0  0  0  0
    1.9265   -2.1478   -4.4497 H   0  0  0  0  0  0  0  0  0  0  0  0
    2.5876   -3.0664   -3.0558 H   0  0  0  0  0  0  0  0  0  0  0  0
    0.5643   -1.3912    0.0041 N   0  0  0  0  0  0  0  0  0  0  0  0
   -1.5895   -1.1735    0.0031 N   0  0  0  0  0  0  0  0  0  0  0  0
   -0.4206   -0.4346    0.0007 C   0  0  0  0  0  2  0  0  0  0  0  0
    0.0575   -2.6788    0.0086 C   0  0  0  0  0  0  0  0  0  0  0  0
    0.7038   -3.5601    0.0118 H   0  0  0  0  0  0  0  0  0  0  0  0
   -1.3196   -2.5641    0.0080 C   0  0  0  0  0  0  0  0  0  0  0  0
   -2.9167   -0.6861    0.0013 C   0  0  0  0  0  0  0  0  0  0  0  0
   -3.9761   -1.6459    0.0047 C   0  0  0  0  0  0  0  0  0  0  0  0
   -3.6878   -3.0628    0.0097 C   0  0  0  0  0  0  0  0  0  0  0  0
   -4.5285   -3.7724    0.0122 H   0  0  0  0  0  0  0  0  0  0  0  0
   -2.3930   -3.5082    0.0113 C   0  0  0  0  0  0  0  0  0  0  0  0
   -2.1479   -4.5792    0.0151 H   0  0  0  0  0  0  0  0  0  0  0  0
   -5.2880   -1.1179    0.0028 C   0  0  0  0  0  0  0  0  0  0  0  0
   -6.1431   -1.8113    0.0053 H   0  0  0  0  0  0  0  0  0  0  0  0
   -5.4830    0.2645   -0.0021 C   0  0  0  0  0  0  0  0  0  0  0  0
   -6.4937    0.6973   -0.0037 H   0  0  0  0  0  0  0  0  0  0  0  0
   -4.3495    1.1006   -0.0052 C   0  0  0  0  0  0  0  0  0  0  0  0
   -4.4536    2.1992   -0.0092 H   0  0  0  0  0  0  0  0  0  0  0  0
   -3.0977    0.6305   -0.0035 N   0  0  0  0  0  0  0  0  0  0  0  0
    1.9738   -1.0829    0.0032 C   0  0  0  0  0  0  0  0  0  0  0  0
    2.6293   -0.9316    1.2470 C   0  0  0  0  0  0  0  0  0  0  0  0
    1.8854   -1.0099    2.5735 C   0  0  0  0  0  0  0  0  0  0  0  0
    0.8509   -1.3496    2.3627 H   0  0  0  0  0  0  0  0  0  0  0  0
    1.7827    0.3878    3.2103 C   0  0  0  0  0  0  0  0  0  0  0  0
    2.7871    0.7888    3.4582 H   0  0  0  0  0  0  0  0  0  0  0  0
    1.1908    0.3468    4.1475 H   0  0  0  0  0  0  0  0  0  0  0  0
    1.2924    1.1025    2.5179 H   0  0  0  0  0  0  0  0  0  0  0  0
    2.5163   -2.0327    3.5318 C   0  0  0  0  0  0  0  0  0  0  0  0
    3.5452   -1.7391    3.8250 H   0  0  0  0  0  0  0  0  0  0  0  0
    2.5723   -3.0412    3.0740 H   0  0  0  0  0  0  0  0  0  0  0  0
    1.9188   -2.1095    4.4628 H   0  0  0  0  0  0  0  0  0  0  0  0
    4.0066   -0.6445    1.2163 C   0  0  0  0  0  0  0  0  0  0  0  0
    4.5494   -0.5107    2.1641 H   0  0  0  0  0  0  0  0  0  0  0  0
    4.6902   -0.5124    0.0017 C   0  0  0  0  0  0  0  0  0  0  0  0
    5.7665   -0.2828    0.0011 H   0  0  0  0  0  0  0  0  0  0  0  0
    4.0080   -0.6576   -1.2122 C   0  0  0  0  0  0  0  0  0  0  0  0
    4.5519   -0.5339   -2.1607 H   0  0  0  0  0  0  0  0  0  0  0  0
    2.6308   -0.9451   -1.2414 C   0  0  0  0  0  0  0  0  0  0  0  0
    1.8878   -1.0365   -2.5675 C   0  0  0  0  0  0  0  0  0  0  0  0
    0.8553   -1.3809   -2.3547 H   0  0  0  0  0  0  0  0  0  0  0  0
    1.7772    0.3569   -3.2127 C   0  0  0  0  0  0  0  0  0  0  0  0
    1.2826    1.0729   -2.5246 H   0  0  0  0  0  0  0  0  0  0  0  0
    1.1860    0.3070   -4.1499 H   0  0  0  0  0  0  0  0  0  0  0  0
    2.7795    0.7620   -3.4622 H   0  0  0  0  0  0  0  0  0  0  0  0
  1  4  1  0  0  0  0
  1 43  1  0  0  0  0
  2  1  1  0  0  0  0
  3  1  1  0  0  0  0
  5  8  1  0  0  0  0
  6 10  1  0  0  0  0
  7  6  1  0  0  0  0
  7  5  1  0  0  0  0
  8  9  1  0  0  0  0
 10  8  2  0  0  0  0
 10 15  1  0  0  0  0
 11  6  1  0  0  0  0
 11 12  1  0  0  0  0
 12 13  1  0  0  0  0
 13 15  2  0  0  0  0
 13 14  1  0  0  0  0
 15 16  1  0  0  0  0
 17 12  2  0  0  0  0
 17 18  1  0  0  0  0
 19 17  1  0  0  0  0
 20 19  1  0  0  0  0
 21 23  1  0  0  0  0
 21 19  2  0  0  0  0
 22 21  1  0  0  0  0
 23 11  2  0  0  0  0
 24  5  1  0  0  0  0
 24 25  1  0  0  0  0
 25 26  1  0  0  0  0
 26 28  1  0  0  0  0
 26 32  1  0  0  0  0
 27 26  1  0  0  0  0
 28 29  1  0  0  0  0
 28 30  1  0  0  0  0
 31 28  1  0  0  0  0
 32 33  1  0  0  0  0
 32 35  1  0  0  0  0
 34 32  1  0  0  0  0
 36 25  2  0  0  0  0
 36 37  1  0  0  0  0
 38 36  1  0  0  0  0
 39 38  1  0  0  0  0
 40 38  2  0  0  0  0
 41 40  1  0  0  0  0
 42 40  1  0  0  0  0
 42 24  2  0  0  0  0
 43 44  1  0  0  0  0
 43 42  1  0  0  0  0
 45 43  1  0  0  0  0
 45 46  1  0  0  0  0
 47 45  1  0  0  0  0
 48 45  1  0  0  0  0
M  END
