4
 OpenBabel05122313113D

 17 18  0  0  1  0  0  0  0  0999 V2000
   -2.9786   -2.2741   -1.4649 C   0  0  1  0  0  0  0  0  0  0  0  0
   -4.0572   -2.0562   -1.5398 H   0  0  0  0  0  0  0  0  0  0  0  0
   -2.4723   -2.6616   -0.0627 C   0  0  1  0  0  3  0  0  0  0  0  0
   -1.1546   -3.2546   -0.2547 C   0  0  0  0  0  3  0  0  0  0  0  0
   -0.6376   -3.9241    0.4455 H   0  0  0  0  0  0  0  0  0  0  0  0
   -0.9441   -3.2294   -1.7780 C   0  0  2  0  0  0  0  0  0  0  0  0
   -0.1441   -3.8739   -2.1786 H   0  0  0  0  0  0  0  0  0  0  0  0
   -0.7484   -1.7071   -1.9391 C   0  0  0  0  0  0  0  0  0  0  0  0
    0.1525   -1.2381   -2.3491 H   0  0  0  0  0  0  0  0  0  0  0  0
   -2.0055   -1.1119   -1.7332 C   0  0  0  0  0  0  0  0  0  0  0  0
   -2.2917   -0.0667   -1.9148 H   0  0  0  0  0  0  0  0  0  0  0  0
   -2.3805   -3.4100   -2.3220 C   0  0  0  0  0  0  0  0  0  0  0  0
   -2.4578   -3.2086   -3.4098 H   0  0  0  0  0  0  0  0  0  0  0  0
   -2.8094   -4.4061   -2.0866 H   0  0  0  0  0  0  0  0  0  0  0  0
   -2.8551   -2.0301    1.1211 C   0  0  0  0  0  3  0  0  0  0  0  0
   -2.4982   -2.4025    2.0911 H   0  0  0  0  0  0  0  0  0  0  0  0
   -3.7253   -1.3567    1.1283 H   0  0  0  0  0  0  0  0  0  0  0  0
  1  2  1  6  0  0  0
  1  3  1  0  0  0  0
  3 15  1  1  0  0  0
  4  3  1  0  0  0  0
  4  5  1  0  0  0  0
  6  7  1  6  0  0  0
  6  4  1  0  0  0  0
  8  6  1  0  0  0  0
  8 10  2  0  0  0  0
  9  8  1  0  0  0  0
 10  1  1  0  0  0  0
 11 10  1  0  0  0  0
 12 14  1  0  0  0  0
 12  6  1  0  0  0  0
 12  1  1  0  0  0  0
 13 12  1  0  0  0  0
 15 17  1  0  0  0  0
 15 16  1  0  0  0  0
M  END
