3
 OpenBabel05122313113D

 51 53  0  0  0  0  0  0  0  0999 V2000
   -0.3313   -2.3885    0.5378 N   0  0  0  0  0  0  0  0  0  0  0  0
    1.6253   -1.3979    0.4052 N   0  0  0  0  0  0  0  0  0  0  0  0
    0.2759   -1.1833    0.3266 C   0  0  0  0  0  2  0  0  0  0  0  0
   -4.4812   -3.1415    0.1100 C   0  0  0  0  0  0  0  0  0  0  0  0
   -5.9559   -3.4238   -0.0360 C   0  0  0  0  0  0  0  0  0  0  0  0
   -6.1683   -4.5064    0.0997 H   0  0  0  0  0  0  0  0  0  0  0  0
   -6.3286   -3.1428   -1.0407 H   0  0  0  0  0  0  0  0  0  0  0  0
   -6.5532   -2.8789    0.7216 H   0  0  0  0  0  0  0  0  0  0  0  0
   -2.5460   -2.6288    1.5391 C   0  0  0  0  0  0  0  0  0  0  0  0
    1.9555   -2.7309    0.9055 C   0  0  0  0  0  0  0  0  0  0  0  0
    2.2350   -2.6744    1.9837 H   0  0  0  0  0  0  0  0  0  0  0  0
    2.8090   -3.1685    0.3503 H   0  0  0  0  0  0  0  0  0  0  0  0
    0.6377   -3.4858    0.6865 C   0  0  0  0  0  0  0  0  0  0  0  0
    0.6595   -4.1105   -0.2351 H   0  0  0  0  0  0  0  0  0  0  0  0
    0.3629   -4.1434    1.5352 H   0  0  0  0  0  0  0  0  0  0  0  0
    6.6118    0.3189    1.7357 C   0  0  0  0  0  0  0  0  0  0  0  0
    6.9188   -0.7439    1.7792 H   0  0  0  0  0  0  0  0  0  0  0  0
    6.5366    0.6999    2.7752 H   0  0  0  0  0  0  0  0  0  0  0  0
    7.4268    0.8988    1.2307 H   0  0  0  0  0  0  0  0  0  0  0  0
   -1.9643   -2.2623    2.8784 C   0  0  0  0  0  0  0  0  0  0  0  0
   -1.1294   -2.9360    3.1627 H   0  0  0  0  0  0  0  0  0  0  0  0
   -2.7312   -2.3132    3.6744 H   0  0  0  0  0  0  0  0  0  0  0  0
   -1.5427   -1.2341    2.8579 H   0  0  0  0  0  0  0  0  0  0  0  0
    3.7886   -0.6316   -0.4976 C   0  0  0  0  0  0  0  0  0  0  0  0
   -3.6285   -3.1624   -1.0105 C   0  0  0  0  0  0  0  0  0  0  0  0
   -4.0536   -3.3522   -2.0094 H   0  0  0  0  0  0  0  0  0  0  0  0
   -3.9213   -2.8704    1.3734 C   0  0  0  0  0  0  0  0  0  0  0  0
   -4.5774   -2.8306    2.2580 H   0  0  0  0  0  0  0  0  0  0  0  0
    4.6499   -1.6795   -2.5330 C   0  0  0  0  0  0  0  0  0  0  0  0
    4.4637   -2.2020   -3.4832 H   0  0  0  0  0  0  0  0  0  0  0  0
    5.9606   -1.3996   -2.1185 C   0  0  0  0  0  0  0  0  0  0  0  0
    6.8165   -1.7080   -2.7386 H   0  0  0  0  0  0  0  0  0  0  0  0
    4.8172    1.8117    1.1181 C   0  0  0  0  0  0  0  0  0  0  0  0
    5.5099    2.5225    0.6006 H   0  0  0  0  0  0  0  0  0  0  0  0
    4.6945    2.1531    2.1672 H   0  0  0  0  0  0  0  0  0  0  0  0
    3.8347    1.8896    0.6193 H   0  0  0  0  0  0  0  0  0  0  0  0
   -1.7232   -2.6643    0.3900 C   0  0  0  0  0  0  0  0  0  0  0  0
    5.1137   -0.2828   -0.1088 C   0  0  0  0  0  0  0  0  0  0  0  0
   -2.2467   -2.9250   -0.8981 C   0  0  0  0  0  0  0  0  0  0  0  0
   -1.3627   -2.8558   -2.1155 C   0  0  0  0  0  0  0  0  0  0  0  0
   -0.9377   -1.8361   -2.2415 H   0  0  0  0  0  0  0  0  0  0  0  0
   -1.9271   -3.1127   -3.0317 H   0  0  0  0  0  0  0  0  0  0  0  0
   -0.4998   -3.5499   -2.0439 H   0  0  0  0  0  0  0  0  0  0  0  0
    6.1901   -0.7013   -0.9252 C   0  0  0  0  0  0  0  0  0  0  0  0
    7.2211   -0.4575   -0.6334 H   0  0  0  0  0  0  0  0  0  0  0  0
    2.6179   -0.3418    0.4163 C   0  0  0  0  0  0  0  0  0  0  0  0
    2.9875   -0.1664    1.4513 H   0  0  0  0  0  0  0  0  0  0  0  0
    2.1119    0.5949    0.0906 H   0  0  0  0  0  0  0  0  0  0  0  0
    5.3194    0.4421    1.0912 N   0  0  0  0  0  0  0  0  0  0  0  0
    3.5756   -1.2948   -1.7183 C   0  0  0  0  0  0  0  0  0  0  0  0
    2.5374   -1.5124   -2.0131 H   0  0  0  0  0  0  0  0  0  0  0  0
  1 13  1  0  0  0  0
  2 46  1  0  0  0  0
  2 10  1  0  0  0  0
  3  2  1  0  0  0  0
  3  1  1  0  0  0  0
  4 27  1  0  0  0  0
  5  6  1  0  0  0  0
  5  4  1  0  0  0  0
  5  8  1  0  0  0  0
  7  5  1  0  0  0  0
  9 20  1  0  0  0  0
 10 11  1  0  0  0  0
 12 10  1  0  0  0  0
 13 10  1  0  0  0  0
 13 15  1  0  0  0  0
 14 13  1  0  0  0  0
 16 17  1  0  0  0  0
 16 18  1  0  0  0  0
 19 16  1  0  0  0  0
 20 21  1  0  0  0  0
 20 22  1  0  0  0  0
 23 20  1  0  0  0  0
 24 38  1  0  0  0  0
 24 46  1  0  0  0  0
 25 39  1  0  0  0  0
 25  4  2  0  0  0  0
 26 25  1  0  0  0  0
 27  9  2  0  0  0  0
 27 28  1  0  0  0  0
 29 31  2  0  0  0  0
 29 50  1  0  0  0  0
 30 29  1  0  0  0  0
 31 44  1  0  0  0  0
 32 31  1  0  0  0  0
 33 35  1  0  0  0  0
 34 33  1  0  0  0  0
 36 33  1  0  0  0  0
 37  1  1  0  0  0  0
 37  9  1  0  0  0  0
 38 49  1  0  0  0  0
 39 37  2  0  0  0  0
 40 43  1  0  0  0  0
 40 39  1  0  0  0  0
 41 40  1  0  0  0  0
 42 40  1  0  0  0  0
 44 45  1  0  0  0  0
 44 38  2  0  0  0  0
 46 47  1  0  0  0  0
 48 46  1  0  0  0  0
 49 33  1  0  0  0  0
 49 16  1  0  0  0  0
 50 24  2  0  0  0  0
 51 50  1  0  0  0  0
M  END
