7
 OpenBabel05122313113D

 12 11  0  0  0  0  0  0  0  0999 V2000
    3.6948   -1.8634    1.5293 C   0  0  0  0  0  0  0  0  0  0  0  0
    2.9671   -1.5854    2.3126 H   0  0  0  0  0  0  0  0  0  0  0  0
    4.6521   -2.1306    2.0302 H   0  0  0  0  0  0  0  0  0  0  0  0
    3.3096   -2.7820    1.0471 H   0  0  0  0  0  0  0  0  0  0  0  0
    3.9301   -0.7603    0.5362 C   0  0  0  0  0  3  0  0  0  0  0  0
    4.5446   -1.0298   -0.3436 H   0  0  0  0  0  0  0  0  0  0  0  0
    3.8079    0.6111    0.8113 C   0  0  0  0  0  3  0  0  0  0  0  0
    4.3511    1.3003    0.1402 H   0  0  0  0  0  0  0  0  0  0  0  0
    3.3823    1.1919    2.1366 C   0  0  0  0  0  0  0  0  0  0  0  0
    2.9316    2.1965    2.0137 H   0  0  0  0  0  0  0  0  0  0  0  0
    4.2634    1.3093    2.8061 H   0  0  0  0  0  0  0  0  0  0  0  0
    2.6431    0.5558    2.6607 H   0  0  0  0  0  0  0  0  0  0  0  0
  1  3  1  0  0  0  0
  1  2  1  0  0  0  0
  4  1  1  0  0  0  0
  5  7  1  0  0  0  0
  5  1  1  0  0  0  0
  6  5  1  0  0  0  0
  7  9  1  0  0  0  0
  8  7  1  0  0  0  0
  9 12  1  0  0  0  0
  9 11  1  0  0  0  0
 10  9  1  0  0  0  0
M  END
