5
 OpenBabel05122313113D

 48 51  0  0  0  0  0  0  0  0999 V2000
   -4.1513   -0.3845   -0.7068 P   0  0  0  0  0  4  0  0  0  0  0  0
   -0.5958   -2.2499    0.4696 C   0  0  0  0  0  0  0  0  0  0  0  0
   -0.1096   -1.7144    1.7019 C   0  0  0  0  0  0  0  0  0  0  0  0
   -0.6887   -1.1348    2.4308 H   0  0  0  0  0  0  0  0  0  0  0  0
    1.3012   -1.9703    1.7677 C   0  0  0  0  0  3  0  0  0  0  0  0
    1.9693   -1.6640    2.5829 H   0  0  0  0  0  0  0  0  0  0  0  0
    1.6571   -2.8989    0.6899 C   0  0  0  0  0  0  0  0  0  0  0  0
    2.8691   -3.5135    0.3189 C   0  0  0  0  0  0  0  0  0  0  0  0
    3.7684   -3.3983    0.9422 H   0  0  0  0  0  0  0  0  0  0  0  0
    2.9027   -4.2775   -0.8571 C   0  0  0  0  0  0  0  0  0  0  0  0
    3.8390   -4.7724   -1.1558 H   0  0  0  0  0  0  0  0  0  0  0  0
    1.7543   -4.4170   -1.6669 C   0  0  0  0  0  0  0  0  0  0  0  0
    1.8131   -5.0164   -2.5880 H   0  0  0  0  0  0  0  0  0  0  0  0
    0.5399   -3.8063   -1.3185 C   0  0  0  0  0  0  0  0  0  0  0  0
   -0.3450   -3.9001   -1.9648 H   0  0  0  0  0  0  0  0  0  0  0  0
    0.4807   -3.0600   -0.1273 C   0  0  0  0  0  0  0  0  0  0  0  0
   -1.9765   -2.1150   -0.0992 C   0  0  0  0  0  0  0  0  0  0  0  0
   -2.6061   -2.9720    0.2290 H   0  0  0  0  0  0  0  0  0  0  0  0
   -1.9111   -2.1833   -1.2037 H   0  0  0  0  0  0  0  0  0  0  0  0
   -2.6246   -0.7778    0.2697 C   0  0  0  0  0  0  0  0  0  0  0  0
   -1.8964    0.0232    0.0321 H   0  0  0  0  0  0  0  0  0  0  0  0
   -2.8684   -0.7069    1.3491 H   0  0  0  0  0  0  0  0  0  0  0  0
   -5.5528   -0.8273    0.3926 C   0  0  0  0  0  0  0  0  0  0  0  0
   -6.5589   -1.6809   -0.1000 C   0  0  0  0  0  0  0  0  0  0  0  0
   -6.4860   -2.0527   -1.1332 H   0  0  0  0  0  0  0  0  0  0  0  0
   -7.6350   -2.0483    0.7238 C   0  0  0  0  0  0  0  0  0  0  0  0
   -8.4173   -2.7169    0.3334 H   0  0  0  0  0  0  0  0  0  0  0  0
   -7.7133   -1.5661    2.0392 C   0  0  0  0  0  0  0  0  0  0  0  0
   -8.5577   -1.8555    2.6834 H   0  0  0  0  0  0  0  0  0  0  0  0
   -6.7136   -0.7113    2.5346 C   0  0  0  0  0  0  0  0  0  0  0  0
   -6.7750   -0.3282    3.5647 H   0  0  0  0  0  0  0  0  0  0  0  0
   -5.6373   -0.3430    1.7156 C   0  0  0  0  0  0  0  0  0  0  0  0
   -4.8642    0.3386    2.1047 H   0  0  0  0  0  0  0  0  0  0  0  0
   -4.1432    1.4514   -0.7701 C   0  0  0  0  0  0  0  0  0  0  0  0
   -2.9841    2.0970   -1.2551 C   0  0  0  0  0  0  0  0  0  0  0  0
   -2.0869    1.5151   -1.5262 H   0  0  0  0  0  0  0  0  0  0  0  0
   -2.9687    3.4920   -1.3996 C   0  0  0  0  0  0  0  0  0  0  0  0
   -2.0592    3.9820   -1.7791 H   0  0  0  0  0  0  0  0  0  0  0  0
   -4.1030    4.2526   -1.0712 C   0  0  0  0  0  0  0  0  0  0  0  0
   -4.0881    5.3471   -1.1885 H   0  0  0  0  0  0  0  0  0  0  0  0
   -5.2599    3.6116   -0.6018 C   0  0  0  0  0  0  0  0  0  0  0  0
   -6.1551    4.2006   -0.3500 H   0  0  0  0  0  0  0  0  0  0  0  0
   -5.2842    2.2157   -0.4551 C   0  0  0  0  0  0  0  0  0  0  0  0
   -6.1969    1.7193   -0.0931 H   0  0  0  0  0  0  0  0  0  0  0  0
   -4.2234   -1.2205   -2.4313 B   0  0  0  0  0  0  0  0  0  0  0  0
   -5.2472   -0.7883   -2.9603 H   0  0  0  0  0  0  0  0  0  0  0  0
   -4.2514   -2.4320   -2.2018 H   0  0  0  0  0  0  0  0  0  0  0  0
   -3.1880   -0.8497   -2.9834 H   0  0  0  0  0  0  0  0  0  0  0  0
  1 20  1  0  0  0  0
  1 23  1  0  0  0  0
  2  3  2  0  0  0  0
  3  5  1  0  0  0  0
  3  4  1  0  0  0  0
  5  6  1  0  0  0  0
  7  5  1  0  0  0  0
  8  7  1  0  0  0  0
  8  9  1  0  0  0  0
 10  8  2  0  0  0  0
 11 10  1  0  0  0  0
 12 14  2  0  0  0  0
 12 10  1  0  0  0  0
 13 12  1  0  0  0  0
 14 16  1  0  0  0  0
 15 14  1  0  0  0  0
 16  2  1  0  0  0  0
 16  7  2  0  0  0  0
 17 18  1  0  0  0  0
 17 20  1  0  0  0  0
 17  2  1  0  0  0  0
 19 17  1  0  0  0  0
 20 22  1  0  0  0  0
 21 20  1  0  0  0  0
 23 32  1  0  0  0  0
 24 23  2  0  0  0  0
 24 26  1  0  0  0  0
 25 24  1  0  0  0  0
 26 28  2  0  0  0  0
 27 26  1  0  0  0  0
 28 30  1  0  0  0  0
 28 29  1  0  0  0  0
 30 31  1  0  0  0  0
 32 33  1  0  0  0  0
 32 30  2  0  0  0  0
 34  1  1  0  0  0  0
 34 43  1  0  0  0  0
 35 34  2  0  0  0  0
 36 35  1  0  0  0  0
 37 35  1  0  0  0  0
 37 39  2  0  0  0  0
 38 37  1  0  0  0  0
 39 41  1  0  0  0  0
 40 39  1  0  0  0  0
 41 43  2  0  0  0  0
 41 42  1  0  0  0  0
 43 44  1  0  0  0  0
 45 47  1  0  0  0  0
 45  1  1  0  0  0  0
 46 45  1  0  0  0  0
 48 45  1  0  0  0  0
M  END
