7
 OpenBabel05122313113D

 42 46  0  0  1  0  0  0  0  0999 V2000
   -0.8516    0.0926   -0.0366 P   0  0  0  0  0  0  0  0  0  0  0  0
    0.7826    0.7586    0.1500 N   0  0  0  0  0  0  0  0  0  0  0  0
    1.6026   -0.1077    1.0561 C   0  0  1  0  0  0  0  0  0  0  0  0
    1.2278   -0.1564    2.0938 H   0  0  0  0  0  0  0  0  0  0  0  0
    1.6869   -1.4497    0.2670 C   0  0  0  0  0  3  0  0  0  0  0  0
    2.1203   -2.3628    0.6973 H   0  0  0  0  0  0  0  0  0  0  0  0
    1.6981   -1.0780   -1.0781 C   0  0  0  0  0  3  0  0  0  0  0  0
    2.1447   -1.6398   -1.9096 H   0  0  0  0  0  0  0  0  0  0  0  0
    1.6122    0.4749   -1.0699 C   0  0  2  0  0  0  0  0  0  0  0  0
    1.2432    0.9617   -1.9904 H   0  0  0  0  0  0  0  0  0  0  0  0
    2.9652    0.9409   -0.5272 C   0  0  0  0  0  0  0  0  0  0  0  0
    4.0687    1.5634   -1.0995 C   0  0  0  0  0  0  0  0  0  0  0  0
    4.0760    1.8601   -2.1595 H   0  0  0  0  0  0  0  0  0  0  0  0
    5.1894    1.8134   -0.2721 C   0  0  0  0  0  0  0  0  0  0  0  0
    6.0755    2.3102   -0.6954 H   0  0  0  0  0  0  0  0  0  0  0  0
    5.1851    1.4387    1.0785 C   0  0  0  0  0  0  0  0  0  0  0  0
    6.0677    1.6455    1.7025 H   0  0  0  0  0  0  0  0  0  0  0  0
    4.0599    0.8003    1.6527 C   0  0  0  0  0  0  0  0  0  0  0  0
    4.0602    0.5102    2.7145 H   0  0  0  0  0  0  0  0  0  0  0  0
    2.9605    0.5634    0.8357 C   0  0  0  0  0  0  0  0  0  0  0  0
   -1.5415    0.3675    1.6408 C   0  0  0  0  0  0  0  0  0  0  0  0
   -1.7840    1.6553    2.1599 C   0  0  0  0  0  0  0  0  0  0  0  0
   -1.5928    2.5429    1.5383 H   0  0  0  0  0  0  0  0  0  0  0  0
   -2.2723    1.8007    3.4657 C   0  0  0  0  0  0  0  0  0  0  0  0
   -2.4606    2.8068    3.8707 H   0  0  0  0  0  0  0  0  0  0  0  0
   -2.5247    0.6657    4.2559 C   0  0  0  0  0  0  0  0  0  0  0  0
   -2.9119    0.7848    5.2795 H   0  0  0  0  0  0  0  0  0  0  0  0
   -2.2889   -0.6183    3.7402 C   0  0  0  0  0  0  0  0  0  0  0  0
   -2.4901   -1.5078    4.3562 H   0  0  0  0  0  0  0  0  0  0  0  0
   -1.7989   -0.7695    2.4334 C   0  0  0  0  0  0  0  0  0  0  0  0
   -1.6098   -1.7699    2.0102 H   0  0  0  0  0  0  0  0  0  0  0  0
   -1.6306    1.3758   -1.0829 C   0  0  0  0  0  0  0  0  0  0  0  0
   -1.1012    2.6783   -1.1961 C   0  0  0  0  0  0  0  0  0  0  0  0
   -0.1826    2.9319   -0.6443 H   0  0  0  0  0  0  0  0  0  0  0  0
   -1.7422    3.6224   -2.0126 C   0  0  0  0  0  0  0  0  0  0  0  0
   -1.3269    4.6380   -2.1032 H   0  0  0  0  0  0  0  0  0  0  0  0
   -2.9099    3.2754   -2.7118 C   0  0  0  0  0  0  0  0  0  0  0  0
   -3.4102    4.0192   -3.3505 H   0  0  0  0  0  0  0  0  0  0  0  0
   -3.4348    1.9768   -2.6037 C   0  0  0  0  0  0  0  0  0  0  0  0
   -4.3443    1.7009   -3.1587 H   0  0  0  0  0  0  0  0  0  0  0  0
   -2.7938    1.0243   -1.7984 C   0  0  0  0  0  0  0  0  0  0  0  0
   -3.1882   -0.0018   -1.7263 H   0  0  0  0  0  0  0  0  0  0  0  0
  1  2  1  0  0  0  0
  1 21  1  0  0  0  0
  2  3  1  0  0  0  0
  3  4  1  1  0  0  0
  5  6  1  0  0  0  0
  5  3  1  0  0  0  0
  7  9  1  0  0  0  0
  7  5  1  0  0  0  0
  8  7  1  0  0  0  0
  9 10  1  6  0  0  0
  9 11  1  0  0  0  0
  9  2  1  0  0  0  0
 11 20  1  0  0  0  0
 12 11  2  0  0  0  0
 12 14  1  0  0  0  0
 13 12  1  0  0  0  0
 14 16  2  0  0  0  0
 15 14  1  0  0  0  0
 16 18  1  0  0  0  0
 16 17  1  0  0  0  0
 18 19  1  0  0  0  0
 20  3  1  0  0  0  0
 20 18  2  0  0  0  0
 21 22  2  0  0  0  0
 21 30  1  0  0  0  0
 22 24  1  0  0  0  0
 23 22  1  0  0  0  0
 24 25  1  0  0  0  0
 24 26  2  0  0  0  0
 26 27  1  0  0  0  0
 28 26  1  0  0  0  0
 28 29  1  0  0  0  0
 30 28  2  0  0  0  0
 31 30  1  0  0  0  0
 32  1  1  0  0  0  0
 33 32  1  0  0  0  0
 33 34  1  0  0  0  0
 35 33  2  0  0  0  0
 36 35  1  0  0  0  0
 37 39  2  0  0  0  0
 37 35  1  0  0  0  0
 38 37  1  0  0  0  0
 39 41  1  0  0  0  0
 40 39  1  0  0  0  0
 41 42  1  0  0  0  0
 41 32  2  0  0  0  0
M  END
