4
 OpenBabel05122313113D

 20 21  0  0  0  0  0  0  0  0999 V2000
    2.9522    1.6657   -0.1116 S   0  0  0  0  0  0  0  0  0  0  0  0
    5.7821    0.2473    0.0744 S   0  0  0  0  0  0  0  0  0  0  0  0
    0.3219    2.3324   -0.3922 O   0  0  0  0  0  0  0  0  0  0  0  0
    0.2408    1.0324   -0.1078 C   0  0  0  0  0  2  0  0  0  0  0  0
    1.5794    0.5137   -0.0140 C   0  0  0  0  0  0  0  0  0  0  0  0
    2.0225   -0.8103    0.1030 C   0  0  0  0  0  0  0  0  0  0  0  0
    1.3254   -1.6597    0.0941 H   0  0  0  0  0  0  0  0  0  0  0  0
    3.4344   -0.9202    0.1296 C   0  0  0  0  0  0  0  0  0  0  0  0
    4.0586    0.3519    0.0327 C   0  0  0  0  0  0  0  0  0  0  0  0
    5.6890   -1.5054    0.2149 C   0  0  0  0  0  0  0  0  0  0  0  0
    6.6261   -2.0725    0.2776 H   0  0  0  0  0  0  0  0  0  0  0  0
    4.4021   -1.9813    0.2302 C   0  0  0  0  0  0  0  0  0  0  0  0
    4.1487   -3.0464    0.3107 H   0  0  0  0  0  0  0  0  0  0  0  0
   -0.8076    3.2022   -0.6150 C   0  0  0  0  0  0  0  0  0  0  0  0
   -1.5685    3.0195    0.1673 H   0  0  0  0  0  0  0  0  0  0  0  0
   -1.2484    2.9440   -1.5995 H   0  0  0  0  0  0  0  0  0  0  0  0
   -0.2970    4.6279   -0.5887 C   0  0  0  0  0  0  0  0  0  0  0  0
    0.4771    4.7888   -1.3644 H   0  0  0  0  0  0  0  0  0  0  0  0
    0.1382    4.8747    0.3994 H   0  0  0  0  0  0  0  0  0  0  0  0
   -1.1348    5.3259   -0.7831 H   0  0  0  0  0  0  0  0  0  0  0  0
  1  5  1  0  0  0  0
  1  9  1  0  0  0  0
  2 10  1  0  0  0  0
  3  4  1  0  0  0  0
  4  5  1  0  0  0  0
  5  6  2  0  0  0  0
  6  8  1  0  0  0  0
  7  6  1  0  0  0  0
  8 12  1  0  0  0  0
  9  2  1  0  0  0  0
  9  8  2  0  0  0  0
 10 12  2  0  0  0  0
 10 11  1  0  0  0  0
 12 13  1  0  0  0  0
 14 17  1  0  0  0  0
 14  3  1  0  0  0  0
 14 15  1  0  0  0  0
 16 14  1  0  0  0  0
 17 19  1  0  0  0  0
 18 17  1  0  0  0  0
 20 17  1  0  0  0  0
M  END
