4
 OpenBabel05122313113D

 29 29  0  0  0  0  0  0  0  0999 V2000
   -0.1882    3.0208   -0.0001 N   0  0  0  0  0  0  0  0  0  0  0  0
   -2.2212    1.9297   -0.0003 N   0  0  0  0  0  0  0  0  0  0  0  0
   -2.7086    2.8340   -0.0010 H   0  0  0  0  0  0  0  0  0  0  0  0
   -0.8749    1.8673   -0.0002 C   0  0  0  0  0  2  0  0  0  0  0  0
   -0.8666    4.3161    0.0001 C   0  0  0  0  0  0  0  0  0  0  0  0
   -1.5032    4.4374    0.9033 H   0  0  0  0  0  0  0  0  0  0  0  0
   -1.4992    4.4401   -0.9056 H   0  0  0  0  0  0  0  0  0  0  0  0
   -0.1171    5.1263    0.0031 H   0  0  0  0  0  0  0  0  0  0  0  0
    1.2729    3.0413   -0.0010 C   0  0  0  0  0  0  0  0  0  0  0  0
    1.6569    2.0045   -0.0015 H   0  0  0  0  0  0  0  0  0  0  0  0
    1.6548    3.5628    0.9006 H   0  0  0  0  0  0  0  0  0  0  0  0
    1.6537    3.5631   -0.9029 H   0  0  0  0  0  0  0  0  0  0  0  0
   -3.0475    0.7488    0.0002 C   0  0  0  0  0  0  0  0  0  0  0  0
   -3.4419    0.1946   -1.2405 C   0  0  0  0  0  0  0  0  0  0  0  0
   -4.2581   -0.9525   -1.2152 C   0  0  0  0  0  0  0  0  0  0  0  0
   -4.5821   -1.3992   -2.1676 H   0  0  0  0  0  0  0  0  0  0  0  0
   -4.6650   -1.5185    0.0011 C   0  0  0  0  0  0  0  0  0  0  0  0
   -5.3121   -2.4085    0.0015 H   0  0  0  0  0  0  0  0  0  0  0  0
   -4.2573   -0.9521    1.2169 C   0  0  0  0  0  0  0  0  0  0  0  0
   -4.5807   -1.3984    2.1697 H   0  0  0  0  0  0  0  0  0  0  0  0
   -3.4410    0.1950    1.2413 C   0  0  0  0  0  0  0  0  0  0  0  0
   -2.9791    0.8014   -2.5387 C   0  0  0  0  0  0  0  0  0  0  0  0
   -1.8739    0.7393   -2.6359 H   0  0  0  0  0  0  0  0  0  0  0  0
   -3.2436    1.8763   -2.6109 H   0  0  0  0  0  0  0  0  0  0  0  0
   -3.4286    0.2818   -3.4051 H   0  0  0  0  0  0  0  0  0  0  0  0
   -2.9775    0.8023    2.5390 C   0  0  0  0  0  0  0  0  0  0  0  0
   -3.2416    1.8774    2.6108 H   0  0  0  0  0  0  0  0  0  0  0  0
   -1.8723    0.7400    2.6357 H   0  0  0  0  0  0  0  0  0  0  0  0
   -3.4267    0.2833    3.4058 H   0  0  0  0  0  0  0  0  0  0  0  0
  1  5  1  0  0  0  0
  2  4  1  0  0  0  0
  2 13  1  0  0  0  0
  3  2  1  0  0  0  0
  4  1  1  0  0  0  0
  5  8  1  0  0  0  0
  5  6  1  0  0  0  0
  7  5  1  0  0  0  0
  9  1  1  0  0  0  0
  9 11  1  0  0  0  0
 10  9  1  0  0  0  0
 12  9  1  0  0  0  0
 13 21  1  0  0  0  0
 14 15  1  0  0  0  0
 14 13  2  0  0  0  0
 15 17  2  0  0  0  0
 16 15  1  0  0  0  0
 17 18  1  0  0  0  0
 17 19  1  0  0  0  0
 19 21  2  0  0  0  0
 19 20  1  0  0  0  0
 21 26  1  0  0  0  0
 22 14  1  0  0  0  0
 23 22  1  0  0  0  0
 24 22  1  0  0  0  0
 25 22  1  0  0  0  0
 26 27  1  0  0  0  0
 26 28  1  0  0  0  0
 26 29  1  0  0  0  0
M  END
