4
 OpenBabel05122313113D

 20 21  0  0  0  0  0  0  0  0999 V2000
   -2.8336    1.9791   -0.1006 S   0  0  0  0  0  0  0  0  0  0  0  0
   -4.7669   -1.7436    0.2064 S   0  0  0  0  0  0  0  0  0  0  0  0
   -0.1485    2.4305   -0.3677 O   0  0  0  0  0  0  0  0  0  0  0  0
   -0.1810    1.1246   -0.1008 C   0  0  0  0  0  2  0  0  0  0  0  0
   -1.5606    0.7242   -0.0180 C   0  0  0  0  0  0  0  0  0  0  0  0
   -2.1056   -0.5674    0.0816 C   0  0  0  0  0  0  0  0  0  0  0  0
   -1.4814   -1.4712    0.0596 H   0  0  0  0  0  0  0  0  0  0  0  0
   -3.5115   -0.5342    0.1036 C   0  0  0  0  0  0  0  0  0  0  0  0
   -4.0675    0.7694    0.0242 C   0  0  0  0  0  0  0  0  0  0  0  0
   -5.4902    0.7817    0.0545 C   0  0  0  0  0  0  0  0  0  0  0  0
   -6.1218    1.6776    0.0060 H   0  0  0  0  0  0  0  0  0  0  0  0
   -5.9903   -0.5061    0.1506 C   0  0  0  0  0  0  0  0  0  0  0  0
   -7.0462   -0.8034    0.1920 H   0  0  0  0  0  0  0  0  0  0  0  0
    1.0531    3.2029   -0.5690 C   0  0  0  0  0  0  0  0  0  0  0  0
    1.5049    2.8920   -1.5328 H   0  0  0  0  0  0  0  0  0  0  0  0
    1.7713    2.9777    0.2423 H   0  0  0  0  0  0  0  0  0  0  0  0
    0.6561    4.6647   -0.5851 C   0  0  0  0  0  0  0  0  0  0  0  0
    1.5526    5.2911   -0.7599 H   0  0  0  0  0  0  0  0  0  0  0  0
    0.2065    4.9636    0.3820 H   0  0  0  0  0  0  0  0  0  0  0  0
   -0.0752    4.8701   -1.3913 H   0  0  0  0  0  0  0  0  0  0  0  0
  1  5  1  0  0  0  0
  1  9  1  0  0  0  0
  3  4  1  0  0  0  0
  4  5  1  0  0  0  0
  5  6  2  0  0  0  0
  6  8  1  0  0  0  0
  7  6  1  0  0  0  0
  8  2  1  0  0  0  0
  9 10  1  0  0  0  0
  9  8  2  0  0  0  0
 10 12  2  0  0  0  0
 11 10  1  0  0  0  0
 12 13  1  0  0  0  0
 12  2  1  0  0  0  0
 14  3  1  0  0  0  0
 14 16  1  0  0  0  0
 15 14  1  0  0  0  0
 17 14  1  0  0  0  0
 17 19  1  0  0  0  0
 18 17  1  0  0  0  0
 20 17  1  0  0  0  0
M  END
