1
 OpenBabel05122313113D

 57 61  0  0  0  0  0  0  0  0999 V2000
   -0.0841   -0.1465    0.8223 C   0  0  0  0  0  2  0  0  0  0  0  0
   -0.9767    0.8479    1.1076 N   0  0  0  0  0  0  0  0  0  0  0  0
   -2.2855    0.5843    1.7390 C   0  0  0  0  0  0  0  0  0  0  0  0
   -2.9542    1.4332    1.5118 H   0  0  0  0  0  0  0  0  0  0  0  0
   -2.7211   -0.3045    1.2419 H   0  0  0  0  0  0  0  0  0  0  0  0
   -2.1548    0.3606    3.2431 C   0  0  0  0  0  0  0  0  0  0  0  0
   -3.1469    0.0449    3.6307 H   0  0  0  0  0  0  0  0  0  0  0  0
   -1.9010    1.3133    3.7526 H   0  0  0  0  0  0  0  0  0  0  0  0
   -0.6092    2.2272    0.9266 C   0  0  0  0  0  0  0  0  0  0  0  0
    0.5590    2.7036    1.5526 C   0  0  0  0  0  0  0  0  0  0  0  0
    1.1454    2.0160    2.1789 H   0  0  0  0  0  0  0  0  0  0  0  0
    0.9577    4.0392    1.4020 C   0  0  0  0  0  0  0  0  0  0  0  0
    1.8785    4.3858    1.8943 H   0  0  0  0  0  0  0  0  0  0  0  0
    0.1785    4.9187    0.6383 C   0  0  0  0  0  0  0  0  0  0  0  0
    0.4809    5.9690    0.5105 H   0  0  0  0  0  0  0  0  0  0  0  0
   -0.9980    4.4536    0.0368 C   0  0  0  0  0  0  0  0  0  0  0  0
   -1.6075    5.1336   -0.5772 H   0  0  0  0  0  0  0  0  0  0  0  0
   -1.4149    3.1074    0.1545 C   0  0  0  0  0  0  0  0  0  0  0  0
   -2.6678    2.7109   -0.5517 C   0  0  0  0  0  0  0  0  0  0  0  0
   -2.7046    1.6634   -1.4976 C   0  0  0  0  0  0  0  0  0  0  0  0
   -1.7939    1.0837   -1.7007 H   0  0  0  0  0  0  0  0  0  0  0  0
   -3.8768    1.3822   -2.2142 C   0  0  0  0  0  0  0  0  0  0  0  0
   -3.8697    0.5812   -2.9690 H   0  0  0  0  0  0  0  0  0  0  0  0
   -5.0472    2.1216   -1.9802 C   0  0  0  0  0  0  0  0  0  0  0  0
   -5.9672    1.8963   -2.5406 H   0  0  0  0  0  0  0  0  0  0  0  0
   -5.0313    3.1553   -1.0307 C   0  0  0  0  0  0  0  0  0  0  0  0
   -5.9427    3.7410   -0.8361 H   0  0  0  0  0  0  0  0  0  0  0  0
   -3.8523    3.4515   -0.3318 C   0  0  0  0  0  0  0  0  0  0  0  0
   -3.8414    4.2664    0.4083 H   0  0  0  0  0  0  0  0  0  0  0  0
   -0.4090   -1.4209    1.2165 N   0  0  0  0  0  0  0  0  0  0  0  0
   -1.0630   -1.8176    2.4927 C   0  0  0  0  0  0  0  0  0  0  0  0
   -0.4533   -2.6593    2.8789 H   0  0  0  0  0  0  0  0  0  0  0  0
   -2.0796   -2.2270    2.2950 H   0  0  0  0  0  0  0  0  0  0  0  0
   -1.0884   -0.7041    3.5375 C   0  0  0  0  0  0  0  0  0  0  0  0
   -1.2635   -1.1615    4.5322 H   0  0  0  0  0  0  0  0  0  0  0  0
   -0.0724   -0.2559    3.5733 H   0  0  0  0  0  0  0  0  0  0  0  0
    0.2110   -2.5304    0.5277 C   0  0  0  0  0  0  0  0  0  0  0  0
    1.5669   -2.8310    0.7567 C   0  0  0  0  0  0  0  0  0  0  0  0
    2.1294   -2.2089    1.4683 H   0  0  0  0  0  0  0  0  0  0  0  0
    2.1692   -3.9185    0.1087 C   0  0  0  0  0  0  0  0  0  0  0  0
    3.2317   -4.1391    0.2913 H   0  0  0  0  0  0  0  0  0  0  0  0
    1.4135   -4.7211   -0.7608 C   0  0  0  0  0  0  0  0  0  0  0  0
    1.8820   -5.5676   -1.2855 H   0  0  0  0  0  0  0  0  0  0  0  0
    0.0505   -4.4590   -0.9398 C   0  0  0  0  0  0  0  0  0  0  0  0
   -0.5528   -5.0993   -1.6010 H   0  0  0  0  0  0  0  0  0  0  0  0
   -0.5822   -3.3694   -0.2948 C   0  0  0  0  0  0  0  0  0  0  0  0
   -2.0560   -3.2051   -0.4188 C   0  0  0  0  0  0  0  0  0  0  0  0
   -2.6633   -1.9811   -0.7746 C   0  0  0  0  0  0  0  0  0  0  0  0
   -2.0317   -1.1148   -1.0151 H   0  0  0  0  0  0  0  0  0  0  0  0
   -4.0601   -1.8650   -0.8334 C   0  0  0  0  0  0  0  0  0  0  0  0
   -4.5103   -0.8973   -1.0991 H   0  0  0  0  0  0  0  0  0  0  0  0
   -4.8777   -2.9715   -0.5530 C   0  0  0  0  0  0  0  0  0  0  0  0
   -5.9732   -2.8747   -0.5965 H   0  0  0  0  0  0  0  0  0  0  0  0
   -4.2880   -4.2004   -0.2200 C   0  0  0  0  0  0  0  0  0  0  0  0
   -4.9181   -5.0758    0.0001 H   0  0  0  0  0  0  0  0  0  0  0  0
   -2.8921   -4.3136   -0.1517 C   0  0  0  0  0  0  0  0  0  0  0  0
   -2.4316   -5.2708    0.1370 H   0  0  0  0  0  0  0  0  0  0  0  0
  1  2  1  0  0  0  0
  1 30  1  0  0  0  0
  2  3  1  0  0  0  0
  3  6  1  0  0  0  0
  4  3  1  0  0  0  0
  5  3  1  0  0  0  0
  6 34  1  0  0  0  0
  6  7  1  0  0  0  0
  6  8  1  0  0  0  0
  9  2  1  0  0  0  0
  9 10  1  0  0  0  0
 10 11  1  0  0  0  0
 12 10  2  0  0  0  0
 12 13  1  0  0  0  0
 14 12  1  0  0  0  0
 15 14  1  0  0  0  0
 16 18  1  0  0  0  0
 16 14  2  0  0  0  0
 17 16  1  0  0  0  0
 18  9  2  0  0  0  0
 19 28  1  0  0  0  0
 19 18  1  0  0  0  0
 20 19  2  0  0  0  0
 21 20  1  0  0  0  0
 22 24  2  0  0  0  0
 22 20  1  0  0  0  0
 23 22  1  0  0  0  0
 24 26  1  0  0  0  0
 25 24  1  0  0  0  0
 26 27  1  0  0  0  0
 26 28  2  0  0  0  0
 28 29  1  0  0  0  0
 30 31  1  0  0  0  0
 31 32  1  0  0  0  0
 31 34  1  0  0  0  0
 33 31  1  0  0  0  0
 34 36  1  0  0  0  0
 34 35  1  0  0  0  0
 37 38  1  0  0  0  0
 37 30  1  0  0  0  0
 38 39  1  0  0  0  0
 40 41  1  0  0  0  0
 40 38  2  0  0  0  0
 42 40  1  0  0  0  0
 43 42  1  0  0  0  0
 44 42  2  0  0  0  0
 44 46  1  0  0  0  0
 45 44  1  0  0  0  0
 46 37  2  0  0  0  0
 47 46  1  0  0  0  0
 47 56  1  0  0  0  0
 48 47  2  0  0  0  0
 49 48  1  0  0  0  0
 50 48  1  0  0  0  0
 50 52  2  0  0  0  0
 51 50  1  0  0  0  0
 52 54  1  0  0  0  0
 53 52  1  0  0  0  0
 54 56  2  0  0  0  0
 54 55  1  0  0  0  0
 56 57  1  0  0  0  0
M  END
