3
 OpenBabel05122313113D

 17 17  0  0  0  0  0  0  0  0999 V2000
    1.3745   -2.9208    2.4597 C   0  0  0  0  0  0  0  0  0  0  0  0
    1.0863   -1.8958    1.4277 C   0  0  0  0  0  3  0  0  0  0  0  0
    1.7087   -1.1569    0.5211 C   0  0  0  0  0  3  0  0  0  0  0  0
    3.0479   -0.8605    0.0463 C   0  0  0  0  0  0  0  0  0  0  0  0
    4.0177   -1.8854   -0.0897 C   0  0  0  0  0  0  0  0  0  0  0  0
    5.3097   -1.5924   -0.5452 C   0  0  0  0  0  0  0  0  0  0  0  0
    5.6656   -0.2701   -0.8623 C   0  0  0  0  0  0  0  0  0  0  0  0
    4.7178    0.7574   -0.7159 C   0  0  0  0  0  0  0  0  0  0  0  0
    3.4218    0.4686   -0.2719 C   0  0  0  0  0  0  0  0  0  0  0  0
    1.1226   -3.9294    2.0664 H   0  0  0  0  0  0  0  0  0  0  0  0
    0.7635   -2.7892    3.3746 H   0  0  0  0  0  0  0  0  0  0  0  0
    2.4505   -2.9234    2.7309 H   0  0  0  0  0  0  0  0  0  0  0  0
    3.7347   -2.9221    0.1489 H   0  0  0  0  0  0  0  0  0  0  0  0
    6.0473   -2.4026   -0.6545 H   0  0  0  0  0  0  0  0  0  0  0  0
    6.6809   -0.0411   -1.2201 H   0  0  0  0  0  0  0  0  0  0  0  0
    4.9910    1.7965   -0.9558 H   0  0  0  0  0  0  0  0  0  0  0  0
    2.6773    1.2692   -0.1575 H   0  0  0  0  0  0  0  0  0  0  0  0
  1 12  1  0  0  0  0
  1 11  1  0  0  0  0
  2  1  1  0  0  0  0
  3  2  2  0  0  0  0
  4  3  1  0  0  0  0
  5  4  1  0  0  0  0
  5 13  1  0  0  0  0
  6  5  2  0  0  0  0
  7  8  2  0  0  0  0
  7  6  1  0  0  0  0
  8  9  1  0  0  0  0
  9 17  1  0  0  0  0
  9  4  2  0  0  0  0
 10  1  1  0  0  0  0
 14  6  1  0  0  0  0
 15  7  1  0  0  0  0
 16  8  1  0  0  0  0
M  END
