10
 OpenBabel05122313113D

 32 34  0  0  0  0  0  0  0  0999 V2000
    2.6804    1.5054   -1.0974 C   0  0  0  0  0  0  0  0  0  0  0  0
    4.0732    1.5250   -0.8988 C   0  0  0  0  0  0  0  0  0  0  0  0
    4.5753    2.1018    0.2815 C   0  0  0  0  0  0  0  0  0  0  0  0
    3.7204    2.6497    1.2618 C   0  0  0  0  0  0  0  0  0  0  0  0
    2.3347    2.6133    1.0361 C   0  0  0  0  0  0  0  0  0  0  0  0
    1.7961    2.0458   -0.1430 C   0  0  0  0  0  0  0  0  0  0  0  0
    4.9875    0.8853   -1.9111 C   0  0  0  0  0  0  0  0  0  0  0  0
    4.2922    3.2805    2.5072 C   0  0  0  0  0  0  0  0  0  0  0  0
    0.3380    2.0374   -0.3707 C   0  0  0  0  0  0  0  0  0  0  0  0
   -0.6780    2.1861    0.6335 C   0  0  0  0  0  3  0  0  0  0  0  0
   -1.9596    2.2083   -0.0119 C   0  0  0  0  0  0  0  0  0  0  0  0
   -3.2865    2.3873    0.4766 C   0  0  0  0  0  0  0  0  0  0  0  0
   -4.3297    2.4106   -0.4353 C   0  0  0  0  0  0  0  0  0  0  0  0
   -4.1018    2.2386   -1.8354 C   0  0  0  0  0  0  0  0  0  0  0  0
   -2.8279    2.0355   -2.3412 C   0  0  0  0  0  0  0  0  0  0  0  0
   -1.7299    2.0163   -1.4358 C   0  0  0  0  0  0  0  0  0  0  0  0
   -0.3185    1.8610   -1.6299 C   0  0  0  0  0  0  0  0  0  0  0  0
    2.2749    1.0164   -1.9952 H   0  0  0  0  0  0  0  0  0  0  0  0
    5.6653    2.1237    0.4469 H   0  0  0  0  0  0  0  0  0  0  0  0
    1.6606    3.0657    1.7795 H   0  0  0  0  0  0  0  0  0  0  0  0
    4.7173    1.1783   -2.9454 H   0  0  0  0  0  0  0  0  0  0  0  0
    6.0473    1.1551   -1.7382 H   0  0  0  0  0  0  0  0  0  0  0  0
    4.9050   -0.2212   -1.8548 H   0  0  0  0  0  0  0  0  0  0  0  0
    3.5024    3.5239    3.2439 H   0  0  0  0  0  0  0  0  0  0  0  0
    4.8289    4.2228    2.2676 H   0  0  0  0  0  0  0  0  0  0  0  0
    5.0266    2.6109    3.0000 H   0  0  0  0  0  0  0  0  0  0  0  0
   -0.5049    2.3659    1.6985 H   0  0  0  0  0  0  0  0  0  0  0  0
   -3.4671    2.5116    1.5539 H   0  0  0  0  0  0  0  0  0  0  0  0
   -5.3598    2.5586   -0.0780 H   0  0  0  0  0  0  0  0  0  0  0  0
   -4.9619    2.2597   -2.5211 H   0  0  0  0  0  0  0  0  0  0  0  0
   -2.6578    1.8870   -3.4172 H   0  0  0  0  0  0  0  0  0  0  0  0
    0.1769    1.7257   -2.5960 H   0  0  0  0  0  0  0  0  0  0  0  0
  1  2  2  0  0  0  0
  1  6  1  0  0  0  0
  2  3  1  0  0  0  0
  3 19  1  0  0  0  0
  3  4  2  0  0  0  0
  4  8  1  0  0  0  0
  5  4  1  0  0  0  0
  5 20  1  0  0  0  0
  6  5  2  0  0  0  0
  7 23  1  0  0  0  0
  7 22  1  0  0  0  0
  7  2  1  0  0  0  0
  8 26  1  0  0  0  0
  8 24  1  0  0  0  0
  9  6  1  0  0  0  0
  9 10  1  0  0  0  0
 10 27  1  0  0  0  0
 11 12  1  0  0  0  0
 11 10  1  0  0  0  0
 12 28  1  0  0  0  0
 13 29  1  0  0  0  0
 13 12  2  0  0  0  0
 14 13  1  0  0  0  0
 15 14  2  0  0  0  0
 15 16  1  0  0  0  0
 16 11  2  0  0  0  0
 17 16  1  0  0  0  0
 17  9  2  0  0  0  0
 18  1  1  0  0  0  0
 21  7  1  0  0  0  0
 25  8  1  0  0  0  0
 30 14  1  0  0  0  0
 31 15  1  0  0  0  0
 32 17  1  0  0  0  0
M  END
