3
 OpenBabel05122313113D

 39 43  0  0  1  0  0  0  0  0999 V2000
    0.9539    0.8983   -0.4892 N   0  0  2  0  0  0  0  0  0  0  0  0
    0.8458   -0.8131    0.8723 N   0  0  2  0  0  0  0  0  0  0  0  0
    0.1133    0.0275    0.1010 C   0  0  0  0  0  2  0  0  0  0  0  0
    0.5680    2.0205   -1.3340 C   0  0  0  0  0  0  0  0  0  0  0  0
    1.8298    2.7550   -1.8202 C   0  0  0  0  0  0  0  0  0  0  0  0
    2.8279    2.9598   -0.7057 C   0  0  0  0  0  0  0  0  0  0  0  0
    3.1287    1.8383    0.1085 C   0  0  0  0  0  0  0  0  0  0  0  0
    2.3794    0.5763   -0.2557 C   0  0  1  0  0  0  0  0  0  0  0  0
    2.2937   -0.5831    0.7742 C   0  0  2  0  0  0  0  0  0  0  0  0
    3.0546   -1.8352    0.3685 C   0  0  0  0  0  0  0  0  0  0  0  0
    2.3892   -3.0748    0.2071 C   0  0  0  0  0  0  0  0  0  0  0  0
    0.8959   -3.1938    0.4265 C   0  0  0  0  0  0  0  0  0  0  0  0
    0.3785   -2.0971    1.3594 C   0  0  0  0  0  0  0  0  0  0  0  0
    3.4641    4.1846   -0.4480 C   0  0  0  0  0  0  0  0  0  0  0  0
    4.4010    4.2975    0.5921 C   0  0  0  0  0  0  0  0  0  0  0  0
    4.7032    3.1828    1.3876 C   0  0  0  0  0  0  0  0  0  0  0  0
    4.0640    1.9551    1.1471 C   0  0  0  0  0  0  0  0  0  0  0  0
    4.4435   -1.7492    0.1509 C   0  0  0  0  0  0  0  0  0  0  0  0
    5.1828   -2.8748   -0.2330 C   0  0  0  0  0  0  0  0  0  0  0  0
    4.5299   -4.1074   -0.3960 C   0  0  0  0  0  0  0  0  0  0  0  0
    3.1504   -4.1987   -0.1744 C   0  0  0  0  0  0  0  0  0  0  0  0
   -0.0721    2.7139   -0.7495 H   0  0  0  0  0  0  0  0  0  0  0  0
   -0.0380    1.6512   -2.1882 H   0  0  0  0  0  0  0  0  0  0  0  0
    2.3060    2.1523   -2.6260 H   0  0  0  0  0  0  0  0  0  0  0  0
    1.5414    3.7193   -2.2811 H   0  0  0  0  0  0  0  0  0  0  0  0
    2.8088    0.1773   -1.2063 H   0  0  0  0  0  0  0  0  0  0  0  0
    2.6680   -0.2432    1.7684 H   0  0  0  0  0  0  0  0  0  0  0  0
    0.6484   -4.1988    0.8262 H   0  0  0  0  0  0  0  0  0  0  0  0
    0.3591   -3.0849   -0.5441 H   0  0  0  0  0  0  0  0  0  0  0  0
   -0.7298   -2.0550    1.3666 H   0  0  0  0  0  0  0  0  0  0  0  0
    0.7451   -2.2485    2.3989 H   0  0  0  0  0  0  0  0  0  0  0  0
    3.2247    5.0599   -1.0724 H   0  0  0  0  0  0  0  0  0  0  0  0
    4.8954    5.2619    0.7827 H   0  0  0  0  0  0  0  0  0  0  0  0
    5.4361    3.2675    2.2040 H   0  0  0  0  0  0  0  0  0  0  0  0
    4.3015    1.0867    1.7806 H   0  0  0  0  0  0  0  0  0  0  0  0
    4.9531   -0.7802    0.2772 H   0  0  0  0  0  0  0  0  0  0  0  0
    6.2665   -2.7906   -0.4037 H   0  0  0  0  0  0  0  0  0  0  0  0
    5.0991   -5.0008   -0.6945 H   0  0  0  0  0  0  0  0  0  0  0  0
    2.6383   -5.1659   -0.3001 H   0  0  0  0  0  0  0  0  0  0  0  0
  1  8  1  0  0  0  0
  1  3  1  6  0  0  0
  2  3  1  6  0  0  0
  2 13  1  0  0  0  0
  4 22  1  0  0  0  0
  4  1  1  0  0  0  0
  5  4  1  0  0  0  0
  5  6  1  0  0  0  0
  6 14  2  0  0  0  0
  6  7  1  0  0  0  0
  7 17  2  0  0  0  0
  8 26  1  6  0  0  0
  8  7  1  0  0  0  0
  8  9  1  0  0  0  0
  9  2  1  0  0  0  0
  9 27  1  1  0  0  0
 10  9  1  0  0  0  0
 11 10  1  0  0  0  0
 11 12  1  0  0  0  0
 12 28  1  0  0  0  0
 12 13  1  0  0  0  0
 13 30  1  0  0  0  0
 13 31  1  0  0  0  0
 14 15  1  0  0  0  0
 15 33  1  0  0  0  0
 15 16  2  0  0  0  0
 16 34  1  0  0  0  0
 17 16  1  0  0  0  0
 17 35  1  0  0  0  0
 18 36  1  0  0  0  0
 18 10  2  0  0  0  0
 19 18  1  0  0  0  0
 20 19  2  0  0  0  0
 20 21  1  0  0  0  0
 21 11  2  0  0  0  0
 23  4  1  0  0  0  0
 24  5  1  0  0  0  0
 25  5  1  0  0  0  0
 29 12  1  0  0  0  0
 32 14  1  0  0  0  0
 37 19  1  0  0  0  0
 38 20  1  0  0  0  0
 39 21  1  0  0  0  0
M  END
