3
 OpenBabel05122313113D

 31 33  0  0  1  0  0  0  0  0999 V2000
    1.4420   -1.1010   -0.9556 N   0  0  2  0  0  0  0  0  0  0  0  0
    1.5797    1.0362   -0.5041 N   0  0  1  0  0  0  0  0  0  0  0  0
    0.7477   -0.0246   -0.5109 C   0  0  0  0  0  2  0  0  0  0  0  0
    0.9834   -2.4784   -0.8251 C   0  0  0  0  0  0  0  0  0  0  0  0
    1.6465   -3.1713    0.3701 C   0  0  0  0  0  0  0  0  0  0  0  0
    3.1690   -2.9898    0.3291 C   0  0  0  0  0  0  0  0  0  0  0  0
    3.5341   -1.5002    0.2684 C   0  0  0  0  0  0  0  0  0  0  0  0
    2.8993   -0.8372   -0.9648 C   0  0  2  0  0  0  0  0  0  0  0  0
    2.9280    0.7132   -1.0049 C   0  0  2  0  0  0  0  0  0  0  0  0
    4.0072    1.4348   -0.1914 C   0  0  0  0  0  0  0  0  0  0  0  0
    3.6658    2.9239   -0.0358 C   0  0  0  0  0  0  0  0  0  0  0  0
    2.2831    3.0980    0.6074 C   0  0  0  0  0  0  0  0  0  0  0  0
    1.2048    2.4106   -0.2324 C   0  0  0  0  0  0  0  0  0  0  0  0
    3.3484   -1.2675   -1.8862 H   0  0  0  0  0  0  0  0  0  0  0  0
    1.2203   -3.0171   -1.7709 H   0  0  0  0  0  0  0  0  0  0  0  0
   -0.1185   -2.4413   -0.7076 H   0  0  0  0  0  0  0  0  0  0  0  0
    1.3734   -4.2470    0.3716 H   0  0  0  0  0  0  0  0  0  0  0  0
    1.2377   -2.7136    1.2966 H   0  0  0  0  0  0  0  0  0  0  0  0
    3.6379   -3.4569    1.2193 H   0  0  0  0  0  0  0  0  0  0  0  0
    3.5917   -3.5136   -0.5594 H   0  0  0  0  0  0  0  0  0  0  0  0
    3.1433   -0.9967    1.1785 H   0  0  0  0  0  0  0  0  0  0  0  0
    4.6346   -1.3589    0.2466 H   0  0  0  0  0  0  0  0  0  0  0  0
    2.9970    1.0583   -2.0665 H   0  0  0  0  0  0  0  0  0  0  0  0
    4.0748    0.9796    0.8171 H   0  0  0  0  0  0  0  0  0  0  0  0
    4.9941    1.3003   -0.6811 H   0  0  0  0  0  0  0  0  0  0  0  0
    3.6760    3.4189   -1.0335 H   0  0  0  0  0  0  0  0  0  0  0  0
    4.4451    3.4275    0.5719 H   0  0  0  0  0  0  0  0  0  0  0  0
    2.2806    2.6486    1.6237 H   0  0  0  0  0  0  0  0  0  0  0  0
    2.0316    4.1722    0.7202 H   0  0  0  0  0  0  0  0  0  0  0  0
    0.2214    2.3812    0.2802 H   0  0  0  0  0  0  0  0  0  0  0  0
    1.0723    2.9606   -1.1964 H   0  0  0  0  0  0  0  0  0  0  0  0
  1  4  1  0  0  0  0
  1  3  1  1  0  0  0
  2  3  1  6  0  0  0
  2 13  1  0  0  0  0
  4 16  1  0  0  0  0
  4  5  1  0  0  0  0
  5 17  1  0  0  0  0
  5 18  1  0  0  0  0
  6  5  1  0  0  0  0
  6 19  1  0  0  0  0
  7  6  1  0  0  0  0
  7 21  1  0  0  0  0
  8 14  1  6  0  0  0
  8  1  1  0  0  0  0
  8  7  1  0  0  0  0
  9 23  1  6  0  0  0
  9  8  1  0  0  0  0
  9  2  1  0  0  0  0
  9 10  1  0  0  0  0
 10 11  1  0  0  0  0
 10 24  1  0  0  0  0
 11 27  1  0  0  0  0
 11 12  1  0  0  0  0
 12 29  1  0  0  0  0
 12 28  1  0  0  0  0
 13 30  1  0  0  0  0
 13 12  1  0  0  0  0
 15  4  1  0  0  0  0
 20  6  1  0  0  0  0
 22  7  1  0  0  0  0
 25 10  1  0  0  0  0
 26 11  1  0  0  0  0
 31 13  1  0  0  0  0
M  END
