11
 OpenBabel05122313113D

 20 22  0  0  0  0  0  0  0  0999 V2000
   -1.6204    1.9707   -0.7108 C   0  0  0  0  0  3  0  0  0  0  0  0
   -0.4887    1.4945   -1.4728 C   0  0  0  0  0  0  0  0  0  0  0  0
    0.6094    1.0465   -0.7313 C   0  0  0  0  0  0  0  0  0  0  0  0
    1.9956    0.4716   -0.7161 C   0  0  0  0  0  0  0  0  0  0  0  0
    3.0657   -0.0047   -1.4568 C   0  0  0  0  0  0  0  0  0  0  0  0
    4.1713   -0.4801   -0.7021 C   0  0  0  0  0  0  0  0  0  0  0  0
   -2.5250    2.2962   -1.2426 H   0  0  0  0  0  0  0  0  0  0  0  0
   -0.5279    1.4554   -2.5697 H   0  0  0  0  0  0  0  0  0  0  0  0
    3.0791   -0.0212   -2.5561 H   0  0  0  0  0  0  0  0  0  0  0  0
    5.0551   -0.8639   -1.2337 H   0  0  0  0  0  0  0  0  0  0  0  0
   -1.6204    1.9711    0.7095 C   0  0  0  0  0  3  0  0  0  0  0  0
   -0.4887    1.4954    1.4718 C   0  0  0  0  0  0  0  0  0  0  0  0
    0.6094    1.0469    0.7306 C   0  0  0  0  0  0  0  0  0  0  0  0
    1.9956    0.4721    0.7158 C   0  0  0  0  0  0  0  0  0  0  0  0
    4.1713   -0.4797    0.7025 C   0  0  0  0  0  0  0  0  0  0  0  0
   -2.5250    2.2970    1.2411 H   0  0  0  0  0  0  0  0  0  0  0  0
   -0.5279    1.4571    2.5688 H   0  0  0  0  0  0  0  0  0  0  0  0
    3.0657   -0.0038    1.4568 C   0  0  0  0  0  0  0  0  0  0  0  0
    5.0551   -0.8631    1.2343 H   0  0  0  0  0  0  0  0  0  0  0  0
    3.0791   -0.0196    2.5561 H   0  0  0  0  0  0  0  0  0  0  0  0
  1 11  1  0  0  0  0
  2  3  2  0  0  0  0
  2  1  1  0  0  0  0
  3  4  1  0  0  0  0
  3 13  1  0  0  0  0
  4 14  1  0  0  0  0
  5  4  2  0  0  0  0
  5  6  1  0  0  0  0
  6 15  2  0  0  0  0
  7  1  1  0  0  0  0
  8  2  1  0  0  0  0
  9  5  1  0  0  0  0
 10  6  1  0  0  0  0
 11 16  1  0  0  0  0
 11 12  1  0  0  0  0
 12 17  1  0  0  0  0
 13 12  2  0  0  0  0
 14 13  1  0  0  0  0
 14 18  2  0  0  0  0
 15 19  1  0  0  0  0
 15 18  1  0  0  0  0
 18 20  1  0  0  0  0
M  END
