3
 OpenBabel05122313113D

 25 26  0  0  0  0  0  0  0  0999 V2000
    3.4719   -0.5564    0.2526 N   0  0  0  0  0  0  0  0  0  0  0  0
    2.2145   -0.0680   -0.0600 N   0  0  0  0  0  0  0  0  0  0  0  0
    1.2433   -0.8779    0.4422 C   0  0  0  0  0  2  0  0  0  0  0  0
    1.9284   -1.9429    1.0802 C   0  0  0  0  0  0  0  0  0  0  0  0
    1.4561   -2.7778    1.6051 H   0  0  0  0  0  0  0  0  0  0  0  0
    3.2988   -1.7282    0.9397 C   0  0  0  0  0  0  0  0  0  0  0  0
    4.4509   -2.5586    1.3989 C   0  0  0  0  0  0  0  0  0  0  0  0
    5.0284   -2.9762    0.5474 H   0  0  0  0  0  0  0  0  0  0  0  0
    4.0743   -3.4084    1.9962 H   0  0  0  0  0  0  0  0  0  0  0  0
    5.1530   -1.9807    2.0349 H   0  0  0  0  0  0  0  0  0  0  0  0
    4.6652   -0.0416   -0.3834 C   0  0  0  0  0  0  0  0  0  0  0  0
    4.7831    1.0408   -0.1876 H   0  0  0  0  0  0  0  0  0  0  0  0
    4.6363   -0.2019   -1.4816 H   0  0  0  0  0  0  0  0  0  0  0  0
    5.5347   -0.5762    0.0376 H   0  0  0  0  0  0  0  0  0  0  0  0
    2.0436    1.1736   -0.7491 C   0  0  0  0  0  0  0  0  0  0  0  0
    2.3973    2.3756   -0.1133 C   0  0  0  0  0  0  0  0  0  0  0  0
    2.7719    2.3525    0.9200 H   0  0  0  0  0  0  0  0  0  0  0  0
    2.2132    3.5863   -0.7951 C   0  0  0  0  0  0  0  0  0  0  0  0
    2.4796    4.5339   -0.3037 H   0  0  0  0  0  0  0  0  0  0  0  0
    1.6605    3.5906   -2.0864 C   0  0  0  0  0  0  0  0  0  0  0  0
    1.5068    4.5446   -2.6131 H   0  0  0  0  0  0  0  0  0  0  0  0
    1.2864    2.3834   -2.6990 C   0  0  0  0  0  0  0  0  0  0  0  0
    0.8337    2.3878   -3.7017 H   0  0  0  0  0  0  0  0  0  0  0  0
    1.4786    1.1635   -2.0349 C   0  0  0  0  0  0  0  0  0  0  0  0
    1.1583    0.2059   -2.4741 H   0  0  0  0  0  0  0  0  0  0  0  0
  1  6  1  0  0  0  0
  2  1  1  0  0  0  0
  2  3  1  0  0  0  0
  3  4  1  0  0  0  0
  4  5  1  0  0  0  0
  6  4  2  0  0  0  0
  6  7  1  0  0  0  0
  7  9  1  0  0  0  0
  7 10  1  0  0  0  0
  8  7  1  0  0  0  0
 11 12  1  0  0  0  0
 11 14  1  0  0  0  0
 11  1  1  0  0  0  0
 13 11  1  0  0  0  0
 15 16  1  0  0  0  0
 15  2  1  0  0  0  0
 16 17  1  0  0  0  0
 18 19  1  0  0  0  0
 18 16  2  0  0  0  0
 20 18  1  0  0  0  0
 21 20  1  0  0  0  0
 22 20  2  0  0  0  0
 22 24  1  0  0  0  0
 23 22  1  0  0  0  0
 24 15  2  0  0  0  0
 25 24  1  0  0  0  0
M  END
