7
 OpenBabel05122313113D

 40 44  0  0  1  0  0  0  0  0999 V2000
   -2.3931    2.2508   -0.2099 Si  0  0  0  0  0  0  0  0  0  0  0  0
    1.7633    1.3325    0.1232 C   0  0  2  0  0  0  0  0  0  0  0  0
    1.6828   -0.3392    0.0161 C   0  0  1  0  0  0  0  0  0  0  0  0
    0.4030    2.0284    0.2813 C   0  0  0  0  0  0  0  0  0  0  0  0
    0.5126    3.0441   -0.1592 H   0  0  0  0  0  0  0  0  0  0  0  0
    0.2375    2.1907    1.3651 H   0  0  0  0  0  0  0  0  0  0  0  0
   -0.7817    1.2623   -0.3582 C   0  0  0  0  0  3  0  0  0  0  0  0
   -0.6013    1.2613   -1.4561 H   0  0  0  0  0  0  0  0  0  0  0  0
   -2.3135    3.7461   -1.3795 C   0  0  0  0  0  0  0  0  0  0  0  0
   -1.4414    4.3927   -1.1507 H   0  0  0  0  0  0  0  0  0  0  0  0
   -3.2262    4.3723   -1.2966 H   0  0  0  0  0  0  0  0  0  0  0  0
   -2.2208    3.4209   -2.4366 H   0  0  0  0  0  0  0  0  0  0  0  0
   -2.6416    2.9318    1.5464 C   0  0  0  0  0  0  0  0  0  0  0  0
   -1.8284    3.6406    1.8057 H   0  0  0  0  0  0  0  0  0  0  0  0
   -2.6693    2.1547    2.3355 H   0  0  0  0  0  0  0  0  0  0  0  0
   -3.5961    3.4955    1.5989 H   0  0  0  0  0  0  0  0  0  0  0  0
   -3.9102    1.2268   -0.7287 C   0  0  0  0  0  0  0  0  0  0  0  0
   -4.8264    1.8496   -0.6640 H   0  0  0  0  0  0  0  0  0  0  0  0
   -4.0700    0.3303   -0.0963 H   0  0  0  0  0  0  0  0  0  0  0  0
   -3.8194    0.8866   -1.7808 H   0  0  0  0  0  0  0  0  0  0  0  0
    2.0858    0.6000   -1.3767 B   0  0  1  0  0  0  0  0  0  0  0  0
    1.2947    0.7432   -2.2695 H   0  0  0  0  0  0  0  0  0  0  0  0
    3.0500    1.9765   -0.8178 B   0  0  1  0  0  0  0  0  0  0  0  0
    2.8618    3.0442   -1.3492 H   0  0  0  0  0  0  0  0  0  0  0  0
    3.1731    1.8571    0.9424 B   0  0  0  0  0  0  0  0  0  0  0  0
    3.0768    2.8406    1.6367 H   0  0  0  0  0  0  0  0  0  0  0  0
    2.2976    0.4042    1.4486 B   0  0  1  0  0  0  0  0  0  0  0  0
    1.6538    0.4330    2.4606 H   0  0  0  0  0  0  0  0  0  0  0  0
    2.9525   -0.8924   -1.0012 B   0  0  1  0  0  0  0  0  0  0  0  0
    2.7595   -1.8712   -1.6827 H   0  0  0  0  0  0  0  0  0  0  0  0
    3.8510    0.5554   -1.5337 B   0  0  0  0  0  0  0  0  0  0  0  0
    4.3522    0.6057   -2.6331 H   0  0  0  0  0  0  0  0  0  0  0  0
    4.5384    1.3345   -0.0797 B   0  0  1  0  0  0  0  0  0  0  0  0
    5.5684    1.9680   -0.1086 H   0  0  0  0  0  0  0  0  0  0  0  0
    4.0606    0.3592    1.3399 B   0  0  0  0  0  2  0  0  0  0  0  0
    4.7180    0.2716    2.3510 H   0  0  0  0  0  0  0  0  0  0  0  0
    3.0756   -1.0158    0.7537 B   0  0  2  0  0  0  0  0  0  0  0  0
    2.9595   -2.0813    1.3152 H   0  0  0  0  0  0  0  0  0  0  0  0
    4.4803   -0.4484   -0.1966 B   0  0  0  0  0  0  0  0  0  0  0  0
    5.4686   -1.1355   -0.3160 H   0  0  0  0  0  0  0  0  0  0  0  0
  1 13  1  0  0  0  0
  2  4  1  1  0  0  0
  2 27  1  0  0  0  0
  3  2  1  0  0  0  0
  3 37  1  0  0  0  0
  3 27  1  0  0  0  0
  4  6  1  0  0  0  0
  5  4  1  0  0  0  0
  7  1  1  0  0  0  0
  7  4  1  0  0  0  0
  8  7  1  0  0  0  0
  9 11  1  0  0  0  0
  9 10  1  0  0  0  0
  9  1  1  0  0  0  0
 12  9  1  0  0  0  0
 13 16  1  0  0  0  0
 13 14  1  0  0  0  0
 13 15  1  0  0  0  0
 17 18  1  0  0  0  0
 17  1  1  0  0  0  0
 17 19  1  0  0  0  0
 20 17  1  0  0  0  0
 21 29  1  0  0  0  0
 21 23  1  0  0  0  0
 21  2  1  0  0  0  0
 22 21  1  0  0  0  0
 23 33  1  0  0  0  0
 23 25  1  0  0  0  0
 24 23  1  0  0  0  0
 25 26  1  0  0  0  0
 27 28  1  0  0  0  0
 29  3  1  0  0  0  0
 29 37  1  0  0  0  0
 30 29  1  0  0  0  0
 31 39  1  0  0  0  0
 31 33  1  0  0  0  0
 32 31  1  0  0  0  0
 33 25  1  0  0  0  0
 34 33  1  0  0  0  0
 35 36  1  0  0  0  0
 37 38  1  0  0  0  0
 37 27  1  0  0  0  0
 39 35  1  0  0  0  0
 40 39  1  0  0  0  0
M  END
