14
 OpenBabel05122313113D

 16 19  0  0  1  0  0  0  0  0999 V2000
    1.8772    1.2126    0.6987 B   0  0  0  0  0  0  0  0  0  0  0  0
    1.2376    1.9172    1.4325 H   0  0  0  0  0  0  0  0  0  0  0  0
    1.9386   -1.3961   -0.4219 B   0  0  1  0  0  0  0  0  0  0  0  0
    1.3556   -2.4452   -0.4376 H   0  0  0  0  0  0  0  0  0  0  0  0
    1.9831    1.3801   -1.0579 B   0  0  1  0  0  0  0  0  0  0  0  0
    1.3802    2.2770   -1.5989 H   0  0  0  0  0  0  0  0  0  0  0  0
    2.0124   -0.2419   -1.7517 B   0  0  2  0  0  0  0  0  0  0  0  0
    1.4210   -0.4956   -2.7768 H   0  0  0  0  0  0  0  0  0  0  0  0
    1.8985   -0.4599    1.0050 C   0  0  2  0  0  0  0  0  0  0  0  0
    1.0831    0.0994   -0.3532 C   0  0  2  0  0  0  0  0  0  0  0  0
    0.9931   -0.9647    2.1364 C   0  0  0  0  0  0  0  0  0  0  0  0
    1.5441   -0.8088    3.0885 H   0  0  0  0  0  0  0  0  0  0  0  0
    0.8974   -2.0627    2.0232 H   0  0  0  0  0  0  0  0  0  0  0  0
   -0.3957   -0.2890    2.1792 C   0  0  0  0  0  3  0  0  0  0  0  0
   -0.2862    0.7105    2.6436 H   0  0  0  0  0  0  0  0  0  0  0  0
   -1.0614   -0.8699    2.8525 H   0  0  0  0  0  0  0  0  0  0  0  0
  1  9  1  0  0  0  0
  1  2  1  0  0  0  0
  3  4  1  6  0  0  0
  3 10  1  0  0  0  0
  3  9  1  0  0  0  0
  5  6  1  6  0  0  0
  5 10  1  0  0  0  0
  5  1  1  0  0  0  0
  7  8  1  6  0  0  0
  7  5  1  0  0  0  0
  7  3  1  0  0  0  0
  7 10  1  0  0  0  0
  9 11  1  1  0  0  0
 10  9  1  0  0  0  0
 11 14  1  0  0  0  0
 11 12  1  0  0  0  0
 13 11  1  0  0  0  0
 14 15  1  0  0  0  0
 14 16  1  0  0  0  0
M  END
