6
 OpenBabel05122313113D

 19 19  0  0  0  0  0  0  0  0999 V2000
   -0.7984    1.4750    0.0088 C   0  0  0  0  0  0  0  0  0  0  0  0
   -0.2358    1.4462   -1.3117 C   0  0  0  0  0  0  0  0  0  0  0  0
   -0.7547    1.1335   -2.2253 H   0  0  0  0  0  0  0  0  0  0  0  0
    1.1229    1.9322   -1.2442 C   0  0  0  0  0  0  0  0  0  0  0  0
    1.8094    2.0496   -2.0904 H   0  0  0  0  0  0  0  0  0  0  0  0
    1.4001    2.2507    0.1221 C   0  0  0  0  0  3  0  0  0  0  0  0
    2.3474    2.6448    0.5098 H   0  0  0  0  0  0  0  0  0  0  0  0
    0.2242    1.9729    0.9003 C   0  0  0  0  0  0  0  0  0  0  0  0
    0.1037    2.1388    1.9772 H   0  0  0  0  0  0  0  0  0  0  0  0
   -2.2114    1.1491    0.4073 C   0  0  0  0  0  0  0  0  0  0  0  0
   -2.8104    2.0852    0.3758 H   0  0  0  0  0  0  0  0  0  0  0  0
   -2.2345    0.8266    1.4672 H   0  0  0  0  0  0  0  0  0  0  0  0
   -2.8915    0.0906   -0.4561 C   0  0  0  0  0  0  0  0  0  0  0  0
   -2.9690    0.3999   -1.5199 H   0  0  0  0  0  0  0  0  0  0  0  0
   -2.3023   -0.8517   -0.4694 H   0  0  0  0  0  0  0  0  0  0  0  0
   -4.2870   -0.2385    0.0319 C   0  0  0  0  0  0  0  0  0  0  0  0
   -4.8890   -1.1499   -0.7713 O   0  0  0  0  0  0  0  0  0  0  0  0
   -5.7717   -1.3115   -0.3720 H   0  0  0  0  0  0  0  0  0  0  0  0
   -4.8217    0.2348    1.0165 O   0  0  0  0  0  0  0  0  0  0  0  0
  1 10  1  0  0  0  0
  1  8  2  0  0  0  0
  2  4  2  0  0  0  0
  2  1  1  0  0  0  0
  3  2  1  0  0  0  0
  4  6  1  0  0  0  0
  5  4  1  0  0  0  0
  6  7  1  0  0  0  0
  6  8  1  0  0  0  0
  8  9  1  0  0  0  0
 10 12  1  0  0  0  0
 11 10  1  0  0  0  0
 13 16  1  0  0  0  0
 13 10  1  0  0  0  0
 14 13  1  0  0  0  0
 15 13  1  0  0  0  0
 16 19  2  0  0  0  0
 17 18  1  0  0  0  0
 17 16  1  0  0  0  0
M  END
