25
 OpenBabel05122313113D

 37 38  0  0  0  0  0  0  0  0999 V2000
    5.9085   -1.2623   -1.3057 O   0  0  0  0  0  0  0  0  0  0  0  0
    1.5467    1.0616   -1.4650 N   0  0  0  0  0  0  0  0  0  0  0  0
    1.9237    1.2345   -2.4042 H   0  0  0  0  0  0  0  0  0  0  0  0
    3.1413   -0.5998   -1.2003 N   0  0  0  0  0  0  0  0  0  0  0  0
    0.2996    1.7137   -1.1714 C   0  0  0  0  0  0  0  0  0  0  0  0
   -0.8509    1.2821   -1.8754 C   0  0  0  0  0  0  0  0  0  0  0  0
   -2.0833    1.8780   -1.5692 C   0  0  0  0  0  0  0  0  0  0  0  0
   -2.9890    1.5266   -2.0891 H   0  0  0  0  0  0  0  0  0  0  0  0
   -2.1893    2.8932   -0.5982 C   0  0  0  0  0  0  0  0  0  0  0  0
   -1.0162    3.3271    0.0440 C   0  0  0  0  0  0  0  0  0  0  0  0
   -1.0789    4.1352    0.7900 H   0  0  0  0  0  0  0  0  0  0  0  0
    0.2472    2.7655   -0.2301 C   0  0  0  0  0  0  0  0  0  0  0  0
   -3.5360    3.4812   -0.2616 C   0  0  0  0  0  0  0  0  0  0  0  0
   -4.2324    2.6907    0.0897 H   0  0  0  0  0  0  0  0  0  0  0  0
   -3.4620    4.2501    0.5309 H   0  0  0  0  0  0  0  0  0  0  0  0
   -4.0063    3.9495   -1.1512 H   0  0  0  0  0  0  0  0  0  0  0  0
    1.4889    3.2771    0.4450 C   0  0  0  0  0  0  0  0  0  0  0  0
    1.9268    2.5258    1.1384 H   0  0  0  0  0  0  0  0  0  0  0  0
    1.2758    4.1989    1.0178 H   0  0  0  0  0  0  0  0  0  0  0  0
    2.2821    3.5010   -0.2979 H   0  0  0  0  0  0  0  0  0  0  0  0
   -0.7481    0.1984   -2.9177 C   0  0  0  0  0  0  0  0  0  0  0  0
   -1.7498   -0.0915   -3.2872 H   0  0  0  0  0  0  0  0  0  0  0  0
   -0.2488   -0.7074   -2.5166 H   0  0  0  0  0  0  0  0  0  0  0  0
   -0.1534    0.5266   -3.7979 H   0  0  0  0  0  0  0  0  0  0  0  0
    2.0566    0.0437   -0.7385 C   0  0  0  0  0  2  0  0  0  0  0  0
    3.9850   -0.1600   -2.3182 C   0  0  0  0  0  0  0  0  0  0  0  0
    3.9158   -0.8978   -3.1481 H   0  0  0  0  0  0  0  0  0  0  0  0
    3.6593    0.8263   -2.7003 H   0  0  0  0  0  0  0  0  0  0  0  0
    5.4415   -0.0451   -1.8400 C   0  0  0  0  0  0  0  0  0  0  0  0
    5.4968    0.7734   -1.0803 H   0  0  0  0  0  0  0  0  0  0  0  0
    6.0964    0.2172   -2.6955 H   0  0  0  0  0  0  0  0  0  0  0  0
    5.1300   -1.6323   -0.1698 C   0  0  0  0  0  0  0  0  0  0  0  0
    5.5420   -2.5882    0.2085 H   0  0  0  0  0  0  0  0  0  0  0  0
    5.1969   -0.8611    0.6316 H   0  0  0  0  0  0  0  0  0  0  0  0
    3.6607   -1.8094   -0.5453 C   0  0  0  0  0  0  0  0  0  0  0  0
    3.5491   -2.6582   -1.2569 H   0  0  0  0  0  0  0  0  0  0  0  0
    3.0445   -2.0094    0.3531 H   0  0  0  0  0  0  0  0  0  0  0  0
  1 32  1  0  0  0  0
  2  5  1  0  0  0  0
  2 25  1  0  0  0  0
  3  2  1  0  0  0  0
  4 25  1  0  0  0  0
  4 35  1  0  0  0  0
  5 12  1  0  0  0  0
  6  7  1  0  0  0  0
  6  5  2  0  0  0  0
  7  9  2  0  0  0  0
  8  7  1  0  0  0  0
  9 13  1  0  0  0  0
  9 10  1  0  0  0  0
 10 11  1  0  0  0  0
 12 10  2  0  0  0  0
 12 17  1  0  0  0  0
 13 14  1  0  0  0  0
 13 15  1  0  0  0  0
 16 13  1  0  0  0  0
 17 19  1  0  0  0  0
 17 18  1  0  0  0  0
 20 17  1  0  0  0  0
 21 23  1  0  0  0  0
 21  6  1  0  0  0  0
 22 21  1  0  0  0  0
 24 21  1  0  0  0  0
 26 29  1  0  0  0  0
 26  4  1  0  0  0  0
 27 26  1  0  0  0  0
 28 26  1  0  0  0  0
 29  1  1  0  0  0  0
 29 30  1  0  0  0  0
 31 29  1  0  0  0  0
 32 33  1  0  0  0  0
 32 34  1  0  0  0  0
 35 32  1  0  0  0  0
 35 37  1  0  0  0  0
 36 35  1  0  0  0  0
M  END
