14
 OpenBabel05122313113D

 48 52  0  0  1  0  0  0  0  0999 V2000
   -2.4105    1.8599   -1.4556 F   0  0  0  0  0  0  0  0  0  0  0  0
    2.0118    1.6569    0.0537 N   0  0  0  0  0  0  0  0  0  0  0  0
    1.5470    2.9597   -0.0595 N   0  0  0  0  0  0  0  0  0  0  0  0
   -0.0785    1.5018    0.3211 N   0  0  0  0  0  0  0  0  0  0  0  0
    0.2571    2.8229    0.1218 C   0  0  0  0  0  0  0  0  0  0  0  0
   -0.9363    3.7042    0.3053 C   0  0  0  0  0  0  0  0  0  0  0  0
   -1.3592    3.9996   -0.6758 H   0  0  0  0  0  0  0  0  0  0  0  0
   -0.6897    4.6243    0.8676 H   0  0  0  0  0  0  0  0  0  0  0  0
   -1.8949    2.7456    1.0722 C   0  0  0  0  0  0  0  0  0  0  0  0
   -2.9608    2.9457    0.8632 H   0  0  0  0  0  0  0  0  0  0  0  0
   -1.7339    2.8525    2.1631 H   0  0  0  0  0  0  0  0  0  0  0  0
   -1.4879    1.3026    0.6536 C   0  0  1  0  0  0  0  0  0  0  0  0
   -1.5212    0.5656    1.4810 H   0  0  0  0  0  0  0  0  0  0  0  0
    1.0385    0.7199    0.2991 C   0  0  0  0  0  2  0  0  0  0  0  0
    3.4153    1.4239   -0.0213 C   0  0  0  0  0  0  0  0  0  0  0  0
    4.0269    0.5357    0.8808 C   0  0  0  0  0  0  0  0  0  0  0  0
    3.4144    0.0457    1.6521 H   0  0  0  0  0  0  0  0  0  0  0  0
    5.4028    0.2910    0.7732 C   0  0  0  0  0  0  0  0  0  0  0  0
    5.8843   -0.4054    1.4762 H   0  0  0  0  0  0  0  0  0  0  0  0
    6.1662    0.9434   -0.2090 C   0  0  0  0  0  0  0  0  0  0  0  0
    7.2467    0.7504   -0.2865 H   0  0  0  0  0  0  0  0  0  0  0  0
    5.5493    1.8538   -1.0826 C   0  0  0  0  0  0  0  0  0  0  0  0
    6.1444    2.3761   -1.8466 H   0  0  0  0  0  0  0  0  0  0  0  0
    4.1718    2.0981   -0.9940 C   0  0  0  0  0  0  0  0  0  0  0  0
    3.6688    2.8059   -1.6670 H   0  0  0  0  0  0  0  0  0  0  0  0
   -2.3388    0.7835   -0.5329 C   0  0  0  0  0  0  0  0  0  0  0  0
   -1.7364   -0.4016   -1.2914 C   0  0  0  0  0  0  0  0  0  0  0  0
   -1.0749   -0.1747   -2.5140 C   0  0  0  0  0  0  0  0  0  0  0  0
   -0.9723    0.8526   -2.8876 H   0  0  0  0  0  0  0  0  0  0  0  0
   -0.5820   -1.2502   -3.2682 C   0  0  0  0  0  0  0  0  0  0  0  0
   -0.0783   -1.0551   -4.2272 H   0  0  0  0  0  0  0  0  0  0  0  0
   -0.7446   -2.5670   -2.8115 C   0  0  0  0  0  0  0  0  0  0  0  0
   -0.3752   -3.4128   -3.4111 H   0  0  0  0  0  0  0  0  0  0  0  0
   -1.3795   -2.7958   -1.5810 C   0  0  0  0  0  0  0  0  0  0  0  0
   -1.5109   -3.8227   -1.2075 H   0  0  0  0  0  0  0  0  0  0  0  0
   -1.8643   -1.7225   -0.8198 C   0  0  0  0  0  0  0  0  0  0  0  0
   -2.3529   -1.9235    0.1419 H   0  0  0  0  0  0  0  0  0  0  0  0
   -3.7570    0.4870   -0.0492 C   0  0  0  0  0  0  0  0  0  0  0  0
   -4.8510    0.8952   -0.8351 C   0  0  0  0  0  0  0  0  0  0  0  0
   -4.6635    1.4411   -1.7697 H   0  0  0  0  0  0  0  0  0  0  0  0
   -6.1623    0.6122   -0.4265 C   0  0  0  0  0  0  0  0  0  0  0  0
   -7.0086    0.9386   -1.0500 H   0  0  0  0  0  0  0  0  0  0  0  0
   -6.3958   -0.0837    0.7698 C   0  0  0  0  0  0  0  0  0  0  0  0
   -7.4251   -0.3057    1.0899 H   0  0  0  0  0  0  0  0  0  0  0  0
   -5.3083   -0.4938    1.5558 C   0  0  0  0  0  0  0  0  0  0  0  0
   -5.4790   -1.0395    2.4961 H   0  0  0  0  0  0  0  0  0  0  0  0
   -3.9939   -0.2102    1.1540 C   0  0  0  0  0  0  0  0  0  0  0  0
   -3.1550   -0.5489    1.7833 H   0  0  0  0  0  0  0  0  0  0  0  0
  1 26  1  0  0  0  0
  2 14  1  0  0  0  0
  3  2  1  0  0  0  0
  3  5  2  0  0  0  0
  4 12  1  0  0  0  0
  5  6  1  0  0  0  0
  5  4  1  0  0  0  0
  6  8  1  0  0  0  0
  6  9  1  0  0  0  0
  7  6  1  0  0  0  0
  9 11  1  0  0  0  0
 10  9  1  0  0  0  0
 12  9  1  0  0  0  0
 12 13  1  1  0  0  0
 14  4  1  0  0  0  0
 15  2  1  0  0  0  0
 15 16  1  0  0  0  0
 16 17  1  0  0  0  0
 18 16  2  0  0  0  0
 18 19  1  0  0  0  0
 20 18  1  0  0  0  0
 21 20  1  0  0  0  0
 22 24  1  0  0  0  0
 22 20  2  0  0  0  0
 23 22  1  0  0  0  0
 24 15  2  0  0  0  0
 25 24  1  0  0  0  0
 26 38  1  0  0  0  0
 26 12  1  0  0  0  0
 27 36  1  0  0  0  0
 27 26  1  0  0  0  0
 28 27  2  0  0  0  0
 29 28  1  0  0  0  0
 30 32  2  0  0  0  0
 30 28  1  0  0  0  0
 31 30  1  0  0  0  0
 32 34  1  0  0  0  0
 33 32  1  0  0  0  0
 34 35  1  0  0  0  0
 34 36  2  0  0  0  0
 36 37  1  0  0  0  0
 38 47  1  0  0  0  0
 39 41  1  0  0  0  0
 39 38  2  0  0  0  0
 40 39  1  0  0  0  0
 41 43  2  0  0  0  0
 42 41  1  0  0  0  0
 43 44  1  0  0  0  0
 43 45  1  0  0  0  0
 45 46  1  0  0  0  0
 47 45  2  0  0  0  0
 47 48  1  0  0  0  0
M  END
