3
 OpenBabel05122313113D

 18 18  0  0  1  0  0  0  0  0999 V2000
   -3.4622   -0.8006    0.7340 C   0  0  0  0  0  3  0  0  0  0  0  0
   -3.1672    0.3368   -0.0988 C   0  0  2  0  0  3  0  0  0  0  0  0
   -2.2857    0.0543   -1.1863 C   0  0  0  0  0  3  0  0  0  0  0  0
   -1.9263   -1.3411   -1.2910 C   0  0  0  0  0  3  0  0  0  0  0  0
   -3.0000   -2.4078   -1.1409 C   0  0  0  0  0  0  0  0  0  0  0  0
   -3.8906   -2.1043    0.0836 C   0  0  0  0  0  0  0  0  0  0  0  0
   -3.6459    1.5578    0.2479 O   0  0  0  0  0  0  0  0  0  0  0  0
   -2.9937    2.6915   -0.3086 C   0  0  0  0  0  0  0  0  0  0  0  0
   -3.9376   -0.5550    1.6980 H   0  0  0  0  0  0  0  0  0  0  0  0
   -1.8826    0.8423   -1.8381 H   0  0  0  0  0  0  0  0  0  0  0  0
   -1.1307   -1.5789   -2.0169 H   0  0  0  0  0  0  0  0  0  0  0  0
   -3.6087   -2.4582   -2.0726 H   0  0  0  0  0  0  0  0  0  0  0  0
   -2.5169   -3.4011   -1.0375 H   0  0  0  0  0  0  0  0  0  0  0  0
   -3.8196   -2.9198    0.8316 H   0  0  0  0  0  0  0  0  0  0  0  0
   -4.9646   -2.0451   -0.2055 H   0  0  0  0  0  0  0  0  0  0  0  0
   -3.4453    3.5813    0.1669 H   0  0  0  0  0  0  0  0  0  0  0  0
   -3.1407    2.7557   -1.4093 H   0  0  0  0  0  0  0  0  0  0  0  0
   -1.9034    2.6704   -0.0923 H   0  0  0  0  0  0  0  0  0  0  0  0
  1  9  1  0  0  0  0
  2  7  1  1  0  0  0
  2  1  1  0  0  0  0
  3  2  1  0  0  0  0
  4  3  1  0  0  0  0
  4  5  1  0  0  0  0
  5 13  1  0  0  0  0
  5  6  1  0  0  0  0
  6  1  1  0  0  0  0
  6 14  1  0  0  0  0
  8 18  1  0  0  0  0
  8 16  1  0  0  0  0
  8  7  1  0  0  0  0
 10  3  1  0  0  0  0
 11  4  1  0  0  0  0
 12  5  1  0  0  0  0
 15  6  1  0  0  0  0
 17  8  1  0  0  0  0
M  END
