13
 OpenBabel05122313113D

 41 44  0  0  0  0  0  0  0  0999 V2000
   -3.4290    1.8044    0.4320 F   0  0  0  0  0  0  0  0  0  0  0  0
   -4.1214    0.8436    2.8771 F   0  0  0  0  0  0  0  0  0  0  0  0
   -4.0200   -1.8478    3.3725 F   0  0  0  0  0  0  0  0  0  0  0  0
   -3.2295   -3.5769    1.3927 F   0  0  0  0  0  0  0  0  0  0  0  0
   -2.5918   -2.6339   -1.0569 F   0  0  0  0  0  0  0  0  0  0  0  0
    4.0532    0.2795   -0.7829 F   0  0  0  0  0  0  0  0  0  0  0  0
    4.7244   -0.6805    1.6741 F   0  0  0  0  0  0  0  0  0  0  0  0
    3.5586    0.3767    3.9189 F   0  0  0  0  0  0  0  0  0  0  0  0
    1.6844    2.3572    3.6925 F   0  0  0  0  0  0  0  0  0  0  0  0
    0.9458    3.2543    1.2213 F   0  0  0  0  0  0  0  0  0  0  0  0
    0.5537    2.0252   -1.4104 N   0  0  0  0  0  0  0  0  0  0  0  0
   -1.4241    1.1225   -1.6453 N   0  0  0  0  0  0  0  0  0  0  0  0
   -0.1111    0.8222   -1.3553 C   0  0  0  0  0  2  0  0  0  0  0  0
   -0.3200    3.0776   -1.6979 C   0  0  0  0  0  0  0  0  0  0  0  0
   -0.1279    4.4591   -1.8328 C   0  0  0  0  0  0  0  0  0  0  0  0
    0.8585    4.9232   -1.6950 H   0  0  0  0  0  0  0  0  0  0  0  0
   -1.2541    5.2382   -2.1375 C   0  0  0  0  0  0  0  0  0  0  0  0
   -1.1404    6.3266   -2.2457 H   0  0  0  0  0  0  0  0  0  0  0  0
   -2.5288    4.6544   -2.2986 C   0  0  0  0  0  0  0  0  0  0  0  0
   -3.3916    5.2961   -2.5294 H   0  0  0  0  0  0  0  0  0  0  0  0
   -2.7226    3.2724   -2.1564 C   0  0  0  0  0  0  0  0  0  0  0  0
   -3.7223    2.8286   -2.2557 H   0  0  0  0  0  0  0  0  0  0  0  0
   -1.5975    2.4936   -1.8546 C   0  0  0  0  0  0  0  0  0  0  0  0
   -2.5030    0.1381   -1.7230 C   0  0  0  0  0  0  0  0  0  0  0  0
   -2.1452   -0.7179   -2.3219 H   0  0  0  0  0  0  0  0  0  0  0  0
   -3.3335    0.6147   -2.2808 H   0  0  0  0  0  0  0  0  0  0  0  0
   -2.9815   -0.3809   -0.3862 C   0  0  0  0  0  0  0  0  0  0  0  0
   -3.4000    0.4782    0.6417 C   0  0  0  0  0  0  0  0  0  0  0  0
   -3.7492    0.0001    1.9122 C   0  0  0  0  0  0  0  0  0  0  0  0
   -3.7025   -1.3808    2.1657 C   0  0  0  0  0  0  0  0  0  0  0  0
   -3.3079   -2.2655    1.1504 C   0  0  0  0  0  0  0  0  0  0  0  0
   -2.9734   -1.7571   -0.1111 C   0  0  0  0  0  0  0  0  0  0  0  0
    1.9918    2.1960   -1.2066 C   0  0  0  0  0  0  0  0  0  0  0  0
    2.2149    3.2657   -1.3832 H   0  0  0  0  0  0  0  0  0  0  0  0
    2.5398    1.6133   -1.9695 H   0  0  0  0  0  0  0  0  0  0  0  0
    2.4603    1.7728    0.1606 C   0  0  0  0  0  0  0  0  0  0  0  0
    3.4480    0.7875    0.3062 C   0  0  0  0  0  0  0  0  0  0  0  0
    3.8196    0.2994    1.5654 C   0  0  0  0  0  0  0  0  0  0  0  0
    3.2221    0.8395    2.7159 C   0  0  0  0  0  0  0  0  0  0  0  0
    2.2593    1.8563    2.5994 C   0  0  0  0  0  0  0  0  0  0  0  0
    1.8969    2.3143    1.3256 C   0  0  0  0  0  0  0  0  0  0  0  0
  1 28  1  0  0  0  0
  5 32  1  0  0  0  0
  6 37  1  0  0  0  0
 10 41  1  0  0  0  0
 11 13  1  0  0  0  0
 11 33  1  0  0  0  0
 12 13  1  0  0  0  0
 14 11  1  0  0  0  0
 15 14  1  0  0  0  0
 15 16  1  0  0  0  0
 17 15  2  0  0  0  0
 18 17  1  0  0  0  0
 19 21  2  0  0  0  0
 19 17  1  0  0  0  0
 20 19  1  0  0  0  0
 21 23  1  0  0  0  0
 22 21  1  0  0  0  0
 23 14  2  0  0  0  0
 23 12  1  0  0  0  0
 24 12  1  0  0  0  0
 24 27  1  0  0  0  0
 25 24  1  0  0  0  0
 26 24  1  0  0  0  0
 27 32  2  0  0  0  0
 27 28  1  0  0  0  0
 28 29  2  0  0  0  0
 29 30  1  0  0  0  0
 29  2  1  0  0  0  0
 30  3  1  0  0  0  0
 31  4  1  0  0  0  0
 31 30  2  0  0  0  0
 32 31  1  0  0  0  0
 33 36  1  0  0  0  0
 34 33  1  0  0  0  0
 35 33  1  0  0  0  0
 36 37  2  0  0  0  0
 36 41  1  0  0  0  0
 37 38  1  0  0  0  0
 38  7  1  0  0  0  0
 38 39  2  0  0  0  0
 39  8  1  0  0  0  0
 40 39  1  0  0  0  0
 40  9  1  0  0  0  0
 41 40  2  0  0  0  0
M  END
