5
 OpenBabel05122313113D

 25 25  0  0  0  0  0  0  0  0999 V2000
    1.0955    1.6222   -0.3217 B   0  0  0  0  0  0  0  0  0  0  0  0
    1.4216    0.1712   -0.5545 N   0  0  0  0  0  0  0  0  0  0  0  0
    0.0203    1.9092   -1.3707 C   0  0  0  0  0  0  0  0  0  0  0  0
   -0.1357    0.7528   -2.1831 C   0  0  0  0  0  3  0  0  0  0  0  0
    0.6725   -0.2971   -1.6673 C   0  0  0  0  0  3  0  0  0  0  0  0
    1.7094    2.5918    0.7691 C   0  0  0  0  0  0  0  0  0  0  0  0
    2.5694   -0.6289    0.0019 C   0  0  0  0  0  0  0  0  0  0  0  0
    2.4669   -2.1097   -0.3968 C   0  0  0  0  0  0  0  0  0  0  0  0
    3.8590   -0.0296   -0.5910 C   0  0  0  0  0  0  0  0  0  0  0  0
    2.5733   -0.5337    1.5338 C   0  0  0  0  0  0  0  0  0  0  0  0
   -0.5658    2.8247   -1.5329 H   0  0  0  0  0  0  0  0  0  0  0  0
   -0.7973    0.6309   -3.0519 H   0  0  0  0  0  0  0  0  0  0  0  0
    0.8446   -1.2846   -2.1021 H   0  0  0  0  0  0  0  0  0  0  0  0
    1.3432    3.6244    0.6006 H   0  0  0  0  0  0  0  0  0  0  0  0
    2.8178    2.6339    0.7357 H   0  0  0  0  0  0  0  0  0  0  0  0
    1.4372    2.3183    1.8097 H   0  0  0  0  0  0  0  0  0  0  0  0
    1.5029   -2.5532   -0.0833 H   0  0  0  0  0  0  0  0  0  0  0  0
    3.2764   -2.6690    0.1105 H   0  0  0  0  0  0  0  0  0  0  0  0
    2.5998   -2.2635   -1.4854 H   0  0  0  0  0  0  0  0  0  0  0  0
    4.7423   -0.6018   -0.2446 H   0  0  0  0  0  0  0  0  0  0  0  0
    3.9908    1.0262   -0.2860 H   0  0  0  0  0  0  0  0  0  0  0  0
    3.8331   -0.0690   -1.6983 H   0  0  0  0  0  0  0  0  0  0  0  0
    3.4314   -1.1061    1.9371 H   0  0  0  0  0  0  0  0  0  0  0  0
    1.6407   -0.9614    1.9495 H   0  0  0  0  0  0  0  0  0  0  0  0
    2.6686    0.5092    1.8836 H   0  0  0  0  0  0  0  0  0  0  0  0
  1  6  1  0  0  0  0
  2  1  1  0  0  0  0
  2  7  1  0  0  0  0
  3  1  2  0  0  0  0
  4  5  1  0  0  0  0
  4  3  1  0  0  0  0
  5  2  1  0  0  0  0
  6 16  1  0  0  0  0
  7 10  1  0  0  0  0
  8 17  1  0  0  0  0
  8  7  1  0  0  0  0
  8 18  1  0  0  0  0
  9 21  1  0  0  0  0
  9 20  1  0  0  0  0
  9  7  1  0  0  0  0
 10 25  1  0  0  0  0
 10 23  1  0  0  0  0
 10 24  1  0  0  0  0
 11  3  1  0  0  0  0
 12  4  1  0  0  0  0
 13  5  1  0  0  0  0
 14  6  1  0  0  0  0
 15  6  1  0  0  0  0
 19  8  1  0  0  0  0
 22  9  1  0  0  0  0
M  END
