2
 OpenBabel05122313113D

 11 11  0  0  1  0  0  0  0  0999 V2000
   -1.1644    1.3204    0.4504 S   0  0  0  0  0  0  0  0  0  0  0  0
   -0.5496    1.0726   -1.2217 C   0  0  0  0  0  3  0  0  0  0  0  0
   -0.6667   -0.2970   -1.5631 C   0  0  0  0  0  3  0  0  0  0  0  0
   -1.0692   -1.0976   -0.4483 C   0  0  0  0  0  3  0  0  0  0  0  0
   -2.0090   -0.3529    0.4903 C   0  0  2  0  0  0  0  0  0  0  0  0
   -3.4194   -0.3119    0.0959 C   0  0  0  0  0  0  0  0  0  0  0  0
   -4.5381   -0.2815   -0.2527 N   0  0  0  0  0  0  0  0  0  0  0  0
   -0.3797    1.9348   -1.8780 H   0  0  0  0  0  0  0  0  0  0  0  0
   -0.3838   -0.6884   -2.5505 H   0  0  0  0  0  0  0  0  0  0  0  0
   -1.1583   -2.1905   -0.5256 H   0  0  0  0  0  0  0  0  0  0  0  0
   -1.9212   -0.6921    1.5432 H   0  0  0  0  0  0  0  0  0  0  0  0
  1  5  1  0  0  0  0
  2  1  1  0  0  0  0
  3  2  1  0  0  0  0
  3  4  1  0  0  0  0
  4  5  1  0  0  0  0
  5 11  1  1  0  0  0
  6  5  1  0  0  0  0
  7  6  3  0  0  0  0
  8  2  1  0  0  0  0
  9  3  1  0  0  0  0
 10  4  1  0  0  0  0
M  END
