1
 OpenBabel05122313113D

 57 61  0  0  1  0  0  0  0  0999 V2000
    0.3220    0.1817    0.4378 C   0  0  0  0  0  2  0  0  0  0  0  0
    0.7913    1.4544    0.6603 N   0  0  0  0  0  0  0  0  0  0  0  0
    2.2650    1.4964    0.7184 C   0  0  1  0  0  0  0  0  0  0  0  0
    2.6029    2.1849    1.5170 H   0  0  0  0  0  0  0  0  0  0  0  0
    2.5742    0.0285    1.1483 C   0  0  1  0  0  0  0  0  0  0  0  0
    2.5117   -0.0056    2.2595 H   0  0  0  0  0  0  0  0  0  0  0  0
    1.4002   -0.6661    0.5853 N   0  0  0  0  0  0  0  0  0  0  0  0
    2.8967    1.9181   -0.5958 C   0  0  0  0  0  0  0  0  0  0  0  0
    4.1356    2.5845   -0.5738 C   0  0  0  0  0  0  0  0  0  0  0  0
    4.5937    2.8446    0.3940 H   0  0  0  0  0  0  0  0  0  0  0  0
    4.7983    2.9034   -1.7674 C   0  0  0  0  0  0  0  0  0  0  0  0
    5.7683    3.4224   -1.7339 H   0  0  0  0  0  0  0  0  0  0  0  0
    4.2220    2.5631   -3.0014 C   0  0  0  0  0  0  0  0  0  0  0  0
    4.7379    2.8151   -3.9405 H   0  0  0  0  0  0  0  0  0  0  0  0
    2.9815    1.9066   -3.0309 C   0  0  0  0  0  0  0  0  0  0  0  0
    2.5167    1.6407   -3.9926 H   0  0  0  0  0  0  0  0  0  0  0  0
    2.3205    1.5835   -1.8365 C   0  0  0  0  0  0  0  0  0  0  0  0
    1.3492    1.0655   -1.8835 H   0  0  0  0  0  0  0  0  0  0  0  0
    3.9244   -0.4961    0.7312 C   0  0  0  0  0  0  0  0  0  0  0  0
    4.9804   -0.4647    1.6622 C   0  0  0  0  0  0  0  0  0  0  0  0
    4.7841   -0.1167    2.6895 H   0  0  0  0  0  0  0  0  0  0  0  0
    6.2729   -0.8680    1.2956 C   0  0  0  0  0  0  0  0  0  0  0  0
    7.0878   -0.8357    2.0346 H   0  0  0  0  0  0  0  0  0  0  0  0
    6.5205   -1.3184   -0.0102 C   0  0  0  0  0  0  0  0  0  0  0  0
    7.5320   -1.6405   -0.3010 H   0  0  0  0  0  0  0  0  0  0  0  0
    5.4711   -1.3613   -0.9419 C   0  0  0  0  0  0  0  0  0  0  0  0
    5.6572   -1.7150   -1.9672 H   0  0  0  0  0  0  0  0  0  0  0  0
    4.1817   -0.9518   -0.5767 C   0  0  0  0  0  0  0  0  0  0  0  0
    3.3691   -0.9810   -1.3140 H   0  0  0  0  0  0  0  0  0  0  0  0
    0.0570    2.6773    0.5957 C   0  0  0  0  0  0  0  0  0  0  0  0
   -0.0889    3.4423    1.7812 C   0  0  0  0  0  0  0  0  0  0  0  0
   -0.8247    4.6417    1.7032 C   0  0  0  0  0  0  0  0  0  0  0  0
   -0.9574    5.2422    2.6170 H   0  0  0  0  0  0  0  0  0  0  0  0
   -1.4063    5.0662    0.4998 C   0  0  0  0  0  0  0  0  0  0  0  0
   -1.9842    6.0026    0.4714 H   0  0  0  0  0  0  0  0  0  0  0  0
   -1.2560    4.2919   -0.6610 C   0  0  0  0  0  0  0  0  0  0  0  0
   -1.7185    4.6088   -1.6075 H   0  0  0  0  0  0  0  0  0  0  0  0
   -0.5179    3.1028   -0.6158 C   0  0  0  0  0  0  0  0  0  0  0  0
   -0.4260    2.4633   -1.5040 H   0  0  0  0  0  0  0  0  0  0  0  0
    0.4773    2.9662    3.0936 C   0  0  0  0  0  0  0  0  0  0  0  0
    0.3687    1.8681    3.2000 H   0  0  0  0  0  0  0  0  0  0  0  0
   -0.0310    3.4546    3.9466 H   0  0  0  0  0  0  0  0  0  0  0  0
    1.5610    3.1970    3.1866 H   0  0  0  0  0  0  0  0  0  0  0  0
    1.3568   -2.0546    0.2694 C   0  0  0  0  0  0  0  0  0  0  0  0
    1.6801   -3.0404    1.2357 C   0  0  0  0  0  0  0  0  0  0  0  0
    1.6197   -4.3879    0.8355 C   0  0  0  0  0  0  0  0  0  0  0  0
    1.8573   -5.1647    1.5793 H   0  0  0  0  0  0  0  0  0  0  0  0
    1.2280   -4.7645   -0.4581 C   0  0  0  0  0  0  0  0  0  0  0  0
    1.1806   -5.8301   -0.7285 H   0  0  0  0  0  0  0  0  0  0  0  0
    0.8885   -3.7782   -1.3933 C   0  0  0  0  0  0  0  0  0  0  0  0
    0.5722   -4.0520   -2.4110 H   0  0  0  0  0  0  0  0  0  0  0  0
    0.9681   -2.4259   -1.0329 C   0  0  0  0  0  0  0  0  0  0  0  0
    0.7218   -1.6397   -1.7623 H   0  0  0  0  0  0  0  0  0  0  0  0
    1.9852   -2.6760    2.6619 C   0  0  0  0  0  0  0  0  0  0  0  0
    2.9832   -2.2021    2.7695 H   0  0  0  0  0  0  0  0  0  0  0  0
    1.9728   -3.5749    3.3069 H   0  0  0  0  0  0  0  0  0  0  0  0
    1.2178   -1.9698    3.0402 H   0  0  0  0  0  0  0  0  0  0  0  0
  1  7  1  0  0  0  0
  1  2  1  0  0  0  0
  2  3  1  0  0  0  0
  3  5  1  0  0  0  0
  3  4  1  1  0  0  0
  5  6  1  1  0  0  0
  7  5  1  0  0  0  0
  8  9  1  0  0  0  0
  8  3  1  0  0  0  0
  9 10  1  0  0  0  0
 11 12  1  0  0  0  0
 11  9  2  0  0  0  0
 13 11  1  0  0  0  0
 14 13  1  0  0  0  0
 15 13  2  0  0  0  0
 15 17  1  0  0  0  0
 16 15  1  0  0  0  0
 17  8  2  0  0  0  0
 18 17  1  0  0  0  0
 19  5  1  0  0  0  0
 19 20  1  0  0  0  0
 20 21  1  0  0  0  0
 22 20  2  0  0  0  0
 22 23  1  0  0  0  0
 24 22  1  0  0  0  0
 25 24  1  0  0  0  0
 26 28  1  0  0  0  0
 26 24  2  0  0  0  0
 27 26  1  0  0  0  0
 28 19  2  0  0  0  0
 29 28  1  0  0  0  0
 30  2  1  0  0  0  0
 30 31  1  0  0  0  0
 31 40  1  0  0  0  0
 32 31  2  0  0  0  0
 32 33  1  0  0  0  0
 34 32  1  0  0  0  0
 35 34  1  0  0  0  0
 36 38  1  0  0  0  0
 36 34  2  0  0  0  0
 37 36  1  0  0  0  0
 38 30  2  0  0  0  0
 39 38  1  0  0  0  0
 40 43  1  0  0  0  0
 40 41  1  0  0  0  0
 40 42  1  0  0  0  0
 44  7  1  0  0  0  0
 44 45  1  0  0  0  0
 45 54  1  0  0  0  0
 46 45  2  0  0  0  0
 46 47  1  0  0  0  0
 48 46  1  0  0  0  0
 49 48  1  0  0  0  0
 50 52  1  0  0  0  0
 50 48  2  0  0  0  0
 51 50  1  0  0  0  0
 52 44  2  0  0  0  0
 53 52  1  0  0  0  0
 54 55  1  0  0  0  0
 54 57  1  0  0  0  0
 54 56  1  0  0  0  0
M  END
