37
 OpenBabel05122313113D

 42 43  0  0  1  0  0  0  0  0999 V2000
    0.4798    1.3471   -0.5761 P   0  0  0  0  0  0  0  0  0  0  0  0
    0.3926    0.6402    2.5906 N   0  0  0  0  0  0  0  0  0  0  0  0
    1.1311   -0.0809    0.3641 C   0  0  0  0  0  0  0  0  0  0  0  0
    1.4158    0.0950    1.8019 C   0  0  2  0  0  3  0  0  0  0  0  0
    2.5817   -0.5378    2.1781 C   0  0  0  0  0  0  0  0  0  0  0  0
    2.9972   -0.6203    3.1908 H   0  0  0  0  0  0  0  0  0  0  0  0
    3.1085   -1.2064    0.9991 C   0  0  0  0  0  0  0  0  0  0  0  0
    4.2479   -2.0153    0.8323 C   0  0  0  0  0  0  0  0  0  0  0  0
    4.9370   -2.1834    1.6749 H   0  0  0  0  0  0  0  0  0  0  0  0
    4.4888   -2.6146   -0.4144 C   0  0  0  0  0  0  0  0  0  0  0  0
    5.3734   -3.2554   -0.5513 H   0  0  0  0  0  0  0  0  0  0  0  0
    3.5986   -2.4151   -1.4876 C   0  0  0  0  0  0  0  0  0  0  0  0
    3.7864   -2.9117   -2.4519 H   0  0  0  0  0  0  0  0  0  0  0  0
    2.4618   -1.5999   -1.3371 C   0  0  0  0  0  0  0  0  0  0  0  0
    1.7664   -1.4738   -2.1803 H   0  0  0  0  0  0  0  0  0  0  0  0
    2.2104   -0.9771   -0.1045 C   0  0  0  0  0  0  0  0  0  0  0  0
    1.0767    1.3359   -2.3510 C   0  0  0  0  0  0  0  0  0  0  0  0
    0.8722    0.2908   -2.6600 H   0  0  0  0  0  0  0  0  0  0  0  0
    0.1806    2.2585   -3.1890 C   0  0  0  0  0  0  0  0  0  0  0  0
   -0.8944    2.0370   -3.0368 H   0  0  0  0  0  0  0  0  0  0  0  0
    0.4092    2.1399   -4.2686 H   0  0  0  0  0  0  0  0  0  0  0  0
    0.3421    3.3280   -2.9380 H   0  0  0  0  0  0  0  0  0  0  0  0
    2.5652    1.6398   -2.5405 C   0  0  0  0  0  0  0  0  0  0  0  0
    3.2032    0.9654   -1.9373 H   0  0  0  0  0  0  0  0  0  0  0  0
    2.8034    2.6886   -2.2691 H   0  0  0  0  0  0  0  0  0  0  0  0
    2.8467    1.5087   -3.6069 H   0  0  0  0  0  0  0  0  0  0  0  0
    1.0187    3.0556    0.0430 C   0  0  0  0  0  0  0  0  0  0  0  0
    1.1053    3.6284   -0.9074 H   0  0  0  0  0  0  0  0  0  0  0  0
   -0.0647    3.7240    0.8932 C   0  0  0  0  0  0  0  0  0  0  0  0
   -1.0520    3.6990    0.3919 H   0  0  0  0  0  0  0  0  0  0  0  0
    0.2036    4.7824    1.0952 H   0  0  0  0  0  0  0  0  0  0  0  0
   -0.1817    3.2094    1.8668 H   0  0  0  0  0  0  0  0  0  0  0  0
    2.3902    3.0472    0.7268 C   0  0  0  0  0  0  0  0  0  0  0  0
    3.1647    2.5479    0.1137 H   0  0  0  0  0  0  0  0  0  0  0  0
    2.3519    2.5098    1.6943 H   0  0  0  0  0  0  0  0  0  0  0  0
    2.7255    4.0872    0.9260 H   0  0  0  0  0  0  0  0  0  0  0  0
   -0.8379    0.6166    1.9882 C   0  0  0  0  0  2  0  0  0  0  0  0
   -1.6403    0.9130    2.7027 H   0  0  0  0  0  0  0  0  0  0  0  0
    0.6444    0.9939    3.9756 C   0  0  0  0  0  0  0  0  0  0  0  0
   -0.2947    1.3576    4.4322 H   0  0  0  0  0  0  0  0  0  0  0  0
    1.4139    1.7913    4.0505 H   0  0  0  0  0  0  0  0  0  0  0  0
    1.0037    0.1130    4.5506 H   0  0  0  0  0  0  0  0  0  0  0  0
  1 27  1  0  0  0  0
  1  3  1  0  0  0  0
  2 39  1  0  0  0  0
  3  4  1  0  0  0  0
  4  5  1  0  0  0  0
  4  2  1  1  0  0  0
  5  6  1  0  0  0  0
  7  5  2  0  0  0  0
  8  7  1  0  0  0  0
  8  9  1  0  0  0  0
 10  8  2  0  0  0  0
 11 10  1  0  0  0  0
 12 14  2  0  0  0  0
 12 10  1  0  0  0  0
 13 12  1  0  0  0  0
 14 16  1  0  0  0  0
 15 14  1  0  0  0  0
 16  3  2  0  0  0  0
 16  7  1  0  0  0  0
 17  1  1  0  0  0  0
 18 17  1  0  0  0  0
 19 20  1  0  0  0  0
 19 22  1  0  0  0  0
 19 17  1  0  0  0  0
 21 19  1  0  0  0  0
 23 17  1  0  0  0  0
 23 25  1  0  0  0  0
 23 24  1  0  0  0  0
 26 23  1  0  0  0  0
 27 33  1  0  0  0  0
 27 29  1  0  0  0  0
 28 27  1  0  0  0  0
 29 31  1  0  0  0  0
 29 32  1  0  0  0  0
 30 29  1  0  0  0  0
 33 36  1  0  0  0  0
 33 35  1  0  0  0  0
 34 33  1  0  0  0  0
 37  2  1  0  0  0  0
 37 38  1  0  0  0  0
 39 41  1  0  0  0  0
 39 40  1  0  0  0  0
 39 42  1  0  0  0  0
M  END
