3
 OpenBabel05122313113D

 37 39  0  0  0  0  0  0  0  0999 V2000
    0.0665   -1.0659    0.1922 N   0  0  0  0  0  0  0  0  0  0  0  0
    2.1589   -0.5469    0.0160 N   0  0  0  0  0  0  0  0  0  0  0  0
    0.8900   -0.0093   -0.1069 C   0  0  0  0  0  2  0  0  0  0  0  0
    0.7598   -2.2250    0.4966 C   0  0  0  0  0  0  0  0  0  0  0  0
    0.2587   -3.1551    0.7753 H   0  0  0  0  0  0  0  0  0  0  0  0
    2.1076   -1.9196    0.3898 C   0  0  0  0  0  0  0  0  0  0  0  0
    3.3206   -2.6418    0.5714 C   0  0  0  0  0  0  0  0  0  0  0  0
    3.2740   -3.7012    0.8586 H   0  0  0  0  0  0  0  0  0  0  0  0
    4.5161   -1.9844    0.3818 C   0  0  0  0  0  0  0  0  0  0  0  0
    5.4687   -2.5168    0.5155 H   0  0  0  0  0  0  0  0  0  0  0  0
    4.5319   -0.6006    0.0100 C   0  0  0  0  0  0  0  0  0  0  0  0
    5.4897   -0.0831   -0.1370 H   0  0  0  0  0  0  0  0  0  0  0  0
    3.3724    0.1222   -0.1725 C   0  0  0  0  0  0  0  0  0  0  0  0
    3.3244    1.5636   -0.5563 C   0  0  0  0  0  0  0  0  0  0  0  0
    4.3488    1.9621   -0.6751 H   0  0  0  0  0  0  0  0  0  0  0  0
    2.7786    2.1706    0.1995 H   0  0  0  0  0  0  0  0  0  0  0  0
    2.7624    1.7084   -1.5036 H   0  0  0  0  0  0  0  0  0  0  0  0
   -1.3681   -0.9557    0.1590 C   0  0  0  0  0  0  0  0  0  0  0  0
   -2.0317   -0.1991    1.1524 C   0  0  0  0  0  0  0  0  0  0  0  0
   -3.4342   -0.1235    1.0768 C   0  0  0  0  0  0  0  0  0  0  0  0
   -3.9681    0.4609    1.8431 H   0  0  0  0  0  0  0  0  0  0  0  0
   -4.1689   -0.7590    0.0605 C   0  0  0  0  0  0  0  0  0  0  0  0
   -3.4639   -1.4938   -0.9106 C   0  0  0  0  0  0  0  0  0  0  0  0
   -4.0192   -1.9885   -1.7235 H   0  0  0  0  0  0  0  0  0  0  0  0
   -2.0636   -1.6044   -0.8872 C   0  0  0  0  0  0  0  0  0  0  0  0
   -1.3279   -2.3597   -1.9650 C   0  0  0  0  0  0  0  0  0  0  0  0
   -0.4706   -1.7717   -2.3515 H   0  0  0  0  0  0  0  0  0  0  0  0
   -2.0010   -2.5900   -2.8122 H   0  0  0  0  0  0  0  0  0  0  0  0
   -0.9127   -3.3209   -1.5965 H   0  0  0  0  0  0  0  0  0  0  0  0
   -1.2893    0.5422    2.2323 C   0  0  0  0  0  0  0  0  0  0  0  0
   -0.3773    0.0069    2.5605 H   0  0  0  0  0  0  0  0  0  0  0  0
   -1.9394    0.7101    3.1123 H   0  0  0  0  0  0  0  0  0  0  0  0
   -0.9632    1.5389    1.8545 H   0  0  0  0  0  0  0  0  0  0  0  0
   -5.6685   -0.6195   -0.0100 C   0  0  0  0  0  0  0  0  0  0  0  0
   -6.1210   -0.5625    0.9997 H   0  0  0  0  0  0  0  0  0  0  0  0
   -6.1343   -1.4647   -0.5532 H   0  0  0  0  0  0  0  0  0  0  0  0
   -5.9514    0.3123   -0.5453 H   0  0  0  0  0  0  0  0  0  0  0  0
  1  4  1  0  0  0  0
  2  6  1  0  0  0  0
  3  2  1  0  0  0  0
  3  1  1  0  0  0  0
  4  5  1  0  0  0  0
  6  4  2  0  0  0  0
  6  7  1  0  0  0  0
  7  8  1  0  0  0  0
  9 10  1  0  0  0  0
  9  7  2  0  0  0  0
 11  9  1  0  0  0  0
 12 11  1  0  0  0  0
 13 11  2  0  0  0  0
 13  2  1  0  0  0  0
 14 13  1  0  0  0  0
 14 16  1  0  0  0  0
 15 14  1  0  0  0  0
 17 14  1  0  0  0  0
 18  1  1  0  0  0  0
 18 19  1  0  0  0  0
 19 30  1  0  0  0  0
 20 19  2  0  0  0  0
 20 21  1  0  0  0  0
 22 20  1  0  0  0  0
 23 25  1  0  0  0  0
 23 22  2  0  0  0  0
 24 23  1  0  0  0  0
 25 18  2  0  0  0  0
 26 29  1  0  0  0  0
 26 25  1  0  0  0  0
 27 26  1  0  0  0  0
 28 26  1  0  0  0  0
 30 31  1  0  0  0  0
 30 32  1  0  0  0  0
 33 30  1  0  0  0  0
 34 22  1  0  0  0  0
 34 35  1  0  0  0  0
 36 34  1  0  0  0  0
 37 34  1  0  0  0  0
M  END
