3
 OpenBabel05122313113D

 70 74  0  0  1  0  0  0  0  0999 V2000
    0.6536    0.9019    0.7829 N   0  0  0  0  0  0  0  0  0  0  0  0
    1.8803    0.8936   -0.0329 C   0  0  0  0  0  0  0  0  0  0  0  0
   -0.3797    0.1403    0.4071 C   0  0  0  0  0  2  0  0  0  0  0  0
    2.9637    0.0087    0.2211 C   0  0  0  0  0  0  0  0  0  0  0  0
    4.0628    0.0440   -0.6601 C   0  0  0  0  0  0  0  0  0  0  0  0
    4.8995   -0.6478   -0.4840 H   0  0  0  0  0  0  0  0  0  0  0  0
    3.0420   -0.9536    1.3987 C   0  0  0  0  0  0  0  0  0  0  0  0
    2.0485   -0.9872    1.8820 H   0  0  0  0  0  0  0  0  0  0  0  0
   -2.6460    0.5405   -1.6246 C   0  0  0  0  0  0  0  0  0  0  0  0
   -3.0294    1.2128   -2.4216 H   0  0  0  0  0  0  0  0  0  0  0  0
   -1.6879    0.1232   -1.9847 H   0  0  0  0  0  0  0  0  0  0  0  0
    1.9391    1.8345   -1.1019 C   0  0  0  0  0  0  0  0  0  0  0  0
    0.6546    1.7878    2.0382 C   0  0  0  0  0  0  0  0  0  0  0  0
    3.0600    1.8125   -1.9522 C   0  0  0  0  0  0  0  0  0  0  0  0
    3.1015    2.5158   -2.7972 H   0  0  0  0  0  0  0  0  0  0  0  0
   -1.8224    0.5017    0.8484 C   0  0  2  0  0  0  0  0  0  0  0  0
   -0.7408    2.3993    2.1625 C   0  0  0  0  0  0  0  0  0  0  0  0
   -0.7804    2.9898    3.1006 H   0  0  0  0  0  0  0  0  0  0  0  0
   -0.9111    3.1186    1.3329 H   0  0  0  0  0  0  0  0  0  0  0  0
    3.3574   -2.3941    0.9652 C   0  0  0  0  0  0  0  0  0  0  0  0
    2.6485   -2.7296    0.1853 H   0  0  0  0  0  0  0  0  0  0  0  0
    3.2568   -3.0795    1.8300 H   0  0  0  0  0  0  0  0  0  0  0  0
    4.3894   -2.4949    0.5702 H   0  0  0  0  0  0  0  0  0  0  0  0
    0.9429    0.8910    3.2618 C   0  0  0  0  0  0  0  0  0  0  0  0
    0.4010   -0.0723    3.2058 H   0  0  0  0  0  0  0  0  0  0  0  0
    0.6324    1.4277    4.1808 H   0  0  0  0  0  0  0  0  0  0  0  0
    2.0187    0.6688    3.3550 H   0  0  0  0  0  0  0  0  0  0  0  0
    4.1130    0.9191   -1.7470 C   0  0  0  0  0  0  0  0  0  0  0  0
    4.9775    0.9121   -2.4276 H   0  0  0  0  0  0  0  0  0  0  0  0
    1.4434    4.3063   -1.4334 C   0  0  0  0  0  0  0  0  0  0  0  0
    2.0547    4.5429   -0.5404 H   0  0  0  0  0  0  0  0  0  0  0  0
    0.6255    5.0525   -1.5003 H   0  0  0  0  0  0  0  0  0  0  0  0
    2.0910    4.4500   -2.3219 H   0  0  0  0  0  0  0  0  0  0  0  0
    1.7116    2.8905    1.9618 C   0  0  0  0  0  0  0  0  0  0  0  0
    2.7306    2.4884    1.8106 H   0  0  0  0  0  0  0  0  0  0  0  0
    1.7000    3.4367    2.9259 H   0  0  0  0  0  0  0  0  0  0  0  0
    1.5006    3.6207    1.1609 H   0  0  0  0  0  0  0  0  0  0  0  0
    0.8622    2.8803   -1.3869 C   0  0  0  0  0  0  0  0  0  0  0  0
    0.1297    2.8456   -0.5574 H   0  0  0  0  0  0  0  0  0  0  0  0
   -1.8000    1.3136    2.1625 C   0  0  0  0  0  0  0  0  0  0  0  0
   -2.7852    1.7655    2.3596 H   0  0  0  0  0  0  0  0  0  0  0  0
   -1.6234    0.6068    2.9984 H   0  0  0  0  0  0  0  0  0  0  0  0
   -3.0504   -1.5037   -0.2640 C   0  0  0  0  0  0  0  0  0  0  0  0
   -2.0908   -1.9580   -0.6169 H   0  0  0  0  0  0  0  0  0  0  0  0
   -3.7316   -2.3527   -0.0427 H   0  0  0  0  0  0  0  0  0  0  0  0
    0.0985    2.5911   -2.6901 C   0  0  0  0  0  0  0  0  0  0  0  0
    0.7820    2.6104   -3.5632 H   0  0  0  0  0  0  0  0  0  0  0  0
   -0.6864    3.3573   -2.8565 H   0  0  0  0  0  0  0  0  0  0  0  0
   -0.3882    1.6011   -2.6756 H   0  0  0  0  0  0  0  0  0  0  0  0
   -3.8193    1.9253    0.0751 C   0  0  0  0  0  0  0  0  0  0  0  0
   -3.7459    2.6160    0.9385 H   0  0  0  0  0  0  0  0  0  0  0  0
   -4.2081    2.5359   -0.7682 H   0  0  0  0  0  0  0  0  0  0  0  0
   -4.9923   -0.0476   -0.9246 C   0  0  0  0  0  0  0  0  0  0  0  0
   -5.4248    0.5945   -1.7226 H   0  0  0  0  0  0  0  0  0  0  0  0
   -5.7112   -0.8761   -0.7476 H   0  0  0  0  0  0  0  0  0  0  0  0
   -3.6314   -0.6117   -1.3708 C   0  0  1  0  0  0  0  0  0  0  0  0
   -3.7536   -1.2024   -2.3035 H   0  0  0  0  0  0  0  0  0  0  0  0
    4.0930   -0.4715    2.4173 C   0  0  0  0  0  0  0  0  0  0  0  0
    5.1158   -0.5322    1.9909 H   0  0  0  0  0  0  0  0  0  0  0  0
    4.0706   -1.1044    3.3280 H   0  0  0  0  0  0  0  0  0  0  0  0
    3.9356    0.5814    2.7270 H   0  0  0  0  0  0  0  0  0  0  0  0
   -2.8280   -0.6953    1.0254 C   0  0  2  0  0  0  0  0  0  0  0  0
   -2.4168   -1.3637    1.8065 H   0  0  0  0  0  0  0  0  0  0  0  0
   -4.7945    0.7676    0.3667 C   0  0  1  0  0  0  0  0  0  0  0  0
   -5.7688    1.1807    0.7047 H   0  0  0  0  0  0  0  0  0  0  0  0
   -4.2140   -0.1578    1.4563 C   0  0  0  0  0  0  0  0  0  0  0  0
   -4.8904   -1.0272    1.5982 H   0  0  0  0  0  0  0  0  0  0  0  0
   -4.1766    0.3558    2.4373 H   0  0  0  0  0  0  0  0  0  0  0  0
   -2.4375    1.3703   -0.3409 C   0  0  2  0  0  0  0  0  0  0  0  0
   -1.7605    2.2190   -0.5632 H   0  0  0  0  0  0  0  0  0  0  0  0
  1 13  1  0  0  0  0
  2  4  1  0  0  0  0
  2  1  1  0  0  0  0
  3  1  1  0  0  0  0
  4  7  1  0  0  0  0
  5  6  1  0  0  0  0
  5  4  2  0  0  0  0
  7  8  1  0  0  0  0
  7 58  1  0  0  0  0
  9 56  1  0  0  0  0
  9 69  1  0  0  0  0
 10  9  1  0  0  0  0
 11  9  1  0  0  0  0
 12  2  2  0  0  0  0
 13 17  1  0  0  0  0
 13 24  1  0  0  0  0
 14 28  2  0  0  0  0
 14 12  1  0  0  0  0
 15 14  1  0  0  0  0
 16  3  1  6  0  0  0
 16 62  1  0  0  0  0
 16 40  1  0  0  0  0
 17 40  1  0  0  0  0
 17 18  1  0  0  0  0
 19 17  1  0  0  0  0
 20  7  1  0  0  0  0
 20 22  1  0  0  0  0
 21 20  1  0  0  0  0
 23 20  1  0  0  0  0
 24 27  1  0  0  0  0
 24 26  1  0  0  0  0
 25 24  1  0  0  0  0
 28  5  1  0  0  0  0
 29 28  1  0  0  0  0
 30 38  1  0  0  0  0
 30 31  1  0  0  0  0
 32 30  1  0  0  0  0
 33 30  1  0  0  0  0
 34 13  1  0  0  0  0
 34 36  1  0  0  0  0
 35 34  1  0  0  0  0
 37 34  1  0  0  0  0
 38 12  1  0  0  0  0
 38 39  1  0  0  0  0
 40 41  1  0  0  0  0
 40 42  1  0  0  0  0
 43 45  1  0  0  0  0
 43 62  1  0  0  0  0
 44 43  1  0  0  0  0
 46 49  1  0  0  0  0
 46 38  1  0  0  0  0
 47 46  1  0  0  0  0
 48 46  1  0  0  0  0
 50 64  1  0  0  0  0
 50 51  1  0  0  0  0
 52 50  1  0  0  0  0
 53 55  1  0  0  0  0
 53 64  1  0  0  0  0
 54 53  1  0  0  0  0
 56 57  1  6  0  0  0
 56 53  1  0  0  0  0
 56 43  1  0  0  0  0
 58 61  1  0  0  0  0
 58 60  1  0  0  0  0
 59 58  1  0  0  0  0
 62 66  1  0  0  0  0
 62 63  1  1  0  0  0
 64 65  1  1  0  0  0
 64 66  1  0  0  0  0
 66 67  1  0  0  0  0
 66 68  1  0  0  0  0
 69 70  1  6  0  0  0
 69 50  1  0  0  0  0
 69 16  1  0  0  0  0
M  END
