1
 OpenBabel05122313113D

 36 38  0  0  0  0  0  0  0  0999 V2000
    0.2589    1.5345   -1.2391 C   0  0  0  0  0  2  0  0  0  0  0  0
    1.5334    1.5033   -1.7277 N   0  0  0  0  0  0  0  0  0  0  0  0
    1.8305    2.6667   -2.4212 C   0  0  0  0  0  0  0  0  0  0  0  0
    2.8031    2.8358   -2.8926 H   0  0  0  0  0  0  0  0  0  0  0  0
    0.7033    3.4460   -2.3817 C   0  0  0  0  0  0  0  0  0  0  0  0
    0.4950    4.4258   -2.8223 H   0  0  0  0  0  0  0  0  0  0  0  0
   -0.2465    2.7327   -1.6600 N   0  0  0  0  0  0  0  0  0  0  0  0
    2.4749    0.4001   -1.5116 C   0  0  0  0  0  0  0  0  0  0  0  0
    3.0416    0.2452   -2.4494 H   0  0  0  0  0  0  0  0  0  0  0  0
    1.8615   -0.5097   -1.3443 H   0  0  0  0  0  0  0  0  0  0  0  0
    3.4190    0.6168   -0.3467 C   0  0  0  0  0  0  0  0  0  0  0  0
    4.7886    0.3313   -0.4925 C   0  0  0  0  0  0  0  0  0  0  0  0
    5.1767    0.0111   -1.4725 H   0  0  0  0  0  0  0  0  0  0  0  0
    5.6602    0.4349    0.6030 C   0  0  0  0  0  0  0  0  0  0  0  0
    6.7291    0.2076    0.4750 H   0  0  0  0  0  0  0  0  0  0  0  0
    5.1704    0.8348    1.8561 C   0  0  0  0  0  0  0  0  0  0  0  0
    5.8534    0.9206    2.7144 H   0  0  0  0  0  0  0  0  0  0  0  0
    3.8067    1.1384    2.0044 C   0  0  0  0  0  0  0  0  0  0  0  0
    3.4177    1.4657    2.9810 H   0  0  0  0  0  0  0  0  0  0  0  0
    2.9350    1.0304    0.9107 C   0  0  0  0  0  0  0  0  0  0  0  0
    1.8671    1.2713    1.0384 H   0  0  0  0  0  0  0  0  0  0  0  0
   -1.5829    3.2219   -1.3409 C   0  0  0  0  0  0  0  0  0  0  0  0
   -2.2270    2.3328   -1.1942 H   0  0  0  0  0  0  0  0  0  0  0  0
   -1.9643    3.7842   -2.2165 H   0  0  0  0  0  0  0  0  0  0  0  0
   -1.6197    4.1252   -0.0967 C   0  0  0  0  0  0  0  0  0  0  0  0
   -0.9091    4.9679   -0.2161 H   0  0  0  0  0  0  0  0  0  0  0  0
   -2.6338    4.5675   -0.0196 H   0  0  0  0  0  0  0  0  0  0  0  0
   -1.3141    3.4323    1.1375 N   0  0  0  0  0  0  0  0  0  0  0  0
   -2.2203    2.6899    1.8739 C   0  0  0  0  0  0  0  0  0  0  0  0
   -3.2861    2.6971    1.6179 H   0  0  0  0  0  0  0  0  0  0  0  0
   -1.5353    2.0898    2.9252 C   0  0  0  0  0  0  0  0  0  0  0  0
   -1.9805    1.4660    3.7085 H   0  0  0  0  0  0  0  0  0  0  0  0
   -0.1643    2.4745    2.8118 C   0  0  0  0  0  0  0  0  0  0  0  0
    0.6537    2.2037    3.4889 H   0  0  0  0  0  0  0  0  0  0  0  0
   -0.0574    3.2992    1.6968 C   0  0  0  0  0  0  0  0  0  0  0  0
    0.8069    3.8143    1.2626 H   0  0  0  0  0  0  0  0  0  0  0  0
  2  8  1  0  0  0  0
  2  1  1  0  0  0  0
  3  5  2  0  0  0  0
  3  2  1  0  0  0  0
  4  3  1  0  0  0  0
  5  7  1  0  0  0  0
  6  5  1  0  0  0  0
  7 22  1  0  0  0  0
  7  1  1  0  0  0  0
  8 10  1  0  0  0  0
  8 11  1  0  0  0  0
  9  8  1  0  0  0  0
 11 20  1  0  0  0  0
 12 11  2  0  0  0  0
 12 14  1  0  0  0  0
 13 12  1  0  0  0  0
 14 16  2  0  0  0  0
 15 14  1  0  0  0  0
 16 18  1  0  0  0  0
 16 17  1  0  0  0  0
 18 19  1  0  0  0  0
 20 21  1  0  0  0  0
 20 18  2  0  0  0  0
 22 23  1  0  0  0  0
 22 25  1  0  0  0  0
 24 22  1  0  0  0  0
 25 27  1  0  0  0  0
 25 28  1  0  0  0  0
 26 25  1  0  0  0  0
 28 35  1  0  0  0  0
 28 29  1  0  0  0  0
 29 31  2  0  0  0  0
 30 29  1  0  0  0  0
 31 32  1  0  0  0  0
 33 31  1  0  0  0  0
 33 34  1  0  0  0  0
 35 33  2  0  0  0  0
 36 35  1  0  0  0  0
M  END
