2
 OpenBabel05122313113D

 49 51  0  0  1  0  0  0  0  0999 V2000
   -1.2489   -1.6694   -0.4061 N   0  0  1  0  0  0  0  0  0  0  0  0
   -0.0683   -1.0420   -0.1393 C   0  0  0  0  0  2  0  0  0  0  0  0
    1.0832   -1.7523   -0.0536 N   0  0  2  0  0  0  0  0  0  0  0  0
   -1.4385   -2.9991   -1.0197 C   0  0  0  0  0  0  0  0  0  0  0  0
   -2.3672   -2.9283   -1.6169 H   0  0  0  0  0  0  0  0  0  0  0  0
   -1.6343   -3.7793   -0.2493 H   0  0  0  0  0  0  0  0  0  0  0  0
   -0.2996   -3.4247   -1.9469 C   0  0  0  0  0  0  0  0  0  0  0  0
   -0.0072   -2.5461   -2.5593 H   0  0  0  0  0  0  0  0  0  0  0  0
   -0.6833   -4.1843   -2.6580 H   0  0  0  0  0  0  0  0  0  0  0  0
    0.9146   -3.9750   -1.1866 C   0  0  0  0  0  0  0  0  0  0  0  0
    0.7705   -5.0502   -0.9457 H   0  0  0  0  0  0  0  0  0  0  0  0
    1.8244   -3.9099   -1.8179 H   0  0  0  0  0  0  0  0  0  0  0  0
    1.1152   -3.2103    0.1202 C   0  0  0  0  0  0  0  0  0  0  0  0
    0.3304   -3.4823    0.8562 H   0  0  0  0  0  0  0  0  0  0  0  0
    2.0792   -3.4791    0.5915 H   0  0  0  0  0  0  0  0  0  0  0  0
   -2.4806   -0.9664    0.0189 C   0  0  0  0  0  0  0  0  0  0  0  0
   -2.1281    0.0713    0.2412 H   0  0  0  0  0  0  0  0  0  0  0  0
   -3.0311   -1.5399    1.3335 C   0  0  0  0  0  0  0  0  0  0  0  0
   -3.3769   -2.5872    1.1738 H   0  0  0  0  0  0  0  0  0  0  0  0
   -2.2083   -1.5551    2.0767 H   0  0  0  0  0  0  0  0  0  0  0  0
   -4.1914   -0.6781    1.8476 C   0  0  0  0  0  0  0  0  0  0  0  0
   -4.6113   -1.1169    2.7766 H   0  0  0  0  0  0  0  0  0  0  0  0
   -3.7830    0.3173    2.1295 H   0  0  0  0  0  0  0  0  0  0  0  0
   -5.2884   -0.5046    0.7895 C   0  0  0  0  0  0  0  0  0  0  0  0
   -6.0883    0.1673    1.1653 H   0  0  0  0  0  0  0  0  0  0  0  0
   -5.7729   -1.4890    0.5966 H   0  0  0  0  0  0  0  0  0  0  0  0
   -4.7163    0.0351   -0.5280 C   0  0  0  0  0  0  0  0  0  0  0  0
   -4.3266    1.0647   -0.3643 H   0  0  0  0  0  0  0  0  0  0  0  0
   -5.5131    0.1195   -1.2960 H   0  0  0  0  0  0  0  0  0  0  0  0
   -3.5761   -0.8537   -1.0490 C   0  0  0  0  0  0  0  0  0  0  0  0
   -3.1533   -0.4409   -1.9890 H   0  0  0  0  0  0  0  0  0  0  0  0
   -3.9996   -1.8536   -1.2941 H   0  0  0  0  0  0  0  0  0  0  0  0
    2.3499   -1.0233    0.1476 C   0  0  0  0  0  0  0  0  0  0  0  0
    2.0564    0.0481    0.0193 H   0  0  0  0  0  0  0  0  0  0  0  0
    2.9084   -1.1501    1.5715 C   0  0  0  0  0  0  0  0  0  0  0  0
    2.1107   -0.8622    2.2871 H   0  0  0  0  0  0  0  0  0  0  0  0
    3.2000   -2.2035    1.7858 H   0  0  0  0  0  0  0  0  0  0  0  0
    4.1386   -0.2462    1.7294 C   0  0  0  0  0  0  0  0  0  0  0  0
    3.8137    0.8143    1.6332 H   0  0  0  0  0  0  0  0  0  0  0  0
    4.5579   -0.3489    2.7516 H   0  0  0  0  0  0  0  0  0  0  0  0
    5.2091   -0.5509    0.6734 C   0  0  0  0  0  0  0  0  0  0  0  0
    5.6060   -1.5778    0.8422 H   0  0  0  0  0  0  0  0  0  0  0  0
    6.0729    0.1380    0.7829 H   0  0  0  0  0  0  0  0  0  0  0  0
    4.6372   -0.4639   -0.7480 C   0  0  0  0  0  0  0  0  0  0  0  0
    5.4101   -0.7304   -1.4989 H   0  0  0  0  0  0  0  0  0  0  0  0
    4.3440    0.5890   -0.9607 H   0  0  0  0  0  0  0  0  0  0  0  0
    3.4026   -1.3614   -0.9155 C   0  0  0  0  0  0  0  0  0  0  0  0
    2.9626   -1.2416   -1.9283 H   0  0  0  0  0  0  0  0  0  0  0  0
    3.7093   -2.4290   -0.8229 H   0  0  0  0  0  0  0  0  0  0  0  0
  1  2  1  1  0  0  0
  1 16  1  0  0  0  0
  3  2  1  1  0  0  0
  3 13  1  0  0  0  0
  3 33  1  0  0  0  0
  4  1  1  0  0  0  0
  4  6  1  0  0  0  0
  5  4  1  0  0  0  0
  7 10  1  0  0  0  0
  7  4  1  0  0  0  0
  8  7  1  0  0  0  0
  9  7  1  0  0  0  0
 10 11  1  0  0  0  0
 10 13  1  0  0  0  0
 12 10  1  0  0  0  0
 13 15  1  0  0  0  0
 13 14  1  0  0  0  0
 16 17  1  0  0  0  0
 16 18  1  0  0  0  0
 18 21  1  0  0  0  0
 18 20  1  0  0  0  0
 19 18  1  0  0  0  0
 21 23  1  0  0  0  0
 21 22  1  0  0  0  0
 24 25  1  0  0  0  0
 24 21  1  0  0  0  0
 26 24  1  0  0  0  0
 27 28  1  0  0  0  0
 27 24  1  0  0  0  0
 29 27  1  0  0  0  0
 30 27  1  0  0  0  0
 30 16  1  0  0  0  0
 31 30  1  0  0  0  0
 32 30  1  0  0  0  0
 33 35  1  0  0  0  0
 34 33  1  0  0  0  0
 35 38  1  0  0  0  0
 35 37  1  0  0  0  0
 35 36  1  0  0  0  0
 38 40  1  0  0  0  0
 39 38  1  0  0  0  0
 41 43  1  0  0  0  0
 41 42  1  0  0  0  0
 41 38  1  0  0  0  0
 44 41  1  0  0  0  0
 45 44  1  0  0  0  0
 46 44  1  0  0  0  0
 47 49  1  0  0  0  0
 47 44  1  0  0  0  0
 47 33  1  0  0  0  0
 48 47  1  0  0  0  0
M  END
