2
q = -1.0, confidence = 0.0

 26 27  0  0  1  0  0  0  0  0999 V2000
    3.0007   -2.1251   -0.4083 O   0  0  0  0  0  0  0  0  0  0  0  0
    0.9070    0.7095    0.0344 C   0  0  0  0  0  3  0  0  0  0  0  0
    1.5497    1.1057   -1.0908 C   0  0  0  0  0  0  0  0  0  0  0  0
    1.0310    1.1415   -2.0624 H   0  0  0  0  0  0  0  0  0  0  0  0
    3.0339    1.3968   -1.1056 C   0  0  1  0  0  0  0  0  0  0  0  0
    3.3114    1.9616   -0.1883 H   0  0  0  0  0  0  0  0  0  0  0  0
    3.8198    0.0329   -1.0343 C   0  0  2  0  0  0  0  0  0  0  0  0
    3.7334   -0.4498   -2.0292 H   0  0  0  0  0  0  0  0  0  0  0  0
    3.1744   -0.9601   -0.0677 C   0  0  0  0  0  0  0  0  0  0  0  0
    2.7793   -0.4952    1.3324 C   0  0  2  0  0  0  0  0  0  0  0  0
    2.2941   -1.3770    1.7975 H   0  0  0  0  0  0  0  0  0  0  0  0
    1.6964    0.6577    1.3197 C   0  0  0  0  0  0  0  0  0  0  0  0
    1.0609    0.5212    2.2115 H   0  0  0  0  0  0  0  0  0  0  0  0
    2.2187    1.6291    1.4536 H   0  0  0  0  0  0  0  0  0  0  0  0
    5.2826    0.2017   -0.7144 C   0  0  0  0  0  0  0  0  0  0  0  0
    5.9604    0.2700   -1.5812 H   0  0  0  0  0  0  0  0  0  0  0  0
    5.8408    0.3076    0.5213 C   0  0  0  0  0  0  0  0  0  0  0  0
    6.9310    0.4741    0.5500 H   0  0  0  0  0  0  0  0  0  0  0  0
    5.2067    0.2585    1.8373 C   0  0  0  0  0  0  0  0  0  0  0  0
    5.8749    0.5407    2.6687 H   0  0  0  0  0  0  0  0  0  0  0  0
    3.9384   -0.0810    2.1926 C   0  0  0  0  0  0  0  0  0  0  0  0
    3.6826    0.0025    3.2636 H   0  0  0  0  0  0  0  0  0  0  0  0
    3.4641    2.2129   -2.3249 C   0  0  0  0  0  0  0  0  0  0  0  0
    2.9268    3.1819   -2.3568 H   0  0  0  0  0  0  0  0  0  0  0  0
    3.2307    1.6698   -3.2648 H   0  0  0  0  0  0  0  0  0  0  0  0
    4.5524    2.4240   -2.3126 H   0  0  0  0  0  0  0  0  0  0  0  0
  1  9  2  0  0  0  0
  2 12  1  0  0  0  0
  3  2  2  0  0  0  0
  4  3  1  0  0  0  0
  5  3  1  0  0  0  0
  5  7  1  0  0  0  0
  5  6  1  1  0  0  0
  7  8  1  6  0  0  0
  7 15  1  0  0  0  0
  7  9  1  0  0  0  0
  9 10  1  0  0  0  0
 10 11  1  1  0  0  0
 10 21  1  0  0  0  0
 12 10  1  0  0  0  0
 12 14  1  0  0  0  0
 12 13  1  0  0  0  0
 15 17  2  0  0  0  0
 16 15  1  0  0  0  0
 17 18  1  0  0  0  0
 17 19  1  0  0  0  0
 19 21  2  0  0  0  0
 19 20  1  0  0  0  0
 21 22  1  0  0  0  0
 23 26  1  0  0  0  0
 23  5  1  0  0  0  0
 24 23  1  0  0  0  0
 25 23  1  0  0  0  0
M  END
