22
 OpenBabel05122313113D

 39 43  0  0  0  0  0  0  0  0999 V2000
    2.3044    2.1999    1.2388 N   0  0  0  0  0  0  0  0  0  0  0  0
    0.8805    1.5250   -0.2495 N   0  0  0  0  0  0  0  0  0  0  0  0
   -5.0369    1.0305   -0.7099 C   0  0  0  0  0  0  0  0  0  0  0  0
   -1.4876   -2.1527    0.5918 C   0  0  0  0  0  0  0  0  0  0  0  0
   -2.2566    0.2596   -0.7049 C   0  0  0  0  0  0  0  0  0  0  0  0
   -0.8928   -0.1473   -0.6751 C   0  0  0  0  0  0  0  0  0  0  0  0
   -3.8570   -2.5961    1.2269 C   0  0  0  0  0  0  0  0  0  0  0  0
    3.4905    2.2995    2.0749 C   0  0  0  0  0  0  0  0  0  0  0  0
    3.2154    2.2243    3.1454 H   0  0  0  0  0  0  0  0  0  0  0  0
    4.0114    3.2606    1.8951 H   0  0  0  0  0  0  0  0  0  0  0  0
    4.1644    1.4632    1.8114 H   0  0  0  0  0  0  0  0  0  0  0  0
   -4.0342    1.8357   -1.3503 C   0  0  0  0  0  0  0  0  0  0  0  0
   -7.3531    0.5787   -0.0692 C   0  0  0  0  0  0  0  0  0  0  0  0
   -2.8515   -1.7867    0.5919 C   0  0  0  0  0  0  0  0  0  0  0  0
   -2.7103    1.4678   -1.3486 C   0  0  0  0  0  0  0  0  0  0  0  0
   -3.2451   -0.5692   -0.0617 C   0  0  0  0  0  0  0  0  0  0  0  0
   -4.6246   -0.1846   -0.0647 C   0  0  0  0  0  0  0  0  0  0  0  0
   -0.5326   -1.3447   -0.0283 C   0  0  0  0  0  0  0  0  0  0  0  0
    0.3233    2.6430    0.3535 C   0  0  0  0  0  0  0  0  0  0  0  0
   -5.6082   -1.0119    0.5799 C   0  0  0  0  0  0  0  0  0  0  0  0
    0.2160    0.6968   -1.2657 C   0  0  0  0  0  0  0  0  0  0  0  0
    2.1024    1.2280    0.2943 C   0  0  0  0  0  2  0  0  0  0  0  0
    1.2269    3.0737    1.2898 C   0  0  0  0  0  0  0  0  0  0  0  0
   -5.1790   -2.2256    1.2216 C   0  0  0  0  0  0  0  0  0  0  0  0
   -6.4027    1.3919   -0.7001 C   0  0  0  0  0  0  0  0  0  0  0  0
   -6.9625   -0.6088    0.5638 C   0  0  0  0  0  0  0  0  0  0  0  0
   -7.7124   -1.2452    1.0587 H   0  0  0  0  0  0  0  0  0  0  0  0
    0.5299   -1.6384   -0.0104 H   0  0  0  0  0  0  0  0  0  0  0  0
   -1.1810   -3.0867    1.0868 H   0  0  0  0  0  0  0  0  0  0  0  0
   -1.9833    2.1111   -1.8651 H   0  0  0  0  0  0  0  0  0  0  0  0
   -4.3496    2.7622   -1.8548 H   0  0  0  0  0  0  0  0  0  0  0  0
   -5.9376   -2.8553    1.7119 H   0  0  0  0  0  0  0  0  0  0  0  0
    1.0105    0.0505   -1.6867 H   0  0  0  0  0  0  0  0  0  0  0  0
   -0.6647    3.0255    0.0813 H   0  0  0  0  0  0  0  0  0  0  0  0
   -0.1385    1.3622   -2.0747 H   0  0  0  0  0  0  0  0  0  0  0  0
   -3.5396   -3.5272    1.7212 H   0  0  0  0  0  0  0  0  0  0  0  0
    1.1929    3.9225    1.9792 H   0  0  0  0  0  0  0  0  0  0  0  0
   -8.4132    0.8739   -0.0708 H   0  0  0  0  0  0  0  0  0  0  0  0
   -6.7117    2.3241   -1.1978 H   0  0  0  0  0  0  0  0  0  0  0  0
  1 23  1  0  0  0  0
  1  8  1  0  0  0  0
  2 22  1  0  0  0  0
  2 19  1  0  0  0  0
  3 25  2  0  0  0  0
  3 17  1  0  0  0  0
  4 14  1  0  0  0  0
  4 29  1  0  0  0  0
  5  6  2  0  0  0  0
  5 16  1  0  0  0  0
  6 18  1  0  0  0  0
  7 36  1  0  0  0  0
  8  9  1  0  0  0  0
 10  8  1  0  0  0  0
 11  8  1  0  0  0  0
 12 15  2  0  0  0  0
 12  3  1  0  0  0  0
 13 26  2  0  0  0  0
 14  7  2  0  0  0  0
 15  5  1  0  0  0  0
 16 14  1  0  0  0  0
 17 16  2  0  0  0  0
 17 20  1  0  0  0  0
 18 28  1  0  0  0  0
 18  4  2  0  0  0  0
 19 23  2  0  0  0  0
 20 24  2  0  0  0  0
 21  6  1  0  0  0  0
 21  2  1  0  0  0  0
 22  1  1  0  0  0  0
 23 37  1  0  0  0  0
 24  7  1  0  0  0  0
 24 32  1  0  0  0  0
 25 13  1  0  0  0  0
 26 20  1  0  0  0  0
 26 27  1  0  0  0  0
 30 15  1  0  0  0  0
 31 12  1  0  0  0  0
 33 21  1  0  0  0  0
 34 19  1  0  0  0  0
 35 21  1  0  0  0  0
 38 13  1  0  0  0  0
 39 25  1  0  0  0  0
M  END
