38
 OpenBabel05122313113D

 55 60  0  0  0  0  0  0  0  0999 V2000
   -0.0918    0.6154    1.9617 N   0  0  0  0  0  0  0  0  0  0  0  0
    1.4865    1.7086    0.9597 N   0  0  0  0  0  0  0  0  0  0  0  0
    0.7240    2.6490    1.6453 C   0  0  0  0  0  0  0  0  0  0  0  0
    0.9582    3.7168    1.6142 H   0  0  0  0  0  0  0  0  0  0  0  0
   -0.9818   -0.4691    2.4030 C   0  0  0  0  0  0  0  0  0  0  0  0
   -0.8660   -0.5946    3.4985 H   0  0  0  0  0  0  0  0  0  0  0  0
   -0.5929   -1.3886    1.9203 H   0  0  0  0  0  0  0  0  0  0  0  0
   -2.0304   -0.5568   -0.3929 C   0  0  0  0  0  0  0  0  0  0  0  0
   -0.9846   -0.8476   -0.2099 H   0  0  0  0  0  0  0  0  0  0  0  0
   -2.4277   -0.1908    2.0635 C   0  0  0  0  0  0  0  0  0  0  0  0
    4.9681    2.3304   -0.2084 C   0  0  0  0  0  0  0  0  0  0  0  0
    5.9903    2.3492    0.2021 H   0  0  0  0  0  0  0  0  0  0  0  0
   -4.2526    0.1401    0.4362 C   0  0  0  0  0  0  0  0  0  0  0  0
    2.6027    2.0104    0.1027 C   0  0  0  0  0  0  0  0  0  0  0  0
   -2.8835   -0.2049    0.7133 C   0  0  0  0  0  0  0  0  0  0  0  0
    3.9005    2.0293    0.6546 C   0  0  0  0  0  0  0  0  0  0  0  0
   -3.3247    0.1347    3.0966 C   0  0  0  0  0  0  0  0  0  0  0  0
   -2.9616    0.1316    4.1370 H   0  0  0  0  0  0  0  0  0  0  0  0
    2.3516    2.2564   -1.2644 C   0  0  0  0  0  0  0  0  0  0  0  0
    4.7680    2.5937   -1.5764 C   0  0  0  0  0  0  0  0  0  0  0  0
   -4.6605    0.4576    2.8349 C   0  0  0  0  0  0  0  0  0  0  0  0
   -5.3428    0.7051    3.6624 H   0  0  0  0  0  0  0  0  0  0  0  0
    5.9370    2.8695   -2.4878 C   0  0  0  0  0  0  0  0  0  0  0  0
    5.6515    3.5260   -3.3330 H   0  0  0  0  0  0  0  0  0  0  0  0
    6.3238    1.9238   -2.9246 H   0  0  0  0  0  0  0  0  0  0  0  0
    6.7768    3.3455   -1.9446 H   0  0  0  0  0  0  0  0  0  0  0  0
   -5.1476    0.4759    1.5107 C   0  0  0  0  0  0  0  0  0  0  0  0
   -2.4957   -0.5491   -1.6861 C   0  0  0  0  0  0  0  0  0  0  0  0
   -1.8222   -0.8310   -2.5104 H   0  0  0  0  0  0  0  0  0  0  0  0
   -3.8523   -0.1914   -1.9947 C   0  0  0  0  0  0  0  0  0  0  0  0
   -0.2757    1.9556    2.2762 C   0  0  0  0  0  0  0  0  0  0  0  0
   -1.1072    2.2962    2.8999 H   0  0  0  0  0  0  0  0  0  0  0  0
   -4.7329    0.1494   -0.9126 C   0  0  0  0  0  0  0  0  0  0  0  0
    0.9564    2.1577   -1.8227 C   0  0  0  0  0  0  0  0  0  0  0  0
    0.5861    1.1120   -1.7606 H   0  0  0  0  0  0  0  0  0  0  0  0
    0.9278    2.4696   -2.8832 H   0  0  0  0  0  0  0  0  0  0  0  0
    0.2333    2.7803   -1.2571 H   0  0  0  0  0  0  0  0  0  0  0  0
    0.9919    0.4451    1.1450 C   0  0  0  0  0  2  0  0  0  0  0  0
    3.4552    2.5523   -2.0826 C   0  0  0  0  0  0  0  0  0  0  0  0
    3.2820    2.7469   -3.1530 H   0  0  0  0  0  0  0  0  0  0  0  0
   -4.3473   -0.1739   -3.3186 C   0  0  0  0  0  0  0  0  0  0  0  0
   -3.6688   -0.4390   -4.1440 H   0  0  0  0  0  0  0  0  0  0  0  0
   -6.0989    0.4985   -1.1915 C   0  0  0  0  0  0  0  0  0  0  0  0
   -6.5109    0.8183    1.2024 C   0  0  0  0  0  0  0  0  0  0  0  0
   -7.1858    1.0720    2.0344 H   0  0  0  0  0  0  0  0  0  0  0  0
   -6.9667    0.8306   -0.0927 C   0  0  0  0  0  0  0  0  0  0  0  0
   -8.0125    1.0951   -0.3134 H   0  0  0  0  0  0  0  0  0  0  0  0
   -5.6793    0.1708   -3.5807 C   0  0  0  0  0  0  0  0  0  0  0  0
   -6.0481    0.1786   -4.6175 H   0  0  0  0  0  0  0  0  0  0  0  0
    4.1262    1.6914    2.1045 C   0  0  0  0  0  0  0  0  0  0  0  0
    5.1849    1.8377    2.3886 H   0  0  0  0  0  0  0  0  0  0  0  0
    3.8608    0.6304    2.2996 H   0  0  0  0  0  0  0  0  0  0  0  0
    3.4967    2.3071    2.7792 H   0  0  0  0  0  0  0  0  0  0  0  0
   -6.5471    0.5034   -2.5312 C   0  0  0  0  0  0  0  0  0  0  0  0
   -7.5939    0.7720   -2.7416 H   0  0  0  0  0  0  0  0  0  0  0  0
  1 31  1  0  0  0  0
  1  5  1  0  0  0  0
  2 38  1  0  0  0  0
  2  3  1  0  0  0  0
  3 31  2  0  0  0  0
  4  3  1  0  0  0  0
  5  6  1  0  0  0  0
  7  5  1  0  0  0  0
  8  9  1  0  0  0  0
  8 15  1  0  0  0  0
 10  5  1  0  0  0  0
 10 17  1  0  0  0  0
 11 12  1  0  0  0  0
 11 16  1  0  0  0  0
 13 15  1  0  0  0  0
 13 27  1  0  0  0  0
 14 16  2  0  0  0  0
 14  2  1  0  0  0  0
 15 10  2  0  0  0  0
 16 50  1  0  0  0  0
 17 18  1  0  0  0  0
 19 14  1  0  0  0  0
 20 11  2  0  0  0  0
 21 17  2  0  0  0  0
 21 22  1  0  0  0  0
 23 26  1  0  0  0  0
 23 20  1  0  0  0  0
 24 23  1  0  0  0  0
 25 23  1  0  0  0  0
 27 21  1  0  0  0  0
 28  8  2  0  0  0  0
 29 28  1  0  0  0  0
 30 28  1  0  0  0  0
 30 33  1  0  0  0  0
 31 32  1  0  0  0  0
 33 13  2  0  0  0  0
 34 35  1  0  0  0  0
 34 19  1  0  0  0  0
 34 37  1  0  0  0  0
 36 34  1  0  0  0  0
 38  1  1  0  0  0  0
 39 20  1  0  0  0  0
 39 19  2  0  0  0  0
 40 39  1  0  0  0  0
 41 30  2  0  0  0  0
 42 41  1  0  0  0  0
 43 33  1  0  0  0  0
 43 46  2  0  0  0  0
 44 27  2  0  0  0  0
 44 45  1  0  0  0  0
 46 44  1  0  0  0  0
 47 46  1  0  0  0  0
 48 41  1  0  0  0  0
 48 54  2  0  0  0  0
 49 48  1  0  0  0  0
 50 52  1  0  0  0  0
 50 51  1  0  0  0  0
 50 53  1  0  0  0  0
 54 43  1  0  0  0  0
 55 54  1  0  0  0  0
M  END
