1
 OpenBabel05122313113D

 12 11  0  0  0  0  0  0  0  0999 V2000
    0.0336    1.6526   -1.3498 C   0  0  0  0  0  2  0  0  0  0  0  0
    0.0387    1.5049   -2.4511 H   0  0  0  0  0  0  0  0  0  0  0  0
    0.3067    3.0587   -0.9970 C   0  0  0  0  0  0  0  0  0  0  0  0
    1.2417    3.6932   -1.4792 O   0  0  0  0  0  0  0  0  0  0  0  0
   -0.5177    3.5690   -0.0398 O   0  0  0  0  0  0  0  0  0  0  0  0
   -0.2141    4.8993    0.4319 C   0  0  0  0  0  0  0  0  0  0  0  0
   -1.1826    5.2917    0.8002 H   0  0  0  0  0  0  0  0  0  0  0  0
    0.1277    5.5145   -0.4257 H   0  0  0  0  0  0  0  0  0  0  0  0
    0.8329    4.8712    1.5347 C   0  0  0  0  0  0  0  0  0  0  0  0
    0.5299    4.1830    2.3477 H   0  0  0  0  0  0  0  0  0  0  0  0
    0.9676    5.8878    1.9570 H   0  0  0  0  0  0  0  0  0  0  0  0
    1.8087    4.5341    1.1339 H   0  0  0  0  0  0  0  0  0  0  0  0
  1  3  1  0  0  0  0
  2  1  1  0  0  0  0
  3  5  1  0  0  0  0
  4  3  2  0  0  0  0
  5  6  1  0  0  0  0
  6  7  1  0  0  0  0
  6  9  1  0  0  0  0
  8  6  1  0  0  0  0
  9 11  1  0  0  0  0
  9 10  1  0  0  0  0
 12  9  1  0  0  0  0
M  END
