4
 OpenBabel05122313113D

 27 28  0  0  0  0  0  0  0  0999 V2000
   -2.2894   -0.5316    0.7991 C   0  0  0  0  0  0  0  0  0  0  0  0
   -1.7012   -1.2421    1.8838 C   0  0  0  0  0  0  0  0  0  0  0  0
   -1.5050   -0.8272    2.8790 H   0  0  0  0  0  0  0  0  0  0  0  0
   -1.4079   -2.5703    1.4558 C   0  0  0  0  0  3  0  0  0  0  0  0
   -0.9250   -3.3558    2.0493 H   0  0  0  0  0  0  0  0  0  0  0  0
   -1.8903   -2.7068    0.1187 C   0  0  0  0  0  0  0  0  0  0  0  0
   -1.8062   -3.6022   -0.5041 H   0  0  0  0  0  0  0  0  0  0  0  0
   -2.4126   -1.4597   -0.2891 C   0  0  0  0  0  0  0  0  0  0  0  0
   -2.8204   -1.2217   -1.2764 H   0  0  0  0  0  0  0  0  0  0  0  0
   -2.7106    0.9198    0.7917 C   0  0  0  0  0  0  0  0  0  0  0  0
   -2.7594    1.2837    1.8379 H   0  0  0  0  0  0  0  0  0  0  0  0
   -1.9323    1.5148    0.2700 H   0  0  0  0  0  0  0  0  0  0  0  0
   -4.0384    1.1404    0.0944 C   0  0  0  0  0  0  0  0  0  0  0  0
   -5.2392    1.0598    0.8120 C   0  0  0  0  0  0  0  0  0  0  0  0
   -5.2433    0.8685    1.8958 H   0  0  0  0  0  0  0  0  0  0  0  0
   -6.4818    1.2232    0.1635 C   0  0  0  0  0  0  0  0  0  0  0  0
   -7.5834    1.1311    0.9606 O   0  0  0  0  0  0  0  0  0  0  0  0
   -8.8565    1.2845    0.3652 C   0  0  0  0  0  0  0  0  0  0  0  0
   -8.9803    2.2879   -0.1017 H   0  0  0  0  0  0  0  0  0  0  0  0
   -9.5987    1.1737    1.1776 H   0  0  0  0  0  0  0  0  0  0  0  0
   -9.0509    0.5080   -0.4090 H   0  0  0  0  0  0  0  0  0  0  0  0
   -6.5182    1.4658   -1.2249 C   0  0  0  0  0  0  0  0  0  0  0  0
   -7.4716    1.5979   -1.7532 H   0  0  0  0  0  0  0  0  0  0  0  0
   -5.3103    1.5422   -1.9388 C   0  0  0  0  0  0  0  0  0  0  0  0
   -5.3409    1.7338   -3.0224 H   0  0  0  0  0  0  0  0  0  0  0  0
   -4.0767    1.3831   -1.2963 C   0  0  0  0  0  0  0  0  0  0  0  0
   -3.1346    1.4385   -1.8630 H   0  0  0  0  0  0  0  0  0  0  0  0
  1  2  2  0  0  0  0
  2  3  1  0  0  0  0
  4  2  1  0  0  0  0
  4  5  1  0  0  0  0
  6  4  1  0  0  0  0
  7  6  1  0  0  0  0
  8  6  2  0  0  0  0
  8  1  1  0  0  0  0
  9  8  1  0  0  0  0
 10  1  1  0  0  0  0
 10 11  1  0  0  0  0
 12 10  1  0  0  0  0
 13 10  1  0  0  0  0
 13 14  1  0  0  0  0
 14 15  1  0  0  0  0
 16 14  2  0  0  0  0
 16 17  1  0  0  0  0
 18 17  1  0  0  0  0
 18 20  1  0  0  0  0
 19 18  1  0  0  0  0
 21 18  1  0  0  0  0
 22 16  1  0  0  0  0
 23 22  1  0  0  0  0
 24 26  1  0  0  0  0
 24 22  2  0  0  0  0
 25 24  1  0  0  0  0
 26 13  2  0  0  0  0
 27 26  1  0  0  0  0
M  END
