24
 OpenBabel05122313113D

 70 74  0  0  1  0  0  0  0  0999 V2000
    3.0169    1.9576    0.4640 Si  0  0  0  0  0  0  0  0  0  0  0  0
   -1.4208   -3.2828   -0.7455 O   0  0  0  0  0  0  0  0  0  0  0  0
    2.2436    0.9168   -0.6856 O   0  0  0  0  0  0  0  0  0  0  0  0
   -6.5575    0.6667    0.1333 C   0  0  0  0  0  0  0  0  0  0  0  0
   -7.3119   -0.0994    0.3694 H   0  0  0  0  0  0  0  0  0  0  0  0
   -6.9286    2.0029   -0.0193 C   0  0  0  0  0  0  0  0  0  0  0  0
   -7.9830    2.2972    0.0917 H   0  0  0  0  0  0  0  0  0  0  0  0
   -5.9582    2.9795   -0.3091 C   0  0  0  0  0  0  0  0  0  0  0  0
   -6.2536    4.0339   -0.4245 H   0  0  0  0  0  0  0  0  0  0  0  0
   -4.6007    2.6343   -0.4514 C   0  0  0  0  0  0  0  0  0  0  0  0
   -4.2061    1.2585   -0.3101 C   0  0  0  0  0  0  0  0  0  0  0  0
   -2.8335    0.8757   -0.4627 C   0  0  0  0  0  0  0  0  0  0  0  0
   -3.5885    3.6241   -0.7307 C   0  0  0  0  0  0  0  0  0  0  0  0
   -3.9007    4.6745   -0.8382 H   0  0  0  0  0  0  0  0  0  0  0  0
   -2.2697    3.2757   -0.8438 C   0  0  0  0  0  0  0  0  0  0  0  0
   -1.5011    4.0397   -1.0367 H   0  0  0  0  0  0  0  0  0  0  0  0
   -1.8414    1.9048   -0.7012 C   0  0  0  0  0  0  0  0  0  0  0  0
   -0.4966    1.5596   -0.7504 C   0  0  0  0  0  0  0  0  0  0  0  0
    0.2648    2.3331   -0.9031 H   0  0  0  0  0  0  0  0  0  0  0  0
   -0.0673    0.2071   -0.6591 C   0  0  0  0  0  0  0  0  0  0  0  0
    1.3499   -0.0997   -0.6270 C   0  0  0  0  0  0  0  0  0  0  0  0
    1.8103   -1.4457   -0.6938 C   0  0  0  0  0  0  0  0  0  0  0  0
    0.8498   -2.5231   -0.7466 C   0  0  2  0  0  3  0  0  0  0  0  0
   -0.5456   -2.2216   -0.6766 C   0  0  1  0  0  3  0  0  0  0  0  0
   -1.0480   -0.8588   -0.5799 C   0  0  0  0  0  0  0  0  0  0  0  0
   -2.4465   -0.4964   -0.3624 C   0  0  0  0  0  0  0  0  0  0  0  0
   -3.4582   -1.4517   -0.0109 C   0  0  0  0  0  0  0  0  0  0  0  0
   -3.1613   -2.4903    0.1667 H   0  0  0  0  0  0  0  0  0  0  0  0
   -4.7755   -1.0813    0.1594 C   0  0  0  0  0  0  0  0  0  0  0  0
   -5.5210   -1.8389    0.4469 H   0  0  0  0  0  0  0  0  0  0  0  0
   -5.2022    0.2713   -0.0095 C   0  0  0  0  0  0  0  0  0  0  0  0
    3.2961   -1.6890   -0.8250 C   0  0  0  0  0  0  0  0  0  0  0  0
    3.5438   -2.7195   -0.5090 H   0  0  0  0  0  0  0  0  0  0  0  0
    3.8332   -1.0176   -0.1297 H   0  0  0  0  0  0  0  0  0  0  0  0
    3.7890   -1.4309   -2.2573 C   0  0  0  0  0  0  0  0  0  0  0  0
    3.2982   -2.1035   -2.9880 H   0  0  0  0  0  0  0  0  0  0  0  0
    4.8835   -1.5889   -2.3313 H   0  0  0  0  0  0  0  0  0  0  0  0
    3.5699   -0.3897   -2.5640 H   0  0  0  0  0  0  0  0  0  0  0  0
    1.2756   -3.9774   -0.7860 C   0  0  0  0  0  0  0  0  0  0  0  0
    0.4443   -4.5767   -0.3703 H   0  0  0  0  0  0  0  0  0  0  0  0
    2.1305   -4.1167   -0.0945 H   0  0  0  0  0  0  0  0  0  0  0  0
    1.6456   -4.5087   -2.1780 C   0  0  0  0  0  0  0  0  0  0  0  0
    0.8131   -4.3821   -2.8989 H   0  0  0  0  0  0  0  0  0  0  0  0
    1.8835   -5.5901   -2.1289 H   0  0  0  0  0  0  0  0  0  0  0  0
    2.5291   -3.9918   -2.6005 H   0  0  0  0  0  0  0  0  0  0  0  0
   -2.0030   -3.4598   -2.0380 C   0  0  0  0  0  0  0  0  0  0  0  0
   -2.6247   -2.5861   -2.3326 H   0  0  0  0  0  0  0  0  0  0  0  0
   -2.6471   -4.3566   -1.9742 H   0  0  0  0  0  0  0  0  0  0  0  0
   -1.2218   -3.6233   -2.8116 H   0  0  0  0  0  0  0  0  0  0  0  0
    3.7199    0.9886    1.9153 C   0  0  0  0  0  0  0  0  0  0  0  0
    2.9276    0.6881    2.6258 H   0  0  0  0  0  0  0  0  0  0  0  0
    4.4277    1.6471    2.4617 H   0  0  0  0  0  0  0  0  0  0  0  0
    4.2716    0.0780    1.6129 H   0  0  0  0  0  0  0  0  0  0  0  0
    1.8191    3.2649    1.0996 C   0  0  0  0  0  0  0  0  0  0  0  0
    1.4685    3.9468    0.2992 H   0  0  0  0  0  0  0  0  0  0  0  0
    2.3420    3.8802    1.8613 H   0  0  0  0  0  0  0  0  0  0  0  0
    0.9405    2.8079    1.5938 H   0  0  0  0  0  0  0  0  0  0  0  0
    4.3965    2.7615   -0.5955 C   0  0  0  0  0  0  0  0  0  0  0  0
    3.7965    3.2794   -1.9160 C   0  0  0  0  0  0  0  0  0  0  0  0
    3.0018    4.0352   -1.7428 H   0  0  0  0  0  0  0  0  0  0  0  0
    3.3528    2.4567   -2.5116 H   0  0  0  0  0  0  0  0  0  0  0  0
    4.5828    3.7655   -2.5352 H   0  0  0  0  0  0  0  0  0  0  0  0
    4.9966    3.9385    0.1996 C   0  0  0  0  0  0  0  0  0  0  0  0
    5.4157    3.6158    1.1759 H   0  0  0  0  0  0  0  0  0  0  0  0
    4.2495    4.7338    0.3983 H   0  0  0  0  0  0  0  0  0  0  0  0
    5.8287    4.4037   -0.3739 H   0  0  0  0  0  0  0  0  0  0  0  0
    5.5020    1.7319   -0.8945 C   0  0  0  0  0  0  0  0  0  0  0  0
    6.3052    2.1954   -1.5096 H   0  0  0  0  0  0  0  0  0  0  0  0
    5.1140    0.8619   -1.4595 H   0  0  0  0  0  0  0  0  0  0  0  0
    5.9768    1.3510    0.0332 H   0  0  0  0  0  0  0  0  0  0  0  0
  1 54  1  0  0  0  0
  1 50  1  0  0  0  0
  3 21  1  0  0  0  0
  3  1  1  0  0  0  0
  4  5  1  0  0  0  0
  6  7  1  0  0  0  0
  6  4  2  0  0  0  0
  8  6  1  0  0  0  0
  9  8  1  0  0  0  0
 10 11  1  0  0  0  0
 10  8  2  0  0  0  0
 11 31  1  0  0  0  0
 12 26  1  0  0  0  0
 12 11  2  0  0  0  0
 13 10  1  0  0  0  0
 14 13  1  0  0  0  0
 15 13  2  0  0  0  0
 15 17  1  0  0  0  0
 16 15  1  0  0  0  0
 17 12  1  0  0  0  0
 18 17  2  0  0  0  0
 18 20  1  0  0  0  0
 19 18  1  0  0  0  0
 20 21  1  0  0  0  0
 20 25  2  0  0  0  0
 22 21  2  0  0  0  0
 23 39  1  1  0  0  0
 23 22  1  0  0  0  0
 23 24  1  0  0  0  0
 24  2  1  6  0  0  0
 24 25  1  0  0  0  0
 25 26  1  0  0  0  0
 26 27  2  0  0  0  0
 27 29  1  0  0  0  0
 27 28  1  0  0  0  0
 29 30  1  0  0  0  0
 31  4  1  0  0  0  0
 31 29  2  0  0  0  0
 32 22  1  0  0  0  0
 32 33  1  0  0  0  0
 32 34  1  0  0  0  0
 35 32  1  0  0  0  0
 36 35  1  0  0  0  0
 37 35  1  0  0  0  0
 38 35  1  0  0  0  0
 39 40  1  0  0  0  0
 39 41  1  0  0  0  0
 42 44  1  0  0  0  0
 42 39  1  0  0  0  0
 43 42  1  0  0  0  0
 45 42  1  0  0  0  0
 46 48  1  0  0  0  0
 46  2  1  0  0  0  0
 47 46  1  0  0  0  0
 49 46  1  0  0  0  0
 50 52  1  0  0  0  0
 50 51  1  0  0  0  0
 53 50  1  0  0  0  0
 54 57  1  0  0  0  0
 54 56  1  0  0  0  0
 55 54  1  0  0  0  0
 58 63  1  0  0  0  0
 58  1  1  0  0  0  0
 59 60  1  0  0  0  0
 59 58  1  0  0  0  0
 61 59  1  0  0  0  0
 62 59  1  0  0  0  0
 63 65  1  0  0  0  0
 63 64  1  0  0  0  0
 66 63  1  0  0  0  0
 67 58  1  0  0  0  0
 67 70  1  0  0  0  0
 68 67  1  0  0  0  0
 69 67  1  0  0  0  0
M  END
