4
 OpenBabel05122313113D

 21 20  0  0  0  0  0  0  0  0999 V2000
   -3.8487    0.8839   -1.6305 O   0  0  0  0  0  0  0  0  0  0  0  0
   -0.7844    2.1685   -1.1928 C   0  0  0  0  0  0  0  0  0  0  0  0
   -0.5232    1.4224    0.1022 C   0  0  0  0  0  3  0  0  0  0  0  0
   -0.8431    0.0532    0.2570 C   0  0  0  0  0  3  0  0  0  0  0  0
   -1.8558   -0.8262    0.3515 C   0  0  0  0  0  0  0  0  0  0  0  0
   -3.3462   -0.4527    0.3596 C   0  0  0  0  0  0  0  0  0  0  0  0
   -3.6452   -0.2018   -1.1230 C   0  0  0  0  0  0  0  0  0  0  0  0
   -4.1686   -1.6612    0.8378 C   0  0  0  0  0  0  0  0  0  0  0  0
   -3.6469    0.7974    1.1904 C   0  0  0  0  0  0  0  0  0  0  0  0
   -1.8349    2.5296   -1.2166 H   0  0  0  0  0  0  0  0  0  0  0  0
   -0.6546    1.5095   -2.0734 H   0  0  0  0  0  0  0  0  0  0  0  0
   -0.1124    3.0434   -1.3027 H   0  0  0  0  0  0  0  0  0  0  0  0
   -0.5641    2.0493    1.0128 H   0  0  0  0  0  0  0  0  0  0  0  0
   -1.6303   -1.9067    0.3972 H   0  0  0  0  0  0  0  0  0  0  0  0
   -5.2536   -1.4342    0.8362 H   0  0  0  0  0  0  0  0  0  0  0  0
   -3.8742   -1.9406    1.8695 H   0  0  0  0  0  0  0  0  0  0  0  0
   -4.0004   -2.5453    0.1878 H   0  0  0  0  0  0  0  0  0  0  0  0
   -3.1028    1.6782    0.8036 H   0  0  0  0  0  0  0  0  0  0  0  0
   -3.3545    0.6370    2.2466 H   0  0  0  0  0  0  0  0  0  0  0  0
   -4.7286    1.0363    1.1522 H   0  0  0  0  0  0  0  0  0  0  0  0
   -3.6195   -1.1455   -1.7528 H   0  0  0  0  0  0  0  0  0  0  0  0
  1  7  2  0  0  0  0
  2  3  1  0  0  0  0
  3  4  1  0  0  0  0
  3 13  1  0  0  0  0
  4  5  2  0  0  0  0
  5  6  1  0  0  0  0
  5 14  1  0  0  0  0
  6  8  1  0  0  0  0
  6  9  1  0  0  0  0
  7  6  1  0  0  0  0
  8 16  1  0  0  0  0
  9 19  1  0  0  0  0
 10  2  1  0  0  0  0
 11  2  1  0  0  0  0
 12  2  1  0  0  0  0
 15  8  1  0  0  0  0
 17  8  1  0  0  0  0
 18  9  1  0  0  0  0
 20  9  1  0  0  0  0
 21  7  1  0  0  0  0
M  END
