2
 OpenBabel05122313113D

 44 45  0  0  1  0  0  0  0  0999 V2000
    0.6399   -1.1029    0.8580 N   0  0  0  0  0  0  0  0  0  0  0  0
   -0.1077   -0.5491   -0.2158 C   0  0  1  0  0  3  0  0  0  0  0  0
    0.5647   -0.4374   -1.4583 C   0  0  0  0  0  0  0  0  0  0  0  0
    1.9678   -0.7307   -1.5444 C   0  0  0  0  0  0  0  0  0  0  0  0
    2.6228   -1.3339   -0.4580 C   0  0  1  0  0  3  0  0  0  0  0  0
    1.7157   -2.0591    0.5180 C   0  0  0  0  0  0  0  0  0  0  0  0
    4.0977   -1.6464   -0.4234 C   0  0  0  0  0  0  0  0  0  0  0  0
    4.9691   -0.7929   -1.3415 C   0  0  0  0  0  0  0  0  0  0  0  0
    0.0370   -1.2476    2.1825 C   0  0  0  0  0  0  0  0  0  0  0  0
   -2.3410   -1.4675    0.2250 N   0  0  0  0  0  0  0  0  0  0  0  0
   -1.5728   -0.2289   -0.0039 C   0  0  2  0  0  0  0  0  0  0  0  0
   -2.2058    0.6609   -1.0851 C   0  0  0  0  0  0  0  0  0  0  0  0
   -3.6898    0.7815   -0.8521 C   0  0  0  0  0  0  0  0  0  0  0  0
   -4.3807   -0.0237   -0.0133 C   0  0  0  0  0  0  0  0  0  0  0  0
   -3.6582   -1.1220    0.7533 C   0  0  0  0  0  0  0  0  0  0  0  0
   -5.8575    0.1023    0.2699 C   0  0  0  0  0  0  0  0  0  0  0  0
   -6.5885    1.2595   -0.4053 C   0  0  0  0  0  0  0  0  0  0  0  0
   -2.4103   -2.3525   -0.9311 C   0  0  0  0  0  0  0  0  0  0  0  0
    0.0376    0.0085   -2.3090 H   0  0  0  0  0  0  0  0  0  0  0  0
    2.5228   -0.3929   -2.4306 H   0  0  0  0  0  0  0  0  0  0  0  0
    2.2618   -2.2773    1.4561 H   0  0  0  0  0  0  0  0  0  0  0  0
    1.3054   -3.0234    0.1244 H   0  0  0  0  0  0  0  0  0  0  0  0
    4.2368   -2.7280   -0.6651 H   0  0  0  0  0  0  0  0  0  0  0  0
    4.4473   -1.5376    0.6268 H   0  0  0  0  0  0  0  0  0  0  0  0
    6.0415   -1.0298   -1.1982 H   0  0  0  0  0  0  0  0  0  0  0  0
    4.8218    0.2854   -1.1298 H   0  0  0  0  0  0  0  0  0  0  0  0
    4.7363   -0.9615   -2.4125 H   0  0  0  0  0  0  0  0  0  0  0  0
   -0.6950   -2.0812    2.1942 H   0  0  0  0  0  0  0  0  0  0  0  0
   -0.4760   -0.3134    2.4695 H   0  0  0  0  0  0  0  0  0  0  0  0
    0.8481   -1.4251    2.9125 H   0  0  0  0  0  0  0  0  0  0  0  0
   -1.6537    0.3466    0.9420 H   0  0  0  0  0  0  0  0  0  0  0  0
   -2.0235    0.2488   -2.1038 H   0  0  0  0  0  0  0  0  0  0  0  0
   -1.7238    1.6611   -1.0749 H   0  0  0  0  0  0  0  0  0  0  0  0
   -4.2162    1.5727   -1.4091 H   0  0  0  0  0  0  0  0  0  0  0  0
   -4.2823   -2.0421    0.7753 H   0  0  0  0  0  0  0  0  0  0  0  0
   -3.5528   -0.8091    1.8206 H   0  0  0  0  0  0  0  0  0  0  0  0
   -5.9901    0.1700    1.3754 H   0  0  0  0  0  0  0  0  0  0  0  0
   -6.3456   -0.8624   -0.0039 H   0  0  0  0  0  0  0  0  0  0  0  0
   -6.1559    2.2379   -0.1135 H   0  0  0  0  0  0  0  0  0  0  0  0
   -7.6602    1.2678   -0.1248 H   0  0  0  0  0  0  0  0  0  0  0  0
   -6.5337    1.1859   -1.5106 H   0  0  0  0  0  0  0  0  0  0  0  0
   -1.3892   -2.5603   -1.3086 H   0  0  0  0  0  0  0  0  0  0  0  0
   -3.0167   -1.9546   -1.7829 H   0  0  0  0  0  0  0  0  0  0  0  0
   -2.8583   -3.3198   -0.6251 H   0  0  0  0  0  0  0  0  0  0  0  0
  1  9  1  0  0  0  0
  2  3  1  6  0  0  0
  2 11  1  0  0  0  0
  2  1  1  0  0  0  0
  4  3  2  0  0  0  0
  4  5  1  0  0  0  0
  5  7  1  6  0  0  0
  5  6  1  0  0  0  0
  6  1  1  0  0  0  0
  6 21  1  0  0  0  0
  7 24  1  0  0  0  0
  8 25  1  0  0  0  0
  8 26  1  0  0  0  0
  8  7  1  0  0  0  0
  9 28  1  0  0  0  0
  9 29  1  0  0  0  0
  9 30  1  0  0  0  0
 10 15  1  0  0  0  0
 11 10  1  0  0  0  0
 11 31  1  1  0  0  0
 12 33  1  0  0  0  0
 12 13  1  0  0  0  0
 12 11  1  0  0  0  0
 13 14  2  0  0  0  0
 14 16  1  0  0  0  0
 14 15  1  0  0  0  0
 15 35  1  0  0  0  0
 15 36  1  0  0  0  0
 16 37  1  0  0  0  0
 17 40  1  0  0  0  0
 17 39  1  0  0  0  0
 17 16  1  0  0  0  0
 18 44  1  0  0  0  0
 18 10  1  0  0  0  0
 19  3  1  0  0  0  0
 20  4  1  0  0  0  0
 22  6  1  0  0  0  0
 23  7  1  0  0  0  0
 27  8  1  0  0  0  0
 32 12  1  0  0  0  0
 34 13  1  0  0  0  0
 38 16  1  0  0  0  0
 41 17  1  0  0  0  0
 42 18  1  0  0  0  0
 43 18  1  0  0  0  0
M  END
