3
 OpenBabel05122313113D

 23 24  0  0  0  0  0  0  0  0999 V2000
    1.9961    0.0210    0.6229 N   0  0  0  0  0  0  0  0  0  0  0  0
    1.8981   -0.7101   -1.8144 S   0  0  0  0  0  0  0  0  0  0  0  0
    1.0984   -0.2542   -0.3460 C   0  0  0  0  0  2  0  0  0  0  0  0
    3.3451   -0.0954    0.2555 C   0  0  0  0  0  0  0  0  0  0  0  0
    4.4771    0.1461    1.0533 C   0  0  0  0  0  0  0  0  0  0  0  0
    4.3746    0.4796    2.0949 H   0  0  0  0  0  0  0  0  0  0  0  0
    5.7417   -0.0436    0.4825 C   0  0  0  0  0  0  0  0  0  0  0  0
    6.6387    0.1415    1.0913 H   0  0  0  0  0  0  0  0  0  0  0  0
    5.8828   -0.4651   -0.8562 C   0  0  0  0  0  0  0  0  0  0  0  0
    6.8879   -0.6063   -1.2799 H   0  0  0  0  0  0  0  0  0  0  0  0
    4.7580   -0.7040   -1.6564 C   0  0  0  0  0  0  0  0  0  0  0  0
    4.8638   -1.0305   -2.7009 H   0  0  0  0  0  0  0  0  0  0  0  0
    3.4884   -0.5135   -1.0901 C   0  0  0  0  0  0  0  0  0  0  0  0
    1.5735    0.4699    1.9576 C   0  0  0  0  0  0  0  0  0  0  0  0
    2.2851    0.0460    2.6954 H   0  0  0  0  0  0  0  0  0  0  0  0
    0.5889   -0.0046    2.1421 H   0  0  0  0  0  0  0  0  0  0  0  0
    1.4841    1.9937    2.0608 C   0  0  0  0  0  0  0  0  0  0  0  0
    0.8056    2.3515    1.2565 H   0  0  0  0  0  0  0  0  0  0  0  0
    2.4815    2.4396    1.8559 H   0  0  0  0  0  0  0  0  0  0  0  0
    0.9718    2.4346    3.4308 C   0  0  0  0  0  0  0  0  0  0  0  0
   -0.0424    2.0290    3.6266 H   0  0  0  0  0  0  0  0  0  0  0  0
    0.9084    3.5385    3.4958 H   0  0  0  0  0  0  0  0  0  0  0  0
    1.6333    2.0880    4.2526 H   0  0  0  0  0  0  0  0  0  0  0  0
  1 14  1  0  0  0  0
  2 13  1  0  0  0  0
  2  3  1  0  0  0  0
  3  1  1  0  0  0  0
  4  1  1  0  0  0  0
  4  5  1  0  0  0  0
  5  6  1  0  0  0  0
  7  5  2  0  0  0  0
  7  8  1  0  0  0  0
  9  7  1  0  0  0  0
 10  9  1  0  0  0  0
 11 13  1  0  0  0  0
 11  9  2  0  0  0  0
 12 11  1  0  0  0  0
 13  4  2  0  0  0  0
 14 17  1  0  0  0  0
 14 16  1  0  0  0  0
 14 15  1  0  0  0  0
 17 20  1  0  0  0  0
 18 17  1  0  0  0  0
 19 17  1  0  0  0  0
 20 22  1  0  0  0  0
 20 21  1  0  0  0  0
 20 23  1  0  0  0  0
M  END
