3
 OpenBabel05122313113D

 44 48  0  0  0  0  0  0  0  0999 V2000
    1.3885    0.1592   -0.3898 P   0  0  0  0  0  0  0  0  0  0  0  0
    1.0485   -0.7575   -1.5687 O   0  0  0  0  0  0  0  0  0  0  0  0
   -1.9699    0.2509   -0.1739 C   0  0  0  0  0  3  0  0  0  0  0  0
    1.3505   -0.7144    1.2200 C   0  0  0  0  0  0  0  0  0  0  0  0
    3.0917    0.8043   -0.5572 C   0  0  0  0  0  0  0  0  0  0  0  0
   -3.3617    0.3592   -0.0231 C   0  0  0  0  0  0  0  0  0  0  0  0
   -3.9762   -0.5531   -0.0734 H   0  0  0  0  0  0  0  0  0  0  0  0
    0.2722    1.5974   -0.1916 C   0  0  0  0  0  0  0  0  0  0  0  0
   -4.0438    1.5903    0.1843 C   0  0  0  0  0  0  0  0  0  0  0  0
   -5.1396    1.5967    0.2902 H   0  0  0  0  0  0  0  0  0  0  0  0
   -3.2972    2.7550    0.2381 C   0  0  0  0  0  0  0  0  0  0  0  0
    0.0894    4.0636    0.0501 C   0  0  0  0  0  0  0  0  0  0  0  0
    0.6021    5.0365    0.0903 H   0  0  0  0  0  0  0  0  0  0  0  0
    1.0269   -0.0652    2.4283 C   0  0  0  0  0  0  0  0  0  0  0  0
    0.7650    1.0044    2.4240 H   0  0  0  0  0  0  0  0  0  0  0  0
   -1.1661    1.4437   -0.0995 C   0  0  0  0  0  0  0  0  0  0  0  0
    3.8555    1.2607    0.5353 C   0  0  0  0  0  0  0  0  0  0  0  0
    3.4309    1.2450    1.5511 H   0  0  0  0  0  0  0  0  0  0  0  0
    1.6515   -2.0928    1.2146 C   0  0  0  0  0  0  0  0  0  0  0  0
    1.8616   -2.5984    0.2597 H   0  0  0  0  0  0  0  0  0  0  0  0
   -1.8862    2.6667    0.0974 C   0  0  0  0  0  0  0  0  0  0  0  0
   -1.2858    3.9538    0.1709 C   0  0  0  0  0  0  0  0  0  0  0  0
    0.8457    2.8742   -0.1265 C   0  0  0  0  0  0  0  0  0  0  0  0
    1.9382    2.9654   -0.2146 H   0  0  0  0  0  0  0  0  0  0  0  0
    3.6468    0.7890   -1.8514 C   0  0  0  0  0  0  0  0  0  0  0  0
    3.0418    0.3939   -2.6819 H   0  0  0  0  0  0  0  0  0  0  0  0
   -2.3603    5.0015    0.3721 C   0  0  0  0  0  0  0  0  0  0  0  0
   -2.3520    5.7396   -0.4573 H   0  0  0  0  0  0  0  0  0  0  0  0
   -2.1812    5.5832    1.3005 H   0  0  0  0  0  0  0  0  0  0  0  0
   -3.6993    4.2029    0.4284 C   0  0  0  0  0  0  0  0  0  0  0  0
   -4.2262    4.3474    1.3949 H   0  0  0  0  0  0  0  0  0  0  0  0
   -4.4098    4.5288   -0.3598 H   0  0  0  0  0  0  0  0  0  0  0  0
    1.0166   -0.7919    3.6284 C   0  0  0  0  0  0  0  0  0  0  0  0
    0.7587   -0.2875    4.5720 H   0  0  0  0  0  0  0  0  0  0  0  0
    4.9556    1.2515   -2.0533 C   0  0  0  0  0  0  0  0  0  0  0  0
    5.3909    1.2382   -3.0641 H   0  0  0  0  0  0  0  0  0  0  0  0
    5.7116    1.7217   -0.9672 C   0  0  0  0  0  0  0  0  0  0  0  0
    6.7396    2.0811   -1.1274 H   0  0  0  0  0  0  0  0  0  0  0  0
    1.6306   -2.8134    2.4170 C   0  0  0  0  0  0  0  0  0  0  0  0
    1.8441   -3.8927    2.4072 H   0  0  0  0  0  0  0  0  0  0  0  0
    5.1632    1.7228    0.3265 C   0  0  0  0  0  0  0  0  0  0  0  0
    5.7615    2.0776    1.1794 H   0  0  0  0  0  0  0  0  0  0  0  0
    1.3181   -2.1640    3.6225 C   0  0  0  0  0  0  0  0  0  0  0  0
    1.2975   -2.7339    4.5640 H   0  0  0  0  0  0  0  0  0  0  0  0
  1  8  1  0  0  0  0
  1  4  1  0  0  0  0
  2  1  2  0  0  0  0
  3 16  2  0  0  0  0
  3  6  1  0  0  0  0
  4 14  1  0  0  0  0
  5  1  1  0  0  0  0
  5 17  1  0  0  0  0
  6  9  2  0  0  0  0
  7  6  1  0  0  0  0
  8 23  2  0  0  0  0
  8 16  1  0  0  0  0
  9 11  1  0  0  0  0
  9 10  1  0  0  0  0
 11 30  1  0  0  0  0
 12 13  1  0  0  0  0
 12 22  2  0  0  0  0
 14 33  2  0  0  0  0
 15 14  1  0  0  0  0
 16 21  1  0  0  0  0
 17 18  1  0  0  0  0
 19  4  2  0  0  0  0
 19 39  1  0  0  0  0
 20 19  1  0  0  0  0
 21 22  1  0  0  0  0
 21 11  2  0  0  0  0
 22 27  1  0  0  0  0
 23 12  1  0  0  0  0
 24 23  1  0  0  0  0
 25  5  2  0  0  0  0
 26 25  1  0  0  0  0
 27 30  1  0  0  0  0
 27 29  1  0  0  0  0
 28 27  1  0  0  0  0
 30 31  1  0  0  0  0
 32 30  1  0  0  0  0
 33 34  1  0  0  0  0
 35 25  1  0  0  0  0
 35 37  2  0  0  0  0
 36 35  1  0  0  0  0
 37 41  1  0  0  0  0
 38 37  1  0  0  0  0
 39 43  2  0  0  0  0
 40 39  1  0  0  0  0
 41 17  2  0  0  0  0
 41 42  1  0  0  0  0
 43 33  1  0  0  0  0
 43 44  1  0  0  0  0
M  END
