1
 OpenBabel05122313113D

 81 86  0  0  1  0  0  0  0  0999 V2000
   -1.4860    0.9154   -0.0081 C   0  0  0  0  0  2  0  0  0  0  0  0
   -1.8797    3.0825    0.7007 C   0  0  0  0  0  0  0  0  0  0  0  0
   -3.0173    2.3315    0.9489 C   0  0  0  0  0  0  0  0  0  0  0  0
   -3.9811    2.6087    1.3824 H   0  0  0  0  0  0  0  0  0  0  0  0
    0.3430    2.6113   -0.2506 C   0  0  0  0  0  0  0  0  0  0  0  0
    0.6475    3.9447   -0.0807 C   0  0  0  0  0  0  0  0  0  0  0  0
    1.6546    4.2717   -0.3718 H   0  0  0  0  0  0  0  0  0  0  0  0
   -0.2843    4.8767    0.4813 C   0  0  0  0  0  0  0  0  0  0  0  0
    0.0095    5.9291    0.6030 H   0  0  0  0  0  0  0  0  0  0  0  0
   -1.5307    4.4503    0.8808 C   0  0  0  0  0  0  0  0  0  0  0  0
   -2.2680    5.1307    1.3284 H   0  0  0  0  0  0  0  0  0  0  0  0
    1.3149    1.6269   -0.7931 C   0  0  0  0  0  0  0  0  0  0  0  0
    2.0007    0.7394    0.0797 C   0  0  0  0  0  0  0  0  0  0  0  0
    2.9116   -0.1869   -0.4746 C   0  0  0  0  0  0  0  0  0  0  0  0
    3.1070   -0.2218   -1.8686 C   0  0  0  0  0  0  0  0  0  0  0  0
    3.7791   -0.9831   -2.2936 H   0  0  0  0  0  0  0  0  0  0  0  0
    2.4564    0.6788   -2.7174 C   0  0  0  0  0  0  0  0  0  0  0  0
    2.6207    0.6365   -3.8041 H   0  0  0  0  0  0  0  0  0  0  0  0
    1.5683    1.6177   -2.1772 C   0  0  0  0  0  0  0  0  0  0  0  0
    1.0297    2.3220   -2.8284 H   0  0  0  0  0  0  0  0  0  0  0  0
    1.6933    0.7314    1.5627 C   0  0  0  0  0  0  0  0  0  0  0  0
    1.6654    1.7693    1.9582 H   0  0  0  0  0  0  0  0  0  0  0  0
    0.6602    0.3345    1.6876 H   0  0  0  0  0  0  0  0  0  0  0  0
    2.6795   -0.1278    2.3754 C   0  0  0  0  0  0  0  0  0  0  0  0
    3.6114    0.4450    2.5648 H   0  0  0  0  0  0  0  0  0  0  0  0
    2.2471   -0.3563    3.3723 H   0  0  0  0  0  0  0  0  0  0  0  0
    3.6977   -1.1299    0.4302 C   0  0  1  0  0  0  0  0  0  0  0  0
    3.7323   -2.1125   -0.0853 H   0  0  0  0  0  0  0  0  0  0  0  0
    1.9282   -2.3162    1.6202 C   0  0  0  0  0  0  0  0  0  0  0  0
    1.0844   -1.9835    0.9653 H   0  0  0  0  0  0  0  0  0  0  0  0
    1.5231   -2.5116    2.6347 H   0  0  0  0  0  0  0  0  0  0  0  0
    2.2891   -3.2781    1.2038 H   0  0  0  0  0  0  0  0  0  0  0  0
    5.1869   -0.6776    0.6360 C   0  0  0  0  0  0  0  0  0  0  0  0
    5.4107   -0.9608    1.6896 H   0  0  0  0  0  0  0  0  0  0  0  0
    6.1517   -1.4731   -0.2630 C   0  0  0  0  0  0  0  0  0  0  0  0
    5.9225   -1.2472   -1.3296 H   0  0  0  0  0  0  0  0  0  0  0  0
    5.9747   -2.5615   -0.1292 H   0  0  0  0  0  0  0  0  0  0  0  0
    7.6204   -1.1347    0.0204 C   0  0  0  0  0  0  0  0  0  0  0  0
    8.2857   -1.7050   -0.6617 H   0  0  0  0  0  0  0  0  0  0  0  0
    7.8728   -1.4668    1.0528 H   0  0  0  0  0  0  0  0  0  0  0  0
    7.8873    0.3707   -0.1005 C   0  0  0  0  0  0  0  0  0  0  0  0
    8.9423    0.6014    0.1583 H   0  0  0  0  0  0  0  0  0  0  0  0
    7.7493    0.6813   -1.1609 H   0  0  0  0  0  0  0  0  0  0  0  0
    6.9255    1.1740    0.7834 C   0  0  0  0  0  0  0  0  0  0  0  0
    7.0979    2.2635    0.6543 H   0  0  0  0  0  0  0  0  0  0  0  0
    7.1373    0.9485    1.8533 H   0  0  0  0  0  0  0  0  0  0  0  0
    5.4625    0.8299    0.4745 C   0  0  0  0  0  0  0  0  0  0  0  0
    4.7830    1.4277    1.1163 H   0  0  0  0  0  0  0  0  0  0  0  0
    5.2288    1.1307   -0.5704 H   0  0  0  0  0  0  0  0  0  0  0  0
   -3.6765   -0.0485    0.6230 C   0  0  0  0  0  0  0  0  0  0  0  0
   -4.5192   -0.3298   -0.4759 C   0  0  0  0  0  0  0  0  0  0  0  0
   -5.4221   -1.4005   -0.3345 C   0  0  0  0  0  0  0  0  0  0  0  0
   -6.0897   -1.6543   -1.1716 H   0  0  0  0  0  0  0  0  0  0  0  0
   -5.4743   -2.1509    0.8458 C   0  0  0  0  0  0  0  0  0  0  0  0
   -6.1847   -2.9869    0.9325 H   0  0  0  0  0  0  0  0  0  0  0  0
   -4.6192   -1.8499    1.9135 C   0  0  0  0  0  0  0  0  0  0  0  0
   -4.6593   -2.4564    2.8305 H   0  0  0  0  0  0  0  0  0  0  0  0
   -3.6979   -0.7903    1.8276 C   0  0  0  0  0  0  0  0  0  0  0  0
   -4.4516    0.4556   -1.7785 C   0  0  0  0  0  0  0  0  0  0  0  0
   -3.6913    1.2530   -1.6537 H   0  0  0  0  0  0  0  0  0  0  0  0
   -3.9786   -0.4429   -2.9344 C   0  0  0  0  0  0  0  0  0  0  0  0
   -2.9966   -0.9031   -2.7009 H   0  0  0  0  0  0  0  0  0  0  0  0
   -3.8728    0.1484   -3.8667 H   0  0  0  0  0  0  0  0  0  0  0  0
   -4.7015   -1.2608   -3.1330 H   0  0  0  0  0  0  0  0  0  0  0  0
   -5.7909    1.1423   -2.0942 C   0  0  0  0  0  0  0  0  0  0  0  0
   -6.6006    0.4010   -2.2555 H   0  0  0  0  0  0  0  0  0  0  0  0
   -5.7074    1.7489   -3.0190 H   0  0  0  0  0  0  0  0  0  0  0  0
   -6.1090    1.8129   -1.2703 H   0  0  0  0  0  0  0  0  0  0  0  0
   -2.7161   -0.5156    2.9596 C   0  0  0  0  0  0  0  0  0  0  0  0
   -2.2494    0.4727    2.7696 H   0  0  0  0  0  0  0  0  0  0  0  0
   -3.3998   -0.4378    4.3327 C   0  0  0  0  0  0  0  0  0  0  0  0
   -4.2102    0.3187    4.3435 H   0  0  0  0  0  0  0  0  0  0  0  0
   -2.6625   -0.1642    5.1145 H   0  0  0  0  0  0  0  0  0  0  0  0
   -3.8422   -1.4111    4.6287 H   0  0  0  0  0  0  0  0  0  0  0  0
   -1.5879   -1.5630    2.9405 C   0  0  0  0  0  0  0  0  0  0  0  0
   -0.8194   -1.3281    3.7056 H   0  0  0  0  0  0  0  0  0  0  0  0
   -1.0947   -1.5951    1.9482 H   0  0  0  0  0  0  0  0  0  0  0  0
   -1.9838   -2.5778    3.1519 H   0  0  0  0  0  0  0  0  0  0  0  0
   -0.9409    2.1827    0.1190 N   0  0  0  0  0  0  0  0  0  0  0  0
   -2.7442    1.0472    0.5171 N   0  0  0  0  0  0  0  0  0  0  0  0
    3.0389   -1.3779    1.7187 N   0  0  0  0  0  0  0  0  0  0  0  0
  1 79  1  0  0  0  0
  1 80  1  0  0  0  0
  2 10  1  0  0  0  0
  2  3  2  0  0  0  0
  3  4  1  0  0  0  0
  5  6  2  0  0  0  0
  5 79  1  0  0  0  0
  6  8  1  0  0  0  0
  7  6  1  0  0  0  0
  8  9  1  0  0  0  0
  8 10  2  0  0  0  0
 10 11  1  0  0  0  0
 12  5  1  0  0  0  0
 12 13  1  0  0  0  0
 13 21  1  0  0  0  0
 14 13  2  0  0  0  0
 14 27  1  0  0  0  0
 15 14  1  0  0  0  0
 16 15  1  0  0  0  0
 17 19  1  0  0  0  0
 17 15  2  0  0  0  0
 18 17  1  0  0  0  0
 19 12  2  0  0  0  0
 20 19  1  0  0  0  0
 21 23  1  0  0  0  0
 21 22  1  0  0  0  0
 21 24  1  0  0  0  0
 24 25  1  0  0  0  0
 24 26  1  0  0  0  0
 27 28  1  6  0  0  0
 27 33  1  0  0  0  0
 27 81  1  0  0  0  0
 29 81  1  0  0  0  0
 29 31  1  0  0  0  0
 30 29  1  0  0  0  0
 32 29  1  0  0  0  0
 33 34  1  0  0  0  0
 35 37  1  0  0  0  0
 35 38  1  0  0  0  0
 35 33  1  0  0  0  0
 36 35  1  0  0  0  0
 38 40  1  0  0  0  0
 39 38  1  0  0  0  0
 41 38  1  0  0  0  0
 41 42  1  0  0  0  0
 41 44  1  0  0  0  0
 43 41  1  0  0  0  0
 44 46  1  0  0  0  0
 45 44  1  0  0  0  0
 47 33  1  0  0  0  0
 47 44  1  0  0  0  0
 47 48  1  0  0  0  0
 49 47  1  0  0  0  0
 50 58  1  0  0  0  0
 51 52  1  0  0  0  0
 51 50  2  0  0  0  0
 52 54  2  0  0  0  0
 53 52  1  0  0  0  0
 54 55  1  0  0  0  0
 54 56  1  0  0  0  0
 56 57  1  0  0  0  0
 58 56  2  0  0  0  0
 58 69  1  0  0  0  0
 59 60  1  0  0  0  0
 59 51  1  0  0  0  0
 61 62  1  0  0  0  0
 61 59  1  0  0  0  0
 63 61  1  0  0  0  0
 64 61  1  0  0  0  0
 65 59  1  0  0  0  0
 65 68  1  0  0  0  0
 66 65  1  0  0  0  0
 67 65  1  0  0  0  0
 69 71  1  0  0  0  0
 70 69  1  0  0  0  0
 71 72  1  0  0  0  0
 71 74  1  0  0  0  0
 71 73  1  0  0  0  0
 75 69  1  0  0  0  0
 75 78  1  0  0  0  0
 75 76  1  0  0  0  0
 77 75  1  0  0  0  0
 79  2  1  0  0  0  0
 80 50  1  0  0  0  0
 80  3  1  0  0  0  0
 81 24  1  0  0  0  0
M  END
