4
 OpenBabel05122313113D

 34 36  0  0  0  0  0  0  0  0999 V2000
   -1.4409   -0.8499   -1.1683 N   0  0  0  0  0  0  0  0  0  0  0  0
   -1.5258   -2.0165   -1.8104 N   0  0  0  0  0  2  0  0  0  0  0  0
   -0.3419   -2.5668   -1.6160 N   0  0  0  0  0  0  0  0  0  0  0  0
   -0.2268   -0.6018   -0.5343 C   0  0  0  0  0  3  0  0  0  0  0  0
    0.5000   -1.7788   -0.8633 C   0  0  0  0  0  0  0  0  0  0  0  0
    1.8751   -2.1822   -0.5286 C   0  0  0  0  0  0  0  0  0  0  0  0
    2.7866   -2.5677   -1.5379 C   0  0  0  0  0  0  0  0  0  0  0  0
    2.4744   -2.5494   -2.5935 H   0  0  0  0  0  0  0  0  0  0  0  0
    4.0997   -2.9346   -1.2086 C   0  0  0  0  0  0  0  0  0  0  0  0
    4.8030   -3.2232   -2.0044 H   0  0  0  0  0  0  0  0  0  0  0  0
    4.5164   -2.9213    0.1322 C   0  0  0  0  0  0  0  0  0  0  0  0
    5.5466   -3.2095    0.3914 H   0  0  0  0  0  0  0  0  0  0  0  0
    3.6148   -2.5366    1.1391 C   0  0  0  0  0  0  0  0  0  0  0  0
    3.9368   -2.5236    2.1917 H   0  0  0  0  0  0  0  0  0  0  0  0
    2.3025   -2.1640    0.8184 C   0  0  0  0  0  0  0  0  0  0  0  0
    1.5921   -1.8369    1.5976 H   0  0  0  0  0  0  0  0  0  0  0  0
   -0.0982   -3.8916   -2.1660 C   0  0  0  0  0  0  0  0  0  0  0  0
   -1.0686   -4.4136   -2.2371 H   0  0  0  0  0  0  0  0  0  0  0  0
    0.5862   -4.4384   -1.4931 H   0  0  0  0  0  0  0  0  0  0  0  0
    0.3597   -3.8238   -3.1720 H   0  0  0  0  0  0  0  0  0  0  0  0
   -2.6414   -0.0139   -1.1709 C   0  0  0  0  0  0  0  0  0  0  0  0
   -3.0375   -0.0032   -2.2041 H   0  0  0  0  0  0  0  0  0  0  0  0
   -2.2785    0.9982   -0.9029 H   0  0  0  0  0  0  0  0  0  0  0  0
   -3.6989   -0.4854   -0.1959 C   0  0  0  0  0  0  0  0  0  0  0  0
   -3.3721   -0.7407    1.1518 C   0  0  0  0  0  0  0  0  0  0  0  0
   -2.3349   -0.6234    1.5110 H   0  0  0  0  0  0  0  0  0  0  0  0
   -4.3731   -1.1455    2.0467 C   0  0  0  0  0  0  0  0  0  0  0  0
   -4.1055   -1.3412    3.0964 H   0  0  0  0  0  0  0  0  0  0  0  0
   -5.7013   -1.2950    1.6146 C   0  0  0  0  0  0  0  0  0  0  0  0
   -6.4822   -1.6119    2.3229 H   0  0  0  0  0  0  0  0  0  0  0  0
   -6.0286   -1.0412    0.2738 C   0  0  0  0  0  0  0  0  0  0  0  0
   -7.0656   -1.1604   -0.0760 H   0  0  0  0  0  0  0  0  0  0  0  0
   -5.0291   -0.6421   -0.6270 C   0  0  0  0  0  0  0  0  0  0  0  0
   -5.2852   -0.4509   -1.6818 H   0  0  0  0  0  0  0  0  0  0  0  0
  1  4  1  0  0  0  0
  2  3  1  0  0  0  0
  2  1  1  0  0  0  0
  3  5  1  0  0  0  0
  5  4  2  0  0  0  0
  5  6  1  0  0  0  0
  6 15  1  0  0  0  0
  7  9  1  0  0  0  0
  7  6  2  0  0  0  0
  8  7  1  0  0  0  0
  9 11  2  0  0  0  0
 10  9  1  0  0  0  0
 11 12  1  0  0  0  0
 11 13  1  0  0  0  0
 13 14  1  0  0  0  0
 15 13  2  0  0  0  0
 15 16  1  0  0  0  0
 17  3  1  0  0  0  0
 17 19  1  0  0  0  0
 18 17  1  0  0  0  0
 20 17  1  0  0  0  0
 21  1  1  0  0  0  0
 21 23  1  0  0  0  0
 21 24  1  0  0  0  0
 22 21  1  0  0  0  0
 24 25  1  0  0  0  0
 25 26  1  0  0  0  0
 25 27  2  0  0  0  0
 27 28  1  0  0  0  0
 29 27  1  0  0  0  0
 29 30  1  0  0  0  0
 31 29  2  0  0  0  0
 32 31  1  0  0  0  0
 33 24  2  0  0  0  0
 33 31  1  0  0  0  0
 34 33  1  0  0  0  0
M  END
