3
 OpenBabel05122313113D

 12 12  0  0  0  0  0  0  0  0999 V2000
   -1.5953    1.0081    0.9706 N   0  0  0  0  0  0  0  0  0  0  0  0
   -1.7080    1.3749   -0.4517 B   0  0  0  0  0  0  0  0  0  0  0  0
   -1.4738   -0.3004    1.4377 C   0  0  0  0  0  3  0  0  0  0  0  0
   -1.5634   -1.3805    0.5330 C   0  0  0  0  0  0  0  0  0  0  0  0
   -1.6137   -1.1346   -0.8767 C   0  0  0  0  0  0  0  0  0  0  0  0
   -1.6767    0.1789   -1.3967 C   0  0  0  0  0  0  0  0  0  0  0  0
   -1.4654    1.7380    1.6766 H   0  0  0  0  0  0  0  0  0  0  0  0
   -1.7783    2.5501   -0.7281 H   0  0  0  0  0  0  0  0  0  0  0  0
   -1.3820   -0.4500    2.5222 H   0  0  0  0  0  0  0  0  0  0  0  0
   -1.4798   -2.4026    0.9249 H   0  0  0  0  0  0  0  0  0  0  0  0
   -1.5516   -2.0061   -1.5478 H   0  0  0  0  0  0  0  0  0  0  0  0
   -1.6394    0.2993   -2.4891 H   0  0  0  0  0  0  0  0  0  0  0  0
  1  3  1  0  0  0  0
  1  7  1  0  0  0  0
  2  1  1  0  0  0  0
  3  9  1  0  0  0  0
  4 10  1  0  0  0  0
  4  3  1  0  0  0  0
  5  4  2  0  0  0  0
  6  5  1  0  0  0  0
  6  2  2  0  0  0  0
  8  2  1  0  0  0  0
 11  5  1  0  0  0  0
 12  6  1  0  0  0  0
M  END
