1
 OpenBabel05122313113D

 17 17  0  0  0  0  0  0  0  0999 V2000
   -1.6744    0.0570   -0.2681 C   0  0  0  0  0  2  0  0  0  0  0  0
   -3.8219   -0.6302   -0.8446 C   0  0  0  0  0  0  0  0  0  0  0  0
   -4.3946   -1.2074   -0.0869 H   0  0  0  0  0  0  0  0  0  0  0  0
   -4.2169   -0.8944   -1.8460 H   0  0  0  0  0  0  0  0  0  0  0  0
   -3.8298    0.8873   -0.5686 C   0  0  0  0  0  0  0  0  0  0  0  0
   -4.0615    1.4912   -1.4721 H   0  0  0  0  0  0  0  0  0  0  0  0
   -4.5422    1.1804    0.2288 H   0  0  0  0  0  0  0  0  0  0  0  0
   -1.9566   -2.3536   -0.8324 C   0  0  0  0  0  0  0  0  0  0  0  0
   -0.8550   -2.3942   -0.7489 H   0  0  0  0  0  0  0  0  0  0  0  0
   -2.2688   -2.7931   -1.8010 H   0  0  0  0  0  0  0  0  0  0  0  0
   -2.3916   -2.9572   -0.0073 H   0  0  0  0  0  0  0  0  0  0  0  0
   -2.0451    2.4395    0.3749 C   0  0  0  0  0  0  0  0  0  0  0  0
   -0.9850    2.3954    0.6854 H   0  0  0  0  0  0  0  0  0  0  0  0
   -2.6560    2.7073    1.2616 H   0  0  0  0  0  0  0  0  0  0  0  0
   -2.1754    3.2287   -0.3956 H   0  0  0  0  0  0  0  0  0  0  0  0
   -2.3916   -0.9737   -0.7437 N   0  0  0  0  0  0  0  0  0  0  0  0
   -2.4450    1.1452   -0.1360 N   0  0  0  0  0  0  0  0  0  0  0  0
  1 17  1  0  0  0  0
  2 16  1  0  0  0  0
  2  5  1  0  0  0  0
  2  3  1  0  0  0  0
  4  2  1  0  0  0  0
  5 17  1  0  0  0  0
  5  7  1  0  0  0  0
  6  5  1  0  0  0  0
  8  9  1  0  0  0  0
  8 16  1  0  0  0  0
  8 11  1  0  0  0  0
 10  8  1  0  0  0  0
 12 13  1  0  0  0  0
 12 14  1  0  0  0  0
 15 12  1  0  0  0  0
 16  1  1  0  0  0  0
 17 12  1  0  0  0  0
M  END
