5
 OpenBabel05122313113D

 26 25  0  0  0  0  0  0  0  0999 V2000
    1.2699    1.3816    0.1626 N   0  0  0  0  0  0  0  0  0  0  0  0
    2.4099    0.4431   -0.0146 C   0  0  0  0  0  0  0  0  0  0  0  0
    2.0541   -1.0435    0.2182 C   0  0  0  0  0  0  0  0  0  0  0  0
    0.8119   -1.4012   -0.5968 C   0  0  0  0  0  3  0  0  0  0  0  0
    0.4936   -0.8627   -1.8547 C   0  0  0  0  0  3  0  0  0  0  0  0
    3.2447   -1.8967   -0.2740 C   0  0  0  0  0  0  0  0  0  0  0  0
    1.7797   -1.3813    1.6980 C   0  0  0  0  0  0  0  0  0  0  0  0
    1.1769    1.8926    1.5459 C   0  0  0  0  0  0  0  0  0  0  0  0
    1.3534    2.5282   -0.7608 C   0  0  0  0  0  0  0  0  0  0  0  0
    3.2626    0.7414    0.6378 H   0  0  0  0  0  0  0  0  0  0  0  0
    2.7689    0.5514   -1.0575 H   0  0  0  0  0  0  0  0  0  0  0  0
    0.3137   -2.3385   -0.2908 H   0  0  0  0  0  0  0  0  0  0  0  0
   -0.1997   -1.3939   -2.5248 H   0  0  0  0  0  0  0  0  0  0  0  0
    1.1525   -0.1359   -2.3589 H   0  0  0  0  0  0  0  0  0  0  0  0
    3.0180   -2.9767   -0.1719 H   0  0  0  0  0  0  0  0  0  0  0  0
    3.4725   -1.6952   -1.3402 H   0  0  0  0  0  0  0  0  0  0  0  0
    4.1556   -1.6854    0.3239 H   0  0  0  0  0  0  0  0  0  0  0  0
    0.8263   -0.9431    2.0522 H   0  0  0  0  0  0  0  0  0  0  0  0
    1.6887   -2.4793    1.8220 H   0  0  0  0  0  0  0  0  0  0  0  0
    2.6049   -1.0329    2.3518 H   0  0  0  0  0  0  0  0  0  0  0  0
    1.1300    1.0566    2.2629 H   0  0  0  0  0  0  0  0  0  0  0  0
    2.0629    2.5252    1.7869 H   0  0  0  0  0  0  0  0  0  0  0  0
    0.2457    2.4820    1.6410 H   0  0  0  0  0  0  0  0  0  0  0  0
    2.2667    3.1392   -0.5696 H   0  0  0  0  0  0  0  0  0  0  0  0
    1.3704    2.1719   -1.8086 H   0  0  0  0  0  0  0  0  0  0  0  0
    0.4516    3.1540   -0.6204 H   0  0  0  0  0  0  0  0  0  0  0  0
  1  8  1  0  0  0  0
  2  1  1  0  0  0  0
  2  3  1  0  0  0  0
  2 10  1  0  0  0  0
  3  7  1  0  0  0  0
  4 12  1  0  0  0  0
  4  3  1  0  0  0  0
  5  4  1  0  0  0  0
  6 15  1  0  0  0  0
  6  3  1  0  0  0  0
  6 17  1  0  0  0  0
  7 19  1  0  0  0  0
  7 18  1  0  0  0  0
  7 20  1  0  0  0  0
  8 23  1  0  0  0  0
  8 22  1  0  0  0  0
  8 21  1  0  0  0  0
  9 26  1  0  0  0  0
  9 24  1  0  0  0  0
  9  1  1  0  0  0  0
 11  2  1  0  0  0  0
 13  5  1  0  0  0  0
 14  5  1  0  0  0  0
 16  6  1  0  0  0  0
 25  9  1  0  0  0  0
M  END
