7
 OpenBabel05122313113D

 54 58  0  0  1  0  0  0  0  0999 V2000
   -2.1958   -3.1837   -1.0274 O   0  0  0  0  0  0  0  0  0  0  0  0
    1.1208    1.9461   -0.6800 N   0  0  0  0  0  0  0  0  0  0  0  0
    3.0522    0.2057    0.2371 N   0  0  0  0  0  0  0  0  0  0  0  0
   -0.8791   -1.2777   -0.4855 C   0  0  0  0  0  0  0  0  0  0  0  0
   -1.9769   -1.8619   -1.2072 C   0  0  0  0  0  0  0  0  0  0  0  0
   -2.7953   -1.0544   -2.0623 C   0  0  0  0  0  3  0  0  0  0  0  0
   -2.4845    0.3112   -2.2626 C   0  0  0  0  0  3  0  0  0  0  0  0
   -1.3431    0.8846   -1.6362 C   0  0  0  0  0  0  0  0  0  0  0  0
   -0.5671    0.1117   -0.7437 C   0  0  0  0  0  0  0  0  0  0  0  0
   -0.0149   -2.0265    0.4584 C   0  0  0  0  0  0  0  0  0  0  0  0
   -0.4711   -3.1110    1.2385 C   0  0  0  0  0  0  0  0  0  0  0  0
    0.3929   -3.7694    2.1213 C   0  0  0  0  0  0  0  0  0  0  0  0
    1.7266   -3.3524    2.2455 C   0  0  0  0  0  0  0  0  0  0  0  0
    2.1859   -2.2594    1.4965 C   0  0  0  0  0  0  0  0  0  0  0  0
    1.3282   -1.5892    0.6106 C   0  0  0  0  0  0  0  0  0  0  0  0
    0.6698    0.7118   -0.0746 C   0  0  1  0  0  0  0  0  0  0  0  0
    1.7879   -0.3617   -0.1674 C   0  0  1  0  0  0  0  0  0  0  0  0
   -3.3559   -3.7849   -1.5904 C   0  0  0  0  0  0  0  0  0  0  0  0
    0.7253    3.2011   -0.2103 C   0  0  0  0  0  0  0  0  0  0  0  0
   -0.4900    3.3958    0.4879 C   0  0  0  0  0  0  0  0  0  0  0  0
   -0.8629    4.6792    0.9124 C   0  0  0  0  0  0  0  0  0  0  0  0
   -0.0489    5.7918    0.6535 C   0  0  0  0  0  0  0  0  0  0  0  0
    1.1581    5.6029   -0.0422 C   0  0  0  0  0  0  0  0  0  0  0  0
    1.5444    4.3282   -0.4692 C   0  0  0  0  0  0  0  0  0  0  0  0
    4.2968   -0.3005   -0.1439 C   0  0  0  0  0  0  0  0  0  0  0  0
    5.4660    0.2374    0.4494 C   0  0  0  0  0  0  0  0  0  0  0  0
    6.7333   -0.2139    0.0680 C   0  0  0  0  0  0  0  0  0  0  0  0
    6.8751   -1.2086   -0.9149 C   0  0  0  0  0  0  0  0  0  0  0  0
    5.7209   -1.7504   -1.4991 C   0  0  0  0  0  0  0  0  0  0  0  0
    4.4430   -1.3154   -1.1191 C   0  0  0  0  0  0  0  0  0  0  0  0
   -3.6853   -1.4813   -2.5383 H   0  0  0  0  0  0  0  0  0  0  0  0
   -3.1327    0.9285   -2.8994 H   0  0  0  0  0  0  0  0  0  0  0  0
   -1.0839    1.9385   -1.7949 H   0  0  0  0  0  0  0  0  0  0  0  0
   -1.5186   -3.4245    1.1606 H   0  0  0  0  0  0  0  0  0  0  0  0
    0.0167   -4.6099    2.7236 H   0  0  0  0  0  0  0  0  0  0  0  0
    2.4100   -3.8691    2.9359 H   0  0  0  0  0  0  0  0  0  0  0  0
    3.2261   -1.9198    1.6016 H   0  0  0  0  0  0  0  0  0  0  0  0
    0.4436    0.8649    1.0093 H   0  0  0  0  0  0  0  0  0  0  0  0
    1.8771   -0.6260   -1.2460 H   0  0  0  0  0  0  0  0  0  0  0  0
   -4.2839   -3.3298   -1.1846 H   0  0  0  0  0  0  0  0  0  0  0  0
   -3.3555   -3.7185   -2.6998 H   0  0  0  0  0  0  0  0  0  0  0  0
   -3.3170   -4.8492   -1.2956 H   0  0  0  0  0  0  0  0  0  0  0  0
    2.1171    1.8965   -0.9158 H   0  0  0  0  0  0  0  0  0  0  0  0
   -1.1595    2.5466    0.6803 H   0  0  0  0  0  0  0  0  0  0  0  0
   -1.8156    4.8021    1.4502 H   0  0  0  0  0  0  0  0  0  0  0  0
   -0.3500    6.7955    0.9872 H   0  0  0  0  0  0  0  0  0  0  0  0
    1.8135    6.4619   -0.2540 H   0  0  0  0  0  0  0  0  0  0  0  0
    2.4939    4.1901   -1.0115 H   0  0  0  0  0  0  0  0  0  0  0  0
    3.0402    0.6758    1.1458 H   0  0  0  0  0  0  0  0  0  0  0  0
    5.3664    1.0256    1.2129 H   0  0  0  0  0  0  0  0  0  0  0  0
    7.6243    0.2221    0.5456 H   0  0  0  0  0  0  0  0  0  0  0  0
    7.8726   -1.5611   -1.2144 H   0  0  0  0  0  0  0  0  0  0  0  0
    5.8087   -2.5410   -2.2602 H   0  0  0  0  0  0  0  0  0  0  0  0
    3.5582   -1.7838   -1.5717 H   0  0  0  0  0  0  0  0  0  0  0  0
  2 19  1  0  0  0  0
  2 16  1  0  0  0  0
  3 49  1  0  0  0  0
  4 10  1  0  0  0  0
  5  1  1  0  0  0  0
  5  4  2  0  0  0  0
  6  5  1  0  0  0  0
  7  6  1  0  0  0  0
  7  8  1  0  0  0  0
  8  9  2  0  0  0  0
  9  4  1  0  0  0  0
  9 16  1  0  0  0  0
 10 15  2  0  0  0  0
 10 11  1  0  0  0  0
 11 12  2  0  0  0  0
 12 13  1  0  0  0  0
 12 35  1  0  0  0  0
 13 36  1  0  0  0  0
 14 37  1  0  0  0  0
 14 13  2  0  0  0  0
 15 14  1  0  0  0  0
 16 38  1  1  0  0  0
 17 39  1  6  0  0  0
 17 16  1  0  0  0  0
 17  3  1  0  0  0  0
 17 15  1  0  0  0  0
 18 42  1  0  0  0  0
 18 40  1  0  0  0  0
 18  1  1  0  0  0  0
 19 20  1  0  0  0  0
 20 44  1  0  0  0  0
 20 21  2  0  0  0  0
 21 45  1  0  0  0  0
 22 21  1  0  0  0  0
 22 46  1  0  0  0  0
 23 22  2  0  0  0  0
 24 19  2  0  0  0  0
 24 23  1  0  0  0  0
 25  3  1  0  0  0  0
 25 26  1  0  0  0  0
 26 50  1  0  0  0  0
 27 26  2  0  0  0  0
 27 51  1  0  0  0  0
 28 27  1  0  0  0  0
 29 30  1  0  0  0  0
 29 28  2  0  0  0  0
 30 25  2  0  0  0  0
 31  6  1  0  0  0  0
 32  7  1  0  0  0  0
 33  8  1  0  0  0  0
 34 11  1  0  0  0  0
 41 18  1  0  0  0  0
 43  2  1  0  0  0  0
 47 23  1  0  0  0  0
 48 24  1  0  0  0  0
 52 28  1  0  0  0  0
 53 29  1  0  0  0  0
 54 30  1  0  0  0  0
M  END
