8
 OpenBabel05122313113D

 54 60  0  0  1  0  0  0  0  0999 V2000
   -1.0237    0.7191   -0.1682 C   0  0  2  0  0  3  0  0  0  0  0  0
   -2.0898    1.6024   -0.7089 C   0  0  0  0  0  0  0  0  0  0  0  0
   -1.7430    2.8723   -1.2229 C   0  0  0  0  0  0  0  0  0  0  0  0
   -2.7157    3.7325   -1.7529 C   0  0  0  0  0  0  0  0  0  0  0  0
   -4.0646    3.3474   -1.7682 C   0  0  0  0  0  0  0  0  0  0  0  0
   -4.4299    2.0935   -1.2494 C   0  0  0  0  0  0  0  0  0  0  0  0
   -3.4564    1.2317   -0.7296 C   0  0  0  0  0  0  0  0  0  0  0  0
   -1.0084   -0.7023   -0.2331 C   0  0  1  0  0  3  0  0  0  0  0  0
   -1.9626   -1.5490   -0.9843 C   0  0  0  0  0  0  0  0  0  0  0  0
   -2.2597   -1.2433   -2.3331 C   0  0  0  0  0  0  0  0  0  0  0  0
   -3.1320   -2.0498   -3.0757 C   0  0  0  0  0  0  0  0  0  0  0  0
   -3.7299   -3.1768   -2.4889 C   0  0  0  0  0  0  0  0  0  0  0  0
   -3.4325   -3.4993   -1.1547 C   0  0  0  0  0  0  0  0  0  0  0  0
   -2.5505   -2.7003   -0.4146 C   0  0  0  0  0  0  0  0  0  0  0  0
    3.4716   -1.2788   -1.5223 C   0  0  0  0  0  0  0  0  0  0  0  0
    2.7584   -1.5519   -0.3327 C   0  0  0  0  0  0  0  0  0  0  0  0
    3.1467   -2.6569    0.4573 C   0  0  0  0  0  0  0  0  0  0  0  0
    4.2386   -3.4502    0.0811 C   0  0  0  0  0  0  0  0  0  0  0  0
    4.9426   -3.1693   -1.1013 C   0  0  0  0  0  0  0  0  0  0  0  0
    4.5511   -2.0844   -1.9040 C   0  0  0  0  0  0  0  0  0  0  0  0
    3.7979    3.5573   -1.1272 C   0  0  0  0  0  0  0  0  0  0  0  0
    5.0337    3.2549   -0.5342 C   0  0  0  0  0  0  0  0  0  0  0  0
    5.1518    2.1191    0.2837 C   0  0  0  0  0  0  0  0  0  0  0  0
    4.0473    1.2846    0.4990 C   0  0  0  0  0  0  0  0  0  0  0  0
    2.8001    1.5790   -0.0954 C   0  0  0  0  0  0  0  0  0  0  0  0
    2.6879    2.7305   -0.9022 C   0  0  0  0  0  0  0  0  0  0  0  0
    1.6203    0.7062    0.1210 C   0  0  2  0  0  0  0  0  0  0  0  0
    1.6246   -0.6951    0.0604 C   0  0  1  0  0  0  0  0  0  0  0  0
    0.2203    1.3344    0.6093 B   0  0  0  0  0  0  0  0  0  0  0  0
    0.2248   -1.3821    0.5189 B   0  0  1  0  0  0  0  0  0  0  0  0
    1.0567   -0.0800    1.5350 B   0  0  2  0  0  0  0  0  0  0  0  0
   -0.6873    3.1791   -1.2028 H   0  0  0  0  0  0  0  0  0  0  0  0
   -2.4163    4.7135   -2.1526 H   0  0  0  0  0  0  0  0  0  0  0  0
   -4.8308    4.0223   -2.1792 H   0  0  0  0  0  0  0  0  0  0  0  0
   -5.4859    1.7825   -1.2506 H   0  0  0  0  0  0  0  0  0  0  0  0
   -3.7567    0.2531   -0.3311 H   0  0  0  0  0  0  0  0  0  0  0  0
   -1.7959   -0.3604   -2.7968 H   0  0  0  0  0  0  0  0  0  0  0  0
   -3.3487   -1.7934   -4.1242 H   0  0  0  0  0  0  0  0  0  0  0  0
   -4.4191   -3.8066   -3.0717 H   0  0  0  0  0  0  0  0  0  0  0  0
   -3.8863   -4.3871   -0.6877 H   0  0  0  0  0  0  0  0  0  0  0  0
   -2.3041   -2.9658    0.6234 H   0  0  0  0  0  0  0  0  0  0  0  0
    3.1687   -0.4247   -2.1455 H   0  0  0  0  0  0  0  0  0  0  0  0
    2.5870   -2.8804    1.3771 H   0  0  0  0  0  0  0  0  0  0  0  0
    4.5388   -4.3002    0.7127 H   0  0  0  0  0  0  0  0  0  0  0  0
    5.7941   -3.7992   -1.4006 H   0  0  0  0  0  0  0  0  0  0  0  0
    5.0949   -1.8626   -2.8349 H   0  0  0  0  0  0  0  0  0  0  0  0
    3.6951    4.4474   -1.7666 H   0  0  0  0  0  0  0  0  0  0  0  0
    5.9042    3.9062   -0.7056 H   0  0  0  0  0  0  0  0  0  0  0  0
    6.1152    1.8796    0.7594 H   0  0  0  0  0  0  0  0  0  0  0  0
    4.1436    0.3961    1.1399 H   0  0  0  0  0  0  0  0  0  0  0  0
    1.7171    2.9667   -1.3627 H   0  0  0  0  0  0  0  0  0  0  0  0
    1.7404   -0.1189    2.5370 H   0  0  0  0  0  0  0  0  0  0  0  0
    0.2266    2.4769    1.0203 H   0  0  0  0  0  0  0  0  0  0  0  0
    0.2394   -2.5726    0.7554 H   0  0  0  0  0  0  0  0  0  0  0  0
  1  2  1  1  0  0  0
  1 29  1  0  0  0  0
  3 32  1  0  0  0  0
  3  2  2  0  0  0  0
  4  3  1  0  0  0  0
  5  4  2  0  0  0  0
  5  6  1  0  0  0  0
  6  7  2  0  0  0  0
  7  2  1  0  0  0  0
  7 36  1  0  0  0  0
  8  9  1  6  0  0  0
  8  1  1  0  0  0  0
  8 30  1  0  0  0  0
  9 14  1  0  0  0  0
 10  9  2  0  0  0  0
 11 12  2  0  0  0  0
 11 10  1  0  0  0  0
 12 13  1  0  0  0  0
 13 40  1  0  0  0  0
 13 14  2  0  0  0  0
 14 41  1  0  0  0  0
 15 16  1  0  0  0  0
 16 17  2  0  0  0  0
 17 43  1  0  0  0  0
 18 17  1  0  0  0  0
 18 44  1  0  0  0  0
 19 18  2  0  0  0  0
 20 15  2  0  0  0  0
 20 19  1  0  0  0  0
 21 26  2  0  0  0  0
 21 22  1  0  0  0  0
 22 23  2  0  0  0  0
 23 24  1  0  0  0  0
 23 49  1  0  0  0  0
 24 50  1  0  0  0  0
 25 24  2  0  0  0  0
 26 25  1  0  0  0  0
 27 25  1  6  0  0  0
 27 29  1  0  0  0  0
 27 31  1  0  0  0  0
 28 16  1  6  0  0  0
 28 27  1  0  0  0  0
 28 30  1  0  0  0  0
 28 31  1  0  0  0  0
 29 53  1  0  0  0  0
 30 54  1  1  0  0  0
 30 31  1  0  0  0  0
 31 52  1  1  0  0  0
 33  4  1  0  0  0  0
 34  5  1  0  0  0  0
 35  6  1  0  0  0  0
 37 10  1  0  0  0  0
 38 11  1  0  0  0  0
 39 12  1  0  0  0  0
 42 15  1  0  0  0  0
 45 19  1  0  0  0  0
 46 20  1  0  0  0  0
 47 21  1  0  0  0  0
 48 22  1  0  0  0  0
 51 26  1  0  0  0  0
M  END
