1
 OpenBabel05122313113D

 25 26  0  0  0  0  0  0  0  0999 V2000
   -1.3426   -0.2809   -0.1934 C   0  0  0  0  0  2  0  0  0  0  0  0
   -0.8539    0.9267   -0.8226 C   0  0  0  0  0  3  0  0  0  0  0  0
   -0.4685    0.8473   -1.8542 H   0  0  0  0  0  0  0  0  0  0  0  0
   -2.8871   -2.1407    0.4340 C   0  0  0  0  0  0  0  0  0  0  0  0
   -2.0420   -2.6331    0.9353 H   0  0  0  0  0  0  0  0  0  0  0  0
   -4.1500   -2.7412    0.3953 C   0  0  0  0  0  0  0  0  0  0  0  0
   -4.3137   -3.7038    0.9043 H   0  0  0  0  0  0  0  0  0  0  0  0
   -5.2086   -2.1247   -0.2962 C   0  0  0  0  0  0  0  0  0  0  0  0
   -6.2023   -2.5977   -0.3217 H   0  0  0  0  0  0  0  0  0  0  0  0
   -4.9896   -0.9064   -0.9631 C   0  0  0  0  0  0  0  0  0  0  0  0
   -5.8132   -0.4233   -1.5112 H   0  0  0  0  0  0  0  0  0  0  0  0
   -3.7265   -0.3048   -0.9354 C   0  0  0  0  0  0  0  0  0  0  0  0
   -3.5512    0.6491   -1.4544 H   0  0  0  0  0  0  0  0  0  0  0  0
   -2.6509   -0.9036   -0.2243 C   0  0  0  0  0  0  0  0  0  0  0  0
   -2.2707    2.5057    0.5763 C   0  0  0  0  0  0  0  0  0  0  0  0
   -2.4405    1.6926    1.2984 H   0  0  0  0  0  0  0  0  0  0  0  0
   -2.8384    3.7661    0.7977 C   0  0  0  0  0  0  0  0  0  0  0  0
   -3.4529    3.9357    1.6958 H   0  0  0  0  0  0  0  0  0  0  0  0
   -2.6317    4.8127   -0.1188 C   0  0  0  0  0  0  0  0  0  0  0  0
   -3.0721    5.8054    0.0595 H   0  0  0  0  0  0  0  0  0  0  0  0
   -1.8633    4.5703   -1.2692 C   0  0  0  0  0  0  0  0  0  0  0  0
   -1.6991    5.3762   -2.0017 H   0  0  0  0  0  0  0  0  0  0  0  0
   -1.3014    3.3055   -1.4925 C   0  0  0  0  0  0  0  0  0  0  0  0
   -0.6984    3.1267   -2.3965 H   0  0  0  0  0  0  0  0  0  0  0  0
   -1.4786    2.2472   -0.5700 C   0  0  0  0  0  0  0  0  0  0  0  0
  2 25  1  0  0  0  0
  2  1  1  0  0  0  0
  3  2  1  0  0  0  0
  4  5  1  0  0  0  0
  6  4  1  0  0  0  0
  6  7  1  0  0  0  0
  8  6  2  0  0  0  0
  9  8  1  0  0  0  0
 10 12  2  0  0  0  0
 10  8  1  0  0  0  0
 11 10  1  0  0  0  0
 12 14  1  0  0  0  0
 13 12  1  0  0  0  0
 14  1  1  0  0  0  0
 14  4  2  0  0  0  0
 15 17  1  0  0  0  0
 15 16  1  0  0  0  0
 17 18  1  0  0  0  0
 19 20  1  0  0  0  0
 19 17  2  0  0  0  0
 21 19  1  0  0  0  0
 22 21  1  0  0  0  0
 23 21  2  0  0  0  0
 23 25  1  0  0  0  0
 24 23  1  0  0  0  0
 25 15  2  0  0  0  0
M  END
