3
 OpenBabel05122313113D

 26 28  0  0  1  0  0  0  0  0999 V2000
    0.2593    0.4701   -0.1667 N   0  0  0  0  0  0  0  0  0  0  0  0
   -0.4944   -1.8528   -0.1440 N   0  0  0  0  0  0  0  0  0  0  0  0
    0.3944   -0.8235   -0.2412 C   0  0  0  0  0  3  0  0  0  0  0  0
   -0.5887   -3.1594   -0.0083 C   0  0  0  0  0  2  0  0  0  0  0  0
   -0.6810    1.4408   -0.0700 C   0  0  0  0  0  0  0  0  0  0  0  0
   -2.0776    1.1929   -0.2921 C   0  0  0  0  0  0  0  0  0  0  0  0
   -3.0098    2.1875   -0.1267 C   0  0  0  0  0  0  0  0  0  0  0  0
   -2.5756    3.5274    0.2561 C   0  0  0  0  0  0  0  0  0  0  0  0
   -1.1516    3.7913    0.4338 C   0  0  0  0  0  0  0  0  0  0  0  0
   -0.2527    2.7651    0.2772 C   0  0  0  0  0  0  0  0  0  0  0  0
   -3.4888    4.5107    0.4216 C   0  0  0  0  0  1  0  0  0  0  0  0
   -1.9203   -2.2964   -0.0671 C   0  0  1  0  0  0  0  0  0  0  0  0
   -2.6508   -2.0005    1.1782 C   0  0  0  0  0  0  0  0  0  0  0  0
   -3.9356   -1.5617    1.1743 C   0  0  0  0  0  0  0  0  0  0  0  0
   -4.6509   -1.3687   -0.0999 C   0  0  0  0  0  0  0  0  0  0  0  0
   -3.9845   -1.7949   -1.3441 C   0  0  0  0  0  0  0  0  0  0  0  0
   -2.6973   -2.2275   -1.3183 C   0  0  0  0  0  0  0  0  0  0  0  0
   -5.8555   -0.7858   -0.1253 C   0  0  0  0  0  2  0  0  0  0  0  0
   -2.4117    0.1959   -0.6055 H   0  0  0  0  0  0  0  0  0  0  0  0
   -4.0791    1.9842   -0.2814 H   0  0  0  0  0  0  0  0  0  0  0  0
   -0.8216    4.8065    0.6916 H   0  0  0  0  0  0  0  0  0  0  0  0
    0.8242    2.9372    0.4262 H   0  0  0  0  0  0  0  0  0  0  0  0
   -2.1291   -2.1599    2.1350 H   0  0  0  0  0  0  0  0  0  0  0  0
   -4.4650   -1.3502    2.1134 H   0  0  0  0  0  0  0  0  0  0  0  0
   -4.5510   -1.7596   -2.2848 H   0  0  0  0  0  0  0  0  0  0  0  0
   -2.2069   -2.5535   -2.2486 H   0  0  0  0  0  0  0  0  0  0  0  0
  1  5  1  0  0  0  0
  2 12  1  0  0  0  0
  2  4  1  0  0  0  0
  3  1  2  0  0  0  0
  3  2  1  0  0  0  0
  5 10  1  0  0  0  0
  6  7  1  0  0  0  0
  6  5  2  0  0  0  0
  7  8  2  0  0  0  0
  8 11  1  0  0  0  0
  8  9  1  0  0  0  0
  9 21  1  0  0  0  0
 10 22  1  0  0  0  0
 10  9  2  0  0  0  0
 12  4  1  1  0  0  0
 12 13  1  0  0  0  0
 13 23  1  0  0  0  0
 14 13  2  0  0  0  0
 14 24  1  0  0  0  0
 15 14  1  0  0  0  0
 16 17  2  0  0  0  0
 16 15  1  0  0  0  0
 17 12  1  0  0  0  0
 18 15  2  0  0  0  0
 19  6  1  0  0  0  0
 20  7  1  0  0  0  0
 25 16  1  0  0  0  0
 26 17  1  0  0  0  0
M  END
