3
 OpenBabel05122313113D

 18 18  0  0  0  0  0  0  0  0999 V2000
   -2.4684   -0.6688    0.4199 C   0  0  0  0  0  0  0  0  0  0  0  0
   -1.8293   -0.2555    1.6417 C   0  0  0  0  0  0  0  0  0  0  0  0
   -0.8125   -1.2195    1.9555 C   0  0  0  0  0  3  0  0  0  0  0  0
   -0.7175   -2.1238    0.8745 C   0  0  0  0  0  0  0  0  0  0  0  0
   -1.6825   -1.7460   -0.1091 C   0  0  0  0  0  0  0  0  0  0  0  0
   -3.5768   -0.1164   -0.1461 N   0  0  0  0  0  0  0  0  0  0  0  0
   -2.1476    0.5715    2.2840 H   0  0  0  0  0  0  0  0  0  0  0  0
   -0.2227   -1.2500    2.8774 H   0  0  0  0  0  0  0  0  0  0  0  0
    0.0052   -2.9395    0.7707 H   0  0  0  0  0  0  0  0  0  0  0  0
   -1.8009   -2.2137   -1.0905 H   0  0  0  0  0  0  0  0  0  0  0  0
   -3.9717   -0.5499   -1.4759 C   0  0  0  0  0  0  0  0  0  0  0  0
   -4.0778    1.1376    0.3840 C   0  0  0  0  0  0  0  0  0  0  0  0
   -4.9609   -0.1193   -1.7197 H   0  0  0  0  0  0  0  0  0  0  0  0
   -4.0655   -1.6555   -1.5051 H   0  0  0  0  0  0  0  0  0  0  0  0
   -3.2396   -0.2322   -2.2501 H   0  0  0  0  0  0  0  0  0  0  0  0
   -5.0292    1.3936   -0.1181 H   0  0  0  0  0  0  0  0  0  0  0  0
   -4.2830    1.0472    1.4717 H   0  0  0  0  0  0  0  0  0  0  0  0
   -3.3557    1.9696    0.2227 H   0  0  0  0  0  0  0  0  0  0  0  0
  1  2  2  0  0  0  0
  2  3  1  0  0  0  0
  2  7  1  0  0  0  0
  3  8  1  0  0  0  0
  4  3  1  0  0  0  0
  5  1  1  0  0  0  0
  5  4  2  0  0  0  0
  6 12  1  0  0  0  0
  6  1  1  0  0  0  0
  9  4  1  0  0  0  0
 10  5  1  0  0  0  0
 11  6  1  0  0  0  0
 12 17  1  0  0  0  0
 13 11  1  0  0  0  0
 14 11  1  0  0  0  0
 15 11  1  0  0  0  0
 16 12  1  0  0  0  0
 18 12  1  0  0  0  0
M  END
