1
 OpenBabel05122313113D

 21 21  0  0  0  0  0  0  0  0999 V2000
    0.3826    1.1651   -0.0002 C   0  0  0  0  0  2  0  0  0  0  0  0
    1.7693    0.6643   -0.0001 C   0  0  0  0  0  0  0  0  0  0  0  0
    2.9163    1.4903   -0.0000 C   0  0  0  0  0  0  0  0  0  0  0  0
    4.1992    0.9341    0.0000 C   0  0  0  0  0  0  0  0  0  0  0  0
    4.3524   -0.4631   -0.0000 C   0  0  0  0  0  0  0  0  0  0  0  0
    3.2339   -1.3125   -0.0001 C   0  0  0  0  0  0  0  0  0  0  0  0
    1.9524   -0.7408   -0.0002 C   0  0  0  0  0  0  0  0  0  0  0  0
    0.7881   -1.4588   -0.0003 O   0  0  0  0  0  0  0  0  0  0  0  0
    0.8622   -2.8872   -0.0003 C   0  0  0  0  0  0  0  0  0  0  0  0
    0.3978    2.4914   -0.0004 O   0  0  0  0  0  0  0  0  0  0  0  0
   -0.8211    3.2399   -0.0006 C   0  0  0  0  0  0  0  0  0  0  0  0
    1.3878   -3.2461    0.9085 H   0  0  0  0  0  0  0  0  0  0  0  0
   -0.1753   -3.2564   -0.0003 H   0  0  0  0  0  0  0  0  0  0  0  0
    1.3879   -3.2461   -0.9090 H   0  0  0  0  0  0  0  0  0  0  0  0
   -1.4190    3.0105   -0.9031 H   0  0  0  0  0  0  0  0  0  0  0  0
    2.7695    2.5792   -0.0000 H   0  0  0  0  0  0  0  0  0  0  0  0
    5.0849    1.5860    0.0001 H   0  0  0  0  0  0  0  0  0  0  0  0
    5.3592   -0.9072    0.0000 H   0  0  0  0  0  0  0  0  0  0  0  0
    3.3736   -2.4007   -0.0002 H   0  0  0  0  0  0  0  0  0  0  0  0
   -0.5219    4.3037   -0.0008 H   0  0  0  0  0  0  0  0  0  0  0  0
   -1.4189    3.0109    0.9021 H   0  0  0  0  0  0  0  0  0  0  0  0
  1  2  1  0  0  0  0
  2  3  1  0  0  0  0
  3 16  1  0  0  0  0
  3  4  2  0  0  0  0
  4 17  1  0  0  0  0
  5  4  1  0  0  0  0
  5 18  1  0  0  0  0
  6  5  2  0  0  0  0
  7  2  2  0  0  0  0
  7  6  1  0  0  0  0
  8  9  1  0  0  0  0
  8  7  1  0  0  0  0
  9 12  1  0  0  0  0
 10  1  1  0  0  0  0
 11 10  1  0  0  0  0
 11 21  1  0  0  0  0
 13  9  1  0  0  0  0
 14  9  1  0  0  0  0
 15 11  1  0  0  0  0
 19  6  1  0  0  0  0
 20 11  1  0  0  0  0
M  END
