6
 OpenBabel05122313113D

 29 31  0  0  1  0  0  0  0  0999 V2000
    5.3516    2.2382   -0.0341 O   0  0  0  0  0  0  0  0  0  0  0  0
    5.3294   -2.3251    0.5345 O   0  0  0  0  0  0  0  0  0  0  0  0
    2.3147    2.4861   -0.6602 O   0  0  0  0  0  0  0  0  0  0  0  0
    5.5976   -0.0600    0.0939 N   0  0  0  0  0  0  0  0  0  0  0  0
    1.0911   -0.7439    0.8530 C   0  0  0  0  0  3  0  0  0  0  0  0
    1.0592    0.6864    0.5619 C   0  0  0  0  0  3  0  0  0  0  0  0
    2.3215    1.1412   -0.2146 C   0  0  2  0  0  0  0  0  0  0  0  0
    3.5127    0.8095    0.7933 C   0  0  1  0  0  0  0  0  0  0  0  0
    3.3489    1.3957    1.7188 H   0  0  0  0  0  0  0  0  0  0  0  0
    3.5398   -0.7111    1.0554 C   0  0  1  0  0  0  0  0  0  0  0  0
    3.4621   -0.9515    2.1358 H   0  0  0  0  0  0  0  0  0  0  0  0
    2.3634   -1.4110    0.2913 C   0  0  2  0  0  0  0  0  0  0  0  0
    2.4117   -2.5016    0.4788 H   0  0  0  0  0  0  0  0  0  0  0  0
    2.5440   -1.0624   -1.1627 C   0  0  0  0  0  0  0  0  0  0  0  0
    2.6540   -1.8274   -1.9444 H   0  0  0  0  0  0  0  0  0  0  0  0
    2.5271    0.2596   -1.4168 C   0  0  0  0  0  0  0  0  0  0  0  0
    2.6135    0.7194   -2.4114 H   0  0  0  0  0  0  0  0  0  0  0  0
    4.8904    1.1418    0.2403 C   0  0  0  0  0  0  0  0  0  0  0  0
    4.9002   -1.1830    0.5538 C   0  0  0  0  0  0  0  0  0  0  0  0
    2.3824    3.4994    0.3254 C   0  0  0  0  0  0  0  0  0  0  0  0
    1.6205    3.3726    1.1281 H   0  0  0  0  0  0  0  0  0  0  0  0
    2.1729    4.4560   -0.1922 H   0  0  0  0  0  0  0  0  0  0  0  0
    3.3989    3.5598    0.7720 H   0  0  0  0  0  0  0  0  0  0  0  0
    6.9269   -0.1259   -0.4730 C   0  0  0  0  0  0  0  0  0  0  0  0
    7.3311   -1.1344   -0.2668 H   0  0  0  0  0  0  0  0  0  0  0  0
    7.5661    0.6581   -0.0234 H   0  0  0  0  0  0  0  0  0  0  0  0
    6.8937    0.0413   -1.5690 H   0  0  0  0  0  0  0  0  0  0  0  0
    0.9230   -1.0439    1.9049 H   0  0  0  0  0  0  0  0  0  0  0  0
    0.8224    1.3613    1.4074 H   0  0  0  0  0  0  0  0  0  0  0  0
  1 18  2  0  0  0  0
  2 19  2  0  0  0  0
  3 20  1  0  0  0  0
  4 18  1  0  0  0  0
  4 19  1  0  0  0  0
  5 28  1  0  0  0  0
  6  5  1  0  0  0  0
  6 29  1  0  0  0  0
  7  3  1  6  0  0  0
  7  6  1  0  0  0  0
  7  8  1  0  0  0  0
  8 10  1  0  0  0  0
  8  9  1  1  0  0  0
 10 11  1  1  0  0  0
 12 13  1  1  0  0  0
 12  5  1  0  0  0  0
 12 10  1  0  0  0  0
 14 12  1  0  0  0  0
 15 14  1  0  0  0  0
 16 14  2  0  0  0  0
 16  7  1  0  0  0  0
 17 16  1  0  0  0  0
 18  8  1  0  0  0  0
 19 10  1  0  0  0  0
 20 23  1  0  0  0  0
 20 21  1  0  0  0  0
 22 20  1  0  0  0  0
 24 25  1  0  0  0  0
 24 26  1  0  0  0  0
 24  4  1  0  0  0  0
 27 24  1  0  0  0  0
M  END
