30
 OpenBabel05122313113D

 63 67  0  0  0  0  0  0  0  0999 V2000
   -6.9362    0.8097    1.2319 O   0  0  0  0  0  0  0  0  0  0  0  0
   -8.3173    0.9611    1.0808 N   0  0  0  0  0  0  0  0  0  0  0  0
   -8.6323    0.0698    0.1526 C   0  0  0  0  0  0  0  0  0  0  0  0
   -7.5570   -0.6568   -0.3153 N   0  0  0  0  0  0  0  0  0  0  0  0
   -6.5516   -0.1659    0.3734 C   0  0  0  0  0  0  0  0  0  0  0  0
  -10.0414   -0.1373   -0.3545 C   0  0  0  0  0  0  0  0  0  0  0  0
  -10.0439    0.1316   -1.8754 C   0  0  0  0  0  0  0  0  0  0  0  0
   -9.7758    1.1848   -2.0941 H   0  0  0  0  0  0  0  0  0  0  0  0
  -11.0530   -0.0616   -2.2923 H   0  0  0  0  0  0  0  0  0  0  0  0
   -9.3171   -0.5247   -2.3930 H   0  0  0  0  0  0  0  0  0  0  0  0
  -10.4333   -1.6068   -0.0864 C   0  0  0  0  0  0  0  0  0  0  0  0
   -9.7142   -2.3000   -0.5653 H   0  0  0  0  0  0  0  0  0  0  0  0
  -11.4440   -1.8097   -0.4948 H   0  0  0  0  0  0  0  0  0  0  0  0
  -10.4508   -1.8224    1.0010 H   0  0  0  0  0  0  0  0  0  0  0  0
  -11.0130    0.8154    0.3596 C   0  0  0  0  0  0  0  0  0  0  0  0
  -11.0133    0.6446    1.4539 H   0  0  0  0  0  0  0  0  0  0  0  0
  -12.0419    0.6556   -0.0203 H   0  0  0  0  0  0  0  0  0  0  0  0
  -10.7372    1.8742    0.1886 H   0  0  0  0  0  0  0  0  0  0  0  0
   -5.1428   -0.5449    0.3133 C   0  0  0  0  0  0  0  0  0  0  0  0
   -4.7474   -1.5663   -0.5772 C   0  0  0  0  0  0  0  0  0  0  0  0
   -5.5100   -2.0414   -1.2102 H   0  0  0  0  0  0  0  0  0  0  0  0
   -3.4057   -1.9452   -0.6583 C   0  0  0  0  0  0  0  0  0  0  0  0
   -3.0906   -2.7172   -1.3752 H   0  0  0  0  0  0  0  0  0  0  0  0
   -2.4501   -1.3111    0.1573 C   0  0  0  0  0  0  0  0  0  0  0  0
   -2.8343   -0.2980    1.0539 C   0  0  0  0  0  0  0  0  0  0  0  0
   -2.0792    0.1841    1.6900 H   0  0  0  0  0  0  0  0  0  0  0  0
   -4.1758    0.0869    1.1250 C   0  0  0  0  0  0  0  0  0  0  0  0
   -4.4823    0.8810    1.8201 H   0  0  0  0  0  0  0  0  0  0  0  0
   -1.0832   -1.7216    0.0724 N   0  0  0  0  0  0  0  0  0  0  0  0
    0.0000   -0.8733   -0.0000 C   0  0  0  0  0  2  0  0  0  0  0  0
   -0.6815   -3.0568    0.0419 C   0  0  0  0  0  0  0  0  0  0  0  0
   -1.3968   -3.8810    0.1076 H   0  0  0  0  0  0  0  0  0  0  0  0
    6.9361    0.8099   -1.2317 O   0  0  0  0  0  0  0  0  0  0  0  0
    8.3173    0.9613   -1.0806 N   0  0  0  0  0  0  0  0  0  0  0  0
    8.6323    0.0698   -0.1527 C   0  0  0  0  0  0  0  0  0  0  0  0
    7.5571   -0.6569    0.3152 N   0  0  0  0  0  0  0  0  0  0  0  0
    6.5516   -0.1658   -0.3734 C   0  0  0  0  0  0  0  0  0  0  0  0
   10.0415   -0.1374    0.3544 C   0  0  0  0  0  0  0  0  0  0  0  0
   10.0441    0.1321    1.8751 C   0  0  0  0  0  0  0  0  0  0  0  0
    9.7763    1.1854    2.0935 H   0  0  0  0  0  0  0  0  0  0  0  0
   11.0533   -0.0612    2.2920 H   0  0  0  0  0  0  0  0  0  0  0  0
    9.3173   -0.5239    2.3930 H   0  0  0  0  0  0  0  0  0  0  0  0
   10.4331   -1.6071    0.0867 C   0  0  0  0  0  0  0  0  0  0  0  0
    9.7139   -2.2999    0.5659 H   0  0  0  0  0  0  0  0  0  0  0  0
   11.4438   -1.8099    0.4951 H   0  0  0  0  0  0  0  0  0  0  0  0
   10.4504   -1.8231   -1.0006 H   0  0  0  0  0  0  0  0  0  0  0  0
   11.0131    0.8149   -0.3602 C   0  0  0  0  0  0  0  0  0  0  0  0
   11.0134    0.6437   -1.4544 H   0  0  0  0  0  0  0  0  0  0  0  0
   12.0420    0.6551    0.0197 H   0  0  0  0  0  0  0  0  0  0  0  0
   10.7374    1.8739   -0.1896 H   0  0  0  0  0  0  0  0  0  0  0  0
    5.1428   -0.5448   -0.3133 C   0  0  0  0  0  0  0  0  0  0  0  0
    4.7475   -1.5663    0.5772 C   0  0  0  0  0  0  0  0  0  0  0  0
    5.5101   -2.0414    1.2102 H   0  0  0  0  0  0  0  0  0  0  0  0
    3.4057   -1.9452    0.6583 C   0  0  0  0  0  0  0  0  0  0  0  0
    3.0907   -2.7173    1.3751 H   0  0  0  0  0  0  0  0  0  0  0  0
    2.4501   -1.3110   -0.1573 C   0  0  0  0  0  0  0  0  0  0  0  0
    2.8343   -0.2979   -1.0538 C   0  0  0  0  0  0  0  0  0  0  0  0
    2.0792    0.1842   -1.6898 H   0  0  0  0  0  0  0  0  0  0  0  0
    4.1758    0.0871   -1.1249 C   0  0  0  0  0  0  0  0  0  0  0  0
    4.4822    0.8812   -1.8199 H   0  0  0  0  0  0  0  0  0  0  0  0
    1.0832   -1.7216   -0.0725 N   0  0  0  0  0  0  0  0  0  0  0  0
    0.6816   -3.0568   -0.0419 C   0  0  0  0  0  0  0  0  0  0  0  0
    1.3968   -3.8810   -0.1075 H   0  0  0  0  0  0  0  0  0  0  0  0
  2  1  1  0  0  0  0
  3  2  2  0  0  0  0
  4  3  1  0  0  0  0
  4  5  2  0  0  0  0
  5  1  1  0  0  0  0
  6 11  1  0  0  0  0
  6  3  1  0  0  0  0
  6 15  1  0  0  0  0
  7  6  1  0  0  0  0
  8  7  1  0  0  0  0
  9  7  1  0  0  0  0
 10  7  1  0  0  0  0
 11 14  1  0  0  0  0
 12 11  1  0  0  0  0
 13 11  1  0  0  0  0
 15 16  1  0  0  0  0
 17 15  1  0  0  0  0
 18 15  1  0  0  0  0
 19  5  1  0  0  0  0
 19 27  1  0  0  0  0
 20 19  2  0  0  0  0
 21 20  1  0  0  0  0
 22 20  1  0  0  0  0
 22 24  2  0  0  0  0
 23 22  1  0  0  0  0
 24 25  1  0  0  0  0
 25 27  2  0  0  0  0
 25 26  1  0  0  0  0
 27 28  1  0  0  0  0
 29 24  1  0  0  0  0
 30 29  1  0  0  0  0
 31 29  1  0  0  0  0
 31 32  1  0  0  0  0
 33 34  1  0  0  0  0
 33 37  1  0  0  0  0
 34 35  2  0  0  0  0
 35 36  1  0  0  0  0
 35 38  1  0  0  0  0
 37 51  1  0  0  0  0
 37 36  2  0  0  0  0
 38 39  1  0  0  0  0
 39 40  1  0  0  0  0
 39 41  1  0  0  0  0
 39 42  1  0  0  0  0
 43 38  1  0  0  0  0
 43 45  1  0  0  0  0
 43 44  1  0  0  0  0
 46 43  1  0  0  0  0
 47 50  1  0  0  0  0
 47 49  1  0  0  0  0
 47 38  1  0  0  0  0
 48 47  1  0  0  0  0
 51 52  1  0  0  0  0
 52 54  2  0  0  0  0
 52 53  1  0  0  0  0
 54 55  1  0  0  0  0
 56 61  1  0  0  0  0
 56 54  1  0  0  0  0
 57 56  2  0  0  0  0
 58 57  1  0  0  0  0
 59 57  1  0  0  0  0
 59 51  2  0  0  0  0
 60 59  1  0  0  0  0
 61 62  1  0  0  0  0
 61 30  1  0  0  0  0
 62 31  2  0  0  0  0
 63 62  1  0  0  0  0
M  END
