17
 OpenBabel05122313113D

 41 42  0  0  1  0  0  0  0  0999 V2000
   -2.3200   -0.3592    0.1201 Si  0  0  0  0  0  0  0  0  0  0  0  0
   -3.3098   -1.3533   -1.1297 C   0  0  0  0  0  0  0  0  0  0  0  0
   -4.6338   -1.1810   -1.3198 C   0  0  0  0  0  0  0  0  0  0  0  0
   -3.4770    0.3177    1.4329 C   0  0  0  0  0  0  0  0  0  0  0  0
   -3.8870    1.6025    1.4791 C   0  0  0  0  0  0  0  0  0  0  0  0
   -0.8730   -1.3817    0.7674 C   0  0  0  0  0  0  0  0  0  0  0  0
   -0.0550   -1.1022    1.9204 C   0  0  2  0  0  3  0  0  0  0  0  0
    1.1891   -1.7905    1.7432 C   0  0  0  0  0  0  0  0  0  0  0  0
    1.1775   -2.4900    0.5066 C   0  0  0  0  0  0  0  0  0  0  0  0
   -0.0807   -2.1993   -0.1124 C   0  0  0  0  0  0  0  0  0  0  0  0
   -0.4291   -0.3055    3.1389 C   0  0  0  0  0  0  0  0  0  0  0  0
    2.2434   -3.4009   -0.0178 C   0  0  0  0  0  0  0  0  0  0  0  0
   -1.2401    1.0147   -0.5967 C   0  0  2  0  0  3  0  0  0  0  0  0
   -0.5140    1.0134   -1.8389 C   0  0  2  0  0  3  0  0  0  0  0  0
    0.5436    1.9740   -1.7229 C   0  0  0  0  0  0  0  0  0  0  0  0
    0.4925    2.5892   -0.4427 C   0  0  0  0  0  0  0  0  0  0  0  0
   -0.5769    1.9594    0.2682 C   0  0  0  0  0  3  0  0  0  0  0  0
   -0.8170    0.2255   -3.0812 C   0  0  0  0  0  0  0  0  0  0  0  0
    1.3437    3.7212    0.0410 C   0  0  0  0  0  0  0  0  0  0  0  0
   -2.7969   -2.1320   -1.7244 H   0  0  0  0  0  0  0  0  0  0  0  0
   -5.2061   -0.4297   -0.7476 H   0  0  0  0  0  0  0  0  0  0  0  0
   -5.2053   -1.7784   -2.0511 H   0  0  0  0  0  0  0  0  0  0  0  0
   -3.8907   -0.3928    2.1736 H   0  0  0  0  0  0  0  0  0  0  0  0
   -4.6091    1.9629    2.2324 H   0  0  0  0  0  0  0  0  0  0  0  0
   -3.5115    2.3545    0.7631 H   0  0  0  0  0  0  0  0  0  0  0  0
    2.0265   -1.7739    2.4519 H   0  0  0  0  0  0  0  0  0  0  0  0
   -0.3878   -2.5675   -1.1008 H   0  0  0  0  0  0  0  0  0  0  0  0
   -1.3037    0.3470    2.9545 H   0  0  0  0  0  0  0  0  0  0  0  0
   -0.6980   -0.9854    3.9753 H   0  0  0  0  0  0  0  0  0  0  0  0
    0.4159    0.3254    3.4787 H   0  0  0  0  0  0  0  0  0  0  0  0
    1.9730   -4.4600    0.1782 H   0  0  0  0  0  0  0  0  0  0  0  0
    2.3774   -3.2743   -1.1097 H   0  0  0  0  0  0  0  0  0  0  0  0
    3.2169   -3.2021    0.4697 H   0  0  0  0  0  0  0  0  0  0  0  0
    1.2794    2.1987   -2.5054 H   0  0  0  0  0  0  0  0  0  0  0  0
   -0.8626    2.1887    1.3036 H   0  0  0  0  0  0  0  0  0  0  0  0
   -1.3897   -0.6952   -2.8650 H   0  0  0  0  0  0  0  0  0  0  0  0
    0.1149   -0.0595   -3.6064 H   0  0  0  0  0  0  0  0  0  0  0  0
   -1.4341    0.8318   -3.7780 H   0  0  0  0  0  0  0  0  0  0  0  0
    1.5476    3.6383    1.1256 H   0  0  0  0  0  0  0  0  0  0  0  0
    2.3168    3.7478   -0.4853 H   0  0  0  0  0  0  0  0  0  0  0  0
    0.8291    4.6882   -0.1428 H   0  0  0  0  0  0  0  0  0  0  0  0
  1  6  1  0  0  0  0
  1  4  1  0  0  0  0
  2  1  1  0  0  0  0
  3  2  2  0  0  0  0
  3 21  1  0  0  0  0
  4  5  2  0  0  0  0
  4 23  1  0  0  0  0
  5 24  1  0  0  0  0
  6  7  1  0  0  0  0
  7 11  1  1  0  0  0
  8  7  1  0  0  0  0
  8 26  1  0  0  0  0
  9  8  2  0  0  0  0
 10  9  1  0  0  0  0
 10  6  2  0  0  0  0
 11 30  1  0  0  0  0
 11 29  1  0  0  0  0
 12 31  1  0  0  0  0
 12 33  1  0  0  0  0
 12  9  1  0  0  0  0
 13  1  1  1  0  0  0
 13 17  1  0  0  0  0
 14 18  1  6  0  0  0
 14 15  1  0  0  0  0
 14 13  1  0  0  0  0
 15 16  2  0  0  0  0
 16 19  1  0  0  0  0
 16 17  1  0  0  0  0
 17 35  1  0  0  0  0
 18 36  1  0  0  0  0
 19 39  1  0  0  0  0
 20  2  1  0  0  0  0
 22  3  1  0  0  0  0
 25  5  1  0  0  0  0
 27 10  1  0  0  0  0
 28 11  1  0  0  0  0
 32 12  1  0  0  0  0
 34 15  1  0  0  0  0
 37 18  1  0  0  0  0
 38 18  1  0  0  0  0
 40 19  1  0  0  0  0
 41 19  1  0  0  0  0
M  END
