32
 OpenBabel05122313113D

 45 48  0  0  0  0  0  0  0  0999 V2000
    0.9655   -1.9231   -0.2251 N   0  0  0  0  0  0  0  0  0  0  0  0
   -6.2599    0.8482   -1.0308 N   0  0  0  0  0  0  0  0  0  0  0  0
    3.1325   -1.9496   -0.1036 N   0  0  0  0  0  0  0  0  0  0  0  0
   -5.4862   -0.7987    0.3233 N   0  0  0  0  0  0  0  0  0  0  0  0
    5.3093   -2.6472    0.3253 N   0  0  0  0  0  0  0  0  0  0  0  0
   -4.8843    0.6843   -1.2157 O   0  0  0  0  0  0  0  0  0  0  0  0
   -6.5635   -0.0535   -0.1090 C   0  0  0  0  0  0  0  0  0  0  0  0
   -4.4911   -0.3083   -0.3807 C   0  0  0  0  0  0  0  0  0  0  0  0
   -7.9629   -0.2528    0.4275 C   0  0  0  0  0  0  0  0  0  0  0  0
   -7.9273   -0.0066    1.9518 C   0  0  0  0  0  0  0  0  0  0  0  0
   -7.1962   -0.6785    2.4427 H   0  0  0  0  0  0  0  0  0  0  0  0
   -8.9287   -0.1950    2.3891 H   0  0  0  0  0  0  0  0  0  0  0  0
   -7.6423    1.0402    2.1796 H   0  0  0  0  0  0  0  0  0  0  0  0
   -8.3772   -1.7139    0.1471 C   0  0  0  0  0  0  0  0  0  0  0  0
   -8.4223   -1.9131   -0.9426 H   0  0  0  0  0  0  0  0  0  0  0  0
   -9.3804   -1.9120    0.5761 H   0  0  0  0  0  0  0  0  0  0  0  0
   -7.6549   -2.4218    0.5989 H   0  0  0  0  0  0  0  0  0  0  0  0
   -8.9399    0.7209   -0.2498 C   0  0  0  0  0  0  0  0  0  0  0  0
   -8.6484    1.7740   -0.0695 H   0  0  0  0  0  0  0  0  0  0  0  0
   -9.9615    0.5665    0.1514 H   0  0  0  0  0  0  0  0  0  0  0  0
   -8.9672    0.5665   -1.3462 H   0  0  0  0  0  0  0  0  0  0  0  0
   -3.0856   -0.7031   -0.3583 C   0  0  0  0  0  0  0  0  0  0  0  0
   -2.1307   -0.0691   -1.1824 C   0  0  0  0  0  0  0  0  0  0  0  0
   -2.4444    0.7385   -1.8583 H   0  0  0  0  0  0  0  0  0  0  0  0
   -0.7923   -0.4692   -1.1470 C   0  0  0  0  0  0  0  0  0  0  0  0
   -0.0479    0.0119   -1.7960 H   0  0  0  0  0  0  0  0  0  0  0  0
   -0.3983   -1.4991   -0.2738 C   0  0  0  0  0  0  0  0  0  0  0  0
   -1.3424   -2.1367    0.5524 C   0  0  0  0  0  0  0  0  0  0  0  0
   -1.0187   -2.9229    1.2496 H   0  0  0  0  0  0  0  0  0  0  0  0
   -2.6814   -1.7425    0.5072 C   0  0  0  0  0  0  0  0  0  0  0  0
   -3.4346   -2.2193    1.1501 H   0  0  0  0  0  0  0  0  0  0  0  0
    2.0554   -1.0885   -0.1351 C   0  0  0  0  0  2  0  0  0  0  0  0
    1.3543   -3.2641   -0.2250 C   0  0  0  0  0  0  0  0  0  0  0  0
    0.6296   -4.0774   -0.3176 H   0  0  0  0  0  0  0  0  0  0  0  0
    2.7148   -3.2816   -0.1484 C   0  0  0  0  0  0  0  0  0  0  0  0
    3.4469   -4.0913   -0.1213 H   0  0  0  0  0  0  0  0  0  0  0  0
    4.5263   -1.6148   -0.0028 C   0  0  0  0  0  0  0  0  0  0  0  0
    5.0087   -0.3188   -0.2561 C   0  0  0  0  0  0  0  0  0  0  0  0
    4.3255    0.4962   -0.5409 H   0  0  0  0  0  0  0  0  0  0  0  0
    6.3854   -0.1057   -0.1163 C   0  0  0  0  0  0  0  0  0  0  0  0
    6.7990    0.8976   -0.2968 H   0  0  0  0  0  0  0  0  0  0  0  0
    7.2187   -1.1752    0.2435 C   0  0  0  0  0  0  0  0  0  0  0  0
    8.3039   -1.0436    0.3610 H   0  0  0  0  0  0  0  0  0  0  0  0
    6.6269   -2.4314    0.4425 C   0  0  0  0  0  0  0  0  0  0  0  0
    7.2414   -3.3077    0.7123 H   0  0  0  0  0  0  0  0  0  0  0  0
  1 33  1  0  0  0  0
  1 32  1  0  0  0  0
  2  7  2  0  0  0  0
  3 37  1  0  0  0  0
  5 44  1  0  0  0  0
  6  2  1  0  0  0  0
  6  8  1  0  0  0  0
  7  4  1  0  0  0  0
  7  9  1  0  0  0  0
  8 22  1  0  0  0  0
  8  4  2  0  0  0  0
  9 10  1  0  0  0  0
 10 13  1  0  0  0  0
 10 12  1  0  0  0  0
 10 11  1  0  0  0  0
 14  9  1  0  0  0  0
 14 16  1  0  0  0  0
 14 17  1  0  0  0  0
 15 14  1  0  0  0  0
 18 19  1  0  0  0  0
 18 20  1  0  0  0  0
 18  9  1  0  0  0  0
 21 18  1  0  0  0  0
 22 30  1  0  0  0  0
 23 25  1  0  0  0  0
 23 22  2  0  0  0  0
 24 23  1  0  0  0  0
 25 27  2  0  0  0  0
 26 25  1  0  0  0  0
 27  1  1  0  0  0  0
 27 28  1  0  0  0  0
 28 29  1  0  0  0  0
 30 28  2  0  0  0  0
 30 31  1  0  0  0  0
 32  3  1  0  0  0  0
 33 35  2  0  0  0  0
 34 33  1  0  0  0  0
 35 36  1  0  0  0  0
 35  3  1  0  0  0  0
 37  5  2  0  0  0  0
 38 40  2  0  0  0  0
 38 37  1  0  0  0  0
 39 38  1  0  0  0  0
 40 42  1  0  0  0  0
 41 40  1  0  0  0  0
 42 43  1  0  0  0  0
 42 44  2  0  0  0  0
 44 45  1  0  0  0  0
M  END
