32
 OpenBabel05122313113D

 62 66  0  0  1  0  0  0  0  0999 V2000
    0.0756   -1.5915   -0.8283 N   0  0  0  0  0  0  0  0  0  0  0  0
   -7.0052    0.4972    1.6326 N   0  0  0  0  0  0  0  0  0  0  0  0
    2.1730   -1.4185   -1.3504 N   0  0  0  0  0  0  0  0  0  0  0  0
   -6.4148   -0.9553   -0.0066 N   0  0  0  0  0  0  0  0  0  0  0  0
    4.5013   -2.2221    0.3154 N   0  0  2  0  0  0  0  0  0  0  0  0
   -5.6126    0.4303    1.5319 O   0  0  0  0  0  0  0  0  0  0  0  0
   -7.4287   -0.3416    0.6989 C   0  0  0  0  0  0  0  0  0  0  0  0
   -5.3318   -0.4494    0.5396 C   0  0  0  0  0  0  0  0  0  0  0  0
   -8.8917   -0.6065    0.4239 C   0  0  0  0  0  0  0  0  0  0  0  0
   -9.1762   -0.2248   -1.0454 C   0  0  0  0  0  0  0  0  0  0  0  0
   -9.0096    0.8579   -1.2149 H   0  0  0  0  0  0  0  0  0  0  0  0
  -10.2305   -0.4561   -1.2994 H   0  0  0  0  0  0  0  0  0  0  0  0
   -8.5159   -0.7881   -1.7335 H   0  0  0  0  0  0  0  0  0  0  0  0
   -9.1496   -2.1155    0.6276 C   0  0  0  0  0  0  0  0  0  0  0  0
   -8.4887   -2.7194   -0.0246 H   0  0  0  0  0  0  0  0  0  0  0  0
  -10.2038   -2.3562    0.3816 H   0  0  0  0  0  0  0  0  0  0  0  0
   -8.9640   -2.4128    1.6793 H   0  0  0  0  0  0  0  0  0  0  0  0
   -9.7735    0.2206    1.3726 C   0  0  0  0  0  0  0  0  0  0  0  0
   -9.5717   -0.0313    2.4320 H   0  0  0  0  0  0  0  0  0  0  0  0
  -10.8428    0.0192    1.1619 H   0  0  0  0  0  0  0  0  0  0  0  0
   -9.5904    1.3058    1.2485 H   0  0  0  0  0  0  0  0  0  0  0  0
   -3.9373   -0.7240    0.2068 C   0  0  0  0  0  0  0  0  0  0  0  0
   -2.8780   -0.0889    0.8907 C   0  0  0  0  0  0  0  0  0  0  0  0
   -3.0996    0.6277    1.6938 H   0  0  0  0  0  0  0  0  0  0  0  0
   -1.5511   -0.3738    0.5578 C   0  0  0  0  0  0  0  0  0  0  0  0
   -0.7237    0.1105    1.0951 H   0  0  0  0  0  0  0  0  0  0  0  0
   -1.2733   -1.2873   -0.4754 C   0  0  0  0  0  0  0  0  0  0  0  0
   -2.3235   -1.9228   -1.1655 C   0  0  0  0  0  0  0  0  0  0  0  0
   -2.0986   -2.6144   -1.9901 H   0  0  0  0  0  0  0  0  0  0  0  0
   -3.6484   -1.6461   -0.8225 C   0  0  0  0  0  0  0  0  0  0  0  0
   -4.4830   -2.1250   -1.3537 H   0  0  0  0  0  0  0  0  0  0  0  0
    1.0927   -0.6728   -0.9692 C   0  0  0  0  0  2  0  0  0  0  0  0
    0.5316   -2.8807   -1.1121 C   0  0  0  0  0  0  0  0  0  0  0  0
   -0.1150   -3.7577   -1.0261 H   0  0  0  0  0  0  0  0  0  0  0  0
    1.8590   -2.7666   -1.4229 C   0  0  0  0  0  0  0  0  0  0  0  0
    2.6048   -3.5263   -1.6690 H   0  0  0  0  0  0  0  0  0  0  0  0
    3.5105   -0.8620   -1.5225 C   0  0  0  0  0  0  0  0  0  0  0  0
    3.3917    0.1795   -1.8801 H   0  0  0  0  0  0  0  0  0  0  0  0
    4.0315   -1.4410   -2.3113 H   0  0  0  0  0  0  0  0  0  0  0  0
    4.2963   -0.8594   -0.2094 C   0  0  2  0  0  0  0  0  0  0  0  0
    3.6428   -0.3442    0.5273 H   0  0  0  0  0  0  0  0  0  0  0  0
    5.6427   -0.0909   -0.3138 C   0  0  0  0  0  0  0  0  0  0  0  0
    5.9791   -0.0116   -1.3708 H   0  0  0  0  0  0  0  0  0  0  0  0
    5.5303    0.9461    0.0597 H   0  0  0  0  0  0  0  0  0  0  0  0
    6.6934   -0.8828    0.4887 C   0  0  1  0  0  0  0  0  0  0  0  0
    7.6323   -0.3007    0.5726 H   0  0  0  0  0  0  0  0  0  0  0  0
    6.1657   -1.2099    1.9173 C   0  0  2  0  0  0  0  0  0  0  0  0
    6.9552   -1.8002    2.4297 H   0  0  0  0  0  0  0  0  0  0  0  0
    4.8846   -2.1088    1.7265 C   0  0  0  0  0  0  0  0  0  0  0  0
    5.0630   -3.1287    2.1238 H   0  0  0  0  0  0  0  0  0  0  0  0
    4.0276   -1.6864    2.2907 H   0  0  0  0  0  0  0  0  0  0  0  0
    5.5681   -2.9226   -0.4163 C   0  0  0  0  0  0  0  0  0  0  0  0
    5.2843   -2.9819   -1.4877 H   0  0  0  0  0  0  0  0  0  0  0  0
    5.6007   -3.9683   -0.0473 H   0  0  0  0  0  0  0  0  0  0  0  0
    6.9452   -2.2139   -0.2424 C   0  0  0  0  0  0  0  0  0  0  0  0
    7.6490   -2.8408    0.3433 H   0  0  0  0  0  0  0  0  0  0  0  0
    7.4245   -2.0227   -1.2248 H   0  0  0  0  0  0  0  0  0  0  0  0
    5.8939    0.0146    2.7450 C   0  0  0  0  0  0  0  0  0  0  0  0
    5.0619    0.6615    2.4079 H   0  0  0  0  0  0  0  0  0  0  0  0
    6.5710    0.3648    3.8526 C   0  0  0  0  0  0  0  0  0  0  0  0
    7.4036   -0.2512    4.2334 H   0  0  0  0  0  0  0  0  0  0  0  0
    6.3206    1.2749    4.4191 H   0  0  0  0  0  0  0  0  0  0  0  0
  1 27  1  0  0  0  0
  3 32  1  0  0  0  0
  4  8  2  0  0  0  0
  4  7  1  0  0  0  0
  5 52  1  6  0  0  0
  5 49  1  0  0  0  0
  6  2  1  0  0  0  0
  7  2  2  0  0  0  0
  8  6  1  0  0  0  0
  9 14  1  0  0  0  0
  9  7  1  0  0  0  0
  9 18  1  0  0  0  0
 10  9  1  0  0  0  0
 11 10  1  0  0  0  0
 12 10  1  0  0  0  0
 13 10  1  0  0  0  0
 14 17  1  0  0  0  0
 15 14  1  0  0  0  0
 16 14  1  0  0  0  0
 18 19  1  0  0  0  0
 20 18  1  0  0  0  0
 21 18  1  0  0  0  0
 22  8  1  0  0  0  0
 22 23  1  0  0  0  0
 23 24  1  0  0  0  0
 25 23  2  0  0  0  0
 25 26  1  0  0  0  0
 27 25  1  0  0  0  0
 28 30  1  0  0  0  0
 28 27  2  0  0  0  0
 29 28  1  0  0  0  0
 30 22  2  0  0  0  0
 31 30  1  0  0  0  0
 32  1  1  0  0  0  0
 33 34  1  0  0  0  0
 33  1  1  0  0  0  0
 35  3  1  0  0  0  0
 35 33  2  0  0  0  0
 36 35  1  0  0  0  0
 37  3  1  0  0  0  0
 37 40  1  0  0  0  0
 38 37  1  0  0  0  0
 39 37  1  0  0  0  0
 40  5  1  0  0  0  0
 40 41  1  1  0  0  0
 42 40  1  0  0  0  0
 42 44  1  0  0  0  0
 42 45  1  0  0  0  0
 43 42  1  0  0  0  0
 45 46  1  1  0  0  0
 45 47  1  0  0  0  0
 47 48  1  1  0  0  0
 47 58  1  0  0  0  0
 49 47  1  0  0  0  0
 49 50  1  0  0  0  0
 49 51  1  0  0  0  0
 52 55  1  0  0  0  0
 52 54  1  0  0  0  0
 53 52  1  0  0  0  0
 55 56  1  0  0  0  0
 55 45  1  0  0  0  0
 57 55  1  0  0  0  0
 58 60  2  0  0  0  0
 59 58  1  0  0  0  0
 60 61  1  0  0  0  0
 60 62  1  0  0  0  0
M  END
