1
 OpenBabel05122313113D

 59 61  0  0  0  0  0  0  0  0999 V2000
    1.2951   -1.5485    0.3188 C   0  0  0  0  0  2  0  0  0  0  0  0
    1.9362   -3.8021    0.6638 C   0  0  0  0  0  0  0  0  0  0  0  0
    2.5527   -4.2672    1.4584 H   0  0  0  0  0  0  0  0  0  0  0  0
    2.0669   -4.4060   -0.2634 H   0  0  0  0  0  0  0  0  0  0  0  0
    2.3529   -2.4112    0.4264 N   0  0  0  0  0  0  0  0  0  0  0  0
    3.7108   -2.1438    0.0786 C   0  0  0  0  0  0  0  0  0  0  0  0
    4.6446   -1.8904    1.1102 C   0  0  0  0  0  0  0  0  0  0  0  0
    5.9737   -1.6161    0.7429 C   0  0  0  0  0  0  0  0  0  0  0  0
    6.7075   -1.3984    1.5357 H   0  0  0  0  0  0  0  0  0  0  0  0
    6.3863   -1.5973   -0.6036 C   0  0  0  0  0  0  0  0  0  0  0  0
    5.4273   -1.8572   -1.6008 C   0  0  0  0  0  0  0  0  0  0  0  0
    5.7286   -1.8307   -2.6604 H   0  0  0  0  0  0  0  0  0  0  0  0
    4.0837   -2.1314   -1.2862 C   0  0  0  0  0  0  0  0  0  0  0  0
    4.2017   -1.8588    2.5483 C   0  0  0  0  0  0  0  0  0  0  0  0
    5.0383   -1.5807    3.2166 H   0  0  0  0  0  0  0  0  0  0  0  0
    3.8197   -2.8473    2.8815 H   0  0  0  0  0  0  0  0  0  0  0  0
    3.3733   -1.1327    2.6919 H   0  0  0  0  0  0  0  0  0  0  0  0
    7.8259   -1.3266   -0.9633 C   0  0  0  0  0  0  0  0  0  0  0  0
    7.9266   -0.9616   -2.0041 H   0  0  0  0  0  0  0  0  0  0  0  0
    8.4369   -2.2511   -0.8787 H   0  0  0  0  0  0  0  0  0  0  0  0
    8.2810   -0.5766   -0.2862 H   0  0  0  0  0  0  0  0  0  0  0  0
    3.0504   -2.2976   -2.3692 C   0  0  0  0  0  0  0  0  0  0  0  0
    2.3801   -3.1604   -2.1820 H   0  0  0  0  0  0  0  0  0  0  0  0
    3.5264   -2.4378   -3.3579 H   0  0  0  0  0  0  0  0  0  0  0  0
    2.3954   -1.4004   -2.4230 H   0  0  0  0  0  0  0  0  0  0  0  0
    0.4634   -3.6444    1.0617 C   0  0  0  0  0  0  0  0  0  0  0  0
   -0.2003   -4.3939    0.5861 H   0  0  0  0  0  0  0  0  0  0  0  0
    0.3188   -3.7060    2.1637 H   0  0  0  0  0  0  0  0  0  0  0  0
    0.1626   -2.2926    0.5789 N   0  0  0  0  0  0  0  0  0  0  0  0
   -1.1734   -1.8276    0.3738 C   0  0  0  0  0  0  0  0  0  0  0  0
   -1.7207   -1.9432   -0.9279 C   0  0  0  0  0  0  0  0  0  0  0  0
   -2.9815   -1.3790   -1.1675 C   0  0  0  0  0  0  0  0  0  0  0  0
   -3.4157   -1.4301   -2.1758 H   0  0  0  0  0  0  0  0  0  0  0  0
   -3.6941   -0.7268   -0.1480 C   0  0  0  0  0  0  0  0  0  0  0  0
   -3.1895   -0.7434    1.1617 C   0  0  0  0  0  0  0  0  0  0  0  0
   -3.7680   -0.3136    1.9901 H   0  0  0  0  0  0  0  0  0  0  0  0
   -1.9334   -1.3091    1.4509 C   0  0  0  0  0  0  0  0  0  0  0  0
   -1.4503   -1.4036    2.8726 C   0  0  0  0  0  0  0  0  0  0  0  0
   -2.0191   -0.7205    3.5315 H   0  0  0  0  0  0  0  0  0  0  0  0
   -0.3764   -1.1466    2.9593 H   0  0  0  0  0  0  0  0  0  0  0  0
   -1.5961   -2.4346    3.2617 H   0  0  0  0  0  0  0  0  0  0  0  0
   -0.9635   -2.6248   -2.0344 C   0  0  0  0  0  0  0  0  0  0  0  0
   -0.1708   -1.9476   -2.4137 H   0  0  0  0  0  0  0  0  0  0  0  0
   -1.6367   -2.8710   -2.8772 H   0  0  0  0  0  0  0  0  0  0  0  0
   -0.4763   -3.5589   -1.6903 H   0  0  0  0  0  0  0  0  0  0  0  0
   -5.0332   -0.0862   -0.5282 C   0  0  0  0  0  0  0  0  0  0  0  0
   -5.0801    0.3280   -1.8733 O   0  0  0  0  0  0  0  0  0  0  0  0
   -4.1606    1.3359   -2.2961 C   0  0  0  0  0  0  0  0  0  0  0  0
   -4.4268    2.3350   -1.8907 H   0  0  0  0  0  0  0  0  0  0  0  0
   -4.2414    1.3665   -3.3987 H   0  0  0  0  0  0  0  0  0  0  0  0
   -3.1114    1.0942   -2.0198 H   0  0  0  0  0  0  0  0  0  0  0  0
   -5.4097    1.1208    0.4012 C   0  0  0  0  0  0  0  0  0  0  0  0
   -6.3956    1.8507   -0.1456 F   0  0  0  0  0  0  0  0  0  0  0  0
   -4.3466    1.9444    0.5747 F   0  0  0  0  0  0  0  0  0  0  0  0
   -5.8179    0.7275    1.6300 F   0  0  0  0  0  0  0  0  0  0  0  0
   -6.1562   -1.1740   -0.4492 C   0  0  0  0  0  0  0  0  0  0  0  0
   -6.1578   -1.7776    0.7567 F   0  0  0  0  0  0  0  0  0  0  0  0
   -5.9474   -2.1183   -1.3845 F   0  0  0  0  0  0  0  0  0  0  0  0
   -7.3781   -0.6472   -0.6550 F   0  0  0  0  0  0  0  0  0  0  0  0
  1  5  1  0  0  0  0
  1 29  1  0  0  0  0
  2 26  1  0  0  0  0
  2  3  1  0  0  0  0
  4  2  1  0  0  0  0
  5  2  1  0  0  0  0
  6  5  1  0  0  0  0
  6  7  1  0  0  0  0
  7 14  1  0  0  0  0
  8  7  2  0  0  0  0
  8  9  1  0  0  0  0
 10  8  1  0  0  0  0
 11 13  1  0  0  0  0
 11 10  2  0  0  0  0
 12 11  1  0  0  0  0
 13  6  2  0  0  0  0
 14 17  1  0  0  0  0
 14 16  1  0  0  0  0
 14 15  1  0  0  0  0
 18 20  1  0  0  0  0
 18 10  1  0  0  0  0
 18 21  1  0  0  0  0
 19 18  1  0  0  0  0
 22 23  1  0  0  0  0
 22 13  1  0  0  0  0
 24 22  1  0  0  0  0
 25 22  1  0  0  0  0
 26 28  1  0  0  0  0
 27 26  1  0  0  0  0
 29 26  1  0  0  0  0
 30 29  1  0  0  0  0
 30 37  1  0  0  0  0
 31 30  2  0  0  0  0
 32 31  1  0  0  0  0
 32 34  2  0  0  0  0
 33 32  1  0  0  0  0
 34 35  1  0  0  0  0
 35 37  2  0  0  0  0
 35 36  1  0  0  0  0
 37 38  1  0  0  0  0
 38 40  1  0  0  0  0
 38 41  1  0  0  0  0
 38 39  1  0  0  0  0
 42 45  1  0  0  0  0
 42 31  1  0  0  0  0
 43 42  1  0  0  0  0
 44 42  1  0  0  0  0
 46 56  1  0  0  0  0
 46 34  1  0  0  0  0
 46 52  1  0  0  0  0
 47 46  1  0  0  0  0
 48 51  1  0  0  0  0
 48 49  1  0  0  0  0
 48 47  1  0  0  0  0
 50 48  1  0  0  0  0
 52 54  1  0  0  0  0
 52 55  1  0  0  0  0
 53 52  1  0  0  0  0
 56 57  1  0  0  0  0
 58 56  1  0  0  0  0
 59 56  1  0  0  0  0
M  END
