31
 OpenBabel05122313113D

 39 41  0  0  0  0  0  0  0  0999 V2000
    1.7668    1.9206   -0.1646 N   0  0  0  0  0  0  0  0  0  0  0  0
   -5.2947   -1.2472   -0.9683 N   0  0  0  0  0  0  0  0  0  0  0  0
    3.9286    2.0431   -0.0175 N   0  0  0  0  0  0  0  0  0  0  0  0
   -4.6417    0.5296    0.2812 N   0  0  0  0  0  0  0  0  0  0  0  0
   -3.9225   -1.0318   -1.1241 O   0  0  0  0  0  0  0  0  0  0  0  0
   -5.6691   -0.2958   -0.1260 C   0  0  0  0  0  0  0  0  0  0  0  0
   -3.6026    0.0371   -0.3545 C   0  0  0  0  0  0  0  0  0  0  0  0
   -7.0933   -0.1242    0.3517 C   0  0  0  0  0  0  0  0  0  0  0  0
   -7.0976   -0.2525    1.8908 C   0  0  0  0  0  0  0  0  0  0  0  0
   -6.7732   -1.2643    2.2069 H   0  0  0  0  0  0  0  0  0  0  0  0
   -8.1205   -0.0796    2.2823 H   0  0  0  0  0  0  0  0  0  0  0  0
   -6.4144    0.4886    2.3499 H   0  0  0  0  0  0  0  0  0  0  0  0
   -7.5643    1.2899   -0.0528 C   0  0  0  0  0  0  0  0  0  0  0  0
   -8.5894    1.4715    0.3292 H   0  0  0  0  0  0  0  0  0  0  0  0
   -7.5819    1.4036   -1.1555 H   0  0  0  0  0  0  0  0  0  0  0  0
   -6.8905    2.0638    0.3643 H   0  0  0  0  0  0  0  0  0  0  0  0
   -8.0017   -1.1921   -0.2775 C   0  0  0  0  0  0  0  0  0  0  0  0
   -7.6687   -2.2133   -0.0079 H   0  0  0  0  0  0  0  0  0  0  0  0
   -7.9990   -1.1227   -1.3828 H   0  0  0  0  0  0  0  0  0  0  0  0
   -9.0422   -1.0570    0.0797 H   0  0  0  0  0  0  0  0  0  0  0  0
   -2.2181    0.4991   -0.3204 C   0  0  0  0  0  0  0  0  0  0  0  0
   -1.8893    1.6158    0.4782 C   0  0  0  0  0  0  0  0  0  0  0  0
   -2.6837    2.1008    1.0629 H   0  0  0  0  0  0  0  0  0  0  0  0
   -0.5720    2.0757    0.5331 C   0  0  0  0  0  0  0  0  0  0  0  0
   -0.3088    2.9234    1.1821 H   0  0  0  0  0  0  0  0  0  0  0  0
    0.4272    1.4291   -0.2188 C   0  0  0  0  0  0  0  0  0  0  0  0
    0.1084    0.3204   -1.0239 C   0  0  0  0  0  0  0  0  0  0  0  0
    0.8955   -0.1716   -1.6117 H   0  0  0  0  0  0  0  0  0  0  0  0
   -1.2082   -0.1457   -1.0672 C   0  0  0  0  0  0  0  0  0  0  0  0
   -1.4620   -1.0141   -1.6908 H   0  0  0  0  0  0  0  0  0  0  0  0
    2.8995    1.1405   -0.0464 C   0  0  0  0  0  2  0  0  0  0  0  0
    2.0972    3.2744   -0.1958 C   0  0  0  0  0  0  0  0  0  0  0  0
    1.3420    4.0556   -0.3167 H   0  0  0  0  0  0  0  0  0  0  0  0
    3.4602    3.3469   -0.1068 C   0  0  0  0  0  0  0  0  0  0  0  0
    4.1306    4.2115   -0.1116 H   0  0  0  0  0  0  0  0  0  0  0  0
    5.3335    1.6829    0.1080 C   0  0  0  0  0  0  0  0  0  0  0  0
    5.3978    0.5809    0.1737 H   0  0  0  0  0  0  0  0  0  0  0  0
    5.7647    2.1316    1.0243 H   0  0  0  0  0  0  0  0  0  0  0  0
    5.9004    2.0328   -0.7770 H   0  0  0  0  0  0  0  0  0  0  0  0
  1 31  1  0  0  0  0
  2  6  2  0  0  0  0
  3 36  1  0  0  0  0
  5  2  1  0  0  0  0
  5  7  1  0  0  0  0
  6  4  1  0  0  0  0
  6  8  1  0  0  0  0
  7 21  1  0  0  0  0
  7  4  2  0  0  0  0
  8  9  1  0  0  0  0
  9 10  1  0  0  0  0
  9 11  1  0  0  0  0
  9 12  1  0  0  0  0
 13 14  1  0  0  0  0
 13  8  1  0  0  0  0
 13 16  1  0  0  0  0
 15 13  1  0  0  0  0
 17 18  1  0  0  0  0
 17 20  1  0  0  0  0
 17  8  1  0  0  0  0
 19 17  1  0  0  0  0
 21 22  1  0  0  0  0
 22 24  2  0  0  0  0
 22 23  1  0  0  0  0
 24 25  1  0  0  0  0
 26  1  1  0  0  0  0
 26 24  1  0  0  0  0
 27 26  2  0  0  0  0
 28 27  1  0  0  0  0
 29 27  1  0  0  0  0
 29 21  2  0  0  0  0
 30 29  1  0  0  0  0
 31  3  1  0  0  0  0
 32  1  1  0  0  0  0
 32 34  2  0  0  0  0
 33 32  1  0  0  0  0
 34  3  1  0  0  0  0
 35 34  1  0  0  0  0
 36 37  1  0  0  0  0
 36 38  1  0  0  0  0
 39 36  1  0  0  0  0
M  END
