1
 OpenBabel05122313113D

 38 39  0  0  0  0  0  0  0  0999 V2000
    0.7228    1.6059   -0.7365 C   0  0  0  0  0  2  0  0  0  0  0  0
    0.8085    3.6592   -1.7126 C   0  0  0  0  0  0  0  0  0  0  0  0
    0.4045    4.5609   -2.1811 H   0  0  0  0  0  0  0  0  0  0  0  0
    2.0913    3.3123   -1.3810 C   0  0  0  0  0  0  0  0  0  0  0  0
    3.0434    3.8326   -1.5155 H   0  0  0  0  0  0  0  0  0  0  0  0
   -1.4547    2.5501   -1.4815 C   0  0  0  0  0  0  0  0  0  0  0  0
   -1.7131    1.6082   -2.0073 H   0  0  0  0  0  0  0  0  0  0  0  0
   -1.7544    3.4119   -2.1091 H   0  0  0  0  0  0  0  0  0  0  0  0
   -2.1504    2.6002   -0.1332 C   0  0  0  0  0  0  0  0  0  0  0  0
   -3.2532    2.4793   -0.2772 H   0  0  0  0  0  0  0  0  0  0  0  0
   -1.7989    1.7241    0.4655 H   0  0  0  0  0  0  0  0  0  0  0  0
   -2.0742    3.7849    1.8901 C   0  0  0  0  0  0  0  0  0  0  0  0
   -3.1553    3.6133    2.1211 H   0  0  0  0  0  0  0  0  0  0  0  0
   -1.7825    4.7702    2.3037 H   0  0  0  0  0  0  0  0  0  0  0  0
   -1.4775    2.9866    2.3895 H   0  0  0  0  0  0  0  0  0  0  0  0
    3.1649    1.3026   -0.3514 C   0  0  0  0  0  0  0  0  0  0  0  0
    3.7121    0.3432   -1.2346 C   0  0  0  0  0  0  0  0  0  0  0  0
    4.8267   -0.3900   -0.7907 C   0  0  0  0  0  0  0  0  0  0  0  0
    5.2615   -1.1462   -1.4643 H   0  0  0  0  0  0  0  0  0  0  0  0
    3.1336    0.1329   -2.6076 C   0  0  0  0  0  0  0  0  0  0  0  0
    2.0670   -0.1772   -2.5639 H   0  0  0  0  0  0  0  0  0  0  0  0
    3.7012   -0.6390   -3.1611 H   0  0  0  0  0  0  0  0  0  0  0  0
    3.1612    1.0718   -3.1998 H   0  0  0  0  0  0  0  0  0  0  0  0
   -0.0007    2.6010   -1.3278 N   0  0  0  0  0  0  0  0  0  0  0  0
    2.0170    2.0536   -0.7844 N   0  0  0  0  0  0  0  0  0  0  0  0
   -1.8271    3.8164    0.5003 O   0  0  0  0  0  0  0  0  0  0  0  0
    3.7390    1.5851    0.9075 C   0  0  0  0  0  0  0  0  0  0  0  0
    4.8505    0.8170    1.3021 C   0  0  0  0  0  0  0  0  0  0  0  0
    5.3023    1.0137    2.2876 H   0  0  0  0  0  0  0  0  0  0  0  0
    3.1865    2.6724    1.7883 C   0  0  0  0  0  0  0  0  0  0  0  0
    3.2409    3.6645    1.2937 H   0  0  0  0  0  0  0  0  0  0  0  0
    3.7457    2.7324    2.7409 H   0  0  0  0  0  0  0  0  0  0  0  0
    2.1182    2.4726    2.0146 H   0  0  0  0  0  0  0  0  0  0  0  0
    5.3988   -0.1826    0.4787 C   0  0  0  0  0  0  0  0  0  0  0  0
    6.5596   -1.0258    0.9439 C   0  0  0  0  0  0  0  0  0  0  0  0
    6.2110   -2.0241    1.2867 H   0  0  0  0  0  0  0  0  0  0  0  0
    7.0957   -0.5553    1.7909 H   0  0  0  0  0  0  0  0  0  0  0  0
    7.2883   -1.2038    0.1276 H   0  0  0  0  0  0  0  0  0  0  0  0
  2  4  2  0  0  0  0
  2 24  1  0  0  0  0
  3  2  1  0  0  0  0
  4 25  1  0  0  0  0
  5  4  1  0  0  0  0
  6 24  1  0  0  0  0
  6  9  1  0  0  0  0
  7  6  1  0  0  0  0
  8  6  1  0  0  0  0
  9 11  1  0  0  0  0
  9 26  1  0  0  0  0
 10  9  1  0  0  0  0
 12 13  1  0  0  0  0
 12 14  1  0  0  0  0
 12 15  1  0  0  0  0
 16 27  1  0  0  0  0
 17 18  1  0  0  0  0
 17 16  2  0  0  0  0
 18 34  2  0  0  0  0
 19 18  1  0  0  0  0
 20 21  1  0  0  0  0
 20 17  1  0  0  0  0
 22 20  1  0  0  0  0
 23 20  1  0  0  0  0
 24  1  1  0  0  0  0
 25  1  1  0  0  0  0
 25 16  1  0  0  0  0
 26 12  1  0  0  0  0
 27 28  2  0  0  0  0
 27 30  1  0  0  0  0
 28 29  1  0  0  0  0
 30 33  1  0  0  0  0
 30 32  1  0  0  0  0
 31 30  1  0  0  0  0
 34 35  1  0  0  0  0
 34 28  1  0  0  0  0
 35 36  1  0  0  0  0
 35 37  1  0  0  0  0
 38 35  1  0  0  0  0
M  END
