11
 OpenBabel05122313113D

 25 25  0  0  0  0  0  0  0  0999 V2000
    1.2249    1.1722    0.0358 P   0  0  0  0  0  0  0  0  0  0  0  0
    2.6501    0.0192    0.1468 C   0  0  0  0  0  0  0  0  0  0  0  0
    2.2107   -1.3043    0.3974 C   0  0  0  0  0  0  0  0  0  0  0  0
    3.1737   -2.3309    0.4823 C   0  0  0  0  0  0  0  0  0  0  0  0
    2.8395   -3.3649    0.6617 H   0  0  0  0  0  0  0  0  0  0  0  0
    4.5346   -2.0421    0.3433 C   0  0  0  0  0  0  0  0  0  0  0  0
    5.2802   -2.8496    0.4101 H   0  0  0  0  0  0  0  0  0  0  0  0
    4.9560   -0.7227    0.1178 C   0  0  0  0  0  0  0  0  0  0  0  0
    6.0295   -0.5013    0.0085 H   0  0  0  0  0  0  0  0  0  0  0  0
    4.0290    0.3312    0.0119 C   0  0  0  0  0  0  0  0  0  0  0  0
    0.7445   -1.5945    0.6112 C   0  0  0  0  0  3  0  0  0  0  0  0
    0.5810   -1.7477    1.7026 H   0  0  0  0  0  0  0  0  0  0  0  0
    0.4874   -2.5530    0.1121 H   0  0  0  0  0  0  0  0  0  0  0  0
    4.5409    1.7218   -0.2796 C   0  0  0  0  0  0  0  0  0  0  0  0
    5.6287    1.7880   -0.0849 H   0  0  0  0  0  0  0  0  0  0  0  0
    4.0437    2.4990    0.3334 H   0  0  0  0  0  0  0  0  0  0  0  0
    4.3818    1.9956   -1.3439 H   0  0  0  0  0  0  0  0  0  0  0  0
    1.3751    2.3072    1.4844 C   0  0  0  0  0  0  0  0  0  0  0  0
    2.3314    2.8660    1.4799 H   0  0  0  0  0  0  0  0  0  0  0  0
    1.3070    1.7035    2.4088 H   0  0  0  0  0  0  0  0  0  0  0  0
    0.5373    3.0316    1.4658 H   0  0  0  0  0  0  0  0  0  0  0  0
    1.4178    2.2790   -1.4194 C   0  0  0  0  0  0  0  0  0  0  0  0
    2.3348    2.8956   -1.3919 H   0  0  0  0  0  0  0  0  0  0  0  0
    0.5274    2.9382   -1.4468 H   0  0  0  0  0  0  0  0  0  0  0  0
    1.3949    1.6268   -2.3143 H   0  0  0  0  0  0  0  0  0  0  0  0
  1  2  1  0  0  0  0
  1 18  1  0  0  0  0
  2  3  1  0  0  0  0
  3  4  2  0  0  0  0
  3 11  1  0  0  0  0
  4  5  1  0  0  0  0
  6  7  1  0  0  0  0
  6  4  1  0  0  0  0
  8  6  2  0  0  0  0
  9  8  1  0  0  0  0
 10  8  1  0  0  0  0
 10  2  2  0  0  0  0
 11 12  1  0  0  0  0
 13 11  1  0  0  0  0
 14 15  1  0  0  0  0
 14 10  1  0  0  0  0
 14 16  1  0  0  0  0
 17 14  1  0  0  0  0
 18 20  1  0  0  0  0
 19 18  1  0  0  0  0
 21 18  1  0  0  0  0
 22 23  1  0  0  0  0
 22  1  1  0  0  0  0
 24 22  1  0  0  0  0
 25 22  1  0  0  0  0
M  END
