6
 OpenBabel05122313113D

 19 20  0  0  0  0  0  0  0  0999 V2000
    0.9271    3.3194   -0.5316 C   0  0  0  0  0  0  0  0  0  0  0  0
    1.7930    2.8991   -1.0793 H   0  0  0  0  0  0  0  0  0  0  0  0
    1.2553    3.5583    0.4969 H   0  0  0  0  0  0  0  0  0  0  0  0
    0.6350    4.2665   -1.0333 H   0  0  0  0  0  0  0  0  0  0  0  0
   -0.2341    2.3716   -0.5245 C   0  0  0  0  0  0  0  0  0  0  0  0
   -0.5545    1.4331   -1.5551 C   0  0  0  0  0  3  0  0  0  0  0  0
    0.0010    1.3099   -2.4914 H   0  0  0  0  0  0  0  0  0  0  0  0
   -1.8135    0.8106   -1.2286 C   0  0  0  0  0  0  0  0  0  0  0  0
   -2.6287   -0.1499   -1.8990 C   0  0  0  0  0  0  0  0  0  0  0  0
   -2.3207   -0.5561   -2.8743 H   0  0  0  0  0  0  0  0  0  0  0  0
   -3.8358   -0.5218   -1.3239 C   0  0  0  0  0  0  0  0  0  0  0  0
   -4.4831   -1.2468   -1.8400 H   0  0  0  0  0  0  0  0  0  0  0  0
   -4.2654    0.0299   -0.0790 C   0  0  0  0  0  0  0  0  0  0  0  0
   -5.2312   -0.2888    0.3407 H   0  0  0  0  0  0  0  0  0  0  0  0
   -3.4880    0.9467    0.6096 C   0  0  0  0  0  0  0  0  0  0  0  0
   -3.8135    1.3554    1.5766 H   0  0  0  0  0  0  0  0  0  0  0  0
   -2.2437    1.3529    0.0487 C   0  0  0  0  0  0  0  0  0  0  0  0
   -1.2248    2.2594    0.4964 C   0  0  0  0  0  0  0  0  0  0  0  0
   -1.2290    2.8174    1.4402 H   0  0  0  0  0  0  0  0  0  0  0  0
  1  5  1  0  0  0  0
  1  3  1  0  0  0  0
  2  1  1  0  0  0  0
  4  1  1  0  0  0  0
  5 18  2  0  0  0  0
  6  8  1  0  0  0  0
  6  5  1  0  0  0  0
  7  6  1  0  0  0  0
  8 17  1  0  0  0  0
  9 11  1  0  0  0  0
  9  8  2  0  0  0  0
 10  9  1  0  0  0  0
 11 13  2  0  0  0  0
 12 11  1  0  0  0  0
 13 14  1  0  0  0  0
 13 15  1  0  0  0  0
 15 16  1  0  0  0  0
 17 18  1  0  0  0  0
 17 15  2  0  0  0  0
 18 19  1  0  0  0  0
M  END
