5
 OpenBabel05122313113D

  7  6  0  0  0  0  0  0  0  0999 V2000
   -1.1643    4.5934    0.8141 F   0  0  0  0  0  0  0  0  0  0  0  0
    1.1593    4.5950    0.8154 F   0  0  0  0  0  0  0  0  0  0  0  0
   -0.0012    4.2597   -1.1550 F   0  0  0  0  0  0  0  0  0  0  0  0
   -0.0010    2.5621    0.5603 O   0  0  0  0  0  0  0  0  0  0  0  0
   -0.0001    1.6539   -0.3321 C   0  0  0  0  0  2  0  0  0  0  0  0
    0.0004    2.0724   -1.3716 H   0  0  0  0  0  0  0  0  0  0  0  0
   -0.0018    4.1230    0.2245 B   0  0  0  0  0  0  0  0  0  0  0  0
  3  7  1  0  0  0  0
  5  4  1  0  0  0  0
  6  5  1  0  0  0  0
  7  4  1  0  0  0  0
  7  1  1  0  0  0  0
  7  2  1  0  0  0  0
M  END
