1
 OpenBabel05122313113D

 25 26  0  0  0  0  0  0  0  0999 V2000
   -0.3194   -0.4271   -0.0954 C   0  0  0  0  0  1  0  0  0  0  0  0
   -1.5550   -0.6373   -0.1104 N   0  0  0  0  0  0  0  0  0  0  0  0
   -2.7623   -0.1055   -0.0777 C   0  0  0  0  0  0  0  0  0  0  0  0
   -3.9161   -1.0156   -0.0533 C   0  0  0  0  0  0  0  0  0  0  0  0
   -3.7391   -2.3613    0.3581 C   0  0  0  0  0  0  0  0  0  0  0  0
   -4.8168   -3.2498    0.3680 C   0  0  0  0  0  0  0  0  0  0  0  0
   -6.0915   -2.8197   -0.0438 C   0  0  0  0  0  0  0  0  0  0  0  0
   -6.2773   -1.4949   -0.4718 C   0  0  0  0  0  0  0  0  0  0  0  0
   -5.2028   -0.5977   -0.4773 C   0  0  0  0  0  0  0  0  0  0  0  0
   -2.9062    1.3656   -0.0468 C   0  0  0  0  0  0  0  0  0  0  0  0
   -3.9116    1.9912    0.7309 C   0  0  0  0  0  0  0  0  0  0  0  0
   -3.9834    3.3881    0.8021 C   0  0  0  0  0  0  0  0  0  0  0  0
   -3.0654    4.1825    0.0952 C   0  0  0  0  0  0  0  0  0  0  0  0
   -2.0650    3.5724   -0.6808 C   0  0  0  0  0  0  0  0  0  0  0  0
   -1.9820    2.1783   -0.7457 C   0  0  0  0  0  0  0  0  0  0  0  0
   -2.7384   -2.6872    0.6780 H   0  0  0  0  0  0  0  0  0  0  0  0
   -4.6662   -4.2876    0.7010 H   0  0  0  0  0  0  0  0  0  0  0  0
   -6.9392   -3.5213   -0.0371 H   0  0  0  0  0  0  0  0  0  0  0  0
   -7.2678   -1.1601   -0.8147 H   0  0  0  0  0  0  0  0  0  0  0  0
   -5.3489    0.4280   -0.8441 H   0  0  0  0  0  0  0  0  0  0  0  0
   -4.7571    3.8615    1.4251 H   0  0  0  0  0  0  0  0  0  0  0  0
   -3.1259    5.2796    0.1541 H   0  0  0  0  0  0  0  0  0  0  0  0
   -1.3391    4.1840   -1.2371 H   0  0  0  0  0  0  0  0  0  0  0  0
   -1.2053    1.7042   -1.3604 H   0  0  0  0  0  0  0  0  0  0  0  0
   -4.6131    1.3751    1.3116 H   0  0  0  0  0  0  0  0  0  0  0  0
  2  1  1  0  0  0  0
  2  3  2  0  0  0  0
  3  4  1  0  0  0  0
  3 10  1  0  0  0  0
  4  5  1  0  0  0  0
  5  6  2  0  0  0  0
  5 16  1  0  0  0  0
  6 17  1  0  0  0  0
  7 18  1  0  0  0  0
  7  6  1  0  0  0  0
  8  7  2  0  0  0  0
  9  8  1  0  0  0  0
  9  4  2  0  0  0  0
 10 11  1  0  0  0  0
 11 12  2  0  0  0  0
 11 25  1  0  0  0  0
 12 21  1  0  0  0  0
 13 22  1  0  0  0  0
 13 12  1  0  0  0  0
 14 13  2  0  0  0  0
 15 14  1  0  0  0  0
 15 10  2  0  0  0  0
 19  8  1  0  0  0  0
 20  9  1  0  0  0  0
 23 14  1  0  0  0  0
 24 15  1  0  0  0  0
M  END
