4
 OpenBabel05122313113D

 22 21  0  0  0  0  0  0  0  0999 V2000
    2.6628   -1.6186    0.3372 C   0  0  0  0  0  0  0  0  0  0  0  0
    2.8915    0.0776   -1.5222 C   0  0  0  0  0  0  0  0  0  0  0  0
    1.9444   -0.7655   -0.6916 C   0  0  0  0  0  3  0  0  0  0  0  0
    0.7300   -1.2025   -1.3287 C   0  0  0  0  0  3  0  0  0  0  0  0
   -0.3028   -1.8733   -0.5889 C   0  0  0  0  0  3  0  0  0  0  0  0
   -1.6331   -1.3181   -0.5656 C   0  0  0  0  0  3  0  0  0  0  0  0
   -2.6145   -1.8996    0.4324 C   0  0  0  0  0  0  0  0  0  0  0  0
   -2.2901   -0.8570   -1.8576 C   0  0  0  0  0  0  0  0  0  0  0  0
    1.9856   -2.2849    0.9018 H   0  0  0  0  0  0  0  0  0  0  0  0
    3.4277   -2.2531   -0.1678 H   0  0  0  0  0  0  0  0  0  0  0  0
    3.1983   -0.9892    1.0759 H   0  0  0  0  0  0  0  0  0  0  0  0
    3.4932    0.7554   -0.8826 H   0  0  0  0  0  0  0  0  0  0  0  0
    3.6152   -0.5705   -2.0672 H   0  0  0  0  0  0  0  0  0  0  0  0
    2.3595    0.6923   -2.2753 H   0  0  0  0  0  0  0  0  0  0  0  0
    0.4745   -0.7394   -2.2990 H   0  0  0  0  0  0  0  0  0  0  0  0
   -0.0246   -2.6088    0.1830 H   0  0  0  0  0  0  0  0  0  0  0  0
   -3.3635   -1.1404    0.7375 H   0  0  0  0  0  0  0  0  0  0  0  0
   -2.1030   -2.2536    1.3484 H   0  0  0  0  0  0  0  0  0  0  0  0
   -3.1794   -2.7542   -0.0063 H   0  0  0  0  0  0  0  0  0  0  0  0
   -1.5975   -0.3394   -2.5489 H   0  0  0  0  0  0  0  0  0  0  0  0
   -2.7036   -1.7382   -2.3991 H   0  0  0  0  0  0  0  0  0  0  0  0
   -3.1419   -0.1763   -1.6599 H   0  0  0  0  0  0  0  0  0  0  0  0
  1  9  1  0  0  0  0
  1 11  1  0  0  0  0
  2 12  1  0  0  0  0
  2  3  1  0  0  0  0
  3  1  1  0  0  0  0
  4  3  1  0  0  0  0
  4  5  1  0  0  0  0
  5  6  1  0  0  0  0
  5 16  1  0  0  0  0
  6  7  1  0  0  0  0
  7 17  1  0  0  0  0
  7 18  1  0  0  0  0
  8 22  1  0  0  0  0
  8  6  1  0  0  0  0
 10  1  1  0  0  0  0
 13  2  1  0  0  0  0
 14  2  1  0  0  0  0
 15  4  1  0  0  0  0
 19  7  1  0  0  0  0
 20  8  1  0  0  0  0
 21  8  1  0  0  0  0
M  END
