1
 OpenBabel05122313113D

 24 26  0  0  0  0  0  0  0  0999 V2000
   -0.9091   -0.0001   -0.0000 C   0  0  0  0  0  1  0  0  0  0  0  0
    0.3020   -0.0001   -0.0000 N   0  0  0  0  0  2  0  0  0  0  0  0
    1.6359   -0.0000   -0.0000 C   0  0  0  0  0  0  0  0  0  0  0  0
    2.3615   -1.2402   -0.0001 C   0  0  0  0  0  0  0  0  0  0  0  0
    3.7888   -1.1827   -0.0000 C   0  0  0  0  0  0  0  0  0  0  0  0
    4.5668   -2.3530    0.0000 C   0  0  0  0  0  0  0  0  0  0  0  0
    3.9204   -3.5877   -0.0000 C   0  0  0  0  0  0  0  0  0  0  0  0
    2.5038   -3.6724   -0.0001 C   0  0  0  0  0  0  0  0  0  0  0  0
    1.7343   -2.5178   -0.0001 C   0  0  0  0  0  3  0  0  0  0  0  0
    4.4513    0.0001   -0.0000 O   0  0  0  0  0  0  0  0  0  0  0  0
    2.3614    1.2402    0.0001 C   0  0  0  0  0  0  0  0  0  0  0  0
    3.7887    1.1828    0.0000 C   0  0  0  0  0  0  0  0  0  0  0  0
    4.5666    2.3532    0.0000 C   0  0  0  0  0  0  0  0  0  0  0  0
    3.9201    3.5878    0.0001 C   0  0  0  0  0  0  0  0  0  0  0  0
    2.5035    3.6724    0.0002 C   0  0  0  0  0  0  0  0  0  0  0  0
    1.7341    2.5178    0.0002 C   0  0  0  0  0  0  0  0  0  0  0  0
    5.6620   -2.2654    0.0000 H   0  0  0  0  0  0  0  0  0  0  0  0
    4.5204   -4.5097    0.0000 H   0  0  0  0  0  0  0  0  0  0  0  0
    2.0165   -4.6577   -0.0002 H   0  0  0  0  0  0  0  0  0  0  0  0
    0.6363   -2.5737   -0.0002 H   0  0  0  0  0  0  0  0  0  0  0  0
    5.6618    2.2657   -0.0000 H   0  0  0  0  0  0  0  0  0  0  0  0
    4.5201    4.5099    0.0001 H   0  0  0  0  0  0  0  0  0  0  0  0
    2.0161    4.6577    0.0003 H   0  0  0  0  0  0  0  0  0  0  0  0
    0.6361    2.5735    0.0002 H   0  0  0  0  0  0  0  0  0  0  0  0
  2  1  1  0  0  0  0
  2  3  1  0  0  0  0
  3 11  1  0  0  0  0
  4  5  1  0  0  0  0
  4  3  2  0  0  0  0
  5  6  2  0  0  0  0
  6 17  1  0  0  0  0
  7  6  1  0  0  0  0
  7 18  1  0  0  0  0
  8  7  2  0  0  0  0
  9  8  1  0  0  0  0
  9  4  1  0  0  0  0
 10  5  1  0  0  0  0
 10 12  1  0  0  0  0
 11 16  1  0  0  0  0
 12 13  1  0  0  0  0
 12 11  2  0  0  0  0
 13 14  2  0  0  0  0
 14 22  1  0  0  0  0
 14 15  1  0  0  0  0
 15 23  1  0  0  0  0
 16 24  1  0  0  0  0
 16 15  2  0  0  0  0
 19  8  1  0  0  0  0
 20  9  1  0  0  0  0
 21 13  1  0  0  0  0
M  END
