4
 OpenBabel05122313113D

 28 28  0  0  1  0  0  0  0  0999 V2000
    0.3174    1.7121   -0.2209 P   0  0  0  0  0  0  0  0  0  0  0  0
   -1.2856    1.3753   -0.6160 O   0  0  0  0  0  0  0  0  0  0  0  0
   -0.2567   -2.0263    0.3086 C   0  0  0  0  0  3  0  0  0  0  0  0
   -0.7980   -0.7469    0.4902 C   0  0  0  0  0  3  0  0  0  0  0  0
   -1.6182   -0.0224   -0.5690 C   0  0  1  0  0  0  0  0  0  0  0  0
   -3.1012   -0.1676   -0.2719 C   0  0  0  0  0  0  0  0  0  0  0  0
   -3.8034    0.8223    0.4392 C   0  0  0  0  0  0  0  0  0  0  0  0
   -5.1575    0.6380    0.7576 C   0  0  0  0  0  0  0  0  0  0  0  0
   -5.8220   -0.5359    0.3698 C   0  0  0  0  0  0  0  0  0  0  0  0
   -5.1256   -1.5259   -0.3426 C   0  0  0  0  0  0  0  0  0  0  0  0
   -3.7732   -1.3415   -0.6621 C   0  0  0  0  0  0  0  0  0  0  0  0
    0.7947    2.8162   -1.6025 C   0  0  0  0  0  0  0  0  0  0  0  0
    0.1152    2.8773    1.1809 C   0  0  0  0  0  0  0  0  0  0  0  0
   -0.0721   -2.6757    1.1757 H   0  0  0  0  0  0  0  0  0  0  0  0
   -0.3417   -2.5322   -0.6659 H   0  0  0  0  0  0  0  0  0  0  0  0
   -1.0290   -0.4252    1.5219 H   0  0  0  0  0  0  0  0  0  0  0  0
   -1.4020   -0.4849   -1.5596 H   0  0  0  0  0  0  0  0  0  0  0  0
   -3.2794    1.7458    0.7238 H   0  0  0  0  0  0  0  0  0  0  0  0
   -5.6995    1.4210    1.3097 H   0  0  0  0  0  0  0  0  0  0  0  0
   -6.8848   -0.6780    0.6177 H   0  0  0  0  0  0  0  0  0  0  0  0
   -5.6411   -2.4464   -0.6562 H   0  0  0  0  0  0  0  0  0  0  0  0
   -3.2291   -2.1189   -1.2218 H   0  0  0  0  0  0  0  0  0  0  0  0
    0.8444    2.2205   -2.5338 H   0  0  0  0  0  0  0  0  0  0  0  0
    1.7989    3.2385   -1.3989 H   0  0  0  0  0  0  0  0  0  0  0  0
    0.0589    3.6354   -1.7227 H   0  0  0  0  0  0  0  0  0  0  0  0
   -0.5879    3.6919    0.9162 H   0  0  0  0  0  0  0  0  0  0  0  0
   -0.2698    2.3227    2.0577 H   0  0  0  0  0  0  0  0  0  0  0  0
    1.1036    3.3051    1.4422 H   0  0  0  0  0  0  0  0  0  0  0  0
  1 13  1  0  0  0  0
  2  5  1  0  0  0  0
  2  1  1  0  0  0  0
  3  4  1  0  0  0  0
  3 14  1  0  0  0  0
  4 16  1  0  0  0  0
  5 17  1  6  0  0  0
  5  6  1  0  0  0  0
  5  4  1  0  0  0  0
  6  7  1  0  0  0  0
  7 18  1  0  0  0  0
  7  8  2  0  0  0  0
  8 19  1  0  0  0  0
  9 20  1  0  0  0  0
  9  8  1  0  0  0  0
 10  9  2  0  0  0  0
 11 10  1  0  0  0  0
 11  6  2  0  0  0  0
 12 24  1  0  0  0  0
 12  1  1  0  0  0  0
 13 28  1  0  0  0  0
 13 27  1  0  0  0  0
 15  3  1  0  0  0  0
 21 10  1  0  0  0  0
 22 11  1  0  0  0  0
 23 12  1  0  0  0  0
 25 12  1  0  0  0  0
 26 13  1  0  0  0  0
M  END
