5
 OpenBabel05122313113D

 21 22  0  0  1  0  0  0  0  0999 V2000
   -3.5967    0.4234    0.0644 O   0  0  0  0  0  0  0  0  0  0  0  0
   -3.1731    0.7247    2.2694 O   0  0  0  0  0  0  0  0  0  0  0  0
   -3.8449   -0.4342   -2.0155 O   0  0  0  0  0  0  0  0  0  0  0  0
   -0.8992   -1.7658   -1.1727 C   0  0  0  0  0  0  0  0  0  0  0  0
   -0.4372   -1.0821   -0.1023 C   0  0  0  0  0  3  0  0  0  0  0  0
   -1.0554   -1.3886    1.2415 C   0  0  0  0  0  0  0  0  0  0  0  0
   -2.6233   -1.4386    1.2153 C   0  0  2  0  0  0  0  0  0  0  0  0
   -3.1452   -1.9098   -0.1590 C   0  0  2  0  0  0  0  0  0  0  0  0
   -2.1063   -2.6618   -1.0087 C   0  0  0  0  0  0  0  0  0  0  0  0
   -3.1387   -0.0033    1.3128 C   0  0  0  0  0  0  0  0  0  0  0  0
   -3.5606   -0.6202   -0.8615 C   0  0  0  0  0  0  0  0  0  0  0  0
   -3.1372   -2.2530    2.4071 C   0  0  0  0  0  0  0  0  0  0  0  0
   -0.4840   -1.6221   -2.1801 H   0  0  0  0  0  0  0  0  0  0  0  0
   -0.7406   -0.6940    2.0413 H   0  0  0  0  0  0  0  0  0  0  0  0
   -0.7147   -2.4001    1.5601 H   0  0  0  0  0  0  0  0  0  0  0  0
   -4.0681   -2.5181   -0.0296 H   0  0  0  0  0  0  0  0  0  0  0  0
   -2.5485   -2.9175   -1.9911 H   0  0  0  0  0  0  0  0  0  0  0  0
   -1.8591   -3.6222   -0.5002 H   0  0  0  0  0  0  0  0  0  0  0  0
   -4.2452   -2.2644    2.4463 H   0  0  0  0  0  0  0  0  0  0  0  0
   -2.7656   -1.8169    3.3546 H   0  0  0  0  0  0  0  0  0  0  0  0
   -2.7791   -3.2994    2.3353 H   0  0  0  0  0  0  0  0  0  0  0  0
  1 10  1  0  0  0  0
  3 11  2  0  0  0  0
  4  9  1  0  0  0  0
  4  5  2  0  0  0  0
  5  6  1  0  0  0  0
  6 15  1  0  0  0  0
  6 14  1  0  0  0  0
  7  6  1  0  0  0  0
  7 10  1  0  0  0  0
  7 12  1  1  0  0  0
  8 16  1  1  0  0  0
  8  7  1  0  0  0  0
  9 18  1  0  0  0  0
  9  8  1  0  0  0  0
 10  2  2  0  0  0  0
 11  8  1  0  0  0  0
 11  1  1  0  0  0  0
 12 19  1  0  0  0  0
 12 20  1  0  0  0  0
 13  4  1  0  0  0  0
 17  9  1  0  0  0  0
 21 12  1  0  0  0  0
M  END
