1
 OpenBabel05122313113D

 21 21  0  0  0  0  0  0  0  0999 V2000
   -0.2019    1.4734    0.3640 C   0  0  0  0  0  3  0  0  0  0  0  0
   -1.1971    0.5796    0.0949 C   0  0  0  0  0  3  0  0  0  0  0  0
   -2.6381    0.3980    0.0424 C   0  0  0  0  0  0  0  0  0  0  0  0
   -3.2132   -0.8569    0.3566 C   0  0  0  0  0  0  0  0  0  0  0  0
   -4.5979   -1.0484    0.3118 C   0  0  0  0  0  0  0  0  0  0  0  0
   -5.4671   -0.0092   -0.0815 C   0  0  0  0  0  0  0  0  0  0  0  0
   -6.9580   -0.2069   -0.1296 C   0  0  0  0  0  0  0  0  0  0  0  0
   -4.8915    1.2358   -0.4218 C   0  0  0  0  0  0  0  0  0  0  0  0
   -3.5120    1.4440   -0.3511 C   0  0  0  0  0  0  0  0  0  0  0  0
   -0.0189    2.6604    0.9424 O   0  0  0  0  0  0  0  0  0  0  0  0
   -1.1807    3.3405    1.4594 C   0  0  0  0  0  0  0  0  0  0  0  0
   -5.0194   -2.0299    0.5790 H   0  0  0  0  0  0  0  0  0  0  0  0
   -7.3862    0.1768   -1.0775 H   0  0  0  0  0  0  0  0  0  0  0  0
   -7.4562    0.3489    0.6931 H   0  0  0  0  0  0  0  0  0  0  0  0
   -7.2360   -1.2731   -0.0292 H   0  0  0  0  0  0  0  0  0  0  0  0
   -3.0949    2.4216   -0.6344 H   0  0  0  0  0  0  0  0  0  0  0  0
   -0.8050    4.1613    2.0961 H   0  0  0  0  0  0  0  0  0  0  0  0
   -1.7839    3.7622    0.6305 H   0  0  0  0  0  0  0  0  0  0  0  0
   -2.5501   -1.6812    0.6582 H   0  0  0  0  0  0  0  0  0  0  0  0
   -5.5449    2.0600   -0.7485 H   0  0  0  0  0  0  0  0  0  0  0  0
   -1.8066    2.6483    2.0574 H   0  0  0  0  0  0  0  0  0  0  0  0
  1 10  1  0  0  0  0
  2  1  2  0  0  0  0
  3  2  1  0  0  0  0
  3  4  1  0  0  0  0
  4 19  1  0  0  0  0
  5  4  2  0  0  0  0
  5 12  1  0  0  0  0
  6  5  1  0  0  0  0
  7  6  1  0  0  0  0
  7 15  1  0  0  0  0
  7 14  1  0  0  0  0
  8  9  1  0  0  0  0
  8  6  2  0  0  0  0
  9  3  2  0  0  0  0
 10 11  1  0  0  0  0
 11 21  1  0  0  0  0
 11 17  1  0  0  0  0
 13  7  1  0  0  0  0
 16  9  1  0  0  0  0
 18 11  1  0  0  0  0
 20  8  1  0  0  0  0
M  END
