3
 OpenBabel05122313113D

 15 15  0  0  0  0  0  0  0  0999 V2000
   11.2584    0.2171   -0.0034 S   0  0  0  0  0  0  0  0  0  0  0  0
    8.6536   -0.7880    0.0007 N   0  0  0  0  0  0  0  0  0  0  0  0
    1.8000   -0.2116    0.0006 C   0  0  0  0  0  3  0  0  0  0  0  0
    3.0413   -0.3125    0.0006 C   0  0  0  0  0  0  0  0  0  0  0  0
    4.4573   -0.4283    0.0006 C   0  0  0  0  0  0  0  0  0  0  0  0
    5.2872    0.7277   -0.0031 C   0  0  0  0  0  0  0  0  0  0  0  0
    4.8170    1.7218   -0.0061 H   0  0  0  0  0  0  0  0  0  0  0  0
    6.6749    0.6201   -0.0031 C   0  0  0  0  0  0  0  0  0  0  0  0
    7.3085    1.5187   -0.0060 H   0  0  0  0  0  0  0  0  0  0  0  0
    7.2889   -0.6591    0.0007 C   0  0  0  0  0  0  0  0  0  0  0  0
    6.4769   -1.8192    0.0044 C   0  0  0  0  0  0  0  0  0  0  0  0
    6.9622   -2.8052    0.0074 H   0  0  0  0  0  0  0  0  0  0  0  0
    5.0892   -1.7024    0.0044 C   0  0  0  0  0  0  0  0  0  0  0  0
    4.4645   -2.6072    0.0073 H   0  0  0  0  0  0  0  0  0  0  0  0
    9.7669   -0.3041   -0.0012 C   0  0  0  0  0  0  0  0  0  0  0  0
  1 15  2  0  0  0  0
  3  4  3  0  0  0  0
  4  5  1  0  0  0  0
  5 13  1  0  0  0  0
  6  5  2  0  0  0  0
  7  6  1  0  0  0  0
  8  6  1  0  0  0  0
  8 10  2  0  0  0  0
  9  8  1  0  0  0  0
 10  2  1  0  0  0  0
 10 11  1  0  0  0  0
 11 12  1  0  0  0  0
 13 11  2  0  0  0  0
 13 14  1  0  0  0  0
 15  2  2  0  0  0  0
M  END
