14
 OpenBabel05122313113D

 39 42  0  0  1  0  0  0  0  0999 V2000
   -2.9875   -1.5694    0.2004 C   0  0  2  0  0  0  0  0  0  0  0  0
   -1.8632   -1.5414    1.2142 C   0  0  0  0  0  0  0  0  0  0  0  0
   -0.8563   -0.7071    0.8904 C   0  0  0  0  0  0  0  0  0  0  0  0
    0.5027   -0.4700    1.5340 C   0  0  2  0  0  0  0  0  0  0  0  0
    0.6355    1.0366    1.6653 C   0  0  0  0  0  0  0  0  0  0  0  0
    0.5199    1.7123    0.5045 C   0  0  0  0  0  0  0  0  0  0  0  0
    0.2572    0.8443   -0.7111 C   0  0  2  0  0  0  0  0  0  0  0  0
   -1.0539    0.0261   -0.4210 C   0  0  1  0  0  0  0  0  0  0  0  0
   -1.3541   -1.0548   -1.4862 C   0  0  0  0  0  0  0  0  0  0  0  0
   -2.4987   -1.8204   -1.1183 O   0  0  0  0  0  0  0  0  0  0  0  0
   -3.5965   -0.0761    0.1352 C   0  0  0  0  0  0  0  0  0  0  0  0
   -2.3771    0.9119   -0.3253 C   0  0  0  0  0  0  0  0  0  0  0  0
    1.4682   -0.9667    0.4439 C   0  0  1  0  0  3  0  0  0  0  0  0
    1.3379   -0.2418   -0.7776 C   0  0  2  0  0  3  0  0  0  0  0  0
   -4.0582   -2.6047    0.4927 C   0  0  0  0  0  0  0  0  0  0  0  0
    2.4515   -2.0047    0.5081 C   0  0  0  0  0  3  0  0  0  0  0  0
    2.2036   -0.5951   -1.8643 C   0  0  0  0  0  3  0  0  0  0  0  0
   -4.1204    0.2780    1.4608 C   0  0  0  0  0  0  0  0  0  0  0  0
   -4.6991   -0.0364   -0.8344 C   0  0  0  0  0  0  0  0  0  0  0  0
   -2.2850    2.0391    0.6186 C   0  0  0  0  0  0  0  0  0  0  0  0
   -2.6292    1.5078   -1.6502 C   0  0  0  0  0  0  0  0  0  0  0  0
   -4.5511    0.4679    2.5330 N   0  0  0  0  0  0  0  0  0  0  0  0
   -5.5956   -0.0537   -1.5868 N   0  0  0  0  0  0  0  0  0  0  0  0
   -2.3026    2.9693    1.3295 N   0  0  0  0  0  0  0  0  0  0  0  0
   -2.7348    1.9872   -2.7131 N   0  0  0  0  0  0  0  0  0  0  0  0
   -1.8850   -2.1862    2.1040 H   0  0  0  0  0  0  0  0  0  0  0  0
    0.6184   -1.0213    2.4832 H   0  0  0  0  0  0  0  0  0  0  0  0
    0.7999    1.5100    2.6432 H   0  0  0  0  0  0  0  0  0  0  0  0
    0.5984    2.8039    0.4183 H   0  0  0  0  0  0  0  0  0  0  0  0
    0.1789    1.4116   -1.6569 H   0  0  0  0  0  0  0  0  0  0  0  0
   -0.4732   -1.7231   -1.5809 H   0  0  0  0  0  0  0  0  0  0  0  0
   -1.5510   -0.5896   -2.4758 H   0  0  0  0  0  0  0  0  0  0  0  0
   -4.8323   -2.5993   -0.2972 H   0  0  0  0  0  0  0  0  0  0  0  0
   -4.5318   -2.4112    1.4738 H   0  0  0  0  0  0  0  0  0  0  0  0
   -3.5849   -3.6047    0.5136 H   0  0  0  0  0  0  0  0  0  0  0  0
    2.7047   -2.4175    1.4974 H   0  0  0  0  0  0  0  0  0  0  0  0
    2.5408   -2.7236   -0.3228 H   0  0  0  0  0  0  0  0  0  0  0  0
    2.2528    0.0871   -2.7277 H   0  0  0  0  0  0  0  0  0  0  0  0
    2.3579   -1.6578   -2.1147 H   0  0  0  0  0  0  0  0  0  0  0  0
  1 15  1  1  0  0  0
  1  2  1  0  0  0  0
  2 26  1  0  0  0  0
  3  2  2  0  0  0  0
  3  4  1  0  0  0  0
  4  5  1  0  0  0  0
  4 27  1  1  0  0  0
  5 28  1  0  0  0  0
  6  5  2  0  0  0  0
  7 30  1  6  0  0  0
  7  8  1  0  0  0  0
  7  6  1  0  0  0  0
  8 12  1  0  0  0  0
  8  3  1  1  0  0  0
  9 10  1  0  0  0  0
  9  8  1  0  0  0  0
 10  1  1  0  0  0  0
 11  1  1  0  0  0  0
 11 18  1  0  0  0  0
 12 11  1  0  0  0  0
 12 20  1  0  0  0  0
 13 16  1  1  0  0  0
 13  4  1  0  0  0  0
 14 17  1  1  0  0  0
 14  7  1  0  0  0  0
 14 13  1  0  0  0  0
 15 35  1  0  0  0  0
 15 34  1  0  0  0  0
 16 36  1  0  0  0  0
 18 22  3  0  0  0  0
 19 11  1  0  0  0  0
 20 24  3  0  0  0  0
 21 12  1  0  0  0  0
 23 19  3  0  0  0  0
 25 21  3  0  0  0  0
 29  6  1  0  0  0  0
 31  9  1  0  0  0  0
 32  9  1  0  0  0  0
 33 15  1  0  0  0  0
 37 16  1  0  0  0  0
 38 17  1  0  0  0  0
 39 17  1  0  0  0  0
M  END
