2
 OpenBabel05122313113D

 15 15  0  0  0  0  0  0  0  0999 V2000
   -2.4691   -1.1880    0.3643 O   0  0  0  0  0  0  0  0  0  0  0  0
   -1.9237    1.0571    0.7100 C   0  0  0  0  0  3  0  0  0  0  0  0
   -2.9417    0.0865    0.7368 C   0  0  0  0  0  0  0  0  0  0  0  0
   -4.2819    0.3396    1.0693 C   0  0  0  0  0  0  0  0  0  0  0  0
   -5.0529   -0.4449    1.0742 H   0  0  0  0  0  0  0  0  0  0  0  0
   -4.6287    1.6626    1.4070 C   0  0  0  0  0  0  0  0  0  0  0  0
   -5.6711    1.8956    1.6743 H   0  0  0  0  0  0  0  0  0  0  0  0
   -3.6566    2.6732    1.3999 C   0  0  0  0  0  0  0  0  0  0  0  0
   -3.9373    3.7059    1.6606 H   0  0  0  0  0  0  0  0  0  0  0  0
   -2.3251    2.3622    1.0539 C   0  0  0  0  0  0  0  0  0  0  0  0
   -1.5833    3.1803    1.0448 H   0  0  0  0  0  0  0  0  0  0  0  0
   -3.4194   -2.2067    0.1184 C   0  0  0  0  0  0  0  0  0  0  0  0
   -3.9546   -2.5041    1.0481 H   0  0  0  0  0  0  0  0  0  0  0  0
   -2.8707   -3.0804   -0.2781 H   0  0  0  0  0  0  0  0  0  0  0  0
   -4.1720   -1.8848   -0.6352 H   0  0  0  0  0  0  0  0  0  0  0  0
  1  3  1  0  0  0  0
  2  3  2  0  0  0  0
  2 10  1  0  0  0  0
  3  4  1  0  0  0  0
  4  5  1  0  0  0  0
  4  6  2  0  0  0  0
  6  7  1  0  0  0  0
  8  6  1  0  0  0  0
  8  9  1  0  0  0  0
 10  8  2  0  0  0  0
 11 10  1  0  0  0  0
 12  1  1  0  0  0  0
 12 13  1  0  0  0  0
 14 12  1  0  0  0  0
 15 12  1  0  0  0  0
M  END
