2
 OpenBabel05122313113D

  4  3  0  0  0  0  0  0  0  0999 V2000
   -3.8988    2.3879   -0.8556 C   0  0  0  0  0  0  0  0  0  0  0  0
   -2.7683    1.9453   -0.5429 C   0  0  0  0  0  0  0  0  0  0  0  0
   -6.1501    3.2139   -1.5180 C   0  0  0  0  0  0  0  0  0  0  0  0
   -5.0625    2.8120   -1.1996 O   0  0  0  0  0  0  0  0  0  0  0  0
  1  2  3  0  0  0  0
  3  4  1  0  0  0  0
  4  1  1  0  0  0  0
M  END
