20
 OpenBabel05122313113D

 38 38  0  0  1  0  0  0  0  0999 V2000
    1.7484   -0.7165    0.2520 C   0  0  2  0  0  3  0  0  0  0  0  0
    0.9137   -1.3041    1.2985 C   0  0  2  0  0  3  0  0  0  0  0  0
    1.0188   -0.7678    2.7215 C   0  0  0  0  0  0  0  0  0  0  0  0
    1.9419   -1.1763    3.1880 H   0  0  0  0  0  0  0  0  0  0  0  0
    0.1753   -1.1743    3.3105 H   0  0  0  0  0  0  0  0  0  0  0  0
    2.5926   -1.5200   -0.7052 C   0  0  0  0  0  0  0  0  0  0  0  0
    2.4397   -1.6219   -1.9053 O   0  0  0  0  0  0  0  0  0  0  0  0
    3.6048   -2.0888   -0.0080 O   0  0  0  0  0  0  0  0  0  0  0  0
    4.4256   -2.9902   -0.7600 C   0  0  0  0  0  0  0  0  0  0  0  0
    5.2580   -3.2781   -0.0936 H   0  0  0  0  0  0  0  0  0  0  0  0
    4.8079   -2.5064   -1.6806 H   0  0  0  0  0  0  0  0  0  0  0  0
    3.8348   -3.8839   -1.0467 H   0  0  0  0  0  0  0  0  0  0  0  0
    0.5974   -2.7510    1.1448 C   0  0  0  0  0  0  0  0  0  0  0  0
    1.0286   -3.4895    0.2681 O   0  0  0  0  0  0  0  0  0  0  0  0
   -0.2693   -3.1840    2.0968 O   0  0  0  0  0  0  0  0  0  0  0  0
   -0.6905   -4.5450    1.9611 C   0  0  0  0  0  0  0  0  0  0  0  0
   -1.3746   -4.7389    2.8062 H   0  0  0  0  0  0  0  0  0  0  0  0
    0.1773   -5.2341    1.9962 H   0  0  0  0  0  0  0  0  0  0  0  0
   -1.2154   -4.6963    0.9962 H   0  0  0  0  0  0  0  0  0  0  0  0
    1.7487    0.7157    0.2520 C   0  0  1  0  0  3  0  0  0  0  0  0
    0.9143    1.3038    1.2985 C   0  0  1  0  0  3  0  0  0  0  0  0
    1.0192    0.7675    2.7215 C   0  0  0  0  0  0  0  0  0  0  0  0
    1.9424    1.1756    3.1879 H   0  0  0  0  0  0  0  0  0  0  0  0
    0.1759    1.1744    3.3105 H   0  0  0  0  0  0  0  0  0  0  0  0
    2.5933    1.5188   -0.7053 C   0  0  0  0  0  0  0  0  0  0  0  0
    2.4405    1.6206   -1.9054 O   0  0  0  0  0  0  0  0  0  0  0  0
    3.6059    2.0871   -0.0081 O   0  0  0  0  0  0  0  0  0  0  0  0
    4.4272    2.9879   -0.7602 C   0  0  0  0  0  0  0  0  0  0  0  0
    5.2598    3.2754   -0.0939 H   0  0  0  0  0  0  0  0  0  0  0  0
    4.8092    2.5039   -1.6808 H   0  0  0  0  0  0  0  0  0  0  0  0
    3.8368    3.8820   -1.0469 H   0  0  0  0  0  0  0  0  0  0  0  0
    0.5987    2.7508    1.1447 C   0  0  0  0  0  0  0  0  0  0  0  0
    1.0303    3.4892    0.2681 O   0  0  0  0  0  0  0  0  0  0  0  0
   -0.2678    3.1843    2.0967 O   0  0  0  0  0  0  0  0  0  0  0  0
   -0.6882    4.5455    1.9611 C   0  0  0  0  0  0  0  0  0  0  0  0
   -1.3723    4.7398    2.8062 H   0  0  0  0  0  0  0  0  0  0  0  0
    0.1799    5.2342    1.9961 H   0  0  0  0  0  0  0  0  0  0  0  0
   -1.2131    4.6970    0.9961 H   0  0  0  0  0  0  0  0  0  0  0  0
  1  6  1  1  0  0  0
  1  2  1  0  0  0  0
  2 13  1  1  0  0  0
  2  3  1  0  0  0  0
  3  4  1  0  0  0  0
  3  5  1  0  0  0  0
  6  8  1  0  0  0  0
  7  6  2  0  0  0  0
  9 10  1  0  0  0  0
  9  8  1  0  0  0  0
 11  9  1  0  0  0  0
 12  9  1  0  0  0  0
 13 15  1  0  0  0  0
 14 13  2  0  0  0  0
 16 18  1  0  0  0  0
 16 15  1  0  0  0  0
 16 17  1  0  0  0  0
 19 16  1  0  0  0  0
 20 25  1  1  0  0  0
 20  1  1  0  0  0  0
 20 21  1  0  0  0  0
 21 32  1  1  0  0  0
 21 22  1  0  0  0  0
 22  3  1  0  0  0  0
 22 23  1  0  0  0  0
 22 24  1  0  0  0  0
 25 27  1  0  0  0  0
 26 25  2  0  0  0  0
 28 29  1  0  0  0  0
 28 27  1  0  0  0  0
 30 28  1  0  0  0  0
 31 28  1  0  0  0  0
 32 34  1  0  0  0  0
 33 32  2  0  0  0  0
 35 37  1  0  0  0  0
 35 34  1  0  0  0  0
 35 36  1  0  0  0  0
 38 35  1  0  0  0  0
M  END
