18
 OpenBabel05122313113D

 21 22  0  0  1  0  0  0  0  0999 V2000
    0.5565   -1.3743   -0.6828 C   0  0  0  0  0  0  0  0  0  0  0  0
    0.1780   -2.0814   -1.4329 H   0  0  0  0  0  0  0  0  0  0  0  0
    0.4356   -1.4691    0.7038 C   0  0  0  0  0  0  0  0  0  0  0  0
   -0.0573   -2.2672    1.2750 H   0  0  0  0  0  0  0  0  0  0  0  0
    1.6203   -0.2856   -0.9519 C   0  0  2  0  0  0  0  0  0  0  0  0
    2.0473   -0.2694   -1.9697 H   0  0  0  0  0  0  0  0  0  0  0  0
    2.5873   -0.5424    0.2525 C   0  0  1  0  0  0  0  0  0  0  0  0
    2.9671   -1.5875    0.2083 H   0  0  0  0  0  0  0  0  0  0  0  0
    3.7601    0.4176    0.4365 C   0  0  0  0  0  0  0  0  0  0  0  0
    4.2464    0.1831    1.4087 H   0  0  0  0  0  0  0  0  0  0  0  0
    3.3825    1.4583    0.5277 H   0  0  0  0  0  0  0  0  0  0  0  0
    4.7951    0.3345   -0.6877 C   0  0  0  0  0  0  0  0  0  0  0  0
    5.6572    1.0038   -0.4950 H   0  0  0  0  0  0  0  0  0  0  0  0
    4.3611    0.6292   -1.6653 H   0  0  0  0  0  0  0  0  0  0  0  0
    5.1909   -0.6965   -0.7996 H   0  0  0  0  0  0  0  0  0  0  0  0
    0.7940    0.9151    0.8983 C   0  0  0  0  0  3  0  0  0  0  0  0
    0.5431    1.7217    1.5997 H   0  0  0  0  0  0  0  0  0  0  0  0
    0.9129    1.0103   -0.4885 C   0  0  0  0  0  3  0  0  0  0  0  0
    0.7774    1.9089   -1.1051 H   0  0  0  0  0  0  0  0  0  0  0  0
    1.4273   -0.4411    1.2943 C   0  0  1  0  0  0  0  0  0  0  0  0
    1.6824   -0.5655    2.3617 H   0  0  0  0  0  0  0  0  0  0  0  0
  1  3  2  0  0  0  0
  2  1  1  0  0  0  0
  3  4  1  0  0  0  0
  3 20  1  0  0  0  0
  5  6  1  6  0  0  0
  5  1  1  0  0  0  0
  5 18  1  0  0  0  0
  5  7  1  0  0  0  0
  7  8  1  6  0  0  0
  7  9  1  0  0  0  0
  7 20  1  0  0  0  0
  9 11  1  0  0  0  0
  9 10  1  0  0  0  0
 12 13  1  0  0  0  0
 12  9  1  0  0  0  0
 14 12  1  0  0  0  0
 15 12  1  0  0  0  0
 16 20  1  0  0  0  0
 16 17  1  0  0  0  0
 18 16  1  0  0  0  0
 19 18  1  0  0  0  0
 20 21  1  1  0  0  0
M  END
