1
 OpenBabel05122313113D

 23 24  0  0  0  0  0  0  0  0999 V2000
   -0.7207   -0.4214   -0.0323 C   0  0  0  0  0  2  0  0  0  0  0  0
   -2.9892   -0.2517   -0.4396 C   0  0  0  0  0  0  0  0  0  0  0  0
   -2.7635   -1.4443    0.2877 C   0  0  0  0  0  0  0  0  0  0  0  0
   -3.8235   -2.2969    0.6269 C   0  0  0  0  0  0  0  0  0  0  0  0
   -3.6559   -3.2232    1.1946 H   0  0  0  0  0  0  0  0  0  0  0  0
   -5.1065   -1.9176    0.2039 C   0  0  0  0  0  0  0  0  0  0  0  0
   -5.9633   -2.5620    0.4491 H   0  0  0  0  0  0  0  0  0  0  0  0
   -5.3227   -0.7324   -0.5358 C   0  0  0  0  0  0  0  0  0  0  0  0
   -6.3435   -0.4782   -0.8567 H   0  0  0  0  0  0  0  0  0  0  0  0
   -4.2652    0.1244   -0.8747 C   0  0  0  0  0  0  0  0  0  0  0  0
   -4.4147    1.0417   -1.4588 H   0  0  0  0  0  0  0  0  0  0  0  0
   -1.3963    2.6512   -0.4453 C   0  0  0  0  0  0  0  0  0  0  0  0
   -1.2867    3.4580   -1.1968 H   0  0  0  0  0  0  0  0  0  0  0  0
   -0.4474    2.5630    0.1212 H   0  0  0  0  0  0  0  0  0  0  0  0
   -2.5554    2.8753    0.4723 C   0  0  0  0  0  0  0  0  0  0  0  0
   -3.5343    3.0758    0.0023 H   0  0  0  0  0  0  0  0  0  0  0  0
   -2.4427    2.8382    1.8121 C   0  0  0  0  0  0  0  0  0  0  0  0
   -1.4723    2.6412    2.2979 H   0  0  0  0  0  0  0  0  0  0  0  0
   -3.3093    3.0164    2.4676 H   0  0  0  0  0  0  0  0  0  0  0  0
   -1.7294    0.3246   -0.5861 N   0  0  0  0  0  0  0  0  0  0  0  0
   -1.3925   -1.4897    0.5094 N   0  0  0  0  0  0  0  0  0  0  0  0
   -1.5502    1.4734   -1.3053 O   0  0  0  0  0  0  0  0  0  0  0  0
   -0.8950   -2.2315    1.0024 H   0  0  0  0  0  0  0  0  0  0  0  0
  1 21  1  0  0  0  0
  2  3  1  0  0  0  0
  3 21  1  0  0  0  0
  3  4  2  0  0  0  0
  4  5  1  0  0  0  0
  6  7  1  0  0  0  0
  6  4  1  0  0  0  0
  8  6  2  0  0  0  0
  9  8  1  0  0  0  0
 10  8  1  0  0  0  0
 10  2  2  0  0  0  0
 11 10  1  0  0  0  0
 12 14  1  0  0  0  0
 12 15  1  0  0  0  0
 13 12  1  0  0  0  0
 15 17  2  0  0  0  0
 16 15  1  0  0  0  0
 17 18  1  0  0  0  0
 17 19  1  0  0  0  0
 20  2  1  0  0  0  0
 20  1  1  0  0  0  0
 21 23  1  0  0  0  0
 22 20  1  0  0  0  0
 22 12  1  0  0  0  0
M  END
