1
 OpenBabel05122313113D

 15 15  0  0  0  0  0  0  0  0999 V2000
   -0.1378    0.5158   -0.0252 C   0  0  0  0  0  1  0  0  0  0  0  0
    2.3963    0.8025    0.0046 C   0  0  0  0  0  0  0  0  0  0  0  0
    3.2252   -0.3555    0.0127 C   0  0  0  0  0  0  0  0  0  0  0  0
    4.6213   -0.2383    0.0044 C   0  0  0  0  0  0  0  0  0  0  0  0
    5.2093   -1.1657   -0.0102 H   0  0  0  0  0  0  0  0  0  0  0  0
    5.2239    1.0236    0.0121 C   0  0  0  0  0  0  0  0  0  0  0  0
    6.3202    1.1069    0.0191 H   0  0  0  0  0  0  0  0  0  0  0  0
    4.4206    2.1777    0.0059 C   0  0  0  0  0  0  0  0  0  0  0  0
    4.8847    3.1750    0.0054 H   0  0  0  0  0  0  0  0  0  0  0  0
    3.0277    2.0702   -0.0060 C   0  0  0  0  0  0  0  0  0  0  0  0
    2.3879    2.9633   -0.0256 H   0  0  0  0  0  0  0  0  0  0  0  0
    1.0359    0.7430   -0.0251 N   0  0  0  0  0  2  0  0  0  0  0  0
    2.6608   -1.7257    0.0316 N   0  0  0  0  0  0  0  0  0  0  0  0
    1.5247   -1.8732    0.4797 O   0  0  0  0  0  0  0  0  0  0  0  0
    3.3843   -2.6278   -0.3875 O   0  0  0  0  0  0  0  0  0  0  0  0
  1 12  1  0  0  0  0
  2  3  1  0  0  0  0
  3 13  1  0  0  0  0
  4  6  1  0  0  0  0
  4  3  2  0  0  0  0
  5  4  1  0  0  0  0
  6  7  1  0  0  0  0
  8  6  2  0  0  0  0
  9  8  1  0  0  0  0
 10  2  2  0  0  0  0
 10  8  1  0  0  0  0
 11 10  1  0  0  0  0
 12  2  1  0  0  0  0
 13 14  2  0  0  0  0
 15 13  2  0  0  0  0
M  END
