7
 OpenBabel05122313113D

 34 36  0  0  0  0  0  0  0  0999 V2000
    1.6406    1.9947    0.5423 N   0  0  0  0  0  0  0  0  0  0  0  0
    0.4257    0.3879   -0.2691 N   0  0  0  0  0  0  0  0  0  0  0  0
   -3.9573    1.2579   -0.8408 N   0  0  0  0  0  0  0  0  0  0  0  0
   -2.5657    2.6571    0.0023 N   0  0  0  0  0  0  0  0  0  0  0  0
   -3.8189    2.4953   -0.3102 N   0  0  0  0  0  0  0  0  0  0  0  0
   -1.8607    1.5151   -0.3160 C   0  0  0  0  0  0  0  0  0  0  0  0
    1.7110    0.7005    0.0969 C   0  0  0  0  0  2  0  0  0  0  0  0
    0.3500    2.4813    0.4588 C   0  0  0  0  0  0  0  0  0  0  0  0
    0.0603    3.4913    0.7605 H   0  0  0  0  0  0  0  0  0  0  0  0
   -2.7640    0.5984   -0.8618 C   0  0  0  0  0  0  0  0  0  0  0  0
   -2.6778   -0.4230   -1.2381 H   0  0  0  0  0  0  0  0  0  0  0  0
   -0.4335    1.4693   -0.0563 C   0  0  0  0  0  0  0  0  0  0  0  0
   -5.7514   -0.3698   -0.3452 C   0  0  0  0  0  0  0  0  0  0  0  0
    2.7779    2.7560    1.0359 C   0  0  0  0  0  0  0  0  0  0  0  0
    3.6694    2.1031    0.9961 H   0  0  0  0  0  0  0  0  0  0  0  0
    2.6011    3.0755    2.0816 H   0  0  0  0  0  0  0  0  0  0  0  0
    2.9470    3.6489    0.4026 H   0  0  0  0  0  0  0  0  0  0  0  0
   -6.1661   -1.5914   -0.9044 C   0  0  0  0  0  0  0  0  0  0  0  0
   -6.1405   -1.7270   -1.9976 H   0  0  0  0  0  0  0  0  0  0  0  0
   -5.2742    0.7644   -1.2289 C   0  0  0  0  0  0  0  0  0  0  0  0
   -5.2451    0.4499   -2.2915 H   0  0  0  0  0  0  0  0  0  0  0  0
   -5.9392    1.6478   -1.1531 H   0  0  0  0  0  0  0  0  0  0  0  0
   -5.7832   -0.2056    1.0544 C   0  0  0  0  0  0  0  0  0  0  0  0
   -5.4538    0.7485    1.4958 H   0  0  0  0  0  0  0  0  0  0  0  0
    0.0404   -0.9083   -0.7992 C   0  0  0  0  0  0  0  0  0  0  0  0
   -0.3558   -0.8073   -1.8291 H   0  0  0  0  0  0  0  0  0  0  0  0
   -0.7215   -1.3837   -0.1503 H   0  0  0  0  0  0  0  0  0  0  0  0
    0.9461   -1.5429   -0.8215 H   0  0  0  0  0  0  0  0  0  0  0  0
   -6.6143   -2.6356   -0.0792 C   0  0  0  0  0  0  0  0  0  0  0  0
   -6.9377   -3.5871   -0.5275 H   0  0  0  0  0  0  0  0  0  0  0  0
   -6.6431   -2.4663    1.3128 C   0  0  0  0  0  0  0  0  0  0  0  0
   -6.9905   -3.2848    1.9611 H   0  0  0  0  0  0  0  0  0  0  0  0
   -6.2254   -1.2491    1.8779 C   0  0  0  0  0  0  0  0  0  0  0  0
   -6.2467   -1.1123    2.9697 H   0  0  0  0  0  0  0  0  0  0  0  0
  1 14  1  0  0  0  0
  2 12  1  0  0  0  0
  2  7  1  0  0  0  0
  3  5  1  0  0  0  0
  5  4  2  0  0  0  0
  6 12  1  0  0  0  0
  6  4  1  0  0  0  0
  7  1  1  0  0  0  0
  8  1  1  0  0  0  0
  8  9  1  0  0  0  0
 10  3  1  0  0  0  0
 10  6  2  0  0  0  0
 11 10  1  0  0  0  0
 12  8  2  0  0  0  0
 13 23  1  0  0  0  0
 14 16  1  0  0  0  0
 15 14  1  0  0  0  0
 17 14  1  0  0  0  0
 18 13  2  0  0  0  0
 18 29  1  0  0  0  0
 19 18  1  0  0  0  0
 20 22  1  0  0  0  0
 20  3  1  0  0  0  0
 20 13  1  0  0  0  0
 21 20  1  0  0  0  0
 23 24  1  0  0  0  0
 23 33  2  0  0  0  0
 25  2  1  0  0  0  0
 25 27  1  0  0  0  0
 26 25  1  0  0  0  0
 28 25  1  0  0  0  0
 29 31  2  0  0  0  0
 30 29  1  0  0  0  0
 31 33  1  0  0  0  0
 31 32  1  0  0  0  0
 33 34  1  0  0  0  0
M  END
