4
 OpenBabel05122313113D

 36 38  0  0  1  0  0  0  0  0999 V2000
   -1.3483   -0.0592   -1.2708 C   0  0  2  0  0  0  0  0  0  0  0  0
   -0.0666   -0.8554   -1.4946 C   0  0  0  0  0  3  0  0  0  0  0  0
    0.4237   -1.9246   -0.7209 C   0  0  0  0  0  3  0  0  0  0  0  0
    0.4237   -1.9245    0.7209 C   0  0  0  0  0  3  0  0  0  0  0  0
   -0.0665   -0.8553    1.4946 C   0  0  0  0  0  3  0  0  0  0  0  0
   -1.3483   -0.0591    1.2708 C   0  0  1  0  0  0  0  0  0  0  0  0
   -1.0126    1.4516    1.3821 C   0  0  1  0  0  0  0  0  0  0  0  0
    0.3037    1.7787    0.6939 C   0  0  0  0  0  3  0  0  0  0  0  0
    0.3037    1.7786   -0.6939 C   0  0  0  0  0  3  0  0  0  0  0  0
   -1.0126    1.4516   -1.3821 C   0  0  2  0  0  0  0  0  0  0  0  0
   -2.1204    2.3543   -0.7773 C   0  0  0  0  0  0  0  0  0  0  0  0
   -2.1204    2.3543    0.7772 C   0  0  0  0  0  0  0  0  0  0  0  0
   -2.0769   -0.4372    0.0000 C   0  0  0  0  0  0  0  0  0  0  0  0
   -3.2820   -1.0798    0.0000 C   0  0  0  0  0  0  0  0  0  0  0  0
   -4.0296   -1.4958   -1.2459 C   0  0  0  0  0  0  0  0  0  0  0  0
   -4.0297   -1.4957    1.2459 C   0  0  0  0  0  0  0  0  0  0  0  0
   -2.0108   -0.2981   -2.1265 H   0  0  0  0  0  0  0  0  0  0  0  0
    0.2566   -0.8634   -2.5500 H   0  0  0  0  0  0  0  0  0  0  0  0
    1.0037   -2.7214   -1.2129 H   0  0  0  0  0  0  0  0  0  0  0  0
    1.0037   -2.7213    1.2130 H   0  0  0  0  0  0  0  0  0  0  0  0
    0.2566   -0.8633    2.5500 H   0  0  0  0  0  0  0  0  0  0  0  0
   -2.0108   -0.2980    2.1266 H   0  0  0  0  0  0  0  0  0  0  0  0
   -0.9071    1.6805    2.4617 H   0  0  0  0  0  0  0  0  0  0  0  0
    1.0227    2.4129    1.2335 H   0  0  0  0  0  0  0  0  0  0  0  0
    1.0227    2.4128   -1.2336 H   0  0  0  0  0  0  0  0  0  0  0  0
   -0.9070    1.6803   -2.4618 H   0  0  0  0  0  0  0  0  0  0  0  0
   -1.9748    3.3870   -1.1540 H   0  0  0  0  0  0  0  0  0  0  0  0
   -3.1023    2.0155   -1.1661 H   0  0  0  0  0  0  0  0  0  0  0  0
   -3.1023    2.0156    1.1660 H   0  0  0  0  0  0  0  0  0  0  0  0
   -1.9748    3.3870    1.1539 H   0  0  0  0  0  0  0  0  0  0  0  0
   -4.1476   -2.6012   -1.2709 H   0  0  0  0  0  0  0  0  0  0  0  0
   -5.0605   -1.0797   -1.2357 H   0  0  0  0  0  0  0  0  0  0  0  0
   -3.5551   -1.1938   -2.1960 H   0  0  0  0  0  0  0  0  0  0  0  0
   -3.5555   -1.1933    2.1960 H   0  0  0  0  0  0  0  0  0  0  0  0
   -4.1475   -2.6011    1.2712 H   0  0  0  0  0  0  0  0  0  0  0  0
   -5.0607   -1.0798    1.2355 H   0  0  0  0  0  0  0  0  0  0  0  0
  1 17  1  6  0  0  0
  1 13  1  0  0  0  0
  2  1  1  0  0  0  0
  2  3  1  0  0  0  0
  3  4  1  0  0  0  0
  4 20  1  0  0  0  0
  4  5  1  0  0  0  0
  5 21  1  0  0  0  0
  6  7  1  0  0  0  0
  6  5  1  0  0  0  0
  6 22  1  1  0  0  0
  7 23  1  1  0  0  0
  8 24  1  0  0  0  0
  8  7  1  0  0  0  0
  9  8  1  0  0  0  0
 10 26  1  6  0  0  0
 10  1  1  0  0  0  0
 10 11  1  0  0  0  0
 10  9  1  0  0  0  0
 11 12  1  0  0  0  0
 12 30  1  0  0  0  0
 12 29  1  0  0  0  0
 12  7  1  0  0  0  0
 13 14  2  0  0  0  0
 13  6  1  0  0  0  0
 14 16  1  0  0  0  0
 15 32  1  0  0  0  0
 15 14  1  0  0  0  0
 16 35  1  0  0  0  0
 16 34  1  0  0  0  0
 18  2  1  0  0  0  0
 19  3  1  0  0  0  0
 25  9  1  0  0  0  0
 27 11  1  0  0  0  0
 28 11  1  0  0  0  0
 31 15  1  0  0  0  0
 33 15  1  0  0  0  0
 36 16  1  0  0  0  0
M  END
