3
 OpenBabel05122313113D

 35 35  0  0  0  0  0  0  0  0999 V2000
    1.7805   -1.0822    0.7782 N   0  0  0  0  0  0  0  0  0  0  0  0
    1.7782    1.0859    0.7787 N   0  0  0  0  0  0  0  0  0  0  0  0
    1.0127    0.0011    0.4111 C   0  0  0  0  0  2  0  0  0  0  0  0
    2.9794   -0.6801    1.3584 C   0  0  0  0  0  0  0  0  0  0  0  0
    3.7306   -1.4204    1.6463 H   0  0  0  0  0  0  0  0  0  0  0  0
    2.9780    0.6862    1.3587 C   0  0  0  0  0  0  0  0  0  0  0  0
    3.7277    1.4279    1.6467 H   0  0  0  0  0  0  0  0  0  0  0  0
    1.4336   -2.4792    0.5667 C   0  0  0  0  0  0  0  0  0  0  0  0
    1.3083   -2.9768    1.5542 H   0  0  0  0  0  0  0  0  0  0  0  0
    0.4664   -2.4838    0.0311 H   0  0  0  0  0  0  0  0  0  0  0  0
    2.4766   -3.2757   -0.2579 C   0  0  0  0  0  0  0  0  0  0  0  0
    1.4286    2.4822    0.5670 C   0  0  0  0  0  0  0  0  0  0  0  0
    0.4614    2.4851    0.0314 H   0  0  0  0  0  0  0  0  0  0  0  0
    1.3025    2.9798    1.5544 H   0  0  0  0  0  0  0  0  0  0  0  0
    2.4701    3.2804   -0.2580 C   0  0  0  0  0  0  0  0  0  0  0  0
    2.9323   -2.5006   -1.4924 C   0  0  0  0  0  0  0  0  0  0  0  0
    2.0546   -2.2018   -2.0977 H   0  0  0  0  0  0  0  0  0  0  0  0
    3.4844   -1.5867   -1.1986 H   0  0  0  0  0  0  0  0  0  0  0  0
    3.6125   -3.1316   -2.0966 H   0  0  0  0  0  0  0  0  0  0  0  0
    1.8277   -4.6078   -0.6540 C   0  0  0  0  0  0  0  0  0  0  0  0
    1.4628   -5.1574    0.2414 H   0  0  0  0  0  0  0  0  0  0  0  0
    0.9619   -4.4332   -1.3232 H   0  0  0  0  0  0  0  0  0  0  0  0
    2.5666   -5.2464   -1.1761 H   0  0  0  0  0  0  0  0  0  0  0  0
    2.9271    2.5058   -1.4923 C   0  0  0  0  0  0  0  0  0  0  0  0
    3.4809    1.5930   -1.1983 H   0  0  0  0  0  0  0  0  0  0  0  0
    2.0498    2.2052   -2.0974 H   0  0  0  0  0  0  0  0  0  0  0  0
    3.6061    3.1378   -2.0968 H   0  0  0  0  0  0  0  0  0  0  0  0
    1.8188    4.6112   -0.6543 C   0  0  0  0  0  0  0  0  0  0  0  0
    0.9532    4.4349   -1.3234 H   0  0  0  0  0  0  0  0  0  0  0  0
    1.4530    5.1604    0.2410 H   0  0  0  0  0  0  0  0  0  0  0  0
    2.5565    5.2510   -1.1768 H   0  0  0  0  0  0  0  0  0  0  0  0
    3.6609   -3.5149    0.5306 O   0  0  0  0  0  0  0  0  0  0  0  0
    3.4154   -4.1685    1.2129 H   0  0  0  0  0  0  0  0  0  0  0  0
    3.6541    3.5219    0.5304 O   0  0  0  0  0  0  0  0  0  0  0  0
    3.4076    4.1756    1.2122 H   0  0  0  0  0  0  0  0  0  0  0  0
  1  4  1  0  0  0  0
  2  6  1  0  0  0  0
  3  1  1  0  0  0  0
  3  2  1  0  0  0  0
  4  6  2  0  0  0  0
  4  5  1  0  0  0  0
  6  7  1  0  0  0  0
  8  1  1  0  0  0  0
  8  9  1  0  0  0  0
 10  8  1  0  0  0  0
 11 32  1  0  0  0  0
 11  8  1  0  0  0  0
 12  2  1  0  0  0  0
 12 14  1  0  0  0  0
 13 12  1  0  0  0  0
 15 34  1  0  0  0  0
 15 12  1  0  0  0  0
 16 18  1  0  0  0  0
 16 11  1  0  0  0  0
 17 16  1  0  0  0  0
 19 16  1  0  0  0  0
 20 11  1  0  0  0  0
 20 21  1  0  0  0  0
 22 20  1  0  0  0  0
 23 20  1  0  0  0  0
 24 25  1  0  0  0  0
 24 15  1  0  0  0  0
 26 24  1  0  0  0  0
 27 24  1  0  0  0  0
 28 15  1  0  0  0  0
 28 30  1  0  0  0  0
 29 28  1  0  0  0  0
 31 28  1  0  0  0  0
 32 33  1  0  0  0  0
 34 35  1  0  0  0  0
M  END
