2
 OpenBabel05122313113D

 22 22  0  0  0  0  0  0  0  0999 V2000
   -2.0710   -1.5500    0.0010 P   0  0  0  0  0  4  0  0  0  0  0  0
    0.6888   -0.6659    0.0466 C   0  0  0  0  0  3  0  0  0  0  0  0
   -0.4232   -1.2854   -0.0124 C   0  0  0  0  0  0  0  0  0  0  0  0
   -2.6491   -2.4319    1.5025 C   0  0  0  0  0  0  0  0  0  0  0  0
   -2.6381   -2.5816   -1.4043 C   0  0  0  0  0  0  0  0  0  0  0  0
   -3.0442    0.0035   -0.0747 C   0  0  0  0  0  0  0  0  0  0  0  0
   -2.3543    1.2291   -0.1040 C   0  0  0  0  0  0  0  0  0  0  0  0
   -3.0722    2.4331   -0.1570 C   0  0  0  0  0  0  0  0  0  0  0  0
   -4.4753    2.4163   -0.1833 C   0  0  0  0  0  0  0  0  0  0  0  0
   -5.1660    1.1926   -0.1552 C   0  0  0  0  0  0  0  0  0  0  0  0
   -4.4543   -0.0146   -0.0998 C   0  0  0  0  0  0  0  0  0  0  0  0
   -2.3695   -1.8250    2.3844 H   0  0  0  0  0  0  0  0  0  0  0  0
   -2.1341   -3.4103    1.5586 H   0  0  0  0  0  0  0  0  0  0  0  0
   -3.7465   -2.5811    1.4829 H   0  0  0  0  0  0  0  0  0  0  0  0
   -2.3698   -2.0638   -2.3444 H   0  0  0  0  0  0  0  0  0  0  0  0
   -3.7330   -2.7433   -1.3657 H   0  0  0  0  0  0  0  0  0  0  0  0
   -2.1124   -3.5550   -1.3620 H   0  0  0  0  0  0  0  0  0  0  0  0
   -1.2548    1.2354   -0.0841 H   0  0  0  0  0  0  0  0  0  0  0  0
   -2.5202    3.3848   -0.1766 H   0  0  0  0  0  0  0  0  0  0  0  0
   -5.0377    3.3615   -0.2253 H   0  0  0  0  0  0  0  0  0  0  0  0
   -6.2664    1.1785   -0.1756 H   0  0  0  0  0  0  0  0  0  0  0  0
   -5.0078   -0.9672   -0.0758 H   0  0  0  0  0  0  0  0  0  0  0  0
  1  4  1  0  0  0  0
  3  1  1  0  0  0  0
  3  2  3  0  0  0  0
  4 13  1  0  0  0  0
  4 12  1  0  0  0  0
  5 16  1  0  0  0  0
  5 17  1  0  0  0  0
  5  1  1  0  0  0  0
  6  1  1  0  0  0  0
  7 18  1  0  0  0  0
  7  6  2  0  0  0  0
  8  7  1  0  0  0  0
  9  8  2  0  0  0  0
  9 10  1  0  0  0  0
 10 11  2  0  0  0  0
 11 22  1  0  0  0  0
 11  6  1  0  0  0  0
 14  4  1  0  0  0  0
 15  5  1  0  0  0  0
 19  8  1  0  0  0  0
 20  9  1  0  0  0  0
 21 10  1  0  0  0  0
M  END
