9
 OpenBabel05122313113D

 31 30  0  0  1  0  0  0  0  0999 V2000
    2.7700    1.2593   -0.6356 S   0  0  0  0  0  0  0  0  0  0  0  0
    2.5079   -2.1363   -1.8490 F   0  0  0  0  0  0  0  0  0  0  0  0
    2.9355   -2.5866    0.2404 F   0  0  0  0  0  0  0  0  0  0  0  0
    1.1953   -3.4750   -0.7522 F   0  0  0  0  0  0  0  0  0  0  0  0
    0.6775   -2.9177    1.9199 F   0  0  0  0  0  0  0  0  0  0  0  0
    1.3497   -1.3982    3.3351 F   0  0  0  0  0  0  0  0  0  0  0  0
   -0.7466   -1.4831    2.7194 F   0  0  0  0  0  0  0  0  0  0  0  0
    1.9286   -2.3372   -0.6314 C   0  0  0  0  0  0  0  0  0  0  0  0
    1.0947   -1.1745   -0.2062 C   0  0  0  0  0  2  0  0  0  0  0  0
    0.8593   -0.6899    1.1220 C   0  0  0  0  0  0  0  0  0  0  0  0
    0.5314   -1.6297    2.2749 C   0  0  0  0  0  0  0  0  0  0  0  0
    0.3086    1.3118    2.5984 C   0  0  0  0  0  0  0  0  0  0  0  0
    0.7957    0.7222    1.2984 C   0  0  0  0  0  0  0  0  0  0  0  0
    1.1428    1.5738    0.1490 C   0  0  1  0  0  3  0  0  0  0  0  0
    0.8275    3.0580    0.2179 C   0  0  0  0  0  0  0  0  0  0  0  0
    3.9584    1.8649    0.6602 C   0  0  0  0  0  0  0  0  0  0  0  0
    5.2459    2.2509   -0.0697 C   0  0  0  0  0  0  0  0  0  0  0  0
    4.1886    0.8035    1.7350 C   0  0  0  0  0  0  0  0  0  0  0  0
    1.0925    1.1365    3.3638 H   0  0  0  0  0  0  0  0  0  0  0  0
    0.1351    2.3958    2.5253 H   0  0  0  0  0  0  0  0  0  0  0  0
   -0.6140    0.8321    2.9691 H   0  0  0  0  0  0  0  0  0  0  0  0
   -0.1974    3.2526    0.5816 H   0  0  0  0  0  0  0  0  0  0  0  0
    0.9206    3.5066   -0.7890 H   0  0  0  0  0  0  0  0  0  0  0  0
    1.5334    3.6035    0.8816 H   0  0  0  0  0  0  0  0  0  0  0  0
    3.5045    2.7743    1.1087 H   0  0  0  0  0  0  0  0  0  0  0  0
    5.0690    3.0550   -0.8102 H   0  0  0  0  0  0  0  0  0  0  0  0
    5.6745    1.3772   -0.6041 H   0  0  0  0  0  0  0  0  0  0  0  0
    6.0077    2.6016    0.6570 H   0  0  0  0  0  0  0  0  0  0  0  0
    4.8960    1.1784    2.5053 H   0  0  0  0  0  0  0  0  0  0  0  0
    3.2512    0.5144    2.2467 H   0  0  0  0  0  0  0  0  0  0  0  0
    4.6138   -0.1178    1.2875 H   0  0  0  0  0  0  0  0  0  0  0  0
  1 16  1  0  0  0  0
  2  8  1  0  0  0  0
  4  8  1  0  0  0  0
  5 11  1  0  0  0  0
  8  9  1  0  0  0  0
  8  3  1  0  0  0  0
  9 10  1  0  0  0  0
 10 13  2  0  0  0  0
 10 11  1  0  0  0  0
 11  7  1  0  0  0  0
 11  6  1  0  0  0  0
 12 21  1  0  0  0  0
 12 19  1  0  0  0  0
 13 12  1  0  0  0  0
 14  1  1  1  0  0  0
 14 15  1  0  0  0  0
 14 13  1  0  0  0  0
 15 22  1  0  0  0  0
 15 24  1  0  0  0  0
 16 25  1  0  0  0  0
 16 18  1  0  0  0  0
 17 28  1  0  0  0  0
 17 16  1  0  0  0  0
 18 30  1  0  0  0  0
 18 29  1  0  0  0  0
 20 12  1  0  0  0  0
 23 15  1  0  0  0  0
 26 17  1  0  0  0  0
 27 17  1  0  0  0  0
 31 18  1  0  0  0  0
M  END
