15
 OpenBabel05122313113D

 29 29  0  0  0  0  0  0  0  0999 V2000
   -2.7694   -2.8961    0.3040 S   0  0  0  0  0  0  0  0  0  0  0  0
   -4.6886    0.8401   -0.4168 S   0  0  0  0  0  0  0  0  0  0  0  0
   -3.2677   -3.1423    2.8757 F   0  0  0  0  0  0  0  0  0  0  0  0
   -4.5887   -1.7319    1.8630 F   0  0  0  0  0  0  0  0  0  0  0  0
   -2.5222   -1.1677    2.3115 F   0  0  0  0  0  0  0  0  0  0  0  0
   -5.8832    2.3773   -2.2349 F   0  0  0  0  0  0  0  0  0  0  0  0
   -4.8011    3.4982   -0.7041 F   0  0  0  0  0  0  0  0  0  0  0  0
   -6.6881    2.5224   -0.2108 F   0  0  0  0  0  0  0  0  0  0  0  0
   -2.9148   -1.5452   -0.6653 O   0  0  0  0  0  0  0  0  0  0  0  0
   -3.7953   -3.8173   -0.1655 O   0  0  0  0  0  1  0  0  0  0  0  0
   -1.3527   -3.2635    0.4735 O   0  0  0  0  0  1  0  0  0  0  0  0
   -3.5407    0.8789   -1.6602 O   0  0  0  0  0  0  0  0  0  0  0  0
   -4.0237    1.0827    0.8728 O   0  0  0  0  0  1  0  0  0  0  0  0
   -5.6431   -0.2444   -0.6443 O   0  0  0  0  0  1  0  0  0  0  0  0
   -1.8674   -0.6323   -0.8008 C   0  0  0  0  0  3  0  0  0  0  0  0
   -2.2106    0.5718   -1.3416 C   0  0  0  0  0  0  0  0  0  0  0  0
   -1.2332    1.6527   -1.5903 C   0  0  0  0  0  0  0  0  0  0  0  0
   -1.5051    2.9709   -1.1601 C   0  0  0  0  0  0  0  0  0  0  0  0
   -0.5321    3.9690   -1.2867 C   0  0  0  0  0  0  0  0  0  0  0  0
    0.7302    3.6697   -1.8277 C   0  0  0  0  0  0  0  0  0  0  0  0
    1.0045    2.3702   -2.2782 C   0  0  0  0  0  0  0  0  0  0  0  0
    0.0203    1.3747   -2.1872 C   0  0  0  0  0  0  0  0  0  0  0  0
   -3.3427   -2.1692    1.9661 C   0  0  0  0  0  0  0  0  0  0  0  0
   -5.5760    2.4347   -0.9432 C   0  0  0  0  0  0  0  0  0  0  0  0
   -2.4701    3.1969   -0.6894 H   0  0  0  0  0  0  0  0  0  0  0  0
   -0.7530    4.9876   -0.9338 H   0  0  0  0  0  0  0  0  0  0  0  0
    1.5010    4.4519   -1.9006 H   0  0  0  0  0  0  0  0  0  0  0  0
    1.9879    2.1202   -2.7018 H   0  0  0  0  0  0  0  0  0  0  0  0
    0.2234    0.3746   -2.5998 H   0  0  0  0  0  0  0  0  0  0  0  0
  1 11  1  0  0  0  0
  1 23  1  0  0  0  0
  2 13  1  0  0  0  0
  4 23  1  0  0  0  0
  6 24  1  0  0  0  0
  9  1  1  0  0  0  0
 10  1  1  0  0  0  0
 12 16  1  0  0  0  0
 12  2  1  0  0  0  0
 14  2  1  0  0  0  0
 15  9  1  0  0  0  0
 16 15  2  0  0  0  0
 17 16  1  0  0  0  0
 17 18  1  0  0  0  0
 18 25  1  0  0  0  0
 19 18  2  0  0  0  0
 19 26  1  0  0  0  0
 20 19  1  0  0  0  0
 21 22  1  0  0  0  0
 21 20  2  0  0  0  0
 22 17  2  0  0  0  0
 23  5  1  0  0  0  0
 23  3  1  0  0  0  0
 24  7  1  0  0  0  0
 24  2  1  0  0  0  0
 24  8  1  0  0  0  0
 27 20  1  0  0  0  0
 28 21  1  0  0  0  0
 29 22  1  0  0  0  0
M  END
