1
 OpenBabel05122313113D

 34 36  0  0  1  0  0  0  0  0999 V2000
    2.4721   -0.5633    0.7355 C   0  0  1  0  0  3  0  0  0  0  0  0
    1.5577   -1.0385    1.7980 C   0  0  2  0  0  3  0  0  0  0  0  0
    1.0084    0.3049    1.9595 C   0  0  0  0  0  0  0  0  0  0  0  0
    1.9245    0.8232    0.9263 C   0  0  0  0  0  0  0  0  0  0  0  0
    1.3880   -2.3272    2.5136 C   0  0  0  0  0  0  0  0  0  0  0  0
    0.0879    0.9038    2.9615 C   0  0  0  0  0  0  0  0  0  0  0  0
    2.3109    2.1563    0.4851 C   0  0  0  0  0  0  0  0  0  0  0  0
    1.8977    3.3003    1.2112 C   0  0  0  0  0  0  0  0  0  0  0  0
    2.2437    4.5848    0.7744 C   0  0  0  0  0  0  0  0  0  0  0  0
    3.0109    4.7505   -0.3909 C   0  0  0  0  0  0  0  0  0  0  0  0
    3.4322    3.6216   -1.1133 C   0  0  0  0  0  0  0  0  0  0  0  0
    3.0869    2.3351   -0.6853 C   0  0  0  0  0  0  0  0  0  0  0  0
    3.6644   -1.1568    0.1127 C   0  0  0  0  0  0  0  0  0  0  0  0
    4.6416   -1.7606    0.9355 C   0  0  0  0  0  0  0  0  0  0  0  0
    5.7941   -2.3272    0.3731 C   0  0  0  0  0  0  0  0  0  0  0  0
    5.9834   -2.3010   -1.0174 C   0  0  0  0  0  0  0  0  0  0  0  0
    5.0094   -1.7144   -1.8425 C   0  0  0  0  0  0  0  0  0  0  0  0
    3.8541   -1.1488   -1.2877 C   0  0  0  0  0  0  0  0  0  0  0  0
    0.4515   -2.3268    3.1041 H   0  0  0  0  0  0  0  0  0  0  0  0
    2.2401   -2.5079    3.2024 H   0  0  0  0  0  0  0  0  0  0  0  0
    1.3387   -3.1575    1.7800 H   0  0  0  0  0  0  0  0  0  0  0  0
   -0.5992    0.1397    3.3719 H   0  0  0  0  0  0  0  0  0  0  0  0
   -0.5249    1.7167    2.5280 H   0  0  0  0  0  0  0  0  0  0  0  0
    0.6750    1.3275    3.8048 H   0  0  0  0  0  0  0  0  0  0  0  0
    1.3038    3.1800    2.1277 H   0  0  0  0  0  0  0  0  0  0  0  0
    1.9168    5.4633    1.3513 H   0  0  0  0  0  0  0  0  0  0  0  0
    3.2816    5.7602   -0.7352 H   0  0  0  0  0  0  0  0  0  0  0  0
    4.0290    3.7451   -2.0293 H   0  0  0  0  0  0  0  0  0  0  0  0
    3.3944    1.4579   -1.2676 H   0  0  0  0  0  0  0  0  0  0  0  0
    4.4981   -1.7740    2.0268 H   0  0  0  0  0  0  0  0  0  0  0  0
    6.5491   -2.7915    1.0257 H   0  0  0  0  0  0  0  0  0  0  0  0
    6.8871   -2.7476   -1.4596 H   0  0  0  0  0  0  0  0  0  0  0  0
    5.1419   -1.7114   -2.9351 H   0  0  0  0  0  0  0  0  0  0  0  0
    3.0617   -0.7314   -1.9310 H   0  0  0  0  0  0  0  0  0  0  0  0
  1 13  1  1  0  0  0
  1  4  1  0  0  0  0
  1  2  1  0  0  0  0
  2  3  1  0  0  0  0
  2  5  1  1  0  0  0
  3  6  1  0  0  0  0
  4  3  2  0  0  0  0
  5 19  1  0  0  0  0
  5 20  1  0  0  0  0
  6 22  1  0  0  0  0
  6 24  1  0  0  0  0
  7  4  1  0  0  0  0
  7  8  1  0  0  0  0
  8 25  1  0  0  0  0
  9  8  2  0  0  0  0
  9 26  1  0  0  0  0
 10  9  1  0  0  0  0
 11 12  1  0  0  0  0
 11 10  2  0  0  0  0
 12  7  2  0  0  0  0
 13 14  1  0  0  0  0
 14 30  1  0  0  0  0
 15 14  2  0  0  0  0
 15 31  1  0  0  0  0
 16 15  1  0  0  0  0
 17 18  1  0  0  0  0
 17 16  2  0  0  0  0
 18 13  2  0  0  0  0
 21  5  1  0  0  0  0
 23  6  1  0  0  0  0
 27 10  1  0  0  0  0
 28 11  1  0  0  0  0
 29 12  1  0  0  0  0
 32 16  1  0  0  0  0
 33 17  1  0  0  0  0
 34 18  1  0  0  0  0
M  END
