1
 OpenBabel05122313113D

 21 21  0  0  0  0  0  0  0  0999 V2000
    0.0606    1.3754    0.3882 C   0  0  0  0  0  3  0  0  0  0  0  0
   -0.5616    2.0941    1.1568 O   0  0  0  0  0  0  0  0  0  0  0  0
    1.1140    1.8131   -0.3901 N   0  0  0  0  0  0  0  0  0  0  0  0
    1.4535    1.1397   -1.0815 H   0  0  0  0  0  0  0  0  0  0  0  0
    1.6062    3.1468   -0.4806 C   0  0  0  0  0  0  0  0  0  0  0  0
    2.0856    3.8204    0.6714 C   0  0  0  0  0  0  0  0  0  0  0  0
    2.5705    5.1332    0.5083 C   0  0  0  0  0  0  0  0  0  0  0  0
    2.9434    5.6710    1.3940 H   0  0  0  0  0  0  0  0  0  0  0  0
    2.6050    5.7488   -0.7486 C   0  0  0  0  0  0  0  0  0  0  0  0
    2.9940    6.7732   -0.8501 H   0  0  0  0  0  0  0  0  0  0  0  0
    2.1518    5.0545   -1.8787 C   0  0  0  0  0  0  0  0  0  0  0  0
    2.1794    5.5326   -2.8703 H   0  0  0  0  0  0  0  0  0  0  0  0
    1.6419    3.7498   -1.7645 C   0  0  0  0  0  0  0  0  0  0  0  0
    2.1069    3.1599    2.0224 C   0  0  0  0  0  0  0  0  0  0  0  0
    2.7526    3.7171    2.7272 H   0  0  0  0  0  0  0  0  0  0  0  0
    2.4789    2.1161    1.9537 H   0  0  0  0  0  0  0  0  0  0  0  0
    1.0831    3.0915    2.4432 H   0  0  0  0  0  0  0  0  0  0  0  0
    1.1337    3.0020   -2.9707 C   0  0  0  0  0  0  0  0  0  0  0  0
    1.1199    3.6522   -3.8657 H   0  0  0  0  0  0  0  0  0  0  0  0
    0.1068    2.6146   -2.8054 H   0  0  0  0  0  0  0  0  0  0  0  0
    1.7693    2.1223   -3.2164 H   0  0  0  0  0  0  0  0  0  0  0  0
  1  2  2  0  0  0  0
  3  1  1  0  0  0  0
  4  3  1  0  0  0  0
  5  3  1  0  0  0  0
  5  6  1  0  0  0  0
  6 14  1  0  0  0  0
  7  6  2  0  0  0  0
  7  8  1  0  0  0  0
  9  7  1  0  0  0  0
 10  9  1  0  0  0  0
 11 13  1  0  0  0  0
 11  9  2  0  0  0  0
 12 11  1  0  0  0  0
 13  5  2  0  0  0  0
 14 17  1  0  0  0  0
 14 15  1  0  0  0  0
 16 14  1  0  0  0  0
 18 20  1  0  0  0  0
 18 13  1  0  0  0  0
 19 18  1  0  0  0  0
 21 18  1  0  0  0  0
M  END
