16
 OpenBabel05122313113D

 40 42  0  0  0  0  0  0  0  0999 V2000
    1.8646   -1.5901   -0.2247 N   0  0  0  0  0  0  0  0  0  0  0  0
   -0.2967   -2.2289   -2.1378 N   0  0  0  0  0  0  0  0  0  0  0  0
   -2.2061   -2.0152   -1.1660 N   0  0  0  0  0  0  0  0  0  0  0  0
    2.6760   -1.7995    0.8244 C   0  0  0  0  0  0  0  0  0  0  0  0
    2.4678   -1.1873    1.7184 H   0  0  0  0  0  0  0  0  0  0  0  0
    3.7210   -2.7358    0.7957 C   0  0  0  0  0  0  0  0  0  0  0  0
    4.3627   -2.8667    1.6786 H   0  0  0  0  0  0  0  0  0  0  0  0
    3.9213   -3.4847   -0.3696 C   0  0  0  0  0  0  0  0  0  0  0  0
    4.7259   -4.2331   -0.4287 H   0  0  0  0  0  0  0  0  0  0  0  0
    3.0702   -3.2695   -1.4653 C   0  0  0  0  0  0  0  0  0  0  0  0
    3.1909   -3.8425   -2.3967 H   0  0  0  0  0  0  0  0  0  0  0  0
    2.0537   -2.3090   -1.3494 C   0  0  0  0  0  0  0  0  0  0  0  0
    1.1054   -2.0120   -2.4948 C   0  0  0  0  0  0  0  0  0  0  0  0
    1.2188   -0.9488   -2.7927 H   0  0  0  0  0  0  0  0  0  0  0  0
    1.3408   -2.6398   -3.3728 H   0  0  0  0  0  0  0  0  0  0  0  0
   -0.9613   -1.4578   -1.2267 C   0  0  0  0  0  2  0  0  0  0  0  0
   -1.0958   -3.2542   -2.6259 C   0  0  0  0  0  0  0  0  0  0  0  0
   -0.7419   -3.9829   -3.3615 H   0  0  0  0  0  0  0  0  0  0  0  0
   -2.3132   -3.1143   -2.0106 C   0  0  0  0  0  0  0  0  0  0  0  0
   -3.2380   -3.6924   -2.0958 H   0  0  0  0  0  0  0  0  0  0  0  0
   -3.2840   -1.5317   -0.3392 C   0  0  0  0  0  0  0  0  0  0  0  0
   -3.3431   -1.9587    1.0071 C   0  0  0  0  0  0  0  0  0  0  0  0
   -4.3819   -1.4424    1.7995 C   0  0  0  0  0  0  0  0  0  0  0  0
   -4.4398   -1.7511    2.8551 H   0  0  0  0  0  0  0  0  0  0  0  0
   -5.3490   -0.5567    1.2832 C   0  0  0  0  0  0  0  0  0  0  0  0
   -5.2718   -0.1995   -0.0746 C   0  0  0  0  0  0  0  0  0  0  0  0
   -6.0278    0.4806   -0.4975 H   0  0  0  0  0  0  0  0  0  0  0  0
   -4.2471   -0.6761   -0.9121 C   0  0  0  0  0  0  0  0  0  0  0  0
   -2.3387   -2.9332    1.5592 C   0  0  0  0  0  0  0  0  0  0  0  0
   -2.2324   -3.8239    0.9067 H   0  0  0  0  0  0  0  0  0  0  0  0
   -2.6347   -3.2757    2.5676 H   0  0  0  0  0  0  0  0  0  0  0  0
   -1.3379   -2.4598    1.6511 H   0  0  0  0  0  0  0  0  0  0  0  0
   -6.4343   -0.0093    2.1739 C   0  0  0  0  0  0  0  0  0  0  0  0
   -7.1440    0.6292    1.6143 H   0  0  0  0  0  0  0  0  0  0  0  0
   -6.0046    0.5963    2.9993 H   0  0  0  0  0  0  0  0  0  0  0  0
   -7.0131   -0.8264    2.6511 H   0  0  0  0  0  0  0  0  0  0  0  0
   -4.2066   -0.2980   -2.3706 C   0  0  0  0  0  0  0  0  0  0  0  0
   -4.7182    0.6674   -2.5445 H   0  0  0  0  0  0  0  0  0  0  0  0
   -4.7186   -1.0594   -2.9970 H   0  0  0  0  0  0  0  0  0  0  0  0
   -3.1707   -0.2182   -2.7530 H   0  0  0  0  0  0  0  0  0  0  0  0
  1  4  1  0  0  0  0
  2 16  1  0  0  0  0
  3 21  1  0  0  0  0
  4  5  1  0  0  0  0
  6  4  2  0  0  0  0
  6  7  1  0  0  0  0
  8  6  1  0  0  0  0
  9  8  1  0  0  0  0
 10 12  1  0  0  0  0
 10  8  2  0  0  0  0
 11 10  1  0  0  0  0
 12  1  2  0  0  0  0
 13  2  1  0  0  0  0
 13 12  1  0  0  0  0
 14 13  1  0  0  0  0
 15 13  1  0  0  0  0
 16  3  1  0  0  0  0
 17  2  1  0  0  0  0
 17 19  2  0  0  0  0
 18 17  1  0  0  0  0
 19  3  1  0  0  0  0
 20 19  1  0  0  0  0
 21 22  1  0  0  0  0
 22 29  1  0  0  0  0
 22 23  2  0  0  0  0
 23 24  1  0  0  0  0
 25 23  1  0  0  0  0
 25 33  1  0  0  0  0
 26 25  2  0  0  0  0
 27 26  1  0  0  0  0
 28 21  2  0  0  0  0
 28 26  1  0  0  0  0
 29 32  1  0  0  0  0
 29 31  1  0  0  0  0
 30 29  1  0  0  0  0
 33 36  1  0  0  0  0
 33 35  1  0  0  0  0
 34 33  1  0  0  0  0
 37 28  1  0  0  0  0
 38 37  1  0  0  0  0
 39 37  1  0  0  0  0
 40 37  1  0  0  0  0
M  END
