7
 OpenBabel05122313113D

 18 17  0  0  0  0  0  0  0  0999 V2000
   -0.1414    3.4220   -1.4259 O   0  0  0  0  0  0  0  0  0  0  0  0
    1.3873    3.6315    0.2344 O   0  0  0  0  0  0  0  0  0  0  0  0
    1.7993   -0.6105   -3.9180 O   0  0  0  0  0  0  0  0  0  0  0  0
    3.0236   -0.4686   -2.0104 O   0  0  0  0  0  0  0  0  0  0  0  0
    1.4144    1.6178   -0.9892 C   0  0  0  0  0  3  0  0  0  0  0  0
    2.3725    1.4395   -0.4806 H   0  0  0  0  0  0  0  0  0  0  0  0
    1.1096    0.9327   -2.2164 C   0  0  0  0  0  3  0  0  0  0  0  0
    0.4364    1.4139   -2.9444 H   0  0  0  0  0  0  0  0  0  0  0  0
    0.7891    2.9481   -0.7887 C   0  0  0  0  0  0  0  0  0  0  0  0
    0.8540    4.9326    0.4904 C   0  0  0  0  0  0  0  0  0  0  0  0
    0.8998    5.5665   -0.4178 H   0  0  0  0  0  0  0  0  0  0  0  0
    1.4752    5.3660    1.2955 H   0  0  0  0  0  0  0  0  0  0  0  0
   -0.2055    4.8756    0.8145 H   0  0  0  0  0  0  0  0  0  0  0  0
    1.9875   -0.1045   -2.8245 C   0  0  0  0  0  0  0  0  0  0  0  0
    3.8030   -1.5617   -2.4991 C   0  0  0  0  0  0  0  0  0  0  0  0
    3.2013   -2.4948   -2.4987 H   0  0  0  0  0  0  0  0  0  0  0  0
    4.6619   -1.6586   -1.8114 H   0  0  0  0  0  0  0  0  0  0  0  0
    4.1495   -1.3735   -3.5349 H   0  0  0  0  0  0  0  0  0  0  0  0
  1  9  2  0  0  0  0
  2 10  1  0  0  0  0
  3 14  2  0  0  0  0
  5  9  1  0  0  0  0
  5  6  1  0  0  0  0
  7  5  1  0  0  0  0
  8  7  1  0  0  0  0
  9  2  1  0  0  0  0
 10 13  1  0  0  0  0
 10 12  1  0  0  0  0
 11 10  1  0  0  0  0
 14  7  1  0  0  0  0
 14  4  1  0  0  0  0
 15 16  1  0  0  0  0
 15  4  1  0  0  0  0
 15 17  1  0  0  0  0
 18 15  1  0  0  0  0
M  END
