1
 OpenBabel05122313113D

 33 33  0  0  0  0  0  0  0  0999 V2000
    1.8556   -0.1057   -1.5970 C   0  0  0  0  0  3  0  0  0  0  0  0
    1.4803   -1.4353   -1.4417 C   0  0  0  0  0  3  0  0  0  0  0  0
    2.0654   -2.4035   -0.4369 C   0  0  0  0  0  0  0  0  0  0  0  0
    1.1162   -2.8306    0.7069 C   0  0  0  0  0  0  0  0  0  0  0  0
    0.6876   -1.6774    1.5768 C   0  0  0  0  0  0  0  0  0  0  0  0
   -0.5897   -1.4366    1.9556 C   0  0  0  0  0  0  0  0  0  0  0  0
   -1.0800   -0.3003    2.8189 C   0  0  0  0  0  0  0  0  0  0  0  0
   -0.3155    1.0312    2.6720 C   0  0  0  0  0  0  0  0  0  0  0  0
   -0.5417    1.6895    1.3376 C   0  0  0  0  0  0  0  0  0  0  0  0
    0.3898    2.2212    0.4918 C   0  0  0  0  0  0  0  0  0  0  0  0
    1.8715    2.3499    0.7162 C   0  0  0  0  0  0  0  0  0  0  0  0
    2.7603    2.0771   -0.5113 C   0  0  0  0  0  0  0  0  0  0  0  0
    2.9729    0.5940   -0.8621 C   0  0  0  0  0  0  0  0  0  0  0  0
    1.5044    0.4109   -2.5107 H   0  0  0  0  0  0  0  0  0  0  0  0
    0.8391   -1.8770   -2.2253 H   0  0  0  0  0  0  0  0  0  0  0  0
    2.3889   -3.3136   -0.9859 H   0  0  0  0  0  0  0  0  0  0  0  0
    2.9849   -1.9742    0.0112 H   0  0  0  0  0  0  0  0  0  0  0  0
    0.2188   -3.3379    0.2940 H   0  0  0  0  0  0  0  0  0  0  0  0
    1.6527   -3.5864    1.3241 H   0  0  0  0  0  0  0  0  0  0  0  0
    1.4972   -1.0106    1.9311 H   0  0  0  0  0  0  0  0  0  0  0  0
   -1.3707   -2.1282    1.5938 H   0  0  0  0  0  0  0  0  0  0  0  0
   -1.0636   -0.6174    3.8862 H   0  0  0  0  0  0  0  0  0  0  0  0
   -2.1498   -0.1265    2.5779 H   0  0  0  0  0  0  0  0  0  0  0  0
    0.7660    0.8914    2.8763 H   0  0  0  0  0  0  0  0  0  0  0  0
   -0.6827    1.7243    3.4619 H   0  0  0  0  0  0  0  0  0  0  0  0
   -1.5974    1.8002    1.0321 H   0  0  0  0  0  0  0  0  0  0  0  0
   -0.0012    2.7275   -0.4104 H   0  0  0  0  0  0  0  0  0  0  0  0
    2.2023    1.7156    1.5663 H   0  0  0  0  0  0  0  0  0  0  0  0
    2.0593    3.3998    1.0382 H   0  0  0  0  0  0  0  0  0  0  0  0
    2.3534    2.6185   -1.3942 H   0  0  0  0  0  0  0  0  0  0  0  0
    3.7576    2.5229   -0.3177 H   0  0  0  0  0  0  0  0  0  0  0  0
    3.8666    0.5305   -1.5249 H   0  0  0  0  0  0  0  0  0  0  0  0
    3.2442    0.0400    0.0600 H   0  0  0  0  0  0  0  0  0  0  0  0
  1  2  1  0  0  0  0
  1 13  1  0  0  0  0
  2  3  1  0  0  0  0
  3 17  1  0  0  0  0
  3  4  1  0  0  0  0
  4 19  1  0  0  0  0
  4  5  1  0  0  0  0
  5 20  1  0  0  0  0
  5  6  2  0  0  0  0
  6  7  1  0  0  0  0
  7 22  1  0  0  0  0
  8  7  1  0  0  0  0
  8 24  1  0  0  0  0
  8 25  1  0  0  0  0
  9  8  1  0  0  0  0
 10 11  1  0  0  0  0
 10  9  2  0  0  0  0
 11 29  1  0  0  0  0
 11 28  1  0  0  0  0
 12 31  1  0  0  0  0
 12 11  1  0  0  0  0
 13 12  1  0  0  0  0
 13 33  1  0  0  0  0
 14  1  1  0  0  0  0
 15  2  1  0  0  0  0
 16  3  1  0  0  0  0
 18  4  1  0  0  0  0
 21  6  1  0  0  0  0
 23  7  1  0  0  0  0
 26  9  1  0  0  0  0
 27 10  1  0  0  0  0
 30 12  1  0  0  0  0
 32 13  1  0  0  0  0
M  END
