9
 OpenBabel05122313113D

 14 14  0  0  0  0  0  0  0  0999 V2000
   -3.9478   -1.5677    0.2624 N   0  0  0  0  0  0  0  0  0  0  0  0
   -4.4027   -1.6080    1.1731 H   0  0  0  0  0  0  0  0  0  0  0  0
   -4.5631   -1.4754   -0.5444 H   0  0  0  0  0  0  0  0  0  0  0  0
   -2.7049   -2.1164    0.1038 C   0  0  0  0  0  0  0  0  0  0  0  0
   -1.9273   -2.5158    1.2459 C   0  0  0  0  0  0  0  0  0  0  0  0
   -2.3452   -2.4018    2.2560 H   0  0  0  0  0  0  0  0  0  0  0  0
   -0.6541   -3.0975    1.0679 C   0  0  0  0  0  3  0  0  0  0  0  0
   -0.0818   -3.4287    1.9460 H   0  0  0  0  0  0  0  0  0  0  0  0
   -0.1172   -3.2764   -0.2458 C   0  0  0  0  0  3  0  0  0  0  0  0
    0.8656   -3.7499   -0.3755 H   0  0  0  0  0  0  0  0  0  0  0  0
   -0.8820   -2.8867   -1.3884 C   0  0  0  0  0  0  0  0  0  0  0  0
   -0.4975   -3.0594   -2.4027 H   0  0  0  0  0  0  0  0  0  0  0  0
   -2.1446   -2.2768   -1.2116 C   0  0  0  0  0  0  0  0  0  0  0  0
   -2.7317   -1.9672   -2.0887 H   0  0  0  0  0  0  0  0  0  0  0  0
  1  2  1  0  0  0  0
  3  1  1  0  0  0  0
  4  1  1  0  0  0  0
  4  5  2  0  0  0  0
  5  6  1  0  0  0  0
  7  5  1  0  0  0  0
  7  8  1  0  0  0  0
  9  7  1  0  0  0  0
 10  9  1  0  0  0  0
 11 13  2  0  0  0  0
 11  9  1  0  0  0  0
 12 11  1  0  0  0  0
 13  4  1  0  0  0  0
 14 13  1  0  0  0  0
M  END
