2
 OpenBabel05122313113D

 19 19  0  0  1  0  0  0  0  0999 V2000
   -1.2485    0.8369   -1.6756 C   0  0  0  0  0  3  0  0  0  0  0  0
   -0.2979    1.5494   -0.8610 C   0  0  1  0  0  3  0  0  0  0  0  0
    0.9754    0.8861   -0.6570 C   0  0  0  0  0  0  0  0  0  0  0  0
    1.1367   -0.4477   -1.2191 C   0  0  0  0  0  0  0  0  0  0  0  0
    2.2762   -1.2281   -0.8275 C   0  0  0  0  0  0  0  0  0  0  0  0
    3.2270   -0.7202    0.0347 C   0  0  0  0  0  0  0  0  0  0  0  0
    3.1156    0.6250    0.5101 C   0  0  0  0  0  0  0  0  0  0  0  0
    2.0316    1.4082    0.1782 C   0  0  0  0  0  0  0  0  0  0  0  0
   -0.5918    2.9076   -0.2788 C   0  0  0  0  0  0  0  0  0  0  0  0
   -0.9268    0.3115   -2.5892 H   0  0  0  0  0  0  0  0  0  0  0  0
   -2.2676    1.2503   -1.7355 H   0  0  0  0  0  0  0  0  0  0  0  0
    0.6535   -0.7140   -2.1686 H   0  0  0  0  0  0  0  0  0  0  0  0
    2.3991   -2.2331   -1.2593 H   0  0  0  0  0  0  0  0  0  0  0  0
    4.0952   -1.3297    0.3258 H   0  0  0  0  0  0  0  0  0  0  0  0
    3.9098    1.0378    1.1506 H   0  0  0  0  0  0  0  0  0  0  0  0
    1.9582    2.4390    0.5521 H   0  0  0  0  0  0  0  0  0  0  0  0
   -0.1670    3.0376    0.7347 H   0  0  0  0  0  0  0  0  0  0  0  0
   -1.6835    3.0771   -0.2137 H   0  0  0  0  0  0  0  0  0  0  0  0
   -0.1711    3.7030   -0.9316 H   0  0  0  0  0  0  0  0  0  0  0  0
  2  1  1  6  0  0  0
  2  3  1  0  0  0  0
  2  9  1  0  0  0  0
  3  8  1  0  0  0  0
  4  5  1  0  0  0  0
  4  3  2  0  0  0  0
  5  6  2  0  0  0  0
  6 14  1  0  0  0  0
  6  7  1  0  0  0  0
  7 15  1  0  0  0  0
  8  7  2  0  0  0  0
  8 16  1  0  0  0  0
  9 18  1  0  0  0  0
  9 17  1  0  0  0  0
 10  1  1  0  0  0  0
 11  1  1  0  0  0  0
 12  4  1  0  0  0  0
 13  5  1  0  0  0  0
 19  9  1  0  0  0  0
M  END
