1
 OpenBabel05122313113D

 25 27  0  0  0  0  0  0  0  0999 V2000
    0.2392   -0.0945    0.1345 C   0  0  0  0  0  3  0  0  0  0  0  0
   -1.0008   -0.0458    0.0404 C   0  0  0  0  0  0  0  0  0  0  0  0
   -2.5434   -2.4974   -0.1934 C   0  0  0  0  0  0  0  0  0  0  0  0
   -1.4449   -2.5381   -0.1450 H   0  0  0  0  0  0  0  0  0  0  0  0
   -3.2881   -3.6571   -0.3090 C   0  0  0  0  0  0  0  0  0  0  0  0
   -2.7836   -4.6342   -0.3541 H   0  0  0  0  0  0  0  0  0  0  0  0
   -4.7124   -3.6001   -0.3694 C   0  0  0  0  0  0  0  0  0  0  0  0
   -5.2923   -4.5303   -0.4614 H   0  0  0  0  0  0  0  0  0  0  0  0
   -5.3576   -2.3805   -0.3115 C   0  0  0  0  0  0  0  0  0  0  0  0
   -6.4560   -2.3256   -0.3566 H   0  0  0  0  0  0  0  0  0  0  0  0
   -5.2131    2.5622    0.0587 C   0  0  0  0  0  0  0  0  0  0  0  0
   -6.3127    2.5778    0.0095 H   0  0  0  0  0  0  0  0  0  0  0  0
   -4.4995    3.7382    0.1810 C   0  0  0  0  0  0  0  0  0  0  0  0
   -5.0247    4.7034    0.2304 H   0  0  0  0  0  0  0  0  0  0  0  0
   -3.0748    3.7034    0.2449 C   0  0  0  0  0  0  0  0  0  0  0  0
   -2.5147    4.6455    0.3451 H   0  0  0  0  0  0  0  0  0  0  0  0
   -2.3993    2.4979    0.1840 C   0  0  0  0  0  0  0  0  0  0  0  0
   -1.3003    2.4701    0.2377 H   0  0  0  0  0  0  0  0  0  0  0  0
   -2.4238   -0.0017   -0.0106 C   0  0  0  0  0  0  0  0  0  0  0  0
   -5.2673    0.0907   -0.1289 C   0  0  0  0  0  0  0  0  0  0  0  0
   -6.3670    0.1267   -0.1759 H   0  0  0  0  0  0  0  0  0  0  0  0
   -4.6195   -1.1576   -0.1908 C   0  0  0  0  0  0  0  0  0  0  0  0
   -4.5474    1.2944   -0.0067 C   0  0  0  0  0  0  0  0  0  0  0  0
   -3.1720   -1.2150   -0.1310 C   0  0  0  0  0  0  0  0  0  0  0  0
   -3.0993    1.2579    0.0558 C   0  0  0  0  0  0  0  0  0  0  0  0
  2  1  3  0  0  0  0
  3  4  1  0  0  0  0
  3 24  1  0  0  0  0
  5  3  2  0  0  0  0
  6  5  1  0  0  0  0
  7  9  2  0  0  0  0
  7  5  1  0  0  0  0
  8  7  1  0  0  0  0
  9 22  1  0  0  0  0
 10  9  1  0  0  0  0
 11 13  1  0  0  0  0
 12 11  1  0  0  0  0
 13 14  1  0  0  0  0
 13 15  2  0  0  0  0
 15 16  1  0  0  0  0
 17 18  1  0  0  0  0
 17 15  1  0  0  0  0
 19  2  1  0  0  0  0
 19 25  1  0  0  0  0
 20 23  1  0  0  0  0
 21 20  1  0  0  0  0
 22 24  1  0  0  0  0
 22 20  2  0  0  0  0
 23 25  1  0  0  0  0
 23 11  2  0  0  0  0
 24 19  2  0  0  0  0
 25 17  2  0  0  0  0
M  END
