3
 OpenBabel05122313113D

 49 52  0  0  1  0  0  0  0  0999 V2000
   -4.0175    1.7687    0.1544 S   0  0  0  0  0  0  0  0  0  0  0  0
    4.9695   -0.1681    0.0242 O   0  0  0  0  0  0  0  0  0  0  0  0
   -2.5259    0.8850    0.0171 C   0  0  0  0  0  2  0  0  0  0  0  0
    3.8413   -0.9395    0.1254 C   0  0  1  0  0  3  0  0  0  0  0  0
    3.4235   -4.6373    0.8341 C   0  0  0  0  0  0  0  0  0  0  0  0
    2.6366   -5.3251    1.1777 H   0  0  0  0  0  0  0  0  0  0  0  0
    2.5963   -0.3659    0.0717 C   0  0  0  0  0  0  0  0  0  0  0  0
    1.7236   -1.0244    0.1448 H   0  0  0  0  0  0  0  0  0  0  0  0
    5.7058   -4.2356    0.1057 C   0  0  0  0  0  0  0  0  0  0  0  0
    6.7122   -4.6101   -0.1347 H   0  0  0  0  0  0  0  0  0  0  0  0
   -0.0579    1.0293   -0.0612 C   0  0  0  0  0  0  0  0  0  0  0  0
   -0.0503   -0.0699   -0.0732 H   0  0  0  0  0  0  0  0  0  0  0  0
    4.8808    1.1903   -0.1038 C   0  0  0  0  0  0  0  0  0  0  0  0
    3.1359   -3.2740    0.7098 C   0  0  0  0  0  0  0  0  0  0  0  0
    2.1318   -2.9129    0.9744 H   0  0  0  0  0  0  0  0  0  0  0  0
   -3.6207    3.5226    0.3002 C   0  0  0  0  0  0  0  0  0  0  0  0
    4.1358   -2.3717    0.2737 C   0  0  0  0  0  0  0  0  0  0  0  0
    1.1757    1.7014   -0.0887 C   0  0  0  0  0  3  0  0  0  0  0  0
    1.1730    2.8035   -0.1304 H   0  0  0  0  0  0  0  0  0  0  0  0
    2.4287    1.0587   -0.0568 C   0  0  0  0  0  0  0  0  0  0  0  0
   -3.6268    4.3396   -0.8461 C   0  0  0  0  0  0  0  0  0  0  0  0
   -3.8504    3.8948   -1.8275 H   0  0  0  0  0  0  0  0  0  0  0  0
    4.7067   -5.1245    0.5327 C   0  0  0  0  0  0  0  0  0  0  0  0
    4.9276   -6.1979    0.6330 H   0  0  0  0  0  0  0  0  0  0  0  0
   -1.3169    1.6266   -0.0104 C   0  0  0  0  0  0  0  0  0  0  0  0
   -1.3474    2.7317    0.0226 H   0  0  0  0  0  0  0  0  0  0  0  0
    6.1958    1.8435   -0.1762 C   0  0  0  0  0  0  0  0  0  0  0  0
   -3.3406    4.0767    1.5641 C   0  0  0  0  0  0  0  0  0  0  0  0
   -3.3445    3.4278    2.4528 H   0  0  0  0  0  0  0  0  0  0  0  0
   -3.0573    5.4462    1.6758 C   0  0  0  0  0  0  0  0  0  0  0  0
   -2.8376    5.8793    2.6636 H   0  0  0  0  0  0  0  0  0  0  0  0
    7.3620    1.1421    0.2111 C   0  0  0  0  0  0  0  0  0  0  0  0
    7.2723    0.1081    0.5711 H   0  0  0  0  0  0  0  0  0  0  0  0
    6.3234    3.1779   -0.6286 C   0  0  0  0  0  0  0  0  0  0  0  0
    5.4359    3.7333   -0.9643 H   0  0  0  0  0  0  0  0  0  0  0  0
    5.4266   -2.8695   -0.0223 C   0  0  0  0  0  0  0  0  0  0  0  0
    6.2050   -2.1768   -0.3706 H   0  0  0  0  0  0  0  0  0  0  0  0
    3.6543    1.8083   -0.1311 C   0  0  0  0  0  0  0  0  0  0  0  0
    3.6126    2.9030   -0.2012 H   0  0  0  0  0  0  0  0  0  0  0  0
    8.7299    3.0899   -0.2891 C   0  0  0  0  0  0  0  0  0  0  0  0
    9.7161    3.5758   -0.3340 H   0  0  0  0  0  0  0  0  0  0  0  0
    7.5783    3.7933   -0.6815 C   0  0  0  0  0  0  0  0  0  0  0  0
    7.6605    4.8296   -1.0418 H   0  0  0  0  0  0  0  0  0  0  0  0
   -3.3446    5.7091   -0.7261 C   0  0  0  0  0  0  0  0  0  0  0  0
   -3.3495    6.3480   -1.6224 H   0  0  0  0  0  0  0  0  0  0  0  0
    8.6156    1.7634    0.1554 C   0  0  0  0  0  0  0  0  0  0  0  0
    9.5123    1.2063    0.4659 H   0  0  0  0  0  0  0  0  0  0  0  0
   -3.0594    6.2627    0.5327 C   0  0  0  0  0  0  0  0  0  0  0  0
   -2.8407    7.3374    0.6241 H   0  0  0  0  0  0  0  0  0  0  0  0
  1 16  1  0  0  0  0
  2  4  1  0  0  0  0
  3  1  1  0  0  0  0
  4 17  1  6  0  0  0
  5  6  1  0  0  0  0
  7  4  1  0  0  0  0
  7  8  1  0  0  0  0
  9 23  1  0  0  0  0
 10  9  1  0  0  0  0
 11 25  2  0  0  0  0
 12 11  1  0  0  0  0
 13  2  1  0  0  0  0
 14  5  1  0  0  0  0
 14 15  1  0  0  0  0
 16 28  1  0  0  0  0
 17 14  2  0  0  0  0
 18 11  1  0  0  0  0
 18 20  1  0  0  0  0
 19 18  1  0  0  0  0
 20  7  2  0  0  0  0
 21 44  1  0  0  0  0
 21 16  2  0  0  0  0
 22 21  1  0  0  0  0
 23 24  1  0  0  0  0
 23  5  2  0  0  0  0
 25  3  1  0  0  0  0
 25 26  1  0  0  0  0
 27 13  1  0  0  0  0
 27 32  1  0  0  0  0
 28 30  2  0  0  0  0
 28 29  1  0  0  0  0
 30 31  1  0  0  0  0
 32 33  1  0  0  0  0
 34 27  2  0  0  0  0
 35 34  1  0  0  0  0
 36  9  2  0  0  0  0
 36 17  1  0  0  0  0
 37 36  1  0  0  0  0
 38 13  2  0  0  0  0
 38 20  1  0  0  0  0
 39 38  1  0  0  0  0
 40 46  1  0  0  0  0
 41 40  1  0  0  0  0
 42 34  1  0  0  0  0
 42 40  2  0  0  0  0
 43 42  1  0  0  0  0
 44 48  2  0  0  0  0
 45 44  1  0  0  0  0
 46 32  2  0  0  0  0
 46 47  1  0  0  0  0
 48 49  1  0  0  0  0
 48 30  1  0  0  0  0
M  END
