9
 OpenBabel05122313113D

 65 64  0  0  0  0  0  0  0  0999 V2000
    2.3657   -0.0741    0.2131 P   0  0  0  0  0  0  0  0  0  0  0  0
   -2.2993   -0.0002    0.2308 P   0  0  0  0  0  0  0  0  0  0  0  0
    2.2042   -0.4257    1.8874 N   0  0  0  0  0  0  0  0  0  0  0  0
    2.8721   -0.9657    2.4480 H   0  0  0  0  0  0  0  0  0  0  0  0
   -2.6353    0.1586    1.9185 N   0  0  0  0  0  0  0  0  0  0  0  0
   -3.5757   -0.0646    2.2600 H   0  0  0  0  0  0  0  0  0  0  0  0
    0.7917   -0.7758    1.9557 C   0  0  0  0  0  3  0  0  0  0  0  0
    0.5685   -1.8345    2.1937 H   0  0  0  0  0  0  0  0  0  0  0  0
   -0.2023    0.2155    2.2133 C   0  0  0  0  0  3  0  0  0  0  0  0
    0.1399    1.2378    2.4693 H   0  0  0  0  0  0  0  0  0  0  0  0
   -1.5386   -0.2067    2.8067 C   0  0  0  0  0  0  0  0  0  0  0  0
   -1.5032   -1.3043    3.0159 H   0  0  0  0  0  0  0  0  0  0  0  0
   -1.6858    0.3002    3.7870 H   0  0  0  0  0  0  0  0  0  0  0  0
    3.3203    1.5673    0.1367 C   0  0  0  0  0  0  0  0  0  0  0  0
    2.2897    2.6104    0.6144 C   0  0  0  0  0  0  0  0  0  0  0  0
    2.7469    3.6225    0.5901 H   0  0  0  0  0  0  0  0  0  0  0  0
    1.9634    2.4067    1.6535 H   0  0  0  0  0  0  0  0  0  0  0  0
    1.3951    2.6223   -0.0425 H   0  0  0  0  0  0  0  0  0  0  0  0
    3.7108    1.8771   -1.3169 C   0  0  0  0  0  0  0  0  0  0  0  0
    4.0813    2.9223   -1.3834 H   0  0  0  0  0  0  0  0  0  0  0  0
    2.8386    1.7794   -1.9959 H   0  0  0  0  0  0  0  0  0  0  0  0
    4.5213    1.2172   -1.6838 H   0  0  0  0  0  0  0  0  0  0  0  0
    4.5313    1.5894    1.0800 C   0  0  0  0  0  0  0  0  0  0  0  0
    4.9455    2.6197    1.1285 H   0  0  0  0  0  0  0  0  0  0  0  0
    5.3462    0.9206    0.7466 H   0  0  0  0  0  0  0  0  0  0  0  0
    4.2343    1.3007    2.1089 H   0  0  0  0  0  0  0  0  0  0  0  0
    3.3200   -1.5056   -0.6131 C   0  0  0  0  0  0  0  0  0  0  0  0
    3.1174   -1.4105   -2.1366 C   0  0  0  0  0  0  0  0  0  0  0  0
    3.4988   -2.3379   -2.6152 H   0  0  0  0  0  0  0  0  0  0  0  0
    3.6636   -0.5575   -2.5807 H   0  0  0  0  0  0  0  0  0  0  0  0
    2.0459   -1.2900   -2.3931 H   0  0  0  0  0  0  0  0  0  0  0  0
    4.8121   -1.5336   -0.2526 C   0  0  0  0  0  0  0  0  0  0  0  0
    5.2753   -2.4539   -0.6696 H   0  0  0  0  0  0  0  0  0  0  0  0
    4.9798   -1.5505    0.8445 H   0  0  0  0  0  0  0  0  0  0  0  0
    5.3618   -0.6702   -0.6742 H   0  0  0  0  0  0  0  0  0  0  0  0
    2.6489   -2.7953   -0.1042 C   0  0  0  0  0  0  0  0  0  0  0  0
    3.1120   -3.6695   -0.6080 H   0  0  0  0  0  0  0  0  0  0  0  0
    1.5639   -2.7964   -0.3294 H   0  0  0  0  0  0  0  0  0  0  0  0
    2.7741   -2.9280    0.9891 H   0  0  0  0  0  0  0  0  0  0  0  0
   -3.1899    1.5525   -0.4523 C   0  0  0  0  0  0  0  0  0  0  0  0
   -2.1993    2.6991   -0.1608 C   0  0  0  0  0  0  0  0  0  0  0  0
   -2.6608    3.6698   -0.4425 H   0  0  0  0  0  0  0  0  0  0  0  0
   -1.2686    2.5754   -0.7499 H   0  0  0  0  0  0  0  0  0  0  0  0
   -1.9432    2.7421    0.9175 H   0  0  0  0  0  0  0  0  0  0  0  0
   -3.4205    1.4501   -1.9678 C   0  0  0  0  0  0  0  0  0  0  0  0
   -3.7682    2.4346   -2.3487 H   0  0  0  0  0  0  0  0  0  0  0  0
   -4.2022    0.7078   -2.2232 H   0  0  0  0  0  0  0  0  0  0  0  0
   -2.4841    1.1879   -2.4995 H   0  0  0  0  0  0  0  0  0  0  0  0
   -4.5090    1.8447    0.2814 C   0  0  0  0  0  0  0  0  0  0  0  0
   -4.9194    2.8098   -0.0862 H   0  0  0  0  0  0  0  0  0  0  0  0
   -4.3467    1.9463    1.3726 H   0  0  0  0  0  0  0  0  0  0  0  0
   -5.2814    1.0727    0.1054 H   0  0  0  0  0  0  0  0  0  0  0  0
   -3.1851   -1.5985   -0.3415 C   0  0  0  0  0  0  0  0  0  0  0  0
   -2.7327   -1.9348   -1.7728 C   0  0  0  0  0  0  0  0  0  0  0  0
   -3.1313   -2.9314   -2.0613 H   0  0  0  0  0  0  0  0  0  0  0  0
   -1.6279   -1.9590   -1.8464 H   0  0  0  0  0  0  0  0  0  0  0  0
   -3.0947   -1.1981   -2.5134 H   0  0  0  0  0  0  0  0  0  0  0  0
   -4.7165   -1.5216   -0.2588 C   0  0  0  0  0  0  0  0  0  0  0  0
   -5.1493   -2.5201   -0.4851 H   0  0  0  0  0  0  0  0  0  0  0  0
   -5.1433   -0.8056   -0.9867 H   0  0  0  0  0  0  0  0  0  0  0  0
   -5.0690   -1.2392    0.7553 H   0  0  0  0  0  0  0  0  0  0  0  0
   -2.6908   -2.7008    0.6149 C   0  0  0  0  0  0  0  0  0  0  0  0
   -3.0776   -3.6853    0.2761 H   0  0  0  0  0  0  0  0  0  0  0  0
   -3.0446   -2.5367    1.6525 H   0  0  0  0  0  0  0  0  0  0  0  0
   -1.5834   -2.7494    0.6314 H   0  0  0  0  0  0  0  0  0  0  0  0
  1  3  1  0  0  0  0
  2  5  1  0  0  0  0
  3  7  1  0  0  0  0
  3  4  1  0  0  0  0
  5  6  1  0  0  0  0
  5 11  1  0  0  0  0
  7  8  1  0  0  0  0
  7  9  1  0  0  0  0
  9 10  1  0  0  0  0
  9 11  1  0  0  0  0
 11 12  1  0  0  0  0
 11 13  1  0  0  0  0
 14  1  1  0  0  0  0
 14 15  1  0  0  0  0
 14 23  1  0  0  0  0
 15 17  1  0  0  0  0
 16 15  1  0  0  0  0
 18 15  1  0  0  0  0
 19 14  1  0  0  0  0
 20 19  1  0  0  0  0
 21 19  1  0  0  0  0
 22 19  1  0  0  0  0
 23 24  1  0  0  0  0
 23 26  1  0  0  0  0
 25 23  1  0  0  0  0
 27 32  1  0  0  0  0
 27 36  1  0  0  0  0
 27  1  1  0  0  0  0
 28 27  1  0  0  0  0
 29 28  1  0  0  0  0
 30 28  1  0  0  0  0
 31 28  1  0  0  0  0
 32 34  1  0  0  0  0
 33 32  1  0  0  0  0
 35 32  1  0  0  0  0
 36 39  1  0  0  0  0
 37 36  1  0  0  0  0
 38 36  1  0  0  0  0
 40 41  1  0  0  0  0
 40  2  1  0  0  0  0
 40 49  1  0  0  0  0
 41 44  1  0  0  0  0
 42 41  1  0  0  0  0
 43 41  1  0  0  0  0
 45 40  1  0  0  0  0
 46 45  1  0  0  0  0
 47 45  1  0  0  0  0
 48 45  1  0  0  0  0
 49 51  1  0  0  0  0
 50 49  1  0  0  0  0
 52 49  1  0  0  0  0
 53 58  1  0  0  0  0
 53  2  1  0  0  0  0
 53 62  1  0  0  0  0
 54 53  1  0  0  0  0
 55 54  1  0  0  0  0
 56 54  1  0  0  0  0
 57 54  1  0  0  0  0
 58 61  1  0  0  0  0
 59 58  1  0  0  0  0
 60 58  1  0  0  0  0
 62 65  1  0  0  0  0
 62 64  1  0  0  0  0
 63 62  1  0  0  0  0
M  END
