2
 OpenBabel05122313113D

 23 22  0  0  1  0  0  0  0  0999 V2000
    3.9348    0.4525    0.3768 Si  0  0  0  0  0  0  0  0  0  0  0  0
    1.4013    1.5089   -1.6811 C   0  0  0  0  0  3  0  0  0  0  0  0
    2.3282    0.5225   -2.1482 C   0  0  0  0  0  3  0  0  0  0  0  0
    3.1617   -0.2050   -1.2589 C   0  0  1  0  0  3  0  0  0  0  0  0
    3.8281   -1.4635   -1.7736 C   0  0  0  0  0  0  0  0  0  0  0  0
    2.8354    1.5633    1.4538 C   0  0  0  0  0  0  0  0  0  0  0  0
    5.4663    1.4501   -0.1397 C   0  0  0  0  0  0  0  0  0  0  0  0
    4.4386   -1.0483    1.4024 C   0  0  0  0  0  0  0  0  0  0  0  0
    1.6837    2.2051   -0.8755 H   0  0  0  0  0  0  0  0  0  0  0  0
    0.6520    1.9025   -2.3864 H   0  0  0  0  0  0  0  0  0  0  0  0
    2.2055    0.1344   -3.1782 H   0  0  0  0  0  0  0  0  0  0  0  0
    3.4828   -1.7247   -2.7953 H   0  0  0  0  0  0  0  0  0  0  0  0
    4.9350   -1.3609   -1.7992 H   0  0  0  0  0  0  0  0  0  0  0  0
    3.5898   -2.3177   -1.1058 H   0  0  0  0  0  0  0  0  0  0  0  0
    1.8869    1.0594    1.7308 H   0  0  0  0  0  0  0  0  0  0  0  0
    2.5909    2.5327    0.9752 H   0  0  0  0  0  0  0  0  0  0  0  0
    3.3886    1.7877    2.3905 H   0  0  0  0  0  0  0  0  0  0  0  0
    6.1560    0.8386   -0.7568 H   0  0  0  0  0  0  0  0  0  0  0  0
    5.1784    2.3417   -0.7337 H   0  0  0  0  0  0  0  0  0  0  0  0
    6.0275    1.7979    0.7526 H   0  0  0  0  0  0  0  0  0  0  0  0
    3.5529   -1.7004    1.5530 H   0  0  0  0  0  0  0  0  0  0  0  0
    5.2280   -1.6466    0.9052 H   0  0  0  0  0  0  0  0  0  0  0  0
    4.8249   -0.7271    2.3915 H   0  0  0  0  0  0  0  0  0  0  0  0
  1  8  1  0  0  0  0
  1  6  1  0  0  0  0
  2  9  1  0  0  0  0
  3  2  1  0  0  0  0
  4  3  1  6  0  0  0
  4  1  1  0  0  0  0
  5  4  1  0  0  0  0
  5 14  1  0  0  0  0
  6 15  1  0  0  0  0
  6 17  1  0  0  0  0
  7  1  1  0  0  0  0
  7 20  1  0  0  0  0
  8 21  1  0  0  0  0
  8 23  1  0  0  0  0
 10  2  1  0  0  0  0
 11  3  1  0  0  0  0
 12  5  1  0  0  0  0
 13  5  1  0  0  0  0
 16  6  1  0  0  0  0
 18  7  1  0  0  0  0
 19  7  1  0  0  0  0
 22  8  1  0  0  0  0
M  END
