1
 OpenBabel05122313113D

 25 27  0  0  1  0  0  0  0  0999 V2000
    2.3006   -0.0032   -0.0007 C   0  0  1  0  0  3  0  0  0  0  0  0
    2.8565    1.2471    0.7007 C   0  0  0  0  0  0  0  0  0  0  0  0
    2.8133   -0.0177   -1.4517 C   0  0  0  0  0  0  0  0  0  0  0  0
    2.8472   -1.2446    0.7244 C   0  0  0  0  0  0  0  0  0  0  0  0
    4.3964   -1.2589    0.6978 C   0  0  2  0  0  0  0  0  0  0  0  0
    4.9287   -0.0020    1.4066 C   0  0  0  0  0  0  0  0  0  0  0  0
    4.4062    1.2462    0.6755 C   0  0  1  0  0  0  0  0  0  0  0  0
    4.8955    1.2346   -0.7825 C   0  0  0  0  0  0  0  0  0  0  0  0
    4.3623   -0.0265   -1.4836 C   0  0  1  0  0  0  0  0  0  0  0  0
    4.8841   -1.2795   -0.7604 C   0  0  0  0  0  0  0  0  0  0  0  0
    2.5115    1.2909    1.7537 H   0  0  0  0  0  0  0  0  0  0  0  0
    2.4987    2.1679    0.1951 H   0  0  0  0  0  0  0  0  0  0  0  0
    2.4551    0.8712   -2.0076 H   0  0  0  0  0  0  0  0  0  0  0  0
    2.4370   -0.9041   -1.9995 H   0  0  0  0  0  0  0  0  0  0  0  0
    2.4788   -2.1718    0.2385 H   0  0  0  0  0  0  0  0  0  0  0  0
    2.5075   -1.2617    1.7799 H   0  0  0  0  0  0  0  0  0  0  0  0
    4.7531   -2.1692    1.2281 H   0  0  0  0  0  0  0  0  0  0  0  0
    6.0410   -0.0061    1.4185 H   0  0  0  0  0  0  0  0  0  0  0  0
    4.5919    0.0087    2.4658 H   0  0  0  0  0  0  0  0  0  0  0  0
    4.7709    2.1629    1.1889 H   0  0  0  0  0  0  0  0  0  0  0  0
    6.0071    1.2572   -0.8175 H   0  0  0  0  0  0  0  0  0  0  0  0
    4.5358    2.1437   -1.3122 H   0  0  0  0  0  0  0  0  0  0  0  0
    4.6965   -0.0375   -2.5441 H   0  0  0  0  0  0  0  0  0  0  0  0
    4.5148   -2.1946   -1.2727 H   0  0  0  0  0  0  0  0  0  0  0  0
    5.9954   -1.3133   -0.7962 H   0  0  0  0  0  0  0  0  0  0  0  0
  1  3  1  6  0  0  0
  1  2  1  0  0  0  0
  1  4  1  0  0  0  0
  2 11  1  0  0  0  0
  4 16  1  0  0  0  0
  5  4  1  0  0  0  0
  5 17  1  1  0  0  0
  5  6  1  0  0  0  0
  6 18  1  0  0  0  0
  6 19  1  0  0  0  0
  7  2  1  0  0  0  0
  7 20  1  1  0  0  0
  7  6  1  0  0  0  0
  8  7  1  0  0  0  0
  9 23  1  6  0  0  0
  9  3  1  0  0  0  0
  9  8  1  0  0  0  0
  9 10  1  0  0  0  0
 10  5  1  0  0  0  0
 12  2  1  0  0  0  0
 13  3  1  0  0  0  0
 14  3  1  0  0  0  0
 15  4  1  0  0  0  0
 21  8  1  0  0  0  0
 22  8  1  0  0  0  0
 24 10  1  0  0  0  0
 25 10  1  0  0  0  0
M  END
