1
 OpenBabel05122313113D

 25 24  0  0  0  0  0  0  0  0999 V2000
    1.0515   -0.3742    0.6317 C   0  0  0  0  0  3  0  0  0  0  0  0
    1.0246    0.3870    1.4582 H   0  0  0  0  0  0  0  0  0  0  0  0
    0.8701   -1.3536    1.1405 H   0  0  0  0  0  0  0  0  0  0  0  0
    2.4729   -0.4007    0.0319 C   0  0  0  0  0  0  0  0  0  0  0  0
    2.4997   -1.2928   -1.2406 C   0  0  0  0  0  0  0  0  0  0  0  0
    3.5591   -1.4895   -1.5159 H   0  0  0  0  0  0  0  0  0  0  0  0
    2.0901   -2.2876   -0.9567 H   0  0  0  0  0  0  0  0  0  0  0  0
    1.7576   -0.7608   -2.4646 C   0  0  0  0  0  0  0  0  0  0  0  0
    0.7200   -0.4696   -2.2046 H   0  0  0  0  0  0  0  0  0  0  0  0
    1.7032   -1.5260   -3.2654 H   0  0  0  0  0  0  0  0  0  0  0  0
    2.2554    0.1306   -2.8979 H   0  0  0  0  0  0  0  0  0  0  0  0
    2.9243    1.0466   -0.2947 C   0  0  0  0  0  0  0  0  0  0  0  0
    2.1908    1.4901   -0.9965 H   0  0  0  0  0  0  0  0  0  0  0  0
    2.8400    1.6532    0.6331 H   0  0  0  0  0  0  0  0  0  0  0  0
    4.3319    1.2098   -0.8714 C   0  0  0  0  0  0  0  0  0  0  0  0
    5.1157    0.8620   -0.1682 H   0  0  0  0  0  0  0  0  0  0  0  0
    4.5435    2.2749   -1.0958 H   0  0  0  0  0  0  0  0  0  0  0  0
    4.4642    0.6442   -1.8166 H   0  0  0  0  0  0  0  0  0  0  0  0
    3.4581   -1.0603    1.0455 C   0  0  0  0  0  0  0  0  0  0  0  0
    3.1061   -2.1018    1.2167 H   0  0  0  0  0  0  0  0  0  0  0  0
    4.4550   -1.1636    0.5627 H   0  0  0  0  0  0  0  0  0  0  0  0
    3.6254   -0.3590    2.3932 C   0  0  0  0  0  0  0  0  0  0  0  0
    4.0552    0.6580    2.2838 H   0  0  0  0  0  0  0  0  0  0  0  0
    4.3075   -0.9311    3.0541 H   0  0  0  0  0  0  0  0  0  0  0  0
    2.6578   -0.2563    2.9257 H   0  0  0  0  0  0  0  0  0  0  0  0
  1  3  1  0  0  0  0
  1  2  1  0  0  0  0
  4  1  1  0  0  0  0
  4 19  1  0  0  0  0
  5  7  1  0  0  0  0
  5  4  1  0  0  0  0
  6  5  1  0  0  0  0
  8  9  1  0  0  0  0
  8  5  1  0  0  0  0
 10  8  1  0  0  0  0
 11  8  1  0  0  0  0
 12  4  1  0  0  0  0
 12 14  1  0  0  0  0
 13 12  1  0  0  0  0
 15 12  1  0  0  0  0
 15 16  1  0  0  0  0
 17 15  1  0  0  0  0
 18 15  1  0  0  0  0
 19 20  1  0  0  0  0
 19 22  1  0  0  0  0
 21 19  1  0  0  0  0
 22 25  1  0  0  0  0
 22 24  1  0  0  0  0
 23 22  1  0  0  0  0
M  END
