30
 OpenBabel05122313113D

 30 32  0  0  0  0  0  0  0  0999 V2000
   -3.3274    0.4443    0.1302 C   0  0  0  0  0  0  0  0  0  0  0  0
   -2.8845    1.4246    0.3642 H   0  0  0  0  0  0  0  0  0  0  0  0
   -7.0665    0.4500    0.1447 C   0  0  0  0  0  0  0  0  0  0  0  0
   -3.0379   -1.9226   -0.4308 C   0  0  0  0  0  0  0  0  0  0  0  0
   -2.3638   -2.7676   -0.6331 H   0  0  0  0  0  0  0  0  0  0  0  0
   -5.8087    1.2964    0.3446 C   0  0  0  0  0  0  0  0  0  0  0  0
   -6.7265   -0.8905   -0.1776 C   0  0  0  0  0  0  0  0  0  0  0  0
   -4.7069    0.2653    0.0927 C   0  0  0  0  0  0  0  0  0  0  0  0
   -5.2658   -1.0045   -0.2090 C   0  0  0  0  0  0  0  0  0  0  0  0
   -4.4238   -2.1002   -0.4721 C   0  0  0  0  0  0  0  0  0  0  0  0
   -4.8463   -3.0893   -0.7073 H   0  0  0  0  0  0  0  0  0  0  0  0
   -2.4579   -0.6547   -0.1317 C   0  0  0  0  0  0  0  0  0  0  0  0
   -9.4137   -0.1217    0.0148 C   0  0  0  0  0  0  0  0  0  0  0  0
  -10.4723    0.1708    0.0883 H   0  0  0  0  0  0  0  0  0  0  0  0
   -7.7337   -1.8450   -0.4034 C   0  0  0  0  0  0  0  0  0  0  0  0
   -7.4750   -2.8854   -0.6536 H   0  0  0  0  0  0  0  0  0  0  0  0
   -9.0775   -1.4503   -0.3048 C   0  0  0  0  0  0  0  0  0  0  0  0
   -9.8768   -2.1869   -0.4789 H   0  0  0  0  0  0  0  0  0  0  0  0
   -8.4060    0.8357    0.2412 C   0  0  0  0  0  0  0  0  0  0  0  0
   -8.6767    1.8740    0.4911 H   0  0  0  0  0  0  0  0  0  0  0  0
   -5.7421    2.4469   -0.6816 C   0  0  0  0  0  0  0  0  0  0  0  0
   -5.7952    2.0574   -1.7171 H   0  0  0  0  0  0  0  0  0  0  0  0
   -4.7945    3.0132   -0.5728 H   0  0  0  0  0  0  0  0  0  0  0  0
   -6.5828    3.1552   -0.5329 H   0  0  0  0  0  0  0  0  0  0  0  0
   -5.7335    1.8518    1.7824 C   0  0  0  0  0  0  0  0  0  0  0  0
   -4.7853    2.4058    1.9387 H   0  0  0  0  0  0  0  0  0  0  0  0
   -5.7810    1.0323    2.5260 H   0  0  0  0  0  0  0  0  0  0  0  0
   -6.5738    2.5488    1.9789 H   0  0  0  0  0  0  0  0  0  0  0  0
   -1.0457   -0.4954   -0.0957 C   0  0  0  0  0  0  0  0  0  0  0  0
    0.1962   -0.3874   -0.0659 C   0  0  0  0  0  3  0  0  0  0  0  0
  1  2  1  0  0  0  0
  3 19  1  0  0  0  0
  3  6  1  0  0  0  0
  4 12  1  0  0  0  0
  5  4  1  0  0  0  0
  6 25  1  0  0  0  0
  7  3  2  0  0  0  0
  8  1  1  0  0  0  0
  8  6  1  0  0  0  0
  9  7  1  0  0  0  0
  9  8  2  0  0  0  0
 10  4  2  0  0  0  0
 10  9  1  0  0  0  0
 11 10  1  0  0  0  0
 12 29  1  0  0  0  0
 12  1  2  0  0  0  0
 13 14  1  0  0  0  0
 13 19  2  0  0  0  0
 15 17  2  0  0  0  0
 15  7  1  0  0  0  0
 16 15  1  0  0  0  0
 17 13  1  0  0  0  0
 18 17  1  0  0  0  0
 19 20  1  0  0  0  0
 21 23  1  0  0  0  0
 21 24  1  0  0  0  0
 21  6  1  0  0  0  0
 22 21  1  0  0  0  0
 25 26  1  0  0  0  0
 25 28  1  0  0  0  0
 25 27  1  0  0  0  0
 29 30  3  0  0  0  0
M  END
