2
 OpenBabel05122313113D

 12 11  0  0  0  0  0  0  0  0999 V2000
   -1.6461    1.5128    1.9584 N   0  0  0  0  0  2  0  0  0  0  0  0
   -2.0340    0.6286    1.2702 C   0  0  0  0  0  1  0  0  0  0  0  0
   -1.1918    2.7132    2.5612 C   0  0  0  0  0  0  0  0  0  0  0  0
   -0.5235    3.6601    1.5508 C   0  0  0  0  0  0  0  0  0  0  0  0
   -1.4505    4.1163    0.4271 C   0  0  0  0  0  0  0  0  0  0  0  0
   -0.4828    2.4525    3.3770 H   0  0  0  0  0  0  0  0  0  0  0  0
   -2.0646    3.2096    3.0405 H   0  0  0  0  0  0  0  0  0  0  0  0
   -0.1465    4.5276    2.1345 H   0  0  0  0  0  0  0  0  0  0  0  0
    0.3711    3.1558    1.1285 H   0  0  0  0  0  0  0  0  0  0  0  0
   -0.9297    4.8324   -0.2385 H   0  0  0  0  0  0  0  0  0  0  0  0
   -1.7793    3.2619   -0.2021 H   0  0  0  0  0  0  0  0  0  0  0  0
   -2.3532    4.6237    0.8272 H   0  0  0  0  0  0  0  0  0  0  0  0
  1  3  1  0  0  0  0
  2  1  1  0  0  0  0
  3  7  1  0  0  0  0
  3  6  1  0  0  0  0
  4  8  1  0  0  0  0
  4  3  1  0  0  0  0
  5 12  1  0  0  0  0
  5  4  1  0  0  0  0
  9  4  1  0  0  0  0
 10  5  1  0  0  0  0
 11  5  1  0  0  0  0
M  END
