4
 OpenBabel05122313113D

 37 39  0  0  0  0  0  0  0  0999 V2000
    2.8105   -0.4173   -0.2303 P   0  0  0  0  0  4  0  0  0  0  0  0
    0.5239   -1.4190   -0.5159 N   0  0  0  0  0  2  0  0  0  0  0  0
    1.7803   -1.5439   -0.8599 N   0  0  0  0  0  2  0  0  0  0  0  0
   -0.6362   -1.3218   -0.2941 C   0  0  0  0  0  1  0  0  0  0  0  0
    4.4238   -0.8993   -0.8891 C   0  0  0  0  0  0  0  0  0  0  0  0
    5.5171   -0.0128   -0.8169 C   0  0  0  0  0  0  0  0  0  0  0  0
    6.7692   -0.4163   -1.3015 C   0  0  0  0  0  0  0  0  0  0  0  0
    6.9286   -1.6952   -1.8600 C   0  0  0  0  0  0  0  0  0  0  0  0
    5.8349   -2.5727   -1.9376 C   0  0  0  0  0  0  0  0  0  0  0  0
    4.5788   -2.1819   -1.4521 C   0  0  0  0  0  0  0  0  0  0  0  0
    2.8726   -0.4240    1.5896 C   0  0  0  0  0  0  0  0  0  0  0  0
    3.9137   -1.0596    2.2960 C   0  0  0  0  0  0  0  0  0  0  0  0
    3.8404   -1.1693    3.6923 C   0  0  0  0  0  0  0  0  0  0  0  0
    2.7239   -0.6692    4.3825 C   0  0  0  0  0  0  0  0  0  0  0  0
    1.6784   -0.0500    3.6775 C   0  0  0  0  0  0  0  0  0  0  0  0
    1.7511    0.0828    2.2844 C   0  0  0  0  0  0  0  0  0  0  0  0
    2.3914    1.2950   -0.6883 C   0  0  0  0  0  0  0  0  0  0  0  0
    1.4558    1.5035   -1.7205 C   0  0  0  0  0  0  0  0  0  0  0  0
    1.1222    2.8136   -2.0966 C   0  0  0  0  0  0  0  0  0  0  0  0
    1.7392    3.9059   -1.4695 C   0  0  0  0  0  0  0  0  0  0  0  0
    2.6663    3.6979   -0.4319 C   0  0  0  0  0  0  0  0  0  0  0  0
    2.9815    2.3947   -0.0257 C   0  0  0  0  0  0  0  0  0  0  0  0
    5.3918    0.9955   -0.3948 H   0  0  0  0  0  0  0  0  0  0  0  0
    7.6235    0.2749   -1.2488 H   0  0  0  0  0  0  0  0  0  0  0  0
    7.9121   -2.0076   -2.2426 H   0  0  0  0  0  0  0  0  0  0  0  0
    5.9587   -3.5715   -2.3823 H   0  0  0  0  0  0  0  0  0  0  0  0
    3.7053   -2.8475   -1.5093 H   0  0  0  0  0  0  0  0  0  0  0  0
    4.7797   -1.4663    1.7520 H   0  0  0  0  0  0  0  0  0  0  0  0
    4.6585   -1.6549    4.2452 H   0  0  0  0  0  0  0  0  0  0  0  0
    2.6657   -0.7675    5.4769 H   0  0  0  0  0  0  0  0  0  0  0  0
    0.7948    0.3256    4.2157 H   0  0  0  0  0  0  0  0  0  0  0  0
    0.9317    0.5687    1.7335 H   0  0  0  0  0  0  0  0  0  0  0  0
    0.9575    0.6527   -2.2077 H   0  0  0  0  0  0  0  0  0  0  0  0
    0.3567    2.9675   -2.8705 H   0  0  0  0  0  0  0  0  0  0  0  0
    1.4817    4.9313   -1.7753 H   0  0  0  0  0  0  0  0  0  0  0  0
    3.1318    4.5570    0.0744 H   0  0  0  0  0  0  0  0  0  0  0  0
    3.6710    2.2313    0.8174 H   0  0  0  0  0  0  0  0  0  0  0  0
  1 11  1  0  0  0  0
  2  4  1  0  0  0  0
  3  2  1  0  0  0  0
  3  1  1  0  0  0  0
  5  6  1  0  0  0  0
  5  1  1  0  0  0  0
  6 23  1  0  0  0  0
  7 24  1  0  0  0  0
  7  6  2  0  0  0  0
  8  7  1  0  0  0  0
  9  8  2  0  0  0  0
  9 10  1  0  0  0  0
 10  5  2  0  0  0  0
 11 16  2  0  0  0  0
 11 12  1  0  0  0  0
 12 13  2  0  0  0  0
 13 29  1  0  0  0  0
 13 14  1  0  0  0  0
 14 30  1  0  0  0  0
 15 31  1  0  0  0  0
 15 14  2  0  0  0  0
 16 15  1  0  0  0  0
 17  1  1  0  0  0  0
 17 22  1  0  0  0  0
 18 17  2  0  0  0  0
 19 18  1  0  0  0  0
 19 20  2  0  0  0  0
 20 21  1  0  0  0  0
 21 22  2  0  0  0  0
 21 36  1  0  0  0  0
 22 37  1  0  0  0  0
 25  8  1  0  0  0  0
 26  9  1  0  0  0  0
 27 10  1  0  0  0  0
 28 12  1  0  0  0  0
 32 16  1  0  0  0  0
 33 18  1  0  0  0  0
 34 19  1  0  0  0  0
 35 20  1  0  0  0  0
M  END
