1
 OpenBabel05122313113D

 31 33  0  0  0  0  0  0  0  0999 V2000
    1.0282   -0.2146    0.0000 C   0  0  0  0  0  2  0  0  0  0  0  0
    2.1731   -0.9844    0.0000 N   0  0  0  0  0  0  0  0  0  0  0  0
    2.2474   -2.3676   -0.0002 C   0  0  0  0  0  0  0  0  0  0  0  0
    1.2764   -2.8828   -0.0003 H   0  0  0  0  0  0  0  0  0  0  0  0
    3.4755   -2.9741   -0.0001 C   0  0  0  0  0  0  0  0  0  0  0  0
    3.5245   -4.0712   -0.0003 H   0  0  0  0  0  0  0  0  0  0  0  0
    4.6802   -2.1897    0.0002 C   0  0  0  0  0  0  0  0  0  0  0  0
    5.6556   -2.6968    0.0003 H   0  0  0  0  0  0  0  0  0  0  0  0
    4.6163   -0.8132    0.0004 C   0  0  0  0  0  0  0  0  0  0  0  0
    5.5212   -0.1900    0.0006 H   0  0  0  0  0  0  0  0  0  0  0  0
    3.3412   -0.1757    0.0003 C   0  0  0  0  0  0  0  0  0  0  0  0
    2.8845    1.1338    0.0004 C   0  0  0  0  0  0  0  0  0  0  0  0
    3.4233    2.0843    0.0005 H   0  0  0  0  0  0  0  0  0  0  0  0
    1.4998    1.0697    0.0002 N   0  0  0  0  0  0  0  0  0  0  0  0
    0.6346    2.2234    0.0002 C   0  0  0  0  0  0  0  0  0  0  0  0
    0.2262    2.7534    1.2431 C   0  0  0  0  0  0  0  0  0  0  0  0
    0.6321    2.0965    2.5353 C   0  0  0  0  0  0  0  0  0  0  0  0
    0.1727    1.0881    2.6160 H   0  0  0  0  0  0  0  0  0  0  0  0
    0.3037    2.6939    3.4059 H   0  0  0  0  0  0  0  0  0  0  0  0
    1.7301    1.9549    2.6045 H   0  0  0  0  0  0  0  0  0  0  0  0
   -0.6094    3.8854    1.2163 C   0  0  0  0  0  0  0  0  0  0  0  0
   -0.9484    4.3201    2.1689 H   0  0  0  0  0  0  0  0  0  0  0  0
   -1.0186    4.4481    0.0000 C   0  0  0  0  0  0  0  0  0  0  0  0
   -1.6749    5.3314   -0.0000 H   0  0  0  0  0  0  0  0  0  0  0  0
   -0.6084    3.8859   -1.2162 C   0  0  0  0  0  0  0  0  0  0  0  0
   -0.9467    4.3211   -2.1688 H   0  0  0  0  0  0  0  0  0  0  0  0
    0.2272    2.7540   -1.2428 C   0  0  0  0  0  0  0  0  0  0  0  0
    0.6341    2.0977   -2.5350 C   0  0  0  0  0  0  0  0  0  0  0  0
    0.3049    2.6946   -3.4056 H   0  0  0  0  0  0  0  0  0  0  0  0
    0.1763    1.0886   -2.6158 H   0  0  0  0  0  0  0  0  0  0  0  0
    1.7324    1.9578   -2.6041 H   0  0  0  0  0  0  0  0  0  0  0  0
  1  2  1  0  0  0  0
  1 14  1  0  0  0  0
  2 11  1  0  0  0  0
  3  5  2  0  0  0  0
  3  2  1  0  0  0  0
  4  3  1  0  0  0  0
  5  7  1  0  0  0  0
  6  5  1  0  0  0  0
  7  8  1  0  0  0  0
  7  9  2  0  0  0  0
  9 10  1  0  0  0  0
 11  9  1  0  0  0  0
 11 12  2  0  0  0  0
 12 13  1  0  0  0  0
 14 12  1  0  0  0  0
 15 14  1  0  0  0  0
 15 16  1  0  0  0  0
 16 17  1  0  0  0  0
 17 20  1  0  0  0  0
 17 18  1  0  0  0  0
 17 19  1  0  0  0  0
 21 16  2  0  0  0  0
 21 22  1  0  0  0  0
 23 21  1  0  0  0  0
 24 23  1  0  0  0  0
 25 23  2  0  0  0  0
 26 25  1  0  0  0  0
 27 25  1  0  0  0  0
 27 15  2  0  0  0  0
 28 27  1  0  0  0  0
 29 28  1  0  0  0  0
 30 28  1  0  0  0  0
 31 28  1  0  0  0  0
M  END
