4
 OpenBabel05122313113D

 35 37  0  0  0  0  0  0  0  0999 V2000
    4.3063    0.1069   -1.5914 Cl  0  0  0  0  0  0  0  0  0  0  0  0
    0.3138    0.4978   -0.5274 N   0  0  0  0  0  0  0  0  0  0  0  0
   -1.4929    1.3552    0.3509 N   0  0  0  0  0  0  0  0  0  0  0  0
   -0.9643    0.1936   -0.1431 C   0  0  0  0  0  2  0  0  0  0  0  0
    0.6103    1.8380   -0.2714 C   0  0  0  0  0  0  0  0  0  0  0  0
    1.7684    2.6047   -0.4655 C   0  0  0  0  0  0  0  0  0  0  0  0
    2.6849    2.1672   -0.8855 H   0  0  0  0  0  0  0  0  0  0  0  0
    1.7022    3.9544   -0.0900 C   0  0  0  0  0  0  0  0  0  0  0  0
    2.5889    4.5910   -0.2252 H   0  0  0  0  0  0  0  0  0  0  0  0
    0.5257    4.5159    0.4564 C   0  0  0  0  0  0  0  0  0  0  0  0
    0.5162    5.5805    0.7326 H   0  0  0  0  0  0  0  0  0  0  0  0
   -0.6316    3.7486    0.6529 C   0  0  0  0  0  0  0  0  0  0  0  0
   -1.5501    4.1876    1.0645 H   0  0  0  0  0  0  0  0  0  0  0  0
   -0.5659    2.3970    0.2839 C   0  0  0  0  0  0  0  0  0  0  0  0
    1.2627   -0.4773   -1.0615 C   0  0  0  0  0  0  0  0  0  0  0  0
    1.7673   -0.0369   -1.9418 H   0  0  0  0  0  0  0  0  0  0  0  0
    0.6570   -1.3400   -1.4057 H   0  0  0  0  0  0  0  0  0  0  0  0
    2.2792   -0.9298   -0.0329 C   0  0  0  0  0  0  0  0  0  0  0  0
    1.8389   -1.6031    1.1255 C   0  0  0  0  0  0  0  0  0  0  0  0
    0.7585   -1.7881    1.2455 H   0  0  0  0  0  0  0  0  0  0  0  0
    2.7383   -2.0397    2.1045 C   0  0  0  0  0  0  0  0  0  0  0  0
    2.3655   -2.5673    2.9945 H   0  0  0  0  0  0  0  0  0  0  0  0
    4.1137   -1.8088    1.9394 C   0  0  0  0  0  0  0  0  0  0  0  0
    4.8316   -2.1486    2.7009 H   0  0  0  0  0  0  0  0  0  0  0  0
    4.5819   -1.1469    0.7977 C   0  0  0  0  0  0  0  0  0  0  0  0
    5.6541   -0.9588    0.6482 H   0  0  0  0  0  0  0  0  0  0  0  0
    3.6658   -0.7135   -0.1750 C   0  0  0  0  0  0  0  0  0  0  0  0
   -2.8656    1.4910    0.8374 C   0  0  0  0  0  0  0  0  0  0  0  0
   -2.8458    1.9660    1.8403 H   0  0  0  0  0  0  0  0  0  0  0  0
   -3.2438    0.4529    0.9586 H   0  0  0  0  0  0  0  0  0  0  0  0
   -3.7416    2.2627   -0.1119 C   0  0  0  0  0  0  0  0  0  0  0  0
   -3.7812    1.8678   -1.1427 H   0  0  0  0  0  0  0  0  0  0  0  0
   -4.4625    3.3420    0.2316 C   0  0  0  0  0  0  0  0  0  0  0  0
   -4.4383    3.7475    1.2576 H   0  0  0  0  0  0  0  0  0  0  0  0
   -5.1154    3.8522   -0.4927 H   0  0  0  0  0  0  0  0  0  0  0  0
  1 27  1  0  0  0  0
  2  5  1  0  0  0  0
  2  4  1  0  0  0  0
  3 28  1  0  0  0  0
  4  3  1  0  0  0  0
  5 14  1  0  0  0  0
  6  5  2  0  0  0  0
  6  8  1  0  0  0  0
  7  6  1  0  0  0  0
  8 10  2  0  0  0  0
  9  8  1  0  0  0  0
 10 12  1  0  0  0  0
 10 11  1  0  0  0  0
 12 13  1  0  0  0  0
 14  3  1  0  0  0  0
 14 12  2  0  0  0  0
 15  2  1  0  0  0  0
 15 18  1  0  0  0  0
 16 15  1  0  0  0  0
 17 15  1  0  0  0  0
 18 19  1  0  0  0  0
 19 20  1  0  0  0  0
 19 21  2  0  0  0  0
 21 22  1  0  0  0  0
 23 21  1  0  0  0  0
 23 24  1  0  0  0  0
 25 23  2  0  0  0  0
 26 25  1  0  0  0  0
 27 18  2  0  0  0  0
 27 25  1  0  0  0  0
 28 30  1  0  0  0  0
 28 29  1  0  0  0  0
 31 33  2  0  0  0  0
 31 28  1  0  0  0  0
 32 31  1  0  0  0  0
 33 34  1  0  0  0  0
 35 33  1  0  0  0  0
M  END
