1
 OpenBabel05122313113D

 30 30  0  0  1  0  0  0  0  0999 V2000
    1.3513   -0.0732    0.8180 C   0  0  2  0  0  3  0  0  0  0  0  0
    1.4780   -0.6943   -0.5166 C   0  0  1  0  0  3  0  0  0  0  0  0
    1.5173    0.7351   -0.3874 C   0  0  2  0  0  3  0  0  0  0  0  0
    1.9438   -0.2225    2.1980 C   0  0  0  0  0  0  0  0  0  0  0  0
    3.4783   -0.3453    2.0930 C   0  0  0  0  0  0  0  0  0  0  0  0
    1.3745   -1.4915    2.8636 C   0  0  0  0  0  0  0  0  0  0  0  0
    1.5775    1.0203    3.0343 C   0  0  0  0  0  0  0  0  0  0  0  0
    2.1715   -1.8179   -1.2092 C   0  0  0  0  0  0  0  0  0  0  0  0
    2.1236   -1.7070   -2.7382 C   0  0  0  0  0  0  0  0  0  0  0  0
    2.1817    1.9512   -0.9379 C   0  0  0  0  0  0  0  0  0  0  0  0
    3.6930    1.7905   -1.1519 C   0  0  0  0  0  0  0  0  0  0  0  0
    3.9253   -0.4720    3.1011 H   0  0  0  0  0  0  0  0  0  0  0  0
    3.9248    0.5606    1.6362 H   0  0  0  0  0  0  0  0  0  0  0  0
    3.7709   -1.2209    1.4787 H   0  0  0  0  0  0  0  0  0  0  0  0
    1.8106   -1.6282    3.8751 H   0  0  0  0  0  0  0  0  0  0  0  0
    1.6057   -2.3919    2.2599 H   0  0  0  0  0  0  0  0  0  0  0  0
    0.2745   -1.4228    2.9574 H   0  0  0  0  0  0  0  0  0  0  0  0
    2.0039    0.9449    4.0565 H   0  0  0  0  0  0  0  0  0  0  0  0
    0.4784    1.1217    3.1161 H   0  0  0  0  0  0  0  0  0  0  0  0
    1.9722    1.9434    2.5628 H   0  0  0  0  0  0  0  0  0  0  0  0
    1.7251   -2.7812   -0.8777 H   0  0  0  0  0  0  0  0  0  0  0  0
    3.2304   -1.8521   -0.8647 H   0  0  0  0  0  0  0  0  0  0  0  0
    2.6449   -2.5579   -3.2217 H   0  0  0  0  0  0  0  0  0  0  0  0
    2.6096   -0.7712   -3.0824 H   0  0  0  0  0  0  0  0  0  0  0  0
    1.0758   -1.6854   -3.0967 H   0  0  0  0  0  0  0  0  0  0  0  0
    1.9795    2.8124   -0.2668 H   0  0  0  0  0  0  0  0  0  0  0  0
    1.7058    2.1980   -1.9123 H   0  0  0  0  0  0  0  0  0  0  0  0
    4.1322    2.7112   -1.5865 H   0  0  0  0  0  0  0  0  0  0  0  0
    3.9108    0.9508   -1.8425 H   0  0  0  0  0  0  0  0  0  0  0  0
    4.2186    1.5816   -0.1989 H   0  0  0  0  0  0  0  0  0  0  0  0
  1  4  1  1  0  0  0
  2  8  1  1  0  0  0
  2  3  1  0  0  0  0
  2  1  1  0  0  0  0
  3 10  1  1  0  0  0
  3  1  1  0  0  0  0
  4  6  1  0  0  0  0
  4  7  1  0  0  0  0
  5  4  1  0  0  0  0
  5 12  1  0  0  0  0
  6 17  1  0  0  0  0
  6 15  1  0  0  0  0
  7 19  1  0  0  0  0
  7 18  1  0  0  0  0
  8 21  1  0  0  0  0
  8 22  1  0  0  0  0
  9  8  1  0  0  0  0
 10 26  1  0  0  0  0
 11 10  1  0  0  0  0
 11 30  1  0  0  0  0
 13  5  1  0  0  0  0
 14  5  1  0  0  0  0
 16  6  1  0  0  0  0
 20  7  1  0  0  0  0
 23  9  1  0  0  0  0
 24  9  1  0  0  0  0
 25  9  1  0  0  0  0
 27 10  1  0  0  0  0
 28 11  1  0  0  0  0
 29 11  1  0  0  0  0
M  END
