3
q = 0.0, confidence = 0.94

 21 20  0  0  0  0  0  0  0  0999 V2000
    4.3285   -0.2883   -0.9831 N   0  0  0  0  0  0  0  0  0  0  0  0
    4.5681    0.7014    1.1450 N   0  0  0  0  0  0  0  0  0  0  0  0
    1.4540   -1.1422    0.7251 C   0  0  0  0  0  3  0  0  0  0  0  0
    2.5946   -0.5969    0.6386 C   0  0  0  0  0  0  0  0  0  0  0  0
    3.8209   -0.0701    0.2758 C   0  0  0  0  0  3  0  0  0  0  0  0
    3.6815   -1.2656   -1.8498 C   0  0  0  0  0  0  0  0  0  0  0  0
    3.3031   -2.1126   -1.2510 H   0  0  0  0  0  0  0  0  0  0  0  0
    4.4199   -1.6389   -2.5868 H   0  0  0  0  0  0  0  0  0  0  0  0
    2.8188   -0.8194   -2.3913 H   0  0  0  0  0  0  0  0  0  0  0  0
    5.1836    0.6832   -1.6502 C   0  0  0  0  0  0  0  0  0  0  0  0
    5.2364    1.6124   -1.0545 H   0  0  0  0  0  0  0  0  0  0  0  0
    4.7471    0.9349   -2.6387 H   0  0  0  0  0  0  0  0  0  0  0  0
    6.2159    0.3034   -1.8155 H   0  0  0  0  0  0  0  0  0  0  0  0
    3.9156    1.2387    2.3285 C   0  0  0  0  0  0  0  0  0  0  0  0
    2.8747    1.5228    2.0903 H   0  0  0  0  0  0  0  0  0  0  0  0
    4.4656    2.1399    2.6674 H   0  0  0  0  0  0  0  0  0  0  0  0
    3.8914    0.5023    3.1641 H   0  0  0  0  0  0  0  0  0  0  0  0
    6.0136    0.5451    1.2463 C   0  0  0  0  0  0  0  0  0  0  0  0
    6.3732   -0.1900    0.5050 H   0  0  0  0  0  0  0  0  0  0  0  0
    6.2791    0.1616    2.2565 H   0  0  0  0  0  0  0  0  0  0  0  0
    6.5543    1.5040    1.0913 H   0  0  0  0  0  0  0  0  0  0  0  0
  1  5  1  0  0  0  0
  2 18  1  0  0  0  0
  2 14  1  0  0  0  0
  4  3  3  0  0  0  0
  5  4  1  0  0  0  0
  5  2  1  0  0  0  0
  6  7  1  0  0  0  0
  6  1  1  0  0  0  0
  8  6  1  0  0  0  0
  9  6  1  0  0  0  0
 10 11  1  0  0  0  0
 10  1  1  0  0  0  0
 12 10  1  0  0  0  0
 13 10  1  0  0  0  0
 14 16  1  0  0  0  0
 14 17  1  0  0  0  0
 15 14  1  0  0  0  0
 18 20  1  0  0  0  0
 19 18  1  0  0  0  0
 21 18  1  0  0  0  0
M  END
