3
 OpenBabel05122313113D

 38 39  0  0  0  0  0  0  0  0999 V2000
    3.5749   -0.3816   -2.5329 Si  0  0  0  0  0  0  0  0  0  0  0  0
   -0.3951    0.3944   -1.0701 B   0  0  0  0  0  0  0  0  0  0  0  0
    2.2522   -0.4048   -1.2142 C   0  0  0  0  0  2  0  0  0  0  0  0
    0.9853   -0.1064   -1.2033 C   0  0  0  0  0  2  0  0  0  0  0  0
    5.2596   -0.0061   -1.7481 C   0  0  0  0  0  0  0  0  0  0  0  0
    5.2621    1.0018   -1.2845 H   0  0  0  0  0  0  0  0  0  0  0  0
    6.0635   -0.0261   -2.5125 H   0  0  0  0  0  0  0  0  0  0  0  0
    5.5197   -0.7449   -0.9626 H   0  0  0  0  0  0  0  0  0  0  0  0
    3.1698    0.9322   -3.8303 C   0  0  0  0  0  0  0  0  0  0  0  0
    2.1634    0.7485   -4.2582 H   0  0  0  0  0  0  0  0  0  0  0  0
    3.9095    0.9236   -4.6574 H   0  0  0  0  0  0  0  0  0  0  0  0
    3.1578    1.9439   -3.3792 H   0  0  0  0  0  0  0  0  0  0  0  0
    3.6179   -2.0884   -3.3607 C   0  0  0  0  0  0  0  0  0  0  0  0
    3.8797   -2.8976   -2.6500 H   0  0  0  0  0  0  0  0  0  0  0  0
    4.3621   -2.1053   -4.1840 H   0  0  0  0  0  0  0  0  0  0  0  0
    2.6240   -2.3259   -3.7920 H   0  0  0  0  0  0  0  0  0  0  0  0
   -0.5776    1.9045   -0.5813 C   0  0  0  0  0  0  0  0  0  0  0  0
    1.3391    2.7138   -1.7651 F   0  0  0  0  0  0  0  0  0  0  0  0
    0.3188    2.9381   -0.9145 C   0  0  0  0  0  0  0  0  0  0  0  0
    1.1324    5.1699   -0.7168 F   0  0  0  0  0  0  0  0  0  0  0  0
    0.2369    4.2347   -0.3793 C   0  0  0  0  0  0  0  0  0  0  0  0
   -0.8866    5.7743    1.0443 F   0  0  0  0  0  0  0  0  0  0  0  0
   -0.7940    4.5484    0.5219 C   0  0  0  0  0  0  0  0  0  0  0  0
   -2.7138    3.8303    1.7346 F   0  0  0  0  0  0  0  0  0  0  0  0
   -1.7278    3.5566    0.8674 C   0  0  0  0  0  0  0  0  0  0  0  0
   -2.5303    1.3684    0.6960 F   0  0  0  0  0  0  0  0  0  0  0  0
   -1.6033    2.2792    0.3052 C   0  0  0  0  0  0  0  0  0  0  0  0
   -1.6904   -0.4435   -1.4449 C   0  0  0  0  0  0  0  0  0  0  0  0
   -2.8266    1.4901   -2.2789 F   0  0  0  0  0  0  0  0  0  0  0  0
   -2.8339    0.1741   -1.9996 C   0  0  0  0  0  0  0  0  0  0  0  0
   -5.0715    0.1276   -2.8227 F   0  0  0  0  0  0  0  0  0  0  0  0
   -4.0221   -0.5132   -2.2949 C   0  0  0  0  0  0  0  0  0  0  0  0
   -5.2276   -2.5652   -2.3050 F   0  0  0  0  0  0  0  0  0  0  0  0
   -4.1017   -1.8936   -2.0445 C   0  0  0  0  0  0  0  0  0  0  0  0
   -3.0587   -3.8638   -1.2166 F   0  0  0  0  0  0  0  0  0  0  0  0
   -2.9866   -2.5556   -1.5103 C   0  0  0  0  0  0  0  0  0  0  0  0
   -0.7854   -2.5436   -0.7459 F   0  0  0  0  0  0  0  0  0  0  0  0
   -1.8135   -1.8314   -1.2517 C   0  0  0  0  0  0  0  0  0  0  0  0
  1  5  1  0  0  0  0
  1  3  1  0  0  0  0
  2 17  1  0  0  0  0
  3  4  1  0  0  0  0
  4  2  1  0  0  0  0
  5  6  1  0  0  0  0
  5  8  1  0  0  0  0
  7  5  1  0  0  0  0
  9 12  1  0  0  0  0
  9  1  1  0  0  0  0
 10  9  1  0  0  0  0
 11  9  1  0  0  0  0
 13 14  1  0  0  0  0
 13  1  1  0  0  0  0
 15 13  1  0  0  0  0
 16 13  1  0  0  0  0
 17 27  1  0  0  0  0
 18 19  1  0  0  0  0
 19 17  2  0  0  0  0
 19 21  1  0  0  0  0
 20 21  1  0  0  0  0
 21 23  2  0  0  0  0
 23 25  1  0  0  0  0
 23 22  1  0  0  0  0
 25 24  1  0  0  0  0
 27 26  1  0  0  0  0
 27 25  2  0  0  0  0
 28 38  1  0  0  0  0
 28  2  1  0  0  0  0
 29 30  1  0  0  0  0
 30 28  2  0  0  0  0
 31 32  1  0  0  0  0
 32 34  2  0  0  0  0
 32 30  1  0  0  0  0
 33 34  1  0  0  0  0
 34 36  1  0  0  0  0
 36 38  2  0  0  0  0
 36 35  1  0  0  0  0
 38 37  1  0  0  0  0
M  END
