1
 OpenBabel05122313113D

 20 20  0  0  0  0  0  0  0  0999 V2000
   -2.7250    0.2766   -0.4341 C   0  0  0  0  0  3  0  0  0  0  0  0
   -3.4025    0.5399   -1.6412 C   0  0  0  0  0  0  0  0  0  0  0  0
   -3.0439    0.0896   -2.5803 H   0  0  0  0  0  0  0  0  0  0  0  0
   -4.5359    1.3708   -1.6625 C   0  0  0  0  0  0  0  0  0  0  0  0
   -5.0502    1.5729   -2.6156 H   0  0  0  0  0  0  0  0  0  0  0  0
   -5.0157    1.9277   -0.4661 C   0  0  0  0  0  0  0  0  0  0  0  0
   -5.9070    2.5740   -0.4715 H   0  0  0  0  0  0  0  0  0  0  0  0
   -4.3590    1.6457    0.7414 C   0  0  0  0  0  0  0  0  0  0  0  0
   -4.7466    2.0758    1.6798 H   0  0  0  0  0  0  0  0  0  0  0  0
   -3.2128    0.8236    0.7775 C   0  0  0  0  0  0  0  0  0  0  0  0
   -2.5120    0.5146    2.0970 C   0  0  0  0  0  0  0  0  0  0  0  0
   -1.5676   -0.0125    1.8235 H   0  0  0  0  0  0  0  0  0  0  0  0
   -2.1238    1.7787    2.8773 C   0  0  0  0  0  0  0  0  0  0  0  0
   -1.5541    1.5174    3.7932 H   0  0  0  0  0  0  0  0  0  0  0  0
   -3.0183    2.3522    3.1991 H   0  0  0  0  0  0  0  0  0  0  0  0
   -1.4955    2.4564    2.2633 H   0  0  0  0  0  0  0  0  0  0  0  0
   -3.3454   -0.4544    2.9490 C   0  0  0  0  0  0  0  0  0  0  0  0
   -3.5543   -1.3865    2.3870 H   0  0  0  0  0  0  0  0  0  0  0  0
   -4.3182    0.0008    3.2307 H   0  0  0  0  0  0  0  0  0  0  0  0
   -2.8119   -0.7231    3.8849 H   0  0  0  0  0  0  0  0  0  0  0  0
  1 10  1  0  0  0  0
  2  1  2  0  0  0  0
  3  2  1  0  0  0  0
  4  2  1  0  0  0  0
  4  6  2  0  0  0  0
  5  4  1  0  0  0  0
  6  8  1  0  0  0  0
  7  6  1  0  0  0  0
  8 10  2  0  0  0  0
  8  9  1  0  0  0  0
 10 11  1  0  0  0  0
 11 13  1  0  0  0  0
 11 17  1  0  0  0  0
 12 11  1  0  0  0  0
 13 15  1  0  0  0  0
 13 14  1  0  0  0  0
 16 13  1  0  0  0  0
 17 19  1  0  0  0  0
 17 20  1  0  0  0  0
 18 17  1  0  0  0  0
M  END
