2
 OpenBabel05122313113D

 23 23  0  0  0  0  0  0  0  0999 V2000
   -1.3264   -0.2716   -2.6087 O   0  0  0  0  0  0  0  0  0  0  0  0
   -1.4921    0.2524   -1.5104 C   0  0  0  0  0  3  0  0  0  0  0  0
   -2.0069    1.6757   -1.4493 C   0  0  0  0  0  0  0  0  0  0  0  0
   -3.1761    2.0454   -0.8494 C   0  0  0  0  0  0  0  0  0  0  0  0
   -3.5201    3.5092   -0.6806 C   0  0  0  0  0  0  0  0  0  0  0  0
   -1.0792    2.6823   -2.0856 C   0  0  0  0  0  0  0  0  0  0  0  0
   -4.1573    1.0484   -0.3556 C   0  0  0  0  0  0  0  0  0  0  0  0
   -4.5621   -0.0298   -1.1756 C   0  0  0  0  0  0  0  0  0  0  0  0
   -5.5113   -0.9608   -0.7282 C   0  0  0  0  0  0  0  0  0  0  0  0
   -6.0768   -0.8353    0.5507 C   0  0  0  0  0  0  0  0  0  0  0  0
   -5.6913    0.2371    1.3741 C   0  0  0  0  0  0  0  0  0  0  0  0
   -4.7527    1.1743    0.9219 C   0  0  0  0  0  0  0  0  0  0  0  0
   -4.1337   -0.1146   -2.1852 H   0  0  0  0  0  0  0  0  0  0  0  0
   -5.8182   -1.7873   -1.3879 H   0  0  0  0  0  0  0  0  0  0  0  0
   -6.8222   -1.5647    0.9024 H   0  0  0  0  0  0  0  0  0  0  0  0
   -6.1282    0.3443    2.3790 H   0  0  0  0  0  0  0  0  0  0  0  0
   -4.4457    2.0009    1.5796 H   0  0  0  0  0  0  0  0  0  0  0  0
   -1.6425    3.4588   -2.6422 H   0  0  0  0  0  0  0  0  0  0  0  0
   -0.3911    2.1783   -2.7912 H   0  0  0  0  0  0  0  0  0  0  0  0
   -0.4627    3.2005   -1.3213 H   0  0  0  0  0  0  0  0  0  0  0  0
   -3.5156    4.0426   -1.6553 H   0  0  0  0  0  0  0  0  0  0  0  0
   -4.5230    3.6457   -0.2349 H   0  0  0  0  0  0  0  0  0  0  0  0
   -2.7795    4.0276   -0.0346 H   0  0  0  0  0  0  0  0  0  0  0  0
  1  2  2  0  0  0  0
  2  3  1  0  0  0  0
  3  4  2  0  0  0  0
  4  5  1  0  0  0  0
  4  7  1  0  0  0  0
  5 22  1  0  0  0  0
  5 23  1  0  0  0  0
  6  3  1  0  0  0  0
  6 20  1  0  0  0  0
  7 12  1  0  0  0  0
  8  9  1  0  0  0  0
  8  7  2  0  0  0  0
  9 10  2  0  0  0  0
 10 15  1  0  0  0  0
 10 11  1  0  0  0  0
 11 16  1  0  0  0  0
 12 11  2  0  0  0  0
 12 17  1  0  0  0  0
 13  8  1  0  0  0  0
 14  9  1  0  0  0  0
 18  6  1  0  0  0  0
 19  6  1  0  0  0  0
 21  5  1  0  0  0  0
M  END
