1
 OpenBabel05122313113D

 25 25  0  0  0  0  0  0  0  0999 V2000
   -1.9600   -0.0002    0.0000 C   0  0  0  0  0  2  0  0  0  0  0  0
   -2.7477   -0.8356    0.7072 N   0  0  0  0  0  0  0  0  0  0  0  0
   -4.1659   -0.6835    0.3558 C   0  0  0  0  0  0  0  0  0  0  0  0
   -4.8087   -0.7063    1.2590 H   0  0  0  0  0  0  0  0  0  0  0  0
   -4.4841   -1.5120   -0.3172 H   0  0  0  0  0  0  0  0  0  0  0  0
   -4.1662    0.6822   -0.3557 C   0  0  0  0  0  0  0  0  0  0  0  0
   -4.8090    0.7047   -1.2589 H   0  0  0  0  0  0  0  0  0  0  0  0
   -4.4847    1.5106    0.3172 H   0  0  0  0  0  0  0  0  0  0  0  0
   -2.7480    0.8349   -0.7071 N   0  0  0  0  0  0  0  0  0  0  0  0
   -2.2289   -2.0187    1.3790 C   0  0  0  0  0  0  0  0  0  0  0  0
   -2.8599   -2.2389    2.2662 H   0  0  0  0  0  0  0  0  0  0  0  0
   -1.2202   -1.7292    1.7468 H   0  0  0  0  0  0  0  0  0  0  0  0
   -2.1454   -3.2089    0.4576 C   0  0  0  0  0  0  0  0  0  0  0  0
   -1.5345   -3.0400   -0.4497 H   0  0  0  0  0  0  0  0  0  0  0  0
   -2.7592   -4.3842    0.6739 C   0  0  0  0  0  0  0  0  0  0  0  0
   -3.3768   -4.5551    1.5729 H   0  0  0  0  0  0  0  0  0  0  0  0
   -2.6580   -5.2251   -0.0299 H   0  0  0  0  0  0  0  0  0  0  0  0
   -2.2297    2.0183   -1.3789 C   0  0  0  0  0  0  0  0  0  0  0  0
   -1.2209    1.7292   -1.7467 H   0  0  0  0  0  0  0  0  0  0  0  0
   -2.8608    2.2381   -2.2662 H   0  0  0  0  0  0  0  0  0  0  0  0
   -2.1469    3.2085   -0.4576 C   0  0  0  0  0  0  0  0  0  0  0  0
   -1.5358    3.0399    0.4497 H   0  0  0  0  0  0  0  0  0  0  0  0
   -2.7615    4.3833   -0.6738 C   0  0  0  0  0  0  0  0  0  0  0  0
   -3.3793    4.5539   -1.5727 H   0  0  0  0  0  0  0  0  0  0  0  0
   -2.6609    5.2244    0.0301 H   0  0  0  0  0  0  0  0  0  0  0  0
  1  2  1  0  0  0  0
  2 10  1  0  0  0  0
  3  2  1  0  0  0  0
  3  4  1  0  0  0  0
  5  3  1  0  0  0  0
  6  8  1  0  0  0  0
  6  3  1  0  0  0  0
  7  6  1  0  0  0  0
  9  6  1  0  0  0  0
  9  1  1  0  0  0  0
 10 12  1  0  0  0  0
 10 11  1  0  0  0  0
 13 15  2  0  0  0  0
 13 10  1  0  0  0  0
 14 13  1  0  0  0  0
 15 16  1  0  0  0  0
 17 15  1  0  0  0  0
 18  9  1  0  0  0  0
 18 21  1  0  0  0  0
 19 18  1  0  0  0  0
 20 18  1  0  0  0  0
 21 22  1  0  0  0  0
 23 21  2  0  0  0  0
 23 25  1  0  0  0  0
 24 23  1  0  0  0  0
M  END
