2
 OpenBabel05122313113D

 70 74  0  0  0  0  0  0  0  0999 V2000
    2.4581    3.0318   -1.1555 O   0  0  0  0  0  0  0  0  0  0  0  0
   -0.2851   -0.0753   -0.0502 C   0  0  0  0  0  2  0  0  0  0  0  0
    1.0423   -0.1239    0.2480 N   0  0  0  0  0  0  0  0  0  0  0  0
   -0.8668    1.1199   -0.3705 N   0  0  0  0  0  0  0  0  0  0  0  0
    1.6786   -1.4240    0.2490 C   0  0  0  0  0  0  0  0  0  0  0  0
    1.7595   -2.1834    1.4400 C   0  0  0  0  0  0  0  0  0  0  0  0
    2.4530   -3.4056    1.3925 C   0  0  0  0  0  0  0  0  0  0  0  0
    2.5088   -4.0142    2.3095 H   0  0  0  0  0  0  0  0  0  0  0  0
    3.0509   -3.8834    0.2124 C   0  0  0  0  0  0  0  0  0  0  0  0
    2.9350   -3.1043   -0.9529 C   0  0  0  0  0  0  0  0  0  0  0  0
    3.3855   -3.4651   -1.8914 H   0  0  0  0  0  0  0  0  0  0  0  0
    2.2522   -1.8768   -0.9608 C   0  0  0  0  0  0  0  0  0  0  0  0
    1.0950   -1.7360    2.7167 C   0  0  0  0  0  0  0  0  0  0  0  0
    0.9353   -2.5960    3.3939 H   0  0  0  0  0  0  0  0  0  0  0  0
    0.1056   -1.2799    2.5111 H   0  0  0  0  0  0  0  0  0  0  0  0
    1.7043   -0.9911    3.2740 H   0  0  0  0  0  0  0  0  0  0  0  0
    3.7486   -5.2196    0.1857 C   0  0  0  0  0  0  0  0  0  0  0  0
    4.5292   -5.2584   -0.5993 H   0  0  0  0  0  0  0  0  0  0  0  0
    3.0254   -6.0352   -0.0305 H   0  0  0  0  0  0  0  0  0  0  0  0
    4.2218   -5.4548    1.1595 H   0  0  0  0  0  0  0  0  0  0  0  0
    2.1110   -1.0730   -2.2259 C   0  0  0  0  0  0  0  0  0  0  0  0
    2.6403   -1.5586   -3.0670 H   0  0  0  0  0  0  0  0  0  0  0  0
    2.5189   -0.0481   -2.1065 H   0  0  0  0  0  0  0  0  0  0  0  0
    1.0413   -0.9707   -2.5067 H   0  0  0  0  0  0  0  0  0  0  0  0
   -2.3071    1.1937   -0.2679 C   0  0  0  0  0  0  0  0  0  0  0  0
   -3.1119    1.0359   -1.4226 C   0  0  0  0  0  0  0  0  0  0  0  0
   -4.5038    1.1617   -1.2778 C   0  0  0  0  0  0  0  0  0  0  0  0
   -5.1393    1.0273   -2.1679 H   0  0  0  0  0  0  0  0  0  0  0  0
   -5.1078    1.4208   -0.0341 C   0  0  0  0  0  0  0  0  0  0  0  0
   -4.2772    1.5367    1.0947 C   0  0  0  0  0  0  0  0  0  0  0  0
   -4.7316    1.7128    2.0829 H   0  0  0  0  0  0  0  0  0  0  0  0
   -2.8795    1.4152    1.0072 C   0  0  0  0  0  0  0  0  0  0  0  0
   -2.5140    0.6763   -2.7589 C   0  0  0  0  0  0  0  0  0  0  0  0
   -3.2757    0.2092   -3.4110 H   0  0  0  0  0  0  0  0  0  0  0  0
   -1.6815   -0.0462   -2.6367 H   0  0  0  0  0  0  0  0  0  0  0  0
   -2.1159    1.5599   -3.3032 H   0  0  0  0  0  0  0  0  0  0  0  0
   -6.6076    1.5101    0.0911 C   0  0  0  0  0  0  0  0  0  0  0  0
   -6.9107    2.0719    0.9961 H   0  0  0  0  0  0  0  0  0  0  0  0
   -7.0559    0.4962    0.1669 H   0  0  0  0  0  0  0  0  0  0  0  0
   -7.0636    2.0006   -0.7917 H   0  0  0  0  0  0  0  0  0  0  0  0
   -2.0256    1.4537    2.2478 C   0  0  0  0  0  0  0  0  0  0  0  0
   -2.6053    1.8099    3.1202 H   0  0  0  0  0  0  0  0  0  0  0  0
   -1.1374    2.1052    2.1273 H   0  0  0  0  0  0  0  0  0  0  0  0
   -1.6505    0.4344    2.4827 H   0  0  0  0  0  0  0  0  0  0  0  0
    1.8238    0.9466    0.9163 C   0  0  0  0  0  0  0  0  0  0  0  0
    1.9759    0.6105    1.9631 H   0  0  0  0  0  0  0  0  0  0  0  0
    1.1991    1.8500    0.9731 H   0  0  0  0  0  0  0  0  0  0  0  0
    3.1921    1.2157    0.3233 C   0  0  0  0  0  0  0  0  0  0  0  0
    3.4514    2.2171   -0.6435 C   0  0  0  0  0  0  0  0  0  0  0  0
    4.7292    2.3689   -1.2077 C   0  0  0  0  0  0  0  0  0  0  0  0
    4.8713    3.1568   -1.9610 H   0  0  0  0  0  0  0  0  0  0  0  0
    5.7760    1.5257   -0.8154 C   0  0  0  0  0  0  0  0  0  0  0  0
    6.7729    1.6480   -1.2650 H   0  0  0  0  0  0  0  0  0  0  0  0
    5.5502    0.5389    0.1568 C   0  0  0  0  0  0  0  0  0  0  0  0
    6.3659   -0.1251    0.4777 H   0  0  0  0  0  0  0  0  0  0  0  0
    4.2737    0.3986    0.7155 C   0  0  0  0  0  0  0  0  0  0  0  0
    4.0902   -0.3856    1.4660 H   0  0  0  0  0  0  0  0  0  0  0  0
   -0.2008    2.2082   -1.1150 C   0  0  0  0  0  0  0  0  0  0  0  0
   -0.9203    2.5330   -1.8915 H   0  0  0  0  0  0  0  0  0  0  0  0
    0.6701    1.7755   -1.6406 H   0  0  0  0  0  0  0  0  0  0  0  0
    0.2478    3.4181   -0.3249 C   0  0  0  0  0  0  0  0  0  0  0  0
    1.6210    3.7446   -0.3132 C   0  0  0  0  0  0  0  0  0  0  0  0
    2.1202    4.7896    0.4778 C   0  0  0  0  0  0  0  0  0  0  0  0
    3.1992    5.0021    0.4697 H   0  0  0  0  0  0  0  0  0  0  0  0
    1.2288    5.5467    1.2518 C   0  0  0  0  0  0  0  0  0  0  0  0
    1.6115    6.3715    1.8716 H   0  0  0  0  0  0  0  0  0  0  0  0
   -0.1478    5.2661    1.2216 C   0  0  0  0  0  0  0  0  0  0  0  0
   -0.8474    5.8726    1.8155 H   0  0  0  0  0  0  0  0  0  0  0  0
   -0.6328    4.2102    0.4352 C   0  0  0  0  0  0  0  0  0  0  0  0
   -1.7090    3.9781    0.4204 H   0  0  0  0  0  0  0  0  0  0  0  0
  1 49  1  0  0  0  0
  1 62  1  0  0  0  0
  2  3  1  0  0  0  0
  3  5  1  0  0  0  0
  3 45  1  0  0  0  0
  4 25  1  0  0  0  0
  4  2  1  0  0  0  0
  5  6  1  0  0  0  0
  6 13  1  0  0  0  0
  7  6  2  0  0  0  0
  7  8  1  0  0  0  0
  9  7  1  0  0  0  0
 10  9  2  0  0  0  0
 11 10  1  0  0  0  0
 12 10  1  0  0  0  0
 12  5  2  0  0  0  0
 13 16  1  0  0  0  0
 13 14  1  0  0  0  0
 15 13  1  0  0  0  0
 17  9  1  0  0  0  0
 17 20  1  0  0  0  0
 18 17  1  0  0  0  0
 19 17  1  0  0  0  0
 21 23  1  0  0  0  0
 21 12  1  0  0  0  0
 22 21  1  0  0  0  0
 24 21  1  0  0  0  0
 25 32  1  0  0  0  0
 26 27  1  0  0  0  0
 26 25  2  0  0  0  0
 27 29  2  0  0  0  0
 28 27  1  0  0  0  0
 29 37  1  0  0  0  0
 29 30  1  0  0  0  0
 30 31  1  0  0  0  0
 32 30  2  0  0  0  0
 32 41  1  0  0  0  0
 33 35  1  0  0  0  0
 33 26  1  0  0  0  0
 34 33  1  0  0  0  0
 36 33  1  0  0  0  0
 37 39  1  0  0  0  0
 37 38  1  0  0  0  0
 40 37  1  0  0  0  0
 41 44  1  0  0  0  0
 41 42  1  0  0  0  0
 43 41  1  0  0  0  0
 45 47  1  0  0  0  0
 45 46  1  0  0  0  0
 48 56  1  0  0  0  0
 48 45  1  0  0  0  0
 49 48  2  0  0  0  0
 50 52  2  0  0  0  0
 50 49  1  0  0  0  0
 51 50  1  0  0  0  0
 52 54  1  0  0  0  0
 53 52  1  0  0  0  0
 54 55  1  0  0  0  0
 54 56  2  0  0  0  0
 56 57  1  0  0  0  0
 58  4  1  0  0  0  0
 58 61  1  0  0  0  0
 59 58  1  0  0  0  0
 60 58  1  0  0  0  0
 61 62  2  0  0  0  0
 61 69  1  0  0  0  0
 62 63  1  0  0  0  0
 63 65  2  0  0  0  0
 64 63  1  0  0  0  0
 65 66  1  0  0  0  0
 67 65  1  0  0  0  0
 67 68  1  0  0  0  0
 69 67  2  0  0  0  0
 70 69  1  0  0  0  0
M  END
