2
 OpenBabel05122313113D

 44 45  0  0  1  0  0  0  0  0999 V2000
    1.0272   -2.0879    0.1195 N   0  0  0  0  0  0  0  0  0  0  0  0
   -0.0606   -1.4040    0.0798 C   0  0  0  0  0  3  0  0  0  0  0  0
   -1.4055   -2.1350    0.1682 C   0  0  1  0  0  0  0  0  0  0  0  0
   -2.1947   -1.4565    1.2815 C   0  0  0  0  0  0  0  0  0  0  0  0
   -3.2513   -0.7796    0.7291 C   0  0  0  0  0  0  0  0  0  0  0  0
   -3.2460   -0.9718   -0.7384 C   0  0  0  0  0  0  0  0  0  0  0  0
   -2.1821   -1.7621   -1.0892 C   0  0  0  0  0  0  0  0  0  0  0  0
   -1.2580   -3.6495    0.3621 C   0  0  0  0  0  0  0  0  0  0  0  0
   -0.6782   -4.0933   -0.4698 H   0  0  0  0  0  0  0  0  0  0  0  0
   -2.2542   -4.1322    0.4127 H   0  0  0  0  0  0  0  0  0  0  0  0
   -0.6988   -3.8700    1.2919 H   0  0  0  0  0  0  0  0  0  0  0  0
   -1.8021   -1.5739    2.7176 C   0  0  0  0  0  0  0  0  0  0  0  0
   -0.7285   -1.3335    2.8653 H   0  0  0  0  0  0  0  0  0  0  0  0
   -1.9407   -2.6109    3.0961 H   0  0  0  0  0  0  0  0  0  0  0  0
   -2.3940   -0.9007    3.3675 H   0  0  0  0  0  0  0  0  0  0  0  0
   -4.3099    0.0056    1.4414 C   0  0  0  0  0  0  0  0  0  0  0  0
   -5.3090   -0.4665    1.3219 H   0  0  0  0  0  0  0  0  0  0  0  0
   -4.4049    1.0333    1.0317 H   0  0  0  0  0  0  0  0  0  0  0  0
   -4.1075    0.0912    2.5259 H   0  0  0  0  0  0  0  0  0  0  0  0
   -4.3064   -0.4107   -1.6360 C   0  0  0  0  0  0  0  0  0  0  0  0
   -4.4344    0.6812   -1.4896 H   0  0  0  0  0  0  0  0  0  0  0  0
   -5.2951   -0.8723   -1.4229 H   0  0  0  0  0  0  0  0  0  0  0  0
   -4.0816   -0.5857   -2.7055 H   0  0  0  0  0  0  0  0  0  0  0  0
   -1.7767   -2.2469   -2.4421 C   0  0  0  0  0  0  0  0  0  0  0  0
   -1.9167   -3.3462   -2.5409 H   0  0  0  0  0  0  0  0  0  0  0  0
   -0.7008   -2.0548   -2.6348 H   0  0  0  0  0  0  0  0  0  0  0  0
   -2.3605   -1.7643   -3.2497 H   0  0  0  0  0  0  0  0  0  0  0  0
    2.3015   -1.5079    0.0642 C   0  0  0  0  0  0  0  0  0  0  0  0
    2.9664   -1.3849   -1.1864 C   0  0  0  0  0  0  0  0  0  0  0  0
    2.2411   -1.2937    2.5888 C   0  0  0  0  0  0  0  0  0  0  0  0
    1.7917   -2.3043    2.6835 H   0  0  0  0  0  0  0  0  0  0  0  0
    1.4025   -0.5713    2.6782 H   0  0  0  0  0  0  0  0  0  0  0  0
    2.9256   -1.1239    3.4417 H   0  0  0  0  0  0  0  0  0  0  0  0
    4.2927   -0.9186   -1.2034 C   0  0  0  0  0  0  0  0  0  0  0  0
    4.8105   -0.8300   -2.1718 H   0  0  0  0  0  0  0  0  0  0  0  0
    4.9552   -0.5649   -0.0195 C   0  0  0  0  0  0  0  0  0  0  0  0
    5.9939   -0.2040   -0.0516 H   0  0  0  0  0  0  0  0  0  0  0  0
    4.2826   -0.6754    1.2063 C   0  0  0  0  0  0  0  0  0  0  0  0
    4.7950   -0.4025    2.1428 H   0  0  0  0  0  0  0  0  0  0  0  0
    2.9586   -1.1466    1.2727 C   0  0  0  0  0  0  0  0  0  0  0  0
    2.2462   -1.7545   -2.4565 C   0  0  0  0  0  0  0  0  0  0  0  0
    1.4319   -1.0331   -2.6842 H   0  0  0  0  0  0  0  0  0  0  0  0
    1.7627   -2.7494   -2.3645 H   0  0  0  0  0  0  0  0  0  0  0  0
    2.9363   -1.7700   -3.3217 H   0  0  0  0  0  0  0  0  0  0  0  0
  2  1  2  0  0  0  0
  3  2  1  6  0  0  0
  3  8  1  0  0  0  0
  3  4  1  0  0  0  0
  4 12  1  0  0  0  0
  5  4  2  0  0  0  0
  5 16  1  0  0  0  0
  6  5  1  0  0  0  0
  7  6  2  0  0  0  0
  7  3  1  0  0  0  0
  8 10  1  0  0  0  0
  8 11  1  0  0  0  0
  9  8  1  0  0  0  0
 12 13  1  0  0  0  0
 12 14  1  0  0  0  0
 12 15  1  0  0  0  0
 16 19  1  0  0  0  0
 17 16  1  0  0  0  0
 18 16  1  0  0  0  0
 20 21  1  0  0  0  0
 20 22  1  0  0  0  0
 20  6  1  0  0  0  0
 23 20  1  0  0  0  0
 24  7  1  0  0  0  0
 25 24  1  0  0  0  0
 26 24  1  0  0  0  0
 27 24  1  0  0  0  0
 28  1  1  0  0  0  0
 28 40  1  0  0  0  0
 29 28  2  0  0  0  0
 30 32  1  0  0  0  0
 30 31  1  0  0  0  0
 30 33  1  0  0  0  0
 34 29  1  0  0  0  0
 34 36  2  0  0  0  0
 35 34  1  0  0  0  0
 36 38  1  0  0  0  0
 37 36  1  0  0  0  0
 38 40  2  0  0  0  0
 38 39  1  0  0  0  0
 40 30  1  0  0  0  0
 41 43  1  0  0  0  0
 41 29  1  0  0  0  0
 42 41  1  0  0  0  0
 44 41  1  0  0  0  0
M  END
