1
 OpenBabel05122313113D

 17 17  0  0  1  0  0  0  0  0999 V2000
    1.1944    1.2589    0.1854 C   0  0  0  0  0  1  0  0  0  0  0  0
    2.2410    2.1032    0.1928 C   0  0  2  0  0  3  0  0  0  0  0  0
    2.1985    3.4087   -0.5717 C   0  0  0  0  0  0  0  0  0  0  0  0
    3.4681    1.6897    0.9014 C   0  0  0  0  0  0  0  0  0  0  0  0
    3.4511    0.5866    1.7972 C   0  0  0  0  0  0  0  0  0  0  0  0
    4.6188    0.1651    2.4381 C   0  0  0  0  0  0  0  0  0  0  0  0
    5.8396    0.8314    2.2163 C   0  0  0  0  0  0  0  0  0  0  0  0
    5.8673    1.9322    1.3458 C   0  0  0  0  0  0  0  0  0  0  0  0
    4.6977    2.3613    0.6986 C   0  0  0  0  0  0  0  0  0  0  0  0
    2.8925    3.3832   -1.4416 H   0  0  0  0  0  0  0  0  0  0  0  0
    2.5035    4.2610    0.0727 H   0  0  0  0  0  0  0  0  0  0  0  0
    1.1826    3.6255   -0.9501 H   0  0  0  0  0  0  0  0  0  0  0  0
    2.5071    0.0454    1.9684 H   0  0  0  0  0  0  0  0  0  0  0  0
    4.5671   -0.6967    3.1219 H   0  0  0  0  0  0  0  0  0  0  0  0
    6.7578    0.5010    2.7265 H   0  0  0  0  0  0  0  0  0  0  0  0
    6.8128    2.4691    1.1656 H   0  0  0  0  0  0  0  0  0  0  0  0
    4.7472    3.2189    0.0117 H   0  0  0  0  0  0  0  0  0  0  0  0
  2  1  1  6  0  0  0
  2  4  1  0  0  0  0
  3 11  1  0  0  0  0
  3  2  1  0  0  0  0
  4  5  1  0  0  0  0
  5 13  1  0  0  0  0
  5  6  2  0  0  0  0
  6 14  1  0  0  0  0
  7  6  1  0  0  0  0
  7 15  1  0  0  0  0
  8  7  2  0  0  0  0
  9  4  2  0  0  0  0
  9  8  1  0  0  0  0
 10  3  1  0  0  0  0
 12  3  1  0  0  0  0
 16  8  1  0  0  0  0
 17  9  1  0  0  0  0
M  END
