3
 OpenBabel05122313113D

 16 15  0  0  0  0  0  0  0  0999 V2000
   -3.6188   -1.3285    2.3547 O   0  0  0  0  0  0  0  0  0  0  0  0
   -3.4561   -0.9988    0.1063 O   0  0  0  0  0  0  0  0  0  0  0  0
   -0.8528    0.2359    2.2737 C   0  0  0  0  0  3  0  0  0  0  0  0
   -1.6327   -0.3920    1.4676 C   0  0  0  0  0  3  0  0  0  0  0  0
   -0.4818    0.7798    3.5794 C   0  0  0  0  0  0  0  0  0  0  0  0
   -2.9653   -0.9469    1.3897 C   0  0  0  0  0  0  0  0  0  0  0  0
   -4.7167   -1.6713   -0.0473 C   0  0  0  0  0  0  0  0  0  0  0  0
   -5.9003   -0.7757    0.2856 C   0  0  0  0  0  0  0  0  0  0  0  0
    0.4272    0.2509    3.9364 H   0  0  0  0  0  0  0  0  0  0  0  0
   -1.3033    0.6452    4.3125 H   0  0  0  0  0  0  0  0  0  0  0  0
   -0.1877    1.8448    3.4951 H   0  0  0  0  0  0  0  0  0  0  0  0
   -4.7339   -1.9930   -1.1086 H   0  0  0  0  0  0  0  0  0  0  0  0
   -4.7143   -2.5773    0.5933 H   0  0  0  0  0  0  0  0  0  0  0  0
   -5.8736   -0.4961    1.3559 H   0  0  0  0  0  0  0  0  0  0  0  0
   -6.8512   -1.3111    0.0840 H   0  0  0  0  0  0  0  0  0  0  0  0
   -5.8799    0.1517   -0.3191 H   0  0  0  0  0  0  0  0  0  0  0  0
  2  6  1  0  0  0  0
  3  5  1  0  0  0  0
  4  3  2  0  0  0  0
  5  9  1  0  0  0  0
  5 10  1  0  0  0  0
  6  4  1  0  0  0  0
  6  1  2  0  0  0  0
  7  2  1  0  0  0  0
  7  8  1  0  0  0  0
  7 13  1  0  0  0  0
  8 14  1  0  0  0  0
 11  5  1  0  0  0  0
 12  7  1  0  0  0  0
 15  8  1  0  0  0  0
 16  8  1  0  0  0  0
M  END
