14
 OpenBabel05122313113D

 42 42  0  0  1  0  0  0  0  0999 V2000
   -0.6926   -1.2929   -1.3919 O   0  0  0  0  0  0  0  0  0  0  0  0
   -1.9098   -0.6647   -1.0737 C   0  0  2  0  0  0  0  0  0  0  0  0
   -2.3405   -0.2074   -1.9870 H   0  0  0  0  0  0  0  0  0  0  0  0
   -1.5433    0.4436   -0.0365 C   0  0  0  0  0  0  0  0  0  0  0  0
   -0.4421   -0.2871    0.7553 C   0  0  0  0  0  0  0  0  0  0  0  0
   -0.9350   -0.9207    1.5164 H   0  0  0  0  0  0  0  0  0  0  0  0
    0.2378    0.4150    1.2678 H   0  0  0  0  0  0  0  0  0  0  0  0
    0.2591   -1.1510   -0.3115 C   0  0  2  0  0  0  0  0  0  0  0  0
    0.4763   -2.1609    0.0990 H   0  0  0  0  0  0  0  0  0  0  0  0
    1.5150   -0.5606   -0.9147 C   0  0  0  0  0  3  0  0  0  0  0  0
    1.3308    0.3812   -1.4595 H   0  0  0  0  0  0  0  0  0  0  0  0
    2.5334   -1.4403   -1.4141 C   0  0  0  0  0  3  0  0  0  0  0  0
    2.4258   -2.5353   -1.3539 H   0  0  0  0  0  0  0  0  0  0  0  0
    3.7640   -0.8554   -1.8258 C   0  0  0  0  0  3  0  0  0  0  0  0
    4.6221   -1.4967   -2.0815 H   0  0  0  0  0  0  0  0  0  0  0  0
    3.8815    0.5696   -1.7162 C   0  0  0  0  0  3  0  0  0  0  0  0
    3.0507    1.2171   -2.0380 H   0  0  0  0  0  0  0  0  0  0  0  0
    4.8801    1.0173   -1.8337 H   0  0  0  0  0  0  0  0  0  0  0  0
   -2.8902   -1.6726   -0.4602 C   0  0  0  0  0  0  0  0  0  0  0  0
   -4.1583   -1.2086   -0.5525 O   0  0  0  0  0  0  0  0  0  0  0  0
   -5.1583   -1.9701    0.1645 C   0  0  0  0  0  0  0  0  0  0  0  0
   -4.9206   -1.9090    1.2478 H   0  0  0  0  0  0  0  0  0  0  0  0
   -5.0746   -3.0357   -0.1323 H   0  0  0  0  0  0  0  0  0  0  0  0
   -6.5160   -1.3848   -0.1607 C   0  0  0  0  0  0  0  0  0  0  0  0
   -6.5810   -0.3231    0.1518 H   0  0  0  0  0  0  0  0  0  0  0  0
   -7.3080   -1.9475    0.3718 H   0  0  0  0  0  0  0  0  0  0  0  0
   -6.7235   -1.4370   -1.2478 H   0  0  0  0  0  0  0  0  0  0  0  0
   -2.5697   -2.7180    0.0658 O   0  0  0  0  0  0  0  0  0  0  0  0
   -1.0080    1.6795   -0.7770 C   0  0  0  0  0  0  0  0  0  0  0  0
   -0.4324    2.5236    0.1074 O   0  0  0  0  0  0  0  0  0  0  0  0
    0.0977    3.7376   -0.4405 C   0  0  0  0  0  0  0  0  0  0  0  0
    0.7809    3.5201   -1.2854 H   0  0  0  0  0  0  0  0  0  0  0  0
    0.6467    4.2281    0.3812 H   0  0  0  0  0  0  0  0  0  0  0  0
   -0.7230    4.3847   -0.8105 H   0  0  0  0  0  0  0  0  0  0  0  0
   -1.0666    1.8793   -1.9734 O   0  0  0  0  0  0  0  0  0  0  0  0
   -2.7251    0.8429    0.8542 C   0  0  0  0  0  0  0  0  0  0  0  0
   -3.3979    1.8812    0.3150 O   0  0  0  0  0  0  0  0  0  0  0  0
   -4.5668    2.3023    1.0295 C   0  0  0  0  0  0  0  0  0  0  0  0
   -5.3259    1.4943    1.0366 H   0  0  0  0  0  0  0  0  0  0  0  0
   -4.9519    3.1862    0.4918 H   0  0  0  0  0  0  0  0  0  0  0  0
   -4.3155    2.5584    2.0777 H   0  0  0  0  0  0  0  0  0  0  0  0
   -3.0416    0.2852    1.8861 O   0  0  0  0  0  0  0  0  0  0  0  0
  1  2  1  0  0  0  0
  1  8  1  0  0  0  0
  2  3  1  6  0  0  0
  2 19  1  0  0  0  0
  2  4  1  0  0  0  0
  4  5  1  0  0  0  0
  4 36  1  0  0  0  0
  5  7  1  0  0  0  0
  5  6  1  0  0  0  0
  8  9  1  1  0  0  0
  8  5  1  0  0  0  0
 10  8  1  0  0  0  0
 11 10  1  0  0  0  0
 12 13  1  0  0  0  0
 12 10  1  0  0  0  0
 14 16  1  0  0  0  0
 14 12  1  0  0  0  0
 15 14  1  0  0  0  0
 17 16  1  0  0  0  0
 18 16  1  0  0  0  0
 19 28  2  0  0  0  0
 20 19  1  0  0  0  0
 20 21  1  0  0  0  0
 21 22  1  0  0  0  0
 23 21  1  0  0  0  0
 24 25  1  0  0  0  0
 24 21  1  0  0  0  0
 24 26  1  0  0  0  0
 27 24  1  0  0  0  0
 29  4  1  0  0  0  0
 29 30  1  0  0  0  0
 31 30  1  0  0  0  0
 31 33  1  0  0  0  0
 32 31  1  0  0  0  0
 34 31  1  0  0  0  0
 35 29  2  0  0  0  0
 36 42  2  0  0  0  0
 37 36  1  0  0  0  0
 37 38  1  0  0  0  0
 38 39  1  0  0  0  0
 38 41  1  0  0  0  0
 40 38  1  0  0  0  0
M  END
