2
 OpenBabel05122313113D

 18 18  0  0  0  0  0  0  0  0999 V2000
   -1.5437   -2.8638    3.1313 O   0  0  0  0  0  0  0  0  0  0  0  0
    1.0808   -0.8563    2.0832 C   0  0  0  0  0  3  0  0  0  0  0  0
    0.9662   -1.9328    2.3148 H   0  0  0  0  0  0  0  0  0  0  0  0
    1.9379   -0.4662    2.6662 H   0  0  0  0  0  0  0  0  0  0  0  0
   -0.1500   -0.0591    2.3614 C   0  0  0  0  0  0  0  0  0  0  0  0
   -0.0356    1.3049    2.7213 C   0  0  0  0  0  0  0  0  0  0  0  0
    0.9721    1.7302    2.8538 H   0  0  0  0  0  0  0  0  0  0  0  0
   -1.1603    2.1219    2.8999 C   0  0  0  0  0  0  0  0  0  0  0  0
   -1.0310    3.1797    3.1770 H   0  0  0  0  0  0  0  0  0  0  0  0
   -2.4459    1.5861    2.7262 C   0  0  0  0  0  0  0  0  0  0  0  0
   -3.3380    2.2167    2.8610 H   0  0  0  0  0  0  0  0  0  0  0  0
   -2.5814    0.2272    2.4012 C   0  0  0  0  0  0  0  0  0  0  0  0
   -3.5858   -0.2125    2.2880 H   0  0  0  0  0  0  0  0  0  0  0  0
   -1.4612   -0.6041    2.2151 C   0  0  0  0  0  0  0  0  0  0  0  0
   -1.6545   -2.0827    1.9436 C   0  0  0  0  0  0  0  0  0  0  0  0
   -2.6719   -2.2616    1.5416 H   0  0  0  0  0  0  0  0  0  0  0  0
   -0.9439   -2.4249    1.1585 H   0  0  0  0  0  0  0  0  0  0  0  0
   -0.6884   -2.6309    3.5381 H   0  0  0  0  0  0  0  0  0  0  0  0
  1 18  1  0  0  0  0
  2  3  1  0  0  0  0
  2  5  1  0  0  0  0
  2  4  1  0  0  0  0
  5  6  1  0  0  0  0
  6  7  1  0  0  0  0
  6  8  2  0  0  0  0
  8  9  1  0  0  0  0
 10 11  1  0  0  0  0
 10  8  1  0  0  0  0
 12 10  2  0  0  0  0
 13 12  1  0  0  0  0
 14  5  2  0  0  0  0
 14 12  1  0  0  0  0
 15 14  1  0  0  0  0
 15  1  1  0  0  0  0
 16 15  1  0  0  0  0
 17 15  1  0  0  0  0
M  END
