3
 OpenBabel05122313113D

 18 19  0  0  0  0  0  0  0  0999 V2000
    1.6540   -1.3481    0.3031 C   0  0  0  0  0  0  0  0  0  0  0  0
    1.0837   -1.2788    1.6504 C   0  0  0  0  0  0  0  0  0  0  0  0
   -0.0786   -2.1315    1.7196 C   0  0  0  0  0  3  0  0  0  0  0  0
   -0.3835   -2.5607    0.3889 C   0  0  0  0  0  0  0  0  0  0  0  0
    0.6062   -1.9747   -0.4936 C   0  0  0  0  0  0  0  0  0  0  0  0
    2.8902   -0.8361   -0.1389 C   0  0  0  0  0  0  0  0  0  0  0  0
    3.8808   -0.1541    0.6685 C   0  0  0  0  0  3  0  0  0  0  0  0
    4.9167    0.2491   -0.1727 C   0  0  0  0  0  0  0  0  0  0  0  0
    4.6055   -0.1711   -1.5166 C   0  0  0  0  0  0  0  0  0  0  0  0
    3.3793   -0.8348   -1.5017 C   0  0  0  0  0  0  0  0  0  0  0  0
    1.5847   -0.8325    2.5169 H   0  0  0  0  0  0  0  0  0  0  0  0
   -0.6210   -2.4110    2.6311 H   0  0  0  0  0  0  0  0  0  0  0  0
   -1.1758   -3.2620    0.1042 H   0  0  0  0  0  0  0  0  0  0  0  0
    0.6865   -2.1764   -1.5685 H   0  0  0  0  0  0  0  0  0  0  0  0
    3.8410   -0.0276    1.7593 H   0  0  0  0  0  0  0  0  0  0  0  0
    5.8304    0.7764    0.1349 H   0  0  0  0  0  0  0  0  0  0  0  0
    5.2405   -0.0074   -2.3984 H   0  0  0  0  0  0  0  0  0  0  0  0
    2.8695   -1.2844   -2.3648 H   0  0  0  0  0  0  0  0  0  0  0  0
  1  2  2  0  0  0  0
  2  3  1  0  0  0  0
  2 11  1  0  0  0  0
  3 12  1  0  0  0  0
  4  3  1  0  0  0  0
  5  1  1  0  0  0  0
  5  4  2  0  0  0  0
  6  1  1  0  0  0  0
  6  7  1  0  0  0  0
  7 15  1  0  0  0  0
  8 16  1  0  0  0  0
  8  7  1  0  0  0  0
  9 10  1  0  0  0  0
  9  8  2  0  0  0  0
 10  6  2  0  0  0  0
 13  4  1  0  0  0  0
 14  5  1  0  0  0  0
 17  9  1  0  0  0  0
 18 10  1  0  0  0  0
M  END
