1
 OpenBabel05122313113D

 24 26  0  0  1  0  0  0  0  0999 V2000
   -1.4111    0.4106    0.7093 C   0  0  2  0  0  3  0  0  0  0  0  0
   -0.5280    1.4434    1.1725 C   0  0  0  0  0  3  0  0  0  0  0  0
    0.0069    2.1100    0.0020 C   0  0  0  0  0  0  0  0  0  0  0  0
   -0.5749    1.4994   -1.1690 C   0  0  0  0  0  0  0  0  0  0  0  0
   -1.4436    0.4485   -0.7236 C   0  0  2  0  0  3  0  0  0  0  0  0
   -2.5994   -0.4270   -1.1530 C   0  0  2  0  0  0  0  0  0  0  0  0
   -3.8785    0.3741   -0.7362 C   0  0  0  0  0  0  0  0  0  0  0  0
   -3.8430    0.3347    0.8254 C   0  0  0  0  0  0  0  0  0  0  0  0
   -2.5487   -0.4864    1.1426 C   0  0  1  0  0  0  0  0  0  0  0  0
   -2.5705   -1.5007   -0.0321 C   0  0  0  0  0  0  0  0  0  0  0  0
    0.9225    3.3012    0.0110 C   0  0  0  0  0  0  0  0  0  0  0  0
   -0.2939    1.7068    2.2114 H   0  0  0  0  0  0  0  0  0  0  0  0
   -0.3700    1.8022   -2.2038 H   0  0  0  0  0  0  0  0  0  0  0  0
   -2.5948   -0.7882   -2.1970 H   0  0  0  0  0  0  0  0  0  0  0  0
   -4.7829   -0.1299   -1.1320 H   0  0  0  0  0  0  0  0  0  0  0  0
   -3.8669    1.4039   -1.1428 H   0  0  0  0  0  0  0  0  0  0  0  0
   -3.8096    1.3428    1.2820 H   0  0  0  0  0  0  0  0  0  0  0  0
   -4.7301   -0.1875    1.2358 H   0  0  0  0  0  0  0  0  0  0  0  0
   -2.4969   -0.9022    2.1649 H   0  0  0  0  0  0  0  0  0  0  0  0
   -1.6657   -2.1395   -0.0661 H   0  0  0  0  0  0  0  0  0  0  0  0
   -3.4785   -2.1366   -0.0287 H   0  0  0  0  0  0  0  0  0  0  0  0
    1.5342    3.3487   -0.9099 H   0  0  0  0  0  0  0  0  0  0  0  0
    1.6107    3.2813    0.8775 H   0  0  0  0  0  0  0  0  0  0  0  0
    0.3294    4.2381    0.0740 H   0  0  0  0  0  0  0  0  0  0  0  0
  1  9  1  0  0  0  0
  1  2  1  1  0  0  0
  2 12  1  0  0  0  0
  3 11  1  0  0  0  0
  3  2  1  0  0  0  0
  4  3  2  0  0  0  0
  5  4  1  1  0  0  0
  5  1  1  0  0  0  0
  6 14  1  6  0  0  0
  6  7  1  0  0  0  0
  6  5  1  0  0  0  0
  6 10  1  0  0  0  0
  7  8  1  0  0  0  0
  8  9  1  0  0  0  0
  8 18  1  0  0  0  0
  8 17  1  0  0  0  0
  9 19  1  1  0  0  0
 10 21  1  0  0  0  0
 10  9  1  0  0  0  0
 11 24  1  0  0  0  0
 11 23  1  0  0  0  0
 13  4  1  0  0  0  0
 15  7  1  0  0  0  0
 16  7  1  0  0  0  0
 20 10  1  0  0  0  0
 22 11  1  0  0  0  0
M  END
