3
 OpenBabel05122313113D

 17 17  0  0  0  0  0  0  0  0999 V2000
    2.2294    0.3709   -0.1877 O   0  0  0  0  0  0  0  0  0  0  0  0
    0.9656   -1.5765   -1.0135 C   0  0  0  0  0  3  0  0  0  0  0  0
    1.2718   -0.1662   -1.1155 C   0  0  0  0  0  3  0  0  0  0  0  0
    3.5601    0.1649   -0.4195 C   0  0  0  0  0  0  0  0  0  0  0  0
    4.4538    0.7847    0.4823 C   0  0  0  0  0  0  0  0  0  0  0  0
    5.8347    0.6230    0.3269 C   0  0  0  0  0  0  0  0  0  0  0  0
    6.3490   -0.1527   -0.7275 C   0  0  0  0  0  0  0  0  0  0  0  0
    5.4581   -0.7638   -1.6220 C   0  0  0  0  0  0  0  0  0  0  0  0
    4.0690   -0.6142   -1.4794 C   0  0  0  0  0  0  0  0  0  0  0  0
    1.4787   -2.1368   -0.2168 H   0  0  0  0  0  0  0  0  0  0  0  0
    0.8569   -2.1768   -1.9320 H   0  0  0  0  0  0  0  0  0  0  0  0
    1.4111    0.3024   -2.1119 H   0  0  0  0  0  0  0  0  0  0  0  0
    4.0398    1.3951    1.2992 H   0  0  0  0  0  0  0  0  0  0  0  0
    6.5192    1.1115    1.0377 H   0  0  0  0  0  0  0  0  0  0  0  0
    7.4351   -0.2780   -0.8487 H   0  0  0  0  0  0  0  0  0  0  0  0
    5.8462   -1.3755   -2.4515 H   0  0  0  0  0  0  0  0  0  0  0  0
    3.3792   -1.1079   -2.1756 H   0  0  0  0  0  0  0  0  0  0  0  0
  2 10  1  0  0  0  0
  3  2  1  0  0  0  0
  3  1  1  0  0  0  0
  4  1  1  0  0  0  0
  4  5  1  0  0  0  0
  5 13  1  0  0  0  0
  6  5  2  0  0  0  0
  6 14  1  0  0  0  0
  7  6  1  0  0  0  0
  8  9  1  0  0  0  0
  8  7  2  0  0  0  0
  9  4  2  0  0  0  0
 11  2  1  0  0  0  0
 12  3  1  0  0  0  0
 15  7  1  0  0  0  0
 16  8  1  0  0  0  0
 17  9  1  0  0  0  0
M  END
