1
 OpenBabel05122313113D

 27 29  0  0  0  0  0  0  0  0999 V2000
   -1.0056    1.2403    0.0811 C   0  0  0  0  0  2  0  0  0  0  0  0
   -1.6130    2.4658    0.0613 N   0  0  0  0  0  0  0  0  0  0  0  0
    0.3444    1.5335    0.1459 N   0  0  0  0  0  0  0  0  0  0  0  0
   -0.6789    3.4947    0.1008 C   0  0  0  0  0  0  0  0  0  0  0  0
   -0.9717    4.5488    0.0948 H   0  0  0  0  0  0  0  0  0  0  0  0
    0.5546    2.9130    0.1480 C   0  0  0  0  0  0  0  0  0  0  0  0
    1.5685    3.3174    0.1764 H   0  0  0  0  0  0  0  0  0  0  0  0
   -3.0511    2.6775   -0.0132 C   0  0  0  0  0  0  0  0  0  0  0  0
   -3.3127    3.2134   -0.9469 H   0  0  0  0  0  0  0  0  0  0  0  0
   -3.3963    3.2667    0.8590 H   0  0  0  0  0  0  0  0  0  0  0  0
   -3.5457    1.6885   -0.0085 H   0  0  0  0  0  0  0  0  0  0  0  0
    1.4479    0.6152    0.1769 C   0  0  0  0  0  0  0  0  0  0  0  0
    1.2623   -0.7522    0.5293 C   0  0  0  0  0  0  0  0  0  0  0  0
    0.2625   -1.1355    0.7828 H   0  0  0  0  0  0  0  0  0  0  0  0
    2.3771   -1.5703    0.5329 C   0  0  0  0  0  0  0  0  0  0  0  0
    2.2774   -2.6348    0.7952 H   0  0  0  0  0  0  0  0  0  0  0  0
    3.6587   -1.0409    0.2107 C   0  0  0  0  0  0  0  0  0  0  0  0
    4.8512   -1.8177    0.1946 C   0  0  0  0  0  0  0  0  0  0  0  0
    4.7904   -2.8912    0.4317 H   0  0  0  0  0  0  0  0  0  0  0  0
    6.0681   -1.2271   -0.1149 C   0  0  0  0  0  0  0  0  0  0  0  0
    6.9870   -1.8322   -0.1266 H   0  0  0  0  0  0  0  0  0  0  0  0
    6.1365    0.1601   -0.4185 C   0  0  0  0  0  0  0  0  0  0  0  0
    7.1091    0.6136   -0.6625 H   0  0  0  0  0  0  0  0  0  0  0  0
    4.9918    0.9438   -0.4119 C   0  0  0  0  0  0  0  0  0  0  0  0
    5.0204    2.0175   -0.6469 H   0  0  0  0  0  0  0  0  0  0  0  0
    3.7273    0.3659   -0.1002 C   0  0  0  0  0  0  0  0  0  0  0  0
    2.6161    1.1558   -0.1109 N   0  0  0  0  0  0  0  0  0  0  0  0
  1  3  1  0  0  0  0
  2  1  1  0  0  0  0
  2  4  1  0  0  0  0
  3  6  1  0  0  0  0
  3 12  1  0  0  0  0
  4  6  2  0  0  0  0
  5  4  1  0  0  0  0
  6  7  1  0  0  0  0
  8 11  1  0  0  0  0
  8  2  1  0  0  0  0
  8 10  1  0  0  0  0
  9  8  1  0  0  0  0
 12 13  1  0  0  0  0
 13 15  2  0  0  0  0
 13 14  1  0  0  0  0
 15 16  1  0  0  0  0
 17 15  1  0  0  0  0
 18 17  1  0  0  0  0
 18 19  1  0  0  0  0
 20 18  2  0  0  0  0
 21 20  1  0  0  0  0
 22 24  2  0  0  0  0
 22 20  1  0  0  0  0
 23 22  1  0  0  0  0
 24 26  1  0  0  0  0
 25 24  1  0  0  0  0
 26 17  2  0  0  0  0
 27 26  1  0  0  0  0
 27 12  2  0  0  0  0
M  END
