3
 OpenBabel05122313113D

 43 43  0  0  1  0  0  0  0  0999 V2000
    1.2988    0.0909    2.6613 C   0  0  0  0  0  0  0  0  0  0  0  0
    1.1326   -0.4538    1.2600 C   0  0  0  0  0  3  0  0  0  0  0  0
    0.8726    0.4074    0.1480 C   0  0  0  0  0  3  0  0  0  0  0  0
   -0.1574    0.0992   -0.9332 C   0  0  1  0  0  0  0  0  0  0  0  0
   -1.6453    0.3167   -0.4328 C   0  0  0  0  0  0  0  0  0  0  0  0
   -2.6481    0.0002   -1.5971 C   0  0  0  0  0  0  0  0  0  0  0  0
   -4.0720   -0.2729   -1.1634 C   0  0  0  0  0  0  0  0  0  0  0  0
   -4.5075   -1.5979   -0.9534 C   0  0  0  0  0  0  0  0  0  0  0  0
   -5.8118   -1.8660   -0.5095 C   0  0  0  0  0  0  0  0  0  0  0  0
   -6.7042   -0.8094   -0.2697 C   0  0  0  0  0  0  0  0  0  0  0  0
   -6.2839    0.5134   -0.4839 C   0  0  0  0  0  0  0  0  0  0  0  0
   -4.9803    0.7800   -0.9268 C   0  0  0  0  0  0  0  0  0  0  0  0
    0.1351    0.8825   -2.2175 C   0  0  0  0  0  0  0  0  0  0  0  0
   -1.8396    1.7699    0.0127 C   0  0  0  0  0  0  0  0  0  0  0  0
   -2.3662    2.6410   -0.6587 O   0  0  0  0  0  0  0  0  0  0  0  0
   -1.2845    2.0172    1.2211 O   0  0  0  0  0  0  0  0  0  0  0  0
   -1.4015    3.3648    1.6900 C   0  0  0  0  0  0  0  0  0  0  0  0
   -1.9685   -0.7087    0.6633 C   0  0  0  0  0  0  0  0  0  0  0  0
   -2.8205   -0.2178    1.5844 O   0  0  0  0  0  0  0  0  0  0  0  0
   -1.5979   -1.8689    0.6390 O   0  0  0  0  0  0  0  0  0  0  0  0
   -3.3410   -1.1709    2.5204 C   0  0  0  0  0  0  0  0  0  0  0  0
    0.2972    0.2251    3.1273 H   0  0  0  0  0  0  0  0  0  0  0  0
    1.8836   -0.5882    3.3138 H   0  0  0  0  0  0  0  0  0  0  0  0
    1.7938    1.0832    2.6639 H   0  0  0  0  0  0  0  0  0  0  0  0
    0.6757   -1.4553    1.2119 H   0  0  0  0  0  0  0  0  0  0  0  0
    0.9558    1.4863    0.3741 H   0  0  0  0  0  0  0  0  0  0  0  0
   -0.1140   -0.9885   -1.1483 H   0  0  0  0  0  0  0  0  0  0  0  0
   -2.6270    0.8655   -2.2853 H   0  0  0  0  0  0  0  0  0  0  0  0
   -2.2530   -0.8855   -2.1325 H   0  0  0  0  0  0  0  0  0  0  0  0
   -3.8069   -2.4285   -1.1315 H   0  0  0  0  0  0  0  0  0  0  0  0
   -6.1338   -2.9076   -0.3560 H   0  0  0  0  0  0  0  0  0  0  0  0
   -7.7287   -1.0168    0.0756 H   0  0  0  0  0  0  0  0  0  0  0  0
   -6.9805    1.3474   -0.3068 H   0  0  0  0  0  0  0  0  0  0  0  0
   -4.6471    1.8161   -1.0865 H   0  0  0  0  0  0  0  0  0  0  0  0
   -0.5552    0.6244   -3.0420 H   0  0  0  0  0  0  0  0  0  0  0  0
    1.1630    0.6555   -2.5603 H   0  0  0  0  0  0  0  0  0  0  0  0
    0.0637    1.9780   -2.0508 H   0  0  0  0  0  0  0  0  0  0  0  0
   -2.4673    3.6450    1.8099 H   0  0  0  0  0  0  0  0  0  0  0  0
   -0.9344    4.0750    0.9782 H   0  0  0  0  0  0  0  0  0  0  0  0
   -0.8832    3.3938    2.6649 H   0  0  0  0  0  0  0  0  0  0  0  0
   -3.9569   -0.5926    3.2313 H   0  0  0  0  0  0  0  0  0  0  0  0
   -3.9655   -1.9196    1.9927 H   0  0  0  0  0  0  0  0  0  0  0  0
   -2.5190   -1.6950    3.0470 H   0  0  0  0  0  0  0  0  0  0  0  0
  1 24  1  0  0  0  0
  1 22  1  0  0  0  0
  1 23  1  0  0  0  0
  2  1  1  0  0  0  0
  3 26  1  0  0  0  0
  3  2  1  0  0  0  0
  4 27  1  6  0  0  0
  4  5  1  0  0  0  0
  4  3  1  0  0  0  0
  5 14  1  0  0  0  0
  5 18  1  0  0  0  0
  6  7  1  0  0  0  0
  6  5  1  0  0  0  0
  7  8  2  0  0  0  0
  7 12  1  0  0  0  0
  8  9  1  0  0  0  0
  9 31  1  0  0  0  0
  9 10  2  0  0  0  0
 10 32  1  0  0  0  0
 11 33  1  0  0  0  0
 11 10  1  0  0  0  0
 12 11  2  0  0  0  0
 13 37  1  0  0  0  0
 13  4  1  0  0  0  0
 14 16  1  0  0  0  0
 15 14  2  0  0  0  0
 16 17  1  0  0  0  0
 17 38  1  0  0  0  0
 17 40  1  0  0  0  0
 18 19  1  0  0  0  0
 19 21  1  0  0  0  0
 20 18  2  0  0  0  0
 21 43  1  0  0  0  0
 21 41  1  0  0  0  0
 25  2  1  0  0  0  0
 28  6  1  0  0  0  0
 29  6  1  0  0  0  0
 30  8  1  0  0  0  0
 34 12  1  0  0  0  0
 35 13  1  0  0  0  0
 36 13  1  0  0  0  0
 39 17  1  0  0  0  0
 42 21  1  0  0  0  0
M  END
