6
 OpenBabel05122313113D

 26 25  0  0  1  0  0  0  0  0999 V2000
    3.4164    0.5360   -1.1765 O   0  0  0  0  0  0  0  0  0  0  0  0
    3.5853   -1.3342    0.1055 O   0  0  0  0  0  0  0  0  0  0  0  0
   -3.3538   -0.1050   -0.7773 O   0  0  0  0  0  0  0  0  0  0  0  0
    2.8998   -0.4423   -0.6588 C   0  0  0  0  0  0  0  0  0  0  0  0
    1.4703   -0.8235   -0.7595 C   0  0  0  0  0  3  0  0  0  0  0  0
    0.6502   -0.1551   -1.7337 C   0  0  0  0  0  3  0  0  0  0  0  0
   -0.7554   -0.3500   -1.6473 C   0  0  0  0  0  3  0  0  0  0  0  0
   -1.2460   -1.1711   -0.5801 C   0  0  0  0  0  3  0  0  0  0  0  0
   -2.7298   -1.2905   -0.3088 C   0  0  1  0  0  0  0  0  0  0  0  0
   -3.0297   -1.5969    1.1622 C   0  0  0  0  0  0  0  0  0  0  0  0
   -4.7617   -0.1250   -0.8044 C   0  0  0  0  0  0  0  0  0  0  0  0
    4.9720   -1.0336    0.2894 C   0  0  0  0  0  0  0  0  0  0  0  0
    1.2519   -1.8569   -0.4513 H   0  0  0  0  0  0  0  0  0  0  0  0
    1.0981    0.5599   -2.4403 H   0  0  0  0  0  0  0  0  0  0  0  0
   -1.4508    0.2299   -2.2714 H   0  0  0  0  0  0  0  0  0  0  0  0
   -0.6960   -2.0931   -0.3299 H   0  0  0  0  0  0  0  0  0  0  0  0
   -3.1028   -2.1556   -0.9236 H   0  0  0  0  0  0  0  0  0  0  0  0
   -2.4292   -2.4633    1.5033 H   0  0  0  0  0  0  0  0  0  0  0  0
   -4.0967   -1.8454    1.3238 H   0  0  0  0  0  0  0  0  0  0  0  0
   -2.7674   -0.7265    1.7953 H   0  0  0  0  0  0  0  0  0  0  0  0
   -5.1540   -0.9953   -1.3851 H   0  0  0  0  0  0  0  0  0  0  0  0
   -5.2159   -0.1554    0.2128 H   0  0  0  0  0  0  0  0  0  0  0  0
   -5.0911    0.8085   -1.3003 H   0  0  0  0  0  0  0  0  0  0  0  0
    5.5086   -1.0262   -0.6812 H   0  0  0  0  0  0  0  0  0  0  0  0
    5.1014   -0.0374    0.7594 H   0  0  0  0  0  0  0  0  0  0  0  0
    5.3743   -1.8256    0.9457 H   0  0  0  0  0  0  0  0  0  0  0  0
  1  4  2  0  0  0  0
  2 12  1  0  0  0  0
  3  9  1  0  0  0  0
  4  2  1  0  0  0  0
  5  4  1  0  0  0  0
  5 13  1  0  0  0  0
  6  7  1  0  0  0  0
  6  5  1  0  0  0  0
  7  8  1  0  0  0  0
  8 16  1  0  0  0  0
  8  9  1  0  0  0  0
  9 17  1  6  0  0  0
  9 10  1  0  0  0  0
 10 19  1  0  0  0  0
 10 18  1  0  0  0  0
 10 20  1  0  0  0  0
 11  3  1  0  0  0  0
 11 22  1  0  0  0  0
 12 25  1  0  0  0  0
 12 26  1  0  0  0  0
 14  6  1  0  0  0  0
 15  7  1  0  0  0  0
 21 11  1  0  0  0  0
 23 11  1  0  0  0  0
 24 12  1  0  0  0  0
M  END
