1
q = 0.0, confidence = 0.986

 31 31  0  0  0  0  0  0  0  0999 V2000
    1.4976    1.0311   -0.2512 C   0  0  0  0  0  2  0  0  0  0  0  0
    0.0316    0.7849   -0.2220 C   0  0  0  0  0  0  0  0  0  0  0  0
   -0.8479    1.7973    0.2495 C   0  0  0  0  0  0  0  0  0  0  0  0
   -0.4235    2.7520    0.5884 H   0  0  0  0  0  0  0  0  0  0  0  0
   -2.2235    1.5914    0.3169 C   0  0  0  0  0  0  0  0  0  0  0  0
   -2.8834    2.3786    0.7091 H   0  0  0  0  0  0  0  0  0  0  0  0
   -2.7952    0.3669   -0.1187 C   0  0  0  0  0  0  0  0  0  0  0  0
   -1.9241   -0.6384   -0.6127 C   0  0  0  0  0  0  0  0  0  0  0  0
   -2.3497   -1.5880   -0.9664 H   0  0  0  0  0  0  0  0  0  0  0  0
   -0.5456   -0.4361   -0.6483 C   0  0  0  0  0  0  0  0  0  0  0  0
    0.0939   -1.2345   -1.0421 H   0  0  0  0  0  0  0  0  0  0  0  0
   -4.2022    0.1527   -0.0599 C   0  0  0  0  0  0  0  0  0  0  0  0
   -5.4161   -0.0355   -0.0079 C   0  0  0  0  0  0  0  0  0  0  0  0
   -6.8685   -0.2589    0.0523 C   0  0  0  0  0  0  0  0  0  0  0  0
   -7.1572   -1.7747   -0.0516 C   0  0  0  0  0  0  0  0  0  0  0  0
   -8.2508   -1.9553   -0.0090 H   0  0  0  0  0  0  0  0  0  0  0  0
   -6.6800   -2.3277    0.7813 H   0  0  0  0  0  0  0  0  0  0  0  0
   -6.7728   -2.1875   -1.0051 H   0  0  0  0  0  0  0  0  0  0  0  0
   -7.5418    0.4847   -1.1267 C   0  0  0  0  0  0  0  0  0  0  0  0
   -8.6392    0.3260   -1.0934 H   0  0  0  0  0  0  0  0  0  0  0  0
   -7.1647    0.1117   -2.0992 H   0  0  0  0  0  0  0  0  0  0  0  0
   -7.3448    1.5736   -1.0744 H   0  0  0  0  0  0  0  0  0  0  0  0
   -7.4117    0.2889    1.3934 C   0  0  0  0  0  0  0  0  0  0  0  0
   -8.5079    0.1284    1.4501 H   0  0  0  0  0  0  0  0  0  0  0  0
   -7.2128    1.3745    1.4888 H   0  0  0  0  0  0  0  0  0  0  0  0
   -6.9392   -0.2257    2.2531 H   0  0  0  0  0  0  0  0  0  0  0  0
    1.6526    2.3448   -0.3901 O   0  0  0  0  0  0  0  0  0  0  0  0
    2.9132    3.0150   -0.4027 C   0  0  0  0  0  0  0  0  0  0  0  0
    2.6755    4.0935   -0.3574 H   0  0  0  0  0  0  0  0  0  0  0  0
    3.4556    2.7933   -1.3407 H   0  0  0  0  0  0  0  0  0  0  0  0
    3.5338    2.7265    0.4655 H   0  0  0  0  0  0  0  0  0  0  0  0
  1  2  1  0  0  0  0
  2  3  1  0  0  0  0
  3  5  2  0  0  0  0
  3  4  1  0  0  0  0
  5  6  1  0  0  0  0
  7 12  1  0  0  0  0
  7  5  1  0  0  0  0
  8  7  2  0  0  0  0
  9  8  1  0  0  0  0
 10  8  1  0  0  0  0
 10  2  2  0  0  0  0
 11 10  1  0  0  0  0
 12 13  3  0  0  0  0
 13 14  1  0  0  0  0
 14 23  1  0  0  0  0
 15 16  1  0  0  0  0
 15 14  1  0  0  0  0
 15 17  1  0  0  0  0
 18 15  1  0  0  0  0
 19 20  1  0  0  0  0
 19 22  1  0  0  0  0
 19 14  1  0  0  0  0
 21 19  1  0  0  0  0
 23 24  1  0  0  0  0
 23 25  1  0  0  0  0
 23 26  1  0  0  0  0
 27  1  1  0  0  0  0
 28 27  1  0  0  0  0
 28 29  1  0  0  0  0
 28 31  1  0  0  0  0
 30 28  1  0  0  0  0
M  END
