26
 OpenBabel05122313113D

 31 33  0  0  0  0  0  0  0  0999 V2000
    2.9646   -1.9265   -0.2011 N   0  0  0  0  0  0  0  0  0  0  0  0
    4.2193   -0.0966    0.0330 C   0  0  0  0  0  0  0  0  0  0  0  0
    5.0106    0.6515    0.1238 H   0  0  0  0  0  0  0  0  0  0  0  0
    5.3663   -2.4092   -0.3089 C   0  0  0  0  0  0  0  0  0  0  0  0
    6.4041   -2.0503   -0.2751 H   0  0  0  0  0  0  0  0  0  0  0  0
    2.3466    1.5722    0.2930 C   0  0  0  0  0  0  0  0  0  0  0  0
    1.2425    1.4376    0.2911 H   0  0  0  0  0  0  0  0  0  0  0  0
    2.7581    2.1565    1.6515 C   0  0  0  0  0  0  0  0  0  0  0  0
    3.8667    2.2346    1.6962 H   0  0  0  0  0  0  0  0  0  0  0  0
    2.4509    1.4640    2.4623 H   0  0  0  0  0  0  0  0  0  0  0  0
    2.7231    2.5004   -0.8705 C   0  0  0  0  0  0  0  0  0  0  0  0
    2.3894    2.0502   -1.8284 H   0  0  0  0  0  0  0  0  0  0  0  0
    3.8304    2.5889   -0.9249 H   0  0  0  0  0  0  0  0  0  0  0  0
    3.6922   -4.1704   -0.5318 C   0  0  0  0  0  0  0  0  0  0  0  0
    3.4466   -5.2306   -0.6801 H   0  0  0  0  0  0  0  0  0  0  0  0
    2.4975    4.4917    0.6901 C   0  0  0  0  0  0  0  0  0  0  0  0
    3.5927    4.6873    0.7035 H   0  0  0  0  0  0  0  0  0  0  0  0
    2.0058    5.4758    0.8308 H   0  0  0  0  0  0  0  0  0  0  0  0
    2.1386    3.5472    1.8445 C   0  0  0  0  0  0  0  0  0  0  0  0
    1.0315    3.4457    1.9089 H   0  0  0  0  0  0  0  0  0  0  0  0
    2.4653    3.9708    2.8155 H   0  0  0  0  0  0  0  0  0  0  0  0
    5.0615   -3.7408   -0.4917 C   0  0  0  0  0  0  0  0  0  0  0  0
    5.8648   -4.4817   -0.6091 H   0  0  0  0  0  0  0  0  0  0  0  0
    2.8766    0.2113    0.0986 N   0  0  0  0  0  0  0  0  0  0  0  0
    4.3065   -1.4695   -0.1597 C   0  0  0  0  0  0  0  0  0  0  0  0
    2.0771   -0.8871   -0.0398 C   0  0  0  0  0  2  0  0  0  0  0  0
    2.6713   -3.2684   -0.3878 C   0  0  0  0  0  0  0  0  0  0  0  0
    1.6020   -3.5188   -0.4103 H   0  0  0  0  0  0  0  0  0  0  0  0
    2.1084    3.8918   -0.6672 C   0  0  0  0  0  0  0  0  0  0  0  0
    2.4157    4.5609   -1.4961 H   0  0  0  0  0  0  0  0  0  0  0  0
    0.9997    3.8108   -0.7308 H   0  0  0  0  0  0  0  0  0  0  0  0
  1 25  1  0  0  0  0
  1 26  1  0  0  0  0
  2 24  1  0  0  0  0
  2  3  1  0  0  0  0
  4  5  1  0  0  0  0
  4 25  1  0  0  0  0
  6  8  1  0  0  0  0
  7  6  1  0  0  0  0
  8  9  1  0  0  0  0
  8 19  1  0  0  0  0
  8 10  1  0  0  0  0
 11 29  1  0  0  0  0
 11  6  1  0  0  0  0
 12 11  1  0  0  0  0
 13 11  1  0  0  0  0
 14 22  1  0  0  0  0
 14 27  2  0  0  0  0
 15 14  1  0  0  0  0
 16 17  1  0  0  0  0
 16 18  1  0  0  0  0
 16 19  1  0  0  0  0
 19 20  1  0  0  0  0
 19 21  1  0  0  0  0
 22  4  2  0  0  0  0
 23 22  1  0  0  0  0
 24  6  1  0  0  0  0
 25  2  2  0  0  0  0
 26 24  1  0  0  0  0
 27  1  1  0  0  0  0
 28 27  1  0  0  0  0
 29 16  1  0  0  0  0
 30 29  1  0  0  0  0
 31 29  1  0  0  0  0
M  END
