1
 OpenBabel05122313113D

 16 16  0  0  0  0  0  0  0  0999 V2000
   -0.3795   -0.8653   -0.0505 C   0  0  0  0  0  1  0  0  0  0  0  0
   -2.9242   -1.0714   -0.1985 C   0  0  0  0  0  0  0  0  0  0  0  0
   -3.6502   -2.2509    0.0738 C   0  0  0  0  0  0  0  0  0  0  0  0
   -5.0464   -2.2376   -0.0113 C   0  0  0  0  0  0  0  0  0  0  0  0
   -5.7533   -1.0697   -0.3659 C   0  0  0  0  0  0  0  0  0  0  0  0
   -5.0071    0.0996   -0.6317 C   0  0  0  0  0  0  0  0  0  0  0  0
   -3.6127    0.1118   -0.5546 C   0  0  0  0  0  0  0  0  0  0  0  0
   -7.2554   -1.0704   -0.4836 C   0  0  0  0  0  0  0  0  0  0  0  0
   -1.5556   -1.0592   -0.1107 N   0  0  0  0  0  2  0  0  0  0  0  0
   -7.6958   -0.1344   -0.0853 H   0  0  0  0  0  0  0  0  0  0  0  0
   -7.7085   -1.9238    0.0572 H   0  0  0  0  0  0  0  0  0  0  0  0
   -7.5705   -1.1478   -1.5466 H   0  0  0  0  0  0  0  0  0  0  0  0
   -3.1071   -3.1645    0.3538 H   0  0  0  0  0  0  0  0  0  0  0  0
   -5.6051   -3.1613    0.2061 H   0  0  0  0  0  0  0  0  0  0  0  0
   -5.5341    1.0279   -0.9033 H   0  0  0  0  0  0  0  0  0  0  0  0
   -3.0393    1.0278   -0.7537 H   0  0  0  0  0  0  0  0  0  0  0  0
  2  9  1  0  0  0  0
  2  3  1  0  0  0  0
  3 13  1  0  0  0  0
  4  3  2  0  0  0  0
  4 14  1  0  0  0  0
  5  4  1  0  0  0  0
  6  7  1  0  0  0  0
  6  5  2  0  0  0  0
  7  2  2  0  0  0  0
  8  5  1  0  0  0  0
  8 10  1  0  0  0  0
  8 11  1  0  0  0  0
  9  1  1  0  0  0  0
 12  8  1  0  0  0  0
 15  6  1  0  0  0  0
 16  7  1  0  0  0  0
M  END
