2
 OpenBabel05122313113D

 15 14  0  0  0  0  0  0  0  0999 V2000
   -1.3278   -2.1678   -0.4683 Cl  0  0  0  0  0  0  0  0  0  0  0  0
   -0.9412   -0.4585   -0.1877 C   0  0  0  0  0  2  0  0  0  0  0  0
   -2.0337    0.2952   -0.1708 N   0  0  0  0  0  0  0  0  0  0  0  0
   -3.4311   -0.1366   -0.3868 C   0  0  0  0  0  0  0  0  0  0  0  0
   -1.8807    1.7434    0.1207 C   0  0  0  0  0  0  0  0  0  0  0  0
   -2.5013    2.6543   -0.7889 C   0  0  0  0  0  2  0  0  0  0  0  0
   -4.1222   -0.5376    0.9137 C   0  0  0  0  0  0  0  0  0  0  0  0
   -4.1348    0.2943    1.6466 H   0  0  0  0  0  0  0  0  0  0  0  0
   -3.4224   -0.9734   -1.1084 H   0  0  0  0  0  0  0  0  0  0  0  0
   -3.9250    0.7281   -0.8776 H   0  0  0  0  0  0  0  0  0  0  0  0
   -0.7907    1.9893   -0.1209 H   0  0  0  0  0  0  0  0  0  0  0  0
   -1.9178    1.9075    1.2259 H   0  0  0  0  0  0  0  0  0  0  0  0
   -2.3387    3.6701   -0.3402 H   0  0  0  0  0  0  0  0  0  0  0  0
   -3.6180   -1.4069    1.3793 H   0  0  0  0  0  0  0  0  0  0  0  0
   -5.1732   -0.8199    0.7060 H   0  0  0  0  0  0  0  0  0  0  0  0
  1  2  1  0  0  0  0
  2  3  1  0  0  0  0
  3  5  1  0  0  0  0
  4  3  1  0  0  0  0
  4  7  1  0  0  0  0
  5 12  1  0  0  0  0
  6 13  1  0  0  0  0
  6  5  1  0  0  0  0
  7 14  1  0  0  0  0
  7  8  1  0  0  0  0
  9  4  1  0  0  0  0
 10  4  1  0  0  0  0
 11  5  1  0  0  0  0
 15  7  1  0  0  0  0
M  END
