1
 OpenBabel05122313113D

 39 40  0  0  0  0  0  0  0  0999 V2000
   -4.0349   -0.0218   -0.0038 C   0  0  0  0  0  1  0  0  0  0  0  0
   -1.4825    0.1673    0.0266 C   0  0  0  0  0  0  0  0  0  0  0  0
   -0.6998   -0.9198    0.4750 C   0  0  0  0  0  0  0  0  0  0  0  0
   -1.1968   -1.8376    0.8191 H   0  0  0  0  0  0  0  0  0  0  0  0
    0.6905   -0.8062    0.4899 C   0  0  0  0  0  0  0  0  0  0  0  0
    1.2868   -1.6477    0.8713 H   0  0  0  0  0  0  0  0  0  0  0  0
    1.3455    0.3750    0.0612 C   0  0  0  0  0  0  0  0  0  0  0  0
    0.5356    1.4490   -0.3844 C   0  0  0  0  0  0  0  0  0  0  0  0
    1.0113    2.3701   -0.7510 H   0  0  0  0  0  0  0  0  0  0  0  0
   -0.8564    1.3579   -0.4040 C   0  0  0  0  0  0  0  0  0  0  0  0
   -1.4736    2.1942   -0.7610 H   0  0  0  0  0  0  0  0  0  0  0  0
    2.8199    0.4834    0.0780 C   0  0  0  0  0  0  0  0  0  0  0  0
    3.6420   -0.6470   -0.1208 C   0  0  0  0  0  0  0  0  0  0  0  0
    3.1808   -1.6255   -0.3221 H   0  0  0  0  0  0  0  0  0  0  0  0
    5.0397   -0.5575   -0.1114 C   0  0  0  0  0  0  0  0  0  0  0  0
    5.6364   -1.4621   -0.2866 H   0  0  0  0  0  0  0  0  0  0  0  0
    5.6607    0.6913    0.1075 C   0  0  0  0  0  0  0  0  0  0  0  0
    4.8532    1.8339    0.3110 C   0  0  0  0  0  0  0  0  0  0  0  0
    5.3513    2.7970    0.4931 H   0  0  0  0  0  0  0  0  0  0  0  0
    3.4647    1.7279    0.2926 C   0  0  0  0  0  0  0  0  0  0  0  0
    2.8615    2.6284    0.4816 H   0  0  0  0  0  0  0  0  0  0  0  0
    7.8745   -0.2199   -0.0458 C   0  0  0  0  0  0  0  0  0  0  0  0
    7.6851   -0.6913   -1.0389 H   0  0  0  0  0  0  0  0  0  0  0  0
    7.6749   -0.9945    0.7315 H   0  0  0  0  0  0  0  0  0  0  0  0
    9.3070    0.2796    0.0475 C   0  0  0  0  0  0  0  0  0  0  0  0
    9.4563    1.0719   -0.7173 H   0  0  0  0  0  0  0  0  0  0  0  0
    9.4476    0.7703    1.0346 H   0  0  0  0  0  0  0  0  0  0  0  0
   10.3366   -0.8369   -0.1397 C   0  0  0  0  0  0  0  0  0  0  0  0
   10.1774   -1.3300   -1.1256 H   0  0  0  0  0  0  0  0  0  0  0  0
   10.1687   -1.6312    0.6229 H   0  0  0  0  0  0  0  0  0  0  0  0
   11.7867   -0.3508   -0.0488 C   0  0  0  0  0  0  0  0  0  0  0  0
   11.9511    0.4437   -0.8101 H   0  0  0  0  0  0  0  0  0  0  0  0
   11.9425    0.1428    0.9361 H   0  0  0  0  0  0  0  0  0  0  0  0
   12.8139   -1.4673   -0.2361 C   0  0  0  0  0  0  0  0  0  0  0  0
   12.6958   -2.2581    0.5340 H   0  0  0  0  0  0  0  0  0  0  0  0
   13.8519   -1.0851   -0.1652 H   0  0  0  0  0  0  0  0  0  0  0  0
   12.7044   -1.9546   -1.2276 H   0  0  0  0  0  0  0  0  0  0  0  0
   -2.8531    0.0664    0.0101 N   0  0  0  0  0  2  0  0  0  0  0  0
    6.9998    0.8923    0.1399 O   0  0  0  0  0  0  0  0  0  0  0  0
  1 38  1  0  0  0  0
  2  3  1  0  0  0  0
  3  5  2  0  0  0  0
  3  4  1  0  0  0  0
  5  6  1  0  0  0  0
  7 12  1  0  0  0  0
  7  5  1  0  0  0  0
  8  7  2  0  0  0  0
  9  8  1  0  0  0  0
 10  8  1  0  0  0  0
 10  2  2  0  0  0  0
 11 10  1  0  0  0  0
 12 20  1  0  0  0  0
 13 15  1  0  0  0  0
 13 12  2  0  0  0  0
 14 13  1  0  0  0  0
 15 17  2  0  0  0  0
 16 15  1  0  0  0  0
 17 39  1  0  0  0  0
 17 18  1  0  0  0  0
 18 19  1  0  0  0  0
 20 18  2  0  0  0  0
 20 21  1  0  0  0  0
 22 25  1  0  0  0  0
 22 39  1  0  0  0  0
 22 24  1  0  0  0  0
 23 22  1  0  0  0  0
 25 27  1  0  0  0  0
 26 25  1  0  0  0  0
 28 31  1  0  0  0  0
 28 25  1  0  0  0  0
 28 30  1  0  0  0  0
 29 28  1  0  0  0  0
 31 33  1  0  0  0  0
 32 31  1  0  0  0  0
 34 36  1  0  0  0  0
 34 31  1  0  0  0  0
 34 35  1  0  0  0  0
 37 34  1  0  0  0  0
 38  2  1  0  0  0  0
M  END
