1
 OpenBabel05122313113D

 36 37  0  0  0  0  0  0  0  0999 V2000
    3.5854   -0.0066   -0.0011 C   0  0  0  0  0  1  0  0  0  0  0  0
    1.0296    0.1289    0.0260 C   0  0  0  0  0  0  0  0  0  0  0  0
    0.3809    1.3198   -0.3692 C   0  0  0  0  0  0  0  0  0  0  0  0
    0.9821    2.1792   -0.6974 H   0  0  0  0  0  0  0  0  0  0  0  0
   -1.0128    1.3822   -0.3518 C   0  0  0  0  0  0  0  0  0  0  0  0
   -1.5059    2.3046   -0.6909 H   0  0  0  0  0  0  0  0  0  0  0  0
   -1.8021    0.2786    0.0568 C   0  0  0  0  0  0  0  0  0  0  0  0
   -1.1247   -0.9022    0.4505 C   0  0  0  0  0  0  0  0  0  0  0  0
   -1.7050   -1.7671    0.8029 H   0  0  0  0  0  0  0  0  0  0  0  0
    0.2676   -0.9873    0.4370 C   0  0  0  0  0  0  0  0  0  0  0  0
    0.7820   -1.9053    0.7539 H   0  0  0  0  0  0  0  0  0  0  0  0
   -3.2784    0.3568    0.0715 C   0  0  0  0  0  0  0  0  0  0  0  0
   -3.9490    1.5806    0.3226 C   0  0  0  0  0  0  0  0  0  0  0  0
   -3.3648    2.4867    0.5420 H   0  0  0  0  0  0  0  0  0  0  0  0
   -5.3395    1.6580    0.3388 C   0  0  0  0  0  0  0  0  0  0  0  0
   -5.8575    2.6047    0.5491 H   0  0  0  0  0  0  0  0  0  0  0  0
   -6.1230    0.5064    0.0964 C   0  0  0  0  0  0  0  0  0  0  0  0
   -5.4761   -0.7222   -0.1592 C   0  0  0  0  0  0  0  0  0  0  0  0
   -6.0538   -1.6327   -0.3651 H   0  0  0  0  0  0  0  0  0  0  0  0
   -4.0768   -0.7831   -0.1660 C   0  0  0  0  0  0  0  0  0  0  0  0
   -3.5953   -1.7454   -0.3962 H   0  0  0  0  0  0  0  0  0  0  0  0
   -8.3173   -0.4434   -0.0957 C   0  0  0  0  0  0  0  0  0  0  0  0
   -8.1058   -1.2383    0.6577 H   0  0  0  0  0  0  0  0  0  0  0  0
   -8.1141   -0.8791   -1.1022 H   0  0  0  0  0  0  0  0  0  0  0  0
   -9.7601    0.0242    0.0059 C   0  0  0  0  0  0  0  0  0  0  0  0
   -9.9156    0.4802    1.0075 H   0  0  0  0  0  0  0  0  0  0  0  0
   -9.9222    0.8374   -0.7341 H   0  0  0  0  0  0  0  0  0  0  0  0
  -10.7675   -1.1064   -0.2222 C   0  0  0  0  0  0  0  0  0  0  0  0
  -10.5830   -1.9188    0.5156 H   0  0  0  0  0  0  0  0  0  0  0  0
  -10.5895   -1.5624   -1.2217 H   0  0  0  0  0  0  0  0  0  0  0  0
  -12.2209   -0.6424   -0.1216 C   0  0  0  0  0  0  0  0  0  0  0  0
  -12.4386   -0.2151    0.8792 H   0  0  0  0  0  0  0  0  0  0  0  0
  -12.9288   -1.4782   -0.2903 H   0  0  0  0  0  0  0  0  0  0  0  0
  -12.4453    0.1440   -0.8718 H   0  0  0  0  0  0  0  0  0  0  0  0
    2.4019    0.0563    0.0113 N   0  0  0  0  0  2  0  0  0  0  0  0
   -7.4660    0.6794    0.1296 O   0  0  0  0  0  0  0  0  0  0  0  0
  1 35  1  0  0  0  0
  2 10  1  0  0  0  0
  3  5  1  0  0  0  0
  3  2  2  0  0  0  0
  4  3  1  0  0  0  0
  5  7  2  0  0  0  0
  6  5  1  0  0  0  0
  7 12  1  0  0  0  0
  7  8  1  0  0  0  0
  8  9  1  0  0  0  0
 10  8  2  0  0  0  0
 10 11  1  0  0  0  0
 12 13  1  0  0  0  0
 13 15  2  0  0  0  0
 13 14  1  0  0  0  0
 15 16  1  0  0  0  0
 17 36  1  0  0  0  0
 17 15  1  0  0  0  0
 18 17  2  0  0  0  0
 19 18  1  0  0  0  0
 20 18  1  0  0  0  0
 20 12  2  0  0  0  0
 21 20  1  0  0  0  0
 22 25  1  0  0  0  0
 22 36  1  0  0  0  0
 22 23  1  0  0  0  0
 24 22  1  0  0  0  0
 25 26  1  0  0  0  0
 27 25  1  0  0  0  0
 28 31  1  0  0  0  0
 28 25  1  0  0  0  0
 28 29  1  0  0  0  0
 30 28  1  0  0  0  0
 31 32  1  0  0  0  0
 33 31  1  0  0  0  0
 34 31  1  0  0  0  0
 35  2  1  0  0  0  0
M  END
