7
 OpenBabel05122313113D

 21 21  0  0  0  0  0  0  0  0999 V2000
   -0.6221   -2.0829    2.7907 C   0  0  0  0  0  0  0  0  0  0  0  0
   -0.0204   -2.9640    2.4936 H   0  0  0  0  0  0  0  0  0  0  0  0
   -1.6835   -2.3004    2.5592 H   0  0  0  0  0  0  0  0  0  0  0  0
   -0.5469   -1.9841    3.8948 H   0  0  0  0  0  0  0  0  0  0  0  0
   -0.1459   -0.8155    2.1235 C   0  0  0  0  0  3  0  0  0  0  0  0
   -0.6679    0.0951    2.4530 H   0  0  0  0  0  0  0  0  0  0  0  0
    1.2335   -0.6409    1.7741 C   0  0  0  0  0  3  0  0  0  0  0  0
    1.9537   -1.4611    1.9224 H   0  0  0  0  0  0  0  0  0  0  0  0
    1.6227    0.5635    1.1101 C   0  0  0  0  0  3  0  0  0  0  0  0
    1.0725    1.4759    1.3798 H   0  0  0  0  0  0  0  0  0  0  0  0
    2.9851    0.8147    0.5861 C   0  0  0  0  0  0  0  0  0  0  0  0
    3.9414   -0.2102    0.4044 C   0  0  0  0  0  0  0  0  0  0  0  0
    3.6908   -1.2519    0.6546 H   0  0  0  0  0  0  0  0  0  0  0  0
    5.2197    0.0807   -0.0877 C   0  0  0  0  0  0  0  0  0  0  0  0
    5.9531   -0.7296   -0.2151 H   0  0  0  0  0  0  0  0  0  0  0  0
    5.5695    1.4026   -0.4127 C   0  0  0  0  0  0  0  0  0  0  0  0
    6.5738    1.6289   -0.8001 H   0  0  0  0  0  0  0  0  0  0  0  0
    4.6331    2.4319   -0.2317 C   0  0  0  0  0  0  0  0  0  0  0  0
    4.9014    3.4712   -0.4726 H   0  0  0  0  0  0  0  0  0  0  0  0
    3.3556    2.1393    0.2645 C   0  0  0  0  0  0  0  0  0  0  0  0
    2.6303    2.9542    0.4160 H   0  0  0  0  0  0  0  0  0  0  0  0
  1  4  1  0  0  0  0
  2  1  1  0  0  0  0
  3  1  1  0  0  0  0
  5  6  1  0  0  0  0
  5  1  1  0  0  0  0
  7  8  1  0  0  0  0
  7  5  1  0  0  0  0
  9 10  1  0  0  0  0
  9  7  1  0  0  0  0
 11  9  1  0  0  0  0
 12 11  1  0  0  0  0
 12 13  1  0  0  0  0
 14 12  2  0  0  0  0
 15 14  1  0  0  0  0
 16 18  2  0  0  0  0
 16 14  1  0  0  0  0
 17 16  1  0  0  0  0
 18 20  1  0  0  0  0
 19 18  1  0  0  0  0
 20 21  1  0  0  0  0
 20 11  2  0  0  0  0
M  END
