1
 OpenBabel05122313113D

 33 36  0  0  1  0  0  0  0  0999 V2000
    1.0489   -1.3084   -0.7746 C   0  0  0  0  0  3  0  0  0  0  0  0
    0.8325   -1.5625   -1.8300 H   0  0  0  0  0  0  0  0  0  0  0  0
    2.3038   -0.4144   -0.5763 C   0  0  2  0  0  0  0  0  0  0  0  0
    2.9036   -0.2923   -1.4994 H   0  0  0  0  0  0  0  0  0  0  0  0
    3.1136   -1.1584    0.5162 C   0  0  2  0  0  0  0  0  0  0  0  0
    3.8238   -0.5142    1.0695 H   0  0  0  0  0  0  0  0  0  0  0  0
    3.7600   -2.3661   -0.2012 C   0  0  0  0  0  0  0  0  0  0  0  0
    4.4741   -2.8767    0.4736 H   0  0  0  0  0  0  0  0  0  0  0  0
    4.3245   -2.0630   -1.1047 H   0  0  0  0  0  0  0  0  0  0  0  0
    2.5324   -3.2768   -0.5259 C   0  0  0  0  0  0  0  0  0  0  0  0
    2.3805   -3.4276   -1.6132 H   0  0  0  0  0  0  0  0  0  0  0  0
    2.6357   -4.2827   -0.0730 H   0  0  0  0  0  0  0  0  0  0  0  0
    1.3398   -2.5219    0.1308 C   0  0  1  0  0  0  0  0  0  0  0  0
    0.4702   -3.1704    0.3455 H   0  0  0  0  0  0  0  0  0  0  0  0
    2.0270   -1.8755    1.3503 C   0  0  0  0  0  0  0  0  0  0  0  0
    1.3601   -1.2135    1.9360 H   0  0  0  0  0  0  0  0  0  0  0  0
    2.4598   -2.6227    2.0444 H   0  0  0  0  0  0  0  0  0  0  0  0
    1.6302    0.8893   -0.2554 C   0  0  1  0  0  3  0  0  0  0  0  0
    0.9423    1.2766    0.9143 C   0  0  0  0  0  3  0  0  0  0  0  0
    1.0994    0.7935    1.8932 H   0  0  0  0  0  0  0  0  0  0  0  0
    0.7404    2.7853    0.7950 C   0  0  1  0  0  0  0  0  0  0  0  0
   -0.0122    3.2300    1.4722 H   0  0  0  0  0  0  0  0  0  0  0  0
    2.1802    3.3771    0.9546 C   0  0  0  0  0  0  0  0  0  0  0  0
    2.1291    4.4818    1.0100 H   0  0  0  0  0  0  0  0  0  0  0  0
    2.6744    3.0232    1.8797 H   0  0  0  0  0  0  0  0  0  0  0  0
    2.8967    2.9010   -0.3426 C   0  0  0  0  0  0  0  0  0  0  0  0
    3.7848    2.2676   -0.1508 H   0  0  0  0  0  0  0  0  0  0  0  0
    3.2326    3.7503   -0.9693 H   0  0  0  0  0  0  0  0  0  0  0  0
    1.7621    2.1271   -1.1138 C   0  0  2  0  0  0  0  0  0  0  0  0
    1.9640    1.9538   -2.1857 H   0  0  0  0  0  0  0  0  0  0  0  0
    0.5302    2.9588   -0.7247 C   0  0  0  0  0  0  0  0  0  0  0  0
   -0.4119    2.5137   -1.1021 H   0  0  0  0  0  0  0  0  0  0  0  0
    0.5971    4.0135   -1.0548 H   0  0  0  0  0  0  0  0  0  0  0  0
  1  3  1  0  0  0  0
  1 13  1  0  0  0  0
  2  1  1  0  0  0  0
  3  4  1  6  0  0  0
  3 18  1  0  0  0  0
  3  5  1  0  0  0  0
  5  6  1  1  0  0  0
  5 15  1  0  0  0  0
  7  8  1  0  0  0  0
  7  5  1  0  0  0  0
  9  7  1  0  0  0  0
 10  7  1  0  0  0  0
 10 12  1  0  0  0  0
 10 13  1  0  0  0  0
 11 10  1  0  0  0  0
 13 14  1  1  0  0  0
 13 15  1  0  0  0  0
 15 16  1  0  0  0  0
 15 17  1  0  0  0  0
 18 19  1  1  0  0  0
 19 20  1  0  0  0  0
 21 19  1  0  0  0  0
 21 23  1  0  0  0  0
 21 22  1  1  0  0  0
 23 24  1  0  0  0  0
 23 25  1  0  0  0  0
 26 27  1  0  0  0  0
 26 23  1  0  0  0  0
 28 26  1  0  0  0  0
 29 30  1  6  0  0  0
 29 31  1  0  0  0  0
 29 26  1  0  0  0  0
 29 18  1  0  0  0  0
 31 21  1  0  0  0  0
 32 31  1  0  0  0  0
 33 31  1  0  0  0  0
M  END
