41
 OpenBabel05122313113D

 57 60  0  0  1  0  0  0  0  0999 V2000
   -1.1845    0.4714    0.5729 P   0  0  0  0  0  0  0  0  0  0  0  0
    2.0763    0.8938    0.0469 N   0  0  0  0  0  0  0  0  0  0  0  0
   -1.4889    2.2472    0.1817 C   0  0  0  0  0  0  0  0  0  0  0  0
   -0.8514    2.8260   -0.9325 C   0  0  0  0  0  0  0  0  0  0  0  0
   -0.1859    2.1952   -1.5435 H   0  0  0  0  0  0  0  0  0  0  0  0
   -1.0537    4.1801   -1.2417 C   0  0  0  0  0  0  0  0  0  0  0  0
   -0.5562    4.6254   -2.1166 H   0  0  0  0  0  0  0  0  0  0  0  0
   -1.8925    4.9644   -0.4343 C   0  0  0  0  0  0  0  0  0  0  0  0
   -2.0525    6.0263   -0.6742 H   0  0  0  0  0  0  0  0  0  0  0  0
   -2.5317    4.3927    0.6791 C   0  0  0  0  0  0  0  0  0  0  0  0
   -3.1913    5.0064    1.3108 H   0  0  0  0  0  0  0  0  0  0  0  0
   -2.3357    3.0386    0.9863 C   0  0  0  0  0  0  0  0  0  0  0  0
   -2.8550    2.5946    1.8499 H   0  0  0  0  0  0  0  0  0  0  0  0
   -2.8837   -0.2266    0.6673 C   0  0  0  0  0  0  0  0  0  0  0  0
   -3.9529    0.2978   -0.0875 C   0  0  0  0  0  0  0  0  0  0  0  0
   -3.8030    1.1913   -0.7117 H   0  0  0  0  0  0  0  0  0  0  0  0
   -5.2182   -0.3072   -0.0275 C   0  0  0  0  0  0  0  0  0  0  0  0
   -6.0489    0.1072   -0.6182 H   0  0  0  0  0  0  0  0  0  0  0  0
   -5.4272   -1.4288    0.7910 C   0  0  0  0  0  0  0  0  0  0  0  0
   -6.4213   -1.8977    0.8394 H   0  0  0  0  0  0  0  0  0  0  0  0
   -4.3688   -1.9422    1.5590 C   0  0  0  0  0  0  0  0  0  0  0  0
   -4.5331   -2.8122    2.2123 H   0  0  0  0  0  0  0  0  0  0  0  0
   -3.1013   -1.3470    1.4960 C   0  0  0  0  0  0  0  0  0  0  0  0
   -2.2701   -1.7507    2.0952 H   0  0  0  0  0  0  0  0  0  0  0  0
   -0.6585    0.4501    2.3116 C   0  0  0  0  0  0  0  0  0  0  0  0
   -1.2052    1.0001    3.0953 H   0  0  0  0  0  0  0  0  0  0  0  0
    0.4838   -0.2301    2.5560 C   0  0  0  0  0  0  0  0  0  0  0  0
    1.1158   -0.3279    3.9255 C   0  0  0  0  0  0  0  0  0  0  0  0
    0.4856    0.1851    4.6783 H   0  0  0  0  0  0  0  0  0  0  0  0
    2.0867    0.2188    3.8870 H   0  0  0  0  0  0  0  0  0  0  0  0
    1.3957   -1.7859    4.3286 C   0  0  0  0  0  0  0  0  0  0  0  0
    1.9313   -1.8104    5.2991 H   0  0  0  0  0  0  0  0  0  0  0  0
    0.4285   -2.3110    4.4866 H   0  0  0  0  0  0  0  0  0  0  0  0
    2.1965   -2.5022    3.2411 C   0  0  0  0  0  0  0  0  0  0  0  0
    2.3655   -3.5636    3.5161 H   0  0  0  0  0  0  0  0  0  0  0  0
    3.2028   -2.0358    3.1503 H   0  0  0  0  0  0  0  0  0  0  0  0
    1.4799   -2.4251    1.8835 C   0  0  0  0  0  0  0  0  0  0  0  0
    2.0744   -2.9362    1.1032 H   0  0  0  0  0  0  0  0  0  0  0  0
    0.5130   -2.9697    1.9495 H   0  0  0  0  0  0  0  0  0  0  0  0
    1.1936   -0.9851    1.4540 C   0  0  2  0  0  3  0  0  0  0  0  0
    2.1854   -0.4227    0.5753 C   0  0  0  0  0  3  0  0  0  0  0  0
    3.0824   -0.9990    0.2892 H   0  0  0  0  0  0  0  0  0  0  0  0
    1.8982    2.0783    0.9384 C   0  0  0  0  0  0  0  0  0  0  0  0
    1.1072    1.8662    1.6707 H   0  0  0  0  0  0  0  0  0  0  0  0
    1.5360    2.9026    0.2924 H   0  0  0  0  0  0  0  0  0  0  0  0
    3.2084    2.4663    1.6274 C   0  0  0  0  0  0  0  0  0  0  0  0
    3.5289    1.6342    2.2930 H   0  0  0  0  0  0  0  0  0  0  0  0
    3.0141    3.3383    2.2849 H   0  0  0  0  0  0  0  0  0  0  0  0
    4.3039    2.7763    0.6035 C   0  0  0  0  0  0  0  0  0  0  0  0
    4.0282    3.6952    0.0403 H   0  0  0  0  0  0  0  0  0  0  0  0
    5.2684    2.9929    1.1051 H   0  0  0  0  0  0  0  0  0  0  0  0
    4.4512    1.6057   -0.3715 C   0  0  0  0  0  0  0  0  0  0  0  0
    4.8828    0.7263    0.1554 H   0  0  0  0  0  0  0  0  0  0  0  0
    5.1537    1.8503   -1.1946 H   0  0  0  0  0  0  0  0  0  0  0  0
    3.1040    1.2087   -0.9832 C   0  0  0  0  0  0  0  0  0  0  0  0
    2.6929    2.0355   -1.5978 H   0  0  0  0  0  0  0  0  0  0  0  0
    3.2066    0.3263   -1.6360 H   0  0  0  0  0  0  0  0  0  0  0  0
  1 14  1  0  0  0  0
  1 25  1  0  0  0  0
  2 41  1  0  0  0  0
  2 43  1  0  0  0  0
  3  1  1  0  0  0  0
  3 12  1  0  0  0  0
  4  3  2  0  0  0  0
  5  4  1  0  0  0  0
  6  4  1  0  0  0  0
  6  8  2  0  0  0  0
  7  6  1  0  0  0  0
  8 10  1  0  0  0  0
  9  8  1  0  0  0  0
 10 12  2  0  0  0  0
 10 11  1  0  0  0  0
 12 13  1  0  0  0  0
 14 23  1  0  0  0  0
 15 17  1  0  0  0  0
 15 14  2  0  0  0  0
 16 15  1  0  0  0  0
 17 19  2  0  0  0  0
 18 17  1  0  0  0  0
 19 20  1  0  0  0  0
 19 21  1  0  0  0  0
 21 22  1  0  0  0  0
 23 21  2  0  0  0  0
 23 24  1  0  0  0  0
 25 27  2  0  0  0  0
 25 26  1  0  0  0  0
 27 28  1  0  0  0  0
 28 31  1  0  0  0  0
 28 29  1  0  0  0  0
 30 28  1  0  0  0  0
 31 33  1  0  0  0  0
 31 32  1  0  0  0  0
 34 35  1  0  0  0  0
 34 31  1  0  0  0  0
 36 34  1  0  0  0  0
 37 39  1  0  0  0  0
 37 34  1  0  0  0  0
 38 37  1  0  0  0  0
 40 41  1  1  0  0  0
 40 37  1  0  0  0  0
 40 27  1  0  0  0  0
 42 41  1  0  0  0  0
 43 46  1  0  0  0  0
 43 44  1  0  0  0  0
 45 43  1  0  0  0  0
 46 48  1  0  0  0  0
 46 47  1  0  0  0  0
 49 51  1  0  0  0  0
 49 46  1  0  0  0  0
 50 49  1  0  0  0  0
 52 53  1  0  0  0  0
 52 49  1  0  0  0  0
 54 52  1  0  0  0  0
 55 52  1  0  0  0  0
 55  2  1  0  0  0  0
 56 55  1  0  0  0  0
 57 55  1  0  0  0  0
M  END
