2
 OpenBabel05122313113D

 81 86  0  0  0  0  0  0  0  0999 V2000
   -2.2407   -1.4590    1.0460 N   0  0  0  0  0  0  0  0  0  0  0  0
   -1.4847   -2.3143    0.2815 C   0  0  0  0  0  2  0  0  0  0  0  0
   -1.4048   -3.4578    1.0210 N   0  0  0  0  0  0  0  0  0  0  0  0
   -2.0760   -3.3219    2.2260 C   0  0  0  0  0  0  0  0  0  0  0  0
   -2.1098   -4.1238    2.9688 H   0  0  0  0  0  0  0  0  0  0  0  0
   -2.6120   -2.0621    2.2445 C   0  0  0  0  0  0  0  0  0  0  0  0
   -3.2079   -1.5361    2.9949 H   0  0  0  0  0  0  0  0  0  0  0  0
   -0.5621   -4.5918    0.6683 C   0  0  0  0  0  0  0  0  0  0  0  0
   -0.5310   -4.6837   -0.4326 H   0  0  0  0  0  0  0  0  0  0  0  0
   -0.9804   -5.5151    1.1103 H   0  0  0  0  0  0  0  0  0  0  0  0
    0.4613   -4.3997    1.0502 H   0  0  0  0  0  0  0  0  0  0  0  0
    2.1263   -0.8062    0.6257 C   0  0  0  0  0  0  0  0  0  0  0  0
    1.3082   -1.2788    0.0376 H   0  0  0  0  0  0  0  0  0  0  0  0
    2.3307   -0.5781    3.1342 C   0  0  0  0  0  0  0  0  0  0  0  0
    2.8547    0.3807    3.0762 H   0  0  0  0  0  0  0  0  0  0  0  0
    1.9138   -1.2214    2.0032 N   0  0  0  0  0  0  0  0  0  0  0  0
    1.3141   -2.4024    2.2649 N   0  0  0  0  0  0  0  0  0  0  0  0
    1.3370   -2.5069    3.6004 C   0  0  0  0  0  0  0  0  0  0  0  0
    0.8942   -3.3877    4.0838 H   0  0  0  0  0  0  0  0  0  0  0  0
    1.9643   -1.3863    4.2050 C   0  0  0  0  0  0  0  0  0  0  0  0
    2.1306   -1.1923    5.2695 H   0  0  0  0  0  0  0  0  0  0  0  0
    3.3737   -1.3472    0.1010 N   0  0  0  0  0  0  0  0  0  0  0  0
    4.5134   -1.2596    0.8197 N   0  0  0  0  0  0  0  0  0  0  0  0
    5.4615   -1.7403    0.0011 C   0  0  0  0  0  0  0  0  0  0  0  0
    6.4998   -1.7996    0.3524 H   0  0  0  0  0  0  0  0  0  0  0  0
    4.9265   -2.1194   -1.2584 C   0  0  0  0  0  0  0  0  0  0  0  0
    5.4514   -2.5437   -2.1205 H   0  0  0  0  0  0  0  0  0  0  0  0
    3.5645   -1.8460   -1.1603 C   0  0  0  0  0  0  0  0  0  0  0  0
    2.7355   -1.9306   -1.8792 H   0  0  0  0  0  0  0  0  0  0  0  0
   -2.5910   -0.1185    0.6916 C   0  0  0  0  0  0  0  0  0  0  0  0
   -3.9384    0.2263    0.5284 C   0  0  0  0  0  0  0  0  0  0  0  0
   -4.6842   -0.5727    0.6283 H   0  0  0  0  0  0  0  0  0  0  0  0
   -4.3136    1.5478    0.2299 C   0  0  0  0  0  0  0  0  0  0  0  0
   -3.2793    2.4963    0.1033 C   0  0  0  0  0  0  0  0  0  0  0  0
   -3.5458    3.5382   -0.1274 H   0  0  0  0  0  0  0  0  0  0  0  0
    1.7077    3.4288   -0.0233 C   0  0  0  0  0  0  0  0  0  0  0  0
    1.5774    4.5022   -0.2273 H   0  0  0  0  0  0  0  0  0  0  0  0
    3.0100    2.8936   -0.0058 C   0  0  0  0  0  0  0  0  0  0  0  0
    3.1417    1.5123    0.2292 C   0  0  0  0  0  0  0  0  0  0  0  0
    4.1271    1.0306    0.2325 H   0  0  0  0  0  0  0  0  0  0  0  0
    2.0231    0.7016    0.4620 C   0  0  0  0  0  0  0  0  0  0  0  0
   -0.8440    3.2792    0.1473 C   0  0  0  0  0  0  0  0  0  0  0  0
    0.5553    2.6549    0.2005 C   0  0  0  0  0  0  0  0  0  0  0  0
    0.7430    1.2905    0.4734 C   0  0  0  0  0  0  0  0  0  0  0  0
   -1.5781    0.8564    0.5613 C   0  0  0  0  0  0  0  0  0  0  0  0
   -1.9173    2.1887    0.2572 C   0  0  0  0  0  0  0  0  0  0  0  0
   -0.2982    0.4379    0.7571 O   0  0  0  0  0  0  0  0  0  0  0  0
   -5.7779    1.9738    0.0291 C   0  0  0  0  0  0  0  0  0  0  0  0
   -6.7492    0.7955    0.2135 C   0  0  0  0  0  0  0  0  0  0  0  0
   -6.5589   -0.0145   -0.5191 H   0  0  0  0  0  0  0  0  0  0  0  0
   -7.7916    1.1408    0.0633 H   0  0  0  0  0  0  0  0  0  0  0  0
   -6.6861    0.3640    1.2331 H   0  0  0  0  0  0  0  0  0  0  0  0
   -6.1360    3.0693    1.0589 C   0  0  0  0  0  0  0  0  0  0  0  0
   -6.0213    2.6929    2.0955 H   0  0  0  0  0  0  0  0  0  0  0  0
   -7.1875    3.3972    0.9252 H   0  0  0  0  0  0  0  0  0  0  0  0
   -5.4905    3.9638    0.9513 H   0  0  0  0  0  0  0  0  0  0  0  0
   -5.9505    2.5311   -1.4023 C   0  0  0  0  0  0  0  0  0  0  0  0
   -5.3011    3.4108   -1.5830 H   0  0  0  0  0  0  0  0  0  0  0  0
   -7.0004    2.8482   -1.5702 H   0  0  0  0  0  0  0  0  0  0  0  0
   -5.6953    1.7632   -2.1599 H   0  0  0  0  0  0  0  0  0  0  0  0
    4.2224    3.8057   -0.2607 C   0  0  0  0  0  0  0  0  0  0  0  0
    4.2614    4.9128    0.8169 C   0  0  0  0  0  0  0  0  0  0  0  0
    3.3430    5.5335    0.8042 H   0  0  0  0  0  0  0  0  0  0  0  0
    5.1255    5.5882    0.6482 H   0  0  0  0  0  0  0  0  0  0  0  0
    4.3594    4.4750    1.8309 H   0  0  0  0  0  0  0  0  0  0  0  0
    4.0892    4.4490   -1.6598 C   0  0  0  0  0  0  0  0  0  0  0  0
    4.0528    3.6722   -2.4498 H   0  0  0  0  0  0  0  0  0  0  0  0
    4.9553    5.1117   -1.8654 H   0  0  0  0  0  0  0  0  0  0  0  0
    3.1698    5.0620   -1.7471 H   0  0  0  0  0  0  0  0  0  0  0  0
    5.5470    3.0246   -0.2075 C   0  0  0  0  0  0  0  0  0  0  0  0
    5.7082    2.5513    0.7818 H   0  0  0  0  0  0  0  0  0  0  0  0
    6.3959    3.7131   -0.3925 H   0  0  0  0  0  0  0  0  0  0  0  0
    5.5876    2.2280   -0.9770 H   0  0  0  0  0  0  0  0  0  0  0  0
   -1.0163    4.0351   -1.1923 C   0  0  0  0  0  0  0  0  0  0  0  0
   -0.2618    4.8392   -1.2938 H   0  0  0  0  0  0  0  0  0  0  0  0
   -2.0137    4.5125   -1.2575 H   0  0  0  0  0  0  0  0  0  0  0  0
   -0.9035    3.3435   -2.0497 H   0  0  0  0  0  0  0  0  0  0  0  0
   -1.0061    4.2617    1.3348 C   0  0  0  0  0  0  0  0  0  0  0  0
   -0.8866    3.7337    2.3012 H   0  0  0  0  0  0  0  0  0  0  0  0
   -2.0078    4.7369    1.3216 H   0  0  0  0  0  0  0  0  0  0  0  0
   -0.2434    5.0645    1.2848 H   0  0  0  0  0  0  0  0  0  0  0  0
  1  6  1  0  0  0  0
  2  3  1  0  0  0  0
  2  1  1  0  0  0  0
  3  4  1  0  0  0  0
  4  6  2  0  0  0  0
  4  5  1  0  0  0  0
  6  7  1  0  0  0  0
  8  3  1  0  0  0  0
  8 11  1  0  0  0  0
  8 10  1  0  0  0  0
  9  8  1  0  0  0  0
 12 16  1  0  0  0  0
 13 12  1  0  0  0  0
 14 20  2  0  0  0  0
 15 14  1  0  0  0  0
 16 17  1  0  0  0  0
 16 14  1  0  0  0  0
 17 18  2  0  0  0  0
 18 19  1  0  0  0  0
 18 20  1  0  0  0  0
 20 21  1  0  0  0  0
 22 12  1  0  0  0  0
 22 23  1  0  0  0  0
 24 25  1  0  0  0  0
 24 23  2  0  0  0  0
 26 28  2  0  0  0  0
 26 24  1  0  0  0  0
 27 26  1  0  0  0  0
 28 22  1  0  0  0  0
 29 28  1  0  0  0  0
 30  1  1  0  0  0  0
 31 32  1  0  0  0  0
 31 30  2  0  0  0  0
 33 31  1  0  0  0  0
 34 33  2  0  0  0  0
 34 46  1  0  0  0  0
 35 34  1  0  0  0  0
 36 38  2  0  0  0  0
 36 43  1  0  0  0  0
 37 36  1  0  0  0  0
 38 39  1  0  0  0  0
 39 40  1  0  0  0  0
 39 41  2  0  0  0  0
 41 44  1  0  0  0  0
 41 12  1  0  0  0  0
 42 43  1  0  0  0  0
 42 46  1  0  0  0  0
 42 78  1  0  0  0  0
 43 44  2  0  0  0  0
 44 47  1  0  0  0  0
 45 30  1  0  0  0  0
 45 47  1  0  0  0  0
 46 45  2  0  0  0  0
 48 49  1  0  0  0  0
 48 33  1  0  0  0  0
 48 53  1  0  0  0  0
 49 52  1  0  0  0  0
 50 49  1  0  0  0  0
 51 49  1  0  0  0  0
 53 54  1  0  0  0  0
 55 53  1  0  0  0  0
 56 53  1  0  0  0  0
 57 48  1  0  0  0  0
 58 57  1  0  0  0  0
 59 57  1  0  0  0  0
 60 57  1  0  0  0  0
 61 70  1  0  0  0  0
 61 38  1  0  0  0  0
 61 62  1  0  0  0  0
 62 65  1  0  0  0  0
 63 62  1  0  0  0  0
 64 62  1  0  0  0  0
 66 61  1  0  0  0  0
 67 66  1  0  0  0  0
 68 66  1  0  0  0  0
 69 66  1  0  0  0  0
 70 71  1  0  0  0  0
 72 70  1  0  0  0  0
 73 70  1  0  0  0  0
 74 42  1  0  0  0  0
 75 74  1  0  0  0  0
 76 74  1  0  0  0  0
 77 74  1  0  0  0  0
 78 79  1  0  0  0  0
 80 78  1  0  0  0  0
 81 78  1  0  0  0  0
M  END
