1
 OpenBabel05122313113D

 37 37  0  0  0  0  0  0  0  0999 V2000
    0.5167    0.8306    0.5228 C   0  0  0  0  0  2  0  0  0  0  0  0
    1.8606    0.7518    0.8199 N   0  0  0  0  0  0  0  0  0  0  0  0
    2.2992    1.8874    1.4893 C   0  0  0  0  0  0  0  0  0  0  0  0
    1.2152    2.7112    1.6099 C   0  0  0  0  0  0  0  0  0  0  0  0
    0.1398    2.0571    1.0223 N   0  0  0  0  0  0  0  0  0  0  0  0
   -1.1881    2.6593    0.9325 C   0  0  0  0  0  0  0  0  0  0  0  0
   -1.2497    3.8143   -0.0673 C   0  0  0  0  0  0  0  0  0  0  0  0
   -2.6850    4.2984   -0.2840 C   0  0  0  0  0  0  0  0  0  0  0  0
   -2.7820    5.4604   -1.2722 C   0  0  0  0  0  0  0  0  0  0  0  0
    2.7408   -0.3566    0.4771 C   0  0  0  0  0  0  0  0  0  0  0  0
    3.9550    0.0351   -0.3896 C   0  0  0  0  0  0  0  0  0  0  0  0
    4.8666    0.6639    0.5492 O   0  0  0  0  0  0  0  0  0  0  0  0
    6.0273    1.2602    0.0156 C   0  0  0  0  0  0  0  0  0  0  0  0
    3.5536    0.9748   -1.5311 C   0  0  0  0  0  0  0  0  0  0  0  0
    4.5574   -1.2674   -0.9366 C   0  0  0  0  0  0  0  0  0  0  0  0
    3.3485    1.9898    1.7769 H   0  0  0  0  0  0  0  0  0  0  0  0
    1.1125    3.7039    2.0573 H   0  0  0  0  0  0  0  0  0  0  0  0
   -1.8734    1.8596    0.6009 H   0  0  0  0  0  0  0  0  0  0  0  0
   -1.4848    2.9923    1.9508 H   0  0  0  0  0  0  0  0  0  0  0  0
   -0.8415    3.4410   -1.0295 H   0  0  0  0  0  0  0  0  0  0  0  0
   -0.6033    4.6561    0.2693 H   0  0  0  0  0  0  0  0  0  0  0  0
   -3.2802    3.4373   -0.6582 H   0  0  0  0  0  0  0  0  0  0  0  0
   -3.1354    4.5930    0.6912 H   0  0  0  0  0  0  0  0  0  0  0  0
   -3.8319    5.7830   -1.4230 H   0  0  0  0  0  0  0  0  0  0  0  0
   -2.3743    5.1726   -2.2632 H   0  0  0  0  0  0  0  0  0  0  0  0
   -2.2074    6.3432   -0.9209 H   0  0  0  0  0  0  0  0  0  0  0  0
    2.1239   -1.0829   -0.0809 H   0  0  0  0  0  0  0  0  0  0  0  0
    3.1288   -0.8171    1.4098 H   0  0  0  0  0  0  0  0  0  0  0  0
    6.6392    1.5954    0.8765 H   0  0  0  0  0  0  0  0  0  0  0  0
    6.6430    0.5506   -0.5849 H   0  0  0  0  0  0  0  0  0  0  0  0
    5.8086    2.1485   -0.6214 H   0  0  0  0  0  0  0  0  0  0  0  0
    4.3925    1.1289   -2.2377 H   0  0  0  0  0  0  0  0  0  0  0  0
    2.7039    0.5289   -2.0863 H   0  0  0  0  0  0  0  0  0  0  0  0
    3.2346    1.9624   -1.1434 H   0  0  0  0  0  0  0  0  0  0  0  0
    5.4787   -1.0724   -1.5200 H   0  0  0  0  0  0  0  0  0  0  0  0
    4.8102   -1.9598   -0.1084 H   0  0  0  0  0  0  0  0  0  0  0  0
    3.8260   -1.7593   -1.6078 H   0  0  0  0  0  0  0  0  0  0  0  0
  1  2  1  0  0  0  0
  1  5  1  0  0  0  0
  2  3  1  0  0  0  0
  3  4  2  0  0  0  0
  3 16  1  0  0  0  0
  4 17  1  0  0  0  0
  5  4  1  0  0  0  0
  6  5  1  0  0  0  0
  6 19  1  0  0  0  0
  7 21  1  0  0  0  0
  7  6  1  0  0  0  0
  8  7  1  0  0  0  0
  8 23  1  0  0  0  0
  9 26  1  0  0  0  0
  9  8  1  0  0  0  0
 10  2  1  0  0  0  0
 10 28  1  0  0  0  0
 11 10  1  0  0  0  0
 11 12  1  0  0  0  0
 13 12  1  0  0  0  0
 13 29  1  0  0  0  0
 14 34  1  0  0  0  0
 14 11  1  0  0  0  0
 15 11  1  0  0  0  0
 15 36  1  0  0  0  0
 18  6  1  0  0  0  0
 20  7  1  0  0  0  0
 22  8  1  0  0  0  0
 24  9  1  0  0  0  0
 25  9  1  0  0  0  0
 27 10  1  0  0  0  0
 30 13  1  0  0  0  0
 31 13  1  0  0  0  0
 32 14  1  0  0  0  0
 33 14  1  0  0  0  0
 35 15  1  0  0  0  0
 37 15  1  0  0  0  0
M  END
