4
 OpenBabel05122313113D

 32 31  0  0  0  0  0  0  0  0999 V2000
    3.4379   -1.3332    0.1953 Si  0  0  0  0  0  0  0  0  0  0  0  0
   -3.4380   -1.3332   -0.1950 Si  0  0  0  0  0  0  0  0  0  0  0  0
   -1.7193   -0.8313   -0.8038 C   0  0  0  0  0  3  0  0  0  0  0  0
   -0.5658   -1.4555   -0.2881 C   0  0  0  0  0  2  0  0  0  0  0  0
    0.5659   -1.4554    0.2887 C   0  0  0  0  0  2  0  0  0  0  0  0
    1.7194   -0.8309    0.8041 C   0  0  0  0  0  3  0  0  0  0  0  0
   -3.4423   -1.8357    1.6328 C   0  0  0  0  0  0  0  0  0  0  0  0
   -2.5955   -2.5237    1.8355 H   0  0  0  0  0  0  0  0  0  0  0  0
   -4.3810   -2.3781    1.8690 H   0  0  0  0  0  0  0  0  0  0  0  0
   -3.3637   -0.9831    2.3345 H   0  0  0  0  0  0  0  0  0  0  0  0
   -4.6761    0.0587   -0.5552 C   0  0  0  0  0  0  0  0  0  0  0  0
   -4.4592    0.9893    0.0064 H   0  0  0  0  0  0  0  0  0  0  0  0
   -5.7098   -0.2574   -0.3049 H   0  0  0  0  0  0  0  0  0  0  0  0
   -4.6553    0.3113   -1.6359 H   0  0  0  0  0  0  0  0  0  0  0  0
   -3.9747   -2.8512   -1.2018 C   0  0  0  0  0  0  0  0  0  0  0  0
   -3.9793   -2.6296   -2.2891 H   0  0  0  0  0  0  0  0  0  0  0  0
   -4.9949   -3.1853   -0.9188 H   0  0  0  0  0  0  0  0  0  0  0  0
   -3.2776   -3.6976   -1.0334 H   0  0  0  0  0  0  0  0  0  0  0  0
    3.4420   -1.8358   -1.6325 C   0  0  0  0  0  0  0  0  0  0  0  0
    2.5938   -2.5222   -1.8355 H   0  0  0  0  0  0  0  0  0  0  0  0
    4.3796   -2.3802   -1.8682 H   0  0  0  0  0  0  0  0  0  0  0  0
    3.3654   -0.9832   -2.3343 H   0  0  0  0  0  0  0  0  0  0  0  0
    3.9744   -2.8512    1.2021 C   0  0  0  0  0  0  0  0  0  0  0  0
    3.9783   -2.6299    2.2894 H   0  0  0  0  0  0  0  0  0  0  0  0
    4.9948   -3.1850    0.9195 H   0  0  0  0  0  0  0  0  0  0  0  0
    3.2776   -3.6977    1.0330 H   0  0  0  0  0  0  0  0  0  0  0  0
    4.6762    0.0586    0.5553 C   0  0  0  0  0  0  0  0  0  0  0  0
    4.4583    0.9898   -0.0049 H   0  0  0  0  0  0  0  0  0  0  0  0
    5.7097   -0.2570    0.3032 H   0  0  0  0  0  0  0  0  0  0  0  0
    4.6569    0.3100    1.6363 H   0  0  0  0  0  0  0  0  0  0  0  0
   -1.7400   -0.8009   -1.9135 H   0  0  0  0  0  0  0  0  0  0  0  0
    1.7402   -0.8002    1.9138 H   0  0  0  0  0  0  0  0  0  0  0  0
  1 27  1  0  0  0  0
  1  6  1  0  0  0  0
  1 23  1  0  0  0  0
  2  7  1  0  0  0  0
  3  4  1  0  0  0  0
  3  2  1  0  0  0  0
  4  5  1  0  0  0  0
  5  6  1  0  0  0  0
  6 32  1  0  0  0  0
  7  8  1  0  0  0  0
  7  9  1  0  0  0  0
  7 10  1  0  0  0  0
 11 13  1  0  0  0  0
 11  2  1  0  0  0  0
 11 12  1  0  0  0  0
 14 11  1  0  0  0  0
 15 18  1  0  0  0  0
 15 17  1  0  0  0  0
 15  2  1  0  0  0  0
 16 15  1  0  0  0  0
 19  1  1  0  0  0  0
 20 19  1  0  0  0  0
 21 19  1  0  0  0  0
 22 19  1  0  0  0  0
 23 24  1  0  0  0  0
 25 23  1  0  0  0  0
 26 23  1  0  0  0  0
 27 30  1  0  0  0  0
 28 27  1  0  0  0  0
 29 27  1  0  0  0  0
 31  3  1  0  0  0  0
M  END
