14
 OpenBabel05122313113D

 29 30  0  0  1  0  0  0  0  0999 V2000
   -1.2054    3.4290   -1.1497 O   0  0  0  0  0  0  0  0  0  0  0  0
   -3.9194   -0.2782   -2.5189 O   0  0  0  0  0  0  0  0  0  0  0  0
   -6.1086    0.4024    1.9927 O   0  0  0  0  0  0  0  0  0  0  0  0
   -4.0010   -0.1326    0.1374 N   0  0  0  0  0  0  0  0  0  0  0  0
   -1.4669    2.2260   -1.0213 C   0  0  0  0  0  0  0  0  0  0  0  0
   -2.3259    1.5481   -2.0925 C   0  0  0  0  0  0  0  0  0  0  0  0
   -1.8317    1.7252   -3.0699 H   0  0  0  0  0  0  0  0  0  0  0  0
   -3.2712    2.1304   -2.1398 H   0  0  0  0  0  0  0  0  0  0  0  0
   -2.6719    0.0535   -1.9380 C   0  0  1  0  0  0  0  0  0  0  0  0
   -1.8957   -0.5262   -2.4748 H   0  0  0  0  0  0  0  0  0  0  0  0
   -2.6727   -0.4286   -0.4678 C   0  0  1  0  0  0  0  0  0  0  0  0
   -2.6646   -1.5370   -0.5209 H   0  0  0  0  0  0  0  0  0  0  0  0
   -1.4863    0.0664    0.3414 C   0  0  0  0  0  3  0  0  0  0  0  0
   -1.0266    1.4384    0.1486 C   0  0  0  0  0  3  0  0  0  0  0  0
   -4.4758   -1.1523    1.0675 C   0  0  0  0  0  0  0  0  0  0  0  0
   -3.8662   -1.1749    2.0107 H   0  0  0  0  0  0  0  0  0  0  0  0
   -4.3927   -2.1495    0.5865 H   0  0  0  0  0  0  0  0  0  0  0  0
   -5.9355   -0.8884    1.4386 C   0  0  0  0  0  0  0  0  0  0  0  0
   -6.5652   -1.0071    0.5207 H   0  0  0  0  0  0  0  0  0  0  0  0
   -6.2818   -1.6182    2.1982 H   0  0  0  0  0  0  0  0  0  0  0  0
   -5.6638    1.3942    1.0799 C   0  0  0  0  0  0  0  0  0  0  0  0
   -5.8118    2.3754    1.5733 H   0  0  0  0  0  0  0  0  0  0  0  0
   -6.2836    1.3696    0.1484 H   0  0  0  0  0  0  0  0  0  0  0  0
   -4.1943    1.2024    0.7096 C   0  0  0  0  0  0  0  0  0  0  0  0
   -3.8986    1.9764   -0.0229 H   0  0  0  0  0  0  0  0  0  0  0  0
   -3.5683    1.3547    1.6235 H   0  0  0  0  0  0  0  0  0  0  0  0
   -0.7630    2.0568    1.0244 H   0  0  0  0  0  0  0  0  0  0  0  0
   -1.5735   -0.2363    1.4022 H   0  0  0  0  0  0  0  0  0  0  0  0
   -4.5248   -0.2229   -1.7349 H   0  0  0  0  0  0  0  0  0  0  0  0
  1  5  2  0  0  0  0
  2  9  1  0  0  0  0
  2 29  1  0  0  0  0
  4 24  1  0  0  0  0
  4 15  1  0  0  0  0
  5 14  1  0  0  0  0
  6  9  1  0  0  0  0
  6  5  1  0  0  0  0
  7  6  1  0  0  0  0
  8  6  1  0  0  0  0
  9 10  1  6  0  0  0
  9 11  1  0  0  0  0
 11 12  1  6  0  0  0
 11  4  1  0  0  0  0
 11 13  1  0  0  0  0
 13 28  1  0  0  0  0
 14 13  1  0  0  0  0
 14 27  1  0  0  0  0
 15 18  1  0  0  0  0
 15 16  1  0  0  0  0
 17 15  1  0  0  0  0
 18  3  1  0  0  0  0
 18 20  1  0  0  0  0
 19 18  1  0  0  0  0
 21 22  1  0  0  0  0
 21  3  1  0  0  0  0
 23 21  1  0  0  0  0
 24 21  1  0  0  0  0
 24 26  1  0  0  0  0
 25 24  1  0  0  0  0
M  END
