3
 OpenBabel05122313113D

 15 15  0  0  0  0  0  0  0  0999 V2000
    2.0466   -0.3969   -0.0048 N   0  0  0  0  0  0  0  0  0  0  0  0
    3.2402    0.3029    0.0011 N   0  0  0  0  0  0  0  0  0  0  0  0
    0.9681    0.4486   -0.0050 C   0  0  0  0  0  2  0  0  0  0  0  0
    1.5536    1.7534   -0.0030 C   0  0  0  0  0  0  0  0  0  0  0  0
    2.9335    1.6271    0.0005 C   0  0  0  0  0  0  0  0  0  0  0  0
    2.0828   -1.8453    0.0030 C   0  0  0  0  0  0  0  0  0  0  0  0
    4.5361   -0.3353   -0.0059 C   0  0  0  0  0  0  0  0  0  0  0  0
    0.9946    2.6940   -0.0030 H   0  0  0  0  0  0  0  0  0  0  0  0
    3.7360    2.3736    0.0022 H   0  0  0  0  0  0  0  0  0  0  0  0
    2.6204   -2.2383   -0.8828 H   0  0  0  0  0  0  0  0  0  0  0  0
    1.0404   -2.1950   -0.0351 H   0  0  0  0  0  0  0  0  0  0  0  0
    2.5524   -2.2320    0.9297 H   0  0  0  0  0  0  0  0  0  0  0  0
    4.6881   -0.9443   -0.9207 H   0  0  0  0  0  0  0  0  0  0  0  0
    4.6777   -0.9811    0.8845 H   0  0  0  0  0  0  0  0  0  0  0  0
    5.3026    0.4598    0.0150 H   0  0  0  0  0  0  0  0  0  0  0  0
  1  2  1  0  0  0  0
  1  6  1  0  0  0  0
  3  1  1  0  0  0  0
  3  4  1  0  0  0  0
  4  8  1  0  0  0  0
  4  5  2  0  0  0  0
  5  2  1  0  0  0  0
  5  9  1  0  0  0  0
  6 12  1  0  0  0  0
  7  2  1  0  0  0  0
  7 15  1  0  0  0  0
  7 14  1  0  0  0  0
 10  6  1  0  0  0  0
 11  6  1  0  0  0  0
 13  7  1  0  0  0  0
M  END
