2
 OpenBabel05122313113D

 12 12  0  0  0  0  0  0  0  0999 V2000
    7.4759   -3.0533    0.3990 N   0  0  0  0  0  0  0  0  0  0  0  0
    2.2510   -1.5799    0.1110 C   0  0  0  0  0  3  0  0  0  0  0  0
    2.8245   -1.9380    1.3482 C   0  0  0  0  0  0  0  0  0  0  0  0
    2.2231   -1.8941    2.2692 H   0  0  0  0  0  0  0  0  0  0  0  0
    4.1613   -2.3480    1.4269 C   0  0  0  0  0  0  0  0  0  0  0  0
    4.6078   -2.6129    2.3969 H   0  0  0  0  0  0  0  0  0  0  0  0
    4.9513   -2.4170    0.2551 C   0  0  0  0  0  0  0  0  0  0  0  0
    4.3660   -2.1003   -0.9944 C   0  0  0  0  0  0  0  0  0  0  0  0
    4.9741   -2.1648   -1.9084 H   0  0  0  0  0  0  0  0  0  0  0  0
    3.0307   -1.6904   -1.0579 C   0  0  0  0  0  0  0  0  0  0  0  0
    2.5995   -1.4327   -2.0371 H   0  0  0  0  0  0  0  0  0  0  0  0
    6.3349   -2.7784    0.3335 C   0  0  0  0  0  0  0  0  0  0  0  0
  2  3  1  0  0  0  0
  3  5  2  0  0  0  0
  3  4  1  0  0  0  0
  5  6  1  0  0  0  0
  7 12  1  0  0  0  0
  7  5  1  0  0  0  0
  8  7  2  0  0  0  0
  9  8  1  0  0  0  0
 10  8  1  0  0  0  0
 10  2  2  0  0  0  0
 11 10  1  0  0  0  0
 12  1  3  0  0  0  0
M  END
