2
 OpenBabel05122313113D

 45 45  0  0  0  0  0  0  0  0999 V2000
    1.4205   -0.3534   -0.8523 H   0  0  0  0  0  0  0  0  0  0  0  0
    1.5021    0.8326    1.5299 C   0  0  0  0  0  2  0  0  0  0  0  0
    0.9594    1.1727    2.5138 O   0  0  0  0  0  1  0  0  0  0  0  0
    0.6535   -0.6105    0.2330 B   0  0  0  0  0  0  0  0  0  0  0  0
    0.7447   -2.3658    0.7652 Cl  0  0  0  0  0  2  0  0  0  0  0  0
   -1.2752   -0.0292   -0.0153 Si  0  0  0  0  0  0  0  0  0  0  0  0
   -1.7401    2.2125   -0.6227 Si  0  0  0  0  0  0  0  0  0  0  0  0
   -0.9455    3.4632    0.5669 C   0  0  0  0  0  0  0  0  0  0  0  0
    0.1586    3.4626    0.5002 H   0  0  0  0  0  0  0  0  0  0  0  0
   -1.2247    3.2428    1.6163 H   0  0  0  0  0  0  0  0  0  0  0  0
   -1.2990    4.4872    0.3212 H   0  0  0  0  0  0  0  0  0  0  0  0
   -3.6245    2.4726   -0.5243 C   0  0  0  0  0  0  0  0  0  0  0  0
   -3.8751    3.5001   -0.8636 H   0  0  0  0  0  0  0  0  0  0  0  0
   -3.9948    2.3609    0.5147 H   0  0  0  0  0  0  0  0  0  0  0  0
   -4.1768    1.7566   -1.1645 H   0  0  0  0  0  0  0  0  0  0  0  0
   -1.2077    2.5866   -2.4098 C   0  0  0  0  0  0  0  0  0  0  0  0
   -1.7117    1.9073   -3.1270 H   0  0  0  0  0  0  0  0  0  0  0  0
   -0.1137    2.4874   -2.5451 H   0  0  0  0  0  0  0  0  0  0  0  0
   -1.4870    3.6284   -2.6754 H   0  0  0  0  0  0  0  0  0  0  0  0
   -2.6339   -0.5591    1.8547 Si  0  0  0  0  0  0  0  0  0  0  0  0
   -2.5543    0.8687    3.1068 C   0  0  0  0  0  0  0  0  0  0  0  0
   -2.9707    1.8049    2.6829 H   0  0  0  0  0  0  0  0  0  0  0  0
   -1.5054    1.0672    3.4054 H   0  0  0  0  0  0  0  0  0  0  0  0
   -3.1378    0.6171    4.0176 H   0  0  0  0  0  0  0  0  0  0  0  0
   -2.0989   -2.1541    2.7319 C   0  0  0  0  0  0  0  0  0  0  0  0
   -2.7895   -2.3575    3.5781 H   0  0  0  0  0  0  0  0  0  0  0  0
   -1.0696   -2.0701    3.1327 H   0  0  0  0  0  0  0  0  0  0  0  0
   -2.1217   -3.0231    2.0450 H   0  0  0  0  0  0  0  0  0  0  0  0
   -4.4352   -0.7846    1.2828 C   0  0  0  0  0  0  0  0  0  0  0  0
   -4.5304   -1.6549    0.6021 H   0  0  0  0  0  0  0  0  0  0  0  0
   -4.8140    0.1090    0.7489 H   0  0  0  0  0  0  0  0  0  0  0  0
   -5.0928   -0.9661    2.1594 H   0  0  0  0  0  0  0  0  0  0  0  0
   -1.9488   -1.4120   -1.8237 Si  0  0  0  0  0  0  0  0  0  0  0  0
   -3.5507   -0.7649   -2.6171 C   0  0  0  0  0  0  0  0  0  0  0  0
   -3.8585   -1.4322   -3.4499 H   0  0  0  0  0  0  0  0  0  0  0  0
   -3.4210    0.2563   -3.0278 H   0  0  0  0  0  0  0  0  0  0  0  0
   -4.3767   -0.7347   -1.8784 H   0  0  0  0  0  0  0  0  0  0  0  0
   -0.5654   -1.4061   -3.1319 C   0  0  0  0  0  0  0  0  0  0  0  0
    0.3559   -1.8739   -2.7269 H   0  0  0  0  0  0  0  0  0  0  0  0
   -0.3150   -0.3714   -3.4434 H   0  0  0  0  0  0  0  0  0  0  0  0
   -0.8686   -1.9760   -4.0355 H   0  0  0  0  0  0  0  0  0  0  0  0
   -2.2412   -3.1988   -1.2511 C   0  0  0  0  0  0  0  0  0  0  0  0
   -2.4877   -3.8478   -2.1181 H   0  0  0  0  0  0  0  0  0  0  0  0
   -3.0822   -3.2561   -0.5304 H   0  0  0  0  0  0  0  0  0  0  0  0
   -1.3377   -3.6024   -0.7532 H   0  0  0  0  0  0  0  0  0  0  0  0
  1  4  1  0  0  0  0
  2  3  1  0  0  0  0
  4  5  1  0  0  0  0
  6  4  1  0  0  0  0
  6 20  1  0  0  0  0
  6  5  1  0  0  0  0
  6  2  1  0  0  0  0
  7 12  1  0  0  0  0
  7  6  1  0  0  0  0
  7  8  1  0  0  0  0
  8 10  1  0  0  0  0
  9  8  1  0  0  0  0
 11  8  1  0  0  0  0
 12 14  1  0  0  0  0
 13 12  1  0  0  0  0
 15 12  1  0  0  0  0
 16  7  1  0  0  0  0
 17 16  1  0  0  0  0
 18 16  1  0  0  0  0
 19 16  1  0  0  0  0
 20 25  1  0  0  0  0
 20 21  1  0  0  0  0
 21 23  1  0  0  0  0
 21 24  1  0  0  0  0
 22 21  1  0  0  0  0
 25 27  1  0  0  0  0
 25 26  1  0  0  0  0
 28 25  1  0  0  0  0
 29 20  1  0  0  0  0
 29 32  1  0  0  0  0
 30 29  1  0  0  0  0
 31 29  1  0  0  0  0
 33 42  1  0  0  0  0
 33  6  1  0  0  0  0
 34 37  1  0  0  0  0
 34 33  1  0  0  0  0
 35 34  1  0  0  0  0
 36 34  1  0  0  0  0
 38 39  1  0  0  0  0
 38 33  1  0  0  0  0
 40 38  1  0  0  0  0
 41 38  1  0  0  0  0
 42 45  1  0  0  0  0
 42 44  1  0  0  0  0
 43 42  1  0  0  0  0
M  HYD  2   2   0   3   0
M  ZBO  2   6   0   7   0
M  END
