1
 OpenBabel05122313113D

 39 39  0  0  0  0  0  0  0  0999 V2000
   -0.6933    0.8647   -0.2870 C   0  0  0  0  0  3  0  0  0  0  0  0
    0.6686    0.5353   -0.5077 C   0  0  0  0  0  0  0  0  0  0  0  0
    1.8175    1.3624   -0.4698 C   0  0  0  0  0  0  0  0  0  0  0  0
    3.1506    0.7543   -0.4688 C   0  0  0  0  0  0  0  0  0  0  0  0
    3.4106   -0.5040   -0.0138 C   0  0  0  0  0  0  0  0  0  0  0  0
    4.6991   -1.1918   -0.0001 C   0  0  0  0  0  0  0  0  0  0  0  0
    4.7696   -2.4787    0.5888 C   0  0  0  0  0  0  0  0  0  0  0  0
    5.9768   -3.1865    0.6352 C   0  0  0  0  0  0  0  0  0  0  0  0
    7.1422   -2.6229    0.0926 C   0  0  0  0  0  0  0  0  0  0  0  0
    7.0900   -1.3472   -0.4989 C   0  0  0  0  0  0  0  0  0  0  0  0
    5.8852   -0.6404   -0.5468 C   0  0  0  0  0  0  0  0  0  0  0  0
   -0.8784    2.2107   -0.2160 O   0  0  0  0  0  0  0  0  0  0  0  0
   -2.1639    2.7962    0.0513 C   0  0  0  0  0  0  0  0  0  0  0  0
   -1.9476    4.2543    0.4079 C   0  0  0  0  0  0  0  0  0  0  0  0
    1.7253    2.7154   -0.4378 N   0  0  0  0  0  4  0  0  0  0  0  0
    2.7775    3.6665   -0.0798 C   0  0  0  0  0  0  0  0  0  0  0  0
    2.3204    5.0663   -0.4942 C   0  0  0  0  0  0  0  0  0  0  0  0
    3.1284    3.5855    1.4130 C   0  0  0  0  0  0  0  0  0  0  0  0
    0.8741   -0.5280   -0.6728 H   0  0  0  0  0  0  0  0  0  0  0  0
    3.9802    1.3762   -0.8409 H   0  0  0  0  0  0  0  0  0  0  0  0
    2.5748   -1.0773    0.4223 H   0  0  0  0  0  0  0  0  0  0  0  0
    3.8537   -2.9198    1.0127 H   0  0  0  0  0  0  0  0  0  0  0  0
    6.0087   -4.1849    1.0967 H   0  0  0  0  0  0  0  0  0  0  0  0
    8.0926   -3.1767    0.1264 H   0  0  0  0  0  0  0  0  0  0  0  0
    8.0005   -0.9039   -0.9298 H   0  0  0  0  0  0  0  0  0  0  0  0
    5.8610    0.3522   -1.0211 H   0  0  0  0  0  0  0  0  0  0  0  0
   -2.6512    2.2374    0.8744 H   0  0  0  0  0  0  0  0  0  0  0  0
   -2.7969    2.6872   -0.8533 H   0  0  0  0  0  0  0  0  0  0  0  0
   -2.9211    4.7408    0.6139 H   0  0  0  0  0  0  0  0  0  0  0  0
   -1.4620    4.8056   -0.4231 H   0  0  0  0  0  0  0  0  0  0  0  0
   -1.3161    4.3525    1.3140 H   0  0  0  0  0  0  0  0  0  0  0  0
    0.7542    3.0537   -0.4142 H   0  0  0  0  0  0  0  0  0  0  0  0
    3.6867    3.4144   -0.6686 H   0  0  0  0  0  0  0  0  0  0  0  0
    2.0960    5.1100   -1.5783 H   0  0  0  0  0  0  0  0  0  0  0  0
    3.1034    5.8155   -0.2692 H   0  0  0  0  0  0  0  0  0  0  0  0
    1.4051    5.3601    0.0625 H   0  0  0  0  0  0  0  0  0  0  0  0
    3.9451    4.2919    1.6637 H   0  0  0  0  0  0  0  0  0  0  0  0
    3.4567    2.5640    1.6890 H   0  0  0  0  0  0  0  0  0  0  0  0
    2.2443    3.8412    2.0324 H   0  0  0  0  0  0  0  0  0  0  0  0
  1 12  1  0  0  0  0
  2  3  1  0  0  0  0
  2  1  2  0  0  0  0
  3  4  1  0  0  0  0
  3 15  2  0  0  0  0
  4  5  2  0  0  0  0
  5  6  1  0  0  0  0
  5 21  1  0  0  0  0
  6  7  1  0  0  0  0
  7  8  2  0  0  0  0
  7 22  1  0  0  0  0
  8 23  1  0  0  0  0
  9 24  1  0  0  0  0
  9  8  1  0  0  0  0
 10  9  2  0  0  0  0
 11 10  1  0  0  0  0
 11  6  2  0  0  0  0
 12 13  1  0  0  0  0
 13 14  1  0  0  0  0
 13 27  1  0  0  0  0
 14 29  1  0  0  0  0
 14 31  1  0  0  0  0
 15 32  1  0  0  0  0
 15 16  1  0  0  0  0
 16 18  1  0  0  0  0
 17 35  1  0  0  0  0
 17 16  1  0  0  0  0
 17 36  1  0  0  0  0
 18 37  1  0  0  0  0
 18 38  1  0  0  0  0
 18 39  1  0  0  0  0
 19  2  1  0  0  0  0
 20  4  1  0  0  0  0
 25 10  1  0  0  0  0
 26 11  1  0  0  0  0
 28 13  1  0  0  0  0
 30 14  1  0  0  0  0
 33 16  1  0  0  0  0
 34 17  1  0  0  0  0
M  END
