1
 OpenBabel05122313113D

 48 48  0  0  0  0  0  0  0  0999 V2000
   -0.8470    0.2088    1.3336 C   0  0  0  0  0  2  0  0  0  0  0  0
    0.2332    0.9744    1.6125 N   0  0  0  0  0  0  0  0  0  0  0  0
    0.5684    1.4017    3.0154 C   0  0  0  0  0  0  0  0  0  0  0  0
    2.0621    1.6420    3.2289 C   0  0  0  0  0  0  0  0  0  0  0  0
   -0.2666    2.6313    3.3904 C   0  0  0  0  0  0  0  0  0  0  0  0
    1.1045    1.4424    0.5600 C   0  0  0  0  0  0  0  0  0  0  0  0
    2.2145    0.5697    0.2064 C   0  0  0  0  0  0  0  0  0  0  0  0
    2.3380   -0.7262    0.6074 C   0  0  0  0  0  0  0  0  0  0  0  0
    3.3937   -1.6635    0.2307 C   0  0  0  0  0  0  0  0  0  0  0  0
    3.2033   -3.0440    0.4871 C   0  0  0  0  0  0  0  0  0  0  0  0
    4.1729   -3.9867    0.1235 C   0  0  0  0  0  0  0  0  0  0  0  0
    5.3613   -3.5711   -0.4975 C   0  0  0  0  0  0  0  0  0  0  0  0
    5.5694   -2.2038   -0.7535 C   0  0  0  0  0  0  0  0  0  0  0  0
    4.6004   -1.2618   -0.3947 C   0  0  0  0  0  0  0  0  0  0  0  0
    0.8489    2.6605    0.0038 C   0  0  0  0  0  0  0  0  0  0  0  0
    1.6128    3.3331   -1.0903 C   0  0  0  0  0  0  0  0  0  0  0  0
    2.2875    4.6431   -0.6395 C   0  0  0  0  0  0  0  0  0  0  0  0
    3.0008    5.3686   -1.7799 C   0  0  0  0  0  0  0  0  0  0  0  0
   -1.4360   -0.1176    2.4954 O   0  0  0  0  0  0  0  0  0  0  0  0
   -2.5337   -1.0383    2.6069 C   0  0  0  0  0  0  0  0  0  0  0  0
   -2.5937   -1.5050    4.0483 C   0  0  0  0  0  0  0  0  0  0  0  0
    0.2560    0.5563    3.6569 H   0  0  0  0  0  0  0  0  0  0  0  0
    2.6680    0.7493    2.9880 H   0  0  0  0  0  0  0  0  0  0  0  0
    2.2244    1.8924    4.2960 H   0  0  0  0  0  0  0  0  0  0  0  0
    2.4371    2.4897    2.6221 H   0  0  0  0  0  0  0  0  0  0  0  0
    0.0230    3.5075    2.7753 H   0  0  0  0  0  0  0  0  0  0  0  0
   -0.1002    2.8946    4.4543 H   0  0  0  0  0  0  0  0  0  0  0  0
   -1.3467    2.4379    3.2470 H   0  0  0  0  0  0  0  0  0  0  0  0
    2.9552    0.9950   -0.4866 H   0  0  0  0  0  0  0  0  0  0  0  0
    1.5415   -1.1466    1.2433 H   0  0  0  0  0  0  0  0  0  0  0  0
    2.2629   -3.3737    0.9558 H   0  0  0  0  0  0  0  0  0  0  0  0
    3.9987   -5.0547    0.3241 H   0  0  0  0  0  0  0  0  0  0  0  0
    6.1264   -4.3095   -0.7812 H   0  0  0  0  0  0  0  0  0  0  0  0
    6.5015   -1.8706   -1.2351 H   0  0  0  0  0  0  0  0  0  0  0  0
    4.7850   -0.1946   -0.5891 H   0  0  0  0  0  0  0  0  0  0  0  0
   -0.0324    3.2026    0.3834 H   0  0  0  0  0  0  0  0  0  0  0  0
    0.8960    3.5671   -1.9108 H   0  0  0  0  0  0  0  0  0  0  0  0
    2.3663    2.6537   -1.5373 H   0  0  0  0  0  0  0  0  0  0  0  0
    3.0069    4.4120    0.1765 H   0  0  0  0  0  0  0  0  0  0  0  0
    1.5213    5.3097   -0.1860 H   0  0  0  0  0  0  0  0  0  0  0  0
    3.7913    4.7328   -2.2302 H   0  0  0  0  0  0  0  0  0  0  0  0
    3.4815    6.3041   -1.4304 H   0  0  0  0  0  0  0  0  0  0  0  0
    2.2924    5.6368   -2.5910 H   0  0  0  0  0  0  0  0  0  0  0  0
   -2.3775   -1.8823    1.9067 H   0  0  0  0  0  0  0  0  0  0  0  0
   -3.4661   -0.5163    2.3124 H   0  0  0  0  0  0  0  0  0  0  0  0
   -1.6655   -2.0385    4.3341 H   0  0  0  0  0  0  0  0  0  0  0  0
   -3.4472   -2.1989    4.1795 H   0  0  0  0  0  0  0  0  0  0  0  0
   -2.7340   -0.6506    4.7399 H   0  0  0  0  0  0  0  0  0  0  0  0
  1  2  1  0  0  0  0
  1 19  1  0  0  0  0
  2  3  1  0  0  0  0
  3  4  1  0  0  0  0
  3  5  1  0  0  0  0
  3 22  1  0  0  0  0
  4 24  1  0  0  0  0
  5 27  1  0  0  0  0
  6  2  1  0  0  0  0
  7  6  1  0  0  0  0
  7  8  2  0  0  0  0
  8 30  1  0  0  0  0
  9 10  1  0  0  0  0
  9  8  1  0  0  0  0
 10 31  1  0  0  0  0
 11 32  1  0  0  0  0
 11 10  2  0  0  0  0
 12 11  1  0  0  0  0
 13 12  2  0  0  0  0
 13 14  1  0  0  0  0
 14  9  2  0  0  0  0
 15 36  1  0  0  0  0
 15  6  2  0  0  0  0
 16 17  1  0  0  0  0
 16 15  1  0  0  0  0
 17 40  1  0  0  0  0
 17 39  1  0  0  0  0
 18 42  1  0  0  0  0
 18 17  1  0  0  0  0
 19 20  1  0  0  0  0
 20 21  1  0  0  0  0
 21 47  1  0  0  0  0
 21 46  1  0  0  0  0
 21 48  1  0  0  0  0
 23  4  1  0  0  0  0
 25  4  1  0  0  0  0
 26  5  1  0  0  0  0
 28  5  1  0  0  0  0
 29  7  1  0  0  0  0
 33 12  1  0  0  0  0
 34 13  1  0  0  0  0
 35 14  1  0  0  0  0
 37 16  1  0  0  0  0
 38 16  1  0  0  0  0
 41 18  1  0  0  0  0
 43 18  1  0  0  0  0
 44 20  1  0  0  0  0
 45 20  1  0  0  0  0
M  END
