10
 OpenBabel05122313113D

 10 10  0  0  0  0  0  0  0  0999 V2000
    3.2775    1.3896   -0.7008 C   0  0  0  0  0  0  0  0  0  0  0  0
    4.1021    0.7100   -0.9738 H   0  0  0  0  0  0  0  0  0  0  0  0
    3.5228    2.7731   -0.5290 C   0  0  0  0  0  0  0  0  0  0  0  0
    4.5450    3.1636   -0.6613 H   0  0  0  0  0  0  0  0  0  0  0  0
    1.1552    3.2066   -0.0315 C   0  0  0  0  0  0  0  0  0  0  0  0
    0.3544    3.9278    0.2143 H   0  0  0  0  0  0  0  0  0  0  0  0
    2.4835    3.6645   -0.1982 C   0  0  0  0  0  0  0  0  0  0  0  0
    2.7130    4.7352   -0.0722 H   0  0  0  0  0  0  0  0  0  0  0  0
    0.9380    1.8326   -0.1944 C   0  0  0  0  0  3  0  0  0  0  0  0
    1.9560    0.9766   -0.5142 C   0  0  0  0  0  3  0  0  0  0  0  0
  1  3  2  0  0  0  0
  1 10  1  0  0  0  0
  2  1  1  0  0  0  0
  3  7  1  0  0  0  0
  4  3  1  0  0  0  0
  5  6  1  0  0  0  0
  7  8  1  0  0  0  0
  7  5  2  0  0  0  0
  9  5  1  0  0  0  0
 10  9  2  0  0  0  0
M  END
