3
 OpenBabel05122313113D

  4  3  0  0  0  0  0  0  0  0999 V2000
    2.1508    0.5341   -1.9356 F   0  0  0  0  0  0  0  0  0  0  0  0
    2.1593    2.5077   -0.8994 F   0  0  0  0  0  0  0  0  0  0  0  0
    1.2932    1.5192   -1.4022 C   0  0  0  0  0  3  0  0  0  0  0  0
    0.8208    1.9884   -2.3020 H   0  0  0  0  0  0  0  0  0  0  0  0
  1  3  1  0  0  0  0
  3  2  1  0  0  0  0
  4  3  1  0  0  0  0
M  END
