1
 OpenBabel05122313113D

 71 73  0  0  0  0  0  0  0  0999 V2000
   -0.0053    0.1175    0.3974 C   0  0  0  0  0  2  0  0  0  0  0  0
   -1.0991    0.4357    1.1428 N   0  0  0  0  0  0  0  0  0  0  0  0
   -0.7044    0.9208    2.3993 C   0  0  0  0  0  0  0  0  0  0  0  0
    0.6733    0.9023    2.4135 C   0  0  0  0  0  0  0  0  0  0  0  0
    1.0804    0.4120    1.1635 N   0  0  0  0  0  0  0  0  0  0  0  0
   -2.4684    0.4524    0.6682 C   0  0  0  0  0  0  0  0  0  0  0  0
   -3.3249   -0.6368    0.9624 C   0  0  0  0  0  0  0  0  0  0  0  0
   -4.6649   -0.5361    0.5387 C   0  0  0  0  0  0  0  0  0  0  0  0
   -5.3539   -1.3675    0.7478 H   0  0  0  0  0  0  0  0  0  0  0  0
   -5.1288    0.5910   -0.1444 C   0  0  0  0  0  0  0  0  0  0  0  0
   -6.1792    0.6439   -0.4685 H   0  0  0  0  0  0  0  0  0  0  0  0
   -4.2576    1.6499   -0.4257 C   0  0  0  0  0  0  0  0  0  0  0  0
   -4.6293    2.5276   -0.9725 H   0  0  0  0  0  0  0  0  0  0  0  0
   -2.9095    1.6124   -0.0264 C   0  0  0  0  0  0  0  0  0  0  0  0
   -2.8731   -1.8776    1.7217 C   0  0  0  0  0  0  0  0  0  0  0  0
   -1.7664   -1.8552    1.7801 H   0  0  0  0  0  0  0  0  0  0  0  0
   -3.2561   -3.1698    0.9814 C   0  0  0  0  0  0  0  0  0  0  0  0
   -2.8729   -3.1664   -0.0558 H   0  0  0  0  0  0  0  0  0  0  0  0
   -4.3555   -3.3181    0.9579 H   0  0  0  0  0  0  0  0  0  0  0  0
   -2.8142   -4.0456    1.4975 H   0  0  0  0  0  0  0  0  0  0  0  0
   -3.4443   -1.8911    3.1519 C   0  0  0  0  0  0  0  0  0  0  0  0
   -3.1675   -0.9855    3.7248 H   0  0  0  0  0  0  0  0  0  0  0  0
   -3.0724   -2.7756    3.7081 H   0  0  0  0  0  0  0  0  0  0  0  0
   -4.5528   -1.9462    3.1363 H   0  0  0  0  0  0  0  0  0  0  0  0
   -1.9936    2.7987   -0.3091 C   0  0  0  0  0  0  0  0  0  0  0  0
   -0.9599    2.4056   -0.3758 H   0  0  0  0  0  0  0  0  0  0  0  0
   -2.0413    3.8330    0.8313 C   0  0  0  0  0  0  0  0  0  0  0  0
   -1.7362    3.4031    1.8037 H   0  0  0  0  0  0  0  0  0  0  0  0
   -3.0651    4.2451    0.9488 H   0  0  0  0  0  0  0  0  0  0  0  0
   -1.3577    4.6785    0.6108 H   0  0  0  0  0  0  0  0  0  0  0  0
   -2.2836    3.4721   -1.6571 C   0  0  0  0  0  0  0  0  0  0  0  0
   -2.2900    2.7320   -2.4794 H   0  0  0  0  0  0  0  0  0  0  0  0
   -1.4915    4.2150   -1.8802 H   0  0  0  0  0  0  0  0  0  0  0  0
   -3.2503    4.0171   -1.6529 H   0  0  0  0  0  0  0  0  0  0  0  0
    2.4587    0.4037    0.7155 C   0  0  0  0  0  0  0  0  0  0  0  0
    2.9497    1.5733    0.0729 C   0  0  0  0  0  0  0  0  0  0  0  0
    4.3071    1.5824   -0.2954 C   0  0  0  0  0  0  0  0  0  0  0  0
    4.7180    2.4670   -0.8016 H   0  0  0  0  0  0  0  0  0  0  0  0
    5.1385    0.4864   -0.0360 C   0  0  0  0  0  0  0  0  0  0  0  0
    6.1969    0.5179   -0.3359 H   0  0  0  0  0  0  0  0  0  0  0  0
    4.6247   -0.6503    0.5935 C   0  0  0  0  0  0  0  0  0  0  0  0
    5.2823   -1.5109    0.7849 H   0  0  0  0  0  0  0  0  0  0  0  0
    3.2734   -0.7225    0.9857 C   0  0  0  0  0  0  0  0  0  0  0  0
    2.0769    2.7961   -0.1925 C   0  0  0  0  0  0  0  0  0  0  0  0
    1.0315    2.4391   -0.2780 H   0  0  0  0  0  0  0  0  0  0  0  0
    2.1461    3.8058    0.9686 C   0  0  0  0  0  0  0  0  0  0  0  0
    1.8109    3.3701    1.9282 H   0  0  0  0  0  0  0  0  0  0  0  0
    1.4981    4.6805    0.7546 H   0  0  0  0  0  0  0  0  0  0  0  0
    3.1827    4.1769    1.1082 H   0  0  0  0  0  0  0  0  0  0  0  0
    2.4084    3.4887   -1.5217 C   0  0  0  0  0  0  0  0  0  0  0  0
    2.4114    2.7651   -2.3584 H   0  0  0  0  0  0  0  0  0  0  0  0
    3.3891    4.0070   -1.4883 H   0  0  0  0  0  0  0  0  0  0  0  0
    1.6411    4.2578   -1.7430 H   0  0  0  0  0  0  0  0  0  0  0  0
    2.7629   -1.9725    1.6898 C   0  0  0  0  0  0  0  0  0  0  0  0
    1.6567   -1.9142    1.7277 H   0  0  0  0  0  0  0  0  0  0  0  0
    3.3004   -2.0536    3.1306 C   0  0  0  0  0  0  0  0  0  0  0  0
    3.0390   -1.1579    3.7267 H   0  0  0  0  0  0  0  0  0  0  0  0
    4.4066   -2.1447    3.1384 H   0  0  0  0  0  0  0  0  0  0  0  0
    2.8865   -2.9428    3.6483 H   0  0  0  0  0  0  0  0  0  0  0  0
    3.1144   -3.2494    0.9090 C   0  0  0  0  0  0  0  0  0  0  0  0
    2.7492   -3.1948   -0.1335 H   0  0  0  0  0  0  0  0  0  0  0  0
    2.6334   -4.1276    1.3843 H   0  0  0  0  0  0  0  0  0  0  0  0
    4.2084   -3.4346    0.8961 H   0  0  0  0  0  0  0  0  0  0  0  0
   -1.6534    1.3358    3.4705 C   0  0  0  0  0  0  0  0  0  0  0  0
   -1.7616    0.5493    4.2462 H   0  0  0  0  0  0  0  0  0  0  0  0
   -2.6588    1.5381    3.0564 H   0  0  0  0  0  0  0  0  0  0  0  0
   -1.2937    2.2525    3.9787 H   0  0  0  0  0  0  0  0  0  0  0  0
    1.6124    1.2715    3.5098 C   0  0  0  0  0  0  0  0  0  0  0  0
    1.2615    2.1800    4.0382 H   0  0  0  0  0  0  0  0  0  0  0  0
    2.6284    1.4651    3.1180 H   0  0  0  0  0  0  0  0  0  0  0  0
    1.6931    0.4611    4.2643 H   0  0  0  0  0  0  0  0  0  0  0  0
  1  2  1  0  0  0  0
  1  5  1  0  0  0  0
  2  3  1  0  0  0  0
  3  4  2  0  0  0  0
  3 64  1  0  0  0  0
  4 68  1  0  0  0  0
  5  4  1  0  0  0  0
  6  7  1  0  0  0  0
  6  2  1  0  0  0  0
  7 15  1  0  0  0  0
  8  9  1  0  0  0  0
  8  7  2  0  0  0  0
 10  8  1  0  0  0  0
 11 10  1  0  0  0  0
 12 10  2  0  0  0  0
 12 14  1  0  0  0  0
 13 12  1  0  0  0  0
 14  6  2  0  0  0  0
 15 16  1  0  0  0  0
 15 21  1  0  0  0  0
 17 20  1  0  0  0  0
 17 15  1  0  0  0  0
 18 17  1  0  0  0  0
 19 17  1  0  0  0  0
 21 23  1  0  0  0  0
 21 22  1  0  0  0  0
 24 21  1  0  0  0  0
 25 14  1  0  0  0  0
 25 27  1  0  0  0  0
 26 25  1  0  0  0  0
 27 29  1  0  0  0  0
 27 28  1  0  0  0  0
 30 27  1  0  0  0  0
 31 34  1  0  0  0  0
 31 25  1  0  0  0  0
 32 31  1  0  0  0  0
 33 31  1  0  0  0  0
 35 43  1  0  0  0  0
 35  5  1  0  0  0  0
 36 35  2  0  0  0  0
 37 39  2  0  0  0  0
 37 36  1  0  0  0  0
 38 37  1  0  0  0  0
 39 41  1  0  0  0  0
 40 39  1  0  0  0  0
 41 42  1  0  0  0  0
 41 43  2  0  0  0  0
 43 54  1  0  0  0  0
 44 36  1  0  0  0  0
 44 46  1  0  0  0  0
 45 44  1  0  0  0  0
 46 49  1  0  0  0  0
 46 47  1  0  0  0  0
 48 46  1  0  0  0  0
 50 52  1  0  0  0  0
 50 44  1  0  0  0  0
 51 50  1  0  0  0  0
 53 50  1  0  0  0  0
 54 55  1  0  0  0  0
 54 56  1  0  0  0  0
 56 58  1  0  0  0  0
 56 59  1  0  0  0  0
 56 57  1  0  0  0  0
 60 62  1  0  0  0  0
 60 54  1  0  0  0  0
 61 60  1  0  0  0  0
 63 60  1  0  0  0  0
 64 67  1  0  0  0  0
 64 65  1  0  0  0  0
 66 64  1  0  0  0  0
 68 69  1  0  0  0  0
 68 71  1  0  0  0  0
 70 68  1  0  0  0  0
M  END
