3
 OpenBabel05122313113D

 45 45  0  0  0  0  0  0  0  0999 V2000
   -2.0235   -1.3797    0.1739 N   0  0  0  0  0  0  0  0  0  0  0  0
   -1.1367    2.2709    0.2320 N   0  0  0  0  0  0  0  0  0  0  0  0
    0.2297    0.0121    0.0618 C   0  0  0  0  0  2  0  0  0  0  0  0
   -1.1164   -0.3820    0.1419 C   0  0  0  0  0  0  0  0  0  0  0  0
   -0.7972    0.9742    0.1709 C   0  0  0  0  0  0  0  0  0  0  0  0
   -1.5123   -2.7520    0.4095 C   0  0  0  0  0  0  0  0  0  0  0  0
   -0.4137   -2.6278    0.3348 H   0  0  0  0  0  0  0  0  0  0  0  0
   -1.8264   -3.2502    1.8302 C   0  0  0  0  0  0  0  0  0  0  0  0
   -1.6070   -2.4649    2.5776 H   0  0  0  0  0  0  0  0  0  0  0  0
   -1.1938   -4.1306    2.0640 H   0  0  0  0  0  0  0  0  0  0  0  0
   -2.8811   -3.5660    1.9431 H   0  0  0  0  0  0  0  0  0  0  0  0
   -1.9385   -3.7829   -0.6407 C   0  0  0  0  0  0  0  0  0  0  0  0
   -3.0194   -4.0216   -0.5839 H   0  0  0  0  0  0  0  0  0  0  0  0
   -1.3878   -4.7283   -0.4629 H   0  0  0  0  0  0  0  0  0  0  0  0
   -1.7081   -3.4417   -1.6662 H   0  0  0  0  0  0  0  0  0  0  0  0
   -3.4322   -1.0663   -0.1452 C   0  0  0  0  0  0  0  0  0  0  0  0
   -3.5171    0.0137    0.0729 H   0  0  0  0  0  0  0  0  0  0  0  0
   -4.4626   -1.7614    0.7479 C   0  0  0  0  0  0  0  0  0  0  0  0
   -4.5056   -2.8544    0.5763 H   0  0  0  0  0  0  0  0  0  0  0  0
   -5.4685   -1.3557    0.5191 H   0  0  0  0  0  0  0  0  0  0  0  0
   -4.2571   -1.5839    1.8213 H   0  0  0  0  0  0  0  0  0  0  0  0
   -3.7447   -1.2310   -1.6415 C   0  0  0  0  0  0  0  0  0  0  0  0
   -3.8199   -2.2936   -1.9411 H   0  0  0  0  0  0  0  0  0  0  0  0
   -2.9519   -0.7577   -2.2537 H   0  0  0  0  0  0  0  0  0  0  0  0
   -4.7121   -0.7447   -1.8830 H   0  0  0  0  0  0  0  0  0  0  0  0
   -0.0732    3.2993    0.2172 C   0  0  0  0  0  0  0  0  0  0  0  0
    0.8610    2.7262    0.0539 H   0  0  0  0  0  0  0  0  0  0  0  0
    0.0199    4.0268    1.5652 C   0  0  0  0  0  0  0  0  0  0  0  0
   -0.8536    4.6905    1.7355 H   0  0  0  0  0  0  0  0  0  0  0  0
    0.9249    4.6664    1.5928 H   0  0  0  0  0  0  0  0  0  0  0  0
    0.0796    3.3036    2.3992 H   0  0  0  0  0  0  0  0  0  0  0  0
   -0.2591    4.2920   -0.9366 C   0  0  0  0  0  0  0  0  0  0  0  0
   -0.3873    3.7638   -1.8994 H   0  0  0  0  0  0  0  0  0  0  0  0
    0.6275    4.9527   -1.0164 H   0  0  0  0  0  0  0  0  0  0  0  0
   -1.1406    4.9472   -0.7758 H   0  0  0  0  0  0  0  0  0  0  0  0
   -2.5308    2.7163    0.4286 C   0  0  0  0  0  0  0  0  0  0  0  0
   -2.4584    3.8090    0.6020 H   0  0  0  0  0  0  0  0  0  0  0  0
   -3.1410    2.1166    1.7023 C   0  0  0  0  0  0  0  0  0  0  0  0
   -4.1863    2.4594    1.8364 H   0  0  0  0  0  0  0  0  0  0  0  0
   -2.5548    2.4256    2.5897 H   0  0  0  0  0  0  0  0  0  0  0  0
   -3.1440    1.0097    1.6843 H   0  0  0  0  0  0  0  0  0  0  0  0
   -3.3694    2.5314   -0.8435 C   0  0  0  0  0  0  0  0  0  0  0  0
   -3.3894    1.4776   -1.1784 H   0  0  0  0  0  0  0  0  0  0  0  0
   -2.9447    3.1274   -1.6744 H   0  0  0  0  0  0  0  0  0  0  0  0
   -4.4151    2.8606   -0.6782 H   0  0  0  0  0  0  0  0  0  0  0  0
  1  6  1  0  0  0  0
  2 36  1  0  0  0  0
  3  4  1  0  0  0  0
  3  5  1  0  0  0  0
  4  5  2  0  0  0  0
  4  1  1  0  0  0  0
  5  2  1  0  0  0  0
  6  8  1  0  0  0  0
  7  6  1  0  0  0  0
  8 11  1  0  0  0  0
  8 10  1  0  0  0  0
  8  9  1  0  0  0  0
 12 13  1  0  0  0  0
 12 14  1  0  0  0  0
 12  6  1  0  0  0  0
 15 12  1  0  0  0  0
 16 17  1  0  0  0  0
 16  1  1  0  0  0  0
 16 18  1  0  0  0  0
 18 21  1  0  0  0  0
 19 18  1  0  0  0  0
 20 18  1  0  0  0  0
 22 16  1  0  0  0  0
 23 22  1  0  0  0  0
 24 22  1  0  0  0  0
 25 22  1  0  0  0  0
 26  2  1  0  0  0  0
 26 28  1  0  0  0  0
 27 26  1  0  0  0  0
 28 30  1  0  0  0  0
 28 29  1  0  0  0  0
 28 31  1  0  0  0  0
 32 35  1  0  0  0  0
 32 26  1  0  0  0  0
 33 32  1  0  0  0  0
 34 32  1  0  0  0  0
 36 37  1  0  0  0  0
 36 38  1  0  0  0  0
 38 39  1  0  0  0  0
 38 40  1  0  0  0  0
 41 38  1  0  0  0  0
 42 45  1  0  0  0  0
 42 36  1  0  0  0  0
 43 42  1  0  0  0  0
 44 42  1  0  0  0  0
M  END
