12
 OpenBabel05122313113D

 50 52  0  0  1  0  0  0  0  0999 V2000
    2.6648   -2.3193   -0.2248 S   0  0  0  0  0  0  0  0  0  0  0  0
   -2.0960   -1.7447   -2.0811 O   0  0  0  0  0  0  0  0  0  0  0  0
   -3.5554   -2.1118   -0.3789 O   0  0  0  0  0  0  0  0  0  0  0  0
    2.2975   -2.9384   -1.5120 O   0  0  0  0  0  0  0  0  0  0  0  0
    3.5515   -2.9835    0.7476 O   0  0  0  0  0  0  0  0  0  0  0  0
    1.1483   -2.0222    0.6043 N   0  0  0  0  0  0  0  0  0  0  0  0
    0.0659   -1.5147   -0.2613 C   0  0  2  0  0  0  0  0  0  0  0  0
    1.2353   -1.4476    1.9072 C   0  0  0  0  0  0  0  0  0  0  0  0
    0.8705   -0.1425    2.0690 C   0  0  0  0  0  0  0  0  0  0  0  0
    0.5004    0.6782    0.9218 C   0  0  0  0  0  0  0  0  0  0  0  0
    0.6010    2.1008    0.9357 C   0  0  0  0  0  0  0  0  0  0  0  0
    0.2460    2.8497   -0.2236 C   0  0  0  0  0  3  0  0  0  0  0  0
   -0.2021    2.1960   -1.3996 C   0  0  0  0  0  3  0  0  0  0  0  0
   -0.3190    0.7739   -1.4061 C   0  0  0  0  0  0  0  0  0  0  0  0
    0.0587    0.0086   -0.2741 C   0  0  0  0  0  0  0  0  0  0  0  0
    1.6699   -2.3447    3.0246 C   0  0  0  0  0  0  0  0  0  0  0  0
   -1.2582   -2.1664    0.1559 C   0  0  0  0  0  0  0  0  0  0  0  0
   -2.3263   -1.9689   -0.9027 C   0  0  0  0  0  0  0  0  0  0  0  0
   -4.6795   -1.9964   -1.2874 C   0  0  0  0  0  0  0  0  0  0  0  0
   -5.9016   -1.6363   -0.4700 C   0  0  0  0  0  0  0  0  0  0  0  0
    3.2818   -0.6660   -0.5308 C   0  0  0  0  0  0  0  0  0  0  0  0
    3.9214    0.0305    0.5064 C   0  0  0  0  0  0  0  0  0  0  0  0
    4.2430    1.3804    0.3134 C   0  0  0  0  0  0  0  0  0  0  0  0
    3.9414    2.0395   -0.8966 C   0  0  0  0  0  0  0  0  0  0  0  0
    3.3377    1.2962   -1.9345 C   0  0  0  0  0  0  0  0  0  0  0  0
    3.0002   -0.0494   -1.7600 C   0  0  0  0  0  0  0  0  0  0  0  0
    4.2281    3.5070   -1.0758 C   0  0  0  0  0  0  0  0  0  0  0  0
    0.2825   -1.8757   -1.2857 H   0  0  0  0  0  0  0  0  0  0  0  0
    0.8737    0.3109    3.0703 H   0  0  0  0  0  0  0  0  0  0  0  0
    0.9225    2.6138    1.8519 H   0  0  0  0  0  0  0  0  0  0  0  0
    0.2854    3.9479   -0.1907 H   0  0  0  0  0  0  0  0  0  0  0  0
   -0.5208    2.7803   -2.2727 H   0  0  0  0  0  0  0  0  0  0  0  0
   -0.7214    0.2459   -2.2826 H   0  0  0  0  0  0  0  0  0  0  0  0
    2.6497   -2.8080    2.7978 H   0  0  0  0  0  0  0  0  0  0  0  0
    0.9449   -3.1787    3.1348 H   0  0  0  0  0  0  0  0  0  0  0  0
    1.7295   -1.7906    3.9796 H   0  0  0  0  0  0  0  0  0  0  0  0
   -1.0832   -3.2598    0.2531 H   0  0  0  0  0  0  0  0  0  0  0  0
   -1.6202   -1.8068    1.1367 H   0  0  0  0  0  0  0  0  0  0  0  0
   -4.4405   -1.2274   -2.0474 H   0  0  0  0  0  0  0  0  0  0  0  0
   -4.7961   -2.9695   -1.8117 H   0  0  0  0  0  0  0  0  0  0  0  0
   -6.1007   -2.3937    0.3138 H   0  0  0  0  0  0  0  0  0  0  0  0
   -5.7645   -0.6510    0.0164 H   0  0  0  0  0  0  0  0  0  0  0  0
   -6.7901   -1.5756   -1.1294 H   0  0  0  0  0  0  0  0  0  0  0  0
    4.1662   -0.4862    1.4447 H   0  0  0  0  0  0  0  0  0  0  0  0
    4.7400    1.9379    1.1225 H   0  0  0  0  0  0  0  0  0  0  0  0
    3.1202    1.7870   -2.8959 H   0  0  0  0  0  0  0  0  0  0  0  0
    2.5197   -0.6303   -2.5602 H   0  0  0  0  0  0  0  0  0  0  0  0
    4.9484    3.8821   -0.3238 H   0  0  0  0  0  0  0  0  0  0  0  0
    3.2938    4.0998   -0.9678 H   0  0  0  0  0  0  0  0  0  0  0  0
    4.6313    3.7244   -2.0850 H   0  0  0  0  0  0  0  0  0  0  0  0
  1  6  1  0  0  0  0
  1  5  2  0  0  0  0
  2 18  2  0  0  0  0
  4  1  2  0  0  0  0
  6  8  1  0  0  0  0
  7 28  1  6  0  0  0
  7 17  1  0  0  0  0
  7  6  1  0  0  0  0
  8  9  2  0  0  0  0
  8 16  1  0  0  0  0
  9 29  1  0  0  0  0
 10 11  2  0  0  0  0
 10  9  1  0  0  0  0
 11 30  1  0  0  0  0
 12 31  1  0  0  0  0
 12 11  1  0  0  0  0
 13 12  1  0  0  0  0
 14 13  1  0  0  0  0
 14 15  2  0  0  0  0
 15  7  1  0  0  0  0
 15 10  1  0  0  0  0
 16 35  1  0  0  0  0
 16 36  1  0  0  0  0
 17 37  1  0  0  0  0
 17 38  1  0  0  0  0
 18  3  1  0  0  0  0
 18 17  1  0  0  0  0
 19 20  1  0  0  0  0
 19  3  1  0  0  0  0
 20 42  1  0  0  0  0
 20 41  1  0  0  0  0
 21  1  1  0  0  0  0
 21 22  1  0  0  0  0
 22 44  1  0  0  0  0
 23 22  2  0  0  0  0
 23 45  1  0  0  0  0
 24 23  1  0  0  0  0
 25 26  1  0  0  0  0
 25 24  2  0  0  0  0
 26 21  2  0  0  0  0
 27 49  1  0  0  0  0
 27 24  1  0  0  0  0
 27 48  1  0  0  0  0
 32 13  1  0  0  0  0
 33 14  1  0  0  0  0
 34 16  1  0  0  0  0
 39 19  1  0  0  0  0
 40 19  1  0  0  0  0
 43 20  1  0  0  0  0
 46 25  1  0  0  0  0
 47 26  1  0  0  0  0
 50 27  1  0  0  0  0
M  END
