5
 OpenBabel05122313113D

 54 56  0  0  0  0  0  0  0  0999 V2000
    0.5113   -1.1842   -1.1138 N   0  0  0  0  0  0  0  0  0  0  0  0
   -1.4525   -0.2930   -0.7123 N   0  0  0  0  0  0  0  0  0  0  0  0
    3.8042   -2.0882    0.2090 O   0  0  0  0  0  0  0  0  0  0  0  0
    6.4906   -3.4827    0.6010 O   0  0  0  0  0  0  0  0  0  0  0  0
   -0.1031   -0.0620   -0.6185 C   0  0  0  0  0  2  0  0  0  0  0  0
   -1.7052   -1.5486   -1.2790 C   0  0  0  0  0  0  0  0  0  0  0  0
   -0.4317   -2.1291   -1.5163 C   0  0  0  0  0  0  0  0  0  0  0  0
   -0.2920   -3.4089   -2.0695 C   0  0  0  0  0  0  0  0  0  0  0  0
    0.6986   -3.8537   -2.2396 H   0  0  0  0  0  0  0  0  0  0  0  0
   -1.4700   -4.0983   -2.3939 C   0  0  0  0  0  0  0  0  0  0  0  0
   -1.4021   -5.1057   -2.8302 H   0  0  0  0  0  0  0  0  0  0  0  0
   -2.7383   -3.5214   -2.1699 C   0  0  0  0  0  0  0  0  0  0  0  0
   -3.6427   -4.0883   -2.4357 H   0  0  0  0  0  0  0  0  0  0  0  0
   -2.8815   -2.2418   -1.6105 C   0  0  0  0  0  0  0  0  0  0  0  0
   -3.8729   -1.8087   -1.4320 H   0  0  0  0  0  0  0  0  0  0  0  0
    1.9507   -1.3846   -1.0769 C   0  0  0  0  0  0  0  0  0  0  0  0
    2.4180   -0.3795   -1.0982 H   0  0  0  0  0  0  0  0  0  0  0  0
    2.2680   -1.9433   -1.9807 H   0  0  0  0  0  0  0  0  0  0  0  0
    2.3934   -2.0956    0.2008 C   0  0  0  0  0  0  0  0  0  0  0  0
    1.9785   -1.5380    1.0753 H   0  0  0  0  0  0  0  0  0  0  0  0
    1.9901   -3.1394    0.2362 H   0  0  0  0  0  0  0  0  0  0  0  0
    4.3533   -2.5511    1.4316 C   0  0  0  0  0  0  0  0  0  0  0  0
    4.0400   -3.6059    1.6319 H   0  0  0  0  0  0  0  0  0  0  0  0
    3.9828   -1.9246    2.2811 H   0  0  0  0  0  0  0  0  0  0  0  0
    5.8738   -2.4854    1.3859 C   0  0  0  0  0  0  0  0  0  0  0  0
    6.1781   -1.4613    1.0528 H   0  0  0  0  0  0  0  0  0  0  0  0
    6.2484   -2.6283    2.4217 H   0  0  0  0  0  0  0  0  0  0  0  0
    6.4711   -3.2365   -0.7897 C   0  0  0  0  0  0  0  0  0  0  0  0
    5.4425   -3.2453   -1.2137 H   0  0  0  0  0  0  0  0  0  0  0  0
    7.0730   -4.0322   -1.2719 H   0  0  0  0  0  0  0  0  0  0  0  0
    6.9289   -2.2474   -1.0399 H   0  0  0  0  0  0  0  0  0  0  0  0
   -2.4357    0.6940   -0.2377 C   0  0  0  0  0  0  0  0  0  0  0  0
   -2.6266    1.4147   -1.0547 H   0  0  0  0  0  0  0  0  0  0  0  0
   -1.9084    1.2582    0.5621 H   0  0  0  0  0  0  0  0  0  0  0  0
   -3.7332    0.1038    0.2644 C   0  0  0  0  0  0  0  0  0  0  0  0
   -4.9517    0.4126   -0.3954 C   0  0  0  0  0  0  0  0  0  0  0  0
   -6.1492   -0.1536    0.0792 C   0  0  0  0  0  0  0  0  0  0  0  0
   -7.0917    0.0864   -0.4392 H   0  0  0  0  0  0  0  0  0  0  0  0
   -6.1771   -1.0157    1.1893 C   0  0  0  0  0  0  0  0  0  0  0  0
   -4.9579   -1.3041    1.8265 C   0  0  0  0  0  0  0  0  0  0  0  0
   -4.9522   -1.9784    2.6984 H   0  0  0  0  0  0  0  0  0  0  0  0
   -3.7355   -0.7621    1.3901 C   0  0  0  0  0  0  0  0  0  0  0  0
   -4.9987    1.3147   -1.6084 C   0  0  0  0  0  0  0  0  0  0  0  0
   -6.0328    1.3999   -1.9931 H   0  0  0  0  0  0  0  0  0  0  0  0
   -4.3670    0.9322   -2.4378 H   0  0  0  0  0  0  0  0  0  0  0  0
   -4.6457    2.3427   -1.3823 H   0  0  0  0  0  0  0  0  0  0  0  0
   -7.4748   -1.5878    1.7016 C   0  0  0  0  0  0  0  0  0  0  0  0
   -8.2579   -1.5938    0.9183 H   0  0  0  0  0  0  0  0  0  0  0  0
   -7.8647   -0.9880    2.5522 H   0  0  0  0  0  0  0  0  0  0  0  0
   -7.3456   -2.6245    2.0716 H   0  0  0  0  0  0  0  0  0  0  0  0
   -2.4622   -1.1386    2.1004 C   0  0  0  0  0  0  0  0  0  0  0  0
   -1.8849   -1.8883    1.5177 H   0  0  0  0  0  0  0  0  0  0  0  0
   -2.6775   -1.5876    3.0887 H   0  0  0  0  0  0  0  0  0  0  0  0
   -1.7733   -0.2829    2.2535 H   0  0  0  0  0  0  0  0  0  0  0  0
  1 16  1  0  0  0  0
  1  5  1  0  0  0  0
  2  5  1  0  0  0  0
  2 32  1  0  0  0  0
  3 22  1  0  0  0  0
  4 25  1  0  0  0  0
  6  2  1  0  0  0  0
  7  6  1  0  0  0  0
  7  1  1  0  0  0  0
  8  7  2  0  0  0  0
  9  8  1  0  0  0  0
 10 12  2  0  0  0  0
 10  8  1  0  0  0  0
 11 10  1  0  0  0  0
 12 14  1  0  0  0  0
 13 12  1  0  0  0  0
 14 15  1  0  0  0  0
 14  6  2  0  0  0  0
 16 19  1  0  0  0  0
 17 16  1  0  0  0  0
 18 16  1  0  0  0  0
 19  3  1  0  0  0  0
 19 21  1  0  0  0  0
 19 20  1  0  0  0  0
 22 23  1  0  0  0  0
 22 24  1  0  0  0  0
 25 22  1  0  0  0  0
 25 27  1  0  0  0  0
 26 25  1  0  0  0  0
 28  4  1  0  0  0  0
 29 28  1  0  0  0  0
 30 28  1  0  0  0  0
 31 28  1  0  0  0  0
 32 35  1  0  0  0  0
 32 34  1  0  0  0  0
 33 32  1  0  0  0  0
 35 42  1  0  0  0  0
 36 37  1  0  0  0  0
 36 35  2  0  0  0  0
 37 39  2  0  0  0  0
 38 37  1  0  0  0  0
 39 47  1  0  0  0  0
 39 40  1  0  0  0  0
 40 41  1  0  0  0  0
 42 40  2  0  0  0  0
 42 51  1  0  0  0  0
 43 46  1  0  0  0  0
 43 36  1  0  0  0  0
 44 43  1  0  0  0  0
 45 43  1  0  0  0  0
 47 50  1  0  0  0  0
 47 49  1  0  0  0  0
 48 47  1  0  0  0  0
 51 54  1  0  0  0  0
 51 53  1  0  0  0  0
 52 51  1  0  0  0  0
M  END
