27
 OpenBabel05122313113D

 45 49  0  0  1  0  0  0  0  0999 V2000
    4.3790   -1.4785   -0.7738 C   0  0  2  0  0  0  0  0  0  0  0  0
    4.2115   -2.3694   -1.3924 H   0  0  0  0  0  0  0  0  0  0  0  0
   -3.3871   -2.4913    1.7679 C   0  0  0  0  0  0  0  0  0  0  0  0
   -2.9987   -3.5298    1.7511 H   0  0  0  0  0  0  0  0  0  0  0  0
   -4.2788   -2.4658    2.4252 H   0  0  0  0  0  0  0  0  0  0  0  0
   -2.6025   -1.8308    2.1901 H   0  0  0  0  0  0  0  0  0  0  0  0
    4.6875    1.2506   -0.6605 B   0  0  0  0  0  2  0  0  0  0  0  0
    4.8084    2.2958   -1.2541 H   0  0  0  0  0  0  0  0  0  0  0  0
   -0.4872   -1.7857   -1.1998 N   0  0  0  0  0  0  0  0  0  0  0  0
   -2.5165   -2.1005   -0.4877 N   0  0  0  0  0  0  0  0  0  0  0  0
   -4.3201   -0.6053    0.3781 C   0  0  0  0  0  0  0  0  0  0  0  0
   -5.1834   -0.5712    1.0705 H   0  0  0  0  0  0  0  0  0  0  0  0
   -4.6613   -0.2819   -0.6246 H   0  0  0  0  0  0  0  0  0  0  0  0
   -3.5498    0.1182    0.7307 H   0  0  0  0  0  0  0  0  0  0  0  0
    1.7221   -1.6367   -0.1231 C   0  0  0  0  0  0  0  0  0  0  0  0
    1.1417   -1.4091    0.7986 H   0  0  0  0  0  0  0  0  0  0  0  0
    1.9070   -2.7297   -0.1338 H   0  0  0  0  0  0  0  0  0  0  0  0
    5.2789   -0.4483    1.6144 B   0  0  0  0  0  2  0  0  0  0  0  0
    5.8314   -0.6390    2.6711 H   0  0  0  0  0  0  0  0  0  0  0  0
    3.0500   -0.9005    0.0060 C   0  0  1  0  0  0  0  0  0  0  0  0
   -4.8297   -2.9623   -0.2581 C   0  0  0  0  0  0  0  0  0  0  0  0
   -4.5645   -4.0340   -0.1670 H   0  0  0  0  0  0  0  0  0  0  0  0
   -5.0147   -2.7265   -1.3253 H   0  0  0  0  0  0  0  0  0  0  0  0
   -5.7789   -2.8201    0.2930 H   0  0  0  0  0  0  0  0  0  0  0  0
   -0.8182   -3.0931   -1.5288 C   0  0  0  0  0  0  0  0  0  0  0  0
   -0.1345   -3.7586   -2.0640 H   0  0  0  0  0  0  0  0  0  0  0  0
   -1.5188   -1.1544   -0.5473 C   0  0  0  0  0  2  0  0  0  0  0  0
    5.8042   -1.2923    0.1349 B   0  0  1  0  0  0  0  0  0  0  0  0
    6.6452   -2.1518    0.0468 H   0  0  0  0  0  0  0  0  0  0  0  0
    5.4460   -0.2497   -1.2628 B   0  0  2  0  0  0  0  0  0  0  0  0
    6.0426   -0.3983   -2.3000 H   0  0  0  0  0  0  0  0  0  0  0  0
   -3.7657   -2.0317    0.3482 C   0  0  0  0  0  0  0  0  0  0  0  0
    0.8532   -1.2245   -1.3185 C   0  0  0  0  0  0  0  0  0  0  0  0
    0.7382   -0.1246   -1.3268 H   0  0  0  0  0  0  0  0  0  0  0  0
    1.2839   -1.5453   -2.2876 H   0  0  0  0  0  0  0  0  0  0  0  0
   -2.0943   -3.2902   -1.0829 C   0  0  0  0  0  0  0  0  0  0  0  0
   -2.7315   -4.1728   -1.1565 H   0  0  0  0  0  0  0  0  0  0  0  0
    3.6873   -0.0291   -1.3516 B   0  0  1  0  0  0  0  0  0  0  0  0
    3.0757   -0.0623   -2.3859 H   0  0  0  0  0  0  0  0  0  0  0  0
    4.2645   -1.7219    0.9171 B   0  0  2  0  0  0  0  0  0  0  0  0
    3.9958   -2.8288    1.3063 H   0  0  0  0  0  0  0  0  0  0  0  0
    3.5117   -0.2332    1.5215 B   0  0  1  0  0  0  0  0  0  0  0  0
    2.7103   -0.3229    2.4151 H   0  0  0  0  0  0  0  0  0  0  0  0
    3.1468    0.8006    0.1214 B   0  0  2  0  0  0  0  0  0  0  0  0
    2.1120    1.4123    0.0816 H   0  0  0  0  0  0  0  0  0  0  0  0
  1  2  1  6  0  0  0
  1 20  1  0  0  0  0
  1 28  1  0  0  0  0
  3  6  1  0  0  0  0
  3  5  1  0  0  0  0
  4  3  1  0  0  0  0
  8  7  1  0  0  0  0
  9 27  1  0  0  0  0
 10 32  1  0  0  0  0
 11 14  1  0  0  0  0
 11 12  1  0  0  0  0
 13 11  1  0  0  0  0
 15 16  1  0  0  0  0
 17 15  1  0  0  0  0
 18 19  1  0  0  0  0
 20 15  1  6  0  0  0
 20 44  1  0  0  0  0
 20 42  1  0  0  0  0
 21 22  1  0  0  0  0
 21 24  1  0  0  0  0
 21 32  1  0  0  0  0
 23 21  1  0  0  0  0
 25  9  1  0  0  0  0
 25 36  2  0  0  0  0
 26 25  1  0  0  0  0
 27 10  1  0  0  0  0
 28 29  1  6  0  0  0
 28 40  1  0  0  0  0
 30 31  1  6  0  0  0
 30  1  1  0  0  0  0
 30 28  1  0  0  0  0
 32 11  1  0  0  0  0
 32  3  1  0  0  0  0
 33  9  1  0  0  0  0
 33 15  1  0  0  0  0
 34 33  1  0  0  0  0
 35 33  1  0  0  0  0
 36 10  1  0  0  0  0
 37 36  1  0  0  0  0
 38 39  1  6  0  0  0
 38 30  1  0  0  0  0
 38  7  1  0  0  0  0
 38 44  1  0  0  0  0
 40 41  1  1  0  0  0
 40 42  1  0  0  0  0
 40 18  1  0  0  0  0
 42 43  1  1  0  0  0
 44 45  1  6  0  0  0
 44 42  1  0  0  0  0
M  END
