1
 OpenBabel05122313113D

 38 41  0  0  0  0  0  0  0  0999 V2000
   -1.0304    0.7574   -0.5297 C   0  0  0  0  0  2  0  0  0  0  0  0
   -3.2901    0.8366   -0.3371 C   0  0  0  0  0  0  0  0  0  0  0  0
   -2.1957    0.0140   -0.6193 N   0  0  0  0  0  0  0  0  0  0  0  0
   -1.5223    2.0148   -0.2612 N   0  0  0  0  0  0  0  0  0  0  0  0
   -2.8820    2.0661   -0.1109 N   0  0  0  0  0  0  0  0  0  0  0  0
   -2.3173   -1.3850   -0.9261 C   0  0  0  0  0  0  0  0  0  0  0  0
   -2.8279   -2.2474    0.0529 C   0  0  0  0  0  0  0  0  0  0  0  0
   -3.0742   -1.8554    1.0474 H   0  0  0  0  0  0  0  0  0  0  0  0
   -3.0043   -3.6009   -0.2560 C   0  0  0  0  0  0  0  0  0  0  0  0
   -3.3918   -4.2860    0.5129 H   0  0  0  0  0  0  0  0  0  0  0  0
   -2.6775   -4.0807   -1.5342 C   0  0  0  0  0  0  0  0  0  0  0  0
   -2.8102   -5.1471   -1.7718 H   0  0  0  0  0  0  0  0  0  0  0  0
   -2.1754   -3.2024   -2.5068 C   0  0  0  0  0  0  0  0  0  0  0  0
   -1.9058   -3.5770   -3.5055 H   0  0  0  0  0  0  0  0  0  0  0  0
   -1.9962   -1.8446   -2.2111 C   0  0  0  0  0  0  0  0  0  0  0  0
   -1.5662   -1.1487   -2.9453 H   0  0  0  0  0  0  0  0  0  0  0  0
   -0.8159    3.2563   -0.2016 C   0  0  0  0  0  0  0  0  0  0  0  0
   -0.0822    3.6939   -1.3157 C   0  0  0  0  0  0  0  0  0  0  0  0
   -0.0239    3.0563   -2.2094 H   0  0  0  0  0  0  0  0  0  0  0  0
    0.5758    4.9289   -1.2536 C   0  0  0  0  0  0  0  0  0  0  0  0
    1.1577    5.2750   -2.1207 H   0  0  0  0  0  0  0  0  0  0  0  0
    0.4959    5.7194   -0.0958 C   0  0  0  0  0  0  0  0  0  0  0  0
    1.0164    6.6881   -0.0537 H   0  0  0  0  0  0  0  0  0  0  0  0
   -0.2547    5.2789    1.0059 C   0  0  0  0  0  0  0  0  0  0  0  0
   -0.3282    5.9006    1.9108 H   0  0  0  0  0  0  0  0  0  0  0  0
   -0.9173    4.0441    0.9553 C   0  0  0  0  0  0  0  0  0  0  0  0
   -1.5290    3.6911    1.7980 H   0  0  0  0  0  0  0  0  0  0  0  0
   -4.7062    0.4431   -0.2704 C   0  0  0  0  0  0  0  0  0  0  0  0
   -5.5287    1.1050    0.6697 C   0  0  0  0  0  0  0  0  0  0  0  0
   -5.0775    1.8672    1.3210 H   0  0  0  0  0  0  0  0  0  0  0  0
   -6.8899    0.7936    0.7647 C   0  0  0  0  0  0  0  0  0  0  0  0
   -7.5180    1.3126    1.5045 H   0  0  0  0  0  0  0  0  0  0  0  0
   -7.4505   -0.1801   -0.0783 C   0  0  0  0  0  0  0  0  0  0  0  0
   -8.5197   -0.4295   -0.0006 H   0  0  0  0  0  0  0  0  0  0  0  0
   -6.6425   -0.8303   -1.0240 C   0  0  0  0  0  0  0  0  0  0  0  0
   -7.0775   -1.5847   -1.6966 H   0  0  0  0  0  0  0  0  0  0  0  0
   -5.2787   -0.5247   -1.1256 C   0  0  0  0  0  0  0  0  0  0  0  0
   -4.6611   -1.0328   -1.8777 H   0  0  0  0  0  0  0  0  0  0  0  0
  1  4  1  0  0  0  0
  2 28  1  0  0  0  0
  2  5  2  0  0  0  0
  3  1  1  0  0  0  0
  3  2  1  0  0  0  0
  4 17  1  0  0  0  0
  4  5  1  0  0  0  0
  6  3  1  0  0  0  0
  6  7  1  0  0  0  0
  7  8  1  0  0  0  0
  9  7  2  0  0  0  0
  9 10  1  0  0  0  0
 11  9  1  0  0  0  0
 12 11  1  0  0  0  0
 13 15  1  0  0  0  0
 13 11  2  0  0  0  0
 14 13  1  0  0  0  0
 15  6  2  0  0  0  0
 16 15  1  0  0  0  0
 17 26  1  0  0  0  0
 18 20  1  0  0  0  0
 18 17  2  0  0  0  0
 19 18  1  0  0  0  0
 20 22  2  0  0  0  0
 21 20  1  0  0  0  0
 22 23  1  0  0  0  0
 22 24  1  0  0  0  0
 24 25  1  0  0  0  0
 26 24  2  0  0  0  0
 26 27  1  0  0  0  0
 28 29  1  0  0  0  0
 29 31  2  0  0  0  0
 29 30  1  0  0  0  0
 31 32  1  0  0  0  0
 33 34  1  0  0  0  0
 33 31  1  0  0  0  0
 35 33  2  0  0  0  0
 36 35  1  0  0  0  0
 37 35  1  0  0  0  0
 37 28  2  0  0  0  0
 38 37  1  0  0  0  0
M  END
