1
 OpenBabel05122313113D

 18 17  0  0  0  0  0  0  0  0999 V2000
    1.1451    0.5255    0.0720 C   0  0  0  0  0  2  0  0  0  0  0  0
    2.2354   -1.6860    0.2142 C   0  0  0  0  0  0  0  0  0  0  0  0
    3.6263   -2.1763   -0.1377 C   0  0  0  0  0  0  0  0  0  0  0  0
    3.0372    2.0837    0.0063 C   0  0  0  0  0  0  0  0  0  0  0  0
    0.7453    2.9825    0.0579 C   0  0  0  0  0  0  0  0  0  0  0  0
    1.4716   -2.1264   -0.4531 H   0  0  0  0  0  0  0  0  0  0  0  0
    1.9683   -1.9434    1.2589 H   0  0  0  0  0  0  0  0  0  0  0  0
    3.8814   -1.9265   -1.1866 H   0  0  0  0  0  0  0  0  0  0  0  0
    4.3909   -1.7262    0.5261 H   0  0  0  0  0  0  0  0  0  0  0  0
    3.6732   -3.2771   -0.0228 H   0  0  0  0  0  0  0  0  0  0  0  0
    3.5070    1.5932   -0.8683 H   0  0  0  0  0  0  0  0  0  0  0  0
    3.1843    3.1757   -0.0647 H   0  0  0  0  0  0  0  0  0  0  0  0
    3.5451    1.7031    0.9146 H   0  0  0  0  0  0  0  0  0  0  0  0
    1.0794    3.6764    0.8560 H   0  0  0  0  0  0  0  0  0  0  0  0
   -0.2993    2.7051    0.2528 H   0  0  0  0  0  0  0  0  0  0  0  0
    0.7962    3.5111   -0.9172 H   0  0  0  0  0  0  0  0  0  0  0  0
    1.5948    1.8016    0.0521 N   0  0  0  0  0  0  0  0  0  0  0  0
    2.2376   -0.2564    0.0811 O   0  0  0  0  0  0  0  0  0  0  0  0
  1 18  1  0  0  0  0
  2  7  1  0  0  0  0
  3 10  1  0  0  0  0
  3  2  1  0  0  0  0
  3  9  1  0  0  0  0
  4 17  1  0  0  0  0
  4 13  1  0  0  0  0
  5 15  1  0  0  0  0
  5 14  1  0  0  0  0
  6  2  1  0  0  0  0
  8  3  1  0  0  0  0
 11  4  1  0  0  0  0
 12  4  1  0  0  0  0
 16  5  1  0  0  0  0
 17  5  1  0  0  0  0
 17  1  1  0  0  0  0
 18  2  1  0  0  0  0
M  END
