5
 OpenBabel05122313113D

 16 16  0  0  0  0  0  0  0  0999 V2000
   -7.7720    1.0937   -0.5851 F   0  0  0  0  0  0  0  0  0  0  0  0
   -7.7719   -1.0936   -0.5854 F   0  0  0  0  0  0  0  0  0  0  0  0
   -7.6950   -0.0002    1.2997 F   0  0  0  0  0  0  0  0  0  0  0  0
   -1.5695    0.0001   -0.0176 N   0  0  0  0  0  2  0  0  0  0  0  0
   -0.3847    0.0002   -0.0128 C   0  0  0  0  0  1  0  0  0  0  0  0
   -2.9460    0.0001   -0.0228 C   0  0  0  0  0  0  0  0  0  0  0  0
   -3.6438    1.2274   -0.0275 C   0  0  0  0  0  0  0  0  0  0  0  0
   -5.0409    1.2190   -0.0333 C   0  0  0  0  0  0  0  0  0  0  0  0
   -5.7417    0.0000   -0.0332 C   0  0  0  0  0  0  0  0  0  0  0  0
   -5.0409   -1.2189   -0.0335 C   0  0  0  0  0  0  0  0  0  0  0  0
   -3.6438   -1.2273   -0.0277 C   0  0  0  0  0  0  0  0  0  0  0  0
   -7.2549   -0.0000    0.0187 C   0  0  0  0  0  0  0  0  0  0  0  0
   -3.0815    2.1712   -0.0299 H   0  0  0  0  0  0  0  0  0  0  0  0
   -5.5955    2.1678   -0.0455 H   0  0  0  0  0  0  0  0  0  0  0  0
   -5.5955   -2.1678   -0.0459 H   0  0  0  0  0  0  0  0  0  0  0  0
   -3.0814   -2.1711   -0.0302 H   0  0  0  0  0  0  0  0  0  0  0  0
  1 12  1  0  0  0  0
  2 12  1  0  0  0  0
  4  5  1  0  0  0  0
  6  4  1  0  0  0  0
  7  6  1  0  0  0  0
  8  9  1  0  0  0  0
  8  7  2  0  0  0  0
  9 12  1  0  0  0  0
 10  9  2  0  0  0  0
 10 11  1  0  0  0  0
 11  6  2  0  0  0  0
 12  3  1  0  0  0  0
 13  7  1  0  0  0  0
 14  8  1  0  0  0  0
 15 10  1  0  0  0  0
 16 11  1  0  0  0  0
M  END
