8
 OpenBabel05122313113D

 27 28  0  0  1  0  0  0  0  0999 V2000
    1.9994   -0.3701    0.9252 C   0  0  1  0  0  3  0  0  0  0  0  0
    3.3467   -0.9541    0.6968 C   0  0  0  0  0  0  0  0  0  0  0  0
    3.9120   -1.8375    1.6444 C   0  0  0  0  0  0  0  0  0  0  0  0
    5.1841   -2.3896    1.4391 C   0  0  0  0  0  0  0  0  0  0  0  0
    5.9193   -2.0602    0.2898 C   0  0  0  0  0  0  0  0  0  0  0  0
    5.3770   -1.1688   -0.6524 C   0  0  0  0  0  0  0  0  0  0  0  0
    4.1048   -0.6215   -0.4521 C   0  0  0  0  0  0  0  0  0  0  0  0
    1.4217    0.6623    0.1006 C   0  0  0  0  0  2  0  0  0  0  0  0
    1.9864    1.9344   -0.2837 C   0  0  0  0  0  0  0  0  0  0  0  0
    2.9668    2.5537    0.5412 C   0  0  0  0  0  0  0  0  0  0  0  0
    3.5138    3.7907    0.1894 C   0  0  0  0  0  0  0  0  0  0  0  0
    3.1096    4.4283   -0.9974 C   0  0  0  0  0  0  0  0  0  0  0  0
    2.1515    3.8245   -1.8324 C   0  0  0  0  0  0  0  0  0  0  0  0
    1.5895    2.5957   -1.4763 C   0  0  0  0  0  0  0  0  0  0  0  0
    1.0368   -0.8978    1.8347 C   0  0  0  0  0  3  0  0  0  0  0  0
    3.3595   -2.0759    2.5648 H   0  0  0  0  0  0  0  0  0  0  0  0
    5.6097   -3.0727    2.1891 H   0  0  0  0  0  0  0  0  0  0  0  0
    6.9195   -2.4899    0.1314 H   0  0  0  0  0  0  0  0  0  0  0  0
    5.9531   -0.8983   -1.5499 H   0  0  0  0  0  0  0  0  0  0  0  0
    3.6909    0.0781   -1.1930 H   0  0  0  0  0  0  0  0  0  0  0  0
    3.2862    2.0454    1.4634 H   0  0  0  0  0  0  0  0  0  0  0  0
    4.2658    4.2626    0.8391 H   0  0  0  0  0  0  0  0  0  0  0  0
    3.5462    5.3992   -1.2755 H   0  0  0  0  0  0  0  0  0  0  0  0
    1.8435    4.3208   -2.7646 H   0  0  0  0  0  0  0  0  0  0  0  0
    0.8436    2.1142   -2.1246 H   0  0  0  0  0  0  0  0  0  0  0  0
    1.1958   -1.8896    2.2897 H   0  0  0  0  0  0  0  0  0  0  0  0
    0.4578   -0.1887    2.4381 H   0  0  0  0  0  0  0  0  0  0  0  0
  1  8  1  6  0  0  0
  1 15  1  0  0  0  0
  2  1  1  0  0  0  0
  2  3  1  0  0  0  0
  3 16  1  0  0  0  0
  4  3  2  0  0  0  0
  4 17  1  0  0  0  0
  5  4  1  0  0  0  0
  6  7  1  0  0  0  0
  6  5  2  0  0  0  0
  7  2  2  0  0  0  0
  9  8  1  0  0  0  0
  9 10  1  0  0  0  0
 10 21  1  0  0  0  0
 11 10  2  0  0  0  0
 11 22  1  0  0  0  0
 12 11  1  0  0  0  0
 13 14  1  0  0  0  0
 13 12  2  0  0  0  0
 14  9  2  0  0  0  0
 15 26  1  0  0  0  0
 15 27  1  0  0  0  0
 18  5  1  0  0  0  0
 19  6  1  0  0  0  0
 20  7  1  0  0  0  0
 23 12  1  0  0  0  0
 24 13  1  0  0  0  0
 25 14  1  0  0  0  0
M  END
