3
 OpenBabel05122313113D

 21 22  0  0  1  0  0  0  0  0999 V2000
   -2.8988    0.1833   -1.2970 N   0  0  0  0  0  0  0  0  0  0  0  0
   -4.2661    0.2346   -1.0345 N   0  0  0  0  0  0  0  0  0  0  0  0
   -2.1652    0.0153   -0.1796 C   0  0  0  0  0  3  0  0  0  0  0  0
   -3.1219   -0.1009    0.8850 C   0  0  0  0  0  0  0  0  0  0  0  0
   -2.9750   -0.3057    2.2735 C   0  0  0  0  0  0  0  0  0  0  0  0
   -1.9674   -0.4005    2.7030 H   0  0  0  0  0  0  0  0  0  0  0  0
   -4.1257   -0.3906    3.0551 C   0  0  0  0  0  0  0  0  0  0  0  0
   -4.0426   -0.5530    4.1395 H   0  0  0  0  0  0  0  0  0  0  0  0
   -5.4140   -0.2766    2.4685 C   0  0  0  0  0  0  0  0  0  0  0  0
   -6.3034   -0.3538    3.1124 H   0  0  0  0  0  0  0  0  0  0  0  0
   -5.5915   -0.0724    1.0982 C   0  0  0  0  0  0  0  0  0  0  0  0
   -6.5977    0.0091    0.6627 H   0  0  0  0  0  0  0  0  0  0  0  0
   -4.4241    0.0231    0.3142 C   0  0  1  0  0  3  0  0  0  0  0  0
   -2.4020    0.4176   -2.6380 C   0  0  0  0  0  0  0  0  0  0  0  0
   -1.3064    0.2836   -2.5890 H   0  0  0  0  0  0  0  0  0  0  0  0
   -2.6202    1.4551   -2.9623 H   0  0  0  0  0  0  0  0  0  0  0  0
   -2.8305   -0.3117   -3.3532 H   0  0  0  0  0  0  0  0  0  0  0  0
   -5.2576    0.1411   -2.0782 C   0  0  0  0  0  0  0  0  0  0  0  0
   -6.2465    0.3195   -1.6183 H   0  0  0  0  0  0  0  0  0  0  0  0
   -5.2692   -0.8600   -2.5626 H   0  0  0  0  0  0  0  0  0  0  0  0
   -5.0999    0.9199   -2.8492 H   0  0  0  0  0  0  0  0  0  0  0  0
  1  2  1  0  0  0  0
  1  3  1  0  0  0  0
  2 13  1  0  0  0  0
  3  4  2  0  0  0  0
  4  5  1  0  0  0  0
  5  6  1  0  0  0  0
  5  7  2  0  0  0  0
  7  8  1  0  0  0  0
  9  7  1  0  0  0  0
  9 10  1  0  0  0  0
 11  9  2  0  0  0  0
 12 11  1  0  0  0  0
 13  4  1  1  0  0  0
 13 11  1  0  0  0  0
 14 15  1  0  0  0  0
 14  1  1  0  0  0  0
 16 14  1  0  0  0  0
 17 14  1  0  0  0  0
 18 19  1  0  0  0  0
 18  2  1  0  0  0  0
 20 18  1  0  0  0  0
 21 18  1  0  0  0  0
M  END
