6
 OpenBabel05122313113D

 40 42  0  0  1  0  0  0  0  0999 V2000
    0.5995   -1.7776   -2.9924 N   0  0  0  0  0  0  0  0  0  0  0  0
    2.2790   -0.7900   -2.0569 N   0  0  0  0  0  0  0  0  0  0  0  0
    3.1255    2.0343   -2.3338 N   0  0  0  0  0  0  0  0  0  0  0  0
    2.3567    2.3756   -1.7321 H   0  0  0  0  0  0  0  0  0  0  0  0
    2.6584    1.5912   -3.1348 H   0  0  0  0  0  0  0  0  0  0  0  0
    1.0172   -1.2470   -1.8046 C   0  0  0  0  0  2  0  0  0  0  0  0
    1.5791   -1.6544   -3.9695 C   0  0  0  0  0  0  0  0  0  0  0  0
    1.4395   -2.0086   -4.9952 H   0  0  0  0  0  0  0  0  0  0  0  0
    2.6467   -1.0294   -3.3742 C   0  0  0  0  0  0  0  0  0  0  0  0
    3.6192   -0.7441   -3.7847 H   0  0  0  0  0  0  0  0  0  0  0  0
   -0.7200   -2.3496   -3.2063 C   0  0  0  0  0  0  0  0  0  0  0  0
   -1.2355   -2.4045   -2.2292 H   0  0  0  0  0  0  0  0  0  0  0  0
   -0.6360   -3.3667   -3.6370 H   0  0  0  0  0  0  0  0  0  0  0  0
   -1.3176   -1.7118   -3.8880 H   0  0  0  0  0  0  0  0  0  0  0  0
    3.0793   -0.1288   -1.0147 C   0  0  1  0  0  0  0  0  0  0  0  0
    2.3261    0.3520   -0.3534 H   0  0  0  0  0  0  0  0  0  0  0  0
    3.8768   -1.1228   -0.1979 C   0  0  0  0  0  0  0  0  0  0  0  0
    4.6264   -2.1543   -0.7952 C   0  0  0  0  0  0  0  0  0  0  0  0
    4.6000   -2.2917   -1.8875 H   0  0  0  0  0  0  0  0  0  0  0  0
    5.3981   -3.0238   -0.0094 C   0  0  0  0  0  0  0  0  0  0  0  0
    5.9763   -3.8274   -0.4909 H   0  0  0  0  0  0  0  0  0  0  0  0
    5.4330   -2.8719    1.3858 C   0  0  0  0  0  0  0  0  0  0  0  0
    6.0408   -3.5525    2.0012 H   0  0  0  0  0  0  0  0  0  0  0  0
    4.6870   -1.8469    1.9900 C   0  0  0  0  0  0  0  0  0  0  0  0
    4.7104   -1.7175    3.0831 H   0  0  0  0  0  0  0  0  0  0  0  0
    3.9134   -0.9815    1.2041 C   0  0  0  0  0  0  0  0  0  0  0  0
    3.3367   -0.1696    1.6738 H   0  0  0  0  0  0  0  0  0  0  0  0
    3.9231    1.0561   -1.6134 C   0  0  2  0  0  0  0  0  0  0  0  0
    4.6674    0.6211   -2.3180 H   0  0  0  0  0  0  0  0  0  0  0  0
    4.7087    1.6949   -0.4779 C   0  0  0  0  0  0  0  0  0  0  0  0
    6.0773    1.4170   -0.3104 C   0  0  0  0  0  0  0  0  0  0  0  0
    6.5883    0.7636   -1.0353 H   0  0  0  0  0  0  0  0  0  0  0  0
    6.7911    1.9481    0.7743 C   0  0  0  0  0  0  0  0  0  0  0  0
    7.8616    1.7191    0.8902 H   0  0  0  0  0  0  0  0  0  0  0  0
    6.1398    2.7685    1.7083 C   0  0  0  0  0  0  0  0  0  0  0  0
    6.6970    3.1877    2.5602 H   0  0  0  0  0  0  0  0  0  0  0  0
    4.7737    3.0519    1.5483 C   0  0  0  0  0  0  0  0  0  0  0  0
    4.2527    3.6934    2.2756 H   0  0  0  0  0  0  0  0  0  0  0  0
    4.0608    2.5181    0.4647 C   0  0  0  0  0  0  0  0  0  0  0  0
    2.9831    2.7324    0.3672 H   0  0  0  0  0  0  0  0  0  0  0  0
  1  6  1  0  0  0  0
  2  6  1  0  0  0  0
  2 15  1  0  0  0  0
  3  4  1  0  0  0  0
  3 28  1  0  0  0  0
  5  3  1  0  0  0  0
  7  9  2  0  0  0  0
  7  1  1  0  0  0  0
  8  7  1  0  0  0  0
  9  2  1  0  0  0  0
 10  9  1  0  0  0  0
 11  1  1  0  0  0  0
 11 12  1  0  0  0  0
 13 11  1  0  0  0  0
 14 11  1  0  0  0  0
 15 16  1  1  0  0  0
 15 17  1  0  0  0  0
 17 26  1  0  0  0  0
 18 17  2  0  0  0  0
 18 20  1  0  0  0  0
 19 18  1  0  0  0  0
 20 22  2  0  0  0  0
 21 20  1  0  0  0  0
 22 24  1  0  0  0  0
 22 23  1  0  0  0  0
 24 25  1  0  0  0  0
 26 27  1  0  0  0  0
 26 24  2  0  0  0  0
 28 29  1  6  0  0  0
 28 15  1  0  0  0  0
 28 30  1  0  0  0  0
 30 31  2  0  0  0  0
 30 39  1  0  0  0  0
 31 33  1  0  0  0  0
 32 31  1  0  0  0  0
 33 34  1  0  0  0  0
 33 35  2  0  0  0  0
 35 36  1  0  0  0  0
 37 35  1  0  0  0  0
 37 38  1  0  0  0  0
 39 37  2  0  0  0  0
 40 39  1  0  0  0  0
M  END
