3
 OpenBabel05122313113D

 25 26  0  0  0  0  0  0  0  0999 V2000
   -2.5389    1.9989   -0.0001 O   0  0  0  0  0  0  0  0  0  0  0  0
   -0.3326    1.4864    0.0001 N   0  0  0  0  0  0  0  0  0  0  0  0
   -0.9728   -1.3788    0.0000 C   0  0  0  0  0  3  0  0  0  0  0  0
   -1.3902   -2.7198   -0.0000 C   0  0  0  0  0  0  0  0  0  0  0  0
   -0.6466   -3.5310    0.0000 H   0  0  0  0  0  0  0  0  0  0  0  0
   -2.7590   -3.0474   -0.0001 C   0  0  0  0  0  0  0  0  0  0  0  0
   -3.0666   -4.1045   -0.0002 H   0  0  0  0  0  0  0  0  0  0  0  0
   -3.7267   -2.0324   -0.0002 C   0  0  0  0  0  0  0  0  0  0  0  0
   -4.7972   -2.2866   -0.0003 H   0  0  0  0  0  0  0  0  0  0  0  0
   -3.3278   -0.6894   -0.0002 C   0  0  0  0  0  0  0  0  0  0  0  0
   -4.0722    0.1196   -0.0002 H   0  0  0  0  0  0  0  0  0  0  0  0
   -1.9571   -0.3549   -0.0001 C   0  0  0  0  0  0  0  0  0  0  0  0
   -1.5507    1.0642   -0.0000 C   0  0  0  0  0  0  0  0  0  0  0  0
   -1.8784    3.2874   -0.0001 C   0  0  0  0  0  0  0  0  0  0  0  0
   -2.2051    3.8435    0.9025 H   0  0  0  0  0  0  0  0  0  0  0  0
   -0.3453    2.9590    0.0000 C   0  0  0  0  0  0  0  0  0  0  0  0
    0.3615    3.4689   -1.2638 C   0  0  0  0  0  0  0  0  0  0  0  0
    1.4129    3.1199   -1.2769 H   0  0  0  0  0  0  0  0  0  0  0  0
    0.3572    4.5777   -1.2972 H   0  0  0  0  0  0  0  0  0  0  0  0
   -0.1396    3.0870   -2.1754 H   0  0  0  0  0  0  0  0  0  0  0  0
   -2.2049    3.8435   -0.9027 H   0  0  0  0  0  0  0  0  0  0  0  0
    0.3614    3.4690    1.2639 C   0  0  0  0  0  0  0  0  0  0  0  0
    1.4127    3.1200    1.2772 H   0  0  0  0  0  0  0  0  0  0  0  0
    0.3570    4.5778    1.2973 H   0  0  0  0  0  0  0  0  0  0  0  0
   -0.1400    3.0871    2.1755 H   0  0  0  0  0  0  0  0  0  0  0  0
  1 14  1  0  0  0  0
  1 13  1  0  0  0  0
  4  3  1  0  0  0  0
  4  5  1  0  0  0  0
  6  4  2  0  0  0  0
  7  6  1  0  0  0  0
  8 10  2  0  0  0  0
  8  6  1  0  0  0  0
  9  8  1  0  0  0  0
 10 12  1  0  0  0  0
 11 10  1  0  0  0  0
 12 13  1  0  0  0  0
 12  3  2  0  0  0  0
 13  2  2  0  0  0  0
 14 16  1  0  0  0  0
 14 15  1  0  0  0  0
 16  2  1  0  0  0  0
 16 22  1  0  0  0  0
 17 16  1  0  0  0  0
 18 17  1  0  0  0  0
 19 17  1  0  0  0  0
 20 17  1  0  0  0  0
 21 14  1  0  0  0  0
 22 23  1  0  0  0  0
 22 24  1  0  0  0  0
 22 25  1  0  0  0  0
M  END
