15
 OpenBabel05122313113D

 35 39  0  0  1  0  0  0  0  0999 V2000
    0.3580    2.4338    0.0499 N   0  0  0  0  0  0  0  0  0  0  0  0
   -2.2100    0.9898   -0.0393 C   0  0  2  0  0  0  0  0  0  0  0  0
   -2.0230    0.0406   -1.2939 C   0  0  1  0  0  0  0  0  0  0  0  0
   -1.7991    0.5194   -2.2569 H   0  0  0  0  0  0  0  0  0  0  0  0
   -2.1245    2.5075   -0.2239 C   0  0  0  0  0  0  0  0  0  0  0  0
   -2.1766    2.7435   -1.3047 H   0  0  0  0  0  0  0  0  0  0  0  0
   -3.0169    2.9813    0.2284 H   0  0  0  0  0  0  0  0  0  0  0  0
   -0.8970    3.1373    0.4018 C   0  0  0  0  0  0  0  0  0  0  0  0
   -0.9785    3.1210    1.5079 H   0  0  0  0  0  0  0  0  0  0  0  0
   -0.8173    4.2052    0.0884 H   0  0  0  0  0  0  0  0  0  0  0  0
    1.4924    3.2049    0.5712 C   0  0  0  0  0  0  0  0  0  0  0  0
    1.4822    4.2377    0.1549 H   0  0  0  0  0  0  0  0  0  0  0  0
    2.4426    2.7240    0.2964 H   0  0  0  0  0  0  0  0  0  0  0  0
    1.4326    3.2677    1.6757 H   0  0  0  0  0  0  0  0  0  0  0  0
    0.4750    1.9575   -1.3423 C   0  0  0  0  0  3  0  0  0  0  0  0
    1.4670    2.1904   -1.7618 H   0  0  0  0  0  0  0  0  0  0  0  0
   -0.3147    2.3546   -2.0044 H   0  0  0  0  0  0  0  0  0  0  0  0
   -1.4862   -1.4730   -0.8723 B   0  0  0  0  0  2  0  0  0  0  0  0
   -0.8350   -2.1000   -1.6827 H   0  0  0  0  0  0  0  0  0  0  0  0
   -1.4068   -1.4916    0.9062 B   0  0  2  0  0  0  0  0  0  0  0  0
   -0.7133   -2.2148    1.5819 H   0  0  0  0  0  0  0  0  0  0  0  0
   -1.8106    0.1600    1.3627 B   0  0  2  0  0  0  0  0  0  0  0  0
   -1.2521    0.8003    2.2520 H   0  0  0  0  0  0  0  0  0  0  0  0
   -3.6319    0.3966   -0.8056 B   0  0  1  0  0  0  0  0  0  0  0  0
   -4.2767    1.1812   -1.4580 H   0  0  0  0  0  0  0  0  0  0  0  0
   -3.1833   -1.2233   -1.3392 B   0  0  2  0  0  0  0  0  0  0  0  0
   -3.6000   -1.5991   -2.4094 H   0  0  0  0  0  0  0  0  0  0  0  0
   -2.8116   -2.1991    0.0971 B   0  0  0  0  0  0  0  0  0  0  0  0
   -3.0204   -3.3923    0.1077 H   0  0  0  0  0  0  0  0  0  0  0  0
   -3.0194   -1.1444    1.5392 B   0  0  1  0  0  0  0  0  0  0  0  0
   -3.3744   -1.5569    2.6216 H   0  0  0  0  0  0  0  0  0  0  0  0
   -3.5068    0.4580    0.9676 B   0  0  2  0  0  0  0  0  0  0  0  0
   -4.1499    1.3105    1.5364 H   0  0  0  0  0  0  0  0  0  0  0  0
   -4.1401   -0.9983    0.1522 B   0  0  1  0  0  0  0  0  0  0  0  0
   -5.3139   -1.2873    0.1961 H   0  0  0  0  0  0  0  0  0  0  0  0
  1  8  1  0  0  0  0
  1 11  1  0  0  0  0
  2  5  1  6  0  0  0
  2 22  1  0  0  0  0
  3  4  1  6  0  0  0
  3 18  1  0  0  0  0
  3  2  1  0  0  0  0
  5  7  1  0  0  0  0
  5  8  1  0  0  0  0
  6  5  1  0  0  0  0
  8  9  1  0  0  0  0
 10  8  1  0  0  0  0
 11 14  1  0  0  0  0
 12 11  1  0  0  0  0
 13 11  1  0  0  0  0
 15  1  1  0  0  0  0
 16 15  1  0  0  0  0
 17 15  1  0  0  0  0
 19 18  1  0  0  0  0
 20 22  1  0  0  0  0
 20 30  1  0  0  0  0
 20 21  1  1  0  0  0
 22 23  1  1  0  0  0
 24 25  1  6  0  0  0
 24  2  1  0  0  0  0
 24 34  1  0  0  0  0
 26 27  1  6  0  0  0
 26  3  1  0  0  0  0
 26 24  1  0  0  0  0
 26 28  1  0  0  0  0
 28 29  1  0  0  0  0
 28 20  1  0  0  0  0
 30 31  1  1  0  0  0
 32 22  1  0  0  0  0
 32 33  1  1  0  0  0
 32 30  1  0  0  0  0
 34 35  1  1  0  0  0
 34 32  1  0  0  0  0
 34 30  1  0  0  0  0
M  END
