5
 OpenBabel05122313113D

 29 30  0  0  0  0  0  0  0  0999 V2000
   -1.5773    0.8830   -1.8632 C   0  0  0  0  0  0  0  0  0  0  0  0
   -2.0244    1.8576   -2.0817 H   0  0  0  0  0  0  0  0  0  0  0  0
   -0.3305    0.4246   -2.3587 C   0  0  0  0  0  0  0  0  0  0  0  0
    0.3345    0.9783   -3.0276 H   0  0  0  0  0  0  0  0  0  0  0  0
   -0.0607   -0.8395   -1.7686 C   0  0  0  0  0  3  0  0  0  0  0  0
    0.8248   -1.4576   -1.9488 H   0  0  0  0  0  0  0  0  0  0  0  0
   -1.1755   -1.1725   -0.9355 C   0  0  0  0  0  0  0  0  0  0  0  0
   -1.2913   -2.1077   -0.3765 H   0  0  0  0  0  0  0  0  0  0  0  0
   -2.1355   -0.1212   -1.0041 C   0  0  0  0  0  0  0  0  0  0  0  0
   -3.5511   -0.1740   -0.4446 C   0  0  0  0  0  0  0  0  0  0  0  0
   -3.5508   -0.5535    1.0619 C   0  0  0  0  0  0  0  0  0  0  0  0
   -2.9222   -1.4622    1.1922 H   0  0  0  0  0  0  0  0  0  0  0  0
   -3.0622    0.2607    1.6340 H   0  0  0  0  0  0  0  0  0  0  0  0
   -4.9469   -0.8620    1.6163 C   0  0  0  0  0  0  0  0  0  0  0  0
   -4.8616   -1.1641    2.6813 H   0  0  0  0  0  0  0  0  0  0  0  0
   -5.5682    0.0597    1.6132 H   0  0  0  0  0  0  0  0  0  0  0  0
   -5.6487   -1.9577    0.8045 C   0  0  0  0  0  0  0  0  0  0  0  0
   -6.6731   -2.1373    1.1930 H   0  0  0  0  0  0  0  0  0  0  0  0
   -5.0939   -2.9152    0.9332 H   0  0  0  0  0  0  0  0  0  0  0  0
   -5.6919   -1.6054   -0.6874 C   0  0  0  0  0  0  0  0  0  0  0  0
   -6.3565   -0.7284   -0.8447 H   0  0  0  0  0  0  0  0  0  0  0  0
   -6.1419   -2.4367   -1.2698 H   0  0  0  0  0  0  0  0  0  0  0  0
   -4.2889   -1.3057   -1.2303 C   0  0  0  0  0  0  0  0  0  0  0  0
   -4.3304   -1.0331   -2.3061 H   0  0  0  0  0  0  0  0  0  0  0  0
   -3.6790   -2.2333   -1.1681 H   0  0  0  0  0  0  0  0  0  0  0  0
   -4.2639    1.1712   -0.6724 C   0  0  0  0  0  0  0  0  0  0  0  0
   -5.2878    1.1644   -0.2548 H   0  0  0  0  0  0  0  0  0  0  0  0
   -4.3533    1.3916   -1.7555 H   0  0  0  0  0  0  0  0  0  0  0  0
   -3.7014    1.9932   -0.1908 H   0  0  0  0  0  0  0  0  0  0  0  0
  1  9  1  0  0  0  0
  2  1  1  0  0  0  0
  3  1  2  0  0  0  0
  3  5  1  0  0  0  0
  4  3  1  0  0  0  0
  5  7  1  0  0  0  0
  6  5  1  0  0  0  0
  7  8  1  0  0  0  0
  9  7  2  0  0  0  0
  9 10  1  0  0  0  0
 10 11  1  0  0  0  0
 11 12  1  0  0  0  0
 11 14  1  0  0  0  0
 11 13  1  0  0  0  0
 14 15  1  0  0  0  0
 16 14  1  0  0  0  0
 17 19  1  0  0  0  0
 17 18  1  0  0  0  0
 17 14  1  0  0  0  0
 20 17  1  0  0  0  0
 21 20  1  0  0  0  0
 22 20  1  0  0  0  0
 23 25  1  0  0  0  0
 23 20  1  0  0  0  0
 23 10  1  0  0  0  0
 24 23  1  0  0  0  0
 26 10  1  0  0  0  0
 26 27  1  0  0  0  0
 26 29  1  0  0  0  0
 28 26  1  0  0  0  0
M  END
