4
 OpenBabel05122313113D

 40 40  0  0  0  0  0  0  0  0999 V2000
    2.0292   -0.6300   -1.3510 C   0  0  0  0  0  0  0  0  0  0  0  0
    2.5218   -1.6036   -1.4317 H   0  0  0  0  0  0  0  0  0  0  0  0
    0.9664   -0.1809   -2.1752 C   0  0  0  0  0  0  0  0  0  0  0  0
    0.5389    1.0849   -1.6909 C   0  0  0  0  0  3  0  0  0  0  0  0
    0.5154   -0.7418   -2.9988 H   0  0  0  0  0  0  0  0  0  0  0  0
   -0.2660    1.6963   -2.1113 H   0  0  0  0  0  0  0  0  0  0  0  0
    1.3792    1.4280   -0.5849 C   0  0  0  0  0  0  0  0  0  0  0  0
    2.3247    0.3822   -0.3780 C   0  0  0  0  0  0  0  0  0  0  0  0
    1.3338    2.3660   -0.0206 H   0  0  0  0  0  0  0  0  0  0  0  0
    3.5326    0.4629    0.5534 C   0  0  0  0  0  0  0  0  0  0  0  0
    3.0931    0.8095    1.9900 C   0  0  0  0  0  0  0  0  0  0  0  0
    3.9735    0.9281    2.6514 H   0  0  0  0  0  0  0  0  0  0  0  0
    2.4425    0.0143    2.4016 H   0  0  0  0  0  0  0  0  0  0  0  0
    2.5423    1.7717    2.0167 H   0  0  0  0  0  0  0  0  0  0  0  0
    4.3082   -0.8786    0.5266 C   0  0  0  0  0  0  0  0  0  0  0  0
    3.6161   -1.6746    0.8716 H   0  0  0  0  0  0  0  0  0  0  0  0
    4.5522   -1.1268   -0.5284 H   0  0  0  0  0  0  0  0  0  0  0  0
    5.6019   -0.9409    1.3418 C   0  0  0  0  0  0  0  0  0  0  0  0
    6.3192   -0.1635    0.9954 H   0  0  0  0  0  0  0  0  0  0  0  0
    5.3976   -0.7085    2.4098 H   0  0  0  0  0  0  0  0  0  0  0  0
    6.2820   -2.3119    1.2576 C   0  0  0  0  0  0  0  0  0  0  0  0
    6.4863   -2.5513    0.1900 H   0  0  0  0  0  0  0  0  0  0  0  0
    5.5687   -3.0917    1.6050 H   0  0  0  0  0  0  0  0  0  0  0  0
    7.5784   -2.3995    2.0628 C   0  0  0  0  0  0  0  0  0  0  0  0
    8.0467   -3.4012    1.9823 H   0  0  0  0  0  0  0  0  0  0  0  0
    7.3977   -2.2010    3.1401 H   0  0  0  0  0  0  0  0  0  0  0  0
    8.3226   -1.6535    1.7125 H   0  0  0  0  0  0  0  0  0  0  0  0
    4.4194    1.6360    0.0297 C   0  0  0  0  0  0  0  0  0  0  0  0
    3.8214    2.5722    0.0838 H   0  0  0  0  0  0  0  0  0  0  0  0
    5.2572    1.7806    0.7461 H   0  0  0  0  0  0  0  0  0  0  0  0
    4.9801    1.4845   -1.3847 C   0  0  0  0  0  0  0  0  0  0  0  0
    4.1520    1.2654   -2.0950 H   0  0  0  0  0  0  0  0  0  0  0  0
    5.6572    0.6032   -1.4316 H   0  0  0  0  0  0  0  0  0  0  0  0
    5.7436    2.7228   -1.8649 C   0  0  0  0  0  0  0  0  0  0  0  0
    5.0647    3.6042   -1.8314 H   0  0  0  0  0  0  0  0  0  0  0  0
    6.5616    2.9502   -1.1450 H   0  0  0  0  0  0  0  0  0  0  0  0
    6.3225    2.5715   -3.2718 C   0  0  0  0  0  0  0  0  0  0  0  0
    6.8655    3.4825   -3.5949 H   0  0  0  0  0  0  0  0  0  0  0  0
    5.5228    2.3761   -4.0167 H   0  0  0  0  0  0  0  0  0  0  0  0
    7.0343    1.7213   -3.3251 H   0  0  0  0  0  0  0  0  0  0  0  0
  1  8  1  0  0  0  0
  2  1  1  0  0  0  0
  3  4  1  0  0  0  0
  3  1  2  0  0  0  0
  4  7  1  0  0  0  0
  5  3  1  0  0  0  0
  6  4  1  0  0  0  0
  7  8  2  0  0  0  0
  7  9  1  0  0  0  0
  8 10  1  0  0  0  0
 10 11  1  0  0  0  0
 11 14  1  0  0  0  0
 11 13  1  0  0  0  0
 11 12  1  0  0  0  0
 15 10  1  0  0  0  0
 15 16  1  0  0  0  0
 15 18  1  0  0  0  0
 17 15  1  0  0  0  0
 18 20  1  0  0  0  0
 19 18  1  0  0  0  0
 21 18  1  0  0  0  0
 21 23  1  0  0  0  0
 21 24  1  0  0  0  0
 22 21  1  0  0  0  0
 24 26  1  0  0  0  0
 25 24  1  0  0  0  0
 27 24  1  0  0  0  0
 28 29  1  0  0  0  0
 28 10  1  0  0  0  0
 28 30  1  0  0  0  0
 31 28  1  0  0  0  0
 32 31  1  0  0  0  0
 33 31  1  0  0  0  0
 34 35  1  0  0  0  0
 34 31  1  0  0  0  0
 34 36  1  0  0  0  0
 37 34  1  0  0  0  0
 38 37  1  0  0  0  0
 39 37  1  0  0  0  0
 40 37  1  0  0  0  0
M  END
