8
 OpenBabel05122313113D

 10  9  0  0  0  0  0  0  0  0999 V2000
    0.4717   -2.2182    2.1604 H   0  0  0  0  0  0  0  0  0  0  0  0
    2.1844   -1.9009    1.5131 H   0  0  0  0  0  0  0  0  0  0  0  0
   -1.8998   -1.3759    1.4795 S   0  0  0  0  0  1  0  0  0  0  0  0
   -1.6842   -2.1302   -0.0962 C   0  0  0  0  0  3  0  0  0  0  0  0
   -2.5552   -2.2104   -0.7681 H   0  0  0  0  0  0  0  0  0  0  0  0
   -0.4892   -2.7645   -0.5328 C   0  0  0  0  0  3  0  0  0  0  0  0
   -0.5329   -3.1913   -1.5510 H   0  0  0  0  0  0  0  0  0  0  0  0
    0.8167   -2.6387    0.0324 C   0  0  0  0  0  3  0  0  0  0  0  0
    1.6403   -2.9964   -0.6137 H   0  0  0  0  0  0  0  0  0  0  0  0
    1.1076   -1.9962    1.2883 C   0  0  0  0  0  3  0  0  0  0  0  0
  4  3  1  0  0  0  0
  5  4  1  0  0  0  0
  6  4  1  0  0  0  0
  6  8  1  0  0  0  0
  7  6  1  0  0  0  0
  8 10  1  0  0  0  0
  9  8  1  0  0  0  0
 10  2  1  0  0  0  0
 10  1  1  0  0  0  0
M  END
