3
 OpenBabel05122313113D

 55 57  0  0  1  0  0  0  0  0999 V2000
   -0.8136    1.9187    0.8478 N   0  0  0  0  0  0  0  0  0  0  0  0
   -2.1715    0.2067    0.6253 N   0  0  0  0  0  0  0  0  0  0  0  0
   -0.8638    0.5969    0.4874 C   0  0  0  0  0  2  0  0  0  0  0  0
   -2.0279    2.3359    1.5890 C   0  0  1  0  0  0  0  0  0  0  0  0
   -2.3179    3.3596    1.2722 H   0  0  0  0  0  0  0  0  0  0  0  0
   -3.0605    1.3062    1.0666 C   0  0  2  0  0  0  0  0  0  0  0  0
   -3.5642    1.7367    0.1697 H   0  0  0  0  0  0  0  0  0  0  0  0
   -1.7735    2.3161    3.0974 C   0  0  0  0  0  0  0  0  0  0  0  0
   -1.4457    1.3089    3.4244 H   0  0  0  0  0  0  0  0  0  0  0  0
   -2.6815    2.6075    3.6609 H   0  0  0  0  0  0  0  0  0  0  0  0
   -0.9719    3.0354    3.3541 H   0  0  0  0  0  0  0  0  0  0  0  0
   -4.1236    0.8515    2.0568 C   0  0  0  0  0  0  0  0  0  0  0  0
   -4.7966    0.1076    1.5888 H   0  0  0  0  0  0  0  0  0  0  0  0
   -4.7409    1.7127    2.3809 H   0  0  0  0  0  0  0  0  0  0  0  0
   -3.6733    0.3792    2.9504 H   0  0  0  0  0  0  0  0  0  0  0  0
    0.3378    2.7597    0.8194 C   0  0  0  0  0  0  0  0  0  0  0  0
    0.4561    3.7164   -0.2210 C   0  0  0  0  0  0  0  0  0  0  0  0
    1.6211    4.5093   -0.2423 C   0  0  0  0  0  0  0  0  0  0  0  0
    1.7506    5.2561   -1.0393 H   0  0  0  0  0  0  0  0  0  0  0  0
    2.6288    4.3579    0.7231 C   0  0  0  0  0  0  0  0  0  0  0  0
    3.5303    4.9876    0.6723 H   0  0  0  0  0  0  0  0  0  0  0  0
    2.4892    3.4086    1.7468 C   0  0  0  0  0  0  0  0  0  0  0  0
    3.2810    3.2774    2.4993 H   0  0  0  0  0  0  0  0  0  0  0  0
    1.3374    2.6128    1.7983 C   0  0  0  0  0  0  0  0  0  0  0  0
    1.2204    1.8223    2.5537 H   0  0  0  0  0  0  0  0  0  0  0  0
   -0.5987    3.8025   -1.3183 C   0  0  0  0  0  0  0  0  0  0  0  0
   -1.5719    3.5407   -0.8510 H   0  0  0  0  0  0  0  0  0  0  0  0
   -0.3327    2.7500   -2.4137 C   0  0  0  0  0  0  0  0  0  0  0  0
    0.6486    2.9319   -2.8993 H   0  0  0  0  0  0  0  0  0  0  0  0
   -1.1142    2.8036   -3.1997 H   0  0  0  0  0  0  0  0  0  0  0  0
   -0.3252    1.7158   -2.0162 H   0  0  0  0  0  0  0  0  0  0  0  0
   -0.7388    5.2054   -1.9221 C   0  0  0  0  0  0  0  0  0  0  0  0
   -0.8917    5.9782   -1.1417 H   0  0  0  0  0  0  0  0  0  0  0  0
   -1.6035    5.2391   -2.6149 H   0  0  0  0  0  0  0  0  0  0  0  0
    0.1562    5.4912   -2.5126 H   0  0  0  0  0  0  0  0  0  0  0  0
   -2.6395   -1.1236    0.3959 C   0  0  0  0  0  0  0  0  0  0  0  0
   -3.4647   -1.4223   -0.7182 C   0  0  0  0  0  0  0  0  0  0  0  0
   -3.9034   -2.7527   -0.8581 C   0  0  0  0  0  0  0  0  0  0  0  0
   -4.5412   -3.0157   -1.7159 H   0  0  0  0  0  0  0  0  0  0  0  0
   -3.5246   -3.7581    0.0434 C   0  0  0  0  0  0  0  0  0  0  0  0
   -3.8779   -4.7894   -0.1082 H   0  0  0  0  0  0  0  0  0  0  0  0
   -2.6910   -3.4484    1.1268 C   0  0  0  0  0  0  0  0  0  0  0  0
   -2.3807   -4.2292    1.8374 H   0  0  0  0  0  0  0  0  0  0  0  0
   -2.2610   -2.1270    1.3086 C   0  0  0  0  0  0  0  0  0  0  0  0
   -1.6071   -1.8508    2.1494 H   0  0  0  0  0  0  0  0  0  0  0  0
   -3.8485   -0.3643   -1.7450 C   0  0  0  0  0  0  0  0  0  0  0  0
   -3.1780    0.5033   -1.5733 H   0  0  0  0  0  0  0  0  0  0  0  0
   -5.3066    0.0947   -1.5557 C   0  0  0  0  0  0  0  0  0  0  0  0
   -6.0078   -0.7481   -1.7295 H   0  0  0  0  0  0  0  0  0  0  0  0
   -5.5628    0.8988   -2.2759 H   0  0  0  0  0  0  0  0  0  0  0  0
   -5.4991    0.4779   -0.5338 H   0  0  0  0  0  0  0  0  0  0  0  0
   -3.6074   -0.8299   -3.1893 C   0  0  0  0  0  0  0  0  0  0  0  0
   -2.5562   -1.1488   -3.3221 H   0  0  0  0  0  0  0  0  0  0  0  0
   -3.8154   -0.0002   -3.8957 H   0  0  0  0  0  0  0  0  0  0  0  0
   -4.2737   -1.6722   -3.4683 H   0  0  0  0  0  0  0  0  0  0  0  0
  1  4  1  0  0  0  0
  2  6  1  0  0  0  0
  3  2  1  0  0  0  0
  3  1  1  0  0  0  0
  4  5  1  6  0  0  0
  4  8  1  0  0  0  0
  6  7  1  6  0  0  0
  6  4  1  0  0  0  0
  6 12  1  0  0  0  0
  8 11  1  0  0  0  0
  8  9  1  0  0  0  0
  8 10  1  0  0  0  0
 12 14  1  0  0  0  0
 12 15  1  0  0  0  0
 13 12  1  0  0  0  0
 16  1  1  0  0  0  0
 16 24  1  0  0  0  0
 17 16  2  0  0  0  0
 18 17  1  0  0  0  0
 18 20  2  0  0  0  0
 19 18  1  0  0  0  0
 20 22  1  0  0  0  0
 21 20  1  0  0  0  0
 22 24  2  0  0  0  0
 22 23  1  0  0  0  0
 24 25  1  0  0  0  0
 26 27  1  0  0  0  0
 26 17  1  0  0  0  0
 28 31  1  0  0  0  0
 28 26  1  0  0  0  0
 29 28  1  0  0  0  0
 30 28  1  0  0  0  0
 32 26  1  0  0  0  0
 32 33  1  0  0  0  0
 34 32  1  0  0  0  0
 35 32  1  0  0  0  0
 36  2  1  0  0  0  0
 36 44  1  0  0  0  0
 37 36  2  0  0  0  0
 38 37  1  0  0  0  0
 38 40  2  0  0  0  0
 39 38  1  0  0  0  0
 40 42  1  0  0  0  0
 41 40  1  0  0  0  0
 42 44  2  0  0  0  0
 42 43  1  0  0  0  0
 44 45  1  0  0  0  0
 46 47  1  0  0  0  0
 46 48  1  0  0  0  0
 46 37  1  0  0  0  0
 48 51  1  0  0  0  0
 49 48  1  0  0  0  0
 50 48  1  0  0  0  0
 52 46  1  0  0  0  0
 53 52  1  0  0  0  0
 54 52  1  0  0  0  0
 55 52  1  0  0  0  0
M  END
