1
 OpenBabel05122313113D

  8  8  0  0  0  0  0  0  0  0999 V2000
   -2.3849   -0.7853    0.0041 C   0  0  0  0  0  3  0  0  0  0  0  0
   -3.1335   -2.3617    0.0041 S   0  0  0  0  0  0  0  0  0  0  0  0
   -4.7509   -1.7305    0.0003 C   0  0  0  0  0  0  0  0  0  0  0  0
   -5.6207   -2.3994   -0.0004 H   0  0  0  0  0  0  0  0  0  0  0  0
   -4.7396   -0.3491   -0.0006 C   0  0  0  0  0  0  0  0  0  0  0  0
   -5.6385    0.2816   -0.0026 H   0  0  0  0  0  0  0  0  0  0  0  0
   -3.4029    0.1607    0.0015 C   0  0  0  0  0  0  0  0  0  0  0  0
   -3.0540    2.0403   -0.0003 Br  0  0  0  0  0  0  0  0  0  0  0  0
  1  2  1  0  0  0  0
  3  2  1  0  0  0  0
  4  3  1  0  0  0  0
  5  3  2  0  0  0  0
  5  7  1  0  0  0  0
  6  5  1  0  0  0  0
  7  1  2  0  0  0  0
  8  7  1  0  0  0  0
M  END
