1
 OpenBabel05122313113D

 37 40  0  0  1  0  0  0  0  0999 V2000
   -1.1784   -0.3667   -1.8413 C   0  0  0  0  0  3  0  0  0  0  0  0
   -2.4213    0.3420   -1.8181 C   0  0  0  0  0  3  0  0  0  0  0  0
   -2.3677    1.2822   -0.7188 C   0  0  0  0  0  0  0  0  0  0  0  0
   -3.2978    2.2572   -0.2432 C   0  0  0  0  0  0  0  0  0  0  0  0
   -2.9584    3.0146    0.8640 C   0  0  0  0  0  0  0  0  0  0  0  0
   -1.7189    2.8202    1.5485 C   0  0  0  0  0  0  0  0  0  0  0  0
   -0.7990    1.8760    1.1271 C   0  0  0  0  0  0  0  0  0  0  0  0
   -1.0978    1.1007   -0.0365 C   0  0  0  0  0  0  0  0  0  0  0  0
   -0.3565    0.0540   -0.7348 C   0  0  2  0  0  3  0  0  0  0  0  0
    1.0329   -0.3912   -0.4731 C   0  0  0  0  0  0  0  0  0  0  0  0
    1.3029   -1.7873   -0.3478 C   0  0  0  0  0  0  0  0  0  0  0  0
    2.5798   -2.2474   -0.0943 C   0  0  0  0  0  0  0  0  0  0  0  0
    3.6629   -1.3400    0.0861 C   0  0  0  0  0  0  0  0  0  0  0  0
    4.9795   -1.8036    0.3732 C   0  0  0  0  0  0  0  0  0  0  0  0
    6.0242   -0.9112    0.5542 C   0  0  0  0  0  0  0  0  0  0  0  0
    5.7841    0.4843    0.4566 C   0  0  0  0  0  0  0  0  0  0  0  0
    4.5142    0.9692    0.1784 C   0  0  0  0  0  0  0  0  0  0  0  0
    3.4148    0.0783   -0.0183 C   0  0  0  0  0  0  0  0  0  0  0  0
    2.0835    0.5316   -0.3380 C   0  0  0  0  0  0  0  0  0  0  0  0
    1.8644    2.0124   -0.5651 C   0  0  0  0  0  0  0  0  0  0  0  0
    2.1591    2.8365    0.2922 O   0  0  0  0  0  0  0  0  0  0  0  0
    1.3809    2.4366   -1.9379 C   0  0  0  0  0  0  0  0  0  0  0  0
   -0.8797   -1.1144   -2.5864 H   0  0  0  0  0  0  0  0  0  0  0  0
   -3.2389    0.2393   -2.5401 H   0  0  0  0  0  0  0  0  0  0  0  0
   -4.2565    2.4009   -0.7625 H   0  0  0  0  0  0  0  0  0  0  0  0
   -3.6580    3.7791    1.2340 H   0  0  0  0  0  0  0  0  0  0  0  0
   -1.4934    3.4363    2.4315 H   0  0  0  0  0  0  0  0  0  0  0  0
    0.1572    1.7403    1.6505 H   0  0  0  0  0  0  0  0  0  0  0  0
    0.4661   -2.4946   -0.4371 H   0  0  0  0  0  0  0  0  0  0  0  0
    2.7712   -3.3278   -0.0035 H   0  0  0  0  0  0  0  0  0  0  0  0
    5.1486   -2.8891    0.4492 H   0  0  0  0  0  0  0  0  0  0  0  0
    7.0369   -1.2803    0.7759 H   0  0  0  0  0  0  0  0  0  0  0  0
    6.6133    1.1917    0.6091 H   0  0  0  0  0  0  0  0  0  0  0  0
    4.3415    2.0521    0.1337 H   0  0  0  0  0  0  0  0  0  0  0  0
    1.0551    3.4924   -1.9078 H   0  0  0  0  0  0  0  0  0  0  0  0
    2.2415    2.3454   -2.6361 H   0  0  0  0  0  0  0  0  0  0  0  0
    0.5785    1.7870   -2.3345 H   0  0  0  0  0  0  0  0  0  0  0  0
  1  2  1  0  0  0  0
  1  9  1  0  0  0  0
  2  3  1  0  0  0  0
  3  4  2  0  0  0  0
  3  8  1  0  0  0  0
  4  5  1  0  0  0  0
  5 26  1  0  0  0  0
  5  6  2  0  0  0  0
  6 27  1  0  0  0  0
  7  6  1  0  0  0  0
  7 28  1  0  0  0  0
  8  7  2  0  0  0  0
  9 10  1  6  0  0  0
  9  8  1  0  0  0  0
 10 11  2  0  0  0  0
 10 19  1  0  0  0  0
 11 12  1  0  0  0  0
 12 30  1  0  0  0  0
 12 13  2  0  0  0  0
 13 14  1  0  0  0  0
 14 31  1  0  0  0  0
 14 15  2  0  0  0  0
 15 32  1  0  0  0  0
 16 15  1  0  0  0  0
 16 33  1  0  0  0  0
 17 16  2  0  0  0  0
 18 13  1  0  0  0  0
 18 17  1  0  0  0  0
 19 18  2  0  0  0  0
 20 19  1  0  0  0  0
 20 21  2  0  0  0  0
 22 35  1  0  0  0  0
 22 20  1  0  0  0  0
 23  1  1  0  0  0  0
 24  2  1  0  0  0  0
 25  4  1  0  0  0  0
 29 11  1  0  0  0  0
 34 17  1  0  0  0  0
 36 22  1  0  0  0  0
 37 22  1  0  0  0  0
M  END
