8
 OpenBabel05122313113D

 66 69  0  0  1  0  0  0  0  0999 V2000
    5.6746    3.0934    0.7831 O   0  0  0  0  0  0  0  0  0  0  0  0
   -7.9299    0.9084   -0.9166 O   0  0  0  0  0  0  0  0  0  0  0  0
   -9.8944    2.3913    0.4479 O   0  0  0  0  0  0  0  0  0  0  0  0
  -11.9551    0.3806    0.6967 O   0  0  0  0  0  0  0  0  0  0  0  0
  -10.7229   -2.2347    0.6658 O   0  0  0  0  0  0  0  0  0  0  0  0
   -8.3839   -1.6342   -0.7814 O   0  0  0  0  0  0  0  0  0  0  0  0
   -3.1708    0.2863   -0.2925 N   0  0  0  0  0  0  0  0  0  0  0  0
    7.0338    0.7086   -1.7359 C   0  0  0  0  0  3  0  0  0  0  0  0
    6.2345    0.3343   -2.3861 H   0  0  0  0  0  0  0  0  0  0  0  0
    8.4283    0.4537   -1.9064 C   0  0  0  0  0  3  0  0  0  0  0  0
    8.8799   -0.1508   -2.7019 H   0  0  0  0  0  0  0  0  0  0  0  0
    9.1412    1.1539   -0.8612 C   0  0  0  0  0  0  0  0  0  0  0  0
   10.2283    1.1634   -0.7201 H   0  0  0  0  0  0  0  0  0  0  0  0
    8.1809    1.8422   -0.0629 C   0  0  0  0  0  0  0  0  0  0  0  0
    8.3709    2.4788    0.8093 H   0  0  0  0  0  0  0  0  0  0  0  0
    6.8638    1.5821   -0.5914 C   0  0  2  0  0  3  0  0  0  0  0  0
    5.6096    2.1366    0.0068 C   0  0  0  0  0  0  0  0  0  0  0  0
    4.3446    1.4592   -0.3482 C   0  0  0  0  0  0  0  0  0  0  0  0
    4.3918    0.5662   -0.9899 H   0  0  0  0  0  0  0  0  0  0  0  0
    3.1555    1.9020    0.1464 C   0  0  0  0  0  0  0  0  0  0  0  0
    3.2030    2.8183    0.7618 H   0  0  0  0  0  0  0  0  0  0  0  0
    1.8441    1.3025   -0.0495 C   0  0  0  0  0  0  0  0  0  0  0  0
    0.6851    2.0265    0.3410 C   0  0  0  0  0  0  0  0  0  0  0  0
    0.8113    3.0248    0.7886 H   0  0  0  0  0  0  0  0  0  0  0  0
   -0.5915    1.5015    0.1602 C   0  0  0  0  0  0  0  0  0  0  0  0
   -1.4934    2.0577    0.4546 H   0  0  0  0  0  0  0  0  0  0  0  0
   -0.7628    0.2176   -0.4122 C   0  0  0  0  0  0  0  0  0  0  0  0
    0.3889   -0.5180   -0.7864 C   0  0  0  0  0  0  0  0  0  0  0  0
    0.2665   -1.5259   -1.2140 H   0  0  0  0  0  0  0  0  0  0  0  0
    1.6661    0.0102   -0.6087 C   0  0  0  0  0  0  0  0  0  0  0  0
    2.5452   -0.5948   -0.8768 H   0  0  0  0  0  0  0  0  0  0  0  0
   -2.0940   -0.3554   -0.6092 C   0  0  0  0  0  0  0  0  0  0  0  0
   -2.1199   -1.3750   -1.0650 H   0  0  0  0  0  0  0  0  0  0  0  0
   -4.4353   -0.2869   -0.4160 C   0  0  0  0  0  0  0  0  0  0  0  0
   -5.5266    0.6068   -0.5889 C   0  0  0  0  0  0  0  0  0  0  0  0
   -5.2974    1.6796   -0.6185 H   0  0  0  0  0  0  0  0  0  0  0  0
   -6.8332    0.1346   -0.7332 C   0  0  0  0  0  0  0  0  0  0  0  0
   -7.0857   -1.2734   -0.6625 C   0  0  0  0  0  0  0  0  0  0  0  0
   -6.0108   -2.1539   -0.4510 C   0  0  0  0  0  0  0  0  0  0  0  0
   -6.1979   -3.2325   -0.3597 H   0  0  0  0  0  0  0  0  0  0  0  0
   -4.6978   -1.6723   -0.3366 C   0  0  0  0  0  0  0  0  0  0  0  0
   -3.8795   -2.3796   -0.1398 H   0  0  0  0  0  0  0  0  0  0  0  0
   -7.8223    2.3070   -0.7051 C   0  0  0  0  0  0  0  0  0  0  0  0
   -7.2265    2.7928   -1.5133 H   0  0  0  0  0  0  0  0  0  0  0  0
   -7.3199    2.5139    0.2673 H   0  0  0  0  0  0  0  0  0  0  0  0
   -9.2253    2.8798   -0.6869 C   0  0  0  0  0  0  0  0  0  0  0  0
   -9.1555    3.9984   -0.6896 H   0  0  0  0  0  0  0  0  0  0  0  0
   -9.7555    2.5788   -1.6240 H   0  0  0  0  0  0  0  0  0  0  0  0
  -11.2807    2.6461    0.4789 C   0  0  0  0  0  0  0  0  0  0  0  0
  -11.7243    2.5662   -0.5432 H   0  0  0  0  0  0  0  0  0  0  0  0
  -11.5015    3.6756    0.8597 H   0  0  0  0  0  0  0  0  0  0  0  0
  -11.9491    1.6166    1.3704 C   0  0  0  0  0  0  0  0  0  0  0  0
  -11.3848    1.5484    2.3333 H   0  0  0  0  0  0  0  0  0  0  0  0
  -12.9879    1.9570    1.6179 H   0  0  0  0  0  0  0  0  0  0  0  0
  -12.3656   -0.7131    1.4814 C   0  0  0  0  0  0  0  0  0  0  0  0
  -13.4535   -0.6488    1.7435 H   0  0  0  0  0  0  0  0  0  0  0  0
  -11.7959   -0.7570    2.4426 H   0  0  0  0  0  0  0  0  0  0  0  0
  -12.1113   -1.9872    0.6982 C   0  0  0  0  0  0  0  0  0  0  0  0
  -12.6687   -2.8372    1.1671 H   0  0  0  0  0  0  0  0  0  0  0  0
  -12.5162   -1.8507   -0.3337 H   0  0  0  0  0  0  0  0  0  0  0  0
  -10.2817   -3.0080   -0.4204 C   0  0  0  0  0  0  0  0  0  0  0  0
  -10.6860   -2.6120   -1.3845 H   0  0  0  0  0  0  0  0  0  0  0  0
  -10.6048   -4.0782   -0.3395 H   0  0  0  0  0  0  0  0  0  0  0  0
   -8.7673   -2.9626   -0.4627 C   0  0  0  0  0  0  0  0  0  0  0  0
   -8.3565   -3.2565    0.5301 H   0  0  0  0  0  0  0  0  0  0  0  0
   -8.3895   -3.6847   -1.2243 H   0  0  0  0  0  0  0  0  0  0  0  0
  2 37  1  0  0  0  0
  2 43  1  0  0  0  0
  3 49  1  0  0  0  0
  4 52  1  0  0  0  0
  4 55  1  0  0  0  0
  5 58  1  0  0  0  0
  6 38  1  0  0  0  0
  6 64  1  0  0  0  0
  8 16  1  0  0  0  0
  9  8  1  0  0  0  0
 10  8  1  0  0  0  0
 10 12  1  0  0  0  0
 11 10  1  0  0  0  0
 12 13  1  0  0  0  0
 12 14  2  0  0  0  0
 14 15  1  0  0  0  0
 16 14  1  0  0  0  0
 16 17  1  1  0  0  0
 17  1  2  0  0  0  0
 18 17  1  0  0  0  0
 18 20  2  0  0  0  0
 19 18  1  0  0  0  0
 20 21  1  0  0  0  0
 22 20  1  0  0  0  0
 22 23  1  0  0  0  0
 23 24  1  0  0  0  0
 25 23  2  0  0  0  0
 25 26  1  0  0  0  0
 27 25  1  0  0  0  0
 28 30  1  0  0  0  0
 28 27  2  0  0  0  0
 29 28  1  0  0  0  0
 30 22  2  0  0  0  0
 31 30  1  0  0  0  0
 32 27  1  0  0  0  0
 32  7  2  0  0  0  0
 33 32  1  0  0  0  0
 34 41  1  0  0  0  0
 34  7  1  0  0  0  0
 35 34  2  0  0  0  0
 36 35  1  0  0  0  0
 37 38  2  0  0  0  0
 37 35  1  0  0  0  0
 38 39  1  0  0  0  0
 39 40  1  0  0  0  0
 39 41  2  0  0  0  0
 41 42  1  0  0  0  0
 43 46  1  0  0  0  0
 43 45  1  0  0  0  0
 44 43  1  0  0  0  0
 46  3  1  0  0  0  0
 47 46  1  0  0  0  0
 48 46  1  0  0  0  0
 49 51  1  0  0  0  0
 49 52  1  0  0  0  0
 50 49  1  0  0  0  0
 52 54  1  0  0  0  0
 52 53  1  0  0  0  0
 55 56  1  0  0  0  0
 55 57  1  0  0  0  0
 58 59  1  0  0  0  0
 58 55  1  0  0  0  0
 60 58  1  0  0  0  0
 61 63  1  0  0  0  0
 61  5  1  0  0  0  0
 62 61  1  0  0  0  0
 64 61  1  0  0  0  0
 64 65  1  0  0  0  0
 66 64  1  0  0  0  0
M  END
