2
 OpenBabel05122313113D

 26 26  0  0  1  0  0  0  0  0999 V2000
    1.7590    1.1488   -0.3976 C   0  0  2  0  0  3  0  0  0  0  0  0
    1.7195    0.7371    0.9709 C   0  0  1  0  0  3  0  0  0  0  0  0
    1.7341   -0.7275    0.9913 C   0  0  1  0  0  3  0  0  0  0  0  0
    1.7842   -1.1700   -0.3603 C   0  0  1  0  0  3  0  0  0  0  0  0
    2.2224   -0.0197   -1.2589 C   0  0  2  0  0  0  0  0  0  0  0  0
    1.6700   -0.0370   -2.2240 H   0  0  0  0  0  0  0  0  0  0  0  0
    1.7925    2.5636   -0.8744 C   0  0  0  0  0  0  0  0  0  0  0  0
    2.8327    2.9583   -0.8548 H   0  0  0  0  0  0  0  0  0  0  0  0
    1.1661    3.2243   -0.2454 H   0  0  0  0  0  0  0  0  0  0  0  0
    1.4240    2.6419   -1.9149 H   0  0  0  0  0  0  0  0  0  0  0  0
    1.7180    1.6206    2.1767 C   0  0  0  0  0  0  0  0  0  0  0  0
    2.7514    1.7201    2.5734 H   0  0  0  0  0  0  0  0  0  0  0  0
    1.0855    1.2142    2.9891 H   0  0  0  0  0  0  0  0  0  0  0  0
    1.3497    2.6340    1.9352 H   0  0  0  0  0  0  0  0  0  0  0  0
    1.7017   -1.5800    2.2199 C   0  0  0  0  0  0  0  0  0  0  0  0
    2.7337   -1.7656    2.5877 H   0  0  0  0  0  0  0  0  0  0  0  0
    1.2362   -2.5632    2.0194 H   0  0  0  0  0  0  0  0  0  0  0  0
    1.1392   -1.0973    3.0418 H   0  0  0  0  0  0  0  0  0  0  0  0
    1.7845   -2.5894   -0.8230 C   0  0  0  0  0  0  0  0  0  0  0  0
    2.8272   -2.9568   -0.9480 H   0  0  0  0  0  0  0  0  0  0  0  0
    1.2887   -2.6891   -1.8095 H   0  0  0  0  0  0  0  0  0  0  0  0
    1.2718   -3.2637   -0.1123 H   0  0  0  0  0  0  0  0  0  0  0  0
    3.7355   -0.0103   -1.5675 C   0  0  0  0  0  0  0  0  0  0  0  0
    4.0067    0.8806   -2.1684 H   0  0  0  0  0  0  0  0  0  0  0  0
    4.0276   -0.9086   -2.1477 H   0  0  0  0  0  0  0  0  0  0  0  0
    4.3266    0.0078   -0.6293 H   0  0  0  0  0  0  0  0  0  0  0  0
  1  7  1  1  0  0  0
  1  2  1  0  0  0  0
  2  3  1  0  0  0  0
  2 11  1  1  0  0  0
  3 15  1  1  0  0  0
  4 19  1  1  0  0  0
  4  3  1  0  0  0  0
  5  6  1  6  0  0  0
  5  1  1  0  0  0  0
  5  4  1  0  0  0  0
  7  8  1  0  0  0  0
  7  9  1  0  0  0  0
 10  7  1  0  0  0  0
 11 12  1  0  0  0  0
 11 13  1  0  0  0  0
 14 11  1  0  0  0  0
 15 16  1  0  0  0  0
 15 18  1  0  0  0  0
 17 15  1  0  0  0  0
 19 22  1  0  0  0  0
 20 19  1  0  0  0  0
 21 19  1  0  0  0  0
 23  5  1  0  0  0  0
 23 26  1  0  0  0  0
 24 23  1  0  0  0  0
 25 23  1  0  0  0  0
M  END
