2
 OpenBabel05122313113D

 47 46  0  0  0  0  0  0  0  0999 V2000
   -1.7477   -0.0231   -0.0197 P   0  0  0  0  0  4  0  0  0  0  0  0
   -0.0470   -0.2175    0.0589 C   0  0  0  0  0  1  0  0  0  0  0  0
   -2.4181   -1.5056   -0.4299 N   0  0  0  0  0  0  0  0  0  0  0  0
   -2.3782    0.4982    1.4627 N   0  0  0  0  0  0  0  0  0  0  0  0
   -2.1678    1.1594   -1.1382 N   0  0  0  0  0  0  0  0  0  0  0  0
   -1.6853   -2.7700   -0.2021 C   0  0  0  0  0  0  0  0  0  0  0  0
   -2.4031   -3.5041    0.2272 H   0  0  0  0  0  0  0  0  0  0  0  0
   -0.9135   -2.5924    0.5722 H   0  0  0  0  0  0  0  0  0  0  0  0
   -1.0170   -3.3111   -1.4617 C   0  0  0  0  0  0  0  0  0  0  0  0
   -0.4758   -4.2491   -1.2285 H   0  0  0  0  0  0  0  0  0  0  0  0
   -0.2715   -2.5865   -1.8473 H   0  0  0  0  0  0  0  0  0  0  0  0
   -1.7533   -3.5316   -2.2624 H   0  0  0  0  0  0  0  0  0  0  0  0
   -3.7297   -1.5918   -1.0805 C   0  0  0  0  0  0  0  0  0  0  0  0
   -3.6752   -2.4116   -1.8278 H   0  0  0  0  0  0  0  0  0  0  0  0
   -3.8943   -0.6666   -1.6679 H   0  0  0  0  0  0  0  0  0  0  0  0
   -4.9046   -1.8211   -0.1281 C   0  0  0  0  0  0  0  0  0  0  0  0
   -5.8453   -1.9500   -0.7007 H   0  0  0  0  0  0  0  0  0  0  0  0
   -5.0388   -0.9626    0.5600 H   0  0  0  0  0  0  0  0  0  0  0  0
   -4.7588   -2.7332    0.4856 H   0  0  0  0  0  0  0  0  0  0  0  0
   -1.8462    1.7771    1.9751 C   0  0  0  0  0  0  0  0  0  0  0  0
   -1.4900    2.3572    1.1022 H   0  0  0  0  0  0  0  0  0  0  0  0
   -0.9450    1.5898    2.5997 H   0  0  0  0  0  0  0  0  0  0  0  0
   -2.8849    2.5813    2.7502 C   0  0  0  0  0  0  0  0  0  0  0  0
   -2.4515    3.5513    3.0654 H   0  0  0  0  0  0  0  0  0  0  0  0
   -3.2182    2.0570    3.6681 H   0  0  0  0  0  0  0  0  0  0  0  0
   -3.7806    2.7888    2.1300 H   0  0  0  0  0  0  0  0  0  0  0  0
   -2.7404   -0.5137    2.4728 C   0  0  0  0  0  0  0  0  0  0  0  0
   -3.0534   -1.4197    1.9210 H   0  0  0  0  0  0  0  0  0  0  0  0
   -3.6493   -0.1525    3.0023 H   0  0  0  0  0  0  0  0  0  0  0  0
   -1.6370   -0.8612    3.4710 C   0  0  0  0  0  0  0  0  0  0  0  0
   -1.9584   -1.7147    4.1007 H   0  0  0  0  0  0  0  0  0  0  0  0
   -1.4060   -0.0194    4.1538 H   0  0  0  0  0  0  0  0  0  0  0  0
   -0.6896   -1.1361    2.9613 H   0  0  0  0  0  0  0  0  0  0  0  0
   -3.4160    1.9268   -1.0786 C   0  0  0  0  0  0  0  0  0  0  0  0
   -3.9464    1.6212   -0.1544 H   0  0  0  0  0  0  0  0  0  0  0  0
   -4.0764    1.6399   -1.9300 H   0  0  0  0  0  0  0  0  0  0  0  0
   -3.2065    3.4413   -1.0821 C   0  0  0  0  0  0  0  0  0  0  0  0
   -4.1845    3.9594   -1.0215 H   0  0  0  0  0  0  0  0  0  0  0  0
   -2.7063    3.7894   -2.0076 H   0  0  0  0  0  0  0  0  0  0  0  0
   -2.5902    3.7663   -0.2205 H   0  0  0  0  0  0  0  0  0  0  0  0
   -1.3687    1.1965   -2.3782 C   0  0  0  0  0  0  0  0  0  0  0  0
   -0.3545    0.8025   -2.1481 H   0  0  0  0  0  0  0  0  0  0  0  0
   -1.2282    2.2614   -2.6605 H   0  0  0  0  0  0  0  0  0  0  0  0
   -1.9502    0.3971   -3.5433 C   0  0  0  0  0  0  0  0  0  0  0  0
   -1.3054    0.5190   -4.4360 H   0  0  0  0  0  0  0  0  0  0  0  0
   -2.9730    0.7269   -3.8190 H   0  0  0  0  0  0  0  0  0  0  0  0
   -1.9781   -0.6840   -3.3031 H   0  0  0  0  0  0  0  0  0  0  0  0
  1  2  1  0  0  0  0
  1  4  1  0  0  0  0
  3  6  1  0  0  0  0
  3  1  1  0  0  0  0
  4 20  1  0  0  0  0
  4 27  1  0  0  0  0
  5 34  1  0  0  0  0
  5  1  1  0  0  0  0
  6  7  1  0  0  0  0
  6  8  1  0  0  0  0
  9 10  1  0  0  0  0
  9  6  1  0  0  0  0
 11  9  1  0  0  0  0
 12  9  1  0  0  0  0
 13  3  1  0  0  0  0
 13 16  1  0  0  0  0
 14 13  1  0  0  0  0
 15 13  1  0  0  0  0
 16 19  1  0  0  0  0
 16 18  1  0  0  0  0
 17 16  1  0  0  0  0
 20 22  1  0  0  0  0
 20 23  1  0  0  0  0
 21 20  1  0  0  0  0
 23 24  1  0  0  0  0
 23 25  1  0  0  0  0
 26 23  1  0  0  0  0
 27 29  1  0  0  0  0
 27 30  1  0  0  0  0
 28 27  1  0  0  0  0
 30 31  1  0  0  0  0
 30 32  1  0  0  0  0
 33 30  1  0  0  0  0
 34 35  1  0  0  0  0
 36 34  1  0  0  0  0
 37 34  1  0  0  0  0
 37 38  1  0  0  0  0
 37 40  1  0  0  0  0
 39 37  1  0  0  0  0
 41 42  1  0  0  0  0
 41  5  1  0  0  0  0
 43 41  1  0  0  0  0
 44 47  1  0  0  0  0
 44 41  1  0  0  0  0
 45 44  1  0  0  0  0
 46 44  1  0  0  0  0
M  END
