17
 OpenBabel05122313113D

 27 28  0  0  1  0  0  0  0  0999 V2000
    2.8285    0.2649    1.1358 C   0  0  0  0  0  0  0  0  0  0  0  0
    1.7946    1.2113    1.4889 C   0  0  0  0  0  0  0  0  0  0  0  0
    1.7396    2.2542    1.1520 H   0  0  0  0  0  0  0  0  0  0  0  0
    0.8968    0.5935    2.4019 C   0  0  0  0  0  0  0  0  0  0  0  0
   -0.0028    1.0528    2.8266 H   0  0  0  0  0  0  0  0  0  0  0  0
    1.2960   -0.7518    2.5632 C   0  0  0  0  0  0  0  0  0  0  0  0
    0.7688   -1.5221    3.1372 H   0  0  0  0  0  0  0  0  0  0  0  0
    2.4863   -0.9516    1.7918 C   0  0  0  0  0  3  0  0  0  0  0  0
    3.0094   -1.9087    1.6840 H   0  0  0  0  0  0  0  0  0  0  0  0
    2.3068    0.1372   -1.5223 C   0  0  1  0  0  3  0  0  0  0  0  0
    1.7665   -1.1278   -1.8984 C   0  0  0  0  0  3  0  0  0  0  0  0
    2.3088   -2.0802   -1.9080 H   0  0  0  0  0  0  0  0  0  0  0  0
    0.3741   -0.9762   -2.1840 C   0  0  0  0  0  0  0  0  0  0  0  0
   -0.3175   -1.7809   -2.4585 H   0  0  0  0  0  0  0  0  0  0  0  0
    0.0393    0.3868   -2.0019 C   0  0  0  0  0  0  0  0  0  0  0  0
   -0.9606    0.8233   -2.1171 H   0  0  0  0  0  0  0  0  0  0  0  0
    1.2047    1.0681   -1.5556 C   0  0  0  0  0  3  0  0  0  0  0  0
    1.2580    2.1365   -1.3120 H   0  0  0  0  0  0  0  0  0  0  0  0
    3.8355    0.4004   -0.4487 Si  0  0  0  0  0  0  0  0  0  0  0  0
    5.0626   -1.0121   -0.6250 C   0  0  0  0  0  0  0  0  0  0  0  0
    5.5267   -1.0097   -1.6320 H   0  0  0  0  0  0  0  0  0  0  0  0
    4.5629   -1.9909   -0.4800 H   0  0  0  0  0  0  0  0  0  0  0  0
    5.8729   -0.9269    0.1271 H   0  0  0  0  0  0  0  0  0  0  0  0
    4.6052    2.0998   -0.6887 C   0  0  0  0  0  0  0  0  0  0  0  0
    5.4014    2.2803    0.0619 H   0  0  0  0  0  0  0  0  0  0  0  0
    3.8484    2.9026   -0.5804 H   0  0  0  0  0  0  0  0  0  0  0  0
    5.0541    2.1900   -1.6987 H   0  0  0  0  0  0  0  0  0  0  0  0
  1  2  2  0  0  0  0
  1  8  1  0  0  0  0
  2  4  1  0  0  0  0
  3  2  1  0  0  0  0
  4  6  2  0  0  0  0
  4  5  1  0  0  0  0
  6  7  1  0  0  0  0
  8  6  1  0  0  0  0
  9  8  1  0  0  0  0
 10 19  1  1  0  0  0
 11 10  1  0  0  0  0
 12 11  1  0  0  0  0
 13 15  2  0  0  0  0
 13 11  1  0  0  0  0
 14 13  1  0  0  0  0
 15 17  1  0  0  0  0
 16 15  1  0  0  0  0
 17 10  1  0  0  0  0
 17 18  1  0  0  0  0
 19  1  1  0  0  0  0
 20 22  1  0  0  0  0
 20 19  1  0  0  0  0
 20 23  1  0  0  0  0
 21 20  1  0  0  0  0
 24 26  1  0  0  0  0
 24 19  1  0  0  0  0
 24 25  1  0  0  0  0
 27 24  1  0  0  0  0
M  END
