4
 OpenBabel05122313113D

 45 46  0  0  1  0  0  0  0  0999 V2000
    1.5735    0.0806   -1.5379 C   0  0  0  0  0  3  0  0  0  0  0  0
    1.9049   -0.1140   -2.5711 H   0  0  0  0  0  0  0  0  0  0  0  0
    2.6383    0.3075   -0.5984 C   0  0  1  0  0  3  0  0  0  0  0  0
    2.2278    0.2494    0.7672 C   0  0  0  0  0  3  0  0  0  0  0  0
    2.9305    0.3030    1.6090 H   0  0  0  0  0  0  0  0  0  0  0  0
    0.8038    0.0580    0.9348 C   0  0  0  0  0  3  0  0  0  0  0  0
    0.4849   -0.1204    1.9742 H   0  0  0  0  0  0  0  0  0  0  0  0
   -0.1814    0.8880    0.1102 C   0  0  1  0  0  0  0  0  0  0  0  0
    0.2678    0.8314   -1.3851 C   0  0  0  0  0  0  0  0  0  0  0  0
   -0.5095    0.3235   -1.9875 H   0  0  0  0  0  0  0  0  0  0  0  0
    0.3881    1.8558   -1.7978 H   0  0  0  0  0  0  0  0  0  0  0  0
   -1.6268    0.3922    0.2576 C   0  0  0  0  0  0  0  0  0  0  0  0
   -2.6366    1.0160   -0.5169 C   0  0  0  0  0  0  0  0  0  0  0  0
   -2.3589    1.8224   -1.2097 H   0  0  0  0  0  0  0  0  0  0  0  0
   -3.9782    0.6263   -0.4342 C   0  0  0  0  0  0  0  0  0  0  0  0
   -4.3494   -0.4302    0.4546 C   0  0  0  0  0  0  0  0  0  0  0  0
   -3.3522   -1.0493    1.2171 C   0  0  0  0  0  0  0  0  0  0  0  0
   -3.6107   -1.8720    1.8968 H   0  0  0  0  0  0  0  0  0  0  0  0
   -2.0062   -0.6418    1.1201 C   0  0  0  0  0  0  0  0  0  0  0  0
   -1.2569   -1.1765    1.7172 H   0  0  0  0  0  0  0  0  0  0  0  0
    4.9575    0.2240   -0.1152 C   0  0  0  0  0  0  0  0  0  0  0  0
    4.9855    1.0142    0.6671 H   0  0  0  0  0  0  0  0  0  0  0  0
    5.9007    0.2531   -0.6903 H   0  0  0  0  0  0  0  0  0  0  0  0
    4.8504   -0.7697    0.3734 H   0  0  0  0  0  0  0  0  0  0  0  0
   -4.6863    2.2134   -2.0544 C   0  0  0  0  0  0  0  0  0  0  0  0
   -4.2452    3.0983   -1.5408 H   0  0  0  0  0  0  0  0  0  0  0  0
   -5.6398    2.5123   -2.5280 H   0  0  0  0  0  0  0  0  0  0  0  0
   -3.9787    1.8774   -2.8464 H   0  0  0  0  0  0  0  0  0  0  0  0
   -6.0839   -1.7975    1.3235 C   0  0  0  0  0  0  0  0  0  0  0  0
   -5.5961   -2.7635    1.0599 H   0  0  0  0  0  0  0  0  0  0  0  0
   -7.1770   -1.8982    1.1893 H   0  0  0  0  0  0  0  0  0  0  0  0
   -5.8696   -1.5746    2.3936 H   0  0  0  0  0  0  0  0  0  0  0  0
   -0.1565    2.3606    0.6688 C   0  0  0  0  0  0  0  0  0  0  0  0
   -0.9252    2.9553    0.1380 H   0  0  0  0  0  0  0  0  0  0  0  0
   -0.4184    2.3356    1.7433 H   0  0  0  0  0  0  0  0  0  0  0  0
    1.1636    3.0685    0.4736 C   0  0  0  0  0  0  0  0  0  0  0  0
    3.1707    3.7419    1.4996 C   0  0  0  0  0  0  0  0  0  0  0  0
    3.7833    3.1906    0.7567 H   0  0  0  0  0  0  0  0  0  0  0  0
    3.6344    3.6960    2.5012 H   0  0  0  0  0  0  0  0  0  0  0  0
    3.0892    4.7935    1.1583 H   0  0  0  0  0  0  0  0  0  0  0  0
    3.9068    0.4439   -1.0473 O   0  0  0  0  0  0  0  0  0  0  0  0
   -4.9966    1.1759   -1.1481 O   0  0  0  0  0  0  0  0  0  0  0  0
   -5.6704   -0.7483    0.4725 O   0  0  0  0  0  0  0  0  0  0  0  0
    1.8766    3.1428    1.6296 O   0  0  0  0  0  0  0  0  0  0  0  0
    1.5764    3.5155   -0.5835 O   0  0  0  0  0  0  0  0  0  0  0  0
  1  9  1  0  0  0  0
  1  3  1  0  0  0  0
  2  1  1  0  0  0  0
  3 41  1  1  0  0  0
  3  4  1  0  0  0  0
  4  6  1  0  0  0  0
  4  5  1  0  0  0  0
  6  7  1  0  0  0  0
  8 12  1  0  0  0  0
  8 33  1  1  0  0  0
  8  6  1  0  0  0  0
  9  8  1  0  0  0  0
 10  9  1  0  0  0  0
 11  9  1  0  0  0  0
 12 19  1  0  0  0  0
 13 15  1  0  0  0  0
 13 12  2  0  0  0  0
 14 13  1  0  0  0  0
 15 16  2  0  0  0  0
 16 43  1  0  0  0  0
 16 17  1  0  0  0  0
 17 18  1  0  0  0  0
 19 17  2  0  0  0  0
 19 20  1  0  0  0  0
 21 24  1  0  0  0  0
 21 22  1  0  0  0  0
 23 21  1  0  0  0  0
 25 26  1  0  0  0  0
 25 42  1  0  0  0  0
 27 25  1  0  0  0  0
 28 25  1  0  0  0  0
 29 32  1  0  0  0  0
 30 29  1  0  0  0  0
 31 29  1  0  0  0  0
 33 35  1  0  0  0  0
 34 33  1  0  0  0  0
 36 33  1  0  0  0  0
 36 44  1  0  0  0  0
 37 44  1  0  0  0  0
 37 39  1  0  0  0  0
 38 37  1  0  0  0  0
 40 37  1  0  0  0  0
 41 21  1  0  0  0  0
 42 15  1  0  0  0  0
 43 29  1  0  0  0  0
 45 36  2  0  0  0  0
M  END
