3
 OpenBabel05122313113D

 47 50  0  0  1  0  0  0  0  0999 V2000
    0.9592    0.1129    0.6219 P   0  0  0  0  0  0  0  0  0  0  0  0
   -1.9780   -1.1242    1.4554 C   0  0  1  0  0  3  0  0  0  0  0  0
   -2.1589   -2.3997    0.8139 C   0  0  0  0  0  3  0  0  0  0  0  0
   -2.6582   -2.2066   -0.5124 C   0  0  0  0  0  3  0  0  0  0  0  0
   -2.9700   -0.7876   -0.6616 C   0  0  0  0  0  0  0  0  0  0  0  0
   -2.5727   -0.1153    0.5624 C   0  0  0  0  0  0  0  0  0  0  0  0
   -3.5612   -0.0522   -1.7216 C   0  0  0  0  0  0  0  0  0  0  0  0
   -3.7949    1.3071   -1.5347 C   0  0  0  0  0  0  0  0  0  0  0  0
   -3.4410    1.9584   -0.3217 C   0  0  0  0  0  0  0  0  0  0  0  0
   -2.8244    1.2706    0.7194 C   0  0  0  0  0  0  0  0  0  0  0  0
   -1.5190   -0.9076    2.8695 C   0  0  0  0  0  0  0  0  0  0  0  0
   -0.4499    0.1791    3.1028 C   0  0  0  0  0  0  0  0  0  0  0  0
    0.9161   -0.0870    2.4576 C   0  0  0  0  0  0  0  0  0  0  0  0
    0.6655    1.8860    0.2784 C   0  0  0  0  0  0  0  0  0  0  0  0
   -0.1077    2.2706   -0.8355 C   0  0  0  0  0  0  0  0  0  0  0  0
   -0.2815    3.6300   -1.1364 C   0  0  0  0  0  0  0  0  0  0  0  0
    0.3013    4.6108   -0.3202 C   0  0  0  0  0  0  0  0  0  0  0  0
    1.0680    4.2325    0.7953 C   0  0  0  0  0  0  0  0  0  0  0  0
    1.2578    2.8764    1.0925 C   0  0  0  0  0  0  0  0  0  0  0  0
    2.6893   -0.1832    0.1178 C   0  0  0  0  0  0  0  0  0  0  0  0
    3.5383   -1.0493    0.8392 C   0  0  0  0  0  0  0  0  0  0  0  0
    4.8412   -1.2946    0.3800 C   0  0  0  0  0  0  0  0  0  0  0  0
    5.3009   -0.6882   -0.7991 C   0  0  0  0  0  0  0  0  0  0  0  0
    4.4569    0.1714   -1.5211 C   0  0  0  0  0  0  0  0  0  0  0  0
    3.1558    0.4260   -1.0676 C   0  0  0  0  0  0  0  0  0  0  0  0
   -1.8943   -3.3666    1.2604 H   0  0  0  0  0  0  0  0  0  0  0  0
   -2.9055   -2.9977   -1.2305 H   0  0  0  0  0  0  0  0  0  0  0  0
   -3.8586   -0.5588   -2.6513 H   0  0  0  0  0  0  0  0  0  0  0  0
   -4.2795    1.8882   -2.3332 H   0  0  0  0  0  0  0  0  0  0  0  0
   -3.6599    3.0299   -0.2054 H   0  0  0  0  0  0  0  0  0  0  0  0
   -2.5595    1.7912    1.6495 H   0  0  0  0  0  0  0  0  0  0  0  0
   -1.1515   -1.8737    3.2739 H   0  0  0  0  0  0  0  0  0  0  0  0
   -2.4121   -0.6454    3.4781 H   0  0  0  0  0  0  0  0  0  0  0  0
   -0.2925    0.2586    4.1974 H   0  0  0  0  0  0  0  0  0  0  0  0
   -0.8213    1.1750    2.7842 H   0  0  0  0  0  0  0  0  0  0  0  0
    1.2555   -1.1211    2.6755 H   0  0  0  0  0  0  0  0  0  0  0  0
    1.6852    0.5923    2.8782 H   0  0  0  0  0  0  0  0  0  0  0  0
   -0.5840    1.5044   -1.4659 H   0  0  0  0  0  0  0  0  0  0  0  0
   -0.8810    3.9217   -2.0114 H   0  0  0  0  0  0  0  0  0  0  0  0
    0.1613    5.6767   -0.5539 H   0  0  0  0  0  0  0  0  0  0  0  0
    1.5311    4.9999    1.4331 H   0  0  0  0  0  0  0  0  0  0  0  0
    1.8841    2.5968    1.9531 H   0  0  0  0  0  0  0  0  0  0  0  0
    3.1967   -1.5375    1.7631 H   0  0  0  0  0  0  0  0  0  0  0  0
    5.5010   -1.9647    0.9508 H   0  0  0  0  0  0  0  0  0  0  0  0
    6.3231   -0.8838   -1.1556 H   0  0  0  0  0  0  0  0  0  0  0  0
    4.8157    0.6531   -2.4426 H   0  0  0  0  0  0  0  0  0  0  0  0
    2.5055    1.1123   -1.6314 H   0  0  0  0  0  0  0  0  0  0  0  0
  1 13  1  0  0  0  0
  2 11  1  1  0  0  0
  3 26  1  0  0  0  0
  3  2  1  0  0  0  0
  4  3  1  0  0  0  0
  5  4  1  0  0  0  0
  5  6  1  0  0  0  0
  6 10  2  0  0  0  0
  6  2  1  0  0  0  0
  7  8  1  0  0  0  0
  7  5  2  0  0  0  0
  8  9  2  0  0  0  0
  9 30  1  0  0  0  0
  9 10  1  0  0  0  0
 10 31  1  0  0  0  0
 11 12  1  0  0  0  0
 11 32  1  0  0  0  0
 11 33  1  0  0  0  0
 12 34  1  0  0  0  0
 13 36  1  0  0  0  0
 13 37  1  0  0  0  0
 13 12  1  0  0  0  0
 14  1  1  0  0  0  0
 14 19  1  0  0  0  0
 15 14  2  0  0  0  0
 16 15  1  0  0  0  0
 16 17  2  0  0  0  0
 17 18  1  0  0  0  0
 18 19  2  0  0  0  0
 18 41  1  0  0  0  0
 19 42  1  0  0  0  0
 20  1  1  0  0  0  0
 20 21  1  0  0  0  0
 21 43  1  0  0  0  0
 22 21  2  0  0  0  0
 22 44  1  0  0  0  0
 23 22  1  0  0  0  0
 24 25  1  0  0  0  0
 24 23  2  0  0  0  0
 25 20  2  0  0  0  0
 27  4  1  0  0  0  0
 28  7  1  0  0  0  0
 29  8  1  0  0  0  0
 35 12  1  0  0  0  0
 38 15  1  0  0  0  0
 39 16  1  0  0  0  0
 40 17  1  0  0  0  0
 45 23  1  0  0  0  0
 46 24  1  0  0  0  0
 47 25  1  0  0  0  0
M  END
