3
 OpenBabel05122313113D

 17 17  0  0  0  0  0  0  0  0999 V2000
    0.3275    0.3012   -2.0259 O   0  0  0  0  0  0  0  0  0  0  0  0
    5.6562    3.0352   -0.1030 O   0  0  0  0  0  0  0  0  0  0  0  0
    0.5054    0.7573   -0.8949 C   0  0  0  0  0  3  0  0  0  0  0  0
    1.8261    1.4104   -0.6136 C   0  0  0  0  0  0  0  0  0  0  0  0
    2.0754    2.2817    0.4638 C   0  0  0  0  0  0  0  0  0  0  0  0
    3.3359    2.8587    0.6633 C   0  0  0  0  0  0  0  0  0  0  0  0
    4.3951    2.5489   -0.2162 C   0  0  0  0  0  0  0  0  0  0  0  0
    4.1623    1.6746   -1.3047 C   0  0  0  0  0  0  0  0  0  0  0  0
    2.8973    1.1324   -1.5026 C   0  0  0  0  0  0  0  0  0  0  0  0
    5.9489    3.9177    0.9662 C   0  0  0  0  0  0  0  0  0  0  0  0
    1.2649    2.5336    1.1607 H   0  0  0  0  0  0  0  0  0  0  0  0
    3.4836    3.5448    1.5075 H   0  0  0  0  0  0  0  0  0  0  0  0
    5.0007    1.4495   -1.9801 H   0  0  0  0  0  0  0  0  0  0  0  0
    2.6966    0.4688   -2.3570 H   0  0  0  0  0  0  0  0  0  0  0  0
    7.0176    4.1833    0.8681 H   0  0  0  0  0  0  0  0  0  0  0  0
    5.7837    3.4368    1.9559 H   0  0  0  0  0  0  0  0  0  0  0  0
    5.3384    4.8465    0.9141 H   0  0  0  0  0  0  0  0  0  0  0  0
  1  3  2  0  0  0  0
  2 10  1  0  0  0  0
  3  4  1  0  0  0  0
  4  5  1  0  0  0  0
  5  6  2  0  0  0  0
  5 11  1  0  0  0  0
  6 12  1  0  0  0  0
  7  2  1  0  0  0  0
  7  6  1  0  0  0  0
  8  7  2  0  0  0  0
  9  8  1  0  0  0  0
  9  4  2  0  0  0  0
 10 16  1  0  0  0  0
 13  8  1  0  0  0  0
 14  9  1  0  0  0  0
 15 10  1  0  0  0  0
 17 10  1  0  0  0  0
M  END
