3
 OpenBabel05122313113D

 42 43  0  0  0  0  0  0  0  0999 V2000
   -0.3897   -2.8843    0.2883 N   0  0  0  0  0  0  0  0  0  0  0  0
   -0.8370   -1.7849   -0.3551 C   0  0  0  0  0  3  0  0  0  0  0  0
   -2.0672   -1.1127   -0.1492 C   0  0  0  0  0  3  0  0  0  0  0  0
   -2.3903    0.0624   -0.9097 C   0  0  0  0  0  3  0  0  0  0  0  0
   -3.7233    0.6964   -0.9090 C   0  0  0  0  0  0  0  0  0  0  0  0
   -4.7701    0.3247   -0.0330 C   0  0  0  0  0  0  0  0  0  0  0  0
   -6.0113    0.9727   -0.0769 C   0  0  0  0  0  0  0  0  0  0  0  0
   -6.2408    2.0096   -0.9959 C   0  0  0  0  0  0  0  0  0  0  0  0
   -5.2128    2.3903   -1.8739 C   0  0  0  0  0  0  0  0  0  0  0  0
   -3.9735    1.7407   -1.8308 C   0  0  0  0  0  0  0  0  0  0  0  0
   -1.0488   -3.3661    1.5000 C   0  0  0  0  0  0  0  0  0  0  0  0
   -2.1182   -4.4238    1.2258 C   0  0  0  0  0  0  0  0  0  0  0  0
    0.9473   -3.4261   -0.0333 C   0  0  0  0  0  0  0  0  0  0  0  0
    2.0760   -2.5965    0.6064 C   0  0  0  0  0  0  0  0  0  0  0  0
    3.4544   -3.2031    0.3181 C   0  0  0  0  0  0  0  0  0  0  0  0
    3.6814   -3.3868   -1.1872 C   0  0  0  0  0  0  0  0  0  0  0  0
    2.5561   -4.2174   -1.8177 C   0  0  0  0  0  0  0  0  0  0  0  0
    1.1810   -3.5931   -1.5431 C   0  0  0  0  0  0  0  0  0  0  0  0
   -0.2549   -1.4755   -1.2325 H   0  0  0  0  0  0  0  0  0  0  0  0
   -2.8080   -1.5416    0.5419 H   0  0  0  0  0  0  0  0  0  0  0  0
   -1.7952    0.2292   -1.8218 H   0  0  0  0  0  0  0  0  0  0  0  0
   -4.6173   -0.4797    0.7018 H   0  0  0  0  0  0  0  0  0  0  0  0
   -6.8091    0.6646    0.6163 H   0  0  0  0  0  0  0  0  0  0  0  0
   -7.2160    2.5185   -1.0267 H   0  0  0  0  0  0  0  0  0  0  0  0
   -5.3784    3.2016   -2.5992 H   0  0  0  0  0  0  0  0  0  0  0  0
   -3.1678    2.0457   -2.5168 H   0  0  0  0  0  0  0  0  0  0  0  0
   -1.4818   -2.4921    2.0328 H   0  0  0  0  0  0  0  0  0  0  0  0
   -0.2655   -3.7747    2.1714 H   0  0  0  0  0  0  0  0  0  0  0  0
   -1.6812   -5.3121    0.7264 H   0  0  0  0  0  0  0  0  0  0  0  0
   -2.5877   -4.7587    2.1725 H   0  0  0  0  0  0  0  0  0  0  0  0
   -2.9162   -4.0251    0.5683 H   0  0  0  0  0  0  0  0  0  0  0  0
    0.9648   -4.4447    0.4138 H   0  0  0  0  0  0  0  0  0  0  0  0
    1.9069   -2.4985    1.6979 H   0  0  0  0  0  0  0  0  0  0  0  0
    2.0296   -1.5664    0.1918 H   0  0  0  0  0  0  0  0  0  0  0  0
    4.2449   -2.5608    0.7582 H   0  0  0  0  0  0  0  0  0  0  0  0
    3.5364   -4.1915    0.8248 H   0  0  0  0  0  0  0  0  0  0  0  0
    3.7135   -2.3859   -1.6737 H   0  0  0  0  0  0  0  0  0  0  0  0
    4.6666   -3.8610   -1.3776 H   0  0  0  0  0  0  0  0  0  0  0  0
    2.7089   -4.3182   -2.9120 H   0  0  0  0  0  0  0  0  0  0  0  0
    2.5838   -5.2503   -1.4025 H   0  0  0  0  0  0  0  0  0  0  0  0
    0.3645   -4.2044   -1.9808 H   0  0  0  0  0  0  0  0  0  0  0  0
    1.1431   -2.5996   -2.0398 H   0  0  0  0  0  0  0  0  0  0  0  0
  1 11  1  0  0  0  0
  2  3  1  0  0  0  0
  2  1  1  0  0  0  0
  3 20  1  0  0  0  0
  4  5  1  0  0  0  0
  4  3  1  0  0  0  0
  5  6  1  0  0  0  0
  6 22  1  0  0  0  0
  7  6  2  0  0  0  0
  7 23  1  0  0  0  0
  8  7  1  0  0  0  0
  9 10  1  0  0  0  0
  9  8  2  0  0  0  0
 10  5  2  0  0  0  0
 11 27  1  0  0  0  0
 11 28  1  0  0  0  0
 12 11  1  0  0  0  0
 12 30  1  0  0  0  0
 13  1  1  0  0  0  0
 13 32  1  0  0  0  0
 13 14  1  0  0  0  0
 14 33  1  0  0  0  0
 15 14  1  0  0  0  0
 15 35  1  0  0  0  0
 15 36  1  0  0  0  0
 16 15  1  0  0  0  0
 17 18  1  0  0  0  0
 17 40  1  0  0  0  0
 17 16  1  0  0  0  0
 18 13  1  0  0  0  0
 19  2  1  0  0  0  0
 21  4  1  0  0  0  0
 24  8  1  0  0  0  0
 25  9  1  0  0  0  0
 26 10  1  0  0  0  0
 29 12  1  0  0  0  0
 31 12  1  0  0  0  0
 34 14  1  0  0  0  0
 37 16  1  0  0  0  0
 38 16  1  0  0  0  0
 39 17  1  0  0  0  0
 41 18  1  0  0  0  0
 42 18  1  0  0  0  0
M  END
