21
 OpenBabel05122313113D

 26 28  0  0  0  0  0  0  0  0999 V2000
   -1.0711    0.2003   -0.3011 C   0  0  0  0  0  0  0  0  0  0  0  0
   -0.6863   -0.7925   -0.5591 H   0  0  0  0  0  0  0  0  0  0  0  0
   -0.1946    1.3032   -0.1777 C   0  0  0  0  0  0  0  0  0  0  0  0
   -0.7407    2.5880    0.1320 C   0  0  0  0  0  0  0  0  0  0  0  0
   -0.0510    3.4366    0.2287 H   0  0  0  0  0  0  0  0  0  0  0  0
   -2.1070    2.7920    0.3405 C   0  0  0  0  0  0  0  0  0  0  0  0
   -2.5136    3.7785    0.6024 H   0  0  0  0  0  0  0  0  0  0  0  0
   -2.9412    1.6787    0.2004 C   0  0  0  0  0  0  0  0  0  0  0  0
   -4.3004    1.6760    0.3505 O   0  0  0  0  0  0  0  0  0  0  0  0
   -4.7156    0.3776    0.1189 C   0  0  0  0  0  0  0  0  0  0  0  0
   -6.0368   -0.0673    0.1703 C   0  0  0  0  0  0  0  0  0  0  0  0
   -6.8606    0.6193    0.4090 H   0  0  0  0  0  0  0  0  0  0  0  0
   -6.2497   -1.4296   -0.0975 C   0  0  0  0  0  0  0  0  0  0  0  0
   -7.2752   -1.8270   -0.0687 H   0  0  0  0  0  0  0  0  0  0  0  0
   -5.1778   -2.2980   -0.4016 C   0  0  0  0  0  0  0  0  0  0  0  0
   -5.3860   -3.3587   -0.6051 H   0  0  0  0  0  0  0  0  0  0  0  0
   -3.8567   -1.8311   -0.4476 C   0  0  0  0  0  0  0  0  0  0  0  0
   -3.0250   -2.5110   -0.6846 H   0  0  0  0  0  0  0  0  0  0  0  0
   -3.6193   -0.4701   -0.1835 C   0  0  0  0  0  0  0  0  0  0  0  0
   -2.4467    0.3874   -0.1260 C   0  0  0  0  0  0  0  0  0  0  0  0
    1.2743    1.1576   -0.3650 C   0  0  0  0  0  2  0  0  0  0  0  0
    1.7205    2.3437   -0.7674 O   0  0  0  0  0  0  0  0  0  0  0  0
    3.0919    2.6559   -1.0130 C   0  0  0  0  0  0  0  0  0  0  0  0
    3.1262    3.7525   -1.1479 H   0  0  0  0  0  0  0  0  0  0  0  0
    3.4380    2.1571   -1.9374 H   0  0  0  0  0  0  0  0  0  0  0  0
    3.7337    2.3577   -0.1639 H   0  0  0  0  0  0  0  0  0  0  0  0
  1  3  2  0  0  0  0
  1 20  1  0  0  0  0
  2  1  1  0  0  0  0
  3  4  1  0  0  0  0
  4  5  1  0  0  0  0
  4  6  2  0  0  0  0
  6  7  1  0  0  0  0
  8  6  1  0  0  0  0
  8  9  1  0  0  0  0
 10 11  1  0  0  0  0
 10  9  1  0  0  0  0
 11 12  1  0  0  0  0
 13 14  1  0  0  0  0
 13 11  2  0  0  0  0
 15 13  1  0  0  0  0
 16 15  1  0  0  0  0
 17 15  2  0  0  0  0
 17 19  1  0  0  0  0
 18 17  1  0  0  0  0
 19 20  1  0  0  0  0
 19 10  2  0  0  0  0
 20  8  2  0  0  0  0
 21  3  1  0  0  0  0
 22 21  1  0  0  0  0
 23 22  1  0  0  0  0
 23 26  1  0  0  0  0
 24 23  1  0  0  0  0
 25 23  1  0  0  0  0
M  END
