1
 OpenBabel05122313113D

 54 55  0  0  1  0  0  0  0  0999 V2000
    0.5930   -0.1526   -0.7313 C   0  0  0  0  0  3  0  0  0  0  0  0
    1.5956   -1.1753   -0.7954 C   0  0  1  0  0  3  0  0  0  0  0  0
    2.8087   -0.5034   -0.9564 C   0  0  1  0  0  3  0  0  0  0  0  0
    3.7382    0.4912   -1.1152 C   0  0  1  0  0  3  0  0  0  0  0  0
    2.4912    1.0319   -0.9788 C   0  0  1  0  0  3  0  0  0  0  0  0
    1.1113    1.1788   -0.8328 C   0  0  0  0  0  0  0  0  0  0  0  0
    1.3809   -2.6610   -0.6761 C   0  0  0  0  0  0  0  0  0  0  0  0
    1.4641   -3.2631    0.7622 C   0  0  0  0  0  0  0  0  0  0  0  0
    2.8498   -2.9945    1.3726 C   0  0  0  0  0  0  0  0  0  0  0  0
    0.3841   -2.6561    1.6737 C   0  0  0  0  0  0  0  0  0  0  0  0
    1.2389   -4.7812    0.6480 C   0  0  0  0  0  0  0  0  0  0  0  0
    5.1832    0.8089   -1.2696 C   0  0  0  0  0  0  0  0  0  0  0  0
    6.0273    0.6269    0.0305 C   0  0  0  0  0  0  0  0  0  0  0  0
    6.0941   -0.8623    0.4097 C   0  0  0  0  0  0  0  0  0  0  0  0
    7.4450    1.1489   -0.2616 C   0  0  0  0  0  0  0  0  0  0  0  0
    5.4047    1.4347    1.1829 C   0  0  0  0  0  0  0  0  0  0  0  0
    0.3239    2.4587   -0.7388 C   0  0  0  0  0  0  0  0  0  0  0  0
    0.2679    3.1259    0.6722 C   0  0  0  0  0  0  0  0  0  0  0  0
   -0.2992    2.1468    1.7153 C   0  0  0  0  0  0  0  0  0  0  0  0
    1.6750    3.5786    1.0969 C   0  0  0  0  0  0  0  0  0  0  0  0
   -0.6659    4.3453    0.5707 C   0  0  0  0  0  0  0  0  0  0  0  0
    0.3852   -2.9221   -1.0976 H   0  0  0  0  0  0  0  0  0  0  0  0
    2.1285   -3.1843   -1.3076 H   0  0  0  0  0  0  0  0  0  0  0  0
    2.9348   -3.4640    2.3742 H   0  0  0  0  0  0  0  0  0  0  0  0
    3.6582   -3.4073    0.7344 H   0  0  0  0  0  0  0  0  0  0  0  0
    3.0329   -1.9077    1.4914 H   0  0  0  0  0  0  0  0  0  0  0  0
    0.4327   -3.0987    2.6897 H   0  0  0  0  0  0  0  0  0  0  0  0
    0.5116   -1.5592    1.7819 H   0  0  0  0  0  0  0  0  0  0  0  0
   -0.6368   -2.8528    1.2804 H   0  0  0  0  0  0  0  0  0  0  0  0
    2.0102   -5.2532    0.0049 H   0  0  0  0  0  0  0  0  0  0  0  0
    1.2848   -5.2672    1.6441 H   0  0  0  0  0  0  0  0  0  0  0  0
    0.2460   -5.0079    0.2069 H   0  0  0  0  0  0  0  0  0  0  0  0
    5.6060    0.1578   -2.0636 H   0  0  0  0  0  0  0  0  0  0  0  0
    5.2624    1.8596   -1.6142 H   0  0  0  0  0  0  0  0  0  0  0  0
    6.5667   -1.4605   -0.3967 H   0  0  0  0  0  0  0  0  0  0  0  0
    6.6959   -1.0016    1.3309 H   0  0  0  0  0  0  0  0  0  0  0  0
    5.0862   -1.2812    0.5963 H   0  0  0  0  0  0  0  0  0  0  0  0
    8.0988    1.0182    0.6247 H   0  0  0  0  0  0  0  0  0  0  0  0
    7.9093    0.6019   -1.1079 H   0  0  0  0  0  0  0  0  0  0  0  0
    7.4334    2.2282   -0.5183 H   0  0  0  0  0  0  0  0  0  0  0  0
    6.0381    1.3655    2.0905 H   0  0  0  0  0  0  0  0  0  0  0  0
    5.3047    2.5078    0.9191 H   0  0  0  0  0  0  0  0  0  0  0  0
    4.3959    1.0575    1.4471 H   0  0  0  0  0  0  0  0  0  0  0  0
    0.7404    3.1998   -1.4526 H   0  0  0  0  0  0  0  0  0  0  0  0
   -0.7227    2.2712   -1.0634 H   0  0  0  0  0  0  0  0  0  0  0  0
    0.3389    1.2447    1.8182 H   0  0  0  0  0  0  0  0  0  0  0  0
   -0.3568    2.6306    2.7118 H   0  0  0  0  0  0  0  0  0  0  0  0
   -1.3284    1.8286    1.4439 H   0  0  0  0  0  0  0  0  0  0  0  0
    2.3742    2.7206    1.1683 H   0  0  0  0  0  0  0  0  0  0  0  0
    2.1009    4.3004    0.3688 H   0  0  0  0  0  0  0  0  0  0  0  0
    1.6447    4.0754    2.0885 H   0  0  0  0  0  0  0  0  0  0  0  0
   -0.7261    4.8804    1.5408 H   0  0  0  0  0  0  0  0  0  0  0  0
   -0.3031    5.0663   -0.1912 H   0  0  0  0  0  0  0  0  0  0  0  0
   -1.6929    4.0335    0.2898 H   0  0  0  0  0  0  0  0  0  0  0  0
  2  1  1  0  0  0  0
  2  7  1  1  0  0  0
  3  2  1  0  0  0  0
  4  5  1  0  0  0  0
  4  3  1  0  0  0  0
  5  3  1  0  0  0  0
  5  6  1  0  0  0  0
  6 17  1  0  0  0  0
  6  1  2  0  0  0  0
  7  8  1  0  0  0  0
  8  9  1  0  0  0  0
  8 10  1  0  0  0  0
  9 26  1  0  0  0  0
  9 24  1  0  0  0  0
 10 28  1  0  0  0  0
 10 27  1  0  0  0  0
 11  8  1  0  0  0  0
 11 31  1  0  0  0  0
 12  4  1  0  0  0  0
 12 13  1  0  0  0  0
 13 14  1  0  0  0  0
 13 16  1  0  0  0  0
 14 37  1  0  0  0  0
 14 36  1  0  0  0  0
 15 13  1  0  0  0  0
 15 38  1  0  0  0  0
 16 43  1  0  0  0  0
 16 41  1  0  0  0  0
 17 18  1  0  0  0  0
 18 20  1  0  0  0  0
 18 19  1  0  0  0  0
 19 46  1  0  0  0  0
 19 47  1  0  0  0  0
 20 49  1  0  0  0  0
 20 51  1  0  0  0  0
 21 18  1  0  0  0  0
 21 52  1  0  0  0  0
 22  7  1  0  0  0  0
 23  7  1  0  0  0  0
 25  9  1  0  0  0  0
 29 10  1  0  0  0  0
 30 11  1  0  0  0  0
 32 11  1  0  0  0  0
 33 12  1  0  0  0  0
 34 12  1  0  0  0  0
 35 14  1  0  0  0  0
 39 15  1  0  0  0  0
 40 15  1  0  0  0  0
 42 16  1  0  0  0  0
 44 17  1  0  0  0  0
 45 17  1  0  0  0  0
 48 19  1  0  0  0  0
 50 20  1  0  0  0  0
 53 21  1  0  0  0  0
 54 21  1  0  0  0  0
M  END
