1
 OpenBabel05122313113D

 21 20  0  0  0  0  0  0  0  0999 V2000
   -1.5339    0.5465    0.0003 C   0  0  0  0  0  1  0  0  0  0  0  0
    0.9542    0.9709    0.0010 C   0  0  0  0  0  0  0  0  0  0  0  0
    1.7537   -0.1465    0.0018 C   0  0  0  0  0  0  0  0  0  0  0  0
    3.1591   -0.1324    0.0022 C   0  0  0  0  0  0  0  0  0  0  0  0
    4.3968   -0.1297    0.0023 C   0  0  0  0  0  0  0  0  0  0  0  0
    6.8447    0.0809    1.7820 C   0  0  0  0  0  0  0  0  0  0  0  0
    6.4752    1.0297    2.2201 H   0  0  0  0  0  0  0  0  0  0  0  0
    7.9538    0.0920    1.8198 H   0  0  0  0  0  0  0  0  0  0  0  0
    6.4861   -0.7543    2.4164 H   0  0  0  0  0  0  0  0  0  0  0  0
    6.8177    1.3352   -1.0644 C   0  0  0  0  0  0  0  0  0  0  0  0
    6.4520    1.2324   -2.1057 H   0  0  0  0  0  0  0  0  0  0  0  0
    7.9260    1.3844   -1.0902 H   0  0  0  0  0  0  0  0  0  0  0  0
    6.4396    2.2951   -0.6592 H   0  0  0  0  0  0  0  0  0  0  0  0
    6.8339   -1.7624   -0.7251 C   0  0  0  0  0  0  0  0  0  0  0  0
    6.4685   -2.6158   -0.1194 H   0  0  0  0  0  0  0  0  0  0  0  0
    7.9427   -1.8028   -0.7441 H   0  0  0  0  0  0  0  0  0  0  0  0
    6.4656   -1.8929   -1.7623 H   0  0  0  0  0  0  0  0  0  0  0  0
    1.4986    2.1929    0.0006 F   0  0  0  0  0  0  0  0  0  0  0  0
    1.1254   -1.3429    0.0023 F   0  0  0  0  0  0  0  0  0  0  0  0
   -0.3906    0.9201    0.0005 N   0  0  0  0  0  2  0  0  0  0  0  0
    6.2546   -0.1188   -0.0003 Si  0  0  0  0  0  0  0  0  0  0  0  0
  1 20  1  0  0  0  0
  2  3  2  0  0  0  0
  3  4  1  0  0  0  0
  3 19  1  0  0  0  0
  4  5  3  0  0  0  0
  6  8  1  0  0  0  0
  6  7  1  0  0  0  0
  6  9  1  0  0  0  0
 10 13  1  0  0  0  0
 10 21  1  0  0  0  0
 11 10  1  0  0  0  0
 12 10  1  0  0  0  0
 14 15  1  0  0  0  0
 14 21  1  0  0  0  0
 16 14  1  0  0  0  0
 17 14  1  0  0  0  0
 18  2  1  0  0  0  0
 20  2  1  0  0  0  0
 21  5  1  0  0  0  0
 21  6  1  0  0  0  0
M  END
