1
 OpenBabel05122313113D

 22 22  0  0  0  0  0  0  0  0999 V2000
   -1.7509   -0.9918   -0.1970 C   0  0  0  0  0  2  0  0  0  0  0  0
   -3.3410   -2.6082   -0.1093 C   0  0  0  0  0  0  0  0  0  0  0  0
   -3.7450   -3.6088    0.0706 H   0  0  0  0  0  0  0  0  0  0  0  0
   -3.9445   -1.4617   -0.5575 C   0  0  0  0  0  0  0  0  0  0  0  0
   -4.9802   -1.2520   -0.8392 H   0  0  0  0  0  0  0  0  0  0  0  0
   -3.1607    0.8962   -1.0274 C   0  0  0  0  0  0  0  0  0  0  0  0
   -2.1471    1.3500   -1.0402 H   0  0  0  0  0  0  0  0  0  0  0  0
   -3.5602    0.9057   -2.0630 H   0  0  0  0  0  0  0  0  0  0  0  0
   -4.0605    1.6428   -0.0836 C   0  0  0  0  0  0  0  0  0  0  0  0
   -3.6964    1.6845    0.9585 H   0  0  0  0  0  0  0  0  0  0  0  0
   -5.2057    2.2405   -0.4522 C   0  0  0  0  0  0  0  0  0  0  0  0
   -5.5654    2.2045   -1.4951 H   0  0  0  0  0  0  0  0  0  0  0  0
   -5.8207    2.7999    0.2697 H   0  0  0  0  0  0  0  0  0  0  0  0
   -0.9867   -3.2175    0.6173 C   0  0  0  0  0  0  0  0  0  0  0  0
   -1.3187   -4.2467    0.3736 H   0  0  0  0  0  0  0  0  0  0  0  0
   -0.0609   -3.0183    0.0394 H   0  0  0  0  0  0  0  0  0  0  0  0
   -0.7555   -3.0405    2.1153 C   0  0  0  0  0  0  0  0  0  0  0  0
   -1.6740   -3.2586    2.6966 H   0  0  0  0  0  0  0  0  0  0  0  0
    0.0446   -3.7258    2.4600 H   0  0  0  0  0  0  0  0  0  0  0  0
   -0.4499   -1.9972    2.3357 H   0  0  0  0  0  0  0  0  0  0  0  0
   -2.9511   -0.4914   -0.6091 N   0  0  0  0  0  0  0  0  0  0  0  0
   -2.0021   -2.2996    0.0966 N   0  0  0  0  0  0  0  0  0  0  0  0
  1 22  1  0  0  0  0
  2  3  1  0  0  0  0
  2 22  1  0  0  0  0
  4  2  2  0  0  0  0
  5  4  1  0  0  0  0
  6 21  1  0  0  0  0
  6  9  1  0  0  0  0
  7  6  1  0  0  0  0
  8  6  1  0  0  0  0
  9 10  1  0  0  0  0
 11  9  2  0  0  0  0
 11 13  1  0  0  0  0
 12 11  1  0  0  0  0
 14 17  1  0  0  0  0
 15 14  1  0  0  0  0
 16 14  1  0  0  0  0
 17 20  1  0  0  0  0
 17 19  1  0  0  0  0
 17 18  1  0  0  0  0
 21  4  1  0  0  0  0
 21  1  1  0  0  0  0
 22 14  1  0  0  0  0
M  END
