3
 OpenBabel05122313113D

 23 23  0  0  0  0  0  0  0  0999 V2000
    2.9345   -0.7887    0.7382 N   0  0  0  0  0  0  0  0  0  0  0  0
    2.9347    0.7870   -0.7385 N   0  0  0  0  0  0  0  0  0  0  0  0
    2.1035   -0.0008   -0.0002 C   0  0  0  0  0  2  0  0  0  0  0  0
    2.0886   -3.1004    0.8888 C   0  0  0  0  0  0  0  0  0  0  0  0
    1.4145   -2.9543    0.0238 H   0  0  0  0  0  0  0  0  0  0  0  0
    4.2667    0.5051   -0.4630 C   0  0  0  0  0  0  0  0  0  0  0  0
    5.0906    1.0429   -0.9406 H   0  0  0  0  0  0  0  0  0  0  0  0
    2.4451   -1.8413    1.6330 C   0  0  0  0  0  0  0  0  0  0  0  0
    3.2159   -2.0290    2.4062 H   0  0  0  0  0  0  0  0  0  0  0  0
    1.5509   -1.4145    2.1382 H   0  0  0  0  0  0  0  0  0  0  0  0
    2.4456    1.8399   -1.6332 C   0  0  0  0  0  0  0  0  0  0  0  0
    3.2162    2.0270   -2.4067 H   0  0  0  0  0  0  0  0  0  0  0  0
    1.5509    1.4136   -2.1379 H   0  0  0  0  0  0  0  0  0  0  0  0
    2.0902    3.0992   -0.8888 C   0  0  0  0  0  0  0  0  0  0  0  0
    1.4161    2.9537   -0.0238 H   0  0  0  0  0  0  0  0  0  0  0  0
    4.2666   -0.5070    0.4629 C   0  0  0  0  0  0  0  0  0  0  0  0
    5.0903   -1.0450    0.9406 H   0  0  0  0  0  0  0  0  0  0  0  0
    2.5181   -4.3269    1.2270 C   0  0  0  0  0  0  0  0  0  0  0  0
    3.1956   -4.4876    2.0832 H   0  0  0  0  0  0  0  0  0  0  0  0
    2.2004   -5.2194    0.6662 H   0  0  0  0  0  0  0  0  0  0  0  0
    2.5206    4.3254   -1.2271 C   0  0  0  0  0  0  0  0  0  0  0  0
    3.1982    4.4855   -2.0833 H   0  0  0  0  0  0  0  0  0  0  0  0
    2.2038    5.2181   -0.6661 H   0  0  0  0  0  0  0  0  0  0  0  0
  1  8  1  0  0  0  0
  2  6  1  0  0  0  0
  2  3  1  0  0  0  0
  3  1  1  0  0  0  0
  4 18  2  0  0  0  0
  4  8  1  0  0  0  0
  5  4  1  0  0  0  0
  6 16  2  0  0  0  0
  7  6  1  0  0  0  0
  8 10  1  0  0  0  0
  8  9  1  0  0  0  0
 11 14  1  0  0  0  0
 11  2  1  0  0  0  0
 12 11  1  0  0  0  0
 13 11  1  0  0  0  0
 14 15  1  0  0  0  0
 16  1  1  0  0  0  0
 16 17  1  0  0  0  0
 18 19  1  0  0  0  0
 20 18  1  0  0  0  0
 21 14  2  0  0  0  0
 21 23  1  0  0  0  0
 22 21  1  0  0  0  0
M  END
