6
 OpenBabel05122313113D

 14 14  0  0  0  0  0  0  0  0999 V2000
    0.8140   -0.9120    1.6735 C   0  0  0  0  0  3  0  0  0  0  0  0
    2.3057   -1.0620    1.9000 C   0  0  0  0  0  0  0  0  0  0  0  0
    3.1386   -1.0431    0.6069 C   0  0  0  0  0  0  0  0  0  0  0  0
    2.4390   -1.5310   -0.6680 C   0  0  0  0  0  0  0  0  0  0  0  0
    0.9526   -1.5564   -0.6725 C   0  0  0  0  0  3  0  0  0  0  0  0
    0.2124   -1.5663    0.5544 C   0  0  0  0  0  3  0  0  0  0  0  0
    3.0892   -1.8557   -1.6561 O   0  0  0  0  0  0  0  0  0  0  0  0
    0.1994   -0.8410    2.5875 H   0  0  0  0  0  0  0  0  0  0  0  0
    2.4473   -2.0374    2.4196 H   0  0  0  0  0  0  0  0  0  0  0  0
    2.6729   -0.2896    2.6060 H   0  0  0  0  0  0  0  0  0  0  0  0
    4.0683   -1.6370    0.7089 H   0  0  0  0  0  0  0  0  0  0  0  0
    3.4745   -0.0081    0.3832 H   0  0  0  0  0  0  0  0  0  0  0  0
    0.5037   -1.9885   -1.5812 H   0  0  0  0  0  0  0  0  0  0  0  0
   -0.7970   -2.0073    0.6075 H   0  0  0  0  0  0  0  0  0  0  0  0
  1  2  1  0  0  0  0
  1  8  1  0  0  0  0
  2  9  1  0  0  0  0
  2 10  1  0  0  0  0
  3 11  1  0  0  0  0
  3  2  1  0  0  0  0
  4  3  1  0  0  0  0
  5  4  1  0  0  0  0
  5  6  1  0  0  0  0
  6 14  1  0  0  0  0
  6  1  1  0  0  0  0
  7  4  2  0  0  0  0
 12  3  1  0  0  0  0
 13  5  1  0  0  0  0
M  END
