13
 OpenBabel05122313113D

 15 14  0  0  0  0  0  0  0  0999 V2000
    1.1051    1.8846    1.4926 S   0  0  0  0  0  0  0  0  0  0  0  0
    0.1189    2.3359   -1.2870 S   0  0  0  0  0  0  0  0  0  0  0  0
    0.9051    4.5653    1.1294 F   0  0  0  0  0  0  0  0  0  0  0  0
   -0.5973    3.7082    2.4630 F   0  0  0  0  0  0  0  0  0  0  0  0
    1.4710    3.9070    3.1292 F   0  0  0  0  0  0  0  0  0  0  0  0
   -2.5184    2.7671   -1.6089 F   0  0  0  0  0  0  0  0  0  0  0  0
   -1.2334    4.3593   -2.3613 F   0  0  0  0  0  0  0  0  0  0  0  0
   -1.5659    4.1534   -0.2149 F   0  0  0  0  0  0  0  0  0  0  0  0
    2.5687    1.9419    1.1819 O   0  0  0  0  0  0  0  0  0  0  0  0
    0.7111    1.0492    2.6744 O   0  0  0  0  0  0  0  0  0  0  0  0
   -0.1754    1.3975   -2.4267 O   0  0  0  0  0  0  0  0  0  0  0  0
    1.2425    3.3016   -1.4001 O   0  0  0  0  0  0  0  0  0  0  0  0
    0.0278    1.4869    0.2016 C   0  0  0  0  0  0  0  0  0  0  0  0
    0.6882    3.6487    2.0720 C   0  0  0  0  0  0  0  0  0  0  0  0
   -1.4043    3.4781   -1.3645 C   0  0  0  0  0  0  0  0  0  0  0  0
  1 14  1  0  0  0  0
  1 10  2  0  0  0  0
  2 13  1  0  0  0  0
  3 14  1  0  0  0  0
  6 15  1  0  0  0  0
  7 15  1  0  0  0  0
  9  1  2  0  0  0  0
 11  2  2  0  0  0  0
 12  2  2  0  0  0  0
 13  1  1  0  0  0  0
 14  4  1  0  0  0  0
 14  5  1  0  0  0  0
 15  2  1  0  0  0  0
 15  8  1  0  0  0  0
M  END
