6
 OpenBabel05122313113D

 21 22  0  0  0  0  0  0  0  0999 V2000
    1.8573    3.2211   -0.0000 Cl  0  0  0  0  0  0  0  0  0  0  0  0
    4.7622    2.0748    0.0000 Cl  0  0  0  0  0  0  0  0  0  0  0  0
    2.8921   -3.0314    0.0001 Cl  0  0  0  0  0  0  0  0  0  0  0  0
    5.2745   -1.0072    0.0001 Cl  0  0  0  0  0  0  0  0  0  0  0  0
    3.4194    0.9904   -0.0000 C   0  0  0  0  0  0  0  0  0  0  0  0
   -0.9774   -0.4625   -0.0001 C   0  0  0  0  0  2  0  0  0  0  0  0
   -0.3530    0.7549   -0.0001 N   0  0  0  0  0  0  0  0  0  0  0  0
    0.0090   -1.4098   -0.0000 N   0  0  0  0  0  0  0  0  0  0  0  0
    3.6535   -0.4142    0.0000 C   0  0  0  0  0  0  0  0  0  0  0  0
    1.2676   -0.8083   -0.0000 C   0  0  0  0  0  0  0  0  0  0  0  0
   -0.2824   -2.8390    0.0000 C   0  0  0  0  0  0  0  0  0  0  0  0
   -1.3838   -2.9388   -0.0001 H   0  0  0  0  0  0  0  0  0  0  0  0
    0.1367   -3.3239    0.9011 H   0  0  0  0  0  0  0  0  0  0  0  0
    0.1370   -3.3240   -0.9009 H   0  0  0  0  0  0  0  0  0  0  0  0
    1.0327    0.5935   -0.0000 C   0  0  0  0  0  0  0  0  0  0  0  0
    2.1063    1.5079   -0.0000 C   0  0  0  0  0  0  0  0  0  0  0  0
    2.5779   -1.3270   -0.0000 C   0  0  0  0  0  0  0  0  0  0  0  0
   -1.0933    2.0192   -0.0000 C   0  0  0  0  0  0  0  0  0  0  0  0
   -2.1799    1.7891   -0.0001 H   0  0  0  0  0  0  0  0  0  0  0  0
   -0.8401    2.6085   -0.9005 H   0  0  0  0  0  0  0  0  0  0  0  0
   -0.8401    2.6084    0.9004 H   0  0  0  0  0  0  0  0  0  0  0  0
  5  9  1  0  0  0  0
  5  2  1  0  0  0  0
  6  7  1  0  0  0  0
  6  8  1  0  0  0  0
  7 15  1  0  0  0  0
  7 18  1  0  0  0  0
  8 10  1  0  0  0  0
  8 11  1  0  0  0  0
  9  4  1  0  0  0  0
 10 17  1  0  0  0  0
 11 13  1  0  0  0  0
 12 11  1  0  0  0  0
 14 11  1  0  0  0  0
 15 16  1  0  0  0  0
 15 10  2  0  0  0  0
 16  1  1  0  0  0  0
 16  5  2  0  0  0  0
 17  9  2  0  0  0  0
 17  3  1  0  0  0  0
 18 21  1  0  0  0  0
 19 18  1  0  0  0  0
 20 18  1  0  0  0  0
M  END
