10
 OpenBabel05122313113D

 36 39  0  0  1  0  0  0  0  0999 V2000
    0.7661   -2.0842    1.4517 C   0  0  0  0  0  0  0  0  0  0  0  0
   -0.1595   -1.4427    1.9556 C   0  0  0  0  0  0  0  0  0  0  0  0
   -1.2712   -0.7197    2.4674 C   0  0  0  0  0  0  0  0  0  0  0  0
   -1.2717    0.7169    2.4678 C   0  0  0  0  0  0  0  0  0  0  0  0
   -0.1604    1.4409    1.9565 C   0  0  0  0  0  0  0  0  0  0  0  0
    0.7648    2.0832    1.4530 C   0  0  0  0  0  0  0  0  0  0  0  0
    1.8243    2.7420    0.7720 C   0  0  1  0  0  3  0  0  0  0  0  0
    2.5811    2.0157   -0.2127 C   0  0  0  0  0  0  0  0  0  0  0  0
    2.2668    0.6341   -0.4319 C   0  0  0  0  0  0  0  0  0  0  0  0
    2.2670   -0.6328   -0.4323 C   0  0  0  0  0  3  0  0  0  0  0  0
    2.5824   -2.0143   -0.2139 C   0  0  0  0  0  0  0  0  0  0  0  0
    1.8261   -2.7417    0.7703 C   0  0  0  0  0  0  0  0  0  0  0  0
   -2.4152   -1.4067    2.9338 C   0  0  0  0  0  0  0  0  0  0  0  0
   -3.5359   -0.7049    3.3877 C   0  0  0  0  0  0  0  0  0  0  0  0
   -3.5363    0.7002    3.3881 C   0  0  0  0  0  0  0  0  0  0  0  0
   -2.4160    1.4029    2.9347 C   0  0  0  0  0  0  0  0  0  0  0  0
    2.1502    4.0949    1.0161 C   0  0  0  0  0  0  0  0  0  0  0  0
    3.1827    4.7217    0.3073 C   0  0  0  0  0  0  0  0  0  0  0  0
    3.9141    4.0104   -0.6595 C   0  0  0  0  0  0  0  0  0  0  0  0
    3.6146    2.6669   -0.9185 C   0  0  0  0  0  0  0  0  0  0  0  0
    3.6165   -2.6642   -0.9199 C   0  0  0  0  0  0  0  0  0  0  0  0
    3.9170   -4.0077   -0.6617 C   0  0  0  0  0  0  0  0  0  0  0  0
    3.1861   -4.7200    0.3046 C   0  0  0  0  0  0  0  0  0  0  0  0
    2.1530   -4.0945    1.0137 C   0  0  0  0  0  0  0  0  0  0  0  0
   -2.4117   -2.5055    2.9157 H   0  0  0  0  0  0  0  0  0  0  0  0
   -4.4214   -1.2579    3.7342 H   0  0  0  0  0  0  0  0  0  0  0  0
   -4.4221    1.2523    3.7351 H   0  0  0  0  0  0  0  0  0  0  0  0
   -2.4132    2.5017    2.9173 H   0  0  0  0  0  0  0  0  0  0  0  0
    1.5739    4.6482    1.7710 H   0  0  0  0  0  0  0  0  0  0  0  0
    3.4170    5.7776    0.5085 H   0  0  0  0  0  0  0  0  0  0  0  0
    4.7233    4.5058   -1.2161 H   0  0  0  0  0  0  0  0  0  0  0  0
    4.1788    2.1026   -1.6747 H   0  0  0  0  0  0  0  0  0  0  0  0
    4.1803   -2.0990   -1.6758 H   0  0  0  0  0  0  0  0  0  0  0  0
    4.7267   -4.5021   -1.2186 H   0  0  0  0  0  0  0  0  0  0  0  0
    3.4212   -5.7759    0.5052 H   0  0  0  0  0  0  0  0  0  0  0  0
    1.5771   -4.6487    1.7682 H   0  0  0  0  0  0  0  0  0  0  0  0
  1  2  3  0  0  0  0
  2  3  1  0  0  0  0
  3  4  2  0  0  0  0
  3 13  1  0  0  0  0
  4 16  1  0  0  0  0
  5  4  1  0  0  0  0
  6  5  3  0  0  0  0
  7 17  1  0  0  0  0
  7  6  1  6  0  0  0
  8  7  1  0  0  0  0
  9  8  2  0  0  0  0
 10  9  2  0  0  0  0
 10 11  1  0  0  0  0
 11 12  1  0  0  0  0
 12 24  2  0  0  0  0
 12  1  1  0  0  0  0
 13 14  2  0  0  0  0
 14 15  1  0  0  0  0
 14 26  1  0  0  0  0
 15 27  1  0  0  0  0
 16 15  2  0  0  0  0
 17 29  1  0  0  0  0
 18 30  1  0  0  0  0
 18 17  2  0  0  0  0
 19 18  1  0  0  0  0
 20 19  2  0  0  0  0
 20  8  1  0  0  0  0
 21 22  1  0  0  0  0
 21 11  2  0  0  0  0
 22 23  2  0  0  0  0
 23 35  1  0  0  0  0
 23 24  1  0  0  0  0
 24 36  1  0  0  0  0
 25 13  1  0  0  0  0
 28 16  1  0  0  0  0
 31 19  1  0  0  0  0
 32 20  1  0  0  0  0
 33 21  1  0  0  0  0
 34 22  1  0  0  0  0
M  END
