2
 OpenBabel05122313113D

 21 23  0  0  0  0  0  0  0  0999 V2000
   -0.9381   -1.0837   -1.7216 C   0  0  0  0  0  3  0  0  0  0  0  0
   -1.6885    0.0947   -2.0375 C   0  0  0  0  0  3  0  0  0  0  0  0
   -0.9557    1.2482   -1.6097 C   0  0  0  0  0  3  0  0  0  0  0  0
    1.4522    1.5023   -0.5849 C   0  0  0  0  0  0  0  0  0  0  0  0
    3.8338    1.1774    0.3807 C   0  0  0  0  0  0  0  0  0  0  0  0
    4.6021    0.0873    0.6503 C   0  0  0  0  0  0  0  0  0  0  0  0
    3.8768   -1.1875    0.2966 C   0  0  0  0  0  0  0  0  0  0  0  0
    1.4698   -1.4010   -0.7113 C   0  0  0  0  0  0  0  0  0  0  0  0
    0.3219    0.7946   -1.0961 C   0  0  0  0  0  0  0  0  0  0  0  0
    2.5464    0.7564   -0.1724 C   0  0  0  0  0  0  0  0  0  0  0  0
    2.5513   -0.6921   -0.2370 C   0  0  0  0  0  0  0  0  0  0  0  0
    0.3286   -0.6606   -1.1609 C   0  0  0  0  0  0  0  0  0  0  0  0
   -1.2369   -2.1175   -1.9282 H   0  0  0  0  0  0  0  0  0  0  0  0
   -2.6786    0.1099   -2.5094 H   0  0  0  0  0  0  0  0  0  0  0  0
   -1.2704    2.2921   -1.7174 H   0  0  0  0  0  0  0  0  0  0  0  0
    1.4477    2.6010   -0.5341 H   0  0  0  0  0  0  0  0  0  0  0  0
    4.1188    2.2255    0.5479 H   0  0  0  0  0  0  0  0  0  0  0  0
    5.6169    0.1068    1.0714 H   0  0  0  0  0  0  0  0  0  0  0  0
    4.4339   -1.7942   -0.4528 H   0  0  0  0  0  0  0  0  0  0  0  0
    3.7457   -1.8510    1.1815 H   0  0  0  0  0  0  0  0  0  0  0  0
    1.4695   -2.5004   -0.7601 H   0  0  0  0  0  0  0  0  0  0  0  0
  1 12  1  0  0  0  0
  2  1  1  0  0  0  0
  2  3  1  0  0  0  0
  3  9  1  0  0  0  0
  4 16  1  0  0  0  0
  4 10  1  0  0  0  0
  5 17  1  0  0  0  0
  5  6  2  0  0  0  0
  6 18  1  0  0  0  0
  7  6  1  0  0  0  0
  7 20  1  0  0  0  0
  8 11  1  0  0  0  0
  9  4  2  0  0  0  0
 10  5  1  0  0  0  0
 11 10  2  0  0  0  0
 11  7  1  0  0  0  0
 12  9  1  0  0  0  0
 12  8  2  0  0  0  0
 13  1  1  0  0  0  0
 14  2  1  0  0  0  0
 15  3  1  0  0  0  0
 19  7  1  0  0  0  0
 21  8  1  0  0  0  0
M  END
