3
 OpenBabel05122313113D

 25 25  0  0  1  0  0  0  0  0999 V2000
   -0.7704    2.3398   -0.2062 O   0  0  0  0  0  0  0  0  0  0  0  0
   -3.3588    4.7045    0.4483 O   0  0  0  0  0  0  0  0  0  0  0  0
    1.4956    0.9650   -0.0194 C   0  0  0  0  0  2  0  0  0  0  0  0
    2.4666    0.4603    0.1257 H   0  0  0  0  0  0  0  0  0  0  0  0
   -2.0968    2.8790   -0.4035 C   0  0  1  0  0  0  0  0  0  0  0  0
   -2.1218    3.4185   -1.3740 H   0  0  0  0  0  0  0  0  0  0  0  0
   -3.0774    1.7109   -0.4253 C   0  0  0  0  0  0  0  0  0  0  0  0
   -2.8282    1.0223   -1.2559 H   0  0  0  0  0  0  0  0  0  0  0  0
   -4.0993    2.1097   -0.5733 H   0  0  0  0  0  0  0  0  0  0  0  0
   -3.0407    1.1455    0.5272 H   0  0  0  0  0  0  0  0  0  0  0  0
   -2.4996    3.8757    0.7066 C   0  0  0  0  0  0  0  0  0  0  0  0
   -1.8558    3.7174    2.0584 C   0  0  0  0  0  0  0  0  0  0  0  0
   -0.8064    4.0790    2.0108 H   0  0  0  0  0  0  0  0  0  0  0  0
   -1.7833    2.6479    2.3506 H   0  0  0  0  0  0  0  0  0  0  0  0
   -2.4108    4.3161    2.8027 H   0  0  0  0  0  0  0  0  0  0  0  0
    1.5575    2.3987   -0.2314 C   0  0  0  0  0  0  0  0  0  0  0  0
    2.7744    3.1104   -0.3436 C   0  0  0  0  0  0  0  0  0  0  0  0
    3.7173    2.5521   -0.2325 H   0  0  0  0  0  0  0  0  0  0  0  0
    2.7772    4.4860   -0.6060 C   0  0  0  0  0  0  0  0  0  0  0  0
    3.7287    5.0301   -0.6976 H   0  0  0  0  0  0  0  0  0  0  0  0
    1.5586    5.1696   -0.7578 C   0  0  0  0  0  0  0  0  0  0  0  0
    1.5565    6.2497   -0.9683 H   0  0  0  0  0  0  0  0  0  0  0  0
    0.3275    4.4965   -0.6431 C   0  0  0  0  0  0  0  0  0  0  0  0
   -0.6143    5.0501   -0.7575 H   0  0  0  0  0  0  0  0  0  0  0  0
    0.3397    3.1227   -0.3737 C   0  0  0  0  0  0  0  0  0  0  0  0
  2 11  2  0  0  0  0
  3  4  1  0  0  0  0
  5  6  1  6  0  0  0
  5  1  1  0  0  0  0
  5 11  1  0  0  0  0
  7  5  1  0  0  0  0
  7 10  1  0  0  0  0
  8  7  1  0  0  0  0
  9  7  1  0  0  0  0
 11 12  1  0  0  0  0
 12 14  1  0  0  0  0
 12 15  1  0  0  0  0
 13 12  1  0  0  0  0
 16  3  1  0  0  0  0
 17 18  1  0  0  0  0
 17 16  1  0  0  0  0
 19 17  2  0  0  0  0
 20 19  1  0  0  0  0
 21 23  2  0  0  0  0
 21 19  1  0  0  0  0
 22 21  1  0  0  0  0
 23 25  1  0  0  0  0
 24 23  1  0  0  0  0
 25 16  2  0  0  0  0
 25  1  1  0  0  0  0
M  END
