1
 OpenBabel05122313113D

 17 17  0  0  0  0  0  0  0  0999 V2000
    1.9508    0.1689   -0.4950 C   0  0  0  0  0  2  0  0  0  0  0  0
    2.3615   -0.5815    0.6217 C   0  0  0  0  0  3  0  0  0  0  0  0
    3.7350   -1.2129    0.6623 C   0  0  0  0  0  0  0  0  0  0  0  0
    4.7784   -0.0767    0.7719 C   0  0  0  0  0  0  0  0  0  0  0  0
    4.9243    0.8247   -0.4705 C   0  0  0  0  0  0  0  0  0  0  0  0
    3.7764    1.8064   -0.7932 C   0  0  0  0  0  0  0  0  0  0  0  0
    2.4711    1.1612   -1.2288 C   0  0  0  0  0  3  0  0  0  0  0  0
    2.0408   -0.1801    1.6046 H   0  0  0  0  0  0  0  0  0  0  0  0
    3.8256   -1.8989    1.5290 H   0  0  0  0  0  0  0  0  0  0  0  0
    3.9359   -1.8026   -0.2529 H   0  0  0  0  0  0  0  0  0  0  0  0
    5.7629   -0.5445    0.9822 H   0  0  0  0  0  0  0  0  0  0  0  0
    4.5473    0.5490    1.6632 H   0  0  0  0  0  0  0  0  0  0  0  0
    5.8457    1.4287   -0.3357 H   0  0  0  0  0  0  0  0  0  0  0  0
    5.1099    0.1865   -1.3627 H   0  0  0  0  0  0  0  0  0  0  0  0
    4.1151    2.4938   -1.5942 H   0  0  0  0  0  0  0  0  0  0  0  0
    3.5924    2.4551    0.0955 H   0  0  0  0  0  0  0  0  0  0  0  0
    1.9756    1.5318   -2.1404 H   0  0  0  0  0  0  0  0  0  0  0  0
  1  2  1  0  0  0  0
  2  3  1  0  0  0  0
  2  8  1  0  0  0  0
  3  4  1  0  0  0  0
  3  9  1  0  0  0  0
  4 11  1  0  0  0  0
  4 12  1  0  0  0  0
  5 13  1  0  0  0  0
  5  4  1  0  0  0  0
  6  5  1  0  0  0  0
  6 16  1  0  0  0  0
  7  6  1  0  0  0  0
  7  1  1  0  0  0  0
 10  3  1  0  0  0  0
 14  5  1  0  0  0  0
 15  6  1  0  0  0  0
 17  7  1  0  0  0  0
M  END
