6
 OpenBabel05122313113D

 62 66  0  0  1  0  0  0  0  0999 V2000
   -0.2865   -0.8570   -1.4795 O   0  0  0  0  0  0  0  0  0  0  0  0
    3.8359    0.6006    2.5456 O   0  0  0  0  0  0  0  0  0  0  0  0
    4.5633    1.7511   -1.6737 O   0  0  0  0  0  0  0  0  0  0  0  0
    4.8873   -0.0868   -0.3792 O   0  0  0  0  0  0  0  0  0  0  0  0
    2.4481   -0.7898    1.3842 N   0  0  2  0  0  0  0  0  0  0  0  0
   -0.8038   -0.3773   -0.3407 C   0  0  0  0  0  2  0  0  0  0  0  0
    0.2681   -0.2399    0.6163 C   0  0  1  0  0  3  0  0  0  0  0  0
    0.2860    0.8335    1.6837 C   0  0  0  0  0  0  0  0  0  0  0  0
   -0.5734    1.5143    1.5575 H   0  0  0  0  0  0  0  0  0  0  0  0
    0.1811    0.3700    2.6915 H   0  0  0  0  0  0  0  0  0  0  0  0
    1.6134    1.6118    1.6945 C   0  0  2  0  0  0  0  0  0  0  0  0
    2.0845    2.1859    0.3376 C   0  0  0  0  0  0  0  0  0  0  0  0
    3.1771    1.3495    0.2642 C   0  0  0  0  0  0  0  0  0  0  0  0
    2.8402    0.6160    1.5492 C   0  0  1  0  0  0  0  0  0  0  0  0
    3.8535   -0.6809    3.1757 C   0  0  0  0  0  0  0  0  0  0  0  0
    3.1503   -0.7120    4.0410 H   0  0  0  0  0  0  0  0  0  0  0  0
    4.8815   -0.8735    3.5396 H   0  0  0  0  0  0  0  0  0  0  0  0
    3.4062   -1.6446    2.0728 C   0  0  0  0  0  0  0  0  0  0  0  0
    4.2581   -1.9169    1.4149 H   0  0  0  0  0  0  0  0  0  0  0  0
    2.9187   -2.5650    2.4453 H   0  0  0  0  0  0  0  0  0  0  0  0
    1.3501   -1.1396    0.6562 C   0  0  2  0  0  3  0  0  0  0  0  0
    1.3431   -2.4926    0.0491 C   0  0  0  0  0  0  0  0  0  0  0  0
    2.4573   -2.9484   -0.6879 C   0  0  0  0  0  0  0  0  0  0  0  0
    3.3190   -2.2772   -0.8205 H   0  0  0  0  0  0  0  0  0  0  0  0
    2.4388   -4.2172   -1.2829 C   0  0  0  0  0  0  0  0  0  0  0  0
    3.3040   -4.5573   -1.8726 H   0  0  0  0  0  0  0  0  0  0  0  0
    1.3142   -5.0481   -1.1410 C   0  0  0  0  0  0  0  0  0  0  0  0
    1.3005   -6.0429   -1.6115 H   0  0  0  0  0  0  0  0  0  0  0  0
    0.2072   -4.6055   -0.3960 C   0  0  0  0  0  0  0  0  0  0  0  0
   -0.6791   -5.2474   -0.2809 H   0  0  0  0  0  0  0  0  0  0  0  0
    0.2245   -3.3394    0.2016 C   0  0  0  0  0  0  0  0  0  0  0  0
   -0.6377   -2.9837    0.7844 H   0  0  0  0  0  0  0  0  0  0  0  0
    1.4830    3.2100   -0.4987 C   0  0  0  0  0  0  0  0  0  0  0  0
    2.0871    3.6340   -1.7119 C   0  0  0  0  0  0  0  0  0  0  0  0
    3.0484    3.1897   -2.0094 H   0  0  0  0  0  0  0  0  0  0  0  0
    1.4642    4.6013   -2.5070 C   0  0  0  0  0  0  0  0  0  0  0  0
    1.9418    4.9217   -3.4454 H   0  0  0  0  0  0  0  0  0  0  0  0
    0.2351    5.1629   -2.1174 C   0  0  0  0  0  0  0  0  0  0  0  0
   -0.2526    5.9186   -2.7522 H   0  0  0  0  0  0  0  0  0  0  0  0
   -0.3693    4.7587   -0.9159 C   0  0  0  0  0  0  0  0  0  0  0  0
   -1.3344    5.1837   -0.6034 H   0  0  0  0  0  0  0  0  0  0  0  0
    0.2523    3.7981   -0.1114 C   0  0  0  0  0  0  0  0  0  0  0  0
   -0.2327    3.4920    0.8238 H   0  0  0  0  0  0  0  0  0  0  0  0
    1.7341    2.5569    2.8870 C   0  0  0  0  0  0  0  0  0  0  0  0
    1.6268    1.9917    3.8351 H   0  0  0  0  0  0  0  0  0  0  0  0
    0.9438    3.3331    2.8623 H   0  0  0  0  0  0  0  0  0  0  0  0
    2.7199    3.0593    2.8990 H   0  0  0  0  0  0  0  0  0  0  0  0
   -1.0770   -1.3061   -2.5913 C   0  0  0  0  0  0  0  0  0  0  0  0
   -1.5217   -0.4171   -3.0843 H   0  0  0  0  0  0  0  0  0  0  0  0
   -1.9056   -1.9420   -2.2216 H   0  0  0  0  0  0  0  0  0  0  0  0
   -0.1578   -2.0681   -3.5259 C   0  0  0  0  0  0  0  0  0  0  0  0
    0.2677   -2.9584   -3.0222 H   0  0  0  0  0  0  0  0  0  0  0  0
    0.6787   -1.4268   -3.8672 H   0  0  0  0  0  0  0  0  0  0  0  0
   -0.7245   -2.4048   -4.4164 H   0  0  0  0  0  0  0  0  0  0  0  0
    4.2479    1.0791   -0.7007 C   0  0  0  0  0  0  0  0  0  0  0  0
    5.9772   -0.4599   -1.2460 C   0  0  0  0  0  0  0  0  0  0  0  0
    5.5943   -0.5601   -2.2840 H   0  0  0  0  0  0  0  0  0  0  0  0
    6.7207    0.3650   -1.2621 H   0  0  0  0  0  0  0  0  0  0  0  0
    6.5698   -1.7531   -0.7238 C   0  0  0  0  0  0  0  0  0  0  0  0
    7.4241   -2.0622   -1.3577 H   0  0  0  0  0  0  0  0  0  0  0  0
    5.8238   -2.5736   -0.7329 H   0  0  0  0  0  0  0  0  0  0  0  0
    6.9382   -1.6308    0.3143 H   0  0  0  0  0  0  0  0  0  0  0  0
  1  6  1  0  0  0  0
  2 15  1  0  0  0  0
  3 55  2  0  0  0  0
  5 14  1  0  0  0  0
  5 18  1  6  0  0  0
  7  6  1  1  0  0  0
  7 21  1  0  0  0  0
  7  8  1  0  0  0  0
  8 11  1  0  0  0  0
  8 10  1  0  0  0  0
  9  8  1  0  0  0  0
 11 44  1  1  0  0  0
 12 11  1  0  0  0  0
 13 12  2  0  0  0  0
 14 13  1  6  0  0  0
 14 11  1  0  0  0  0
 14  2  1  0  0  0  0
 15 17  1  0  0  0  0
 15 16  1  0  0  0  0
 18 20  1  0  0  0  0
 18 15  1  0  0  0  0
 19 18  1  0  0  0  0
 21 22  1  1  0  0  0
 21  5  1  0  0  0  0
 22 31  1  0  0  0  0
 23 22  2  0  0  0  0
 24 23  1  0  0  0  0
 25 27  2  0  0  0  0
 25 23  1  0  0  0  0
 26 25  1  0  0  0  0
 27 29  1  0  0  0  0
 28 27  1  0  0  0  0
 29 30  1  0  0  0  0
 29 31  2  0  0  0  0
 31 32  1  0  0  0  0
 33 42  1  0  0  0  0
 33 12  1  0  0  0  0
 34 33  2  0  0  0  0
 35 34  1  0  0  0  0
 36 38  2  0  0  0  0
 36 34  1  0  0  0  0
 37 36  1  0  0  0  0
 38 40  1  0  0  0  0
 39 38  1  0  0  0  0
 40 41  1  0  0  0  0
 40 42  2  0  0  0  0
 42 43  1  0  0  0  0
 44 47  1  0  0  0  0
 44 45  1  0  0  0  0
 46 44  1  0  0  0  0
 48 50  1  0  0  0  0
 48  1  1  0  0  0  0
 49 48  1  0  0  0  0
 51 52  1  0  0  0  0
 51 48  1  0  0  0  0
 53 51  1  0  0  0  0
 54 51  1  0  0  0  0
 55  4  1  0  0  0  0
 55 13  1  0  0  0  0
 56 59  1  0  0  0  0
 56  4  1  0  0  0  0
 57 56  1  0  0  0  0
 58 56  1  0  0  0  0
 59 62  1  0  0  0  0
 60 59  1  0  0  0  0
 61 59  1  0  0  0  0
M  END
