7
 OpenBabel05122313113D

 32 34  0  0  0  0  0  0  0  0999 V2000
   -3.7925   -0.1816    0.6633 P   0  0  0  0  0  0  0  0  0  0  0  0
   -2.2416    0.8067    0.5213 C   0  0  0  0  0  0  0  0  0  0  0  0
   -1.8276    1.7734    1.4999 C   0  0  0  0  0  0  0  0  0  0  0  0
   -2.3201    1.9447    2.4649 H   0  0  0  0  0  0  0  0  0  0  0  0
   -0.6653    2.4301    1.0176 C   0  0  0  0  0  0  0  0  0  0  0  0
   -0.0923    3.2003    1.5454 H   0  0  0  0  0  0  0  0  0  0  0  0
   -0.3257    1.8619   -0.2461 C   0  0  0  0  0  3  0  0  0  0  0  0
    0.5291    2.1505   -0.8702 H   0  0  0  0  0  0  0  0  0  0  0  0
   -1.3057    0.8717   -0.5565 C   0  0  0  0  0  0  0  0  0  0  0  0
   -1.3484    0.2666   -1.4694 H   0  0  0  0  0  0  0  0  0  0  0  0
   -4.8474    0.7159   -0.5704 C   0  0  0  0  0  0  0  0  0  0  0  0
   -4.5290    1.9770   -1.1137 C   0  0  0  0  0  0  0  0  0  0  0  0
   -3.5735    2.4593   -0.8591 H   0  0  0  0  0  0  0  0  0  0  0  0
   -5.4228    2.6235   -1.9840 C   0  0  0  0  0  0  0  0  0  0  0  0
   -5.1592    3.6084   -2.3996 H   0  0  0  0  0  0  0  0  0  0  0  0
   -6.6405    2.0186   -2.3281 C   0  0  0  0  0  0  0  0  0  0  0  0
   -7.3369    2.5251   -3.0135 H   0  0  0  0  0  0  0  0  0  0  0  0
   -6.9682    0.7630   -1.7882 C   0  0  0  0  0  0  0  0  0  0  0  0
   -7.9232    0.2815   -2.0491 H   0  0  0  0  0  0  0  0  0  0  0  0
   -6.0851    0.1228   -0.9092 C   0  0  0  0  0  0  0  0  0  0  0  0
   -6.3544   -0.8573   -0.4829 H   0  0  0  0  0  0  0  0  0  0  0  0
   -3.3305   -1.6821   -0.3364 C   0  0  0  0  0  0  0  0  0  0  0  0
   -3.0316   -2.8686    0.3669 C   0  0  0  0  0  0  0  0  0  0  0  0
   -3.0871   -2.8712    1.4659 H   0  0  0  0  0  0  0  0  0  0  0  0
   -2.6430   -4.0275   -0.3238 C   0  0  0  0  0  0  0  0  0  0  0  0
   -2.4101   -4.9456    0.2373 H   0  0  0  0  0  0  0  0  0  0  0  0
   -2.5569   -4.0181   -1.7253 C   0  0  0  0  0  0  0  0  0  0  0  0
   -2.2528   -4.9267   -2.2670 H   0  0  0  0  0  0  0  0  0  0  0  0
   -2.8721   -2.8467   -2.4352 C   0  0  0  0  0  0  0  0  0  0  0  0
   -2.8188   -2.8373   -3.5349 H   0  0  0  0  0  0  0  0  0  0  0  0
   -3.2633   -1.6876   -1.7465 C   0  0  0  0  0  0  0  0  0  0  0  0
   -3.5298   -0.7788   -2.3080 H   0  0  0  0  0  0  0  0  0  0  0  0
  2  1  1  0  0  0  0
  2  3  1  0  0  0  0
  3  4  1  0  0  0  0
  5  3  2  0  0  0  0
  5  6  1  0  0  0  0
  7  5  1  0  0  0  0
  8  7  1  0  0  0  0
  9  7  1  0  0  0  0
  9  2  2  0  0  0  0
 10  9  1  0  0  0  0
 11  1  1  0  0  0  0
 12 13  1  0  0  0  0
 12 11  2  0  0  0  0
 14 12  1  0  0  0  0
 15 14  1  0  0  0  0
 16 14  2  0  0  0  0
 16 18  1  0  0  0  0
 17 16  1  0  0  0  0
 18 20  2  0  0  0  0
 19 18  1  0  0  0  0
 20 11  1  0  0  0  0
 20 21  1  0  0  0  0
 22 23  1  0  0  0  0
 22  1  1  0  0  0  0
 23 24  1  0  0  0  0
 25 26  1  0  0  0  0
 25 23  2  0  0  0  0
 27 25  1  0  0  0  0
 28 27  1  0  0  0  0
 29 31  1  0  0  0  0
 29 27  2  0  0  0  0
 30 29  1  0  0  0  0
 31 22  2  0  0  0  0
 32 31  1  0  0  0  0
M  END
