1
 OpenBabel05122313113D

  3  2  0  0  0  0  0  0  0  0999 V2000
    0.0673   -1.9997   -0.0077 C   0  0  0  0  0  0  0  0  0  0  0  0
    0.0437   -3.1905    0.0361 N   0  0  0  0  0  0  0  0  0  0  0  0
   -0.0062   -4.4075    0.0831 O   0  0  0  0  0  0  0  0  0  0  0  0
  1  2  1  0  0  0  0
  2  3  1  0  0  0  0
M  END
