3
 OpenBabel05122313113D

 14 14  0  0  0  0  0  0  0  0999 V2000
    3.0675   -1.0262   -0.1191 N   0  0  0  0  0  0  0  0  0  0  0  0
    3.0652   -0.4997   -1.0628 H   0  0  0  0  0  0  0  0  0  0  0  0
    1.8200   -1.0550    0.4407 C   0  0  0  0  0  2  0  0  0  0  0  0
    1.6840   -1.9411    1.5505 C   0  0  0  0  0  0  0  0  0  0  0  0
    0.6985   -2.0333    2.0256 H   0  0  0  0  0  0  0  0  0  0  0  0
    2.7712   -2.6741    2.0165 C   0  0  0  0  0  0  0  0  0  0  0  0
    2.6478   -3.3537    2.8747 H   0  0  0  0  0  0  0  0  0  0  0  0
    4.0367   -2.5588    1.3968 C   0  0  0  0  0  0  0  0  0  0  0  0
    4.9072   -3.1240    1.7570 H   0  0  0  0  0  0  0  0  0  0  0  0
    4.1624   -1.7185    0.2936 C   0  0  0  0  0  0  0  0  0  0  0  0
    5.4284   -1.5076   -0.4826 C   0  0  0  0  0  0  0  0  0  0  0  0
    5.7754   -0.4578   -0.3827 H   0  0  0  0  0  0  0  0  0  0  0  0
    5.2635   -1.6902   -1.5644 H   0  0  0  0  0  0  0  0  0  0  0  0
    6.2321   -2.1774   -0.1268 H   0  0  0  0  0  0  0  0  0  0  0  0
  1 10  1  0  0  0  0
  1  3  1  0  0  0  0
  2  1  1  0  0  0  0
  3  4  1  0  0  0  0
  4  6  2  0  0  0  0
  4  5  1  0  0  0  0
  6  7  1  0  0  0  0
  8  9  1  0  0  0  0
  8  6  1  0  0  0  0
 10  8  2  0  0  0  0
 11 12  1  0  0  0  0
 11 14  1  0  0  0  0
 11 10  1  0  0  0  0
 13 11  1  0  0  0  0
M  END
