3
 OpenBabel05122313113D

 11 11  0  0  0  0  0  0  0  0999 V2000
   -1.8773   -2.5275   -1.0990 N   0  0  0  0  0  0  0  0  0  0  0  0
   -1.2859   -2.8523   -0.2863 H   0  0  0  0  0  0  0  0  0  0  0  0
   -1.7339   -1.1734   -1.3033 C   0  0  0  0  0  2  0  0  0  0  0  0
   -2.3218   -0.6948   -2.5116 C   0  0  0  0  0  0  0  0  0  0  0  0
   -2.2135    0.3712   -2.7533 H   0  0  0  0  0  0  0  0  0  0  0  0
   -3.0003   -1.5488   -3.3759 C   0  0  0  0  0  0  0  0  0  0  0  0
   -3.4442   -1.1524   -4.3027 H   0  0  0  0  0  0  0  0  0  0  0  0
   -3.1154   -2.9295   -3.0803 C   0  0  0  0  0  0  0  0  0  0  0  0
   -3.6446   -3.6232   -3.7468 H   0  0  0  0  0  0  0  0  0  0  0  0
   -2.5163   -3.3928   -1.9196 C   0  0  0  0  0  0  0  0  0  0  0  0
   -2.5176   -4.4490   -1.6126 H   0  0  0  0  0  0  0  0  0  0  0  0
  1  2  1  0  0  0  0
  3  1  1  0  0  0  0
  4  3  1  0  0  0  0
  5  4  1  0  0  0  0
  6  8  1  0  0  0  0
  6  4  2  0  0  0  0
  7  6  1  0  0  0  0
  8 10  2  0  0  0  0
  9  8  1  0  0  0  0
 10 11  1  0  0  0  0
 10  1  1  0  0  0  0
M  END
