6
 OpenBabel05122313113D

 40 40  0  0  1  0  0  0  0  0999 V2000
    0.2863    3.4595   -0.3435 Si  0  0  0  0  0  0  0  0  0  0  0  0
   -4.8430    2.1079   -0.0689 F   0  0  0  0  0  0  0  0  0  0  0  0
   -4.0275    3.3005    1.5678 F   0  0  0  0  0  0  0  0  0  0  0  0
   -3.5011    1.1896    1.3938 F   0  0  0  0  0  0  0  0  0  0  0  0
    1.7241    2.2311   -0.0947 C   0  0  1  0  0  3  0  0  0  0  0  0
    2.6393    1.6750   -1.0675 C   0  0  2  0  0  3  0  0  0  0  0  0
    3.6809    0.9872   -0.3711 C   0  0  2  0  0  3  0  0  0  0  0  0
    3.3758    1.0298    1.0320 C   0  0  0  0  0  0  0  0  0  0  0  0
    2.2164    1.8578    1.1957 C   0  0  0  0  0  0  0  0  0  0  0  0
    2.6352    1.9285   -2.5458 C   0  0  0  0  0  0  0  0  0  0  0  0
    2.9704    2.9654   -2.7635 H   0  0  0  0  0  0  0  0  0  0  0  0
    1.6227    1.8057   -2.9720 H   0  0  0  0  0  0  0  0  0  0  0  0
    3.3205    1.2438   -3.0800 H   0  0  0  0  0  0  0  0  0  0  0  0
    5.0081    0.6388   -0.9742 C   0  0  0  0  0  0  0  0  0  0  0  0
    5.5285    1.5848   -1.2385 H   0  0  0  0  0  0  0  0  0  0  0  0
    4.9315    0.0525   -1.9081 H   0  0  0  0  0  0  0  0  0  0  0  0
    5.6636    0.0935   -0.2742 H   0  0  0  0  0  0  0  0  0  0  0  0
    4.2212    0.5580    2.1769 C   0  0  0  0  0  0  0  0  0  0  0  0
    5.0553   -0.0900    1.8509 H   0  0  0  0  0  0  0  0  0  0  0  0
    3.6234   -0.0019    2.9236 H   0  0  0  0  0  0  0  0  0  0  0  0
    4.6700    1.4239    2.7095 H   0  0  0  0  0  0  0  0  0  0  0  0
    1.7477    2.3631    2.5238 C   0  0  0  0  0  0  0  0  0  0  0  0
    1.8470    1.5965    3.3144 H   0  0  0  0  0  0  0  0  0  0  0  0
    0.6909    2.6824    2.5070 H   0  0  0  0  0  0  0  0  0  0  0  0
    2.3691    3.2384    2.8155 H   0  0  0  0  0  0  0  0  0  0  0  0
   -1.2696    2.9187    0.6245 C   0  0  0  0  0  0  0  0  0  0  0  0
   -1.0257    1.9852    1.1719 H   0  0  0  0  0  0  0  0  0  0  0  0
   -1.4674    3.6970    1.3927 H   0  0  0  0  0  0  0  0  0  0  0  0
   -2.5430    2.6871   -0.1929 C   0  0  0  0  0  0  0  0  0  0  0  0
   -2.8435    3.5854   -0.7705 H   0  0  0  0  0  0  0  0  0  0  0  0
   -2.4077    1.8602   -0.9180 H   0  0  0  0  0  0  0  0  0  0  0  0
   -3.7300    2.3177    0.6728 C   0  0  0  0  0  0  0  0  0  0  0  0
   -0.1252    3.8359   -2.1517 C   0  0  0  0  0  0  0  0  0  0  0  0
   -0.9064    4.6247   -2.1719 H   0  0  0  0  0  0  0  0  0  0  0  0
   -0.5135    2.9503   -2.6885 H   0  0  0  0  0  0  0  0  0  0  0  0
    0.7536    4.2292   -2.6997 H   0  0  0  0  0  0  0  0  0  0  0  0
    0.9055    5.0974    0.4008 C   0  0  0  0  0  0  0  0  0  0  0  0
    1.8340    5.4390   -0.1015 H   0  0  0  0  0  0  0  0  0  0  0  0
    1.1162    5.0148    1.4854 H   0  0  0  0  0  0  0  0  0  0  0  0
    0.1364    5.8869    0.2665 H   0  0  0  0  0  0  0  0  0  0  0  0
  1 37  1  0  0  0  0
  1 26  1  0  0  0  0
  2 32  1  0  0  0  0
  5  1  1  1  0  0  0
  5  9  1  0  0  0  0
  6 10  1  1  0  0  0
  6  7  1  0  0  0  0
  6  5  1  0  0  0  0
  7 14  1  1  0  0  0
  7  8  1  0  0  0  0
  8  9  2  0  0  0  0
  8 18  1  0  0  0  0
  9 22  1  0  0  0  0
 11 10  1  0  0  0  0
 12 10  1  0  0  0  0
 13 10  1  0  0  0  0
 14 17  1  0  0  0  0
 15 14  1  0  0  0  0
 16 14  1  0  0  0  0
 18 21  1  0  0  0  0
 18 20  1  0  0  0  0
 19 18  1  0  0  0  0
 22 25  1  0  0  0  0
 22 23  1  0  0  0  0
 24 22  1  0  0  0  0
 26 27  1  0  0  0  0
 26 28  1  0  0  0  0
 29 26  1  0  0  0  0
 29 32  1  0  0  0  0
 30 29  1  0  0  0  0
 31 29  1  0  0  0  0
 32  4  1  0  0  0  0
 32  3  1  0  0  0  0
 33  1  1  0  0  0  0
 34 33  1  0  0  0  0
 35 33  1  0  0  0  0
 36 33  1  0  0  0  0
 37 39  1  0  0  0  0
 38 37  1  0  0  0  0
 40 37  1  0  0  0  0
M  END
