3
 OpenBabel05122313113D

 34 35  0  0  0  0  0  0  0  0999 V2000
   -1.8339   -0.6144   -0.0468 N   0  0  0  0  0  0  0  0  0  0  0  0
   -1.2761    1.3303    0.7489 N   0  0  0  0  0  0  0  0  0  0  0  0
   -0.7604    0.1674    0.2615 C   0  0  0  0  0  2  0  0  0  0  0  0
   -2.6592    1.2887    0.7325 C   0  0  0  0  0  0  0  0  0  0  0  0
   -3.2735    2.1121    1.1068 H   0  0  0  0  0  0  0  0  0  0  0  0
   -3.0329    0.0554    0.2402 C   0  0  0  0  0  0  0  0  0  0  0  0
   -1.7031   -1.9287   -0.6612 C   0  0  0  0  0  0  0  0  0  0  0  0
   -0.8352   -1.8994   -1.3469 H   0  0  0  0  0  0  0  0  0  0  0  0
   -2.6197   -2.1579   -1.2334 H   0  0  0  0  0  0  0  0  0  0  0  0
   -1.5383   -2.7087    0.1087 H   0  0  0  0  0  0  0  0  0  0  0  0
   -0.4655    2.4619    1.1991 C   0  0  0  0  0  0  0  0  0  0  0  0
    0.3093    2.0518    1.8792 H   0  0  0  0  0  0  0  0  0  0  0  0
   -1.1314    3.1220    1.7929 H   0  0  0  0  0  0  0  0  0  0  0  0
    0.1850    3.2467    0.0483 C   0  0  0  0  0  0  0  0  0  0  0  0
    0.8535    2.5328   -0.4837 H   0  0  0  0  0  0  0  0  0  0  0  0
   -0.8474    3.7587   -0.9584 C   0  0  0  0  0  0  0  0  0  0  0  0
   -1.4056    2.9224   -1.4248 H   0  0  0  0  0  0  0  0  0  0  0  0
   -0.3512    4.3166   -1.7775 H   0  0  0  0  0  0  0  0  0  0  0  0
   -1.5789    4.4446   -0.4775 H   0  0  0  0  0  0  0  0  0  0  0  0
    1.0416    4.3739    0.6320 C   0  0  0  0  0  0  0  0  0  0  0  0
    1.5707    4.9232   -0.1720 H   0  0  0  0  0  0  0  0  0  0  0  0
    1.8064    3.9817    1.3334 H   0  0  0  0  0  0  0  0  0  0  0  0
    0.4199    5.1099    1.1864 H   0  0  0  0  0  0  0  0  0  0  0  0
   -4.3839   -0.4899    0.0551 C   0  0  0  0  0  0  0  0  0  0  0  0
   -5.3964    0.3330   -0.4908 C   0  0  0  0  0  0  0  0  0  0  0  0
   -5.1380    1.3503   -0.8212 H   0  0  0  0  0  0  0  0  0  0  0  0
   -6.7057   -0.1442   -0.6336 C   0  0  0  0  0  0  0  0  0  0  0  0
   -7.4798    0.5095   -1.0633 H   0  0  0  0  0  0  0  0  0  0  0  0
   -7.0262   -1.4554   -0.2471 C   0  0  0  0  0  0  0  0  0  0  0  0
   -8.0528   -1.8329   -0.3676 H   0  0  0  0  0  0  0  0  0  0  0  0
   -6.0294   -2.2825    0.2947 C   0  0  0  0  0  0  0  0  0  0  0  0
   -6.2751   -3.3074    0.6114 H   0  0  0  0  0  0  0  0  0  0  0  0
   -4.7212   -1.8054    0.4514 C   0  0  0  0  0  0  0  0  0  0  0  0
   -3.9590   -2.4494    0.9131 H   0  0  0  0  0  0  0  0  0  0  0  0
  1  6  1  0  0  0  0
  1  3  1  0  0  0  0
  2 11  1  0  0  0  0
  3  2  1  0  0  0  0
  4  2  1  0  0  0  0
  4  5  1  0  0  0  0
  6  4  2  0  0  0  0
  7  1  1  0  0  0  0
  7 10  1  0  0  0  0
  8  7  1  0  0  0  0
  9  7  1  0  0  0  0
 11 13  1  0  0  0  0
 11 12  1  0  0  0  0
 14 20  1  0  0  0  0
 14 11  1  0  0  0  0
 15 14  1  0  0  0  0
 16 19  1  0  0  0  0
 16 14  1  0  0  0  0
 17 16  1  0  0  0  0
 18 16  1  0  0  0  0
 20 23  1  0  0  0  0
 20 22  1  0  0  0  0
 21 20  1  0  0  0  0
 24  6  1  0  0  0  0
 24 33  1  0  0  0  0
 25 24  2  0  0  0  0
 26 25  1  0  0  0  0
 27 25  1  0  0  0  0
 27 29  2  0  0  0  0
 28 27  1  0  0  0  0
 29 31  1  0  0  0  0
 30 29  1  0  0  0  0
 31 33  2  0  0  0  0
 31 32  1  0  0  0  0
 33 34  1  0  0  0  0
M  END
