5
 OpenBabel05122313113D

 49 52  0  0  0  0  0  0  0  0999 V2000
   -1.0511    0.9045    1.4829 N   0  0  0  0  0  0  0  0  0  0  0  0
    2.6690   -0.6439    0.8927 N   0  0  0  0  0  0  0  0  0  0  0  0
    5.0567    1.0111   -1.2787 N   0  0  0  0  0  0  0  0  0  0  0  0
    0.2230   -0.6870    2.2092 N   0  0  0  0  0  0  0  0  0  0  0  0
   -0.6779   -0.3857    1.2235 C   0  0  0  0  0  2  0  0  0  0  0  0
    3.8396   -1.5271   -1.0250 C   0  0  0  0  0  0  0  0  0  0  0  0
    4.5575   -1.3320   -1.8330 H   0  0  0  0  0  0  0  0  0  0  0  0
    3.5394   -0.4845   -0.1226 C   0  0  0  0  0  0  0  0  0  0  0  0
   -4.1401    2.4174    0.0513 C   0  0  0  0  0  0  0  0  0  0  0  0
   -5.2256    2.4258    0.2392 H   0  0  0  0  0  0  0  0  0  0  0  0
    4.1648    0.8596   -0.2777 C   0  0  0  0  0  0  0  0  0  0  0  0
   -3.3145    1.6576    0.8983 C   0  0  0  0  0  0  0  0  0  0  0  0
   -1.9299    1.6645    0.6344 C   0  0  0  0  0  0  0  0  0  0  0  0
   -3.6206    3.1511   -1.0314 C   0  0  0  0  0  0  0  0  0  0  0  0
    2.0467   -1.8200    1.0365 C   0  0  0  0  0  0  0  0  0  0  0  0
    0.4318    0.3983    3.0467 C   0  0  0  0  0  0  0  0  0  0  0  0
    1.1358    0.3622    3.8826 H   0  0  0  0  0  0  0  0  0  0  0  0
   -0.3837    1.4049    2.5983 C   0  0  0  0  0  0  0  0  0  0  0  0
   -0.5521    2.4214    2.9644 H   0  0  0  0  0  0  0  0  0  0  0  0
    5.3311    3.3283   -0.6442 C   0  0  0  0  0  0  0  0  0  0  0  0
    5.8228    4.2941   -0.8328 H   0  0  0  0  0  0  0  0  0  0  0  0
    3.8103    1.9171    0.5886 C   0  0  0  0  0  0  0  0  0  0  0  0
    3.0763    1.7240    1.3832 H   0  0  0  0  0  0  0  0  0  0  0  0
   -2.2323    3.1139   -1.2635 C   0  0  0  0  0  0  0  0  0  0  0  0
   -1.8111    3.6720   -2.1149 H   0  0  0  0  0  0  0  0  0  0  0  0
   -4.5330    3.9227   -1.9510 C   0  0  0  0  0  0  0  0  0  0  0  0
   -4.8130    3.3067   -2.8325 H   0  0  0  0  0  0  0  0  0  0  0  0
   -4.0446    4.8390   -2.3375 H   0  0  0  0  0  0  0  0  0  0  0  0
   -5.4731    4.2162   -1.4445 H   0  0  0  0  0  0  0  0  0  0  0  0
    5.6195    2.2131   -1.4498 C   0  0  0  0  0  0  0  0  0  0  0  0
    6.3449    2.3002   -2.2787 H   0  0  0  0  0  0  0  0  0  0  0  0
    4.4044    3.1692    0.3976 C   0  0  0  0  0  0  0  0  0  0  0  0
    4.1475    4.0151    1.0539 H   0  0  0  0  0  0  0  0  0  0  0  0
    1.0364   -1.8961    2.1731 C   0  0  0  0  0  0  0  0  0  0  0  0
    0.3708   -2.7705    2.0443 H   0  0  0  0  0  0  0  0  0  0  0  0
    1.5524   -1.9872    3.1505 H   0  0  0  0  0  0  0  0  0  0  0  0
    2.2681   -2.9121    0.1792 C   0  0  0  0  0  0  0  0  0  0  0  0
    1.7062   -3.8486    0.3082 H   0  0  0  0  0  0  0  0  0  0  0  0
   -3.8795    0.8231    2.0169 C   0  0  0  0  0  0  0  0  0  0  0  0
   -4.9649    0.9974    2.1375 H   0  0  0  0  0  0  0  0  0  0  0  0
   -3.3827    1.0338    2.9862 H   0  0  0  0  0  0  0  0  0  0  0  0
   -3.7239   -0.2567    1.8068 H   0  0  0  0  0  0  0  0  0  0  0  0
    3.1928   -2.7563   -0.8641 C   0  0  0  0  0  0  0  0  0  0  0  0
    3.3851   -3.5845   -1.5626 H   0  0  0  0  0  0  0  0  0  0  0  0
   -1.3616    2.3713   -0.4481 C   0  0  0  0  0  0  0  0  0  0  0  0
    0.1147    2.2862   -0.7341 C   0  0  0  0  0  0  0  0  0  0  0  0
    0.7301    2.5812    0.1405 H   0  0  0  0  0  0  0  0  0  0  0  0
    0.3951    2.9317   -1.5869 H   0  0  0  0  0  0  0  0  0  0  0  0
    0.4032    1.2419   -0.9802 H   0  0  0  0  0  0  0  0  0  0  0  0
  1 18  1  0  0  0  0
  2 15  1  0  0  0  0
  3 11  1  0  0  0  0
  4 16  1  0  0  0  0
  5  1  1  0  0  0  0
  5  4  1  0  0  0  0
  6 43  2  0  0  0  0
  6  8  1  0  0  0  0
  7  6  1  0  0  0  0
  8  2  2  0  0  0  0
  9 10  1  0  0  0  0
  9 12  1  0  0  0  0
 11  8  1  0  0  0  0
 11 22  2  0  0  0  0
 12 39  1  0  0  0  0
 13 12  2  0  0  0  0
 13  1  1  0  0  0  0
 14  9  2  0  0  0  0
 15 34  1  0  0  0  0
 16 17  1  0  0  0  0
 18 19  1  0  0  0  0
 18 16  2  0  0  0  0
 20 32  2  0  0  0  0
 21 20  1  0  0  0  0
 22 23  1  0  0  0  0
 24 14  1  0  0  0  0
 24 45  2  0  0  0  0
 25 24  1  0  0  0  0
 26 29  1  0  0  0  0
 26 14  1  0  0  0  0
 27 26  1  0  0  0  0
 28 26  1  0  0  0  0
 30  3  2  0  0  0  0
 30 20  1  0  0  0  0
 31 30  1  0  0  0  0
 32 22  1  0  0  0  0
 32 33  1  0  0  0  0
 34  4  1  0  0  0  0
 34 36  1  0  0  0  0
 35 34  1  0  0  0  0
 37 38  1  0  0  0  0
 37 15  2  0  0  0  0
 39 40  1  0  0  0  0
 39 41  1  0  0  0  0
 42 39  1  0  0  0  0
 43 37  1  0  0  0  0
 44 43  1  0  0  0  0
 45 13  1  0  0  0  0
 46 45  1  0  0  0  0
 46 47  1  0  0  0  0
 48 46  1  0  0  0  0
 49 46  1  0  0  0  0
M  END
