3
 OpenBabel05122313113D

 43 45  0  0  1  0  0  0  0  0999 V2000
   -1.8887    2.1636   -0.1026 S   0  0  0  0  0  0  0  0  0  0  0  0
   -4.4669    1.7009   -0.3688 N   0  0  0  0  0  0  0  0  0  0  0  0
   -0.6049   -0.2637    0.1061 C   0  0  0  0  0  3  0  0  0  0  0  0
   -1.8663   -0.9366    0.3281 C   0  0  1  0  0  3  0  0  0  0  0  0
   -1.8605   -2.3291    0.6279 C   0  0  0  0  0  0  0  0  0  0  0  0
   -0.9000   -2.8605    0.5732 H   0  0  0  0  0  0  0  0  0  0  0  0
   -3.0079   -3.0024    1.0247 C   0  0  0  0  0  0  0  0  0  0  0  0
   -2.9536   -4.0744    1.2652 H   0  0  0  0  0  0  0  0  0  0  0  0
   -4.2289   -2.3034    1.1648 C   0  0  0  0  0  0  0  0  0  0  0  0
   -5.1226   -2.8151    1.5513 H   0  0  0  0  0  0  0  0  0  0  0  0
   -4.2920   -0.9594    0.8283 C   0  0  0  0  0  0  0  0  0  0  0  0
   -5.2315   -0.4120    0.9779 H   0  0  0  0  0  0  0  0  0  0  0  0
   -3.1418   -0.2561    0.3549 C   0  0  0  0  0  0  0  0  0  0  0  0
   -3.2760    1.1244   -0.0381 C   0  0  0  0  0  0  0  0  0  0  0  0
   -0.4888    1.1012    0.0463 C   0  0  0  0  0  0  0  0  0  0  0  0
    0.7605    1.9119    0.0547 C   0  0  0  0  0  0  0  0  0  0  0  0
    1.4424    2.1775   -1.1631 C   0  0  0  0  0  0  0  0  0  0  0  0
    2.6530    2.8891   -1.1012 C   0  0  0  0  0  0  0  0  0  0  0  0
    3.1974    3.0822   -2.0394 H   0  0  0  0  0  0  0  0  0  0  0  0
    3.1835    3.3593    0.1132 C   0  0  0  0  0  0  0  0  0  0  0  0
    2.4497    3.1343    1.2922 C   0  0  0  0  0  0  0  0  0  0  0  0
    2.8351    3.5173    2.2507 H   0  0  0  0  0  0  0  0  0  0  0  0
    1.2397    2.4226    1.2912 C   0  0  0  0  0  0  0  0  0  0  0  0
   -5.5206    0.9840   -1.0928 C   0  0  0  0  0  0  0  0  0  0  0  0
   -5.2090   -0.0511   -1.3110 H   0  0  0  0  0  0  0  0  0  0  0  0
   -5.7051    1.5037   -2.0570 H   0  0  0  0  0  0  0  0  0  0  0  0
   -6.4707    0.9653   -0.5195 H   0  0  0  0  0  0  0  0  0  0  0  0
   -4.5688    3.1531   -0.4386 C   0  0  0  0  0  0  0  0  0  0  0  0
   -4.0583    3.6192    0.4267 H   0  0  0  0  0  0  0  0  0  0  0  0
   -5.6371    3.4393   -0.4126 H   0  0  0  0  0  0  0  0  0  0  0  0
   -4.1152    3.5554   -1.3736 H   0  0  0  0  0  0  0  0  0  0  0  0
    0.8886    1.7224   -2.4867 C   0  0  0  0  0  0  0  0  0  0  0  0
    0.8655    0.6143   -2.5660 H   0  0  0  0  0  0  0  0  0  0  0  0
    1.4924    2.1166   -3.3257 H   0  0  0  0  0  0  0  0  0  0  0  0
   -0.1582    2.0648   -2.6264 H   0  0  0  0  0  0  0  0  0  0  0  0
    4.5137    4.0663    0.1542 C   0  0  0  0  0  0  0  0  0  0  0  0
    5.3359    3.3369    0.3183 H   0  0  0  0  0  0  0  0  0  0  0  0
    4.5620    4.8028    0.9805 H   0  0  0  0  0  0  0  0  0  0  0  0
    4.7291    4.5916   -0.7970 H   0  0  0  0  0  0  0  0  0  0  0  0
    0.4774    2.1951    2.5694 C   0  0  0  0  0  0  0  0  0  0  0  0
   -0.5662    2.5682    2.4998 H   0  0  0  0  0  0  0  0  0  0  0  0
    0.9668    2.7035    3.4216 H   0  0  0  0  0  0  0  0  0  0  0  0
    0.4305    1.1082    2.7900 H   0  0  0  0  0  0  0  0  0  0  0  0
  1 14  1  0  0  0  0
  1 15  1  0  0  0  0
  2 14  1  0  0  0  0
  4  3  1  1  0  0  0
  4 13  1  0  0  0  0
  4  5  1  0  0  0  0
  5  7  2  0  0  0  0
  6  5  1  0  0  0  0
  7  9  1  0  0  0  0
  7  8  1  0  0  0  0
  9 10  1  0  0  0  0
 11 12  1  0  0  0  0
 11  9  2  0  0  0  0
 13 11  1  0  0  0  0
 14 13  2  0  0  0  0
 15 16  1  0  0  0  0
 15  3  2  0  0  0  0
 16 23  1  0  0  0  0
 17 18  1  0  0  0  0
 17 16  2  0  0  0  0
 18 20  2  0  0  0  0
 19 18  1  0  0  0  0
 20 36  1  0  0  0  0
 20 21  1  0  0  0  0
 21 22  1  0  0  0  0
 23 21  2  0  0  0  0
 23 40  1  0  0  0  0
 24 27  1  0  0  0  0
 24  2  1  0  0  0  0
 25 24  1  0  0  0  0
 26 24  1  0  0  0  0
 28 30  1  0  0  0  0
 28  2  1  0  0  0  0
 28 29  1  0  0  0  0
 31 28  1  0  0  0  0
 32 17  1  0  0  0  0
 33 32  1  0  0  0  0
 34 32  1  0  0  0  0
 35 32  1  0  0  0  0
 36 37  1  0  0  0  0
 36 38  1  0  0  0  0
 39 36  1  0  0  0  0
 40 43  1  0  0  0  0
 40 42  1  0  0  0  0
 41 40  1  0  0  0  0
M  END
