2
 OpenBabel05122313113D

 14 14  0  0  0  0  0  0  0  0999 V2000
   -2.6545   -0.0921   -0.2532 N   0  0  0  0  0  0  0  0  0  0  0  0
   -1.6678   -0.2816   -1.3313 C   0  0  0  0  0  3  0  0  0  0  0  0
   -3.1401    1.1522    0.0119 C   0  0  0  0  0  3  0  0  0  0  0  0
   -4.0231    1.3605    1.0688 C   0  0  0  0  0  0  0  0  0  0  0  0
   -4.4209    0.2781    1.8672 C   0  0  0  0  0  0  0  0  0  0  0  0
   -3.8939   -0.9932    1.5857 C   0  0  0  0  0  0  0  0  0  0  0  0
   -3.0104   -1.1540    0.5236 C   0  0  0  0  0  0  0  0  0  0  0  0
   -1.8129   -1.2966   -1.7463 H   0  0  0  0  0  0  0  0  0  0  0  0
   -1.8509    0.4961   -2.0959 H   0  0  0  0  0  0  0  0  0  0  0  0
   -2.7275    1.9559   -0.6156 H   0  0  0  0  0  0  0  0  0  0  0  0
   -4.3899    2.3788    1.2584 H   0  0  0  0  0  0  0  0  0  0  0  0
   -5.1208    0.4235    2.7027 H   0  0  0  0  0  0  0  0  0  0  0  0
   -4.1564   -1.8705    2.1929 H   0  0  0  0  0  0  0  0  0  0  0  0
   -2.4928   -2.0964    0.2838 H   0  0  0  0  0  0  0  0  0  0  0  0
  1  3  1  0  0  0  0
  1  7  1  0  0  0  0
  2  1  1  0  0  0  0
  3  4  1  0  0  0  0
  4 11  1  0  0  0  0
  4  5  2  0  0  0  0
  5 12  1  0  0  0  0
  6  5  1  0  0  0  0
  6 13  1  0  0  0  0
  7  6  2  0  0  0  0
  8  2  1  0  0  0  0
  9  2  1  0  0  0  0
 10  3  1  0  0  0  0
 14  7  1  0  0  0  0
M  END
