3
 OpenBabel05122313113D

 21 23  0  0  1  0  0  0  0  0999 V2000
   -1.6423   -1.0072   -0.4540 C   0  0  0  0  0  0  0  0  0  0  0  0
   -0.6349   -1.1059   -1.4617 C   0  0  0  0  0  3  0  0  0  0  0  0
   -0.6788    0.1082   -2.2086 C   0  0  0  0  0  3  0  0  0  0  0  0
   -1.7075    0.9534   -1.6799 C   0  0  0  0  0  3  0  0  0  0  0  0
   -2.3076    0.2434   -0.6098 C   0  0  0  0  0  0  0  0  0  0  0  0
   -3.5378    0.2025    0.2581 C   0  0  1  0  0  0  0  0  0  0  0  0
   -4.4969   -0.7837   -0.4893 C   0  0  0  0  0  0  0  0  0  0  0  0
   -3.7854   -2.1675   -0.3438 C   0  0  0  0  0  0  0  0  0  0  0  0
   -2.4982   -1.8315    0.4816 C   0  0  2  0  0  0  0  0  0  0  0  0
   -3.0451   -0.7143    1.4092 C   0  0  0  0  0  0  0  0  0  0  0  0
    0.0423   -1.9462   -1.6464 H   0  0  0  0  0  0  0  0  0  0  0  0
    0.0104    0.3874   -3.0132 H   0  0  0  0  0  0  0  0  0  0  0  0
   -1.9294    1.9736   -2.0113 H   0  0  0  0  0  0  0  0  0  0  0  0
   -3.9751    1.1752    0.5423 H   0  0  0  0  0  0  0  0  0  0  0  0
   -5.4888   -0.7865    0.0054 H   0  0  0  0  0  0  0  0  0  0  0  0
   -4.6516   -0.4879   -1.5448 H   0  0  0  0  0  0  0  0  0  0  0  0
   -3.5367   -2.6301   -1.3186 H   0  0  0  0  0  0  0  0  0  0  0  0
   -4.4141   -2.8884    0.2167 H   0  0  0  0  0  0  0  0  0  0  0  0
   -2.0280   -2.7082    0.9650 H   0  0  0  0  0  0  0  0  0  0  0  0
   -3.8714   -1.0644    2.0605 H   0  0  0  0  0  0  0  0  0  0  0  0
   -2.2664   -0.2236    2.0225 H   0  0  0  0  0  0  0  0  0  0  0  0
  1  9  1  0  0  0  0
  2  1  1  0  0  0  0
  3  4  1  0  0  0  0
  3  2  1  0  0  0  0
  4  5  1  0  0  0  0
  5  1  2  0  0  0  0
  5  6  1  0  0  0  0
  6 14  1  1  0  0  0
  6 10  1  0  0  0  0
  7  8  1  0  0  0  0
  7 15  1  0  0  0  0
  7  6  1  0  0  0  0
  8 18  1  0  0  0  0
  8  9  1  0  0  0  0
  9 19  1  1  0  0  0
  9 10  1  0  0  0  0
 10 21  1  0  0  0  0
 10 20  1  0  0  0  0
 11  2  1  0  0  0  0
 12  3  1  0  0  0  0
 13  4  1  0  0  0  0
 16  7  1  0  0  0  0
 17  8  1  0  0  0  0
M  END
