3
 OpenBabel05122313113D

 14 13  0  0  0  0  0  0  0  0999 V2000
   -0.9580   -0.2120   -1.5501 O   0  0  0  0  0  0  0  0  0  0  0  0
   -5.3614   -2.3356   -1.3509 O   0  0  0  0  0  0  0  0  0  0  0  0
   -1.5460   -0.7273   -0.5488 C   0  0  0  0  0  3  0  0  0  0  0  0
   -2.9384   -1.2369   -0.5677 C   0  0  0  0  0  0  0  0  0  0  0  0
   -3.8570   -0.4742   -1.5187 C   0  0  0  0  0  0  0  0  0  0  0  0
   -5.1811   -1.1919   -1.7433 C   0  0  0  0  0  0  0  0  0  0  0  0
   -6.2515   -0.4082   -2.4767 C   0  0  0  0  0  0  0  0  0  0  0  0
   -3.3459   -1.2543    0.4586 H   0  0  0  0  0  0  0  0  0  0  0  0
   -2.8826   -2.3052   -0.8825 H   0  0  0  0  0  0  0  0  0  0  0  0
   -4.0287    0.5556   -1.1408 H   0  0  0  0  0  0  0  0  0  0  0  0
   -3.3696   -0.3445   -2.5109 H   0  0  0  0  0  0  0  0  0  0  0  0
   -5.8437    0.0697   -3.3908 H   0  0  0  0  0  0  0  0  0  0  0  0
   -6.6146    0.4151   -1.8254 H   0  0  0  0  0  0  0  0  0  0  0  0
   -7.0981   -1.0703   -2.7328 H   0  0  0  0  0  0  0  0  0  0  0  0
  1  3  2  0  0  0  0
  4  3  1  0  0  0  0
  4  8  1  0  0  0  0
  5 10  1  0  0  0  0
  5  4  1  0  0  0  0
  6  5  1  0  0  0  0
  6  2  2  0  0  0  0
  7 13  1  0  0  0  0
  7  6  1  0  0  0  0
  9  4  1  0  0  0  0
 11  5  1  0  0  0  0
 12  7  1  0  0  0  0
 14  7  1  0  0  0  0
M  END
