6
 OpenBabel05122313113D

 18 17  0  0  0  0  0  0  0  0999 V2000
    0.4479    3.2731   -0.1035 O   0  0  0  0  0  0  0  0  0  0  0  0
   -2.9775    0.6497    0.4285 O   0  0  0  0  0  0  0  0  0  0  0  0
   -2.5717   -0.9209   -1.1635 O   0  0  0  0  0  0  0  0  0  0  0  0
    1.4411    2.6011    0.1427 C   0  0  0  0  0  0  0  0  0  0  0  0
    1.9090    1.3820   -0.5528 C   0  0  0  0  0  3  0  0  0  0  0  0
    1.3340    0.6913   -1.6876 C   0  0  0  0  0  3  0  0  0  0  0  0
   -0.0429    0.3481   -1.7147 C   0  0  0  0  0  3  0  0  0  0  0  0
   -0.8834    0.7122   -0.6126 C   0  0  0  0  0  3  0  0  0  0  0  0
   -2.2086    0.0452   -0.5091 C   0  0  0  0  0  0  0  0  0  0  0  0
   -4.2718    0.0691    0.6242 C   0  0  0  0  0  0  0  0  0  0  0  0
    2.1377    2.8956    0.9845 H   0  0  0  0  0  0  0  0  0  0  0  0
    3.0033    1.2688   -0.4507 H   0  0  0  0  0  0  0  0  0  0  0  0
    1.9962    0.2801   -2.4664 H   0  0  0  0  0  0  0  0  0  0  0  0
   -0.4288   -0.3312   -2.4921 H   0  0  0  0  0  0  0  0  0  0  0  0
   -0.8127    1.7216   -0.1803 H   0  0  0  0  0  0  0  0  0  0  0  0
   -4.1855   -0.9992    0.9088 H   0  0  0  0  0  0  0  0  0  0  0  0
   -4.8759    0.1304   -0.3036 H   0  0  0  0  0  0  0  0  0  0  0  0
   -4.7488    0.6492    1.4337 H   0  0  0  0  0  0  0  0  0  0  0  0
  1  4  2  0  0  0  0
  2 10  1  0  0  0  0
  3  9  2  0  0  0  0
  4 11  1  0  0  0  0
  5 12  1  0  0  0  0
  5  4  1  0  0  0  0
  6  5  1  0  0  0  0
  7  6  1  0  0  0  0
  7  8  1  0  0  0  0
  8  9  1  0  0  0  0
  8 15  1  0  0  0  0
  9  2  1  0  0  0  0
 10 16  1  0  0  0  0
 10 18  1  0  0  0  0
 13  6  1  0  0  0  0
 14  7  1  0  0  0  0
 17 10  1  0  0  0  0
M  END
