1
 OpenBabel05122313113D

 55 58  0  0  1  0  0  0  0  0999 V2000
   -0.5507    0.3497    0.3639 C   0  0  2  0  0  3  0  0  0  0  0  0
   -0.4467   -1.0269    0.7729 C   0  0  1  0  0  3  0  0  0  0  0  0
    0.8557   -1.1528    1.4090 C   0  0  0  0  0  0  0  0  0  0  0  0
    1.5129    0.1239    1.3719 C   0  0  0  0  0  0  0  0  0  0  0  0
    0.6367    1.0844    0.7222 C   0  0  2  0  0  3  0  0  0  0  0  0
    1.4577   -2.3502    2.0924 C   0  0  0  0  0  0  0  0  0  0  0  0
    1.2357   -3.2773    1.5265 H   0  0  0  0  0  0  0  0  0  0  0  0
    0.9701   -2.4716    3.0860 H   0  0  0  0  0  0  0  0  0  0  0  0
    2.9668   -2.1500    2.2924 C   0  0  0  0  0  0  0  0  0  0  0  0
    3.3726   -2.9677    2.9213 H   0  0  0  0  0  0  0  0  0  0  0  0
    3.4795   -2.2167    1.3072 H   0  0  0  0  0  0  0  0  0  0  0  0
    3.2572   -0.7862    2.9371 C   0  0  0  0  0  0  0  0  0  0  0  0
    4.3322   -0.6956    3.1921 H   0  0  0  0  0  0  0  0  0  0  0  0
    2.7015   -0.7236    3.8990 H   0  0  0  0  0  0  0  0  0  0  0  0
    2.8445    0.3891    2.0322 C   0  0  0  0  0  0  0  0  0  0  0  0
    2.7708    1.3303    2.6167 H   0  0  0  0  0  0  0  0  0  0  0  0
    3.6253    0.5741    1.2663 H   0  0  0  0  0  0  0  0  0  0  0  0
   -2.7483    1.1747    0.5059 C   0  0  0  0  0  0  0  0  0  0  0  0
   -3.8861    1.7158   -0.3574 C   0  0  0  0  0  0  0  0  0  0  0  0
   -5.1252    1.8925    0.5311 C   0  0  0  0  0  0  0  0  0  0  0  0
   -5.4486    0.9249    0.9625 H   0  0  0  0  0  0  0  0  0  0  0  0
   -5.9609    2.3067   -0.0671 H   0  0  0  0  0  0  0  0  0  0  0  0
   -4.9194    2.5810    1.3733 H   0  0  0  0  0  0  0  0  0  0  0  0
   -3.4322    3.0764   -0.9358 C   0  0  0  0  0  0  0  0  0  0  0  0
   -3.1900    3.7973   -0.1290 H   0  0  0  0  0  0  0  0  0  0  0  0
   -4.2490    3.5078   -1.5492 H   0  0  0  0  0  0  0  0  0  0  0  0
   -2.5361    2.9615   -1.5752 H   0  0  0  0  0  0  0  0  0  0  0  0
   -4.1750    0.7271   -1.5069 C   0  0  0  0  0  0  0  0  0  0  0  0
   -3.2943    0.6110   -2.1674 H   0  0  0  0  0  0  0  0  0  0  0  0
   -5.0205    1.1061   -2.1161 H   0  0  0  0  0  0  0  0  0  0  0  0
   -4.4507   -0.2731   -1.1166 H   0  0  0  0  0  0  0  0  0  0  0  0
   -1.5316   -2.0291    0.6913 C   0  0  0  0  0  0  0  0  0  0  0  0
   -1.9643   -2.6861    1.8630 C   0  0  0  0  0  0  0  0  0  0  0  0
   -1.4768   -2.4573    2.8220 H   0  0  0  0  0  0  0  0  0  0  0  0
   -3.0253   -3.6014    1.8161 C   0  0  0  0  0  0  0  0  0  0  0  0
   -3.3505   -4.1063    2.7384 H   0  0  0  0  0  0  0  0  0  0  0  0
   -3.6777   -3.8647    0.6017 C   0  0  0  0  0  0  0  0  0  0  0  0
   -4.5107   -4.5829    0.5658 H   0  0  0  0  0  0  0  0  0  0  0  0
   -3.2585   -3.2109   -0.5686 C   0  0  0  0  0  0  0  0  0  0  0  0
   -3.7581   -3.4184   -1.5270 H   0  0  0  0  0  0  0  0  0  0  0  0
   -2.1905   -2.3047   -0.5264 C   0  0  0  0  0  0  0  0  0  0  0  0
   -1.8422   -1.8114   -1.4458 H   0  0  0  0  0  0  0  0  0  0  0  0
    0.8067    2.5530    0.6501 C   0  0  0  0  0  0  0  0  0  0  0  0
   -0.1557    3.3809    1.2707 C   0  0  0  0  0  0  0  0  0  0  0  0
   -1.0056    2.9177    1.7941 H   0  0  0  0  0  0  0  0  0  0  0  0
   -0.0161    4.7761    1.2435 C   0  0  0  0  0  0  0  0  0  0  0  0
   -0.7749    5.4086    1.7292 H   0  0  0  0  0  0  0  0  0  0  0  0
    1.0899    5.3632    0.6094 C   0  0  0  0  0  0  0  0  0  0  0  0
    1.1986    6.4582    0.5882 H   0  0  0  0  0  0  0  0  0  0  0  0
    2.0574    4.5468    0.0015 C   0  0  0  0  0  0  0  0  0  0  0  0
    2.9250    4.9995   -0.5018 H   0  0  0  0  0  0  0  0  0  0  0  0
    1.9159    3.1523    0.0169 C   0  0  0  0  0  0  0  0  0  0  0  0
    2.6583    2.5164   -0.4868 H   0  0  0  0  0  0  0  0  0  0  0  0
   -1.6395    0.8945   -0.2792 O   0  0  0  0  0  0  0  0  0  0  0  0
   -2.7426    1.0208    1.7064 O   0  0  0  0  0  0  0  0  0  0  0  0
  1 54  1  1  0  0  0
  1  5  1  0  0  0  0
  1  2  1  0  0  0  0
  2 32  1  1  0  0  0
  2  3  1  0  0  0  0
  3  6  1  0  0  0  0
  4  3  2  0  0  0  0
  4 15  1  0  0  0  0
  5 43  1  1  0  0  0
  5  4  1  0  0  0  0
  6  9  1  0  0  0  0
  6  8  1  0  0  0  0
  7  6  1  0  0  0  0
  9 10  1  0  0  0  0
  9 12  1  0  0  0  0
 11  9  1  0  0  0  0
 12 13  1  0  0  0  0
 12 14  1  0  0  0  0
 15 16  1  0  0  0  0
 15 12  1  0  0  0  0
 17 15  1  0  0  0  0
 18 55  2  0  0  0  0
 19 18  1  0  0  0  0
 19 20  1  0  0  0  0
 20 21  1  0  0  0  0
 20 23  1  0  0  0  0
 22 20  1  0  0  0  0
 24 19  1  0  0  0  0
 24 25  1  0  0  0  0
 26 24  1  0  0  0  0
 27 24  1  0  0  0  0
 28 31  1  0  0  0  0
 28 19  1  0  0  0  0
 29 28  1  0  0  0  0
 30 28  1  0  0  0  0
 32 33  1  0  0  0  0
 33 34  1  0  0  0  0
 35 33  2  0  0  0  0
 35 36  1  0  0  0  0
 37 35  1  0  0  0  0
 38 37  1  0  0  0  0
 39 41  1  0  0  0  0
 39 37  2  0  0  0  0
 40 39  1  0  0  0  0
 41 32  2  0  0  0  0
 42 41  1  0  0  0  0
 43 44  1  0  0  0  0
 44 45  1  0  0  0  0
 46 44  2  0  0  0  0
 46 47  1  0  0  0  0
 48 46  1  0  0  0  0
 49 48  1  0  0  0  0
 50 52  1  0  0  0  0
 50 48  2  0  0  0  0
 51 50  1  0  0  0  0
 52 43  2  0  0  0  0
 53 52  1  0  0  0  0
 54 18  1  0  0  0  0
M  END
