3
 OpenBabel05122313113D

 22 23  0  0  0  0  0  0  0  0999 V2000
    1.5564   -1.6813   -0.0769 N   0  0  0  0  0  0  0  0  0  0  0  0
    3.8445   -1.3531    0.2897 N   0  0  0  0  0  0  0  0  0  0  0  0
    0.0278   -0.4987    1.4105 C   0  0  0  0  0  3  0  0  0  0  0  0
   -0.4551   -0.2148    2.6973 C   0  0  0  0  0  0  0  0  0  0  0  0
    0.1665   -0.7806    3.8242 C   0  0  0  0  0  0  0  0  0  0  0  0
    1.2682   -1.6338    3.6475 C   0  0  0  0  0  0  0  0  0  0  0  0
    1.7389   -1.9372    2.3652 C   0  0  0  0  0  0  0  0  0  0  0  0
    1.1195   -1.3768    1.2243 C   0  0  0  0  0  0  0  0  0  0  0  0
    2.8749   -1.8315   -0.5079 C   0  0  0  0  0  0  0  0  0  0  0  0
    3.1404   -2.4256   -1.7661 C   0  0  0  0  0  0  0  0  0  0  0  0
    4.4682   -2.5054   -2.1897 C   0  0  0  0  0  0  0  0  0  0  0  0
    5.4904   -2.0179   -1.3552 C   0  0  0  0  0  0  0  0  0  0  0  0
    5.1185   -1.4605   -0.1248 C   0  0  0  0  0  0  0  0  0  0  0  0
    0.8428   -1.6932   -0.8065 H   0  0  0  0  0  0  0  0  0  0  0  0
   -1.2989    0.4796    2.8342 H   0  0  0  0  0  0  0  0  0  0  0  0
   -0.2056   -0.5462    4.8323 H   0  0  0  0  0  0  0  0  0  0  0  0
    1.7646   -2.0793    4.5222 H   0  0  0  0  0  0  0  0  0  0  0  0
    2.5981   -2.6070    2.2310 H   0  0  0  0  0  0  0  0  0  0  0  0
    2.3203   -2.8191   -2.3858 H   0  0  0  0  0  0  0  0  0  0  0  0
    4.7083   -2.9585   -3.1633 H   0  0  0  0  0  0  0  0  0  0  0  0
    6.5476   -2.0736   -1.6495 H   0  0  0  0  0  0  0  0  0  0  0  0
    5.8847   -1.0663    0.5653 H   0  0  0  0  0  0  0  0  0  0  0  0
  1  8  1  0  0  0  0
  3  4  1  0  0  0  0
  4 15  1  0  0  0  0
  4  5  2  0  0  0  0
  5 16  1  0  0  0  0
  6  5  1  0  0  0  0
  6 17  1  0  0  0  0
  7  6  2  0  0  0  0
  8  3  2  0  0  0  0
  8  7  1  0  0  0  0
  9  1  1  0  0  0  0
  9  2  2  0  0  0  0
 10  9  1  0  0  0  0
 11 10  2  0  0  0  0
 11 12  1  0  0  0  0
 12 13  2  0  0  0  0
 13  2  1  0  0  0  0
 13 22  1  0  0  0  0
 14  1  1  0  0  0  0
 18  7  1  0  0  0  0
 19 10  1  0  0  0  0
 20 11  1  0  0  0  0
 21 12  1  0  0  0  0
M  END
