3
 OpenBabel05122313113D

 22 21  0  0  0  0  0  0  0  0999 V2000
   -3.3623    0.2839    1.2732 S   0  0  0  0  0  0  0  0  0  0  0  0
   -1.2677    1.9922   -0.5570 N   0  0  0  0  0  0  0  0  0  0  0  0
   -0.9172    0.7648   -0.1740 C   0  0  0  0  0  2  0  0  0  0  0  0
   -2.8055   -0.7319   -1.5375 S   0  0  0  0  0  0  0  0  0  0  0  0
   -2.0502   -0.2280    0.0628 C   0  0  0  0  0  0  0  0  0  0  0  0
   -1.6048   -1.1471    0.4833 H   0  0  0  0  0  0  0  0  0  0  0  0
   -0.2807    3.0568   -0.7379 C   0  0  0  0  0  0  0  0  0  0  0  0
    0.6409    2.8140   -0.1877 H   0  0  0  0  0  0  0  0  0  0  0  0
   -0.7014    4.0087   -0.3572 H   0  0  0  0  0  0  0  0  0  0  0  0
   -0.0384    3.1822   -1.8133 H   0  0  0  0  0  0  0  0  0  0  0  0
   -2.6257    2.4637   -0.8799 C   0  0  0  0  0  0  0  0  0  0  0  0
   -3.3266    1.6284   -1.0398 H   0  0  0  0  0  0  0  0  0  0  0  0
   -2.5700    3.0590   -1.8135 H   0  0  0  0  0  0  0  0  0  0  0  0
   -3.0096    3.1069   -0.0626 H   0  0  0  0  0  0  0  0  0  0  0  0
   -2.4450    0.1150    2.8403 C   0  0  0  0  0  0  0  0  0  0  0  0
   -2.0832   -0.9201    2.9932 H   0  0  0  0  0  0  0  0  0  0  0  0
   -3.1659    0.3657    3.6423 H   0  0  0  0  0  0  0  0  0  0  0  0
   -1.5906    0.8173    2.8930 H   0  0  0  0  0  0  0  0  0  0  0  0
   -3.3625   -2.3954   -1.0618 C   0  0  0  0  0  0  0  0  0  0  0  0
   -2.4990   -3.0813   -0.9545 H   0  0  0  0  0  0  0  0  0  0  0  0
   -4.0197   -2.7581   -1.8748 H   0  0  0  0  0  0  0  0  0  0  0  0
   -3.9423   -2.3350   -0.1193 H   0  0  0  0  0  0  0  0  0  0  0  0
  1 15  1  0  0  0  0
  2  3  1  0  0  0  0
  3  5  1  0  0  0  0
  4 19  1  0  0  0  0
  4  5  1  0  0  0  0
  5  6  1  0  0  0  0
  5  1  1  0  0  0  0
  7  2  1  0  0  0  0
  7  9  1  0  0  0  0
  7  8  1  0  0  0  0
 10  7  1  0  0  0  0
 11  2  1  0  0  0  0
 11 14  1  0  0  0  0
 12 11  1  0  0  0  0
 13 11  1  0  0  0  0
 15 18  1  0  0  0  0
 15 16  1  0  0  0  0
 15 17  1  0  0  0  0
 19 20  1  0  0  0  0
 19 22  1  0  0  0  0
 21 19  1  0  0  0  0
M  END
