4
 OpenBabel05122313113D

 34 35  0  0  0  0  0  0  0  0999 V2000
    0.3845    1.2684   -1.2236 O   0  0  0  0  0  0  0  0  0  0  0  0
   -2.9443   -0.9251   -0.0676 N   0  0  0  0  0  0  0  0  0  0  0  0
   -2.9036   -2.1879   -0.5704 N   0  0  0  0  0  0  0  0  0  0  0  0
    0.6424    0.1147   -0.6229 C   0  0  0  0  0  2  0  0  0  0  0  0
   -0.5961   -0.6313   -0.4586 C   0  0  0  0  0  0  0  0  0  0  0  0
   -0.5508   -1.7285   -0.5040 H   0  0  0  0  0  0  0  0  0  0  0  0
   -1.8214   -0.0840   -0.1595 C   0  0  0  0  0  0  0  0  0  0  0  0
   -2.0492    1.3435    0.1841 C   0  0  0  0  0  0  0  0  0  0  0  0
   -1.3131    1.9354    1.2331 C   0  0  0  0  0  0  0  0  0  0  0  0
   -1.4981    3.2863    1.5546 C   0  0  0  0  0  0  0  0  0  0  0  0
   -0.9154    3.7344    2.3734 H   0  0  0  0  0  0  0  0  0  0  0  0
   -2.4229    4.0618    0.8354 C   0  0  0  0  0  0  0  0  0  0  0  0
   -3.1658    3.4772   -0.2036 C   0  0  0  0  0  0  0  0  0  0  0  0
   -2.9857    2.1247   -0.5256 C   0  0  0  0  0  0  0  0  0  0  0  0
   -3.5575    1.6705   -1.3487 H   0  0  0  0  0  0  0  0  0  0  0  0
    1.3543    2.3184   -1.4176 C   0  0  0  0  0  0  0  0  0  0  0  0
    2.0522    1.9969   -2.2165 H   0  0  0  0  0  0  0  0  0  0  0  0
    1.9359    2.4537   -0.4854 H   0  0  0  0  0  0  0  0  0  0  0  0
    0.5942    3.5722   -1.8015 C   0  0  0  0  0  0  0  0  0  0  0  0
    0.0080    3.4130   -2.7278 H   0  0  0  0  0  0  0  0  0  0  0  0
    1.3081    4.4003   -1.9795 H   0  0  0  0  0  0  0  0  0  0  0  0
   -0.1032    3.8748   -0.9958 H   0  0  0  0  0  0  0  0  0  0  0  0
   -4.1477   -0.6594    0.5639 C   0  0  0  0  0  0  0  0  0  0  0  0
   -4.9110   -1.8044    0.4476 C   0  0  0  0  0  0  0  0  0  0  0  0
   -5.9254   -1.9636    0.8284 H   0  0  0  0  0  0  0  0  0  0  0  0
   -4.0851   -2.7328   -0.2701 C   0  0  0  0  0  0  0  0  0  0  0  0
   -4.4090   -4.1333   -0.6798 C   0  0  0  0  0  0  0  0  0  0  0  0
   -3.5493   -4.5784   -1.2138 H   0  0  0  0  0  0  0  0  0  0  0  0
   -5.2948   -4.1625   -1.3472 H   0  0  0  0  0  0  0  0  0  0  0  0
   -4.6436   -4.7641    0.2022 H   0  0  0  0  0  0  0  0  0  0  0  0
   -0.5892    1.3252    1.7933 H   0  0  0  0  0  0  0  0  0  0  0  0
   -2.5674    5.1234    1.0870 H   0  0  0  0  0  0  0  0  0  0  0  0
   -3.8887    4.0814   -0.7723 H   0  0  0  0  0  0  0  0  0  0  0  0
   -4.3388    0.3051    1.0431 H   0  0  0  0  0  0  0  0  0  0  0  0
  1  4  1  0  0  0  0
  2 23  1  0  0  0  0
  3 26  2  0  0  0  0
  3  2  1  0  0  0  0
  4  5  1  0  0  0  0
  5  7  2  0  0  0  0
  6  5  1  0  0  0  0
  7  2  1  0  0  0  0
  7  8  1  0  0  0  0
  8  9  1  0  0  0  0
  9 10  2  0  0  0  0
  9 31  1  0  0  0  0
 10 11  1  0  0  0  0
 12 32  1  0  0  0  0
 12 10  1  0  0  0  0
 13 12  2  0  0  0  0
 14 13  1  0  0  0  0
 14  8  2  0  0  0  0
 15 14  1  0  0  0  0
 16  1  1  0  0  0  0
 16 18  1  0  0  0  0
 17 16  1  0  0  0  0
 19 16  1  0  0  0  0
 19 22  1  0  0  0  0
 20 19  1  0  0  0  0
 21 19  1  0  0  0  0
 23 34  1  0  0  0  0
 24 23  2  0  0  0  0
 24 25  1  0  0  0  0
 26 24  1  0  0  0  0
 27 26  1  0  0  0  0
 27 30  1  0  0  0  0
 28 27  1  0  0  0  0
 29 27  1  0  0  0  0
 33 13  1  0  0  0  0
M  END
