4
 OpenBabel05122313113D

 55 56  0  0  0  0  0  0  0  0999 V2000
   -0.9378    1.0362   -1.8307 O   0  0  0  0  0  0  0  0  0  0  0  0
    2.6507   -0.0636   -0.0280 N   0  0  0  0  0  0  0  0  0  0  0  0
    3.0656   -0.9871   -0.9484 N   0  0  0  0  0  0  0  0  0  0  0  0
   -1.0243    0.1215   -0.8763 C   0  0  0  0  0  2  0  0  0  0  0  0
    0.3165   -0.2910   -0.4718 C   0  0  0  0  0  0  0  0  0  0  0  0
    0.4610   -1.3554   -0.2339 H   0  0  0  0  0  0  0  0  0  0  0  0
    1.3912    0.5405   -0.2748 C   0  0  0  0  0  0  0  0  0  0  0  0
    1.3567    2.0160   -0.3663 C   0  0  0  0  0  0  0  0  0  0  0  0
    0.3318    2.7712    0.2449 C   0  0  0  0  0  0  0  0  0  0  0  0
   -0.4491    2.2555    0.8237 H   0  0  0  0  0  0  0  0  0  0  0  0
    0.3119    4.1656    0.1259 C   0  0  0  0  0  0  0  0  0  0  0  0
   -0.4866    4.7424    0.6165 H   0  0  0  0  0  0  0  0  0  0  0  0
    1.3123    4.8248   -0.6105 C   0  0  0  0  0  0  0  0  0  0  0  0
    1.2975    5.9214   -0.7020 H   0  0  0  0  0  0  0  0  0  0  0  0
    2.3356    4.0805   -1.2208 C   0  0  0  0  0  0  0  0  0  0  0  0
    3.1204    4.5923   -1.7979 H   0  0  0  0  0  0  0  0  0  0  0  0
    2.3653    2.6857   -1.0924 C   0  0  0  0  0  0  0  0  0  0  0  0
    3.1654    2.0957   -1.5636 H   0  0  0  0  0  0  0  0  0  0  0  0
   -2.0879    1.7571   -2.3226 C   0  0  0  0  0  0  0  0  0  0  0  0
   -2.6943    2.0896   -1.4563 H   0  0  0  0  0  0  0  0  0  0  0  0
   -2.7029    1.0550   -2.9219 H   0  0  0  0  0  0  0  0  0  0  0  0
   -1.5776    2.9201   -3.1483 C   0  0  0  0  0  0  0  0  0  0  0  0
   -0.9585    3.6000   -2.5304 H   0  0  0  0  0  0  0  0  0  0  0  0
   -2.4339    3.4936   -3.5545 H   0  0  0  0  0  0  0  0  0  0  0  0
   -0.9630    2.5633   -3.9979 H   0  0  0  0  0  0  0  0  0  0  0  0
    3.5611    0.0892    1.0196 C   0  0  0  0  0  0  0  0  0  0  0  0
    4.6066   -0.7746    0.7037 C   0  0  0  0  0  0  0  0  0  0  0  0
    5.5021   -0.9489    1.3067 H   0  0  0  0  0  0  0  0  0  0  0  0
    4.2561   -1.4123   -0.5240 C   0  0  0  0  0  0  0  0  0  0  0  0
    5.0598   -2.4332   -1.3098 C   0  0  0  0  0  0  0  0  0  0  0  0
    4.2759   -2.8882   -2.5518 C   0  0  0  0  0  0  0  0  0  0  0  0
    4.0465   -2.0319   -3.2149 H   0  0  0  0  0  0  0  0  0  0  0  0
    3.3099   -3.3490   -2.2678 H   0  0  0  0  0  0  0  0  0  0  0  0
    4.8675   -3.6317   -3.1236 H   0  0  0  0  0  0  0  0  0  0  0  0
    5.3472   -3.6500   -0.4028 C   0  0  0  0  0  0  0  0  0  0  0  0
    5.9442   -4.4076   -0.9513 H   0  0  0  0  0  0  0  0  0  0  0  0
    4.4041   -4.1286   -0.0704 H   0  0  0  0  0  0  0  0  0  0  0  0
    5.9188   -3.3590    0.5018 H   0  0  0  0  0  0  0  0  0  0  0  0
    6.3952   -1.7897   -1.7449 C   0  0  0  0  0  0  0  0  0  0  0  0
    6.9858   -1.4491   -0.8702 H   0  0  0  0  0  0  0  0  0  0  0  0
    6.2171   -0.9117   -2.3979 H   0  0  0  0  0  0  0  0  0  0  0  0
    7.0118   -2.5199   -2.3088 H   0  0  0  0  0  0  0  0  0  0  0  0
    3.3683    0.8968    2.3014 C   0  0  0  0  0  0  0  0  0  0  0  0
    1.9469    0.6938    2.8687 C   0  0  0  0  0  0  0  0  0  0  0  0
    1.1658    1.1121    2.2081 H   0  0  0  0  0  0  0  0  0  0  0  0
    1.8587    1.2077    3.8472 H   0  0  0  0  0  0  0  0  0  0  0  0
    1.7198   -0.3792    3.0230 H   0  0  0  0  0  0  0  0  0  0  0  0
    3.6516    2.4035    2.0944 C   0  0  0  0  0  0  0  0  0  0  0  0
    4.6521    2.5575    1.6429 H   0  0  0  0  0  0  0  0  0  0  0  0
    3.6338    2.9215    3.0752 H   0  0  0  0  0  0  0  0  0  0  0  0
    2.9032    2.8887    1.4441 H   0  0  0  0  0  0  0  0  0  0  0  0
    4.3758    0.3734    3.3488 C   0  0  0  0  0  0  0  0  0  0  0  0
    4.2427   -0.7106    3.5348 H   0  0  0  0  0  0  0  0  0  0  0  0
    4.2243    0.9093    4.3070 H   0  0  0  0  0  0  0  0  0  0  0  0
    5.4234    0.5476    3.0325 H   0  0  0  0  0  0  0  0  0  0  0  0
  1  4  1  0  0  0  0
  2 26  1  0  0  0  0
  3 29  2  0  0  0  0
  3  2  1  0  0  0  0
  4  5  1  0  0  0  0
  5  7  2  0  0  0  0
  5  6  1  0  0  0  0
  7  2  1  0  0  0  0
  8  7  1  0  0  0  0
  8  9  1  0  0  0  0
  9 10  1  0  0  0  0
 11  9  2  0  0  0  0
 11 12  1  0  0  0  0
 13 11  1  0  0  0  0
 14 13  1  0  0  0  0
 15 17  1  0  0  0  0
 15 13  2  0  0  0  0
 16 15  1  0  0  0  0
 17  8  2  0  0  0  0
 18 17  1  0  0  0  0
 19  1  1  0  0  0  0
 19 20  1  0  0  0  0
 21 19  1  0  0  0  0
 22 23  1  0  0  0  0
 22 19  1  0  0  0  0
 24 22  1  0  0  0  0
 25 22  1  0  0  0  0
 26 43  1  0  0  0  0
 27 26  2  0  0  0  0
 27 28  1  0  0  0  0
 29 27  1  0  0  0  0
 30 29  1  0  0  0  0
 30 35  1  0  0  0  0
 31 33  1  0  0  0  0
 31 30  1  0  0  0  0
 32 31  1  0  0  0  0
 34 31  1  0  0  0  0
 35 37  1  0  0  0  0
 35 38  1  0  0  0  0
 36 35  1  0  0  0  0
 39 30  1  0  0  0  0
 39 40  1  0  0  0  0
 41 39  1  0  0  0  0
 42 39  1  0  0  0  0
 43 44  1  0  0  0  0
 43 52  1  0  0  0  0
 44 47  1  0  0  0  0
 44 46  1  0  0  0  0
 45 44  1  0  0  0  0
 48 43  1  0  0  0  0
 48 50  1  0  0  0  0
 49 48  1  0  0  0  0
 51 48  1  0  0  0  0
 52 53  1  0  0  0  0
 52 54  1  0  0  0  0
 55 52  1  0  0  0  0
M  END
