3
 OpenBabel05122313113D

 33 33  0  0  0  0  0  0  0  0999 V2000
    0.1899   -1.1876    1.5713 N   0  0  0  0  0  0  0  0  0  0  0  0
    2.5774    2.3131    0.2637 N   0  0  0  0  0  0  0  0  0  0  0  0
   -0.2668   -0.1435    0.8607 C   0  0  0  0  0  2  0  0  0  0  0  0
    0.5795    1.0367    0.7726 C   0  0  0  0  0  0  0  0  0  0  0  0
    0.0491    1.9942    0.8750 H   0  0  0  0  0  0  0  0  0  0  0  0
    1.8869    1.1068    0.3128 C   0  0  0  0  0  0  0  0  0  0  0  0
   -0.4163   -2.5139    1.5568 C   0  0  0  0  0  0  0  0  0  0  0  0
   -1.1895   -2.5734    0.7789 H   0  0  0  0  0  0  0  0  0  0  0  0
   -0.8692   -2.7478    2.5429 H   0  0  0  0  0  0  0  0  0  0  0  0
    0.3698   -3.2676    1.3422 H   0  0  0  0  0  0  0  0  0  0  0  0
    1.3508   -1.1395    2.4653 C   0  0  0  0  0  0  0  0  0  0  0  0
    2.2209   -1.6646    2.0197 H   0  0  0  0  0  0  0  0  0  0  0  0
    1.0852   -1.6427    3.4177 H   0  0  0  0  0  0  0  0  0  0  0  0
    1.6318   -0.0915    2.6642 H   0  0  0  0  0  0  0  0  0  0  0  0
    2.0092    3.4655    0.9333 C   0  0  0  0  0  0  0  0  0  0  0  0
    1.1348    3.8970    0.3874 H   0  0  0  0  0  0  0  0  0  0  0  0
    2.7810    4.2562    1.0143 H   0  0  0  0  0  0  0  0  0  0  0  0
    1.6742    3.1881    1.9517 H   0  0  0  0  0  0  0  0  0  0  0  0
    3.3644    2.6443   -0.9203 C   0  0  0  0  0  0  0  0  0  0  0  0
    3.8025    1.7317   -1.3612 H   0  0  0  0  0  0  0  0  0  0  0  0
    4.1882    3.3348   -0.6473 H   0  0  0  0  0  0  0  0  0  0  0  0
    2.7366    3.1377   -1.6996 H   0  0  0  0  0  0  0  0  0  0  0  0
    2.6248   -0.0941   -0.1648 C   0  0  0  0  0  0  0  0  0  0  0  0
    2.0083   -1.0230   -1.0293 C   0  0  0  0  0  0  0  0  0  0  0  0
    0.9925   -0.8222   -1.3958 H   0  0  0  0  0  0  0  0  0  0  0  0
    2.6838   -2.1846   -1.4271 C   0  0  0  0  0  0  0  0  0  0  0  0
    2.1824   -2.8973   -2.0992 H   0  0  0  0  0  0  0  0  0  0  0  0
    3.9923   -2.4293   -0.9778 C   0  0  0  0  0  0  0  0  0  0  0  0
    4.5233   -3.3410   -1.2910 H   0  0  0  0  0  0  0  0  0  0  0  0
    4.6244   -1.5003   -0.1340 C   0  0  0  0  0  0  0  0  0  0  0  0
    5.6512   -1.6842    0.2178 H   0  0  0  0  0  0  0  0  0  0  0  0
    3.9470   -0.3414    0.2698 C   0  0  0  0  0  0  0  0  0  0  0  0
    4.4303    0.3833    0.9428 H   0  0  0  0  0  0  0  0  0  0  0  0
  1 11  1  0  0  0  0
  2  6  1  0  0  0  0
  2 15  1  0  0  0  0
  3  1  1  0  0  0  0
  4  3  1  0  0  0  0
  4  5  1  0  0  0  0
  6  4  2  0  0  0  0
  7  1  1  0  0  0  0
  7  9  1  0  0  0  0
  8  7  1  0  0  0  0
 10  7  1  0  0  0  0
 11 14  1  0  0  0  0
 11 13  1  0  0  0  0
 12 11  1  0  0  0  0
 15 17  1  0  0  0  0
 15 18  1  0  0  0  0
 16 15  1  0  0  0  0
 19 21  1  0  0  0  0
 19  2  1  0  0  0  0
 20 19  1  0  0  0  0
 22 19  1  0  0  0  0
 23 32  1  0  0  0  0
 23  6  1  0  0  0  0
 24 23  2  0  0  0  0
 25 24  1  0  0  0  0
 26 24  1  0  0  0  0
 26 28  2  0  0  0  0
 27 26  1  0  0  0  0
 28 30  1  0  0  0  0
 29 28  1  0  0  0  0
 30 31  1  0  0  0  0
 30 32  2  0  0  0  0
 32 33  1  0  0  0  0
M  END
