1
 OpenBabel05122313113D

 31 30  0  0  0  0  0  0  0  0999 V2000
   -0.9828    0.1016    2.7593 C   0  0  0  0  0  3  0  0  0  0  0  0
   -1.8906   -0.5090    2.8513 H   0  0  0  0  0  0  0  0  0  0  0  0
   -1.0493    1.0460    3.3217 H   0  0  0  0  0  0  0  0  0  0  0  0
    0.3338   -0.4841    2.6875 C   0  0  0  0  0  0  0  0  0  0  0  0
    0.6258   -1.5371    1.7475 C   0  0  0  0  0  0  0  0  0  0  0  0
   -0.3068   -1.9716    0.7355 C   0  0  0  0  0  3  0  0  0  0  0  0
    0.1696   -2.5158   -0.0973 H   0  0  0  0  0  0  0  0  0  0  0  0
   -1.6987   -1.7202    0.6536 C   0  0  0  0  0  3  0  0  0  0  0  0
   -2.2577   -1.5200    1.5690 H   0  0  0  0  0  0  0  0  0  0  0  0
   -2.5329   -2.1420   -0.4737 C   0  0  0  0  0  0  0  0  0  0  0  0
   -3.8483   -1.7386   -0.4976 C   0  0  0  0  0  0  0  0  0  0  0  0
   -4.3953   -0.8143    0.5641 C   0  0  0  0  0  0  0  0  0  0  0  0
   -3.8276    0.1406    0.5910 H   0  0  0  0  0  0  0  0  0  0  0  0
   -4.3259   -1.2534    1.5831 H   0  0  0  0  0  0  0  0  0  0  0  0
   -5.4604   -0.5760    0.3844 H   0  0  0  0  0  0  0  0  0  0  0  0
    1.4397    0.0950    3.5372 C   0  0  0  0  0  0  0  0  0  0  0  0
    1.6446   -0.5821    4.3941 H   0  0  0  0  0  0  0  0  0  0  0  0
    1.1375    1.0750    3.9489 H   0  0  0  0  0  0  0  0  0  0  0  0
    2.3947    0.2257    2.9930 H   0  0  0  0  0  0  0  0  0  0  0  0
    1.9914   -2.1718    1.7274 C   0  0  0  0  0  0  0  0  0  0  0  0
    2.0370   -2.9491    2.5211 H   0  0  0  0  0  0  0  0  0  0  0  0
    2.8095   -1.4587    1.9262 H   0  0  0  0  0  0  0  0  0  0  0  0
    2.1982   -2.6628    0.7587 H   0  0  0  0  0  0  0  0  0  0  0  0
   -1.8910   -2.9742   -1.5547 C   0  0  0  0  0  0  0  0  0  0  0  0
   -1.1143   -2.3946   -2.0985 H   0  0  0  0  0  0  0  0  0  0  0  0
   -2.6135   -3.3257   -2.3109 H   0  0  0  0  0  0  0  0  0  0  0  0
   -1.3832   -3.8676   -1.1342 H   0  0  0  0  0  0  0  0  0  0  0  0
   -4.8242   -2.0937   -1.5826 C   0  0  0  0  0  0  0  0  0  0  0  0
   -4.4348   -2.8000   -2.3368 H   0  0  0  0  0  0  0  0  0  0  0  0
   -5.1492   -1.1728   -2.1154 H   0  0  0  0  0  0  0  0  0  0  0  0
   -5.7471   -2.5311   -1.1434 H   0  0  0  0  0  0  0  0  0  0  0  0
  1  2  1  0  0  0  0
  1  3  1  0  0  0  0
  4  1  1  0  0  0  0
  4 16  1  0  0  0  0
  5  4  2  0  0  0  0
  6  5  1  0  0  0  0
  7  6  1  0  0  0  0
  8  6  1  0  0  0  0
  8  9  1  0  0  0  0
 10  8  1  0  0  0  0
 11 10  2  0  0  0  0
 11 12  1  0  0  0  0
 12 13  1  0  0  0  0
 12 14  1  0  0  0  0
 15 12  1  0  0  0  0
 16 18  1  0  0  0  0
 16 17  1  0  0  0  0
 19 16  1  0  0  0  0
 20  5  1  0  0  0  0
 20 22  1  0  0  0  0
 20 21  1  0  0  0  0
 23 20  1  0  0  0  0
 24 27  1  0  0  0  0
 24 10  1  0  0  0  0
 25 24  1  0  0  0  0
 26 24  1  0  0  0  0
 28 31  1  0  0  0  0
 28 11  1  0  0  0  0
 29 28  1  0  0  0  0
 30 28  1  0  0  0  0
M  END
