1
 OpenBabel05122313113D

 31 30  0  0  1  0  0  0  0  0999 V2000
    0.4243   -2.2008    2.0222 C   0  0  0  0  0  3  0  0  0  0  0  0
    1.5155   -2.2727    2.1196 H   0  0  0  0  0  0  0  0  0  0  0  0
   -0.0595   -3.1892    1.9740 H   0  0  0  0  0  0  0  0  0  0  0  0
   -0.3390   -1.1693    2.6871 C   0  0  1  0  0  3  0  0  0  0  0  0
    0.0254    0.2152    2.5220 C   0  0  0  0  0  0  0  0  0  0  0  0
    1.1275    0.6577    1.6911 C   0  0  0  0  0  0  0  0  0  0  0  0
    1.0596    1.7256    1.4239 H   0  0  0  0  0  0  0  0  0  0  0  0
    2.1903   -0.0661    1.1150 C   0  0  0  0  0  3  0  0  0  0  0  0
    2.4427   -1.0566    1.4966 H   0  0  0  0  0  0  0  0  0  0  0  0
    3.2077    0.5004    0.2319 C   0  0  0  0  0  0  0  0  0  0  0  0
    4.0031   -0.3683   -0.4826 C   0  0  0  0  0  0  0  0  0  0  0  0
    3.7906   -1.8586   -0.4342 C   0  0  0  0  0  0  0  0  0  0  0  0
    2.7647   -2.1286   -0.7636 H   0  0  0  0  0  0  0  0  0  0  0  0
    3.9032   -2.2642    0.5954 H   0  0  0  0  0  0  0  0  0  0  0  0
    4.5137   -2.3936   -1.0780 H   0  0  0  0  0  0  0  0  0  0  0  0
   -1.5825   -1.5787    3.4377 C   0  0  0  0  0  0  0  0  0  0  0  0
   -1.3170   -1.7811    4.4976 H   0  0  0  0  0  0  0  0  0  0  0  0
   -1.9863   -2.5197    3.0179 H   0  0  0  0  0  0  0  0  0  0  0  0
   -2.3871   -0.8223    3.4371 H   0  0  0  0  0  0  0  0  0  0  0  0
   -0.7976    1.3297    3.1249 C   0  0  0  0  0  0  0  0  0  0  0  0
   -0.3138    1.6890    4.0583 H   0  0  0  0  0  0  0  0  0  0  0  0
   -1.8254    1.0267    3.3893 H   0  0  0  0  0  0  0  0  0  0  0  0
   -0.8570    2.1927    2.4322 H   0  0  0  0  0  0  0  0  0  0  0  0
    3.4040    2.0010    0.1362 C   0  0  0  0  0  0  0  0  0  0  0  0
    4.4299    2.2842    0.4502 H   0  0  0  0  0  0  0  0  0  0  0  0
    2.7073    2.5599    0.7856 H   0  0  0  0  0  0  0  0  0  0  0  0
    3.2670    2.3831   -0.8960 H   0  0  0  0  0  0  0  0  0  0  0  0
    5.0880    0.1017   -1.4076 C   0  0  0  0  0  0  0  0  0  0  0  0
    5.2561    1.1929   -1.3900 H   0  0  0  0  0  0  0  0  0  0  0  0
    4.8478   -0.1910   -2.4539 H   0  0  0  0  0  0  0  0  0  0  0  0
    6.0485   -0.4042   -1.1674 H   0  0  0  0  0  0  0  0  0  0  0  0
  1  2  1  0  0  0  0
  3  1  1  0  0  0  0
  4  1  1  6  0  0  0
  4 16  1  0  0  0  0
  5  4  1  0  0  0  0
  5 20  1  0  0  0  0
  6  5  2  0  0  0  0
  7  6  1  0  0  0  0
  8  9  1  0  0  0  0
  8  6  1  0  0  0  0
 10  8  1  0  0  0  0
 11 12  1  0  0  0  0
 11 10  2  0  0  0  0
 12 14  1  0  0  0  0
 13 12  1  0  0  0  0
 15 12  1  0  0  0  0
 16 17  1  0  0  0  0
 18 16  1  0  0  0  0
 19 16  1  0  0  0  0
 20 22  1  0  0  0  0
 20 21  1  0  0  0  0
 23 20  1  0  0  0  0
 24 10  1  0  0  0  0
 24 25  1  0  0  0  0
 24 26  1  0  0  0  0
 27 24  1  0  0  0  0
 28 29  1  0  0  0  0
 28 31  1  0  0  0  0
 28 11  1  0  0  0  0
 30 28  1  0  0  0  0
M  END
