3
 OpenBabel05122313113D

 25 26  0  0  0  0  0  0  0  0999 V2000
   -1.4504    0.6430    0.8397 N   0  0  0  0  0  0  0  0  0  0  0  0
   -0.0237    1.1030    2.4049 N   0  0  0  0  0  0  0  0  0  0  0  0
   -0.1109    0.6235    1.1254 C   0  0  0  0  0  2  0  0  0  0  0  0
    1.2376    1.3324    3.0979 C   0  0  0  0  0  0  0  0  0  0  0  0
    1.6796    0.3750    3.4369 H   0  0  0  0  0  0  0  0  0  0  0  0
    1.9265    1.8370    2.3927 H   0  0  0  0  0  0  0  0  0  0  0  0
    1.0495    1.9774    3.9753 H   0  0  0  0  0  0  0  0  0  0  0  0
   -1.9786    0.3223   -0.4936 C   0  0  0  0  0  0  0  0  0  0  0  0
   -1.7094    1.1545   -1.1710 H   0  0  0  0  0  0  0  0  0  0  0  0
   -1.4223   -0.5666   -0.8458 H   0  0  0  0  0  0  0  0  0  0  0  0
   -1.2820    1.4016    2.9080 C   0  0  0  0  0  0  0  0  0  0  0  0
   -1.4299    1.7949    3.9178 H   0  0  0  0  0  0  0  0  0  0  0  0
   -3.0072   -2.3363    0.7413 Cl  0  0  0  0  0  0  0  0  0  0  0  0
   -6.2680   -0.3580   -0.5230 C   0  0  0  0  0  0  0  0  0  0  0  0
   -7.3551   -0.5248   -0.5382 H   0  0  0  0  0  0  0  0  0  0  0  0
   -4.3516    1.0144   -1.0223 C   0  0  0  0  0  0  0  0  0  0  0  0
   -3.4585    0.0632   -0.4877 C   0  0  0  0  0  0  0  0  0  0  0  0
   -4.0408   -1.1113    0.0390 C   0  0  0  0  0  0  0  0  0  0  0  0
   -5.7382    0.8254   -1.0533 C   0  0  0  0  0  0  0  0  0  0  0  0
   -6.3742    1.6078   -1.4896 H   0  0  0  0  0  0  0  0  0  0  0  0
   -5.4255   -1.3349    0.0280 C   0  0  0  0  0  0  0  0  0  0  0  0
   -5.8282   -2.2667    0.4469 H   0  0  0  0  0  0  0  0  0  0  0  0
   -3.8468    2.1530   -1.5226 F   0  0  0  0  0  0  0  0  0  0  0  0
   -2.1849    1.1156    1.9168 C   0  0  0  0  0  0  0  0  0  0  0  0
   -3.2736    1.2071    1.8886 H   0  0  0  0  0  0  0  0  0  0  0  0
  1  3  1  0  0  0  0
  1 24  1  0  0  0  0
  2 11  1  0  0  0  0
  2  4  1  0  0  0  0
  3  2  1  0  0  0  0
  4  5  1  0  0  0  0
  4  7  1  0  0  0  0
  6  4  1  0  0  0  0
  8 17  1  0  0  0  0
  8  1  1  0  0  0  0
  9  8  1  0  0  0  0
 10  8  1  0  0  0  0
 11 12  1  0  0  0  0
 14 21  1  0  0  0  0
 15 14  1  0  0  0  0
 16 17  2  0  0  0  0
 17 18  1  0  0  0  0
 18 13  1  0  0  0  0
 19 16  1  0  0  0  0
 19 14  2  0  0  0  0
 20 19  1  0  0  0  0
 21 18  2  0  0  0  0
 21 22  1  0  0  0  0
 23 16  1  0  0  0  0
 24 11  2  0  0  0  0
 25 24  1  0  0  0  0
M  END
