10
 OpenBabel05122313113D

 20 20  0  0  1  0  0  0  0  0999 V2000
   -1.7710   -1.8364   -2.9092 F   0  0  0  0  0  0  0  0  0  0  0  0
   -0.1170   -0.4753   -3.3006 F   0  0  0  0  0  0  0  0  0  0  0  0
   -2.1295    0.3182   -2.9562 F   0  0  0  0  0  0  0  0  0  0  0  0
    0.2203   -3.4975   -0.1924 F   0  0  0  0  0  0  0  0  0  0  0  0
    1.9354   -2.3470    0.4836 F   0  0  0  0  0  0  0  0  0  0  0  0
   -3.7294    1.0681   -0.7124 F   0  0  0  0  0  0  0  0  0  0  0  0
   -4.0082   -1.0369   -0.2323 F   0  0  0  0  0  0  0  0  0  0  0  0
   -0.9883   -0.5374   -1.1023 C   0  0  2  0  0  0  0  0  0  0  0  0
   -1.2400   -0.6352   -2.5648 C   0  0  0  0  0  0  0  0  0  0  0  0
   -0.0550   -1.1789   -0.1546 C   0  0  2  0  0  0  0  0  0  0  0  0
    0.8837   -2.3231   -0.3674 C   0  0  0  0  0  0  0  0  0  0  0  0
   -1.8498   -0.1970    0.0304 C   0  0  1  0  0  0  0  0  0  0  0  0
   -3.3173    0.0728    0.1124 C   0  0  0  0  0  0  0  0  0  0  0  0
   -1.9617   -2.2787    2.4977 F   0  0  0  0  0  0  0  0  0  0  0  0
    0.1255   -1.7410    2.8552 F   0  0  0  0  0  0  0  0  0  0  0  0
   -1.4712   -0.2814    3.2152 F   0  0  0  0  0  0  0  0  0  0  0  0
    1.3730   -2.3254   -1.6284 F   0  0  0  0  0  0  0  0  0  0  0  0
   -3.6931    0.4051    1.3753 F   0  0  0  0  0  0  0  0  0  0  0  0
   -0.9198   -0.8055    0.9813 C   0  0  1  0  0  0  0  0  0  0  0  0
   -1.0537   -1.2738    2.3854 C   0  0  0  0  0  0  0  0  0  0  0  0
  1  9  1  0  0  0  0
  2  9  1  0  0  0  0
  3  9  1  0  0  0  0
  6 13  1  0  0  0  0
  7 13  1  0  0  0  0
  8  9  1  6  0  0  0
  8 10  1  0  0  0  0
  8 12  1  0  0  0  0
 10 11  1  6  0  0  0
 10 19  1  0  0  0  0
 11  4  1  0  0  0  0
 11  5  1  0  0  0  0
 12 13  1  6  0  0  0
 12 19  1  0  0  0  0
 13 18  1  0  0  0  0
 17 11  1  0  0  0  0
 19 20  1  6  0  0  0
 20 14  1  0  0  0  0
 20 15  1  0  0  0  0
 20 16  1  0  0  0  0
M  END
