1
 OpenBabel05122313113D

 17 17  0  0  0  0  0  0  0  0999 V2000
   -0.3698    1.3036   -1.3909 C   0  0  0  0  0  3  0  0  0  0  0  0
   -1.5547    0.6945   -0.8222 C   0  0  0  0  0  0  0  0  0  0  0  0
   -1.7909   -0.6774   -1.2005 C   0  0  0  0  0  0  0  0  0  0  0  0
   -2.7647   -1.4581   -0.5247 C   0  0  0  0  0  0  0  0  0  0  0  0
   -3.4671   -0.9132    0.5391 C   0  0  0  0  0  0  0  0  0  0  0  0
   -3.2207    0.4257    0.9432 C   0  0  0  0  0  0  0  0  0  0  0  0
   -2.2807    1.2325    0.3091 C   0  0  0  0  0  0  0  0  0  0  0  0
   -2.0137    2.6393    0.7696 C   0  0  0  0  0  0  0  0  0  0  0  0
   -1.3727   -1.0553   -2.1492 H   0  0  0  0  0  0  0  0  0  0  0  0
   -2.9431   -2.4944   -0.8457 H   0  0  0  0  0  0  0  0  0  0  0  0
   -4.2172   -1.5122    1.0764 H   0  0  0  0  0  0  0  0  0  0  0  0
   -3.7834    0.8399    1.7952 H   0  0  0  0  0  0  0  0  0  0  0  0
   -0.0899    2.3166   -1.0591 H   0  0  0  0  0  0  0  0  0  0  0  0
   -0.1598    1.1279   -2.4638 H   0  0  0  0  0  0  0  0  0  0  0  0
   -2.1521    3.3739   -0.0513 H   0  0  0  0  0  0  0  0  0  0  0  0
   -2.6823    2.9237    1.6044 H   0  0  0  0  0  0  0  0  0  0  0  0
   -0.9658    2.7532    1.1233 H   0  0  0  0  0  0  0  0  0  0  0  0
  1 13  1  0  0  0  0
  1  2  1  0  0  0  0
  2  7  1  0  0  0  0
  3  2  2  0  0  0  0
  3  4  1  0  0  0  0
  4  5  2  0  0  0  0
  5  6  1  0  0  0  0
  5 11  1  0  0  0  0
  6 12  1  0  0  0  0
  7  8  1  0  0  0  0
  7  6  2  0  0  0  0
  8 17  1  0  0  0  0
  8 16  1  0  0  0  0
  9  3  1  0  0  0  0
 10  4  1  0  0  0  0
 14  1  1  0  0  0  0
 15  8  1  0  0  0  0
M  END
