2
 OpenBabel05122313113D

 30 31  0  0  0  0  0  0  0  0999 V2000
   -2.3973   -0.2140    0.5120 P   0  0  0  0  0  4  0  0  0  0  0  0
   -0.9982   -0.7263   -0.4732 C   0  0  0  0  0  3  0  0  0  0  0  0
   -2.2288   -0.4813    2.3060 C   0  0  0  0  0  0  0  0  0  0  0  0
   -3.8195   -1.2716    0.0265 C   0  0  0  0  0  0  0  0  0  0  0  0
   -4.8809   -0.7771   -0.7565 C   0  0  0  0  0  0  0  0  0  0  0  0
   -5.9136   -1.6365   -1.1631 C   0  0  0  0  0  0  0  0  0  0  0  0
   -5.8943   -2.9895   -0.7928 C   0  0  0  0  0  0  0  0  0  0  0  0
   -4.8341   -3.4882   -0.0176 C   0  0  0  0  0  0  0  0  0  0  0  0
   -3.7980   -2.6362    0.3876 C   0  0  0  0  0  0  0  0  0  0  0  0
   -2.9639    1.4904    0.2313 C   0  0  0  0  0  0  0  0  0  0  0  0
   -4.0101    2.0063    1.0250 C   0  0  0  0  0  0  0  0  0  0  0  0
   -4.4944    3.3003    0.7892 C   0  0  0  0  0  0  0  0  0  0  0  0
   -3.9415    4.0802   -0.2399 C   0  0  0  0  0  0  0  0  0  0  0  0
   -2.9028    3.5642   -1.0300 C   0  0  0  0  0  0  0  0  0  0  0  0
   -2.4085    2.2718   -0.7997 C   0  0  0  0  0  0  0  0  0  0  0  0
   -1.0456   -1.8326   -0.4148 H   0  0  0  0  0  0  0  0  0  0  0  0
   -1.2698   -0.4560   -1.5145 H   0  0  0  0  0  0  0  0  0  0  0  0
   -1.4902    0.2453    2.6905 H   0  0  0  0  0  0  0  0  0  0  0  0
   -1.8382   -1.5007    2.4771 H   0  0  0  0  0  0  0  0  0  0  0  0
   -3.2152   -0.3550    2.7899 H   0  0  0  0  0  0  0  0  0  0  0  0
   -4.9003    0.2832   -1.0489 H   0  0  0  0  0  0  0  0  0  0  0  0
   -6.7390   -1.2429   -1.7753 H   0  0  0  0  0  0  0  0  0  0  0  0
   -6.7057   -3.6607   -1.1126 H   0  0  0  0  0  0  0  0  0  0  0  0
   -4.8107   -4.5501    0.2702 H   0  0  0  0  0  0  0  0  0  0  0  0
   -2.9630   -3.0422    0.9801 H   0  0  0  0  0  0  0  0  0  0  0  0
   -4.4575    1.3986    1.8264 H   0  0  0  0  0  0  0  0  0  0  0  0
   -5.3075    3.7011    1.4130 H   0  0  0  0  0  0  0  0  0  0  0  0
   -4.3215    5.0968   -0.4230 H   0  0  0  0  0  0  0  0  0  0  0  0
   -2.4584    4.1748   -1.8302 H   0  0  0  0  0  0  0  0  0  0  0  0
   -1.5679    1.8885   -1.3993 H   0  0  0  0  0  0  0  0  0  0  0  0
  1  3  1  0  0  0  0
  2 16  1  0  0  0  0
  2  1  1  0  0  0  0
  3 19  1  0  0  0  0
  3 18  1  0  0  0  0
  3 20  1  0  0  0  0
  4  9  1  0  0  0  0
  4  1  1  0  0  0  0
  5  4  2  0  0  0  0
  6  7  2  0  0  0  0
  6  5  1  0  0  0  0
  7  8  1  0  0  0  0
  8 24  1  0  0  0  0
  8  9  2  0  0  0  0
  9 25  1  0  0  0  0
 10  1  1  0  0  0  0
 10 11  1  0  0  0  0
 11 26  1  0  0  0  0
 12 11  2  0  0  0  0
 12 27  1  0  0  0  0
 13 12  1  0  0  0  0
 14 15  1  0  0  0  0
 14 13  2  0  0  0  0
 15 10  2  0  0  0  0
 17  2  1  0  0  0  0
 21  5  1  0  0  0  0
 22  6  1  0  0  0  0
 23  7  1  0  0  0  0
 28 13  1  0  0  0  0
 29 14  1  0  0  0  0
 30 15  1  0  0  0  0
M  END
