4
 OpenBabel05122313113D

 15 14  0  0  0  0  0  0  0  0999 V2000
   -0.8169    1.6273   -1.5978 S   0  0  0  0  0  0  0  0  0  0  0  0
   -1.1720    1.4557    1.3694 S   0  0  0  0  0  0  0  0  0  0  0  0
    0.0604    3.1152   -0.9881 C   0  0  0  0  0  0  0  0  0  0  0  0
   -1.8458    0.9665   -0.2496 C   0  0  0  0  0  3  0  0  0  0  0  0
   -2.3430    0.6674    2.5298 C   0  0  0  0  0  0  0  0  0  0  0  0
   -3.3311    0.9378   -0.4838 C   0  0  0  0  0  0  0  0  0  0  0  0
    0.6106    3.4921   -1.8716 H   0  0  0  0  0  0  0  0  0  0  0  0
    0.7915    2.8450   -0.1999 H   0  0  0  0  0  0  0  0  0  0  0  0
   -0.6695    3.8730   -0.6495 H   0  0  0  0  0  0  0  0  0  0  0  0
   -1.8086    0.6174    3.4975 H   0  0  0  0  0  0  0  0  0  0  0  0
   -2.5834   -0.3575    2.1922 H   0  0  0  0  0  0  0  0  0  0  0  0
   -3.2539    1.2859    2.6366 H   0  0  0  0  0  0  0  0  0  0  0  0
   -3.8353    0.2712    0.2427 H   0  0  0  0  0  0  0  0  0  0  0  0
   -3.5318    0.5305   -1.4946 H   0  0  0  0  0  0  0  0  0  0  0  0
   -3.7828    1.9502   -0.4182 H   0  0  0  0  0  0  0  0  0  0  0  0
  1  3  1  0  0  0  0
  1  4  1  0  0  0  0
  2  5  1  0  0  0  0
  3  9  1  0  0  0  0
  3  8  1  0  0  0  0
  4  2  1  0  0  0  0
  5 12  1  0  0  0  0
  5 10  1  0  0  0  0
  6 15  1  0  0  0  0
  6  4  1  0  0  0  0
  6 13  1  0  0  0  0
  7  3  1  0  0  0  0
 11  5  1  0  0  0  0
 14  6  1  0  0  0  0
M  END
