2
 OpenBabel05122313113D

 23 23  0  0  0  0  0  0  0  0999 V2000
    1.0930    2.0209   -0.5919 O   0  0  0  0  0  0  0  0  0  0  0  0
    0.7659    0.7458   -0.3411 C   0  0  0  0  0  2  0  0  0  0  0  0
    2.0155   -0.0724   -0.4222 C   0  0  0  0  0  0  0  0  0  0  0  0
    2.1694   -1.0001   -1.4717 C   0  0  0  0  0  0  0  0  0  0  0  0
    3.3148   -1.8022   -1.5630 C   0  0  0  0  0  0  0  0  0  0  0  0
    4.3123   -1.6959   -0.5831 C   0  0  0  0  0  0  0  0  0  0  0  0
    4.1598   -0.7801    0.4689 C   0  0  0  0  0  0  0  0  0  0  0  0
    3.0291    0.0517    0.5683 C   0  0  0  0  0  0  0  0  0  0  0  0
    2.8797    1.0218    1.7121 C   0  0  0  0  0  0  0  0  0  0  0  0
    0.0975    3.0651   -0.5366 C   0  0  0  0  0  0  0  0  0  0  0  0
    0.4470    4.1146   -1.5722 C   0  0  0  0  0  0  0  0  0  0  0  0
    1.3760   -1.0835   -2.2284 H   0  0  0  0  0  0  0  0  0  0  0  0
    3.4232   -2.5141   -2.3953 H   0  0  0  0  0  0  0  0  0  0  0  0
    5.2101   -2.3306   -0.6328 H   0  0  0  0  0  0  0  0  0  0  0  0
    4.9403   -0.7039    1.2427 H   0  0  0  0  0  0  0  0  0  0  0  0
    3.6962    0.9023    2.4492 H   0  0  0  0  0  0  0  0  0  0  0  0
    1.9129    0.8764    2.2367 H   0  0  0  0  0  0  0  0  0  0  0  0
    2.8860    2.0707    1.3531 H   0  0  0  0  0  0  0  0  0  0  0  0
    0.1121    3.4795    0.4929 H   0  0  0  0  0  0  0  0  0  0  0  0
   -0.9015    2.6117   -0.7035 H   0  0  0  0  0  0  0  0  0  0  0  0
   -0.2684    4.9588   -1.5112 H   0  0  0  0  0  0  0  0  0  0  0  0
    0.4028    3.6939   -2.5967 H   0  0  0  0  0  0  0  0  0  0  0  0
    1.4672    4.5144   -1.4073 H   0  0  0  0  0  0  0  0  0  0  0  0
  1 10  1  0  0  0  0
  1  2  1  0  0  0  0
  3  2  1  0  0  0  0
  3  8  1  0  0  0  0
  4  3  2  0  0  0  0
  5  4  1  0  0  0  0
  5  6  2  0  0  0  0
  6  7  1  0  0  0  0
  7  8  2  0  0  0  0
  7 15  1  0  0  0  0
  8  9  1  0  0  0  0
  9 17  1  0  0  0  0
  9 16  1  0  0  0  0
 10 19  1  0  0  0  0
 11 21  1  0  0  0  0
 11 23  1  0  0  0  0
 11 10  1  0  0  0  0
 12  4  1  0  0  0  0
 13  5  1  0  0  0  0
 14  6  1  0  0  0  0
 18  9  1  0  0  0  0
 20 10  1  0  0  0  0
 22 11  1  0  0  0  0
M  END
