4
 OpenBabel05122313113D

 27 27  0  0  1  0  0  0  0  0999 V2000
    1.9921   -1.8059    0.2074 O   0  0  0  0  0  0  0  0  0  0  0  0
    1.5322    1.3272   -0.1002 N   0  0  0  0  0  0  0  0  0  0  0  0
    3.9292    0.9458    0.0976 N   0  0  0  0  0  0  0  0  0  0  0  0
    0.6312    0.3415    0.2352 C   0  0  0  0  0  2  0  0  0  0  0  0
    1.8094   -0.5445    0.7829 C   0  0  2  0  0  0  0  0  0  0  0  0
    2.7083    0.6143    0.2674 C   0  0  0  0  0  0  0  0  0  0  0  0
    1.7808   -0.7185    2.2941 C   0  0  0  0  0  0  0  0  0  0  0  0
    2.1187   -1.8383   -1.2200 C   0  0  0  0  0  0  0  0  0  0  0  0
    2.2523   -3.2870   -1.6448 C   0  0  0  0  0  0  0  0  0  0  0  0
    4.9257    0.0403    0.4698 C   0  0  0  0  0  0  0  0  0  0  0  0
    6.2341    0.3668    0.3964 C   0  0  0  0  0  0  0  0  0  0  0  0
    1.3406    2.5986   -0.6566 C   0  0  0  0  0  0  0  0  0  0  0  0
    2.3498    3.4381   -0.9619 C   0  0  0  0  0  0  0  0  0  0  0  0
    0.9681   -1.4216    2.5588 H   0  0  0  0  0  0  0  0  0  0  0  0
    2.7420   -1.1416    2.6455 H   0  0  0  0  0  0  0  0  0  0  0  0
    1.6004    0.2454    2.8068 H   0  0  0  0  0  0  0  0  0  0  0  0
    3.0110   -1.2464   -1.5338 H   0  0  0  0  0  0  0  0  0  0  0  0
    1.2261   -1.3669   -1.6923 H   0  0  0  0  0  0  0  0  0  0  0  0
    3.1363   -3.7545   -1.1672 H   0  0  0  0  0  0  0  0  0  0  0  0
    1.3525   -3.8623   -1.3527 H   0  0  0  0  0  0  0  0  0  0  0  0
    2.3723   -3.3545   -2.7440 H   0  0  0  0  0  0  0  0  0  0  0  0
    4.6171   -0.9664    0.8175 H   0  0  0  0  0  0  0  0  0  0  0  0
    7.0114   -0.3519    0.6918 H   0  0  0  0  0  0  0  0  0  0  0  0
    6.5395    1.3636    0.0430 H   0  0  0  0  0  0  0  0  0  0  0  0
    0.2804    2.8375   -0.8238 H   0  0  0  0  0  0  0  0  0  0  0  0
    2.1179    4.4189   -1.3996 H   0  0  0  0  0  0  0  0  0  0  0  0
    3.3968    3.1547   -0.7845 H   0  0  0  0  0  0  0  0  0  0  0  0
  2  4  1  0  0  0  0
  2  6  1  0  0  0  0
  3  6  2  0  0  0  0
  3 10  1  0  0  0  0
  4  5  1  0  0  0  0
  5  1  1  6  0  0  0
  5  7  1  0  0  0  0
  6  5  1  0  0  0  0
  7 14  1  0  0  0  0
  7 15  1  0  0  0  0
  7 16  1  0  0  0  0
  8  1  1  0  0  0  0
  9 20  1  0  0  0  0
  9  8  1  0  0  0  0
  9 19  1  0  0  0  0
 10 22  1  0  0  0  0
 11 10  2  0  0  0  0
 11 23  1  0  0  0  0
 12  2  1  0  0  0  0
 13 27  1  0  0  0  0
 13 12  2  0  0  0  0
 17  8  1  0  0  0  0
 18  8  1  0  0  0  0
 21  9  1  0  0  0  0
 24 11  1  0  0  0  0
 25 12  1  0  0  0  0
 26 13  1  0  0  0  0
M  END
