3
 OpenBabel05122313113D

 39 40  0  0  0  0  0  0  0  0999 V2000
   -1.3148    0.6790   -0.4497 N   0  0  0  0  0  0  0  0  0  0  0  0
    0.7775    1.3081   -0.2353 N   0  0  0  0  0  0  0  0  0  0  0  0
   -0.0402    0.2057   -0.2653 C   0  0  0  0  0  2  0  0  0  0  0  0
   -1.3123    2.0749   -0.5405 C   0  0  0  0  0  0  0  0  0  0  0  0
   -2.3427    3.0041   -0.7540 C   0  0  0  0  0  0  0  0  0  0  0  0
   -3.3921    2.6974   -0.8594 H   0  0  0  0  0  0  0  0  0  0  0  0
   -1.9711    4.3527   -0.8279 C   0  0  0  0  0  0  0  0  0  0  0  0
   -2.7470    5.1143   -0.9925 H   0  0  0  0  0  0  0  0  0  0  0  0
   -0.6223    4.7575   -0.6984 C   0  0  0  0  0  0  0  0  0  0  0  0
   -0.3736    5.8264   -0.7656 H   0  0  0  0  0  0  0  0  0  0  0  0
    0.4055    3.8294   -0.4870 C   0  0  0  0  0  0  0  0  0  0  0  0
    1.4509    4.1521   -0.3912 H   0  0  0  0  0  0  0  0  0  0  0  0
    0.0313    2.4786   -0.4061 C   0  0  0  0  0  0  0  0  0  0  0  0
    2.2300    1.3401   -0.0630 C   0  0  0  0  0  0  0  0  0  0  0  0
    2.6426    2.0015   -0.8546 H   0  0  0  0  0  0  0  0  0  0  0  0
    2.6054    0.3234   -0.2673 H   0  0  0  0  0  0  0  0  0  0  0  0
    2.6764    1.8271    1.3201 C   0  0  0  0  0  0  0  0  0  0  0  0
    2.2171    2.8164    1.5233 H   0  0  0  0  0  0  0  0  0  0  0  0
    2.2786    1.1375    2.0938 H   0  0  0  0  0  0  0  0  0  0  0  0
    4.2035    1.9345    1.4425 C   0  0  0  0  0  0  0  0  0  0  0  0
    4.4348    2.3769    2.4334 H   0  0  0  0  0  0  0  0  0  0  0  0
    4.5794    2.6677    0.6947 H   0  0  0  0  0  0  0  0  0  0  0  0
    4.9564    0.6096    1.2936 C   0  0  0  0  0  0  0  0  0  0  0  0
    6.0424    0.7503    1.4590 H   0  0  0  0  0  0  0  0  0  0  0  0
    4.8458    0.1703    0.2792 H   0  0  0  0  0  0  0  0  0  0  0  0
    4.6012   -0.1428    2.0267 H   0  0  0  0  0  0  0  0  0  0  0  0
   -2.5595   -0.0879   -0.5059 C   0  0  0  0  0  0  0  0  0  0  0  0
   -2.3001   -1.1295   -0.7674 H   0  0  0  0  0  0  0  0  0  0  0  0
   -3.1556    0.3111   -1.3532 H   0  0  0  0  0  0  0  0  0  0  0  0
   -3.3666   -0.0336    0.7940 C   0  0  0  0  0  0  0  0  0  0  0  0
   -2.7179   -0.3476    1.6388 H   0  0  0  0  0  0  0  0  0  0  0  0
   -3.6574    1.0173    1.0074 H   0  0  0  0  0  0  0  0  0  0  0  0
   -4.6133   -0.9214    0.7367 C   0  0  0  0  0  0  0  0  0  0  0  0
   -4.3012   -1.9694    0.5316 H   0  0  0  0  0  0  0  0  0  0  0  0
   -5.2432   -0.6162   -0.1283 H   0  0  0  0  0  0  0  0  0  0  0  0
   -5.4378   -0.8725    2.0228 C   0  0  0  0  0  0  0  0  0  0  0  0
   -6.3307   -1.5238    1.9539 H   0  0  0  0  0  0  0  0  0  0  0  0
   -5.7903    0.1570    2.2387 H   0  0  0  0  0  0  0  0  0  0  0  0
   -4.8423   -1.2115    2.8952 H   0  0  0  0  0  0  0  0  0  0  0  0
  1  3  1  0  0  0  0
  2 14  1  0  0  0  0
  3  2  1  0  0  0  0
  4  1  1  0  0  0  0
  4 13  1  0  0  0  0
  5  4  2  0  0  0  0
  6  5  1  0  0  0  0
  7  5  1  0  0  0  0
  7  9  2  0  0  0  0
  8  7  1  0  0  0  0
  9 11  1  0  0  0  0
 10  9  1  0  0  0  0
 11 13  2  0  0  0  0
 11 12  1  0  0  0  0
 13  2  1  0  0  0  0
 14 17  1  0  0  0  0
 15 14  1  0  0  0  0
 16 14  1  0  0  0  0
 17 20  1  0  0  0  0
 17 18  1  0  0  0  0
 17 19  1  0  0  0  0
 20 21  1  0  0  0  0
 22 20  1  0  0  0  0
 23 20  1  0  0  0  0
 23 24  1  0  0  0  0
 23 26  1  0  0  0  0
 25 23  1  0  0  0  0
 27  1  1  0  0  0  0
 27 30  1  0  0  0  0
 28 27  1  0  0  0  0
 29 27  1  0  0  0  0
 30 32  1  0  0  0  0
 30 31  1  0  0  0  0
 33 30  1  0  0  0  0
 33 36  1  0  0  0  0
 34 33  1  0  0  0  0
 35 33  1  0  0  0  0
 36 38  1  0  0  0  0
 36 39  1  0  0  0  0
 37 36  1  0  0  0  0
M  END
