3
 OpenBabel05122313113D

 28 29  0  0  0  0  0  0  0  0999 V2000
    0.7254    0.7638   -1.1584 N   0  0  0  0  0  0  0  0  0  0  0  0
   -0.9411    2.0459   -0.6296 N   0  0  0  0  0  0  0  0  0  0  0  0
   -0.4992    0.7500   -0.5399 C   0  0  0  0  0  2  0  0  0  0  0  0
   -0.0078    2.8441   -1.2799 C   0  0  0  0  0  0  0  0  0  0  0  0
   -0.1745    3.9112   -1.4547 H   0  0  0  0  0  0  0  0  0  0  0  0
    1.0434    2.0373   -1.6099 C   0  0  0  0  0  0  0  0  0  0  0  0
    1.9895    2.2527   -2.1153 H   0  0  0  0  0  0  0  0  0  0  0  0
    2.9165    0.4581    0.7382 C   0  0  0  0  0  0  0  0  0  0  0  0
    1.9985    0.9445    1.1031 H   0  0  0  0  0  0  0  0  0  0  0  0
    4.0870    0.5255    1.5083 C   0  0  0  0  0  0  0  0  0  0  0  0
    4.0774    1.0591    2.4703 H   0  0  0  0  0  0  0  0  0  0  0  0
    5.2661   -0.0844    1.0534 C   0  0  0  0  0  0  0  0  0  0  0  0
    6.1839   -0.0301    1.6574 H   0  0  0  0  0  0  0  0  0  0  0  0
    5.2728   -0.7570   -0.1786 C   0  0  0  0  0  0  0  0  0  0  0  0
    6.1961   -1.2296   -0.5452 H   0  0  0  0  0  0  0  0  0  0  0  0
    4.1050   -0.8193   -0.9523 C   0  0  0  0  0  0  0  0  0  0  0  0
    4.1192   -1.3414   -1.9224 H   0  0  0  0  0  0  0  0  0  0  0  0
    2.9164   -0.2178   -0.4966 C   0  0  0  0  0  0  0  0  0  0  0  0
    1.6553   -0.3539   -1.3264 C   0  0  0  0  0  0  0  0  0  0  0  0
    1.9087   -0.4312   -2.4034 H   0  0  0  0  0  0  0  0  0  0  0  0
    1.1006   -1.2748   -1.0647 H   0  0  0  0  0  0  0  0  0  0  0  0
   -2.2001    2.6051   -0.1176 C   0  0  0  0  0  0  0  0  0  0  0  0
   -2.8614    1.7529    0.1164 H   0  0  0  0  0  0  0  0  0  0  0  0
   -2.6738    3.1619   -0.9520 H   0  0  0  0  0  0  0  0  0  0  0  0
   -2.0017    3.5073    1.0961 C   0  0  0  0  0  0  0  0  0  0  0  0
   -2.9814    3.8993    1.4317 H   0  0  0  0  0  0  0  0  0  0  0  0
   -1.3565    4.3758    0.8580 H   0  0  0  0  0  0  0  0  0  0  0  0
   -1.5465    2.9563    1.9411 H   0  0  0  0  0  0  0  0  0  0  0  0
  1  3  1  0  0  0  0
  2  3  1  0  0  0  0
  2 22  1  0  0  0  0
  4  2  1  0  0  0  0
  5  4  1  0  0  0  0
  6  4  2  0  0  0  0
  6  1  1  0  0  0  0
  7  6  1  0  0  0  0
  8  9  1  0  0  0  0
  8 10  1  0  0  0  0
 10 11  1  0  0  0  0
 12 10  2  0  0  0  0
 12 13  1  0  0  0  0
 14 12  1  0  0  0  0
 15 14  1  0  0  0  0
 16 18  1  0  0  0  0
 16 14  2  0  0  0  0
 17 16  1  0  0  0  0
 18  8  2  0  0  0  0
 19  1  1  0  0  0  0
 19 21  1  0  0  0  0
 19 18  1  0  0  0  0
 20 19  1  0  0  0  0
 22 23  1  0  0  0  0
 22 25  1  0  0  0  0
 24 22  1  0  0  0  0
 25 26  1  0  0  0  0
 25 28  1  0  0  0  0
 27 25  1  0  0  0  0
M  END
