9
 OpenBabel05122313113D

 38 39  0  0  0  0  0  0  0  0999 V2000
    0.7682    1.1960   -1.0036 C   0  0  0  0  0  0  0  0  0  0  0  0
   -1.3520    1.9105   -1.6737 C   0  0  0  0  0  0  0  0  0  0  0  0
   -2.2959    2.4678   -1.7172 H   0  0  0  0  0  0  0  0  0  0  0  0
    0.8770   -1.4083    0.6316 C   0  0  0  0  0  0  0  0  0  0  0  0
   -0.0705   -2.2979    0.0110 C   0  0  0  0  0  0  0  0  0  0  0  0
    0.0632   -2.7978   -0.9577 H   0  0  0  0  0  0  0  0  0  0  0  0
   -1.2052   -2.4449    0.8651 C   0  0  0  0  0  0  0  0  0  0  0  0
   -2.0976   -3.0447    0.6540 H   0  0  0  0  0  0  0  0  0  0  0  0
    0.2436    0.2914   -2.0084 C   0  0  0  0  0  3  0  0  0  0  0  0
    0.7756   -0.5851   -2.4016 H   0  0  0  0  0  0  0  0  0  0  0  0
   -1.0325    0.7441   -2.4302 C   0  0  0  0  0  0  0  0  0  0  0  0
   -1.6807    0.2648   -3.1729 H   0  0  0  0  0  0  0  0  0  0  0  0
   -1.0037   -1.6219    2.0023 C   0  0  0  0  0  0  0  0  0  0  0  0
   -1.7083   -1.4777    2.8298 H   0  0  0  0  0  0  0  0  0  0  0  0
   -0.2476    2.1960   -0.8247 C   0  0  0  0  0  0  0  0  0  0  0  0
   -0.2205    3.0093   -0.0905 H   0  0  0  0  0  0  0  0  0  0  0  0
    0.2605   -0.9707    1.8501 C   0  0  0  0  0  3  0  0  0  0  0  0
    0.6930   -0.2511    2.5573 H   0  0  0  0  0  0  0  0  0  0  0  0
    3.2619   -1.6662   -0.4018 N   0  0  0  0  0  0  0  0  0  0  0  0
    2.9015    1.8721    0.3879 N   0  0  0  0  0  0  0  0  0  0  0  0
    3.2763   -3.1142   -0.2441 C   0  0  0  0  0  0  0  0  0  0  0  0
    2.3775   -3.4511    0.3023 H   0  0  0  0  0  0  0  0  0  0  0  0
    4.1777   -3.4388    0.3226 H   0  0  0  0  0  0  0  0  0  0  0  0
    3.3087   -3.6278   -1.2315 H   0  0  0  0  0  0  0  0  0  0  0  0
    2.7132    3.3063    0.2234 C   0  0  0  0  0  0  0  0  0  0  0  0
    1.9952    3.5134   -0.5891 H   0  0  0  0  0  0  0  0  0  0  0  0
    3.6789    3.7968   -0.0316 H   0  0  0  0  0  0  0  0  0  0  0  0
    2.3400    3.7818    1.1589 H   0  0  0  0  0  0  0  0  0  0  0  0
    2.0844    0.8749   -0.1933 B   0  0  0  0  0  0  0  0  0  0  0  0
    2.2184   -0.8204    0.0319 B   0  0  0  0  0  0  0  0  0  0  0  0
    4.4536   -1.1576   -1.0643 C   0  0  0  0  0  0  0  0  0  0  0  0
    4.3823   -0.0605   -1.1784 H   0  0  0  0  0  0  0  0  0  0  0  0
    4.5721   -1.6098   -2.0747 H   0  0  0  0  0  0  0  0  0  0  0  0
    5.3738   -1.4018   -0.4861 H   0  0  0  0  0  0  0  0  0  0  0  0
    4.0097    1.5492    1.2732 C   0  0  0  0  0  0  0  0  0  0  0  0
    4.1034    0.4526    1.3779 H   0  0  0  0  0  0  0  0  0  0  0  0
    3.8524    1.9835    2.2866 H   0  0  0  0  0  0  0  0  0  0  0  0
    4.9709    1.9592    0.8870 H   0  0  0  0  0  0  0  0  0  0  0  0
  1 15  2  0  0  0  0
  1 29  1  0  0  0  0
  2 15  1  0  0  0  0
  3  2  1  0  0  0  0
  4 17  1  0  0  0  0
  5  4  2  0  0  0  0
  5  7  1  0  0  0  0
  6  5  1  0  0  0  0
  7 13  2  0  0  0  0
  8  7  1  0  0  0  0
  9  1  1  0  0  0  0
 10  9  1  0  0  0  0
 11  9  1  0  0  0  0
 11  2  2  0  0  0  0
 12 11  1  0  0  0  0
 13 14  1  0  0  0  0
 15 16  1  0  0  0  0
 17 13  1  0  0  0  0
 17 18  1  0  0  0  0
 19 21  1  0  0  0  0
 19 30  1  0  0  0  0
 20 35  1  0  0  0  0
 21 22  1  0  0  0  0
 21 23  1  0  0  0  0
 24 21  1  0  0  0  0
 25 20  1  0  0  0  0
 25 28  1  0  0  0  0
 26 25  1  0  0  0  0
 27 25  1  0  0  0  0
 29 30  1  0  0  0  0
 29 20  1  0  0  0  0
 30  4  1  0  0  0  0
 31 34  1  0  0  0  0
 31 19  1  0  0  0  0
 32 31  1  0  0  0  0
 33 31  1  0  0  0  0
 35 36  1  0  0  0  0
 35 37  1  0  0  0  0
 38 35  1  0  0  0  0
M  END
