4
 OpenBabel05122313113D

 58 60  0  0  0  0  0  0  0  0999 V2000
   -4.6094   -0.6153   -0.4869 N   0  0  0  0  0  0  0  0  0  0  0  0
   -4.0365   -0.2592   -1.6563 C   0  0  0  0  0  0  0  0  0  0  0  0
   -4.6172    0.1098   -2.5269 H   0  0  0  0  0  0  0  0  0  0  0  0
   -2.6059   -0.3167   -1.6853 C   0  0  0  0  0  3  0  0  0  0  0  0
   -2.0549    0.0503   -2.5629 H   0  0  0  0  0  0  0  0  0  0  0  0
   -1.9723   -0.8252   -0.5003 C   0  0  0  0  0  3  0  0  0  0  0  0
   -2.5572   -1.5804    0.0503 H   0  0  0  0  0  0  0  0  0  0  0  0
   -0.5234   -0.8408   -0.2666 C   0  0  0  0  0  0  0  0  0  0  0  0
    0.4064   -0.1318   -1.0696 C   0  0  0  0  0  0  0  0  0  0  0  0
    0.0514    0.4772   -1.9139 H   0  0  0  0  0  0  0  0  0  0  0  0
    1.7739   -0.1824   -0.8090 C   0  0  0  0  0  0  0  0  0  0  0  0
    2.4627    0.3804   -1.4559 H   0  0  0  0  0  0  0  0  0  0  0  0
    2.2896   -0.9402    0.2741 C   0  0  0  0  0  0  0  0  0  0  0  0
    1.3586   -1.6443    1.0779 C   0  0  0  0  0  0  0  0  0  0  0  0
    1.7301   -2.2402    1.9265 H   0  0  0  0  0  0  0  0  0  0  0  0
   -0.0105   -1.5968    0.8141 C   0  0  0  0  0  0  0  0  0  0  0  0
   -0.7125   -2.1514    1.4560 H   0  0  0  0  0  0  0  0  0  0  0  0
    3.7118   -1.0195    0.5865 C   0  0  0  0  0  0  0  0  0  0  0  0
    3.9675   -1.6470    1.4598 H   0  0  0  0  0  0  0  0  0  0  0  0
    4.7409   -0.4134   -0.0715 C   0  0  0  0  0  0  0  0  0  0  0  0
    4.5712    0.2289   -0.9511 H   0  0  0  0  0  0  0  0  0  0  0  0
    6.1274   -0.5640    0.3293 C   0  0  0  0  0  0  0  0  0  0  0  0
    6.3199   -1.2132    1.2237 H   0  0  0  0  0  0  0  0  0  0  0  0
    7.0889    0.0141   -0.3045 N   0  0  0  0  0  0  0  0  0  0  0  0
   -6.0511   -0.4464   -0.3677 C   0  0  0  0  0  0  0  0  0  0  0  0
   -6.4040    0.4437   -0.9530 H   0  0  0  0  0  0  0  0  0  0  0  0
   -6.4569   -0.2422    1.0979 C   0  0  0  0  0  0  0  0  0  0  0  0
   -5.9810    0.6817    1.4861 H   0  0  0  0  0  0  0  0  0  0  0  0
   -6.0365   -1.0855    1.6888 H   0  0  0  0  0  0  0  0  0  0  0  0
   -7.9787   -0.1773    1.2679 C   0  0  0  0  0  0  0  0  0  0  0  0
   -8.2343   -0.0586    2.3412 H   0  0  0  0  0  0  0  0  0  0  0  0
   -8.3649    0.7324    0.7552 H   0  0  0  0  0  0  0  0  0  0  0  0
   -8.6673   -1.4164    0.6822 C   0  0  0  0  0  0  0  0  0  0  0  0
   -8.3696   -2.3130    1.2710 H   0  0  0  0  0  0  0  0  0  0  0  0
   -9.7698   -1.3302    0.7777 H   0  0  0  0  0  0  0  0  0  0  0  0
   -8.2712   -1.6245   -0.7846 C   0  0  0  0  0  0  0  0  0  0  0  0
   -8.6686   -0.7820   -1.3941 H   0  0  0  0  0  0  0  0  0  0  0  0
   -8.7358   -2.5478   -1.1894 H   0  0  0  0  0  0  0  0  0  0  0  0
   -6.7482   -1.6946   -0.9485 C   0  0  0  0  0  0  0  0  0  0  0  0
   -6.4710   -1.8092   -2.0180 H   0  0  0  0  0  0  0  0  0  0  0  0
   -6.3448   -2.5858   -0.4197 H   0  0  0  0  0  0  0  0  0  0  0  0
    8.4424   -0.1897    0.1620 C   0  0  0  0  0  0  0  0  0  0  0  0
    8.4708   -0.8612    1.0626 H   0  0  0  0  0  0  0  0  0  0  0  0
    9.0615    1.1656    0.5595 C   0  0  0  0  0  0  0  0  0  0  0  0
    8.4664    1.6100    1.3844 H   0  0  0  0  0  0  0  0  0  0  0  0
    8.9601    1.8525   -0.3092 H   0  0  0  0  0  0  0  0  0  0  0  0
   10.5352    1.0254    0.9579 C   0  0  0  0  0  0  0  0  0  0  0  0
   10.9551    2.0216    1.2105 H   0  0  0  0  0  0  0  0  0  0  0  0
   10.6097    0.4129    1.8848 H   0  0  0  0  0  0  0  0  0  0  0  0
   11.3577    0.3589   -0.1523 C   0  0  0  0  0  0  0  0  0  0  0  0
   12.4130    0.2319    0.1685 H   0  0  0  0  0  0  0  0  0  0  0  0
   11.3779    1.0276   -1.0422 H   0  0  0  0  0  0  0  0  0  0  0  0
   10.7519   -0.9923   -0.5534 C   0  0  0  0  0  0  0  0  0  0  0  0
   10.8367   -1.6987    0.3031 H   0  0  0  0  0  0  0  0  0  0  0  0
   11.3276   -1.4461   -1.3871 H   0  0  0  0  0  0  0  0  0  0  0  0
    9.2782   -0.8522   -0.9518 C   0  0  0  0  0  0  0  0  0  0  0  0
    9.1833   -0.2252   -1.8653 H   0  0  0  0  0  0  0  0  0  0  0  0
    8.8370   -1.8402   -1.1997 H   0  0  0  0  0  0  0  0  0  0  0  0
  1 25  1  0  0  0  0
  2  1  2  0  0  0  0
  3  2  1  0  0  0  0
  4  2  1  0  0  0  0
  4  6  1  0  0  0  0
  5  4  1  0  0  0  0
  6  8  1  0  0  0  0
  6  7  1  0  0  0  0
  8 16  1  0  0  0  0
  9 11  1  0  0  0  0
  9  8  2  0  0  0  0
 10  9  1  0  0  0  0
 11 13  2  0  0  0  0
 12 11  1  0  0  0  0
 13 18  1  0  0  0  0
 13 14  1  0  0  0  0
 14 15  1  0  0  0  0
 16 14  2  0  0  0  0
 16 17  1  0  0  0  0
 18 19  1  0  0  0  0
 20 22  1  0  0  0  0
 20 18  2  0  0  0  0
 21 20  1  0  0  0  0
 22 23  1  0  0  0  0
 24 42  1  0  0  0  0
 24 22  2  0  0  0  0
 25 27  1  0  0  0  0
 26 25  1  0  0  0  0
 27 30  1  0  0  0  0
 27 28  1  0  0  0  0
 27 29  1  0  0  0  0
 30 31  1  0  0  0  0
 32 30  1  0  0  0  0
 33 35  1  0  0  0  0
 33 30  1  0  0  0  0
 33 34  1  0  0  0  0
 36 33  1  0  0  0  0
 37 36  1  0  0  0  0
 38 36  1  0  0  0  0
 39 36  1  0  0  0  0
 39 41  1  0  0  0  0
 39 25  1  0  0  0  0
 40 39  1  0  0  0  0
 42 44  1  0  0  0  0
 42 43  1  0  0  0  0
 44 47  1  0  0  0  0
 44 45  1  0  0  0  0
 46 44  1  0  0  0  0
 47 48  1  0  0  0  0
 47 49  1  0  0  0  0
 50 51  1  0  0  0  0
 50 47  1  0  0  0  0
 52 50  1  0  0  0  0
 53 50  1  0  0  0  0
 53 54  1  0  0  0  0
 55 53  1  0  0  0  0
 56 53  1  0  0  0  0
 56 42  1  0  0  0  0
 57 56  1  0  0  0  0
 58 56  1  0  0  0  0
M  END
