4
 OpenBabel05122313113D

  8  7  0  0  0  0  0  0  0  0999 V2000
   -1.3254    0.5041   -2.4030 O   0  5  0  0  0  0  0  0  0  0  0  0
   -0.1583    1.0334   -2.6731 C   0  0  0  0  0  0  0  0  0  0  0  0
    0.9888    0.1828   -2.7278 C   0  0  0  0  0  0  0  0  0  0  0  0
    0.7550   -1.2133   -2.4184 C   0  0  0  0  0  3  0  0  0  0  0  0
   -0.0730    2.1205   -2.9034 H   0  0  0  0  0  0  0  0  0  0  0  0
    1.9731    0.6234   -2.9486 H   0  0  0  0  0  0  0  0  0  0  0  0
    1.6382   -1.8729   -2.3763 H   0  0  0  0  0  0  0  0  0  0  0  0
   -0.1255   -1.6814   -2.8951 H   0  0  0  0  0  0  0  0  0  0  0  0
  2  1  1  0  0  0  0
  3  2  2  0  0  0  0
  3  4  1  0  0  0  0
  4  7  1  0  0  0  0
  5  2  1  0  0  0  0
  6  3  1  0  0  0  0
  8  4  1  0  0  0  0
M  CHG  1   1  -1
M  END
