2
 OpenBabel05122313113D

 15 14  0  0  0  0  0  0  0  0999 V2000
   -0.8348    2.9980   -0.1005 N   0  0  0  0  0  2  0  0  0  0  0  0
   -1.1270    1.8528   -0.0833 C   0  0  0  0  0  1  0  0  0  0  0  0
   -0.2766    4.2998   -0.0485 C   0  0  0  0  0  0  0  0  0  0  0  0
   -1.0129    4.9841    0.4228 H   0  0  0  0  0  0  0  0  0  0  0  0
   -0.1335    4.6556   -1.0917 H   0  0  0  0  0  0  0  0  0  0  0  0
    1.0529    4.3156    0.7287 C   0  0  0  0  0  0  0  0  0  0  0  0
    1.4358    5.3582    0.6928 H   0  0  0  0  0  0  0  0  0  0  0  0
    0.8360    4.0958    1.7955 H   0  0  0  0  0  0  0  0  0  0  0  0
    2.1156    3.3395    0.2065 C   0  0  0  0  0  0  0  0  0  0  0  0
    1.7341    2.2996    0.3007 H   0  0  0  0  0  0  0  0  0  0  0  0
    2.9938    3.3926    0.8839 H   0  0  0  0  0  0  0  0  0  0  0  0
    2.5627    3.5926   -1.2338 C   0  0  0  0  0  0  0  0  0  0  0  0
    1.7263    3.4827   -1.9551 H   0  0  0  0  0  0  0  0  0  0  0  0
    3.3472    2.8718   -1.5389 H   0  0  0  0  0  0  0  0  0  0  0  0
    2.9772    4.6146   -1.3597 H   0  0  0  0  0  0  0  0  0  0  0  0
  1  2  1  0  0  0  0
  1  3  1  0  0  0  0
  3  4  1  0  0  0  0
  3  6  1  0  0  0  0
  5  3  1  0  0  0  0
  6  8  1  0  0  0  0
  7  6  1  0  0  0  0
  9 10  1  0  0  0  0
  9  6  1  0  0  0  0
  9 11  1  0  0  0  0
 12  9  1  0  0  0  0
 13 12  1  0  0  0  0
 14 12  1  0  0  0  0
 15 12  1  0  0  0  0
M  END
