11
 OpenBabel05122313113D

 62 64  0  0  1  0  0  0  0  0999 V2000
    1.6566    2.3376   -0.1369 Si  0  0  0  0  0  0  0  0  0  0  0  0
   -1.6175    2.2699   -0.5687 Si  0  0  0  0  0  0  0  0  0  0  0  0
   -4.1296    0.2702   -0.2614 Si  0  0  0  0  0  0  0  0  0  0  0  0
   -2.2196   -2.0765   -1.0862 Si  0  0  0  0  0  0  0  0  0  0  0  0
    2.2590   -2.2346   -0.6373 Si  0  0  0  0  0  0  0  0  0  0  0  0
    4.1652    0.2823   -0.6175 Si  0  0  0  0  0  0  0  0  0  0  0  0
    2.9394    1.2708   -0.0672 O   0  0  0  0  0  0  0  0  0  0  0  0
   -2.9197    1.3930    0.0116 O   0  0  0  0  0  0  0  0  0  0  0  0
   -3.5185   -1.0125   -1.1576 O   0  0  0  0  0  0  0  0  0  0  0  0
    3.5235   -1.2086   -1.0441 O   0  0  0  0  0  0  0  0  0  0  0  0
    0.0512    0.0192   -0.6126 C   0  0  1  0  0  3  0  0  0  0  0  0
    0.7415   -1.1960   -0.3252 C   0  0  1  0  0  3  0  0  0  0  0  0
   -0.7445   -1.1536   -0.4234 C   0  0  2  0  0  3  0  0  0  0  0  0
    0.0282    1.3681   -0.2258 C   0  0  1  0  0  3  0  0  0  0  0  0
    1.7454    3.4197    1.3969 C   0  0  0  0  0  0  0  0  0  0  0  0
    1.8201    3.3877   -1.7000 C   0  0  0  0  0  0  0  0  0  0  0  0
   -1.6807    3.9428    0.2840 C   0  0  0  0  0  0  0  0  0  0  0  0
   -1.7857    2.4275   -2.4422 C   0  0  0  0  0  0  0  0  0  0  0  0
   -5.4820    1.0541   -1.2939 C   0  0  0  0  0  0  0  0  0  0  0  0
   -4.7264   -0.3376    1.4070 C   0  0  0  0  0  0  0  0  0  0  0  0
   -1.8540   -2.6057   -2.8539 C   0  0  0  0  0  0  0  0  0  0  0  0
   -2.6275   -3.5466    0.0086 C   0  0  0  0  0  0  0  0  0  0  0  0
    1.9513   -3.3632   -2.1097 C   0  0  0  0  0  0  0  0  0  0  0  0
    2.6796   -3.2220    0.9045 C   0  0  0  0  0  0  0  0  0  0  0  0
    5.3781    0.0610    0.7916 C   0  0  0  0  0  0  0  0  0  0  0  0
    4.9335    1.0147   -2.1630 C   0  0  0  0  0  0  0  0  0  0  0  0
    0.9129    4.1478    1.4442 H   0  0  0  0  0  0  0  0  0  0  0  0
    1.7198    2.8026    2.3157 H   0  0  0  0  0  0  0  0  0  0  0  0
    2.6997    3.9854    1.3931 H   0  0  0  0  0  0  0  0  0  0  0  0
    1.0260    4.1596   -1.7620 H   0  0  0  0  0  0  0  0  0  0  0  0
    2.7998    3.9082   -1.7094 H   0  0  0  0  0  0  0  0  0  0  0  0
    1.7572    2.7569   -2.6099 H   0  0  0  0  0  0  0  0  0  0  0  0
   -0.8866    4.6305   -0.0700 H   0  0  0  0  0  0  0  0  0  0  0  0
   -2.6609    4.4195    0.0802 H   0  0  0  0  0  0  0  0  0  0  0  0
   -1.5826    3.8247    1.3817 H   0  0  0  0  0  0  0  0  0  0  0  0
   -0.9287    2.9642   -2.8957 H   0  0  0  0  0  0  0  0  0  0  0  0
   -1.8386    1.4170   -2.8976 H   0  0  0  0  0  0  0  0  0  0  0  0
   -2.7153    2.9728   -2.7055 H   0  0  0  0  0  0  0  0  0  0  0  0
   -6.3033    0.3350   -1.4880 H   0  0  0  0  0  0  0  0  0  0  0  0
   -5.9092    1.9388   -0.7801 H   0  0  0  0  0  0  0  0  0  0  0  0
   -5.0778    1.3827   -2.2729 H   0  0  0  0  0  0  0  0  0  0  0  0
   -5.5832   -1.0317    1.2911 H   0  0  0  0  0  0  0  0  0  0  0  0
   -3.9151   -0.8739    1.9381 H   0  0  0  0  0  0  0  0  0  0  0  0
   -5.0420    0.5094    2.0485 H   0  0  0  0  0  0  0  0  0  0  0  0
   -1.0149   -3.3285   -2.8953 H   0  0  0  0  0  0  0  0  0  0  0  0
   -2.7487   -3.0821   -3.3045 H   0  0  0  0  0  0  0  0  0  0  0  0
   -1.5847   -1.7271   -3.4743 H   0  0  0  0  0  0  0  0  0  0  0  0
   -1.7525   -4.2205    0.1114 H   0  0  0  0  0  0  0  0  0  0  0  0
   -2.9219   -3.2207    1.0255 H   0  0  0  0  0  0  0  0  0  0  0  0
   -3.4652   -4.1302   -0.4246 H   0  0  0  0  0  0  0  0  0  0  0  0
    1.1562   -4.1018   -1.8797 H   0  0  0  0  0  0  0  0  0  0  0  0
    1.6392   -2.7811   -2.9998 H   0  0  0  0  0  0  0  0  0  0  0  0
    2.8746   -3.9205   -2.3682 H   0  0  0  0  0  0  0  0  0  0  0  0
    1.8192   -3.8454    1.2234 H   0  0  0  0  0  0  0  0  0  0  0  0
    3.5447   -3.8910    0.7201 H   0  0  0  0  0  0  0  0  0  0  0  0
    2.9358   -2.5454    1.7439 H   0  0  0  0  0  0  0  0  0  0  0  0
    6.1461   -0.6999    0.5465 H   0  0  0  0  0  0  0  0  0  0  0  0
    5.8943    1.0150    1.0227 H   0  0  0  0  0  0  0  0  0  0  0  0
    4.8395   -0.2607    1.7055 H   0  0  0  0  0  0  0  0  0  0  0  0
    5.7433    0.3638   -2.5504 H   0  0  0  0  0  0  0  0  0  0  0  0
    4.1715    1.1225   -2.9613 H   0  0  0  0  0  0  0  0  0  0  0  0
    5.3635    2.0161   -1.9577 H   0  0  0  0  0  0  0  0  0  0  0  0
  1  7  1  0  0  0  0
  1 15  1  0  0  0  0
  2 14  1  0  0  0  0
  2  8  1  0  0  0  0
  2 17  1  0  0  0  0
  3  8  1  0  0  0  0
  3 20  1  0  0  0  0
  4 22  1  0  0  0  0
  5 24  1  0  0  0  0
  6  7  1  0  0  0  0
  6 25  1  0  0  0  0
  9  4  1  0  0  0  0
  9  3  1  0  0  0  0
 10  5  1  0  0  0  0
 10  6  1  0  0  0  0
 11 13  1  0  0  0  0
 11 12  1  0  0  0  0
 11 14  1  0  0  0  0
 12  5  1  6  0  0  0
 13  4  1  6  0  0  0
 13 12  1  0  0  0  0
 14  1  1  0  0  0  0
 15 27  1  0  0  0  0
 15 28  1  0  0  0  0
 16  1  1  0  0  0  0
 17 35  1  0  0  0  0
 18  2  1  0  0  0  0
 19 40  1  0  0  0  0
 19  3  1  0  0  0  0
 20 43  1  0  0  0  0
 20 44  1  0  0  0  0
 21  4  1  0  0  0  0
 22 48  1  0  0  0  0
 22 49  1  0  0  0  0
 23 51  1  0  0  0  0
 23  5  1  0  0  0  0
 24 54  1  0  0  0  0
 24 56  1  0  0  0  0
 25 58  1  0  0  0  0
 25 59  1  0  0  0  0
 26 62  1  0  0  0  0
 26  6  1  0  0  0  0
 29 15  1  0  0  0  0
 30 16  1  0  0  0  0
 31 16  1  0  0  0  0
 32 16  1  0  0  0  0
 33 17  1  0  0  0  0
 34 17  1  0  0  0  0
 36 18  1  0  0  0  0
 37 18  1  0  0  0  0
 38 18  1  0  0  0  0
 39 19  1  0  0  0  0
 41 19  1  0  0  0  0
 42 20  1  0  0  0  0
 45 21  1  0  0  0  0
 46 21  1  0  0  0  0
 47 21  1  0  0  0  0
 50 22  1  0  0  0  0
 52 23  1  0  0  0  0
 53 23  1  0  0  0  0
 55 24  1  0  0  0  0
 57 25  1  0  0  0  0
 60 26  1  0  0  0  0
 61 26  1  0  0  0  0
M  END
