1
 OpenBabel05122313113D

 69 73  0  0  1  0  0  0  0  0999 V2000
   -0.7197   -0.3623    0.7447 C   0  0  0  0  0  2  0  0  0  0  0  0
   -1.7349    0.4314    1.1668 N   0  0  0  0  0  0  0  0  0  0  0  0
    0.5279    0.1596    0.7728 N   0  0  0  0  0  0  0  0  0  0  0  0
    0.6684    1.1369    1.0597 H   0  0  0  0  0  0  0  0  0  0  0  0
   -1.5520    1.7627    1.7954 C   0  0  1  0  0  0  0  0  0  0  0  0
   -2.5837    2.1589    1.8979 H   0  0  0  0  0  0  0  0  0  0  0  0
   -0.9798    1.6306    3.2149 C   0  0  0  0  0  0  0  0  0  0  0  0
   -1.0469    2.5930    3.7574 H   0  0  0  0  0  0  0  0  0  0  0  0
   -1.5591    0.8801    3.7826 H   0  0  0  0  0  0  0  0  0  0  0  0
    0.0793    1.3064    3.2170 H   0  0  0  0  0  0  0  0  0  0  0  0
   -3.1374   -0.0680    1.0721 C   0  0  1  0  0  0  0  0  0  0  0  0
   -3.0138   -1.1113    0.7096 H   0  0  0  0  0  0  0  0  0  0  0  0
   -3.8355   -0.1360    2.4282 C   0  0  0  0  0  0  0  0  0  0  0  0
   -3.2749   -0.8061    3.1089 H   0  0  0  0  0  0  0  0  0  0  0  0
   -3.9460    0.8496    2.9241 H   0  0  0  0  0  0  0  0  0  0  0  0
   -4.8521   -0.5539    2.2946 H   0  0  0  0  0  0  0  0  0  0  0  0
   -0.8444    2.7839    0.8980 C   0  0  0  0  0  0  0  0  0  0  0  0
   -1.1785    2.8654   -0.4709 C   0  0  0  0  0  0  0  0  0  0  0  0
   -1.8862    2.1412   -0.8988 H   0  0  0  0  0  0  0  0  0  0  0  0
   -0.6234    3.8604   -1.2859 C   0  0  0  0  0  0  0  0  0  0  0  0
   -0.9013    3.9047   -2.3497 H   0  0  0  0  0  0  0  0  0  0  0  0
    0.2792    4.7954   -0.7524 C   0  0  0  0  0  0  0  0  0  0  0  0
    0.7177    5.5737   -1.3942 H   0  0  0  0  0  0  0  0  0  0  0  0
    0.6278    4.7178    0.6029 C   0  0  0  0  0  0  0  0  0  0  0  0
    1.3423    5.4362    1.0321 H   0  0  0  0  0  0  0  0  0  0  0  0
    0.0731    3.7187    1.4211 C   0  0  0  0  0  0  0  0  0  0  0  0
    0.3592    3.6827    2.4817 H   0  0  0  0  0  0  0  0  0  0  0  0
   -3.8745    0.7021   -0.0144 C   0  0  0  0  0  0  0  0  0  0  0  0
   -3.6202    0.3595   -1.3605 C   0  0  0  0  0  0  0  0  0  0  0  0
   -2.9474   -0.4875   -1.5751 H   0  0  0  0  0  0  0  0  0  0  0  0
   -4.2025    1.0872   -2.4064 C   0  0  0  0  0  0  0  0  0  0  0  0
   -3.9992    0.8027   -3.4500 H   0  0  0  0  0  0  0  0  0  0  0  0
   -5.0488    2.1735   -2.1226 C   0  0  0  0  0  0  0  0  0  0  0  0
   -5.5050    2.7485   -2.9426 H   0  0  0  0  0  0  0  0  0  0  0  0
   -5.3191    2.5131   -0.7893 C   0  0  0  0  0  0  0  0  0  0  0  0
   -5.9897    3.3552   -0.5597 H   0  0  0  0  0  0  0  0  0  0  0  0
   -4.7401    1.7774    0.2588 C   0  0  0  0  0  0  0  0  0  0  0  0
   -4.9760    2.0476    1.2994 H   0  0  0  0  0  0  0  0  0  0  0  0
    1.7199   -0.5639    0.4634 C   0  0  0  0  0  0  0  0  0  0  0  0
    2.7681   -0.5124    1.3947 C   0  0  0  0  0  0  0  0  0  0  0  0
    2.6258    0.0803    2.3127 H   0  0  0  0  0  0  0  0  0  0  0  0
    4.0299   -1.0668    1.1098 C   0  0  0  0  0  0  0  0  0  0  0  0
    4.1089   -1.9159   -0.0114 C   0  0  0  0  0  0  0  0  0  0  0  0
    5.0502   -2.4442   -0.2303 H   0  0  0  0  0  0  0  0  0  0  0  0
    3.0691   -1.9488   -0.9501 C   0  0  0  0  0  0  0  0  0  0  0  0
    3.2174   -2.4945   -1.8951 H   0  0  0  0  0  0  0  0  0  0  0  0
    1.9163   -1.1492   -0.8116 C   0  0  0  0  0  0  0  0  0  0  0  0
    5.2661   -0.5440    1.8052 C   0  0  0  0  0  0  0  0  0  0  0  0
    5.0216   -0.2788    2.8535 H   0  0  0  0  0  0  0  0  0  0  0  0
    6.0462   -1.3302    1.8479 H   0  0  0  0  0  0  0  0  0  0  0  0
    1.1667   -0.6885   -2.0459 C   0  0  0  0  0  0  0  0  0  0  0  0
    0.0683   -0.7310   -1.9035 H   0  0  0  0  0  0  0  0  0  0  0  0
    1.3969   -1.3960   -2.8662 H   0  0  0  0  0  0  0  0  0  0  0  0
    2.8430    2.0795   -0.7295 C   0  0  0  0  0  0  0  0  0  0  0  0
    1.9255    2.6300   -0.4740 H   0  0  0  0  0  0  0  0  0  0  0  0
    3.9180    2.0767    0.1707 C   0  0  0  0  0  0  0  0  0  0  0  0
    3.8209    2.6167    1.1272 H   0  0  0  0  0  0  0  0  0  0  0  0
    5.0411    1.2543   -0.0542 C   0  0  0  0  0  0  0  0  0  0  0  0
    5.1673    0.6836   -1.3379 C   0  0  0  0  0  0  0  0  0  0  0  0
    6.0712    0.1024   -1.5820 H   0  0  0  0  0  0  0  0  0  0  0  0
    4.0953    0.6900   -2.2393 C   0  0  0  0  0  0  0  0  0  0  0  0
    4.1756    0.1124   -3.1743 H   0  0  0  0  0  0  0  0  0  0  0  0
    2.8586    1.2621   -1.8791 C   0  0  0  0  0  0  0  0  0  0  0  0
    5.8911    0.7495    1.0889 C   0  0  0  0  0  0  0  0  0  0  0  0
    6.0250    1.5401    1.8547 H   0  0  0  0  0  0  0  0  0  0  0  0
    6.9022    0.4870    0.7180 H   0  0  0  0  0  0  0  0  0  0  0  0
    1.5636    0.7867   -2.5001 C   0  0  0  0  0  0  0  0  0  0  0  0
    1.6181    0.7939   -3.6084 H   0  0  0  0  0  0  0  0  0  0  0  0
    0.7507    1.4818   -2.2113 H   0  0  0  0  0  0  0  0  0  0  0  0
  1  3  1  0  0  0  0
  1  2  1  0  0  0  0
  2  5  1  0  0  0  0
  3  4  1  0  0  0  0
  5  6  1  1  0  0  0
  5  7  1  0  0  0  0
  7 10  1  0  0  0  0
  7  8  1  0  0  0  0
  7  9  1  0  0  0  0
 11 12  1  6  0  0  0
 11  2  1  0  0  0  0
 11 13  1  0  0  0  0
 13 15  1  0  0  0  0
 13 14  1  0  0  0  0
 16 13  1  0  0  0  0
 17 26  1  0  0  0  0
 17  5  1  0  0  0  0
 18 17  2  0  0  0  0
 19 18  1  0  0  0  0
 20 22  2  0  0  0  0
 20 18  1  0  0  0  0
 21 20  1  0  0  0  0
 22 24  1  0  0  0  0
 23 22  1  0  0  0  0
 24 25  1  0  0  0  0
 24 26  2  0  0  0  0
 26 27  1  0  0  0  0
 28 37  1  0  0  0  0
 28 11  1  0  0  0  0
 29 28  2  0  0  0  0
 30 29  1  0  0  0  0
 31 33  2  0  0  0  0
 31 29  1  0  0  0  0
 32 31  1  0  0  0  0
 33 35  1  0  0  0  0
 34 33  1  0  0  0  0
 35 36  1  0  0  0  0
 35 37  2  0  0  0  0
 37 38  1  0  0  0  0
 39  3  1  0  0  0  0
 39 40  1  0  0  0  0
 40 41  1  0  0  0  0
 42 40  2  0  0  0  0
 42 48  1  0  0  0  0
 43 42  1  0  0  0  0
 44 43  1  0  0  0  0
 45 47  1  0  0  0  0
 45 43  2  0  0  0  0
 46 45  1  0  0  0  0
 47 39  2  0  0  0  0
 48 50  1  0  0  0  0
 48 49  1  0  0  0  0
 51 52  1  0  0  0  0
 51 47  1  0  0  0  0
 53 51  1  0  0  0  0
 54 55  1  0  0  0  0
 54 56  1  0  0  0  0
 56 57  1  0  0  0  0
 58 56  2  0  0  0  0
 58 64  1  0  0  0  0
 59 58  1  0  0  0  0
 60 59  1  0  0  0  0
 61 63  1  0  0  0  0
 61 59  2  0  0  0  0
 62 61  1  0  0  0  0
 63 54  2  0  0  0  0
 64 48  1  0  0  0  0
 64 65  1  0  0  0  0
 66 64  1  0  0  0  0
 67 69  1  0  0  0  0
 67 51  1  0  0  0  0
 67 63  1  0  0  0  0
 68 67  1  0  0  0  0
M  END
