2
q = -2.0, confidence = 0.862

 44 45  0  0  0  0  0  0  0  0999 V2000
   -4.5398    1.2907    0.1602 Si  0  0  0  0  0  0  0  0  0  0  0  0
   -2.7543    0.9764   -0.2716 C   0  0  0  0  0  3  0  0  0  0  0  0
   -1.7508    1.5912   -0.7940 C   0  0  0  0  0  0  0  0  0  0  0  0
   -0.4771    1.7127   -1.2600 C   0  0  0  0  0  0  0  0  0  0  0  0
    0.6790    2.3611   -0.5390 C   0  0  0  0  0  0  0  0  0  0  0  0
    1.7787    1.3208   -0.4007 C   0  0  0  0  0  0  0  0  0  0  0  0
    1.3985    0.0039   -0.3088 C   0  0  0  0  0  3  0  0  0  0  0  0
   -4.6399    1.8798    1.9583 C   0  0  0  0  0  0  0  0  0  0  0  0
   -5.2358    2.6287   -0.9816 C   0  0  0  0  0  0  0  0  0  0  0  0
   -5.5477   -0.2998   -0.0444 C   0  0  0  0  0  0  0  0  0  0  0  0
    3.1731    1.8366   -0.3193 C   0  0  0  0  0  0  0  0  0  0  0  0
    4.2553    1.1881   -0.9608 C   0  0  0  0  0  0  0  0  0  0  0  0
    5.5575    1.6953   -0.8737 C   0  0  0  0  0  0  0  0  0  0  0  0
    5.8181    2.8667   -0.1430 C   0  0  0  0  0  0  0  0  0  0  0  0
    4.7564    3.5322    0.4886 C   0  0  0  0  0  0  0  0  0  0  0  0
    3.4510    3.0287    0.3929 C   0  0  0  0  0  0  0  0  0  0  0  0
    2.4193   -1.0261    0.0184 C   0  0  0  0  0  0  0  0  0  0  0  0
    2.7175   -2.1293   -0.8190 C   0  0  0  0  0  0  0  0  0  0  0  0
    3.6683   -3.0951   -0.4558 C   0  0  0  0  0  0  0  0  0  0  0  0
    4.3513   -2.9997    0.7663 C   0  0  0  0  0  0  0  0  0  0  0  0
    4.0849   -1.9079    1.6088 C   0  0  0  0  0  0  0  0  0  0  0  0
    3.1452   -0.9389    1.2370 C   0  0  0  0  0  0  0  0  0  0  0  0
    0.3512    2.7321    0.4590 H   0  0  0  0  0  0  0  0  0  0  0  0
    1.0394    3.2525   -1.0972 H   0  0  0  0  0  0  0  0  0  0  0  0
   -0.3035    1.5196   -2.3342 H   0  0  0  0  0  0  0  0  0  0  0  0
   -4.0203    2.7874    2.1076 H   0  0  0  0  0  0  0  0  0  0  0  0
   -4.2956    1.1084    2.6752 H   0  0  0  0  0  0  0  0  0  0  0  0
   -5.6886    2.1373    2.2148 H   0  0  0  0  0  0  0  0  0  0  0  0
   -5.1695    2.3151   -2.0433 H   0  0  0  0  0  0  0  0  0  0  0  0
   -4.6646    3.5728   -0.8710 H   0  0  0  0  0  0  0  0  0  0  0  0
   -6.3007    2.8394   -0.7505 H   0  0  0  0  0  0  0  0  0  0  0  0
   -5.0924   -1.1512    0.5008 H   0  0  0  0  0  0  0  0  0  0  0  0
   -5.6353   -0.5869   -1.1123 H   0  0  0  0  0  0  0  0  0  0  0  0
   -6.5763   -0.1551    0.3453 H   0  0  0  0  0  0  0  0  0  0  0  0
    4.0631    0.2757   -1.5417 H   0  0  0  0  0  0  0  0  0  0  0  0
    6.3791    1.1715   -1.3862 H   0  0  0  0  0  0  0  0  0  0  0  0
    6.8427    3.2626   -0.0732 H   0  0  0  0  0  0  0  0  0  0  0  0
    4.9446    4.4540    1.0607 H   0  0  0  0  0  0  0  0  0  0  0  0
    2.6318    3.5624    0.8989 H   0  0  0  0  0  0  0  0  0  0  0  0
    2.2216   -2.2183   -1.7938 H   0  0  0  0  0  0  0  0  0  0  0  0
    3.8801   -3.9301   -1.1420 H   0  0  0  0  0  0  0  0  0  0  0  0
    5.0914   -3.7614    1.0544 H   0  0  0  0  0  0  0  0  0  0  0  0
    4.6234   -1.8027    2.5635 H   0  0  0  0  0  0  0  0  0  0  0  0
    2.9718   -0.0747    1.8948 H   0  0  0  0  0  0  0  0  0  0  0  0
  1  8  1  0  0  0  0
  2  1  1  0  0  0  0
  3  2  2  0  0  0  0
  4  3  2  0  0  0  0
  4  5  1  0  0  0  0
  5  6  1  0  0  0  0
  5 23  1  0  0  0  0
  6 11  1  0  0  0  0
  6  7  2  0  0  0  0
  7 17  1  0  0  0  0
  8 26  1  0  0  0  0
  8 28  1  0  0  0  0
  8 27  1  0  0  0  0
  9 30  1  0  0  0  0
  9 31  1  0  0  0  0
  9  1  1  0  0  0  0
 10  1  1  0  0  0  0
 10 34  1  0  0  0  0
 10 32  1  0  0  0  0
 11 16  1  0  0  0  0
 12 13  1  0  0  0  0
 12 11  2  0  0  0  0
 13 14  2  0  0  0  0
 14 37  1  0  0  0  0
 14 15  1  0  0  0  0
 15 38  1  0  0  0  0
 16 15  2  0  0  0  0
 16 39  1  0  0  0  0
 17 22  1  0  0  0  0
 18 19  1  0  0  0  0
 18 17  2  0  0  0  0
 19 20  2  0  0  0  0
 20 42  1  0  0  0  0
 20 21  1  0  0  0  0
 21 43  1  0  0  0  0
 22 21  2  0  0  0  0
 22 44  1  0  0  0  0
 24  5  1  0  0  0  0
 25  4  1  0  0  0  0
 29  9  1  0  0  0  0
 33 10  1  0  0  0  0
 35 12  1  0  0  0  0
 36 13  1  0  0  0  0
 40 18  1  0  0  0  0
 41 19  1  0  0  0  0
M  END
