1
 OpenBabel05122313113D

  8  8  0  0  0  0  0  0  0  0999 V2000
    1.4232   -0.3122    0.8634 C   0  0  0  0  0  2  0  0  0  0  0  0
    2.6270    0.0267    1.3861 N   0  0  0  0  0  0  0  0  0  0  0  0
    2.9494   -0.4276    2.6559 C   0  0  0  0  0  0  0  0  0  0  0  0
    3.9177   -0.1733    3.1044 H   0  0  0  0  0  0  0  0  0  0  0  0
    1.9426   -1.1762    3.1937 C   0  0  0  0  0  0  0  0  0  0  0  0
    1.9159   -1.6645    4.1748 H   0  0  0  0  0  0  0  0  0  0  0  0
    0.6229   -1.2818    2.0630 S   0  0  0  0  0  0  0  0  0  0  0  0
    3.2771    0.6095    0.8466 H   0  0  0  0  0  0  0  0  0  0  0  0
  1  2  1  0  0  0  0
  1  7  1  0  0  0  0
  2  3  1  0  0  0  0
  3  4  1  0  0  0  0
  3  5  2  0  0  0  0
  5  6  1  0  0  0  0
  7  5  1  0  0  0  0
  8  2  1  0  0  0  0
M  END
