3
 OpenBabel05122313113D

 11 11  0  0  0  0  0  0  0  0999 V2000
    1.5981    1.1368    1.5877 C   0  0  0  0  0  3  0  0  0  0  0  0
    0.4547    1.8426    1.0789 C   0  0  0  0  0  3  0  0  0  0  0  0
    0.7460    2.1380   -0.3019 C   0  0  0  0  0  3  0  0  0  0  0  0
    2.0343    1.5760   -0.5957 C   0  0  0  0  0  3  0  0  0  0  0  0
    2.8038    1.4439    0.7130 C   0  0  0  0  0  0  0  0  0  0  0  0
    1.6765    0.8290    2.6403 H   0  0  0  0  0  0  0  0  0  0  0  0
   -0.4509    2.1237    1.6329 H   0  0  0  0  0  0  0  0  0  0  0  0
    0.0988    2.7014   -0.9856 H   0  0  0  0  0  0  0  0  0  0  0  0
    2.5076    1.6597   -1.5845 H   0  0  0  0  0  0  0  0  0  0  0  0
    3.5767    0.6533    0.7162 H   0  0  0  0  0  0  0  0  0  0  0  0
    3.2996    2.3998    1.0113 H   0  0  0  0  0  0  0  0  0  0  0  0
  1  6  1  0  0  0  0
  2  1  1  0  0  0  0
  2  7  1  0  0  0  0
  3  2  1  0  0  0  0
  4  3  1  0  0  0  0
  4  5  1  0  0  0  0
  5 10  1  0  0  0  0
  5 11  1  0  0  0  0
  5  1  1  0  0  0  0
  8  3  1  0  0  0  0
  9  4  1  0  0  0  0
M  END
