1
 OpenBabel05122313113D

 35 37  0  0  0  0  0  0  0  0999 V2000
    0.5327    0.6804    0.3458 C   0  0  0  0  0  2  0  0  0  0  0  0
    0.7903    2.8941    0.8568 C   0  0  0  0  0  0  0  0  0  0  0  0
    0.5073    3.8600    1.2845 H   0  0  0  0  0  0  0  0  0  0  0  0
    1.9139    2.4972    0.1905 C   0  0  0  0  0  0  0  0  0  0  0  0
    2.8326    3.0310   -0.0670 H   0  0  0  0  0  0  0  0  0  0  0  0
    2.7209    0.4084   -0.9164 C   0  0  0  0  0  0  0  0  0  0  0  0
    2.5855    0.6768   -1.9857 H   0  0  0  0  0  0  0  0  0  0  0  0
    2.4839   -0.6624   -0.7650 H   0  0  0  0  0  0  0  0  0  0  0  0
    4.1400    0.6886   -0.4813 C   0  0  0  0  0  0  0  0  0  0  0  0
    5.0386    1.3642   -1.3277 C   0  0  0  0  0  0  0  0  0  0  0  0
    4.7030    1.6901   -2.3259 H   0  0  0  0  0  0  0  0  0  0  0  0
    6.3557    1.6205   -0.9122 C   0  0  0  0  0  0  0  0  0  0  0  0
    7.0506    2.1472   -1.5841 H   0  0  0  0  0  0  0  0  0  0  0  0
    6.7809    1.2058    0.3586 C   0  0  0  0  0  0  0  0  0  0  0  0
    7.8119    1.4065    0.6878 H   0  0  0  0  0  0  0  0  0  0  0  0
    5.8877    0.5302    1.2085 C   0  0  0  0  0  0  0  0  0  0  0  0
    6.2207    0.1963    2.2031 H   0  0  0  0  0  0  0  0  0  0  0  0
    4.5748    0.2703    0.7940 C   0  0  0  0  0  0  0  0  0  0  0  0
    3.8689   -0.2756    1.4407 H   0  0  0  0  0  0  0  0  0  0  0  0
   -1.3867    1.8723    1.4853 C   0  0  0  0  0  0  0  0  0  0  0  0
   -1.3410    2.4983    2.4007 H   0  0  0  0  0  0  0  0  0  0  0  0
   -1.6605    0.8496    1.8313 H   0  0  0  0  0  0  0  0  0  0  0  0
   -2.4135    2.4300    0.5224 C   0  0  0  0  0  0  0  0  0  0  0  0
   -2.0951    2.8416   -0.7852 C   0  0  0  0  0  0  0  0  0  0  0  0
   -1.0506    2.8007   -1.1291 H   0  0  0  0  0  0  0  0  0  0  0  0
   -3.0986    3.2981   -1.6569 C   0  0  0  0  0  0  0  0  0  0  0  0
   -2.8306    3.6135   -2.6769 H   0  0  0  0  0  0  0  0  0  0  0  0
   -4.4342    3.3533   -1.2326 C   0  0  0  0  0  0  0  0  0  0  0  0
   -5.2200    3.7074   -1.9165 H   0  0  0  0  0  0  0  0  0  0  0  0
   -3.7583    2.5020    0.9438 C   0  0  0  0  0  0  0  0  0  0  0  0
   -4.0214    2.1819    1.9647 H   0  0  0  0  0  0  0  0  0  0  0  0
    1.7384    1.1545   -0.1193 N   0  0  0  0  0  0  0  0  0  0  0  0
   -0.0410    1.7834    0.9402 N   0  0  0  0  0  0  0  0  0  0  0  0
   -4.7597    2.9570    0.0757 C   0  0  0  0  0  0  0  0  0  0  0  0
   -5.8039    2.9985    0.4211 H   0  0  0  0  0  0  0  0  0  0  0  0
  1 33  1  0  0  0  0
  2 33  1  0  0  0  0
  2  3  1  0  0  0  0
  4  2  2  0  0  0  0
  5  4  1  0  0  0  0
  6  8  1  0  0  0  0
  6  9  1  0  0  0  0
  6 32  1  0  0  0  0
  7  6  1  0  0  0  0
  9 18  1  0  0  0  0
 10 12  1  0  0  0  0
 10  9  2  0  0  0  0
 11 10  1  0  0  0  0
 12 14  2  0  0  0  0
 13 12  1  0  0  0  0
 14 15  1  0  0  0  0
 14 16  1  0  0  0  0
 16 17  1  0  0  0  0
 18 16  2  0  0  0  0
 18 19  1  0  0  0  0
 20 22  1  0  0  0  0
 20 21  1  0  0  0  0
 23 30  1  0  0  0  0
 23 20  1  0  0  0  0
 24 23  2  0  0  0  0
 25 24  1  0  0  0  0
 26 28  2  0  0  0  0
 26 24  1  0  0  0  0
 27 26  1  0  0  0  0
 28 34  1  0  0  0  0
 29 28  1  0  0  0  0
 30 31  1  0  0  0  0
 32  4  1  0  0  0  0
 32  1  1  0  0  0  0
 33 20  1  0  0  0  0
 34 35  1  0  0  0  0
 34 30  2  0  0  0  0
M  END
