26
 OpenBabel05122313113D

 37 43  0  0  1  0  0  0  0  0999 V2000
   -0.5859    0.6536    1.3411 S   0  0  0  0  0  1  0  0  0  0  0  0
   -2.2936    0.4751    0.7734 C   0  0  2  0  0  0  0  0  0  0  0  0
   -2.5414   -0.5462   -0.5384 C   0  0  1  0  0  0  0  0  0  0  0  0
   -3.1979   -0.9454    1.0313 B   0  0  2  0  0  0  0  0  0  0  0  0
   -2.6777   -1.8536    1.6238 H   0  0  0  0  0  0  0  0  0  0  0  0
   -3.6518    0.6137    1.7786 B   0  0  0  0  0  0  0  0  0  0  0  0
   -3.4665    0.7419    2.9637 H   0  0  0  0  0  0  0  0  0  0  0  0
   -3.1845    1.9181    0.6515 B   0  0  1  0  0  0  0  0  0  0  0  0
   -2.6549    2.9181    1.0707 H   0  0  0  0  0  0  0  0  0  0  0  0
   -4.1144    1.7441   -0.8501 B   0  0  0  0  0  0  0  0  0  0  0  0
   -4.3926    2.7066   -1.5264 H   0  0  0  0  0  0  0  0  0  0  0  0
   -3.6664    0.1867   -1.5939 B   0  0  2  0  0  0  0  0  0  0  0  0
   -3.5245   -0.0347   -2.7701 H   0  0  0  0  0  0  0  0  0  0  0  0
   -2.4271    1.1707   -0.7875 B   0  0  2  0  0  0  0  0  0  0  0  0
   -4.1362   -1.1289   -0.4754 B   0  0  1  0  0  0  0  0  0  0  0  0
   -4.3337   -2.2442   -0.8869 H   0  0  0  0  0  0  0  0  0  0  0  0
   -4.8784   -0.3871    0.9716 B   0  0  0  0  0  0  0  0  0  0  0  0
   -5.7276   -0.9694    1.6035 H   0  0  0  0  0  0  0  0  0  0  0  0
   -4.8745    1.3940    0.7351 B   0  0  0  0  0  0  0  0  0  0  0  0
   -5.7213    2.1083    1.2176 H   0  0  0  0  0  0  0  0  0  0  0  0
   -5.1704    0.3133   -0.6554 B   0  0  1  0  0  0  0  0  0  0  0  0
   -6.2461    0.2266   -1.1994 H   0  0  0  0  0  0  0  0  0  0  0  0
   -1.0015    1.6315   -1.2958 C   0  0  0  0  0  0  0  0  0  0  0  0
   -0.7865    1.1143   -2.2553 H   0  0  0  0  0  0  0  0  0  0  0  0
   -1.0043    2.7248   -1.4809 H   0  0  0  0  0  0  0  0  0  0  0  0
    0.0910    1.2772   -0.2769 C   0  0  1  0  0  3  0  0  0  0  0  0
    1.2004    2.2591   -0.1508 C   0  0  0  0  0  0  0  0  0  0  0  0
    1.7738    2.6423    1.0840 C   0  0  0  0  0  0  0  0  0  0  0  0
    1.3627    2.2370    2.0214 H   0  0  0  0  0  0  0  0  0  0  0  0
    2.8384    3.5515    1.1395 C   0  0  0  0  0  0  0  0  0  0  0  0
    3.2549    3.8381    2.1175 H   0  0  0  0  0  0  0  0  0  0  0  0
    3.3603    4.1096   -0.0394 C   0  0  0  0  0  0  0  0  0  0  0  0
    4.1929    4.8273    0.0052 H   0  0  0  0  0  0  0  0  0  0  0  0
    2.7932    3.7521   -1.2728 C   0  0  0  0  0  0  0  0  0  0  0  0
    3.1837    4.1863   -2.2059 H   0  0  0  0  0  0  0  0  0  0  0  0
    1.7276    2.8439   -1.3293 C   0  0  0  0  0  0  0  0  0  0  0  0
    1.3000    2.5702   -2.3046 H   0  0  0  0  0  0  0  0  0  0  0  0
  2  4  1  0  0  0  0
  2  6  1  6  0  0  0
  3 15  1  0  0  0  0
  3  2  1  0  0  0  0
  4  5  1  0  0  0  0
  6  7  1  0  0  0  0
  8 19  1  0  0  0  0
  8  2  1  0  0  0  0
  8  9  1  0  0  0  0
 10 14  1  0  0  0  0
 10  8  1  0  0  0  0
 11 10  1  0  0  0  0
 12 14  1  0  0  0  0
 12 21  1  0  0  0  0
 12  3  1  0  0  0  0
 13 12  1  0  0  0  0
 14  3  1  0  0  0  0
 15  4  1  0  0  0  0
 16 15  1  0  0  0  0
 17  4  1  0  0  0  0
 17 18  1  0  0  0  0
 17  6  1  0  0  0  0
 19 20  1  0  0  0  0
 21 15  1  0  0  0  0
 21 19  1  0  0  0  0
 22 21  1  0  0  0  0
 23 14  1  0  0  0  0
 23 26  1  0  0  0  0
 24 23  1  0  0  0  0
 25 23  1  0  0  0  0
 26 27  1  0  0  0  0
 26  1  1  0  0  0  0
 27 28  1  0  0  0  0
 28 30  2  0  0  0  0
 28 29  1  0  0  0  0
 30 31  1  0  0  0  0
 32 33  1  0  0  0  0
 32 30  1  0  0  0  0
 34 32  2  0  0  0  0
 35 34  1  0  0  0  0
 36 34  1  0  0  0  0
 36 27  2  0  0  0  0
 37 36  1  0  0  0  0
M  END
