7
 OpenBabel05122313113D

 22 21  0  0  0  0  0  0  0  0999 V2000
   -2.7284    0.3589   -0.8683 O   0  0  0  0  0  0  0  0  0  0  0  0
    2.7283    0.3589   -0.8684 O   0  0  0  0  0  0  0  0  0  0  0  0
   -2.8363    2.1430    0.5416 O   0  0  0  0  0  0  0  0  0  0  0  0
    2.8364    2.1430    0.5415 O   0  0  0  0  0  0  0  0  0  0  0  0
   -1.3578    0.5526   -1.0113 C   0  0  0  0  0  3  0  0  0  0  0  0
   -0.7103   -0.3592   -1.9044 C   0  0  0  0  0  3  0  0  0  0  0  0
    0.7102   -0.3593   -1.9044 C   0  0  0  0  0  3  0  0  0  0  0  0
    1.3577    0.5526   -1.0113 C   0  0  0  0  0  3  0  0  0  0  0  0
    3.3889    1.2229   -0.0197 C   0  0  0  0  0  0  0  0  0  0  0  0
    4.8347    0.8226    0.1006 C   0  0  0  0  0  0  0  0  0  0  0  0
   -3.3889    1.2230   -0.0196 C   0  0  0  0  0  0  0  0  0  0  0  0
   -4.8346    0.8226    0.1008 C   0  0  0  0  0  0  0  0  0  0  0  0
   -1.0469    1.6014   -0.8798 H   0  0  0  0  0  0  0  0  0  0  0  0
   -1.2855   -1.0998   -2.4799 H   0  0  0  0  0  0  0  0  0  0  0  0
    1.2854   -1.0998   -2.4799 H   0  0  0  0  0  0  0  0  0  0  0  0
    1.0469    1.6014   -0.8798 H   0  0  0  0  0  0  0  0  0  0  0  0
    5.3853    1.5877    0.6737 H   0  0  0  0  0  0  0  0  0  0  0  0
    5.2864    0.6851   -0.9009 H   0  0  0  0  0  0  0  0  0  0  0  0
    4.9000   -0.1537    0.6229 H   0  0  0  0  0  0  0  0  0  0  0  0
   -5.2863    0.6849   -0.9007 H   0  0  0  0  0  0  0  0  0  0  0  0
   -5.3853    1.5878    0.6738 H   0  0  0  0  0  0  0  0  0  0  0  0
   -4.8999   -0.1536    0.6233 H   0  0  0  0  0  0  0  0  0  0  0  0
  1 11  1  0  0  0  0
  2  9  1  0  0  0  0
  5 13  1  0  0  0  0
  5  1  1  0  0  0  0
  6  5  1  0  0  0  0
  7  6  1  0  0  0  0
  7  8  1  0  0  0  0
  8 16  1  0  0  0  0
  8  2  1  0  0  0  0
  9 10  1  0  0  0  0
  9  4  2  0  0  0  0
 10 19  1  0  0  0  0
 10 17  1  0  0  0  0
 11 12  1  0  0  0  0
 11  3  2  0  0  0  0
 12 22  1  0  0  0  0
 12 21  1  0  0  0  0
 14  6  1  0  0  0  0
 15  7  1  0  0  0  0
 18 10  1  0  0  0  0
 20 12  1  0  0  0  0
M  END
