6
 OpenBabel05122313113D

 28 29  0  0  1  0  0  0  0  0999 V2000
    3.0969    2.3483   -0.2894 O   0  0  0  0  0  0  0  0  0  0  0  0
    5.1302   -0.0348   -0.2877 O   0  0  0  0  0  0  0  0  0  0  0  0
    4.0872   -2.0660   -0.0581 O   0  0  0  0  0  0  0  0  0  0  0  0
    1.5919   -0.7938    0.0755 N   0  0  0  0  0  0  0  0  0  0  0  0
    0.9868    1.2665    0.0074 N   0  0  0  0  0  0  0  0  0  0  0  0
    0.4914   -0.0202    0.1083 C   0  0  0  0  0  2  0  0  0  0  0  0
    2.7935   -0.0897   -0.0700 C   0  0  2  0  0  3  0  0  0  0  0  0
    2.4629    1.3023   -0.1477 C   0  0  0  0  0  0  0  0  0  0  0  0
    4.0164   -0.8306   -0.1312 C   0  0  0  0  0  0  0  0  0  0  0  0
    6.3750   -0.7301   -0.3398 C   0  0  0  0  0  0  0  0  0  0  0  0
    6.9128   -1.0438    1.0520 C   0  0  0  0  0  0  0  0  0  0  0  0
    0.2331    2.4575    0.0869 C   0  0  0  0  0  0  0  0  0  0  0  0
   -0.6464    2.6799    1.1640 C   0  0  0  0  0  0  0  0  0  0  0  0
   -1.4050    3.8565    1.2218 C   0  0  0  0  0  0  0  0  0  0  0  0
   -1.2670    4.8364    0.2260 C   0  0  0  0  0  0  0  0  0  0  0  0
   -0.3556    4.6337   -0.8233 C   0  0  0  0  0  0  0  0  0  0  0  0
    0.3941    3.4521   -0.8979 C   0  0  0  0  0  0  0  0  0  0  0  0
    1.5818   -1.8143    0.0809 H   0  0  0  0  0  0  0  0  0  0  0  0
   -0.7287    1.9198    1.9508 H   0  0  0  0  0  0  0  0  0  0  0  0
   -2.1063    4.0077    2.0570 H   0  0  0  0  0  0  0  0  0  0  0  0
   -1.8639    5.7606    0.2710 H   0  0  0  0  0  0  0  0  0  0  0  0
   -0.2330    5.4025   -1.6023 H   0  0  0  0  0  0  0  0  0  0  0  0
    1.1118    3.2830   -1.7107 H   0  0  0  0  0  0  0  0  0  0  0  0
    6.2526   -1.6705   -0.9185 H   0  0  0  0  0  0  0  0  0  0  0  0
    7.0625   -0.0530   -0.8884 H   0  0  0  0  0  0  0  0  0  0  0  0
    6.9833   -0.1212    1.6629 H   0  0  0  0  0  0  0  0  0  0  0  0
    7.9224   -1.5016    0.9887 H   0  0  0  0  0  0  0  0  0  0  0  0
    6.2370   -1.7572    1.5626 H   0  0  0  0  0  0  0  0  0  0  0  0
  1  8  2  0  0  0  0
  2  9  1  0  0  0  0
  4 18  1  0  0  0  0
  4  6  1  0  0  0  0
  5 12  1  0  0  0  0
  5  6  1  0  0  0  0
  7  9  1  6  0  0  0
  7  4  1  0  0  0  0
  8  7  1  0  0  0  0
  8  5  1  0  0  0  0
  9  3  2  0  0  0  0
 10  2  1  0  0  0  0
 10 11  1  0  0  0  0
 11 28  1  0  0  0  0
 11 26  1  0  0  0  0
 12 13  1  0  0  0  0
 13 14  2  0  0  0  0
 13 19  1  0  0  0  0
 14 20  1  0  0  0  0
 15 21  1  0  0  0  0
 15 14  1  0  0  0  0
 16 15  2  0  0  0  0
 17 16  1  0  0  0  0
 17 12  2  0  0  0  0
 22 16  1  0  0  0  0
 23 17  1  0  0  0  0
 24 10  1  0  0  0  0
 25 10  1  0  0  0  0
 27 11  1  0  0  0  0
M  END
