8
 OpenBabel05122313113D

 46 50  0  0  1  0  0  0  0  0999 V2000
   -3.1809    2.2877    0.3082 O   0  0  0  0  0  0  0  0  0  0  0  0
   -4.9280    0.5503   -1.0300 O   0  0  0  0  0  0  0  0  0  0  0  0
    5.5616   -2.2269   -0.0457 O   0  0  0  0  0  0  0  0  0  0  0  0
    6.9825   -0.3990   -0.1568 O   0  0  0  0  0  0  0  0  0  0  0  0
   -2.7389    1.2155   -0.3944 C   0  0  0  0  0  0  0  0  0  0  0  0
   -3.5969    0.3042   -1.0895 C   0  0  0  0  0  0  0  0  0  0  0  0
   -3.0148   -0.7916   -1.8036 C   0  0  0  0  0  3  0  0  0  0  0  0
   -1.6094   -0.9237   -1.8914 C   0  0  0  0  0  3  0  0  0  0  0  0
   -0.7382    0.0202   -1.2597 C   0  0  0  0  0  0  0  0  0  0  0  0
    0.7576   -0.1510   -1.2931 C   0  0  0  0  0  0  0  0  0  0  0  0
    1.4098    0.5589   -0.0929 C   0  0  1  0  0  0  0  0  0  0  0  0
    2.9201    0.3999   -0.0965 C   0  0  0  0  0  0  0  0  0  0  0  0
    3.4416   -0.9217   -0.0386 C   0  0  0  0  0  0  0  0  0  0  0  0
    4.8187   -1.0719   -0.0587 C   0  0  0  0  0  0  0  0  0  0  0  0
    5.6809    0.0366   -0.1250 C   0  0  0  0  0  0  0  0  0  0  0  0
    5.1924    1.3334   -0.1589 C   0  0  0  0  0  0  0  0  0  0  0  0
    3.7834    1.5140   -0.1406 C   0  0  0  0  0  0  0  0  0  0  0  0
    3.1992    2.9079   -0.1220 C   0  0  0  0  0  0  0  0  0  0  0  0
    1.8205    2.9053    0.5305 C   0  0  0  0  0  0  0  0  0  0  0  0
    0.9640    1.9514   -0.1508 N   0  0  2  0  0  0  0  0  0  0  0  0
   -0.4358    2.0946    0.1981 C   0  0  0  0  0  0  0  0  0  0  0  0
   -1.3093    1.0817   -0.5075 C   0  0  0  0  0  0  0  0  0  0  0  0
   -4.2700    2.1338    1.2241 C   0  0  0  0  0  0  0  0  0  0  0  0
   -5.8309   -0.4641   -1.4574 C   0  0  0  0  0  0  0  0  0  0  0  0
    6.9204   -1.8057    0.1025 C   0  0  0  0  0  0  0  0  0  0  0  0
   -3.6576   -1.5476   -2.2704 H   0  0  0  0  0  0  0  0  0  0  0  0
   -1.1803   -1.7836   -2.4244 H   0  0  0  0  0  0  0  0  0  0  0  0
    1.1736    0.2976   -2.2200 H   0  0  0  0  0  0  0  0  0  0  0  0
    1.0037   -1.2308   -1.3022 H   0  0  0  0  0  0  0  0  0  0  0  0
    1.0245    0.0580    0.8376 H   0  0  0  0  0  0  0  0  0  0  0  0
    2.7790   -1.7962    0.0359 H   0  0  0  0  0  0  0  0  0  0  0  0
    5.8732    2.1961   -0.1888 H   0  0  0  0  0  0  0  0  0  0  0  0
    3.1013    3.2999   -1.1586 H   0  0  0  0  0  0  0  0  0  0  0  0
    3.8791    3.5968    0.4206 H   0  0  0  0  0  0  0  0  0  0  0  0
    1.3515    3.9079    0.4464 H   0  0  0  0  0  0  0  0  0  0  0  0
    1.9157    2.6859    1.6285 H   0  0  0  0  0  0  0  0  0  0  0  0
   -0.7808    3.1109   -0.0917 H   0  0  0  0  0  0  0  0  0  0  0  0
   -0.6195    2.0206    1.3030 H   0  0  0  0  0  0  0  0  0  0  0  0
   -4.1798    2.9663    1.9470 H   0  0  0  0  0  0  0  0  0  0  0  0
   -5.2483    2.1838    0.7083 H   0  0  0  0  0  0  0  0  0  0  0  0
   -4.1851    1.1640    1.7586 H   0  0  0  0  0  0  0  0  0  0  0  0
   -6.8450   -0.0757   -1.2524 H   0  0  0  0  0  0  0  0  0  0  0  0
   -5.7381   -0.6631   -2.5470 H   0  0  0  0  0  0  0  0  0  0  0  0
   -5.6785   -1.4057   -0.8889 H   0  0  0  0  0  0  0  0  0  0  0  0
    7.5606   -2.3474   -0.6258 H   0  0  0  0  0  0  0  0  0  0  0  0
    7.2636   -2.0082    1.1477 H   0  0  0  0  0  0  0  0  0  0  0  0
  1 23  1  0  0  0  0
  3 25  1  0  0  0  0
  4 15  1  0  0  0  0
  4 25  1  0  0  0  0
  5  1  1  0  0  0  0
  6  2  1  0  0  0  0
  6  5  2  0  0  0  0
  7  6  1  0  0  0  0
  8  7  1  0  0  0  0
  8  9  1  0  0  0  0
  9 22  2  0  0  0  0
 10  9  1  0  0  0  0
 10 11  1  0  0  0  0
 11 30  1  1  0  0  0
 12 11  1  0  0  0  0
 12 13  1  0  0  0  0
 13 31  1  0  0  0  0
 14  3  1  0  0  0  0
 14 13  2  0  0  0  0
 15 14  1  0  0  0  0
 16 17  1  0  0  0  0
 16 15  2  0  0  0  0
 17 18  1  0  0  0  0
 17 12  2  0  0  0  0
 18 34  1  0  0  0  0
 18 19  1  0  0  0  0
 19 36  1  0  0  0  0
 20 11  1  0  0  0  0
 20 21  1  1  0  0  0
 20 19  1  0  0  0  0
 21 38  1  0  0  0  0
 22  5  1  0  0  0  0
 22 21  1  0  0  0  0
 23 41  1  0  0  0  0
 23 39  1  0  0  0  0
 24 42  1  0  0  0  0
 24  2  1  0  0  0  0
 24 44  1  0  0  0  0
 25 46  1  0  0  0  0
 26  7  1  0  0  0  0
 27  8  1  0  0  0  0
 28 10  1  0  0  0  0
 29 10  1  0  0  0  0
 32 16  1  0  0  0  0
 33 18  1  0  0  0  0
 35 19  1  0  0  0  0
 37 21  1  0  0  0  0
 40 23  1  0  0  0  0
 43 24  1  0  0  0  0
 45 25  1  0  0  0  0
M  END
