2
 OpenBabel05122313113D

 17 16  0  0  0  0  0  0  0  0999 V2000
    1.1485   -1.5167   -0.4929 C   0  0  0  0  0  3  0  0  0  0  0  0
    0.2516   -2.3577    0.2313 C   0  0  0  0  0  3  0  0  0  0  0  0
   -1.0183   -2.6295   -0.3357 C   0  0  0  0  0  3  0  0  0  0  0  0
    2.3516   -0.9752    0.2072 C   0  0  0  0  0  0  0  0  0  0  0  0
    4.5357   -0.0637   -0.1485 C   0  0  0  0  0  0  0  0  0  0  0  0
    4.5056    1.4396    0.0592 C   0  0  0  0  0  0  0  0  0  0  0  0
    2.4667   -0.9005    1.4217 O   0  0  0  0  0  0  0  0  0  0  0  0
    3.2747   -0.5584   -0.6854 O   0  0  0  0  0  0  0  0  0  0  0  0
    1.1997   -1.5672   -1.5946 H   0  0  0  0  0  0  0  0  0  0  0  0
    0.4674   -2.5648    1.2944 H   0  0  0  0  0  0  0  0  0  0  0  0
   -1.7802   -3.1375    0.2767 H   0  0  0  0  0  0  0  0  0  0  0  0
   -1.1305   -2.7342   -1.4294 H   0  0  0  0  0  0  0  0  0  0  0  0
    5.2869   -0.3548   -0.9069 H   0  0  0  0  0  0  0  0  0  0  0  0
    4.7422   -0.5969    0.7999 H   0  0  0  0  0  0  0  0  0  0  0  0
    5.5014    1.7838    0.4031 H   0  0  0  0  0  0  0  0  0  0  0  0
    3.7690    1.7259    0.8356 H   0  0  0  0  0  0  0  0  0  0  0  0
    4.2719    1.9753   -0.8826 H   0  0  0  0  0  0  0  0  0  0  0  0
  1  4  1  0  0  0  0
  1  2  1  0  0  0  0
  2 10  1  0  0  0  0
  3  2  1  0  0  0  0
  3 11  1  0  0  0  0
  4  7  2  0  0  0  0
  5  6  1  0  0  0  0
  5 14  1  0  0  0  0
  6 15  1  0  0  0  0
  6 16  1  0  0  0  0
  8  5  1  0  0  0  0
  8  4  1  0  0  0  0
  9  1  1  0  0  0  0
 12  3  1  0  0  0  0
 13  5  1  0  0  0  0
 17  6  1  0  0  0  0
M  END
