4
 OpenBabel05122313113D

 19 19  0  0  0  0  0  0  0  0999 V2000
    1.1414   -0.6949    0.0728 N   0  0  0  0  0  2  0  0  0  0  0  0
    3.2853    0.5280    0.3042 N   0  0  0  0  0  0  0  0  0  0  0  0
    2.5951   -0.7298    0.0563 B   0  0  0  0  0  0  0  0  0  0  0  0
   -0.0372   -0.5239    0.0568 C   0  0  0  0  0  1  0  0  0  0  0  0
    3.4379   -1.9555   -0.2079 C   0  0  0  0  0  0  0  0  0  0  0  0
    3.0040   -2.9498   -0.3962 H   0  0  0  0  0  0  0  0  0  0  0  0
    4.8182   -1.8082   -0.2142 C   0  0  0  0  0  0  0  0  0  0  0  0
    5.4775   -2.6725   -0.4043 H   0  0  0  0  0  0  0  0  0  0  0  0
    5.4269   -0.5442    0.0244 C   0  0  0  0  0  0  0  0  0  0  0  0
    6.5204   -0.4372    0.0213 H   0  0  0  0  0  0  0  0  0  0  0  0
    4.6522    0.5740    0.2733 C   0  0  0  0  0  0  0  0  0  0  0  0
    5.1097    1.5574    0.4656 H   0  0  0  0  0  0  0  0  0  0  0  0
    2.5494    1.7845    0.5404 C   0  0  0  0  0  0  0  0  0  0  0  0
    3.2134    2.4680    1.1076 H   0  0  0  0  0  0  0  0  0  0  0  0
    1.6847    1.5601    1.1948 H   0  0  0  0  0  0  0  0  0  0  0  0
    2.0726    2.4485   -0.7497 C   0  0  0  0  0  0  0  0  0  0  0  0
    1.5108    3.3736   -0.5125 H   0  0  0  0  0  0  0  0  0  0  0  0
    1.3965    1.7809   -1.3192 H   0  0  0  0  0  0  0  0  0  0  0  0
    2.9268    2.7147   -1.4039 H   0  0  0  0  0  0  0  0  0  0  0  0
  2 13  1  0  0  0  0
  3  1  1  0  0  0  0
  3  2  1  0  0  0  0
  4  1  1  0  0  0  0
  5  3  1  0  0  0  0
  6  5  1  0  0  0  0
  7  5  2  0  0  0  0
  7  9  1  0  0  0  0
  8  7  1  0  0  0  0
  9 11  2  0  0  0  0
 10  9  1  0  0  0  0
 11  2  1  0  0  0  0
 11 12  1  0  0  0  0
 13 14  1  0  0  0  0
 13 15  1  0  0  0  0
 16 17  1  0  0  0  0
 16 13  1  0  0  0  0
 18 16  1  0  0  0  0
 19 16  1  0  0  0  0
M  END
