2
 OpenBabel05122313113D

 14 13  0  0  0  0  0  0  0  0999 V2000
   -0.0008    0.0019    3.2177 Si  0  0  0  0  0  0  0  0  0  0  0  0
   -0.0013    0.0008    1.3417 C   0  0  0  0  0  1  0  0  0  0  0  0
   -1.6767   -0.6425    3.8159 C   0  0  0  0  0  0  0  0  0  0  0  0
    0.2791    1.7764    3.8137 C   0  0  0  0  0  0  0  0  0  0  0  0
    1.3958   -1.1269    3.8158 C   0  0  0  0  0  0  0  0  0  0  0  0
   -2.5057   -0.0121    3.4358 H   0  0  0  0  0  0  0  0  0  0  0  0
   -1.7210   -0.6353    4.9248 H   0  0  0  0  0  0  0  0  0  0  0  0
   -1.8467   -1.6816    3.4700 H   0  0  0  0  0  0  0  0  0  0  0  0
    0.3079    1.8125    4.9225 H   0  0  0  0  0  0  0  0  0  0  0  0
   -0.5359    2.4428    3.4672 H   0  0  0  0  0  0  0  0  0  0  0  0
    1.2394    2.1786    3.4327 H   0  0  0  0  0  0  0  0  0  0  0  0
    1.2638   -2.1604    3.4369 H   0  0  0  0  0  0  0  0  0  0  0  0
    1.4125   -1.1678    4.9247 H   0  0  0  0  0  0  0  0  0  0  0  0
    2.3805   -0.7552    3.4687 H   0  0  0  0  0  0  0  0  0  0  0  0
  1  4  1  0  0  0  0
  1  5  1  0  0  0  0
  1  3  1  0  0  0  0
  2  1  1  0  0  0  0
  3  7  1  0  0  0  0
  4  9  1  0  0  0  0
  5 13  1  0  0  0  0
  6  3  1  0  0  0  0
  8  3  1  0  0  0  0
 10  4  1  0  0  0  0
 11  4  1  0  0  0  0
 12  5  1  0  0  0  0
 14  5  1  0  0  0  0
M  END
