5
 OpenBabel05122313113D

 17 18  0  0  1  0  0  0  0  0999 V2000
   -2.3981    2.2372    0.2148 O   0  0  0  0  0  0  0  0  0  0  0  0
   -1.9590    1.1330   -0.1015 C   0  0  0  0  0  0  0  0  0  0  0  0
   -0.7286    1.0760   -0.9499 C   0  0  0  0  0  3  0  0  0  0  0  0
   -0.1921    0.0551   -1.8166 C   0  0  0  0  0  3  0  0  0  0  0  0
   -0.0614   -1.2879   -1.3769 C   0  0  0  0  0  3  0  0  0  0  0  0
   -0.5362   -1.6478   -0.0652 C   0  0  0  0  0  3  0  0  0  0  0  0
   -1.9333   -1.4410    0.4368 C   0  0  1  0  0  0  0  0  0  0  0  0
   -2.6397   -0.0993    0.3993 C   0  0  2  0  0  0  0  0  0  0  0  0
   -3.0703   -1.2198   -0.5334 C   0  0  0  0  0  0  0  0  0  0  0  0
   -0.4847    2.1072   -1.2563 H   0  0  0  0  0  0  0  0  0  0  0  0
    0.2826    0.3529   -2.7654 H   0  0  0  0  0  0  0  0  0  0  0  0
    0.5234   -1.9938   -1.9881 H   0  0  0  0  0  0  0  0  0  0  0  0
   -0.1136   -2.5953    0.3101 H   0  0  0  0  0  0  0  0  0  0  0  0
   -2.1617   -2.0427    1.3307 H   0  0  0  0  0  0  0  0  0  0  0  0
   -3.3230    0.1369    1.2292 H   0  0  0  0  0  0  0  0  0  0  0  0
   -4.0445   -1.6924   -0.3357 H   0  0  0  0  0  0  0  0  0  0  0  0
   -2.8073   -1.1266   -1.5985 H   0  0  0  0  0  0  0  0  0  0  0  0
  2  1  2  0  0  0  0
  2  8  1  0  0  0  0
  3  2  1  0  0  0  0
  4  5  1  0  0  0  0
  4  3  1  0  0  0  0
  5  6  1  0  0  0  0
  6 13  1  0  0  0  0
  6  7  1  0  0  0  0
  7 14  1  1  0  0  0
  8  7  1  0  0  0  0
  8 15  1  1  0  0  0
  9 16  1  0  0  0  0
  9  8  1  0  0  0  0
  9  7  1  0  0  0  0
 10  3  1  0  0  0  0
 11  4  1  0  0  0  0
 12  5  1  0  0  0  0
 17  9  1  0  0  0  0
M  END
