5
 OpenBabel05122313113D

 25 26  0  0  1  0  0  0  0  0999 V2000
    0.7210   -0.3699    2.5531 O   0  0  0  0  0  0  0  0  0  0  0  0
    4.1630   -1.8906   -0.9385 O   0  0  0  0  0  0  0  0  0  0  0  0
    2.4097   -2.3231    0.4170 O   0  0  0  0  0  0  0  0  0  0  0  0
   -0.2077   -1.0628    0.4852 C   0  0  1  0  0  3  0  0  0  0  0  0
   -0.2923   -1.1237   -0.9520 C   0  0  0  0  0  3  0  0  0  0  0  0
    0.4443   -0.7100   -1.6508 H   0  0  0  0  0  0  0  0  0  0  0  0
    3.1106   -1.5124   -0.1713 C   0  0  0  0  0  0  0  0  0  0  0  0
    0.7999   -0.3716    1.3310 C   0  0  0  0  0  0  0  0  0  0  0  0
   -1.4911   -1.8121   -1.3022 C   0  0  0  0  0  3  0  0  0  0  0  0
   -1.8407   -2.0241   -2.3193 H   0  0  0  0  0  0  0  0  0  0  0  0
    1.8284    0.4845    0.6190 C   0  0  0  0  0  0  0  0  0  0  0  0
    3.6359    2.2267   -0.6739 C   0  0  0  0  0  0  0  0  0  0  0  0
    4.3371    2.9057   -1.1814 H   0  0  0  0  0  0  0  0  0  0  0  0
    2.9147   -0.0371   -0.1257 C   0  0  0  0  0  0  0  0  0  0  0  0
   -2.1673   -2.1704   -0.0799 C   0  0  0  0  0  0  0  0  0  0  0  0
   -3.1251   -2.6995   -0.0085 H   0  0  0  0  0  0  0  0  0  0  0  0
   -1.3816   -1.7105    1.0134 C   0  0  0  0  0  0  0  0  0  0  0  0
   -1.5991   -1.8119    2.0827 H   0  0  0  0  0  0  0  0  0  0  0  0
    1.6774    1.8782    0.7256 C   0  0  0  0  0  0  0  0  0  0  0  0
    0.8405    2.2782    1.3172 H   0  0  0  0  0  0  0  0  0  0  0  0
    2.5678    2.7448    0.0765 C   0  0  0  0  0  0  0  0  0  0  0  0
    2.4253    3.8329    0.1574 H   0  0  0  0  0  0  0  0  0  0  0  0
    3.8134    0.8416   -0.7663 C   0  0  0  0  0  0  0  0  0  0  0  0
    4.6573    0.4195   -1.3293 H   0  0  0  0  0  0  0  0  0  0  0  0
    4.1949   -2.8691   -0.8699 H   0  0  0  0  0  0  0  0  0  0  0  0
  2 25  1  0  0  0  0
  2  7  1  0  0  0  0
  4 17  1  0  0  0  0
  4  8  1  6  0  0  0
  5  4  1  0  0  0  0
  6  5  1  0  0  0  0
  7 14  1  0  0  0  0
  7  3  2  0  0  0  0
  8  1  2  0  0  0  0
  9  5  1  0  0  0  0
  9 15  1  0  0  0  0
 10  9  1  0  0  0  0
 11 19  1  0  0  0  0
 11  8  1  0  0  0  0
 12 21  1  0  0  0  0
 13 12  1  0  0  0  0
 14 11  2  0  0  0  0
 15 16  1  0  0  0  0
 15 17  2  0  0  0  0
 17 18  1  0  0  0  0
 19 20  1  0  0  0  0
 21 22  1  0  0  0  0
 21 19  2  0  0  0  0
 23 12  2  0  0  0  0
 23 14  1  0  0  0  0
 24 23  1  0  0  0  0
M  END
