6
 OpenBabel05122313113D

 24 24  0  0  0  0  0  0  0  0999 V2000
    3.0598    0.2108   -0.2031 N   0  0  0  0  0  0  0  0  0  0  0  0
    2.5823   -1.8312    0.1769 N   0  0  0  0  0  0  0  0  0  0  0  0
    4.2644   -0.4344   -0.1979 N   0  0  0  0  0  0  0  0  0  0  0  0
    3.9443   -1.6855    0.0347 C   0  0  0  0  0  0  0  0  0  0  0  0
    4.6588   -2.5135    0.1112 H   0  0  0  0  0  0  0  0  0  0  0  0
    1.9993   -0.5985    0.0207 C   0  0  0  0  0  2  0  0  0  0  0  0
    3.0118    1.6708   -0.3978 C   0  0  0  0  0  0  0  0  0  0  0  0
    1.9251    1.8924   -0.4030 H   0  0  0  0  0  0  0  0  0  0  0  0
    3.6770    2.3706    0.7874 C   0  0  0  0  0  0  0  0  0  0  0  0
    3.1880    2.0795    1.7384 H   0  0  0  0  0  0  0  0  0  0  0  0
    3.5910    3.4688    0.6723 H   0  0  0  0  0  0  0  0  0  0  0  0
    4.7518    2.1065    0.8469 H   0  0  0  0  0  0  0  0  0  0  0  0
    3.6058    2.0389   -1.7555 C   0  0  0  0  0  0  0  0  0  0  0  0
    4.6694    1.7337   -1.8155 H   0  0  0  0  0  0  0  0  0  0  0  0
    3.5444    3.1346   -1.9053 H   0  0  0  0  0  0  0  0  0  0  0  0
    3.0359    1.5440   -2.5659 H   0  0  0  0  0  0  0  0  0  0  0  0
    1.8566   -3.0645    0.4931 C   0  0  0  0  0  0  0  0  0  0  0  0
    1.2923   -2.8894    1.4330 H   0  0  0  0  0  0  0  0  0  0  0  0
    2.6287   -3.8394    0.6865 H   0  0  0  0  0  0  0  0  0  0  0  0
    0.9356   -3.5029   -0.6122 C   0  0  0  0  0  0  0  0  0  0  0  0
    1.3707   -3.5342   -1.6267 H   0  0  0  0  0  0  0  0  0  0  0  0
   -0.3417   -3.8649   -0.4104 C   0  0  0  0  0  0  0  0  0  0  0  0
   -0.8014   -3.8116    0.5901 H   0  0  0  0  0  0  0  0  0  0  0  0
   -0.9715   -4.2184   -1.2409 H   0  0  0  0  0  0  0  0  0  0  0  0
  1  3  1  0  0  0  0
  1  6  1  0  0  0  0
  2 17  1  0  0  0  0
  3  4  2  0  0  0  0
  4  5  1  0  0  0  0
  4  2  1  0  0  0  0
  6  2  1  0  0  0  0
  7  1  1  0  0  0  0
  7  9  1  0  0  0  0
  8  7  1  0  0  0  0
  9 12  1  0  0  0  0
  9 10  1  0  0  0  0
 11  9  1  0  0  0  0
 13  7  1  0  0  0  0
 14 13  1  0  0  0  0
 15 13  1  0  0  0  0
 16 13  1  0  0  0  0
 17 19  1  0  0  0  0
 17 18  1  0  0  0  0
 20 22  2  0  0  0  0
 20 17  1  0  0  0  0
 21 20  1  0  0  0  0
 22 23  1  0  0  0  0
 24 22  1  0  0  0  0
M  END
