71
 OpenBabel05122313113D

 77 77  0  0  1  0  0  0  0  0999 V2000
    2.3174    0.2140   -0.2072 P   0  0  0  0  0  0  0  0  0  0  0  0
   -2.3174    0.2139   -0.2072 P   0  0  0  0  0  0  0  0  0  0  0  0
   -1.2919    2.8366   -0.6400 C   0  0  1  0  0  0  0  0  0  0  0  0
   -1.3366    3.6298   -1.4274 H   0  0  0  0  0  0  0  0  0  0  0  0
    1.2918    2.8366   -0.6400 C   0  0  2  0  0  0  0  0  0  0  0  0
    1.3365    3.6299   -1.4274 H   0  0  0  0  0  0  0  0  0  0  0  0
    4.9127   -0.2748   -1.3710 C   0  0  0  0  0  0  0  0  0  0  0  0
    4.9897    0.8062   -1.6055 H   0  0  0  0  0  0  0  0  0  0  0  0
    5.3955   -0.4514   -0.3905 H   0  0  0  0  0  0  0  0  0  0  0  0
    5.5108   -0.8201   -2.1329 H   0  0  0  0  0  0  0  0  0  0  0  0
   -3.0556    0.1594    1.5897 C   0  0  0  0  0  0  0  0  0  0  0  0
   -1.2552    3.5850    0.6999 C   0  0  0  0  0  0  0  0  0  0  0  0
   -1.2794    2.8535    1.5327 H   0  0  0  0  0  0  0  0  0  0  0  0
   -2.1710    4.2064    0.7986 H   0  0  0  0  0  0  0  0  0  0  0  0
   -0.0000    2.0468   -0.9236 C   0  0  2  0  0  3  0  0  0  0  0  0
   -3.4616   -0.7799   -1.4053 C   0  0  0  0  0  0  0  0  0  0  0  0
   -0.0000    4.4469    0.8350 C   0  0  0  0  0  0  0  0  0  0  0  0
   -0.0000    4.9826    1.8072 H   0  0  0  0  0  0  0  0  0  0  0  0
   -0.0001    5.2308    0.0439 H   0  0  0  0  0  0  0  0  0  0  0  0
   -2.5581    1.9769   -0.8156 C   0  0  0  0  0  0  0  0  0  0  0  0
   -2.7965    1.8807   -1.8917 H   0  0  0  0  0  0  0  0  0  0  0  0
   -3.4384    2.4624   -0.3546 H   0  0  0  0  0  0  0  0  0  0  0  0
    2.5581    1.9770   -0.8156 C   0  0  0  0  0  0  0  0  0  0  0  0
    3.4384    2.4625   -0.3546 H   0  0  0  0  0  0  0  0  0  0  0  0
    2.7965    1.8808   -1.8917 H   0  0  0  0  0  0  0  0  0  0  0  0
   -4.9127   -0.2748   -1.3710 C   0  0  0  0  0  0  0  0  0  0  0  0
   -5.3955   -0.4514   -0.3905 H   0  0  0  0  0  0  0  0  0  0  0  0
   -4.9896    0.8062   -1.6056 H   0  0  0  0  0  0  0  0  0  0  0  0
   -5.5108   -0.8201   -2.1329 H   0  0  0  0  0  0  0  0  0  0  0  0
   -1.8981    0.3728    2.5838 C   0  0  0  0  0  0  0  0  0  0  0  0
   -1.3026    1.2784    2.3658 H   0  0  0  0  0  0  0  0  0  0  0  0
   -2.3178    0.4742    3.6077 H   0  0  0  0  0  0  0  0  0  0  0  0
   -1.2041   -0.4879    2.5723 H   0  0  0  0  0  0  0  0  0  0  0  0
    3.4011   -2.2904   -1.1107 C   0  0  0  0  0  0  0  0  0  0  0  0
    3.9335   -2.5770   -0.1890 H   0  0  0  0  0  0  0  0  0  0  0  0
    2.3544   -2.6426   -1.0230 H   0  0  0  0  0  0  0  0  0  0  0  0
    3.8809   -2.8341   -1.9524 H   0  0  0  0  0  0  0  0  0  0  0  0
    1.2552    3.5851    0.6999 C   0  0  0  0  0  0  0  0  0  0  0  0
    2.1709    4.2065    0.7986 H   0  0  0  0  0  0  0  0  0  0  0  0
    1.2794    2.8535    1.5327 H   0  0  0  0  0  0  0  0  0  0  0  0
   -3.6725   -1.2125    1.9135 C   0  0  0  0  0  0  0  0  0  0  0  0
   -4.6049   -1.4076    1.3510 H   0  0  0  0  0  0  0  0  0  0  0  0
   -2.9544   -2.0358    1.7311 H   0  0  0  0  0  0  0  0  0  0  0  0
   -3.9327   -1.2287    2.9936 H   0  0  0  0  0  0  0  0  0  0  0  0
    1.8981    0.3728    2.5838 C   0  0  0  0  0  0  0  0  0  0  0  0
    1.2041   -0.4878    2.5724 H   0  0  0  0  0  0  0  0  0  0  0  0
    2.3178    0.4743    3.6077 H   0  0  0  0  0  0  0  0  0  0  0  0
    1.3026    1.2784    2.3658 H   0  0  0  0  0  0  0  0  0  0  0  0
   -2.8841   -0.5993   -2.8236 C   0  0  0  0  0  0  0  0  0  0  0  0
   -1.8321   -0.9444   -2.8677 H   0  0  0  0  0  0  0  0  0  0  0  0
   -3.4801   -1.2154   -3.5293 H   0  0  0  0  0  0  0  0  0  0  0  0
   -2.9320    0.4449   -3.1913 H   0  0  0  0  0  0  0  0  0  0  0  0
    4.1156    1.2552    1.7977 C   0  0  0  0  0  0  0  0  0  0  0  0
    3.6812    2.2726    1.7611 H   0  0  0  0  0  0  0  0  0  0  0  0
    4.5641    1.1292    2.8063 H   0  0  0  0  0  0  0  0  0  0  0  0
    4.9405    1.2020    1.0605 H   0  0  0  0  0  0  0  0  0  0  0  0
    2.8841   -0.5993   -2.8237 C   0  0  0  0  0  0  0  0  0  0  0  0
    2.9321    0.4450   -3.1913 H   0  0  0  0  0  0  0  0  0  0  0  0
    3.4801   -1.2154   -3.5293 H   0  0  0  0  0  0  0  0  0  0  0  0
    1.8321   -0.9443   -2.8678 H   0  0  0  0  0  0  0  0  0  0  0  0
   -3.4012   -2.2905   -1.1106 C   0  0  0  0  0  0  0  0  0  0  0  0
   -3.9336   -2.5770   -0.1890 H   0  0  0  0  0  0  0  0  0  0  0  0
   -3.8809   -2.8341   -1.9524 H   0  0  0  0  0  0  0  0  0  0  0  0
   -2.3545   -2.6427   -1.0229 H   0  0  0  0  0  0  0  0  0  0  0  0
    3.4616   -0.7799   -1.4053 C   0  0  0  0  0  0  0  0  0  0  0  0
    3.0556    0.1594    1.5897 C   0  0  0  0  0  0  0  0  0  0  0  0
   -4.1156    1.2552    1.7977 C   0  0  0  0  0  0  0  0  0  0  0  0
   -4.9405    1.2020    1.0605 H   0  0  0  0  0  0  0  0  0  0  0  0
   -4.5640    1.1292    2.8063 H   0  0  0  0  0  0  0  0  0  0  0  0
   -3.6811    2.2726    1.7611 H   0  0  0  0  0  0  0  0  0  0  0  0
   -0.0000    1.1684   -2.0687 C   0  0  0  0  0  3  0  0  0  0  0  0
    0.9090    1.0777   -2.6830 H   0  0  0  0  0  0  0  0  0  0  0  0
   -0.9090    1.0777   -2.6830 H   0  0  0  0  0  0  0  0  0  0  0  0
    3.6724   -1.2125    1.9135 C   0  0  0  0  0  0  0  0  0  0  0  0
    2.9543   -2.0358    1.7312 H   0  0  0  0  0  0  0  0  0  0  0  0
    4.6049   -1.4076    1.3510 H   0  0  0  0  0  0  0  0  0  0  0  0
    3.9327   -1.2287    2.9936 H   0  0  0  0  0  0  0  0  0  0  0  0
  1 66  1  0  0  0  0
  2 11  1  0  0  0  0
  3  4  1  6  0  0  0
  3 12  1  0  0  0  0
  5  6  1  6  0  0  0
  5 38  1  0  0  0  0
  7  9  1  0  0  0  0
  8  7  1  0  0  0  0
 10  7  1  0  0  0  0
 11 67  1  0  0  0  0
 11 41  1  0  0  0  0
 11 30  1  0  0  0  0
 12 14  1  0  0  0  0
 12 17  1  0  0  0  0
 12 13  1  0  0  0  0
 15 71  1  6  0  0  0
 15  5  1  0  0  0  0
 15  3  1  0  0  0  0
 16 26  1  0  0  0  0
 16 61  1  0  0  0  0
 16  2  1  0  0  0  0
 17 18  1  0  0  0  0
 19 17  1  0  0  0  0
 20  3  1  0  0  0  0
 20 22  1  0  0  0  0
 20  2  1  0  0  0  0
 21 20  1  0  0  0  0
 23  5  1  0  0  0  0
 23 24  1  0  0  0  0
 23  1  1  0  0  0  0
 25 23  1  0  0  0  0
 26 27  1  0  0  0  0
 28 26  1  0  0  0  0
 29 26  1  0  0  0  0
 30 32  1  0  0  0  0
 31 30  1  0  0  0  0
 33 30  1  0  0  0  0
 34 36  1  0  0  0  0
 34 35  1  0  0  0  0
 37 34  1  0  0  0  0
 38 39  1  0  0  0  0
 38 17  1  0  0  0  0
 38 40  1  0  0  0  0
 41 44  1  0  0  0  0
 42 41  1  0  0  0  0
 43 41  1  0  0  0  0
 45 47  1  0  0  0  0
 46 45  1  0  0  0  0
 48 45  1  0  0  0  0
 49 16  1  0  0  0  0
 50 49  1  0  0  0  0
 51 49  1  0  0  0  0
 52 49  1  0  0  0  0
 53 55  1  0  0  0  0
 54 53  1  0  0  0  0
 56 53  1  0  0  0  0
 57 65  1  0  0  0  0
 58 57  1  0  0  0  0
 59 57  1  0  0  0  0
 60 57  1  0  0  0  0
 61 64  1  0  0  0  0
 61 62  1  0  0  0  0
 63 61  1  0  0  0  0
 65  7  1  0  0  0  0
 65 34  1  0  0  0  0
 65  1  1  0  0  0  0
 66 53  1  0  0  0  0
 66 74  1  0  0  0  0
 66 45  1  0  0  0  0
 67 69  1  0  0  0  0
 68 67  1  0  0  0  0
 70 67  1  0  0  0  0
 72 71  1  0  0  0  0
 73 71  1  0  0  0  0
 74 77  1  0  0  0  0
 75 74  1  0  0  0  0
 76 74  1  0  0  0  0
M  END
