5
 OpenBabel05122313113D

 24 24  0  0  1  0  0  0  0  0999 V2000
    1.3850   -0.6729    1.2767 O   0  0  0  0  0  0  0  0  0  0  0  0
   -2.3819   -1.6671   -1.2795 C   0  0  0  0  0  3  0  0  0  0  0  0
   -3.1523   -1.7963   -2.0489 H   0  0  0  0  0  0  0  0  0  0  0  0
    5.7822    1.3206    0.1099 O   0  0  0  0  0  0  0  0  0  0  0  0
   -1.1144   -1.0417   -1.4626 C   0  0  0  0  0  3  0  0  0  0  0  0
   -0.7438   -0.6114   -2.4002 H   0  0  0  0  0  0  0  0  0  0  0  0
    6.3356   -0.8623    0.3061 O   0  0  0  0  0  0  0  0  0  0  0  0
   -0.4034   -1.0813   -0.2037 C   0  0  2  0  0  3  0  0  0  0  0  0
   -1.2669   -1.7302    0.7505 C   0  0  0  0  0  0  0  0  0  0  0  0
   -0.9993   -1.8991    1.8000 H   0  0  0  0  0  0  0  0  0  0  0  0
   -2.4759   -2.0956    0.0941 C   0  0  0  0  0  0  0  0  0  0  0  0
   -3.3326   -2.6039    0.5517 H   0  0  0  0  0  0  0  0  0  0  0  0
    0.9348   -0.5245    0.1445 C   0  0  0  0  0  0  0  0  0  0  0  0
    1.6920    0.2169   -0.9493 C   0  0  0  0  0  0  0  0  0  0  0  0
    1.0498    1.0604   -1.2863 H   0  0  0  0  0  0  0  0  0  0  0  0
    1.7703   -0.4551   -1.8345 H   0  0  0  0  0  0  0  0  0  0  0  0
    3.0646    0.7323   -0.5205 C   0  0  0  0  0  0  0  0  0  0  0  0
    3.4601    1.4210   -1.2936 H   0  0  0  0  0  0  0  0  0  0  0  0
    2.9567    1.3364    0.4028 H   0  0  0  0  0  0  0  0  0  0  0  0
    4.0810   -0.3791   -0.2666 C   0  0  0  0  0  0  0  0  0  0  0  0
    3.7532   -1.0282    0.5718 H   0  0  0  0  0  0  0  0  0  0  0  0
    4.1815   -1.0541   -1.1455 H   0  0  0  0  0  0  0  0  0  0  0  0
    5.4602    0.1483    0.0624 C   0  0  0  0  0  0  0  0  0  0  0  0
    7.1890   -0.4210    0.5090 H   0  0  0  0  0  0  0  0  0  0  0  0
  2 11  1  0  0  0  0
  3  2  1  0  0  0  0
  5  2  1  0  0  0  0
  5  8  1  0  0  0  0
  6  5  1  0  0  0  0
  7 24  1  0  0  0  0
  8 13  1  1  0  0  0
  8  9  1  0  0  0  0
  9 10  1  0  0  0  0
 11 12  1  0  0  0  0
 11  9  2  0  0  0  0
 13  1  2  0  0  0  0
 14 17  1  0  0  0  0
 14 13  1  0  0  0  0
 15 14  1  0  0  0  0
 16 14  1  0  0  0  0
 17 20  1  0  0  0  0
 17 19  1  0  0  0  0
 18 17  1  0  0  0  0
 20 23  1  0  0  0  0
 20 21  1  0  0  0  0
 22 20  1  0  0  0  0
 23  4  2  0  0  0  0
 23  7  1  0  0  0  0
M  END
