3
 OpenBabel05122313113D

 32 32  0  0  0  0  0  0  0  0999 V2000
   -5.2394   -2.5979   -0.4697 S   0  0  0  0  0  0  0  0  0  0  0  0
   -7.4055    1.4147    0.0984 Si  0  0  0  0  0  0  0  0  0  0  0  0
    1.6743   -0.3732    0.0963 C   0  0  0  0  0  3  0  0  0  0  0  0
    0.4809   -0.7004   -0.0375 C   0  0  0  0  0  0  0  0  0  0  0  0
   -0.8822   -1.1162   -0.1315 C   0  0  0  0  0  0  0  0  0  0  0  0
   -1.9243   -0.3667    0.4696 C   0  0  0  0  0  0  0  0  0  0  0  0
   -1.6755    0.5537    1.0194 H   0  0  0  0  0  0  0  0  0  0  0  0
   -3.2583   -0.7735    0.3839 C   0  0  0  0  0  0  0  0  0  0  0  0
   -4.0290   -0.1627    0.8731 H   0  0  0  0  0  0  0  0  0  0  0  0
   -3.6065   -1.9532   -0.3153 C   0  0  0  0  0  0  0  0  0  0  0  0
   -2.5701   -2.7062   -0.9234 C   0  0  0  0  0  0  0  0  0  0  0  0
   -2.8238   -3.6236   -1.4764 H   0  0  0  0  0  0  0  0  0  0  0  0
   -1.2412   -2.3003   -0.8301 C   0  0  0  0  0  0  0  0  0  0  0  0
   -0.4539   -2.9027   -1.3077 H   0  0  0  0  0  0  0  0  0  0  0  0
   -6.3008   -1.2556    0.1949 C   0  0  0  0  0  0  0  0  0  0  0  0
   -7.2748   -1.7648    0.3438 H   0  0  0  0  0  0  0  0  0  0  0  0
   -5.9309   -1.0043    1.2113 H   0  0  0  0  0  0  0  0  0  0  0  0
   -6.4462   -0.0324   -0.7066 C   0  0  0  0  0  0  0  0  0  0  0  0
   -6.9446   -0.3235   -1.6556 H   0  0  0  0  0  0  0  0  0  0  0  0
   -5.4464    0.3586   -0.9966 H   0  0  0  0  0  0  0  0  0  0  0  0
   -6.3931    2.0449    1.5740 C   0  0  0  0  0  0  0  0  0  0  0  0
   -6.8950    2.9069    2.0597 H   0  0  0  0  0  0  0  0  0  0  0  0
   -5.3860    2.3827    1.2514 H   0  0  0  0  0  0  0  0  0  0  0  0
   -6.2609    1.2618    2.3491 H   0  0  0  0  0  0  0  0  0  0  0  0
   -7.5934    2.7864   -1.1875 C   0  0  0  0  0  0  0  0  0  0  0  0
   -8.1231    3.6621   -0.7592 H   0  0  0  0  0  0  0  0  0  0  0  0
   -8.1761    2.4363   -2.0641 H   0  0  0  0  0  0  0  0  0  0  0  0
   -6.6056    3.1344   -1.5535 H   0  0  0  0  0  0  0  0  0  0  0  0
   -9.0997    0.8146    0.6854 C   0  0  0  0  0  0  0  0  0  0  0  0
   -9.0106    0.0229    1.4576 H   0  0  0  0  0  0  0  0  0  0  0  0
   -9.6936    0.4034   -0.1568 H   0  0  0  0  0  0  0  0  0  0  0  0
   -9.6815    1.6480    1.1301 H   0  0  0  0  0  0  0  0  0  0  0  0
  1 10  1  0  0  0  0
  1 15  1  0  0  0  0
  2 29  1  0  0  0  0
  2 21  1  0  0  0  0
  4  3  3  0  0  0  0
  5  4  1  0  0  0  0
  5  6  1  0  0  0  0
  6  7  1  0  0  0  0
  8  6  2  0  0  0  0
  8  9  1  0  0  0  0
 10  8  1  0  0  0  0
 11 13  1  0  0  0  0
 11 10  2  0  0  0  0
 12 11  1  0  0  0  0
 13  5  2  0  0  0  0
 14 13  1  0  0  0  0
 15 16  1  0  0  0  0
 15 17  1  0  0  0  0
 18  2  1  0  0  0  0
 18 15  1  0  0  0  0
 19 18  1  0  0  0  0
 20 18  1  0  0  0  0
 21 22  1  0  0  0  0
 21 24  1  0  0  0  0
 23 21  1  0  0  0  0
 25 26  1  0  0  0  0
 25  2  1  0  0  0  0
 27 25  1  0  0  0  0
 28 25  1  0  0  0  0
 29 32  1  0  0  0  0
 29 30  1  0  0  0  0
 31 29  1  0  0  0  0
M  END
