12
 OpenBabel05122313113D

 28 28  0  0  1  0  0  0  0  0999 V2000
   -1.1393    1.2690   -0.5447 O   0  0  0  0  0  0  0  0  0  0  0  0
   -2.4586    1.3844    1.2934 O   0  0  0  0  0  0  0  0  0  0  0  0
   -1.9892   -1.9578    0.7481 O   0  0  0  0  0  0  0  0  0  0  0  0
   -2.9931   -0.6475   -0.8313 O   0  0  0  0  0  0  0  0  0  0  0  0
   -0.7866   -0.0529   -0.1469 C   0  0  2  0  0  0  0  0  0  0  0  0
    0.0694   -0.0668    1.1045 C   0  0  0  0  0  3  0  0  0  0  0  0
   -0.1384    0.6774    1.8866 H   0  0  0  0  0  0  0  0  0  0  0  0
    0.8135   -1.2202    1.4244 C   0  0  0  0  0  0  0  0  0  0  0  0
    1.1684   -1.3812    2.4545 H   0  0  0  0  0  0  0  0  0  0  0  0
    1.2569   -2.0943    0.3818 C   0  0  0  0  0  0  0  0  0  0  0  0
    1.8631   -2.9840    0.6000 H   0  0  0  0  0  0  0  0  0  0  0  0
    0.9369   -1.7224   -0.9626 C   0  0  0  0  0  3  0  0  0  0  0  0
    1.3873   -2.2742   -1.8026 H   0  0  0  0  0  0  0  0  0  0  0  0
    0.1732   -0.5593   -1.2019 C   0  0  0  0  0  3  0  0  0  0  0  0
    0.0414   -0.1864   -2.2292 H   0  0  0  0  0  0  0  0  0  0  0  0
   -2.0657    1.9035    0.2702 C   0  0  0  0  0  0  0  0  0  0  0  0
   -2.4667    3.2259   -0.3038 C   0  0  0  0  0  0  0  0  0  0  0  0
   -3.0353    3.8005    0.4470 H   0  0  0  0  0  0  0  0  0  0  0  0
   -3.1059    3.0487   -1.1932 H   0  0  0  0  0  0  0  0  0  0  0  0
   -1.5800    3.7930   -0.6466 H   0  0  0  0  0  0  0  0  0  0  0  0
   -2.0227   -0.9974    0.0064 C   0  0  0  0  0  0  0  0  0  0  0  0
   -4.2407   -1.4150   -0.7526 C   0  0  0  0  0  0  0  0  0  0  0  0
   -3.9790   -2.4740   -0.5599 H   0  0  0  0  0  0  0  0  0  0  0  0
   -4.6746   -1.3186   -1.7653 H   0  0  0  0  0  0  0  0  0  0  0  0
   -5.1488   -0.8517    0.3220 C   0  0  0  0  0  0  0  0  0  0  0  0
   -6.1051   -1.4117    0.3231 H   0  0  0  0  0  0  0  0  0  0  0  0
   -5.3758    0.2167    0.1392 H   0  0  0  0  0  0  0  0  0  0  0  0
   -4.6919   -0.9512    1.3254 H   0  0  0  0  0  0  0  0  0  0  0  0
  1 16  1  0  0  0  0
  4 22  1  0  0  0  0
  4 21  1  0  0  0  0
  5  1  1  6  0  0  0
  5 21  1  0  0  0  0
  5  6  1  0  0  0  0
  6  8  1  0  0  0  0
  6  7  1  0  0  0  0
  8  9  1  0  0  0  0
 10 11  1  0  0  0  0
 10  8  2  0  0  0  0
 12 10  1  0  0  0  0
 13 12  1  0  0  0  0
 14 12  1  0  0  0  0
 14  5  1  0  0  0  0
 15 14  1  0  0  0  0
 16  2  2  0  0  0  0
 17 16  1  0  0  0  0
 17 18  1  0  0  0  0
 19 17  1  0  0  0  0
 20 17  1  0  0  0  0
 21  3  2  0  0  0  0
 22 23  1  0  0  0  0
 22 25  1  0  0  0  0
 24 22  1  0  0  0  0
 25 26  1  0  0  0  0
 25 28  1  0  0  0  0
 27 25  1  0  0  0  0
M  END
