8
 OpenBabel05122313113D

 40 40  0  0  1  0  0  0  0  0999 V2000
    0.0275    1.7032   -1.2275 O   0  0  0  0  0  0  0  0  0  0  0  0
   -0.1235    3.4361    0.2398 O   0  0  0  0  0  0  0  0  0  0  0  0
   -2.5332    1.6777   -0.1965 O   0  0  0  0  0  0  0  0  0  0  0  0
   -1.6948    0.8366    1.7356 O   0  0  0  0  0  0  0  0  0  0  0  0
   -0.2690    0.7363   -0.1923 C   0  0  2  0  0  0  0  0  0  0  0  0
    0.8332    0.6962    0.8574 C   0  0  0  0  0  3  0  0  0  0  0  0
    1.0144    1.6721    1.3289 H   0  0  0  0  0  0  0  0  0  0  0  0
    0.9991   -0.4722    1.6812 C   0  0  0  0  0  3  0  0  0  0  0  0
    1.2315   -0.4119    2.7546 H   0  0  0  0  0  0  0  0  0  0  0  0
    0.9808   -1.7069    0.9779 C   0  0  0  0  0  3  0  0  0  0  0  0
    1.2125   -2.6652    1.4661 H   0  0  0  0  0  0  0  0  0  0  0  0
    0.7782   -1.5653   -0.4400 C   0  0  0  0  0  3  0  0  0  0  0  0
    0.9167   -2.4609   -1.0637 H   0  0  0  0  0  0  0  0  0  0  0  0
   -0.2983   -0.6240   -0.9512 C   0  0  1  0  0  0  0  0  0  0  0  0
   -0.0874   -0.3696   -2.0104 H   0  0  0  0  0  0  0  0  0  0  0  0
    0.0599    3.0245   -0.8898 C   0  0  0  0  0  0  0  0  0  0  0  0
    0.3545    3.8585   -2.1084 C   0  0  0  0  0  0  0  0  0  0  0  0
    0.4846    4.9138   -1.8143 H   0  0  0  0  0  0  0  0  0  0  0  0
   -0.4866    3.7668   -2.8244 H   0  0  0  0  0  0  0  0  0  0  0  0
    1.2616    3.4777   -2.6175 H   0  0  0  0  0  0  0  0  0  0  0  0
   -1.6375    1.1522    0.4304 C   0  0  0  0  0  0  0  0  0  0  0  0
   -2.9561    1.1148    2.3835 C   0  0  0  0  0  0  0  0  0  0  0  0
   -3.7447    0.5349    1.8595 H   0  0  0  0  0  0  0  0  0  0  0  0
   -3.1907    2.1908    2.2470 H   0  0  0  0  0  0  0  0  0  0  0  0
   -2.8250    0.7306    3.8419 C   0  0  0  0  0  0  0  0  0  0  0  0
   -3.7723    0.9436    4.3754 H   0  0  0  0  0  0  0  0  0  0  0  0
   -2.0152    1.3052    4.3336 H   0  0  0  0  0  0  0  0  0  0  0  0
   -2.6028   -0.3495    3.9542 H   0  0  0  0  0  0  0  0  0  0  0  0
   -1.8778   -1.5703   -1.1134 P   0  0  0  0  0  0  0  0  0  0  0  0
   -1.6420   -2.9964   -1.5198 O   0  0  0  0  0  0  0  0  0  0  0  0
   -2.7057   -0.6003   -2.1133 O   0  0  0  0  0  0  0  0  0  0  0  0
   -2.7507   -1.4210    0.2794 O   0  0  0  0  0  0  0  0  0  0  0  0
   -4.1328   -0.4883   -2.0836 C   0  0  0  0  0  0  0  0  0  0  0  0
   -4.4389   -0.0639   -3.0583 H   0  0  0  0  0  0  0  0  0  0  0  0
   -4.4359    0.2002   -1.2699 H   0  0  0  0  0  0  0  0  0  0  0  0
   -4.6219   -1.4749   -1.9488 H   0  0  0  0  0  0  0  0  0  0  0  0
   -2.6185   -2.4217    1.2940 C   0  0  0  0  0  0  0  0  0  0  0  0
   -3.5987   -2.5187    1.8007 H   0  0  0  0  0  0  0  0  0  0  0  0
   -1.8541   -2.1114    2.0375 H   0  0  0  0  0  0  0  0  0  0  0  0
   -2.3327   -3.3957    0.8473 H   0  0  0  0  0  0  0  0  0  0  0  0
  1 16  1  0  0  0  0
  3 21  2  0  0  0  0
  4 22  1  0  0  0  0
  5  1  1  6  0  0  0
  5 21  1  0  0  0  0
  5  6  1  0  0  0  0
  6  7  1  0  0  0  0
  6  8  1  0  0  0  0
  8  9  1  0  0  0  0
 10 11  1  0  0  0  0
 10  8  1  0  0  0  0
 12 10  1  0  0  0  0
 13 12  1  0  0  0  0
 14 15  1  6  0  0  0
 14 12  1  0  0  0  0
 14  5  1  0  0  0  0
 16  2  2  0  0  0  0
 17 18  1  0  0  0  0
 17 16  1  0  0  0  0
 19 17  1  0  0  0  0
 20 17  1  0  0  0  0
 21  4  1  0  0  0  0
 22 25  1  0  0  0  0
 23 22  1  0  0  0  0
 24 22  1  0  0  0  0
 25 28  1  0  0  0  0
 25 27  1  0  0  0  0
 25 26  1  0  0  0  0
 29 14  1  0  0  0  0
 29 32  1  0  0  0  0
 30 29  2  0  0  0  0
 31 33  1  0  0  0  0
 31 29  1  0  0  0  0
 32 37  1  0  0  0  0
 33 36  1  0  0  0  0
 33 35  1  0  0  0  0
 34 33  1  0  0  0  0
 37 38  1  0  0  0  0
 37 39  1  0  0  0  0
 40 37  1  0  0  0  0
M  END
