1
 OpenBabel05122313113D

 25 25  0  0  0  0  0  0  0  0999 V2000
    1.0477    0.0042   -0.0486 C   0  0  0  0  0  3  0  0  0  0  0  0
    2.2896    0.0085    0.0034 C   0  0  0  0  0  0  0  0  0  0  0  0
    3.7163    0.0107    0.0533 C   0  0  0  0  0  0  0  0  0  0  0  0
    4.4141    0.3881    1.2270 C   0  0  0  0  0  0  0  0  0  0  0  0
    3.8367    0.6830    2.1157 H   0  0  0  0  0  0  0  0  0  0  0  0
    5.8142    0.3875    1.2687 C   0  0  0  0  0  0  0  0  0  0  0  0
    6.3059    0.6881    2.2040 H   0  0  0  0  0  0  0  0  0  0  0  0
    6.5892    0.0128    0.1520 C   0  0  0  0  0  0  0  0  0  0  0  0
    5.8887   -0.3630   -1.0173 C   0  0  0  0  0  0  0  0  0  0  0  0
    6.4499   -0.6627   -1.9162 H   0  0  0  0  0  0  0  0  0  0  0  0
    4.4934   -0.3661   -1.0740 C   0  0  0  0  0  0  0  0  0  0  0  0
    3.9775   -0.6609   -1.9999 H   0  0  0  0  0  0  0  0  0  0  0  0
    8.1274    0.0004    0.1638 C   0  0  0  0  0  0  0  0  0  0  0  0
    8.6526    0.9701   -0.9195 C   0  0  0  0  0  0  0  0  0  0  0  0
    8.3087    2.0057   -0.7231 H   0  0  0  0  0  0  0  0  0  0  0  0
    8.3021    0.6852   -1.9314 H   0  0  0  0  0  0  0  0  0  0  0  0
    9.7625    0.9715   -0.9348 H   0  0  0  0  0  0  0  0  0  0  0  0
    8.7016    0.4356    1.5230 C   0  0  0  0  0  0  0  0  0  0  0  0
    8.3984    1.4689    1.7869 H   0  0  0  0  0  0  0  0  0  0  0  0
    9.8095    0.4116    1.4881 H   0  0  0  0  0  0  0  0  0  0  0  0
    8.3787   -0.2386    2.3418 H   0  0  0  0  0  0  0  0  0  0  0  0
    8.6276   -1.4305   -0.1398 C   0  0  0  0  0  0  0  0  0  0  0  0
    8.2763   -1.7881   -1.1280 H   0  0  0  0  0  0  0  0  0  0  0  0
    8.2658   -2.1463    0.6258 H   0  0  0  0  0  0  0  0  0  0  0  0
    9.7371   -1.4613   -0.1449 H   0  0  0  0  0  0  0  0  0  0  0  0
  1  2  3  0  0  0  0
  2  3  1  0  0  0  0
  3  4  1  0  0  0  0
  4  6  2  0  0  0  0
  4  5  1  0  0  0  0
  6  7  1  0  0  0  0
  8 13  1  0  0  0  0
  8  6  1  0  0  0  0
  9  8  2  0  0  0  0
 10  9  1  0  0  0  0
 11  9  1  0  0  0  0
 11  3  2  0  0  0  0
 12 11  1  0  0  0  0
 13 18  1  0  0  0  0
 14 15  1  0  0  0  0
 14 13  1  0  0  0  0
 16 14  1  0  0  0  0
 17 14  1  0  0  0  0
 18 19  1  0  0  0  0
 18 21  1  0  0  0  0
 20 18  1  0  0  0  0
 22 13  1  0  0  0  0
 22 24  1  0  0  0  0
 23 22  1  0  0  0  0
 25 22  1  0  0  0  0
M  END
