3
 OpenBabel05122313113D

 22 24  0  0  1  0  0  0  0  0999 V2000
    3.3025    0.2300   -1.3926 O   0  0  0  0  0  0  0  0  0  0  0  0
    1.2100    1.8921   -0.1991 N   0  0  0  0  0  0  0  0  0  0  0  0
    0.7964    0.6578    0.0694 C   0  0  0  0  0  2  0  0  0  0  0  0
    2.0340   -0.1148    0.5357 C   0  0  1  0  0  0  0  0  0  0  0  0
    2.3306   -1.4690   -0.1607 C   0  0  0  0  0  0  0  0  0  0  0  0
    3.6192   -1.1078   -0.9773 C   0  0  2  0  0  0  0  0  0  0  0  0
    4.7665   -0.8700    0.0034 C   0  0  0  0  0  0  0  0  0  0  0  0
    4.5236    0.3357    0.5614 C   0  0  0  0  0  0  0  0  0  0  0  0
    3.2176    0.7775   -0.0684 C   0  0  1  0  0  0  0  0  0  0  0  0
    2.6523    2.1772   -0.1189 C   0  0  0  0  0  0  0  0  0  0  0  0
    1.9955   -0.1922    2.0683 C   0  0  0  0  0  0  0  0  0  0  0  0
    1.1380   -0.8070    2.4022 H   0  0  0  0  0  0  0  0  0  0  0  0
    1.8860    0.8106    2.5305 H   0  0  0  0  0  0  0  0  0  0  0  0
    2.9262   -0.6575    2.4483 H   0  0  0  0  0  0  0  0  0  0  0  0
    0.5460    2.6164   -0.4886 H   0  0  0  0  0  0  0  0  0  0  0  0
    1.5210   -1.7516   -0.8584 H   0  0  0  0  0  0  0  0  0  0  0  0
    2.4756   -2.2981    0.5577 H   0  0  0  0  0  0  0  0  0  0  0  0
    3.8213   -1.7533   -1.8510 H   0  0  0  0  0  0  0  0  0  0  0  0
    5.5553   -1.5906    0.2574 H   0  0  0  0  0  0  0  0  0  0  0  0
    5.0557    0.8306    1.3840 H   0  0  0  0  0  0  0  0  0  0  0  0
    2.9978    2.7313   -1.0137 H   0  0  0  0  0  0  0  0  0  0  0  0
    2.8947    2.7679    0.7900 H   0  0  0  0  0  0  0  0  0  0  0  0
  1  6  1  0  0  0  0
  2 10  1  0  0  0  0
  2  3  1  0  0  0  0
  3  4  1  0  0  0  0
  4 11  1  1  0  0  0
  5  4  1  0  0  0  0
  5 17  1  0  0  0  0
  6 18  1  6  0  0  0
  6  5  1  0  0  0  0
  6  7  1  0  0  0  0
  7 19  1  0  0  0  0
  7  8  2  0  0  0  0
  8 20  1  0  0  0  0
  9  1  1  6  0  0  0
  9  4  1  0  0  0  0
  9  8  1  0  0  0  0
 10  9  1  0  0  0  0
 10 22  1  0  0  0  0
 11 12  1  0  0  0  0
 11 14  1  0  0  0  0
 11 13  1  0  0  0  0
 15  2  1  0  0  0  0
 16  5  1  0  0  0  0
 21 10  1  0  0  0  0
M  END
