1
 OpenBabel05122313113D

 58 61  0  0  0  0  0  0  0  0999 V2000
    0.0855    1.0034   -0.2155 C   0  0  0  0  0  3  0  0  0  0  0  0
   -0.2238    0.8573   -1.2641 H   0  0  0  0  0  0  0  0  0  0  0  0
   -0.8300    1.7337    0.6753 C   0  0  0  0  0  0  0  0  0  0  0  0
   -2.2930    1.7498    0.3445 C   0  0  0  0  0  0  0  0  0  0  0  0
   -2.8575    1.0309   -0.7307 C   0  0  0  0  0  0  0  0  0  0  0  0
   -2.2307    0.3857   -1.3668 H   0  0  0  0  0  0  0  0  0  0  0  0
   -4.2338    1.0955   -0.9801 C   0  0  0  0  0  0  0  0  0  0  0  0
   -4.6818    0.5321   -1.8108 H   0  0  0  0  0  0  0  0  0  0  0  0
   -5.0504    1.8786   -0.1490 C   0  0  0  0  0  0  0  0  0  0  0  0
   -4.5108    2.5935    0.9339 C   0  0  0  0  0  0  0  0  0  0  0  0
   -5.1659    3.1943    1.5803 H   0  0  0  0  0  0  0  0  0  0  0  0
   -3.1355    2.5206    1.1722 C   0  0  0  0  0  0  0  0  0  0  0  0
   -2.6731    3.0579    2.0133 H   0  0  0  0  0  0  0  0  0  0  0  0
    1.9392    3.3345    0.0884 C   0  0  0  0  0  0  0  0  0  0  0  0
    2.8034    3.9147    1.0323 C   0  0  0  0  0  0  0  0  0  0  0  0
    3.3825    3.2742    1.7141 H   0  0  0  0  0  0  0  0  0  0  0  0
    2.9151    5.3106    1.1095 C   0  0  0  0  0  0  0  0  0  0  0  0
    3.5926    5.7575    1.8539 H   0  0  0  0  0  0  0  0  0  0  0  0
    2.1715    6.1520    0.2593 C   0  0  0  0  0  0  0  0  0  0  0  0
    2.2666    7.6519    0.3627 C   0  0  0  0  0  0  0  0  0  0  0  0
    3.1274    7.9671    0.9830 H   0  0  0  0  0  0  0  0  0  0  0  0
    1.3487    8.0739    0.8247 H   0  0  0  0  0  0  0  0  0  0  0  0
    2.3672    8.1220   -0.6365 H   0  0  0  0  0  0  0  0  0  0  0  0
    1.3091    5.5506   -0.6846 C   0  0  0  0  0  0  0  0  0  0  0  0
    0.7165    6.1884   -1.3594 H   0  0  0  0  0  0  0  0  0  0  0  0
    1.1908    4.1611   -0.7740 C   0  0  0  0  0  0  0  0  0  0  0  0
    0.5068    3.7134   -1.5120 H   0  0  0  0  0  0  0  0  0  0  0  0
    2.6323    1.0932   -1.6372 C   0  0  0  0  0  0  0  0  0  0  0  0
    2.1680    0.0574   -2.4760 C   0  0  0  0  0  0  0  0  0  0  0  0
    1.2435   -0.4995   -2.2576 H   0  0  0  0  0  0  0  0  0  0  0  0
    2.8863   -0.2632   -3.6342 C   0  0  0  0  0  0  0  0  0  0  0  0
    2.5112   -1.0715   -4.2813 H   0  0  0  0  0  0  0  0  0  0  0  0
    4.0725    0.4141   -3.9840 C   0  0  0  0  0  0  0  0  0  0  0  0
    4.8424    0.0271   -5.2195 C   0  0  0  0  0  0  0  0  0  0  0  0
    4.1744   -0.0654   -6.0997 H   0  0  0  0  0  0  0  0  0  0  0  0
    5.3315   -0.9609   -5.0841 H   0  0  0  0  0  0  0  0  0  0  0  0
    5.6333    0.7633   -5.4598 H   0  0  0  0  0  0  0  0  0  0  0  0
    4.5168    1.4519   -3.1389 C   0  0  0  0  0  0  0  0  0  0  0  0
    5.4321    2.0070   -3.3970 H   0  0  0  0  0  0  0  0  0  0  0  0
    3.8079    1.7937   -1.9809 C   0  0  0  0  0  0  0  0  0  0  0  0
    4.1659    2.6176   -1.3445 H   0  0  0  0  0  0  0  0  0  0  0  0
    2.6865    0.7573    1.2932 C   0  0  0  0  0  0  0  0  0  0  0  0
    3.9350    0.1405    1.0871 C   0  0  0  0  0  0  0  0  0  0  0  0
    4.3942    0.1326    0.0886 H   0  0  0  0  0  0  0  0  0  0  0  0
    4.5767   -0.5011    2.1534 C   0  0  0  0  0  0  0  0  0  0  0  0
    5.5447   -0.9955    1.9780 H   0  0  0  0  0  0  0  0  0  0  0  0
    3.9902   -0.5589    3.4328 C   0  0  0  0  0  0  0  0  0  0  0  0
    4.6503   -1.3173    4.5533 C   0  0  0  0  0  0  0  0  0  0  0  0
    4.2988   -2.3716    4.5604 H   0  0  0  0  0  0  0  0  0  0  0  0
    4.4047   -0.8848    5.5429 H   0  0  0  0  0  0  0  0  0  0  0  0
    5.7519   -1.3406    4.4415 H   0  0  0  0  0  0  0  0  0  0  0  0
    2.7424    0.0731    3.6225 C   0  0  0  0  0  0  0  0  0  0  0  0
    2.2660    0.0447    4.6149 H   0  0  0  0  0  0  0  0  0  0  0  0
    2.0894    0.7280    2.5732 C   0  0  0  0  0  0  0  0  0  0  0  0
    1.1185    1.2250    2.7265 H   0  0  0  0  0  0  0  0  0  0  0  0
   -0.4116    2.3303    1.6855 O   0  0  0  0  0  0  0  0  0  0  0  0
    1.7897    1.5269   -0.0868 P   0  0  0  0  0  4  0  0  0  0  0  0
   -6.9204    1.9654   -0.4908 Br  0  0  0  0  0  0  0  0  0  0  0  0
  1 57  1  0  0  0  0
  1  3  1  0  0  0  0
  2  1  1  0  0  0  0
  3 56  2  0  0  0  0
  4  3  1  0  0  0  0
  4 12  1  0  0  0  0
  5  4  2  0  0  0  0
  6  5  1  0  0  0  0
  7  5  1  0  0  0  0
  7  9  2  0  0  0  0
  8  7  1  0  0  0  0
  9 10  1  0  0  0  0
 10 12  2  0  0  0  0
 10 11  1  0  0  0  0
 12 13  1  0  0  0  0
 14 15  1  0  0  0  0
 15 17  2  0  0  0  0
 15 16  1  0  0  0  0
 17 18  1  0  0  0  0
 19 20  1  0  0  0  0
 19 17  1  0  0  0  0
 20 22  1  0  0  0  0
 20 21  1  0  0  0  0
 23 20  1  0  0  0  0
 24 19  2  0  0  0  0
 25 24  1  0  0  0  0
 26 24  1  0  0  0  0
 26 14  2  0  0  0  0
 27 26  1  0  0  0  0
 28 57  1  0  0  0  0
 29 30  1  0  0  0  0
 29 28  2  0  0  0  0
 31 29  1  0  0  0  0
 32 31  1  0  0  0  0
 33 31  2  0  0  0  0
 33 38  1  0  0  0  0
 34 36  1  0  0  0  0
 34 33  1  0  0  0  0
 35 34  1  0  0  0  0
 37 34  1  0  0  0  0
 38 40  2  0  0  0  0
 39 38  1  0  0  0  0
 40 28  1  0  0  0  0
 40 41  1  0  0  0  0
 42 54  1  0  0  0  0
 43 42  2  0  0  0  0
 43 45  1  0  0  0  0
 44 43  1  0  0  0  0
 45 47  2  0  0  0  0
 46 45  1  0  0  0  0
 47 52  1  0  0  0  0
 47 48  1  0  0  0  0
 48 49  1  0  0  0  0
 48 50  1  0  0  0  0
 51 48  1  0  0  0  0
 52 53  1  0  0  0  0
 54 55  1  0  0  0  0
 54 52  2  0  0  0  0
 57 14  1  0  0  0  0
 57 42  1  0  0  0  0
 58  9  1  0  0  0  0
M  END
