7
 OpenBabel05122313113D

 30 31  0  0  1  0  0  0  0  0999 V2000
   -1.1741    2.9004    0.8940 C   0  0  0  0  0  0  0  0  0  0  0  0
   -1.8562    4.0882    0.6094 C   0  0  0  0  0  0  0  0  0  0  0  0
   -2.5896    4.2098   -0.5827 C   0  0  0  0  0  0  0  0  0  0  0  0
   -2.6429    3.1311   -1.4800 C   0  0  0  0  0  0  0  0  0  0  0  0
   -1.9873    1.9303   -1.1820 C   0  0  0  0  0  0  0  0  0  0  0  0
   -1.2362    1.7964    0.0080 C   0  0  0  0  0  0  0  0  0  0  0  0
   -0.5012    0.5395    0.3225 C   0  0  0  0  0  2  0  0  0  0  0  0
    0.5823    0.7217    1.0257 N   0  0  0  0  0  2  0  0  0  0  0  0
    1.8533    0.6416    1.1655 C   0  0  1  0  0  3  0  0  0  0  0  0
    2.7952    0.5431    0.0310 C   0  0  0  0  0  0  0  0  0  0  0  0
    4.1627    0.2815    0.2655 C   0  0  0  0  0  0  0  0  0  0  0  0
    5.0412    0.1367   -0.8149 C   0  0  0  0  0  0  0  0  0  0  0  0
    4.5680    0.2481   -2.1329 C   0  0  0  0  0  0  0  0  0  0  0  0
    3.2095    0.5148   -2.3693 C   0  0  0  0  0  0  0  0  0  0  0  0
    2.3269    0.6687   -1.2943 C   0  0  0  0  0  0  0  0  0  0  0  0
    2.4284    0.6429    2.3847 O   0  0  0  0  0  0  0  0  0  0  0  0
    1.5484    0.6376    3.5104 C   0  0  0  0  0  0  0  0  0  0  0  0
   -0.5986    2.8009    1.8260 H   0  0  0  0  0  0  0  0  0  0  0  0
   -1.8155    4.9266    1.3211 H   0  0  0  0  0  0  0  0  0  0  0  0
   -3.1227    5.1452   -0.8107 H   0  0  0  0  0  0  0  0  0  0  0  0
   -3.2085    3.2213   -2.4194 H   0  0  0  0  0  0  0  0  0  0  0  0
   -2.0350    1.0927   -1.8895 H   0  0  0  0  0  0  0  0  0  0  0  0
    4.5200    0.1800    1.2990 H   0  0  0  0  0  0  0  0  0  0  0  0
    6.1048   -0.0735   -0.6269 H   0  0  0  0  0  0  0  0  0  0  0  0
    5.2609    0.1269   -2.9792 H   0  0  0  0  0  0  0  0  0  0  0  0
    2.8303    0.6028   -3.3981 H   0  0  0  0  0  0  0  0  0  0  0  0
    1.2680    0.8902   -1.4856 H   0  0  0  0  0  0  0  0  0  0  0  0
    2.1951    0.5983    4.4044 H   0  0  0  0  0  0  0  0  0  0  0  0
    0.9310    1.5610    3.5302 H   0  0  0  0  0  0  0  0  0  0  0  0
    0.8699   -0.2398    3.4877 H   0  0  0  0  0  0  0  0  0  0  0  0
  1 18  1  0  0  0  0
  2  1  1  0  0  0  0
  2 19  1  0  0  0  0
  3  2  2  0  0  0  0
  4  5  2  0  0  0  0
  4  3  1  0  0  0  0
  5  6  1  0  0  0  0
  6  7  1  0  0  0  0
  6  1  2  0  0  0  0
  7  8  1  0  0  0  0
  9  8  1  6  0  0  0
  9 16  1  0  0  0  0
 10 11  1  0  0  0  0
 10  9  1  0  0  0  0
 11 23  1  0  0  0  0
 12 24  1  0  0  0  0
 12 11  2  0  0  0  0
 13 12  1  0  0  0  0
 14 13  2  0  0  0  0
 14 15  1  0  0  0  0
 15 10  2  0  0  0  0
 16 17  1  0  0  0  0
 17 29  1  0  0  0  0
 17 28  1  0  0  0  0
 20  3  1  0  0  0  0
 21  4  1  0  0  0  0
 22  5  1  0  0  0  0
 25 13  1  0  0  0  0
 26 14  1  0  0  0  0
 27 15  1  0  0  0  0
 30 17  1  0  0  0  0
M  END
