4
 OpenBabel05122313113D

 25 27  0  0  1  0  0  0  0  0999 V2000
   -0.0896    1.4186   -1.2674 C   0  0  0  0  0  0  0  0  0  0  0  0
   -0.0895   -1.4518   -1.2306 C   0  0  0  0  0  0  0  0  0  0  0  0
   -0.9164    0.6891   -2.1580 C   0  0  0  0  0  0  0  0  0  0  0  0
   -0.9174   -0.7440   -2.1374 C   0  0  0  0  0  3  0  0  0  0  0  0
    1.7199   -1.2159    0.7182 C   0  0  2  0  0  0  0  0  0  0  0  0
    3.0125   -1.5990    0.0261 C   0  0  0  0  0  0  0  0  0  0  0  0
    3.9435   -0.7388   -0.4697 C   0  0  0  0  0  0  0  0  0  0  0  0
    3.9446    0.7229   -0.4894 C   0  0  0  0  0  0  0  0  0  0  0  0
    3.0149    1.5975   -0.0169 C   0  0  0  0  0  0  0  0  0  0  0  0
    1.7215    1.2347    0.6849 C   0  0  1  0  0  0  0  0  0  0  0  0
    0.7461    0.7085   -0.3539 C   0  0  2  0  0  3  0  0  0  0  0  0
    0.7445   -0.7173   -0.3346 C   0  0  0  0  0  0  0  0  0  0  0  0
    1.8531    0.0221    1.6355 C   0  0  0  0  0  0  0  0  0  0  0  0
   -0.1305    2.5167   -1.2488 H   0  0  0  0  0  0  0  0  0  0  0  0
   -0.1311   -2.5489   -1.1835 H   0  0  0  0  0  0  0  0  0  0  0  0
   -1.6028    1.2231   -2.8292 H   0  0  0  0  0  0  0  0  0  0  0  0
   -1.6045   -1.2951   -2.7941 H   0  0  0  0  0  0  0  0  0  0  0  0
    1.3146   -2.0899    1.2647 H   0  0  0  0  0  0  0  0  0  0  0  0
    3.1969   -2.6781   -0.1047 H   0  0  0  0  0  0  0  0  0  0  0  0
    4.8233   -1.1996   -0.9493 H   0  0  0  0  0  0  0  0  0  0  0  0
    4.8250    1.1694   -0.9814 H   0  0  0  0  0  0  0  0  0  0  0  0
    3.2007    2.6725   -0.1766 H   0  0  0  0  0  0  0  0  0  0  0  0
    1.3169    2.1239    1.2068 H   0  0  0  0  0  0  0  0  0  0  0  0
    1.0021    0.0321    2.3439 H   0  0  0  0  0  0  0  0  0  0  0  0
    2.7985    0.0291    2.2099 H   0  0  0  0  0  0  0  0  0  0  0  0
  1 14  1  0  0  0  0
  2 15  1  0  0  0  0
  2 12  2  0  0  0  0
  3  4  1  0  0  0  0
  3  1  2  0  0  0  0
  4  2  1  0  0  0  0
  5 18  1  1  0  0  0
  5 13  1  0  0  0  0
  6  5  1  0  0  0  0
  7  6  2  0  0  0  0
  8  7  1  0  0  0  0
  8  9  2  0  0  0  0
  9 10  1  0  0  0  0
 10 23  1  1  0  0  0
 10 13  1  0  0  0  0
 11  1  1  6  0  0  0
 11 12  1  0  0  0  0
 11 10  1  0  0  0  0
 12  5  1  0  0  0  0
 13 25  1  0  0  0  0
 13 24  1  0  0  0  0
 16  3  1  0  0  0  0
 17  4  1  0  0  0  0
 19  6  1  0  0  0  0
 20  7  1  0  0  0  0
 21  8  1  0  0  0  0
 22  9  1  0  0  0  0
M  END
