8
 OpenBabel05122313113D

 34 37  0  0  0  0  0  0  0  0999 V2000
   -2.1571    0.0323   -0.7719 B   0  0  0  0  0  0  0  0  0  0  0  0
   -1.4350   -1.2407   -1.2738 C   0  0  0  0  0  0  0  0  0  0  0  0
   -1.9729   -2.5497   -1.0914 C   0  0  0  0  0  0  0  0  0  0  0  0
   -1.3223   -3.6834   -1.5572 C   0  0  0  0  0  0  0  0  0  0  0  0
   -0.0857   -3.5569   -2.2435 C   0  0  0  0  0  0  0  0  0  0  0  0
    0.4787   -2.3085   -2.4492 C   0  0  0  0  0  0  0  0  0  0  0  0
   -0.1751   -1.1239   -1.9775 C   0  0  0  0  0  0  0  0  0  0  0  0
    0.4513    0.1605   -2.1394 C   0  0  0  0  0  3  0  0  0  0  0  0
   -0.2158    1.3954   -1.8099 C   0  0  0  0  0  0  0  0  0  0  0  0
    0.3937    2.6518   -2.1269 C   0  0  0  0  0  0  0  0  0  0  0  0
   -0.1981    3.8453   -1.7434 C   0  0  0  0  0  0  0  0  0  0  0  0
   -1.4147    3.8414   -1.0123 C   0  0  0  0  0  0  0  0  0  0  0  0
   -2.0306    2.6353   -0.7068 C   0  0  0  0  0  0  0  0  0  0  0  0
   -1.4793    1.3824   -1.1068 C   0  0  0  0  0  0  0  0  0  0  0  0
   -3.4880   -0.0495    0.0640 C   0  0  0  0  0  0  0  0  0  0  0  0
   -3.5270   -0.7537    1.2931 C   0  0  0  0  0  0  0  0  0  0  0  0
   -4.7006   -0.8172    2.0595 C   0  0  0  0  0  0  0  0  0  0  0  0
   -5.8742   -0.1925    1.6071 C   0  0  0  0  0  0  0  0  0  0  0  0
   -5.8628    0.5030    0.3876 C   0  0  0  0  0  0  0  0  0  0  0  0
   -4.6812    0.5791   -0.3663 C   0  0  0  0  0  0  0  0  0  0  0  0
   -2.9321   -2.6461   -0.5613 H   0  0  0  0  0  0  0  0  0  0  0  0
   -1.7620   -4.6802   -1.4031 H   0  0  0  0  0  0  0  0  0  0  0  0
    0.4240   -4.4563   -2.6224 H   0  0  0  0  0  0  0  0  0  0  0  0
    1.4274   -2.2092   -2.9987 H   0  0  0  0  0  0  0  0  0  0  0  0
    1.3385    0.2146   -2.7814 H   0  0  0  0  0  0  0  0  0  0  0  0
    1.3323    2.6586   -2.7019 H   0  0  0  0  0  0  0  0  0  0  0  0
    0.2805    4.8017   -2.0057 H   0  0  0  0  0  0  0  0  0  0  0  0
   -1.8643    4.7935   -0.6927 H   0  0  0  0  0  0  0  0  0  0  0  0
   -2.9667    2.6284   -0.1290 H   0  0  0  0  0  0  0  0  0  0  0  0
   -2.6127   -1.2469    1.6604 H   0  0  0  0  0  0  0  0  0  0  0  0
   -4.6995   -1.3600    3.0177 H   0  0  0  0  0  0  0  0  0  0  0  0
   -6.7972   -0.2469    2.2050 H   0  0  0  0  0  0  0  0  0  0  0  0
   -6.7798    0.9922    0.0233 H   0  0  0  0  0  0  0  0  0  0  0  0
   -4.6884    1.1305   -1.3207 H   0  0  0  0  0  0  0  0  0  0  0  0
  1 15  1  0  0  0  0
  2  3  1  0  0  0  0
  2  1  1  0  0  0  0
  3 21  1  0  0  0  0
  4 22  1  0  0  0  0
  4  3  2  0  0  0  0
  5  4  1  0  0  0  0
  6  5  2  0  0  0  0
  6  7  1  0  0  0  0
  7  2  2  0  0  0  0
  8  7  1  0  0  0  0
  8  9  1  0  0  0  0
  9 14  1  0  0  0  0
 10  9  2  0  0  0  0
 10 11  1  0  0  0  0
 11 12  2  0  0  0  0
 12 13  1  0  0  0  0
 12 28  1  0  0  0  0
 13 29  1  0  0  0  0
 14  1  1  0  0  0  0
 14 13  2  0  0  0  0
 15 16  1  0  0  0  0
 16 30  1  0  0  0  0
 16 17  2  0  0  0  0
 17 31  1  0  0  0  0
 18 17  1  0  0  0  0
 18 32  1  0  0  0  0
 19 18  2  0  0  0  0
 20 15  2  0  0  0  0
 20 19  1  0  0  0  0
 23  5  1  0  0  0  0
 24  6  1  0  0  0  0
 25  8  1  0  0  0  0
 26 10  1  0  0  0  0
 27 11  1  0  0  0  0
 33 19  1  0  0  0  0
 34 20  1  0  0  0  0
M  END
