1
 OpenBabel05122313113D

 11 10  0  0  0  0  0  0  0  0999 V2000
   -1.9877    0.1181   -0.0000 C   0  0  0  0  0  2  0  0  0  0  0  0
   -2.6035    1.7345    0.0000 S   0  0  0  0  0  0  0  0  0  0  0  0
   -1.2343    2.9307   -0.0001 C   0  0  0  0  0  0  0  0  0  0  0  0
   -3.1766   -1.1126   -0.0000 S   0  0  0  0  0  0  0  0  0  0  0  0
   -4.7961   -0.2606   -0.0000 C   0  0  0  0  0  0  0  0  0  0  0  0
   -1.7560    3.9069   -0.0000 H   0  0  0  0  0  0  0  0  0  0  0  0
   -0.6202    2.8431   -0.9124 H   0  0  0  0  0  0  0  0  0  0  0  0
   -0.6201    2.8431    0.9122 H   0  0  0  0  0  0  0  0  0  0  0  0
   -5.5489   -1.0718   -0.0000 H   0  0  0  0  0  0  0  0  0  0  0  0
   -4.9232    0.3642   -0.9062 H   0  0  0  0  0  0  0  0  0  0  0  0
   -4.9232    0.3641    0.9062 H   0  0  0  0  0  0  0  0  0  0  0  0
  1  2  1  0  0  0  0
  3  6  1  0  0  0  0
  3  2  1  0  0  0  0
  3  8  1  0  0  0  0
  4  1  1  0  0  0  0
  5  4  1  0  0  0  0
  5 11  1  0  0  0  0
  7  3  1  0  0  0  0
  9  5  1  0  0  0  0
 10  5  1  0  0  0  0
M  END
