7
 OpenBabel05122313113D

 34 35  0  0  0  0  0  0  0  0999 V2000
    0.9707    3.5396    0.4301 O   0  0  0  0  0  0  0  0  0  0  0  0
    0.8559    4.5028    0.5278 H   0  0  0  0  0  0  0  0  0  0  0  0
    1.3382    0.9241    0.5608 N   0  0  0  0  0  0  0  0  0  0  0  0
    2.0623    1.5782    0.2271 H   0  0  0  0  0  0  0  0  0  0  0  0
    2.4507   -0.6518   -0.6829 N   0  0  0  0  0  0  0  0  0  0  0  0
    2.5880   -1.6819   -0.7285 H   0  0  0  0  0  0  0  0  0  0  0  0
    1.4035   -0.3426    0.1068 C   0  0  0  0  0  2  0  0  0  0  0  0
    0.4582    1.4944    1.5031 C   0  0  0  0  0  0  0  0  0  0  0  0
   -0.2026    0.7730    2.5119 C   0  0  0  0  0  0  0  0  0  0  0  0
   -0.0495   -0.3142    2.5786 H   0  0  0  0  0  0  0  0  0  0  0  0
   -1.0360    1.4361    3.4245 C   0  0  0  0  0  0  0  0  0  0  0  0
   -1.5513    0.8558    4.2031 H   0  0  0  0  0  0  0  0  0  0  0  0
   -1.1888    2.8296    3.3586 C   0  0  0  0  0  0  0  0  0  0  0  0
   -1.8309    3.3547    4.0809 H   0  0  0  0  0  0  0  0  0  0  0  0
   -0.5134    3.5636    2.3706 C   0  0  0  0  0  0  0  0  0  0  0  0
   -0.6280    4.6579    2.3070 H   0  0  0  0  0  0  0  0  0  0  0  0
    0.2980    2.9021    1.4379 C   0  0  0  0  0  0  0  0  0  0  0  0
    3.5152    0.2211   -1.0587 C   0  0  0  0  0  0  0  0  0  0  0  0
    4.8131   -0.0447   -0.5481 C   0  0  0  0  0  0  0  0  0  0  0  0
    5.0547   -1.2282    0.3507 C   0  0  0  0  0  0  0  0  0  0  0  0
    6.0479   -1.1643    0.8335 H   0  0  0  0  0  0  0  0  0  0  0  0
    5.0201   -2.1821   -0.2183 H   0  0  0  0  0  0  0  0  0  0  0  0
    4.2764   -1.3281    1.1338 H   0  0  0  0  0  0  0  0  0  0  0  0
    5.8556    0.8226   -0.9190 C   0  0  0  0  0  0  0  0  0  0  0  0
    6.8676    0.6354   -0.5279 H   0  0  0  0  0  0  0  0  0  0  0  0
    5.6204    1.9148   -1.7667 C   0  0  0  0  0  0  0  0  0  0  0  0
    6.4495    2.5836   -2.0429 H   0  0  0  0  0  0  0  0  0  0  0  0
    4.3362    2.1488   -2.2716 C   0  0  0  0  0  0  0  0  0  0  0  0
    4.1581    2.9928   -2.9560 H   0  0  0  0  0  0  0  0  0  0  0  0
    3.2575    1.3045   -1.9391 C   0  0  0  0  0  0  0  0  0  0  0  0
    1.8866    1.5451   -2.5209 C   0  0  0  0  0  0  0  0  0  0  0  0
    1.3307    0.5965   -2.6548 H   0  0  0  0  0  0  0  0  0  0  0  0
    1.9631    2.0525   -3.5015 H   0  0  0  0  0  0  0  0  0  0  0  0
    1.2697    2.1930   -1.8614 H   0  0  0  0  0  0  0  0  0  0  0  0
  1  2  1  0  0  0  0
  1 17  1  0  0  0  0
  3  8  1  0  0  0  0
  4  3  1  0  0  0  0
  5  7  1  0  0  0  0
  6  5  1  0  0  0  0
  7  3  1  0  0  0  0
  8  9  1  0  0  0  0
  9 10  1  0  0  0  0
  9 11  2  0  0  0  0
 11 12  1  0  0  0  0
 13 11  1  0  0  0  0
 13 14  1  0  0  0  0
 15 13  2  0  0  0  0
 16 15  1  0  0  0  0
 17  8  2  0  0  0  0
 17 15  1  0  0  0  0
 18  5  1  0  0  0  0
 18 19  1  0  0  0  0
 19 20  1  0  0  0  0
 20 21  1  0  0  0  0
 20 23  1  0  0  0  0
 22 20  1  0  0  0  0
 24 19  2  0  0  0  0
 24 25  1  0  0  0  0
 26 24  1  0  0  0  0
 27 26  1  0  0  0  0
 28 30  1  0  0  0  0
 28 26  2  0  0  0  0
 29 28  1  0  0  0  0
 30 18  2  0  0  0  0
 31 30  1  0  0  0  0
 31 34  1  0  0  0  0
 32 31  1  0  0  0  0
 33 31  1  0  0  0  0
M  END
