4
 OpenBabel05122313113D

  9  9  0  0  0  0  0  0  0  0999 V2000
   -3.4045    0.2156   -0.5650 S   0  0  1  0  0  3  0  0  0  0  0  0
   -2.7788   -1.4294   -0.4382 O   0  0  0  0  0  0  0  0  0  0  0  0
   -3.9323    0.6516    0.7660 O   0  0  0  0  0  1  0  0  0  0  0  0
   -0.7495   -0.2549   -0.1782 C   0  0  0  0  0  3  0  0  0  0  0  0
   -1.4409   -1.4122   -0.0860 C   0  0  0  0  0  0  0  0  0  0  0  0
   -1.6320    0.8602   -0.6566 C   0  0  0  0  0  0  0  0  0  0  0  0
   -1.0779   -2.3974    0.2460 H   0  0  0  0  0  0  0  0  0  0  0  0
   -1.4460    1.1681   -1.7115 H   0  0  0  0  0  0  0  0  0  0  0  0
   -1.6550    1.7653   -0.0147 H   0  0  0  0  0  0  0  0  0  0  0  0
  1  2  1  0  0  0  0
  1  3  1  1  0  0  0
  2  5  1  0  0  0  0
  4  5  2  0  0  0  0
  5  7  1  0  0  0  0
  6  1  1  0  0  0  0
  6  4  1  0  0  0  0
  6  9  1  0  0  0  0
  8  6  1  0  0  0  0
M  END
