26
 OpenBabel05122313113D

 28 31  0  0  1  0  0  0  0  0999 V2000
    0.4988    1.7821    1.5252 B   0  0  2  0  0  0  0  0  0  0  0  0
    0.4327    1.0782    2.4954 H   0  0  0  0  0  0  0  0  0  0  0  0
    0.5961    1.7227   -1.3102 B   0  0  0  0  0  0  0  0  0  0  0  0
    0.5845    0.9730   -2.2495 H   0  0  0  0  0  0  0  0  0  0  0  0
   -0.7876    2.8287    0.9277 B   0  0  1  0  0  0  0  0  0  0  0  0
   -1.8456    2.8446    1.5160 H   0  0  0  0  0  0  0  0  0  0  0  0
   -0.7253    2.8011   -0.8343 B   0  0  2  0  0  0  0  0  0  0  0  0
   -1.7389    2.8128   -1.4921 H   0  0  0  0  0  0  0  0  0  0  0  0
    1.3040    1.1850    0.1400 C   0  0  2  0  0  0  0  0  0  0  0  0
   -0.3634    1.3987    0.0844 C   0  0  2  0  0  0  0  0  0  0  0  0
    1.7490   -0.2974    0.2230 C   0  0  2  0  0  0  0  0  0  0  0  0
    1.7834   -0.5266    1.3090 H   0  0  0  0  0  0  0  0  0  0  0  0
    3.1839   -0.4938   -0.3044 C   0  0  0  0  0  0  0  0  0  0  0  0
    3.8438    0.2727    0.1550 H   0  0  0  0  0  0  0  0  0  0  0  0
    3.1992   -0.2969   -1.3980 H   0  0  0  0  0  0  0  0  0  0  0  0
    3.7645   -1.8803   -0.0199 C   0  0  0  0  0  0  0  0  0  0  0  0
    3.6904   -2.0940    1.0716 H   0  0  0  0  0  0  0  0  0  0  0  0
    3.1496   -2.6595   -0.5218 H   0  0  0  0  0  0  0  0  0  0  0  0
    5.2223   -2.0304   -0.4661 C   0  0  0  0  0  0  0  0  0  0  0  0
    5.8400   -1.2552    0.0393 H   0  0  0  0  0  0  0  0  0  0  0  0
    5.2935   -1.8039   -1.5532 H   0  0  0  0  0  0  0  0  0  0  0  0
    5.8035   -3.4168   -0.1880 C   0  0  0  0  0  0  0  0  0  0  0  0
    6.8577   -3.4957   -0.5217 H   0  0  0  0  0  0  0  0  0  0  0  0
    5.2271   -4.2085   -0.7113 H   0  0  0  0  0  0  0  0  0  0  0  0
    5.7779   -3.6546    0.8962 H   0  0  0  0  0  0  0  0  0  0  0  0
    0.7237   -1.2431   -0.4501 C   0  0  0  0  0  3  0  0  0  0  0  0
    0.9543   -2.2905   -0.1612 H   0  0  0  0  0  0  0  0  0  0  0  0
    0.8812   -1.1860   -1.5467 H   0  0  0  0  0  0  0  0  0  0  0  0
  1  2  1  1  0  0  0
  3  7  1  0  0  0  0
  3  9  1  0  0  0  0
  4  3  1  0  0  0  0
  5  6  1  1  0  0  0
  5  1  1  0  0  0  0
  7  8  1  6  0  0  0
  7 10  1  0  0  0  0
  7  5  1  0  0  0  0
  9 11  1  1  0  0  0
  9  1  1  0  0  0  0
 10  9  1  0  0  0  0
 10  5  1  0  0  0  0
 10  1  1  0  0  0  0
 11 12  1  0  0  0  0
 13 16  1  0  0  0  0
 13 14  1  0  0  0  0
 13 11  1  0  0  0  0
 15 13  1  0  0  0  0
 16 17  1  0  0  0  0
 18 16  1  0  0  0  0
 19 22  1  0  0  0  0
 19 16  1  0  0  0  0
 19 20  1  0  0  0  0
 21 19  1  0  0  0  0
 22 25  1  0  0  0  0
 23 22  1  0  0  0  0
 24 22  1  0  0  0  0
 26 27  1  0  0  0  0
 26 11  1  0  0  0  0
 28 26  1  0  0  0  0
M  END
