1
 OpenBabel05122313113D

 22 22  0  0  1  0  0  0  0  0999 V2000
    0.4943   -0.4914    0.8368 C   0  0  0  0  0  3  0  0  0  0  0  0
   -0.6884   -0.3866   -0.1375 C   0  0  1  0  0  0  0  0  0  0  0  0
   -0.9677   -1.6602   -0.8953 C   0  0  0  0  0  0  0  0  0  0  0  0
   -2.1923   -2.1245   -1.2081 C   0  0  0  0  0  0  0  0  0  0  0  0
   -3.4766   -1.4290   -0.8642 C   0  0  0  0  0  0  0  0  0  0  0  0
   -3.2328    0.0447   -0.4255 C   0  0  0  0  0  0  0  0  0  0  0  0
   -2.0055    0.0764    0.6068 C   0  0  0  0  0  0  0  0  0  0  0  0
   -4.4463    0.5975    0.2014 C   0  0  0  0  0  0  0  0  0  0  0  0
   -2.8683    0.8736   -1.5916 C   0  0  0  0  0  0  0  0  0  0  0  0
   -2.3127   -0.8243    1.7308 C   0  0  0  0  0  0  0  0  0  0  0  0
   -1.8095    1.4478    1.1053 C   0  0  0  0  0  0  0  0  0  0  0  0
   -5.4206    1.0019    0.7079 N   0  0  0  0  0  0  0  0  0  0  0  0
   -2.5526    1.5089   -2.5224 N   0  0  0  0  0  0  0  0  0  0  0  0
   -2.5570   -1.5665    2.6019 N   0  0  0  0  0  0  0  0  0  0  0  0
   -1.5910    2.5476    1.4415 N   0  0  0  0  0  0  0  0  0  0  0  0
    0.3840    0.2499    1.6530 H   0  0  0  0  0  0  0  0  0  0  0  0
    0.4855   -1.4926    1.3113 H   0  0  0  0  0  0  0  0  0  0  0  0
   -0.4957    0.4261   -0.8710 H   0  0  0  0  0  0  0  0  0  0  0  0
   -0.0875   -2.2444   -1.1985 H   0  0  0  0  0  0  0  0  0  0  0  0
   -2.2866   -3.0825   -1.7433 H   0  0  0  0  0  0  0  0  0  0  0  0
   -4.1753   -1.4223   -1.7259 H   0  0  0  0  0  0  0  0  0  0  0  0
   -4.0065   -1.9517   -0.0381 H   0  0  0  0  0  0  0  0  0  0  0  0
  1 17  1  0  0  0  0
  1 16  1  0  0  0  0
  2 18  1  6  0  0  0
  2  7  1  0  0  0  0
  2  1  1  0  0  0  0
  3  2  1  0  0  0  0
  4  3  2  0  0  0  0
  4  5  1  0  0  0  0
  5  6  1  0  0  0  0
  5 22  1  0  0  0  0
  6  8  1  0  0  0  0
  6  7  1  0  0  0  0
  7 11  1  0  0  0  0
  7 10  1  0  0  0  0
  8 12  3  0  0  0  0
  9  6  1  0  0  0  0
 10 14  3  0  0  0  0
 11 15  3  0  0  0  0
 13  9  3  0  0  0  0
 19  3  1  0  0  0  0
 20  4  1  0  0  0  0
 21  5  1  0  0  0  0
M  END
