8
q = -1.0, confidence = 0.0

 38 40  0  0  0  0  0  0  0  0999 V2000
    7.3957    0.8644   -0.0549 O   0  0  0  0  0  0  0  0  0  0  0  0
    6.5050   -1.2218   -0.1070 O   0  0  0  0  0  0  0  0  0  0  0  0
    0.9783    2.1530    0.1179 C   0  0  0  0  0  0  0  0  0  0  0  0
   -0.0500    1.5643    0.9285 C   0  0  0  0  0  0  0  0  0  0  0  0
   -0.0368    0.4802    1.8662 C   0  0  0  0  0  0  0  0  0  0  0  0
    0.8240   -0.1496    2.1116 H   0  0  0  0  0  0  0  0  0  0  0  0
   -1.3180    0.3855    2.4800 C   0  0  0  0  0  0  0  0  0  0  0  0
   -2.1782    1.3449    1.8584 C   0  0  0  0  0  3  0  0  0  0  0  0
   -3.2102    1.5570    2.1561 H   0  0  0  0  0  0  0  0  0  0  0  0
   -1.4016    2.1055    0.9136 C   0  0  0  0  0  0  0  0  0  0  0  0
   -1.7174    3.2132    0.0737 C   0  0  0  0  0  0  0  0  0  0  0  0
   -2.7320    3.6349    0.0661 H   0  0  0  0  0  0  0  0  0  0  0  0
   -0.7024    3.7759   -0.6867 C   0  0  0  0  0  0  0  0  0  0  0  0
   -0.9197    4.6412   -1.3307 H   0  0  0  0  0  0  0  0  0  0  0  0
    0.6214    3.2571   -0.6585 C   0  0  0  0  0  0  0  0  0  0  0  0
    1.3851    3.7177   -1.3024 H   0  0  0  0  0  0  0  0  0  0  0  0
   -1.6751   -0.5539    3.5943 C   0  0  0  0  0  0  0  0  0  0  0  0
   -1.2241   -0.2033    4.5464 H   0  0  0  0  0  0  0  0  0  0  0  0
   -1.2874   -1.5731    3.3972 H   0  0  0  0  0  0  0  0  0  0  0  0
   -2.7684   -0.6142    3.7476 H   0  0  0  0  0  0  0  0  0  0  0  0
    2.3555    1.6134    0.0906 C   0  0  0  0  0  0  0  0  0  0  0  0
    2.5974    0.2196    0.0299 C   0  0  0  0  0  0  0  0  0  0  0  0
    1.7520   -0.4812   -0.0173 H   0  0  0  0  0  0  0  0  0  0  0  0
    3.9035   -0.2770   -0.0232 C   0  0  0  0  0  0  0  0  0  0  0  0
    4.0816   -1.3595   -0.0833 H   0  0  0  0  0  0  0  0  0  0  0  0
    5.0034    0.6048   -0.0113 C   0  0  0  0  0  0  0  0  0  0  0  0
    4.7721    1.9940    0.0465 C   0  0  0  0  0  0  0  0  0  0  0  0
    5.6422    2.6667    0.0605 H   0  0  0  0  0  0  0  0  0  0  0  0
    3.4675    2.4893    0.0948 C   0  0  0  0  0  0  0  0  0  0  0  0
    3.2960    3.5742    0.1630 H   0  0  0  0  0  0  0  0  0  0  0  0
    6.4180    0.1327   -0.0585 C   0  0  0  0  0  0  0  0  0  0  0  0
    7.8394   -1.7611   -0.1585 C   0  0  0  0  0  0  0  0  0  0  0  0
    8.4070   -1.4031    0.7271 H   0  0  0  0  0  0  0  0  0  0  0  0
    8.3591   -1.3515   -1.0511 H   0  0  0  0  0  0  0  0  0  0  0  0
    7.7307   -3.2715   -0.1997 C   0  0  0  0  0  0  0  0  0  0  0  0
    8.7411   -3.7244   -0.2404 H   0  0  0  0  0  0  0  0  0  0  0  0
    7.1651   -3.6054   -1.0922 H   0  0  0  0  0  0  0  0  0  0  0  0
    7.2138   -3.6578    0.7012 H   0  0  0  0  0  0  0  0  0  0  0  0
  2 31  1  0  0  0  0
  3  4  1  0  0  0  0
  4  5  1  0  0  0  0
  5  6  1  0  0  0  0
  5  7  2  0  0  0  0
  7 17  1  0  0  0  0
  8  9  1  0  0  0  0
  8  7  1  0  0  0  0
 10  4  2  0  0  0  0
 10  8  1  0  0  0  0
 11 10  1  0  0  0  0
 12 11  1  0  0  0  0
 13 15  1  0  0  0  0
 13 11  2  0  0  0  0
 14 13  1  0  0  0  0
 15  3  2  0  0  0  0
 16 15  1  0  0  0  0
 17 20  1  0  0  0  0
 17 18  1  0  0  0  0
 19 17  1  0  0  0  0
 21 29  1  0  0  0  0
 21  3  1  0  0  0  0
 22 21  2  0  0  0  0
 23 22  1  0  0  0  0
 24 26  2  0  0  0  0
 24 22  1  0  0  0  0
 25 24  1  0  0  0  0
 26 27  1  0  0  0  0
 27 28  1  0  0  0  0
 27 29  2  0  0  0  0
 29 30  1  0  0  0  0
 31  1  2  0  0  0  0
 31 26  1  0  0  0  0
 32  2  1  0  0  0  0
 32 33  1  0  0  0  0
 34 32  1  0  0  0  0
 35 32  1  0  0  0  0
 35 38  1  0  0  0  0
 36 35  1  0  0  0  0
 37 35  1  0  0  0  0
M  END
