3
 OpenBabel05122313113D

 51 53  0  0  0  0  0  0  0  0999 V2000
   -0.1469   -1.0978   -0.4144 N   0  0  0  0  0  0  0  0  0  0  0  0
   -0.1468    1.0977   -0.4144 N   0  0  0  0  0  0  0  0  0  0  0  0
    0.6702   -0.0001   -0.4662 C   0  0  0  0  0  2  0  0  0  0  0  0
   -1.4926   -0.7149   -0.3816 C   0  0  0  0  0  0  0  0  0  0  0  0
   -2.6747   -1.4408   -0.3952 C   0  0  0  0  0  0  0  0  0  0  0  0
   -2.6809   -2.5389   -0.3993 H   0  0  0  0  0  0  0  0  0  0  0  0
   -3.9056   -0.7263   -0.4027 C   0  0  0  0  0  0  0  0  0  0  0  0
   -5.1603   -1.4098   -0.4121 C   0  0  0  0  0  0  0  0  0  0  0  0
   -5.1582   -2.5108   -0.4119 H   0  0  0  0  0  0  0  0  0  0  0  0
   -6.3557   -0.7113   -0.4209 C   0  0  0  0  0  0  0  0  0  0  0  0
   -7.3115   -1.2564   -0.4279 H   0  0  0  0  0  0  0  0  0  0  0  0
   -6.3556    0.7120   -0.4208 C   0  0  0  0  0  0  0  0  0  0  0  0
   -7.3113    1.2572   -0.4278 H   0  0  0  0  0  0  0  0  0  0  0  0
   -5.1601    1.4103   -0.4120 C   0  0  0  0  0  0  0  0  0  0  0  0
   -5.1578    2.5113   -0.4117 H   0  0  0  0  0  0  0  0  0  0  0  0
   -3.9055    0.7266   -0.4026 C   0  0  0  0  0  0  0  0  0  0  0  0
   -2.6745    1.4410   -0.3951 C   0  0  0  0  0  0  0  0  0  0  0  0
   -2.6806    2.5391   -0.3991 H   0  0  0  0  0  0  0  0  0  0  0  0
   -1.4925    0.7150   -0.3815 C   0  0  0  0  0  0  0  0  0  0  0  0
    0.3483   -2.4716   -0.4296 C   0  0  0  0  0  0  0  0  0  0  0  0
    1.3023   -2.4499   -0.9946 H   0  0  0  0  0  0  0  0  0  0  0  0
   -0.3720   -3.0836   -1.0112 H   0  0  0  0  0  0  0  0  0  0  0  0
    0.5939   -3.1264    0.9573 C   0  0  0  0  0  0  0  0  0  0  0  0
    1.5938   -2.3017    1.7849 C   0  0  0  0  0  0  0  0  0  0  0  0
    1.1994   -1.2929    2.0214 H   0  0  0  0  0  0  0  0  0  0  0  0
    2.5569   -2.1644    1.2512 H   0  0  0  0  0  0  0  0  0  0  0  0
    1.8050   -2.8128    2.7460 H   0  0  0  0  0  0  0  0  0  0  0  0
    1.1873   -4.5189    0.6721 C   0  0  0  0  0  0  0  0  0  0  0  0
    1.3782   -5.0597    1.6206 H   0  0  0  0  0  0  0  0  0  0  0  0
    2.1505   -4.4427    0.1273 H   0  0  0  0  0  0  0  0  0  0  0  0
    0.4961   -5.1389    0.0638 H   0  0  0  0  0  0  0  0  0  0  0  0
   -0.7204   -3.2792    1.7427 C   0  0  0  0  0  0  0  0  0  0  0  0
   -1.4548   -3.9037    1.1926 H   0  0  0  0  0  0  0  0  0  0  0  0
   -1.1918   -2.2987    1.9549 H   0  0  0  0  0  0  0  0  0  0  0  0
   -0.5277   -3.7738    2.7163 H   0  0  0  0  0  0  0  0  0  0  0  0
    0.3486    2.4714   -0.4295 C   0  0  0  0  0  0  0  0  0  0  0  0
   -0.3716    3.0835   -1.0111 H   0  0  0  0  0  0  0  0  0  0  0  0
    1.3026    2.4496   -0.9945 H   0  0  0  0  0  0  0  0  0  0  0  0
    0.5942    3.1262    0.9574 C   0  0  0  0  0  0  0  0  0  0  0  0
    1.1881    4.5185    0.6723 C   0  0  0  0  0  0  0  0  0  0  0  0
    2.1512    4.4421    0.1276 H   0  0  0  0  0  0  0  0  0  0  0  0
    1.3789    5.0593    1.6208 H   0  0  0  0  0  0  0  0  0  0  0  0
    0.4971    5.1386    0.0639 H   0  0  0  0  0  0  0  0  0  0  0  0
    1.5939    2.3011    1.7850 C   0  0  0  0  0  0  0  0  0  0  0  0
    1.1992    1.2924    2.0215 H   0  0  0  0  0  0  0  0  0  0  0  0
    1.8051    2.8121    2.7462 H   0  0  0  0  0  0  0  0  0  0  0  0
    2.5570    2.1636    1.2514 H   0  0  0  0  0  0  0  0  0  0  0  0
   -0.7201    3.2792    1.7427 C   0  0  0  0  0  0  0  0  0  0  0  0
   -1.4543    3.9039    1.1926 H   0  0  0  0  0  0  0  0  0  0  0  0
   -0.5274    3.7737    2.7164 H   0  0  0  0  0  0  0  0  0  0  0  0
   -1.1917    2.2988    1.9548 H   0  0  0  0  0  0  0  0  0  0  0  0
  1  4  1  0  0  0  0
  2 19  1  0  0  0  0
  3  1  1  0  0  0  0
  3  2  1  0  0  0  0
  4 19  1  0  0  0  0
  5  4  2  0  0  0  0
  6  5  1  0  0  0  0
  7 16  1  0  0  0  0
  7  5  1  0  0  0  0
  8  9  1  0  0  0  0
  8  7  2  0  0  0  0
 10 12  2  0  0  0  0
 10  8  1  0  0  0  0
 11 10  1  0  0  0  0
 12 14  1  0  0  0  0
 13 12  1  0  0  0  0
 14 15  1  0  0  0  0
 14 16  2  0  0  0  0
 16 17  1  0  0  0  0
 17 19  2  0  0  0  0
 18 17  1  0  0  0  0
 20  1  1  0  0  0  0
 20 23  1  0  0  0  0
 21 20  1  0  0  0  0
 22 20  1  0  0  0  0
 23 32  1  0  0  0  0
 23 24  1  0  0  0  0
 24 25  1  0  0  0  0
 24 27  1  0  0  0  0
 26 24  1  0  0  0  0
 28 23  1  0  0  0  0
 28 29  1  0  0  0  0
 30 28  1  0  0  0  0
 31 28  1  0  0  0  0
 32 34  1  0  0  0  0
 32 35  1  0  0  0  0
 33 32  1  0  0  0  0
 36  2  1  0  0  0  0
 36 39  1  0  0  0  0
 37 36  1  0  0  0  0
 38 36  1  0  0  0  0
 39 48  1  0  0  0  0
 39 44  1  0  0  0  0
 40 39  1  0  0  0  0
 40 42  1  0  0  0  0
 41 40  1  0  0  0  0
 43 40  1  0  0  0  0
 44 45  1  0  0  0  0
 44 46  1  0  0  0  0
 47 44  1  0  0  0  0
 48 51  1  0  0  0  0
 48 50  1  0  0  0  0
 49 48  1  0  0  0  0
M  END
