8
 OpenBabel05122313113D

 50 53  0  0  0  0  0  0  0  0999 V2000
    0.4405   -3.2082    0.1771 F   0  0  0  0  0  0  0  0  0  0  0  0
    1.9709   -3.6957   -2.0299 F   0  0  0  0  0  0  0  0  0  0  0  0
    4.4127   -2.4874   -2.2889 F   0  0  0  0  0  0  0  0  0  0  0  0
    5.3424   -0.8247   -0.3214 F   0  0  0  0  0  0  0  0  0  0  0  0
    3.8521   -0.4046    1.9204 F   0  0  0  0  0  0  0  0  0  0  0  0
   -1.6274    0.1738    0.7956 N   0  0  0  0  0  0  0  0  0  0  0  0
   -0.0712   -0.9158    1.8841 N   0  0  0  0  0  0  0  0  0  0  0  0
   -0.2662    0.0276    0.9023 C   0  0  0  0  0  2  0  0  0  0  0  0
   -2.2977   -0.6341    1.7206 C   0  0  0  0  0  0  0  0  0  0  0  0
   -3.6548   -0.8232    2.0335 C   0  0  0  0  0  0  0  0  0  0  0  0
   -4.4461   -0.2766    1.5075 H   0  0  0  0  0  0  0  0  0  0  0  0
   -3.9606   -1.7496    3.0418 C   0  0  0  0  0  0  0  0  0  0  0  0
   -5.0149   -1.9182    3.3060 H   0  0  0  0  0  0  0  0  0  0  0  0
   -2.9537   -2.4676    3.7205 C   0  0  0  0  0  0  0  0  0  0  0  0
   -3.2334   -3.1857    4.5053 H   0  0  0  0  0  0  0  0  0  0  0  0
   -1.5976   -2.2764    3.4174 C   0  0  0  0  0  0  0  0  0  0  0  0
   -0.8148   -2.8279    3.9568 H   0  0  0  0  0  0  0  0  0  0  0  0
   -1.2883   -1.3505    2.4116 C   0  0  0  0  0  0  0  0  0  0  0  0
    1.2253   -1.4663    2.2759 C   0  0  0  0  0  0  0  0  0  0  0  0
    1.0183   -2.3880    2.8542 H   0  0  0  0  0  0  0  0  0  0  0  0
    1.7564   -0.7632    2.9460 H   0  0  0  0  0  0  0  0  0  0  0  0
    2.0988   -1.7842    1.0925 C   0  0  0  0  0  0  0  0  0  0  0  0
    1.6585   -2.6526    0.0814 C   0  0  0  0  0  0  0  0  0  0  0  0
    2.4269   -2.9017   -1.0628 C   0  0  0  0  0  0  0  0  0  0  0  0
    3.6812   -2.2826   -1.1947 C   0  0  0  0  0  0  0  0  0  0  0  0
    4.1563   -1.4305   -0.1849 C   0  0  0  0  0  0  0  0  0  0  0  0
    3.3690   -1.2040    0.9519 C   0  0  0  0  0  0  0  0  0  0  0  0
   -2.2336    1.0675   -0.2055 C   0  0  0  0  0  0  0  0  0  0  0  0
   -1.4976    1.1045   -1.0382 H   0  0  0  0  0  0  0  0  0  0  0  0
   -2.2761    2.0862    0.2229 H   0  0  0  0  0  0  0  0  0  0  0  0
   -3.5950    0.6290   -0.6935 C   0  0  0  0  0  0  0  0  0  0  0  0
   -4.7231    1.4643   -0.4829 C   0  0  0  0  0  0  0  0  0  0  0  0
   -5.9863    1.0349   -0.9303 C   0  0  0  0  0  0  0  0  0  0  0  0
   -6.8592    1.6863   -0.7608 H   0  0  0  0  0  0  0  0  0  0  0  0
   -6.1659   -0.1978   -1.5814 C   0  0  0  0  0  0  0  0  0  0  0  0
   -5.0325   -1.0048   -1.7819 C   0  0  0  0  0  0  0  0  0  0  0  0
   -5.1465   -1.9758   -2.2909 H   0  0  0  0  0  0  0  0  0  0  0  0
   -3.7487   -0.6185   -1.3563 C   0  0  0  0  0  0  0  0  0  0  0  0
   -4.6114    2.7941    0.2290 C   0  0  0  0  0  0  0  0  0  0  0  0
   -5.6035    3.2764    0.3160 H   0  0  0  0  0  0  0  0  0  0  0  0
   -3.9457    3.5031   -0.3065 H   0  0  0  0  0  0  0  0  0  0  0  0
   -4.2047    2.6847    1.2568 H   0  0  0  0  0  0  0  0  0  0  0  0
   -7.5224   -0.6276   -2.0802 C   0  0  0  0  0  0  0  0  0  0  0  0
   -7.6694   -1.7207   -1.9719 H   0  0  0  0  0  0  0  0  0  0  0  0
   -7.6416   -0.3915   -3.1598 H   0  0  0  0  0  0  0  0  0  0  0  0
   -8.3404   -0.1120   -1.5397 H   0  0  0  0  0  0  0  0  0  0  0  0
   -2.5821   -1.5433   -1.5888 C   0  0  0  0  0  0  0  0  0  0  0  0
   -2.2705   -2.0537   -0.6524 H   0  0  0  0  0  0  0  0  0  0  0  0
   -1.6806   -1.0131   -1.9600 H   0  0  0  0  0  0  0  0  0  0  0  0
   -2.8445   -2.3320   -2.3193 H   0  0  0  0  0  0  0  0  0  0  0  0
  2 24  1  0  0  0  0
  3 25  1  0  0  0  0
  4 26  1  0  0  0  0
  6  8  1  0  0  0  0
  6  9  1  0  0  0  0
  7 19  1  0  0  0  0
  7 18  1  0  0  0  0
  8  7  1  0  0  0  0
  9 10  2  0  0  0  0
  9 18  1  0  0  0  0
 10 12  1  0  0  0  0
 11 10  1  0  0  0  0
 12 13  1  0  0  0  0
 12 14  2  0  0  0  0
 14 15  1  0  0  0  0
 16 14  1  0  0  0  0
 16 17  1  0  0  0  0
 18 16  2  0  0  0  0
 19 20  1  0  0  0  0
 19 21  1  0  0  0  0
 22 19  1  0  0  0  0
 23  1  1  0  0  0  0
 23 22  2  0  0  0  0
 24 23  1  0  0  0  0
 25 24  2  0  0  0  0
 25 26  1  0  0  0  0
 26 27  2  0  0  0  0
 27 22  1  0  0  0  0
 27  5  1  0  0  0  0
 28 30  1  0  0  0  0
 28  6  1  0  0  0  0
 29 28  1  0  0  0  0
 31 32  1  0  0  0  0
 31 28  1  0  0  0  0
 32 39  1  0  0  0  0
 33 34  1  0  0  0  0
 33 32  2  0  0  0  0
 35 33  1  0  0  0  0
 36 35  2  0  0  0  0
 36 38  1  0  0  0  0
 37 36  1  0  0  0  0
 38 31  2  0  0  0  0
 39 40  1  0  0  0  0
 39 42  1  0  0  0  0
 41 39  1  0  0  0  0
 43 44  1  0  0  0  0
 43 35  1  0  0  0  0
 43 46  1  0  0  0  0
 45 43  1  0  0  0  0
 47 38  1  0  0  0  0
 47 48  1  0  0  0  0
 49 47  1  0  0  0  0
 50 47  1  0  0  0  0
M  END
