2
 OpenBabel05122313113D

 13 13  0  0  0  0  0  0  0  0999 V2000
    6.5273    0.0058    0.6501 Cl  0  0  0  0  0  0  0  0  0  0  0  0
    0.8012   -0.0356   -1.1435 C   0  0  0  0  0  3  0  0  0  0  0  0
    0.0756    0.2428   -2.1128 N   0  0  0  0  0  2  0  0  0  0  0  0
    2.1929   -0.0336   -0.7190 C   0  0  0  0  0  0  0  0  0  0  0  0
    3.2062    0.4601   -1.5734 C   0  0  0  0  0  0  0  0  0  0  0  0
    4.5393    0.4730   -1.1548 C   0  0  0  0  0  0  0  0  0  0  0  0
    4.8655   -0.0118    0.1259 C   0  0  0  0  0  0  0  0  0  0  0  0
    3.8728   -0.5113    0.9867 C   0  0  0  0  0  0  0  0  0  0  0  0
    2.5409   -0.5199    0.5587 C   0  0  0  0  0  0  0  0  0  0  0  0
    2.9318    0.8347   -2.5705 H   0  0  0  0  0  0  0  0  0  0  0  0
    5.3352    0.8549   -1.8096 H   0  0  0  0  0  0  0  0  0  0  0  0
    4.1537   -0.8906    1.9791 H   0  0  0  0  0  0  0  0  0  0  0  0
    1.7395   -0.9114    1.2034 H   0  0  0  0  0  0  0  0  0  0  0  0
  2  4  1  0  0  0  0
  3  2  2  0  0  0  0
  4  9  1  0  0  0  0
  5  6  1  0  0  0  0
  5  4  2  0  0  0  0
  6  7  2  0  0  0  0
  7  1  1  0  0  0  0
  7  8  1  0  0  0  0
  8 12  1  0  0  0  0
  9  8  2  0  0  0  0
  9 13  1  0  0  0  0
 10  5  1  0  0  0  0
 11  6  1  0  0  0  0
M  END
