8
 OpenBabel05122313113D

 15 15  0  0  0  0  0  0  0  0999 V2000
    2.4560   -0.0690   -0.8059 C   0  0  0  0  0  0  0  0  0  0  0  0
    2.9873    1.1510   -0.3053 C   0  0  0  0  0  0  0  0  0  0  0  0
    4.2548    1.2308    0.2649 C   0  0  0  0  0  0  0  0  0  0  0  0
    5.0247    0.0380    0.4621 C   0  0  0  0  0  0  0  0  0  0  0  0
    4.4838   -1.0478   -0.1523 C   0  0  0  0  0  3  0  0  0  0  0  0
    3.3071   -1.2444   -0.7923 C   0  0  0  0  0  0  0  0  0  0  0  0
    1.1784   -0.0905   -1.5087 C   0  0  0  0  0  3  0  0  0  0  0  0
    0.4373   -1.2458   -1.8740 C   0  0  0  0  0  3  0  0  0  0  0  0
    2.3496    2.0496   -0.3623 H   0  0  0  0  0  0  0  0  0  0  0  0
    4.6290    2.1772    0.6865 H   0  0  0  0  0  0  0  0  0  0  0  0
    5.8824    0.0230    1.1526 H   0  0  0  0  0  0  0  0  0  0  0  0
    3.0658   -2.1108   -1.4272 H   0  0  0  0  0  0  0  0  0  0  0  0
    0.9149    0.8661   -1.9941 H   0  0  0  0  0  0  0  0  0  0  0  0
    0.8763   -2.2462   -1.7294 H   0  0  0  0  0  0  0  0  0  0  0  0
   -0.2656   -1.1739   -2.7184 H   0  0  0  0  0  0  0  0  0  0  0  0
  1  6  2  0  0  0  0
  1  2  1  0  0  0  0
  2  3  2  0  0  0  0
  3  4  1  0  0  0  0
  3 10  1  0  0  0  0
  4 11  1  0  0  0  0
  5  4  2  0  0  0  0
  6  5  1  0  0  0  0
  7  1  1  0  0  0  0
  8 14  1  0  0  0  0
  8  7  1  0  0  0  0
  9  2  1  0  0  0  0
 12  6  1  0  0  0  0
 13  7  1  0  0  0  0
 15  8  1  0  0  0  0
M  END
