8
 OpenBabel05122313113D

 18 18  0  0  1  0  0  0  0  0999 V2000
    4.4360   -2.4828   -0.4679 F   0  0  0  0  0  0  0  0  0  0  0  0
    2.3874   -3.2191   -0.5428 F   0  0  0  0  0  0  0  0  0  0  0  0
    3.0836   -2.0845    1.1962 F   0  0  0  0  0  0  0  0  0  0  0  0
    2.5108    2.7693    1.2455 F   0  0  0  0  0  0  0  0  0  0  0  0
    1.8396    3.8273   -0.5495 F   0  0  0  0  0  0  0  0  0  0  0  0
    3.9550    3.3857   -0.2661 F   0  0  0  0  0  0  0  0  0  0  0  0
    2.7290   -0.8842   -0.8259 C   0  0  0  0  0  0  0  0  0  0  0  0
    2.8287    0.3557   -0.1234 C   0  0  0  0  0  3  0  0  0  0  0  0
    3.1459    0.3732    0.9272 H   0  0  0  0  0  0  0  0  0  0  0  0
    2.5342    1.5716   -0.8069 C   0  0  2  0  0  3  0  0  0  0  0  0
    2.1434    1.5508   -2.1749 C   0  0  0  0  0  0  0  0  0  0  0  0
    1.8965    2.4930   -2.6828 H   0  0  0  0  0  0  0  0  0  0  0  0
    2.0613    0.3175   -2.8670 C   0  0  0  0  0  0  0  0  0  0  0  0
    1.7495    0.3034   -3.9210 H   0  0  0  0  0  0  0  0  0  0  0  0
    2.3481   -0.9006   -2.2033 C   0  0  0  0  0  0  0  0  0  0  0  0
    2.2692   -1.8588   -2.7349 H   0  0  0  0  0  0  0  0  0  0  0  0
    3.1534   -2.1652   -0.1579 C   0  0  0  0  0  0  0  0  0  0  0  0
    2.7042    2.8864   -0.0913 C   0  0  0  0  0  0  0  0  0  0  0  0
  1 17  1  0  0  0  0
  2 17  1  0  0  0  0
  5 18  1  0  0  0  0
  6 18  1  0  0  0  0
  7 17  1  0  0  0  0
  7  8  1  0  0  0  0
  8  9  1  0  0  0  0
 10  8  1  0  0  0  0
 10 18  1  6  0  0  0
 11 10  1  0  0  0  0
 12 11  1  0  0  0  0
 13 15  1  0  0  0  0
 13 11  2  0  0  0  0
 14 13  1  0  0  0  0
 15  7  2  0  0  0  0
 16 15  1  0  0  0  0
 17  3  1  0  0  0  0
 18  4  1  0  0  0  0
M  END
