8
 OpenBabel05122313113D

 40 41  0  0  1  0  0  0  0  0999 V2000
   -3.1485   -0.6111   -0.4621 Si  0  0  0  0  0  0  0  0  0  0  0  0
    2.8021   -1.2133   -0.7146 Si  0  0  0  0  0  0  0  0  0  0  0  0
   -0.2397   -2.4439   -0.3415 O   0  0  0  0  0  0  0  0  0  0  0  0
   -1.1465   -2.6663   -0.0499 H   0  0  0  0  0  0  0  0  0  0  0  0
    0.1641    3.1161   -1.6386 O   0  0  0  0  0  0  0  0  0  0  0  0
   -0.1805   -1.1182   -0.6020 C   0  0  0  0  0  0  0  0  0  0  0  0
   -1.3212   -0.2077   -0.6959 C   0  0  1  0  0  3  0  0  0  0  0  0
   -0.7257    1.0513   -1.0946 C   0  0  2  0  0  3  0  0  0  0  0  0
   -1.0838    2.4146   -1.6191 C   0  0  0  0  0  0  0  0  0  0  0  0
   -1.5145    2.3231   -2.6500 H   0  0  0  0  0  0  0  0  0  0  0  0
   -1.7971    2.9875   -0.9948 H   0  0  0  0  0  0  0  0  0  0  0  0
    1.2506    2.1875   -1.7280 C   0  0  0  0  0  0  0  0  0  0  0  0
    2.1155    2.6053   -1.1764 H   0  0  0  0  0  0  0  0  0  0  0  0
    1.5643    2.0262   -2.7915 H   0  0  0  0  0  0  0  0  0  0  0  0
    0.6885    0.9088   -1.1679 C   0  0  2  0  0  3  0  0  0  0  0  0
    1.0769   -0.4499   -0.8418 C   0  0  0  0  0  0  0  0  0  0  0  0
   -3.2923   -2.1772    0.6081 C   0  0  0  0  0  0  0  0  0  0  0  0
   -4.3569   -2.3312    0.8820 H   0  0  0  0  0  0  0  0  0  0  0  0
   -2.7236   -2.0930    1.5571 H   0  0  0  0  0  0  0  0  0  0  0  0
   -2.9896   -3.1068    0.0767 H   0  0  0  0  0  0  0  0  0  0  0  0
   -3.9255   -0.9433   -2.1549 C   0  0  0  0  0  0  0  0  0  0  0  0
   -5.0004   -1.2018   -2.0598 H   0  0  0  0  0  0  0  0  0  0  0  0
   -3.4153   -1.7813   -2.6722 H   0  0  0  0  0  0  0  0  0  0  0  0
   -3.8485   -0.0487   -2.8065 H   0  0  0  0  0  0  0  0  0  0  0  0
   -4.0063    0.8332    0.3911 C   0  0  0  0  0  0  0  0  0  0  0  0
   -3.8992    1.7664   -0.1987 H   0  0  0  0  0  0  0  0  0  0  0  0
   -3.5611    1.0121    1.3897 H   0  0  0  0  0  0  0  0  0  0  0  0
   -5.0905    0.6324    0.5124 H   0  0  0  0  0  0  0  0  0  0  0  0
    3.0499   -2.3805   -2.1838 C   0  0  0  0  0  0  0  0  0  0  0  0
    4.0436   -2.8727   -2.1406 H   0  0  0  0  0  0  0  0  0  0  0  0
    2.9778   -1.8370   -3.1479 H   0  0  0  0  0  0  0  0  0  0  0  0
    2.2738   -3.1728   -2.1788 H   0  0  0  0  0  0  0  0  0  0  0  0
    4.0531    0.2040   -0.7682 C   0  0  0  0  0  0  0  0  0  0  0  0
    3.8873    0.9148    0.0669 H   0  0  0  0  0  0  0  0  0  0  0  0
    3.9972    0.7671   -1.7224 H   0  0  0  0  0  0  0  0  0  0  0  0
    5.0856   -0.1911   -0.6747 H   0  0  0  0  0  0  0  0  0  0  0  0
    2.9407   -2.1689    0.9060 C   0  0  0  0  0  0  0  0  0  0  0  0
    2.8205   -1.4826    1.7682 H   0  0  0  0  0  0  0  0  0  0  0  0
    3.9235   -2.6763    0.9908 H   0  0  0  0  0  0  0  0  0  0  0  0
    2.1432   -2.9359    0.9678 H   0  0  0  0  0  0  0  0  0  0  0  0
  1 25  1  0  0  0  0
  1 17  1  0  0  0  0
  2 37  1  0  0  0  0
  3  4  1  0  0  0  0
  5  9  1  0  0  0  0
  6  3  1  0  0  0  0
  7  6  1  0  0  0  0
  7  1  1  6  0  0  0
  8  9  1  6  0  0  0
  8  7  1  0  0  0  0
  9 11  1  0  0  0  0
 10  9  1  0  0  0  0
 12  5  1  0  0  0  0
 12 13  1  0  0  0  0
 12 15  1  0  0  0  0
 14 12  1  0  0  0  0
 15  8  1  0  0  0  0
 15 16  1  6  0  0  0
 16  2  1  0  0  0  0
 16  6  2  0  0  0  0
 17 18  1  0  0  0  0
 17 19  1  0  0  0  0
 20 17  1  0  0  0  0
 21 22  1  0  0  0  0
 21  1  1  0  0  0  0
 23 21  1  0  0  0  0
 24 21  1  0  0  0  0
 25 28  1  0  0  0  0
 25 27  1  0  0  0  0
 26 25  1  0  0  0  0
 29 32  1  0  0  0  0
 29 30  1  0  0  0  0
 29  2  1  0  0  0  0
 31 29  1  0  0  0  0
 33  2  1  0  0  0  0
 33 36  1  0  0  0  0
 33 34  1  0  0  0  0
 35 33  1  0  0  0  0
 37 40  1  0  0  0  0
 37 39  1  0  0  0  0
 37 38  1  0  0  0  0
M  END
