2
 OpenBabel05122313113D

 20 19  0  0  0  0  0  0  0  0999 V2000
    2.7784    0.9210   -0.5089 P   0  0  0  0  0  0  0  0  0  0  0  0
    1.7712    0.5845   -1.9363 C   0  0  0  0  0  3  0  0  0  0  0  0
    4.4401    0.7197   -0.4320 C   0  0  0  0  0  3  0  0  0  0  0  0
    2.1131    2.1826    0.6443 C   0  0  0  0  0  0  0  0  0  0  0  0
    0.7563    1.5939   -2.4305 C   0  0  0  0  0  0  0  0  0  0  0  0
    5.2927    0.9752    0.7741 C   0  0  0  0  0  0  0  0  0  0  0  0
    2.5057    3.6175    0.2816 C   0  0  0  0  0  0  0  0  0  0  0  0
    1.2384    2.3506   -3.0870 H   0  0  0  0  0  0  0  0  0  0  0  0
   -0.0295    1.0848   -3.0240 H   0  0  0  0  0  0  0  0  0  0  0  0
    0.2421    2.1348   -1.6143 H   0  0  0  0  0  0  0  0  0  0  0  0
    6.2177    1.5217    0.4873 H   0  0  0  0  0  0  0  0  0  0  0  0
    4.7824    1.5833    1.5476 H   0  0  0  0  0  0  0  0  0  0  0  0
    5.6234    0.0287    1.2572 H   0  0  0  0  0  0  0  0  0  0  0  0
    2.0647    4.3304    1.0082 H   0  0  0  0  0  0  0  0  0  0  0  0
    3.6047    3.7527    0.2907 H   0  0  0  0  0  0  0  0  0  0  0  0
    2.1408    3.8925   -0.7280 H   0  0  0  0  0  0  0  0  0  0  0  0
    2.3803    0.1161   -2.7331 H   0  0  0  0  0  0  0  0  0  0  0  0
    4.8395    0.0702   -1.2292 H   0  0  0  0  0  0  0  0  0  0  0  0
    1.0134    2.0505    0.6464 H   0  0  0  0  0  0  0  0  0  0  0  0
    2.4482    1.8992    1.6629 H   0  0  0  0  0  0  0  0  0  0  0  0
  1  3  1  0  0  0  0
  1  4  1  0  0  0  0
  2  1  1  0  0  0  0
  3  6  1  0  0  0  0
  4 19  1  0  0  0  0
  4 20  1  0  0  0  0
  5  2  1  0  0  0  0
  5 10  1  0  0  0  0
  6 13  1  0  0  0  0
  6 12  1  0  0  0  0
  7 15  1  0  0  0  0
  7  4  1  0  0  0  0
  7 14  1  0  0  0  0
  8  5  1  0  0  0  0
  9  5  1  0  0  0  0
 11  6  1  0  0  0  0
 16  7  1  0  0  0  0
 17  2  1  0  0  0  0
 18  3  1  0  0  0  0
M  END
