14
 OpenBabel05122313113D

 50 50  0  0  1  0  0  0  0  0999 V2000
   -1.6540   -0.6318    0.2311 P   0  0  0  0  0  0  0  0  0  0  0  0
   -0.1599   -0.1075   -2.0704 O   0  0  0  0  0  1  0  0  0  0  0  0
   -2.6805   -1.7895   -0.3194 O   0  0  0  0  0  0  0  0  0  0  0  0
   -2.1508   -0.5697    1.7826 O   0  0  0  0  0  0  0  0  0  0  0  0
   -2.3220    0.7114   -0.5191 O   0  0  0  0  0  0  0  0  0  0  0  0
    3.5550    0.1102   -0.4217 C   0  0  0  0  0  0  0  0  0  0  0  0
    4.5635   -0.6747   -1.0293 C   0  0  0  0  0  0  0  0  0  0  0  0
    5.8373   -0.7881   -0.4589 C   0  0  0  0  0  0  0  0  0  0  0  0
    6.1372   -0.1169    0.7376 C   0  0  0  0  0  0  0  0  0  0  0  0
    5.1471    0.6650    1.3557 C   0  0  0  0  0  0  0  0  0  0  0  0
    3.8726    0.7758    0.7866 C   0  0  0  0  0  0  0  0  0  0  0  0
    2.2333    0.1923   -1.0646 C   0  0  0  0  0  3  0  0  0  0  0  0
    1.2500    1.1877   -0.7458 C   0  0  0  0  0  3  0  0  0  0  0  0
   -0.0624    0.9585   -1.2933 C   0  0  2  0  0  3  0  0  0  0  0  0
   -1.3794    1.6940   -1.0211 C   0  0  2  0  0  0  0  0  0  0  0  0
   -1.4079    2.9803   -0.1542 C   0  0  0  0  0  0  0  0  0  0  0  0
   -0.9523    2.7339    1.2960 C   0  0  0  0  0  0  0  0  0  0  0  0
   -0.5441    4.0620   -0.8303 C   0  0  0  0  0  0  0  0  0  0  0  0
   -2.8714    3.4690   -0.1257 C   0  0  0  0  0  0  0  0  0  0  0  0
   -3.5562   -0.5608    2.1432 C   0  0  0  0  0  0  0  0  0  0  0  0
   -3.9840   -1.9220    2.6577 C   0  0  0  0  0  0  0  0  0  0  0  0
   -2.8096   -2.0060   -1.7505 C   0  0  0  0  0  0  0  0  0  0  0  0
   -4.1549   -1.4958   -2.2325 C   0  0  0  0  0  0  0  0  0  0  0  0
    1.4370    1.9948   -0.0261 H   0  0  0  0  0  0  0  0  0  0  0  0
   -1.7732    1.9664   -2.0264 H   0  0  0  0  0  0  0  0  0  0  0  0
    4.3311   -1.2037   -1.9669 H   0  0  0  0  0  0  0  0  0  0  0  0
    6.6033   -1.4059   -0.9522 H   0  0  0  0  0  0  0  0  0  0  0  0
    7.1367   -0.2053    1.1892 H   0  0  0  0  0  0  0  0  0  0  0  0
    5.3688    1.1908    2.2971 H   0  0  0  0  0  0  0  0  0  0  0  0
    3.1093    1.3791    1.3001 H   0  0  0  0  0  0  0  0  0  0  0  0
    2.1585   -0.2514   -2.0705 H   0  0  0  0  0  0  0  0  0  0  0  0
   -1.5236    1.9081    1.7628 H   0  0  0  0  0  0  0  0  0  0  0  0
    0.1210    2.4798    1.3785 H   0  0  0  0  0  0  0  0  0  0  0  0
   -1.1214    3.6474    1.9012 H   0  0  0  0  0  0  0  0  0  0  0  0
   -0.8774    4.2472   -1.8725 H   0  0  0  0  0  0  0  0  0  0  0  0
   -0.6344    5.0186   -0.2771 H   0  0  0  0  0  0  0  0  0  0  0  0
    0.5296    3.7955   -0.8645 H   0  0  0  0  0  0  0  0  0  0  0  0
   -3.5325    2.7125    0.3387 H   0  0  0  0  0  0  0  0  0  0  0  0
   -2.9513    4.4093    0.4561 H   0  0  0  0  0  0  0  0  0  0  0  0
   -3.2491    3.6680   -1.1500 H   0  0  0  0  0  0  0  0  0  0  0  0
   -3.6535    0.2204    2.9251 H   0  0  0  0  0  0  0  0  0  0  0  0
   -4.1660   -0.2469    1.2704 H   0  0  0  0  0  0  0  0  0  0  0  0
   -5.0386   -1.8869    2.9991 H   0  0  0  0  0  0  0  0  0  0  0  0
   -3.8959   -2.6796    1.8557 H   0  0  0  0  0  0  0  0  0  0  0  0
   -3.3517   -2.2342    3.5122 H   0  0  0  0  0  0  0  0  0  0  0  0
   -1.9731   -1.5006   -2.2760 H   0  0  0  0  0  0  0  0  0  0  0  0
   -2.7082   -3.1003   -1.9025 H   0  0  0  0  0  0  0  0  0  0  0  0
   -4.2800   -1.7104   -3.3133 H   0  0  0  0  0  0  0  0  0  0  0  0
   -4.9865   -1.9831   -1.6847 H   0  0  0  0  0  0  0  0  0  0  0  0
   -4.2248   -0.4008   -2.0806 H   0  0  0  0  0  0  0  0  0  0  0  0
  1  4  1  0  0  0  0
  3  1  1  0  0  0  0
  4 20  1  0  0  0  0
  5  1  1  0  0  0  0
  6 11  1  0  0  0  0
  7  8  1  0  0  0  0
  7  6  2  0  0  0  0
  8  9  2  0  0  0  0
  9 28  1  0  0  0  0
  9 10  1  0  0  0  0
 10 29  1  0  0  0  0
 11 30  1  0  0  0  0
 11 10  2  0  0  0  0
 12 13  1  0  0  0  0
 12  6  1  0  0  0  0
 13 24  1  0  0  0  0
 14  2  1  1  0  0  0
 14 15  1  0  0  0  0
 14 13  1  0  0  0  0
 15 25  1  6  0  0  0
 15  5  1  0  0  0  0
 15 16  1  0  0  0  0
 16 19  1  0  0  0  0
 16 17  1  0  0  0  0
 17 33  1  0  0  0  0
 17 32  1  0  0  0  0
 17 34  1  0  0  0  0
 18 36  1  0  0  0  0
 18 16  1  0  0  0  0
 19 38  1  0  0  0  0
 19 39  1  0  0  0  0
 20 21  1  0  0  0  0
 20 41  1  0  0  0  0
 21 43  1  0  0  0  0
 21 45  1  0  0  0  0
 22  3  1  0  0  0  0
 23 50  1  0  0  0  0
 23 22  1  0  0  0  0
 23 49  1  0  0  0  0
 26  7  1  0  0  0  0
 27  8  1  0  0  0  0
 31 12  1  0  0  0  0
 35 18  1  0  0  0  0
 37 18  1  0  0  0  0
 40 19  1  0  0  0  0
 42 20  1  0  0  0  0
 44 21  1  0  0  0  0
 46 22  1  0  0  0  0
 47 22  1  0  0  0  0
 48 23  1  0  0  0  0
M  END
