29
 OpenBabel05122313113D

 45 45  0  0  1  0  0  0  0  0999 V2000
    1.4210   -1.0508    0.1936 P   0  0  0  0  0  0  0  0  0  0  0  0
    1.0760   -1.9958    1.7758 C   0  0  0  0  0  0  0  0  0  0  0  0
    1.7935   -2.8427    1.7177 H   0  0  0  0  0  0  0  0  0  0  0  0
   -0.3406   -2.5751    1.8202 C   0  0  0  0  0  0  0  0  0  0  0  0
   -0.4848   -3.1151    2.7776 H   0  0  0  0  0  0  0  0  0  0  0  0
   -0.5214   -3.2980    1.0017 H   0  0  0  0  0  0  0  0  0  0  0  0
   -1.1180   -1.7838    1.7689 H   0  0  0  0  0  0  0  0  0  0  0  0
    1.3886   -1.1444    3.0100 C   0  0  0  0  0  0  0  0  0  0  0  0
    0.6610   -0.3134    3.1069 H   0  0  0  0  0  0  0  0  0  0  0  0
    2.4112   -0.7163    2.9949 H   0  0  0  0  0  0  0  0  0  0  0  0
    1.3048   -1.7651    3.9247 H   0  0  0  0  0  0  0  0  0  0  0  0
    3.2889   -0.8391    0.1360 C   0  0  0  0  0  0  0  0  0  0  0  0
    3.4289    0.0148    0.8368 H   0  0  0  0  0  0  0  0  0  0  0  0
    3.7580   -0.3933   -1.2540 C   0  0  0  0  0  0  0  0  0  0  0  0
    4.8345   -0.1322   -1.2172 H   0  0  0  0  0  0  0  0  0  0  0  0
    3.2048    0.4953   -1.6135 H   0  0  0  0  0  0  0  0  0  0  0  0
    3.6358   -1.1996   -2.0039 H   0  0  0  0  0  0  0  0  0  0  0  0
    4.1058   -2.0222    0.6737 C   0  0  0  0  0  0  0  0  0  0  0  0
    3.9814   -2.9377    0.0632 H   0  0  0  0  0  0  0  0  0  0  0  0
    3.8641   -2.2732    1.7237 H   0  0  0  0  0  0  0  0  0  0  0  0
    5.1825   -1.7588    0.6423 H   0  0  0  0  0  0  0  0  0  0  0  0
    0.8366   -2.1757   -1.1480 C   0  0  0  0  0  0  0  0  0  0  0  0
    1.5496   -3.1899   -1.6746 C   0  0  0  0  0  0  0  0  0  0  0  0
    2.5536   -3.4590   -1.3169 H   0  0  0  0  0  0  0  0  0  0  0  0
    1.1379   -3.8025   -2.4941 H   0  0  0  0  0  0  0  0  0  0  0  0
   -0.5584   -1.7837   -1.5828 C   0  0  0  0  0  0  0  0  0  0  0  0
   -1.3046   -2.1489   -0.8469 H   0  0  0  0  0  0  0  0  0  0  0  0
   -0.8050   -2.2607   -2.5546 H   0  0  0  0  0  0  0  0  0  0  0  0
   -0.6910   -0.2793   -1.7068 C   0  0  2  0  0  3  0  0  0  0  0  0
    0.3749    0.4999   -2.2772 C   0  0  0  0  0  3  0  0  0  0  0  0
    1.2572   -0.0340   -2.6622 H   0  0  0  0  0  0  0  0  0  0  0  0
    0.1235    1.4236   -2.8220 H   0  0  0  0  0  0  0  0  0  0  0  0
   -1.7497    0.5071   -1.1312 C   0  0  0  0  0  3  0  0  0  0  0  0
   -1.9536    1.4677   -1.6415 H   0  0  0  0  0  0  0  0  0  0  0  0
   -2.9425   -0.0928   -0.4581 C   0  0  0  0  0  0  0  0  0  0  0  0
   -3.3620    0.3131    0.8253 C   0  0  0  0  0  0  0  0  0  0  0  0
   -2.7684    1.0598    1.3724 H   0  0  0  0  0  0  0  0  0  0  0  0
   -4.5146   -0.2313    1.4093 C   0  0  0  0  0  0  0  0  0  0  0  0
   -4.8245    0.0949    2.4134 H   0  0  0  0  0  0  0  0  0  0  0  0
   -5.2709   -1.1900    0.7166 C   0  0  0  0  0  0  0  0  0  0  0  0
   -6.1738   -1.6193    1.1755 H   0  0  0  0  0  0  0  0  0  0  0  0
   -4.8729   -1.5924   -0.5673 C   0  0  0  0  0  0  0  0  0  0  0  0
   -5.4654   -2.3352   -1.1221 H   0  0  0  0  0  0  0  0  0  0  0  0
   -3.7210   -1.0454   -1.1523 C   0  0  0  0  0  0  0  0  0  0  0  0
   -3.4298   -1.3503   -2.1694 H   0  0  0  0  0  0  0  0  0  0  0  0
  1  2  1  0  0  0  0
  2  4  1  0  0  0  0
  2  8  1  0  0  0  0
  3  2  1  0  0  0  0
  4  5  1  0  0  0  0
  6  4  1  0  0  0  0
  7  4  1  0  0  0  0
  8  9  1  0  0  0  0
  8 11  1  0  0  0  0
 10  8  1  0  0  0  0
 12  1  1  0  0  0  0
 12 18  1  0  0  0  0
 12 13  1  0  0  0  0
 14 15  1  0  0  0  0
 14 12  1  0  0  0  0
 16 14  1  0  0  0  0
 17 14  1  0  0  0  0
 18 20  1  0  0  0  0
 19 18  1  0  0  0  0
 21 18  1  0  0  0  0
 22  1  1  0  0  0  0
 23 24  1  0  0  0  0
 23 22  2  0  0  0  0
 25 23  1  0  0  0  0
 26 22  1  0  0  0  0
 26 27  1  0  0  0  0
 28 26  1  0  0  0  0
 29 30  1  1  0  0  0
 29 26  1  0  0  0  0
 29 33  1  0  0  0  0
 31 30  1  0  0  0  0
 32 30  1  0  0  0  0
 33 35  1  0  0  0  0
 34 33  1  0  0  0  0
 35 36  1  0  0  0  0
 36 37  1  0  0  0  0
 36 38  2  0  0  0  0
 38 39  1  0  0  0  0
 40 41  1  0  0  0  0
 40 38  1  0  0  0  0
 42 40  2  0  0  0  0
 43 42  1  0  0  0  0
 44 42  1  0  0  0  0
 44 35  2  0  0  0  0
 45 44  1  0  0  0  0
M  END
