1
 OpenBabel05122313113D

 65 70  0  0  1  0  0  0  0  0999 V2000
    0.4685   -1.9782    0.3789 C   0  0  1  0  0  3  0  0  0  0  0  0
    0.9899   -3.3449    0.7163 C   0  0  0  0  0  0  0  0  0  0  0  0
   -0.9074   -1.8026    0.1408 N   0  0  1  0  0  0  0  0  0  0  0  0
   -1.8697   -2.9148    0.0452 C   0  0  0  0  0  0  0  0  0  0  0  0
   -3.1351   -2.2581   -0.5105 C   0  0  1  0  0  0  0  0  0  0  0  0
   -4.4651   -2.8507   -0.0497 C   0  0  0  0  0  0  0  0  0  0  0  0
   -2.9950   -0.7789   -0.1329 C   0  0  0  0  0  0  0  0  0  0  0  0
   -3.8701    0.0525   -0.2356 O   0  0  0  0  0  0  0  0  0  0  0  0
   -1.5884   -0.5303    0.4797 C   0  0  1  0  0  0  0  0  0  0  0  0
   -1.7701   -0.2857    1.9830 C   0  0  0  0  0  0  0  0  0  0  0  0
   -1.1059   -1.0642    2.9522 C   0  0  0  0  0  0  0  0  0  0  0  0
   -1.2468   -0.7776    4.3189 C   0  0  0  0  0  0  0  0  0  0  0  0
   -2.0554    0.2894    4.7374 C   0  0  0  0  0  0  0  0  0  0  0  0
   -2.7367    1.0565    3.7790 C   0  0  0  0  0  0  0  0  0  0  0  0
   -2.6035    0.7698    2.4136 C   0  0  0  0  0  0  0  0  0  0  0  0
   -0.7460    0.5554   -0.2195 C   0  0  1  0  0  3  0  0  0  0  0  0
   -1.3892    1.8734   -0.5130 C   0  0  0  0  0  0  0  0  0  0  0  0
   -1.2511    2.9253    0.4215 C   0  0  0  0  0  0  0  0  0  0  0  0
   -1.8459    4.1730    0.1935 C   0  0  0  0  0  0  0  0  0  0  0  0
   -2.5909    4.3941   -0.9753 C   0  0  0  0  0  0  0  0  0  0  0  0
   -2.7380    3.3567   -1.9086 C   0  0  0  0  0  0  0  0  0  0  0  0
   -2.1453    2.1069   -1.6786 C   0  0  0  0  0  0  0  0  0  0  0  0
    0.6594    0.4724    0.0149 C   0  0  0  0  0  0  0  0  0  0  0  0
    1.5156    1.6960   -0.0916 C   0  0  0  0  0  0  0  0  0  0  0  0
    2.2549    2.1110    1.0365 C   0  0  0  0  0  0  0  0  0  0  0  0
    3.0092    3.2920    1.0017 C   0  0  0  0  0  0  0  0  0  0  0  0
    3.0360    4.0777   -0.1607 C   0  0  0  0  0  0  0  0  0  0  0  0
    2.2950    3.6774   -1.2835 C   0  0  0  0  0  0  0  0  0  0  0  0
    1.5375    2.4995   -1.2488 C   0  0  0  0  0  0  0  0  0  0  0  0
    1.2627   -0.7941    0.4006 C   0  0  0  0  0  0  0  0  0  0  0  0
    2.7030   -0.8970    0.7808 C   0  0  0  0  0  0  0  0  0  0  0  0
    3.0302   -1.2097    2.1177 C   0  0  0  0  0  0  0  0  0  0  0  0
    4.3693   -1.2891    2.5264 C   0  0  0  0  0  0  0  0  0  0  0  0
    5.3995   -1.0537    1.6023 C   0  0  0  0  0  0  0  0  0  0  0  0
    5.0816   -0.7424    0.2706 C   0  0  0  0  0  0  0  0  0  0  0  0
    3.7434   -0.6665   -0.1403 C   0  0  0  0  0  0  0  0  0  0  0  0
    0.5327   -4.1295    0.0866 H   0  0  0  0  0  0  0  0  0  0  0  0
    2.0821   -3.3775    0.5630 H   0  0  0  0  0  0  0  0  0  0  0  0
    0.7862   -3.5986    1.7794 H   0  0  0  0  0  0  0  0  0  0  0  0
   -2.0556   -3.3461    1.0551 H   0  0  0  0  0  0  0  0  0  0  0  0
   -1.4663   -3.7048   -0.6124 H   0  0  0  0  0  0  0  0  0  0  0  0
   -3.0923   -2.2694   -1.6217 H   0  0  0  0  0  0  0  0  0  0  0  0
   -4.6010   -3.8816   -0.4310 H   0  0  0  0  0  0  0  0  0  0  0  0
   -5.2980   -2.2248   -0.4238 H   0  0  0  0  0  0  0  0  0  0  0  0
   -4.5279   -2.8753    1.0574 H   0  0  0  0  0  0  0  0  0  0  0  0
   -0.4712   -1.9066    2.6479 H   0  0  0  0  0  0  0  0  0  0  0  0
   -0.7193   -1.3969    5.0603 H   0  0  0  0  0  0  0  0  0  0  0  0
   -2.1629    0.5159    5.8089 H   0  0  0  0  0  0  0  0  0  0  0  0
   -3.3870    1.8860    4.0956 H   0  0  0  0  0  0  0  0  0  0  0  0
   -3.1583    1.3552    1.6683 H   0  0  0  0  0  0  0  0  0  0  0  0
   -0.6577    2.7599    1.3318 H   0  0  0  0  0  0  0  0  0  0  0  0
   -1.7190    4.9797    0.9315 H   0  0  0  0  0  0  0  0  0  0  0  0
   -3.0538    5.3755   -1.1601 H   0  0  0  0  0  0  0  0  0  0  0  0
   -3.3188    3.5192   -2.8291 H   0  0  0  0  0  0  0  0  0  0  0  0
   -2.2658    1.3049   -2.4175 H   0  0  0  0  0  0  0  0  0  0  0  0
    2.2317    1.5060    1.9539 H   0  0  0  0  0  0  0  0  0  0  0  0
    3.5800    3.5984    1.8914 H   0  0  0  0  0  0  0  0  0  0  0  0
    3.6320    5.0025   -0.1908 H   0  0  0  0  0  0  0  0  0  0  0  0
    2.3040    4.2877   -2.1991 H   0  0  0  0  0  0  0  0  0  0  0  0
    0.9492    2.1997   -2.1254 H   0  0  0  0  0  0  0  0  0  0  0  0
    2.2198   -1.3745    2.8453 H   0  0  0  0  0  0  0  0  0  0  0  0
    4.6089   -1.5311    3.5731 H   0  0  0  0  0  0  0  0  0  0  0  0
    6.4513   -1.1137    1.9204 H   0  0  0  0  0  0  0  0  0  0  0  0
    5.8837   -0.5585   -0.4599 H   0  0  0  0  0  0  0  0  0  0  0  0
    3.4959   -0.4221   -1.1821 H   0  0  0  0  0  0  0  0  0  0  0  0
  1 30  1  0  0  0  0
  1  2  1  1  0  0  0
  2 39  1  0  0  0  0
  3  4  1  1  0  0  0
  3  1  1  0  0  0  0
  3  9  1  0  0  0  0
  4 40  1  0  0  0  0
  5 42  1  6  0  0  0
  5  7  1  0  0  0  0
  5  6  1  0  0  0  0
  5  4  1  0  0  0  0
  6 45  1  0  0  0  0
  7  9  1  0  0  0  0
  8  7  2  0  0  0  0
  9 10  1  1  0  0  0
 10 15  2  0  0  0  0
 10 11  1  0  0  0  0
 11 12  2  0  0  0  0
 12 13  1  0  0  0  0
 12 47  1  0  0  0  0
 13 48  1  0  0  0  0
 14 49  1  0  0  0  0
 14 13  2  0  0  0  0
 15 14  1  0  0  0  0
 16 17  1  1  0  0  0
 16 23  1  0  0  0  0
 16  9  1  0  0  0  0
 17 18  1  0  0  0  0
 18 51  1  0  0  0  0
 19 18  2  0  0  0  0
 19 52  1  0  0  0  0
 20 19  1  0  0  0  0
 21 22  1  0  0  0  0
 21 20  2  0  0  0  0
 22 17  2  0  0  0  0
 23 30  2  0  0  0  0
 24 23  1  0  0  0  0
 24 25  1  0  0  0  0
 25 56  1  0  0  0  0
 26 25  2  0  0  0  0
 26 57  1  0  0  0  0
 27 26  1  0  0  0  0
 28 29  1  0  0  0  0
 28 27  2  0  0  0  0
 29 24  2  0  0  0  0
 30 31  1  0  0  0  0
 31 32  1  0  0  0  0
 32 33  2  0  0  0  0
 32 61  1  0  0  0  0
 33 62  1  0  0  0  0
 34 63  1  0  0  0  0
 34 33  1  0  0  0  0
 35 34  2  0  0  0  0
 36 35  1  0  0  0  0
 36 31  2  0  0  0  0
 37  2  1  0  0  0  0
 38  2  1  0  0  0  0
 41  4  1  0  0  0  0
 43  6  1  0  0  0  0
 44  6  1  0  0  0  0
 46 11  1  0  0  0  0
 50 15  1  0  0  0  0
 53 20  1  0  0  0  0
 54 21  1  0  0  0  0
 55 22  1  0  0  0  0
 58 27  1  0  0  0  0
 59 28  1  0  0  0  0
 60 29  1  0  0  0  0
 64 35  1  0  0  0  0
 65 36  1  0  0  0  0
M  END
