3
 OpenBabel05122313113D

 27 29  0  0  0  0  0  0  0  0999 V2000
   -2.2618   -2.5880   -0.1378 Se  0  0  0  0  0  0  0  0  0  0  0  0
    0.1472   -2.3654   -0.1833 Se  0  0  0  0  0  0  0  0  0  0  0  0
    0.1033   -0.5318   -0.1061 C   0  0  0  0  0  2  0  0  0  0  0  0
   -1.1909    0.0635   -0.0980 C   0  0  0  0  0  0  0  0  0  0  0  0
   -2.3667   -0.7156   -0.0723 C   0  0  0  0  0  0  0  0  0  0  0  0
   -1.2994    1.5543   -0.0564 C   0  0  0  0  0  0  0  0  0  0  0  0
   -1.7858    2.2077    1.0931 C   0  0  0  0  0  0  0  0  0  0  0  0
   -1.8763    3.6059    1.1266 C   0  0  0  0  0  0  0  0  0  0  0  0
   -1.4905    4.3648    0.0103 C   0  0  0  0  0  0  0  0  0  0  0  0
   -1.0121    3.7203   -1.1415 C   0  0  0  0  0  0  0  0  0  0  0  0
   -0.9130    2.3224   -1.1749 C   0  0  0  0  0  0  0  0  0  0  0  0
   -3.7464   -0.1818   -0.0162 C   0  0  0  0  0  0  0  0  0  0  0  0
   -4.6801   -0.7039    0.9105 C   0  0  0  0  0  0  0  0  0  0  0  0
   -5.9887   -0.2066    0.9617 C   0  0  0  0  0  0  0  0  0  0  0  0
   -6.3902    0.8119    0.0835 C   0  0  0  0  0  0  0  0  0  0  0  0
   -5.4744    1.3304   -0.8470 C   0  0  0  0  0  0  0  0  0  0  0  0
   -4.1632    0.8439   -0.8976 C   0  0  0  0  0  0  0  0  0  0  0  0
   -2.0874    1.6097    1.9660 H   0  0  0  0  0  0  0  0  0  0  0  0
   -2.2462    4.1075    2.0335 H   0  0  0  0  0  0  0  0  0  0  0  0
   -1.5584    5.4626    0.0399 H   0  0  0  0  0  0  0  0  0  0  0  0
   -0.7053    4.3101   -2.0183 H   0  0  0  0  0  0  0  0  0  0  0  0
   -0.5344    1.8152   -2.0743 H   0  0  0  0  0  0  0  0  0  0  0  0
   -4.3600   -1.4900    1.6115 H   0  0  0  0  0  0  0  0  0  0  0  0
   -6.6976   -0.6150    1.6975 H   0  0  0  0  0  0  0  0  0  0  0  0
   -7.4181    1.2026    0.1235 H   0  0  0  0  0  0  0  0  0  0  0  0
   -5.7845    2.1233   -1.5441 H   0  0  0  0  0  0  0  0  0  0  0  0
   -3.4537    1.2504   -1.6307 H   0  0  0  0  0  0  0  0  0  0  0  0
  1  5  1  0  0  0  0
  2  1  1  0  0  0  0
  2  3  1  0  0  0  0
  3  4  1  0  0  0  0
  4  5  2  0  0  0  0
  4  6  1  0  0  0  0
  5 12  1  0  0  0  0
  6  7  1  0  0  0  0
  7  8  2  0  0  0  0
  7 18  1  0  0  0  0
  8 19  1  0  0  0  0
  9 20  1  0  0  0  0
  9  8  1  0  0  0  0
 10  9  2  0  0  0  0
 11 10  1  0  0  0  0
 11  6  2  0  0  0  0
 12 13  1  0  0  0  0
 13 14  2  0  0  0  0
 13 23  1  0  0  0  0
 14 24  1  0  0  0  0
 15 25  1  0  0  0  0
 15 14  1  0  0  0  0
 16 15  2  0  0  0  0
 17 16  1  0  0  0  0
 17 12  2  0  0  0  0
 21 10  1  0  0  0  0
 22 11  1  0  0  0  0
 26 16  1  0  0  0  0
 27 17  1  0  0  0  0
M  END
