3
 OpenBabel05122313113D

 27 29  0  0  0  0  0  0  0  0999 V2000
   -2.1702   -2.7018   -0.1785 Se  0  0  0  0  0  0  0  0  0  0  0  0
    0.1202   -2.3545   -0.2078 S   0  0  0  0  0  0  0  0  0  0  0  0
    0.0934   -0.6677   -0.1215 C   0  0  0  0  0  2  0  0  0  0  0  0
   -1.1901   -0.0433   -0.1044 C   0  0  0  0  0  0  0  0  0  0  0  0
   -2.3528   -0.8380   -0.0902 C   0  0  0  0  0  0  0  0  0  0  0  0
   -1.2960    1.4439   -0.0417 C   0  0  0  0  0  0  0  0  0  0  0  0
   -1.7966    2.0793    1.1120 C   0  0  0  0  0  0  0  0  0  0  0  0
   -1.8822    3.4769    1.1686 C   0  0  0  0  0  0  0  0  0  0  0  0
   -1.4775    4.2533    0.0711 C   0  0  0  0  0  0  0  0  0  0  0  0
   -0.9864    3.6269   -1.0852 C   0  0  0  0  0  0  0  0  0  0  0  0
   -0.8928    2.2294   -1.1421 C   0  0  0  0  0  0  0  0  0  0  0  0
   -3.7440   -0.3387   -0.0340 C   0  0  0  0  0  0  0  0  0  0  0  0
   -4.6801   -0.9219    0.8530 C   0  0  0  0  0  0  0  0  0  0  0  0
   -6.0008   -0.4577    0.9028 C   0  0  0  0  0  0  0  0  0  0  0  0
   -6.4117    0.5886    0.0622 C   0  0  0  0  0  0  0  0  0  0  0  0
   -5.4933    1.1683   -0.8286 C   0  0  0  0  0  0  0  0  0  0  0  0
   -4.1699    0.7150   -0.8770 C   0  0  0  0  0  0  0  0  0  0  0  0
   -2.1110    1.4675    1.9707 H   0  0  0  0  0  0  0  0  0  0  0  0
   -2.2623    3.9643    2.0790 H   0  0  0  0  0  0  0  0  0  0  0  0
   -1.5409    5.3508    0.1190 H   0  0  0  0  0  0  0  0  0  0  0  0
   -0.6653    4.2305   -1.9475 H   0  0  0  0  0  0  0  0  0  0  0  0
   -0.5045    1.7368   -2.0453 H   0  0  0  0  0  0  0  0  0  0  0  0
   -4.3534   -1.7300    1.5255 H   0  0  0  0  0  0  0  0  0  0  0  0
   -6.7120   -0.9141    1.6074 H   0  0  0  0  0  0  0  0  0  0  0  0
   -7.4493    0.9531    0.1007 H   0  0  0  0  0  0  0  0  0  0  0  0
   -5.8105    1.9833   -1.4962 H   0  0  0  0  0  0  0  0  0  0  0  0
   -3.4585    1.1693   -1.5796 H   0  0  0  0  0  0  0  0  0  0  0  0
  1  5  1  0  0  0  0
  2  1  1  0  0  0  0
  2  3  1  0  0  0  0
  3  4  1  0  0  0  0
  4  5  2  0  0  0  0
  4  6  1  0  0  0  0
  5 12  1  0  0  0  0
  6  7  1  0  0  0  0
  7  8  2  0  0  0  0
  7 18  1  0  0  0  0
  8 19  1  0  0  0  0
  9 20  1  0  0  0  0
  9  8  1  0  0  0  0
 10  9  2  0  0  0  0
 11 10  1  0  0  0  0
 11  6  2  0  0  0  0
 12 13  1  0  0  0  0
 13 14  2  0  0  0  0
 13 23  1  0  0  0  0
 14 24  1  0  0  0  0
 15 25  1  0  0  0  0
 15 14  1  0  0  0  0
 16 15  2  0  0  0  0
 17 16  1  0  0  0  0
 17 12  2  0  0  0  0
 21 10  1  0  0  0  0
 22 11  1  0  0  0  0
 26 16  1  0  0  0  0
 27 17  1  0  0  0  0
M  END
