5
 OpenBabel05122313113D

 21 20  0  0  0  0  0  0  0  0999 V2000
   -3.4352   -1.2057    0.8082 C   0  0  0  0  0  0  0  0  0  0  0  0
   -2.6487   -0.5984   -0.3382 C   0  0  0  0  0  0  0  0  0  0  0  0
   -3.1584    0.1762   -1.1426 O   0  0  0  0  0  0  0  0  0  0  0  0
   -1.2116   -1.0027   -0.4322 C   0  0  0  0  0  3  0  0  0  0  0  0
   -0.4640   -0.5775   -1.5851 C   0  0  0  0  0  3  0  0  0  0  0  0
    0.9560   -0.6571   -1.6041 C   0  0  0  0  0  3  0  0  0  0  0  0
    1.7008   -1.2069   -0.4951 C   0  0  0  0  0  3  0  0  0  0  0  0
    3.1809   -0.8719   -0.4361 C   0  0  0  0  0  0  0  0  0  0  0  0
    1.4354   -2.5855    0.0883 C   0  0  0  0  0  0  0  0  0  0  0  0
   -2.9037   -1.0477    1.7695 H   0  0  0  0  0  0  0  0  0  0  0  0
   -3.5247   -2.3038    0.6691 H   0  0  0  0  0  0  0  0  0  0  0  0
   -4.4442   -0.7584    0.8522 H   0  0  0  0  0  0  0  0  0  0  0  0
   -0.9503   -1.9077    0.1277 H   0  0  0  0  0  0  0  0  0  0  0  0
   -1.0056   -0.0391   -2.3795 H   0  0  0  0  0  0  0  0  0  0  0  0
    1.4896   -0.1381   -2.4186 H   0  0  0  0  0  0  0  0  0  0  0  0
    3.4267    0.0927   -0.9176 H   0  0  0  0  0  0  0  0  0  0  0  0
    3.5378   -0.8289    0.6128 H   0  0  0  0  0  0  0  0  0  0  0  0
    3.7722   -1.6673   -0.9420 H   0  0  0  0  0  0  0  0  0  0  0  0
    2.1478   -3.3021   -0.3773 H   0  0  0  0  0  0  0  0  0  0  0  0
    0.4269   -2.9846   -0.1096 H   0  0  0  0  0  0  0  0  0  0  0  0
    1.6242   -2.6139    1.1804 H   0  0  0  0  0  0  0  0  0  0  0  0
  1 12  1  0  0  0  0
  1 10  1  0  0  0  0
  2  1  1  0  0  0  0
  3  2  2  0  0  0  0
  4  2  1  0  0  0  0
  4 13  1  0  0  0  0
  5  4  1  0  0  0  0
  6  5  1  0  0  0  0
  6  7  1  0  0  0  0
  7  8  1  0  0  0  0
  7  9  1  0  0  0  0
  8 17  1  0  0  0  0
  9 21  1  0  0  0  0
 11  1  1  0  0  0  0
 14  5  1  0  0  0  0
 15  6  1  0  0  0  0
 16  8  1  0  0  0  0
 18  8  1  0  0  0  0
 19  9  1  0  0  0  0
 20  9  1  0  0  0  0
M  END
