3
 OpenBabel05122313113D

 20 21  0  0  0  0  0  0  0  0999 V2000
    0.8430   -1.9620   -1.2297 B   0  0  0  0  0  0  0  0  0  0  0  0
   -0.2302   -2.7572   -0.4675 C   0  0  0  0  0  0  0  0  0  0  0  0
   -1.4595   -2.6954   -1.2069 C   0  0  0  0  0  3  0  0  0  0  0  0
   -1.2854   -1.8663   -2.3582 C   0  0  0  0  0  0  0  0  0  0  0  0
    0.0409   -1.3398   -2.3953 C   0  0  0  0  0  0  0  0  0  0  0  0
    2.3590   -1.7709   -0.8339 C   0  0  0  0  0  0  0  0  0  0  0  0
    2.9033   -2.2792    0.3621 C   0  0  0  0  0  0  0  0  0  0  0  0
    4.2062   -2.0010    0.8031 C   0  0  0  0  0  0  0  0  0  0  0  0
    5.0373   -1.1891    0.0143 C   0  0  0  0  0  0  0  0  0  0  0  0
    4.5495   -0.6755   -1.1979 C   0  0  0  0  0  0  0  0  0  0  0  0
    3.2435   -0.9899   -1.6033 C   0  0  0  0  0  0  0  0  0  0  0  0
    2.1565   -3.0531    1.1822 F   0  0  0  0  0  0  0  0  0  0  0  0
    4.6603   -2.4941    1.9623 F   0  0  0  0  0  0  0  0  0  0  0  0
    6.2763   -0.8972    0.4199 F   0  0  0  0  0  0  0  0  0  0  0  0
    5.3204    0.1306   -1.9387 F   0  0  0  0  0  0  0  0  0  0  0  0
    2.8377   -0.4526   -2.7700 F   0  0  0  0  0  0  0  0  0  0  0  0
   -0.1240   -3.3628    0.4399 H   0  0  0  0  0  0  0  0  0  0  0  0
   -2.3949   -3.2273   -0.9725 H   0  0  0  0  0  0  0  0  0  0  0  0
   -2.0697   -1.6904   -3.1048 H   0  0  0  0  0  0  0  0  0  0  0  0
    0.3572   -0.6333   -3.1752 H   0  0  0  0  0  0  0  0  0  0  0  0
  1  6  1  0  0  0  0
  1  2  2  0  0  0  0
  2 17  1  0  0  0  0
  3 18  1  0  0  0  0
  3  2  1  0  0  0  0
  4  3  1  0  0  0  0
  5  4  2  0  0  0  0
  5  1  1  0  0  0  0
  6  7  1  0  0  0  0
  7  8  2  0  0  0  0
  7 12  1  0  0  0  0
  8 13  1  0  0  0  0
  9 14  1  0  0  0  0
  9  8  1  0  0  0  0
 10  9  2  0  0  0  0
 11 10  1  0  0  0  0
 11  6  2  0  0  0  0
 15 10  1  0  0  0  0
 16 11  1  0  0  0  0
 19  4  1  0  0  0  0
 20  5  1  0  0  0  0
M  END
