7
 OpenBabel05122313113D

 59 65  0  0  1  0  0  0  0  0999 V2000
    1.6699    2.6245   -1.0624 O   0  0  0  0  0  0  0  0  0  0  0  0
    1.3533   -0.4835    2.3044 O   0  0  0  0  0  0  0  0  0  0  0  0
   -2.4287    1.9782   -0.9526 N   0  0  0  0  0  0  0  0  0  0  0  0
   -2.1447    3.2828   -1.0049 N   0  0  0  0  0  2  0  0  0  0  0  0
   -1.1952    3.4304   -0.1010 N   0  0  0  0  0  0  0  0  0  0  0  0
    1.2794    1.2218    0.7351 N   0  0  0  0  0  0  0  0  0  0  0  0
   -1.7033    1.2548   -0.0262 C   0  0  0  0  0  3  0  0  0  0  0  0
   -0.8855    2.2516    0.5366 C   0  0  0  0  0  0  0  0  0  0  0  0
   -0.5296    4.7177    0.0218 C   0  0  0  0  0  0  0  0  0  0  0  0
   -0.5751    5.0776    1.0670 H   0  0  0  0  0  0  0  0  0  0  0  0
   -1.0505    5.4280   -0.6424 H   0  0  0  0  0  0  0  0  0  0  0  0
    0.5224    4.5873   -0.3009 H   0  0  0  0  0  0  0  0  0  0  0  0
   -3.3100    1.4222   -1.9794 C   0  0  0  0  0  0  0  0  0  0  0  0
   -2.7209    0.6247   -2.4782 H   0  0  0  0  0  0  0  0  0  0  0  0
   -3.4838    2.2458   -2.7008 H   0  0  0  0  0  0  0  0  0  0  0  0
   -4.6201    0.8756   -1.4622 C   0  0  0  0  0  0  0  0  0  0  0  0
   -5.1113   -0.3387   -1.9769 C   0  0  0  0  0  0  0  0  0  0  0  0
   -4.4915   -0.9138   -2.6819 H   0  0  0  0  0  0  0  0  0  0  0  0
   -6.3724   -0.8169   -1.5897 C   0  0  0  0  0  0  0  0  0  0  0  0
   -6.7461   -1.7668   -2.0009 H   0  0  0  0  0  0  0  0  0  0  0  0
   -7.1446   -0.0969   -0.6644 C   0  0  0  0  0  0  0  0  0  0  0  0
   -8.1291   -0.4762   -0.3515 H   0  0  0  0  0  0  0  0  0  0  0  0
   -6.6499    1.1045   -0.1301 C   0  0  0  0  0  0  0  0  0  0  0  0
   -7.2472    1.6692    0.6018 H   0  0  0  0  0  0  0  0  0  0  0  0
   -5.3981    1.5919   -0.5332 C   0  0  0  0  0  0  0  0  0  0  0  0
   -5.0169    2.5400   -0.1220 H   0  0  0  0  0  0  0  0  0  0  0  0
    0.3136    2.0689    1.4181 C   0  0  0  0  0  0  0  0  0  0  0  0
    0.7778    3.0382    1.6856 H   0  0  0  0  0  0  0  0  0  0  0  0
    0.0580    1.5319    2.3527 H   0  0  0  0  0  0  0  0  0  0  0  0
    1.8151    1.5416   -0.5142 C   0  0  0  0  0  0  0  0  0  0  0  0
    1.6389   -0.0507    1.2010 C   0  0  0  0  0  0  0  0  0  0  0  0
    2.4635   -0.7201    0.1108 C   0  0  1  0  0  0  0  0  0  0  0  0
    1.9014   -1.6100   -0.2356 H   0  0  0  0  0  0  0  0  0  0  0  0
    2.5918    0.3335   -1.0124 C   0  0  2  0  0  0  0  0  0  0  0  0
    2.1011   -0.0091   -1.9448 H   0  0  0  0  0  0  0  0  0  0  0  0
    4.1017    0.6570   -1.2708 C   0  0  1  0  0  0  0  0  0  0  0  0
    4.2064    1.4176   -2.0662 H   0  0  0  0  0  0  0  0  0  0  0  0
    4.6661    1.1195    0.0609 C   0  0  0  0  0  0  0  0  0  0  0  0
    5.2040    2.3809    0.3439 C   0  0  0  0  0  0  0  0  0  0  0  0
    5.2804    3.1373   -0.4526 H   0  0  0  0  0  0  0  0  0  0  0  0
    5.6387    2.6699    1.6502 C   0  0  0  0  0  0  0  0  0  0  0  0
    6.0708    3.6566    1.8767 H   0  0  0  0  0  0  0  0  0  0  0  0
    5.5220    1.7072    2.6656 C   0  0  0  0  0  0  0  0  0  0  0  0
    5.8614    1.9418    3.6860 H   0  0  0  0  0  0  0  0  0  0  0  0
    4.9697    0.4439    2.3868 C   0  0  0  0  0  0  0  0  0  0  0  0
    4.8603   -0.3081    3.1834 H   0  0  0  0  0  0  0  0  0  0  0  0
    4.5496    0.1490    1.0843 C   0  0  0  0  0  0  0  0  0  0  0  0
    3.8851   -1.1350    0.6193 C   0  0  2  0  0  0  0  0  0  0  0  0
    3.8080   -1.8898    1.4233 H   0  0  0  0  0  0  0  0  0  0  0  0
    4.6346   -1.6380   -0.6006 C   0  0  0  0  0  0  0  0  0  0  0  0
    4.7532   -0.6677   -1.6234 C   0  0  0  0  0  0  0  0  0  0  0  0
    5.4083   -0.9813   -2.8194 C   0  0  0  0  0  0  0  0  0  0  0  0
    5.4963   -0.2251   -3.6152 H   0  0  0  0  0  0  0  0  0  0  0  0
    5.9516   -2.2674   -2.9942 C   0  0  0  0  0  0  0  0  0  0  0  0
    6.4708   -2.5186   -3.9315 H   0  0  0  0  0  0  0  0  0  0  0  0
    5.8338   -3.2301   -1.9796 C   0  0  0  0  0  0  0  0  0  0  0  0
    6.2610   -4.2342   -2.1234 H   0  0  0  0  0  0  0  0  0  0  0  0
    5.1715   -2.9181   -0.7781 C   0  0  0  0  0  0  0  0  0  0  0  0
    5.0754   -3.6722    0.0187 H   0  0  0  0  0  0  0  0  0  0  0  0
  1 30  2  0  0  0  0
  3  7  1  0  0  0  0
  4  3  1  0  0  0  0
  4  5  1  0  0  0  0
  5  9  1  0  0  0  0
  5  8  1  0  0  0  0
  6 31  1  0  0  0  0
  6 27  1  0  0  0  0
  7  8  2  0  0  0  0
  8 27  1  0  0  0  0
  9 10  1  0  0  0  0
 11  9  1  0  0  0  0
 12  9  1  0  0  0  0
 13 16  1  0  0  0  0
 13  3  1  0  0  0  0
 14 13  1  0  0  0  0
 15 13  1  0  0  0  0
 16 25  1  0  0  0  0
 17 19  1  0  0  0  0
 17 16  2  0  0  0  0
 18 17  1  0  0  0  0
 19 21  2  0  0  0  0
 20 19  1  0  0  0  0
 21 22  1  0  0  0  0
 21 23  1  0  0  0  0
 23 24  1  0  0  0  0
 25 23  2  0  0  0  0
 25 26  1  0  0  0  0
 27 28  1  0  0  0  0
 27 29  1  0  0  0  0
 30  6  1  0  0  0  0
 31  2  2  0  0  0  0
 32 33  1  6  0  0  0
 32 48  1  0  0  0  0
 32 31  1  0  0  0  0
 34 35  1  6  0  0  0
 34 30  1  0  0  0  0
 34 32  1  0  0  0  0
 36 37  1  6  0  0  0
 36 34  1  0  0  0  0
 36 38  1  0  0  0  0
 38 39  2  0  0  0  0
 38 47  1  0  0  0  0
 39 41  1  0  0  0  0
 40 39  1  0  0  0  0
 41 42  1  0  0  0  0
 41 43  2  0  0  0  0
 43 44  1  0  0  0  0
 45 43  1  0  0  0  0
 45 46  1  0  0  0  0
 47 45  2  0  0  0  0
 48 47  1  0  0  0  0
 48 49  1  1  0  0  0
 50 48  1  0  0  0  0
 51 36  1  0  0  0  0
 51 50  2  0  0  0  0
 52 51  1  0  0  0  0
 53 52  1  0  0  0  0
 54 52  2  0  0  0  0
 54 56  1  0  0  0  0
 55 54  1  0  0  0  0
 56 58  2  0  0  0  0
 57 56  1  0  0  0  0
 58 50  1  0  0  0  0
 58 59  1  0  0  0  0
M  END
