1
 OpenBabel05122313113D

  6  5  0  0  0  0  0  0  0  0999 V2000
   -0.4690   -0.6368    1.9591 C   0  0  0  0  0  2  0  0  0  0  0  0
   -0.3355   -1.9530    2.6686 C   0  0  0  0  0  0  0  0  0  0  0  0
   -0.4917    0.1676    2.7216 H   0  0  0  0  0  0  0  0  0  0  0  0
    0.6396   -1.9749    3.2096 H   0  0  0  0  0  0  0  0  0  0  0  0
   -0.3502   -2.8478    2.0159 H   0  0  0  0  0  0  0  0  0  0  0  0
   -1.1149   -2.0932    3.4528 H   0  0  0  0  0  0  0  0  0  0  0  0
  1  2  1  0  0  0  0
  1  3  1  0  0  0  0
  2  4  1  0  0  0  0
  2  6  1  0  0  0  0
  5  2  1  0  0  0  0
M  END
