1
 OpenBabel05122313113D

 14 14  0  0  0  0  0  0  0  0999 V2000
    1.5392   -0.7674   -0.9953 C   0  0  0  0  0  3  0  0  0  0  0  0
    2.3270   -1.9897   -0.5653 C   0  0  0  0  0  0  0  0  0  0  0  0
    3.0104   -0.6376   -0.5811 C   0  0  0  0  0  0  0  0  0  0  0  0
    3.4150   -0.0503    0.7582 C   0  0  0  0  0  0  0  0  0  0  0  0
    4.0321   -0.3973   -1.6819 C   0  0  0  0  0  0  0  0  0  0  0  0
    1.4277   -0.7006   -2.0974 H   0  0  0  0  0  0  0  0  0  0  0  0
    2.6293   -2.7380   -1.3201 H   0  0  0  0  0  0  0  0  0  0  0  0
    2.1014   -2.4103    0.4276 H   0  0  0  0  0  0  0  0  0  0  0  0
    2.6334   -0.2131    1.5242 H   0  0  0  0  0  0  0  0  0  0  0  0
    4.3564   -0.5193    1.1174 H   0  0  0  0  0  0  0  0  0  0  0  0
    3.6062    1.0409    0.6796 H   0  0  0  0  0  0  0  0  0  0  0  0
    3.7036   -0.8344   -2.6471 H   0  0  0  0  0  0  0  0  0  0  0  0
    4.2127    0.6871   -1.8448 H   0  0  0  0  0  0  0  0  0  0  0  0
    5.0113   -0.8563   -1.4216 H   0  0  0  0  0  0  0  0  0  0  0  0
  1  3  1  0  0  0  0
  1  2  1  0  0  0  0
  2  8  1  0  0  0  0
  3  2  1  0  0  0  0
  3  4  1  0  0  0  0
  4 10  1  0  0  0  0
  4  9  1  0  0  0  0
  5 14  1  0  0  0  0
  5  3  1  0  0  0  0
  6  1  1  0  0  0  0
  7  2  1  0  0  0  0
 11  4  1  0  0  0  0
 12  5  1  0  0  0  0
 13  5  1  0  0  0  0
M  END
