9
 OpenBabel05122313113D

 26 27  0  0  0  0  0  0  0  0999 V2000
   -3.2915    0.6433    2.0476 O   0  0  0  0  0  0  0  0  0  0  0  0
   -0.9771    0.0373    2.9607 O   0  0  0  0  0  0  0  0  0  0  0  0
   -3.0883    0.9123   -0.7783 O   0  0  0  0  0  0  0  0  0  0  0  0
   -4.0608   -0.5944   -2.0224 O   0  0  0  0  0  0  0  0  0  0  0  0
   -1.1603    1.6588    0.9357 N   0  0  0  0  0  0  0  0  0  0  0  0
   -1.8373    2.8405    0.9234 N   0  0  0  0  0  0  0  0  0  0  0  0
   -0.1598    2.8064   -0.5402 N   0  0  0  0  0  0  0  0  0  0  0  0
   -3.2648   -0.2438   -1.1559 N   0  0  0  0  0  0  0  0  0  0  0  0
   -0.1261    1.5669    0.0513 C   0  0  0  0  0  2  0  0  0  0  0  0
   -1.1958    3.5328    0.0167 C   0  0  0  0  0  0  0  0  0  0  0  0
   -1.4450    4.5601   -0.2739 H   0  0  0  0  0  0  0  0  0  0  0  0
   -1.7314   -1.1081    0.6842 C   0  0  0  0  0  0  0  0  0  0  0  0
   -2.4489   -1.2994   -0.5168 C   0  0  0  0  0  0  0  0  0  0  0  0
   -2.3579   -2.5145   -1.2057 C   0  0  0  0  0  0  0  0  0  0  0  0
   -2.9085   -2.6008   -2.1511 H   0  0  0  0  0  0  0  0  0  0  0  0
   -1.5856   -3.5608   -0.6925 C   0  0  0  0  0  0  0  0  0  0  0  0
   -1.5194   -4.5102   -1.2435 H   0  0  0  0  0  0  0  0  0  0  0  0
   -0.9019   -3.3929    0.5199 C   0  0  0  0  0  0  0  0  0  0  0  0
   -0.3017   -4.2136    0.9390 H   0  0  0  0  0  0  0  0  0  0  0  0
   -0.9735   -2.1723    1.2034 C   0  0  0  0  0  0  0  0  0  0  0  0
   -0.4493   -2.0199    2.1561 H   0  0  0  0  0  0  0  0  0  0  0  0
    0.7111    3.2190   -1.6326 C   0  0  0  0  0  0  0  0  0  0  0  0
    1.7402    3.3926   -1.2630 H   0  0  0  0  0  0  0  0  0  0  0  0
    0.3137    4.1505   -2.0762 H   0  0  0  0  0  0  0  0  0  0  0  0
    0.7269    2.4082   -2.3871 H   0  0  0  0  0  0  0  0  0  0  0  0
   -1.8882    0.2928    1.8316 S   0  0  0  0  0  0  0  0  0  0  0  0
  4  8  2  0  0  0  0
  5 26  1  0  0  0  0
  6  5  1  0  0  0  0
  7 10  1  0  0  0  0
  7  9  1  0  0  0  0
  8  3  2  0  0  0  0
  8 13  1  0  0  0  0
  9  5  1  0  0  0  0
 10  6  2  0  0  0  0
 11 10  1  0  0  0  0
 12 20  1  0  0  0  0
 12 26  1  0  0  0  0
 13 12  2  0  0  0  0
 14 16  2  0  0  0  0
 14 13  1  0  0  0  0
 15 14  1  0  0  0  0
 16 18  1  0  0  0  0
 17 16  1  0  0  0  0
 18 19  1  0  0  0  0
 18 20  2  0  0  0  0
 20 21  1  0  0  0  0
 22 23  1  0  0  0  0
 22  7  1  0  0  0  0
 24 22  1  0  0  0  0
 25 22  1  0  0  0  0
 26  1  2  0  0  0  0
 26  2  2  0  0  0  0
M  END
