5
 OpenBabel05122313113D

 55 59  0  0  1  0  0  0  0  0999 V2000
    0.7709   -0.8827   -0.4500 N   0  0  0  0  0  0  0  0  0  0  0  0
    0.2467    1.2393   -0.4712 N   0  0  0  0  0  0  0  0  0  0  0  0
   -1.2820    4.3412    0.5798 O   0  0  0  0  0  0  0  0  0  0  0  0
   -0.5125    2.6237    1.8669 O   0  0  0  0  0  0  0  0  0  0  0  0
   -0.2868   -0.0187   -0.5045 C   0  0  0  0  0  2  0  0  0  0  0  0
    1.6409    1.1859   -0.3897 C   0  0  0  0  0  0  0  0  0  0  0  0
    1.9842   -0.1733   -0.3837 C   0  0  0  0  0  0  0  0  0  0  0  0
    3.3565   -0.6089   -0.3091 C   0  0  0  0  0  0  0  0  0  0  0  0
    3.7629   -1.9695   -0.2506 C   0  0  0  0  0  0  0  0  0  0  0  0
    3.0096   -2.7617   -0.2198 H   0  0  0  0  0  0  0  0  0  0  0  0
    5.1058   -2.3253   -0.1978 C   0  0  0  0  0  0  0  0  0  0  0  0
    5.3839   -3.3886   -0.1490 H   0  0  0  0  0  0  0  0  0  0  0  0
    6.0986   -1.3251   -0.1996 C   0  0  0  0  0  0  0  0  0  0  0  0
    7.1640   -1.5969   -0.1626 H   0  0  0  0  0  0  0  0  0  0  0  0
    5.7257    0.0143   -0.2385 C   0  0  0  0  0  0  0  0  0  0  0  0
    6.5175    0.7743   -0.2279 H   0  0  0  0  0  0  0  0  0  0  0  0
    4.3659    0.4214   -0.2859 C   0  0  0  0  0  0  0  0  0  0  0  0
    3.9987    1.8400   -0.2966 C   0  0  0  0  0  0  0  0  0  0  0  0
    4.9821    2.8636   -0.2572 C   0  0  0  0  0  0  0  0  0  0  0  0
    6.0453    2.5923   -0.2310 H   0  0  0  0  0  0  0  0  0  0  0  0
    4.6467    4.2137   -0.2465 C   0  0  0  0  0  0  0  0  0  0  0  0
    5.4400    4.9752   -0.2150 H   0  0  0  0  0  0  0  0  0  0  0  0
    3.2910    4.5982   -0.2710 C   0  0  0  0  0  0  0  0  0  0  0  0
    3.0136    5.6627   -0.2559 H   0  0  0  0  0  0  0  0  0  0  0  0
    2.2961    3.6275   -0.3133 C   0  0  0  0  0  0  0  0  0  0  0  0
    1.2536    3.9609   -0.3296 H   0  0  0  0  0  0  0  0  0  0  0  0
    2.6158    2.2414   -0.3336 C   0  0  0  0  0  0  0  0  0  0  0  0
    0.4945   -2.3196   -0.6376 C   0  0  2  0  0  0  0  0  0  0  0  0
   -0.6268   -2.3208   -0.6564 H   0  0  0  0  0  0  0  0  0  0  0  0
    0.9023   -3.1582    0.5644 C   0  0  0  0  0  0  0  0  0  0  0  0
    1.0559   -2.5697    1.8381 C   0  0  0  0  0  0  0  0  0  0  0  0
    0.9479   -1.4808    1.9507 H   0  0  0  0  0  0  0  0  0  0  0  0
    1.3686   -3.3520    2.9585 C   0  0  0  0  0  0  0  0  0  0  0  0
    1.4913   -2.8685    3.9395 H   0  0  0  0  0  0  0  0  0  0  0  0
    1.5301   -4.7403    2.8310 C   0  0  0  0  0  0  0  0  0  0  0  0
    1.7783   -5.3541    3.7099 H   0  0  0  0  0  0  0  0  0  0  0  0
    1.3753   -5.3372    1.5709 C   0  0  0  0  0  0  0  0  0  0  0  0
    1.4993   -6.4249    1.4560 H   0  0  0  0  0  0  0  0  0  0  0  0
    1.0655   -4.5541    0.4485 C   0  0  0  0  0  0  0  0  0  0  0  0
    0.9528   -5.0403   -0.5311 H   0  0  0  0  0  0  0  0  0  0  0  0
    0.9351   -2.7863   -2.0276 C   0  0  0  0  0  0  0  0  0  0  0  0
    0.4673   -2.1192   -2.7783 H   0  0  0  0  0  0  0  0  0  0  0  0
    0.5677   -3.8117   -2.2226 H   0  0  0  0  0  0  0  0  0  0  0  0
    2.0345   -2.7775   -2.1574 H   0  0  0  0  0  0  0  0  0  0  0  0
   -0.6241    2.3888   -0.5495 C   0  0  0  0  0  0  0  0  0  0  0  0
   -1.6298    1.9697   -0.8123 H   0  0  0  0  0  0  0  0  0  0  0  0
   -0.3350    3.0760   -1.3664 H   0  0  0  0  0  0  0  0  0  0  0  0
   -0.7691    3.1064    0.7807 C   0  0  0  0  0  0  0  0  0  0  0  0
   -1.6358    5.0875    1.7711 C   0  0  0  0  0  0  0  0  0  0  0  0
   -1.6072    6.1472    1.4526 H   0  0  0  0  0  0  0  0  0  0  0  0
   -0.8571    4.9142    2.5410 H   0  0  0  0  0  0  0  0  0  0  0  0
   -3.0106    4.6868    2.2791 C   0  0  0  0  0  0  0  0  0  0  0  0
   -3.7785    4.8125    1.4900 H   0  0  0  0  0  0  0  0  0  0  0  0
   -3.2951    5.3194    3.1437 H   0  0  0  0  0  0  0  0  0  0  0  0
   -3.0116    3.6307    2.6136 H   0  0  0  0  0  0  0  0  0  0  0  0
  1  7  1  0  0  0  0
  2  6  1  0  0  0  0
  3 48  1  0  0  0  0
  3 49  1  0  0  0  0
  5  2  1  0  0  0  0
  5  1  1  0  0  0  0
  6  7  2  0  0  0  0
  6 27  1  0  0  0  0
  7  8  1  0  0  0  0
  8 17  2  0  0  0  0
  8  9  1  0  0  0  0
  9 10  1  0  0  0  0
  9 11  2  0  0  0  0
 11 12  1  0  0  0  0
 13 11  1  0  0  0  0
 13 14  1  0  0  0  0
 15 16  1  0  0  0  0
 15 13  2  0  0  0  0
 17 15  1  0  0  0  0
 18 17  1  0  0  0  0
 18 19  1  0  0  0  0
 19 21  2  0  0  0  0
 19 20  1  0  0  0  0
 21 22  1  0  0  0  0
 23 24  1  0  0  0  0
 23 21  1  0  0  0  0
 25 23  2  0  0  0  0
 26 25  1  0  0  0  0
 27 25  1  0  0  0  0
 27 18  2  0  0  0  0
 28 29  1  6  0  0  0
 28  1  1  0  0  0  0
 28 30  1  0  0  0  0
 30 31  1  0  0  0  0
 31 32  1  0  0  0  0
 31 33  2  0  0  0  0
 33 34  1  0  0  0  0
 35 33  1  0  0  0  0
 35 36  1  0  0  0  0
 37 35  2  0  0  0  0
 38 37  1  0  0  0  0
 39 30  2  0  0  0  0
 39 37  1  0  0  0  0
 40 39  1  0  0  0  0
 41 28  1  0  0  0  0
 42 41  1  0  0  0  0
 43 41  1  0  0  0  0
 44 41  1  0  0  0  0
 45  2  1  0  0  0  0
 45 48  1  0  0  0  0
 46 45  1  0  0  0  0
 47 45  1  0  0  0  0
 48  4  2  0  0  0  0
 49 52  1  0  0  0  0
 49 51  1  0  0  0  0
 50 49  1  0  0  0  0
 52 55  1  0  0  0  0
 52 54  1  0  0  0  0
 53 52  1  0  0  0  0
M  END
