3
 OpenBabel05122313113D

 55 59  0  0  1  0  0  0  0  0999 V2000
    0.6376    0.7487    0.2932 N   0  0  0  0  0  0  0  0  0  0  0  0
    0.4908   -1.3300   -0.3847 N   0  0  0  0  0  0  0  0  0  0  0  0
   -0.2543   -0.2399   -0.0326 C   0  0  0  0  0  2  0  0  0  0  0  0
    1.8577   -1.0486   -0.2692 C   0  0  0  0  0  0  0  0  0  0  0  0
    1.9566    0.2831    0.1624 C   0  0  0  0  0  0  0  0  0  0  0  0
    3.2309    0.9270    0.3677 C   0  0  0  0  0  0  0  0  0  0  0  0
    3.3906    2.2884    0.7446 C   0  0  0  0  0  0  0  0  0  0  0  0
    2.5121    2.9300    0.8555 H   0  0  0  0  0  0  0  0  0  0  0  0
    4.6487    2.8442    0.9480 C   0  0  0  0  0  0  0  0  0  0  0  0
    4.7341    3.9026    1.2359 H   0  0  0  0  0  0  0  0  0  0  0  0
    5.8025    2.0533    0.7779 C   0  0  0  0  0  0  0  0  0  0  0  0
    6.8021    2.4824    0.9421 H   0  0  0  0  0  0  0  0  0  0  0  0
    5.6736    0.7244    0.3885 C   0  0  0  0  0  0  0  0  0  0  0  0
    6.5877    0.1331    0.2497 H   0  0  0  0  0  0  0  0  0  0  0  0
    4.4083    0.1200    0.1625 C   0  0  0  0  0  0  0  0  0  0  0  0
    4.3008   -1.2710   -0.2852 C   0  0  0  0  0  0  0  0  0  0  0  0
    5.4540   -2.0687   -0.5117 C   0  0  0  0  0  0  0  0  0  0  0  0
    6.4496   -1.6449   -0.3281 H   0  0  0  0  0  0  0  0  0  0  0  0
    5.3713   -3.3805   -0.9672 C   0  0  0  0  0  0  0  0  0  0  0  0
    6.2900   -3.9636   -1.1294 H   0  0  0  0  0  0  0  0  0  0  0  0
    4.1089   -3.9525   -1.2227 C   0  0  0  0  0  0  0  0  0  0  0  0
    4.0288   -4.9865   -1.5904 H   0  0  0  0  0  0  0  0  0  0  0  0
    2.9547   -3.2074   -1.0074 C   0  0  0  0  0  0  0  0  0  0  0  0
    1.9880   -3.6760   -1.2126 H   0  0  0  0  0  0  0  0  0  0  0  0
    3.0131   -1.8686   -0.5299 C   0  0  0  0  0  0  0  0  0  0  0  0
    0.1060    2.0040    0.8553 C   0  0  2  0  0  0  0  0  0  0  0  0
   -0.9991    1.8251    0.7689 H   0  0  0  0  0  0  0  0  0  0  0  0
    0.4084    3.2192   -0.0089 C   0  0  0  0  0  0  0  0  0  0  0  0
    0.8201    3.0817   -1.3518 C   0  0  0  0  0  0  0  0  0  0  0  0
    1.0002    2.0783   -1.7645 H   0  0  0  0  0  0  0  0  0  0  0  0
    1.0299    4.2075   -2.1605 C   0  0  0  0  0  0  0  0  0  0  0  0
    1.3597    4.0730   -3.2018 H   0  0  0  0  0  0  0  0  0  0  0  0
    0.8270    5.4972   -1.6462 C   0  0  0  0  0  0  0  0  0  0  0  0
    0.9931    6.3813   -2.2799 H   0  0  0  0  0  0  0  0  0  0  0  0
    0.4136    5.6476   -0.3138 C   0  0  0  0  0  0  0  0  0  0  0  0
    0.2501    6.6529    0.1036 H   0  0  0  0  0  0  0  0  0  0  0  0
    0.2078    4.5208    0.4964 C   0  0  0  0  0  0  0  0  0  0  0  0
   -0.1147    4.6605    1.5382 H   0  0  0  0  0  0  0  0  0  0  0  0
    0.3982    2.1043    2.3557 C   0  0  0  0  0  0  0  0  0  0  0  0
    0.0260    1.1821    2.8437 H   0  0  0  0  0  0  0  0  0  0  0  0
   -0.1533    2.9554    2.7981 H   0  0  0  0  0  0  0  0  0  0  0  0
    1.4747    2.2313    2.5789 H   0  0  0  0  0  0  0  0  0  0  0  0
   -0.1683   -2.6119   -0.6411 C   0  0  0  0  0  0  0  0  0  0  0  0
    0.2384   -3.0490   -1.5741 H   0  0  0  0  0  0  0  0  0  0  0  0
   -1.2305   -2.3450   -0.8344 H   0  0  0  0  0  0  0  0  0  0  0  0
   -0.1017   -3.5646    0.5552 C   0  0  0  0  0  0  0  0  0  0  0  0
   -0.5779   -3.0412    1.4116 H   0  0  0  0  0  0  0  0  0  0  0  0
    0.9569   -3.7496    0.8399 H   0  0  0  0  0  0  0  0  0  0  0  0
   -0.8116   -4.8983    0.2919 C   0  0  0  0  0  0  0  0  0  0  0  0
   -0.8801   -5.4497    1.2532 H   0  0  0  0  0  0  0  0  0  0  0  0
   -1.8639   -4.6962   -0.0091 H   0  0  0  0  0  0  0  0  0  0  0  0
   -0.1333   -5.7905   -0.7524 C   0  0  0  0  0  0  0  0  0  0  0  0
   -0.1034   -5.3183   -1.7568 H   0  0  0  0  0  0  0  0  0  0  0  0
   -0.6652   -6.7563   -0.8685 H   0  0  0  0  0  0  0  0  0  0  0  0
    0.9137   -6.0212   -0.4631 H   0  0  0  0  0  0  0  0  0  0  0  0
  1 26  1  0  0  0  0
  2  4  1  0  0  0  0
  2  3  1  0  0  0  0
  3  1  1  0  0  0  0
  4  5  1  0  0  0  0
  5  1  1  0  0  0  0
  5  6  2  0  0  0  0
  6  7  1  0  0  0  0
  7  8  1  0  0  0  0
  7  9  2  0  0  0  0
  9 10  1  0  0  0  0
 11 12  1  0  0  0  0
 11  9  1  0  0  0  0
 13 11  2  0  0  0  0
 14 13  1  0  0  0  0
 15  6  1  0  0  0  0
 15 13  1  0  0  0  0
 16 15  2  0  0  0  0
 17 18  1  0  0  0  0
 17 16  1  0  0  0  0
 19 17  2  0  0  0  0
 20 19  1  0  0  0  0
 21 23  2  0  0  0  0
 21 19  1  0  0  0  0
 22 21  1  0  0  0  0
 23 25  1  0  0  0  0
 24 23  1  0  0  0  0
 25 16  1  0  0  0  0
 25  4  2  0  0  0  0
 26 27  1  6  0  0  0
 26 39  1  0  0  0  0
 28 37  1  0  0  0  0
 28 26  1  0  0  0  0
 29 28  2  0  0  0  0
 30 29  1  0  0  0  0
 31 33  2  0  0  0  0
 31 29  1  0  0  0  0
 32 31  1  0  0  0  0
 33 35  1  0  0  0  0
 34 33  1  0  0  0  0
 35 36  1  0  0  0  0
 35 37  2  0  0  0  0
 37 38  1  0  0  0  0
 39 42  1  0  0  0  0
 39 41  1  0  0  0  0
 39 40  1  0  0  0  0
 43  2  1  0  0  0  0
 43 46  1  0  0  0  0
 44 43  1  0  0  0  0
 45 43  1  0  0  0  0
 46 48  1  0  0  0  0
 46 47  1  0  0  0  0
 49 46  1  0  0  0  0
 49 50  1  0  0  0  0
 51 49  1  0  0  0  0
 52 55  1  0  0  0  0
 52 49  1  0  0  0  0
 53 52  1  0  0  0  0
 54 52  1  0  0  0  0
M  END
