1
 OpenBabel05122313113D

 16 16  0  0  0  0  0  0  0  0999 V2000
   -0.6650    0.6181    0.5310 C   0  0  0  0  0  2  0  0  0  0  0  0
   -3.1417    0.4971   -0.0109 N   0  0  0  0  0  0  0  0  0  0  0  0
   -1.9015   -0.1005    0.2902 C   0  0  0  0  0  0  0  0  0  0  0  0
   -2.1381   -1.4844    0.4046 C   0  0  0  0  0  0  0  0  0  0  0  0
   -1.3772   -2.2259    0.6650 H   0  0  0  0  0  0  0  0  0  0  0  0
   -3.5152   -1.7181    0.1942 C   0  0  0  0  0  0  0  0  0  0  0  0
   -4.0340   -2.6821    0.2257 H   0  0  0  0  0  0  0  0  0  0  0  0
   -4.0989   -0.4830   -0.0883 C   0  0  0  0  0  0  0  0  0  0  0  0
   -5.1247   -0.2335   -0.3849 H   0  0  0  0  0  0  0  0  0  0  0  0
   -3.3779    1.8706   -0.4319 C   0  0  0  0  0  0  0  0  0  0  0  0
   -2.4774    2.2819   -0.9241 H   0  0  0  0  0  0  0  0  0  0  0  0
   -3.6568    2.5321    0.4170 H   0  0  0  0  0  0  0  0  0  0  0  0
   -4.2092    1.8887   -1.1616 H   0  0  0  0  0  0  0  0  0  0  0  0
   -0.8147    1.8260    1.0954 N   0  0  0  0  0  0  0  0  0  0  0  0
    0.0067    2.4038    1.2814 H   0  0  0  0  0  0  0  0  0  0  0  0
   -1.7069    2.1643    1.4696 H   0  0  0  0  0  0  0  0  0  0  0  0
  1 14  1  0  0  0  0
  2  3  1  0  0  0  0
  3  4  2  0  0  0  0
  3  1  1  0  0  0  0
  4  5  1  0  0  0  0
  6  7  1  0  0  0  0
  6  4  1  0  0  0  0
  8  2  1  0  0  0  0
  8  6  2  0  0  0  0
  9  8  1  0  0  0  0
 10  2  1  0  0  0  0
 10 12  1  0  0  0  0
 11 10  1  0  0  0  0
 13 10  1  0  0  0  0
 14 15  1  0  0  0  0
 14 16  1  0  0  0  0
M  END
