3
 OpenBabel05122313113D

 34 33  0  0  0  0  0  0  0  0999 V2000
   -1.3896   -0.0658   -0.1108 P   0  0  0  0  0  0  0  0  0  0  0  0
   -0.4082   -0.4904   -2.0147 P   0  0  0  0  0  2  0  0  0  0  0  0
    0.5544   -1.7911   -1.1901 C   0  0  0  0  0  3  0  0  0  0  0  0
    0.0010   -2.5654   -0.6267 H   0  0  0  0  0  0  0  0  0  0  0  0
    1.6394   -2.4250   -2.0402 C   0  0  0  0  0  0  0  0  0  0  0  0
    2.1129   -1.6992   -2.7315 H   0  0  0  0  0  0  0  0  0  0  0  0
    2.4455   -2.8757   -1.4235 H   0  0  0  0  0  0  0  0  0  0  0  0
    1.2251   -3.2490   -2.6633 H   0  0  0  0  0  0  0  0  0  0  0  0
   -2.4895   -1.4916    0.6208 C   0  0  0  0  0  0  0  0  0  0  0  0
   -1.5791   -2.2906    1.5728 C   0  0  0  0  0  0  0  0  0  0  0  0
   -0.6509   -2.6414    1.0870 H   0  0  0  0  0  0  0  0  0  0  0  0
   -2.1338   -3.1751    1.9542 H   0  0  0  0  0  0  0  0  0  0  0  0
   -1.2777   -1.6741    2.4415 H   0  0  0  0  0  0  0  0  0  0  0  0
   -3.0109   -2.3829   -0.5184 C   0  0  0  0  0  0  0  0  0  0  0  0
   -2.1820   -2.8151   -1.1109 H   0  0  0  0  0  0  0  0  0  0  0  0
   -3.6599   -1.8180   -1.2159 H   0  0  0  0  0  0  0  0  0  0  0  0
   -3.6104   -3.2193   -0.0958 H   0  0  0  0  0  0  0  0  0  0  0  0
   -3.6699   -0.9725    1.4579 C   0  0  0  0  0  0  0  0  0  0  0  0
   -3.3351   -0.3227    2.2904 H   0  0  0  0  0  0  0  0  0  0  0  0
   -4.1890   -1.8447    1.9115 H   0  0  0  0  0  0  0  0  0  0  0  0
   -4.4211   -0.4229    0.8606 H   0  0  0  0  0  0  0  0  0  0  0  0
   -2.4412    1.4954   -0.4906 C   0  0  0  0  0  0  0  0  0  0  0  0
   -2.9213    2.1920    0.7963 C   0  0  0  0  0  0  0  0  0  0  0  0
   -2.0766    2.4187    1.4740 H   0  0  0  0  0  0  0  0  0  0  0  0
   -3.6652    1.5990    1.3562 H   0  0  0  0  0  0  0  0  0  0  0  0
   -3.4029    3.1573    0.5287 H   0  0  0  0  0  0  0  0  0  0  0  0
   -3.6320    1.1383   -1.3980 C   0  0  0  0  0  0  0  0  0  0  0  0
   -4.3581    0.4617   -0.9084 H   0  0  0  0  0  0  0  0  0  0  0  0
   -3.2880    0.6556   -2.3342 H   0  0  0  0  0  0  0  0  0  0  0  0
   -4.1795    2.0668   -1.6704 H   0  0  0  0  0  0  0  0  0  0  0  0
   -1.5177    2.4638   -1.2505 C   0  0  0  0  0  0  0  0  0  0  0  0
   -0.6081    2.6979   -0.6690 H   0  0  0  0  0  0  0  0  0  0  0  0
   -2.0687    3.4087   -1.4455 H   0  0  0  0  0  0  0  0  0  0  0  0
   -1.1899    2.0487   -2.2239 H   0  0  0  0  0  0  0  0  0  0  0  0
  1  9  1  0  0  0  0
  2  3  1  0  0  0  0
  2  1  1  0  0  0  0
  3  4  1  0  0  0  0
  5  7  1  0  0  0  0
  5  3  1  0  0  0  0
  6  5  1  0  0  0  0
  8  5  1  0  0  0  0
  9 18  1  0  0  0  0
  9 10  1  0  0  0  0
 10 12  1  0  0  0  0
 10 13  1  0  0  0  0
 11 10  1  0  0  0  0
 14 17  1  0  0  0  0
 14  9  1  0  0  0  0
 15 14  1  0  0  0  0
 16 14  1  0  0  0  0
 18 20  1  0  0  0  0
 18 19  1  0  0  0  0
 21 18  1  0  0  0  0
 22  1  1  0  0  0  0
 22 23  1  0  0  0  0
 23 25  1  0  0  0  0
 23 24  1  0  0  0  0
 26 23  1  0  0  0  0
 27 28  1  0  0  0  0
 27 22  1  0  0  0  0
 29 27  1  0  0  0  0
 30 27  1  0  0  0  0
 31 32  1  0  0  0  0
 31 22  1  0  0  0  0
 33 31  1  0  0  0  0
 34 31  1  0  0  0  0
M  END
