52
 OpenBabel05122313113D

 66 67  0  0  0  0  0  0  0  0999 V2000
    1.3864   -0.0009    0.4360 N   0  0  0  0  0  0  0  0  0  0  0  0
    0.5656   -0.0723   -0.1984 H   0  0  0  0  0  0  0  0  0  0  0  0
   -0.1320    0.3567    2.1954 N   0  0  0  0  0  0  0  0  0  0  0  0
    1.0830    0.1823    1.7517 C   0  0  0  0  0  0  0  0  0  0  0  0
    2.2141    0.2107    2.7443 C   0  0  0  0  0  0  0  0  0  0  0  0
    2.7408    1.1852    2.6948 H   0  0  0  0  0  0  0  0  0  0  0  0
    2.9655   -0.5737    2.5318 H   0  0  0  0  0  0  0  0  0  0  0  0
    1.8017    0.0858    3.7603 H   0  0  0  0  0  0  0  0  0  0  0  0
    2.6711   -0.3293   -0.0960 C   0  0  0  0  0  0  0  0  0  0  0  0
    3.6357    0.6921   -0.2950 C   0  0  0  0  0  0  0  0  0  0  0  0
    3.3266    2.1600   -0.0264 C   0  0  0  0  0  0  0  0  0  0  0  0
    2.3576    2.2007    0.5113 H   0  0  0  0  0  0  0  0  0  0  0  0
    4.3846    2.8351    0.8605 C   0  0  0  0  0  0  0  0  0  0  0  0
    4.5428    2.2833    1.8093 H   0  0  0  0  0  0  0  0  0  0  0  0
    4.0773    3.8708    1.1115 H   0  0  0  0  0  0  0  0  0  0  0  0
    5.3665    2.9007    0.3481 H   0  0  0  0  0  0  0  0  0  0  0  0
    3.1349    2.9231   -1.3499 C   0  0  0  0  0  0  0  0  0  0  0  0
    2.8605    3.9806   -1.1533 H   0  0  0  0  0  0  0  0  0  0  0  0
    2.3349    2.4670   -1.9637 H   0  0  0  0  0  0  0  0  0  0  0  0
    4.0701    2.9218   -1.9474 H   0  0  0  0  0  0  0  0  0  0  0  0
    4.8918    0.3214   -0.8123 C   0  0  0  0  0  0  0  0  0  0  0  0
    5.6569    1.0956   -0.9754 H   0  0  0  0  0  0  0  0  0  0  0  0
    5.1760   -1.0090   -1.1392 C   0  0  0  0  0  0  0  0  0  0  0  0
    6.1632   -1.2764   -1.5460 H   0  0  0  0  0  0  0  0  0  0  0  0
    4.2002   -1.9994   -0.9642 C   0  0  0  0  0  0  0  0  0  0  0  0
    4.4272   -3.0396   -1.2397 H   0  0  0  0  0  0  0  0  0  0  0  0
    2.9334   -1.6830   -0.4427 C   0  0  0  0  0  0  0  0  0  0  0  0
    1.8785   -2.7614   -0.2204 C   0  0  0  0  0  0  0  0  0  0  0  0
    0.8884   -2.2668   -0.2774 H   0  0  0  0  0  0  0  0  0  0  0  0
    2.0005   -3.3658    1.1912 C   0  0  0  0  0  0  0  0  0  0  0  0
    1.2060   -4.1212    1.3623 H   0  0  0  0  0  0  0  0  0  0  0  0
    1.9088   -2.5947    1.9815 H   0  0  0  0  0  0  0  0  0  0  0  0
    2.9827   -3.8656    1.3226 H   0  0  0  0  0  0  0  0  0  0  0  0
    1.8899   -3.8583   -1.2918 C   0  0  0  0  0  0  0  0  0  0  0  0
    1.8421   -3.4280   -2.3111 H   0  0  0  0  0  0  0  0  0  0  0  0
    1.0086   -4.5176   -1.1671 H   0  0  0  0  0  0  0  0  0  0  0  0
    2.7958   -4.4961   -1.2252 H   0  0  0  0  0  0  0  0  0  0  0  0
   -1.2873    0.4199    1.4428 C   0  0  0  0  0  0  0  0  0  0  0  0
   -2.1619   -0.7300    1.3729 C   0  0  0  0  0  0  0  0  0  0  0  0
   -1.7042   -2.0348    2.0091 C   0  0  0  0  0  0  0  0  0  0  0  0
   -0.6134   -2.1095    1.8207 H   0  0  0  0  0  0  0  0  0  0  0  0
   -1.9045   -1.9413    3.5347 C   0  0  0  0  0  0  0  0  0  0  0  0
   -1.5079   -2.8490    4.0332 H   0  0  0  0  0  0  0  0  0  0  0  0
   -2.9831   -1.8600    3.7829 H   0  0  0  0  0  0  0  0  0  0  0  0
   -1.3799   -1.0584    3.9477 H   0  0  0  0  0  0  0  0  0  0  0  0
   -2.3685   -3.2897    1.4356 C   0  0  0  0  0  0  0  0  0  0  0  0
   -1.9073   -4.1929    1.8832 H   0  0  0  0  0  0  0  0  0  0  0  0
   -2.2520   -3.3579    0.3373 H   0  0  0  0  0  0  0  0  0  0  0  0
   -3.4514   -3.3331    1.6748 H   0  0  0  0  0  0  0  0  0  0  0  0
   -3.4927   -0.5726    0.8707 C   0  0  0  0  0  3  0  0  0  0  0  0
   -4.1697   -1.4359    0.8454 H   0  0  0  0  0  0  0  0  0  0  0  0
   -3.9281    0.6771    0.3636 C   0  0  0  0  0  3  0  0  0  0  0  0
   -4.9448    0.7785   -0.0413 H   0  0  0  0  0  0  0  0  0  0  0  0
   -3.0543    1.8032    0.3712 C   0  0  0  0  0  0  0  0  0  0  0  0
   -3.4007    2.7620   -0.0347 H   0  0  0  0  0  0  0  0  0  0  0  0
   -1.7164    1.6768    0.8446 C   0  0  0  0  0  0  0  0  0  0  0  0
   -0.7823    2.8773    0.9093 C   0  0  0  0  0  0  0  0  0  0  0  0
    0.2434    2.4842    0.7504 H   0  0  0  0  0  0  0  0  0  0  0  0
   -0.8367    3.4883    2.3228 C   0  0  0  0  0  0  0  0  0  0  0  0
   -0.1008    4.3125    2.4172 H   0  0  0  0  0  0  0  0  0  0  0  0
   -0.6090    2.7263    3.0930 H   0  0  0  0  0  0  0  0  0  0  0  0
   -1.8441    3.9059    2.5288 H   0  0  0  0  0  0  0  0  0  0  0  0
   -1.0402    3.9323   -0.1707 C   0  0  0  0  0  0  0  0  0  0  0  0
   -0.2470    4.7056   -0.1359 H   0  0  0  0  0  0  0  0  0  0  0  0
   -2.0065    4.4560   -0.0179 H   0  0  0  0  0  0  0  0  0  0  0  0
   -1.0401    3.4891   -1.1852 H   0  0  0  0  0  0  0  0  0  0  0  0
  1  4  1  0  0  0  0
  2  1  1  0  0  0  0
  4  3  2  0  0  0  0
  4  5  1  0  0  0  0
  5  8  1  0  0  0  0
  6  5  1  0  0  0  0
  7  5  1  0  0  0  0
  9  1  1  0  0  0  0
 10  9  1  0  0  0  0
 10 11  1  0  0  0  0
 11 12  1  0  0  0  0
 11 13  1  0  0  0  0
 13 15  1  0  0  0  0
 13 14  1  0  0  0  0
 16 13  1  0  0  0  0
 17 18  1  0  0  0  0
 17 11  1  0  0  0  0
 19 17  1  0  0  0  0
 20 17  1  0  0  0  0
 21 10  2  0  0  0  0
 22 21  1  0  0  0  0
 23 25  2  0  0  0  0
 23 21  1  0  0  0  0
 24 23  1  0  0  0  0
 25 27  1  0  0  0  0
 26 25  1  0  0  0  0
 27 28  1  0  0  0  0
 27  9  2  0  0  0  0
 28 30  1  0  0  0  0
 29 28  1  0  0  0  0
 30 33  1  0  0  0  0
 30 31  1  0  0  0  0
 30 32  1  0  0  0  0
 34 37  1  0  0  0  0
 34 36  1  0  0  0  0
 34 28  1  0  0  0  0
 35 34  1  0  0  0  0
 38  3  1  0  0  0  0
 39 38  2  0  0  0  0
 39 40  1  0  0  0  0
 40 42  1  0  0  0  0
 41 40  1  0  0  0  0
 42 44  1  0  0  0  0
 42 45  1  0  0  0  0
 42 43  1  0  0  0  0
 46 49  1  0  0  0  0
 46 47  1  0  0  0  0
 46 40  1  0  0  0  0
 48 46  1  0  0  0  0
 50 39  1  0  0  0  0
 51 50  1  0  0  0  0
 52 54  1  0  0  0  0
 52 50  1  0  0  0  0
 53 52  1  0  0  0  0
 54 56  2  0  0  0  0
 55 54  1  0  0  0  0
 56 57  1  0  0  0  0
 56 38  1  0  0  0  0
 57 59  1  0  0  0  0
 58 57  1  0  0  0  0
 59 60  1  0  0  0  0
 59 62  1  0  0  0  0
 59 61  1  0  0  0  0
 63 64  1  0  0  0  0
 63 65  1  0  0  0  0
 63 57  1  0  0  0  0
 66 63  1  0  0  0  0
M  END
