14
 OpenBabel05122313113D

 63 64  0  0  1  0  0  0  0  0999 V2000
    0.8081   -1.8435   -2.0554 Si  0  0  0  0  0  0  0  0  0  0  0  0
   -0.7932   -1.6785   -1.0798 C   0  0  0  0  0  0  0  0  0  0  0  0
   -1.0489   -1.9921    0.3011 C   0  0  1  0  0  3  0  0  0  0  0  0
   -2.2151   -1.2689    0.6997 C   0  0  0  0  0  0  0  0  0  0  0  0
   -2.6860   -1.3409    1.6851 H   0  0  0  0  0  0  0  0  0  0  0  0
   -2.6975   -0.4924   -0.3890 C   0  0  0  0  0  0  0  0  0  0  0  0
   -1.7968   -0.7275   -1.4737 C   0  0  0  0  0  0  0  0  0  0  0  0
   -1.8883   -0.3007   -2.4797 H   0  0  0  0  0  0  0  0  0  0  0  0
    1.7041   -0.4080   -1.2179 C   0  0  2  0  0  3  0  0  0  0  0  0
    2.3024   -0.3797    0.0874 C   0  0  0  0  0  0  0  0  0  0  0  0
    2.3863    0.9909    0.4917 C   0  0  0  0  0  0  0  0  0  0  0  0
    2.8433    1.3538    1.4187 H   0  0  0  0  0  0  0  0  0  0  0  0
    1.8767    1.8292   -0.5372 C   0  0  2  0  0  3  0  0  0  0  0  0
    1.4293    0.9602   -1.5780 C   0  0  0  0  0  3  0  0  0  0  0  0
    0.9625    1.2915   -2.5162 H   0  0  0  0  0  0  0  0  0  0  0  0
    1.6659   -3.5251   -1.9652 C   0  0  0  0  0  0  0  0  0  0  0  0
    2.6816   -3.4600   -2.4067 H   0  0  0  0  0  0  0  0  0  0  0  0
    1.0853   -4.2656   -2.5532 H   0  0  0  0  0  0  0  0  0  0  0  0
    1.7646   -3.9171   -0.9356 H   0  0  0  0  0  0  0  0  0  0  0  0
    0.4996   -1.4248   -3.8719 C   0  0  0  0  0  0  0  0  0  0  0  0
    1.4550   -1.4201   -4.4352 H   0  0  0  0  0  0  0  0  0  0  0  0
    0.0289   -0.4299   -3.9980 H   0  0  0  0  0  0  0  0  0  0  0  0
   -0.1704   -2.1777   -4.3351 H   0  0  0  0  0  0  0  0  0  0  0  0
   -0.3548   -3.0447    1.1417 C   0  0  0  0  0  0  0  0  0  0  0  0
    0.7330   -2.9920    0.9277 H   0  0  0  0  0  0  0  0  0  0  0  0
   -0.8344   -4.4487    0.7268 C   0  0  0  0  0  0  0  0  0  0  0  0
   -0.6695   -4.6262   -0.3539 H   0  0  0  0  0  0  0  0  0  0  0  0
   -1.9212   -4.5594    0.9222 H   0  0  0  0  0  0  0  0  0  0  0  0
   -0.3006   -5.2386    1.2956 H   0  0  0  0  0  0  0  0  0  0  0  0
   -0.5403   -2.8237    2.6482 C   0  0  0  0  0  0  0  0  0  0  0  0
    0.0787   -3.5351    3.2307 H   0  0  0  0  0  0  0  0  0  0  0  0
   -1.5962   -2.9834    2.9501 H   0  0  0  0  0  0  0  0  0  0  0  0
   -0.2589   -1.7918    2.9371 H   0  0  0  0  0  0  0  0  0  0  0  0
   -3.9324    0.3881   -0.3947 C   0  0  0  0  0  0  0  0  0  0  0  0
   -3.5873    1.4254   -0.1793 H   0  0  0  0  0  0  0  0  0  0  0  0
   -4.6143    0.4033   -1.7710 C   0  0  0  0  0  0  0  0  0  0  0  0
   -5.5022    1.0677   -1.7603 H   0  0  0  0  0  0  0  0  0  0  0  0
   -4.9509   -0.6144   -2.0591 H   0  0  0  0  0  0  0  0  0  0  0  0
   -3.9360    0.7723   -2.5648 H   0  0  0  0  0  0  0  0  0  0  0  0
   -4.9300   -0.0074    0.7030 C   0  0  0  0  0  0  0  0  0  0  0  0
   -5.8230    0.6492    0.6729 H   0  0  0  0  0  0  0  0  0  0  0  0
   -4.4915    0.0808    1.7169 H   0  0  0  0  0  0  0  0  0  0  0  0
   -5.2714   -1.0558    0.5747 H   0  0  0  0  0  0  0  0  0  0  0  0
    3.0085   -1.5457    0.7517 C   0  0  0  0  0  0  0  0  0  0  0  0
    2.4790   -2.4745    0.4557 H   0  0  0  0  0  0  0  0  0  0  0  0
    4.4379   -1.6523    0.1835 C   0  0  0  0  0  0  0  0  0  0  0  0
    4.4213   -1.7391   -0.9209 H   0  0  0  0  0  0  0  0  0  0  0  0
    4.9670   -2.5366    0.5963 H   0  0  0  0  0  0  0  0  0  0  0  0
    5.0283   -0.7482    0.4396 H   0  0  0  0  0  0  0  0  0  0  0  0
    3.0307   -1.4938    2.2820 C   0  0  0  0  0  0  0  0  0  0  0  0
    3.5525   -2.3816    2.6934 H   0  0  0  0  0  0  0  0  0  0  0  0
    2.0096   -1.4703    2.7063 H   0  0  0  0  0  0  0  0  0  0  0  0
    3.5738   -0.5985    2.6497 H   0  0  0  0  0  0  0  0  0  0  0  0
    1.9083    3.3402   -0.5767 C   0  0  0  0  0  0  0  0  0  0  0  0
    0.9340    3.6778   -0.9880 H   0  0  0  0  0  0  0  0  0  0  0  0
    2.0773    3.9610    0.8143 C   0  0  0  0  0  0  0  0  0  0  0  0
    1.9824    5.0644    0.7672 H   0  0  0  0  0  0  0  0  0  0  0  0
    3.0790    3.7340    1.2357 H   0  0  0  0  0  0  0  0  0  0  0  0
    1.3156    3.5796    1.5221 H   0  0  0  0  0  0  0  0  0  0  0  0
    3.0129    3.8219   -1.5362 C   0  0  0  0  0  0  0  0  0  0  0  0
    3.0159    4.9289   -1.6138 H   0  0  0  0  0  0  0  0  0  0  0  0
    2.8738    3.4064   -2.5542 H   0  0  0  0  0  0  0  0  0  0  0  0
    4.0128    3.5010   -1.1766 H   0  0  0  0  0  0  0  0  0  0  0  0
  1 16  1  0  0  0  0
  1  2  1  0  0  0  0
  2  3  1  0  0  0  0
  3  4  1  0  0  0  0
  3 24  1  6  0  0  0
  4  5  1  0  0  0  0
  6  4  2  0  0  0  0
  7  2  2  0  0  0  0
  7  6  1  0  0  0  0
  8  7  1  0  0  0  0
  9  1  1  1  0  0  0
  9 10  1  0  0  0  0
 10 11  2  0  0  0  0
 10 44  1  0  0  0  0
 11 12  1  0  0  0  0
 13 54  1  6  0  0  0
 13 11  1  0  0  0  0
 14  9  1  0  0  0  0
 14 13  1  0  0  0  0
 15 14  1  0  0  0  0
 16 19  1  0  0  0  0
 17 16  1  0  0  0  0
 18 16  1  0  0  0  0
 20  1  1  0  0  0  0
 21 20  1  0  0  0  0
 22 20  1  0  0  0  0
 23 20  1  0  0  0  0
 24 30  1  0  0  0  0
 25 24  1  0  0  0  0
 26 28  1  0  0  0  0
 26 24  1  0  0  0  0
 26 29  1  0  0  0  0
 27 26  1  0  0  0  0
 30 33  1  0  0  0  0
 30 32  1  0  0  0  0
 30 31  1  0  0  0  0
 34  6  1  0  0  0  0
 34 35  1  0  0  0  0
 34 40  1  0  0  0  0
 36 37  1  0  0  0  0
 36 34  1  0  0  0  0
 38 36  1  0  0  0  0
 39 36  1  0  0  0  0
 40 42  1  0  0  0  0
 41 40  1  0  0  0  0
 43 40  1  0  0  0  0
 44 50  1  0  0  0  0
 45 44  1  0  0  0  0
 46 49  1  0  0  0  0
 46 48  1  0  0  0  0
 46 44  1  0  0  0  0
 47 46  1  0  0  0  0
 50 53  1  0  0  0  0
 50 51  1  0  0  0  0
 50 52  1  0  0  0  0
 54 56  1  0  0  0  0
 55 54  1  0  0  0  0
 56 58  1  0  0  0  0
 56 59  1  0  0  0  0
 57 56  1  0  0  0  0
 60 63  1  0  0  0  0
 60 54  1  0  0  0  0
 61 60  1  0  0  0  0
 62 60  1  0  0  0  0
M  END
