5
 OpenBabel05122313113D

 34 34  0  0  1  0  0  0  0  0999 V2000
   -6.0409    0.0242    0.5248 O   0  0  0  0  0  0  0  0  0  0  0  0
   -4.8605   -1.2295   -0.9428 O   0  0  0  0  0  0  0  0  0  0  0  0
   -0.5909    1.8259    0.6790 C   0  0  0  0  0  3  0  0  0  0  0  0
   -0.1796    2.1354    1.6588 H   0  0  0  0  0  0  0  0  0  0  0  0
   -1.2820    0.5525    0.6706 C   0  0  0  0  0  3  0  0  0  0  0  0
   -1.1841   -0.0192    1.6109 H   0  0  0  0  0  0  0  0  0  0  0  0
   -2.6271    0.3285   -0.0226 C   0  0  2  0  0  0  0  0  0  0  0  0
   -2.5043   -0.3782   -0.8675 H   0  0  0  0  0  0  0  0  0  0  0  0
   -3.2180    1.6282   -0.6101 C   0  0  0  0  0  0  0  0  0  0  0  0
   -3.9524    1.3718   -1.4018 H   0  0  0  0  0  0  0  0  0  0  0  0
   -3.7951    2.1639    0.1726 H   0  0  0  0  0  0  0  0  0  0  0  0
   -2.1555    2.5694   -1.1788 C   0  0  0  0  0  0  0  0  0  0  0  0
   -2.6459    3.4669   -1.6129 H   0  0  0  0  0  0  0  0  0  0  0  0
   -1.6189    2.0762   -2.0124 H   0  0  0  0  0  0  0  0  0  0  0  0
   -1.1534    3.0206   -0.0989 C   0  0  1  0  0  0  0  0  0  0  0  0
   -0.3271    3.5506   -0.6253 H   0  0  0  0  0  0  0  0  0  0  0  0
   -1.7866    4.0339    0.8726 C   0  0  0  0  0  0  0  0  0  0  0  0
   -2.6102    3.5726    1.4548 H   0  0  0  0  0  0  0  0  0  0  0  0
   -2.1988    4.9119    0.3326 H   0  0  0  0  0  0  0  0  0  0  0  0
   -1.0441    4.4084    1.6084 H   0  0  0  0  0  0  0  0  0  0  0  0
   -3.6545   -0.3829    0.9435 C   0  0  0  0  0  0  0  0  0  0  0  0
   -3.1842   -1.8122    1.2892 C   0  0  0  0  0  0  0  0  0  0  0  0
   -3.0709   -2.4305    0.3805 H   0  0  0  0  0  0  0  0  0  0  0  0
   -3.9121   -2.3091    1.9625 H   0  0  0  0  0  0  0  0  0  0  0  0
   -2.2060   -1.7873    1.8091 H   0  0  0  0  0  0  0  0  0  0  0  0
   -3.8876    0.4104    2.2375 C   0  0  0  0  0  0  0  0  0  0  0  0
   -2.9466    0.4868    2.8156 H   0  0  0  0  0  0  0  0  0  0  0  0
   -4.6482   -0.0913    2.8668 H   0  0  0  0  0  0  0  0  0  0  0  0
   -4.2591    1.4328    2.0355 H   0  0  0  0  0  0  0  0  0  0  0  0
   -4.9863   -0.4854    0.1941 C   0  0  0  0  0  0  0  0  0  0  0  0
   -6.0463   -1.3396   -1.7334 C   0  0  0  0  0  0  0  0  0  0  0  0
   -6.3876   -0.3410   -2.0755 H   0  0  0  0  0  0  0  0  0  0  0  0
   -6.8704   -1.8021   -1.1530 H   0  0  0  0  0  0  0  0  0  0  0  0
   -5.7822   -1.9719   -2.6002 H   0  0  0  0  0  0  0  0  0  0  0  0
  2 30  1  0  0  0  0
  3  4  1  0  0  0  0
  5  3  1  0  0  0  0
  5  6  1  0  0  0  0
  7  8  1  6  0  0  0
  7  5  1  0  0  0  0
  7 21  1  0  0  0  0
  9  7  1  0  0  0  0
  9 11  1  0  0  0  0
 10  9  1  0  0  0  0
 12  9  1  0  0  0  0
 12 15  1  0  0  0  0
 13 12  1  0  0  0  0
 14 12  1  0  0  0  0
 15 16  1  6  0  0  0
 15  3  1  0  0  0  0
 15 17  1  0  0  0  0
 17 18  1  0  0  0  0
 17 20  1  0  0  0  0
 19 17  1  0  0  0  0
 21 22  1  0  0  0  0
 21 26  1  0  0  0  0
 22 25  1  0  0  0  0
 22 24  1  0  0  0  0
 23 22  1  0  0  0  0
 26 27  1  0  0  0  0
 26 28  1  0  0  0  0
 29 26  1  0  0  0  0
 30  1  2  0  0  0  0
 30 21  1  0  0  0  0
 31 33  1  0  0  0  0
 31  2  1  0  0  0  0
 32 31  1  0  0  0  0
 34 31  1  0  0  0  0
M  END
