1
 OpenBabel05122313113D

 21 20  0  0  0  0  0  0  0  0999 V2000
   -2.0203    0.4916   -0.0001 C   0  0  0  0  0  3  0  0  0  0  0  0
   -3.3914    0.7458   -0.0004 C   0  0  0  0  0  0  0  0  0  0  0  0
   -4.6240    0.8280   -0.0007 C   0  0  0  0  0  0  0  0  0  0  0  0
   -6.0652    0.9754   -0.0010 C   0  0  0  0  0  0  0  0  0  0  0  0
   -6.5870   -0.0037    0.0019 H   0  0  0  0  0  0  0  0  0  0  0  0
   -6.3998    1.5429   -0.8953 H   0  0  0  0  0  0  0  0  0  0  0  0
   -6.3999    1.5485    0.8896 H   0  0  0  0  0  0  0  0  0  0  0  0
   -0.9590    1.2152    0.0001 N   0  0  0  0  0  0  0  0  0  0  0  0
   -0.8328    2.6978    0.0002 C   0  0  0  0  0  0  0  0  0  0  0  0
   -1.5155    3.2408    1.2679 C   0  0  0  0  0  0  0  0  0  0  0  0
   -1.0406    2.8272    2.1801 H   0  0  0  0  0  0  0  0  0  0  0  0
   -2.5925    2.9847    1.2844 H   0  0  0  0  0  0  0  0  0  0  0  0
   -1.4230    4.3440    1.3038 H   0  0  0  0  0  0  0  0  0  0  0  0
    0.6569    3.0500    0.0015 C   0  0  0  0  0  0  0  0  0  0  0  0
    1.1581    2.6409    0.9006 H   0  0  0  0  0  0  0  0  0  0  0  0
    0.7912    4.1491    0.0018 H   0  0  0  0  0  0  0  0  0  0  0  0
    1.1597    2.6412   -0.8969 H   0  0  0  0  0  0  0  0  0  0  0  0
   -1.5134    3.2406   -1.2687 C   0  0  0  0  0  0  0  0  0  0  0  0
   -1.4209    4.3438   -1.3046 H   0  0  0  0  0  0  0  0  0  0  0  0
   -2.5904    2.9844   -1.2869 H   0  0  0  0  0  0  0  0  0  0  0  0
   -1.0369    2.8268   -2.1800 H   0  0  0  0  0  0  0  0  0  0  0  0
  1  8  2  0  0  0  0
  2  1  1  0  0  0  0
  3  2  3  0  0  0  0
  4  3  1  0  0  0  0
  4  5  1  0  0  0  0
  4  7  1  0  0  0  0
  6  4  1  0  0  0  0
  8  9  1  0  0  0  0
  9 14  1  0  0  0  0
  9 10  1  0  0  0  0
 10 12  1  0  0  0  0
 10 13  1  0  0  0  0
 10 11  1  0  0  0  0
 14 16  1  0  0  0  0
 14 15  1  0  0  0  0
 17 14  1  0  0  0  0
 18  9  1  0  0  0  0
 19 18  1  0  0  0  0
 20 18  1  0  0  0  0
 21 18  1  0  0  0  0
M  END
