5
 OpenBabel05122313113D

 67 68  0  0  0  0  0  0  0  0999 V2000
   -4.5399    0.3337   -0.2675 N   0  0  0  0  0  0  0  0  0  0  0  0
   -1.0394    1.7179   -0.4793 N   0  0  0  0  0  0  0  0  0  0  0  0
    0.9566    1.8172    0.4348 N   0  0  0  0  0  0  0  0  0  0  0  0
    4.5102    0.5748    0.2189 N   0  0  0  0  0  0  0  0  0  0  0  0
   -0.0085    0.9614   -0.0071 C   0  0  0  0  0  2  0  0  0  0  0  0
   -0.7441    3.0732   -0.3347 C   0  0  0  0  0  0  0  0  0  0  0  0
   -1.4629    4.2347   -0.6497 C   0  0  0  0  0  0  0  0  0  0  0  0
   -2.4699    4.1858   -1.0875 H   0  0  0  0  0  0  0  0  0  0  0  0
   -0.8409    5.4633   -0.3810 C   0  0  0  0  0  0  0  0  0  0  0  0
   -1.3733    6.3968   -0.6151 H   0  0  0  0  0  0  0  0  0  0  0  0
    0.4534    5.5277    0.1823 C   0  0  0  0  0  0  0  0  0  0  0  0
    0.9080    6.5103    0.3763 H   0  0  0  0  0  0  0  0  0  0  0  0
    1.1730    4.3662    0.5011 C   0  0  0  0  0  0  0  0  0  0  0  0
    2.1799    4.4190    0.9387 H   0  0  0  0  0  0  0  0  0  0  0  0
    0.5522    3.1374    0.2367 C   0  0  0  0  0  0  0  0  0  0  0  0
   -2.3026    1.1619   -0.9536 C   0  0  0  0  0  0  0  0  0  0  0  0
   -2.0686    0.2162   -1.4775 H   0  0  0  0  0  0  0  0  0  0  0  0
   -2.7328    1.8596   -1.6973 H   0  0  0  0  0  0  0  0  0  0  0  0
   -3.2881    0.9159    0.2039 C   0  0  0  0  0  0  0  0  0  0  0  0
   -2.7868    0.2659    0.9548 H   0  0  0  0  0  0  0  0  0  0  0  0
   -3.4626    1.8804    0.7285 H   0  0  0  0  0  0  0  0  0  0  0  0
   -5.7084    1.2213   -0.1389 C   0  0  0  0  0  0  0  0  0  0  0  0
   -6.5516    0.6891   -0.6224 H   0  0  0  0  0  0  0  0  0  0  0  0
   -5.5151    2.5134   -0.9423 C   0  0  0  0  0  0  0  0  0  0  0  0
   -4.7241    3.1605   -0.5085 H   0  0  0  0  0  0  0  0  0  0  0  0
   -6.4507    3.1076   -0.9475 H   0  0  0  0  0  0  0  0  0  0  0  0
   -5.2414    2.2816   -1.9909 H   0  0  0  0  0  0  0  0  0  0  0  0
   -6.1204    1.5168    1.3162 C   0  0  0  0  0  0  0  0  0  0  0  0
   -6.3069    0.5810    1.8811 H   0  0  0  0  0  0  0  0  0  0  0  0
   -7.0483    2.1233    1.3523 H   0  0  0  0  0  0  0  0  0  0  0  0
   -5.3330    2.0828    1.8563 H   0  0  0  0  0  0  0  0  0  0  0  0
   -4.7212   -1.0747    0.1374 C   0  0  0  0  0  0  0  0  0  0  0  0
   -4.6832   -1.1631    1.2578 H   0  0  0  0  0  0  0  0  0  0  0  0
   -6.0643   -1.6499   -0.3250 C   0  0  0  0  0  0  0  0  0  0  0  0
   -6.9358   -1.1926    0.1825 H   0  0  0  0  0  0  0  0  0  0  0  0
   -6.0925   -2.7353   -0.1060 H   0  0  0  0  0  0  0  0  0  0  0  0
   -6.1867   -1.5206   -1.4207 H   0  0  0  0  0  0  0  0  0  0  0  0
   -3.5845   -1.9423   -0.4209 C   0  0  0  0  0  0  0  0  0  0  0  0
   -3.5929   -1.9256   -1.5305 H   0  0  0  0  0  0  0  0  0  0  0  0
   -3.7034   -2.9921   -0.0848 H   0  0  0  0  0  0  0  0  0  0  0  0
   -2.5843   -1.6077   -0.0794 H   0  0  0  0  0  0  0  0  0  0  0  0
    2.2618    1.3817    0.9237 C   0  0  0  0  0  0  0  0  0  0  0  0
    2.0976    0.4808    1.5444 H   0  0  0  0  0  0  0  0  0  0  0  0
    2.6700    2.1728    1.5809 H   0  0  0  0  0  0  0  0  0  0  0  0
    3.2170    1.0656   -0.2417 C   0  0  0  0  0  0  0  0  0  0  0  0
    2.7055    0.3260   -0.8936 H   0  0  0  0  0  0  0  0  0  0  0  0
    3.3312    1.9736   -0.8757 H   0  0  0  0  0  0  0  0  0  0  0  0
    4.7412   -0.8550   -0.0704 C   0  0  0  0  0  0  0  0  0  0  0  0
    5.7263   -1.0992    0.3736 H   0  0  0  0  0  0  0  0  0  0  0  0
    4.8036   -1.1936   -1.5724 C   0  0  0  0  0  0  0  0  0  0  0  0
    3.8153   -1.0618   -2.0605 H   0  0  0  0  0  0  0  0  0  0  0  0
    5.1058   -2.2506   -1.7217 H   0  0  0  0  0  0  0  0  0  0  0  0
    5.5403   -0.5563   -2.1034 H   0  0  0  0  0  0  0  0  0  0  0  0
    3.7143   -1.7301    0.6567 C   0  0  0  0  0  0  0  0  0  0  0  0
    3.7151   -1.5191    1.7444 H   0  0  0  0  0  0  0  0  0  0  0  0
    3.9458   -2.8041    0.5075 H   0  0  0  0  0  0  0  0  0  0  0  0
    2.6836   -1.5646    0.2768 H   0  0  0  0  0  0  0  0  0  0  0  0
    5.6196    1.5077   -0.0391 C   0  0  0  0  0  0  0  0  0  0  0  0
    5.6775    1.7547   -1.1358 H   0  0  0  0  0  0  0  0  0  0  0  0
    5.3868    2.8299    0.7089 C   0  0  0  0  0  0  0  0  0  0  0  0
    4.4419    3.3237    0.4081 H   0  0  0  0  0  0  0  0  0  0  0  0
    6.2077    3.5441    0.4977 H   0  0  0  0  0  0  0  0  0  0  0  0
    5.3488    2.6465    1.8029 H   0  0  0  0  0  0  0  0  0  0  0  0
    6.9829    0.9400    0.3697 C   0  0  0  0  0  0  0  0  0  0  0  0
    6.9670    0.6095    1.4292 H   0  0  0  0  0  0  0  0  0  0  0  0
    7.7551    1.7279    0.2694 H   0  0  0  0  0  0  0  0  0  0  0  0
    7.3032    0.0872   -0.2590 H   0  0  0  0  0  0  0  0  0  0  0  0
  1 22  1  0  0  0  0
  1 32  1  0  0  0  0
  1 19  1  0  0  0  0
  2  6  1  0  0  0  0
  2  5  1  0  0  0  0
  3 42  1  0  0  0  0
  5  3  1  0  0  0  0
  6 15  1  0  0  0  0
  7  9  1  0  0  0  0
  7  6  2  0  0  0  0
  8  7  1  0  0  0  0
  9 11  2  0  0  0  0
 10  9  1  0  0  0  0
 11 12  1  0  0  0  0
 11 13  1  0  0  0  0
 13 14  1  0  0  0  0
 15  3  1  0  0  0  0
 15 13  2  0  0  0  0
 16  2  1  0  0  0  0
 16 19  1  0  0  0  0
 17 16  1  0  0  0  0
 18 16  1  0  0  0  0
 19 21  1  0  0  0  0
 19 20  1  0  0  0  0
 22 28  1  0  0  0  0
 23 22  1  0  0  0  0
 24 25  1  0  0  0  0
 24 22  1  0  0  0  0
 26 24  1  0  0  0  0
 27 24  1  0  0  0  0
 28 30  1  0  0  0  0
 28 31  1  0  0  0  0
 28 29  1  0  0  0  0
 32 33  1  0  0  0  0
 34 36  1  0  0  0  0
 34 32  1  0  0  0  0
 34 35  1  0  0  0  0
 37 34  1  0  0  0  0
 38 40  1  0  0  0  0
 38 41  1  0  0  0  0
 38 32  1  0  0  0  0
 39 38  1  0  0  0  0
 42 43  1  0  0  0  0
 42 44  1  0  0  0  0
 45  4  1  0  0  0  0
 45 42  1  0  0  0  0
 46 45  1  0  0  0  0
 47 45  1  0  0  0  0
 48  4  1  0  0  0  0
 48 49  1  0  0  0  0
 48 54  1  0  0  0  0
 50 48  1  0  0  0  0
 51 50  1  0  0  0  0
 52 50  1  0  0  0  0
 53 50  1  0  0  0  0
 54 55  1  0  0  0  0
 56 54  1  0  0  0  0
 57 54  1  0  0  0  0
 58  4  1  0  0  0  0
 58 64  1  0  0  0  0
 58 60  1  0  0  0  0
 59 58  1  0  0  0  0
 60 63  1  0  0  0  0
 61 60  1  0  0  0  0
 62 60  1  0  0  0  0
 64 65  1  0  0  0  0
 66 64  1  0  0  0  0
 67 64  1  0  0  0  0
M  END
