6
 OpenBabel05122313113D

 37 39  0  0  1  0  0  0  0  0999 V2000
   -4.0449    0.0589    0.1121 N   0  0  0  0  0  0  0  0  0  0  0  0
   -4.6706   -0.9163   -0.5824 N   0  0  0  0  0  0  0  0  0  0  0  0
    0.1255    3.6558   -0.0243 N   0  0  0  0  0  0  0  0  0  0  0  0
   -2.7995    0.6177   -0.4061 C   0  0  2  0  0  0  0  0  0  0  0  0
   -2.6482    0.0646   -1.3512 H   0  0  0  0  0  0  0  0  0  0  0  0
   -1.6191    0.3680    0.5638 C   0  0  0  0  0  3  0  0  0  0  0  0
   -0.5978    1.4199    0.7202 C   0  0  0  0  0  3  0  0  0  0  0  0
   -0.6223    2.5536   -0.1289 C   0  0  1  0  0  3  0  0  0  0  0  0
   -1.6426    2.7083   -1.2334 C   0  0  1  0  0  0  0  0  0  0  0  0
   -2.9737    2.1037   -0.7737 C   0  0  0  0  0  0  0  0  0  0  0  0
   -3.7410    2.1950   -1.5681 H   0  0  0  0  0  0  0  0  0  0  0  0
   -3.3394    2.6701    0.1102 H   0  0  0  0  0  0  0  0  0  0  0  0
   -0.2510    4.6868   -1.0130 C   0  0  0  0  0  0  0  0  0  0  0  0
    0.5022    4.7155   -1.8304 H   0  0  0  0  0  0  0  0  0  0  0  0
   -0.2607    5.6865   -0.5373 H   0  0  0  0  0  0  0  0  0  0  0  0
   -1.6370    4.2304   -1.4900 C   0  0  0  0  0  0  0  0  0  0  0  0
   -1.8314    4.4917   -2.5462 H   0  0  0  0  0  0  0  0  0  0  0  0
   -2.4216    4.7136   -0.8721 H   0  0  0  0  0  0  0  0  0  0  0  0
   -5.7579   -1.2205    0.1435 C   0  0  0  0  0  0  0  0  0  0  0  0
   -6.4485   -1.9964   -0.2100 H   0  0  0  0  0  0  0  0  0  0  0  0
   -5.8331   -0.4349    1.3217 C   0  0  0  0  0  0  0  0  0  0  0  0
   -6.6031   -0.4508    2.0999 H   0  0  0  0  0  0  0  0  0  0  0  0
   -4.7071    0.3839    1.2654 C   0  0  0  0  0  0  0  0  0  0  0  0
   -4.3399    1.1623    1.9436 H   0  0  0  0  0  0  0  0  0  0  0  0
    1.1165    3.9007    1.0461 C   0  0  0  0  0  0  0  0  0  0  0  0
    1.5539    2.9068    1.2752 H   0  0  0  0  0  0  0  0  0  0  0  0
    0.4105    4.4469    2.2940 C   0  0  0  0  0  0  0  0  0  0  0  0
   -0.0505    5.4345    2.0887 H   0  0  0  0  0  0  0  0  0  0  0  0
    1.1395    4.5807    3.1170 H   0  0  0  0  0  0  0  0  0  0  0  0
   -0.3842    3.7600    2.6456 H   0  0  0  0  0  0  0  0  0  0  0  0
    2.2436    4.8184    0.5716 C   0  0  0  0  0  0  0  0  0  0  0  0
    2.7253    4.4356   -0.3471 H   0  0  0  0  0  0  0  0  0  0  0  0
    3.0203    4.8732    1.3581 H   0  0  0  0  0  0  0  0  0  0  0  0
    1.8879    5.8515    0.3880 H   0  0  0  0  0  0  0  0  0  0  0  0
   -1.9577   -0.0438    1.5296 H   0  0  0  0  0  0  0  0  0  0  0  0
   -0.0846    1.5168    1.6889 H   0  0  0  0  0  0  0  0  0  0  0  0
   -1.2898    2.1619   -2.1377 H   0  0  0  0  0  0  0  0  0  0  0  0
  1 23  1  0  0  0  0
  2  1  1  0  0  0  0
  2 19  2  0  0  0  0
  3 25  1  0  0  0  0
  4  5  1  6  0  0  0
  4  1  1  0  0  0  0
  4  6  1  0  0  0  0
  6  7  1  0  0  0  0
  6 35  1  0  0  0  0
  7 36  1  0  0  0  0
  8  3  1  0  0  0  0
  8  7  1  1  0  0  0
  9 37  1  6  0  0  0
  9 10  1  0  0  0  0
  9  8  1  0  0  0  0
 10  4  1  0  0  0  0
 10 12  1  0  0  0  0
 11 10  1  0  0  0  0
 13 15  1  0  0  0  0
 13  3  1  0  0  0  0
 14 13  1  0  0  0  0
 16  9  1  0  0  0  0
 16 13  1  0  0  0  0
 16 18  1  0  0  0  0
 17 16  1  0  0  0  0
 19 21  1  0  0  0  0
 20 19  1  0  0  0  0
 21 22  1  0  0  0  0
 23 21  2  0  0  0  0
 23 24  1  0  0  0  0
 25 26  1  0  0  0  0
 25 27  1  0  0  0  0
 27 30  1  0  0  0  0
 27 29  1  0  0  0  0
 28 27  1  0  0  0  0
 31 25  1  0  0  0  0
 31 33  1  0  0  0  0
 32 31  1  0  0  0  0
 34 31  1  0  0  0  0
M  END
