8
 OpenBabel05122313113D

 31 31  0  0  1  0  0  0  0  0999 V2000
    2.0858    1.0286   -0.2947 C   0  0  0  0  0  0  0  0  0  0  0  0
    1.3621   -0.3992    1.4243 C   0  0  0  0  0  0  0  0  0  0  0  0
    1.3292    1.8211    0.6452 C   0  0  0  0  0  0  0  0  0  0  0  0
    0.9894    3.2743    0.5488 C   0  0  0  0  0  0  0  0  0  0  0  0
    1.3485    3.7135   -0.3999 H   0  0  0  0  0  0  0  0  0  0  0  0
    1.4443    3.8390    1.3890 H   0  0  0  0  0  0  0  0  0  0  0  0
   -0.1107    3.4109    0.5865 H   0  0  0  0  0  0  0  0  0  0  0  0
    0.8634    0.9392    1.7192 C   0  0  2  0  0  3  0  0  0  0  0  0
    0.1068    1.3853    2.9298 C   0  0  0  0  0  0  0  0  0  0  0  0
   -0.6469    2.1501    2.6600 H   0  0  0  0  0  0  0  0  0  0  0  0
    0.7862    1.8284    3.6901 H   0  0  0  0  0  0  0  0  0  0  0  0
   -0.4281    0.5432    3.4099 H   0  0  0  0  0  0  0  0  0  0  0  0
    2.1003   -0.3655    0.1697 C   0  0  0  0  0  0  0  0  0  0  0  0
    2.8866   -1.4802   -0.4930 C   0  0  0  0  0  0  0  0  0  0  0  0
    3.3177   -1.0343   -1.4135 H   0  0  0  0  0  0  0  0  0  0  0  0
    2.7295    1.5131   -1.5548 C   0  0  0  0  0  0  0  0  0  0  0  0
    2.4276    0.8809   -2.4133 H   0  0  0  0  0  0  0  0  0  0  0  0
    3.8356    1.4878   -1.4617 H   0  0  0  0  0  0  0  0  0  0  0  0
    2.4265    2.5507   -1.7869 H   0  0  0  0  0  0  0  0  0  0  0  0
    1.2183   -1.5667    2.3509 C   0  0  0  0  0  0  0  0  0  0  0  0
    0.3030   -1.4897    2.9670 H   0  0  0  0  0  0  0  0  0  0  0  0
    2.0822   -1.5911    3.0489 H   0  0  0  0  0  0  0  0  0  0  0  0
    1.2007   -2.5314    1.8129 H   0  0  0  0  0  0  0  0  0  0  0  0
    4.0677   -1.9240    0.3896 C   0  0  0  0  0  0  0  0  0  0  0  0
    4.6912   -1.0604    0.6977 H   0  0  0  0  0  0  0  0  0  0  0  0
    4.7183   -2.6358   -0.1578 H   0  0  0  0  0  0  0  0  0  0  0  0
    3.7207   -2.4344    1.3109 H   0  0  0  0  0  0  0  0  0  0  0  0
    2.0197   -2.6613   -0.9567 C   0  0  0  0  0  0  0  0  0  0  0  0
    1.5136   -3.1672   -0.1088 H   0  0  0  0  0  0  0  0  0  0  0  0
    2.6446   -3.4229   -1.4660 H   0  0  0  0  0  0  0  0  0  0  0  0
    1.2475   -2.3024   -1.6660 H   0  0  0  0  0  0  0  0  0  0  0  0
  1 13  1  0  0  0  0
  1  3  2  0  0  0  0
  2  8  1  0  0  0  0
  2 20  1  0  0  0  0
  3  8  1  0  0  0  0
  4  7  1  0  0  0  0
  4  3  1  0  0  0  0
  4  6  1  0  0  0  0
  5  4  1  0  0  0  0
  8  9  1  1  0  0  0
  9 12  1  0  0  0  0
  9 11  1  0  0  0  0
 10  9  1  0  0  0  0
 13  2  2  0  0  0  0
 14 13  1  0  0  0  0
 14 24  1  0  0  0  0
 15 14  1  0  0  0  0
 16 18  1  0  0  0  0
 16  1  1  0  0  0  0
 17 16  1  0  0  0  0
 19 16  1  0  0  0  0
 20 21  1  0  0  0  0
 20 22  1  0  0  0  0
 23 20  1  0  0  0  0
 24 25  1  0  0  0  0
 24 27  1  0  0  0  0
 26 24  1  0  0  0  0
 28 14  1  0  0  0  0
 28 29  1  0  0  0  0
 30 28  1  0  0  0  0
 31 28  1  0  0  0  0
M  END
