1
 OpenBabel05122313113D

 16 15  0  0  0  0  0  0  0  0999 V2000
   -1.4499    2.2223    1.5062 C   0  0  0  0  0  3  0  0  0  0  0  0
   -1.0864    2.8264    0.2571 C   0  0  0  0  0  0  0  0  0  0  0  0
    0.3527    2.9513   -0.0181 C   0  0  0  0  0  0  0  0  0  0  0  0
    1.2506    2.4980    0.9726 C   0  0  0  0  0  3  0  0  0  0  0  0
   -2.1154    3.2954   -0.7361 C   0  0  0  0  0  0  0  0  0  0  0  0
   -1.8521    3.0476   -1.7814 H   0  0  0  0  0  0  0  0  0  0  0  0
   -2.2080    4.4020   -0.6751 H   0  0  0  0  0  0  0  0  0  0  0  0
   -3.1106    2.8690   -0.5110 H   0  0  0  0  0  0  0  0  0  0  0  0
    0.8367    3.3536   -1.3860 C   0  0  0  0  0  0  0  0  0  0  0  0
    0.7804    4.4586   -1.4938 H   0  0  0  0  0  0  0  0  0  0  0  0
    0.2269    2.9055   -2.1937 H   0  0  0  0  0  0  0  0  0  0  0  0
    1.8811    3.0282   -1.5354 H   0  0  0  0  0  0  0  0  0  0  0  0
   -0.9210    2.4510    2.4484 H   0  0  0  0  0  0  0  0  0  0  0  0
    2.3032    2.3499    0.6910 H   0  0  0  0  0  0  0  0  0  0  0  0
    1.0508    2.5991    2.0504 H   0  0  0  0  0  0  0  0  0  0  0  0
   -2.5191    1.9936    1.6537 H   0  0  0  0  0  0  0  0  0  0  0  0
  1 16  1  0  0  0  0
  1 13  1  0  0  0  0
  2  1  1  0  0  0  0
  3  2  2  0  0  0  0
  3  4  1  0  0  0  0
  4 15  1  0  0  0  0
  5  7  1  0  0  0  0
  5  8  1  0  0  0  0
  5  2  1  0  0  0  0
  6  5  1  0  0  0  0
  9  3  1  0  0  0  0
 10  9  1  0  0  0  0
 11  9  1  0  0  0  0
 12  9  1  0  0  0  0
 14  4  1  0  0  0  0
M  END
