2
 OpenBabel05122313113D

 33 33  0  0  0  0  0  0  0  0999 V2000
    1.8212   -1.1014   -0.0030 N   0  0  0  0  0  2  0  0  0  0  0  0
    0.7782   -1.6680    0.0524 C   0  0  0  0  0  1  0  0  0  0  0  0
    2.9097   -0.2880   -0.2167 C   0  0  0  0  0  0  0  0  0  0  0  0
    3.8898   -0.1749    0.8080 C   0  0  0  0  0  0  0  0  0  0  0  0
    4.9676    0.6875    0.5778 C   0  0  0  0  0  0  0  0  0  0  0  0
    5.0784    1.4223   -0.6275 C   0  0  0  0  0  0  0  0  0  0  0  0
    4.0745    1.2911   -1.6162 C   0  0  0  0  0  0  0  0  0  0  0  0
    2.9730    0.4455   -1.4373 C   0  0  0  0  0  0  0  0  0  0  0  0
    6.1851    2.3007   -0.8357 C   0  0  0  0  0  0  0  0  0  0  0  0
    7.1350    3.0546   -1.0147 C   0  0  0  0  0  0  0  0  0  0  0  0
    1.8939    0.2745   -2.4922 C   0  0  0  0  0  0  0  0  0  0  0  0
    1.7085    1.4991   -3.3933 C   0  0  0  0  0  0  0  0  0  0  0  0
    2.1587   -0.9971   -3.3229 C   0  0  0  0  0  0  0  0  0  0  0  0
    3.7540   -1.0004    2.0791 C   0  0  0  0  0  0  0  0  0  0  0  0
    4.2272   -2.4463    1.8286 C   0  0  0  0  0  0  0  0  0  0  0  0
    4.4636   -0.3862    3.2903 C   0  0  0  0  0  0  0  0  0  0  0  0
    5.7465    0.8101    1.3418 H   0  0  0  0  0  0  0  0  0  0  0  0
    4.1641    1.8795   -2.5390 H   0  0  0  0  0  0  0  0  0  0  0  0
    7.9728    3.7189   -1.1742 H   0  0  0  0  0  0  0  0  0  0  0  0
    0.9270    0.1048   -1.9706 H   0  0  0  0  0  0  0  0  0  0  0  0
    0.8182    1.3513   -4.0355 H   0  0  0  0  0  0  0  0  0  0  0  0
    1.5516    2.4246   -2.8028 H   0  0  0  0  0  0  0  0  0  0  0  0
    2.5759    1.6628   -4.0663 H   0  0  0  0  0  0  0  0  0  0  0  0
    3.0827   -0.8867   -3.9275 H   0  0  0  0  0  0  0  0  0  0  0  0
    2.2738   -1.8897   -2.6772 H   0  0  0  0  0  0  0  0  0  0  0  0
    1.3021   -1.1915   -3.9970 H   0  0  0  0  0  0  0  0  0  0  0  0
    2.6678   -1.0449    2.3136 H   0  0  0  0  0  0  0  0  0  0  0  0
    5.3089   -2.4645    1.5837 H   0  0  0  0  0  0  0  0  0  0  0  0
    4.0667   -3.0704    2.7308 H   0  0  0  0  0  0  0  0  0  0  0  0
    3.6804   -2.9169    0.9880 H   0  0  0  0  0  0  0  0  0  0  0  0
    5.5669   -0.4002    3.1741 H   0  0  0  0  0  0  0  0  0  0  0  0
    4.1512    0.6636    3.4621 H   0  0  0  0  0  0  0  0  0  0  0  0
    4.2268   -0.9671    4.2036 H   0  0  0  0  0  0  0  0  0  0  0  0
  1  2  1  0  0  0  0
  3  1  1  0  0  0  0
  3  4  1  0  0  0  0
  4 14  1  0  0  0  0
  5  4  2  0  0  0  0
  5 17  1  0  0  0  0
  6  5  1  0  0  0  0
  7  8  1  0  0  0  0
  7  6  2  0  0  0  0
  8  3  2  0  0  0  0
  9  6  1  0  0  0  0
 10  9  3  0  0  0  0
 11 20  1  0  0  0  0
 11  8  1  0  0  0  0
 12 22  1  0  0  0  0
 12 11  1  0  0  0  0
 13 25  1  0  0  0  0
 13 11  1  0  0  0  0
 14 27  1  0  0  0  0
 14 16  1  0  0  0  0
 15 14  1  0  0  0  0
 15 29  1  0  0  0  0
 16 32  1  0  0  0  0
 16 33  1  0  0  0  0
 18  7  1  0  0  0  0
 19 10  1  0  0  0  0
 21 12  1  0  0  0  0
 23 12  1  0  0  0  0
 24 13  1  0  0  0  0
 26 13  1  0  0  0  0
 28 15  1  0  0  0  0
 30 15  1  0  0  0  0
 31 16  1  0  0  0  0
M  END
