2
 OpenBabel05122313113D

 30 32  0  0  0  0  0  0  0  0999 V2000
    1.2085   -1.4458   -1.3647 N   0  0  0  0  0  0  0  0  0  0  0  0
    1.9307   -0.2602   -0.9745 C   0  0  0  0  0  3  0  0  0  0  0  0
    1.2593    1.0184   -1.0573 C   0  0  0  0  0  0  0  0  0  0  0  0
   -0.1166    1.3488   -1.2076 C   0  0  0  0  0  0  0  0  0  0  0  0
   -0.8681    0.6322   -1.5790 H   0  0  0  0  0  0  0  0  0  0  0  0
   -0.5096    2.6968   -1.0349 C   0  0  0  0  0  0  0  0  0  0  0  0
   -1.5669    2.9626   -1.1726 H   0  0  0  0  0  0  0  0  0  0  0  0
    0.4315    3.6912   -0.7361 C   0  0  0  0  0  0  0  0  0  0  0  0
    0.0986    4.7330   -0.6182 H   0  0  0  0  0  0  0  0  0  0  0  0
    1.7990    3.3734   -0.5970 C   0  0  0  0  0  0  0  0  0  0  0  0
    2.5271    4.1630   -0.3554 H   0  0  0  0  0  0  0  0  0  0  0  0
    2.2211    2.0517   -0.7422 C   0  0  0  0  0  0  0  0  0  0  0  0
    3.5119    1.4117   -0.5671 C   0  0  0  0  0  0  0  0  0  0  0  0
    4.7688    1.9630   -0.2603 C   0  0  0  0  0  0  0  0  0  0  0  0
    4.8763    3.0505   -0.1267 H   0  0  0  0  0  0  0  0  0  0  0  0
    5.8762    1.1185   -0.1317 C   0  0  0  0  0  0  0  0  0  0  0  0
    6.8659    1.5382    0.1024 H   0  0  0  0  0  0  0  0  0  0  0  0
    5.7264   -0.2753   -0.2998 C   0  0  0  0  0  0  0  0  0  0  0  0
    6.6048   -0.9309   -0.1979 H   0  0  0  0  0  0  0  0  0  0  0  0
    4.4807   -0.8468   -0.5882 C   0  0  0  0  0  0  0  0  0  0  0  0
    4.4073   -1.9359   -0.6965 H   0  0  0  0  0  0  0  0  0  0  0  0
    3.3506   -0.0112   -0.7257 C   0  0  0  0  0  0  0  0  0  0  0  0
    0.6065   -1.3978   -2.7183 C   0  0  0  0  0  0  0  0  0  0  0  0
    1.4059   -1.5016   -3.4834 H   0  0  0  0  0  0  0  0  0  0  0  0
    0.0877   -0.4409   -2.8889 H   0  0  0  0  0  0  0  0  0  0  0  0
   -0.1210   -2.2234   -2.8223 H   0  0  0  0  0  0  0  0  0  0  0  0
    1.9355   -2.7215   -1.2261 C   0  0  0  0  0  0  0  0  0  0  0  0
    2.6997   -2.8130   -2.0275 H   0  0  0  0  0  0  0  0  0  0  0  0
    1.2101   -3.5511   -1.3232 H   0  0  0  0  0  0  0  0  0  0  0  0
    2.4115   -2.7902   -0.2347 H   0  0  0  0  0  0  0  0  0  0  0  0
  1 27  1  0  0  0  0
  1  2  1  0  0  0  0
  2 22  1  0  0  0  0
  3  2  1  0  0  0  0
  3 12  1  0  0  0  0
  4  3  2  0  0  0  0
  4  6  1  0  0  0  0
  5  4  1  0  0  0  0
  6  8  2  0  0  0  0
  7  6  1  0  0  0  0
  8  9  1  0  0  0  0
  8 10  1  0  0  0  0
 10 11  1  0  0  0  0
 12 10  2  0  0  0  0
 12 13  1  0  0  0  0
 13 14  1  0  0  0  0
 14 16  2  0  0  0  0
 14 15  1  0  0  0  0
 16 17  1  0  0  0  0
 18 19  1  0  0  0  0
 18 16  1  0  0  0  0
 20 18  2  0  0  0  0
 21 20  1  0  0  0  0
 22 20  1  0  0  0  0
 22 13  2  0  0  0  0
 23  1  1  0  0  0  0
 24 23  1  0  0  0  0
 25 23  1  0  0  0  0
 26 23  1  0  0  0  0
 27 30  1  0  0  0  0
 28 27  1  0  0  0  0
 29 27  1  0  0  0  0
M  END
