4
 OpenBabel05122313113D

 57 62  0  0  1  0  0  0  0  0999 V2000
    0.6770    1.5446    1.2936 N   0  0  0  0  0  0  0  0  0  0  0  0
   -1.1461    0.4053    1.3862 N   0  0  0  0  0  0  0  0  0  0  0  0
   -2.1673   -0.5142    1.1875 N   0  0  2  0  0  0  0  0  0  0  0  0
    0.0107    0.5169    0.6595 C   0  0  0  0  0  2  0  0  0  0  0  0
   -1.2390    1.3151    2.4239 C   0  0  0  0  0  0  0  0  0  0  0  0
   -2.1242    1.3730    3.0608 H   0  0  0  0  0  0  0  0  0  0  0  0
   -0.0795    2.0687    2.3838 C   0  0  0  0  0  0  0  0  0  0  0  0
    0.4050    3.1914    3.1115 C   0  0  0  0  0  0  0  0  0  0  0  0
   -0.1945    3.5833    3.9445 H   0  0  0  0  0  0  0  0  0  0  0  0
    1.6028    3.7589    2.7374 C   0  0  0  0  0  0  0  0  0  0  0  0
    1.9960    4.6343    3.2737 H   0  0  0  0  0  0  0  0  0  0  0  0
    2.3650    3.1873    1.6694 C   0  0  0  0  0  0  0  0  0  0  0  0
    3.3544    3.5920    1.4175 H   0  0  0  0  0  0  0  0  0  0  0  0
    1.9327    2.0813    0.9662 C   0  0  0  0  0  0  0  0  0  0  0  0
    2.7599    1.4220   -0.0685 C   0  0  0  0  0  0  0  0  0  0  0  0
    3.1221    0.0593    0.0590 C   0  0  0  0  0  0  0  0  0  0  0  0
    2.7642   -0.5248    0.9192 H   0  0  0  0  0  0  0  0  0  0  0  0
    3.9456   -0.5425   -0.9008 C   0  0  0  0  0  0  0  0  0  0  0  0
    4.2096   -1.6051   -0.7962 H   0  0  0  0  0  0  0  0  0  0  0  0
    4.4008    0.1952   -2.0051 C   0  0  0  0  0  0  0  0  0  0  0  0
    5.0228   -0.2896   -2.7719 H   0  0  0  0  0  0  0  0  0  0  0  0
    4.0462    1.5458   -2.1371 C   0  0  0  0  0  0  0  0  0  0  0  0
    4.3909    2.1246   -3.0069 H   0  0  0  0  0  0  0  0  0  0  0  0
    3.2357    2.1605   -1.1708 C   0  0  0  0  0  0  0  0  0  0  0  0
    2.9394    3.2144   -1.2814 H   0  0  0  0  0  0  0  0  0  0  0  0
   -2.0062   -1.8297    1.8874 C   0  0  1  0  0  0  0  0  0  0  0  0
   -2.2093   -1.6535    2.9647 H   0  0  0  0  0  0  0  0  0  0  0  0
   -3.1329   -2.6689    1.2286 C   0  0  0  0  0  0  0  0  0  0  0  0
   -3.9209   -2.9099    1.9666 H   0  0  0  0  0  0  0  0  0  0  0  0
   -2.7254   -3.6331    0.8724 H   0  0  0  0  0  0  0  0  0  0  0  0
   -3.6925   -1.8181    0.0637 C   0  0  0  0  0  0  0  0  0  0  0  0
   -3.9008   -2.4099   -0.8474 H   0  0  0  0  0  0  0  0  0  0  0  0
   -4.6314   -1.3096    0.3596 H   0  0  0  0  0  0  0  0  0  0  0  0
   -2.6115   -0.7562   -0.1972 C   0  0  1  0  0  0  0  0  0  0  0  0
   -1.7955   -1.2075   -0.8146 H   0  0  0  0  0  0  0  0  0  0  0  0
   -0.5995   -2.3933    1.7656 C   0  0  0  0  0  0  0  0  0  0  0  0
    0.3323   -2.1263    2.7888 C   0  0  0  0  0  0  0  0  0  0  0  0
   -0.0021   -1.5923    3.6933 H   0  0  0  0  0  0  0  0  0  0  0  0
    1.6721   -2.5263    2.6712 C   0  0  0  0  0  0  0  0  0  0  0  0
    2.3809   -2.3154    3.4867 H   0  0  0  0  0  0  0  0  0  0  0  0
    2.1049   -3.1947    1.5142 C   0  0  0  0  0  0  0  0  0  0  0  0
    3.1562   -3.5058    1.4150 H   0  0  0  0  0  0  0  0  0  0  0  0
    1.1917   -3.4593    0.4821 C   0  0  0  0  0  0  0  0  0  0  0  0
    1.5198   -3.9534   -0.4439 H   0  0  0  0  0  0  0  0  0  0  0  0
   -0.1502   -3.0676    0.6105 C   0  0  0  0  0  0  0  0  0  0  0  0
   -0.8416   -3.2880   -0.2157 H   0  0  0  0  0  0  0  0  0  0  0  0
   -3.0643    0.5105   -0.8850 C   0  0  0  0  0  0  0  0  0  0  0  0
   -3.9079    1.4274   -0.2274 C   0  0  0  0  0  0  0  0  0  0  0  0
   -4.2209    1.2203    0.8080 H   0  0  0  0  0  0  0  0  0  0  0  0
   -4.3329    2.5941   -0.8782 C   0  0  0  0  0  0  0  0  0  0  0  0
   -4.9903    3.3060   -0.3555 H   0  0  0  0  0  0  0  0  0  0  0  0
   -3.9187    2.8557   -2.1953 C   0  0  0  0  0  0  0  0  0  0  0  0
   -4.2508    3.7726   -2.7060 H   0  0  0  0  0  0  0  0  0  0  0  0
   -3.0757    1.9476   -2.8544 C   0  0  0  0  0  0  0  0  0  0  0  0
   -2.7398    2.1498   -3.8827 H   0  0  0  0  0  0  0  0  0  0  0  0
   -2.6457    0.7816   -2.2016 C   0  0  0  0  0  0  0  0  0  0  0  0
   -1.9638    0.0797   -2.7102 H   0  0  0  0  0  0  0  0  0  0  0  0
  1  7  1  0  0  0  0
  2  5  1  0  0  0  0
  3  2  1  6  0  0  0
  3 26  1  0  0  0  0
  4  1  1  0  0  0  0
  4  2  1  0  0  0  0
  5  6  1  0  0  0  0
  7  5  2  0  0  0  0
  7  8  1  0  0  0  0
  8  9  1  0  0  0  0
 10  8  2  0  0  0  0
 10 11  1  0  0  0  0
 12 10  1  0  0  0  0
 13 12  1  0  0  0  0
 14  1  1  0  0  0  0
 14 12  2  0  0  0  0
 15 16  1  0  0  0  0
 15 14  1  0  0  0  0
 16 17  1  0  0  0  0
 18 19  1  0  0  0  0
 18 16  2  0  0  0  0
 20 18  1  0  0  0  0
 21 20  1  0  0  0  0
 22 20  2  0  0  0  0
 22 24  1  0  0  0  0
 23 22  1  0  0  0  0
 24 15  2  0  0  0  0
 25 24  1  0  0  0  0
 26 27  1  1  0  0  0
 28 26  1  0  0  0  0
 28 29  1  0  0  0  0
 30 28  1  0  0  0  0
 31 33  1  0  0  0  0
 31 28  1  0  0  0  0
 32 31  1  0  0  0  0
 34 35  1  6  0  0  0
 34 31  1  0  0  0  0
 34  3  1  0  0  0  0
 36 26  1  0  0  0  0
 36 37  1  0  0  0  0
 37 38  1  0  0  0  0
 39 37  2  0  0  0  0
 39 40  1  0  0  0  0
 41 39  1  0  0  0  0
 42 41  1  0  0  0  0
 43 45  1  0  0  0  0
 43 41  2  0  0  0  0
 44 43  1  0  0  0  0
 45 36  2  0  0  0  0
 46 45  1  0  0  0  0
 47 48  1  0  0  0  0
 47 34  1  0  0  0  0
 48 49  1  0  0  0  0
 50 51  1  0  0  0  0
 50 48  2  0  0  0  0
 52 50  1  0  0  0  0
 53 52  1  0  0  0  0
 54 56  1  0  0  0  0
 54 52  2  0  0  0  0
 55 54  1  0  0  0  0
 56 47  2  0  0  0  0
 57 56  1  0  0  0  0
M  END
