5
 OpenBabel05122313113D

 57 62  0  0  1  0  0  0  0  0999 V2000
    5.9055   -1.0836   -0.8778 F   0  0  0  0  0  0  0  0  0  0  0  0
    0.2433    0.0761    1.9631 N   0  0  0  0  0  0  0  0  0  0  0  0
   -1.4214    0.5657    0.6719 N   0  0  0  0  0  0  0  0  0  0  0  0
   -2.1335    0.7863   -0.4704 N   0  0  1  0  0  0  0  0  0  0  0  0
   -0.1579    0.0315    0.6402 C   0  0  0  0  0  2  0  0  0  0  0  0
   -1.8533    0.8741    1.9516 C   0  0  0  0  0  0  0  0  0  0  0  0
   -2.8517    1.2582    2.1667 H   0  0  0  0  0  0  0  0  0  0  0  0
   -0.8152    0.5287    2.8019 C   0  0  0  0  0  0  0  0  0  0  0  0
   -0.6570    0.4976    4.2137 C   0  0  0  0  0  0  0  0  0  0  0  0
   -1.4918    0.8269    4.8474 H   0  0  0  0  0  0  0  0  0  0  0  0
    0.5345    0.0474    4.7425 C   0  0  0  0  0  0  0  0  0  0  0  0
    0.6797    0.0069    5.8314 H   0  0  0  0  0  0  0  0  0  0  0  0
    1.6086   -0.3217    3.8745 C   0  0  0  0  0  0  0  0  0  0  0  0
    2.5905   -0.5870    4.2889 H   0  0  0  0  0  0  0  0  0  0  0  0
    1.4885   -0.2797    2.4988 C   0  0  0  0  0  0  0  0  0  0  0  0
    2.6306   -0.5083    1.5877 C   0  0  0  0  0  0  0  0  0  0  0  0
    3.0350    0.5034    0.6836 C   0  0  0  0  0  0  0  0  0  0  0  0
    2.4726    1.4472    0.6275 H   0  0  0  0  0  0  0  0  0  0  0  0
    4.1478    0.3175   -0.1402 C   0  0  0  0  0  0  0  0  0  0  0  0
    4.4704    1.0889   -0.8531 H   0  0  0  0  0  0  0  0  0  0  0  0
    4.8465   -0.8956   -0.0750 C   0  0  0  0  0  0  0  0  0  0  0  0
    4.4722   -1.9119    0.8113 C   0  0  0  0  0  0  0  0  0  0  0  0
    5.0405   -2.8522    0.8245 H   0  0  0  0  0  0  0  0  0  0  0  0
    3.3665   -1.7088    1.6472 C   0  0  0  0  0  0  0  0  0  0  0  0
    3.0469   -2.5057    2.3348 H   0  0  0  0  0  0  0  0  0  0  0  0
   -3.5826    0.6514   -0.4598 C   0  0  1  0  0  0  0  0  0  0  0  0
   -4.0728    1.3841    0.2347 H   0  0  0  0  0  0  0  0  0  0  0  0
   -3.9077    1.0716   -1.9085 C   0  0  0  0  0  0  0  0  0  0  0  0
   -4.9622    1.3878   -2.0187 H   0  0  0  0  0  0  0  0  0  0  0  0
   -3.7350    0.2040   -2.5773 H   0  0  0  0  0  0  0  0  0  0  0  0
   -2.8924    2.1869   -2.1853 C   0  0  0  0  0  0  0  0  0  0  0  0
   -3.2142    3.1294   -1.6955 H   0  0  0  0  0  0  0  0  0  0  0  0
   -2.7508    2.3992   -3.2620 H   0  0  0  0  0  0  0  0  0  0  0  0
   -1.5915    1.6795   -1.5283 C   0  0  1  0  0  0  0  0  0  0  0  0
   -1.0158    1.0580   -2.2499 H   0  0  0  0  0  0  0  0  0  0  0  0
   -4.0322   -0.7461   -0.0796 C   0  0  0  0  0  0  0  0  0  0  0  0
   -3.2483   -1.8652   -0.4244 C   0  0  0  0  0  0  0  0  0  0  0  0
   -2.2788   -1.7129   -0.9269 H   0  0  0  0  0  0  0  0  0  0  0  0
   -3.6889   -3.1580   -0.1075 C   0  0  0  0  0  0  0  0  0  0  0  0
   -3.0653   -4.0241   -0.3761 H   0  0  0  0  0  0  0  0  0  0  0  0
   -4.9141   -3.3471    0.5530 C   0  0  0  0  0  0  0  0  0  0  0  0
   -5.2566   -4.3630    0.8025 H   0  0  0  0  0  0  0  0  0  0  0  0
   -5.6966   -2.2352    0.9024 C   0  0  0  0  0  0  0  0  0  0  0  0
   -6.6545   -2.3759    1.4260 H   0  0  0  0  0  0  0  0  0  0  0  0
   -5.2530   -0.9406    0.5917 C   0  0  0  0  0  0  0  0  0  0  0  0
   -5.8625   -0.0666    0.8746 H   0  0  0  0  0  0  0  0  0  0  0  0
   -0.6582    2.7413   -0.9851 C   0  0  0  0  0  0  0  0  0  0  0  0
   -1.0718    3.6309    0.0273 C   0  0  0  0  0  0  0  0  0  0  0  0
   -2.1024    3.5790    0.4134 H   0  0  0  0  0  0  0  0  0  0  0  0
   -0.1805    4.5739    0.5587 C   0  0  0  0  0  0  0  0  0  0  0  0
   -0.5156    5.2583    1.3529 H   0  0  0  0  0  0  0  0  0  0  0  0
    1.1383    4.6440    0.0795 C   0  0  0  0  0  0  0  0  0  0  0  0
    1.8382    5.3838    0.4966 H   0  0  0  0  0  0  0  0  0  0  0  0
    1.5587    3.7652   -0.9313 C   0  0  0  0  0  0  0  0  0  0  0  0
    2.5909    3.8121   -1.3112 H   0  0  0  0  0  0  0  0  0  0  0  0
    0.6676    2.8147   -1.4532 C   0  0  0  0  0  0  0  0  0  0  0  0
    1.0058    2.0993   -2.2191 H   0  0  0  0  0  0  0  0  0  0  0  0
  1 21  1  0  0  0  0
  2 15  1  0  0  0  0
  2  8  1  0  0  0  0
  3  6  1  0  0  0  0
  4 26  1  0  0  0  0
  4  3  1  1  0  0  0
  5  3  1  0  0  0  0
  5  2  1  0  0  0  0
  6  7  1  0  0  0  0
  6  8  2  0  0  0  0
  8  9  1  0  0  0  0
  9 11  2  0  0  0  0
  9 10  1  0  0  0  0
 11 12  1  0  0  0  0
 13 14  1  0  0  0  0
 13 11  1  0  0  0  0
 15 13  2  0  0  0  0
 16 24  1  0  0  0  0
 16 15  1  0  0  0  0
 17 16  2  0  0  0  0
 18 17  1  0  0  0  0
 19 21  2  0  0  0  0
 19 17  1  0  0  0  0
 20 19  1  0  0  0  0
 21 22  1  0  0  0  0
 22 23  1  0  0  0  0
 22 24  2  0  0  0  0
 24 25  1  0  0  0  0
 26 36  1  0  0  0  0
 26 27  1  1  0  0  0
 28 26  1  0  0  0  0
 29 28  1  0  0  0  0
 30 28  1  0  0  0  0
 31 28  1  0  0  0  0
 31 32  1  0  0  0  0
 31 34  1  0  0  0  0
 33 31  1  0  0  0  0
 34 35  1  6  0  0  0
 34 47  1  0  0  0  0
 34  4  1  0  0  0  0
 36 45  1  0  0  0  0
 37 39  1  0  0  0  0
 37 36  2  0  0  0  0
 38 37  1  0  0  0  0
 39 41  2  0  0  0  0
 40 39  1  0  0  0  0
 41 42  1  0  0  0  0
 41 43  1  0  0  0  0
 43 44  1  0  0  0  0
 45 46  1  0  0  0  0
 45 43  2  0  0  0  0
 47 48  1  0  0  0  0
 48 49  1  0  0  0  0
 48 50  2  0  0  0  0
 50 51  1  0  0  0  0
 52 53  1  0  0  0  0
 52 50  1  0  0  0  0
 54 52  2  0  0  0  0
 55 54  1  0  0  0  0
 56 47  2  0  0  0  0
 56 54  1  0  0  0  0
 57 56  1  0  0  0  0
M  END
