4
 OpenBabel05122313113D

 10 10  0  0  0  0  0  0  0  0999 V2000
   -2.6180    0.9149    1.8990 F   0  0  0  0  0  0  0  0  0  0  0  0
   -1.3639    0.6063   -2.7008 F   0  0  0  0  0  0  0  0  0  0  0  0
   -4.3796    1.8055   -1.1226 N   0  0  0  0  0  0  0  0  0  0  0  0
   -1.8043    0.7129   -0.3457 C   0  0  0  0  0  3  0  0  0  0  0  0
   -2.8163    1.0896    0.5530 C   0  0  0  0  0  0  0  0  0  0  0  0
   -4.0544    1.6225    0.1655 C   0  0  0  0  0  0  0  0  0  0  0  0
   -4.7950    1.8999    0.9370 H   0  0  0  0  0  0  0  0  0  0  0  0
   -3.4624    1.4499   -2.0368 C   0  0  0  0  0  0  0  0  0  0  0  0
   -3.7101    1.5828   -3.1051 H   0  0  0  0  0  0  0  0  0  0  0  0
   -2.2140    0.9239   -1.6772 C   0  0  0  0  0  0  0  0  0  0  0  0
  2 10  1  0  0  0  0
  3  6  1  0  0  0  0
  4  5  1  0  0  0  0
  5  1  1  0  0  0  0
  6  5  2  0  0  0  0
  6  7  1  0  0  0  0
  8 10  1  0  0  0  0
  8  3  2  0  0  0  0
  9  8  1  0  0  0  0
 10  4  2  0  0  0  0
M  END
