3
 OpenBabel05122313113D

 40 42  0  0  1  0  0  0  0  0999 V2000
   -0.3357   -1.4346   -0.2246 N   0  0  0  0  0  0  0  0  0  0  0  0
   -2.3581   -0.4838   -0.8292 N   0  0  1  0  0  0  0  0  0  0  0  0
   -1.0475   -0.3045   -0.4286 C   0  0  0  0  0  2  0  0  0  0  0  0
   -0.9410   -2.7631    0.0257 C   0  0  0  0  0  0  0  0  0  0  0  0
   -0.6084   -3.0966    1.0310 H   0  0  0  0  0  0  0  0  0  0  0  0
   -0.5085   -3.4796   -0.7047 H   0  0  0  0  0  0  0  0  0  0  0  0
   -2.4711   -2.7637   -0.0997 C   0  0  2  0  0  0  0  0  0  0  0  0
   -2.7754   -3.8065   -0.3274 H   0  0  0  0  0  0  0  0  0  0  0  0
   -2.7451   -1.8253   -1.2746 C   0  0  0  0  0  0  0  0  0  0  0  0
   -2.1483   -2.0959   -2.1700 H   0  0  0  0  0  0  0  0  0  0  0  0
   -3.8127   -1.8013   -1.5676 H   0  0  0  0  0  0  0  0  0  0  0  0
   -3.3100   -2.2785    1.1130 C   0  0  0  0  0  0  0  0  0  0  0  0
   -3.0098   -2.8328    2.0268 H   0  0  0  0  0  0  0  0  0  0  0  0
   -4.3592   -2.5832    0.9050 H   0  0  0  0  0  0  0  0  0  0  0  0
   -3.2826   -0.7580    1.3919 C   0  0  0  0  0  0  0  0  0  0  0  0
   -4.1121   -0.4899    2.0784 H   0  0  0  0  0  0  0  0  0  0  0  0
   -2.3404   -0.4863    1.9145 H   0  0  0  0  0  0  0  0  0  0  0  0
   -3.3431    0.0872    0.1054 C   0  0  0  0  0  0  0  0  0  0  0  0
   -4.3424    0.0600   -0.3767 H   0  0  0  0  0  0  0  0  0  0  0  0
   -3.0730    1.1437    0.3061 H   0  0  0  0  0  0  0  0  0  0  0  0
    1.0955   -1.3597   -0.0450 C   0  0  0  0  0  0  0  0  0  0  0  0
    1.6319   -1.2091    1.2546 C   0  0  0  0  0  0  0  0  0  0  0  0
    3.0307   -1.1807    1.3846 C   0  0  0  0  0  0  0  0  0  0  0  0
    3.4634   -1.0541    2.3900 H   0  0  0  0  0  0  0  0  0  0  0  0
    3.8881   -1.2855    0.2734 C   0  0  0  0  0  0  0  0  0  0  0  0
    3.3116   -1.4190   -1.0025 C   0  0  0  0  0  0  0  0  0  0  0  0
    3.9655   -1.4875   -1.8867 H   0  0  0  0  0  0  0  0  0  0  0  0
    1.9188   -1.4544   -1.1879 C   0  0  0  0  0  0  0  0  0  0  0  0
    0.7411   -0.9972    2.4508 C   0  0  0  0  0  0  0  0  0  0  0  0
   -0.0167   -1.7983    2.5750 H   0  0  0  0  0  0  0  0  0  0  0  0
    0.1865   -0.0396    2.3411 H   0  0  0  0  0  0  0  0  0  0  0  0
    1.3336   -0.9454    3.3831 H   0  0  0  0  0  0  0  0  0  0  0  0
    5.3838   -1.2065    0.4455 C   0  0  0  0  0  0  0  0  0  0  0  0
    5.7139   -1.6943    1.3841 H   0  0  0  0  0  0  0  0  0  0  0  0
    5.7170   -0.1477    0.4951 H   0  0  0  0  0  0  0  0  0  0  0  0
    5.9196   -1.6804   -0.4000 H   0  0  0  0  0  0  0  0  0  0  0  0
    1.3145   -1.5299   -2.5658 C   0  0  0  0  0  0  0  0  0  0  0  0
    2.0932   -1.6872   -3.3355 H   0  0  0  0  0  0  0  0  0  0  0  0
    0.7801   -0.5861   -2.8059 H   0  0  0  0  0  0  0  0  0  0  0  0
    0.5727   -2.3506   -2.6563 H   0  0  0  0  0  0  0  0  0  0  0  0
  1 21  1  0  0  0  0
  1  4  1  0  0  0  0
  2  3  1  1  0  0  0
  2 18  1  0  0  0  0
  3  1  1  0  0  0  0
  4  5  1  0  0  0  0
  6  4  1  0  0  0  0
  7  8  1  6  0  0  0
  7  4  1  0  0  0  0
  7 12  1  0  0  0  0
  9  2  1  0  0  0  0
  9  7  1  0  0  0  0
 10  9  1  0  0  0  0
 11  9  1  0  0  0  0
 12 15  1  0  0  0  0
 12 13  1  0  0  0  0
 14 12  1  0  0  0  0
 15 17  1  0  0  0  0
 15 16  1  0  0  0  0
 18 20  1  0  0  0  0
 18 15  1  0  0  0  0
 19 18  1  0  0  0  0
 21 22  1  0  0  0  0
 22 23  2  0  0  0  0
 22 29  1  0  0  0  0
 23 24  1  0  0  0  0
 25 33  1  0  0  0  0
 25 23  1  0  0  0  0
 26 25  2  0  0  0  0
 27 26  1  0  0  0  0
 28 26  1  0  0  0  0
 28 21  2  0  0  0  0
 29 30  1  0  0  0  0
 29 32  1  0  0  0  0
 31 29  1  0  0  0  0
 33 35  1  0  0  0  0
 33 34  1  0  0  0  0
 36 33  1  0  0  0  0
 37 28  1  0  0  0  0
 38 37  1  0  0  0  0
 39 37  1  0  0  0  0
 40 37  1  0  0  0  0
M  END
