5
 OpenBabel05122313113D

 34 35  0  0  0  0  0  0  0  0999 V2000
    2.7324    2.0175   -0.6436 S   0  0  0  0  0  0  0  0  0  0  0  0
    1.7070    1.0583   -1.3212 O   0  0  0  0  0  1  0  0  0  0  0  0
    4.0732    1.3966   -0.4381 O   0  0  0  0  0  1  0  0  0  0  0  0
    2.6711    3.3577   -1.2594 O   0  0  0  0  0  1  0  0  0  0  0  0
   -0.1606    1.1933    0.6414 C   0  0  0  0  0  2  0  0  0  0  0  0
    0.6159    2.2407    1.0873 N   0  0  0  0  0  0  0  0  0  0  0  0
    2.0552    2.1926    1.0856 C   0  0  0  0  0  0  0  0  0  0  0  0
    2.4177    1.3273    1.6650 H   0  0  0  0  0  0  0  0  0  0  0  0
    2.4740    3.1348    1.4812 H   0  0  0  0  0  0  0  0  0  0  0  0
   -0.1514    3.3472    1.4227 C   0  0  0  0  0  0  0  0  0  0  0  0
    0.2945    4.2808    1.7765 H   0  0  0  0  0  0  0  0  0  0  0  0
   -1.4528    2.9860    1.2167 C   0  0  0  0  0  0  0  0  0  0  0  0
   -2.3885    3.5319    1.3640 H   0  0  0  0  0  0  0  0  0  0  0  0
   -1.4458    1.6764    0.7384 N   0  0  0  0  0  0  0  0  0  0  0  0
   -2.6687    1.0122    0.3622 C   0  0  0  0  0  0  0  0  0  0  0  0
   -3.2779    0.1255    1.2710 C   0  0  0  0  0  0  0  0  0  0  0  0
   -4.4598   -0.5226    0.8652 C   0  0  0  0  0  0  0  0  0  0  0  0
   -4.9390   -1.2334    1.5577 H   0  0  0  0  0  0  0  0  0  0  0  0
   -5.0491   -0.2724   -0.3852 C   0  0  0  0  0  0  0  0  0  0  0  0
   -4.4461    0.6815   -1.2277 C   0  0  0  0  0  0  0  0  0  0  0  0
   -4.9080    0.9109   -2.2012 H   0  0  0  0  0  0  0  0  0  0  0  0
   -3.2589    1.3441   -0.8800 C   0  0  0  0  0  0  0  0  0  0  0  0
   -2.7434   -0.0595    2.6666 C   0  0  0  0  0  0  0  0  0  0  0  0
   -3.0335   -1.0437    3.0837 H   0  0  0  0  0  0  0  0  0  0  0  0
   -3.1571    0.7155    3.3478 H   0  0  0  0  0  0  0  0  0  0  0  0
   -1.6439    0.0318    2.7071 H   0  0  0  0  0  0  0  0  0  0  0  0
   -6.2892   -1.0087   -0.8246 C   0  0  0  0  0  0  0  0  0  0  0  0
   -6.0354   -1.8044   -1.5574 H   0  0  0  0  0  0  0  0  0  0  0  0
   -7.0098   -0.3307   -1.3246 H   0  0  0  0  0  0  0  0  0  0  0  0
   -6.8035   -1.4939    0.0276 H   0  0  0  0  0  0  0  0  0  0  0  0
   -2.6408    2.3714   -1.7895 C   0  0  0  0  0  0  0  0  0  0  0  0
   -2.6598    3.3847   -1.3362 H   0  0  0  0  0  0  0  0  0  0  0  0
   -3.1839    2.4200   -2.7516 H   0  0  0  0  0  0  0  0  0  0  0  0
   -1.5844    2.1131   -2.0036 H   0  0  0  0  0  0  0  0  0  0  0  0
  1  3  1  0  0  0  0
  1  7  1  0  0  0  0
  2  1  1  0  0  0  0
  4  1  1  0  0  0  0
  5 14  1  0  0  0  0
  5  6  1  0  0  0  0
  6 10  1  0  0  0  0
  7  6  1  0  0  0  0
  7  9  1  0  0  0  0
  7  8  1  0  0  0  0
 10 11  1  0  0  0  0
 12 13  1  0  0  0  0
 12 10  2  0  0  0  0
 14 12  1  0  0  0  0
 15 14  1  0  0  0  0
 15 16  1  0  0  0  0
 16 23  1  0  0  0  0
 17 16  2  0  0  0  0
 17 18  1  0  0  0  0
 19 17  1  0  0  0  0
 20 22  1  0  0  0  0
 20 19  2  0  0  0  0
 21 20  1  0  0  0  0
 22 15  2  0  0  0  0
 23 26  1  0  0  0  0
 23 24  1  0  0  0  0
 23 25  1  0  0  0  0
 27 19  1  0  0  0  0
 27 30  1  0  0  0  0
 28 27  1  0  0  0  0
 29 27  1  0  0  0  0
 31 32  1  0  0  0  0
 31 22  1  0  0  0  0
 33 31  1  0  0  0  0
 34 31  1  0  0  0  0
M  END
