49
 OpenBabel05122313113D

 52 55  0  0  0  0  0  0  0  0999 V2000
   -1.6644   -1.2835    0.2601 C   0  0  0  0  0  0  0  0  0  0  0  0
   -1.3064   -2.6503    0.3503 C   0  0  0  0  0  0  0  0  0  0  0  0
   -2.0939   -3.4168    0.3558 H   0  0  0  0  0  0  0  0  0  0  0  0
    0.0352   -3.0073    0.4304 C   0  0  0  0  0  0  0  0  0  0  0  0
    0.3391   -4.0612    0.5011 H   0  0  0  0  0  0  0  0  0  0  0  0
    1.0470   -2.0166    0.4227 C   0  0  0  0  0  0  0  0  0  0  0  0
    0.6851   -0.6528    0.3329 C   0  0  0  0  0  0  0  0  0  0  0  0
    1.4485    0.1355    0.3251 H   0  0  0  0  0  0  0  0  0  0  0  0
   -0.6632   -0.2912    0.2522 C   0  0  0  0  0  0  0  0  0  0  0  0
   -0.9524    0.7668    0.1820 H   0  0  0  0  0  0  0  0  0  0  0  0
    3.3968   -1.5321    0.5005 C   0  0  0  0  0  0  0  0  0  0  0  0
    3.2897   -0.8277    1.3580 H   0  0  0  0  0  0  0  0  0  0  0  0
    3.3681   -0.9264   -0.4352 H   0  0  0  0  0  0  0  0  0  0  0  0
    4.6984   -2.3102    0.6004 C   0  0  0  0  0  0  0  0  0  0  0  0
    4.7494   -3.0262   -0.2478 H   0  0  0  0  0  0  0  0  0  0  0  0
    4.6753   -2.9246    1.5258 H   0  0  0  0  0  0  0  0  0  0  0  0
    5.9301   -1.4017    0.5996 C   0  0  0  0  0  0  0  0  0  0  0  0
    5.9243   -0.7822   -0.3246 H   0  0  0  0  0  0  0  0  0  0  0  0
    5.8649   -0.6816    1.4466 H   0  0  0  0  0  0  0  0  0  0  0  0
    7.2480   -2.1791    0.7054 C   0  0  0  0  0  0  0  0  0  0  0  0
    7.3294   -2.8817   -0.1548 H   0  0  0  0  0  0  0  0  0  0  0  0
    7.2112   -2.8208    1.6118 H   0  0  0  0  0  0  0  0  0  0  0  0
    8.5026   -1.3013    0.7718 C   0  0  0  0  0  0  0  0  0  0  0  0
    8.4138   -0.5740    1.6080 H   0  0  0  0  0  0  0  0  0  0  0  0
    9.3871   -1.9306    1.0038 H   0  0  0  0  0  0  0  0  0  0  0  0
    8.7907   -0.5288   -0.5246 C   0  0  0  0  0  0  0  0  0  0  0  0
    8.9065   -1.2359   -1.3733 H   0  0  0  0  0  0  0  0  0  0  0  0
    7.9406    0.1327   -0.7903 H   0  0  0  0  0  0  0  0  0  0  0  0
   10.0279    1.5991    0.0268 C   0  0  0  0  0  0  0  0  0  0  0  0
    8.9781    2.4334    0.4483 C   0  0  0  0  0  0  0  0  0  0  0  0
    7.9340    2.0876    0.4520 H   0  0  0  0  0  0  0  0  0  0  0  0
    9.3050    3.7292    0.8730 C   0  0  0  0  0  0  0  0  0  0  0  0
    8.5013    4.4026    1.2076 H   0  0  0  0  0  0  0  0  0  0  0  0
   10.6422    4.1855    0.8833 C   0  0  0  0  0  0  0  0  0  0  0  0
   10.8626    5.2081    1.2237 H   0  0  0  0  0  0  0  0  0  0  0  0
   11.6869    3.3488    0.4691 C   0  0  0  0  0  0  0  0  0  0  0  0
   12.7280    3.7057    0.4813 H   0  0  0  0  0  0  0  0  0  0  0  0
   11.3895    2.0429    0.0385 C   0  0  0  0  0  0  0  0  0  0  0  0
   12.1903    0.9307   -0.4375 C   0  0  0  0  0  0  0  0  0  0  0  0
   13.5677    0.7377   -0.6493 C   0  0  0  0  0  0  0  0  0  0  0  0
   14.2804    1.5504   -0.4421 H   0  0  0  0  0  0  0  0  0  0  0  0
   14.0180   -0.5009   -1.1244 C   0  0  0  0  0  0  0  0  0  0  0  0
   15.0928   -0.6645   -1.2922 H   0  0  0  0  0  0  0  0  0  0  0  0
   13.1059   -1.5474   -1.3881 C   0  0  0  0  0  0  0  0  0  0  0  0
   13.4829   -2.5135   -1.7567 H   0  0  0  0  0  0  0  0  0  0  0  0
   11.7278   -1.3842   -1.1875 C   0  0  0  0  0  0  0  0  0  0  0  0
   11.0290   -2.2088   -1.3910 H   0  0  0  0  0  0  0  0  0  0  0  0
   11.2790   -0.1383   -0.7165 C   0  0  0  0  0  0  0  0  0  0  0  0
   -4.1306   -0.6181    0.1102 C   0  0  0  0  0  1  0  0  0  0  0  0
   -2.9896   -0.9244    0.1798 N   0  0  0  0  0  2  0  0  0  0  0  0
    9.9813    0.2911   -0.4489 N   0  0  0  0  0  0  0  0  0  0  0  0
    2.3169   -2.4685    0.5044 O   0  0  0  0  0  0  0  0  0  0  0  0
  1  2  1  0  0  0  0
  2  3  1  0  0  0  0
  2  4  2  0  0  0  0
  4  5  1  0  0  0  0
  6  4  1  0  0  0  0
  6 52  1  0  0  0  0
  7  6  2  0  0  0  0
  8  7  1  0  0  0  0
  9  1  2  0  0  0  0
  9  7  1  0  0  0  0
 10  9  1  0  0  0  0
 11 52  1  0  0  0  0
 11 14  1  0  0  0  0
 11 12  1  0  0  0  0
 13 11  1  0  0  0  0
 14 16  1  0  0  0  0
 15 14  1  0  0  0  0
 17 14  1  0  0  0  0
 17 20  1  0  0  0  0
 17 19  1  0  0  0  0
 18 17  1  0  0  0  0
 20 23  1  0  0  0  0
 20 22  1  0  0  0  0
 21 20  1  0  0  0  0
 23 25  1  0  0  0  0
 23 24  1  0  0  0  0
 26 51  1  0  0  0  0
 26 23  1  0  0  0  0
 27 26  1  0  0  0  0
 28 26  1  0  0  0  0
 29 38  2  0  0  0  0
 29 30  1  0  0  0  0
 30 31  1  0  0  0  0
 30 32  2  0  0  0  0
 32 34  1  0  0  0  0
 32 33  1  0  0  0  0
 34 35  1  0  0  0  0
 36 37  1  0  0  0  0
 36 34  2  0  0  0  0
 38 36  1  0  0  0  0
 39 38  1  0  0  0  0
 40 41  1  0  0  0  0
 40 39  1  0  0  0  0
 42 40  2  0  0  0  0
 43 42  1  0  0  0  0
 44 46  2  0  0  0  0
 44 42  1  0  0  0  0
 45 44  1  0  0  0  0
 46 48  1  0  0  0  0
 47 46  1  0  0  0  0
 48 51  1  0  0  0  0
 48 39  2  0  0  0  0
 49 50  1  0  0  0  0
 50  1  1  0  0  0  0
 51 29  1  0  0  0  0
M  END
