1
 OpenBabel05122313113D

 10  9  0  0  0  0  0  0  0  0999 V2000
    0.1785   -0.4057    2.7666 C   0  0  0  0  0  3  0  0  0  0  0  0
    1.1913    0.6224    2.6442 C   0  0  0  0  0  3  0  0  0  0  0  0
    0.5545   -1.6727    2.1833 C   0  0  0  0  0  3  0  0  0  0  0  0
   -1.1561    0.0281    2.5909 C   0  0  0  0  0  3  0  0  0  0  0  0
    2.2394    0.3483    2.8370 H   0  0  0  0  0  0  0  0  0  0  0  0
    0.9159    1.6429    2.9748 H   0  0  0  0  0  0  0  0  0  0  0  0
   -0.1950   -2.4809    2.1800 H   0  0  0  0  0  0  0  0  0  0  0  0
    1.5948   -2.0111    2.3287 H   0  0  0  0  0  0  0  0  0  0  0  0
   -1.4305    1.0500    2.8983 H   0  0  0  0  0  0  0  0  0  0  0  0
   -1.9755   -0.6987    2.5115 H   0  0  0  0  0  0  0  0  0  0  0  0
  2  1  1  0  0  0  0
  2  5  1  0  0  0  0
  2  6  1  0  0  0  0
  3  8  1  0  0  0  0
  3  1  1  0  0  0  0
  4  1  1  0  0  0  0
  4  9  1  0  0  0  0
  7  3  1  0  0  0  0
 10  4  1  0  0  0  0
M  END
