15
 OpenBabel05122313113D

 22 21  0  0  0  0  0  0  0  0999 V2000
   -0.0745    3.1260   -0.9170 O   0  0  0  0  0  0  0  0  0  0  0  0
    3.1416    0.7955   -0.4913 C   0  0  0  0  0  0  0  0  0  0  0  0
    3.4703   -0.2154    0.1066 O   0  0  0  0  0  0  0  0  0  0  0  0
    2.1647    3.0653   -0.6683 N   0  0  0  0  0  4  0  0  0  0  0  0
    3.0828    3.4579   -0.8896 H   0  0  0  0  0  0  0  0  0  0  0  0
    1.1654    2.8070    2.1719 C   0  0  0  0  0  0  0  0  0  0  0  0
    2.0350    3.1120    2.7966 H   0  0  0  0  0  0  0  0  0  0  0  0
    0.3629    2.5076    2.8747 H   0  0  0  0  0  0  0  0  0  0  0  0
    0.8221    3.6938    1.6078 H   0  0  0  0  0  0  0  0  0  0  0  0
    1.0466    3.6851   -1.0826 C   0  0  0  0  0  0  0  0  0  0  0  0
    1.1397    5.0393   -1.7213 C   0  0  0  0  0  0  0  0  0  0  0  0
    0.6028    5.7745   -1.0892 H   0  0  0  0  0  0  0  0  0  0  0  0
    0.6183    5.0123   -2.6977 H   0  0  0  0  0  0  0  0  0  0  0  0
    2.1809    5.3799   -1.8664 H   0  0  0  0  0  0  0  0  0  0  0  0
    1.5611    1.6496    1.3005 C   0  0  0  0  0  3  0  0  0  0  0  0
    1.9180    0.7690    1.8597 H   0  0  0  0  0  0  0  0  0  0  0  0
    2.1069    1.7711   -0.0250 C   0  0  0  0  0  0  0  0  0  0  0  0
    3.6957    1.1846   -1.6633 O   0  0  0  0  0  0  0  0  0  0  0  0
    4.7205    0.3127   -2.1787 C   0  0  0  0  0  0  0  0  0  0  0  0
    5.0572    0.7689   -3.1254 H   0  0  0  0  0  0  0  0  0  0  0  0
    4.3091   -0.7007   -2.3536 H   0  0  0  0  0  0  0  0  0  0  0  0
    5.5607    0.2358   -1.4610 H   0  0  0  0  0  0  0  0  0  0  0  0
  2 17  1  0  0  0  0
  2  3  2  0  0  0  0
  4 17  2  0  0  0  0
  5  4  1  0  0  0  0
  6  7  1  0  0  0  0
  6  8  1  0  0  0  0
  9  6  1  0  0  0  0
 10  1  2  0  0  0  0
 10  4  1  0  0  0  0
 11 12  1  0  0  0  0
 11 10  1  0  0  0  0
 13 11  1  0  0  0  0
 14 11  1  0  0  0  0
 15 16  1  0  0  0  0
 15  6  1  0  0  0  0
 17 15  1  0  0  0  0
 18  2  1  0  0  0  0
 19 18  1  0  0  0  0
 19 22  1  0  0  0  0
 20 19  1  0  0  0  0
 21 19  1  0  0  0  0
M  END
