1
 OpenBabel05122313113D

 12 11  0  0  0  0  0  0  0  0999 V2000
   -0.6042   -0.1953   -2.2783 C   0  0  0  0  0  3  0  0  0  0  0  0
   -0.9120    0.8236   -2.5615 H   0  0  0  0  0  0  0  0  0  0  0  0
    0.0781   -0.7198   -2.9667 H   0  0  0  0  0  0  0  0  0  0  0  0
   -1.3797   -0.9194   -1.3714 C   0  0  0  0  0  3  0  0  0  0  0  0
   -1.3263   -2.0179   -1.3142 H   0  0  0  0  0  0  0  0  0  0  0  0
   -2.5300   -0.2746   -0.6776 C   0  0  0  0  0  0  0  0  0  0  0  0
   -2.7186    0.9322   -0.5773 O   0  0  0  0  0  0  0  0  0  0  0  0
   -3.3487   -1.2076   -0.1478 O   0  0  0  0  0  0  0  0  0  0  0  0
   -4.5275   -0.7102    0.5109 C   0  0  0  0  0  0  0  0  0  0  0  0
   -4.2540   -0.1006    1.3957 H   0  0  0  0  0  0  0  0  0  0  0  0
   -5.1020   -1.6007    0.8181 H   0  0  0  0  0  0  0  0  0  0  0  0
   -5.1212   -0.0800   -0.1793 H   0  0  0  0  0  0  0  0  0  0  0  0
  1  4  1  0  0  0  0
  2  1  1  0  0  0  0
  3  1  1  0  0  0  0
  4  5  1  0  0  0  0
  4  6  1  0  0  0  0
  6  7  2  0  0  0  0
  6  8  1  0  0  0  0
  8  9  1  0  0  0  0
  9 11  1  0  0  0  0
  9 10  1  0  0  0  0
 12  9  1  0  0  0  0
M  END
