1
 OpenBabel05122313113D

 47 48  0  0  0  0  0  0  0  0999 V2000
   -0.3429    0.6692    0.3611 C   0  0  0  0  0  2  0  0  0  0  0  0
   -0.0524    1.8906    0.8158 O   0  0  0  0  0  0  0  0  0  0  0  0
   -1.0172    2.9532    0.8508 C   0  0  0  0  0  0  0  0  0  0  0  0
   -0.4081    4.1020    1.6296 C   0  0  0  0  0  0  0  0  0  0  0  0
    0.8339   -0.1394    0.2445 C   0  0  0  0  0  0  0  0  0  0  0  0
    2.1672    0.2653    0.2015 C   0  0  0  0  0  0  0  0  0  0  0  0
    2.5847    1.6940    0.1255 C   0  0  0  0  0  0  0  0  0  0  0  0
    3.2741    2.2921    1.1996 C   0  0  0  0  0  0  0  0  0  0  0  0
    3.6444    3.6427    1.1345 C   0  0  0  0  0  0  0  0  0  0  0  0
    3.3412    4.4039   -0.0065 C   0  0  0  0  0  0  0  0  0  0  0  0
    2.6653    3.8080   -1.0844 C   0  0  0  0  0  0  0  0  0  0  0  0
    2.2872    2.4600   -1.0193 C   0  0  0  0  0  0  0  0  0  0  0  0
    3.1709   -0.6797    0.1753 N   0  0  0  0  0  0  0  0  0  0  0  0
    4.5033   -0.4128   -0.3839 C   0  0  0  0  0  0  0  0  0  0  0  0
    4.5927   -0.6525   -1.8959 C   0  0  0  0  0  0  0  0  0  0  0  0
    4.4136   -2.1100   -2.3319 C   0  0  0  0  0  0  0  0  0  0  0  0
    3.0572   -2.7330   -1.9511 C   0  0  0  0  0  0  0  0  0  0  0  0
    2.8475   -3.0027   -0.4783 C   0  0  0  0  0  0  0  0  0  0  0  0
    2.8447   -2.0356    0.4719 C   0  0  0  0  0  0  0  0  0  0  0  0
    2.5343   -2.1613    1.7846 O   0  0  0  0  0  0  0  0  0  0  0  0
    1.8769   -3.3615    2.2071 C   0  0  0  0  0  0  0  0  0  0  0  0
    1.3439   -3.1389    3.6077 C   0  0  0  0  0  0  0  0  0  0  0  0
   -1.9524    2.5783    1.3138 H   0  0  0  0  0  0  0  0  0  0  0  0
   -1.2520    3.2478   -0.1934 H   0  0  0  0  0  0  0  0  0  0  0  0
   -0.1862    3.7990    2.6719 H   0  0  0  0  0  0  0  0  0  0  0  0
   -1.1148    4.9546    1.6575 H   0  0  0  0  0  0  0  0  0  0  0  0
    0.5360    4.4408    1.1583 H   0  0  0  0  0  0  0  0  0  0  0  0
    0.6600   -1.2151    0.1010 H   0  0  0  0  0  0  0  0  0  0  0  0
    3.4989    1.6929    2.0949 H   0  0  0  0  0  0  0  0  0  0  0  0
    4.1701    4.1063    1.9830 H   0  0  0  0  0  0  0  0  0  0  0  0
    3.6341    5.4635   -0.0565 H   0  0  0  0  0  0  0  0  0  0  0  0
    2.4284    4.3989   -1.9820 H   0  0  0  0  0  0  0  0  0  0  0  0
    1.7420    1.9898   -1.8518 H   0  0  0  0  0  0  0  0  0  0  0  0
    5.2229   -1.0600    0.1575 H   0  0  0  0  0  0  0  0  0  0  0  0
    4.7643    0.6375   -0.1566 H   0  0  0  0  0  0  0  0  0  0  0  0
    5.5828   -0.2813   -2.2373 H   0  0  0  0  0  0  0  0  0  0  0  0
    3.8325   -0.0113   -2.3945 H   0  0  0  0  0  0  0  0  0  0  0  0
    4.5311   -2.1621   -3.4349 H   0  0  0  0  0  0  0  0  0  0  0  0
    5.2312   -2.7290   -1.9010 H   0  0  0  0  0  0  0  0  0  0  0  0
    2.2397   -2.0768   -2.3307 H   0  0  0  0  0  0  0  0  0  0  0  0
    2.9426   -3.6903   -2.4966 H   0  0  0  0  0  0  0  0  0  0  0  0
    2.6563   -4.0389   -0.1650 H   0  0  0  0  0  0  0  0  0  0  0  0
    2.5994   -4.2098    2.1747 H   0  0  0  0  0  0  0  0  0  0  0  0
    1.0512   -3.5937    1.4973 H   0  0  0  0  0  0  0  0  0  0  0  0
    2.1620   -2.8821    4.3094 H   0  0  0  0  0  0  0  0  0  0  0  0
    0.8443   -4.0578    3.9721 H   0  0  0  0  0  0  0  0  0  0  0  0
    0.6009   -2.3179    3.6120 H   0  0  0  0  0  0  0  0  0  0  0  0
  1  2  1  0  0  0  0
  2  3  1  0  0  0  0
  3 23  1  0  0  0  0
  3  4  1  0  0  0  0
  4 26  1  0  0  0  0
  4 25  1  0  0  0  0
  5  1  1  0  0  0  0
  6  5  2  0  0  0  0
  7  6  1  0  0  0  0
  7  8  1  0  0  0  0
  8 29  1  0  0  0  0
  9  8  2  0  0  0  0
  9 30  1  0  0  0  0
 10  9  1  0  0  0  0
 11 12  1  0  0  0  0
 11 10  2  0  0  0  0
 12  7  2  0  0  0  0
 13  6  1  0  0  0  0
 13 19  1  0  0  0  0
 14 35  1  0  0  0  0
 14 34  1  0  0  0  0
 14 13  1  0  0  0  0
 15 14  1  0  0  0  0
 16 17  1  0  0  0  0
 16 39  1  0  0  0  0
 16 15  1  0  0  0  0
 17 18  1  0  0  0  0
 18 42  1  0  0  0  0
 18 19  2  0  0  0  0
 19 20  1  0  0  0  0
 20 21  1  0  0  0  0
 21 22  1  0  0  0  0
 22 47  1  0  0  0  0
 22 46  1  0  0  0  0
 22 45  1  0  0  0  0
 24  3  1  0  0  0  0
 27  4  1  0  0  0  0
 28  5  1  0  0  0  0
 31 10  1  0  0  0  0
 32 11  1  0  0  0  0
 33 12  1  0  0  0  0
 36 15  1  0  0  0  0
 37 15  1  0  0  0  0
 38 16  1  0  0  0  0
 40 17  1  0  0  0  0
 41 17  1  0  0  0  0
 43 21  1  0  0  0  0
 44 21  1  0  0  0  0
M  END
