13
 OpenBabel05122313113D

 51 54  0  0  1  0  0  0  0  0999 V2000
   -1.0804   -2.8311    2.0323 O   0  0  0  0  0  0  0  0  0  0  0  0
    1.8904    0.8243    0.5347 N   0  0  0  0  0  0  0  0  0  0  0  0
   -0.4891    0.6187    0.9233 C   0  0  0  0  0  0  0  0  0  0  0  0
   -2.6622   -1.2190    1.0737 C   0  0  0  0  0  0  0  0  0  0  0  0
   -3.5096   -1.9150    1.0944 H   0  0  0  0  0  0  0  0  0  0  0  0
   -1.3804   -1.6136    1.5277 C   0  0  0  0  0  0  0  0  0  0  0  0
   -0.2931   -0.6976    1.4170 C   0  0  0  0  0  0  0  0  0  0  0  0
    0.7138   -1.0215    1.7074 H   0  0  0  0  0  0  0  0  0  0  0  0
   -1.7948    1.0360    0.4776 C   0  0  1  0  0  3  0  0  0  0  0  0
    0.7101    1.5786    0.9820 C   0  0  2  0  0  0  0  0  0  0  0  0
   -2.0040    2.4078   -0.1620 C   0  0  2  0  0  0  0  0  0  0  0  0
   -1.8045    2.2817   -1.2491 H   0  0  0  0  0  0  0  0  0  0  0  0
   -2.8754    0.1038    0.5545 C   0  0  2  0  0  3  0  0  0  0  0  0
   -2.0260   -3.8789    1.8612 C   0  0  0  0  0  0  0  0  0  0  0  0
   -2.9549   -3.6969    2.4449 H   0  0  0  0  0  0  0  0  0  0  0  0
   -1.5408   -4.7981    2.2361 H   0  0  0  0  0  0  0  0  0  0  0  0
   -2.2820   -4.0091    0.7874 H   0  0  0  0  0  0  0  0  0  0  0  0
    0.4379    2.8584    0.1493 C   0  0  0  0  0  0  0  0  0  0  0  0
    1.1994    3.6209    0.4112 H   0  0  0  0  0  0  0  0  0  0  0  0
    0.5835    2.6175   -0.9250 H   0  0  0  0  0  0  0  0  0  0  0  0
    4.2954    0.6110    0.0656 C   0  0  0  0  0  0  0  0  0  0  0  0
   -0.9723    3.4139    0.3489 C   0  0  0  0  0  0  0  0  0  0  0  0
   -1.1605    3.6447    1.4204 H   0  0  0  0  0  0  0  0  0  0  0  0
   -1.0916    4.3701   -0.2018 H   0  0  0  0  0  0  0  0  0  0  0  0
   -4.2901    0.4969    0.1842 C   0  0  0  0  0  0  0  0  0  0  0  0
   -4.8468    0.6068    1.1428 H   0  0  0  0  0  0  0  0  0  0  0  0
   -4.7766   -0.3393   -0.3583 H   0  0  0  0  0  0  0  0  0  0  0  0
    0.8935    1.9583    2.4717 C   0  0  0  0  0  0  0  0  0  0  0  0
    1.1146    1.0572    3.0744 H   0  0  0  0  0  0  0  0  0  0  0  0
   -0.0181    2.4358    2.8791 H   0  0  0  0  0  0  0  0  0  0  0  0
    1.7307    2.6744    2.5922 H   0  0  0  0  0  0  0  0  0  0  0  0
    3.1430    1.5461    0.3813 C   0  0  0  0  0  0  0  0  0  0  0  0
    3.3654    2.0683    1.3394 H   0  0  0  0  0  0  0  0  0  0  0  0
    3.1184    2.3488   -0.3982 H   0  0  0  0  0  0  0  0  0  0  0  0
   -4.3920    1.7974   -0.6152 C   0  0  0  0  0  0  0  0  0  0  0  0
   -5.4445    2.1459   -0.6242 H   0  0  0  0  0  0  0  0  0  0  0  0
   -4.1129    1.6033   -1.6731 H   0  0  0  0  0  0  0  0  0  0  0  0
    5.3487    1.0351   -0.7671 C   0  0  0  0  0  0  0  0  0  0  0  0
    5.3094    2.0402   -1.2175 H   0  0  0  0  0  0  0  0  0  0  0  0
   -3.4599    2.8645   -0.0377 C   0  0  0  0  0  0  0  0  0  0  0  0
   -3.7079    3.0540    1.0314 H   0  0  0  0  0  0  0  0  0  0  0  0
   -3.5871    3.8296   -0.5704 H   0  0  0  0  0  0  0  0  0  0  0  0
    4.3488   -0.6845    0.6163 C   0  0  0  0  0  0  0  0  0  0  0  0
    3.5162   -1.0197    1.2521 H   0  0  0  0  0  0  0  0  0  0  0  0
    5.4336   -1.5315    0.3465 C   0  0  0  0  0  0  0  0  0  0  0  0
    5.4579   -2.5428    0.7811 H   0  0  0  0  0  0  0  0  0  0  0  0
    6.4381    0.1921   -1.0338 C   0  0  0  0  0  0  0  0  0  0  0  0
    7.2512    0.5397   -1.6896 H   0  0  0  0  0  0  0  0  0  0  0  0
    6.4840   -1.0956   -0.4771 C   0  0  0  0  0  0  0  0  0  0  0  0
    7.3337   -1.7617   -0.6916 H   0  0  0  0  0  0  0  0  0  0  0  0
    1.6614    0.3275   -0.3360 H   0  0  0  0  0  0  0  0  0  0  0  0
  3 10  1  0  0  0  0
  3  7  2  0  0  0  0
  4  5  1  0  0  0  0
  4  6  2  0  0  0  0
  6  1  1  0  0  0  0
  7  6  1  0  0  0  0
  7  8  1  0  0  0  0
  9 13  1  0  0  0  0
  9  3  1  6  0  0  0
 10  2  1  6  0  0  0
 10 28  1  0  0  0  0
 11 12  1  6  0  0  0
 11 40  1  0  0  0  0
 11 22  1  0  0  0  0
 11  9  1  0  0  0  0
 13  4  1  1  0  0  0
 14  1  1  0  0  0  0
 14 16  1  0  0  0  0
 14 15  1  0  0  0  0
 17 14  1  0  0  0  0
 18 22  1  0  0  0  0
 18 19  1  0  0  0  0
 18 10  1  0  0  0  0
 20 18  1  0  0  0  0
 21 32  1  0  0  0  0
 21 43  1  0  0  0  0
 22 23  1  0  0  0  0
 24 22  1  0  0  0  0
 25 13  1  0  0  0  0
 25 26  1  0  0  0  0
 27 25  1  0  0  0  0
 28 31  1  0  0  0  0
 28 30  1  0  0  0  0
 28 29  1  0  0  0  0
 32  2  1  0  0  0  0
 32 33  1  0  0  0  0
 34 32  1  0  0  0  0
 35 40  1  0  0  0  0
 35 25  1  0  0  0  0
 36 35  1  0  0  0  0
 37 35  1  0  0  0  0
 38 21  2  0  0  0  0
 39 38  1  0  0  0  0
 40 41  1  0  0  0  0
 42 40  1  0  0  0  0
 43 44  1  0  0  0  0
 45 43  2  0  0  0  0
 45 46  1  0  0  0  0
 47 38  1  0  0  0  0
 47 49  2  0  0  0  0
 48 47  1  0  0  0  0
 49 45  1  0  0  0  0
 50 49  1  0  0  0  0
 51  2  1  0  0  0  0
M  END
