4
 OpenBabel05122313113D

 23 23  0  0  0  0  0  0  0  0999 V2000
   -1.8100   -0.5874   -3.3392 O   0  0  0  0  0  0  0  0  0  0  0  0
   -2.9178   -1.5915   -1.6168 O   0  0  0  0  0  0  0  0  0  0  0  0
   -2.0856    1.2956   -0.2770 C   0  0  0  0  0  3  0  0  0  0  0  0
   -1.7696    0.3698   -1.1498 C   0  0  0  0  0  3  0  0  0  0  0  0
   -2.1653   -0.5799   -2.1698 C   0  0  0  0  0  0  0  0  0  0  0  0
   -3.2179   -2.6929   -2.4939 C   0  0  0  0  0  0  0  0  0  0  0  0
   -3.7902   -3.8138   -1.6491 C   0  0  0  0  0  0  0  0  0  0  0  0
   -3.2145    3.3726    0.5851 C   0  0  0  0  0  0  0  0  0  0  0  0
   -4.3705    4.0170    1.0456 C   0  0  0  0  0  0  0  0  0  0  0  0
   -5.5820    3.3147    1.1504 C   0  0  0  0  0  0  0  0  0  0  0  0
   -5.6357    1.9603    0.7781 C   0  0  0  0  0  0  0  0  0  0  0  0
   -4.4879    1.3140    0.3045 C   0  0  0  0  0  0  0  0  0  0  0  0
   -3.2562    2.0111    0.2047 C   0  0  0  0  0  0  0  0  0  0  0  0
   -3.9312   -2.3542   -3.2759 H   0  0  0  0  0  0  0  0  0  0  0  0
   -2.2888   -2.9952   -3.0238 H   0  0  0  0  0  0  0  0  0  0  0  0
   -4.0447   -4.6844   -2.2858 H   0  0  0  0  0  0  0  0  0  0  0  0
   -4.7101   -3.4877   -1.1241 H   0  0  0  0  0  0  0  0  0  0  0  0
   -3.0598   -4.1423   -0.8824 H   0  0  0  0  0  0  0  0  0  0  0  0
   -2.2687    3.9254    0.5026 H   0  0  0  0  0  0  0  0  0  0  0  0
   -4.3239    5.0796    1.3289 H   0  0  0  0  0  0  0  0  0  0  0  0
   -6.4855    3.8228    1.5206 H   0  0  0  0  0  0  0  0  0  0  0  0
   -6.5836    1.4051    0.8537 H   0  0  0  0  0  0  0  0  0  0  0  0
   -4.5185    0.2559    0.0020 H   0  0  0  0  0  0  0  0  0  0  0  0
  1  5  2  0  0  0  0
  3 13  1  0  0  0  0
  4  3  2  0  0  0  0
  5  2  1  0  0  0  0
  5  4  1  0  0  0  0
  6  7  1  0  0  0  0
  6  2  1  0  0  0  0
  7 17  1  0  0  0  0
  7 18  1  0  0  0  0
  8  9  1  0  0  0  0
  9 10  2  0  0  0  0
  9 20  1  0  0  0  0
 10 21  1  0  0  0  0
 11 22  1  0  0  0  0
 11 10  1  0  0  0  0
 12 11  2  0  0  0  0
 13 12  1  0  0  0  0
 13  8  2  0  0  0  0
 14  6  1  0  0  0  0
 15  6  1  0  0  0  0
 16  7  1  0  0  0  0
 19  8  1  0  0  0  0
 23 12  1  0  0  0  0
M  END
