2
 OpenBabel05122313113D

 13 13  0  0  0  0  0  0  0  0999 V2000
   -1.1640   -1.6106   -1.7460 I   0  0  0  0  0  0  0  0  0  0  0  0
   -1.2882   -0.8057    1.2927 C   0  0  0  0  0  2  0  0  0  0  0  0
   -1.2264   -0.6426    2.3895 H   0  0  0  0  0  0  0  0  0  0  0  0
   -2.5419   -1.4447    0.8981 C   0  0  0  0  0  0  0  0  0  0  0  0
   -3.5888   -1.6382    1.8409 C   0  0  0  0  0  0  0  0  0  0  0  0
   -3.4109   -1.3238    2.8811 H   0  0  0  0  0  0  0  0  0  0  0  0
   -4.8124   -2.2060    1.4713 C   0  0  0  0  0  0  0  0  0  0  0  0
   -5.5991   -2.3484    2.2277 H   0  0  0  0  0  0  0  0  0  0  0  0
   -5.0386   -2.6082    0.1424 C   0  0  0  0  0  0  0  0  0  0  0  0
   -6.0013   -3.0541   -0.1500 H   0  0  0  0  0  0  0  0  0  0  0  0
   -4.0218   -2.4564   -0.8177 C   0  0  0  0  0  0  0  0  0  0  0  0
   -4.1784   -2.7855   -1.8556 H   0  0  0  0  0  0  0  0  0  0  0  0
   -2.8133   -1.8851   -0.4186 C   0  0  0  0  0  0  0  0  0  0  0  0
  1 13  1  0  0  0  0
  2  3  1  0  0  0  0
  4  2  1  0  0  0  0
  4  5  1  0  0  0  0
  5  6  1  0  0  0  0
  7  5  2  0  0  0  0
  7  8  1  0  0  0  0
  9  7  1  0  0  0  0
 10  9  1  0  0  0  0
 11 13  1  0  0  0  0
 11  9  2  0  0  0  0
 12 11  1  0  0  0  0
 13  4  2  0  0  0  0
M  END
