2
 OpenBabel05122313113D

 34 36  0  0  0  0  0  0  0  0999 V2000
    0.7723   -1.2924   -0.8957 N   0  0  0  0  0  0  0  0  0  0  0  0
    0.0020   -0.3002   -0.3599 C   0  0  0  0  0  2  0  0  0  0  0  0
   -1.1651   -0.9474    0.0130 N   0  0  0  0  0  0  0  0  0  0  0  0
   -1.0919   -2.3153   -0.2741 C   0  0  0  0  0  0  0  0  0  0  0  0
    0.1351   -2.5273   -0.8340 C   0  0  0  0  0  0  0  0  0  0  0  0
    2.1395   -1.0955   -1.3927 C   0  0  0  0  0  0  0  0  0  0  0  0
    3.1803   -1.5997   -0.4160 C   0  0  0  0  0  0  0  0  0  0  0  0
    3.9821   -2.7127   -0.7275 C   0  0  0  0  0  0  0  0  0  0  0  0
    4.9369   -3.1811    0.1895 C   0  0  0  0  0  0  0  0  0  0  0  0
    5.0918   -2.5398    1.4274 C   0  0  0  0  0  0  0  0  0  0  0  0
    4.2935   -1.4273    1.7445 C   0  0  0  0  0  0  0  0  0  0  0  0
    3.3428   -0.9577    0.8288 C   0  0  0  0  0  0  0  0  0  0  0  0
   -2.2574   -0.2961    0.7171 C   0  0  0  0  0  0  0  0  0  0  0  0
   -2.0264    0.5975    1.5026 O   0  0  0  0  0  0  0  0  0  0  0  0
   -3.6252   -0.7997    0.4056 C   0  0  0  0  0  0  0  0  0  0  0  0
   -4.6208   -0.6117    1.3894 C   0  0  0  0  0  0  0  0  0  0  0  0
   -5.9392   -1.0056    1.1388 C   0  0  0  0  0  0  0  0  0  0  0  0
   -6.2812   -1.5663   -0.1042 C   0  0  0  0  0  0  0  0  0  0  0  0
   -5.3023   -1.7291   -1.0977 C   0  0  0  0  0  0  0  0  0  0  0  0
   -3.9760   -1.3528   -0.8458 C   0  0  0  0  0  0  0  0  0  0  0  0
   -1.8973   -3.0100   -0.0226 H   0  0  0  0  0  0  0  0  0  0  0  0
    0.6171   -3.4489   -1.1739 H   0  0  0  0  0  0  0  0  0  0  0  0
    2.2410   -0.0041   -1.5607 H   0  0  0  0  0  0  0  0  0  0  0  0
    2.2298   -1.6110   -2.3692 H   0  0  0  0  0  0  0  0  0  0  0  0
    3.8644   -3.2133   -1.7024 H   0  0  0  0  0  0  0  0  0  0  0  0
    5.5622   -4.0499   -0.0658 H   0  0  0  0  0  0  0  0  0  0  0  0
    5.8398   -2.9048    2.1475 H   0  0  0  0  0  0  0  0  0  0  0  0
    4.4168   -0.9167    2.7115 H   0  0  0  0  0  0  0  0  0  0  0  0
    2.7178   -0.0826    1.0723 H   0  0  0  0  0  0  0  0  0  0  0  0
   -4.3332   -0.1489    2.3447 H   0  0  0  0  0  0  0  0  0  0  0  0
   -6.7089   -0.8691    1.9130 H   0  0  0  0  0  0  0  0  0  0  0  0
   -7.3205   -1.8691   -0.3032 H   0  0  0  0  0  0  0  0  0  0  0  0
   -5.5754   -2.1446   -2.0791 H   0  0  0  0  0  0  0  0  0  0  0  0
   -3.2176   -1.4590   -1.6351 H   0  0  0  0  0  0  0  0  0  0  0  0
  1  5  1  0  0  0  0
  1  2  1  0  0  0  0
  2  3  1  0  0  0  0
  3 13  1  0  0  0  0
  4 21  1  0  0  0  0
  4  3  1  0  0  0  0
  5  4  2  0  0  0  0
  6  1  1  0  0  0  0
  6  7  1  0  0  0  0
  7 12  1  0  0  0  0
  8  7  2  0  0  0  0
  8  9  1  0  0  0  0
  9 10  2  0  0  0  0
 10 11  1  0  0  0  0
 10 27  1  0  0  0  0
 11 28  1  0  0  0  0
 12 29  1  0  0  0  0
 12 11  2  0  0  0  0
 13 14  2  0  0  0  0
 15 13  1  0  0  0  0
 15 16  1  0  0  0  0
 16 30  1  0  0  0  0
 17 16  2  0  0  0  0
 17 31  1  0  0  0  0
 18 17  1  0  0  0  0
 19 20  1  0  0  0  0
 19 18  2  0  0  0  0
 20 15  2  0  0  0  0
 22  5  1  0  0  0  0
 23  6  1  0  0  0  0
 24  6  1  0  0  0  0
 25  8  1  0  0  0  0
 26  9  1  0  0  0  0
 32 18  1  0  0  0  0
 33 19  1  0  0  0  0
 34 20  1  0  0  0  0
M  END
