3
 OpenBabel05122313113D

 36 37  0  0  0  0  0  0  0  0999 V2000
    1.8364   -0.9530   -0.7144 S   0  0  0  0  0  0  0  0  0  0  0  0
   -0.3674   -1.7235    1.6774 N   0  0  0  0  0  0  0  0  0  0  0  0
   -0.6355   -0.5718    1.0607 C   0  0  0  0  0  2  0  0  0  0  0  0
    0.4093    0.4686    1.0759 C   0  0  0  0  0  0  0  0  0  0  0  0
    0.1134    1.4318    1.5268 H   0  0  0  0  0  0  0  0  0  0  0  0
    1.5791    0.4466    0.3617 C   0  0  0  0  0  0  0  0  0  0  0  0
    2.5002    1.6024    0.2883 C   0  0  0  0  0  0  0  0  0  0  0  0
    2.7099    2.4158    1.4263 C   0  0  0  0  0  0  0  0  0  0  0  0
    2.2111    2.1586    2.3735 H   0  0  0  0  0  0  0  0  0  0  0  0
    3.5612    3.5262    1.3651 C   0  0  0  0  0  0  0  0  0  0  0  0
    3.7146    4.1457    2.2618 H   0  0  0  0  0  0  0  0  0  0  0  0
    4.2271    3.8400    0.1689 C   0  0  0  0  0  0  0  0  0  0  0  0
    4.9008    4.7089    0.1225 H   0  0  0  0  0  0  0  0  0  0  0  0
    4.0328    3.0346   -0.9648 C   0  0  0  0  0  0  0  0  0  0  0  0
    4.5475    3.2754   -1.9073 H   0  0  0  0  0  0  0  0  0  0  0  0
    3.1807    1.9252   -0.9070 C   0  0  0  0  0  0  0  0  0  0  0  0
    3.0165    1.3001   -1.7969 H   0  0  0  0  0  0  0  0  0  0  0  0
    3.5628   -1.3470   -0.4945 C   0  0  0  0  0  0  0  0  0  0  0  0
    4.2740   -1.0620    0.6883 C   0  0  0  0  0  0  0  0  0  0  0  0
    3.7783   -0.5355    1.5162 H   0  0  0  0  0  0  0  0  0  0  0  0
    5.6199   -1.4384    0.7979 C   0  0  0  0  0  0  0  0  0  0  0  0
    6.1717   -1.2023    1.7207 H   0  0  0  0  0  0  0  0  0  0  0  0
    6.2612   -2.1136   -0.2530 C   0  0  0  0  0  0  0  0  0  0  0  0
    7.3169   -2.4085   -0.1592 H   0  0  0  0  0  0  0  0  0  0  0  0
    5.5472   -2.4046   -1.4265 C   0  0  0  0  0  0  0  0  0  0  0  0
    6.0411   -2.9279   -2.2593 H   0  0  0  0  0  0  0  0  0  0  0  0
    4.2062   -2.0167   -1.5554 C   0  0  0  0  0  0  0  0  0  0  0  0
    3.6531   -2.2247   -2.4843 H   0  0  0  0  0  0  0  0  0  0  0  0
    0.8909   -2.0160    2.3692 C   0  0  0  0  0  0  0  0  0  0  0  0
    0.6772   -2.5804    3.2979 H   0  0  0  0  0  0  0  0  0  0  0  0
    1.4155   -1.0765    2.6129 H   0  0  0  0  0  0  0  0  0  0  0  0
    1.5499   -2.6266    1.7163 H   0  0  0  0  0  0  0  0  0  0  0  0
   -1.2580   -2.8770    1.6037 C   0  0  0  0  0  0  0  0  0  0  0  0
   -1.3590   -3.3389    2.6057 H   0  0  0  0  0  0  0  0  0  0  0  0
   -0.8375   -3.6312    0.9055 H   0  0  0  0  0  0  0  0  0  0  0  0
   -2.2467   -2.5612    1.2369 H   0  0  0  0  0  0  0  0  0  0  0  0
  1 18  1  0  0  0  0
  1  6  1  0  0  0  0
  2 29  1  0  0  0  0
  3  4  1  0  0  0  0
  3  2  1  0  0  0  0
  4  5  1  0  0  0  0
  6  4  2  0  0  0  0
  7  6  1  0  0  0  0
  7  8  1  0  0  0  0
  8  9  1  0  0  0  0
 10  8  2  0  0  0  0
 10 11  1  0  0  0  0
 12 10  1  0  0  0  0
 13 12  1  0  0  0  0
 14 16  1  0  0  0  0
 14 12  2  0  0  0  0
 15 14  1  0  0  0  0
 16  7  2  0  0  0  0
 17 16  1  0  0  0  0
 18 19  1  0  0  0  0
 19 21  2  0  0  0  0
 19 20  1  0  0  0  0
 21 22  1  0  0  0  0
 23 24  1  0  0  0  0
 23 21  1  0  0  0  0
 25 23  2  0  0  0  0
 26 25  1  0  0  0  0
 27 25  1  0  0  0  0
 27 18  2  0  0  0  0
 28 27  1  0  0  0  0
 29 31  1  0  0  0  0
 29 30  1  0  0  0  0
 32 29  1  0  0  0  0
 33  2  1  0  0  0  0
 33 34  1  0  0  0  0
 35 33  1  0  0  0  0
 36 33  1  0  0  0  0
M  END
