19
 OpenBabel05122313113D

 33 34  0  0  0  0  0  0  0  0999 V2000
    2.8102   -2.8608    0.8041 C   0  0  0  0  0  0  0  0  0  0  0  0
    1.9450   -3.4449    1.1686 H   0  0  0  0  0  0  0  0  0  0  0  0
    3.4481   -2.5716    1.6692 H   0  0  0  0  0  0  0  0  0  0  0  0
    3.4107   -3.4906    0.1105 H   0  0  0  0  0  0  0  0  0  0  0  0
    3.1172   -0.7997   -0.3659 C   0  0  0  0  0  0  0  0  0  0  0  0
    2.2697   -1.7290    0.1496 O   0  0  0  0  0  0  0  0  0  0  0  0
    4.5180   -0.9098   -0.3420 C   0  0  0  0  0  0  0  0  0  0  0  0
    4.9914   -1.7901    0.1125 H   0  0  0  0  0  0  0  0  0  0  0  0
    5.3227    0.0926   -0.9106 C   0  0  0  0  0  0  0  0  0  0  0  0
    6.4170   -0.0192   -0.8962 H   0  0  0  0  0  0  0  0  0  0  0  0
    4.7308    1.2164   -1.5005 C   0  0  0  0  0  0  0  0  0  0  0  0
    5.3528    1.9966   -1.9635 H   0  0  0  0  0  0  0  0  0  0  0  0
    3.3344    1.3449   -1.5078 C   0  0  0  0  0  0  0  0  0  0  0  0
    2.8722    2.2159   -1.9953 H   0  0  0  0  0  0  0  0  0  0  0  0
    2.4989    0.3548   -0.9442 C   0  0  0  0  0  0  0  0  0  0  0  0
    1.1071    0.4225   -0.9866 N   0  0  0  0  0  0  0  0  0  0  0  0
    0.4692    1.6203   -0.9803 C   0  0  0  0  0  0  0  0  0  0  0  0
    0.9974    2.5913   -0.9164 H   0  0  0  0  0  0  0  0  0  0  0  0
   -0.9585    1.5468   -0.9922 C   0  0  0  0  0  3  0  0  0  0  0  0
   -1.5533    2.4647   -0.8799 H   0  0  0  0  0  0  0  0  0  0  0  0
   -1.5357    0.2353   -1.0750 C   0  0  0  0  0  3  0  0  0  0  0  0
   -0.9478   -0.4982   -1.6511 H   0  0  0  0  0  0  0  0  0  0  0  0
   -2.9732   -0.0556   -0.9432 C   0  0  0  0  0  0  0  0  0  0  0  0
   -3.9166    0.8869   -0.4703 C   0  0  0  0  0  0  0  0  0  0  0  0
   -3.5890    1.8936   -0.1714 H   0  0  0  0  0  0  0  0  0  0  0  0
   -5.2732    0.5548   -0.3667 C   0  0  0  0  0  0  0  0  0  0  0  0
   -5.9892    1.3045    0.0031 H   0  0  0  0  0  0  0  0  0  0  0  0
   -5.7207   -0.7270   -0.7266 C   0  0  0  0  0  0  0  0  0  0  0  0
   -6.7868   -0.9861   -0.6408 H   0  0  0  0  0  0  0  0  0  0  0  0
   -4.7964   -1.6755   -1.1939 C   0  0  0  0  0  0  0  0  0  0  0  0
   -5.1352   -2.6836   -1.4775 H   0  0  0  0  0  0  0  0  0  0  0  0
   -3.4408   -1.3422   -1.3009 C   0  0  0  0  0  0  0  0  0  0  0  0
   -2.7169   -2.0884   -1.6643 H   0  0  0  0  0  0  0  0  0  0  0  0
  1  2  1  0  0  0  0
  1  3  1  0  0  0  0
  4  1  1  0  0  0  0
  5  7  1  0  0  0  0
  5  6  1  0  0  0  0
  6  1  1  0  0  0  0
  7  8  1  0  0  0  0
  9 10  1  0  0  0  0
  9  7  2  0  0  0  0
 11  9  1  0  0  0  0
 12 11  1  0  0  0  0
 13 11  2  0  0  0  0
 13 15  1  0  0  0  0
 14 13  1  0  0  0  0
 15  5  2  0  0  0  0
 16 17  2  0  0  0  0
 16 15  1  0  0  0  0
 17 18  1  0  0  0  0
 19 17  1  0  0  0  0
 19 20  1  0  0  0  0
 21 19  1  0  0  0  0
 21 23  1  0  0  0  0
 22 21  1  0  0  0  0
 23 24  1  0  0  0  0
 24 26  2  0  0  0  0
 24 25  1  0  0  0  0
 26 27  1  0  0  0  0
 28 29  1  0  0  0  0
 28 26  1  0  0  0  0
 30 28  2  0  0  0  0
 31 30  1  0  0  0  0
 32 30  1  0  0  0  0
 32 23  2  0  0  0  0
 33 32  1  0  0  0  0
M  END
