6
 OpenBabel05122313113D

 41 44  0  0  0  0  0  0  0  0999 V2000
    2.7040   -2.3242    1.8701 O   0  0  0  0  0  0  0  0  0  0  0  0
    0.8611    1.8513    2.3272 O   0  0  0  0  0  0  0  0  0  0  0  0
   -0.0527   -2.5709    0.4222 N   0  0  0  0  0  0  0  0  0  0  0  0
    1.7946   -0.2311    2.0919 N   0  0  0  0  0  0  0  0  0  0  0  0
    2.7341    1.6761    0.8505 C   0  0  0  0  0  0  0  0  0  0  0  0
   -0.5408   -1.8221   -0.6134 C   0  0  0  0  0  2  0  0  0  0  0  0
   -0.5606   -2.5388    1.8038 C   0  0  0  0  0  0  0  0  0  0  0  0
    0.0055   -3.3096    2.3606 H   0  0  0  0  0  0  0  0  0  0  0  0
   -1.6246   -2.8483    1.7463 H   0  0  0  0  0  0  0  0  0  0  0  0
   -0.4967   -1.1952    2.5317 C   0  0  0  0  0  0  0  0  0  0  0  0
   -0.9246   -0.4012    1.8792 H   0  0  0  0  0  0  0  0  0  0  0  0
   -1.1969   -1.2798    3.3889 H   0  0  0  0  0  0  0  0  0  0  0  0
    0.8537   -0.7449    3.0938 C   0  0  0  0  0  0  0  0  0  0  0  0
    0.6776    0.0851    3.8022 H   0  0  0  0  0  0  0  0  0  0  0  0
    1.3624   -1.5783    3.6147 H   0  0  0  0  0  0  0  0  0  0  0  0
    2.7035   -1.1403    1.5256 C   0  0  0  0  0  0  0  0  0  0  0  0
    3.6348   -0.5986    0.5062 C   0  0  0  0  0  0  0  0  0  0  0  0
    4.5135   -1.4628   -0.1463 C   0  0  0  0  0  0  0  0  0  0  0  0
    4.4759   -2.5311    0.1120 H   0  0  0  0  0  0  0  0  0  0  0  0
    5.4247   -0.9637   -1.1065 C   0  0  0  0  0  0  0  0  0  0  0  0
    6.1110   -1.6557   -1.6169 H   0  0  0  0  0  0  0  0  0  0  0  0
    5.4612    0.3950   -1.4015 C   0  0  0  0  0  0  0  0  0  0  0  0
    6.1749    0.7846   -2.1442 H   0  0  0  0  0  0  0  0  0  0  0  0
    4.5797    1.3079   -0.7537 C   0  0  0  0  0  0  0  0  0  0  0  0
    4.5795    2.7079   -1.0207 C   0  0  0  0  0  0  0  0  0  0  0  0
    5.2924    3.1075   -1.7586 H   0  0  0  0  0  0  0  0  0  0  0  0
    3.6955    3.5562   -0.3636 C   0  0  0  0  0  0  0  0  0  0  0  0
    3.7067    4.6350   -0.5789 H   0  0  0  0  0  0  0  0  0  0  0  0
    2.7668    3.0405    0.5700 C   0  0  0  0  0  0  0  0  0  0  0  0
    2.0397    3.6909    1.0769 H   0  0  0  0  0  0  0  0  0  0  0  0
    3.6473    0.7933    0.2106 C   0  0  0  0  0  0  0  0  0  0  0  0
    1.7191    1.1478    1.7952 C   0  0  0  0  0  0  0  0  0  0  0  0
    0.8210   -3.5408   -0.0530 C   0  0  0  0  0  0  0  0  0  0  0  0
    1.3430   -4.2245    0.6200 H   0  0  0  0  0  0  0  0  0  0  0  0
    0.8780   -3.3925   -1.4133 C   0  0  0  0  0  0  0  0  0  0  0  0
    1.4470   -3.9370   -2.1719 H   0  0  0  0  0  0  0  0  0  0  0  0
    0.0291   -2.3408   -1.7367 N   0  0  0  0  0  0  0  0  0  0  0  0
   -0.2003   -1.8330   -3.0819 C   0  0  0  0  0  0  0  0  0  0  0  0
   -1.2799   -1.6346   -3.2153 H   0  0  0  0  0  0  0  0  0  0  0  0
    0.1316   -2.5924   -3.8135 H   0  0  0  0  0  0  0  0  0  0  0  0
    0.3491   -0.8817   -3.2255 H   0  0  0  0  0  0  0  0  0  0  0  0
  3  7  1  0  0  0  0
  4 13  1  0  0  0  0
  5 32  1  0  0  0  0
  6  3  1  0  0  0  0
  7  8  1  0  0  0  0
  7 10  1  0  0  0  0
  9  7  1  0  0  0  0
 10 13  1  0  0  0  0
 10 12  1  0  0  0  0
 11 10  1  0  0  0  0
 13 15  1  0  0  0  0
 13 14  1  0  0  0  0
 16  1  2  0  0  0  0
 16  4  1  0  0  0  0
 17 16  1  0  0  0  0
 18 19  1  0  0  0  0
 18 17  2  0  0  0  0
 20 18  1  0  0  0  0
 21 20  1  0  0  0  0
 22 20  2  0  0  0  0
 22 24  1  0  0  0  0
 23 22  1  0  0  0  0
 24 31  1  0  0  0  0
 25 24  2  0  0  0  0
 25 27  1  0  0  0  0
 26 25  1  0  0  0  0
 27 29  2  0  0  0  0
 28 27  1  0  0  0  0
 29  5  1  0  0  0  0
 29 30  1  0  0  0  0
 31 17  1  0  0  0  0
 31  5  2  0  0  0  0
 32  4  1  0  0  0  0
 32  2  2  0  0  0  0
 33  3  1  0  0  0  0
 33 34  1  0  0  0  0
 35 33  2  0  0  0  0
 36 35  1  0  0  0  0
 37 35  1  0  0  0  0
 37  6  1  0  0  0  0
 38 37  1  0  0  0  0
 39 38  1  0  0  0  0
 40 38  1  0  0  0  0
 41 38  1  0  0  0  0
M  END
