1
 OpenBabel05122313113D

 24 24  0  0  0  0  0  0  0  0999 V2000
    1.6690    0.0022    0.1768 C   0  0  0  0  0  3  0  0  0  0  0  0
    2.2092    0.0144    1.4306 C   0  0  0  0  0  0  0  0  0  0  0  0
    1.4835    0.1055    2.7583 C   0  0  0  0  0  0  0  0  0  0  0  0
    2.0202   -0.9842    3.7141 C   0  0  0  0  0  0  0  0  0  0  0  0
    1.7738    1.4940    3.3756 C   0  0  0  0  0  0  0  0  0  0  0  0
   -0.0369   -0.0901    2.6120 C   0  0  0  0  0  0  0  0  0  0  0  0
    2.5462   -0.0272   -0.9856 C   0  0  0  0  0  0  0  0  0  0  0  0
    2.3262   -0.0245   -2.3596 C   0  0  0  0  0  0  0  0  0  0  0  0
    3.6072   -0.0617   -2.9993 C   0  0  0  0  0  0  0  0  0  0  0  0
    4.5324   -0.0861   -1.9814 C   0  0  0  0  0  0  0  0  0  0  0  0
    3.9093   -0.0653   -0.7717 O   0  0  0  0  0  0  0  0  0  0  0  0
    3.3117    0.0089    1.5204 H   0  0  0  0  0  0  0  0  0  0  0  0
    1.8590   -1.9988    3.2949 H   0  0  0  0  0  0  0  0  0  0  0  0
    3.1089   -0.8612    3.8805 H   0  0  0  0  0  0  0  0  0  0  0  0
    1.5194   -0.9338    4.7029 H   0  0  0  0  0  0  0  0  0  0  0  0
    1.3849    2.3087    2.7322 H   0  0  0  0  0  0  0  0  0  0  0  0
    1.3117    1.5923    4.3801 H   0  0  0  0  0  0  0  0  0  0  0  0
    2.8642    1.6557    3.4863 H   0  0  0  0  0  0  0  0  0  0  0  0
   -0.3108   -1.1430    2.4362 H   0  0  0  0  0  0  0  0  0  0  0  0
   -0.5876    0.2327    3.5199 H   0  0  0  0  0  0  0  0  0  0  0  0
   -0.4876    0.6067    1.8262 H   0  0  0  0  0  0  0  0  0  0  0  0
    1.3471    0.0008   -2.8491 H   0  0  0  0  0  0  0  0  0  0  0  0
    3.8185   -0.0699   -4.0740 H   0  0  0  0  0  0  0  0  0  0  0  0
    5.6267   -0.1175   -1.9571 H   0  0  0  0  0  0  0  0  0  0  0  0
  1  2  2  0  0  0  0
  2 12  1  0  0  0  0
  2  3  1  0  0  0  0
  3  5  1  0  0  0  0
  3  4  1  0  0  0  0
  4 14  1  0  0  0  0
  4 15  1  0  0  0  0
  5 18  1  0  0  0  0
  5 17  1  0  0  0  0
  6  3  1  0  0  0  0
  6 20  1  0  0  0  0
  7 11  1  0  0  0  0
  7  1  1  0  0  0  0
  8  7  2  0  0  0  0
  9  8  1  0  0  0  0
  9 10  2  0  0  0  0
 10 24  1  0  0  0  0
 10 11  1  0  0  0  0
 13  4  1  0  0  0  0
 16  5  1  0  0  0  0
 19  6  1  0  0  0  0
 21  6  1  0  0  0  0
 22  8  1  0  0  0  0
 23  9  1  0  0  0  0
M  END
