6
 OpenBabel05122313113D

 50 53  0  0  0  0  0  0  0  0999 V2000
    3.7812   -2.0095   -0.2358 O   0  0  0  0  0  0  0  0  0  0  0  0
    3.7849    2.5778   -0.1378 O   0  0  0  0  0  0  0  0  0  0  0  0
   -0.1569   -1.2722   -0.9919 N   0  0  0  0  0  0  0  0  0  0  0  0
    3.7852    0.2804   -0.0948 N   0  0  0  0  0  0  0  0  0  0  0  0
   -1.4963   -2.5557    0.1356 N   0  0  0  0  0  0  0  0  0  0  0  0
   -1.3890   -1.3124   -0.4094 C   0  0  0  0  0  2  0  0  0  0  0  0
    0.3346   -0.1133   -1.7455 C   0  0  0  0  0  0  0  0  0  0  0  0
   -0.2151    0.7606   -1.3425 H   0  0  0  0  0  0  0  0  0  0  0  0
    0.0416   -0.2329   -2.8097 H   0  0  0  0  0  0  0  0  0  0  0  0
    1.8418    0.0866   -1.6295 C   0  0  0  0  0  0  0  0  0  0  0  0
    2.1080    0.9856   -2.2224 H   0  0  0  0  0  0  0  0  0  0  0  0
    2.3808   -0.7670   -2.0906 H   0  0  0  0  0  0  0  0  0  0  0  0
    2.3206    0.2719   -0.1849 C   0  0  0  0  0  0  0  0  0  0  0  0
    1.9526    1.2280    0.2273 H   0  0  0  0  0  0  0  0  0  0  0  0
    1.9555   -0.5526    0.4552 H   0  0  0  0  0  0  0  0  0  0  0  0
    4.4300   -0.9685   -0.1197 C   0  0  0  0  0  0  0  0  0  0  0  0
    5.9114   -0.9571    0.0020 C   0  0  0  0  0  0  0  0  0  0  0  0
    6.6071   -2.1652    0.0290 C   0  0  0  0  0  0  0  0  0  0  0  0
    6.0280   -3.0977   -0.0409 H   0  0  0  0  0  0  0  0  0  0  0  0
    8.0174   -2.1756    0.1449 C   0  0  0  0  0  0  0  0  0  0  0  0
    8.5535   -3.1360    0.1677 H   0  0  0  0  0  0  0  0  0  0  0  0
    8.7260   -0.9822    0.2292 C   0  0  0  0  0  0  0  0  0  0  0  0
    9.8235   -0.9909    0.3184 H   0  0  0  0  0  0  0  0  0  0  0  0
    8.0499    0.2722    0.2010 C   0  0  0  0  0  0  0  0  0  0  0  0
    8.7293    1.5225    0.2798 C   0  0  0  0  0  0  0  0  0  0  0  0
    9.8268    1.5250    0.3690 H   0  0  0  0  0  0  0  0  0  0  0  0
    8.0233    2.7199    0.2441 C   0  0  0  0  0  0  0  0  0  0  0  0
    8.5614    3.6774    0.3058 H   0  0  0  0  0  0  0  0  0  0  0  0
    6.6129    2.7177    0.1282 C   0  0  0  0  0  0  0  0  0  0  0  0
    6.0357    3.6536    0.0967 H   0  0  0  0  0  0  0  0  0  0  0  0
    5.9140    1.5135    0.0520 C   0  0  0  0  0  0  0  0  0  0  0  0
    4.4315    1.5373   -0.0680 C   0  0  0  0  0  0  0  0  0  0  0  0
    6.6169    0.2764    0.0869 C   0  0  0  0  0  0  0  0  0  0  0  0
    0.5130   -2.4776   -0.8014 C   0  0  0  0  0  0  0  0  0  0  0  0
    1.5485   -2.6370   -1.1167 H   0  0  0  0  0  0  0  0  0  0  0  0
   -0.3336   -3.2818   -0.0825 C   0  0  0  0  0  0  0  0  0  0  0  0
   -0.2030   -4.2993    0.2966 H   0  0  0  0  0  0  0  0  0  0  0  0
   -2.6644   -3.0039    0.8932 C   0  0  0  0  0  0  0  0  0  0  0  0
   -2.6770   -4.1121    0.8633 H   0  0  0  0  0  0  0  0  0  0  0  0
   -3.5484   -2.6455    0.3288 H   0  0  0  0  0  0  0  0  0  0  0  0
   -2.6764   -2.4801    2.3338 C   0  0  0  0  0  0  0  0  0  0  0  0
   -2.3707   -1.4113    2.3174 H   0  0  0  0  0  0  0  0  0  0  0  0
   -1.9076   -3.0188    2.9280 H   0  0  0  0  0  0  0  0  0  0  0  0
   -4.0547   -2.6046    2.9977 C   0  0  0  0  0  0  0  0  0  0  0  0
   -4.4155   -3.6558    2.9250 H   0  0  0  0  0  0  0  0  0  0  0  0
   -3.9387   -2.4040    4.0839 H   0  0  0  0  0  0  0  0  0  0  0  0
   -5.1051   -1.6507    2.4184 C   0  0  0  0  0  0  0  0  0  0  0  0
   -4.7700   -0.5962    2.5061 H   0  0  0  0  0  0  0  0  0  0  0  0
   -6.0739   -1.7477    2.9486 H   0  0  0  0  0  0  0  0  0  0  0  0
   -5.2958   -1.8399    1.3418 H   0  0  0  0  0  0  0  0  0  0  0  0
  1 16  2  0  0  0  0
  2 32  2  0  0  0  0
  3 34  1  0  0  0  0
  3  6  1  0  0  0  0
  4 32  1  0  0  0  0
  5 38  1  0  0  0  0
  6  5  1  0  0  0  0
  7 10  1  0  0  0  0
  7  8  1  0  0  0  0
  7  3  1  0  0  0  0
  9  7  1  0  0  0  0
 10 13  1  0  0  0  0
 11 10  1  0  0  0  0
 12 10  1  0  0  0  0
 13  4  1  0  0  0  0
 13 14  1  0  0  0  0
 13 15  1  0  0  0  0
 16  4  1  0  0  0  0
 16 17  1  0  0  0  0
 17 18  2  0  0  0  0
 17 33  1  0  0  0  0
 18 20  1  0  0  0  0
 19 18  1  0  0  0  0
 20 21  1  0  0  0  0
 20 22  2  0  0  0  0
 22 23  1  0  0  0  0
 24 22  1  0  0  0  0
 24 25  1  0  0  0  0
 25 26  1  0  0  0  0
 27 25  2  0  0  0  0
 27 28  1  0  0  0  0
 29 27  1  0  0  0  0
 30 29  1  0  0  0  0
 31 33  1  0  0  0  0
 31 29  2  0  0  0  0
 32 31  1  0  0  0  0
 33 24  2  0  0  0  0
 34 36  2  0  0  0  0
 35 34  1  0  0  0  0
 36  5  1  0  0  0  0
 36 37  1  0  0  0  0
 38 41  1  0  0  0  0
 39 38  1  0  0  0  0
 40 38  1  0  0  0  0
 41 43  1  0  0  0  0
 41 44  1  0  0  0  0
 42 41  1  0  0  0  0
 44 46  1  0  0  0  0
 45 44  1  0  0  0  0
 47 48  1  0  0  0  0
 47 49  1  0  0  0  0
 47 44  1  0  0  0  0
 50 47  1  0  0  0  0
M  END
