13
 OpenBabel05122313113D

 51 52  0  0  1  0  0  0  0  0999 V2000
   -0.3081   -3.0585   -1.7962 Si  0  0  0  0  0  0  0  0  0  0  0  0
    0.9465   -2.5815   -0.4731 C   0  0  0  0  0  0  0  0  0  0  0  0
    2.0477   -1.6741   -0.6424 C   0  0  0  0  0  0  0  0  0  0  0  0
    2.4842   -1.1955    0.6361 C   0  0  0  0  0  0  0  0  0  0  0  0
    1.6069   -1.7701    1.6044 C   0  0  0  0  0  0  0  0  0  0  0  0
    0.6754   -2.6122    0.9311 C   0  0  0  0  0  3  0  0  0  0  0  0
    3.7854   -0.4564    0.9343 C   0  0  0  0  0  0  0  0  0  0  0  0
    3.6729    0.3836    2.2207 C   0  0  0  0  0  0  0  0  0  0  0  0
    4.8874   -1.5256    1.1345 C   0  0  0  0  0  0  0  0  0  0  0  0
    4.1842    0.4581   -0.2364 C   0  0  0  0  0  0  0  0  0  0  0  0
    0.5316   -3.3651   -3.4574 C   0  0  0  0  0  0  0  0  0  0  0  0
   -1.3454   -4.5338   -1.2361 C   0  0  0  0  0  0  0  0  0  0  0  0
   -1.3353   -1.4807   -1.8390 C   0  0  1  0  0  3  0  0  0  0  0  0
   -2.3667   -1.0980   -0.9153 C   0  0  0  0  0  3  0  0  0  0  0  0
   -2.5663    0.3189   -0.9732 C   0  0  0  0  0  0  0  0  0  0  0  0
   -1.6191    0.8281   -1.9131 C   0  0  0  0  0  0  0  0  0  0  0  0
   -0.8749   -0.2641   -2.4397 C   0  0  0  0  0  3  0  0  0  0  0  0
   -3.6866    1.1362   -0.3314 C   0  0  0  0  0  0  0  0  0  0  0  0
   -3.1194    2.3602    0.4166 C   0  0  0  0  0  0  0  0  0  0  0  0
   -4.5076    0.2852    0.6518 C   0  0  0  0  0  0  0  0  0  0  0  0
   -4.6272    1.6262   -1.4578 C   0  0  0  0  0  0  0  0  0  0  0  0
    2.5140   -1.4226   -1.6054 H   0  0  0  0  0  0  0  0  0  0  0  0
    1.6805   -1.6352    2.6922 H   0  0  0  0  0  0  0  0  0  0  0  0
   -0.1221   -3.2001    1.4086 H   0  0  0  0  0  0  0  0  0  0  0  0
    4.6347    0.8923    2.4360 H   0  0  0  0  0  0  0  0  0  0  0  0
    3.4282   -0.2454    3.1006 H   0  0  0  0  0  0  0  0  0  0  0  0
    2.8924    1.1644    2.1213 H   0  0  0  0  0  0  0  0  0  0  0  0
    5.8673   -1.0469    1.3441 H   0  0  0  0  0  0  0  0  0  0  0  0
    4.9946   -2.1536    0.2275 H   0  0  0  0  0  0  0  0  0  0  0  0
    4.6395   -2.1966    1.9816 H   0  0  0  0  0  0  0  0  0  0  0  0
    5.1235    1.0009   -0.0055 H   0  0  0  0  0  0  0  0  0  0  0  0
    3.3940    1.2035   -0.4427 H   0  0  0  0  0  0  0  0  0  0  0  0
    4.3573   -0.1217   -1.1650 H   0  0  0  0  0  0  0  0  0  0  0  0
    1.2064   -4.2433   -3.4016 H   0  0  0  0  0  0  0  0  0  0  0  0
    1.1409   -2.4894   -3.7603 H   0  0  0  0  0  0  0  0  0  0  0  0
   -0.2180   -3.5477   -4.2538 H   0  0  0  0  0  0  0  0  0  0  0  0
   -0.7154   -5.4376   -1.1103 H   0  0  0  0  0  0  0  0  0  0  0  0
   -2.1374   -4.7608   -1.9785 H   0  0  0  0  0  0  0  0  0  0  0  0
   -1.8416   -4.3287   -0.2657 H   0  0  0  0  0  0  0  0  0  0  0  0
   -2.9448   -1.7989   -0.2968 H   0  0  0  0  0  0  0  0  0  0  0  0
   -1.5143    1.8766   -2.2159 H   0  0  0  0  0  0  0  0  0  0  0  0
   -0.0646   -0.1835   -3.1782 H   0  0  0  0  0  0  0  0  0  0  0  0
   -3.9403    2.9858    0.8251 H   0  0  0  0  0  0  0  0  0  0  0  0
   -2.5050    2.9984   -0.2482 H   0  0  0  0  0  0  0  0  0  0  0  0
   -2.4782    2.0404    1.2622 H   0  0  0  0  0  0  0  0  0  0  0  0
   -4.9654   -0.5907    0.1501 H   0  0  0  0  0  0  0  0  0  0  0  0
   -5.3277    0.8878    1.0928 H   0  0  0  0  0  0  0  0  0  0  0  0
   -3.8794   -0.0859    1.4854 H   0  0  0  0  0  0  0  0  0  0  0  0
   -5.0391    0.7688   -2.0271 H   0  0  0  0  0  0  0  0  0  0  0  0
   -4.0871    2.2773   -2.1732 H   0  0  0  0  0  0  0  0  0  0  0  0
   -5.4760    2.2062   -1.0377 H   0  0  0  0  0  0  0  0  0  0  0  0
  1 12  1  0  0  0  0
  1  2  1  0  0  0  0
  2  6  1  0  0  0  0
  3  2  2  0  0  0  0
  3  4  1  0  0  0  0
  4  7  1  0  0  0  0
  4  5  2  0  0  0  0
  5 23  1  0  0  0  0
  6 24  1  0  0  0  0
  6  5  1  0  0  0  0
  7  9  1  0  0  0  0
  7  8  1  0  0  0  0
  8 25  1  0  0  0  0
  8 26  1  0  0  0  0
  9 28  1  0  0  0  0
  9 30  1  0  0  0  0
 10 31  1  0  0  0  0
 10  7  1  0  0  0  0
 11 34  1  0  0  0  0
 11  1  1  0  0  0  0
 12 37  1  0  0  0  0
 12 39  1  0  0  0  0
 13  1  1  1  0  0  0
 13 14  1  0  0  0  0
 14 40  1  0  0  0  0
 15 14  1  0  0  0  0
 15 18  1  0  0  0  0
 16 15  2  0  0  0  0
 17 16  1  0  0  0  0
 17 13  1  0  0  0  0
 18 19  1  0  0  0  0
 18 20  1  0  0  0  0
 19 43  1  0  0  0  0
 19 45  1  0  0  0  0
 20 47  1  0  0  0  0
 20 48  1  0  0  0  0
 21 51  1  0  0  0  0
 21 18  1  0  0  0  0
 22  3  1  0  0  0  0
 27  8  1  0  0  0  0
 29  9  1  0  0  0  0
 32 10  1  0  0  0  0
 33 10  1  0  0  0  0
 35 11  1  0  0  0  0
 36 11  1  0  0  0  0
 38 12  1  0  0  0  0
 41 16  1  0  0  0  0
 42 17  1  0  0  0  0
 44 19  1  0  0  0  0
 46 20  1  0  0  0  0
 49 21  1  0  0  0  0
 50 21  1  0  0  0  0
M  END
