1
 OpenBabel05122313113D

 57 60  0  0  0  0  0  0  0  0999 V2000
   -1.2647    0.0722   -0.8150 C   0  0  0  0  0  2  0  0  0  0  0  0
   -2.2218    0.9999   -1.0277 N   0  0  0  0  0  0  0  0  0  0  0  0
   -0.0277    0.3342   -1.3153 N   0  0  0  0  0  0  0  0  0  0  0  0
    0.1981    1.2982   -1.5804 H   0  0  0  0  0  0  0  0  0  0  0  0
   -3.5550    0.8161   -0.3971 C   0  0  0  0  0  0  0  0  0  0  0  0
   -3.4689   -0.1620    0.1237 H   0  0  0  0  0  0  0  0  0  0  0  0
   -3.8178    1.8879    0.6637 C   0  0  0  0  0  0  0  0  0  0  0  0
   -2.9955    1.9089    1.4064 H   0  0  0  0  0  0  0  0  0  0  0  0
   -4.7613    1.6606    1.1982 H   0  0  0  0  0  0  0  0  0  0  0  0
   -3.9234    2.9031    0.2265 H   0  0  0  0  0  0  0  0  0  0  0  0
   -4.6695    0.6949   -1.4377 C   0  0  0  0  0  0  0  0  0  0  0  0
   -4.8345    1.6354   -2.0043 H   0  0  0  0  0  0  0  0  0  0  0  0
   -5.6233    0.4483   -0.9310 H   0  0  0  0  0  0  0  0  0  0  0  0
   -4.4465   -0.1166   -2.1583 H   0  0  0  0  0  0  0  0  0  0  0  0
   -2.0559    2.2418   -1.8313 C   0  0  0  0  0  0  0  0  0  0  0  0
   -3.0553    2.7159   -1.7898 H   0  0  0  0  0  0  0  0  0  0  0  0
   -1.0904    3.2683   -1.2130 C   0  0  0  0  0  0  0  0  0  0  0  0
   -1.2461    3.3572   -0.1213 H   0  0  0  0  0  0  0  0  0  0  0  0
   -1.2742    4.2601   -1.6721 H   0  0  0  0  0  0  0  0  0  0  0  0
   -0.0140    3.0521   -1.3743 H   0  0  0  0  0  0  0  0  0  0  0  0
   -1.7835    1.9480   -3.3136 C   0  0  0  0  0  0  0  0  0  0  0  0
   -0.8028    1.4643   -3.4855 H   0  0  0  0  0  0  0  0  0  0  0  0
   -1.7975    2.8952   -3.8886 H   0  0  0  0  0  0  0  0  0  0  0  0
   -2.5635    1.2801   -3.7272 H   0  0  0  0  0  0  0  0  0  0  0  0
    2.2693    0.0932   -0.5799 C   0  0  0  0  0  0  0  0  0  0  0  0
    1.1167   -0.4866   -1.1254 C   0  0  0  0  0  0  0  0  0  0  0  0
    1.0905   -1.8523   -1.5209 C   0  0  0  0  0  0  0  0  0  0  0  0
    0.1729   -2.2591   -1.9673 H   0  0  0  0  0  0  0  0  0  0  0  0
    2.2157   -2.6384   -1.3564 C   0  0  0  0  0  0  0  0  0  0  0  0
    2.1967   -3.6960   -1.6597 H   0  0  0  0  0  0  0  0  0  0  0  0
    3.4141   -2.1006   -0.8040 C   0  0  0  0  0  0  0  0  0  0  0  0
    4.5801   -2.9001   -0.6244 C   0  0  0  0  0  0  0  0  0  0  0  0
    4.5436   -3.9570   -0.9310 H   0  0  0  0  0  0  0  0  0  0  0  0
    5.7330   -2.3668   -0.0686 C   0  0  0  0  0  0  0  0  0  0  0  0
    6.6245   -2.9975    0.0672 H   0  0  0  0  0  0  0  0  0  0  0  0
    5.7605   -1.0066    0.3378 C   0  0  0  0  0  0  0  0  0  0  0  0
    6.6725   -0.5916    0.7930 H   0  0  0  0  0  0  0  0  0  0  0  0
    4.6448   -0.1984    0.1724 C   0  0  0  0  0  0  0  0  0  0  0  0
    4.6703    0.8509    0.4990 H   0  0  0  0  0  0  0  0  0  0  0  0
    3.4473   -0.7114   -0.4105 C   0  0  0  0  0  0  0  0  0  0  0  0
    2.2371    1.5246   -0.1586 C   0  0  0  0  0  0  0  0  0  0  0  0
    2.9543    2.4868   -0.8715 C   0  0  0  0  0  0  0  0  0  0  0  0
    3.5657    2.1670   -1.7292 H   0  0  0  0  0  0  0  0  0  0  0  0
    2.9027    3.8601   -0.5152 C   0  0  0  0  0  0  0  0  0  0  0  0
    3.4829    4.5928   -1.0962 H   0  0  0  0  0  0  0  0  0  0  0  0
    2.1176    4.2754    0.5488 C   0  0  0  0  0  0  0  0  0  0  0  0
    2.0623    5.3408    0.8219 H   0  0  0  0  0  0  0  0  0  0  0  0
    1.3582    3.3339    1.3036 C   0  0  0  0  0  0  0  0  0  0  0  0
    0.5104    3.7424    2.3760 C   0  0  0  0  0  0  0  0  0  0  0  0
    0.4609    4.8132    2.6289 H   0  0  0  0  0  0  0  0  0  0  0  0
   -0.2409    2.8153    3.0836 C   0  0  0  0  0  0  0  0  0  0  0  0
   -0.8966    3.1465    3.9033 H   0  0  0  0  0  0  0  0  0  0  0  0
   -0.1569    1.4343    2.7604 C   0  0  0  0  0  0  0  0  0  0  0  0
   -0.7475    0.6960    3.3234 H   0  0  0  0  0  0  0  0  0  0  0  0
    0.6683    1.0030    1.7321 C   0  0  0  0  0  0  0  0  0  0  0  0
    0.7232   -0.0693    1.4921 H   0  0  0  0  0  0  0  0  0  0  0  0
    1.4286    1.9324    0.9628 C   0  0  0  0  0  0  0  0  0  0  0  0
  2  1  1  0  0  0  0
  2  5  1  0  0  0  0
  3 26  1  0  0  0  0
  3  1  1  0  0  0  0
  4  3  1  0  0  0  0
  5  6  1  0  0  0  0
  5  7  1  0  0  0  0
  7  9  1  0  0  0  0
  7  8  1  0  0  0  0
 10  7  1  0  0  0  0
 11 13  1  0  0  0  0
 11  5  1  0  0  0  0
 12 11  1  0  0  0  0
 14 11  1  0  0  0  0
 15 16  1  0  0  0  0
 15 17  1  0  0  0  0
 15  2  1  0  0  0  0
 17 18  1  0  0  0  0
 19 17  1  0  0  0  0
 20 17  1  0  0  0  0
 21 15  1  0  0  0  0
 22 21  1  0  0  0  0
 23 21  1  0  0  0  0
 24 21  1  0  0  0  0
 25 40  1  0  0  0  0
 25 41  1  0  0  0  0
 26 25  2  0  0  0  0
 27 29  2  0  0  0  0
 27 26  1  0  0  0  0
 28 27  1  0  0  0  0
 29 31  1  0  0  0  0
 30 29  1  0  0  0  0
 31 32  2  0  0  0  0
 31 40  1  0  0  0  0
 32 34  1  0  0  0  0
 33 32  1  0  0  0  0
 34 35  1  0  0  0  0
 34 36  2  0  0  0  0
 36 37  1  0  0  0  0
 38 36  1  0  0  0  0
 38 39  1  0  0  0  0
 40 38  2  0  0  0  0
 41 57  1  0  0  0  0
 42 44  1  0  0  0  0
 42 41  2  0  0  0  0
 43 42  1  0  0  0  0
 44 46  2  0  0  0  0
 45 44  1  0  0  0  0
 46 47  1  0  0  0  0
 46 48  1  0  0  0  0
 48 49  1  0  0  0  0
 49 50  1  0  0  0  0
 49 51  2  0  0  0  0
 51 52  1  0  0  0  0
 53 51  1  0  0  0  0
 53 54  1  0  0  0  0
 55 53  2  0  0  0  0
 56 55  1  0  0  0  0
 57 48  2  0  0  0  0
 57 55  1  0  0  0  0
M  END
