2
 OpenBabel05122313113D

 24 24  0  0  0  0  0  0  0  0999 V2000
    3.1829    1.4969   -0.7334 P   0  0  0  0  0  4  0  0  0  0  0  0
    1.3838   -0.6107   -0.7948 C   0  0  0  0  0  3  0  0  0  0  0  0
    1.8042    0.5491   -0.1855 C   0  0  0  0  0  0  0  0  0  0  0  0
    2.7575    3.2663   -0.8689 C   0  0  0  0  0  0  0  0  0  0  0  0
    3.7457    0.9391   -2.3705 C   0  0  0  0  0  0  0  0  0  0  0  0
    4.5896    1.3627    0.4145 C   0  0  0  0  0  0  0  0  0  0  0  0
    5.6631    2.2783    0.3640 C   0  0  0  0  0  0  0  0  0  0  0  0
    6.7527    2.1195    1.2307 C   0  0  0  0  0  0  0  0  0  0  0  0
    6.7757    1.0531    2.1456 C   0  0  0  0  0  0  0  0  0  0  0  0
    5.7095    0.1419    2.1948 C   0  0  0  0  0  0  0  0  0  0  0  0
    4.6144    0.2915    1.3311 C   0  0  0  0  0  0  0  0  0  0  0  0
    1.8903   -0.9160   -1.7350 H   0  0  0  0  0  0  0  0  0  0  0  0
    1.3675    0.8977    0.7681 H   0  0  0  0  0  0  0  0  0  0  0  0
    1.9368    3.3769   -1.6034 H   0  0  0  0  0  0  0  0  0  0  0  0
    2.4159    3.6267    0.1208 H   0  0  0  0  0  0  0  0  0  0  0  0
    3.6279    3.8692   -1.1918 H   0  0  0  0  0  0  0  0  0  0  0  0
    4.0728   -0.1159   -2.3045 H   0  0  0  0  0  0  0  0  0  0  0  0
    4.6079    1.5595   -2.6820 H   0  0  0  0  0  0  0  0  0  0  0  0
    2.9278    1.0331   -3.1106 H   0  0  0  0  0  0  0  0  0  0  0  0
    5.6611    3.1179   -0.3483 H   0  0  0  0  0  0  0  0  0  0  0  0
    7.5892    2.8328    1.1924 H   0  0  0  0  0  0  0  0  0  0  0  0
    7.6327    0.9336    2.8251 H   0  0  0  0  0  0  0  0  0  0  0  0
    5.7274   -0.6928    2.9111 H   0  0  0  0  0  0  0  0  0  0  0  0
    3.7747   -0.4201    1.3653 H   0  0  0  0  0  0  0  0  0  0  0  0
  1  3  1  0  0  0  0
  1  6  1  0  0  0  0
  2  3  2  0  0  0  0
  3 13  1  0  0  0  0
  4  1  1  0  0  0  0
  4 15  1  0  0  0  0
  5 17  1  0  0  0  0
  5  1  1  0  0  0  0
  6 11  1  0  0  0  0
  7  6  2  0  0  0  0
  7  8  1  0  0  0  0
  8  9  2  0  0  0  0
  9 10  1  0  0  0  0
  9 22  1  0  0  0  0
 10 23  1  0  0  0  0
 11 24  1  0  0  0  0
 11 10  2  0  0  0  0
 12  2  1  0  0  0  0
 14  4  1  0  0  0  0
 16  4  1  0  0  0  0
 18  5  1  0  0  0  0
 19  5  1  0  0  0  0
 20  7  1  0  0  0  0
 21  8  1  0  0  0  0
M  END
