1
 OpenBabel05122313113D

 30 32  0  0  0  0  0  0  0  0999 V2000
   -0.0891   -0.9149   -0.1256 C   0  0  0  0  0  2  0  0  0  0  0  0
    1.5248    2.0988   -0.4947 C   0  0  0  0  0  0  0  0  0  0  0  0
    2.8198    2.4274   -0.6605 N   0  0  0  0  0  0  0  0  0  0  0  0
    1.2293    3.7356    1.2548 C   0  0  0  0  0  0  0  0  0  0  0  0
    0.6037    4.2479    2.0014 H   0  0  0  0  0  0  0  0  0  0  0  0
    3.3267    3.3991    0.1152 C   0  0  0  0  0  0  0  0  0  0  0  0
    4.3909    3.6472   -0.0451 H   0  0  0  0  0  0  0  0  0  0  0  0
    2.5774    4.0841    1.0848 C   0  0  0  0  0  0  0  0  0  0  0  0
    3.0441    4.8743    1.6914 H   0  0  0  0  0  0  0  0  0  0  0  0
    0.6890    2.7232    0.4513 C   0  0  0  0  0  0  0  0  0  0  0  0
   -0.3629    2.4101    0.5494 H   0  0  0  0  0  0  0  0  0  0  0  0
    0.9967    0.9743   -1.3652 C   0  0  0  0  0  0  0  0  0  0  0  0
   -0.0549    1.1554   -1.6599 H   0  0  0  0  0  0  0  0  0  0  0  0
    1.6248    0.8950   -2.2733 H   0  0  0  0  0  0  0  0  0  0  0  0
    1.0151   -0.3144   -0.6744 N   0  0  0  0  0  0  0  0  0  0  0  0
    2.1615   -1.0729   -0.4408 C   0  0  0  0  0  0  0  0  0  0  0  0
    0.3555   -2.0843    0.4377 N   0  0  0  0  0  0  0  0  0  0  0  0
    1.7317   -2.2228    0.2636 C   0  0  0  0  0  0  0  0  0  0  0  0
    2.6340   -3.2240    0.6498 C   0  0  0  0  0  0  0  0  0  0  0  0
    2.3034   -4.1195    1.1942 H   0  0  0  0  0  0  0  0  0  0  0  0
    4.4104   -1.8705   -0.3782 C   0  0  0  0  0  0  0  0  0  0  0  0
    5.4788   -1.7492   -0.6099 H   0  0  0  0  0  0  0  0  0  0  0  0
    3.5096   -0.8673   -0.7667 C   0  0  0  0  0  0  0  0  0  0  0  0
    3.8344    0.0580   -1.2632 H   0  0  0  0  0  0  0  0  0  0  0  0
    3.9819   -3.0272    0.3119 C   0  0  0  0  0  0  0  0  0  0  0  0
    4.7227   -3.7882    0.5982 H   0  0  0  0  0  0  0  0  0  0  0  0
   -0.4852   -3.0488    1.1225 C   0  0  0  0  0  0  0  0  0  0  0  0
   -0.1574   -3.1683    2.1747 H   0  0  0  0  0  0  0  0  0  0  0  0
   -0.4377   -4.0323    0.6131 H   0  0  0  0  0  0  0  0  0  0  0  0
   -1.5255   -2.6745    1.1030 H   0  0  0  0  0  0  0  0  0  0  0  0
  1 17  1  0  0  0  0
  2 10  1  0  0  0  0
  3  2  2  0  0  0  0
  3  6  1  0  0  0  0
  4  5  1  0  0  0  0
  6  8  2  0  0  0  0
  7  6  1  0  0  0  0
  8  4  1  0  0  0  0
  8  9  1  0  0  0  0
 10 11  1  0  0  0  0
 10  4  2  0  0  0  0
 12 15  1  0  0  0  0
 12  2  1  0  0  0  0
 13 12  1  0  0  0  0
 14 12  1  0  0  0  0
 15 16  1  0  0  0  0
 15  1  1  0  0  0  0
 16 18  1  0  0  0  0
 17 27  1  0  0  0  0
 18 17  1  0  0  0  0
 18 19  2  0  0  0  0
 19 20  1  0  0  0  0
 21 25  2  0  0  0  0
 22 21  1  0  0  0  0
 23 16  2  0  0  0  0
 23 21  1  0  0  0  0
 24 23  1  0  0  0  0
 25 26  1  0  0  0  0
 25 19  1  0  0  0  0
 27 28  1  0  0  0  0
 29 27  1  0  0  0  0
 30 27  1  0  0  0  0
M  END
