4
 OpenBabel05122313113D

 18 18  0  0  1  0  0  0  0  0999 V2000
    2.7724   -2.5069    0.9500 O   0  0  0  0  0  0  0  0  0  0  0  0
    2.3139   -1.8003    0.0527 C   0  0  0  0  0  0  0  0  0  0  0  0
    0.9237   -1.6849   -0.4096 C   0  0  0  0  0  3  0  0  0  0  0  0
    0.8249   -0.7179   -1.4940 C   0  0  0  0  0  3  0  0  0  0  0  0
    2.1013    0.0781   -1.4501 C   0  0  1  0  0  0  0  0  0  0  0  0
    3.1663   -0.8445   -0.8247 C   0  0  1  0  0  0  0  0  0  0  0  0
    2.4632    0.8695   -2.6997 C   0  0  0  0  0  0  0  0  0  0  0  0
    4.3314   -0.1929   -0.0967 C   0  0  0  0  0  0  0  0  0  0  0  0
    0.2177   -2.5165   -0.2779 H   0  0  0  0  0  0  0  0  0  0  0  0
    0.2038   -0.7932   -2.3953 H   0  0  0  0  0  0  0  0  0  0  0  0
    1.9890    0.9436   -0.6276 H   0  0  0  0  0  0  0  0  0  0  0  0
    3.5621   -1.4913   -1.6437 H   0  0  0  0  0  0  0  0  0  0  0  0
    1.6290    1.5393   -2.9829 H   0  0  0  0  0  0  0  0  0  0  0  0
    3.3713    1.4838   -2.5401 H   0  0  0  0  0  0  0  0  0  0  0  0
    2.6616    0.1651   -3.5325 H   0  0  0  0  0  0  0  0  0  0  0  0
    5.0584    0.2732   -0.7907 H   0  0  0  0  0  0  0  0  0  0  0  0
    4.8567   -0.9630    0.5035 H   0  0  0  0  0  0  0  0  0  0  0  0
    3.9783    0.5920    0.6040 H   0  0  0  0  0  0  0  0  0  0  0  0
  2  1  2  0  0  0  0
  3  9  1  0  0  0  0
  3  2  1  0  0  0  0
  4  5  1  0  0  0  0
  4  3  1  0  0  0  0
  5  6  1  0  0  0  0
  5 11  1  1  0  0  0
  6 12  1  6  0  0  0
  6  8  1  0  0  0  0
  6  2  1  0  0  0  0
  7 14  1  0  0  0  0
  7  5  1  0  0  0  0
  8 17  1  0  0  0  0
  8 18  1  0  0  0  0
 10  4  1  0  0  0  0
 13  7  1  0  0  0  0
 15  7  1  0  0  0  0
 16  8  1  0  0  0  0
M  END
