1
 OpenBabel05122313113D

 37 39  0  0  0  0  0  0  0  0999 V2000
    0.7887   -0.2075   -1.0055 C   0  0  0  0  0  3  0  0  0  0  0  0
    1.9961    0.2389   -0.1399 C   0  0  0  0  0  0  0  0  0  0  0  0
    3.1923    0.6941   -1.0154 C   0  0  0  0  0  0  0  0  0  0  0  0
    3.0584    0.9941   -2.3834 C   0  0  0  0  0  0  0  0  0  0  0  0
    4.1518    1.4565   -3.1363 C   0  0  0  0  0  0  0  0  0  0  0  0
    5.4052    1.6241   -2.5342 C   0  0  0  0  0  0  0  0  0  0  0  0
    5.5542    1.3290   -1.1683 C   0  0  0  0  0  0  0  0  0  0  0  0
    4.4609    0.8744   -0.4217 C   0  0  0  0  0  0  0  0  0  0  0  0
    1.6708    1.4655    0.7396 C   0  0  0  0  0  0  0  0  0  0  0  0
    2.2743    1.6525    1.9998 C   0  0  0  0  0  0  0  0  0  0  0  0
    2.0168    2.7969    2.7683 C   0  0  0  0  0  0  0  0  0  0  0  0
    1.1505    3.7905    2.2911 C   0  0  0  0  0  0  0  0  0  0  0  0
    0.5672    3.6359    1.0253 C   0  0  0  0  0  0  0  0  0  0  0  0
    0.8335    2.4929    0.2595 C   0  0  0  0  0  0  0  0  0  0  0  0
    2.3558   -1.0285    0.6628 C   0  0  0  0  0  0  0  0  0  0  0  0
    3.2248   -1.9924    0.1110 C   0  0  0  0  0  0  0  0  0  0  0  0
    3.4523   -3.2196    0.7549 C   0  0  0  0  0  0  0  0  0  0  0  0
    2.8179   -3.5062    1.9730 C   0  0  0  0  0  0  0  0  0  0  0  0
    1.9470   -2.5565    2.5307 C   0  0  0  0  0  0  0  0  0  0  0  0
    1.7079   -1.3370    1.8781 C   0  0  0  0  0  0  0  0  0  0  0  0
    1.1546   -0.9297   -1.7631 H   0  0  0  0  0  0  0  0  0  0  0  0
    0.3722    0.6588   -1.5939 H   0  0  0  0  0  0  0  0  0  0  0  0
    2.0866    0.8712   -2.8817 H   0  0  0  0  0  0  0  0  0  0  0  0
    4.0165    1.6851   -4.2047 H   0  0  0  0  0  0  0  0  0  0  0  0
    6.2626    1.9843   -3.1227 H   0  0  0  0  0  0  0  0  0  0  0  0
    6.5319    1.4569   -0.6788 H   0  0  0  0  0  0  0  0  0  0  0  0
    4.5926    0.6496    0.6468 H   0  0  0  0  0  0  0  0  0  0  0  0
    2.9515    0.8845    2.3995 H   0  0  0  0  0  0  0  0  0  0  0  0
    2.4950    2.9065    3.7536 H   0  0  0  0  0  0  0  0  0  0  0  0
    0.9353    4.6823    2.8986 H   0  0  0  0  0  0  0  0  0  0  0  0
   -0.1068    4.4099    0.6278 H   0  0  0  0  0  0  0  0  0  0  0  0
    0.3730    2.4126   -0.7352 H   0  0  0  0  0  0  0  0  0  0  0  0
    3.7332   -1.7783   -0.8408 H   0  0  0  0  0  0  0  0  0  0  0  0
    4.1367   -3.9531    0.3014 H   0  0  0  0  0  0  0  0  0  0  0  0
    3.0022   -4.4625    2.4857 H   0  0  0  0  0  0  0  0  0  0  0  0
    1.4412   -2.7651    3.4865 H   0  0  0  0  0  0  0  0  0  0  0  0
    1.0044   -0.6187    2.3225 H   0  0  0  0  0  0  0  0  0  0  0  0
  1  2  1  0  0  0  0
  2 15  1  0  0  0  0
  2  9  1  0  0  0  0
  3  8  1  0  0  0  0
  3  2  1  0  0  0  0
  4  3  2  0  0  0  0
  5  6  2  0  0  0  0
  5  4  1  0  0  0  0
  6  7  1  0  0  0  0
  7 26  1  0  0  0  0
  7  8  2  0  0  0  0
  8 27  1  0  0  0  0
  9 10  1  0  0  0  0
 10 28  1  0  0  0  0
 10 11  2  0  0  0  0
 11 29  1  0  0  0  0
 12 11  1  0  0  0  0
 12 30  1  0  0  0  0
 13 12  2  0  0  0  0
 14  9  2  0  0  0  0
 14 13  1  0  0  0  0
 15 20  1  0  0  0  0
 16 15  2  0  0  0  0
 16 17  1  0  0  0  0
 17 18  2  0  0  0  0
 18 35  1  0  0  0  0
 18 19  1  0  0  0  0
 19 36  1  0  0  0  0
 20 37  1  0  0  0  0
 20 19  2  0  0  0  0
 21  1  1  0  0  0  0
 22  1  1  0  0  0  0
 23  4  1  0  0  0  0
 24  5  1  0  0  0  0
 25  6  1  0  0  0  0
 31 13  1  0  0  0  0
 32 14  1  0  0  0  0
 33 16  1  0  0  0  0
 34 17  1  0  0  0  0
M  END
