4
 OpenBabel05122313113D

 24 25  0  0  1  0  0  0  0  0999 V2000
    1.4914    0.9638   -1.0523 C   0  0  2  0  0  3  0  0  0  0  0  0
    0.7251    0.2764   -2.0217 C   0  0  0  0  0  0  0  0  0  0  0  0
   -0.5567    0.7626   -2.4519 C   0  0  0  0  0  0  0  0  0  0  0  0
   -1.1293    1.8607   -1.7762 C   0  0  0  0  0  3  0  0  0  0  0  0
   -0.3245    2.5498   -0.7354 C   0  0  0  0  0  0  0  0  0  0  0  0
    1.1917    2.4512   -0.8681 C   0  0  0  0  0  0  0  0  0  0  0  0
    2.7864    0.4100   -0.5898 C   0  0  0  0  0  0  0  0  0  0  0  0
    3.8369    1.2671   -0.1900 C   0  0  0  0  0  0  0  0  0  0  0  0
    5.0784    0.7504    0.2073 C   0  0  0  0  0  0  0  0  0  0  0  0
    5.2949   -0.6346    0.2240 C   0  0  0  0  0  0  0  0  0  0  0  0
    4.2550   -1.4997   -0.1582 C   0  0  0  0  0  0  0  0  0  0  0  0
    3.0170   -0.9868   -0.5565 C   0  0  0  0  0  0  0  0  0  0  0  0
    1.0885   -0.6785   -2.4272 H   0  0  0  0  0  0  0  0  0  0  0  0
   -1.1262    0.2261   -3.2235 H   0  0  0  0  0  0  0  0  0  0  0  0
   -2.1341    2.2209   -2.0410 H   0  0  0  0  0  0  0  0  0  0  0  0
   -0.7239    3.5454   -0.4636 H   0  0  0  0  0  0  0  0  0  0  0  0
   -0.5519    2.0234    0.3401 H   0  0  0  0  0  0  0  0  0  0  0  0
    1.6475    2.8121    0.0729 H   0  0  0  0  0  0  0  0  0  0  0  0
    1.6029    3.0647   -1.7016 H   0  0  0  0  0  0  0  0  0  0  0  0
    3.6944    2.3570   -0.2005 H   0  0  0  0  0  0  0  0  0  0  0  0
    5.8819    1.4396    0.5083 H   0  0  0  0  0  0  0  0  0  0  0  0
    6.2660   -1.0412    0.5438 H   0  0  0  0  0  0  0  0  0  0  0  0
    4.4047   -2.5895   -0.1294 H   0  0  0  0  0  0  0  0  0  0  0  0
    2.2018   -1.6807   -0.8028 H   0  0  0  0  0  0  0  0  0  0  0  0
  1  6  1  0  0  0  0
  1  7  1  6  0  0  0
  2  1  1  0  0  0  0
  3  2  2  0  0  0  0
  3  4  1  0  0  0  0
  4  5  1  0  0  0  0
  5 16  1  0  0  0  0
  5 17  1  0  0  0  0
  6  5  1  0  0  0  0
  6 18  1  0  0  0  0
  7 12  2  0  0  0  0
  7  8  1  0  0  0  0
  8  9  2  0  0  0  0
  9 10  1  0  0  0  0
  9 21  1  0  0  0  0
 10 22  1  0  0  0  0
 11 23  1  0  0  0  0
 11 10  2  0  0  0  0
 12 11  1  0  0  0  0
 13  2  1  0  0  0  0
 14  3  1  0  0  0  0
 15  4  1  0  0  0  0
 19  6  1  0  0  0  0
 20  8  1  0  0  0  0
 24 12  1  0  0  0  0
M  END
