8
 OpenBabel05122313113D

 30 31  0  0  1  0  0  0  0  0999 V2000
    3.4818    1.1680   -1.8982 C   0  0  0  0  0  3  0  0  0  0  0  0
    4.1067    0.8676   -2.7476 H   0  0  0  0  0  0  0  0  0  0  0  0
    3.9193    1.9161   -0.7432 C   0  0  0  0  0  0  0  0  0  0  0  0
    4.9369    2.2780   -0.5570 H   0  0  0  0  0  0  0  0  0  0  0  0
    2.7839    2.1206    0.0986 C   0  0  0  0  0  0  0  0  0  0  0  0
    2.7543    2.6619    1.0517 H   0  0  0  0  0  0  0  0  0  0  0  0
    1.6354    1.5075   -0.5142 C   0  0  2  0  0  3  0  0  0  0  0  0
    2.0830    0.9149   -1.7598 C   0  0  0  0  0  3  0  0  0  0  0  0
    1.4541    0.4031   -2.4988 H   0  0  0  0  0  0  0  0  0  0  0  0
    0.2552    1.5929    0.0646 C   0  0  0  0  0  0  0  0  0  0  0  0
   -1.9259    0.3459    0.0302 C   0  0  0  0  0  0  0  0  0  0  0  0
   -2.6981    1.2876    0.7469 C   0  0  0  0  0  0  0  0  0  0  0  0
   -2.2327    2.2258    1.0697 H   0  0  0  0  0  0  0  0  0  0  0  0
   -4.0346    0.9954    1.0469 C   0  0  0  0  0  0  0  0  0  0  0  0
   -4.6466    1.7112    1.6153 H   0  0  0  0  0  0  0  0  0  0  0  0
   -4.6074   -0.2249    0.6524 C   0  0  0  0  0  0  0  0  0  0  0  0
   -3.8425   -1.1691   -0.0547 C   0  0  0  0  0  0  0  0  0  0  0  0
   -4.3055   -2.1165   -0.3599 H   0  0  0  0  0  0  0  0  0  0  0  0
   -2.5105   -0.8822   -0.3586 C   0  0  0  0  0  0  0  0  0  0  0  0
   -1.9023   -1.6271   -0.8967 H   0  0  0  0  0  0  0  0  0  0  0  0
   -0.5848    0.5662   -0.3259 N   0  0  0  0  0  0  0  0  0  0  0  0
   -0.1463   -0.2044   -0.8337 H   0  0  0  0  0  0  0  0  0  0  0  0
   -7.0433    1.2231   -0.7203 N   0  0  0  0  0  0  0  0  0  0  0  0
   -6.1471    1.4818   -1.1524 H   0  0  0  0  0  0  0  0  0  0  0  0
   -7.2998    1.8439    0.0571 H   0  0  0  0  0  0  0  0  0  0  0  0
   -0.0621    2.5133    0.8137 O   0  0  0  0  0  0  0  0  0  0  0  0
   -6.5705   -1.1566   -1.4027 O   0  0  0  0  0  1  0  0  0  0  0  0
   -8.3307   -0.6415    0.4265 O   0  0  0  0  0  1  0  0  0  0  0  0
   -5.9240   -0.4918    0.9997 O   0  0  0  0  0  0  0  0  0  0  0  0
   -7.0718   -0.3865   -0.2612 S   0  0  0  0  0  0  0  0  0  0  0  0
  1  8  1  0  0  0  0
  1  3  1  0  0  0  0
  2  1  1  0  0  0  0
  3  4  1  0  0  0  0
  3  5  2  0  0  0  0
  5  6  1  0  0  0  0
  7 10  1  6  0  0  0
  7  5  1  0  0  0  0
  8  7  1  0  0  0  0
  9  8  1  0  0  0  0
 10 26  2  0  0  0  0
 11 12  1  0  0  0  0
 12 14  2  0  0  0  0
 12 13  1  0  0  0  0
 14 15  1  0  0  0  0
 16 29  1  0  0  0  0
 16 14  1  0  0  0  0
 17 16  2  0  0  0  0
 18 17  1  0  0  0  0
 19 17  1  0  0  0  0
 19 11  2  0  0  0  0
 20 19  1  0  0  0  0
 21 11  1  0  0  0  0
 21 10  1  0  0  0  0
 22 21  1  0  0  0  0
 23 30  1  0  0  0  0
 23 25  1  0  0  0  0
 24 23  1  0  0  0  0
 27 30  1  0  0  0  0
 30 28  1  0  0  0  0
 30 29  1  0  0  0  0
M  END
