3
 OpenBabel05122313113D

 24 26  0  0  0  0  0  0  0  0999 V2000
   -1.9739   -1.5846   -0.3035 C   0  0  0  0  0  3  0  0  0  0  0  0
   -1.3188   -2.3760   -0.6936 H   0  0  0  0  0  0  0  0  0  0  0  0
   -1.8996   -1.1932    1.0423 C   0  0  0  0  0  3  0  0  0  0  0  0
   -1.1930   -1.6910    1.7230 H   0  0  0  0  0  0  0  0  0  0  0  0
   -2.9262   -0.3484    1.6264 C   0  0  0  0  0  0  0  0  0  0  0  0
   -2.8315    0.0481    2.9825 C   0  0  0  0  0  0  0  0  0  0  0  0
   -1.9655   -0.2905    3.5716 H   0  0  0  0  0  0  0  0  0  0  0  0
   -3.8044    0.8636    3.5541 C   0  0  0  0  0  0  0  0  0  0  0  0
   -3.7210    1.1718    4.6066 H   0  0  0  0  0  0  0  0  0  0  0  0
   -4.8954    1.2972    2.7709 C   0  0  0  0  0  0  0  0  0  0  0  0
   -5.6663    1.9447    3.2148 H   0  0  0  0  0  0  0  0  0  0  0  0
   -5.0051    0.9135    1.4348 C   0  0  0  0  0  0  0  0  0  0  0  0
   -5.8654    1.2689    0.8518 H   0  0  0  0  0  0  0  0  0  0  0  0
   -4.0325    0.0830    0.8233 C   0  0  0  0  0  0  0  0  0  0  0  0
   -4.1149   -0.3324   -0.5814 C   0  0  0  0  0  0  0  0  0  0  0  0
   -5.1762    0.0593   -1.4355 C   0  0  0  0  0  0  0  0  0  0  0  0
   -5.9842    0.6948   -1.0483 H   0  0  0  0  0  0  0  0  0  0  0  0
   -5.2213   -0.3452   -2.7693 C   0  0  0  0  0  0  0  0  0  0  0  0
   -6.0584   -0.0226   -3.4063 H   0  0  0  0  0  0  0  0  0  0  0  0
   -4.2027   -1.1620   -3.3054 C   0  0  0  0  0  0  0  0  0  0  0  0
   -4.2426   -1.4768   -4.3586 H   0  0  0  0  0  0  0  0  0  0  0  0
   -3.1456   -1.5626   -2.4928 C   0  0  0  0  0  0  0  0  0  0  0  0
   -2.3350   -2.1913   -2.8920 H   0  0  0  0  0  0  0  0  0  0  0  0
   -3.0834   -1.1584   -1.1367 C   0  0  0  0  0  0  0  0  0  0  0  0
  1  3  1  0  0  0  0
  2  1  1  0  0  0  0
  3  5  1  0  0  0  0
  3  4  1  0  0  0  0
  5  6  1  0  0  0  0
  6  8  2  0  0  0  0
  6  7  1  0  0  0  0
  8  9  1  0  0  0  0
 10 11  1  0  0  0  0
 10  8  1  0  0  0  0
 12 10  2  0  0  0  0
 13 12  1  0  0  0  0
 14 12  1  0  0  0  0
 14  5  2  0  0  0  0
 15 14  1  0  0  0  0
 16 17  1  0  0  0  0
 16 15  2  0  0  0  0
 18 16  1  0  0  0  0
 19 18  1  0  0  0  0
 20 18  2  0  0  0  0
 20 22  1  0  0  0  0
 21 20  1  0  0  0  0
 22 24  2  0  0  0  0
 23 22  1  0  0  0  0
 24 15  1  0  0  0  0
 24  1  1  0  0  0  0
M  END
