2
 OpenBabel05122313113D

 40 41  0  0  1  0  0  0  0  0999 V2000
    0.9980    3.4763   -0.0208 N   0  0  0  0  0  0  0  0  0  0  0  0
   -1.2706    0.7004    0.1633 C   0  0  0  0  0  3  0  0  0  0  0  0
    2.1387    1.5825    0.4415 O   0  0  0  0  0  0  0  0  0  0  0  0
   -0.2408    1.4258    0.2162 C   0  0  0  0  0  0  0  0  0  0  0  0
    0.9419    2.1396    0.2119 C   0  0  1  0  0  3  0  0  0  0  0  0
   -0.2107    4.2348   -0.2968 C   0  0  0  0  0  0  0  0  0  0  0  0
   -0.1261    4.7413   -1.2815 H   0  0  0  0  0  0  0  0  0  0  0  0
   -0.3671    5.0099    0.4834 H   0  0  0  0  0  0  0  0  0  0  0  0
   -1.0790    3.5513   -0.3110 H   0  0  0  0  0  0  0  0  0  0  0  0
    2.2451    4.2233   -0.0207 C   0  0  0  0  0  0  0  0  0  0  0  0
    3.0863    3.5609    0.2389 H   0  0  0  0  0  0  0  0  0  0  0  0
    2.1915    5.0512    0.7181 H   0  0  0  0  0  0  0  0  0  0  0  0
    2.4268    4.6683   -1.0228 H   0  0  0  0  0  0  0  0  0  0  0  0
    2.2422    0.1491    0.6727 C   0  0  2  0  0  0  0  0  0  0  0  0
    1.2447   -0.1905    1.0104 H   0  0  0  0  0  0  0  0  0  0  0  0
    3.3621   -0.1238    1.7065 C   0  0  0  0  0  0  0  0  0  0  0  0
    3.8560    0.8214    2.0060 H   0  0  0  0  0  0  0  0  0  0  0  0
    2.9506   -0.5842    2.6250 H   0  0  0  0  0  0  0  0  0  0  0  0
    4.3139   -1.0692    0.9450 C   0  0  2  0  0  0  0  0  0  0  0  0
    4.9799   -1.6608    1.6040 H   0  0  0  0  0  0  0  0  0  0  0  0
    5.0563   -0.2179   -0.1083 C   0  0  0  0  0  0  0  0  0  0  0  0
    5.8965   -0.7787   -0.5629 H   0  0  0  0  0  0  0  0  0  0  0  0
    5.4906    0.6963    0.3439 H   0  0  0  0  0  0  0  0  0  0  0  0
    3.9426    0.0950   -1.1501 C   0  0  0  0  0  0  0  0  0  0  0  0
    3.7533    1.1786   -1.2730 H   0  0  0  0  0  0  0  0  0  0  0  0
    4.1909   -0.2983   -2.1554 H   0  0  0  0  0  0  0  0  0  0  0  0
    2.6873   -0.6307   -0.5969 C   0  0  1  0  0  0  0  0  0  0  0  0
    3.3235   -1.9095    0.0780 C   0  0  0  0  0  0  0  0  0  0  0  0
    1.5848   -0.8601   -1.6189 C   0  0  0  0  0  0  0  0  0  0  0  0
    0.7216   -1.3948   -1.1768 H   0  0  0  0  0  0  0  0  0  0  0  0
    1.9598   -1.4554   -2.4759 H   0  0  0  0  0  0  0  0  0  0  0  0
    1.1985    0.0967   -2.0241 H   0  0  0  0  0  0  0  0  0  0  0  0
    2.3376   -2.7608    0.8944 C   0  0  0  0  0  0  0  0  0  0  0  0
    2.8837   -3.5695    1.4220 H   0  0  0  0  0  0  0  0  0  0  0  0
    1.5926   -3.2450    0.2324 H   0  0  0  0  0  0  0  0  0  0  0  0
    1.7651   -2.2004    1.6562 H   0  0  0  0  0  0  0  0  0  0  0  0
    4.0130   -2.8511   -0.9205 C   0  0  0  0  0  0  0  0  0  0  0  0
    4.7278   -2.3445   -1.5951 H   0  0  0  0  0  0  0  0  0  0  0  0
    3.2615   -3.3638   -1.5544 H   0  0  0  0  0  0  0  0  0  0  0  0
    4.5709   -3.6386   -0.3734 H   0  0  0  0  0  0  0  0  0  0  0  0
  1 10  1  0  0  0  0
  1  5  1  0  0  0  0
  2  4  3  0  0  0  0
  3 14  1  0  0  0  0
  5  4  1  1  0  0  0
  5  3  1  0  0  0  0
  6  1  1  0  0  0  0
  6  8  1  0  0  0  0
  7  6  1  0  0  0  0
  9  6  1  0  0  0  0
 10 11  1  0  0  0  0
 10 12  1  0  0  0  0
 13 10  1  0  0  0  0
 14 15  1  1  0  0  0
 14 16  1  0  0  0  0
 16 17  1  0  0  0  0
 16 18  1  0  0  0  0
 19 20  1  1  0  0  0
 19 16  1  0  0  0  0
 21 23  1  0  0  0  0
 21 19  1  0  0  0  0
 22 21  1  0  0  0  0
 24 27  1  0  0  0  0
 24 21  1  0  0  0  0
 25 24  1  0  0  0  0
 26 24  1  0  0  0  0
 27 29  1  6  0  0  0
 27 28  1  0  0  0  0
 27 14  1  0  0  0  0
 28 33  1  0  0  0  0
 28 19  1  0  0  0  0
 29 30  1  0  0  0  0
 31 29  1  0  0  0  0
 32 29  1  0  0  0  0
 33 34  1  0  0  0  0
 33 36  1  0  0  0  0
 35 33  1  0  0  0  0
 37 40  1  0  0  0  0
 37 28  1  0  0  0  0
 38 37  1  0  0  0  0
 39 37  1  0  0  0  0
M  END
