1
 OpenBabel05122313113D

 44 46  0  0  0  0  0  0  0  0999 V2000
    0.3225    0.9037   -0.0132 C   0  0  0  0  0  2  0  0  0  0  0  0
   -0.8654    0.9089    0.6736 N   0  0  0  0  0  0  0  0  0  0  0  0
   -0.9892    2.0379    1.4779 C   0  0  0  0  0  0  0  0  0  0  0  0
    0.1591    2.7593    1.2924 C   0  0  0  0  0  0  0  0  0  0  0  0
    0.9424    2.0568    0.3796 N   0  0  0  0  0  0  0  0  0  0  0  0
   -1.7803   -0.2203    0.7041 C   0  0  0  0  0  0  0  0  0  0  0  0
   -1.4125   -1.3769    1.1194 N   0  0  0  0  0  0  0  0  0  0  0  0
   -0.1408   -1.6572    1.6346 C   0  0  0  0  0  0  0  0  0  0  0  0
    0.6028   -2.7054    1.0455 C   0  0  0  0  0  0  0  0  0  0  0  0
    1.8938   -2.9929    1.5057 C   0  0  0  0  0  0  0  0  0  0  0  0
    2.4436   -2.2770    2.5818 C   0  0  0  0  0  0  0  0  0  0  0  0
    1.6891   -1.2652    3.1984 C   0  0  0  0  0  0  0  0  0  0  0  0
    0.4091   -0.9456    2.7264 C   0  0  0  0  0  0  0  0  0  0  0  0
   -3.1534    0.0443    0.2284 C   0  0  0  0  0  0  0  0  0  0  0  0
   -3.4782    1.2216   -0.4816 C   0  0  0  0  0  0  0  0  0  0  0  0
   -4.7858    1.4292   -0.9416 C   0  0  0  0  0  0  0  0  0  0  0  0
   -5.7799    0.4695   -0.6968 C   0  0  0  0  0  0  0  0  0  0  0  0
   -5.4615   -0.7072    0.0056 C   0  0  0  0  0  0  0  0  0  0  0  0
   -4.1589   -0.9213    0.4641 C   0  0  0  0  0  0  0  0  0  0  0  0
    2.3238    2.4498   -0.0701 C   0  0  0  0  0  0  0  0  0  0  0  0
    3.3029    1.3532    0.3843 C   0  0  0  0  0  0  0  0  0  0  0  0
    2.7098    3.7855    0.5789 C   0  0  0  0  0  0  0  0  0  0  0  0
    2.3220    2.6034   -1.5993 C   0  0  0  0  0  0  0  0  0  0  0  0
   -1.8660    2.2211    2.1054 H   0  0  0  0  0  0  0  0  0  0  0  0
    0.4643    3.7062    1.7404 H   0  0  0  0  0  0  0  0  0  0  0  0
    0.1691   -3.2573    0.2000 H   0  0  0  0  0  0  0  0  0  0  0  0
    2.4750   -3.7836    1.0086 H   0  0  0  0  0  0  0  0  0  0  0  0
    3.4544   -2.5137    2.9458 H   0  0  0  0  0  0  0  0  0  0  0  0
    2.1023   -0.7133    4.0569 H   0  0  0  0  0  0  0  0  0  0  0  0
   -0.1784   -0.1501    3.2079 H   0  0  0  0  0  0  0  0  0  0  0  0
   -2.6986    1.9674   -0.6929 H   0  0  0  0  0  0  0  0  0  0  0  0
   -5.0277    2.3445   -1.5021 H   0  0  0  0  0  0  0  0  0  0  0  0
   -6.8063    0.6351   -1.0578 H   0  0  0  0  0  0  0  0  0  0  0  0
   -6.2384   -1.4632    0.1943 H   0  0  0  0  0  0  0  0  0  0  0  0
   -3.8831   -1.8366    1.0072 H   0  0  0  0  0  0  0  0  0  0  0  0
    4.3350    1.6269    0.0905 H   0  0  0  0  0  0  0  0  0  0  0  0
    3.2662    1.2242    1.4844 H   0  0  0  0  0  0  0  0  0  0  0  0
    3.0548    0.3776   -0.0801 H   0  0  0  0  0  0  0  0  0  0  0  0
    3.7229    4.0636    0.2320 H   0  0  0  0  0  0  0  0  0  0  0  0
    2.7459    3.7172    1.6844 H   0  0  0  0  0  0  0  0  0  0  0  0
    2.0226    4.6048    0.2868 H   0  0  0  0  0  0  0  0  0  0  0  0
    3.3323    2.8961   -1.9456 H   0  0  0  0  0  0  0  0  0  0  0  0
    1.6006    3.3826   -1.9171 H   0  0  0  0  0  0  0  0  0  0  0  0
    2.0497    1.6506   -2.0970 H   0  0  0  0  0  0  0  0  0  0  0  0
  1  5  1  0  0  0  0
  1  2  1  0  0  0  0
  2  6  1  0  0  0  0
  2  3  1  0  0  0  0
  3 24  1  0  0  0  0
  4  3  2  0  0  0  0
  4 25  1  0  0  0  0
  5  4  1  0  0  0  0
  6  7  2  0  0  0  0
  7  8  1  0  0  0  0
  8 13  1  0  0  0  0
  9 10  1  0  0  0  0
  9  8  2  0  0  0  0
 10 11  2  0  0  0  0
 11 28  1  0  0  0  0
 11 12  1  0  0  0  0
 12 29  1  0  0  0  0
 13 12  2  0  0  0  0
 13 30  1  0  0  0  0
 14 19  1  0  0  0  0
 14  6  1  0  0  0  0
 15 14  2  0  0  0  0
 16 17  2  0  0  0  0
 16 15  1  0  0  0  0
 17 18  1  0  0  0  0
 18 34  1  0  0  0  0
 18 19  2  0  0  0  0
 19 35  1  0  0  0  0
 20  5  1  0  0  0  0
 20 21  1  0  0  0  0
 20 22  1  0  0  0  0
 21 37  1  0  0  0  0
 22 40  1  0  0  0  0
 23 20  1  0  0  0  0
 26  9  1  0  0  0  0
 27 10  1  0  0  0  0
 31 15  1  0  0  0  0
 32 16  1  0  0  0  0
 33 17  1  0  0  0  0
 36 21  1  0  0  0  0
 38 21  1  0  0  0  0
 39 22  1  0  0  0  0
 41 22  1  0  0  0  0
 42 23  1  0  0  0  0
 43 23  1  0  0  0  0
 44 23  1  0  0  0  0
M  END
