4
 OpenBabel05122313113D

 21 22  0  0  0  0  0  0  0  0999 V2000
    2.7585    1.3940   -0.1061 N   0  0  0  0  0  0  0  0  0  0  0  0
    1.1449    2.8349   -0.1592 N   0  0  0  0  0  0  0  0  0  0  0  0
    4.6545    0.2485    0.6164 N   0  0  0  0  0  0  0  0  0  0  0  0
    1.3893    1.4934   -0.1443 C   0  0  0  0  0  2  0  0  0  0  0  0
    3.3506    2.6512   -0.0636 C   0  0  0  0  0  0  0  0  0  0  0  0
    4.4362    2.7640   -0.0046 H   0  0  0  0  0  0  0  0  0  0  0  0
    2.3291    3.5601   -0.1080 C   0  0  0  0  0  0  0  0  0  0  0  0
    2.3460    4.6542   -0.1127 H   0  0  0  0  0  0  0  0  0  0  0  0
    3.5294    0.1823   -0.0944 C   0  0  0  0  0  0  0  0  0  0  0  0
    3.1208   -0.9429   -0.8311 C   0  0  0  0  0  0  0  0  0  0  0  0
    2.2210   -0.9110   -1.4615 H   0  0  0  0  0  0  0  0  0  0  0  0
    3.9315   -2.0846   -0.7570 C   0  0  0  0  0  0  0  0  0  0  0  0
    3.6604   -2.9904   -1.3198 H   0  0  0  0  0  0  0  0  0  0  0  0
    5.1035   -2.0451    0.0129 C   0  0  0  0  0  0  0  0  0  0  0  0
    5.7668   -2.9185    0.0889 H   0  0  0  0  0  0  0  0  0  0  0  0
    5.4304   -0.8453    0.6654 C   0  0  0  0  0  0  0  0  0  0  0  0
    6.3586   -0.7590    1.2553 H   0  0  0  0  0  0  0  0  0  0  0  0
   -0.1774    3.4462   -0.1992 C   0  0  0  0  0  0  0  0  0  0  0  0
   -0.9358    2.6468   -0.2791 H   0  0  0  0  0  0  0  0  0  0  0  0
   -0.3562    4.0338    0.7226 H   0  0  0  0  0  0  0  0  0  0  0  0
   -0.2599    4.1133   -1.0789 H   0  0  0  0  0  0  0  0  0  0  0  0
  1  9  1  0  0  0  0
  1  5  1  0  0  0  0
  2  4  1  0  0  0  0
  2  7  1  0  0  0  0
  3 16  1  0  0  0  0
  4  1  1  0  0  0  0
  5  6  1  0  0  0  0
  7  5  2  0  0  0  0
  8  7  1  0  0  0  0
  9  3  2  0  0  0  0
 10 12  2  0  0  0  0
 10  9  1  0  0  0  0
 11 10  1  0  0  0  0
 12 14  1  0  0  0  0
 13 12  1  0  0  0  0
 14 15  1  0  0  0  0
 14 16  2  0  0  0  0
 16 17  1  0  0  0  0
 18  2  1  0  0  0  0
 18 20  1  0  0  0  0
 19 18  1  0  0  0  0
 21 18  1  0  0  0  0
M  END
