3
 OpenBabel05122313113D

 37 38  0  0  1  0  0  0  0  0999 V2000
   -0.0366    1.8776   -0.4296 O   0  0  0  0  0  0  0  0  0  0  0  0
    1.7399   -1.0936    1.8193 C   0  0  0  0  0  3  0  0  0  0  0  0
    2.8879   -0.4192    1.3112 C   0  0  0  0  0  3  0  0  0  0  0  0
    2.7018    0.9165    0.8645 C   0  0  0  0  0  3  0  0  0  0  0  0
    1.7283    1.7927    1.6261 C   0  0  0  0  0  0  0  0  0  0  0  0
    0.4203    1.0178    1.8232 C   0  0  0  0  0  0  0  0  0  0  0  0
    0.6802   -0.3064    2.5542 C   0  0  0  0  0  0  0  0  0  0  0  0
   -0.0987    0.7166    0.4087 C   0  0  1  0  0  3  0  0  0  0  0  0
   -1.4864    0.1242    0.2940 C   0  0  0  0  0  0  0  0  0  0  0  0
   -2.3365   -0.1230    1.3909 C   0  0  0  0  0  0  0  0  0  0  0  0
   -3.6361   -0.6255    1.2098 C   0  0  0  0  0  0  0  0  0  0  0  0
   -4.1504   -0.8857   -0.0717 C   0  0  0  0  0  0  0  0  0  0  0  0
   -3.3140   -0.6027   -1.1750 C   0  0  0  0  0  0  0  0  0  0  0  0
   -2.0210   -0.1101   -0.9966 C   0  0  0  0  0  0  0  0  0  0  0  0
   -0.9638    2.9279   -0.1527 C   0  0  0  0  0  0  0  0  0  0  0  0
   -0.8364    3.9542   -1.2639 C   0  0  0  0  0  0  0  0  0  0  0  0
   -5.5327   -1.4518   -0.2720 C   0  0  0  0  0  0  0  0  0  0  0  0
    1.8500   -2.1574    2.0861 H   0  0  0  0  0  0  0  0  0  0  0  0
    3.8431   -0.9488    1.1686 H   0  0  0  0  0  0  0  0  0  0  0  0
    3.5435    1.4107    0.3533 H   0  0  0  0  0  0  0  0  0  0  0  0
    2.1747    2.0753    2.6069 H   0  0  0  0  0  0  0  0  0  0  0  0
    1.5365    2.7276    1.0698 H   0  0  0  0  0  0  0  0  0  0  0  0
   -0.3072    1.6333    2.4039 H   0  0  0  0  0  0  0  0  0  0  0  0
   -0.2460   -0.9074    2.6227 H   0  0  0  0  0  0  0  0  0  0  0  0
    1.0104   -0.1180    3.6025 H   0  0  0  0  0  0  0  0  0  0  0  0
   -2.0040    0.1006    2.4141 H   0  0  0  0  0  0  0  0  0  0  0  0
   -4.2694   -0.8084    2.0928 H   0  0  0  0  0  0  0  0  0  0  0  0
   -3.6893   -0.7779   -2.1962 H   0  0  0  0  0  0  0  0  0  0  0  0
   -1.3940    0.1063   -1.8746 H   0  0  0  0  0  0  0  0  0  0  0  0
   -2.0024    2.5287   -0.0996 H   0  0  0  0  0  0  0  0  0  0  0  0
   -0.7410    3.3936    0.8385 H   0  0  0  0  0  0  0  0  0  0  0  0
    0.1969    4.3520   -1.3173 H   0  0  0  0  0  0  0  0  0  0  0  0
   -1.5299    4.8018   -1.0944 H   0  0  0  0  0  0  0  0  0  0  0  0
   -1.0735    3.4944   -2.2438 H   0  0  0  0  0  0  0  0  0  0  0  0
   -6.1232   -1.4316    0.6646 H   0  0  0  0  0  0  0  0  0  0  0  0
   -6.0948   -0.8894   -1.0456 H   0  0  0  0  0  0  0  0  0  0  0  0
   -5.4869   -2.5077   -0.6149 H   0  0  0  0  0  0  0  0  0  0  0  0
  1 15  1  0  0  0  0
  2 18  1  0  0  0  0
  2  7  1  0  0  0  0
  3  2  1  0  0  0  0
  4  3  1  0  0  0  0
  4  5  1  0  0  0  0
  5  6  1  0  0  0  0
  5 21  1  0  0  0  0
  6 23  1  0  0  0  0
  6  7  1  0  0  0  0
  7 24  1  0  0  0  0
  7 25  1  0  0  0  0
  8  1  1  6  0  0  0
  8  6  1  0  0  0  0
  9  8  1  0  0  0  0
  9 10  1  0  0  0  0
 10 26  1  0  0  0  0
 11 10  2  0  0  0  0
 11 27  1  0  0  0  0
 12 11  1  0  0  0  0
 13 14  1  0  0  0  0
 13 12  2  0  0  0  0
 14  9  2  0  0  0  0
 15 30  1  0  0  0  0
 15 31  1  0  0  0  0
 16 33  1  0  0  0  0
 16 15  1  0  0  0  0
 17 12  1  0  0  0  0
 17 35  1  0  0  0  0
 19  3  1  0  0  0  0
 20  4  1  0  0  0  0
 22  5  1  0  0  0  0
 28 13  1  0  0  0  0
 29 14  1  0  0  0  0
 32 16  1  0  0  0  0
 34 16  1  0  0  0  0
 36 17  1  0  0  0  0
 37 17  1  0  0  0  0
M  END
