10
 OpenBabel05122313113D

 62 64  0  0  1  0  0  0  0  0999 V2000
    0.4651    1.0170   -0.1165 S   0  0  0  0  0  1  0  0  0  0  0  0
    3.8139   -1.8310   -0.1684 C   0  0  1  0  0  3  0  0  0  0  0  0
    3.0634   -1.8742   -1.3823 C   0  0  0  0  0  0  0  0  0  0  0  0
    3.5959   -1.8467   -2.3449 H   0  0  0  0  0  0  0  0  0  0  0  0
    1.6522   -1.8994   -1.3650 C   0  0  0  0  0  0  0  0  0  0  0  0
    0.8431   -1.8559   -2.6268 C   0  0  0  0  0  0  0  0  0  0  0  0
    1.4888   -1.9002   -3.5230 H   0  0  0  0  0  0  0  0  0  0  0  0
    0.2423   -0.9241   -2.6662 H   0  0  0  0  0  0  0  0  0  0  0  0
    0.1207   -2.6954   -2.6577 H   0  0  0  0  0  0  0  0  0  0  0  0
    0.9862   -1.8785   -0.0776 C   0  0  2  0  0  3  0  0  0  0  0  0
   -0.4749   -1.6010   -0.0342 C   0  0  0  0  0  0  0  0  0  0  0  0
   -1.4837   -2.5707    0.0196 C   0  0  0  0  0  0  0  0  0  0  0  0
   -1.1989   -3.6340    0.0283 H   0  0  0  0  0  0  0  0  0  0  0  0
   -2.8470   -2.1998    0.0611 C   0  0  0  0  0  0  0  0  0  0  0  0
   -3.9312   -3.2893    0.1198 C   0  0  0  0  0  0  0  0  0  0  0  0
   -3.7226   -4.1425    1.3921 C   0  0  0  0  0  0  0  0  0  0  0  0
   -2.7324   -4.6409    1.4002 H   0  0  0  0  0  0  0  0  0  0  0  0
   -4.4946   -4.9361    1.4543 H   0  0  0  0  0  0  0  0  0  0  0  0
   -3.7981   -3.5188    2.3057 H   0  0  0  0  0  0  0  0  0  0  0  0
   -3.8131   -4.1879   -1.1328 C   0  0  0  0  0  0  0  0  0  0  0  0
   -3.9544   -3.5972   -2.0603 H   0  0  0  0  0  0  0  0  0  0  0  0
   -4.5869   -4.9820   -1.1110 H   0  0  0  0  0  0  0  0  0  0  0  0
   -2.8255   -4.6878   -1.1939 H   0  0  0  0  0  0  0  0  0  0  0  0
   -5.3480   -2.6916    0.1599 C   0  0  0  0  0  0  0  0  0  0  0  0
   -5.5035   -2.0537    1.0530 H   0  0  0  0  0  0  0  0  0  0  0  0
   -6.0965   -3.5073    0.2014 H   0  0  0  0  0  0  0  0  0  0  0  0
   -5.5678   -2.0862   -0.7423 H   0  0  0  0  0  0  0  0  0  0  0  0
   -3.1477   -0.8213    0.0480 C   0  0  0  0  0  0  0  0  0  0  0  0
   -4.1929   -0.4841    0.0801 H   0  0  0  0  0  0  0  0  0  0  0  0
   -2.1526    0.1725   -0.0041 C   0  0  0  0  0  0  0  0  0  0  0  0
   -0.8050   -0.2313   -0.0446 C   0  0  0  0  0  0  0  0  0  0  0  0
   -2.4531    1.6356   -0.0184 C   0  0  0  0  0  0  0  0  0  0  0  0
   -2.5200    2.3520    1.2056 C   0  0  0  0  0  0  0  0  0  0  0  0
   -2.7884    3.7303    1.1674 C   0  0  0  0  0  0  0  0  0  0  0  0
   -2.8453    4.2875    2.1165 H   0  0  0  0  0  0  0  0  0  0  0  0
   -2.9894    4.4163   -0.0459 C   0  0  0  0  0  0  0  0  0  0  0  0
   -3.3214    5.8859   -0.0595 C   0  0  0  0  0  0  0  0  0  0  0  0
   -2.9148    6.4076    0.8288 H   0  0  0  0  0  0  0  0  0  0  0  0
   -4.4220    6.0399   -0.0516 H   0  0  0  0  0  0  0  0  0  0  0  0
   -2.9326    6.3862   -0.9682 H   0  0  0  0  0  0  0  0  0  0  0  0
   -2.8996    3.6849   -1.2460 C   0  0  0  0  0  0  0  0  0  0  0  0
   -3.0441    4.2062   -2.2062 H   0  0  0  0  0  0  0  0  0  0  0  0
   -2.6333    2.3059   -1.2573 C   0  0  0  0  0  0  0  0  0  0  0  0
   -2.5225    1.5483   -2.5565 C   0  0  0  0  0  0  0  0  0  0  0  0
   -2.7169    2.2045   -3.4257 H   0  0  0  0  0  0  0  0  0  0  0  0
   -3.2345    0.6990   -2.5977 H   0  0  0  0  0  0  0  0  0  0  0  0
   -1.5064    1.1145   -2.6736 H   0  0  0  0  0  0  0  0  0  0  0  0
   -2.2841    1.6438    2.5158 C   0  0  0  0  0  0  0  0  0  0  0  0
   -2.4137    2.3282    3.3754 H   0  0  0  0  0  0  0  0  0  0  0  0
   -1.2535    1.2300    2.5567 H   0  0  0  0  0  0  0  0  0  0  0  0
   -2.9745    0.7862    2.6484 H   0  0  0  0  0  0  0  0  0  0  0  0
    1.7210   -1.9745    1.1618 C   0  0  0  0  0  0  0  0  0  0  0  0
    3.1313   -1.9151    1.0876 C   0  0  0  0  0  0  0  0  0  0  0  0
    3.7222   -1.9134    2.0163 H   0  0  0  0  0  0  0  0  0  0  0  0
    0.9937   -2.0277    2.4731 C   0  0  0  0  0  0  0  0  0  0  0  0
    0.3896   -2.9547    2.5444 H   0  0  0  0  0  0  0  0  0  0  0  0
    0.2807   -1.1838    2.5602 H   0  0  0  0  0  0  0  0  0  0  0  0
    1.6955   -1.9966    3.3268 H   0  0  0  0  0  0  0  0  0  0  0  0
    5.3167   -1.8179   -0.2032 C   0  0  0  0  0  0  0  0  0  0  0  0
    5.7508   -1.2178    0.6198 H   0  0  0  0  0  0  0  0  0  0  0  0
    5.7091   -1.4466   -1.1684 H   0  0  0  0  0  0  0  0  0  0  0  0
    5.6925   -2.8551   -0.0740 H   0  0  0  0  0  0  0  0  0  0  0  0
  1 31  1  0  0  0  0
  2 59  1  6  0  0  0
  2 53  1  0  0  0  0
  3  5  2  0  0  0  0
  3  2  1  0  0  0  0
  4  3  1  0  0  0  0
  5 10  1  0  0  0  0
  6  5  1  0  0  0  0
  7  6  1  0  0  0  0
  8  6  1  0  0  0  0
  9  6  1  0  0  0  0
 10 11  1  1  0  0  0
 10 52  1  0  0  0  0
 11 12  1  0  0  0  0
 12 13  1  0  0  0  0
 12 14  2  0  0  0  0
 14 15  1  0  0  0  0
 15 24  1  0  0  0  0
 15 16  1  0  0  0  0
 16 17  1  0  0  0  0
 16 18  1  0  0  0  0
 16 19  1  0  0  0  0
 20 22  1  0  0  0  0
 20 15  1  0  0  0  0
 21 20  1  0  0  0  0
 23 20  1  0  0  0  0
 24 26  1  0  0  0  0
 24 25  1  0  0  0  0
 27 24  1  0  0  0  0
 28 14  1  0  0  0  0
 28 29  1  0  0  0  0
 30 28  2  0  0  0  0
 31 11  2  0  0  0  0
 31 30  1  0  0  0  0
 32 30  1  0  0  0  0
 32 33  1  0  0  0  0
 33 48  1  0  0  0  0
 34 33  2  0  0  0  0
 34 35  1  0  0  0  0
 36 34  1  0  0  0  0
 37 39  1  0  0  0  0
 37 36  1  0  0  0  0
 37 38  1  0  0  0  0
 40 37  1  0  0  0  0
 41 36  2  0  0  0  0
 42 41  1  0  0  0  0
 43 41  1  0  0  0  0
 43 32  2  0  0  0  0
 44 43  1  0  0  0  0
 45 44  1  0  0  0  0
 46 44  1  0  0  0  0
 47 44  1  0  0  0  0
 48 50  1  0  0  0  0
 48 51  1  0  0  0  0
 48 49  1  0  0  0  0
 52 55  1  0  0  0  0
 53 52  2  0  0  0  0
 53 54  1  0  0  0  0
 55 56  1  0  0  0  0
 55 57  1  0  0  0  0
 55 58  1  0  0  0  0
 59 62  1  0  0  0  0
 59 60  1  0  0  0  0
 61 59  1  0  0  0  0
M  END
