37
 OpenBabel05122313113D

 62 67  0  0  0  0  0  0  0  0999 V2000
    0.6563   -1.4889   -1.4554 N   0  0  0  0  0  0  0  0  0  0  0  0
    1.1586   -0.9505   -2.1795 H   0  0  0  0  0  0  0  0  0  0  0  0
   -1.5150    0.3004   -1.7043 N   0  0  0  0  0  0  0  0  0  0  0  0
   -1.1559    1.1404   -2.1864 H   0  0  0  0  0  0  0  0  0  0  0  0
    1.6239   -2.4683   -0.8991 C   0  0  0  0  0  0  0  0  0  0  0  0
    1.7290   -3.3175   -1.6125 H   0  0  0  0  0  0  0  0  0  0  0  0
    2.9692   -1.7737   -0.7987 C   0  0  0  0  0  0  0  0  0  0  0  0
    3.1032   -0.5615   -0.0638 C   0  0  0  0  0  0  0  0  0  0  0  0
    2.0156    0.0490    0.7311 C   0  0  0  0  0  3  0  0  0  0  0  0
    2.3016    1.0134    1.1770 H   0  0  0  0  0  0  0  0  0  0  0  0
    1.0598   -0.7060    1.4858 C   0  0  0  0  0  3  0  0  0  0  0  0
    0.7431   -0.2272    2.4298 H   0  0  0  0  0  0  0  0  0  0  0  0
    0.9452   -2.1803    1.5424 C   0  0  0  0  0  0  0  0  0  0  0  0
    1.1632   -3.0353    0.4268 C   0  0  0  0  0  0  0  0  0  0  0  0
    4.3749    0.0589   -0.0506 C   0  0  0  0  0  0  0  0  0  0  0  0
    4.4928    0.9925    0.5186 H   0  0  0  0  0  0  0  0  0  0  0  0
    5.4728   -0.4924   -0.7212 C   0  0  0  0  0  0  0  0  0  0  0  0
    6.4476    0.0177   -0.6841 H   0  0  0  0  0  0  0  0  0  0  0  0
    5.3305   -1.6931   -1.4334 C   0  0  0  0  0  0  0  0  0  0  0  0
    6.1860   -2.1348   -1.9660 H   0  0  0  0  0  0  0  0  0  0  0  0
    4.0785   -2.3222   -1.4655 C   0  0  0  0  0  0  0  0  0  0  0  0
    3.9499   -3.2616   -2.0272 H   0  0  0  0  0  0  0  0  0  0  0  0
    0.9682   -4.4206    0.5553 C   0  0  0  0  0  0  0  0  0  0  0  0
    1.1401   -5.0633   -0.3233 H   0  0  0  0  0  0  0  0  0  0  0  0
    0.5559   -4.9919    1.7682 C   0  0  0  0  0  0  0  0  0  0  0  0
    0.4007   -6.0784    1.8443 H   0  0  0  0  0  0  0  0  0  0  0  0
    0.3417   -4.1596    2.8763 C   0  0  0  0  0  0  0  0  0  0  0  0
    0.0228   -4.5874    3.8391 H   0  0  0  0  0  0  0  0  0  0  0  0
    0.5354   -2.7768    2.7578 C   0  0  0  0  0  0  0  0  0  0  0  0
    0.3756   -2.1267    3.6325 H   0  0  0  0  0  0  0  0  0  0  0  0
   -2.9378    0.5424   -1.3013 C   0  0  0  0  0  0  0  0  0  0  0  0
   -3.5400    0.6812   -2.2268 H   0  0  0  0  0  0  0  0  0  0  0  0
   -3.4540   -0.6826   -0.5879 C   0  0  0  0  0  0  0  0  0  0  0  0
   -2.7379   -1.1615    0.5401 C   0  0  0  0  0  0  0  0  0  0  0  0
   -1.5617   -0.4788    1.1117 C   0  0  0  0  0  3  0  0  0  0  0  0
   -1.2255   -1.0391    1.9954 H   0  0  0  0  0  0  0  0  0  0  0  0
   -1.3524    0.9736    1.2208 C   0  0  0  0  0  3  0  0  0  0  0  0
   -0.8805    1.2934    2.1686 H   0  0  0  0  0  0  0  0  0  0  0  0
   -2.3149    1.9747    0.7234 C   0  0  0  0  0  0  0  0  0  0  0  0
   -3.0541    1.8111   -0.4830 C   0  0  0  0  0  0  0  0  0  0  0  0
   -3.1696   -2.3786    1.1219 C   0  0  0  0  0  0  0  0  0  0  0  0
   -2.6067   -2.7761    1.9811 H   0  0  0  0  0  0  0  0  0  0  0  0
   -4.2811   -3.0741    0.6306 C   0  0  0  0  0  0  0  0  0  0  0  0
   -4.5901   -4.0166    1.1082 H   0  0  0  0  0  0  0  0  0  0  0  0
   -5.0009   -2.5695   -0.4648 C   0  0  0  0  0  0  0  0  0  0  0  0
   -5.8785   -3.1066   -0.8543 H   0  0  0  0  0  0  0  0  0  0  0  0
   -4.5749   -1.3779   -1.0701 C   0  0  0  0  0  0  0  0  0  0  0  0
   -5.1145   -0.9795   -1.9450 H   0  0  0  0  0  0  0  0  0  0  0  0
   -2.5056    3.1760    1.4467 C   0  0  0  0  0  0  0  0  0  0  0  0
   -1.9562    3.3070    2.3925 H   0  0  0  0  0  0  0  0  0  0  0  0
   -3.3744    4.1806    1.0037 C   0  0  0  0  0  0  0  0  0  0  0  0
   -3.4931    5.1012    1.5954 H   0  0  0  0  0  0  0  0  0  0  0  0
   -4.0927    4.0099   -0.1897 C   0  0  0  0  0  0  0  0  0  0  0  0
   -4.7752    4.7929   -0.5517 H   0  0  0  0  0  0  0  0  0  0  0  0
   -3.9267    2.8240   -0.9188 C   0  0  0  0  0  0  0  0  0  0  0  0
   -4.4874    2.6749   -1.8561 H   0  0  0  0  0  0  0  0  0  0  0  0
   -0.5950   -2.0189   -2.0211 C   0  0  0  0  0  0  0  0  0  0  0  0
   -1.1825   -2.4852   -1.2061 H   0  0  0  0  0  0  0  0  0  0  0  0
   -0.4032   -2.7991   -2.7960 H   0  0  0  0  0  0  0  0  0  0  0  0
   -1.3512   -0.8511   -2.6507 C   0  0  0  0  0  0  0  0  0  0  0  0
   -0.7787   -0.4801   -3.5260 H   0  0  0  0  0  0  0  0  0  0  0  0
   -2.3389   -1.1948   -3.0182 H   0  0  0  0  0  0  0  0  0  0  0  0
  1  5  1  0  0  0  0
  2  1  1  0  0  0  0
  3 31  1  0  0  0  0
  4  3  1  0  0  0  0
  5  7  1  0  0  0  0
  5 14  1  0  0  0  0
  6  5  1  0  0  0  0
  7  8  1  0  0  0  0
  8 15  2  0  0  0  0
  8  9  1  0  0  0  0
  9 10  1  0  0  0  0
  9 11  1  0  0  0  0
 11 13  1  0  0  0  0
 11 12  1  0  0  0  0
 13 29  1  0  0  0  0
 14 23  1  0  0  0  0
 14 13  2  0  0  0  0
 15 16  1  0  0  0  0
 17 18  1  0  0  0  0
 17 15  1  0  0  0  0
 19 17  2  0  0  0  0
 20 19  1  0  0  0  0
 21 19  1  0  0  0  0
 21  7  2  0  0  0  0
 22 21  1  0  0  0  0
 23 25  2  0  0  0  0
 24 23  1  0  0  0  0
 25 26  1  0  0  0  0
 25 27  1  0  0  0  0
 27 28  1  0  0  0  0
 29 27  2  0  0  0  0
 29 30  1  0  0  0  0
 31 33  1  0  0  0  0
 31 40  1  0  0  0  0
 32 31  1  0  0  0  0
 33 34  1  0  0  0  0
 34 35  1  0  0  0  0
 34 41  2  0  0  0  0
 35 37  1  0  0  0  0
 35 36  1  0  0  0  0
 37 38  1  0  0  0  0
 39 37  1  0  0  0  0
 39 49  1  0  0  0  0
 40 39  2  0  0  0  0
 41 42  1  0  0  0  0
 43 44  1  0  0  0  0
 43 41  1  0  0  0  0
 45 43  2  0  0  0  0
 46 45  1  0  0  0  0
 47 33  2  0  0  0  0
 47 45  1  0  0  0  0
 48 47  1  0  0  0  0
 49 50  1  0  0  0  0
 51 49  2  0  0  0  0
 51 52  1  0  0  0  0
 53 51  1  0  0  0  0
 54 53  1  0  0  0  0
 55 40  1  0  0  0  0
 55 53  2  0  0  0  0
 56 55  1  0  0  0  0
 57  1  1  0  0  0  0
 57 58  1  0  0  0  0
 59 57  1  0  0  0  0
 60 57  1  0  0  0  0
 60  3  1  0  0  0  0
 61 60  1  0  0  0  0
 62 60  1  0  0  0  0
M  END
