3
 OpenBabel05122313113D

 28 29  0  0  0  0  0  0  0  0999 V2000
    3.4907    1.5998    0.9703 O   0  0  0  0  0  0  0  0  0  0  0  0
    3.9374   -0.4202   -2.4749 O   0  0  0  0  0  0  0  0  0  0  0  0
    2.5029    0.8736   -1.1103 C   0  0  0  0  0  3  0  0  0  0  0  0
    2.7300    1.8210    0.0240 C   0  0  0  0  0  0  0  0  0  0  0  0
    1.9049    3.1011    0.0358 C   0  0  0  0  0  0  0  0  0  0  0  0
    1.0919    3.5371   -1.0330 C   0  0  0  0  0  0  0  0  0  0  0  0
    0.3047    4.6910   -0.9045 C   0  0  0  0  0  0  0  0  0  0  0  0
    0.3160    5.4246    0.2941 C   0  0  0  0  0  0  0  0  0  0  0  0
    1.1313    5.0049    1.3591 C   0  0  0  0  0  0  0  0  0  0  0  0
    1.9221    3.8562    1.2261 C   0  0  0  0  0  0  0  0  0  0  0  0
    3.4226   -0.2930   -1.3624 C   0  0  0  0  0  0  0  0  0  0  0  0
    3.6134   -1.3862   -0.3317 C   0  0  0  0  0  0  0  0  0  0  0  0
    3.1035   -1.3416    0.9837 C   0  0  0  0  0  0  0  0  0  0  0  0
    3.2664   -2.4366    1.8457 C   0  0  0  0  0  0  0  0  0  0  0  0
    3.9396   -3.5896    1.4082 C   0  0  0  0  0  0  0  0  0  0  0  0
    4.4624   -3.6376    0.1046 C   0  0  0  0  0  0  0  0  0  0  0  0
    4.3018   -2.5432   -0.7537 C   0  0  0  0  0  0  0  0  0  0  0  0
    2.4093    1.4148   -2.0729 H   0  0  0  0  0  0  0  0  0  0  0  0
    1.0642    2.9701   -1.9744 H   0  0  0  0  0  0  0  0  0  0  0  0
   -0.3232    5.0200   -1.7466 H   0  0  0  0  0  0  0  0  0  0  0  0
   -0.3064    6.3273    0.3941 H   0  0  0  0  0  0  0  0  0  0  0  0
    1.1500    5.5790    2.2986 H   0  0  0  0  0  0  0  0  0  0  0  0
    2.5693    3.4974    2.0403 H   0  0  0  0  0  0  0  0  0  0  0  0
    2.6124   -0.4309    1.3505 H   0  0  0  0  0  0  0  0  0  0  0  0
    2.8719   -2.3843    2.8725 H   0  0  0  0  0  0  0  0  0  0  0  0
    4.0663   -4.4471    2.0874 H   0  0  0  0  0  0  0  0  0  0  0  0
    4.9971   -4.5352   -0.2425 H   0  0  0  0  0  0  0  0  0  0  0  0
    4.6922   -2.5498   -1.7823 H   0  0  0  0  0  0  0  0  0  0  0  0
  2 11  2  0  0  0  0
  3  4  1  0  0  0  0
  4  5  1  0  0  0  0
  4  1  2  0  0  0  0
  5 10  1  0  0  0  0
  6  7  1  0  0  0  0
  6  5  2  0  0  0  0
  7  8  2  0  0  0  0
  8 21  1  0  0  0  0
  8  9  1  0  0  0  0
  9 22  1  0  0  0  0
 10  9  2  0  0  0  0
 10 23  1  0  0  0  0
 11  3  1  0  0  0  0
 11 12  1  0  0  0  0
 12 13  1  0  0  0  0
 13 24  1  0  0  0  0
 13 14  2  0  0  0  0
 14 25  1  0  0  0  0
 15 14  1  0  0  0  0
 15 26  1  0  0  0  0
 16 15  2  0  0  0  0
 17 12  2  0  0  0  0
 17 16  1  0  0  0  0
 18  3  1  0  0  0  0
 19  6  1  0  0  0  0
 20  7  1  0  0  0  0
 27 16  1  0  0  0  0
 28 17  1  0  0  0  0
M  END
