13
 OpenBabel05122313113D

 23 24  0  0  1  0  0  0  0  0999 V2000
   -0.1481    4.0560    0.5370 O   0  0  0  0  0  0  0  0  0  0  0  0
   -4.5634    0.1729    1.3628 N   0  0  0  0  0  0  0  0  0  0  0  0
   -0.8539    3.0913    0.2196 C   0  0  0  0  0  0  0  0  0  0  0  0
   -1.9254    3.2251   -0.8601 C   0  0  0  0  0  0  0  0  0  0  0  0
   -1.5238    2.8558   -1.8293 H   0  0  0  0  0  0  0  0  0  0  0  0
   -2.1276    4.3074   -0.9806 H   0  0  0  0  0  0  0  0  0  0  0  0
   -3.1814    2.4366   -0.4831 C   0  0  0  0  0  0  0  0  0  0  0  0
   -3.9857    2.5793   -1.2339 H   0  0  0  0  0  0  0  0  0  0  0  0
   -3.5810    2.8139    0.4849 H   0  0  0  0  0  0  0  0  0  0  0  0
   -2.8738    0.9258   -0.3521 C   0  0  1  0  0  0  0  0  0  0  0  0
   -2.6248    0.5803   -1.3764 H   0  0  0  0  0  0  0  0  0  0  0  0
   -1.6700    0.6815    0.5967 C   0  0  0  0  0  3  0  0  0  0  0  0
   -0.7477    1.7790    0.8809 C   0  0  0  0  0  3  0  0  0  0  0  0
   -4.0956    0.1578    0.0622 C   0  0  0  0  0  0  0  0  0  0  0  0
   -5.7047   -0.5931    1.4811 C   0  0  0  0  0  0  0  0  0  0  0  0
   -6.2200   -0.7026    2.4412 H   0  0  0  0  0  0  0  0  0  0  0  0
   -5.9885   -1.1155    0.2246 C   0  0  0  0  0  0  0  0  0  0  0  0
   -6.8329   -1.7690   -0.0219 H   0  0  0  0  0  0  0  0  0  0  0  0
   -4.9780   -0.6398   -0.6690 C   0  0  0  0  0  0  0  0  0  0  0  0
   -4.8984   -0.8455   -1.7429 H   0  0  0  0  0  0  0  0  0  0  0  0
   -4.1232    0.6979    2.1175 H   0  0  0  0  0  0  0  0  0  0  0  0
   -1.9390    0.0708    1.4785 H   0  0  0  0  0  0  0  0  0  0  0  0
   -0.2691    1.8359    1.8751 H   0  0  0  0  0  0  0  0  0  0  0  0
  2 15  1  0  0  0  0
  2 21  1  0  0  0  0
  3  1  2  0  0  0  0
  3 13  1  0  0  0  0
  4  7  1  0  0  0  0
  4  3  1  0  0  0  0
  5  4  1  0  0  0  0
  6  4  1  0  0  0  0
  7 10  1  0  0  0  0
  7  9  1  0  0  0  0
  8  7  1  0  0  0  0
 10 11  1  6  0  0  0
 10 14  1  0  0  0  0
 10 12  1  0  0  0  0
 12 13  1  0  0  0  0
 12 22  1  0  0  0  0
 13 23  1  0  0  0  0
 14  2  1  0  0  0  0
 15 16  1  0  0  0  0
 17 15  2  0  0  0  0
 18 17  1  0  0  0  0
 19 14  2  0  0  0  0
 19 17  1  0  0  0  0
 20 19  1  0  0  0  0
M  END
