4
 OpenBabel05122313113D

 41 42  0  0  1  0  0  0  0  0999 V2000
   -0.0000    2.6712   -0.0990 O   0  0  0  0  0  0  0  0  0  0  0  0
   -0.0000    1.5195    0.3321 C   0  0  0  0  0  0  0  0  0  0  0  0
    1.2033    0.6286    0.5881 C   0  0  2  0  0  3  0  0  0  0  0  0
    0.7210   -0.4544    1.4117 C   0  0  1  0  0  3  0  0  0  0  0  0
    1.2404   -1.4812    2.3841 C   0  0  0  0  0  0  0  0  0  0  0  0
    1.5271   -0.9534    3.3215 H   0  0  0  0  0  0  0  0  0  0  0  0
    2.1345   -2.0340    2.0389 H   0  0  0  0  0  0  0  0  0  0  0  0
   -0.0000   -2.3868    2.6125 C   0  0  0  0  0  0  0  0  0  0  0  0
   -0.0000   -3.1933    1.8501 H   0  0  0  0  0  0  0  0  0  0  0  0
   -0.0001   -2.8698    3.6083 H   0  0  0  0  0  0  0  0  0  0  0  0
   -1.2405   -1.4813    2.3840 C   0  0  0  0  0  0  0  0  0  0  0  0
   -2.1345   -2.0340    2.0388 H   0  0  0  0  0  0  0  0  0  0  0  0
   -1.5272   -0.9534    3.3215 H   0  0  0  0  0  0  0  0  0  0  0  0
   -0.7211   -0.4544    1.4117 C   0  0  1  0  0  3  0  0  0  0  0  0
   -1.2034    0.6285    0.5881 C   0  0  1  0  0  3  0  0  0  0  0  0
   -2.9625    1.2408    0.2536 Si  0  0  0  0  0  0  0  0  0  0  0  0
   -3.2409    2.7462    1.3628 C   0  0  0  0  0  0  0  0  0  0  0  0
   -3.1845    2.4752    2.4369 H   0  0  0  0  0  0  0  0  0  0  0  0
   -4.2326    3.2071    1.1757 H   0  0  0  0  0  0  0  0  0  0  0  0
   -2.4555    3.5004    1.1535 H   0  0  0  0  0  0  0  0  0  0  0  0
   -3.0814    1.7389   -1.5621 C   0  0  0  0  0  0  0  0  0  0  0  0
   -2.2555    2.4386   -1.8027 H   0  0  0  0  0  0  0  0  0  0  0  0
   -4.0441    2.2455   -1.7786 H   0  0  0  0  0  0  0  0  0  0  0  0
   -2.9984    0.8565   -2.2281 H   0  0  0  0  0  0  0  0  0  0  0  0
   -4.2043   -0.1286    0.6647 C   0  0  0  0  0  0  0  0  0  0  0  0
   -4.0352   -1.0392    0.0552 H   0  0  0  0  0  0  0  0  0  0  0  0
   -5.2370    0.2230    0.4607 H   0  0  0  0  0  0  0  0  0  0  0  0
   -4.1556   -0.4144    1.7353 H   0  0  0  0  0  0  0  0  0  0  0  0
    2.9624    1.2408    0.2536 Si  0  0  0  0  0  0  0  0  0  0  0  0
    3.2407    2.7464    1.3627 C   0  0  0  0  0  0  0  0  0  0  0  0
    2.4554    3.5005    1.1532 H   0  0  0  0  0  0  0  0  0  0  0  0
    4.2325    3.2073    1.1756 H   0  0  0  0  0  0  0  0  0  0  0  0
    3.1843    2.4755    2.4368 H   0  0  0  0  0  0  0  0  0  0  0  0
    3.0814    1.7388   -1.5621 C   0  0  0  0  0  0  0  0  0  0  0  0
    2.2555    2.4384   -1.8029 H   0  0  0  0  0  0  0  0  0  0  0  0
    2.9984    0.8562   -2.2280 H   0  0  0  0  0  0  0  0  0  0  0  0
    4.0441    2.2453   -1.7786 H   0  0  0  0  0  0  0  0  0  0  0  0
    4.2042   -0.1285    0.6649 C   0  0  0  0  0  0  0  0  0  0  0  0
    5.2370    0.2231    0.4610 H   0  0  0  0  0  0  0  0  0  0  0  0
    4.0352   -1.0391    0.0555 H   0  0  0  0  0  0  0  0  0  0  0  0
    4.1555   -0.4142    1.7356 H   0  0  0  0  0  0  0  0  0  0  0  0
  1  2  2  0  0  0  0
  2 15  1  0  0  0  0
  2  3  1  0  0  0  0
  3 29  1  1  0  0  0
  3  4  1  0  0  0  0
  4  5  1  1  0  0  0
  5  8  1  0  0  0  0
  5  6  1  0  0  0  0
  7  5  1  0  0  0  0
  8 10  1  0  0  0  0
  9  8  1  0  0  0  0
 11  8  1  0  0  0  0
 11 13  1  0  0  0  0
 12 11  1  0  0  0  0
 14  4  1  0  0  0  0
 14 11  1  1  0  0  0
 15 16  1  1  0  0  0
 15 14  1  0  0  0  0
 16 25  1  0  0  0  0
 16 17  1  0  0  0  0
 17 18  1  0  0  0  0
 19 17  1  0  0  0  0
 20 17  1  0  0  0  0
 21 16  1  0  0  0  0
 22 21  1  0  0  0  0
 23 21  1  0  0  0  0
 24 21  1  0  0  0  0
 25 28  1  0  0  0  0
 26 25  1  0  0  0  0
 27 25  1  0  0  0  0
 29 38  1  0  0  0  0
 29 30  1  0  0  0  0
 30 33  1  0  0  0  0
 31 30  1  0  0  0  0
 32 30  1  0  0  0  0
 34 29  1  0  0  0  0
 35 34  1  0  0  0  0
 36 34  1  0  0  0  0
 37 34  1  0  0  0  0
 38 41  1  0  0  0  0
 39 38  1  0  0  0  0
 40 38  1  0  0  0  0
M  END
