2
 OpenBabel05122313113D

 30 31  0  0  0  0  0  0  0  0999 V2000
    0.7718    2.2754    0.3067 O   0  0  0  0  0  0  0  0  0  0  0  0
   -1.5947    1.1255   -0.0193 C   0  0  0  0  0  2  0  0  0  0  0  0
   -1.5216    2.5710    0.0688 C   0  0  0  0  0  0  0  0  0  0  0  0
   -0.2446    3.1812    0.2415 C   0  0  0  0  0  0  0  0  0  0  0  0
   -0.1096    4.5714    0.3479 C   0  0  0  0  0  0  0  0  0  0  0  0
   -1.2657    5.3698    0.2802 C   0  0  0  0  0  0  0  0  0  0  0  0
   -2.5377    4.7960    0.1072 C   0  0  0  0  0  0  0  0  0  0  0  0
   -2.6617    3.4055    0.0027 C   0  0  0  0  0  0  0  0  0  0  0  0
    2.1753    2.6620    0.3306 C   0  0  0  0  0  0  0  0  0  0  0  0
    2.6346    3.1356   -1.0502 C   0  0  0  0  0  0  0  0  0  0  0  0
    4.1432    3.4220   -1.0508 C   0  0  0  0  0  0  0  0  0  0  0  0
    4.9462    2.2022   -0.5792 C   0  0  0  0  0  0  0  0  0  0  0  0
    4.4702    1.7329    0.8009 C   0  0  0  0  0  0  0  0  0  0  0  0
    2.9648    1.4422    0.8007 C   0  0  0  0  0  0  0  0  0  0  0  0
   -2.6042    0.7067   -0.1760 H   0  0  0  0  0  0  0  0  0  0  0  0
    0.8753    5.0375    0.4821 H   0  0  0  0  0  0  0  0  0  0  0  0
   -1.1637    6.4625    0.3638 H   0  0  0  0  0  0  0  0  0  0  0  0
   -3.4293    5.4378    0.0546 H   0  0  0  0  0  0  0  0  0  0  0  0
   -3.6473    2.9321   -0.1299 H   0  0  0  0  0  0  0  0  0  0  0  0
    2.2779    3.4767    1.0832 H   0  0  0  0  0  0  0  0  0  0  0  0
    2.0627    4.0321   -1.3652 H   0  0  0  0  0  0  0  0  0  0  0  0
    2.3877    2.3265   -1.7695 H   0  0  0  0  0  0  0  0  0  0  0  0
    4.4618    3.7339   -2.0669 H   0  0  0  0  0  0  0  0  0  0  0  0
    4.3618    4.2837   -0.3794 H   0  0  0  0  0  0  0  0  0  0  0  0
    6.0316    2.4353   -0.5601 H   0  0  0  0  0  0  0  0  0  0  0  0
    4.8087    1.3739   -1.3099 H   0  0  0  0  0  0  0  0  0  0  0  0
    5.0171    0.8222    1.1198 H   0  0  0  0  0  0  0  0  0  0  0  0
    4.7008    2.5168    1.5576 H   0  0  0  0  0  0  0  0  0  0  0  0
    2.7555    0.6045    0.0982 H   0  0  0  0  0  0  0  0  0  0  0  0
    2.6030    1.1242    1.7980 H   0  0  0  0  0  0  0  0  0  0  0  0
  1  9  1  0  0  0  0
  2  3  1  0  0  0  0
  3  4  1  0  0  0  0
  4  1  1  0  0  0  0
  4  5  2  0  0  0  0
  5 16  1  0  0  0  0
  6  5  1  0  0  0  0
  6 17  1  0  0  0  0
  7  6  2  0  0  0  0
  8  3  2  0  0  0  0
  8  7  1  0  0  0  0
  9 14  1  0  0  0  0
  9 20  1  0  0  0  0
 10  9  1  0  0  0  0
 11 10  1  0  0  0  0
 11 12  1  0  0  0  0
 11 24  1  0  0  0  0
 12 25  1  0  0  0  0
 12 13  1  0  0  0  0
 13 27  1  0  0  0  0
 13 28  1  0  0  0  0
 14 13  1  0  0  0  0
 14 30  1  0  0  0  0
 15  2  1  0  0  0  0
 18  7  1  0  0  0  0
 19  8  1  0  0  0  0
 21 10  1  0  0  0  0
 22 10  1  0  0  0  0
 23 11  1  0  0  0  0
 26 12  1  0  0  0  0
 29 14  1  0  0  0  0
M  END
