4
 OpenBabel05122313113D

 49 51  0  0  1  0  0  0  0  0999 V2000
    0.7344   -1.9433   -0.6339 C   0  0  2  0  0  0  0  0  0  0  0  0
   -0.4651   -1.0219   -0.7679 C   0  0  0  0  0  0  0  0  0  0  0  0
   -1.8436   -1.3839   -0.8661 C   0  0  0  0  0  0  0  0  0  0  0  0
   -2.7879   -0.2934   -1.0122 C   0  0  1  0  0  3  0  0  0  0  0  0
   -2.2998    1.0534   -1.1024 C   0  0  1  0  0  3  0  0  0  0  0  0
   -0.8974    1.2976   -1.5445 C   0  0  0  0  0  0  0  0  0  0  0  0
   -0.0282    0.3417   -0.8361 C   0  0  2  0  0  3  0  0  0  0  0  0
    1.4191    0.3713   -0.5126 C   0  0  0  0  0  0  0  0  0  0  0  0
    2.2891    1.4541   -0.2554 C   0  0  0  0  0  0  0  0  0  0  0  0
    3.6481    1.1504    0.0292 C   0  0  0  0  0  0  0  0  0  0  0  0
    4.0949   -0.1928    0.1517 C   0  0  0  0  0  0  0  0  0  0  0  0
    3.1862   -1.2741   -0.0074 C   0  0  0  0  0  0  0  0  0  0  0  0
    1.8661   -0.9666   -0.3630 C   0  0  0  0  0  0  0  0  0  0  0  0
    0.9433   -2.7105   -1.9586 C   0  0  0  0  0  0  0  0  0  0  0  0
   -2.2810   -2.8249   -0.8241 C   0  0  0  0  0  0  0  0  0  0  0  0
   -4.2642   -0.5943   -1.0925 C   0  0  0  0  0  0  0  0  0  0  0  0
   -3.2495    2.2241   -1.1453 C   0  0  0  0  0  0  0  0  0  0  0  0
   -0.5067    2.2891   -2.3813 C   0  0  0  0  0  0  0  0  0  0  0  0
    1.7946    2.8792   -0.1866 C   0  0  0  0  0  0  0  0  0  0  0  0
    4.6491    2.2603    0.2499 C   0  0  0  0  0  0  0  0  0  0  0  0
    5.5445   -0.4467    0.4882 C   0  0  0  0  0  0  0  0  0  0  0  0
    3.6170   -2.7056    0.2170 C   0  0  0  0  0  0  0  0  0  0  0  0
   -3.2055   -2.9611   -0.2332 H   0  0  0  0  0  0  0  0  0  0  0  0
   -2.4831   -3.2113   -1.8463 H   0  0  0  0  0  0  0  0  0  0  0  0
   -1.5028   -3.4651   -0.3697 H   0  0  0  0  0  0  0  0  0  0  0  0
   -4.5590   -1.4540   -0.4641 H   0  0  0  0  0  0  0  0  0  0  0  0
   -4.5278   -0.8420   -2.1431 H   0  0  0  0  0  0  0  0  0  0  0  0
   -4.8845    0.2672   -0.7916 H   0  0  0  0  0  0  0  0  0  0  0  0
   -4.1201    2.0879   -0.4777 H   0  0  0  0  0  0  0  0  0  0  0  0
   -3.6348    2.3931   -2.1749 H   0  0  0  0  0  0  0  0  0  0  0  0
   -2.7244    3.1476   -0.8344 H   0  0  0  0  0  0  0  0  0  0  0  0
   -1.2357    2.9706   -2.8419 H   0  0  0  0  0  0  0  0  0  0  0  0
    0.5529    2.4339   -2.6302 H   0  0  0  0  0  0  0  0  0  0  0  0
    0.6944    2.9331   -0.1902 H   0  0  0  0  0  0  0  0  0  0  0  0
    2.1559    3.4975   -1.0365 H   0  0  0  0  0  0  0  0  0  0  0  0
    2.1474    3.3714    0.7418 H   0  0  0  0  0  0  0  0  0  0  0  0
    4.2352    3.2592    0.0298 H   0  0  0  0  0  0  0  0  0  0  0  0
    5.5459    2.1253   -0.3896 H   0  0  0  0  0  0  0  0  0  0  0  0
    5.0197    2.2763    1.2979 H   0  0  0  0  0  0  0  0  0  0  0  0
    6.2201    0.0102   -0.2658 H   0  0  0  0  0  0  0  0  0  0  0  0
    5.7902   -1.5216    0.5396 H   0  0  0  0  0  0  0  0  0  0  0  0
    5.8248    0.0073    1.4629 H   0  0  0  0  0  0  0  0  0  0  0  0
    4.1556   -2.8231    1.1789 H   0  0  0  0  0  0  0  0  0  0  0  0
    4.3009   -3.0685   -0.5800 H   0  0  0  0  0  0  0  0  0  0  0  0
    2.7521   -3.3935    0.2463 H   0  0  0  0  0  0  0  0  0  0  0  0
    0.6160   -2.6670    0.2008 H   0  0  0  0  0  0  0  0  0  0  0  0
    1.8727   -3.3103   -1.9202 H   0  0  0  0  0  0  0  0  0  0  0  0
    1.0347   -1.9967   -2.8012 H   0  0  0  0  0  0  0  0  0  0  0  0
    0.1006   -3.3961   -2.1740 H   0  0  0  0  0  0  0  0  0  0  0  0
  1 13  1  0  0  0  0
  1 46  1  1  0  0  0
  2  1  1  0  0  0  0
  3 15  1  0  0  0  0
  3  2  2  0  0  0  0
  4 16  1  6  0  0  0
  4  3  1  0  0  0  0
  5 17  1  6  0  0  0
  5  4  1  0  0  0  0
  6  5  1  0  0  0  0
  7  6  1  6  0  0  0
  7  2  1  0  0  0  0
  7  8  1  0  0  0  0
  8 13  2  0  0  0  0
  8  9  1  0  0  0  0
  9 19  1  0  0  0  0
  9 10  2  0  0  0  0
 10 11  1  0  0  0  0
 10 20  1  0  0  0  0
 11 21  1  0  0  0  0
 12 11  2  0  0  0  0
 12 22  1  0  0  0  0
 13 12  1  0  0  0  0
 14 47  1  0  0  0  0
 14  1  1  0  0  0  0
 15 25  1  0  0  0  0
 15 23  1  0  0  0  0
 16 28  1  0  0  0  0
 16 26  1  0  0  0  0
 17 31  1  0  0  0  0
 17 29  1  0  0  0  0
 18  6  2  0  0  0  0
 19 36  1  0  0  0  0
 20 39  1  0  0  0  0
 21 41  1  0  0  0  0
 21 42  1  0  0  0  0
 22 45  1  0  0  0  0
 22 43  1  0  0  0  0
 24 15  1  0  0  0  0
 27 16  1  0  0  0  0
 30 17  1  0  0  0  0
 32 18  1  0  0  0  0
 33 18  1  0  0  0  0
 34 19  1  0  0  0  0
 35 19  1  0  0  0  0
 37 20  1  0  0  0  0
 38 20  1  0  0  0  0
 40 21  1  0  0  0  0
 44 22  1  0  0  0  0
 48 14  1  0  0  0  0
 49 14  1  0  0  0  0
M  END
