8
 OpenBabel05122313113D

 23 23  0  0  0  0  0  0  0  0999 V2000
   -5.9510    0.2251   -0.4068 O   0  0  0  0  0  0  0  0  0  0  0  0
   -5.3521    2.2198   -1.2986 O   0  0  0  0  0  0  0  0  0  0  0  0
   -4.0910   -2.2578    1.1448 O   0  0  0  0  0  0  0  0  0  0  0  0
   -4.7140   -0.2671    2.0518 O   0  0  0  0  0  0  0  0  0  0  0  0
   -3.6112    0.7936   -0.5674 C   0  0  0  0  0  0  0  0  0  0  0  0
   -3.1301   -0.2219    0.2982 C   0  0  0  0  0  0  0  0  0  0  0  0
   -1.7595   -0.5251    0.3319 C   0  0  0  0  0  0  0  0  0  0  0  0
   -0.8352    0.1734   -0.4718 C   0  0  0  0  0  3  0  0  0  0  0  0
   -1.3171    1.1986   -1.3149 C   0  0  0  0  0  0  0  0  0  0  0  0
   -2.6856    1.5036   -1.3587 C   0  0  0  0  0  0  0  0  0  0  0  0
   -5.0755    1.0162   -0.7206 C   0  0  0  0  0  0  0  0  0  0  0  0
   -6.7388    2.4676   -1.5366 C   0  0  0  0  0  0  0  0  0  0  0  0
   -4.0341   -1.0422    1.1729 C   0  0  0  0  0  0  0  0  0  0  0  0
   -5.7069   -0.9505    2.8205 C   0  0  0  0  0  0  0  0  0  0  0  0
   -1.4119   -1.3289    0.9986 H   0  0  0  0  0  0  0  0  0  0  0  0
   -0.6274    1.7480   -1.9761 H   0  0  0  0  0  0  0  0  0  0  0  0
   -3.0618    2.2777   -2.0429 H   0  0  0  0  0  0  0  0  0  0  0  0
   -7.3132    2.4516   -0.5879 H   0  0  0  0  0  0  0  0  0  0  0  0
   -7.1717    1.6989   -2.2092 H   0  0  0  0  0  0  0  0  0  0  0  0
   -6.7975    3.4665   -2.0053 H   0  0  0  0  0  0  0  0  0  0  0  0
   -5.2889   -1.8593    3.2977 H   0  0  0  0  0  0  0  0  0  0  0  0
   -6.5491   -1.2487    2.1626 H   0  0  0  0  0  0  0  0  0  0  0  0
   -6.0573   -0.2330    3.5844 H   0  0  0  0  0  0  0  0  0  0  0  0
  2 11  1  0  0  0  0
  3 13  2  0  0  0  0
  4 14  1  0  0  0  0
  5  6  1  0  0  0  0
  6  7  2  0  0  0  0
  6 13  1  0  0  0  0
  7 15  1  0  0  0  0
  8  7  1  0  0  0  0
  9  8  2  0  0  0  0
 10  9  1  0  0  0  0
 10  5  2  0  0  0  0
 11  5  1  0  0  0  0
 11  1  2  0  0  0  0
 12  2  1  0  0  0  0
 12 18  1  0  0  0  0
 13  4  1  0  0  0  0
 14 21  1  0  0  0  0
 14 23  1  0  0  0  0
 16  9  1  0  0  0  0
 17 10  1  0  0  0  0
 19 12  1  0  0  0  0
 20 12  1  0  0  0  0
 22 14  1  0  0  0  0
M  END
