1
 OpenBabel05122313113D

 26 26  0  0  0  0  0  0  0  0999 V2000
   -1.6387    0.9679   -0.1654 C   0  0  0  0  0  2  0  0  0  0  0  0
   -2.5535    0.3515   -0.2104 H   0  0  0  0  0  0  0  0  0  0  0  0
   -1.8489    2.4024   -0.1776 C   0  0  0  0  0  0  0  0  0  0  0  0
   -3.1374    2.9868   -0.1895 C   0  0  0  0  0  0  0  0  0  0  0  0
   -4.0123    2.3193   -0.2366 H   0  0  0  0  0  0  0  0  0  0  0  0
   -3.2933    4.3759   -0.1177 C   0  0  0  0  0  0  0  0  0  0  0  0
   -4.2987    4.8218   -0.1196 H   0  0  0  0  0  0  0  0  0  0  0  0
   -2.1574    5.1994   -0.0288 C   0  0  0  0  0  0  0  0  0  0  0  0
   -2.2747    6.2916    0.0395 H   0  0  0  0  0  0  0  0  0  0  0  0
   -0.8618    4.6514   -0.0253 C   0  0  0  0  0  0  0  0  0  0  0  0
    0.0135    5.3103    0.0428 H   0  0  0  0  0  0  0  0  0  0  0  0
   -0.7157    3.2624   -0.1209 C   0  0  0  0  0  0  0  0  0  0  0  0
    0.4830    2.6000   -0.1817 O   0  0  0  0  0  0  0  0  0  0  0  0
    1.6653    3.1972    0.4039 C   0  0  0  0  0  0  0  0  0  0  0  0
    1.4889    3.2751    1.4971 H   0  0  0  0  0  0  0  0  0  0  0  0
    1.8027    4.2130   -0.0246 H   0  0  0  0  0  0  0  0  0  0  0  0
    2.8854    2.3332    0.0980 C   0  0  0  0  0  0  0  0  0  0  0  0
    2.6017    1.2831    0.3396 H   0  0  0  0  0  0  0  0  0  0  0  0
    4.0253    2.7243    1.0453 C   0  0  0  0  0  0  0  0  0  0  0  0
    4.3144    3.7898    0.9176 H   0  0  0  0  0  0  0  0  0  0  0  0
    4.9241    2.1093    0.8429 H   0  0  0  0  0  0  0  0  0  0  0  0
    3.7394    2.5674    2.1051 H   0  0  0  0  0  0  0  0  0  0  0  0
    3.2925    2.4081   -1.3754 C   0  0  0  0  0  0  0  0  0  0  0  0
    2.4571    2.1008   -2.0343 H   0  0  0  0  0  0  0  0  0  0  0  0
    4.1407    1.7239   -1.5785 H   0  0  0  0  0  0  0  0  0  0  0  0
    3.6095    3.4381   -1.6475 H   0  0  0  0  0  0  0  0  0  0  0  0
  2  1  1  0  0  0  0
  3  1  1  0  0  0  0
  3 12  1  0  0  0  0
  4  3  2  0  0  0  0
  4  6  1  0  0  0  0
  5  4  1  0  0  0  0
  6  8  2  0  0  0  0
  7  6  1  0  0  0  0
  8 10  1  0  0  0  0
  8  9  1  0  0  0  0
 10 11  1  0  0  0  0
 12 10  2  0  0  0  0
 13 12  1  0  0  0  0
 13 14  1  0  0  0  0
 14 15  1  0  0  0  0
 16 14  1  0  0  0  0
 17 18  1  0  0  0  0
 17 14  1  0  0  0  0
 17 19  1  0  0  0  0
 19 22  1  0  0  0  0
 20 19  1  0  0  0  0
 21 19  1  0  0  0  0
 23 17  1  0  0  0  0
 24 23  1  0  0  0  0
 25 23  1  0  0  0  0
 26 23  1  0  0  0  0
M  END
