2
 OpenBabel05122313113D

 27 27  0  0  0  0  0  0  0  0999 V2000
    0.2682   -3.0908    0.5840 Se  0  0  0  0  0  0  0  0  0  0  0  0
   -1.5976   -0.8347    0.0139 C   0  0  0  0  0  3  0  0  0  0  0  0
   -0.4124   -1.4238    0.2665 C   0  0  0  0  0  3  0  0  0  0  0  0
    2.2084   -2.7274    0.7335 C   0  0  0  0  0  0  0  0  0  0  0  0
    2.2770   -1.6505    0.9819 H   0  0  0  0  0  0  0  0  0  0  0  0
    2.5362   -3.3072    1.6203 H   0  0  0  0  0  0  0  0  0  0  0  0
    2.9862   -3.0933   -0.5244 C   0  0  0  0  0  0  0  0  0  0  0  0
    2.9148   -4.1860   -0.7210 H   0  0  0  0  0  0  0  0  0  0  0  0
    2.5238   -2.5814   -1.3937 H   0  0  0  0  0  0  0  0  0  0  0  0
    4.4588   -2.6759   -0.4177 C   0  0  0  0  0  0  0  0  0  0  0  0
    4.9196   -3.1564    0.4740 H   0  0  0  0  0  0  0  0  0  0  0  0
    4.5005   -1.5802   -0.2314 H   0  0  0  0  0  0  0  0  0  0  0  0
    5.2661   -3.0180   -1.6703 C   0  0  0  0  0  0  0  0  0  0  0  0
    6.3233   -2.6989   -1.5739 H   0  0  0  0  0  0  0  0  0  0  0  0
    4.8441   -2.5168   -2.5660 H   0  0  0  0  0  0  0  0  0  0  0  0
    5.2624   -4.1101   -1.8693 H   0  0  0  0  0  0  0  0  0  0  0  0
   -2.9916   -1.1145   -0.2031 C   0  0  0  0  0  0  0  0  0  0  0  0
   -3.9114   -0.0780   -0.5019 C   0  0  0  0  0  0  0  0  0  0  0  0
   -3.5423    0.9539   -0.5642 H   0  0  0  0  0  0  0  0  0  0  0  0
   -5.2607   -0.3804   -0.7129 C   0  0  0  0  0  0  0  0  0  0  0  0
   -5.9713    0.4267   -0.9455 H   0  0  0  0  0  0  0  0  0  0  0  0
   -5.7101   -1.7091   -0.6282 C   0  0  0  0  0  0  0  0  0  0  0  0
   -6.7733   -1.9409   -0.7942 H   0  0  0  0  0  0  0  0  0  0  0  0
   -4.8064   -2.7459   -0.3320 C   0  0  0  0  0  0  0  0  0  0  0  0
   -5.1606   -3.7856   -0.2665 H   0  0  0  0  0  0  0  0  0  0  0  0
   -3.4564   -2.4541   -0.1214 C   0  0  0  0  0  0  0  0  0  0  0  0
   -2.7429   -3.2599    0.1092 H   0  0  0  0  0  0  0  0  0  0  0  0
  1  4  1  0  0  0  0
  2  3  2  0  0  0  0
  3  1  1  0  0  0  0
  4  5  1  0  0  0  0
  4  6  1  0  0  0  0
  7 10  1  0  0  0  0
  7  4  1  0  0  0  0
  8  7  1  0  0  0  0
  9  7  1  0  0  0  0
 10 12  1  0  0  0  0
 10 11  1  0  0  0  0
 13 14  1  0  0  0  0
 13 10  1  0  0  0  0
 15 13  1  0  0  0  0
 16 13  1  0  0  0  0
 17 26  1  0  0  0  0
 17  2  1  0  0  0  0
 18 17  2  0  0  0  0
 19 18  1  0  0  0  0
 20 22  2  0  0  0  0
 20 18  1  0  0  0  0
 21 20  1  0  0  0  0
 22 24  1  0  0  0  0
 23 22  1  0  0  0  0
 24 25  1  0  0  0  0
 24 26  2  0  0  0  0
 26 27  1  0  0  0  0
M  END
