5
 OpenBabel05122313113D

 45 46  0  0  0  0  0  0  0  0999 V2000
   -1.4486   -1.5857    1.5144 O   0  0  0  0  0  0  0  0  0  0  0  0
   -0.5561    1.0116    2.1844 O   0  0  0  0  0  0  0  0  0  0  0  0
    0.3125   -2.7044   -0.4439 N   0  0  0  0  0  0  0  0  0  0  0  0
    0.7453    2.6561   -0.0262 N   0  0  0  0  0  0  0  0  0  0  0  0
    1.8168   -0.1389   -0.2244 C   0  0  0  0  0  3  0  0  0  0  0  0
    2.6255    1.0205   -0.2624 C   0  0  0  0  0  0  0  0  0  0  0  0
    4.0040    0.9153    0.0049 C   0  0  0  0  0  0  0  0  0  0  0  0
    4.5816   -0.3317    0.2837 C   0  0  0  0  0  0  0  0  0  0  0  0
    3.7749   -1.4753    0.3260 C   0  0  0  0  0  0  0  0  0  0  0  0
    2.3862   -1.3881    0.0938 C   0  0  0  0  0  0  0  0  0  0  0  0
    1.5454   -2.6434    0.3184 C   0  0  0  0  0  0  0  0  0  0  0  0
   -0.7837   -3.4492    0.1587 C   0  0  0  0  0  0  0  0  0  0  0  0
   -1.1838   -2.9675    1.5495 C   0  0  0  0  0  0  0  0  0  0  0  0
   -1.6869   -1.0009    2.7757 C   0  0  0  0  0  0  0  0  0  0  0  0
   -1.8040    0.5024    2.6183 C   0  0  0  0  0  0  0  0  0  0  0  0
   -0.4943    2.4253    2.1287 C   0  0  0  0  0  0  0  0  0  0  0  0
    0.7932    2.8364    1.4211 C   0  0  0  0  0  0  0  0  0  0  0  0
    2.0438    2.3801   -0.6315 C   0  0  0  0  0  0  0  0  0  0  0  0
    0.5273   -3.0424   -1.8395 C   0  0  0  0  0  0  0  0  0  0  0  0
   -0.0020    3.6936   -0.7145 C   0  0  0  0  0  0  0  0  0  0  0  0
    4.6296    1.8231   -0.0142 H   0  0  0  0  0  0  0  0  0  0  0  0
    5.6624   -0.4100    0.4769 H   0  0  0  0  0  0  0  0  0  0  0  0
    4.2222   -2.4565    0.5579 H   0  0  0  0  0  0  0  0  0  0  0  0
    2.1874   -3.5474    0.1490 H   0  0  0  0  0  0  0  0  0  0  0  0
    1.2882   -2.6585    1.3978 H   0  0  0  0  0  0  0  0  0  0  0  0
   -0.5726   -4.5510    0.2329 H   0  0  0  0  0  0  0  0  0  0  0  0
   -1.6601   -3.3369   -0.5140 H   0  0  0  0  0  0  0  0  0  0  0  0
   -2.0837   -3.5471    1.8749 H   0  0  0  0  0  0  0  0  0  0  0  0
   -0.3847   -3.1903    2.3010 H   0  0  0  0  0  0  0  0  0  0  0  0
   -0.8498   -1.2355    3.4796 H   0  0  0  0  0  0  0  0  0  0  0  0
   -2.6304   -1.3933    3.2305 H   0  0  0  0  0  0  0  0  0  0  0  0
   -2.6043    0.7440    1.8778 H   0  0  0  0  0  0  0  0  0  0  0  0
   -2.0928    0.9409    3.6052 H   0  0  0  0  0  0  0  0  0  0  0  0
   -0.5018    2.8519    3.1626 H   0  0  0  0  0  0  0  0  0  0  0  0
   -1.3875    2.8363    1.5998 H   0  0  0  0  0  0  0  0  0  0  0  0
    1.0376    3.8963    1.6942 H   0  0  0  0  0  0  0  0  0  0  0  0
    1.6065    2.2006    1.8273 H   0  0  0  0  0  0  0  0  0  0  0  0
    2.7976    3.1780   -0.4015 H   0  0  0  0  0  0  0  0  0  0  0  0
    1.8964    2.4104   -1.7338 H   0  0  0  0  0  0  0  0  0  0  0  0
   -0.4119   -2.9046   -2.4127 H   0  0  0  0  0  0  0  0  0  0  0  0
    0.8763   -4.0986   -1.9822 H   0  0  0  0  0  0  0  0  0  0  0  0
    1.2940   -2.3683   -2.2714 H   0  0  0  0  0  0  0  0  0  0  0  0
   -1.0227    3.7762   -0.2927 H   0  0  0  0  0  0  0  0  0  0  0  0
   -0.1188    3.4272   -1.7836 H   0  0  0  0  0  0  0  0  0  0  0  0
    0.4865    4.7013   -0.6493 H   0  0  0  0  0  0  0  0  0  0  0  0
  1 13  1  0  0  0  0
  1 14  1  0  0  0  0
  2 15  1  0  0  0  0
  3 12  1  0  0  0  0
  3 11  1  0  0  0  0
  4 17  1  0  0  0  0
  5 10  1  0  0  0  0
  6  5  2  0  0  0  0
  6  7  1  0  0  0  0
  7  8  2  0  0  0  0
  8  9  1  0  0  0  0
  8 22  1  0  0  0  0
  9 23  1  0  0  0  0
 10 11  1  0  0  0  0
 10  9  2  0  0  0  0
 11 25  1  0  0  0  0
 12 26  1  0  0  0  0
 12 13  1  0  0  0  0
 13 28  1  0  0  0  0
 13 29  1  0  0  0  0
 14 31  1  0  0  0  0
 14 30  1  0  0  0  0
 15 14  1  0  0  0  0
 15 33  1  0  0  0  0
 16  2  1  0  0  0  0
 16 34  1  0  0  0  0
 17 36  1  0  0  0  0
 17 37  1  0  0  0  0
 17 16  1  0  0  0  0
 18 38  1  0  0  0  0
 18  6  1  0  0  0  0
 18  4  1  0  0  0  0
 19  3  1  0  0  0  0
 20 45  1  0  0  0  0
 20 43  1  0  0  0  0
 20  4  1  0  0  0  0
 21  7  1  0  0  0  0
 24 11  1  0  0  0  0
 27 12  1  0  0  0  0
 32 15  1  0  0  0  0
 35 16  1  0  0  0  0
 39 18  1  0  0  0  0
 40 19  1  0  0  0  0
 41 19  1  0  0  0  0
 42 19  1  0  0  0  0
 44 20  1  0  0  0  0
M  END
