20
 OpenBabel05122313113D

 53 56  0  0  0  0  0  0  0  0999 V2000
   -1.6828    0.5477   -0.5969 N   0  0  0  0  0  0  0  0  0  0  0  0
   -0.1628    1.3991    0.7206 N   0  0  0  0  0  0  0  0  0  0  0  0
   -2.1957    1.7684   -0.1616 C   0  0  0  0  0  0  0  0  0  0  0  0
    4.5376    0.2706   -0.6791 C   0  0  0  0  0  0  0  0  0  0  0  0
    5.4061   -0.0762   -1.2624 H   0  0  0  0  0  0  0  0  0  0  0  0
   -1.2084    2.3226    0.6894 C   0  0  0  0  0  0  0  0  0  0  0  0
   -3.4004    2.4360   -0.4245 C   0  0  0  0  0  0  0  0  0  0  0  0
   -4.1731    1.9931   -1.0671 H   0  0  0  0  0  0  0  0  0  0  0  0
   -3.5474   -1.0821   -0.7483 C   0  0  0  0  0  0  0  0  0  0  0  0
   -2.4002   -0.3906   -1.4575 C   0  0  0  0  0  0  0  0  0  0  0  0
   -1.6437   -1.1281   -1.7967 H   0  0  0  0  0  0  0  0  0  0  0  0
   -2.7661    0.1578   -2.3492 H   0  0  0  0  0  0  0  0  0  0  0  0
   -3.2996   -1.8534    0.4048 C   0  0  0  0  0  0  0  0  0  0  0  0
   -2.2682   -1.9501    0.7815 H   0  0  0  0  0  0  0  0  0  0  0  0
    3.0456   -0.0219    1.2197 C   0  0  0  0  0  0  0  0  0  0  0  0
   -1.3962    3.5707    1.3029 C   0  0  0  0  0  0  0  0  0  0  0  0
   -0.6418    4.0060    1.9728 H   0  0  0  0  0  0  0  0  0  0  0  0
    2.7044    1.8318   -0.3923 C   0  0  0  0  0  0  0  0  0  0  0  0
    3.8293    1.3963   -1.1308 C   0  0  0  0  0  0  0  0  0  0  0  0
   -0.4479    0.3084   -0.0548 C   0  0  0  0  0  2  0  0  0  0  0  0
   -3.5831    3.6845    0.1874 C   0  0  0  0  0  0  0  0  0  0  0  0
   -4.5164    4.2386    0.0100 H   0  0  0  0  0  0  0  0  0  0  0  0
   -5.9206   -1.6246   -0.5748 C   0  0  0  0  0  0  0  0  0  0  0  0
   -6.9462   -1.5334   -0.9635 H   0  0  0  0  0  0  0  0  0  0  0  0
    2.3172    1.1133    0.7730 C   0  0  0  0  0  0  0  0  0  0  0  0
   -4.3541   -2.5006    1.0625 C   0  0  0  0  0  0  0  0  0  0  0  0
   -4.1487   -3.1049    1.9589 H   0  0  0  0  0  0  0  0  0  0  0  0
   -2.5982    4.2417    1.0338 C   0  0  0  0  0  0  0  0  0  0  0  0
   -2.7805    5.2214    1.4992 H   0  0  0  0  0  0  0  0  0  0  0  0
   -4.8637   -0.9742   -1.2316 C   0  0  0  0  0  0  0  0  0  0  0  0
   -5.0633   -0.3791   -2.1378 H   0  0  0  0  0  0  0  0  0  0  0  0
    4.1766   -0.4449    0.4703 C   0  0  0  0  0  0  0  0  0  0  0  0
    4.9337   -1.6858    0.8579 C   0  0  0  0  0  0  0  0  0  0  0  0
    4.2774   -2.5749    0.7280 H   0  0  0  0  0  0  0  0  0  0  0  0
    5.2634   -1.6676    1.9172 H   0  0  0  0  0  0  0  0  0  0  0  0
    5.8278   -1.8247    0.2207 H   0  0  0  0  0  0  0  0  0  0  0  0
    1.0750    1.5745    1.5036 C   0  0  0  0  0  0  0  0  0  0  0  0
    0.9502    1.0515    2.4691 H   0  0  0  0  0  0  0  0  0  0  0  0
    1.1423    2.6555    1.7352 H   0  0  0  0  0  0  0  0  0  0  0  0
    1.9072    3.0178   -0.8816 C   0  0  0  0  0  0  0  0  0  0  0  0
    1.4300    3.5894   -0.0621 H   0  0  0  0  0  0  0  0  0  0  0  0
    1.0865    2.7030   -1.5636 H   0  0  0  0  0  0  0  0  0  0  0  0
    2.5375    3.7287   -1.4476 H   0  0  0  0  0  0  0  0  0  0  0  0
   -5.6673   -2.3866    0.5752 C   0  0  0  0  0  0  0  0  0  0  0  0
   -6.4940   -2.8965    1.0926 H   0  0  0  0  0  0  0  0  0  0  0  0
    4.2659    2.0975   -2.3940 C   0  0  0  0  0  0  0  0  0  0  0  0
    5.1437    1.5940   -2.8421 H   0  0  0  0  0  0  0  0  0  0  0  0
    4.5471    3.1564   -2.2088 H   0  0  0  0  0  0  0  0  0  0  0  0
    3.4609    2.1120   -3.1586 H   0  0  0  0  0  0  0  0  0  0  0  0
    2.6730   -0.8421    2.4326 C   0  0  0  0  0  0  0  0  0  0  0  0
    2.5520   -1.9071    2.1441 H   0  0  0  0  0  0  0  0  0  0  0  0
    1.7312   -0.5302    2.9182 H   0  0  0  0  0  0  0  0  0  0  0  0
    3.4730   -0.8021    3.2024 H   0  0  0  0  0  0  0  0  0  0  0  0
  1  3  1  0  0  0  0
  1 20  1  0  0  0  0
  2 37  1  0  0  0  0
  3  6  1  0  0  0  0
  4 32  1  0  0  0  0
  5  4  1  0  0  0  0
  6  2  1  0  0  0  0
  6 16  2  0  0  0  0
  7  3  2  0  0  0  0
  7 21  1  0  0  0  0
  8  7  1  0  0  0  0
  9 13  1  0  0  0  0
 10  9  1  0  0  0  0
 10  1  1  0  0  0  0
 11 10  1  0  0  0  0
 12 10  1  0  0  0  0
 13 14  1  0  0  0  0
 13 26  2  0  0  0  0
 15 50  1  0  0  0  0
 16 17  1  0  0  0  0
 18 25  2  0  0  0  0
 19  4  2  0  0  0  0
 19 18  1  0  0  0  0
 20  2  1  0  0  0  0
 21 28  2  0  0  0  0
 22 21  1  0  0  0  0
 23 44  2  0  0  0  0
 24 23  1  0  0  0  0
 25 15  1  0  0  0  0
 25 37  1  0  0  0  0
 26 27  1  0  0  0  0
 28 16  1  0  0  0  0
 28 29  1  0  0  0  0
 30  9  2  0  0  0  0
 30 23  1  0  0  0  0
 31 30  1  0  0  0  0
 32 33  1  0  0  0  0
 32 15  2  0  0  0  0
 33 35  1  0  0  0  0
 34 33  1  0  0  0  0
 36 33  1  0  0  0  0
 37 39  1  0  0  0  0
 37 38  1  0  0  0  0
 40 18  1  0  0  0  0
 40 41  1  0  0  0  0
 42 40  1  0  0  0  0
 43 40  1  0  0  0  0
 44 26  1  0  0  0  0
 44 45  1  0  0  0  0
 46 48  1  0  0  0  0
 46 19  1  0  0  0  0
 47 46  1  0  0  0  0
 49 46  1  0  0  0  0
 50 52  1  0  0  0  0
 50 53  1  0  0  0  0
 51 50  1  0  0  0  0
M  END
