1
 OpenBabel05122313113D

 15 15  0  0  0  0  0  0  0  0999 V2000
    0.1760   -0.8214   -2.7043 C   0  0  0  0  0  3  0  0  0  0  0  0
    0.1894   -1.9265   -2.7246 H   0  0  0  0  0  0  0  0  0  0  0  0
   -0.4129   -0.3903   -3.5331 H   0  0  0  0  0  0  0  0  0  0  0  0
    1.3396   -0.0993   -2.2653 C   0  0  0  0  0  3  0  0  0  0  0  0
    1.5702    0.8844   -2.7127 H   0  0  0  0  0  0  0  0  0  0  0  0
    2.4273   -0.6940   -1.4856 C   0  0  0  0  0  0  0  0  0  0  0  0
    2.4766   -2.0652   -1.1083 C   0  0  0  0  0  0  0  0  0  0  0  0
    1.7140   -2.7705   -1.4710 H   0  0  0  0  0  0  0  0  0  0  0  0
    3.5058   -2.5295   -0.2815 C   0  0  0  0  0  0  0  0  0  0  0  0
    3.5218   -3.5954    0.0155 H   0  0  0  0  0  0  0  0  0  0  0  0
    4.4923   -0.4755   -0.1929 C   0  0  0  0  0  0  0  0  0  0  0  0
    5.3211    0.1549    0.1803 H   0  0  0  0  0  0  0  0  0  0  0  0
    3.5131    0.0912   -1.0108 C   0  0  0  0  0  0  0  0  0  0  0  0
    3.5692    1.1603   -1.2696 H   0  0  0  0  0  0  0  0  0  0  0  0
    4.5058   -1.7665    0.2000 N   0  0  0  0  0  0  0  0  0  0  0  0
  1  4  1  0  0  0  0
  2  1  1  0  0  0  0
  3  1  1  0  0  0  0
  4  6  1  0  0  0  0
  5  4  1  0  0  0  0
  6  7  2  0  0  0  0
  6 13  1  0  0  0  0
  7  9  1  0  0  0  0
  8  7  1  0  0  0  0
  9 10  1  0  0  0  0
  9 15  2  0  0  0  0
 11 12  1  0  0  0  0
 11 15  1  0  0  0  0
 13 11  2  0  0  0  0
 14 13  1  0  0  0  0
M  END
