1
 OpenBabel05122313113D

 18 18  0  0  0  0  0  0  0  0999 V2000
    2.3614   -0.7345   -0.4314 C   0  0  0  0  0  2  0  0  0  0  0  0
    3.3378   -0.0827    0.2714 N   0  0  0  0  0  0  0  0  0  0  0  0
    3.1297    0.5693    1.5597 C   0  0  0  0  0  0  0  0  0  0  0  0
    3.9824    0.3159    2.2247 H   0  0  0  0  0  0  0  0  0  0  0  0
    2.2140    0.1328    2.0040 H   0  0  0  0  0  0  0  0  0  0  0  0
    3.0241    2.0862    1.4721 C   0  0  0  0  0  0  0  0  0  0  0  0
    3.9147    2.5399    0.9981 H   0  0  0  0  0  0  0  0  0  0  0  0
    2.8982    2.5157    2.4830 H   0  0  0  0  0  0  0  0  0  0  0  0
    1.4913    2.6895    0.4098 Br  0  0  0  0  0  0  0  0  0  0  0  0
    4.5269   -0.0521   -0.4430 C   0  0  0  0  0  0  0  0  0  0  0  0
    5.4374    0.4175   -0.0579 H   0  0  0  0  0  0  0  0  0  0  0  0
    4.2908   -0.7102   -1.6217 C   0  0  0  0  0  0  0  0  0  0  0  0
    4.9541   -0.9270   -2.4646 H   0  0  0  0  0  0  0  0  0  0  0  0
    2.9652   -1.1179   -1.5932 N   0  0  0  0  0  0  0  0  0  0  0  0
    2.3149   -1.8572   -2.6688 C   0  0  0  0  0  0  0  0  0  0  0  0
    1.2620   -2.0334   -2.3843 H   0  0  0  0  0  0  0  0  0  0  0  0
    2.8208   -2.8293   -2.8267 H   0  0  0  0  0  0  0  0  0  0  0  0
    2.3449   -1.2707   -3.6072 H   0  0  0  0  0  0  0  0  0  0  0  0
  1  2  1  0  0  0  0
  2  3  1  0  0  0  0
  3  5  1  0  0  0  0
  3  4  1  0  0  0  0
  6  3  1  0  0  0  0
  6  8  1  0  0  0  0
  7  6  1  0  0  0  0
  9  6  1  0  0  0  0
 10 11  1  0  0  0  0
 10  2  1  0  0  0  0
 12 14  1  0  0  0  0
 12 10  2  0  0  0  0
 13 12  1  0  0  0  0
 14  1  1  0  0  0  0
 15 16  1  0  0  0  0
 15 14  1  0  0  0  0
 17 15  1  0  0  0  0
 18 15  1  0  0  0  0
M  END
