1
 OpenBabel05122313113D

 21 21  0  0  0  0  0  0  0  0999 V2000
   -2.0404    0.0895   -0.2657 C   0  0  0  0  0  2  0  0  0  0  0  0
   -2.9192   -0.9400   -0.4410 N   0  0  0  0  0  0  0  0  0  0  0  0
   -2.5253   -2.3304   -0.7005 C   0  0  0  0  0  0  0  0  0  0  0  0
   -1.6422   -2.2950   -1.3688 H   0  0  0  0  0  0  0  0  0  0  0  0
   -3.3492   -2.8033   -1.2700 H   0  0  0  0  0  0  0  0  0  0  0  0
   -2.2180   -3.1040    0.5780 C   0  0  0  0  0  0  0  0  0  0  0  0
   -1.3714   -2.6414    1.1246 H   0  0  0  0  0  0  0  0  0  0  0  0
   -1.9432   -4.1482    0.3305 H   0  0  0  0  0  0  0  0  0  0  0  0
   -3.0943   -3.1331    1.2553 H   0  0  0  0  0  0  0  0  0  0  0  0
   -4.2253   -0.5063   -0.2766 C   0  0  0  0  0  0  0  0  0  0  0  0
   -5.0847   -1.1748   -0.3863 H   0  0  0  0  0  0  0  0  0  0  0  0
   -4.1619    0.8363    0.0002 C   0  0  0  0  0  0  0  0  0  0  0  0
   -4.9551    1.5683    0.1801 H   0  0  0  0  0  0  0  0  0  0  0  0
   -2.8191    1.1795   -0.0043 N   0  0  0  0  0  0  0  0  0  0  0  0
   -2.2968    2.5158    0.3075 C   0  0  0  0  0  0  0  0  0  0  0  0
   -3.0475    3.2517   -0.0419 H   0  0  0  0  0  0  0  0  0  0  0  0
   -1.3869    2.6560   -0.3088 H   0  0  0  0  0  0  0  0  0  0  0  0
   -1.9875    2.6955    1.7903 C   0  0  0  0  0  0  0  0  0  0  0  0
   -2.8924    2.5550    2.4140 H   0  0  0  0  0  0  0  0  0  0  0  0
   -1.6010    3.7170    1.9746 H   0  0  0  0  0  0  0  0  0  0  0  0
   -1.2194    1.9682    2.1222 H   0  0  0  0  0  0  0  0  0  0  0  0
  1 14  1  0  0  0  0
  2 10  1  0  0  0  0
  2  1  1  0  0  0  0
  3  2  1  0  0  0  0
  3  6  1  0  0  0  0
  4  3  1  0  0  0  0
  5  3  1  0  0  0  0
  6  7  1  0  0  0  0
  6  9  1  0  0  0  0
  8  6  1  0  0  0  0
 10 12  2  0  0  0  0
 11 10  1  0  0  0  0
 12 13  1  0  0  0  0
 14 12  1  0  0  0  0
 14 15  1  0  0  0  0
 15 18  1  0  0  0  0
 16 15  1  0  0  0  0
 17 15  1  0  0  0  0
 18 20  1  0  0  0  0
 18 21  1  0  0  0  0
 18 19  1  0  0  0  0
M  END
