2
q = 0.0, confidence = 0.99

 29 30  0  0  1  0  0  0  0  0999 V2000
    2.0096   -0.4920   -0.9380 C   0  0  2  0  0  3  0  0  0  0  0  0
    1.1291    0.1897   -1.8503 C   0  0  0  0  0  3  0  0  0  0  0  0
    1.5706    0.8927   -2.5759 H   0  0  0  0  0  0  0  0  0  0  0  0
   -0.2902    0.1432   -1.7475 C   0  0  0  0  0  3  0  0  0  0  0  0
   -0.8704    0.8217   -2.3934 H   0  0  0  0  0  0  0  0  0  0  0  0
   -0.9231   -0.6440   -0.7356 C   0  0  0  0  0  3  0  0  0  0  0  0
   -0.4511   -1.6116   -0.5017 H   0  0  0  0  0  0  0  0  0  0  0  0
   -2.3590   -0.5684   -0.4117 C   0  0  0  0  0  0  0  0  0  0  0  0
   -2.9047   -1.5654    0.4317 C   0  0  0  0  0  0  0  0  0  0  0  0
   -2.2389   -2.3512    0.8216 H   0  0  0  0  0  0  0  0  0  0  0  0
   -4.2629   -1.5620    0.7705 C   0  0  0  0  0  0  0  0  0  0  0  0
   -4.6641   -2.3474    1.4289 H   0  0  0  0  0  0  0  0  0  0  0  0
   -5.1114   -0.5613    0.2691 C   0  0  0  0  0  0  0  0  0  0  0  0
   -6.1797   -0.5560    0.5332 H   0  0  0  0  0  0  0  0  0  0  0  0
   -4.5865    0.4346   -0.5709 C   0  0  0  0  0  0  0  0  0  0  0  0
   -5.2437    1.2236   -0.9671 H   0  0  0  0  0  0  0  0  0  0  0  0
   -3.2264    0.4346   -0.9045 C   0  0  0  0  0  0  0  0  0  0  0  0
   -2.8374    1.2322   -1.5549 H   0  0  0  0  0  0  0  0  0  0  0  0
    3.4879   -0.1294   -0.8782 C   0  0  0  0  0  0  0  0  0  0  0  0
    4.0041   -0.6160   -1.7389 H   0  0  0  0  0  0  0  0  0  0  0  0
    3.6942    0.9548   -0.9512 H   0  0  0  0  0  0  0  0  0  0  0  0
    3.9684   -0.7657    0.4378 C   0  0  0  0  0  0  0  0  0  0  0  0
    3.6794   -0.1112    1.2861 H   0  0  0  0  0  0  0  0  0  0  0  0
    5.0672   -0.8964    0.4774 H   0  0  0  0  0  0  0  0  0  0  0  0
    3.1924   -2.0871    0.4964 C   0  0  0  0  0  0  0  0  0  0  0  0
    3.7548   -2.9271    0.0341 H   0  0  0  0  0  0  0  0  0  0  0  0
    2.9075   -2.4238    1.5133 H   0  0  0  0  0  0  0  0  0  0  0  0
    1.9304   -1.8777   -0.3527 C   0  0  0  0  0  0  0  0  0  0  0  0
    1.0865   -2.7486   -0.5355 O   0  0  0  0  0  0  0  0  0  0  0  0
  1  2  1  6  0  0  0
  1 19  1  0  0  0  0
  1 28  1  0  0  0  0
  2  4  1  0  0  0  0
  3  2  1  0  0  0  0
  4  6  1  0  0  0  0
  5  4  1  0  0  0  0
  6  7  1  0  0  0  0
  6  8  1  0  0  0  0
  8  9  1  0  0  0  0
  9 11  2  0  0  0  0
  9 10  1  0  0  0  0
 11 12  1  0  0  0  0
 13 14  1  0  0  0  0
 13 11  1  0  0  0  0
 15 13  2  0  0  0  0
 16 15  1  0  0  0  0
 17 15  1  0  0  0  0
 17  8  2  0  0  0  0
 18 17  1  0  0  0  0
 19 22  1  0  0  0  0
 20 19  1  0  0  0  0
 21 19  1  0  0  0  0
 22 24  1  0  0  0  0
 22 25  1  0  0  0  0
 22 23  1  0  0  0  0
 25 27  1  0  0  0  0
 26 25  1  0  0  0  0
 28 25  1  0  0  0  0
 29 28  2  0  0  0  0
M  END
