2
 OpenBabel05122313113D

 39 39  0  0  0  0  0  0  0  0999 V2000
    3.1245   -0.6769   -0.6695 P   0  0  0  0  0  4  0  0  0  0  0  0
    0.4622   -1.1493    0.0764 C   0  0  0  0  0  3  0  0  0  0  0  0
    1.4907   -0.2344   -0.0130 C   0  0  0  0  0  0  0  0  0  0  0  0
    0.6492   -2.5753   -0.3818 C   0  0  0  0  0  0  0  0  0  0  0  0
    1.4319    1.1895    0.4591 C   0  0  0  0  0  0  0  0  0  0  0  0
    1.6271    1.4952    1.8228 C   0  0  0  0  0  0  0  0  0  0  0  0
    1.5875    2.8218    2.2752 C   0  0  0  0  0  0  0  0  0  0  0  0
    1.3726    3.8703    1.3670 C   0  0  0  0  0  0  0  0  0  0  0  0
    1.2049    3.5847    0.0038 C   0  0  0  0  0  0  0  0  0  0  0  0
    1.2428    2.2570   -0.4454 C   0  0  0  0  0  0  0  0  0  0  0  0
    3.1321   -1.1743   -2.4473 C   0  0  0  0  0  0  0  0  0  0  0  0
    2.2673   -0.2696   -3.3268 C   0  0  0  0  0  0  0  0  0  0  0  0
    3.9560   -2.0238    0.2743 C   0  0  0  0  0  0  0  0  0  0  0  0
    3.9818   -1.7584    1.7805 C   0  0  0  0  0  0  0  0  0  0  0  0
    4.2258    0.7905   -0.5397 C   0  0  0  0  0  0  0  0  0  0  0  0
    5.6906    0.5489   -0.9040 C   0  0  0  0  0  0  0  0  0  0  0  0
    0.6310   -3.2532    0.4980 H   0  0  0  0  0  0  0  0  0  0  0  0
    1.5780   -2.7917   -0.9522 H   0  0  0  0  0  0  0  0  0  0  0  0
   -0.2036   -2.9005   -1.0108 H   0  0  0  0  0  0  0  0  0  0  0  0
    1.7858    0.6756    2.5387 H   0  0  0  0  0  0  0  0  0  0  0  0
    1.7132    3.0348    3.3472 H   0  0  0  0  0  0  0  0  0  0  0  0
    1.3294    4.9103    1.7231 H   0  0  0  0  0  0  0  0  0  0  0  0
    1.0249    4.3978   -0.7151 H   0  0  0  0  0  0  0  0  0  0  0  0
    1.1025    2.0464   -1.5168 H   0  0  0  0  0  0  0  0  0  0  0  0
    4.1953   -1.1734   -2.7696 H   0  0  0  0  0  0  0  0  0  0  0  0
    2.7889   -2.2273   -2.4976 H   0  0  0  0  0  0  0  0  0  0  0  0
    1.2076   -0.2907   -3.0043 H   0  0  0  0  0  0  0  0  0  0  0  0
    2.3092   -0.6061   -4.3810 H   0  0  0  0  0  0  0  0  0  0  0  0
    2.6086    0.7846   -3.3003 H   0  0  0  0  0  0  0  0  0  0  0  0
    3.4166   -2.9635    0.0440 H   0  0  0  0  0  0  0  0  0  0  0  0
    4.9772   -2.1285   -0.1500 H   0  0  0  0  0  0  0  0  0  0  0  0
    4.4744   -2.5976    2.3092 H   0  0  0  0  0  0  0  0  0  0  0  0
    2.9543   -1.6563    2.1824 H   0  0  0  0  0  0  0  0  0  0  0  0
    4.5374   -0.8326    2.0311 H   0  0  0  0  0  0  0  0  0  0  0  0
    3.7635    1.5738   -1.1741 H   0  0  0  0  0  0  0  0  0  0  0  0
    4.1118    1.1635    0.4988 H   0  0  0  0  0  0  0  0  0  0  0  0
    6.2509    1.5024   -0.8426 H   0  0  0  0  0  0  0  0  0  0  0  0
    5.8152    0.1655   -1.9368 H   0  0  0  0  0  0  0  0  0  0  0  0
    6.1834   -0.1633   -0.2128 H   0  0  0  0  0  0  0  0  0  0  0  0
  1 15  1  0  0  0  0
  1  3  1  0  0  0  0
  1 13  1  0  0  0  0
  3  2  2  0  0  0  0
  3  5  1  0  0  0  0
  4  2  1  0  0  0  0
  4 17  1  0  0  0  0
  5  6  1  0  0  0  0
  6  7  2  0  0  0  0
  6 20  1  0  0  0  0
  7 21  1  0  0  0  0
  8 22  1  0  0  0  0
  8  7  1  0  0  0  0
  9  8  2  0  0  0  0
 10  9  1  0  0  0  0
 10  5  2  0  0  0  0
 11  1  1  0  0  0  0
 12 29  1  0  0  0  0
 12 27  1  0  0  0  0
 12 11  1  0  0  0  0
 13 14  1  0  0  0  0
 14 34  1  0  0  0  0
 14 33  1  0  0  0  0
 14 32  1  0  0  0  0
 15 36  1  0  0  0  0
 16 37  1  0  0  0  0
 16 15  1  0  0  0  0
 16 39  1  0  0  0  0
 18  4  1  0  0  0  0
 19  4  1  0  0  0  0
 23  9  1  0  0  0  0
 24 10  1  0  0  0  0
 25 11  1  0  0  0  0
 26 11  1  0  0  0  0
 28 12  1  0  0  0  0
 30 13  1  0  0  0  0
 31 13  1  0  0  0  0
 35 15  1  0  0  0  0
 38 16  1  0  0  0  0
M  END
