4
 OpenBabel05122313113D

 26 27  0  0  1  0  0  0  0  0999 V2000
   -0.9868    0.0452   -2.1646 C   0  0  0  0  0  0  0  0  0  0  0  0
   -0.1377   -1.0378   -2.5940 C   0  0  0  0  0  0  0  0  0  0  0  0
    1.1945   -0.7100   -2.2267 C   0  0  0  0  0  0  0  0  0  0  0  0
    1.2090    0.5622   -1.5646 C   0  0  2  0  0  3  0  0  0  0  0  0
   -0.1571    1.0143   -1.5331 C   0  0  0  0  0  0  0  0  0  0  0  0
   -2.4562    0.1602   -2.4319 C   0  0  0  0  0  0  0  0  0  0  0  0
   -0.5799   -2.2409   -3.3669 C   0  0  0  0  0  0  0  0  0  0  0  0
    2.3972    1.2744   -1.0602 C   0  0  0  0  0  0  0  0  0  0  0  0
    3.6202    0.5945   -0.8519 C   0  0  0  0  0  0  0  0  0  0  0  0
    4.7456    1.2737   -0.3689 C   0  0  0  0  0  0  0  0  0  0  0  0
    4.6770    2.6452   -0.0731 C   0  0  0  0  0  0  0  0  0  0  0  0
    3.4702    3.3340   -0.2775 C   0  0  0  0  0  0  0  0  0  0  0  0
    2.3458    2.6586   -0.7710 C   0  0  0  0  0  0  0  0  0  0  0  0
    2.0694   -1.3378   -2.4266 H   0  0  0  0  0  0  0  0  0  0  0  0
   -0.5243    1.9617   -1.1226 H   0  0  0  0  0  0  0  0  0  0  0  0
   -2.6360    0.2727   -3.5225 H   0  0  0  0  0  0  0  0  0  0  0  0
   -3.0005   -0.7453   -2.0975 H   0  0  0  0  0  0  0  0  0  0  0  0
   -2.8956    1.0359   -1.9196 H   0  0  0  0  0  0  0  0  0  0  0  0
   -0.8600   -1.9558   -4.4033 H   0  0  0  0  0  0  0  0  0  0  0  0
    0.2252   -2.9978   -3.4246 H   0  0  0  0  0  0  0  0  0  0  0  0
   -1.4638   -2.7153   -2.8958 H   0  0  0  0  0  0  0  0  0  0  0  0
    3.6754   -0.4884   -1.0334 H   0  0  0  0  0  0  0  0  0  0  0  0
    5.6840    0.7215   -0.2083 H   0  0  0  0  0  0  0  0  0  0  0  0
    5.5606    3.1759    0.3119 H   0  0  0  0  0  0  0  0  0  0  0  0
    3.4063    4.4113   -0.0606 H   0  0  0  0  0  0  0  0  0  0  0  0
    1.4157    3.2171   -0.9554 H   0  0  0  0  0  0  0  0  0  0  0  0
  1  5  2  0  0  0  0
  2  3  2  0  0  0  0
  2  1  1  0  0  0  0
  3  4  1  0  0  0  0
  4  5  1  0  0  0  0
  4  8  1  6  0  0  0
  5 15  1  0  0  0  0
  6  1  1  0  0  0  0
  6 17  1  0  0  0  0
  6 18  1  0  0  0  0
  7 21  1  0  0  0  0
  7  2  1  0  0  0  0
  8  9  2  0  0  0  0
  8 13  1  0  0  0  0
  9 10  1  0  0  0  0
 10 23  1  0  0  0  0
 10 11  2  0  0  0  0
 11 24  1  0  0  0  0
 12 11  1  0  0  0  0
 12 25  1  0  0  0  0
 13 12  2  0  0  0  0
 14  3  1  0  0  0  0
 16  6  1  0  0  0  0
 19  7  1  0  0  0  0
 20  7  1  0  0  0  0
 22  9  1  0  0  0  0
 26 13  1  0  0  0  0
M  END
