10
 OpenBabel05122313113D

 39 40  0  0  1  0  0  0  0  0999 V2000
    1.9305    1.9437   -1.1540 N   0  0  0  0  0  0  0  0  0  0  0  0
    1.5446    2.9007   -1.1499 H   0  0  0  0  0  0  0  0  0  0  0  0
    2.6865    1.7011   -1.7967 H   0  0  0  0  0  0  0  0  0  0  0  0
    0.3341    3.1085    0.4351 O   0  0  0  0  0  0  0  0  0  0  0  0
   -1.6910    2.4304   -0.2942 O   0  0  0  0  0  0  0  0  0  0  0  0
   -0.8397    0.5031   -2.0062 O   0  0  0  0  0  0  0  0  0  0  0  0
   -1.1290    1.4326   -2.1246 H   0  0  0  0  0  0  0  0  0  0  0  0
   -3.4165   -0.5124    0.4125 O   0  0  0  0  0  0  0  0  0  0  0  0
   -3.0673   -2.5043   -0.6490 O   0  0  0  0  0  0  0  0  0  0  0  0
    1.4622    1.0705   -0.2849 C   0  0  0  0  0  2  0  0  0  0  0  0
    0.3641    1.6819    0.5824 C   0  0  2  0  0  0  0  0  0  0  0  0
    0.6069    1.4182    1.6333 H   0  0  0  0  0  0  0  0  0  0  0  0
   -1.1226    1.2458    0.2748 C   0  0  2  0  0  0  0  0  0  0  0  0
   -1.6339    0.9712    1.2220 H   0  0  0  0  0  0  0  0  0  0  0  0
   -1.3601    0.1363   -0.7414 C   0  0  1  0  0  0  0  0  0  0  0  0
   -0.8309   -0.7763   -0.4083 H   0  0  0  0  0  0  0  0  0  0  0  0
   -2.8579   -0.2150   -0.8642 C   0  0  1  0  0  0  0  0  0  0  0  0
   -3.3920    0.6513   -1.3142 H   0  0  0  0  0  0  0  0  0  0  0  0
   -3.0512   -1.5138   -1.6655 C   0  0  0  0  0  0  0  0  0  0  0  0
   -4.0016   -1.4960   -2.2487 H   0  0  0  0  0  0  0  0  0  0  0  0
   -2.2101   -1.7183   -2.3549 H   0  0  0  0  0  0  0  0  0  0  0  0
   -3.7458   -1.9231    0.4593 C   0  0  0  0  0  0  0  0  0  0  0  0
   -3.1978   -2.5315    1.7400 C   0  0  0  0  0  0  0  0  0  0  0  0
   -3.6850   -2.0678    2.6189 H   0  0  0  0  0  0  0  0  0  0  0  0
   -2.1075   -2.3631    1.8034 H   0  0  0  0  0  0  0  0  0  0  0  0
   -3.3978   -3.6201    1.7579 H   0  0  0  0  0  0  0  0  0  0  0  0
   -5.2655   -2.0775    0.3305 C   0  0  0  0  0  0  0  0  0  0  0  0
   -5.7729   -1.5388    1.1538 H   0  0  0  0  0  0  0  0  0  0  0  0
   -5.5494   -3.1471    0.3731 H   0  0  0  0  0  0  0  0  0  0  0  0
   -5.6261   -1.6536   -0.6268 H   0  0  0  0  0  0  0  0  0  0  0  0
   -1.0285    3.5437    0.2886 C   0  0  0  0  0  0  0  0  0  0  0  0
   -1.0717    4.7057   -0.6896 C   0  0  0  0  0  0  0  0  0  0  0  0
   -2.1152    5.0412   -0.8403 H   0  0  0  0  0  0  0  0  0  0  0  0
   -0.6562    4.3878   -1.6656 H   0  0  0  0  0  0  0  0  0  0  0  0
   -0.4781    5.5546   -0.3011 H   0  0  0  0  0  0  0  0  0  0  0  0
   -1.6175    3.8881    1.6591 C   0  0  0  0  0  0  0  0  0  0  0  0
   -2.6767    4.1928    1.5560 H   0  0  0  0  0  0  0  0  0  0  0  0
   -1.0465    4.7159    2.1210 H   0  0  0  0  0  0  0  0  0  0  0  0
   -1.5711    3.0168    2.3405 H   0  0  0  0  0  0  0  0  0  0  0  0
  1  2  1  0  0  0  0
  1 10  1  0  0  0  0
  3  1  1  0  0  0  0
  4 11  1  0  0  0  0
  5 13  1  0  0  0  0
  5 31  1  0  0  0  0
  6 15  1  0  0  0  0
  7  6  1  0  0  0  0
  8 22  1  0  0  0  0
  9 22  1  0  0  0  0
 10 11  1  0  0  0  0
 11 12  1  1  0  0  0
 13 11  1  0  0  0  0
 13 14  1  1  0  0  0
 15 16  1  1  0  0  0
 15 13  1  0  0  0  0
 17 18  1  6  0  0  0
 17 15  1  0  0  0  0
 17  8  1  0  0  0  0
 19 17  1  0  0  0  0
 19  9  1  0  0  0  0
 20 19  1  0  0  0  0
 21 19  1  0  0  0  0
 22 23  1  0  0  0  0
 23 26  1  0  0  0  0
 23 25  1  0  0  0  0
 23 24  1  0  0  0  0
 27 29  1  0  0  0  0
 27 22  1  0  0  0  0
 27 28  1  0  0  0  0
 30 27  1  0  0  0  0
 31  4  1  0  0  0  0
 31 36  1  0  0  0  0
 32 35  1  0  0  0  0
 32 31  1  0  0  0  0
 33 32  1  0  0  0  0
 34 32  1  0  0  0  0
 36 38  1  0  0  0  0
 36 39  1  0  0  0  0
 37 36  1  0  0  0  0
M  END
