1
 OpenBabel05122313113D

 22 23  0  0  0  0  0  0  0  0999 V2000
    0.5586   -0.9979    1.0312 C   0  0  0  0  0  2  0  0  0  0  0  0
    1.9224   -1.1317    0.8769 N   0  0  0  0  0  0  0  0  0  0  0  0
    2.7324   -0.3001    0.0446 C   0  0  0  0  0  0  0  0  0  0  0  0
    2.2954    0.0274   -1.2510 C   0  0  0  0  0  0  0  0  0  0  0  0
    1.3451   -0.3867   -1.6221 H   0  0  0  0  0  0  0  0  0  0  0  0
    3.0857    0.8708   -2.0453 C   0  0  0  0  0  0  0  0  0  0  0  0
    2.7437    1.1280   -3.0591 H   0  0  0  0  0  0  0  0  0  0  0  0
    4.3065    1.3705   -1.5631 C   0  0  0  0  0  0  0  0  0  0  0  0
    4.9221    2.0296   -2.1935 H   0  0  0  0  0  0  0  0  0  0  0  0
    4.7425    1.0221   -0.2748 C   0  0  0  0  0  0  0  0  0  0  0  0
    5.6962    1.4115    0.1118 H   0  0  0  0  0  0  0  0  0  0  0  0
    3.9551    0.1906    0.5355 C   0  0  0  0  0  0  0  0  0  0  0  0
    4.2742   -0.0576    1.5586 H   0  0  0  0  0  0  0  0  0  0  0  0
    2.4118   -2.1893    1.6460 C   0  0  0  0  0  0  0  0  0  0  0  0
    3.4665   -2.4762    1.6363 H   0  0  0  0  0  0  0  0  0  0  0  0
    1.3352   -2.7297    2.2933 C   0  0  0  0  0  0  0  0  0  0  0  0
    1.2662   -3.5795    2.9787 H   0  0  0  0  0  0  0  0  0  0  0  0
    0.2227   -1.9864    1.9153 N   0  0  0  0  0  0  0  0  0  0  0  0
   -1.1472   -2.2771    2.3085 C   0  0  0  0  0  0  0  0  0  0  0  0
   -1.1646   -2.6633    3.3454 H   0  0  0  0  0  0  0  0  0  0  0  0
   -1.7318   -1.3402    2.2356 H   0  0  0  0  0  0  0  0  0  0  0  0
   -1.5978   -3.0143    1.6139 H   0  0  0  0  0  0  0  0  0  0  0  0
  1 18  1  0  0  0  0
  2  1  1  0  0  0  0
  2 14  1  0  0  0  0
  3 12  1  0  0  0  0
  3  2  1  0  0  0  0
  4  3  2  0  0  0  0
  5  4  1  0  0  0  0
  6  8  2  0  0  0  0
  6  4  1  0  0  0  0
  7  6  1  0  0  0  0
  8 10  1  0  0  0  0
  9  8  1  0  0  0  0
 10 11  1  0  0  0  0
 10 12  2  0  0  0  0
 12 13  1  0  0  0  0
 14 16  2  0  0  0  0
 15 14  1  0  0  0  0
 16 17  1  0  0  0  0
 18 16  1  0  0  0  0
 18 19  1  0  0  0  0
 19 20  1  0  0  0  0
 21 19  1  0  0  0  0
 22 19  1  0  0  0  0
M  END
