4
 OpenBabel05122313113D

 60 65  0  0  1  0  0  0  0  0999 V2000
    0.9849    0.4545   -0.8967 C   0  0  0  0  0  0  0  0  0  0  0  0
    0.6496   -0.9567   -0.8314 C   0  0  0  0  0  0  0  0  0  0  0  0
   -0.8015   -1.0618   -0.6967 C   0  0  0  0  0  0  0  0  0  0  0  0
   -1.3401    0.2896   -0.6186 C   0  0  1  0  0  3  0  0  0  0  0  0
   -0.2249    1.2280   -0.7654 C   0  0  0  0  0  0  0  0  0  0  0  0
   -0.3558    2.6932   -0.9502 C   0  0  0  0  0  0  0  0  0  0  0  0
    0.2348    3.2969   -2.0828 C   0  0  0  0  0  0  0  0  0  0  0  0
    0.0814    4.6696   -2.3208 C   0  0  0  0  0  0  0  0  0  0  0  0
   -0.6663    5.4608   -1.4347 C   0  0  0  0  0  0  0  0  0  0  0  0
   -1.2616    4.8685   -0.3097 C   0  0  0  0  0  0  0  0  0  0  0  0
   -1.1090    3.4967   -0.0686 C   0  0  0  0  0  0  0  0  0  0  0  0
    2.3323    1.0124   -1.1308 C   0  0  0  0  0  0  0  0  0  0  0  0
    3.1642    0.4361   -2.1164 C   0  0  0  0  0  0  0  0  0  0  0  0
    4.4179    0.9945   -2.4008 C   0  0  0  0  0  0  0  0  0  0  0  0
    4.8611    2.1267   -1.6995 C   0  0  0  0  0  0  0  0  0  0  0  0
    4.0417    2.7021   -0.7148 C   0  0  0  0  0  0  0  0  0  0  0  0
    2.7859    2.1525   -0.4309 C   0  0  0  0  0  0  0  0  0  0  0  0
    1.5927   -2.0855   -1.0228 C   0  0  0  0  0  0  0  0  0  0  0  0
    1.3836   -3.0009   -2.0770 C   0  0  0  0  0  0  0  0  0  0  0  0
    2.2854   -4.0533   -2.2906 C   0  0  0  0  0  0  0  0  0  0  0  0
    3.4048   -4.2027   -1.4567 C   0  0  0  0  0  0  0  0  0  0  0  0
    3.6174   -3.2944   -0.4065 C   0  0  0  0  0  0  0  0  0  0  0  0
    2.7193   -2.2413   -0.1873 C   0  0  0  0  0  0  0  0  0  0  0  0
   -1.5899   -2.3120   -0.8287 C   0  0  0  0  0  0  0  0  0  0  0  0
   -2.7079   -2.3362   -1.6916 C   0  0  0  0  0  0  0  0  0  0  0  0
   -3.4334   -3.5202   -1.8862 C   0  0  0  0  0  0  0  0  0  0  0  0
   -3.0535   -4.6982   -1.2257 C   0  0  0  0  0  0  0  0  0  0  0  0
   -1.9363   -4.6867   -0.3748 C   0  0  0  0  0  0  0  0  0  0  0  0
   -1.2083   -3.5066   -0.1800 C   0  0  0  0  0  0  0  0  0  0  0  0
   -2.7796    0.6527   -0.6265 C   0  0  0  0  0  0  0  0  0  0  0  0
   -3.2744    1.5039   -1.6379 C   0  0  0  0  0  0  0  0  0  0  0  0
   -4.6404    1.8166   -1.6966 C   0  0  0  0  0  0  0  0  0  0  0  0
   -5.5285    1.2828   -0.7502 C   0  0  0  0  0  0  0  0  0  0  0  0
   -5.0433    0.4335    0.2578 C   0  0  0  0  0  0  0  0  0  0  0  0
   -3.6794    0.1226    0.3213 C   0  0  0  0  0  0  0  0  0  0  0  0
    0.8179    2.6799   -2.7817 H   0  0  0  0  0  0  0  0  0  0  0  0
    0.5504    5.1233   -3.2071 H   0  0  0  0  0  0  0  0  0  0  0  0
   -0.7840    6.5392   -1.6201 H   0  0  0  0  0  0  0  0  0  0  0  0
   -1.8477    5.4800    0.3927 H   0  0  0  0  0  0  0  0  0  0  0  0
   -1.5749    3.0454    0.8175 H   0  0  0  0  0  0  0  0  0  0  0  0
    2.8200   -0.4473   -2.6721 H   0  0  0  0  0  0  0  0  0  0  0  0
    5.0527    0.5388   -3.1755 H   0  0  0  0  0  0  0  0  0  0  0  0
    5.8487    2.5605   -1.9189 H   0  0  0  0  0  0  0  0  0  0  0  0
    4.3860    3.5845   -0.1550 H   0  0  0  0  0  0  0  0  0  0  0  0
    2.1544    2.5927    0.3519 H   0  0  0  0  0  0  0  0  0  0  0  0
    0.5071   -2.8837   -2.7315 H   0  0  0  0  0  0  0  0  0  0  0  0
    2.1110   -4.7614   -3.1149 H   0  0  0  0  0  0  0  0  0  0  0  0
    4.1114   -5.0298   -1.6243 H   0  0  0  0  0  0  0  0  0  0  0  0
    4.4903   -3.4081    0.2540 H   0  0  0  0  0  0  0  0  0  0  0  0
    2.8771   -1.5302    0.6396 H   0  0  0  0  0  0  0  0  0  0  0  0
   -3.0070   -1.4202   -2.2199 H   0  0  0  0  0  0  0  0  0  0  0  0
   -4.3025   -3.5191   -2.5612 H   0  0  0  0  0  0  0  0  0  0  0  0
   -3.6260   -5.6262   -1.3749 H   0  0  0  0  0  0  0  0  0  0  0  0
   -1.6274   -5.6055    0.1458 H   0  0  0  0  0  0  0  0  0  0  0  0
   -0.3331   -3.5135    0.4829 H   0  0  0  0  0  0  0  0  0  0  0  0
   -2.5822    1.9207   -2.3837 H   0  0  0  0  0  0  0  0  0  0  0  0
   -5.0115    2.4846   -2.4884 H   0  0  0  0  0  0  0  0  0  0  0  0
   -6.5995    1.5321   -0.7949 H   0  0  0  0  0  0  0  0  0  0  0  0
   -5.7321    0.0144    1.0066 H   0  0  0  0  0  0  0  0  0  0  0  0
   -3.2934   -0.5359    1.1135 H   0  0  0  0  0  0  0  0  0  0  0  0
  1  2  1  0  0  0  0
  1  5  2  0  0  0  0
  2  3  2  0  0  0  0
  3  4  1  0  0  0  0
  4 30  1  6  0  0  0
  5  4  1  0  0  0  0
  6  5  1  0  0  0  0
  6 11  1  0  0  0  0
  7  6  2  0  0  0  0
  8  7  1  0  0  0  0
  8  9  2  0  0  0  0
  9 10  1  0  0  0  0
 10 11  2  0  0  0  0
 10 39  1  0  0  0  0
 11 40  1  0  0  0  0
 12  1  1  0  0  0  0
 12 17  1  0  0  0  0
 13 12  2  0  0  0  0
 14 13  1  0  0  0  0
 14 15  2  0  0  0  0
 15 16  1  0  0  0  0
 16 17  2  0  0  0  0
 16 44  1  0  0  0  0
 17 45  1  0  0  0  0
 18  2  1  0  0  0  0
 18 23  1  0  0  0  0
 19 18  2  0  0  0  0
 20 19  1  0  0  0  0
 20 21  2  0  0  0  0
 21 22  1  0  0  0  0
 22 23  2  0  0  0  0
 22 49  1  0  0  0  0
 23 50  1  0  0  0  0
 24  3  1  0  0  0  0
 24 29  1  0  0  0  0
 25 24  2  0  0  0  0
 26 25  1  0  0  0  0
 26 27  2  0  0  0  0
 27 28  1  0  0  0  0
 28 29  2  0  0  0  0
 28 54  1  0  0  0  0
 29 55  1  0  0  0  0
 30 35  1  0  0  0  0
 31 30  2  0  0  0  0
 32 31  1  0  0  0  0
 32 33  2  0  0  0  0
 33 34  1  0  0  0  0
 34 35  2  0  0  0  0
 34 59  1  0  0  0  0
 35 60  1  0  0  0  0
 36  7  1  0  0  0  0
 37  8  1  0  0  0  0
 38  9  1  0  0  0  0
 41 13  1  0  0  0  0
 42 14  1  0  0  0  0
 43 15  1  0  0  0  0
 46 19  1  0  0  0  0
 47 20  1  0  0  0  0
 48 21  1  0  0  0  0
 51 25  1  0  0  0  0
 52 26  1  0  0  0  0
 53 27  1  0  0  0  0
 56 31  1  0  0  0  0
 57 32  1  0  0  0  0
 58 33  1  0  0  0  0
M  END
