6
 OpenBabel05122313113D

 40 42  0  0  0  0  0  0  0  0999 V2000
   -2.7944   -1.6915    2.3646 F   0  0  0  0  0  0  0  0  0  0  0  0
   -6.2438    0.2028   -0.2254 F   0  0  0  0  0  0  0  0  0  0  0  0
   -2.5900   -1.9017   -2.3347 F   0  0  0  0  0  0  0  0  0  0  0  0
   -1.2787   -2.2749    0.0996 N   0  0  0  0  0  0  0  0  0  0  0  0
    0.9075   -2.4594    0.0222 N   0  0  0  0  0  0  0  0  0  0  0  0
   -0.1019   -1.5441    0.0574 C   0  0  0  0  0  2  0  0  0  0  0  0
   -1.0727   -3.7109   -0.1222 C   0  0  0  0  0  0  0  0  0  0  0  0
   -1.3584   -3.9846   -1.1622 H   0  0  0  0  0  0  0  0  0  0  0  0
   -1.6819   -4.3125    0.5812 H   0  0  0  0  0  0  0  0  0  0  0  0
    0.4363   -3.8494    0.1217 C   0  0  0  0  0  0  0  0  0  0  0  0
    0.6655   -4.2628    1.1296 H   0  0  0  0  0  0  0  0  0  0  0  0
    0.9411   -4.4888   -0.6299 H   0  0  0  0  0  0  0  0  0  0  0  0
   -2.5580   -1.6814    0.0143 C   0  0  0  0  0  0  0  0  0  0  0  0
   -3.2899   -1.3489    1.1773 C   0  0  0  0  0  0  0  0  0  0  0  0
   -4.5259   -0.6968    1.1169 C   0  0  0  0  0  0  0  0  0  0  0  0
   -5.0608   -0.4219    2.0346 H   0  0  0  0  0  0  0  0  0  0  0  0
   -5.0618   -0.4269   -0.1480 C   0  0  0  0  0  0  0  0  0  0  0  0
   -4.4262   -0.8108   -1.3352 C   0  0  0  0  0  0  0  0  0  0  0  0
   -4.8811   -0.6223   -2.3156 H   0  0  0  0  0  0  0  0  0  0  0  0
   -3.1903   -1.4543   -1.2295 C   0  0  0  0  0  0  0  0  0  0  0  0
    2.3044   -2.1718    0.0714 C   0  0  0  0  0  0  0  0  0  0  0  0
    2.9263   -1.9763    1.3266 C   0  0  0  0  0  0  0  0  0  0  0  0
    4.2980   -1.6666    1.3372 C   0  0  0  0  0  0  0  0  0  0  0  0
    4.7948   -1.4963    2.3060 H   0  0  0  0  0  0  0  0  0  0  0  0
    5.0434   -1.5462    0.1480 C   0  0  0  0  0  0  0  0  0  0  0  0
    4.3829   -1.7396   -1.0804 C   0  0  0  0  0  0  0  0  0  0  0  0
    4.9466   -1.6282   -2.0207 H   0  0  0  0  0  0  0  0  0  0  0  0
    3.0132   -2.0528   -1.1455 C   0  0  0  0  0  0  0  0  0  0  0  0
    2.1174   -2.0048    2.5965 C   0  0  0  0  0  0  0  0  0  0  0  0
    1.5706   -2.9622    2.7216 H   0  0  0  0  0  0  0  0  0  0  0  0
    1.3483   -1.2015    2.5953 H   0  0  0  0  0  0  0  0  0  0  0  0
    2.7639   -1.8663    3.4834 H   0  0  0  0  0  0  0  0  0  0  0  0
    6.5191   -1.2370    0.1923 C   0  0  0  0  0  0  0  0  0  0  0  0
    7.1166   -2.1681    0.3001 H   0  0  0  0  0  0  0  0  0  0  0  0
    6.7747   -0.5873    1.0527 H   0  0  0  0  0  0  0  0  0  0  0  0
    6.8602   -0.7364   -0.7351 H   0  0  0  0  0  0  0  0  0  0  0  0
    2.2920   -2.1766   -2.4610 C   0  0  0  0  0  0  0  0  0  0  0  0
    2.9943   -2.0876   -3.3112 H   0  0  0  0  0  0  0  0  0  0  0  0
    1.5143   -1.3880   -2.5602 H   0  0  0  0  0  0  0  0  0  0  0  0
    1.7649   -3.1490   -2.5530 H   0  0  0  0  0  0  0  0  0  0  0  0
  2 17  1  0  0  0  0
  3 20  1  0  0  0  0
  5  6  1  0  0  0  0
  5 21  1  0  0  0  0
  5 10  1  0  0  0  0
  6  4  1  0  0  0  0
  7  4  1  0  0  0  0
  7 10  1  0  0  0  0
  7  9  1  0  0  0  0
  8  7  1  0  0  0  0
 10 11  1  0  0  0  0
 12 10  1  0  0  0  0
 13  4  1  0  0  0  0
 13 14  1  0  0  0  0
 14  1  1  0  0  0  0
 15 14  2  0  0  0  0
 15 16  1  0  0  0  0
 17 15  1  0  0  0  0
 18 20  1  0  0  0  0
 18 17  2  0  0  0  0
 19 18  1  0  0  0  0
 20 13  2  0  0  0  0
 21 22  1  0  0  0  0
 22 23  2  0  0  0  0
 22 29  1  0  0  0  0
 23 24  1  0  0  0  0
 25 33  1  0  0  0  0
 25 23  1  0  0  0  0
 26 25  2  0  0  0  0
 27 26  1  0  0  0  0
 28 26  1  0  0  0  0
 28 21  2  0  0  0  0
 29 30  1  0  0  0  0
 29 32  1  0  0  0  0
 31 29  1  0  0  0  0
 33 34  1  0  0  0  0
 33 35  1  0  0  0  0
 36 33  1  0  0  0  0
 37 28  1  0  0  0  0
 38 37  1  0  0  0  0
 39 37  1  0  0  0  0
 40 37  1  0  0  0  0
M  END
