10
 OpenBabel05122313113D

 24 24  0  0  1  0  0  0  0  0999 V2000
   -3.3511   -0.0955    0.2976 O   0  0  0  0  0  0  0  0  0  0  0  0
   -3.2382    0.4951   -1.8948 O   0  0  0  0  0  0  0  0  0  0  0  0
   -4.8520   -1.6982    1.2581 C   0  0  0  0  0  0  0  0  0  0  0  0
   -5.1423   -0.9871    2.0569 H   0  0  0  0  0  0  0  0  0  0  0  0
   -4.0172   -2.3241    1.6315 H   0  0  0  0  0  0  0  0  0  0  0  0
   -5.7151   -2.3634    1.0590 H   0  0  0  0  0  0  0  0  0  0  0  0
   -0.0324    2.2521    1.3227 C   0  0  0  0  0  0  0  0  0  0  0  0
    0.2713    2.3620    2.3743 H   0  0  0  0  0  0  0  0  0  0  0  0
   -1.6197    1.3698   -0.3539 C   0  0  1  0  0  3  0  0  0  0  0  0
   -0.7772    1.8743   -1.3953 C   0  0  0  0  0  3  0  0  0  0  0  0
   -1.0474    1.6587   -2.4381 H   0  0  0  0  0  0  0  0  0  0  0  0
   -2.8167    0.5625   -0.7562 C   0  0  0  0  0  0  0  0  0  0  0  0
    0.4378    2.5445   -1.0708 C   0  0  0  0  0  0  0  0  0  0  0  0
    1.1174    2.8485   -1.8801 H   0  0  0  0  0  0  0  0  0  0  0  0
    0.8311    2.7484    0.2931 C   0  0  0  0  0  0  0  0  0  0  0  0
   -1.2381    1.5657    1.0132 C   0  0  0  0  0  0  0  0  0  0  0  0
   -1.8644    1.1453    1.8104 H   0  0  0  0  0  0  0  0  0  0  0  0
   -4.4639   -0.9702   -0.0107 C   0  0  0  0  0  0  0  0  0  0  0  0
   -4.1486   -1.6627   -0.8185 H   0  0  0  0  0  0  0  0  0  0  0  0
   -5.2933   -0.3539   -0.4170 H   0  0  0  0  0  0  0  0  0  0  0  0
    2.1137    3.4598    0.6179 C   0  0  0  0  0  0  0  0  0  0  0  0
    1.9892    4.5540    0.4789 H   0  0  0  0  0  0  0  0  0  0  0  0
    2.9319    3.1243   -0.0483 H   0  0  0  0  0  0  0  0  0  0  0  0
    2.4227    3.2857    1.6660 H   0  0  0  0  0  0  0  0  0  0  0  0
  2 12  2  0  0  0  0
  3  5  1  0  0  0  0
  3  4  1  0  0  0  0
  6  3  1  0  0  0  0
  7  8  1  0  0  0  0
  9 12  1  6  0  0  0
  9 16  1  0  0  0  0
 10 13  1  0  0  0  0
 10  9  1  0  0  0  0
 11 10  1  0  0  0  0
 12  1  1  0  0  0  0
 13 15  2  0  0  0  0
 14 13  1  0  0  0  0
 15 21  1  0  0  0  0
 15  7  1  0  0  0  0
 16  7  2  0  0  0  0
 16 17  1  0  0  0  0
 18  1  1  0  0  0  0
 18  3  1  0  0  0  0
 19 18  1  0  0  0  0
 20 18  1  0  0  0  0
 21 24  1  0  0  0  0
 22 21  1  0  0  0  0
 23 21  1  0  0  0  0
M  END
