3
 OpenBabel05122313113D

 27 27  0  0  0  0  0  0  0  0999 V2000
    0.8286   -0.4714   -1.4808 C   0  0  0  0  0  0  0  0  0  0  0  0
    1.1175    0.2750   -2.2291 H   0  0  0  0  0  0  0  0  0  0  0  0
   -0.0749   -1.5611   -1.6771 C   0  0  0  0  0  3  0  0  0  0  0  0
   -0.6441   -1.7771   -2.5900 H   0  0  0  0  0  0  0  0  0  0  0  0
   -0.0761   -2.3432   -0.4839 C   0  0  0  0  0  0  0  0  0  0  0  0
   -0.6817   -3.2366   -0.2991 H   0  0  0  0  0  0  0  0  0  0  0  0
    0.7924   -1.7186    0.4496 C   0  0  0  0  0  0  0  0  0  0  0  0
    0.9762   -2.0598    1.4738 H   0  0  0  0  0  0  0  0  0  0  0  0
    1.3757   -0.5622   -0.1668 C   0  0  0  0  0  0  0  0  0  0  0  0
    2.5315    0.2990    0.3558 C   0  0  0  0  0  0  0  0  0  0  0  0
    2.9172   -0.1325    1.7864 C   0  0  0  0  0  0  0  0  0  0  0  0
    2.0617    0.0083    2.4754 H   0  0  0  0  0  0  0  0  0  0  0  0
    3.7616    0.4803    2.1594 H   0  0  0  0  0  0  0  0  0  0  0  0
    3.2230   -1.1960    1.8285 H   0  0  0  0  0  0  0  0  0  0  0  0
    2.1173    1.7839    0.3826 C   0  0  0  0  0  0  0  0  0  0  0  0
    2.8921    2.4107    0.8643 H   0  0  0  0  0  0  0  0  0  0  0  0
    1.1891    1.8995    0.9718 H   0  0  0  0  0  0  0  0  0  0  0  0
    1.9547    2.1642   -0.6451 H   0  0  0  0  0  0  0  0  0  0  0  0
    3.6355    0.1197   -0.6351 N   0  0  0  0  0  0  0  0  0  0  0  0
    4.0838   -1.2542   -0.7974 C   0  0  0  0  0  0  0  0  0  0  0  0
    3.2220   -1.9319   -0.9517 H   0  0  0  0  0  0  0  0  0  0  0  0
    4.6792   -1.6487    0.0674 H   0  0  0  0  0  0  0  0  0  0  0  0
    4.7308   -1.3235   -1.6963 H   0  0  0  0  0  0  0  0  0  0  0  0
    4.7700    1.0152   -0.4915 C   0  0  0  0  0  0  0  0  0  0  0  0
    5.4675    0.8420   -1.3366 H   0  0  0  0  0  0  0  0  0  0  0  0
    5.3606    0.8689    0.4520 H   0  0  0  0  0  0  0  0  0  0  0  0
    4.4604    2.0759   -0.5380 H   0  0  0  0  0  0  0  0  0  0  0  0
  1  9  2  0  0  0  0
  2  1  1  0  0  0  0
  3  1  1  0  0  0  0
  3  5  1  0  0  0  0
  4  3  1  0  0  0  0
  5  6  1  0  0  0  0
  5  7  2  0  0  0  0
  7  8  1  0  0  0  0
  9 10  1  0  0  0  0
  9  7  1  0  0  0  0
 10 15  1  0  0  0  0
 10 11  1  0  0  0  0
 11 14  1  0  0  0  0
 11 13  1  0  0  0  0
 11 12  1  0  0  0  0
 15 16  1  0  0  0  0
 15 17  1  0  0  0  0
 18 15  1  0  0  0  0
 19 24  1  0  0  0  0
 19 10  1  0  0  0  0
 20 19  1  0  0  0  0
 20 22  1  0  0  0  0
 21 20  1  0  0  0  0
 23 20  1  0  0  0  0
 24 26  1  0  0  0  0
 25 24  1  0  0  0  0
 27 24  1  0  0  0  0
M  END
