11
 OpenBabel05122313113D

 31 32  0  0  1  0  0  0  0  0999 V2000
    2.0351    3.5472   -0.6568 O   0  0  0  0  0  0  0  0  0  0  0  0
    2.9484   -0.9549   -1.5412 O   0  0  0  0  0  0  0  0  0  0  0  0
    3.6783   -1.5640    2.1434 O   0  0  0  0  0  0  0  0  0  0  0  0
    5.0880   -1.8261    0.3900 O   0  0  0  0  0  0  0  0  0  0  0  0
    2.5398    1.3494   -1.2074 N   0  0  0  0  0  0  0  0  0  0  0  0
    2.2159    2.2488   -0.3478 C   0  0  0  0  0  0  0  0  0  0  0  0
    2.0694    1.8691    1.0943 C   0  0  1  0  0  0  0  0  0  0  0  0
    1.8005    2.7403    1.7221 H   0  0  0  0  0  0  0  0  0  0  0  0
    1.0884    0.6904    1.1841 C   0  0  0  0  0  3  0  0  0  0  0  0
    0.9546    0.3780    2.2358 H   0  0  0  0  0  0  0  0  0  0  0  0
    1.4343   -0.3541    0.2276 C   0  0  0  0  0  3  0  0  0  0  0  0
    1.4966   -1.3936    0.5960 H   0  0  0  0  0  0  0  0  0  0  0  0
    2.6714    0.0468   -0.5850 C   0  0  1  0  0  0  0  0  0  0  0  0
    3.4598    1.2874    1.5028 C   0  0  0  0  0  0  0  0  0  0  0  0
    4.2169    2.0955    1.5524 H   0  0  0  0  0  0  0  0  0  0  0  0
    3.3710    0.8309    2.5081 H   0  0  0  0  0  0  0  0  0  0  0  0
    3.8750    0.2060    0.4800 C   0  0  1  0  0  0  0  0  0  0  0  0
    4.7582    0.5248   -0.1054 H   0  0  0  0  0  0  0  0  0  0  0  0
    2.2160    3.8914   -2.0389 C   0  0  0  0  0  0  0  0  0  0  0  0
    3.2436    3.6352   -2.3690 H   0  0  0  0  0  0  0  0  0  0  0  0
    2.0495    4.9821   -2.1024 H   0  0  0  0  0  0  0  0  0  0  0  0
    1.4859    3.3421   -2.6644 H   0  0  0  0  0  0  0  0  0  0  0  0
    4.0135   -0.6927   -2.4413 C   0  0  0  0  0  0  0  0  0  0  0  0
    3.9394    0.3334   -2.8587 H   0  0  0  0  0  0  0  0  0  0  0  0
    3.9225   -1.4301   -3.2629 H   0  0  0  0  0  0  0  0  0  0  0  0
    5.0048   -0.8294   -1.9545 H   0  0  0  0  0  0  0  0  0  0  0  0
    4.1816   -1.1254    1.1225 C   0  0  0  0  0  0  0  0  0  0  0  0
    5.3458   -3.1561    0.8476 C   0  0  0  0  0  0  0  0  0  0  0  0
    5.6928   -3.1547    1.9007 H   0  0  0  0  0  0  0  0  0  0  0  0
    6.1270   -3.5654    0.1823 H   0  0  0  0  0  0  0  0  0  0  0  0
    4.4278   -3.7758    0.7873 H   0  0  0  0  0  0  0  0  0  0  0  0
  1  6  1  0  0  0  0
  4 28  1  0  0  0  0
  4 27  1  0  0  0  0
  5 13  1  0  0  0  0
  5  6  2  0  0  0  0
  6  7  1  0  0  0  0
  7  9  1  0  0  0  0
  7 14  1  0  0  0  0
  7  8  1  1  0  0  0
  9 10  1  0  0  0  0
 11 12  1  0  0  0  0
 11  9  1  0  0  0  0
 13  2  1  6  0  0  0
 13 11  1  0  0  0  0
 13 17  1  0  0  0  0
 14 15  1  0  0  0  0
 14 16  1  0  0  0  0
 17 18  1  6  0  0  0
 17 27  1  0  0  0  0
 17 14  1  0  0  0  0
 19  1  1  0  0  0  0
 20 19  1  0  0  0  0
 21 19  1  0  0  0  0
 22 19  1  0  0  0  0
 23 26  1  0  0  0  0
 23  2  1  0  0  0  0
 24 23  1  0  0  0  0
 25 23  1  0  0  0  0
 27  3  2  0  0  0  0
 28 29  1  0  0  0  0
 30 28  1  0  0  0  0
 31 28  1  0  0  0  0
M  END
