9
 OpenBabel05122313113D

 76 79  0  0  1  0  0  0  0  0999 V2000
   -3.4307   -1.7672   -1.3127 O   0  0  0  0  0  0  0  0  0  0  0  0
   -3.8147    0.1066   -0.0281 O   0  0  0  0  0  0  0  0  0  0  0  0
    3.6341   -0.2119    0.0706 O   0  0  0  0  0  0  0  0  0  0  0  0
    3.0389   -1.9965   -1.2549 O   0  0  0  0  0  0  0  0  0  0  0  0
   -2.9193   -0.5766   -0.8319 B   0  0  0  0  0  0  0  0  0  0  0  0
    2.6597   -0.7709   -0.7360 B   0  0  0  0  0  0  0  0  0  0  0  0
   -1.4523   -0.1632   -1.1151 C   0  0  0  0  0  0  0  0  0  0  0  0
   -0.9830   -0.7593   -1.9148 H   0  0  0  0  0  0  0  0  0  0  0  0
   -0.8106    1.0791   -0.7304 C   0  0  1  0  0  3  0  0  0  0  0  0
    0.6381    1.0541   -0.6844 C   0  0  1  0  0  3  0  0  0  0  0  0
    1.2376   -0.2251   -1.0194 C   0  0  0  0  0  3  0  0  0  0  0  0
    0.7707   -0.7822   -1.8488 H   0  0  0  0  0  0  0  0  0  0  0  0
   -4.6344   -2.0505   -0.5453 C   0  0  0  0  0  0  0  0  0  0  0  0
   -5.0830   -0.6081   -0.0761 C   0  0  0  0  0  0  0  0  0  0  0  0
   -4.2095   -2.9522    0.6210 C   0  0  0  0  0  0  0  0  0  0  0  0
   -3.5078   -2.4287    1.2992 H   0  0  0  0  0  0  0  0  0  0  0  0
   -3.6869   -3.8391    0.2133 H   0  0  0  0  0  0  0  0  0  0  0  0
   -5.0792   -3.2958    1.2140 H   0  0  0  0  0  0  0  0  0  0  0  0
   -5.6331   -2.7738   -1.4426 C   0  0  0  0  0  0  0  0  0  0  0  0
   -5.8282   -2.2102   -2.3733 H   0  0  0  0  0  0  0  0  0  0  0  0
   -6.5943   -2.9308   -0.9133 H   0  0  0  0  0  0  0  0  0  0  0  0
   -5.2301   -3.7664   -1.7236 H   0  0  0  0  0  0  0  0  0  0  0  0
   -5.7209   -0.5528    1.3087 C   0  0  0  0  0  0  0  0  0  0  0  0
   -5.0182   -0.8940    2.0901 H   0  0  0  0  0  0  0  0  0  0  0  0
   -6.6354   -1.1782    1.3468 H   0  0  0  0  0  0  0  0  0  0  0  0
   -6.0087    0.4903    1.5461 H   0  0  0  0  0  0  0  0  0  0  0  0
   -5.9610    0.1116   -1.1054 C   0  0  0  0  0  0  0  0  0  0  0  0
   -5.5128    0.0646   -2.1172 H   0  0  0  0  0  0  0  0  0  0  0  0
   -6.0499    1.1776   -0.8182 H   0  0  0  0  0  0  0  0  0  0  0  0
   -6.9792   -0.3220   -1.1502 H   0  0  0  0  0  0  0  0  0  0  0  0
   -1.6530    2.3095   -0.4213 C   0  0  0  0  0  0  0  0  0  0  0  0
   -2.7029    1.9720   -0.4795 H   0  0  0  0  0  0  0  0  0  0  0  0
   -1.4802    3.4581   -1.4804 C   0  0  0  0  0  0  0  0  0  0  0  0
   -0.5927    3.3059   -2.1273 H   0  0  0  0  0  0  0  0  0  0  0  0
   -2.3562    3.4693   -2.1598 H   0  0  0  0  0  0  0  0  0  0  0  0
   -1.3890    4.7695   -0.6652 C   0  0  0  0  0  0  0  0  0  0  0  0
   -0.3245    5.0567   -0.5204 H   0  0  0  0  0  0  0  0  0  0  0  0
   -1.8817    5.6254   -1.1688 H   0  0  0  0  0  0  0  0  0  0  0  0
   -2.0097    4.4242    0.6984 C   0  0  0  0  0  0  0  0  0  0  0  0
   -3.1191    4.4287    0.6201 H   0  0  0  0  0  0  0  0  0  0  0  0
   -1.7358    5.1392    1.5004 H   0  0  0  0  0  0  0  0  0  0  0  0
   -1.5162    2.9952    0.9606 C   0  0  0  0  0  0  0  0  0  0  0  0
   -2.1066    2.4639    1.7317 H   0  0  0  0  0  0  0  0  0  0  0  0
   -0.4655    3.0082    1.3110 H   0  0  0  0  0  0  0  0  0  0  0  0
    1.4504    2.3032   -0.3792 C   0  0  0  0  0  0  0  0  0  0  0  0
    0.7473    3.1545   -0.3955 H   0  0  0  0  0  0  0  0  0  0  0  0
    2.2057    2.4242    0.9618 C   0  0  0  0  0  0  0  0  0  0  0  0
    1.5180    2.5562    1.8215 H   0  0  0  0  0  0  0  0  0  0  0  0
    2.8148    1.5198    1.1426 H   0  0  0  0  0  0  0  0  0  0  0  0
    3.1215    3.6270    0.7103 C   0  0  0  0  0  0  0  0  0  0  0  0
    2.5235    4.5650    0.7258 H   0  0  0  0  0  0  0  0  0  0  0  0
    3.9204    3.7375    1.4712 H   0  0  0  0  0  0  0  0  0  0  0  0
    3.6675    3.3666   -0.7079 C   0  0  0  0  0  0  0  0  0  0  0  0
    4.5653    2.7185   -0.6430 H   0  0  0  0  0  0  0  0  0  0  0  0
    3.9781    4.2967   -1.2245 H   0  0  0  0  0  0  0  0  0  0  0  0
    2.5364    2.6090   -1.4546 C   0  0  0  0  0  0  0  0  0  0  0  0
    2.9172    1.6688   -1.8991 H   0  0  0  0  0  0  0  0  0  0  0  0
    2.1042    3.2004   -2.2876 H   0  0  0  0  0  0  0  0  0  0  0  0
    4.8194   -1.0539   -0.0176 C   0  0  0  0  0  0  0  0  0  0  0  0
    4.2141   -2.4273   -0.5149 C   0  0  0  0  0  0  0  0  0  0  0  0
    5.4804   -1.1035    1.3564 C   0  0  0  0  0  0  0  0  0  0  0  0
    4.7567   -1.3894    2.1411 H   0  0  0  0  0  0  0  0  0  0  0  0
    5.8834   -0.1044    1.6148 H   0  0  0  0  0  0  0  0  0  0  0  0
    6.3222   -1.8245    1.3628 H   0  0  0  0  0  0  0  0  0  0  0  0
    5.7524   -0.4017   -1.0438 C   0  0  0  0  0  0  0  0  0  0  0  0
    5.2835   -0.3681   -2.0467 H   0  0  0  0  0  0  0  0  0  0  0  0
    6.7166   -0.9408   -1.1228 H   0  0  0  0  0  0  0  0  0  0  0  0
    5.9622    0.6392   -0.7283 H   0  0  0  0  0  0  0  0  0  0  0  0
    5.1181   -3.2287   -1.4456 C   0  0  0  0  0  0  0  0  0  0  0  0
    5.3610   -2.6640   -2.3642 H   0  0  0  0  0  0  0  0  0  0  0  0
    4.6071   -4.1643   -1.7459 H   0  0  0  0  0  0  0  0  0  0  0  0
    6.0634   -3.5024   -0.9354 H   0  0  0  0  0  0  0  0  0  0  0  0
    3.7105   -3.3085    0.6358 C   0  0  0  0  0  0  0  0  0  0  0  0
    3.0791   -2.7303    1.3383 H   0  0  0  0  0  0  0  0  0  0  0  0
    4.5460   -3.7598    1.2054 H   0  0  0  0  0  0  0  0  0  0  0  0
    3.0895   -4.1228    0.2147 H   0  0  0  0  0  0  0  0  0  0  0  0
  1  5  1  0  0  0  0
  1 13  1  0  0  0  0
  4  6  1  0  0  0  0
  4 60  1  0  0  0  0
  5  2  1  0  0  0  0
  6  3  1  0  0  0  0
  7  5  2  0  0  0  0
  8  7  1  0  0  0  0
  9  7  1  6  0  0  0
  9 10  1  0  0  0  0
  9 31  1  0  0  0  0
 10 11  1  6  0  0  0
 10 45  1  0  0  0  0
 11  6  1  0  0  0  0
 12 11  1  0  0  0  0
 13 14  1  0  0  0  0
 13 15  1  0  0  0  0
 14  2  1  0  0  0  0
 14 23  1  0  0  0  0
 15 18  1  0  0  0  0
 15 16  1  0  0  0  0
 17 15  1  0  0  0  0
 19 21  1  0  0  0  0
 19 13  1  0  0  0  0
 20 19  1  0  0  0  0
 22 19  1  0  0  0  0
 23 25  1  0  0  0  0
 23 26  1  0  0  0  0
 23 24  1  0  0  0  0
 27 29  1  0  0  0  0
 27 14  1  0  0  0  0
 28 27  1  0  0  0  0
 30 27  1  0  0  0  0
 31 42  1  0  0  0  0
 32 31  1  0  0  0  0
 33 36  1  0  0  0  0
 33 31  1  0  0  0  0
 34 33  1  0  0  0  0
 35 33  1  0  0  0  0
 36 37  1  0  0  0  0
 36 39  1  0  0  0  0
 38 36  1  0  0  0  0
 39 42  1  0  0  0  0
 39 41  1  0  0  0  0
 40 39  1  0  0  0  0
 42 44  1  0  0  0  0
 42 43  1  0  0  0  0
 45 47  1  0  0  0  0
 46 45  1  0  0  0  0
 47 49  1  0  0  0  0
 47 48  1  0  0  0  0
 50 51  1  0  0  0  0
 50 47  1  0  0  0  0
 50 52  1  0  0  0  0
 53 54  1  0  0  0  0
 53 50  1  0  0  0  0
 55 53  1  0  0  0  0
 56 53  1  0  0  0  0
 56 45  1  0  0  0  0
 57 56  1  0  0  0  0
 58 56  1  0  0  0  0
 59  3  1  0  0  0  0
 59 61  1  0  0  0  0
 60 59  1  0  0  0  0
 60 73  1  0  0  0  0
 61 64  1  0  0  0  0
 61 63  1  0  0  0  0
 61 62  1  0  0  0  0
 65 68  1  0  0  0  0
 65 59  1  0  0  0  0
 66 65  1  0  0  0  0
 67 65  1  0  0  0  0
 69 72  1  0  0  0  0
 69 60  1  0  0  0  0
 70 69  1  0  0  0  0
 71 69  1  0  0  0  0
 73 75  1  0  0  0  0
 73 74  1  0  0  0  0
 76 73  1  0  0  0  0
M  END
