3
 OpenBabel05122313113D

 13 12  0  0  1  0  0  0  0  0999 V2000
   -2.7075    2.6521    0.1791 O   0  0  0  0  0  0  0  0  0  0  0  0
   -1.2435    0.8206    1.7633 C   0  0  0  0  0  3  0  0  0  0  0  0
   -2.6100    0.5995    1.3987 C   0  0  0  0  0  3  0  0  0  0  0  0
   -3.5080    1.7076    0.8761 C   0  0  2  0  0  0  0  0  0  0  0  0
   -4.6730    1.1974    0.0293 C   0  0  0  0  0  0  0  0  0  0  0  0
   -0.8045    1.8179    1.6107 H   0  0  0  0  0  0  0  0  0  0  0  0
   -0.8232    0.2794    2.6266 H   0  0  0  0  0  0  0  0  0  0  0  0
   -3.1750   -0.1216    2.0134 H   0  0  0  0  0  0  0  0  0  0  0  0
   -3.9306    2.1855    1.7986 H   0  0  0  0  0  0  0  0  0  0  0  0
   -5.3419    2.0311   -0.2670 H   0  0  0  0  0  0  0  0  0  0  0  0
   -4.3055    0.7035   -0.8922 H   0  0  0  0  0  0  0  0  0  0  0  0
   -5.2904    0.4732    0.5985 H   0  0  0  0  0  0  0  0  0  0  0  0
   -3.2955    3.3341   -0.1937 H   0  0  0  0  0  0  0  0  0  0  0  0
  1  4  1  0  0  0  0
  2  7  1  0  0  0  0
  3  2  1  0  0  0  0
  3  8  1  0  0  0  0
  4  3  1  0  0  0  0
  4  9  1  1  0  0  0
  5 12  1  0  0  0  0
  5  4  1  0  0  0  0
  6  2  1  0  0  0  0
 10  5  1  0  0  0  0
 11  5  1  0  0  0  0
 13  1  1  0  0  0  0
M  END
