2
 OpenBabel05122313113D

 15 15  0  0  0  0  0  0  0  0999 V2000
    1.7094   -0.0796    1.5499 Se  0  0  0  0  0  1  0  0  0  0  0  0
    1.2392    0.0200   -1.3062 C   0  0  0  0  0  2  0  0  0  0  0  0
    0.2999    0.0436   -2.3696 C   0  0  0  0  0  3  0  0  0  0  0  0
    0.1874    0.9713   -2.9635 H   0  0  0  0  0  0  0  0  0  0  0  0
    0.1903   -0.8591   -3.0015 H   0  0  0  0  0  0  0  0  0  0  0  0
    2.6501    0.0087   -1.1005 C   0  0  0  0  0  0  0  0  0  0  0  0
    3.6197    0.0392   -2.1400 C   0  0  0  0  0  0  0  0  0  0  0  0
    3.2704    0.0736   -3.1841 H   0  0  0  0  0  0  0  0  0  0  0  0
    4.9817    0.0263   -1.8348 C   0  0  0  0  0  0  0  0  0  0  0  0
    5.7312    0.0506   -2.6403 H   0  0  0  0  0  0  0  0  0  0  0  0
    5.3991   -0.0178   -0.4827 C   0  0  0  0  0  0  0  0  0  0  0  0
    6.4745   -0.0276   -0.2449 H   0  0  0  0  0  0  0  0  0  0  0  0
    4.4646   -0.0494    0.5595 C   0  0  0  0  0  0  0  0  0  0  0  0
    4.7995   -0.0840    1.6077 H   0  0  0  0  0  0  0  0  0  0  0  0
    3.0841   -0.0369    0.2643 C   0  0  0  0  0  0  0  0  0  0  0  0
  2  6  1  0  0  0  0
  3  2  1  0  0  0  0
  4  3  1  0  0  0  0
  5  3  1  0  0  0  0
  6 15  1  0  0  0  0
  7  9  1  0  0  0  0
  7  6  2  0  0  0  0
  8  7  1  0  0  0  0
  9 11  2  0  0  0  0
 10  9  1  0  0  0  0
 11 12  1  0  0  0  0
 11 13  1  0  0  0  0
 13 14  1  0  0  0  0
 15 13  2  0  0  0  0
 15  1  1  0  0  0  0
M  END
