3
 OpenBabel05122313113D

 16 15  0  0  0  0  0  0  0  0999 V2000
   -2.8178    0.6381    0.6574 O   0  0  0  0  0  0  0  0  0  0  0  0
   -1.5713   -0.9801   -0.3417 O   0  0  0  0  0  0  0  0  0  0  0  0
   -1.7871    0.2547    0.1449 C   0  0  0  0  0  3  0  0  0  0  0  0
   -2.5324   -2.0948   -0.0968 C   0  0  0  0  0  0  0  0  0  0  0  0
   -1.8120   -3.2827   -0.7351 C   0  0  0  0  0  0  0  0  0  0  0  0
   -2.6909   -2.2900    1.4125 C   0  0  0  0  0  0  0  0  0  0  0  0
   -3.8567   -1.8010   -0.8032 C   0  0  0  0  0  0  0  0  0  0  0  0
   -2.4297   -4.1975   -0.6431 H   0  0  0  0  0  0  0  0  0  0  0  0
   -0.8394   -3.4598   -0.2362 H   0  0  0  0  0  0  0  0  0  0  0  0
   -1.6237   -3.0911   -1.8100 H   0  0  0  0  0  0  0  0  0  0  0  0
   -3.2436   -1.4485    1.8688 H   0  0  0  0  0  0  0  0  0  0  0  0
   -3.2478   -3.2278    1.6101 H   0  0  0  0  0  0  0  0  0  0  0  0
   -1.6938   -2.3588    1.8901 H   0  0  0  0  0  0  0  0  0  0  0  0
   -3.6879   -1.6142   -1.8826 H   0  0  0  0  0  0  0  0  0  0  0  0
   -4.5303   -2.6765   -0.7073 H   0  0  0  0  0  0  0  0  0  0  0  0
   -4.3548   -0.9195   -0.3607 H   0  0  0  0  0  0  0  0  0  0  0  0
  2  4  1  0  0  0  0
  2  3  1  0  0  0  0
  3  1  2  0  0  0  0
  4  6  1  0  0  0  0
  5  8  1  0  0  0  0
  5  9  1  0  0  0  0
  5  4  1  0  0  0  0
  6 12  1  0  0  0  0
  6 11  1  0  0  0  0
  6 13  1  0  0  0  0
  7 15  1  0  0  0  0
  7 16  1  0  0  0  0
  7  4  1  0  0  0  0
 10  5  1  0  0  0  0
 14  7  1  0  0  0  0
M  END
