2
 OpenBabel05122313113D

 30 31  0  0  0  0  0  0  0  0999 V2000
   -0.9826    0.0600    0.0701 P   0  0  0  0  0  0  0  0  0  0  0  0
    0.0668    0.0817    1.5029 C   0  0  0  0  0  3  0  0  0  0  0  0
   -0.1287    0.1834    2.8357 C   0  0  0  0  0  0  0  0  0  0  0  0
    0.7630    0.1587    3.4953 H   0  0  0  0  0  0  0  0  0  0  0  0
   -1.4538    0.3085    3.5286 C   0  0  0  0  0  0  0  0  0  0  0  0
   -1.4970    1.2200    4.1645 H   0  0  0  0  0  0  0  0  0  0  0  0
   -1.6309   -0.5526    4.2096 H   0  0  0  0  0  0  0  0  0  0  0  0
   -2.2901    0.3491    2.8036 H   0  0  0  0  0  0  0  0  0  0  0  0
   -1.8190    1.6533   -0.2119 C   0  0  0  0  0  0  0  0  0  0  0  0
   -2.2094   -1.2779   -0.0698 C   0  0  0  0  0  0  0  0  0  0  0  0
   -1.5075    2.7724    0.5881 C   0  0  0  0  0  0  0  0  0  0  0  0
   -0.8047    2.6558    1.4276 H   0  0  0  0  0  0  0  0  0  0  0  0
   -2.0959    4.0155    0.3147 C   0  0  0  0  0  0  0  0  0  0  0  0
   -1.8535    4.8839    0.9462 H   0  0  0  0  0  0  0  0  0  0  0  0
   -2.9977    4.1515   -0.7536 C   0  0  0  0  0  0  0  0  0  0  0  0
   -3.4605    5.1275   -0.9642 H   0  0  0  0  0  0  0  0  0  0  0  0
   -3.3069    3.0389   -1.5531 C   0  0  0  0  0  0  0  0  0  0  0  0
   -4.0091    3.1417   -2.3943 H   0  0  0  0  0  0  0  0  0  0  0  0
   -2.7179    1.7937   -1.2907 C   0  0  0  0  0  0  0  0  0  0  0  0
   -2.9550    0.9261   -1.9253 H   0  0  0  0  0  0  0  0  0  0  0  0
   -3.5344   -1.1210    0.3897 C   0  0  0  0  0  0  0  0  0  0  0  0
   -3.8632   -0.1567    0.8072 H   0  0  0  0  0  0  0  0  0  0  0  0
   -4.4312   -2.1949    0.3064 C   0  0  0  0  0  0  0  0  0  0  0  0
   -5.4639   -2.0733    0.6674 H   0  0  0  0  0  0  0  0  0  0  0  0
   -4.0120   -3.4236   -0.2322 C   0  0  0  0  0  0  0  0  0  0  0  0
   -4.7188   -4.2650   -0.2943 H   0  0  0  0  0  0  0  0  0  0  0  0
   -2.6964   -3.5759   -0.6974 C   0  0  0  0  0  0  0  0  0  0  0  0
   -2.3696   -4.5337   -1.1295 H   0  0  0  0  0  0  0  0  0  0  0  0
   -1.7930   -2.5049   -0.6248 C   0  0  0  0  0  0  0  0  0  0  0  0
   -0.7657   -2.6038   -1.0065 H   0  0  0  0  0  0  0  0  0  0  0  0
  1  2  1  0  0  0  0
  2  3  2  0  0  0  0
  3  4  1  0  0  0  0
  3  5  1  0  0  0  0
  5  6  1  0  0  0  0
  5  7  1  0  0  0  0
  8  5  1  0  0  0  0
  9  1  1  0  0  0  0
  9 11  1  0  0  0  0
 10  1  1  0  0  0  0
 10 21  1  0  0  0  0
 11 12  1  0  0  0  0
 13 11  2  0  0  0  0
 13 14  1  0  0  0  0
 15 13  1  0  0  0  0
 16 15  1  0  0  0  0
 17 19  1  0  0  0  0
 17 15  2  0  0  0  0
 18 17  1  0  0  0  0
 19  9  2  0  0  0  0
 20 19  1  0  0  0  0
 21 22  1  0  0  0  0
 23 21  2  0  0  0  0
 23 24  1  0  0  0  0
 25 23  1  0  0  0  0
 26 25  1  0  0  0  0
 27 29  1  0  0  0  0
 27 25  2  0  0  0  0
 28 27  1  0  0  0  0
 29 10  2  0  0  0  0
 30 29  1  0  0  0  0
M  END
