10
 OpenBabel05122313113D

 42 45  0  0  0  0  0  0  0  0999 V2000
   -2.8900    1.6977    0.2433 N   0  0  0  0  0  0  0  0  0  0  0  0
   -0.5794    2.9681    1.2732 C   0  0  0  0  0  0  0  0  0  0  0  0
   -1.4779    3.5839    1.3582 H   0  0  0  0  0  0  0  0  0  0  0  0
   -5.0771    1.9329   -0.4603 N   0  0  0  0  0  0  0  0  0  0  0  0
   -1.9045    0.9498    0.6956 C   0  0  0  0  0  0  0  0  0  0  0  0
   -6.5450    0.0116   -0.5915 C   0  0  0  0  0  0  0  0  0  0  0  0
   -7.5457   -0.3670   -0.8539 H   0  0  0  0  0  0  0  0  0  0  0  0
    1.4368    2.0386    1.2063 N   0  0  0  0  0  0  0  0  0  0  0  0
   -4.2965   -0.3049    0.2067 C   0  0  0  0  0  0  0  0  0  0  0  0
    0.5834    1.0401    0.8274 C   0  0  0  0  0  2  0  0  0  0  0  0
    2.8708    1.8397    1.4143 C   0  0  0  0  0  0  0  0  0  0  0  0
    2.9828    0.8979    1.9901 H   0  0  0  0  0  0  0  0  0  0  0  0
    3.2157    2.6756    2.0583 H   0  0  0  0  0  0  0  0  0  0  0  0
   -0.6642    1.6245    0.9045 N   0  0  0  0  0  0  0  0  0  0  0  0
    0.7479    3.2221    1.4727 C   0  0  0  0  0  0  0  0  0  0  0  0
    1.2617    4.1322    1.7957 H   0  0  0  0  0  0  0  0  0  0  0  0
   -6.2622    1.4052   -0.7451 C   0  0  0  0  0  0  0  0  0  0  0  0
   -5.8542   -2.3302    0.0650 C   0  0  0  0  0  0  0  0  0  0  0  0
   -6.8837   -2.5866   -0.2477 H   0  0  0  0  0  0  0  0  0  0  0  0
   -5.7326   -2.6377    1.1248 H   0  0  0  0  0  0  0  0  0  0  0  0
   -5.1501   -2.9495   -0.5288 H   0  0  0  0  0  0  0  0  0  0  0  0
   -3.2142   -1.0543    0.7477 C   0  0  0  0  0  0  0  0  0  0  0  0
   -3.3391   -2.1229    0.9763 H   0  0  0  0  0  0  0  0  0  0  0  0
    3.7051    1.7814    0.1526 C   0  0  0  0  0  0  0  0  0  0  0  0
   -4.0960    1.1098   -0.0009 C   0  0  0  0  0  0  0  0  0  0  0  0
   -5.5787   -0.8627   -0.1141 C   0  0  0  0  0  0  0  0  0  0  0  0
    5.5845    0.8061   -1.0621 C   0  0  0  0  0  0  0  0  0  0  0  0
    6.3872    0.0557   -1.1239 H   0  0  0  0  0  0  0  0  0  0  0  0
   -7.3362    2.3334   -1.2510 C   0  0  0  0  0  0  0  0  0  0  0  0
   -6.9391    3.3626   -1.3079 H   0  0  0  0  0  0  0  0  0  0  0  0
   -8.2215    2.3215   -0.5814 H   0  0  0  0  0  0  0  0  0  0  0  0
   -7.6895    2.0240   -2.2569 H   0  0  0  0  0  0  0  0  0  0  0  0
    4.7360    0.8277    0.0556 C   0  0  0  0  0  0  0  0  0  0  0  0
    4.8628    0.0910    0.8640 H   0  0  0  0  0  0  0  0  0  0  0  0
    3.5196    2.6969   -0.9009 C   0  0  0  0  0  0  0  0  0  0  0  0
    2.7061    3.4378   -0.8435 H   0  0  0  0  0  0  0  0  0  0  0  0
   -2.0056   -0.4342    1.0167 C   0  0  0  0  0  0  0  0  0  0  0  0
   -1.1510   -0.9640    1.4654 H   0  0  0  0  0  0  0  0  0  0  0  0
    5.3971    1.7256   -2.1063 C   0  0  0  0  0  0  0  0  0  0  0  0
    6.0555    1.7042   -2.9878 H   0  0  0  0  0  0  0  0  0  0  0  0
    4.3562    2.6656   -2.0265 C   0  0  0  0  0  0  0  0  0  0  0  0
    4.1971    3.3828   -2.8461 H   0  0  0  0  0  0  0  0  0  0  0  0
  1  5  1  0  0  0  0
  2  3  1  0  0  0  0
  2 15  2  0  0  0  0
  4 25  1  0  0  0  0
  5 14  1  0  0  0  0
  5 37  2  0  0  0  0
  6 26  2  0  0  0  0
  7  6  1  0  0  0  0
  8 11  1  0  0  0  0
  8 15  1  0  0  0  0
  9 22  2  0  0  0  0
 10 14  1  0  0  0  0
 10  8  1  0  0  0  0
 11 12  1  0  0  0  0
 11 13  1  0  0  0  0
 14  2  1  0  0  0  0
 15 16  1  0  0  0  0
 17  6  1  0  0  0  0
 17  4  2  0  0  0  0
 18 20  1  0  0  0  0
 19 18  1  0  0  0  0
 21 18  1  0  0  0  0
 22 23  1  0  0  0  0
 22 37  1  0  0  0  0
 24 11  1  0  0  0  0
 25  9  1  0  0  0  0
 25  1  2  0  0  0  0
 26 18  1  0  0  0  0
 26  9  1  0  0  0  0
 27 33  2  0  0  0  0
 28 27  1  0  0  0  0
 29 17  1  0  0  0  0
 29 31  1  0  0  0  0
 30 29  1  0  0  0  0
 32 29  1  0  0  0  0
 33 24  1  0  0  0  0
 33 34  1  0  0  0  0
 35 36  1  0  0  0  0
 35 24  2  0  0  0  0
 37 38  1  0  0  0  0
 39 41  2  0  0  0  0
 39 27  1  0  0  0  0
 40 39  1  0  0  0  0
 41 35  1  0  0  0  0
 42 41  1  0  0  0  0
M  END
