1
 OpenBabel05122313113D

 18 18  0  0  0  0  0  0  0  0999 V2000
    0.5196    2.2063   -0.4396 C   0  0  0  0  0  3  0  0  0  0  0  0
   -0.1006    3.2509   -1.0514 C   0  0  0  0  0  0  0  0  0  0  0  0
   -1.1380    3.1038   -1.4122 H   0  0  0  0  0  0  0  0  0  0  0  0
    0.4579    4.6320   -1.2790 C   0  0  0  0  0  0  0  0  0  0  0  0
   -0.1773    5.4090   -0.7973 H   0  0  0  0  0  0  0  0  0  0  0  0
    0.4840    4.8905   -2.3616 H   0  0  0  0  0  0  0  0  0  0  0  0
    1.4861    4.7350   -0.8794 H   0  0  0  0  0  0  0  0  0  0  0  0
    1.9127    2.2998    0.0566 C   0  0  0  0  0  0  0  0  0  0  0  0
    2.1922    2.3445    1.4465 C   0  0  0  0  0  0  0  0  0  0  0  0
    1.3446    2.3475    2.1506 H   0  0  0  0  0  0  0  0  0  0  0  0
    3.5071    2.3970    1.9284 C   0  0  0  0  0  0  0  0  0  0  0  0
    3.6881    2.4467    3.0144 H   0  0  0  0  0  0  0  0  0  0  0  0
    4.5934    2.3925    1.0356 C   0  0  0  0  0  0  0  0  0  0  0  0
    5.6270    2.4365    1.4126 H   0  0  0  0  0  0  0  0  0  0  0  0
    4.3390    2.3355   -0.3451 C   0  0  0  0  0  0  0  0  0  0  0  0
    5.1791    2.3299   -1.0583 H   0  0  0  0  0  0  0  0  0  0  0  0
    3.0228    2.2891   -0.8258 C   0  0  0  0  0  0  0  0  0  0  0  0
    2.8310    2.2407   -1.9091 H   0  0  0  0  0  0  0  0  0  0  0  0
  1  8  1  0  0  0  0
  2  1  2  0  0  0  0
  3  2  1  0  0  0  0
  4  2  1  0  0  0  0
  4  7  1  0  0  0  0
  4  5  1  0  0  0  0
  6  4  1  0  0  0  0
  8  9  1  0  0  0  0
  9 11  2  0  0  0  0
  9 10  1  0  0  0  0
 11 12  1  0  0  0  0
 13 14  1  0  0  0  0
 13 11  1  0  0  0  0
 15 13  2  0  0  0  0
 16 15  1  0  0  0  0
 17 15  1  0  0  0  0
 17  8  2  0  0  0  0
 18 17  1  0  0  0  0
M  END
