3
 OpenBabel05122313113D

 39 41  0  0  0  0  0  0  0  0999 V2000
    1.7472    0.1641    2.7302 S   0  0  0  0  0  1  0  0  0  0  0  0
    1.8177    0.3549    0.7724 P   0  0  0  0  0  4  0  0  0  0  0  0
    0.1918    0.5308   -0.0484 C   0  0  0  0  0  3  0  0  0  0  0  0
    0.3153    0.8503   -1.0987 H   0  0  0  0  0  0  0  0  0  0  0  0
   -0.9125    1.0910    0.6822 C   0  0  0  0  0  3  0  0  0  0  0  0
   -0.7655    1.1419    1.7767 H   0  0  0  0  0  0  0  0  0  0  0  0
   -1.8531    2.1055    0.1356 C   0  0  0  0  0  0  0  0  0  0  0  0
   -3.0063    2.4513    0.8783 C   0  0  0  0  0  0  0  0  0  0  0  0
   -3.1885    1.9535    1.8431 H   0  0  0  0  0  0  0  0  0  0  0  0
   -3.9186    3.3975    0.3950 C   0  0  0  0  0  0  0  0  0  0  0  0
   -4.8116    3.6454    0.9891 H   0  0  0  0  0  0  0  0  0  0  0  0
   -3.6967    4.0318   -0.8391 C   0  0  0  0  0  0  0  0  0  0  0  0
   -4.4121    4.7771   -1.2179 H   0  0  0  0  0  0  0  0  0  0  0  0
   -2.5451    3.7158   -1.5776 C   0  0  0  0  0  0  0  0  0  0  0  0
   -2.3482    4.2216   -2.5354 H   0  0  0  0  0  0  0  0  0  0  0  0
   -1.6320    2.7670   -1.0942 C   0  0  0  0  0  0  0  0  0  0  0  0
   -0.7231    2.5475   -1.6752 H   0  0  0  0  0  0  0  0  0  0  0  0
    2.7251    1.8539    0.2082 C   0  0  0  0  0  0  0  0  0  0  0  0
    2.0683    3.1024    0.2251 C   0  0  0  0  0  0  0  0  0  0  0  0
    1.0111    3.1663    0.5253 H   0  0  0  0  0  0  0  0  0  0  0  0
    2.7610    4.2663   -0.1367 C   0  0  0  0  0  0  0  0  0  0  0  0
    2.2403    5.2360   -0.1253 H   0  0  0  0  0  0  0  0  0  0  0  0
    4.1136    4.1956   -0.5100 C   0  0  0  0  0  0  0  0  0  0  0  0
    4.6560    5.1105   -0.7928 H   0  0  0  0  0  0  0  0  0  0  0  0
    4.7728    2.9561   -0.5183 C   0  0  0  0  0  0  0  0  0  0  0  0
    5.8338    2.8971   -0.8053 H   0  0  0  0  0  0  0  0  0  0  0  0
    4.0833    1.7875   -0.1607 C   0  0  0  0  0  0  0  0  0  0  0  0
    4.6020    0.8169   -0.1684 H   0  0  0  0  0  0  0  0  0  0  0  0
    2.6353   -1.0295   -0.1226 C   0  0  0  0  0  0  0  0  0  0  0  0
    2.6530   -1.0608   -1.5323 C   0  0  0  0  0  0  0  0  0  0  0  0
    2.2217   -0.2292   -2.1118 H   0  0  0  0  0  0  0  0  0  0  0  0
    3.2388   -2.1448   -2.2014 C   0  0  0  0  0  0  0  0  0  0  0  0
    3.2537   -2.1680   -3.3020 H   0  0  0  0  0  0  0  0  0  0  0  0
    3.8135   -3.1962   -1.4656 C   0  0  0  0  0  0  0  0  0  0  0  0
    4.2730   -4.0470   -1.9918 H   0  0  0  0  0  0  0  0  0  0  0  0
    3.8057   -3.1585   -0.0627 C   0  0  0  0  0  0  0  0  0  0  0  0
    4.2557   -3.9805    0.5143 H   0  0  0  0  0  0  0  0  0  0  0  0
    3.2167   -2.0766    0.6103 C   0  0  0  0  0  0  0  0  0  0  0  0
    3.1759   -2.0320    1.7106 H   0  0  0  0  0  0  0  0  0  0  0  0
  2  1  1  0  0  0  0
  3  5  1  0  0  0  0
  3  2  1  0  0  0  0
  4  3  1  0  0  0  0
  5  6  1  0  0  0  0
  7  5  1  0  0  0  0
  7  8  1  0  0  0  0
  8  9  1  0  0  0  0
 10  8  2  0  0  0  0
 10 11  1  0  0  0  0
 12 10  1  0  0  0  0
 13 12  1  0  0  0  0
 14 16  1  0  0  0  0
 14 12  2  0  0  0  0
 15 14  1  0  0  0  0
 16  7  2  0  0  0  0
 17 16  1  0  0  0  0
 18 19  1  0  0  0  0
 18  2  1  0  0  0  0
 19 20  1  0  0  0  0
 21 22  1  0  0  0  0
 21 19  2  0  0  0  0
 23 21  1  0  0  0  0
 24 23  1  0  0  0  0
 25 23  2  0  0  0  0
 25 27  1  0  0  0  0
 26 25  1  0  0  0  0
 27 18  2  0  0  0  0
 28 27  1  0  0  0  0
 29 38  1  0  0  0  0
 29  2  1  0  0  0  0
 30 29  2  0  0  0  0
 31 30  1  0  0  0  0
 32 30  1  0  0  0  0
 32 34  2  0  0  0  0
 33 32  1  0  0  0  0
 34 36  1  0  0  0  0
 35 34  1  0  0  0  0
 36 37  1  0  0  0  0
 36 38  2  0  0  0  0
 38 39  1  0  0  0  0
M  END
