1
 OpenBabel05122313113D

 32 35  0  0  0  0  0  0  0  0999 V2000
   -1.0693    0.1247    0.8164 C   0  0  0  0  0  3  0  0  0  0  0  0
   -0.2930   -0.9667    1.3828 C   0  0  0  0  0  0  0  0  0  0  0  0
   -0.5856   -2.3534    1.5444 C   0  0  0  0  0  0  0  0  0  0  0  0
   -1.5678   -2.7424    1.2402 H   0  0  0  0  0  0  0  0  0  0  0  0
    0.3715   -3.1818    2.1153 C   0  0  0  0  0  0  0  0  0  0  0  0
    0.1449   -4.2490    2.2585 H   0  0  0  0  0  0  0  0  0  0  0  0
    1.6471   -2.6858    2.5120 C   0  0  0  0  0  0  0  0  0  0  0  0
    2.3830   -3.3785    2.9459 H   0  0  0  0  0  0  0  0  0  0  0  0
    1.9742   -1.3457    2.3532 C   0  0  0  0  0  0  0  0  0  0  0  0
    2.9576   -0.9617    2.6622 H   0  0  0  0  0  0  0  0  0  0  0  0
    1.0044   -0.4593    1.8034 C   0  0  0  0  0  0  0  0  0  0  0  0
    1.0117    0.9771    1.5709 C   0  0  0  0  0  0  0  0  0  0  0  0
    1.9881    1.9850    1.8198 C   0  0  0  0  0  0  0  0  0  0  0  0
    2.9645    1.7105    2.2458 H   0  0  0  0  0  0  0  0  0  0  0  0
    1.6797    3.3068    1.5322 C   0  0  0  0  0  0  0  0  0  0  0  0
    2.4201    4.0954    1.7307 H   0  0  0  0  0  0  0  0  0  0  0  0
    0.4199    3.6589    0.9628 C   0  0  0  0  0  0  0  0  0  0  0  0
    0.2161    4.7144    0.7283 H   0  0  0  0  0  0  0  0  0  0  0  0
   -0.5448    2.7019    0.6828 C   0  0  0  0  0  0  0  0  0  0  0  0
   -1.5062    2.9801    0.2279 H   0  0  0  0  0  0  0  0  0  0  0  0
   -0.2818    1.3340    1.0044 C   0  0  0  0  0  0  0  0  0  0  0  0
   -2.4924    0.0548    0.4146 C   0  0  0  0  0  0  0  0  0  0  0  0
   -2.9617   -0.9164   -0.4989 C   0  0  0  0  0  0  0  0  0  0  0  0
   -2.2417   -1.5991   -0.9745 H   0  0  0  0  0  0  0  0  0  0  0  0
   -4.3205   -0.9915   -0.8319 C   0  0  0  0  0  0  0  0  0  0  0  0
   -4.6627   -1.7514   -1.5507 H   0  0  0  0  0  0  0  0  0  0  0  0
   -5.2386   -0.0903   -0.2689 C   0  0  0  0  0  0  0  0  0  0  0  0
   -6.3041   -0.1438   -0.5387 H   0  0  0  0  0  0  0  0  0  0  0  0
   -4.7863    0.8818    0.6366 C   0  0  0  0  0  0  0  0  0  0  0  0
   -5.4982    1.5899    1.0876 H   0  0  0  0  0  0  0  0  0  0  0  0
   -3.4284    0.9503    0.9802 C   0  0  0  0  0  0  0  0  0  0  0  0
   -3.0844    1.6957    1.7127 H   0  0  0  0  0  0  0  0  0  0  0  0
  1 21  1  0  0  0  0
  1  2  1  0  0  0  0
  2  3  2  0  0  0  0
  2 11  1  0  0  0  0
  3  5  1  0  0  0  0
  4  3  1  0  0  0  0
  5  6  1  0  0  0  0
  5  7  2  0  0  0  0
  7  8  1  0  0  0  0
  9  7  1  0  0  0  0
  9 10  1  0  0  0  0
 11  9  2  0  0  0  0
 12 11  1  0  0  0  0
 12 13  1  0  0  0  0
 13 14  1  0  0  0  0
 15 16  1  0  0  0  0
 15 13  2  0  0  0  0
 17 15  1  0  0  0  0
 18 17  1  0  0  0  0
 19 17  2  0  0  0  0
 19 21  1  0  0  0  0
 20 19  1  0  0  0  0
 21 12  2  0  0  0  0
 22  1  1  0  0  0  0
 22 31  1  0  0  0  0
 23 22  2  0  0  0  0
 24 23  1  0  0  0  0
 25 23  1  0  0  0  0
 25 27  2  0  0  0  0
 26 25  1  0  0  0  0
 27 29  1  0  0  0  0
 28 27  1  0  0  0  0
 29 31  2  0  0  0  0
 29 30  1  0  0  0  0
 31 32  1  0  0  0  0
M  END
