2
 OpenBabel05122313113D

 33 34  0  0  0  0  0  0  0  0999 V2000
    2.5300   -1.3438    0.1134 N   0  0  0  0  0  0  0  0  0  0  0  0
   -0.3050   -2.0635   -0.3096 C   0  0  0  0  0  3  0  0  0  0  0  0
   -1.5803   -2.5635   -0.6326 C   0  0  0  0  0  0  0  0  0  0  0  0
   -2.4258   -1.8686   -0.7604 H   0  0  0  0  0  0  0  0  0  0  0  0
   -1.8105   -3.9433   -0.7946 C   0  0  0  0  0  0  0  0  0  0  0  0
   -2.8207   -4.3038   -1.0457 H   0  0  0  0  0  0  0  0  0  0  0  0
   -0.7576   -4.8566   -0.6303 C   0  0  0  0  0  0  0  0  0  0  0  0
   -0.9332   -5.9366   -0.7477 H   0  0  0  0  0  0  0  0  0  0  0  0
    0.5224   -4.3808   -0.3215 C   0  0  0  0  0  0  0  0  0  0  0  0
    1.3599   -5.0878   -0.2009 H   0  0  0  0  0  0  0  0  0  0  0  0
    0.7644   -2.9946   -0.1712 C   0  0  0  0  0  0  0  0  0  0  0  0
    2.1468   -2.5753    0.1047 C   0  0  0  0  0  0  0  0  0  0  0  0
    2.8802   -3.3999    0.2784 H   0  0  0  0  0  0  0  0  0  0  0  0
    3.8275   -0.9564    0.4551 C   0  0  0  0  0  0  0  0  0  0  0  0
    4.4758   -1.4825    1.5973 C   0  0  0  0  0  0  0  0  0  0  0  0
    3.9440   -2.2224    2.2145 H   0  0  0  0  0  0  0  0  0  0  0  0
    5.7488   -1.0314    1.9664 C   0  0  0  0  0  0  0  0  0  0  0  0
    6.2352   -1.4393    2.8656 H   0  0  0  0  0  0  0  0  0  0  0  0
    6.3893   -0.0501    1.1955 C   0  0  0  0  0  0  0  0  0  0  0  0
    7.3876    0.3150    1.4801 H   0  0  0  0  0  0  0  0  0  0  0  0
    5.7480    0.4766    0.0621 C   0  0  0  0  0  0  0  0  0  0  0  0
    6.2613    1.2459   -0.5333 H   0  0  0  0  0  0  0  0  0  0  0  0
    4.4684    0.0487   -0.3315 C   0  0  0  0  0  0  0  0  0  0  0  0
    3.7846    0.5580   -1.5908 C   0  0  0  0  0  0  0  0  0  0  0  0
    2.6955    0.5748   -1.3641 H   0  0  0  0  0  0  0  0  0  0  0  0
    4.2066    1.9714   -2.0044 C   0  0  0  0  0  0  0  0  0  0  0  0
    5.2626    2.0063   -2.3450 H   0  0  0  0  0  0  0  0  0  0  0  0
    3.5818    2.3238   -2.8494 H   0  0  0  0  0  0  0  0  0  0  0  0
    4.0886    2.6958   -1.1741 H   0  0  0  0  0  0  0  0  0  0  0  0
    3.9799   -0.4394   -2.7495 C   0  0  0  0  0  0  0  0  0  0  0  0
    3.6122   -1.4489   -2.4799 H   0  0  0  0  0  0  0  0  0  0  0  0
    3.4286   -0.1059   -3.6528 H   0  0  0  0  0  0  0  0  0  0  0  0
    5.0541   -0.5270   -3.0149 H   0  0  0  0  0  0  0  0  0  0  0  0
  1 14  1  0  0  0  0
  2 11  1  0  0  0  0
  3  2  2  0  0  0  0
  4  3  1  0  0  0  0
  5  3  1  0  0  0  0
  5  7  2  0  0  0  0
  6  5  1  0  0  0  0
  7  9  1  0  0  0  0
  8  7  1  0  0  0  0
  9 10  1  0  0  0  0
  9 11  2  0  0  0  0
 11 12  1  0  0  0  0
 12  1  2  0  0  0  0
 12 13  1  0  0  0  0
 14 15  1  0  0  0  0
 15 17  2  0  0  0  0
 15 16  1  0  0  0  0
 17 18  1  0  0  0  0
 19 20  1  0  0  0  0
 19 17  1  0  0  0  0
 21 19  2  0  0  0  0
 22 21  1  0  0  0  0
 23 21  1  0  0  0  0
 23 14  2  0  0  0  0
 24 25  1  0  0  0  0
 24 23  1  0  0  0  0
 26 24  1  0  0  0  0
 26 29  1  0  0  0  0
 27 26  1  0  0  0  0
 28 26  1  0  0  0  0
 30 31  1  0  0  0  0
 30 24  1  0  0  0  0
 32 30  1  0  0  0  0
 33 30  1  0  0  0  0
M  END
