3
 OpenBabel05122313113D

 51 53  0  0  1  0  0  0  0  0999 V2000
    0.0000    1.7877   -0.1724 B   0  0  0  0  0  0  0  0  0  0  0  0
   -1.0363    0.7371   -0.1544 N   0  0  1  0  0  0  0  0  0  0  0  0
   -0.0000   -0.2069   -0.0195 C   0  0  0  0  0  2  0  0  0  0  0  0
    1.0363    0.7371   -0.1543 N   0  0  2  0  0  0  0  0  0  0  0  0
    2.4587    0.4835   -0.1125 C   0  0  0  0  0  0  0  0  0  0  0  0
    2.5470   -0.6222   -0.0466 H   0  0  0  0  0  0  0  0  0  0  0  0
    3.1441    1.0682    1.1344 C   0  0  0  0  0  0  0  0  0  0  0  0
    2.6198    0.7000    2.0395 H   0  0  0  0  0  0  0  0  0  0  0  0
    3.0399    2.1763    1.1244 H   0  0  0  0  0  0  0  0  0  0  0  0
    4.6292    0.6886    1.1747 C   0  0  0  0  0  0  0  0  0  0  0  0
    5.1168    1.1409    2.0632 H   0  0  0  0  0  0  0  0  0  0  0  0
    4.7085   -0.4139    1.3036 H   0  0  0  0  0  0  0  0  0  0  0  0
    5.3533    1.1087   -0.1111 C   0  0  0  0  0  0  0  0  0  0  0  0
    5.3579    2.2202   -0.1816 H   0  0  0  0  0  0  0  0  0  0  0  0
    6.4175    0.7942   -0.0779 H   0  0  0  0  0  0  0  0  0  0  0  0
    4.6649    0.5310   -1.3552 C   0  0  0  0  0  0  0  0  0  0  0  0
    4.7564   -0.5788   -1.3375 H   0  0  0  0  0  0  0  0  0  0  0  0
    5.1782    0.8702   -2.2792 H   0  0  0  0  0  0  0  0  0  0  0  0
    3.1789    0.9104   -1.4042 C   0  0  0  0  0  0  0  0  0  0  0  0
    3.0775    2.0087   -1.5387 H   0  0  0  0  0  0  0  0  0  0  0  0
    2.6760    0.4367   -2.2737 H   0  0  0  0  0  0  0  0  0  0  0  0
   -2.4587    0.4836   -0.1127 C   0  0  0  0  0  0  0  0  0  0  0  0
   -2.5470   -0.6221   -0.0470 H   0  0  0  0  0  0  0  0  0  0  0  0
   -3.1790    0.9108   -1.4042 C   0  0  0  0  0  0  0  0  0  0  0  0
   -2.6761    0.4373   -2.2739 H   0  0  0  0  0  0  0  0  0  0  0  0
   -3.0775    2.0091   -1.5384 H   0  0  0  0  0  0  0  0  0  0  0  0
   -4.6650    0.5315   -1.3552 C   0  0  0  0  0  0  0  0  0  0  0  0
   -5.1783    0.8709   -2.2791 H   0  0  0  0  0  0  0  0  0  0  0  0
   -4.7564   -0.5784   -1.3377 H   0  0  0  0  0  0  0  0  0  0  0  0
   -5.3533    1.1089   -0.1109 C   0  0  0  0  0  0  0  0  0  0  0  0
   -6.4174    0.7945   -0.0778 H   0  0  0  0  0  0  0  0  0  0  0  0
   -5.3578    2.2204   -0.1812 H   0  0  0  0  0  0  0  0  0  0  0  0
   -4.6291    0.6885    1.1747 C   0  0  0  0  0  0  0  0  0  0  0  0
   -5.1167    1.1406    2.0634 H   0  0  0  0  0  0  0  0  0  0  0  0
   -4.7084   -0.4141    1.3034 H   0  0  0  0  0  0  0  0  0  0  0  0
   -3.1440    1.0680    1.1345 C   0  0  0  0  0  0  0  0  0  0  0  0
   -3.0397    2.1762    1.1247 H   0  0  0  0  0  0  0  0  0  0  0  0
   -2.6197    0.6996    2.0394 H   0  0  0  0  0  0  0  0  0  0  0  0
    0.0001    3.3611   -0.0286 C   0  0  0  0  0  0  0  0  0  0  0  0
    1.2547    4.0003   -0.6542 C   0  0  0  0  0  0  0  0  0  0  0  0
    1.3109    3.8150   -1.7464 H   0  0  0  0  0  0  0  0  0  0  0  0
    2.1878    3.6160   -0.1978 H   0  0  0  0  0  0  0  0  0  0  0  0
    1.2409    5.1013   -0.5028 H   0  0  0  0  0  0  0  0  0  0  0  0
    0.0002    3.6215    1.5018 C   0  0  0  0  0  0  0  0  0  0  0  0
    0.0003    4.7161    1.6990 H   0  0  0  0  0  0  0  0  0  0  0  0
    0.8960    3.1906    1.9931 H   0  0  0  0  0  0  0  0  0  0  0  0
   -0.8955    3.1906    1.9933 H   0  0  0  0  0  0  0  0  0  0  0  0
   -1.2547    4.0004   -0.6539 C   0  0  0  0  0  0  0  0  0  0  0  0
   -1.2408    5.1013   -0.5024 H   0  0  0  0  0  0  0  0  0  0  0  0
   -2.1877    3.6160   -0.1974 H   0  0  0  0  0  0  0  0  0  0  0  0
   -1.3111    3.8150   -1.7461 H   0  0  0  0  0  0  0  0  0  0  0  0
  1  2  1  0  0  0  0
  1  4  1  0  0  0  0
  1 39  1  0  0  0  0
  2 22  1  1  0  0  0
  2  3  1  0  0  0  0
  4  5  1  1  0  0  0
  4  3  1  0  0  0  0
  5  6  1  0  0  0  0
  5  7  1  0  0  0  0
  7 10  1  0  0  0  0
  7  8  1  0  0  0  0
  9  7  1  0  0  0  0
 10 12  1  0  0  0  0
 10 11  1  0  0  0  0
 13 15  1  0  0  0  0
 13 10  1  0  0  0  0
 14 13  1  0  0  0  0
 16 17  1  0  0  0  0
 16 13  1  0  0  0  0
 18 16  1  0  0  0  0
 19 16  1  0  0  0  0
 19  5  1  0  0  0  0
 20 19  1  0  0  0  0
 21 19  1  0  0  0  0
 22 23  1  0  0  0  0
 22 36  1  0  0  0  0
 24 27  1  0  0  0  0
 24 22  1  0  0  0  0
 25 24  1  0  0  0  0
 26 24  1  0  0  0  0
 27 29  1  0  0  0  0
 27 30  1  0  0  0  0
 28 27  1  0  0  0  0
 30 31  1  0  0  0  0
 30 33  1  0  0  0  0
 32 30  1  0  0  0  0
 33 35  1  0  0  0  0
 33 34  1  0  0  0  0
 36 33  1  0  0  0  0
 36 38  1  0  0  0  0
 37 36  1  0  0  0  0
 39 44  1  0  0  0  0
 40 43  1  0  0  0  0
 40 42  1  0  0  0  0
 40 39  1  0  0  0  0
 41 40  1  0  0  0  0
 44 45  1  0  0  0  0
 44 46  1  0  0  0  0
 44 47  1  0  0  0  0
 48 49  1  0  0  0  0
 48 50  1  0  0  0  0
 48 39  1  0  0  0  0
 51 48  1  0  0  0  0
M  END
