3
 OpenBabel05122313113D

 43 45  0  0  0  0  0  0  0  0999 V2000
    6.8942    0.2960    0.0001 Br  0  0  0  0  0  0  0  0  0  0  0  0
    1.0969   -1.6268    0.0002 N   0  0  0  0  0  0  0  0  0  0  0  0
    0.0000   -0.8372    0.0001 C   0  0  0  0  0  2  0  0  0  0  0  0
    0.7723   -3.0658    0.0004 C   0  0  0  0  0  0  0  0  0  0  0  0
    1.2049   -3.5598    0.8955 H   0  0  0  0  0  0  0  0  0  0  0  0
    1.2048   -3.5600   -0.8946 H   0  0  0  0  0  0  0  0  0  0  0  0
    2.4447   -1.1454    0.0002 C   0  0  0  0  0  0  0  0  0  0  0  0
    3.0879   -0.9138    1.2375 C   0  0  0  0  0  0  0  0  0  0  0  0
    4.4252   -0.4799    1.2228 C   0  0  0  0  0  0  0  0  0  0  0  0
    4.9513   -0.2880    2.1686 H   0  0  0  0  0  0  0  0  0  0  0  0
    5.0807   -0.2790    0.0001 C   0  0  0  0  0  0  0  0  0  0  0  0
    4.4254   -0.4805   -1.2226 C   0  0  0  0  0  0  0  0  0  0  0  0
    4.9515   -0.2890   -2.1684 H   0  0  0  0  0  0  0  0  0  0  0  0
    3.0880   -0.9144   -1.2372 C   0  0  0  0  0  0  0  0  0  0  0  0
    2.3329   -1.0633    2.5317 C   0  0  0  0  0  0  0  0  0  0  0  0
    1.8527   -2.0590    2.6255 H   0  0  0  0  0  0  0  0  0  0  0  0
    1.5199   -0.3078    2.5853 H   0  0  0  0  0  0  0  0  0  0  0  0
    2.9967   -0.9187    3.4041 H   0  0  0  0  0  0  0  0  0  0  0  0
    2.3332   -1.0645   -2.5315 C   0  0  0  0  0  0  0  0  0  0  0  0
    1.8532   -2.0603   -2.6249 H   0  0  0  0  0  0  0  0  0  0  0  0
    2.9970   -0.9201   -3.4038 H   0  0  0  0  0  0  0  0  0  0  0  0
    1.5201   -0.3091   -2.5854 H   0  0  0  0  0  0  0  0  0  0  0  0
   -6.8942    0.2960    0.0001 Br  0  0  0  0  0  0  0  0  0  0  0  0
   -1.0969   -1.6268    0.0002 N   0  0  0  0  0  0  0  0  0  0  0  0
   -0.7723   -3.0658    0.0005 C   0  0  0  0  0  0  0  0  0  0  0  0
   -1.2048   -3.5601   -0.8945 H   0  0  0  0  0  0  0  0  0  0  0  0
   -1.2048   -3.5597    0.8956 H   0  0  0  0  0  0  0  0  0  0  0  0
   -2.4447   -1.1454    0.0001 C   0  0  0  0  0  0  0  0  0  0  0  0
   -3.0880   -0.9145   -1.2372 C   0  0  0  0  0  0  0  0  0  0  0  0
   -4.4254   -0.4806   -1.2225 C   0  0  0  0  0  0  0  0  0  0  0  0
   -4.9516   -0.2892   -2.1684 H   0  0  0  0  0  0  0  0  0  0  0  0
   -5.0807   -0.2790    0.0001 C   0  0  0  0  0  0  0  0  0  0  0  0
   -4.4252   -0.4798    1.2228 C   0  0  0  0  0  0  0  0  0  0  0  0
   -4.9512   -0.2878    2.1686 H   0  0  0  0  0  0  0  0  0  0  0  0
   -3.0878   -0.9137    1.2375 C   0  0  0  0  0  0  0  0  0  0  0  0
   -2.3333   -1.0647   -2.5315 C   0  0  0  0  0  0  0  0  0  0  0  0
   -1.8535   -2.0606   -2.6250 H   0  0  0  0  0  0  0  0  0  0  0  0
   -1.5200   -0.3095   -2.5854 H   0  0  0  0  0  0  0  0  0  0  0  0
   -2.9971   -0.9201   -3.4039 H   0  0  0  0  0  0  0  0  0  0  0  0
   -2.3328   -1.0631    2.5317 C   0  0  0  0  0  0  0  0  0  0  0  0
   -1.8522   -2.0586    2.6253 H   0  0  0  0  0  0  0  0  0  0  0  0
   -2.9966   -0.9188    3.4041 H   0  0  0  0  0  0  0  0  0  0  0  0
   -1.5201   -0.3072    2.5854 H   0  0  0  0  0  0  0  0  0  0  0  0
  1 11  1  0  0  0  0
  2  4  1  0  0  0  0
  3 24  1  0  0  0  0
  3  2  1  0  0  0  0
  4 25  1  0  0  0  0
  4  5  1  0  0  0  0
  6  4  1  0  0  0  0
  7  2  1  0  0  0  0
  7  8  1  0  0  0  0
  8 15  1  0  0  0  0
  9  8  2  0  0  0  0
  9 10  1  0  0  0  0
 11  9  1  0  0  0  0
 12 11  2  0  0  0  0
 13 12  1  0  0  0  0
 14 12  1  0  0  0  0
 14  7  2  0  0  0  0
 15 17  1  0  0  0  0
 15 16  1  0  0  0  0
 15 18  1  0  0  0  0
 19 14  1  0  0  0  0
 20 19  1  0  0  0  0
 21 19  1  0  0  0  0
 22 19  1  0  0  0  0
 23 32  1  0  0  0  0
 24 25  1  0  0  0  0
 25 27  1  0  0  0  0
 26 25  1  0  0  0  0
 28 24  1  0  0  0  0
 28 35  1  0  0  0  0
 29 30  1  0  0  0  0
 29 28  2  0  0  0  0
 30 32  2  0  0  0  0
 31 30  1  0  0  0  0
 32 33  1  0  0  0  0
 33 35  2  0  0  0  0
 33 34  1  0  0  0  0
 35 40  1  0  0  0  0
 36 29  1  0  0  0  0
 37 36  1  0  0  0  0
 38 36  1  0  0  0  0
 39 36  1  0  0  0  0
 40 43  1  0  0  0  0
 40 41  1  0  0  0  0
 40 42  1  0  0  0  0
M  END
