5
 OpenBabel05122313113D

 26 27  0  0  0  0  0  0  0  0999 V2000
    1.5415    0.7336   -2.2763 O   0  0  0  0  0  0  0  0  0  0  0  0
    1.0086    2.1598    1.6746 N   0  0  0  0  0  0  0  0  0  0  0  0
    2.0208    1.4076   -0.0855 N   0  0  0  0  0  0  0  0  0  0  0  0
    3.3983   -0.1200   -1.2382 N   0  0  0  0  0  0  0  0  0  0  0  0
    0.8419    1.3279    0.6086 C   0  0  0  0  0  2  0  0  0  0  0  0
    2.2604    2.7654    1.6406 C   0  0  0  0  0  0  0  0  0  0  0  0
    2.9055    2.2888    0.5315 C   0  0  0  0  0  0  0  0  0  0  0  0
   -0.0030    2.3593    2.7028 C   0  0  0  0  0  0  0  0  0  0  0  0
    2.2766    0.6437   -1.3098 C   0  0  0  0  0  0  0  0  0  0  0  0
    4.1179   -0.5387   -0.0209 C   0  0  0  0  0  0  0  0  0  0  0  0
    4.6003   -1.9482   -0.3793 C   0  0  0  0  0  0  0  0  0  0  0  0
    4.8782   -1.8452   -1.8860 C   0  0  0  0  0  0  0  0  0  0  0  0
    3.7178   -0.9795   -2.3916 C   0  0  0  0  0  0  0  0  0  0  0  0
    2.5765    3.4904    2.3961 H   0  0  0  0  0  0  0  0  0  0  0  0
    3.8913    2.5141    0.1168 H   0  0  0  0  0  0  0  0  0  0  0  0
   -0.2100    1.3994    3.2147 H   0  0  0  0  0  0  0  0  0  0  0  0
   -0.9367    2.7220    2.2279 H   0  0  0  0  0  0  0  0  0  0  0  0
    0.3673    3.1013    3.4330 H   0  0  0  0  0  0  0  0  0  0  0  0
    3.4369   -0.5316    0.8527 H   0  0  0  0  0  0  0  0  0  0  0  0
    4.9754    0.1415    0.1839 H   0  0  0  0  0  0  0  0  0  0  0  0
    3.7760   -2.6667   -0.1863 H   0  0  0  0  0  0  0  0  0  0  0  0
    5.4794   -2.2613    0.2166 H   0  0  0  0  0  0  0  0  0  0  0  0
    4.9203   -2.8269   -2.3959 H   0  0  0  0  0  0  0  0  0  0  0  0
    5.8478   -1.3336   -2.0644 H   0  0  0  0  0  0  0  0  0  0  0  0
    3.9651   -0.3656   -3.2813 H   0  0  0  0  0  0  0  0  0  0  0  0
    2.8209   -1.5829   -2.6505 H   0  0  0  0  0  0  0  0  0  0  0  0
  1  9  2  0  0  0  0
  2  8  1  0  0  0  0
  3  7  1  0  0  0  0
  3  5  1  0  0  0  0
  4 10  1  0  0  0  0
  5  2  1  0  0  0  0
  6  2  1  0  0  0  0
  6 14  1  0  0  0  0
  7  6  2  0  0  0  0
  8 16  1  0  0  0  0
  8 18  1  0  0  0  0
  9  4  1  0  0  0  0
  9  3  1  0  0  0  0
 10 20  1  0  0  0  0
 10 19  1  0  0  0  0
 11 21  1  0  0  0  0
 11 10  1  0  0  0  0
 11 22  1  0  0  0  0
 12 11  1  0  0  0  0
 13 12  1  0  0  0  0
 13  4  1  0  0  0  0
 15  7  1  0  0  0  0
 17  8  1  0  0  0  0
 23 12  1  0  0  0  0
 24 12  1  0  0  0  0
 25 13  1  0  0  0  0
 26 13  1  0  0  0  0
M  END
