8
 OpenBabel05122313113D

 44 44  0  0  0  0  0  0  0  0999 V2000
   -0.0361    2.8562   -1.5179 O   0  0  0  0  0  0  0  0  0  0  0  0
   -0.7580    4.1931    0.1752 O   0  0  0  0  0  0  0  0  0  0  0  0
    0.9357    0.9936    0.3148 N   0  0  0  0  0  0  0  0  0  0  0  0
    1.1794   -0.9220   -0.5968 N   0  0  0  0  0  0  0  0  0  0  0  0
    0.9697   -1.8436   -0.9793 H   0  0  0  0  0  0  0  0  0  0  0  0
    3.6031   -1.0793   -0.9415 N   0  0  0  0  0  0  0  0  0  0  0  0
    3.6511   -1.2025   -1.9590 H   0  0  0  0  0  0  0  0  0  0  0  0
    0.2219   -0.1129   -0.0867 C   0  0  0  0  0  2  0  0  0  0  0  0
    2.3171    0.8784    0.0429 C   0  0  0  0  0  0  0  0  0  0  0  0
    2.4702   -0.3781   -0.5281 C   0  0  0  0  0  0  0  0  0  0  0  0
    0.2403    2.1623    0.8031 C   0  0  0  0  0  0  0  0  0  0  0  0
    0.8375    2.7139    1.5499 H   0  0  0  0  0  0  0  0  0  0  0  0
   -0.6799    1.8216    1.3161 H   0  0  0  0  0  0  0  0  0  0  0  0
   -0.1799    3.0884   -0.3364 C   0  0  0  0  0  0  0  0  0  0  0  0
   -1.3266    5.0945   -0.7897 C   0  0  0  0  0  0  0  0  0  0  0  0
   -1.6695    5.9752   -0.2191 H   0  0  0  0  0  0  0  0  0  0  0  0
   -2.1806    4.6068   -1.3000 H   0  0  0  0  0  0  0  0  0  0  0  0
   -0.5724    5.3858   -1.5469 H   0  0  0  0  0  0  0  0  0  0  0  0
    3.3600    1.9343    0.4014 C   0  0  0  0  0  0  0  0  0  0  0  0
    3.0013    3.3270   -0.1786 C   0  0  0  0  0  0  0  0  0  0  0  0
    3.8794    3.9956   -0.0761 H   0  0  0  0  0  0  0  0  0  0  0  0
    2.1662    3.8256    0.3469 H   0  0  0  0  0  0  0  0  0  0  0  0
    2.7388    3.2588   -1.2516 H   0  0  0  0  0  0  0  0  0  0  0  0
    3.5054    2.0161    1.9408 C   0  0  0  0  0  0  0  0  0  0  0  0
    2.5614    2.2992    2.4474 H   0  0  0  0  0  0  0  0  0  0  0  0
    4.2678    2.7753    2.2104 H   0  0  0  0  0  0  0  0  0  0  0  0
    3.8266    1.0404    2.3557 H   0  0  0  0  0  0  0  0  0  0  0  0
    4.7379    1.5607   -0.1856 C   0  0  0  0  0  0  0  0  0  0  0  0
    5.4629    2.3543    0.0858 H   0  0  0  0  0  0  0  0  0  0  0  0
    4.7021    1.4843   -1.2892 H   0  0  0  0  0  0  0  0  0  0  0  0
    5.1103    0.5951    0.1970 H   0  0  0  0  0  0  0  0  0  0  0  0
    4.0301   -2.3157   -0.2285 C   0  0  0  0  0  0  0  0  0  0  0  0
    5.4328   -2.6457   -0.7624 C   0  0  0  0  0  0  0  0  0  0  0  0
    5.8385   -3.5547   -0.2764 H   0  0  0  0  0  0  0  0  0  0  0  0
    6.1279   -1.8032   -0.5786 H   0  0  0  0  0  0  0  0  0  0  0  0
    5.4051   -2.8356   -1.8563 H   0  0  0  0  0  0  0  0  0  0  0  0
    4.0896   -2.0300    1.2782 C   0  0  0  0  0  0  0  0  0  0  0  0
    4.8018   -1.2113    1.5014 H   0  0  0  0  0  0  0  0  0  0  0  0
    4.4197   -2.9353    1.8239 H   0  0  0  0  0  0  0  0  0  0  0  0
    3.0950   -1.7404    1.6736 H   0  0  0  0  0  0  0  0  0  0  0  0
    3.0880   -3.5142   -0.4904 C   0  0  0  0  0  0  0  0  0  0  0  0
    2.0945   -3.3756   -0.0180 H   0  0  0  0  0  0  0  0  0  0  0  0
    3.5104   -4.4485   -0.0682 H   0  0  0  0  0  0  0  0  0  0  0  0
    2.9476   -3.6762   -1.5798 H   0  0  0  0  0  0  0  0  0  0  0  0
  1 14  2  0  0  0  0
  3 11  1  0  0  0  0
  4 10  1  0  0  0  0
  4  8  1  0  0  0  0
  5  4  1  0  0  0  0
  6 10  1  0  0  0  0
  6 32  1  0  0  0  0
  7  6  1  0  0  0  0
  8  3  1  0  0  0  0
  9  3  1  0  0  0  0
  9 19  1  0  0  0  0
 10  9  2  0  0  0  0
 11 13  1  0  0  0  0
 11 12  1  0  0  0  0
 14  2  1  0  0  0  0
 14 11  1  0  0  0  0
 15 16  1  0  0  0  0
 15  2  1  0  0  0  0
 17 15  1  0  0  0  0
 18 15  1  0  0  0  0
 19 24  1  0  0  0  0
 20 21  1  0  0  0  0
 20 22  1  0  0  0  0
 20 19  1  0  0  0  0
 23 20  1  0  0  0  0
 24 26  1  0  0  0  0
 24 27  1  0  0  0  0
 24 25  1  0  0  0  0
 28 29  1  0  0  0  0
 28 31  1  0  0  0  0
 28 19  1  0  0  0  0
 30 28  1  0  0  0  0
 32 37  1  0  0  0  0
 33 35  1  0  0  0  0
 33 34  1  0  0  0  0
 33 32  1  0  0  0  0
 36 33  1  0  0  0  0
 37 38  1  0  0  0  0
 37 40  1  0  0  0  0
 37 39  1  0  0  0  0
 41 32  1  0  0  0  0
 41 43  1  0  0  0  0
 41 42  1  0  0  0  0
 44 41  1  0  0  0  0
M  END
