3
 OpenBabel05122313113D

 23 24  0  0  0  0  0  0  0  0999 V2000
    0.6058   -2.3340   -0.1643 N   0  0  0  0  0  2  0  0  0  0  0  0
    1.1147   -1.2523    0.2651 N   0  0  0  0  0  2  0  0  0  0  0  0
   -1.5723   -1.1128   -0.2903 C   0  0  0  0  0  3  0  0  0  0  0  0
   -2.9566   -1.2467   -0.5262 C   0  0  0  0  0  0  0  0  0  0  0  0
   -3.5939   -0.3480   -0.5246 H   0  0  0  0  0  0  0  0  0  0  0  0
   -3.5488   -2.4989   -0.7737 C   0  0  0  0  0  0  0  0  0  0  0  0
   -4.6329   -2.5610   -0.9601 H   0  0  0  0  0  0  0  0  0  0  0  0
   -2.7656   -3.6686   -0.7956 C   0  0  0  0  0  0  0  0  0  0  0  0
   -3.2298   -4.6466   -0.9919 H   0  0  0  0  0  0  0  0  0  0  0  0
   -1.3905   -3.5709   -0.5756 C   0  0  0  0  0  0  0  0  0  0  0  0
   -0.7354   -4.4551   -0.5975 H   0  0  0  0  0  0  0  0  0  0  0  0
   -0.7913   -2.3137   -0.3130 C   0  0  0  0  0  0  0  0  0  0  0  0
    2.5214   -1.1981    0.3509 C   0  0  0  0  0  0  0  0  0  0  0  0
    3.0689    0.0752    0.6308 C   0  0  0  0  0  0  0  0  0  0  0  0
    2.3793    0.9294    0.7418 H   0  0  0  0  0  0  0  0  0  0  0  0
    4.4582    0.2242    0.7369 C   0  0  0  0  0  0  0  0  0  0  0  0
    4.8860    1.2164    0.9463 H   0  0  0  0  0  0  0  0  0  0  0  0
    5.3015   -0.8885    0.5802 C   0  0  0  0  0  0  0  0  0  0  0  0
    6.3921   -0.7707    0.6712 H   0  0  0  0  0  0  0  0  0  0  0  0
    4.7526   -2.1575    0.3090 C   0  0  0  0  0  0  0  0  0  0  0  0
    5.4175   -3.0273    0.1914 H   0  0  0  0  0  0  0  0  0  0  0  0
    3.3696   -2.3186    0.1881 C   0  0  0  0  0  0  0  0  0  0  0  0
    2.9113   -3.2941   -0.0268 H   0  0  0  0  0  0  0  0  0  0  0  0
  1  2  1  0  0  0  0
  2 13  1  0  0  0  0
  4  5  1  0  0  0  0
  4  3  2  0  0  0  0
  6  4  1  0  0  0  0
  7  6  1  0  0  0  0
  8  6  2  0  0  0  0
  8 10  1  0  0  0  0
  9  8  1  0  0  0  0
 10 12  2  0  0  0  0
 11 10  1  0  0  0  0
 12  3  1  0  0  0  0
 12  1  1  0  0  0  0
 13 14  1  0  0  0  0
 14 16  2  0  0  0  0
 14 15  1  0  0  0  0
 16 17  1  0  0  0  0
 18 19  1  0  0  0  0
 18 16  1  0  0  0  0
 20 18  2  0  0  0  0
 21 20  1  0  0  0  0
 22 20  1  0  0  0  0
 22 13  2  0  0  0  0
 23 22  1  0  0  0  0
M  END
