7
 OpenBabel05122313113D

 17 18  0  0  0  0  0  0  0  0999 V2000
   -4.6363    0.3950   -0.1323 S   0  0  0  0  0  0  0  0  0  0  0  0
   -3.2393    2.7038    0.8376 N   0  0  0  0  0  0  0  0  0  0  0  0
   -4.5233   -1.1837   -0.8260 C   0  0  0  0  0  0  0  0  0  0  0  0
   -5.4321   -1.7022   -1.1592 H   0  0  0  0  0  0  0  0  0  0  0  0
   -3.2156   -1.6408   -0.8839 C   0  0  0  0  0  0  0  0  0  0  0  0
   -2.9426   -2.6191   -1.3061 H   0  0  0  0  0  0  0  0  0  0  0  0
   -2.2609   -0.7094   -0.3523 C   0  0  0  0  0  3  0  0  0  0  0  0
   -2.8873    0.4541    0.1026 C   0  0  0  0  0  0  0  0  0  0  0  0
   -2.3487    1.6936    0.6673 C   0  0  0  0  0  0  0  0  0  0  0  0
   -0.9870    1.8405    1.0265 C   0  0  0  0  0  0  0  0  0  0  0  0
   -0.2744    1.0070    0.9122 H   0  0  0  0  0  0  0  0  0  0  0  0
   -0.5484    3.0550    1.5640 C   0  0  0  0  0  0  0  0  0  0  0  0
    0.5061    3.1580    1.8665 H   0  0  0  0  0  0  0  0  0  0  0  0
   -1.4720    4.1002    1.7271 C   0  0  0  0  0  0  0  0  0  0  0  0
   -1.1752    5.0728    2.1467 H   0  0  0  0  0  0  0  0  0  0  0  0
   -2.8049    3.8614    1.3480 C   0  0  0  0  0  0  0  0  0  0  0  0
   -3.5658    4.6544    1.4678 H   0  0  0  0  0  0  0  0  0  0  0  0
  1  8  1  0  0  0  0
  2 16  1  0  0  0  0
  3  1  1  0  0  0  0
  4  3  1  0  0  0  0
  5  3  2  0  0  0  0
  5  7  1  0  0  0  0
  6  5  1  0  0  0  0
  7  8  2  0  0  0  0
  8  9  1  0  0  0  0
  9  2  2  0  0  0  0
  9 10  1  0  0  0  0
 10 12  2  0  0  0  0
 11 10  1  0  0  0  0
 12 14  1  0  0  0  0
 12 13  1  0  0  0  0
 14 15  1  0  0  0  0
 16 17  1  0  0  0  0
 16 14  2  0  0  0  0
M  END
