3
 OpenBabel05122313113D

 40 41  0  0  0  0  0  0  0  0999 V2000
   -0.1400    0.4208    2.7832 N   0  0  0  0  0  0  0  0  0  0  0  0
    1.1330    0.2769    1.0360 N   0  0  0  0  0  0  0  0  0  0  0  0
   -0.1616    0.1481    1.4448 C   0  0  0  0  0  2  0  0  0  0  0  0
   -1.3088    0.3543    3.6443 C   0  0  0  0  0  0  0  0  0  0  0  0
   -1.3213    1.2200    4.3344 H   0  0  0  0  0  0  0  0  0  0  0  0
   -1.3113   -0.5876    4.2287 H   0  0  0  0  0  0  0  0  0  0  0  0
   -2.2068    0.3779    2.9989 H   0  0  0  0  0  0  0  0  0  0  0  0
    1.1546    0.7029    3.2064 C   0  0  0  0  0  0  0  0  0  0  0  0
    1.3920    0.9363    4.2482 H   0  0  0  0  0  0  0  0  0  0  0  0
    1.9593    0.6137    2.0992 C   0  0  0  0  0  0  0  0  0  0  0  0
    3.0356    0.7551    1.9700 H   0  0  0  0  0  0  0  0  0  0  0  0
    1.5514    0.0478   -0.3608 C   0  0  0  0  0  0  0  0  0  0  0  0
    1.0238    0.7889   -0.9902 H   0  0  0  0  0  0  0  0  0  0  0  0
    1.1453   -0.9415   -0.6479 H   0  0  0  0  0  0  0  0  0  0  0  0
    3.0483    0.1235   -0.5413 C   0  0  0  0  0  0  0  0  0  0  0  0
    3.6533    1.3626   -0.8813 C   0  0  0  0  0  0  0  0  0  0  0  0
    5.0466    1.4069   -1.1225 C   0  0  0  0  0  0  0  0  0  0  0  0
    5.8409    0.2375   -0.9647 C   0  0  0  0  0  0  0  0  0  0  0  0
    5.2384   -0.9834   -0.5733 C   0  0  0  0  0  0  0  0  0  0  0  0
    3.8336   -1.0397   -0.3580 C   0  0  0  0  0  0  0  0  0  0  0  0
    2.8222    2.6262   -0.9775 C   0  0  0  0  0  0  0  0  0  0  0  0
    2.5993    2.9012   -2.0313 H   0  0  0  0  0  0  0  0  0  0  0  0
    3.3480    3.4901   -0.5267 H   0  0  0  0  0  0  0  0  0  0  0  0
    1.8534    2.5401   -0.4532 H   0  0  0  0  0  0  0  0  0  0  0  0
    5.7241    2.6846   -1.5609 C   0  0  0  0  0  0  0  0  0  0  0  0
    6.3016    2.5313   -2.4962 H   0  0  0  0  0  0  0  0  0  0  0  0
    6.4569    3.0442   -0.8063 H   0  0  0  0  0  0  0  0  0  0  0  0
    5.0125    3.5061   -1.7498 H   0  0  0  0  0  0  0  0  0  0  0  0
    7.3245    0.3642   -1.2218 C   0  0  0  0  0  0  0  0  0  0  0  0
    7.5276    0.6504   -2.2758 H   0  0  0  0  0  0  0  0  0  0  0  0
    7.8863   -0.5633   -1.0214 H   0  0  0  0  0  0  0  0  0  0  0  0
    7.7749    1.1633   -0.5965 H   0  0  0  0  0  0  0  0  0  0  0  0
    6.0266   -2.2571   -0.3773 C   0  0  0  0  0  0  0  0  0  0  0  0
    5.9385   -2.6295    0.6653 H   0  0  0  0  0  0  0  0  0  0  0  0
    7.1019   -2.1492   -0.5977 H   0  0  0  0  0  0  0  0  0  0  0  0
    5.6381   -3.0717   -1.0236 H   0  0  0  0  0  0  0  0  0  0  0  0
    3.2217   -2.3493    0.0816 C   0  0  0  0  0  0  0  0  0  0  0  0
    2.1351   -2.3038    0.2784 H   0  0  0  0  0  0  0  0  0  0  0  0
    3.7054   -2.7162    1.0112 H   0  0  0  0  0  0  0  0  0  0  0  0
    3.3822   -3.1446   -0.6770 H   0  0  0  0  0  0  0  0  0  0  0  0
  1  8  1  0  0  0  0
  1  4  1  0  0  0  0
  2  3  1  0  0  0  0
  2 10  1  0  0  0  0
  3  1  1  0  0  0  0
  4  6  1  0  0  0  0
  4  5  1  0  0  0  0
  7  4  1  0  0  0  0
  8  9  1  0  0  0  0
 10  8  2  0  0  0  0
 11 10  1  0  0  0  0
 12  2  1  0  0  0  0
 13 12  1  0  0  0  0
 14 12  1  0  0  0  0
 15 12  1  0  0  0  0
 15 20  1  0  0  0  0
 16 15  2  0  0  0  0
 17 18  2  0  0  0  0
 17 16  1  0  0  0  0
 18 19  1  0  0  0  0
 19 33  1  0  0  0  0
 19 20  2  0  0  0  0
 20 37  1  0  0  0  0
 21 16  1  0  0  0  0
 21 23  1  0  0  0  0
 21 24  1  0  0  0  0
 22 21  1  0  0  0  0
 25 17  1  0  0  0  0
 25 27  1  0  0  0  0
 26 25  1  0  0  0  0
 28 25  1  0  0  0  0
 29 31  1  0  0  0  0
 29 18  1  0  0  0  0
 29 32  1  0  0  0  0
 30 29  1  0  0  0  0
 33 34  1  0  0  0  0
 35 33  1  0  0  0  0
 36 33  1  0  0  0  0
 37 38  1  0  0  0  0
 37 39  1  0  0  0  0
 40 37  1  0  0  0  0
M  END
