5
 OpenBabel05122313113D

 39 42  0  0  0  0  0  0  0  0999 V2000
   -0.8902    0.6779    0.6308 N   0  0  0  0  0  0  0  0  0  0  0  0
    0.8903    0.6777   -0.6307 N   0  0  0  0  0  0  0  0  0  0  0  0
    4.0655    1.4267   -0.8196 N   0  0  0  0  0  0  0  0  0  0  0  0
   -4.0652    1.4275    0.8193 N   0  0  0  0  0  0  0  0  0  0  0  0
   -0.0000   -0.1467    0.0000 C   0  0  0  0  0  2  0  0  0  0  0  0
    0.5867    2.0205   -0.3957 C   0  0  0  0  0  0  0  0  0  0  0  0
   -0.5863    2.0206    0.3959 C   0  0  0  0  0  0  0  0  0  0  0  0
   -1.2105    3.2137    0.7893 C   0  0  0  0  0  0  0  0  0  0  0  0
   -2.1546    3.1981    1.3517 H   0  0  0  0  0  0  0  0  0  0  0  0
   -0.5946    4.4062    0.3826 C   0  0  0  0  0  0  0  0  0  0  0  0
   -1.0497    5.3667    0.6662 H   0  0  0  0  0  0  0  0  0  0  0  0
    0.5955    4.4061   -0.3824 C   0  0  0  0  0  0  0  0  0  0  0  0
    1.0509    5.3665   -0.6660 H   0  0  0  0  0  0  0  0  0  0  0  0
    1.2112    3.2135   -0.7891 C   0  0  0  0  0  0  0  0  0  0  0  0
    2.1553    3.1977   -1.3515 H   0  0  0  0  0  0  0  0  0  0  0  0
    2.0400    0.2061   -1.4014 C   0  0  0  0  0  0  0  0  0  0  0  0
    2.1208    0.8152   -2.3223 H   0  0  0  0  0  0  0  0  0  0  0  0
    1.8249   -0.8444   -1.6767 H   0  0  0  0  0  0  0  0  0  0  0  0
    3.3368    0.3124   -0.6214 C   0  0  0  0  0  0  0  0  0  0  0  0
    3.7140   -0.7002    0.2817 C   0  0  0  0  0  0  0  0  0  0  0  0
    3.0813   -1.5931    0.4090 H   0  0  0  0  0  0  0  0  0  0  0  0
    4.9020   -0.5411    1.0069 C   0  0  0  0  0  0  0  0  0  0  0  0
    5.2288   -1.3147    1.7181 H   0  0  0  0  0  0  0  0  0  0  0  0
    5.6649    0.6184    0.8044 C   0  0  0  0  0  0  0  0  0  0  0  0
    6.6054    0.7858    1.3499 H   0  0  0  0  0  0  0  0  0  0  0  0
    5.2018    1.5691   -0.1190 C   0  0  0  0  0  0  0  0  0  0  0  0
    5.7777    2.4930   -0.3043 H   0  0  0  0  0  0  0  0  0  0  0  0
   -2.0400    0.2065    1.4014 C   0  0  0  0  0  0  0  0  0  0  0  0
   -2.1207    0.8156    2.3222 H   0  0  0  0  0  0  0  0  0  0  0  0
   -1.8250   -0.8440    1.6768 H   0  0  0  0  0  0  0  0  0  0  0  0
   -3.3367    0.3129    0.6213 C   0  0  0  0  0  0  0  0  0  0  0  0
   -3.7141   -0.6998   -0.2815 C   0  0  0  0  0  0  0  0  0  0  0  0
   -3.0816   -1.5929   -0.4086 H   0  0  0  0  0  0  0  0  0  0  0  0
   -4.9021   -0.5405   -1.0068 C   0  0  0  0  0  0  0  0  0  0  0  0
   -5.2290   -1.3143   -1.7179 H   0  0  0  0  0  0  0  0  0  0  0  0
   -5.6647    0.6191   -0.8046 C   0  0  0  0  0  0  0  0  0  0  0  0
   -6.6052    0.7867   -1.3502 H   0  0  0  0  0  0  0  0  0  0  0  0
   -5.2014    1.5700    0.1186 C   0  0  0  0  0  0  0  0  0  0  0  0
   -5.7771    2.4941    0.3036 H   0  0  0  0  0  0  0  0  0  0  0  0
  1 28  1  0  0  0  0
  2  6  1  0  0  0  0
  2  5  1  0  0  0  0
  3 19  2  0  0  0  0
  3 26  1  0  0  0  0
  5  1  1  0  0  0  0
  6  7  1  0  0  0  0
  7  1  1  0  0  0  0
  7  8  2  0  0  0  0
  8  9  1  0  0  0  0
 10 11  1  0  0  0  0
 10  8  1  0  0  0  0
 12 10  2  0  0  0  0
 13 12  1  0  0  0  0
 14  6  2  0  0  0  0
 14 12  1  0  0  0  0
 15 14  1  0  0  0  0
 16  2  1  0  0  0  0
 16 19  1  0  0  0  0
 17 16  1  0  0  0  0
 18 16  1  0  0  0  0
 19 20  1  0  0  0  0
 20 21  1  0  0  0  0
 20 22  2  0  0  0  0
 22 23  1  0  0  0  0
 24 22  1  0  0  0  0
 24 25  1  0  0  0  0
 26 24  2  0  0  0  0
 27 26  1  0  0  0  0
 28 30  1  0  0  0  0
 28 29  1  0  0  0  0
 31  4  1  0  0  0  0
 31 28  1  0  0  0  0
 32 31  2  0  0  0  0
 33 32  1  0  0  0  0
 34 36  2  0  0  0  0
 34 32  1  0  0  0  0
 35 34  1  0  0  0  0
 36 38  1  0  0  0  0
 37 36  1  0  0  0  0
 38 39  1  0  0  0  0
 38  4  2  0  0  0  0
M  END
