1
 OpenBabel05122313113D

 47 49  0  0  0  0  0  0  0  0999 V2000
    0.0470   -1.1030   -0.4119 C   0  0  0  0  0  2  0  0  0  0  0  0
   -1.1246   -1.7831   -0.5010 N   0  0  0  0  0  0  0  0  0  0  0  0
   -1.2221   -3.2050   -0.8657 C   0  0  0  0  0  0  0  0  0  0  0  0
   -2.1438   -3.3363   -1.4684 H   0  0  0  0  0  0  0  0  0  0  0  0
   -1.3427   -3.8278    0.0503 H   0  0  0  0  0  0  0  0  0  0  0  0
    0.0129   -3.6275   -1.6466 C   0  0  0  0  0  0  0  0  0  0  0  0
   -0.0078   -4.7175   -1.8415 H   0  0  0  0  0  0  0  0  0  0  0  0
    0.0320   -3.0981   -2.6220 H   0  0  0  0  0  0  0  0  0  0  0  0
    1.2521   -3.2473   -0.8492 C   0  0  0  0  0  0  0  0  0  0  0  0
    1.3289   -3.8418    0.0900 H   0  0  0  0  0  0  0  0  0  0  0  0
    2.1768   -3.4271   -1.4330 H   0  0  0  0  0  0  0  0  0  0  0  0
    1.1964   -1.8142   -0.5317 N   0  0  0  0  0  0  0  0  0  0  0  0
    2.4460   -1.1692   -0.2504 C   0  0  0  0  0  0  0  0  0  0  0  0
    2.9310   -1.2080    1.0831 C   0  0  0  0  0  0  0  0  0  0  0  0
    2.1237   -1.8285    1.9934 O   0  0  0  0  0  0  0  0  0  0  0  0
    2.5303   -1.8442    3.3502 C   0  0  0  0  0  0  0  0  0  0  0  0
    3.4942   -2.3831    3.4866 H   0  0  0  0  0  0  0  0  0  0  0  0
    1.7360   -2.3751    3.9067 H   0  0  0  0  0  0  0  0  0  0  0  0
    2.6316   -0.8143    3.7594 H   0  0  0  0  0  0  0  0  0  0  0  0
    4.1677   -0.6092    1.3874 C   0  0  0  0  0  0  0  0  0  0  0  0
    4.5530   -0.6118    2.4156 H   0  0  0  0  0  0  0  0  0  0  0  0
    4.9198   -0.0061    0.3647 C   0  0  0  0  0  0  0  0  0  0  0  0
    5.8857    0.4584    0.6152 H   0  0  0  0  0  0  0  0  0  0  0  0
    4.4541    0.0061   -0.9580 C   0  0  0  0  0  0  0  0  0  0  0  0
    5.0454    0.4836   -1.7527 H   0  0  0  0  0  0  0  0  0  0  0  0
    3.2151   -0.5787   -1.2623 C   0  0  0  0  0  0  0  0  0  0  0  0
    2.7898   -0.5426   -2.2756 H   0  0  0  0  0  0  0  0  0  0  0  0
   -2.3504   -1.1701   -0.0552 C   0  0  0  0  0  0  0  0  0  0  0  0
   -3.2432   -0.5901   -0.9860 C   0  0  0  0  0  0  0  0  0  0  0  0
   -4.4247   -0.0098   -0.4871 C   0  0  0  0  0  0  0  0  0  0  0  0
   -5.1201    0.4594   -1.2019 H   0  0  0  0  0  0  0  0  0  0  0  0
   -4.7434   -0.0108    0.8831 C   0  0  0  0  0  0  0  0  0  0  0  0
   -3.8538   -0.6425    1.7711 C   0  0  0  0  0  0  0  0  0  0  0  0
   -4.0914   -0.6702    2.8470 H   0  0  0  0  0  0  0  0  0  0  0  0
   -2.6581   -1.2336    1.3255 C   0  0  0  0  0  0  0  0  0  0  0  0
   -1.7243   -1.9103    2.3005 C   0  0  0  0  0  0  0  0  0  0  0  0
   -1.7898   -3.0170    2.2219 H   0  0  0  0  0  0  0  0  0  0  0  0
   -1.9801   -1.6409    3.3430 H   0  0  0  0  0  0  0  0  0  0  0  0
   -0.6641   -1.6414    2.1180 H   0  0  0  0  0  0  0  0  0  0  0  0
   -5.9903    0.6703    1.3889 C   0  0  0  0  0  0  0  0  0  0  0  0
   -6.3661    0.2003    2.3192 H   0  0  0  0  0  0  0  0  0  0  0  0
   -6.8028    0.6486    0.6361 H   0  0  0  0  0  0  0  0  0  0  0  0
   -5.7902    1.7389    1.6208 H   0  0  0  0  0  0  0  0  0  0  0  0
   -2.9493   -0.5988   -2.4598 C   0  0  0  0  0  0  0  0  0  0  0  0
   -2.8926   -1.6359   -2.8549 H   0  0  0  0  0  0  0  0  0  0  0  0
   -1.9671   -0.1275   -2.6831 H   0  0  0  0  0  0  0  0  0  0  0  0
   -3.7403   -0.0697   -3.0242 H   0  0  0  0  0  0  0  0  0  0  0  0
  2  1  1  0  0  0  0
  2 28  1  0  0  0  0
  3  2  1  0  0  0  0
  3  5  1  0  0  0  0
  4  3  1  0  0  0  0
  6  3  1  0  0  0  0
  6  9  1  0  0  0  0
  7  6  1  0  0  0  0
  8  6  1  0  0  0  0
  9 12  1  0  0  0  0
  9 10  1  0  0  0  0
 11  9  1  0  0  0  0
 12  1  1  0  0  0  0
 12 13  1  0  0  0  0
 13 14  1  0  0  0  0
 14 20  2  0  0  0  0
 14 15  1  0  0  0  0
 15 16  1  0  0  0  0
 16 17  1  0  0  0  0
 16 19  1  0  0  0  0
 16 18  1  0  0  0  0
 20 21  1  0  0  0  0
 22 23  1  0  0  0  0
 22 20  1  0  0  0  0
 24 22  2  0  0  0  0
 25 24  1  0  0  0  0
 26 24  1  0  0  0  0
 26 13  2  0  0  0  0
 27 26  1  0  0  0  0
 28 35  1  0  0  0  0
 29 30  1  0  0  0  0
 29 28  2  0  0  0  0
 30 32  2  0  0  0  0
 31 30  1  0  0  0  0
 32 40  1  0  0  0  0
 32 33  1  0  0  0  0
 33 34  1  0  0  0  0
 35 33  2  0  0  0  0
 35 36  1  0  0  0  0
 36 38  1  0  0  0  0
 37 36  1  0  0  0  0
 39 36  1  0  0  0  0
 40 43  1  0  0  0  0
 40 41  1  0  0  0  0
 42 40  1  0  0  0  0
 44 29  1  0  0  0  0
 45 44  1  0  0  0  0
 46 44  1  0  0  0  0
 47 44  1  0  0  0  0
M  END
