3
 OpenBabel05122313113D

 17 18  0  0  0  0  0  0  0  0999 V2000
   -2.0754    0.4250    1.3633 S   0  0  0  0  0  0  0  0  0  0  0  0
   -6.1421   -1.1540    1.0350 S   0  0  0  0  0  0  0  0  0  0  0  0
    1.5485   -0.5435    1.6737 C   0  0  0  0  0  3  0  0  0  0  0  0
    0.3555   -0.6505    2.0317 C   0  0  0  0  0  0  0  0  0  0  0  0
   -1.0358   -0.7733    2.1586 C   0  0  0  0  0  0  0  0  0  0  0  0
   -1.8320   -1.7885    2.7016 C   0  0  0  0  0  0  0  0  0  0  0  0
   -3.2188   -1.6240    2.4564 C   0  0  0  0  0  0  0  0  0  0  0  0
   -3.5335   -0.4763    1.7268 C   0  0  0  0  0  0  0  0  0  0  0  0
   -4.8094   -0.0258    1.2184 C   0  0  0  0  0  0  0  0  0  0  0  0
   -5.1835    1.2371    0.7579 C   0  0  0  0  0  0  0  0  0  0  0  0
   -6.5263    1.2894    0.2836 C   0  0  0  0  0  0  0  0  0  0  0  0
   -7.1760    0.0728    0.3769 C   0  0  0  0  0  0  0  0  0  0  0  0
   -1.3920   -2.6377    3.2401 H   0  0  0  0  0  0  0  0  0  0  0  0
   -3.9903   -2.3270    2.8022 H   0  0  0  0  0  0  0  0  0  0  0  0
   -4.5049    2.1012    0.7942 H   0  0  0  0  0  0  0  0  0  0  0  0
   -7.0061    2.1985   -0.1043 H   0  0  0  0  0  0  0  0  0  0  0  0
   -8.2089   -0.1738    0.1035 H   0  0  0  0  0  0  0  0  0  0  0  0
  1  8  1  0  0  0  0
  1  5  1  0  0  0  0
  2  9  1  0  0  0  0
  3  4  3  0  0  0  0
  4  5  1  0  0  0  0
  5  6  2  0  0  0  0
  6 13  1  0  0  0  0
  7  6  1  0  0  0  0
  7 14  1  0  0  0  0
  8  7  2  0  0  0  0
  9  8  1  0  0  0  0
 10 15  1  0  0  0  0
 10  9  2  0  0  0  0
 11 12  2  0  0  0  0
 11 10  1  0  0  0  0
 12  2  1  0  0  0  0
 16 11  1  0  0  0  0
 17 12  1  0  0  0  0
M  END
