4
 OpenBabel05122313113D

 43 44  0  0  0  0  0  0  0  0999 V2000
   -0.6591    4.9565   -0.4803 O   0  0  0  0  0  0  0  0  0  0  0  0
   -0.3212    2.0902    0.5984 N   0  0  0  0  0  0  0  0  0  0  0  0
    1.2677    0.5800    0.5029 N   0  0  0  0  0  0  0  0  0  0  0  0
   -0.0549    0.7960    0.2521 C   0  0  0  0  0  2  0  0  0  0  0  0
    1.8920    1.6971    1.2213 C   0  0  0  0  0  0  0  0  0  0  0  0
    2.9009    1.9147    0.8214 H   0  0  0  0  0  0  0  0  0  0  0  0
    2.0081    1.4322    2.3003 H   0  0  0  0  0  0  0  0  0  0  0  0
    0.8901    2.8256    0.9937 C   0  0  0  0  0  0  0  0  0  0  0  0
    0.6958    3.4364    1.8994 H   0  0  0  0  0  0  0  0  0  0  0  0
    1.1932    3.5227    0.1851 H   0  0  0  0  0  0  0  0  0  0  0  0
   -1.5626    2.8151    0.4126 C   0  0  0  0  0  0  0  0  0  0  0  0
   -1.8371    3.3026    1.3759 H   0  0  0  0  0  0  0  0  0  0  0  0
   -2.3405    2.0763    0.1550 H   0  0  0  0  0  0  0  0  0  0  0  0
   -1.5171    3.8489   -0.7192 C   0  0  0  0  0  0  0  0  0  0  0  0
   -1.1579    3.3428   -1.6363 H   0  0  0  0  0  0  0  0  0  0  0  0
   -2.5608    4.1967   -0.9165 H   0  0  0  0  0  0  0  0  0  0  0  0
   -1.1944    5.9256    0.3877 C   0  0  0  0  0  0  0  0  0  0  0  0
   -0.4727    6.7644    0.4408 H   0  0  0  0  0  0  0  0  0  0  0  0
   -1.3591    5.5473    1.4266 H   0  0  0  0  0  0  0  0  0  0  0  0
   -2.1713    6.3216    0.0161 H   0  0  0  0  0  0  0  0  0  0  0  0
    1.9872   -0.6855    0.4030 C   0  0  0  0  0  0  0  0  0  0  0  0
    1.4813   -1.2777   -0.3884 H   0  0  0  0  0  0  0  0  0  0  0  0
    1.8800   -1.2378    1.3571 H   0  0  0  0  0  0  0  0  0  0  0  0
    3.4572   -0.5061    0.0812 C   0  0  0  0  0  0  0  0  0  0  0  0
    4.4448   -0.9860    0.9796 C   0  0  0  0  0  0  0  0  0  0  0  0
    5.8067   -0.8262    0.6588 C   0  0  0  0  0  0  0  0  0  0  0  0
    6.5662   -1.2052    1.3622 H   0  0  0  0  0  0  0  0  0  0  0  0
    6.2232   -0.1989   -0.5263 C   0  0  0  0  0  0  0  0  0  0  0  0
    5.2280    0.2747   -1.3997 C   0  0  0  0  0  0  0  0  0  0  0  0
    5.5270    0.7693   -2.3388 H   0  0  0  0  0  0  0  0  0  0  0  0
    3.8558    0.1334   -1.1257 C   0  0  0  0  0  0  0  0  0  0  0  0
    4.0810   -1.6737    2.2779 C   0  0  0  0  0  0  0  0  0  0  0  0
    4.9916   -1.9397    2.8483 H   0  0  0  0  0  0  0  0  0  0  0  0
    3.5113   -2.6122    2.1107 H   0  0  0  0  0  0  0  0  0  0  0  0
    3.4540   -1.0326    2.9330 H   0  0  0  0  0  0  0  0  0  0  0  0
    7.6851   -0.0576   -0.8696 C   0  0  0  0  0  0  0  0  0  0  0  0
    7.9186    0.9589   -1.2468 H   0  0  0  0  0  0  0  0  0  0  0  0
    7.9785   -0.7707   -1.6697 H   0  0  0  0  0  0  0  0  0  0  0  0
    8.3331   -0.2571    0.0061 H   0  0  0  0  0  0  0  0  0  0  0  0
    2.8474    0.6714   -2.1102 C   0  0  0  0  0  0  0  0  0  0  0  0
    2.3657    1.6006   -1.7375 H   0  0  0  0  0  0  0  0  0  0  0  0
    2.0173   -0.0400   -2.2985 H   0  0  0  0  0  0  0  0  0  0  0  0
    3.3325    0.9151   -3.0749 H   0  0  0  0  0  0  0  0  0  0  0  0
  1 17  1  0  0  0  0
  2  8  1  0  0  0  0
  3  5  1  0  0  0  0
  4  3  1  0  0  0  0
  4  2  1  0  0  0  0
  5  7  1  0  0  0  0
  6  5  1  0  0  0  0
  8  5  1  0  0  0  0
  8  9  1  0  0  0  0
 10  8  1  0  0  0  0
 11  2  1  0  0  0  0
 11 12  1  0  0  0  0
 13 11  1  0  0  0  0
 14  1  1  0  0  0  0
 14 11  1  0  0  0  0
 15 14  1  0  0  0  0
 16 14  1  0  0  0  0
 17 18  1  0  0  0  0
 17 19  1  0  0  0  0
 20 17  1  0  0  0  0
 21  3  1  0  0  0  0
 21 23  1  0  0  0  0
 22 21  1  0  0  0  0
 24 21  1  0  0  0  0
 24 25  1  0  0  0  0
 25 32  1  0  0  0  0
 26 25  2  0  0  0  0
 26 27  1  0  0  0  0
 28 26  1  0  0  0  0
 29 31  1  0  0  0  0
 29 28  2  0  0  0  0
 30 29  1  0  0  0  0
 31 24  2  0  0  0  0
 32 33  1  0  0  0  0
 32 35  1  0  0  0  0
 34 32  1  0  0  0  0
 36 28  1  0  0  0  0
 36 39  1  0  0  0  0
 37 36  1  0  0  0  0
 38 36  1  0  0  0  0
 40 41  1  0  0  0  0
 40 31  1  0  0  0  0
 42 40  1  0  0  0  0
 43 40  1  0  0  0  0
M  END
