1
 OpenBabel05122313113D

 39 41  0  0  1  0  0  0  0  0999 V2000
    2.2694   -0.4446   -0.4386 C   0  0  0  0  0  3  0  0  0  0  0  0
    3.4046   -0.8563   -0.4880 O   0  0  0  0  0  0  0  0  0  0  0  0
   -0.4434    0.0636    0.1636 P   0  0  0  0  0  0  0  0  0  0  0  0
   -0.0218   -0.9811   -1.2673 N   0  0  0  0  0  0  0  0  0  0  0  0
    1.3221   -1.1457   -1.4290 N   0  0  0  0  0  0  0  0  0  0  0  0
    1.5569   -2.0614   -2.4084 C   0  0  1  0  0  3  0  0  0  0  0  0
    0.2980   -2.4862   -2.8748 C   0  0  0  0  0  0  0  0  0  0  0  0
    0.1160   -3.2179   -3.6697 H   0  0  0  0  0  0  0  0  0  0  0  0
   -0.6824   -1.8123   -2.1283 C   0  0  0  0  0  0  0  0  0  0  0  0
    2.9181   -2.4764   -2.8434 C   0  0  0  0  0  0  0  0  0  0  0  0
    3.5290   -1.6016   -3.1405 H   0  0  0  0  0  0  0  0  0  0  0  0
    2.8401   -3.1731   -3.6972 H   0  0  0  0  0  0  0  0  0  0  0  0
    3.4651   -2.9671   -2.0148 H   0  0  0  0  0  0  0  0  0  0  0  0
   -2.1639   -1.9516   -2.1651 C   0  0  0  0  0  0  0  0  0  0  0  0
   -2.6712   -0.9695   -2.2294 H   0  0  0  0  0  0  0  0  0  0  0  0
   -2.5301   -2.4534   -1.2454 H   0  0  0  0  0  0  0  0  0  0  0  0
   -2.4613   -2.5641   -3.0348 H   0  0  0  0  0  0  0  0  0  0  0  0
   -1.2646   -1.1734    1.2322 C   0  0  0  0  0  0  0  0  0  0  0  0
   -2.6651   -1.3419    1.2860 C   0  0  0  0  0  0  0  0  0  0  0  0
   -3.3288   -0.6841    0.7069 H   0  0  0  0  0  0  0  0  0  0  0  0
   -3.2140   -2.3582    2.0828 C   0  0  0  0  0  0  0  0  0  0  0  0
   -4.3062   -2.4824    2.1283 H   0  0  0  0  0  0  0  0  0  0  0  0
   -2.3764   -3.2133    2.8163 C   0  0  0  0  0  0  0  0  0  0  0  0
   -2.8127   -4.0079    3.4397 H   0  0  0  0  0  0  0  0  0  0  0  0
   -0.9814   -3.0560    2.7548 C   0  0  0  0  0  0  0  0  0  0  0  0
   -0.3234   -3.7284    3.3250 H   0  0  0  0  0  0  0  0  0  0  0  0
   -0.4255   -2.0375    1.9702 C   0  0  0  0  0  0  0  0  0  0  0  0
    0.6666   -1.9114    1.9191 H   0  0  0  0  0  0  0  0  0  0  0  0
   -1.7444    1.1536   -0.4955 C   0  0  0  0  0  0  0  0  0  0  0  0
   -1.7900    1.5113   -1.8592 C   0  0  0  0  0  0  0  0  0  0  0  0
   -1.1014    1.0493   -2.5820 H   0  0  0  0  0  0  0  0  0  0  0  0
   -2.7097    2.4745   -2.2981 C   0  0  0  0  0  0  0  0  0  0  0  0
   -2.7455    2.7445   -3.3638 H   0  0  0  0  0  0  0  0  0  0  0  0
   -3.5723    3.0982   -1.3828 C   0  0  0  0  0  0  0  0  0  0  0  0
   -4.2906    3.8549   -1.7316 H   0  0  0  0  0  0  0  0  0  0  0  0
   -3.5101    2.7645   -0.0203 C   0  0  0  0  0  0  0  0  0  0  0  0
   -4.1762    3.2597    0.7016 H   0  0  0  0  0  0  0  0  0  0  0  0
   -2.5967    1.7999    0.4278 C   0  0  0  0  0  0  0  0  0  0  0  0
   -2.5485    1.5551    1.5003 H   0  0  0  0  0  0  0  0  0  0  0  0
  2  1  2  0  0  0  0
  3 18  1  0  0  0  0
  4  3  1  0  0  0  0
  5  4  1  0  0  0  0
  5  1  1  0  0  0  0
  6 10  1  6  0  0  0
  6  5  1  0  0  0  0
  7  6  1  0  0  0  0
  7  9  2  0  0  0  0
  8  7  1  0  0  0  0
  9  4  1  0  0  0  0
 10 13  1  0  0  0  0
 11 10  1  0  0  0  0
 12 10  1  0  0  0  0
 14  9  1  0  0  0  0
 14 16  1  0  0  0  0
 15 14  1  0  0  0  0
 17 14  1  0  0  0  0
 18 19  2  0  0  0  0
 18 27  1  0  0  0  0
 19 21  1  0  0  0  0
 20 19  1  0  0  0  0
 21 22  1  0  0  0  0
 21 23  2  0  0  0  0
 23 24  1  0  0  0  0
 25 23  1  0  0  0  0
 25 26  1  0  0  0  0
 27 25  2  0  0  0  0
 28 27  1  0  0  0  0
 29  3  1  0  0  0  0
 29 38  1  0  0  0  0
 30 29  2  0  0  0  0
 31 30  1  0  0  0  0
 32 30  1  0  0  0  0
 32 34  2  0  0  0  0
 33 32  1  0  0  0  0
 34 36  1  0  0  0  0
 35 34  1  0  0  0  0
 36 38  2  0  0  0  0
 36 37  1  0  0  0  0
 38 39  1  0  0  0  0
M  END
