9
 OpenBabel05122313113D

 56 58  0  0  1  0  0  0  0  0999 V2000
    1.8074   -1.3695   -0.3152 C   0  0  0  0  0  0  0  0  0  0  0  0
    1.1980   -1.6973    0.9635 C   0  0  2  0  0  3  0  0  0  0  0  0
    0.3291   -2.8123    0.7359 C   0  0  0  0  0  0  0  0  0  0  0  0
   -0.3300   -3.2762    1.4814 H   0  0  0  0  0  0  0  0  0  0  0  0
    0.4177   -3.2066   -0.6336 C   0  0  0  0  0  0  0  0  0  0  0  0
   -0.1511   -4.0143   -1.1090 H   0  0  0  0  0  0  0  0  0  0  0  0
    1.3263   -2.3331   -1.2706 C   0  0  0  0  0  0  0  0  0  0  0  0
    1.5918   -2.3581   -2.3345 H   0  0  0  0  0  0  0  0  0  0  0  0
   -0.0841    1.4137    0.3828 C   0  0  1  0  0  3  0  0  0  0  0  0
   -0.3411    0.5547    1.5250 C   0  0  1  0  0  3  0  0  0  0  0  0
   -1.7423    0.2503    1.5058 C   0  0  0  0  0  3  0  0  0  0  0  0
   -2.2556   -0.4170    2.2096 H   0  0  0  0  0  0  0  0  0  0  0  0
   -2.3802    0.9447    0.4261 C   0  0  0  0  0  0  0  0  0  0  0  0
   -1.3481    1.6352   -0.2627 C   0  0  0  0  0  0  0  0  0  0  0  0
   -1.4918    2.2509   -1.1591 H   0  0  0  0  0  0  0  0  0  0  0  0
   -3.8740    1.0989    0.1602 C   0  0  0  0  0  0  0  0  0  0  0  0
   -4.1969    0.9012   -1.3350 C   0  0  0  0  0  0  0  0  0  0  0  0
   -5.2723    1.1004   -1.5198 H   0  0  0  0  0  0  0  0  0  0  0  0
   -3.9720   -0.1341   -1.6543 H   0  0  0  0  0  0  0  0  0  0  0  0
   -3.6126    1.5922   -1.9751 H   0  0  0  0  0  0  0  0  0  0  0  0
   -4.6979    0.1158    1.0099 C   0  0  0  0  0  0  0  0  0  0  0  0
   -5.7784    0.2501    0.8007 H   0  0  0  0  0  0  0  0  0  0  0  0
   -4.5454    0.2928    2.0943 H   0  0  0  0  0  0  0  0  0  0  0  0
   -4.4288   -0.9330    0.7808 H   0  0  0  0  0  0  0  0  0  0  0  0
   -4.2447    2.5455    0.5720 C   0  0  0  0  0  0  0  0  0  0  0  0
   -5.3329    2.7144    0.4342 H   0  0  0  0  0  0  0  0  0  0  0  0
   -3.7013    3.2923   -0.0412 H   0  0  0  0  0  0  0  0  0  0  0  0
   -3.9984    2.7339    1.6368 H   0  0  0  0  0  0  0  0  0  0  0  0
    3.1909   -0.1439   -0.7056 Si  0  0  0  0  0  0  0  0  0  0  0  0
    4.7704   -0.7031    0.1463 C   0  0  0  0  0  0  0  0  0  0  0  0
    5.0967   -1.6882   -0.2447 H   0  0  0  0  0  0  0  0  0  0  0  0
    4.6187   -0.8011    1.2393 H   0  0  0  0  0  0  0  0  0  0  0  0
    5.5861    0.0282   -0.0264 H   0  0  0  0  0  0  0  0  0  0  0  0
    3.4095   -0.0337   -2.5687 C   0  0  0  0  0  0  0  0  0  0  0  0
    2.4418    0.1695   -3.0699 H   0  0  0  0  0  0  0  0  0  0  0  0
    3.8217   -0.9773   -2.9815 H   0  0  0  0  0  0  0  0  0  0  0  0
    4.1160    0.7833   -2.8198 H   0  0  0  0  0  0  0  0  0  0  0  0
    2.8159    1.3718   -0.0658 O   0  0  0  0  0  0  0  0  0  0  0  0
    1.4679    2.3865   -0.0747 Si  0  0  0  0  0  0  0  0  0  0  0  0
    1.7791    3.6926    1.2415 C   0  0  0  0  0  0  0  0  0  0  0  0
    0.9385    4.4149    1.2789 H   0  0  0  0  0  0  0  0  0  0  0  0
    2.7109    4.2528    1.0224 H   0  0  0  0  0  0  0  0  0  0  0  0
    1.8796    3.2312    2.2436 H   0  0  0  0  0  0  0  0  0  0  0  0
    1.2394    3.1615   -1.7712 C   0  0  0  0  0  0  0  0  0  0  0  0
    0.4699    3.9601   -1.7470 H   0  0  0  0  0  0  0  0  0  0  0  0
    0.9265    2.4025   -2.5160 H   0  0  0  0  0  0  0  0  0  0  0  0
    2.1915    3.6185   -2.1095 H   0  0  0  0  0  0  0  0  0  0  0  0
    0.9254   -0.5267    2.4309 Si  0  0  0  0  0  0  0  0  0  0  0  0
    0.0710   -1.4576    3.8307 C   0  0  0  0  0  0  0  0  0  0  0  0
   -0.8455   -1.9812    3.4947 H   0  0  0  0  0  0  0  0  0  0  0  0
   -0.2174   -0.7540    4.6382 H   0  0  0  0  0  0  0  0  0  0  0  0
    0.7549   -2.2140    4.2668 H   0  0  0  0  0  0  0  0  0  0  0  0
    2.4530    0.3576    3.0748 C   0  0  0  0  0  0  0  0  0  0  0  0
    2.9799    0.9091    2.2737 H   0  0  0  0  0  0  0  0  0  0  0  0
    3.1534   -0.3797    3.5182 H   0  0  0  0  0  0  0  0  0  0  0  0
    2.1646    1.0754    3.8700 H   0  0  0  0  0  0  0  0  0  0  0  0
  2  1  1  6  0  0  0
  2 48  1  0  0  0  0
  3  2  1  0  0  0  0
  3  4  1  0  0  0  0
  5  3  2  0  0  0  0
  6  5  1  0  0  0  0
  7  5  1  0  0  0  0
  7  1  2  0  0  0  0
  8  7  1  0  0  0  0
  9 14  1  1  0  0  0
  9 10  1  0  0  0  0
 10 11  1  6  0  0  0
 10 48  1  0  0  0  0
 11 12  1  0  0  0  0
 13 11  1  0  0  0  0
 14 13  2  0  0  0  0
 15 14  1  0  0  0  0
 16 13  1  0  0  0  0
 16 25  1  0  0  0  0
 16 21  1  0  0  0  0
 17 16  1  0  0  0  0
 18 17  1  0  0  0  0
 19 17  1  0  0  0  0
 20 17  1  0  0  0  0
 21 23  1  0  0  0  0
 22 21  1  0  0  0  0
 24 21  1  0  0  0  0
 25 28  1  0  0  0  0
 26 25  1  0  0  0  0
 27 25  1  0  0  0  0
 29  1  1  0  0  0  0
 29 38  1  0  0  0  0
 29 30  1  0  0  0  0
 30 32  1  0  0  0  0
 31 30  1  0  0  0  0
 33 30  1  0  0  0  0
 34 29  1  0  0  0  0
 35 34  1  0  0  0  0
 36 34  1  0  0  0  0
 37 34  1  0  0  0  0
 39 38  1  0  0  0  0
 39  9  1  0  0  0  0
 39 40  1  0  0  0  0
 40 41  1  0  0  0  0
 40 43  1  0  0  0  0
 42 40  1  0  0  0  0
 44 45  1  0  0  0  0
 44 39  1  0  0  0  0
 46 44  1  0  0  0  0
 47 44  1  0  0  0  0
 48 53  1  0  0  0  0
 48 49  1  0  0  0  0
 49 52  1  0  0  0  0
 49 51  1  0  0  0  0
 50 49  1  0  0  0  0
 53 55  1  0  0  0  0
 53 56  1  0  0  0  0
 54 53  1  0  0  0  0
M  END
