25
 OpenBabel05122313113D

 34 36  0  0  1  0  0  0  0  0999 V2000
    0.8450    1.5172   -0.3702 C   0  0  0  0  0  0  0  0  0  0  0  0
   -0.2185    1.9429   -1.2365 C   0  0  0  0  0  0  0  0  0  0  0  0
   -0.1997    1.9023   -2.3328 H   0  0  0  0  0  0  0  0  0  0  0  0
   -1.2642    2.4940   -0.4375 C   0  0  0  0  0  0  0  0  0  0  0  0
   -2.2126    2.8975   -0.8086 H   0  0  0  0  0  0  0  0  0  0  0  0
   -0.8857    2.3681    0.9235 C   0  0  0  0  0  0  0  0  0  0  0  0
   -1.4874    2.6545    1.7938 H   0  0  0  0  0  0  0  0  0  0  0  0
    0.4100    1.7634    0.9667 C   0  0  0  0  0  3  0  0  0  0  0  0
    0.9672    1.5306    1.8816 H   0  0  0  0  0  0  0  0  0  0  0  0
    2.1434    0.9019   -0.8232 C   0  0  1  0  0  0  0  0  0  0  0  0
    2.4217    1.3340   -1.8063 H   0  0  0  0  0  0  0  0  0  0  0  0
    3.2979    0.8711    0.2263 C   0  0  2  0  0  0  0  0  0  0  0  0
    3.1590    1.5761    1.0718 H   0  0  0  0  0  0  0  0  0  0  0  0
    4.6783    1.0821   -0.3852 C   0  0  0  0  0  0  0  0  0  0  0  0
    4.8496    0.4243   -1.2625 H   0  0  0  0  0  0  0  0  0  0  0  0
    5.4840    0.8760    0.3482 H   0  0  0  0  0  0  0  0  0  0  0  0
    4.7960    2.1300   -0.7291 H   0  0  0  0  0  0  0  0  0  0  0  0
    0.7795   -1.3268   -0.8240 C   0  0  1  0  0  3  0  0  0  0  0  0
    0.1770   -2.1398    0.1802 C   0  0  0  0  0  0  0  0  0  0  0  0
    0.6255   -2.4041    1.1445 H   0  0  0  0  0  0  0  0  0  0  0  0
   -1.1261   -2.5217   -0.2628 C   0  0  0  0  0  0  0  0  0  0  0  0
   -1.8488   -3.1184    0.3061 H   0  0  0  0  0  0  0  0  0  0  0  0
   -1.3315   -1.9611   -1.5518 C   0  0  0  0  0  3  0  0  0  0  0  0
   -2.2428   -2.0500   -2.1535 H   0  0  0  0  0  0  0  0  0  0  0  0
   -0.1731   -1.2056   -1.8943 C   0  0  0  0  0  3  0  0  0  0  0  0
   -0.0146   -0.6576   -2.8312 H   0  0  0  0  0  0  0  0  0  0  0  0
    2.1258   -0.6696   -0.7776 C   0  0  2  0  0  0  0  0  0  0  0  0
    2.7706   -1.0820   -1.5835 H   0  0  0  0  0  0  0  0  0  0  0  0
    2.9149   -0.6113    0.5575 C   0  0  1  0  0  0  0  0  0  0  0  0
    2.1924   -0.6054    1.4012 H   0  0  0  0  0  0  0  0  0  0  0  0
    3.9895   -1.6523    0.8256 C   0  0  0  0  0  0  0  0  0  0  0  0
    3.5419   -2.6619    0.9315 H   0  0  0  0  0  0  0  0  0  0  0  0
    4.5421   -1.4333    1.7624 H   0  0  0  0  0  0  0  0  0  0  0  0
    4.7294   -1.7031    0.0013 H   0  0  0  0  0  0  0  0  0  0  0  0
  1  8  1  0  0  0  0
  2  4  1  0  0  0  0
  2  1  2  0  0  0  0
  3  2  1  0  0  0  0
  4  6  2  0  0  0  0
  5  4  1  0  0  0  0
  6  8  1  0  0  0  0
  6  7  1  0  0  0  0
  8  9  1  0  0  0  0
 10 11  1  6  0  0  0
 10 27  1  0  0  0  0
 10  1  1  0  0  0  0
 10 12  1  0  0  0  0
 12 29  1  0  0  0  0
 12 13  1  1  0  0  0
 14 12  1  0  0  0  0
 14 16  1  0  0  0  0
 15 14  1  0  0  0  0
 17 14  1  0  0  0  0
 18 25  1  1  0  0  0
 18 27  1  0  0  0  0
 18 19  1  0  0  0  0
 19 20  1  0  0  0  0
 21 19  2  0  0  0  0
 21 22  1  0  0  0  0
 23 21  1  0  0  0  0
 24 23  1  0  0  0  0
 25 23  1  0  0  0  0
 26 25  1  0  0  0  0
 27 28  1  6  0  0  0
 27 29  1  0  0  0  0
 29 31  1  0  0  0  0
 29 30  1  1  0  0  0
 31 32  1  0  0  0  0
 31 33  1  0  0  0  0
 34 31  1  0  0  0  0
M  END
