13
 OpenBabel05122313113D

 14 14  0  0  0  0  0  0  0  0999 V2000
    2.8687   -1.4171   -0.3853 C   0  0  0  0  0  0  0  0  0  0  0  0
    3.6729   -0.3766   -0.9338 C   0  0  0  0  0  0  0  0  0  0  0  0
    5.0820   -0.4316   -0.8294 C   0  0  0  0  0  0  0  0  0  0  0  0
    5.6811    0.3794   -1.2678 H   0  0  0  0  0  0  0  0  0  0  0  0
    5.6989   -1.5032   -0.1761 C   0  0  0  0  0  0  0  0  0  0  0  0
    6.7950   -1.5350   -0.0908 H   0  0  0  0  0  0  0  0  0  0  0  0
    4.9124   -2.5364    0.3655 C   0  0  0  0  0  0  0  0  0  0  0  0
    5.3947   -3.3858    0.8730 H   0  0  0  0  0  0  0  0  0  0  0  0
    3.5185   -2.4961    0.2556 C   0  0  0  0  0  0  0  0  0  0  0  0
    2.8940   -3.3015    0.6687 H   0  0  0  0  0  0  0  0  0  0  0  0
    3.0707    0.7374   -1.6034 C   0  0  0  0  0  0  0  0  0  0  0  0
    2.6362    1.6796   -2.1545 N   0  0  0  0  0  0  0  0  0  0  0  0
    1.4134   -1.3855   -0.4478 C   0  0  0  0  0  3  0  0  0  0  0  0
    0.4972   -2.2132   -0.6442 N   0  0  0  0  0  2  0  0  0  0  0  0
  1  9  1  0  0  0  0
  2  3  1  0  0  0  0
  2  1  2  0  0  0  0
  3  5  2  0  0  0  0
  4  3  1  0  0  0  0
  5  6  1  0  0  0  0
  5  7  1  0  0  0  0
  7  8  1  0  0  0  0
  9  7  2  0  0  0  0
  9 10  1  0  0  0  0
 11  2  1  0  0  0  0
 12 11  3  0  0  0  0
 13  1  1  0  0  0  0
 14 13  2  0  0  0  0
M  END
