1
 OpenBabel05122313113D

 34 34  0  0  0  0  0  0  0  0999 V2000
    0.7617   -1.8434   -0.3513 C   0  0  0  0  0  2  0  0  0  0  0  0
    0.9754   -4.0134   -0.9776 C   0  0  0  0  0  0  0  0  0  0  0  0
    0.6514   -4.9747   -1.3865 H   0  0  0  0  0  0  0  0  0  0  0  0
    2.1740   -3.6213   -0.4385 C   0  0  0  0  0  0  0  0  0  0  0  0
    3.1083   -4.1691   -0.2855 H   0  0  0  0  0  0  0  0  0  0  0  0
    3.0734   -1.4426    0.4803 C   0  0  0  0  0  0  0  0  0  0  0  0
    2.5913   -0.7164    1.1637 H   0  0  0  0  0  0  0  0  0  0  0  0
    3.7532   -2.0787    1.0812 H   0  0  0  0  0  0  0  0  0  0  0  0
    3.8299   -0.7260   -0.6440 C   0  0  0  0  0  0  0  0  0  0  0  0
    4.2550   -1.4542   -1.3672 H   0  0  0  0  0  0  0  0  0  0  0  0
    3.1275   -0.0797   -1.2091 H   0  0  0  0  0  0  0  0  0  0  0  0
    6.4624   -0.8724    0.3290 C   0  0  0  0  0  0  0  0  0  0  0  0
    6.6869   -1.4336   -0.6035 H   0  0  0  0  0  0  0  0  0  0  0  0
    6.0841   -1.5993    1.0786 H   0  0  0  0  0  0  0  0  0  0  0  0
    7.7072   -0.1643    0.8534 C   0  0  0  0  0  0  0  0  0  0  0  0
    7.4888    0.3885    1.7893 H   0  0  0  0  0  0  0  0  0  0  0  0
    8.5101   -0.8978    1.0687 H   0  0  0  0  0  0  0  0  0  0  0  0
    8.0966    0.5623    0.1119 H   0  0  0  0  0  0  0  0  0  0  0  0
   -1.2595   -2.8853   -1.3875 C   0  0  0  0  0  0  0  0  0  0  0  0
   -1.3189   -2.1219   -2.1902 H   0  0  0  0  0  0  0  0  0  0  0  0
   -1.4696   -3.8815   -1.8260 H   0  0  0  0  0  0  0  0  0  0  0  0
   -2.2376   -2.5458   -0.2656 C   0  0  0  0  0  0  0  0  0  0  0  0
   -3.2526   -2.4510   -0.7072 H   0  0  0  0  0  0  0  0  0  0  0  0
   -1.9642   -1.5288    0.0992 H   0  0  0  0  0  0  0  0  0  0  0  0
   -2.2431   -3.5163    0.9161 C   0  0  0  0  0  0  0  0  0  0  0  0
   -2.6415   -4.5029    0.5874 H   0  0  0  0  0  0  0  0  0  0  0  0
   -1.1955   -3.6966    1.2423 H   0  0  0  0  0  0  0  0  0  0  0  0
   -3.0439   -2.9799    2.1043 C   0  0  0  0  0  0  0  0  0  0  0  0
   -4.0762   -2.6969    1.8082 H   0  0  0  0  0  0  0  0  0  0  0  0
   -3.1166   -3.7264    2.9208 H   0  0  0  0  0  0  0  0  0  0  0  0
   -2.5479   -2.0779    2.5192 H   0  0  0  0  0  0  0  0  0  0  0  0
    0.1327   -2.9123   -0.9192 N   0  0  0  0  0  0  0  0  0  0  0  0
    2.0158   -2.2954   -0.0558 N   0  0  0  0  0  0  0  0  0  0  0  0
    5.1576    0.3650   -0.0388 S   0  0  0  0  0  0  0  0  0  0  0  0
  1 33  1  0  0  0  0
  2 32  1  0  0  0  0
  2  4  2  0  0  0  0
  3  2  1  0  0  0  0
  4  5  1  0  0  0  0
  4 33  1  0  0  0  0
  6  8  1  0  0  0  0
  6  7  1  0  0  0  0
  9 34  1  0  0  0  0
  9  6  1  0  0  0  0
 10  9  1  0  0  0  0
 11  9  1  0  0  0  0
 12 15  1  0  0  0  0
 12 14  1  0  0  0  0
 13 12  1  0  0  0  0
 15 17  1  0  0  0  0
 15 16  1  0  0  0  0
 18 15  1  0  0  0  0
 19 32  1  0  0  0  0
 19 22  1  0  0  0  0
 20 19  1  0  0  0  0
 21 19  1  0  0  0  0
 22 24  1  0  0  0  0
 22 25  1  0  0  0  0
 23 22  1  0  0  0  0
 25 27  1  0  0  0  0
 25 28  1  0  0  0  0
 26 25  1  0  0  0  0
 28 31  1  0  0  0  0
 28 30  1  0  0  0  0
 29 28  1  0  0  0  0
 32  1  1  0  0  0  0
 33  6  1  0  0  0  0
 34 12  1  0  0  0  0
M  END
