1
 OpenBabel05122313113D

  7  6  0  0  0  0  0  0  0  0999 V2000
    0.8792    2.3049    1.4939 C   0  0  0  0  0  3  0  0  0  0  0  0
    1.5068    1.7332    2.1950 H   0  0  0  0  0  0  0  0  0  0  0  0
    0.0615    2.8783    1.9609 H   0  0  0  0  0  0  0  0  0  0  0  0
    1.4459    2.8172    0.2841 C   0  0  0  0  0  3  0  0  0  0  0  0
    0.9850    3.7012   -0.1894 H   0  0  0  0  0  0  0  0  0  0  0  0
    2.7629    2.4996   -0.1542 C   0  0  0  0  0  0  0  0  0  0  0  0
    3.8413    2.2232   -0.5426 N   0  0  0  0  0  0  0  0  0  0  0  0
  1  3  1  0  0  0  0
  1  2  1  0  0  0  0
  4  1  1  0  0  0  0
  5  4  1  0  0  0  0
  6  4  1  0  0  0  0
  7  6  3  0  0  0  0
M  END
