1
 OpenBabel05122313113D

 32 33  0  0  1  0  0  0  0  0999 V2000
   -0.1629   -0.6836    0.2486 C   0  0  0  0  0  2  0  0  0  0  0  0
   -0.8405    0.3298    0.7757 N   0  0  0  0  0  0  0  0  0  0  0  0
   -1.8819    0.2264    0.7925 H   0  0  0  0  0  0  0  0  0  0  0  0
   -0.9025   -1.7691   -0.1802 N   0  0  0  0  0  0  0  0  0  0  0  0
   -0.3306   -2.5198   -0.5685 H   0  0  0  0  0  0  0  0  0  0  0  0
   -3.0949   -1.0467    0.3108 N   0  0  0  0  0  0  0  0  0  0  0  0
   -0.2343    1.5792    1.2479 C   0  0  2  0  0  0  0  0  0  0  0  0
    0.8627    1.4247    1.1460 H   0  0  0  0  0  0  0  0  0  0  0  0
   -0.5682    1.7907    2.7235 C   0  0  0  0  0  0  0  0  0  0  0  0
   -1.6623    1.8539    2.8950 H   0  0  0  0  0  0  0  0  0  0  0  0
   -0.1071    2.7255    3.0968 H   0  0  0  0  0  0  0  0  0  0  0  0
   -0.1761    0.9454    3.3211 H   0  0  0  0  0  0  0  0  0  0  0  0
   -2.2806   -1.9981   -0.1846 C   0  0  0  0  0  0  0  0  0  0  0  0
   -2.7744   -3.2182   -0.7103 C   0  0  0  0  0  0  0  0  0  0  0  0
   -2.0807   -3.9744   -1.1073 H   0  0  0  0  0  0  0  0  0  0  0  0
   -4.1522   -3.4285   -0.7109 C   0  0  0  0  0  0  0  0  0  0  0  0
   -4.5640   -4.3664   -1.1130 H   0  0  0  0  0  0  0  0  0  0  0  0
   -5.0051   -2.4342   -0.1958 C   0  0  0  0  0  0  0  0  0  0  0  0
   -6.0960   -2.5647   -0.1810 H   0  0  0  0  0  0  0  0  0  0  0  0
   -4.4216   -1.2647    0.3010 C   0  0  0  0  0  0  0  0  0  0  0  0
   -5.0451   -0.4543    0.7150 H   0  0  0  0  0  0  0  0  0  0  0  0
   -0.6342    2.7153    0.3081 C   0  0  0  0  0  0  0  0  0  0  0  0
   -0.1393    2.6932   -1.0132 C   0  0  0  0  0  0  0  0  0  0  0  0
    0.5312    1.8739   -1.3212 H   0  0  0  0  0  0  0  0  0  0  0  0
   -0.4867    3.6985   -1.9239 C   0  0  0  0  0  0  0  0  0  0  0  0
   -0.0852    3.6703   -2.9482 H   0  0  0  0  0  0  0  0  0  0  0  0
   -1.3390    4.7438   -1.5282 C   0  0  0  0  0  0  0  0  0  0  0  0
   -1.6118    5.5357   -2.2421 H   0  0  0  0  0  0  0  0  0  0  0  0
   -1.8347    4.7753   -0.2173 C   0  0  0  0  0  0  0  0  0  0  0  0
   -2.4989    5.5928    0.1024 H   0  0  0  0  0  0  0  0  0  0  0  0
   -1.4836    3.7669    0.6964 C   0  0  0  0  0  0  0  0  0  0  0  0
   -1.8766    3.8117    1.7225 H   0  0  0  0  0  0  0  0  0  0  0  0
  1  2  1  0  0  0  0
  2  3  1  0  0  0  0
  2  7  1  0  0  0  0
  4  1  1  0  0  0  0
  5  4  1  0  0  0  0
  7  8  1  6  0  0  0
  7  9  1  0  0  0  0
  9 10  1  0  0  0  0
  9 11  1  0  0  0  0
  9 12  1  0  0  0  0
 13  4  1  0  0  0  0
 13  6  2  0  0  0  0
 14 13  1  0  0  0  0
 15 14  1  0  0  0  0
 16 14  2  0  0  0  0
 16 18  1  0  0  0  0
 17 16  1  0  0  0  0
 18 19  1  0  0  0  0
 18 20  2  0  0  0  0
 20  6  1  0  0  0  0
 20 21  1  0  0  0  0
 22 31  1  0  0  0  0
 22  7  1  0  0  0  0
 23 22  2  0  0  0  0
 24 23  1  0  0  0  0
 25 27  2  0  0  0  0
 25 23  1  0  0  0  0
 26 25  1  0  0  0  0
 27 29  1  0  0  0  0
 28 27  1  0  0  0  0
 29 30  1  0  0  0  0
 29 31  2  0  0  0  0
 31 32  1  0  0  0  0
M  END
