2
 OpenBabel05122313113D

 46 49  0  0  0  0  0  0  0  0999 V2000
    0.8688   -1.0579   -0.1632 P   0  0  0  0  0  0  0  0  0  0  0  0
   -1.2696    0.6482   -0.1441 C   0  0  0  0  0  2  0  0  0  0  0  0
   -1.7338   -0.6355   -0.4476 N   0  0  0  0  0  0  0  0  0  0  0  0
   -2.4257    1.3714    0.0594 N   0  0  0  0  0  0  0  0  0  0  0  0
   -2.4015    2.3678    0.2651 H   0  0  0  0  0  0  0  0  0  0  0  0
   -3.1229   -0.6954   -0.4468 C   0  0  0  0  0  0  0  0  0  0  0  0
   -3.5735    0.6050   -0.1105 C   0  0  0  0  0  0  0  0  0  0  0  0
   -4.9388    0.8878   -0.0139 C   0  0  0  0  0  0  0  0  0  0  0  0
   -5.2913    1.8977    0.2444 H   0  0  0  0  0  0  0  0  0  0  0  0
   -5.8669   -0.1461   -0.2595 C   0  0  0  0  0  0  0  0  0  0  0  0
   -5.4130   -1.4553   -0.6007 C   0  0  0  0  0  0  0  0  0  0  0  0
   -4.0325   -1.7286   -0.6956 C   0  0  0  0  0  0  0  0  0  0  0  0
   -3.6836   -2.7353   -0.9687 H   0  0  0  0  0  0  0  0  0  0  0  0
   -7.3451    0.1380   -0.1655 C   0  0  0  0  0  0  0  0  0  0  0  0
   -7.5385    1.1929    0.1079 H   0  0  0  0  0  0  0  0  0  0  0  0
   -7.8415   -0.5038    0.5936 H   0  0  0  0  0  0  0  0  0  0  0  0
   -7.8646   -0.0612   -1.1272 H   0  0  0  0  0  0  0  0  0  0  0  0
   -6.4127   -2.5523   -0.8683 C   0  0  0  0  0  0  0  0  0  0  0  0
   -5.9100   -3.5057   -1.1199 H   0  0  0  0  0  0  0  0  0  0  0  0
   -7.0897   -2.2959   -1.7111 H   0  0  0  0  0  0  0  0  0  0  0  0
   -7.0675   -2.7374    0.0100 H   0  0  0  0  0  0  0  0  0  0  0  0
   -0.8038   -1.6948   -0.7752 C   0  0  0  0  0  0  0  0  0  0  0  0
   -0.7138   -1.8224   -1.8745 H   0  0  0  0  0  0  0  0  0  0  0  0
   -1.1099   -2.6529   -0.3082 H   0  0  0  0  0  0  0  0  0  0  0  0
    2.0726   -1.9561   -1.2266 C   0  0  0  0  0  0  0  0  0  0  0  0
    2.1416   -3.3649   -1.2476 C   0  0  0  0  0  0  0  0  0  0  0  0
    1.4751   -3.9602   -0.6032 H   0  0  0  0  0  0  0  0  0  0  0  0
    3.0699   -4.0112   -2.0768 C   0  0  0  0  0  0  0  0  0  0  0  0
    3.1210   -5.1108   -2.0908 H   0  0  0  0  0  0  0  0  0  0  0  0
    3.9355   -3.2543   -2.8850 C   0  0  0  0  0  0  0  0  0  0  0  0
    4.6652   -3.7627   -3.5338 H   0  0  0  0  0  0  0  0  0  0  0  0
    3.8669   -1.8525   -2.8676 C   0  0  0  0  0  0  0  0  0  0  0  0
    4.5375   -1.2591   -3.5076 H   0  0  0  0  0  0  0  0  0  0  0  0
    2.9361   -1.2010   -2.0431 C   0  0  0  0  0  0  0  0  0  0  0  0
    2.8379   -0.1047   -2.0427 H   0  0  0  0  0  0  0  0  0  0  0  0
    1.0630   -1.8828    1.4760 C   0  0  0  0  0  0  0  0  0  0  0  0
    2.3058   -2.3841    1.9144 C   0  0  0  0  0  0  0  0  0  0  0  0
    3.1628   -2.4010    1.2242 H   0  0  0  0  0  0  0  0  0  0  0  0
    2.4540   -2.8690    3.2244 C   0  0  0  0  0  0  0  0  0  0  0  0
    3.4309   -3.2542    3.5551 H   0  0  0  0  0  0  0  0  0  0  0  0
    1.3626   -2.8687    4.1063 C   0  0  0  0  0  0  0  0  0  0  0  0
    1.4794   -3.2521    5.1313 H   0  0  0  0  0  0  0  0  0  0  0  0
    0.1196   -2.3749    3.6743 C   0  0  0  0  0  0  0  0  0  0  0  0
   -0.7408   -2.3700    4.3609 H   0  0  0  0  0  0  0  0  0  0  0  0
   -0.0272   -1.8755    2.3732 C   0  0  0  0  0  0  0  0  0  0  0  0
   -0.9942   -1.4549    2.0560 H   0  0  0  0  0  0  0  0  0  0  0  0
  1 36  1  0  0  0  0
  2  4  1  0  0  0  0
  3  6  1  0  0  0  0
  3  2  1  0  0  0  0
  4  5  1  0  0  0  0
  6  7  1  0  0  0  0
  7  8  2  0  0  0  0
  7  4  1  0  0  0  0
  8  9  1  0  0  0  0
 10 14  1  0  0  0  0
 10  8  1  0  0  0  0
 11 10  2  0  0  0  0
 12 11  1  0  0  0  0
 12  6  2  0  0  0  0
 13 12  1  0  0  0  0
 14 15  1  0  0  0  0
 14 16  1  0  0  0  0
 17 14  1  0  0  0  0
 18 11  1  0  0  0  0
 18 21  1  0  0  0  0
 19 18  1  0  0  0  0
 20 18  1  0  0  0  0
 22  3  1  0  0  0  0
 22 24  1  0  0  0  0
 22  1  1  0  0  0  0
 23 22  1  0  0  0  0
 25  1  1  0  0  0  0
 26 25  1  0  0  0  0
 26 27  1  0  0  0  0
 28 26  2  0  0  0  0
 29 28  1  0  0  0  0
 30 32  2  0  0  0  0
 30 28  1  0  0  0  0
 31 30  1  0  0  0  0
 32 34  1  0  0  0  0
 33 32  1  0  0  0  0
 34 35  1  0  0  0  0
 34 25  2  0  0  0  0
 36 37  2  0  0  0  0
 36 45  1  0  0  0  0
 37 39  1  0  0  0  0
 38 37  1  0  0  0  0
 39 40  1  0  0  0  0
 39 41  2  0  0  0  0
 41 42  1  0  0  0  0
 43 41  1  0  0  0  0
 43 44  1  0  0  0  0
 45 43  2  0  0  0  0
 46 45  1  0  0  0  0
M  END
