7
 OpenBabel05122313113D

 45 50  0  0  1  0  0  0  0  0999 V2000
    1.8222   -1.2470   -0.3249 C   0  0  1  0  0  0  0  0  0  0  0  0
    1.9456   -0.6721    1.1431 C   0  0  2  0  0  0  0  0  0  0  0  0
    1.5453   -1.2938    1.9579 H   0  0  0  0  0  0  0  0  0  0  0  0
    0.9706   -2.5105   -0.4957 C   0  0  0  0  0  0  0  0  0  0  0  0
    1.1600   -2.9458   -1.4944 H   0  0  0  0  0  0  0  0  0  0  0  0
    1.2590   -3.2774    0.2496 H   0  0  0  0  0  0  0  0  0  0  0  0
   -0.4667   -2.0903   -0.3453 C   0  0  1  0  0  3  0  0  0  0  0  0
   -1.1761   -1.9030    0.8994 C   0  0  1  0  0  3  0  0  0  0  0  0
   -2.4053   -1.2272    0.5924 C   0  0  0  0  0  0  0  0  0  0  0  0
   -2.4308   -0.9619   -0.8091 C   0  0  0  0  0  0  0  0  0  0  0  0
   -1.2418   -1.5064   -1.3969 C   0  0  2  0  0  3  0  0  0  0  0  0
   -0.8150   -2.5133    2.2281 C   0  0  0  0  0  0  0  0  0  0  0  0
   -1.5863   -3.2497    2.5380 H   0  0  0  0  0  0  0  0  0  0  0  0
   -0.7302   -1.7724    3.0495 H   0  0  0  0  0  0  0  0  0  0  0  0
    0.1457   -3.0594    2.1747 H   0  0  0  0  0  0  0  0  0  0  0  0
   -3.5909   -1.0334    1.4922 C   0  0  0  0  0  0  0  0  0  0  0  0
   -4.4517   -1.6277    1.1168 H   0  0  0  0  0  0  0  0  0  0  0  0
   -3.9244    0.0229    1.5389 H   0  0  0  0  0  0  0  0  0  0  0  0
   -3.3933   -1.3689    2.5271 H   0  0  0  0  0  0  0  0  0  0  0  0
   -3.6293   -0.4738   -1.5669 C   0  0  0  0  0  0  0  0  0  0  0  0
   -4.2938   -1.3288   -1.8240 H   0  0  0  0  0  0  0  0  0  0  0  0
   -3.3582    0.0100   -2.5256 H   0  0  0  0  0  0  0  0  0  0  0  0
   -4.2410    0.2373   -0.9786 H   0  0  0  0  0  0  0  0  0  0  0  0
   -1.0019   -1.6588   -2.8714 C   0  0  0  0  0  0  0  0  0  0  0  0
   -1.6806   -2.4394   -3.2790 H   0  0  0  0  0  0  0  0  0  0  0  0
    0.0361   -1.9610   -3.0976 H   0  0  0  0  0  0  0  0  0  0  0  0
   -1.2011   -0.7317   -3.4418 H   0  0  0  0  0  0  0  0  0  0  0  0
    2.0378    0.9861    1.2187 B   0  0  2  0  0  0  0  0  0  0  0  0
    1.7363    1.5454    2.2456 H   0  0  0  0  0  0  0  0  0  0  0  0
    1.9617    1.5153   -0.4638 B   0  0  0  0  0  0  0  0  0  0  0  0
    1.6189    2.6328   -0.8367 H   0  0  0  0  0  0  0  0  0  0  0  0
    1.7708    0.0228   -1.4092 B   0  0  1  0  0  0  0  0  0  0  0  0
    1.1644   -0.1395   -2.4474 H   0  0  0  0  0  0  0  0  0  0  0  0
    3.3274   -1.4590    0.4492 B   0  0  1  0  0  0  0  0  0  0  0  0
    3.6152   -2.5700    0.8250 H   0  0  0  0  0  0  0  0  0  0  0  0
    3.4994    0.0037    1.4353 B   0  0  2  0  0  0  0  0  0  0  0  0
    3.9967   -0.1165    2.5302 H   0  0  0  0  0  0  0  0  0  0  0  0
    3.5448    1.4045    0.3527 B   0  0  1  0  0  0  0  0  0  0  0  0
    4.1845    2.3930    0.6391 H   0  0  0  0  0  0  0  0  0  0  0  0
    3.3622    0.8060   -1.3202 B   0  0  0  0  0  0  0  0  0  0  0  0
    3.8591    1.3486   -2.2837 H   0  0  0  0  0  0  0  0  0  0  0  0
    3.2351   -0.9688   -1.2514 B   0  0  2  0  0  0  0  0  0  0  0  0
    3.5264   -1.7807   -2.0998 H   0  0  0  0  0  0  0  0  0  0  0  0
    4.3360   -0.1270   -0.1355 B   0  0  0  0  0  0  0  0  0  0  0  0
    5.5359   -0.2672   -0.2005 H   0  0  0  0  0  0  0  0  0  0  0  0
  1  4  1  6  0  0  0
  1 34  1  0  0  0  0
  1  2  1  0  0  0  0
  2 28  1  0  0  0  0
  2 36  1  0  0  0  0
  2  3  1  1  0  0  0
  4  6  1  0  0  0  0
  5  4  1  0  0  0  0
  7  4  1  1  0  0  0
  7  8  1  0  0  0  0
  8 12  1  6  0  0  0
  9  8  1  0  0  0  0
  9 16  1  0  0  0  0
 10  9  2  0  0  0  0
 11 24  1  6  0  0  0
 11 10  1  0  0  0  0
 11  7  1  0  0  0  0
 12 13  1  0  0  0  0
 12 14  1  0  0  0  0
 15 12  1  0  0  0  0
 16 18  1  0  0  0  0
 16 19  1  0  0  0  0
 17 16  1  0  0  0  0
 20 23  1  0  0  0  0
 20 10  1  0  0  0  0
 21 20  1  0  0  0  0
 22 20  1  0  0  0  0
 25 24  1  0  0  0  0
 26 24  1  0  0  0  0
 27 24  1  0  0  0  0
 28 36  1  0  0  0  0
 28 29  1  1  0  0  0
 30 38  1  0  0  0  0
 30 28  1  0  0  0  0
 31 30  1  0  0  0  0
 32 33  1  6  0  0  0
 32 40  1  0  0  0  0
 32 42  1  0  0  0  0
 32  1  1  0  0  0  0
 34 35  1  1  0  0  0
 36 37  1  1  0  0  0
 38 39  1  1  0  0  0
 38 36  1  0  0  0  0
 40 38  1  0  0  0  0
 41 40  1  0  0  0  0
 42 43  1  6  0  0  0
 42 44  1  0  0  0  0
 42 34  1  0  0  0  0
 44 34  1  0  0  0  0
 45 44  1  0  0  0  0
M  END
