2
 OpenBabel05122313113D

 14 14  0  0  0  0  0  0  0  0999 V2000
   10.0205   -3.2751   -0.6625 N   0  0  0  0  0  0  0  0  0  0  0  0
    2.6067   -0.0085   -0.1850 C   0  0  0  0  0  1  0  0  0  0  0  0
    3.7429   -0.5069   -0.2585 C   0  0  0  0  0  2  0  0  0  0  0  0
    5.0417   -1.0787   -0.3432 C   0  0  0  0  0  0  0  0  0  0  0  0
    5.2520   -2.3258   -0.9943 C   0  0  0  0  0  0  0  0  0  0  0  0
    4.3882   -2.8434   -1.4351 H   0  0  0  0  0  0  0  0  0  0  0  0
    6.5242   -2.8893   -1.0776 C   0  0  0  0  0  0  0  0  0  0  0  0
    6.6722   -3.8541   -1.5839 H   0  0  0  0  0  0  0  0  0  0  0  0
    7.6395   -2.2245   -0.5107 C   0  0  0  0  0  0  0  0  0  0  0  0
    7.4443   -0.9815    0.1404 C   0  0  0  0  0  0  0  0  0  0  0  0
    8.3078   -0.4629    0.5813 H   0  0  0  0  0  0  0  0  0  0  0  0
    6.1702   -0.4219    0.2212 C   0  0  0  0  0  0  0  0  0  0  0  0
    6.0213    0.5427    0.7270 H   0  0  0  0  0  0  0  0  0  0  0  0
    8.9469   -2.8015   -0.5943 C   0  0  0  0  0  0  0  0  0  0  0  0
  1 14  3  0  0  0  0
  3  2  1  0  0  0  0
  4  3  1  0  0  0  0
  4 12  1  0  0  0  0
  5  4  2  0  0  0  0
  6  5  1  0  0  0  0
  7  5  1  0  0  0  0
  7  9  2  0  0  0  0
  8  7  1  0  0  0  0
  9 10  1  0  0  0  0
 10 12  2  0  0  0  0
 10 11  1  0  0  0  0
 12 13  1  0  0  0  0
 14  9  1  0  0  0  0
M  END
