1
 OpenBabel05122313113D

 14 14  0  0  0  0  0  0  0  0999 V2000
   -1.3759   -1.6310    0.9460 C   0  0  0  0  0  3  0  0  0  0  0  0
   -1.3096   -2.7394    0.9682 H   0  0  0  0  0  0  0  0  0  0  0  0
   -1.4102   -1.2862    2.0048 H   0  0  0  0  0  0  0  0  0  0  0  0
   -2.6477   -1.2121    0.2368 C   0  0  0  0  0  0  0  0  0  0  0  0
   -2.5964   -1.4768   -0.8428 H   0  0  0  0  0  0  0  0  0  0  0  0
   -3.9999   -1.7320    0.8226 C   0  0  0  0  0  0  0  0  0  0  0  0
   -4.4492   -2.6350    0.3617 H   0  0  0  0  0  0  0  0  0  0  0  0
   -3.9105   -1.9055    1.9155 H   0  0  0  0  0  0  0  0  0  0  0  0
   -4.6310   -0.3528    0.5107 C   0  0  0  0  0  0  0  0  0  0  0  0
   -5.3120    0.0870    1.2670 H   0  0  0  0  0  0  0  0  0  0  0  0
   -5.1541   -0.3517   -0.4673 H   0  0  0  0  0  0  0  0  0  0  0  0
   -3.2025    0.2353    0.3933 C   0  0  0  0  0  0  0  0  0  0  0  0
   -2.8584    0.6866    1.3480 H   0  0  0  0  0  0  0  0  0  0  0  0
   -3.0138    0.9608   -0.4228 H   0  0  0  0  0  0  0  0  0  0  0  0
  1  2  1  0  0  0  0
  1  3  1  0  0  0  0
  4 12  1  0  0  0  0
  4  6  1  0  0  0  0
  4  1  1  0  0  0  0
  5  4  1  0  0  0  0
  6  8  1  0  0  0  0
  7  6  1  0  0  0  0
  9  6  1  0  0  0  0
  9 10  1  0  0  0  0
 11  9  1  0  0  0  0
 12  9  1  0  0  0  0
 12 13  1  0  0  0  0
 14 12  1  0  0  0  0
M  END
