1
 OpenBabel05122313113D

 11 10  0  0  0  0  0  0  0  0999 V2000
   -0.1364   -0.6004    2.3359 C   0  0  0  0  0  3  0  0  0  0  0  0
   -0.2432   -1.7047    2.3533 H   0  0  0  0  0  0  0  0  0  0  0  0
    0.5112   -0.2842    3.1766 H   0  0  0  0  0  0  0  0  0  0  0  0
   -2.6309   -0.4679    1.9792 C   0  0  0  0  0  0  0  0  0  0  0  0
   -2.6497   -1.5459    1.7292 H   0  0  0  0  0  0  0  0  0  0  0  0
   -1.4438    0.0842    2.3333 C   0  0  0  0  0  0  0  0  0  0  0  0
   -1.4334    1.1650    2.5753 H   0  0  0  0  0  0  0  0  0  0  0  0
   -3.9342    0.2652    1.8867 C   0  0  0  0  0  0  0  0  0  0  0  0
   -4.7084   -0.1716    2.5550 H   0  0  0  0  0  0  0  0  0  0  0  0
   -4.3576    0.2153    0.8572 H   0  0  0  0  0  0  0  0  0  0  0  0
   -3.8201    1.3362    2.1499 H   0  0  0  0  0  0  0  0  0  0  0  0
  1  2  1  0  0  0  0
  1  3  1  0  0  0  0
  4  6  2  0  0  0  0
  5  4  1  0  0  0  0
  6  1  1  0  0  0  0
  6  7  1  0  0  0  0
  8  4  1  0  0  0  0
  8 11  1  0  0  0  0
  8  9  1  0  0  0  0
 10  8  1  0  0  0  0
M  END
