1
 OpenBabel05122313113D

  4  3  0  0  0  0  0  0  0  0999 V2000
   -1.8542   -1.7907   -1.1859 C   0  0  0  0  0  3  0  0  0  0  0  0
   -2.7119   -2.7431    0.6206 I   0  0  0  0  0  0  0  0  0  0  0  0
   -2.6973   -1.2114   -1.6045 H   0  0  0  0  0  0  0  0  0  0  0  0
   -1.6027   -2.6513   -1.8308 H   0  0  0  0  0  0  0  0  0  0  0  0
  1  2  1  0  0  0  0
  3  1  1  0  0  0  0
  4  1  1  0  0  0  0
M  END
