13
 OpenBabel05122313113D

 45 47  0  0  0  0  0  0  0  0999 V2000
   -3.7879   -2.1905    1.9351 Cl  0  0  0  0  0  0  0  0  0  0  0  0
    3.7950   -2.1652    1.9946 Cl  0  0  0  0  0  0  0  0  0  0  0  0
   -1.0872    2.3087    0.7687 N   0  0  0  0  0  0  0  0  0  0  0  0
    1.0795    2.3126    0.7781 N   0  0  0  0  0  0  0  0  0  0  0  0
   -5.0540    1.1142    0.0871 N   0  0  0  0  0  0  0  0  0  0  0  0
    5.0600    1.1376    0.1427 N   0  0  0  0  0  0  0  0  0  0  0  0
   -9.1495   -0.3810    0.8933 F   0  0  0  0  0  0  0  0  0  0  0  0
   -8.8012    0.0072   -1.2244 F   0  0  0  0  0  0  0  0  0  0  0  0
   -8.5680   -2.0165   -0.4252 F   0  0  0  0  0  0  0  0  0  0  0  0
    8.3945   -1.3600   -1.3819 F   0  0  0  0  0  0  0  0  0  0  0  0
    9.0898    0.4032   -0.3032 F   0  0  0  0  0  0  0  0  0  0  0  0
    8.9315   -1.5223    0.7244 F   0  0  0  0  0  0  0  0  0  0  0  0
   -0.0001    1.7418    0.1607 C   0  0  0  0  0  2  0  0  0  0  0  0
   -0.6957    3.2017    1.7559 C   0  0  0  0  0  0  0  0  0  0  0  0
   -1.4173    3.7684    2.3515 H   0  0  0  0  0  0  0  0  0  0  0  0
    0.6762    3.2042    1.7619 C   0  0  0  0  0  0  0  0  0  0  0  0
    1.3906    3.7735    2.3637 H   0  0  0  0  0  0  0  0  0  0  0  0
   -2.4703    1.9605    0.4449 C   0  0  0  0  0  0  0  0  0  0  0  0
   -2.5728    1.9362   -0.6567 H   0  0  0  0  0  0  0  0  0  0  0  0
   -3.1306    2.7660    0.8158 H   0  0  0  0  0  0  0  0  0  0  0  0
   -2.8597    0.6069    1.0373 C   0  0  0  0  0  0  0  0  0  0  0  0
   -2.1757   -0.1760    0.6384 H   0  0  0  0  0  0  0  0  0  0  0  0
   -2.7010    0.5995    2.1386 H   0  0  0  0  0  0  0  0  0  0  0  0
   -4.2831    0.2238    0.7331 C   0  0  0  0  0  0  0  0  0  0  0  0
   -4.8000   -1.0435    1.1073 C   0  0  0  0  0  0  0  0  0  0  0  0
   -6.1245   -1.3718    0.8062 C   0  0  0  0  0  0  0  0  0  0  0  0
   -6.5306   -2.3550    1.0819 H   0  0  0  0  0  0  0  0  0  0  0  0
   -6.9093   -0.4213    0.1351 C   0  0  0  0  0  0  0  0  0  0  0  0
   -6.3240    0.8082   -0.2069 C   0  0  0  0  0  0  0  0  0  0  0  0
   -6.9085    1.5706   -0.7481 H   0  0  0  0  0  0  0  0  0  0  0  0
   -8.3628   -0.7049   -0.1626 C   0  0  0  0  0  0  0  0  0  0  0  0
    2.4667    1.9693    0.4668 C   0  0  0  0  0  0  0  0  0  0  0  0
    3.1208    2.7774    0.8430 H   0  0  0  0  0  0  0  0  0  0  0  0
    2.5789    1.9448   -0.6339 H   0  0  0  0  0  0  0  0  0  0  0  0
    2.8561    0.6177    1.0637 C   0  0  0  0  0  0  0  0  0  0  0  0
    2.6856    0.6103    2.1633 H   0  0  0  0  0  0  0  0  0  0  0  0
    2.1803   -0.1687    0.6582 H   0  0  0  0  0  0  0  0  0  0  0  0
    4.2847    0.2416    0.7756 C   0  0  0  0  0  0  0  0  0  0  0  0
    4.8043   -1.0220    1.1582 C   0  0  0  0  0  0  0  0  0  0  0  0
    6.1319   -1.3464    0.8663 C   0  0  0  0  0  0  0  0  0  0  0  0
    6.5447   -2.3208    1.1625 H   0  0  0  0  0  0  0  0  0  0  0  0
    6.9168   -0.3960    0.1953 C   0  0  0  0  0  0  0  0  0  0  0  0
    6.3333    0.8359   -0.1413 C   0  0  0  0  0  0  0  0  0  0  0  0
    6.9265    1.6097   -0.6562 H   0  0  0  0  0  0  0  0  0  0  0  0
    8.3413   -0.7178   -0.1914 C   0  0  0  0  0  0  0  0  0  0  0  0
  3 14  1  0  0  0  0
  4 16  1  0  0  0  0
  5 24  1  0  0  0  0
  6 38  1  0  0  0  0
  8 31  1  0  0  0  0
  9 31  1  0  0  0  0
 10 45  1  0  0  0  0
 11 45  1  0  0  0  0
 13  3  1  0  0  0  0
 13  4  1  0  0  0  0
 14 16  2  0  0  0  0
 14 15  1  0  0  0  0
 16 17  1  0  0  0  0
 18  3  1  0  0  0  0
 18 20  1  0  0  0  0
 18 21  1  0  0  0  0
 19 18  1  0  0  0  0
 21 23  1  0  0  0  0
 22 21  1  0  0  0  0
 24 21  1  0  0  0  0
 24 25  2  0  0  0  0
 25  1  1  0  0  0  0
 26 27  1  0  0  0  0
 26 25  1  0  0  0  0
 28 26  2  0  0  0  0
 29  5  2  0  0  0  0
 29 28  1  0  0  0  0
 30 29  1  0  0  0  0
 31 28  1  0  0  0  0
 31  7  1  0  0  0  0
 32  4  1  0  0  0  0
 32 33  1  0  0  0  0
 32 35  1  0  0  0  0
 34 32  1  0  0  0  0
 35 36  1  0  0  0  0
 37 35  1  0  0  0  0
 38 35  1  0  0  0  0
 38 39  2  0  0  0  0
 39  2  1  0  0  0  0
 40 39  1  0  0  0  0
 40 41  1  0  0  0  0
 42 40  2  0  0  0  0
 43  6  2  0  0  0  0
 43 42  1  0  0  0  0
 44 43  1  0  0  0  0
 45 42  1  0  0  0  0
 45 12  1  0  0  0  0
M  END
