37
 OpenBabel05122313113D

 54 57  0  0  1  0  0  0  0  0999 V2000
   -1.3440    0.2367   -0.1544 P   0  0  0  0  0  0  0  0  0  0  0  0
    1.2725   -0.2379    3.0600 O   0  0  0  0  0  0  0  0  0  0  0  0
    2.2617    2.8641    1.4643 O   0  0  0  0  0  0  0  0  0  0  0  0
    1.7481    0.9491    0.3922 N   0  0  0  0  0  0  0  0  0  0  0  0
   -1.1683    1.7536   -1.1657 C   0  0  0  0  0  0  0  0  0  0  0  0
   -0.9047    1.6020   -2.5469 C   0  0  0  0  0  0  0  0  0  0  0  0
   -0.8644    0.5962   -2.9939 H   0  0  0  0  0  0  0  0  0  0  0  0
   -0.7041    2.7289   -3.3546 C   0  0  0  0  0  0  0  0  0  0  0  0
   -0.5043    2.6032   -4.4292 H   0  0  0  0  0  0  0  0  0  0  0  0
   -0.7643    4.0173   -2.7932 C   0  0  0  0  0  0  0  0  0  0  0  0
   -0.6116    4.9022   -3.4287 H   0  0  0  0  0  0  0  0  0  0  0  0
   -1.0310    4.1720   -1.4244 C   0  0  0  0  0  0  0  0  0  0  0  0
   -1.0904    5.1792   -0.9848 H   0  0  0  0  0  0  0  0  0  0  0  0
   -1.2296    3.0450   -0.6079 C   0  0  0  0  0  0  0  0  0  0  0  0
   -1.4353    3.1729    0.4652 H   0  0  0  0  0  0  0  0  0  0  0  0
   -2.7899   -0.6226   -0.9025 C   0  0  0  0  0  0  0  0  0  0  0  0
   -3.6986    0.0711   -1.7302 C   0  0  0  0  0  0  0  0  0  0  0  0
   -3.5171    1.1221   -1.9975 H   0  0  0  0  0  0  0  0  0  0  0  0
   -4.8423   -0.5787   -2.2197 C   0  0  0  0  0  0  0  0  0  0  0  0
   -5.5428   -0.0295   -2.8664 H   0  0  0  0  0  0  0  0  0  0  0  0
   -5.0927   -1.9182   -1.8868 C   0  0  0  0  0  0  0  0  0  0  0  0
   -5.9889   -2.4250   -2.2744 H   0  0  0  0  0  0  0  0  0  0  0  0
   -4.1971   -2.6102   -1.0553 C   0  0  0  0  0  0  0  0  0  0  0  0
   -4.3905   -3.6590   -0.7854 H   0  0  0  0  0  0  0  0  0  0  0  0
   -3.0526   -1.9669   -0.5655 C   0  0  0  0  0  0  0  0  0  0  0  0
   -2.3593   -2.5128    0.0928 H   0  0  0  0  0  0  0  0  0  0  0  0
   -1.8897    0.7366    1.5139 C   0  0  0  0  0  0  0  0  0  0  0  0
   -3.0553    1.4897    1.7654 C   0  0  0  0  0  0  0  0  0  0  0  0
   -3.6983    1.8096    0.9308 H   0  0  0  0  0  0  0  0  0  0  0  0
   -3.3908    1.8233    3.0826 C   0  0  0  0  0  0  0  0  0  0  0  0
   -4.2952    2.4150    3.2877 H   0  0  0  0  0  0  0  0  0  0  0  0
   -2.5725    1.3909    4.1435 C   0  0  0  0  0  0  0  0  0  0  0  0
   -2.8391    1.6482    5.1797 H   0  0  0  0  0  0  0  0  0  0  0  0
   -1.4347    0.6144    3.8910 C   0  0  0  0  0  0  0  0  0  0  0  0
   -0.8113    0.2538    4.7241 H   0  0  0  0  0  0  0  0  0  0  0  0
   -1.0791    0.2678    2.5690 C   0  0  0  0  0  0  0  0  0  0  0  0
    0.1173   -0.6379    2.3039 C   0  0  0  0  0  3  0  0  0  0  0  0
   -0.1242   -1.6283    2.7420 H   0  0  0  0  0  0  0  0  0  0  0  0
    1.6507    1.0981    2.9228 C   0  0  0  0  0  0  0  0  0  0  0  0
    2.5974    1.2390    3.4863 H   0  0  0  0  0  0  0  0  0  0  0  0
    0.9121    1.8063    3.3719 H   0  0  0  0  0  0  0  0  0  0  0  0
    1.8853    1.5818    1.5184 C   0  0  0  0  0  0  0  0  0  0  0  0
    2.2414    3.2468    0.0617 C   0  0  0  0  0  0  0  0  0  0  0  0
    3.1628    3.8219   -0.1468 H   0  0  0  0  0  0  0  0  0  0  0  0
    1.3573    3.8939   -0.0972 H   0  0  0  0  0  0  0  0  0  0  0  0
    2.1680    1.8979   -0.6881 C   0  0  1  0  0  0  0  0  0  0  0  0
    1.3764    1.9175   -1.4607 H   0  0  0  0  0  0  0  0  0  0  0  0
    3.5067    1.5356   -1.3425 C   0  0  0  0  0  0  0  0  0  0  0  0
    3.4810    0.4812   -1.6639 H   0  0  0  0  0  0  0  0  0  0  0  0
    4.3134    1.6132   -0.5812 H   0  0  0  0  0  0  0  0  0  0  0  0
    3.8138    2.4230   -2.5501 C   0  0  0  0  0  0  0  0  0  0  0  0
    4.7809    2.1444   -3.0114 H   0  0  0  0  0  0  0  0  0  0  0  0
    3.8793    3.4971   -2.2803 H   0  0  0  0  0  0  0  0  0  0  0  0
    3.0282    2.3253   -3.3281 H   0  0  0  0  0  0  0  0  0  0  0  0
  1 27  1  0  0  0  0
  3 42  1  0  0  0  0
  4 42  2  0  0  0  0
  5 14  1  0  0  0  0
  5  1  1  0  0  0  0
  6  5  2  0  0  0  0
  7  6  1  0  0  0  0
  8 10  2  0  0  0  0
  8  6  1  0  0  0  0
  9  8  1  0  0  0  0
 10 12  1  0  0  0  0
 11 10  1  0  0  0  0
 12 13  1  0  0  0  0
 12 14  2  0  0  0  0
 14 15  1  0  0  0  0
 16 25  1  0  0  0  0
 16  1  1  0  0  0  0
 17 16  2  0  0  0  0
 18 17  1  0  0  0  0
 19 21  2  0  0  0  0
 19 17  1  0  0  0  0
 20 19  1  0  0  0  0
 21 23  1  0  0  0  0
 22 21  1  0  0  0  0
 23 24  1  0  0  0  0
 23 25  2  0  0  0  0
 25 26  1  0  0  0  0
 27 28  2  0  0  0  0
 27 36  1  0  0  0  0
 28 30  1  0  0  0  0
 29 28  1  0  0  0  0
 30 31  1  0  0  0  0
 30 32  2  0  0  0  0
 32 33  1  0  0  0  0
 34 32  1  0  0  0  0
 34 35  1  0  0  0  0
 36 34  2  0  0  0  0
 37 36  1  0  0  0  0
 37 38  1  0  0  0  0
 37  2  1  0  0  0  0
 39  2  1  0  0  0  0
 39 41  1  0  0  0  0
 39 40  1  0  0  0  0
 42 39  1  0  0  0  0
 43  3  1  0  0  0  0
 44 43  1  0  0  0  0
 45 43  1  0  0  0  0
 46 47  1  6  0  0  0
 46 43  1  0  0  0  0
 46  4  1  0  0  0  0
 48 46  1  0  0  0  0
 48 50  1  0  0  0  0
 49 48  1  0  0  0  0
 51 53  1  0  0  0  0
 51 48  1  0  0  0  0
 52 51  1  0  0  0  0
 54 51  1  0  0  0  0
M  END
