1
 OpenBabel05122313113D

 39 41  0  0  0  0  0  0  0  0999 V2000
   -0.3707    0.4205    0.1367 C   0  0  0  0  0  3  0  0  0  0  0  0
    0.5794    1.2782   -0.4370 C   0  0  0  0  0  0  0  0  0  0  0  0
   -1.0295    1.2800    0.9959 N   0  0  0  0  0  0  0  0  0  0  0  0
   -0.5918    2.5380    0.9811 N   0  0  0  0  0  2  0  0  0  0  0  0
    0.3993    2.5233    0.1068 N   0  0  0  0  0  0  0  0  0  0  0  0
    1.1863    3.7288   -0.1268 C   0  0  0  0  0  0  0  0  0  0  0  0
    1.5316    3.7010   -1.1785 H   0  0  0  0  0  0  0  0  0  0  0  0
    2.0671    3.7285    0.5452 H   0  0  0  0  0  0  0  0  0  0  0  0
    0.5474    4.6034    0.0844 H   0  0  0  0  0  0  0  0  0  0  0  0
    1.7626    0.8506   -1.7505 S   0  0  1  0  0  0  0  0  0  0  0  0
    2.1105    2.1340   -2.4948 O   0  0  0  0  0  0  0  0  0  0  0  0
    3.1656    0.5044   -0.6158 C   0  0  0  0  0  0  0  0  0  0  0  0
    4.2664    1.3619   -0.6818 C   0  0  0  0  0  0  0  0  0  0  0  0
    4.2363    2.2182   -1.3738 H   0  0  0  0  0  0  0  0  0  0  0  0
    5.3792    1.0914    0.1307 C   0  0  0  0  0  0  0  0  0  0  0  0
    6.2534    1.7604    0.0917 H   0  0  0  0  0  0  0  0  0  0  0  0
    5.4031   -0.0272    0.9874 C   0  0  0  0  0  0  0  0  0  0  0  0
    4.2751   -0.8797    1.0116 C   0  0  0  0  0  0  0  0  0  0  0  0
    4.2769   -1.7633    1.6693 H   0  0  0  0  0  0  0  0  0  0  0  0
    3.1552   -0.6302    0.2104 C   0  0  0  0  0  0  0  0  0  0  0  0
    2.2795   -1.3005    0.2377 H   0  0  0  0  0  0  0  0  0  0  0  0
    6.6026   -0.3275    1.8491 C   0  0  0  0  0  0  0  0  0  0  0  0
    6.3167   -0.4267    2.9166 H   0  0  0  0  0  0  0  0  0  0  0  0
    7.3720    0.4643    1.7719 H   0  0  0  0  0  0  0  0  0  0  0  0
    7.0741   -1.2885    1.5546 H   0  0  0  0  0  0  0  0  0  0  0  0
   -2.2094    0.9561    1.8147 C   0  0  0  0  0  0  0  0  0  0  0  0
   -2.1778    1.6311    2.6901 H   0  0  0  0  0  0  0  0  0  0  0  0
   -2.0648   -0.0885    2.1478 H   0  0  0  0  0  0  0  0  0  0  0  0
   -3.4972    1.1124    1.0356 C   0  0  0  0  0  0  0  0  0  0  0  0
   -4.0549    0.0125    0.3561 C   0  0  0  0  0  0  0  0  0  0  0  0
   -3.5592   -0.9702    0.4095 H   0  0  0  0  0  0  0  0  0  0  0  0
   -5.2264    0.1717   -0.3990 C   0  0  0  0  0  0  0  0  0  0  0  0
   -5.6548   -0.6934   -0.9268 H   0  0  0  0  0  0  0  0  0  0  0  0
   -5.8465    1.4283   -0.4811 C   0  0  0  0  0  0  0  0  0  0  0  0
   -6.7664    1.5513   -1.0727 H   0  0  0  0  0  0  0  0  0  0  0  0
   -5.2931    2.5288    0.1935 C   0  0  0  0  0  0  0  0  0  0  0  0
   -5.7785    3.5147    0.1336 H   0  0  0  0  0  0  0  0  0  0  0  0
   -4.1216    2.3716    0.9482 C   0  0  0  0  0  0  0  0  0  0  0  0
   -3.6836    3.2346    1.4743 H   0  0  0  0  0  0  0  0  0  0  0  0
  1  3  1  0  0  0  0
  2  5  1  0  0  0  0
  2  1  2  0  0  0  0
  3 26  1  0  0  0  0
  4  3  1  0  0  0  0
  5  4  1  0  0  0  0
  6  9  1  0  0  0  0
  6  5  1  0  0  0  0
  6  8  1  0  0  0  0
  7  6  1  0  0  0  0
 10 11  2  6  0  0  0
 10 12  1  0  0  0  0
 10  2  1  0  0  0  0
 12 20  1  0  0  0  0
 13 12  2  0  0  0  0
 13 15  1  0  0  0  0
 14 13  1  0  0  0  0
 15 17  2  0  0  0  0
 16 15  1  0  0  0  0
 17 18  1  0  0  0  0
 17 22  1  0  0  0  0
 18 19  1  0  0  0  0
 20 21  1  0  0  0  0
 20 18  2  0  0  0  0
 22 23  1  0  0  0  0
 24 22  1  0  0  0  0
 25 22  1  0  0  0  0
 26 28  1  0  0  0  0
 26 27  1  0  0  0  0
 29 26  1  0  0  0  0
 30 31  1  0  0  0  0
 30 29  2  0  0  0  0
 32 30  1  0  0  0  0
 33 32  1  0  0  0  0
 34 32  2  0  0  0  0
 34 36  1  0  0  0  0
 35 34  1  0  0  0  0
 36 38  2  0  0  0  0
 37 36  1  0  0  0  0
 38 29  1  0  0  0  0
 38 39  1  0  0  0  0
M  END
