1
 OpenBabel05122313113D

 46 49  0  0  0  0  0  0  0  0999 V2000
   -0.8023    0.6047    0.1901 C   0  0  0  0  0  3  0  0  0  0  0  0
   -0.0914    1.6118   -0.4833 C   0  0  0  0  0  0  0  0  0  0  0  0
   -1.7854    1.3376    0.8209 N   0  0  0  0  0  0  0  0  0  0  0  0
   -1.7572    2.6486    0.5801 N   0  0  0  0  0  2  0  0  0  0  0  0
   -0.7148    2.8017   -0.2232 N   0  0  0  0  0  0  0  0  0  0  0  0
   -0.3551    4.1375   -0.6880 C   0  0  0  0  0  0  0  0  0  0  0  0
   -1.2507    4.6131   -1.1279 H   0  0  0  0  0  0  0  0  0  0  0  0
    0.4530    4.0150   -1.4349 H   0  0  0  0  0  0  0  0  0  0  0  0
   -0.0001    4.7374    0.1704 H   0  0  0  0  0  0  0  0  0  0  0  0
   -2.8970    0.7971    1.6192 C   0  0  0  0  0  0  0  0  0  0  0  0
   -3.1548    1.5723    2.3649 H   0  0  0  0  0  0  0  0  0  0  0  0
   -2.4911   -0.0924    2.1355 H   0  0  0  0  0  0  0  0  0  0  0  0
   -4.0883    0.4372    0.7579 C   0  0  0  0  0  0  0  0  0  0  0  0
   -5.0393    1.4196    0.4206 C   0  0  0  0  0  0  0  0  0  0  0  0
   -4.9255    2.4435    0.8105 H   0  0  0  0  0  0  0  0  0  0  0  0
   -6.1228    1.0996   -0.4101 C   0  0  0  0  0  0  0  0  0  0  0  0
   -6.8648    1.8714   -0.6654 H   0  0  0  0  0  0  0  0  0  0  0  0
   -6.2613   -0.2048   -0.9120 C   0  0  0  0  0  0  0  0  0  0  0  0
   -7.1122   -0.4566   -1.5633 H   0  0  0  0  0  0  0  0  0  0  0  0
   -5.3143   -1.1868   -0.5813 C   0  0  0  0  0  0  0  0  0  0  0  0
   -5.4164   -2.2098   -0.9734 H   0  0  0  0  0  0  0  0  0  0  0  0
   -4.2303   -0.8685    0.2504 C   0  0  0  0  0  0  0  0  0  0  0  0
   -3.4773   -1.6342    0.4975 H   0  0  0  0  0  0  0  0  0  0  0  0
    1.2519    1.3048   -1.6792 S   0  0  1  0  0  0  0  0  0  0  0  0
    1.6006    2.6121   -2.3726 O   0  0  0  0  0  0  0  0  0  0  0  0
    2.5307    0.8835   -0.4522 C   0  0  0  0  0  0  0  0  0  0  0  0
    3.0236    1.8741    0.4104 C   0  0  0  0  0  0  0  0  0  0  0  0
    4.1224    1.5735    1.2633 C   0  0  0  0  0  0  0  0  0  0  0  0
    4.5246    2.3379    1.9407 H   0  0  0  0  0  0  0  0  0  0  0  0
    4.6804    0.3046    1.2527 C   0  0  0  0  0  0  0  0  0  0  0  0
    5.5240    0.0789    1.9235 H   0  0  0  0  0  0  0  0  0  0  0  0
    4.1860   -0.7287    0.4112 C   0  0  0  0  0  0  0  0  0  0  0  0
    4.7340   -2.0442    0.4373 C   0  0  0  0  0  0  0  0  0  0  0  0
    5.5699   -2.2508    1.1237 H   0  0  0  0  0  0  0  0  0  0  0  0
    4.2149   -3.0449   -0.3674 C   0  0  0  0  0  0  0  0  0  0  0  0
    4.6298   -4.0627   -0.3248 H   0  0  0  0  0  0  0  0  0  0  0  0
    3.1329   -2.7596   -1.2406 C   0  0  0  0  0  0  0  0  0  0  0  0
    2.6975   -3.5615   -1.8536 H   0  0  0  0  0  0  0  0  0  0  0  0
    2.5894   -1.4864   -1.3065 C   0  0  0  0  0  0  0  0  0  0  0  0
    1.7393   -1.2949   -1.9751 H   0  0  0  0  0  0  0  0  0  0  0  0
    3.0871   -0.4349   -0.4809 C   0  0  0  0  0  0  0  0  0  0  0  0
    2.3940    3.0768    0.4038 O   0  0  0  0  0  0  0  0  0  0  0  0
    2.9243    4.1359    1.1832 C   0  0  0  0  0  0  0  0  0  0  0  0
    2.8771    3.9148    2.2721 H   0  0  0  0  0  0  0  0  0  0  0  0
    2.2983    5.0216    0.9686 H   0  0  0  0  0  0  0  0  0  0  0  0
    3.9747    4.3655    0.9024 H   0  0  0  0  0  0  0  0  0  0  0  0
  1  3  1  0  0  0  0
  2  5  1  0  0  0  0
  2  1  2  0  0  0  0
  3 10  1  0  0  0  0
  4  3  1  0  0  0  0
  5  4  1  0  0  0  0
  6  5  1  0  0  0  0
  6  9  1  0  0  0  0
  7  6  1  0  0  0  0
  8  6  1  0  0  0  0
 10 12  1  0  0  0  0
 10 11  1  0  0  0  0
 13 10  1  0  0  0  0
 14 13  1  0  0  0  0
 14 15  1  0  0  0  0
 16 14  2  0  0  0  0
 17 16  1  0  0  0  0
 18 20  2  0  0  0  0
 18 16  1  0  0  0  0
 19 18  1  0  0  0  0
 20 22  1  0  0  0  0
 21 20  1  0  0  0  0
 22 23  1  0  0  0  0
 22 13  2  0  0  0  0
 24 25  2  1  0  0  0
 24  2  1  0  0  0  0
 24 26  1  0  0  0  0
 26 27  1  0  0  0  0
 27 28  2  0  0  0  0
 28 29  1  0  0  0  0
 30 28  1  0  0  0  0
 30 31  1  0  0  0  0
 32 33  1  0  0  0  0
 32 30  2  0  0  0  0
 33 34  1  0  0  0  0
 35 36  1  0  0  0  0
 35 33  2  0  0  0  0
 37 35  1  0  0  0  0
 38 37  1  0  0  0  0
 39 37  2  0  0  0  0
 39 41  1  0  0  0  0
 40 39  1  0  0  0  0
 41 26  2  0  0  0  0
 41 32  1  0  0  0  0
 42 27  1  0  0  0  0
 42 43  1  0  0  0  0
 43 44  1  0  0  0  0
 45 43  1  0  0  0  0
 46 43  1  0  0  0  0
M  END
