3
 OpenBabel05122313113D

 80 83  0  0  0  0  0  0  0  0999 V2000
   -2.2354    0.9171    0.2653 N   0  0  0  0  0  0  0  0  0  0  0  0
   -0.3534    1.9577    0.4235 N   0  0  0  0  0  0  0  0  0  0  0  0
   -0.8877    0.7099    0.1695 C   0  0  0  0  0  2  0  0  0  0  0  0
   -2.5698    2.2251    0.5648 C   0  0  0  0  0  0  0  0  0  0  0  0
   -3.6057    2.5547    0.6752 H   0  0  0  0  0  0  0  0  0  0  0  0
   -1.3739    2.9189    0.6728 C   0  0  0  0  0  0  0  0  0  0  0  0
   -1.0160    4.2675    0.9535 C   0  0  0  0  0  0  0  0  0  0  0  0
   -1.8117    5.0003    1.1456 H   0  0  0  0  0  0  0  0  0  0  0  0
    0.3180    4.6105    0.9737 C   0  0  0  0  0  0  0  0  0  0  0  0
    0.6214    5.6455    1.1869 H   0  0  0  0  0  0  0  0  0  0  0  0
    1.3218    3.6213    0.7163 C   0  0  0  0  0  0  0  0  0  0  0  0
    2.3864    3.8903    0.7314 H   0  0  0  0  0  0  0  0  0  0  0  0
    1.0037    2.3085    0.4442 C   0  0  0  0  0  0  0  0  0  0  0  0
    2.0135    1.2495    0.1745 C   0  0  0  0  0  0  0  0  0  0  0  0
    2.4243    0.9984   -1.1596 C   0  0  0  0  0  0  0  0  0  0  0  0
    3.3864   -0.0008   -1.3841 C   0  0  0  0  0  0  0  0  0  0  0  0
    3.7028   -0.2217   -2.4159 H   0  0  0  0  0  0  0  0  0  0  0  0
    2.5507    0.5018    1.2551 C   0  0  0  0  0  0  0  0  0  0  0  0
    3.5100   -0.4835    0.9743 C   0  0  0  0  0  0  0  0  0  0  0  0
    3.9189   -1.0782    1.8057 H   0  0  0  0  0  0  0  0  0  0  0  0
    1.8280    1.7665   -2.3337 C   0  0  0  0  0  0  0  0  0  0  0  0
    1.0291    2.4246   -1.9309 H   0  0  0  0  0  0  0  0  0  0  0  0
    2.0765    0.7182    2.6880 C   0  0  0  0  0  0  0  0  0  0  0  0
    1.3024    1.5141    2.6679 H   0  0  0  0  0  0  0  0  0  0  0  0
    3.9368   -0.7576   -0.3372 C   0  0  0  0  0  0  0  0  0  0  0  0
    1.1672    0.8246   -3.3530 C   0  0  0  0  0  0  0  0  0  0  0  0
    0.6577    1.4040   -4.1504 H   0  0  0  0  0  0  0  0  0  0  0  0
    0.4190    0.1724   -2.8593 H   0  0  0  0  0  0  0  0  0  0  0  0
    1.9104    0.1619   -3.8413 H   0  0  0  0  0  0  0  0  0  0  0  0
    3.2155    1.2182    3.5913 C   0  0  0  0  0  0  0  0  0  0  0  0
    4.0316    0.4697    3.6601 H   0  0  0  0  0  0  0  0  0  0  0  0
    2.8485    1.4092    4.6207 H   0  0  0  0  0  0  0  0  0  0  0  0
    3.6560    2.1581    3.2014 H   0  0  0  0  0  0  0  0  0  0  0  0
    2.8759    2.6791   -2.9923 C   0  0  0  0  0  0  0  0  0  0  0  0
    3.3046    3.3936   -2.2608 H   0  0  0  0  0  0  0  0  0  0  0  0
    2.4272    3.2621   -3.8229 H   0  0  0  0  0  0  0  0  0  0  0  0
    3.7146    2.0857   -3.4114 H   0  0  0  0  0  0  0  0  0  0  0  0
    1.4117   -0.5484    3.2526 C   0  0  0  0  0  0  0  0  0  0  0  0
    0.5900   -0.8902    2.5920 H   0  0  0  0  0  0  0  0  0  0  0  0
    0.9944   -0.3581    4.2631 H   0  0  0  0  0  0  0  0  0  0  0  0
    2.1351   -1.3849    3.3376 H   0  0  0  0  0  0  0  0  0  0  0  0
    4.9560   -1.8507   -0.6181 C   0  0  0  0  0  0  0  0  0  0  0  0
    5.0268   -1.9409   -1.7241 H   0  0  0  0  0  0  0  0  0  0  0  0
    6.3475   -1.4593   -0.0906 C   0  0  0  0  0  0  0  0  0  0  0  0
    6.3360   -1.3465    1.0139 H   0  0  0  0  0  0  0  0  0  0  0  0
    6.6923   -0.4979   -0.5223 H   0  0  0  0  0  0  0  0  0  0  0  0
    7.0968   -2.2389   -0.3392 H   0  0  0  0  0  0  0  0  0  0  0  0
    4.4999   -3.2122   -0.0685 C   0  0  0  0  0  0  0  0  0  0  0  0
    5.2007   -4.0122   -0.3844 H   0  0  0  0  0  0  0  0  0  0  0  0
    3.4787   -3.4621   -0.4204 H   0  0  0  0  0  0  0  0  0  0  0  0
    4.4813   -3.2105    1.0417 H   0  0  0  0  0  0  0  0  0  0  0  0
   -3.2088   -0.1285    0.0657 C   0  0  0  0  0  0  0  0  0  0  0  0
   -3.6856   -0.3631   -1.2446 C   0  0  0  0  0  0  0  0  0  0  0  0
   -3.6368   -0.8728    1.1890 C   0  0  0  0  0  0  0  0  0  0  0  0
   -3.1350    0.3774   -2.4558 C   0  0  0  0  0  0  0  0  0  0  0  0
   -2.3420    1.0659   -2.1002 H   0  0  0  0  0  0  0  0  0  0  0  0
   -5.1432   -2.0857   -0.3052 C   0  0  0  0  0  0  0  0  0  0  0  0
   -5.9128   -2.8586   -0.4516 H   0  0  0  0  0  0  0  0  0  0  0  0
   -4.0659   -0.3073    3.6263 C   0  0  0  0  0  0  0  0  0  0  0  0
   -4.6042    0.6214    3.3484 H   0  0  0  0  0  0  0  0  0  0  0  0
   -3.5820   -0.1429    4.6105 H   0  0  0  0  0  0  0  0  0  0  0  0
   -4.8227   -1.1079    3.7583 H   0  0  0  0  0  0  0  0  0  0  0  0
   -2.4701   -0.6066   -3.4343 C   0  0  0  0  0  0  0  0  0  0  0  0
   -1.7007   -1.2192   -2.9218 H   0  0  0  0  0  0  0  0  0  0  0  0
   -1.9805   -0.0580   -4.2643 H   0  0  0  0  0  0  0  0  0  0  0  0
   -3.2123   -1.3002   -3.8801 H   0  0  0  0  0  0  0  0  0  0  0  0
   -4.2151    1.2303   -3.1412 C   0  0  0  0  0  0  0  0  0  0  0  0
   -5.0421    0.6010   -3.5304 H   0  0  0  0  0  0  0  0  0  0  0  0
   -3.7862    1.7865   -3.9996 H   0  0  0  0  0  0  0  0  0  0  0  0
   -4.6557    1.9675   -2.4397 H   0  0  0  0  0  0  0  0  0  0  0  0
   -4.6225   -1.8539    0.9736 C   0  0  0  0  0  0  0  0  0  0  0  0
   -4.9770   -2.4562    1.8237 H   0  0  0  0  0  0  0  0  0  0  0  0
   -3.0186   -0.6888    2.5682 C   0  0  0  0  0  0  0  0  0  0  0  0
   -2.2903    0.1449    2.5055 H   0  0  0  0  0  0  0  0  0  0  0  0
   -4.6711   -1.3553   -1.4023 C   0  0  0  0  0  0  0  0  0  0  0  0
   -5.0648   -1.5673   -2.4078 H   0  0  0  0  0  0  0  0  0  0  0  0
   -2.2299   -1.9494    2.9662 C   0  0  0  0  0  0  0  0  0  0  0  0
   -2.9029   -2.8219    3.0955 H   0  0  0  0  0  0  0  0  0  0  0  0
   -1.6932   -1.7891    3.9233 H   0  0  0  0  0  0  0  0  0  0  0  0
   -1.4839   -2.2130    2.1889 H   0  0  0  0  0  0  0  0  0  0  0  0
  1  4  1  0  0  0  0
  2 13  1  0  0  0  0
  2  6  1  0  0  0  0
  3  1  1  0  0  0  0
  3  2  1  0  0  0  0
  4  6  2  0  0  0  0
  4  5  1  0  0  0  0
  6  7  1  0  0  0  0
  7  9  2  0  0  0  0
  7  8  1  0  0  0  0
  9 10  1  0  0  0  0
 11 12  1  0  0  0  0
 11  9  1  0  0  0  0
 13 11  2  0  0  0  0
 14 13  1  0  0  0  0
 14 18  1  0  0  0  0
 15 14  2  0  0  0  0
 16 15  1  0  0  0  0
 16 25  2  0  0  0  0
 17 16  1  0  0  0  0
 18 23  1  0  0  0  0
 19 18  2  0  0  0  0
 19 20  1  0  0  0  0
 21 22  1  0  0  0  0
 21 15  1  0  0  0  0
 23 38  1  0  0  0  0
 23 30  1  0  0  0  0
 24 23  1  0  0  0  0
 25 19  1  0  0  0  0
 26 28  1  0  0  0  0
 26 21  1  0  0  0  0
 27 26  1  0  0  0  0
 29 26  1  0  0  0  0
 30 31  1  0  0  0  0
 30 32  1  0  0  0  0
 33 30  1  0  0  0  0
 34 21  1  0  0  0  0
 34 35  1  0  0  0  0
 36 34  1  0  0  0  0
 37 34  1  0  0  0  0
 38 41  1  0  0  0  0
 38 40  1  0  0  0  0
 39 38  1  0  0  0  0
 42 25  1  0  0  0  0
 42 44  1  0  0  0  0
 42 48  1  0  0  0  0
 43 42  1  0  0  0  0
 44 45  1  0  0  0  0
 46 44  1  0  0  0  0
 47 44  1  0  0  0  0
 48 51  1  0  0  0  0
 49 48  1  0  0  0  0
 50 48  1  0  0  0  0
 52  1  1  0  0  0  0
 52 54  1  0  0  0  0
 53 52  2  0  0  0  0
 54 73  1  0  0  0  0
 55 56  1  0  0  0  0
 55 53  1  0  0  0  0
 57 71  1  0  0  0  0
 58 57  1  0  0  0  0
 59 62  1  0  0  0  0
 59 61  1  0  0  0  0
 60 59  1  0  0  0  0
 63 64  1  0  0  0  0
 63 55  1  0  0  0  0
 65 63  1  0  0  0  0
 66 63  1  0  0  0  0
 67 55  1  0  0  0  0
 67 70  1  0  0  0  0
 68 67  1  0  0  0  0
 69 67  1  0  0  0  0
 71 54  2  0  0  0  0
 71 72  1  0  0  0  0
 73 77  1  0  0  0  0
 73 59  1  0  0  0  0
 74 73  1  0  0  0  0
 75 53  1  0  0  0  0
 75 57  2  0  0  0  0
 76 75  1  0  0  0  0
 77 78  1  0  0  0  0
 77 79  1  0  0  0  0
 80 77  1  0  0  0  0
M  END
