2
 OpenBabel05122313113D

 36 36  0  0  1  0  0  0  0  0999 V2000
    5.3675   -0.6163   -0.3784 N   0  0  0  0  0  0  0  0  0  0  0  0
    1.7584    0.5673    0.0246 C   0  0  2  0  0  3  0  0  0  0  0  0
    1.1203    1.3596   -0.9894 C   0  0  0  0  0  0  0  0  0  0  0  0
    0.1401    2.1890   -0.3561 C   0  0  0  0  0  0  0  0  0  0  0  0
    0.1911    1.9292    1.0628 C   0  0  0  0  0  0  0  0  0  0  0  0
    1.2062    0.9475    1.2922 C   0  0  0  0  0  0  0  0  0  0  0  0
    2.8794   -0.4079   -0.1864 C   0  0  0  0  0  0  0  0  0  0  0  0
    2.7965   -0.8777   -1.1866 H   0  0  0  0  0  0  0  0  0  0  0  0
    2.7792   -1.2300    0.5506 H   0  0  0  0  0  0  0  0  0  0  0  0
    4.2548    0.2685   -0.0672 C   0  0  0  0  0  0  0  0  0  0  0  0
    4.2894    1.1181   -0.7825 H   0  0  0  0  0  0  0  0  0  0  0  0
    4.3560    0.7262    0.9577 H   0  0  0  0  0  0  0  0  0  0  0  0
    1.5128    1.4297   -2.4340 C   0  0  0  0  0  0  0  0  0  0  0  0
    2.2383    2.2576   -2.5924 H   0  0  0  0  0  0  0  0  0  0  0  0
    0.6444    1.6202   -3.0948 H   0  0  0  0  0  0  0  0  0  0  0  0
    1.9841    0.4892   -2.7730 H   0  0  0  0  0  0  0  0  0  0  0  0
   -0.5457    3.3381   -1.0350 C   0  0  0  0  0  0  0  0  0  0  0  0
    0.1480    4.2051   -1.0999 H   0  0  0  0  0  0  0  0  0  0  0  0
   -1.4431    3.6859   -0.4909 H   0  0  0  0  0  0  0  0  0  0  0  0
   -0.8494    3.0933   -2.0703 H   0  0  0  0  0  0  0  0  0  0  0  0
   -0.4377    2.7386    2.1606 C   0  0  0  0  0  0  0  0  0  0  0  0
    0.3476    3.3107    2.7004 H   0  0  0  0  0  0  0  0  0  0  0  0
   -0.9457    2.1102    2.9201 H   0  0  0  0  0  0  0  0  0  0  0  0
   -1.1710    3.4700    1.7786 H   0  0  0  0  0  0  0  0  0  0  0  0
    1.7046    0.5337    2.6429 C   0  0  0  0  0  0  0  0  0  0  0  0
    2.4129    1.2977    3.0323 H   0  0  0  0  0  0  0  0  0  0  0  0
    2.2339   -0.4358    2.6051 H   0  0  0  0  0  0  0  0  0  0  0  0
    0.8833    0.4333    3.3785 H   0  0  0  0  0  0  0  0  0  0  0  0
    6.6025    0.1151   -0.5796 C   0  0  0  0  0  0  0  0  0  0  0  0
    7.4078   -0.5773   -0.9008 H   0  0  0  0  0  0  0  0  0  0  0  0
    6.9652    0.6477    0.3431 H   0  0  0  0  0  0  0  0  0  0  0  0
    6.4709    0.8772   -1.3751 H   0  0  0  0  0  0  0  0  0  0  0  0
    5.5325   -1.6923    0.5808 C   0  0  0  0  0  0  0  0  0  0  0  0
    4.6149   -2.3089    0.6453 H   0  0  0  0  0  0  0  0  0  0  0  0
    5.7730   -1.3277    1.6181 H   0  0  0  0  0  0  0  0  0  0  0  0
    6.3583   -2.3593    0.2601 H   0  0  0  0  0  0  0  0  0  0  0  0
  1 10  1  0  0  0  0
  1 33  1  0  0  0  0
  2  7  1  1  0  0  0
  2  6  1  0  0  0  0
  3  4  2  0  0  0  0
  3  2  1  0  0  0  0
  4  5  1  0  0  0  0
  5  6  2  0  0  0  0
  5 21  1  0  0  0  0
  6 25  1  0  0  0  0
  7 10  1  0  0  0  0
  7  9  1  0  0  0  0
  8  7  1  0  0  0  0
 10 12  1  0  0  0  0
 11 10  1  0  0  0  0
 13  3  1  0  0  0  0
 14 13  1  0  0  0  0
 15 13  1  0  0  0  0
 16 13  1  0  0  0  0
 17 19  1  0  0  0  0
 17  4  1  0  0  0  0
 18 17  1  0  0  0  0
 20 17  1  0  0  0  0
 21 22  1  0  0  0  0
 21 23  1  0  0  0  0
 24 21  1  0  0  0  0
 25 26  1  0  0  0  0
 25 28  1  0  0  0  0
 27 25  1  0  0  0  0
 29  1  1  0  0  0  0
 29 31  1  0  0  0  0
 30 29  1  0  0  0  0
 32 29  1  0  0  0  0
 33 34  1  0  0  0  0
 33 35  1  0  0  0  0
 36 33  1  0  0  0  0
M  END
