32
 OpenBabel05122313113D

 77 79  0  0  0  0  0  0  0  0999 V2000
    2.4356    0.0455   -0.4742 C   0  0  0  0  0  0  0  0  0  0  0  0
    2.9184    1.3752   -0.3873 C   0  0  0  0  0  0  0  0  0  0  0  0
    4.2455    1.5652    0.0340 C   0  0  0  0  0  0  0  0  0  0  0  0
    4.6486    2.5873    0.1075 H   0  0  0  0  0  0  0  0  0  0  0  0
    5.0705    0.4811    0.3735 C   0  0  0  0  0  0  0  0  0  0  0  0
    4.5520   -0.8233    0.3039 C   0  0  0  0  0  0  0  0  0  0  0  0
    5.1911   -1.6708    0.5960 H   0  0  0  0  0  0  0  0  0  0  0  0
    3.2348   -1.0685   -0.1181 C   0  0  0  0  0  0  0  0  0  0  0  0
    2.0170    2.5721   -0.6565 C   0  0  0  0  0  0  0  0  0  0  0  0
    1.0840    2.1867   -1.1172 H   0  0  0  0  0  0  0  0  0  0  0  0
    2.6394    3.5741   -1.6405 C   0  0  0  0  0  0  0  0  0  0  0  0
    3.5519    4.0475   -1.2234 H   0  0  0  0  0  0  0  0  0  0  0  0
    1.9229    4.3901   -1.8653 H   0  0  0  0  0  0  0  0  0  0  0  0
    2.9211    3.0886   -2.5969 H   0  0  0  0  0  0  0  0  0  0  0  0
    1.6221    3.2439    0.6725 C   0  0  0  0  0  0  0  0  0  0  0  0
    1.1460    2.5262    1.3736 H   0  0  0  0  0  0  0  0  0  0  0  0
    0.9088    4.0742    0.4931 H   0  0  0  0  0  0  0  0  0  0  0  0
    2.5134    3.6653    1.1821 H   0  0  0  0  0  0  0  0  0  0  0  0
    6.5231    0.6986    0.7302 C   0  0  0  0  0  0  0  0  0  0  0  0
    6.6772    1.6932    1.1874 H   0  0  0  0  0  0  0  0  0  0  0  0
    6.8617   -0.0652    1.4659 H   0  0  0  0  0  0  0  0  0  0  0  0
    2.6539   -2.4751   -0.0861 C   0  0  0  0  0  0  0  0  0  0  0  0
    1.7658   -2.4829   -0.7524 H   0  0  0  0  0  0  0  0  0  0  0  0
    3.6268   -3.5484   -0.5929 C   0  0  0  0  0  0  0  0  0  0  0  0
    4.4901   -3.6786    0.0915 H   0  0  0  0  0  0  0  0  0  0  0  0
    4.0283   -3.2995   -1.5958 H   0  0  0  0  0  0  0  0  0  0  0  0
    3.1167   -4.5307   -0.6563 H   0  0  0  0  0  0  0  0  0  0  0  0
    2.1546   -2.7845    1.3385 C   0  0  0  0  0  0  0  0  0  0  0  0
    2.9988   -2.7878    2.0581 H   0  0  0  0  0  0  0  0  0  0  0  0
    1.6586   -3.7756    1.3800 H   0  0  0  0  0  0  0  0  0  0  0  0
    1.4275   -2.0169    1.6796 H   0  0  0  0  0  0  0  0  0  0  0  0
    0.0106   -0.2263   -0.1615 C   0  0  0  0  0  2  0  0  0  0  0  0
    0.8005   -0.3768   -2.3836 C   0  0  0  0  0  0  0  0  0  0  0  0
    1.2258    0.4498   -2.9884 H   0  0  0  0  0  0  0  0  0  0  0  0
    1.2533   -1.3261   -2.7438 H   0  0  0  0  0  0  0  0  0  0  0  0
    1.1048   -0.1788   -0.9521 N   0  0  0  0  0  0  0  0  0  0  0  0
    7.4096    0.6714   -0.4567 N   0  0  0  0  0  0  0  0  0  0  0  0
    7.3506   -0.3126   -1.1936 N   0  0  0  0  0  4  0  0  0  0  0  0
    7.3836   -1.1717   -1.9631 N   0  0  0  0  0  2  0  0  0  0  0  0
   -2.4180   -0.4000   -0.4741 C   0  0  0  0  0  0  0  0  0  0  0  0
   -3.0864   -1.6347   -0.2702 C   0  0  0  0  0  0  0  0  0  0  0  0
   -4.4275   -1.5994    0.1419 C   0  0  0  0  0  0  0  0  0  0  0  0
   -4.9750   -2.5412    0.2960 H   0  0  0  0  0  0  0  0  0  0  0  0
   -5.0869   -0.3805    0.3793 C   0  0  0  0  0  0  0  0  0  0  0  0
   -4.3848    0.8223    0.2077 C   0  0  0  0  0  0  0  0  0  0  0  0
   -4.8923    1.7764    0.4209 H   0  0  0  0  0  0  0  0  0  0  0  0
   -3.0473    0.8438   -0.2273 C   0  0  0  0  0  0  0  0  0  0  0  0
   -2.3218   -2.9467   -0.3799 C   0  0  0  0  0  0  0  0  0  0  0  0
   -1.5031   -2.7908   -1.1142 H   0  0  0  0  0  0  0  0  0  0  0  0
   -3.1705   -4.1248   -0.8716 C   0  0  0  0  0  0  0  0  0  0  0  0
   -3.9462   -4.4117   -0.1322 H   0  0  0  0  0  0  0  0  0  0  0  0
   -2.5327   -5.0176   -1.0289 H   0  0  0  0  0  0  0  0  0  0  0  0
   -3.6821   -3.8934   -1.8275 H   0  0  0  0  0  0  0  0  0  0  0  0
   -1.6592   -3.2536    0.9781 C   0  0  0  0  0  0  0  0  0  0  0  0
   -1.0351   -2.4025    1.3212 H   0  0  0  0  0  0  0  0  0  0  0  0
   -1.0153   -4.1547    0.9126 H   0  0  0  0  0  0  0  0  0  0  0  0
   -2.4304   -3.4339    1.7548 H   0  0  0  0  0  0  0  0  0  0  0  0
   -6.5553   -0.3511    0.7363 C   0  0  0  0  0  0  0  0  0  0  0  0
   -6.8653   -1.2897    1.2311 H   0  0  0  0  0  0  0  0  0  0  0  0
   -6.7678    0.4855    1.4392 H   0  0  0  0  0  0  0  0  0  0  0  0
   -2.3319    2.1769   -0.3989 C   0  0  0  0  0  0  0  0  0  0  0  0
   -1.2852    1.9613   -0.6958 H   0  0  0  0  0  0  0  0  0  0  0  0
   -2.9743    3.0102   -1.5218 C   0  0  0  0  0  0  0  0  0  0  0  0
   -4.0273    3.2680   -1.2858 H   0  0  0  0  0  0  0  0  0  0  0  0
   -2.9811    2.4619   -2.4862 H   0  0  0  0  0  0  0  0  0  0  0  0
   -2.4207    3.9601   -1.6680 H   0  0  0  0  0  0  0  0  0  0  0  0
   -2.2682    2.9509    0.9296 C   0  0  0  0  0  0  0  0  0  0  0  0
   -3.2820    3.2246    1.2880 H   0  0  0  0  0  0  0  0  0  0  0  0
   -1.6970    3.8923    0.7979 H   0  0  0  0  0  0  0  0  0  0  0  0
   -1.7699    2.3567    1.7240 H   0  0  0  0  0  0  0  0  0  0  0  0
   -0.7424   -0.4052   -2.3927 C   0  0  0  0  0  0  0  0  0  0  0  0
   -1.1600   -1.2950   -2.9064 H   0  0  0  0  0  0  0  0  0  0  0  0
   -1.1875    0.4974   -2.8649 H   0  0  0  0  0  0  0  0  0  0  0  0
   -1.0681   -0.4270   -0.9520 N   0  0  0  0  0  0  0  0  0  0  0  0
   -7.4272   -0.2296   -0.4561 N   0  0  0  0  0  0  0  0  0  0  0  0
   -7.2156    0.7063   -1.2265 N   0  0  0  0  0  4  0  0  0  0  0  0
   -7.1131    1.5331   -2.0249 N   0  0  0  0  0  2  0  0  0  0  0  0
  1  2  2  0  0  0  0
  1  8  1  0  0  0  0
  2  3  1  0  0  0  0
  3  4  1  0  0  0  0
  3  5  2  0  0  0  0
  5 19  1  0  0  0  0
  6  5  1  0  0  0  0
  6  7  1  0  0  0  0
  8 22  1  0  0  0  0
  8  6  2  0  0  0  0
  9  2  1  0  0  0  0
  9 15  1  0  0  0  0
 10  9  1  0  0  0  0
 11 12  1  0  0  0  0
 11  9  1  0  0  0  0
 13 11  1  0  0  0  0
 14 11  1  0  0  0  0
 15 18  1  0  0  0  0
 15 16  1  0  0  0  0
 17 15  1  0  0  0  0
 19 20  1  0  0  0  0
 19 21  1  0  0  0  0
 22 28  1  0  0  0  0
 23 22  1  0  0  0  0
 24 22  1  0  0  0  0
 24 25  1  0  0  0  0
 26 24  1  0  0  0  0
 27 24  1  0  0  0  0
 28 30  1  0  0  0  0
 28 31  1  0  0  0  0
 28 29  1  0  0  0  0
 33 36  1  0  0  0  0
 34 33  1  0  0  0  0
 35 33  1  0  0  0  0
 36  1  1  0  0  0  0
 36 32  1  0  0  0  0
 37 19  1  0  0  0  0
 38 37  2  0  0  0  0
 39 38  2  0  0  0  0
 40 41  2  0  0  0  0
 40 47  1  0  0  0  0
 41 42  1  0  0  0  0
 42 43  1  0  0  0  0
 42 44  2  0  0  0  0
 44 58  1  0  0  0  0
 45 44  1  0  0  0  0
 45 46  1  0  0  0  0
 47 45  2  0  0  0  0
 48 41  1  0  0  0  0
 48 54  1  0  0  0  0
 49 48  1  0  0  0  0
 50 48  1  0  0  0  0
 50 51  1  0  0  0  0
 52 50  1  0  0  0  0
 53 50  1  0  0  0  0
 54 55  1  0  0  0  0
 54 57  1  0  0  0  0
 56 54  1  0  0  0  0
 58 59  1  0  0  0  0
 58 60  1  0  0  0  0
 61 47  1  0  0  0  0
 61 67  1  0  0  0  0
 62 61  1  0  0  0  0
 63 64  1  0  0  0  0
 63 61  1  0  0  0  0
 65 63  1  0  0  0  0
 66 63  1  0  0  0  0
 67 68  1  0  0  0  0
 67 70  1  0  0  0  0
 69 67  1  0  0  0  0
 71 33  1  0  0  0  0
 71 74  1  0  0  0  0
 72 71  1  0  0  0  0
 73 71  1  0  0  0  0
 74 40  1  0  0  0  0
 74 32  1  0  0  0  0
 75 58  1  0  0  0  0
 76 75  2  0  0  0  0
 77 76  2  0  0  0  0
M  END
