14
 OpenBabel05122313113D

 48 50  0  0  1  0  0  0  0  0999 V2000
    2.4928   -0.4326   -0.9547 N   0  0  0  0  0  0  0  0  0  0  0  0
    3.9503   -0.5577   -1.1196 C   0  0  2  0  0  0  0  0  0  0  0  0
    4.1608   -2.0790   -1.3819 C   0  0  0  0  0  0  0  0  0  0  0  0
    2.8982   -2.6828   -0.9930 O   0  0  0  0  0  0  0  0  0  0  0  0
    2.0525   -1.6276   -0.8479 C   0  0  0  0  0  0  0  0  0  0  0  0
    4.7358    0.0156    0.1009 C   0  0  0  0  0  0  0  0  0  0  0  0
    4.4493   -0.7985    1.3745 C   0  0  0  0  0  0  0  0  0  0  0  0
    6.2372   -0.0259   -0.2349 C   0  0  0  0  0  0  0  0  0  0  0  0
    4.2942    1.4724    0.3247 C   0  0  0  0  0  0  0  0  0  0  0  0
    0.7267   -2.0000   -0.6076 N   0  0  0  0  0  0  0  0  0  0  0  0
    0.2541   -3.3173   -0.6797 C   0  0  0  0  0  0  0  0  0  0  0  0
   -1.0842   -3.2495   -0.4315 C   0  0  0  0  0  0  0  0  0  0  0  0
   -1.3957   -1.9028   -0.2142 N   0  0  0  0  0  0  0  0  0  0  0  0
   -0.2892   -1.0996   -0.3048 C   0  0  0  0  0  2  0  0  0  0  0  0
   -2.7372   -1.4175   -0.0289 C   0  0  0  0  0  0  0  0  0  0  0  0
   -3.2204   -1.1792    1.2766 C   0  0  0  0  0  0  0  0  0  0  0  0
   -4.5328   -0.6881    1.3975 C   0  0  0  0  0  0  0  0  0  0  0  0
   -5.3521   -0.4476    0.2782 C   0  0  0  0  0  0  0  0  0  0  0  0
   -4.8373   -0.7302   -1.0003 C   0  0  0  0  0  0  0  0  0  0  0  0
   -3.5314   -1.2207   -1.1800 C   0  0  0  0  0  0  0  0  0  0  0  0
   -2.3638   -1.4381    2.4825 C   0  0  0  0  0  0  0  0  0  0  0  0
   -6.7409    0.1143    0.4513 C   0  0  0  0  0  0  0  0  0  0  0  0
   -2.9868   -1.5133   -2.5554 C   0  0  0  0  0  0  0  0  0  0  0  0
    4.2559    0.0354   -2.0085 H   0  0  0  0  0  0  0  0  0  0  0  0
    4.9611   -2.5417   -0.7739 H   0  0  0  0  0  0  0  0  0  0  0  0
    4.3364   -2.3135   -2.4525 H   0  0  0  0  0  0  0  0  0  0  0  0
    5.0064   -0.3670    2.2308 H   0  0  0  0  0  0  0  0  0  0  0  0
    3.3715   -0.7660    1.6350 H   0  0  0  0  0  0  0  0  0  0  0  0
    4.7674   -1.8577    1.2807 H   0  0  0  0  0  0  0  0  0  0  0  0
    6.8295    0.3943    0.6028 H   0  0  0  0  0  0  0  0  0  0  0  0
    6.6022   -1.0606   -0.4061 H   0  0  0  0  0  0  0  0  0  0  0  0
    6.4660    0.5711   -1.1429 H   0  0  0  0  0  0  0  0  0  0  0  0
    4.9019    1.9381    1.1270 H   0  0  0  0  0  0  0  0  0  0  0  0
    4.4209    2.0787   -0.5969 H   0  0  0  0  0  0  0  0  0  0  0  0
    3.2304    1.5083    0.6286 H   0  0  0  0  0  0  0  0  0  0  0  0
    0.9225   -4.1536   -0.8943 H   0  0  0  0  0  0  0  0  0  0  0  0
   -1.8481   -4.0305   -0.3805 H   0  0  0  0  0  0  0  0  0  0  0  0
   -4.9266   -0.4902    2.4074 H   0  0  0  0  0  0  0  0  0  0  0  0
   -5.4675   -0.5606   -1.8881 H   0  0  0  0  0  0  0  0  0  0  0  0
   -2.9470   -1.3266    3.4157 H   0  0  0  0  0  0  0  0  0  0  0  0
   -1.9296   -2.4588    2.4619 H   0  0  0  0  0  0  0  0  0  0  0  0
   -1.4981   -0.7385    2.5196 H   0  0  0  0  0  0  0  0  0  0  0  0
   -7.3489   -0.0029   -0.4665 H   0  0  0  0  0  0  0  0  0  0  0  0
   -7.2774   -0.3781    1.2873 H   0  0  0  0  0  0  0  0  0  0  0  0
   -6.7025    1.1989    0.6893 H   0  0  0  0  0  0  0  0  0  0  0  0
   -3.6866   -1.1714   -3.3408 H   0  0  0  0  0  0  0  0  0  0  0  0
   -2.0098   -1.0131   -2.7188 H   0  0  0  0  0  0  0  0  0  0  0  0
   -2.8121   -2.5994   -2.7060 H   0  0  0  0  0  0  0  0  0  0  0  0
  1  5  2  0  0  0  0
  2 24  1  6  0  0  0
  2  1  1  0  0  0  0
  2  6  1  0  0  0  0
  3  2  1  0  0  0  0
  3  4  1  0  0  0  0
  3 25  1  0  0  0  0
  4  5  1  0  0  0  0
  5 10  1  0  0  0  0
  6  9  1  0  0  0  0
  6  7  1  0  0  0  0
  7 28  1  0  0  0  0
  7 27  1  0  0  0  0
  8  6  1  0  0  0  0
  8 30  1  0  0  0  0
  9 35  1  0  0  0  0
  9 33  1  0  0  0  0
 10 14  1  0  0  0  0
 11 10  1  0  0  0  0
 11 12  2  0  0  0  0
 12 37  1  0  0  0  0
 12 13  1  0  0  0  0
 13 15  1  0  0  0  0
 14 13  1  0  0  0  0
 15 16  1  0  0  0  0
 16 17  2  0  0  0  0
 16 21  1  0  0  0  0
 17 38  1  0  0  0  0
 18 22  1  0  0  0  0
 18 17  1  0  0  0  0
 19 18  2  0  0  0  0
 20 19  1  0  0  0  0
 20 15  2  0  0  0  0
 21 42  1  0  0  0  0
 21 40  1  0  0  0  0
 22 45  1  0  0  0  0
 22 44  1  0  0  0  0
 23 20  1  0  0  0  0
 26  3  1  0  0  0  0
 29  7  1  0  0  0  0
 31  8  1  0  0  0  0
 32  8  1  0  0  0  0
 34  9  1  0  0  0  0
 36 11  1  0  0  0  0
 39 19  1  0  0  0  0
 41 21  1  0  0  0  0
 43 22  1  0  0  0  0
 46 23  1  0  0  0  0
 47 23  1  0  0  0  0
 48 23  1  0  0  0  0
M  END
