3
 OpenBabel05122313113D

 69 71  0  0  0  0  0  0  0  0999 V2000
    1.4383   -0.0037   -1.2310 N   0  0  0  0  0  0  0  0  0  0  0  0
   -0.7448   -0.0739   -1.3095 N   0  0  0  0  0  0  0  0  0  0  0  0
    0.3188   -0.0244   -0.4799 C   0  0  0  0  0  2  0  0  0  0  0  0
    1.1615   -0.1589   -2.6747 C   0  0  0  0  0  0  0  0  0  0  0  0
    1.4795   -1.1714   -3.0082 H   0  0  0  0  0  0  0  0  0  0  0  0
    1.7262    0.5876   -3.2675 H   0  0  0  0  0  0  0  0  0  0  0  0
   -0.3635    0.0370   -2.7340 C   0  0  0  0  0  0  0  0  0  0  0  0
   -0.6549    1.0387   -3.1203 H   0  0  0  0  0  0  0  0  0  0  0  0
   -0.8840   -0.7277   -3.3439 H   0  0  0  0  0  0  0  0  0  0  0  0
   -2.6643    1.2684   -0.5569 C   0  0  0  0  0  0  0  0  0  0  0  0
   -2.1090    0.0061   -0.8818 C   0  0  0  0  0  0  0  0  0  0  0  0
   -2.8641   -1.1925   -0.8094 C   0  0  0  0  0  0  0  0  0  0  0  0
   -4.2068   -1.1040   -0.4182 C   0  0  0  0  0  0  0  0  0  0  0  0
   -4.8211   -2.0117   -0.3437 H   0  0  0  0  0  0  0  0  0  0  0  0
   -4.7973    0.1407   -0.0981 C   0  0  0  0  0  0  0  0  0  0  0  0
   -4.0117    1.3118   -0.1657 C   0  0  0  0  0  0  0  0  0  0  0  0
   -4.4742    2.2730    0.1012 H   0  0  0  0  0  0  0  0  0  0  0  0
   -1.8445    2.5525   -0.5950 C   0  0  0  0  0  0  0  0  0  0  0  0
   -0.8190    2.2878   -0.9243 H   0  0  0  0  0  0  0  0  0  0  0  0
   -1.7161    3.1689    0.8085 C   0  0  0  0  0  0  0  0  0  0  0  0
   -1.0602    4.0627    0.7814 H   0  0  0  0  0  0  0  0  0  0  0  0
   -1.2803    2.4447    1.5275 H   0  0  0  0  0  0  0  0  0  0  0  0
   -2.7031    3.4852    1.2040 H   0  0  0  0  0  0  0  0  0  0  0  0
   -2.4129    3.5582   -1.6106 C   0  0  0  0  0  0  0  0  0  0  0  0
   -3.4315    3.8921   -1.3245 H   0  0  0  0  0  0  0  0  0  0  0  0
   -2.4800    3.1197   -2.6272 H   0  0  0  0  0  0  0  0  0  0  0  0
   -1.7706    4.4607   -1.6653 H   0  0  0  0  0  0  0  0  0  0  0  0
   -2.2051   -2.5442   -1.0565 C   0  0  0  0  0  0  0  0  0  0  0  0
   -1.3247   -2.3658   -1.7096 H   0  0  0  0  0  0  0  0  0  0  0  0
   -1.6722   -3.1150    0.2720 C   0  0  0  0  0  0  0  0  0  0  0  0
   -2.5063   -3.3109    0.9764 H   0  0  0  0  0  0  0  0  0  0  0  0
   -0.9790   -2.4070    0.7710 H   0  0  0  0  0  0  0  0  0  0  0  0
   -1.1312   -4.0688    0.1024 H   0  0  0  0  0  0  0  0  0  0  0  0
   -3.1171   -3.5484   -1.7733 C   0  0  0  0  0  0  0  0  0  0  0  0
   -3.9697   -3.8593   -1.1356 H   0  0  0  0  0  0  0  0  0  0  0  0
   -2.5515   -4.4684   -2.0240 H   0  0  0  0  0  0  0  0  0  0  0  0
   -3.5317   -3.1304   -2.7128 H   0  0  0  0  0  0  0  0  0  0  0  0
   -6.1702    0.2102    0.2950 C   0  0  0  0  0  0  0  0  0  0  0  0
   -7.3473    0.2692    0.6311 C   0  0  0  0  0  0  0  0  0  0  0  0
   -8.3839    0.3213    0.9328 H   0  0  0  0  0  0  0  0  0  0  0  0
    2.7698   -0.0576   -0.7019 C   0  0  0  0  0  0  0  0  0  0  0  0
    3.5008    1.1527   -0.5984 C   0  0  0  0  0  0  0  0  0  0  0  0
    4.8107    1.0849   -0.0919 C   0  0  0  0  0  0  0  0  0  0  0  0
    5.4011    2.0071    0.0112 H   0  0  0  0  0  0  0  0  0  0  0  0
    5.3684   -0.1402    0.2979 C   0  0  0  0  0  0  0  0  0  0  0  0
    6.3938   -0.1726    0.6964 H   0  0  0  0  0  0  0  0  0  0  0  0
    3.3080   -1.3067   -0.3074 C   0  0  0  0  0  0  0  0  0  0  0  0
    2.5030   -2.5982   -0.3804 C   0  0  0  0  0  0  0  0  0  0  0  0
    1.5105   -2.3548   -0.8120 H   0  0  0  0  0  0  0  0  0  0  0  0
    4.6231   -1.3200    0.1953 C   0  0  0  0  0  0  0  0  0  0  0  0
    5.0666   -2.2734    0.5204 H   0  0  0  0  0  0  0  0  0  0  0  0
    3.1682   -3.6324   -1.3042 C   0  0  0  0  0  0  0  0  0  0  0  0
    4.1583   -3.9470   -0.9149 H   0  0  0  0  0  0  0  0  0  0  0  0
    3.3256   -3.2276   -2.3249 H   0  0  0  0  0  0  0  0  0  0  0  0
    2.5399   -4.5428   -1.3866 H   0  0  0  0  0  0  0  0  0  0  0  0
    2.2479   -3.1692    1.0252 C   0  0  0  0  0  0  0  0  0  0  0  0
    3.1961   -3.4620    1.5211 H   0  0  0  0  0  0  0  0  0  0  0  0
    1.6027   -4.0696    0.9691 H   0  0  0  0  0  0  0  0  0  0  0  0
    1.7437   -2.4244    1.6750 H   0  0  0  0  0  0  0  0  0  0  0  0
    2.8510    2.4895   -0.9332 C   0  0  0  0  0  0  0  0  0  0  0  0
    2.0070    2.2825   -1.6248 H   0  0  0  0  0  0  0  0  0  0  0  0
    2.2461    3.1115    0.3402 C   0  0  0  0  0  0  0  0  0  0  0  0
    1.5284    2.4203    0.8283 H   0  0  0  0  0  0  0  0  0  0  0  0
    1.7134    4.0559    0.1043 H   0  0  0  0  0  0  0  0  0  0  0  0
    3.0401    3.3383    1.0808 H   0  0  0  0  0  0  0  0  0  0  0  0
    3.7981    3.4678   -1.6411 C   0  0  0  0  0  0  0  0  0  0  0  0
    4.2578    3.0153   -2.5428 H   0  0  0  0  0  0  0  0  0  0  0  0
    4.6192    3.8018   -0.9743 H   0  0  0  0  0  0  0  0  0  0  0  0
    3.2473    4.3780   -1.9534 H   0  0  0  0  0  0  0  0  0  0  0  0
  1 41  1  0  0  0  0
  1  3  1  0  0  0  0
  2 11  1  0  0  0  0
  2  3  1  0  0  0  0
  4  1  1  0  0  0  0
  5  4  1  0  0  0  0
  6  4  1  0  0  0  0
  7  4  1  0  0  0  0
  7  2  1  0  0  0  0
  8  7  1  0  0  0  0
  9  7  1  0  0  0  0
 10 16  1  0  0  0  0
 11 12  1  0  0  0  0
 11 10  2  0  0  0  0
 12 13  2  0  0  0  0
 13 14  1  0  0  0  0
 13 15  1  0  0  0  0
 15 38  1  0  0  0  0
 16 15  2  0  0  0  0
 16 17  1  0  0  0  0
 18 10  1  0  0  0  0
 18 20  1  0  0  0  0
 19 18  1  0  0  0  0
 20 23  1  0  0  0  0
 20 22  1  0  0  0  0
 21 20  1  0  0  0  0
 24 25  1  0  0  0  0
 24 18  1  0  0  0  0
 26 24  1  0  0  0  0
 27 24  1  0  0  0  0
 28 12  1  0  0  0  0
 28 30  1  0  0  0  0
 29 28  1  0  0  0  0
 30 32  1  0  0  0  0
 30 31  1  0  0  0  0
 33 30  1  0  0  0  0
 34 35  1  0  0  0  0
 34 28  1  0  0  0  0
 36 34  1  0  0  0  0
 37 34  1  0  0  0  0
 38 39  3  0  0  0  0
 39 40  1  0  0  0  0
 41 42  2  0  0  0  0
 41 47  1  0  0  0  0
 42 43  1  0  0  0  0
 43 44  1  0  0  0  0
 43 45  2  0  0  0  0
 45 46  1  0  0  0  0
 47 50  2  0  0  0  0
 48 47  1  0  0  0  0
 48 56  1  0  0  0  0
 49 48  1  0  0  0  0
 50 45  1  0  0  0  0
 50 51  1  0  0  0  0
 52 53  1  0  0  0  0
 52 48  1  0  0  0  0
 54 52  1  0  0  0  0
 55 52  1  0  0  0  0
 56 57  1  0  0  0  0
 56 59  1  0  0  0  0
 58 56  1  0  0  0  0
 60 42  1  0  0  0  0
 60 62  1  0  0  0  0
 61 60  1  0  0  0  0
 62 63  1  0  0  0  0
 62 65  1  0  0  0  0
 64 62  1  0  0  0  0
 66 68  1  0  0  0  0
 66 60  1  0  0  0  0
 67 66  1  0  0  0  0
 69 66  1  0  0  0  0
M  END
