4
 OpenBabel05122313113D

 61 63  0  0  0  0  0  0  0  0999 V2000
    1.4604    1.2991   -0.3377 N   0  0  0  0  0  0  0  0  0  0  0  0
    1.1666    2.5475   -0.7056 N   0  0  0  0  0  2  0  0  0  0  0  0
   -0.1582    2.5672   -0.7041 N   0  0  0  0  0  0  0  0  0  0  0  0
    0.3703    0.4843   -0.0999 C   0  0  0  0  0  3  0  0  0  0  0  0
   -0.7171    1.3569   -0.3411 C   0  0  0  0  0  0  0  0  0  0  0  0
    2.8468    0.9132   -0.2292 C   0  0  0  0  0  0  0  0  0  0  0  0
    3.4405    0.2462   -1.3229 C   0  0  0  0  0  0  0  0  0  0  0  0
    4.7904   -0.1277   -1.1855 C   0  0  0  0  0  0  0  0  0  0  0  0
    5.4996    0.1487   -0.0112 C   0  0  0  0  0  0  0  0  0  0  0  0
    4.8738    0.8026    1.0581 C   0  0  0  0  0  0  0  0  0  0  0  0
    3.5275    1.2011    0.9761 C   0  0  0  0  0  0  0  0  0  0  0  0
    2.6772   -0.0660   -2.6024 C   0  0  0  0  0  0  0  0  0  0  0  0
    3.2320    0.7462   -3.7854 C   0  0  0  0  0  0  0  0  0  0  0  0
    2.6614   -1.5764   -2.8896 C   0  0  0  0  0  0  0  0  0  0  0  0
    2.8175    1.8306    2.1672 C   0  0  0  0  0  0  0  0  0  0  0  0
    3.6635    2.9010    2.8714 C   0  0  0  0  0  0  0  0  0  0  0  0
    2.3641    0.7287    3.1442 C   0  0  0  0  0  0  0  0  0  0  0  0
   -0.8165    3.7975   -1.1193 C   0  0  0  0  0  0  0  0  0  0  0  0
   -2.1556    1.0846   -0.2609 C   0  0  0  0  0  0  0  0  0  0  0  0
   -3.0861    2.0222    0.2362 C   0  0  0  0  0  0  0  0  0  0  0  0
   -4.4499    1.7080    0.3195 C   0  0  0  0  0  0  0  0  0  0  0  0
   -4.9420    0.4494   -0.0785 C   0  0  0  0  0  0  0  0  0  0  0  0
   -3.9992   -0.4872   -0.5615 C   0  0  0  0  0  0  0  0  0  0  0  0
   -2.6396   -0.1860   -0.6530 C   0  0  0  0  0  0  0  0  0  0  0  0
   -6.4283    0.0675    0.0080 C   0  0  0  0  0  0  0  0  0  0  0  0
   -7.2927    1.2163    0.5552 C   0  0  0  0  0  0  0  0  0  0  0  0
   -6.9388   -0.2992   -1.4046 C   0  0  0  0  0  0  0  0  0  0  0  0
   -6.5806   -1.1516    0.9468 C   0  0  0  0  0  0  0  0  0  0  0  0
    5.2902   -0.6505   -2.0147 H   0  0  0  0  0  0  0  0  0  0  0  0
    6.5534   -0.1563    0.0763 H   0  0  0  0  0  0  0  0  0  0  0  0
    5.4392    1.0007    1.9803 H   0  0  0  0  0  0  0  0  0  0  0  0
    1.6232    0.2429   -2.4525 H   0  0  0  0  0  0  0  0  0  0  0  0
    4.2882    0.4801   -3.9976 H   0  0  0  0  0  0  0  0  0  0  0  0
    3.1940    1.8348   -3.5787 H   0  0  0  0  0  0  0  0  0  0  0  0
    2.6450    0.5461   -4.7050 H   0  0  0  0  0  0  0  0  0  0  0  0
    2.2329   -2.1377   -2.0345 H   0  0  0  0  0  0  0  0  0  0  0  0
    3.6819   -1.9667   -3.0821 H   0  0  0  0  0  0  0  0  0  0  0  0
    2.0468   -1.7912   -3.7873 H   0  0  0  0  0  0  0  0  0  0  0  0
    1.9069    2.3368    1.7865 H   0  0  0  0  0  0  0  0  0  0  0  0
    4.0062    3.6818    2.1631 H   0  0  0  0  0  0  0  0  0  0  0  0
    4.5598    2.4650    3.3582 H   0  0  0  0  0  0  0  0  0  0  0  0
    3.0708    3.3930    3.6688 H   0  0  0  0  0  0  0  0  0  0  0  0
    1.7906    1.1642    3.9880 H   0  0  0  0  0  0  0  0  0  0  0  0
    3.2406    0.1932    3.5635 H   0  0  0  0  0  0  0  0  0  0  0  0
    1.7243   -0.0219    2.6363 H   0  0  0  0  0  0  0  0  0  0  0  0
   -0.1195    4.3471   -1.7757 H   0  0  0  0  0  0  0  0  0  0  0  0
   -1.0678    4.4251   -0.2424 H   0  0  0  0  0  0  0  0  0  0  0  0
   -1.7434    3.5443   -1.6646 H   0  0  0  0  0  0  0  0  0  0  0  0
   -2.7469    2.9999    0.6077 H   0  0  0  0  0  0  0  0  0  0  0  0
   -5.1348    2.4657    0.7227 H   0  0  0  0  0  0  0  0  0  0  0  0
   -4.3323   -1.4879   -0.8750 H   0  0  0  0  0  0  0  0  0  0  0  0
   -1.9282   -0.9406   -1.0209 H   0  0  0  0  0  0  0  0  0  0  0  0
   -6.9927    1.5062    1.5824 H   0  0  0  0  0  0  0  0  0  0  0  0
   -8.3538    0.8989    0.5969 H   0  0  0  0  0  0  0  0  0  0  0  0
   -7.2401    2.1169   -0.0896 H   0  0  0  0  0  0  0  0  0  0  0  0
   -8.0092   -0.5881   -1.3633 H   0  0  0  0  0  0  0  0  0  0  0  0
   -6.3777   -1.1503   -1.8382 H   0  0  0  0  0  0  0  0  0  0  0  0
   -6.8404    0.5602   -2.0983 H   0  0  0  0  0  0  0  0  0  0  0  0
   -6.2179   -0.9143    1.9671 H   0  0  0  0  0  0  0  0  0  0  0  0
   -6.0097   -2.0281    0.5823 H   0  0  0  0  0  0  0  0  0  0  0  0
   -7.6468   -1.4497    1.0194 H   0  0  0  0  0  0  0  0  0  0  0  0
  1  6  1  0  0  0  0
  1  4  1  0  0  0  0
  2  3  1  0  0  0  0
  2  1  1  0  0  0  0
  3  5  1  0  0  0  0
  5 19  1  0  0  0  0
  5  4  2  0  0  0  0
  6 11  1  0  0  0  0
  7  8  1  0  0  0  0
  7  6  2  0  0  0  0
  8  9  2  0  0  0  0
  9 30  1  0  0  0  0
  9 10  1  0  0  0  0
 10 31  1  0  0  0  0
 11 10  2  0  0  0  0
 11 15  1  0  0  0  0
 12 32  1  0  0  0  0
 12  7  1  0  0  0  0
 13 34  1  0  0  0  0
 13 12  1  0  0  0  0
 14 12  1  0  0  0  0
 14 36  1  0  0  0  0
 15 16  1  0  0  0  0
 15 17  1  0  0  0  0
 16 41  1  0  0  0  0
 16 42  1  0  0  0  0
 17 44  1  0  0  0  0
 17 43  1  0  0  0  0
 18  3  1  0  0  0  0
 18 47  1  0  0  0  0
 19 20  1  0  0  0  0
 20 21  2  0  0  0  0
 20 49  1  0  0  0  0
 21 50  1  0  0  0  0
 22 25  1  0  0  0  0
 22 21  1  0  0  0  0
 23 22  2  0  0  0  0
 24 23  1  0  0  0  0
 24 19  2  0  0  0  0
 25 26  1  0  0  0  0
 25 28  1  0  0  0  0
 26 54  1  0  0  0  0
 26 53  1  0  0  0  0
 27 56  1  0  0  0  0
 27 25  1  0  0  0  0
 28 61  1  0  0  0  0
 28 59  1  0  0  0  0
 29  8  1  0  0  0  0
 33 13  1  0  0  0  0
 35 13  1  0  0  0  0
 37 14  1  0  0  0  0
 38 14  1  0  0  0  0
 39 15  1  0  0  0  0
 40 16  1  0  0  0  0
 45 17  1  0  0  0  0
 46 18  1  0  0  0  0
 48 18  1  0  0  0  0
 51 23  1  0  0  0  0
 52 24  1  0  0  0  0
 55 26  1  0  0  0  0
 57 27  1  0  0  0  0
 58 27  1  0  0  0  0
 60 28  1  0  0  0  0
M  END
