2
 OpenBabel05122313113D

 37 37  0  0  1  0  0  0  0  0999 V2000
   -0.1475   -1.3444   -0.6110 C   0  0  2  0  0  3  0  0  0  0  0  0
   -0.4914   -1.8298    0.6894 C   0  0  0  0  0  3  0  0  0  0  0  0
    0.1861   -1.7147    1.5516 H   0  0  0  0  0  0  0  0  0  0  0  0
   -1.8676   -2.2010    0.8279 C   0  0  0  0  0  3  0  0  0  0  0  0
   -2.2670   -2.3478    1.8441 H   0  0  0  0  0  0  0  0  0  0  0  0
   -2.5936   -2.9175   -0.3000 C   0  0  0  0  0  0  0  0  0  0  0  0
   -2.9822   -3.8916    0.0721 H   0  0  0  0  0  0  0  0  0  0  0  0
   -3.4897   -2.3269   -0.5897 H   0  0  0  0  0  0  0  0  0  0  0  0
   -1.6653   -3.1543   -1.4971 C   0  0  0  0  0  0  0  0  0  0  0  0
   -2.2439   -3.4883   -2.3821 H   0  0  0  0  0  0  0  0  0  0  0  0
   -0.9590   -3.9743   -1.2443 H   0  0  0  0  0  0  0  0  0  0  0  0
   -0.8388   -1.9099   -1.8446 C   0  0  0  0  0  0  0  0  0  0  0  0
   -1.4814   -1.1364   -2.3246 H   0  0  0  0  0  0  0  0  0  0  0  0
   -0.0452   -2.1545   -2.5837 H   0  0  0  0  0  0  0  0  0  0  0  0
    1.0543   -0.7610   -0.8947 O   0  0  0  0  0  0  0  0  0  0  0  0
    2.2941   -0.1742    0.1553 Si  0  0  0  0  0  0  0  0  0  0  0  0
    3.1435   -1.6835    0.9340 C   0  0  0  0  0  0  0  0  0  0  0  0
    2.5113   -2.0669    1.7644 H   0  0  0  0  0  0  0  0  0  0  0  0
    3.1307   -2.4838    0.1617 H   0  0  0  0  0  0  0  0  0  0  0  0
    4.5794   -1.4418    1.4260 C   0  0  0  0  0  0  0  0  0  0  0  0
    5.0281   -2.3633    1.8512 H   0  0  0  0  0  0  0  0  0  0  0  0
    4.6230   -0.6648    2.2160 H   0  0  0  0  0  0  0  0  0  0  0  0
    5.2437   -1.1061    0.6033 H   0  0  0  0  0  0  0  0  0  0  0  0
    1.5621    1.0225    1.4303 C   0  0  0  0  0  0  0  0  0  0  0  0
    1.4343    2.0035    0.9227 H   0  0  0  0  0  0  0  0  0  0  0  0
    0.5269    0.6764    1.6434 H   0  0  0  0  0  0  0  0  0  0  0  0
    2.3626    1.1897    2.7285 C   0  0  0  0  0  0  0  0  0  0  0  0
    1.8745    1.9090    3.4179 H   0  0  0  0  0  0  0  0  0  0  0  0
    3.3899    1.5665    2.5408 H   0  0  0  0  0  0  0  0  0  0  0  0
    2.4624    0.2309    3.2779 H   0  0  0  0  0  0  0  0  0  0  0  0
    3.4426    0.7153   -1.0495 C   0  0  0  0  0  0  0  0  0  0  0  0
    2.8773    1.5875   -1.4464 H   0  0  0  0  0  0  0  0  0  0  0  0
    4.2822    1.1488   -0.4614 H   0  0  0  0  0  0  0  0  0  0  0  0
    3.9682   -0.1579   -2.1967 C   0  0  0  0  0  0  0  0  0  0  0  0
    4.6102    0.4147   -2.8977 H   0  0  0  0  0  0  0  0  0  0  0  0
    3.1309   -0.5892   -2.7817 H   0  0  0  0  0  0  0  0  0  0  0  0
    4.5727   -1.0092   -1.8202 H   0  0  0  0  0  0  0  0  0  0  0  0
  1 15  1  6  0  0  0
  1  2  1  0  0  0  0
  2  4  1  0  0  0  0
  2  3  1  0  0  0  0
  4  5  1  0  0  0  0
  6  7  1  0  0  0  0
  6  4  1  0  0  0  0
  8  6  1  0  0  0  0
  9 11  1  0  0  0  0
  9  6  1  0  0  0  0
 10  9  1  0  0  0  0
 12  9  1  0  0  0  0
 12  1  1  0  0  0  0
 13 12  1  0  0  0  0
 14 12  1  0  0  0  0
 15 16  1  0  0  0  0
 16 17  1  0  0  0  0
 16 24  1  0  0  0  0
 17 20  1  0  0  0  0
 17 18  1  0  0  0  0
 19 17  1  0  0  0  0
 20 21  1  0  0  0  0
 20 22  1  0  0  0  0
 23 20  1  0  0  0  0
 24 26  1  0  0  0  0
 24 27  1  0  0  0  0
 25 24  1  0  0  0  0
 27 30  1  0  0  0  0
 27 28  1  0  0  0  0
 29 27  1  0  0  0  0
 31 33  1  0  0  0  0
 31 16  1  0  0  0  0
 32 31  1  0  0  0  0
 34 37  1  0  0  0  0
 34 31  1  0  0  0  0
 35 34  1  0  0  0  0
 36 34  1  0  0  0  0
M  END
