3
 OpenBabel05122313113D

 18 17  0  0  0  0  0  0  0  0999 V2000
    3.6627   -0.1021    0.3830 Si  0  0  0  0  0  0  0  0  0  0  0  0
    2.2543   -2.3787   -0.8529 C   0  0  0  0  0  3  0  0  0  0  0  0
    2.8254   -1.1052   -1.0041 C   0  0  0  0  0  3  0  0  0  0  0  0
    3.5480    1.7266   -0.0565 C   0  0  0  0  0  0  0  0  0  0  0  0
    2.7502   -0.4578    2.0040 C   0  0  0  0  0  0  0  0  0  0  0  0
    5.4673   -0.6580    0.5156 C   0  0  0  0  0  0  0  0  0  0  0  0
    2.0134   -3.0153   -1.7230 H   0  0  0  0  0  0  0  0  0  0  0  0
    2.2706   -2.9037    0.1200 H   0  0  0  0  0  0  0  0  0  0  0  0
    2.9811   -0.7530   -2.0442 H   0  0  0  0  0  0  0  0  0  0  0  0
    4.0258    2.3490    0.7278 H   0  0  0  0  0  0  0  0  0  0  0  0
    4.0635    1.9403   -1.0155 H   0  0  0  0  0  0  0  0  0  0  0  0
    2.4886    2.0372   -0.1561 H   0  0  0  0  0  0  0  0  0  0  0  0
    3.2473    0.0627    2.8487 H   0  0  0  0  0  0  0  0  0  0  0  0
    2.7303   -1.5400    2.2472 H   0  0  0  0  0  0  0  0  0  0  0  0
    1.7027   -0.0930    1.9590 H   0  0  0  0  0  0  0  0  0  0  0  0
    5.9931   -0.0878    1.3094 H   0  0  0  0  0  0  0  0  0  0  0  0
    5.5366   -1.7366    0.7639 H   0  0  0  0  0  0  0  0  0  0  0  0
    6.0091   -0.4910   -0.4376 H   0  0  0  0  0  0  0  0  0  0  0  0
  1  6  1  0  0  0  0
  1  5  1  0  0  0  0
  2  8  1  0  0  0  0
  3  2  1  0  0  0  0
  3  1  1  0  0  0  0
  4  1  1  0  0  0  0
  4 10  1  0  0  0  0
  5 14  1  0  0  0  0
  5 13  1  0  0  0  0
  6 17  1  0  0  0  0
  6 16  1  0  0  0  0
  7  2  1  0  0  0  0
  9  3  1  0  0  0  0
 11  4  1  0  0  0  0
 12  4  1  0  0  0  0
 15  5  1  0  0  0  0
 18  6  1  0  0  0  0
M  END
