4
 OpenBabel05122313113D

 46 47  0  0  1  0  0  0  0  0999 V2000
    0.1469    1.8665    1.3661 O   0  0  0  0  0  0  0  0  0  0  0  0
   -2.8074   -0.9503    1.9711 N   0  0  0  0  0  0  0  0  0  0  0  0
   -0.6805   -0.7501    1.5884 N   0  0  0  0  0  0  0  0  0  0  0  0
   -1.9026   -0.6061    0.9969 C   0  0  0  0  0  2  0  0  0  0  0  0
   -2.1532   -1.2735    3.1568 C   0  0  0  0  0  0  0  0  0  0  0  0
   -2.6982   -1.5689    4.0580 H   0  0  0  0  0  0  0  0  0  0  0  0
   -0.8139   -1.1372    2.9129 C   0  0  0  0  0  0  0  0  0  0  0  0
    0.0609   -1.2739    3.5538 H   0  0  0  0  0  0  0  0  0  0  0  0
   -4.2531   -0.9750    1.8419 C   0  0  0  0  0  0  0  0  0  0  0  0
   -4.5295   -1.1074    0.7826 H   0  0  0  0  0  0  0  0  0  0  0  0
   -4.7060   -0.0353    2.2196 H   0  0  0  0  0  0  0  0  0  0  0  0
   -4.6597   -1.8232    2.4249 H   0  0  0  0  0  0  0  0  0  0  0  0
    0.5764   -0.4412    0.9739 C   0  0  2  0  0  3  0  0  0  0  0  0
    1.4352   -1.4973    0.6225 C   0  0  0  0  0  0  0  0  0  0  0  0
    1.0704   -2.5270    0.7488 H   0  0  0  0  0  0  0  0  0  0  0  0
    2.6809   -1.2256    0.0573 C   0  0  0  0  0  0  0  0  0  0  0  0
    3.0421    0.1474   -0.0609 C   0  0  0  0  0  0  0  0  0  0  0  0
    4.0277    0.3685   -0.4952 H   0  0  0  0  0  0  0  0  0  0  0  0
    2.2557    1.2240    0.3465 C   0  0  0  0  0  0  0  0  0  0  0  0
    0.9324    0.9684    0.9265 C   0  0  0  0  0  0  0  0  0  0  0  0
    3.6302   -2.3159   -0.4626 C   0  0  0  0  0  0  0  0  0  0  0  0
    3.8275   -2.1264   -1.9848 C   0  0  0  0  0  0  0  0  0  0  0  0
    4.2754   -1.1390   -2.2153 H   0  0  0  0  0  0  0  0  0  0  0  0
    2.8544   -2.1820   -2.5127 H   0  0  0  0  0  0  0  0  0  0  0  0
    4.4999   -2.9080   -2.3978 H   0  0  0  0  0  0  0  0  0  0  0  0
    3.0679   -3.7269   -0.2210 C   0  0  0  0  0  0  0  0  0  0  0  0
    2.9073   -3.9246    0.8585 H   0  0  0  0  0  0  0  0  0  0  0  0
    3.7782   -4.4897   -0.5998 H   0  0  0  0  0  0  0  0  0  0  0  0
    2.1032   -3.8781   -0.7466 H   0  0  0  0  0  0  0  0  0  0  0  0
    4.9966   -2.2093    0.2513 C   0  0  0  0  0  0  0  0  0  0  0  0
    4.8824   -2.3569    1.3445 H   0  0  0  0  0  0  0  0  0  0  0  0
    5.4644   -1.2169    0.0945 H   0  0  0  0  0  0  0  0  0  0  0  0
    5.7019   -2.9773   -0.1307 H   0  0  0  0  0  0  0  0  0  0  0  0
    2.7675    2.6727    0.2736 C   0  0  0  0  0  0  0  0  0  0  0  0
    2.8595    3.2387    1.7113 C   0  0  0  0  0  0  0  0  0  0  0  0
    3.5911    2.6592    2.3109 H   0  0  0  0  0  0  0  0  0  0  0  0
    1.8706    3.1815    2.2041 H   0  0  0  0  0  0  0  0  0  0  0  0
    3.1931    4.2981    1.6913 H   0  0  0  0  0  0  0  0  0  0  0  0
    1.7850    3.5383   -0.5485 C   0  0  0  0  0  0  0  0  0  0  0  0
    1.7000    3.1558   -1.5878 H   0  0  0  0  0  0  0  0  0  0  0  0
    2.1417    4.5883   -0.6029 H   0  0  0  0  0  0  0  0  0  0  0  0
    0.7903    3.5263   -0.0652 H   0  0  0  0  0  0  0  0  0  0  0  0
    4.1564    2.7760   -0.3786 C   0  0  0  0  0  0  0  0  0  0  0  0
    4.9268    2.2180    0.1916 H   0  0  0  0  0  0  0  0  0  0  0  0
    4.4729    3.8386   -0.4111 H   0  0  0  0  0  0  0  0  0  0  0  0
    4.1561    2.3943   -1.4205 H   0  0  0  0  0  0  0  0  0  0  0  0
  2  5  1  0  0  0  0
  3  7  1  0  0  0  0
  4  3  1  0  0  0  0
  4  2  1  0  0  0  0
  5  6  1  0  0  0  0
  7  5  2  0  0  0  0
  7  8  1  0  0  0  0
  9  2  1  0  0  0  0
  9 11  1  0  0  0  0
  9 12  1  0  0  0  0
 10  9  1  0  0  0  0
 13  3  1  1  0  0  0
 14 15  1  0  0  0  0
 14 13  1  0  0  0  0
 16 14  2  0  0  0  0
 17 16  1  0  0  0  0
 17 19  2  0  0  0  0
 18 17  1  0  0  0  0
 19 20  1  0  0  0  0
 20 13  1  0  0  0  0
 20  1  2  0  0  0  0
 21 26  1  0  0  0  0
 21 16  1  0  0  0  0
 21 30  1  0  0  0  0
 22 21  1  0  0  0  0
 23 22  1  0  0  0  0
 24 22  1  0  0  0  0
 25 22  1  0  0  0  0
 26 27  1  0  0  0  0
 28 26  1  0  0  0  0
 29 26  1  0  0  0  0
 30 31  1  0  0  0  0
 32 30  1  0  0  0  0
 33 30  1  0  0  0  0
 34 19  1  0  0  0  0
 34 35  1  0  0  0  0
 35 37  1  0  0  0  0
 35 36  1  0  0  0  0
 38 35  1  0  0  0  0
 39 42  1  0  0  0  0
 39 34  1  0  0  0  0
 40 39  1  0  0  0  0
 41 39  1  0  0  0  0
 43 44  1  0  0  0  0
 43 34  1  0  0  0  0
 45 43  1  0  0  0  0
 46 43  1  0  0  0  0
M  END
