2
 OpenBabel05122313113D

 45 46  0  0  0  0  0  0  0  0999 V2000
   -1.0284    1.0315   -0.3889 N   0  0  0  0  0  0  0  0  0  0  0  0
    0.0001    0.2206   -0.0001 C   0  0  0  0  0  2  0  0  0  0  0  0
    1.0290    1.0310    0.3887 N   0  0  0  0  0  0  0  0  0  0  0  0
    0.6561    2.3736    0.2671 C   0  0  0  0  0  0  0  0  0  0  0  0
   -0.6548    2.3740   -0.2673 C   0  0  0  0  0  0  0  0  0  0  0  0
   -1.3084    3.5736   -0.5910 C   0  0  0  0  0  0  0  0  0  0  0  0
   -2.3052    3.5802   -1.0477 H   0  0  0  0  0  0  0  0  0  0  0  0
   -0.6375    4.7689   -0.3018 C   0  0  0  0  0  0  0  0  0  0  0  0
   -1.1215    5.7269   -0.5416 H   0  0  0  0  0  0  0  0  0  0  0  0
    0.6399    4.7685    0.3017 C   0  0  0  0  0  0  0  0  0  0  0  0
    1.1244    5.7263    0.5416 H   0  0  0  0  0  0  0  0  0  0  0  0
    1.3102    3.5729    0.5909 C   0  0  0  0  0  0  0  0  0  0  0  0
    2.3070    3.5790    1.0476 H   0  0  0  0  0  0  0  0  0  0  0  0
   -2.3190    0.5501   -0.8895 C   0  0  0  0  0  0  0  0  0  0  0  0
   -2.1410   -0.4865   -1.2332 H   0  0  0  0  0  0  0  0  0  0  0  0
   -2.5658    1.1416   -1.7960 H   0  0  0  0  0  0  0  0  0  0  0  0
   -3.5264    0.5668    0.0934 C   0  0  0  0  0  0  0  0  0  0  0  0
   -3.1526   -0.0467    1.4507 C   0  0  0  0  0  0  0  0  0  0  0  0
   -2.3496    0.5266    1.9553 H   0  0  0  0  0  0  0  0  0  0  0  0
   -2.8055   -1.0920    1.3512 H   0  0  0  0  0  0  0  0  0  0  0  0
   -4.0372   -0.0458    2.1194 H   0  0  0  0  0  0  0  0  0  0  0  0
   -4.6134   -0.2916   -0.5842 C   0  0  0  0  0  0  0  0  0  0  0  0
   -4.2682   -1.3366   -0.7182 H   0  0  0  0  0  0  0  0  0  0  0  0
   -4.8890    0.1125   -1.5809 H   0  0  0  0  0  0  0  0  0  0  0  0
   -5.5317   -0.3110    0.0363 H   0  0  0  0  0  0  0  0  0  0  0  0
   -4.0765    1.9864    0.3190 C   0  0  0  0  0  0  0  0  0  0  0  0
   -5.0009    1.9373    0.9295 H   0  0  0  0  0  0  0  0  0  0  0  0
   -4.3388    2.4834   -0.6388 H   0  0  0  0  0  0  0  0  0  0  0  0
   -3.3581    2.6293    0.8644 H   0  0  0  0  0  0  0  0  0  0  0  0
    2.3193    0.5489    0.8894 C   0  0  0  0  0  0  0  0  0  0  0  0
    2.1407   -0.4876    1.2331 H   0  0  0  0  0  0  0  0  0  0  0  0
    2.5663    1.1402    1.7960 H   0  0  0  0  0  0  0  0  0  0  0  0
    3.5269    0.5650   -0.0933 C   0  0  0  0  0  0  0  0  0  0  0  0
    4.0778    1.9843   -0.3187 C   0  0  0  0  0  0  0  0  0  0  0  0
    5.0025    1.9347   -0.9289 H   0  0  0  0  0  0  0  0  0  0  0  0
    4.3400    2.4812    0.6391 H   0  0  0  0  0  0  0  0  0  0  0  0
    3.3600    2.6276   -0.8645 H   0  0  0  0  0  0  0  0  0  0  0  0
    4.6133   -0.2940    0.5844 C   0  0  0  0  0  0  0  0  0  0  0  0
    5.5317   -0.3139   -0.0359 H   0  0  0  0  0  0  0  0  0  0  0  0
    4.2675   -1.3388    0.7183 H   0  0  0  0  0  0  0  0  0  0  0  0
    4.8889    0.1099    1.5812 H   0  0  0  0  0  0  0  0  0  0  0  0
    3.1531   -0.0482   -1.4507 C   0  0  0  0  0  0  0  0  0  0  0  0
    2.3504    0.5256   -1.9554 H   0  0  0  0  0  0  0  0  0  0  0  0
    2.8054   -1.0934   -1.3513 H   0  0  0  0  0  0  0  0  0  0  0  0
    4.0378   -0.0477   -2.1192 H   0  0  0  0  0  0  0  0  0  0  0  0
  1  5  1  0  0  0  0
  1  2  1  0  0  0  0
  2  3  1  0  0  0  0
  3 30  1  0  0  0  0
  4  3  1  0  0  0  0
  4 12  1  0  0  0  0
  5  4  2  0  0  0  0
  6  8  2  0  0  0  0
  6  5  1  0  0  0  0
  7  6  1  0  0  0  0
  8 10  1  0  0  0  0
  9  8  1  0  0  0  0
 10 11  1  0  0  0  0
 10 12  2  0  0  0  0
 12 13  1  0  0  0  0
 14  1  1  0  0  0  0
 14 17  1  0  0  0  0
 15 14  1  0  0  0  0
 16 14  1  0  0  0  0
 17 26  1  0  0  0  0
 17 18  1  0  0  0  0
 18 19  1  0  0  0  0
 18 21  1  0  0  0  0
 20 18  1  0  0  0  0
 22 25  1  0  0  0  0
 22 17  1  0  0  0  0
 23 22  1  0  0  0  0
 24 22  1  0  0  0  0
 26 29  1  0  0  0  0
 26 27  1  0  0  0  0
 28 26  1  0  0  0  0
 30 31  1  0  0  0  0
 30 32  1  0  0  0  0
 33 38  1  0  0  0  0
 33 30  1  0  0  0  0
 34 33  1  0  0  0  0
 34 36  1  0  0  0  0
 35 34  1  0  0  0  0
 37 34  1  0  0  0  0
 38 40  1  0  0  0  0
 38 41  1  0  0  0  0
 39 38  1  0  0  0  0
 42 44  1  0  0  0  0
 42 33  1  0  0  0  0
 43 42  1  0  0  0  0
 45 42  1  0  0  0  0
M  END
