3
 OpenBabel05122313113D

 13 13  0  0  0  0  0  0  0  0999 V2000
   -2.3983    0.8275    0.0000 C   0  0  0  0  0  0  0  0  0  0  0  0
   -0.6013    2.4341   -0.0001 O   0  0  0  0  0  0  0  0  0  0  0  0
   -1.5952   -0.3406   -0.0000 C   0  0  0  0  0  3  0  0  0  0  0  0
   -3.8059    0.7224    0.0001 C   0  0  0  0  0  0  0  0  0  0  0  0
   -4.4105    1.6446    0.0002 H   0  0  0  0  0  0  0  0  0  0  0  0
   -2.2256   -1.5952   -0.0000 C   0  0  0  0  0  0  0  0  0  0  0  0
   -1.6312   -2.5216   -0.0001 H   0  0  0  0  0  0  0  0  0  0  0  0
   -4.4249   -0.5333    0.0002 C   0  0  0  0  0  0  0  0  0  0  0  0
   -5.5221   -0.6123    0.0003 H   0  0  0  0  0  0  0  0  0  0  0  0
   -1.7999    2.1851    0.0000 C   0  0  0  0  0  0  0  0  0  0  0  0
   -2.5528    3.0260    0.0001 H   0  0  0  0  0  0  0  0  0  0  0  0
   -3.6313   -1.6908    0.0001 C   0  0  0  0  0  0  0  0  0  0  0  0
   -4.1072   -2.6837    0.0001 H   0  0  0  0  0  0  0  0  0  0  0  0
  1  4  1  0  0  0  0
  2 10  2  0  0  0  0
  3  6  1  0  0  0  0
  3  1  2  0  0  0  0
  4  8  2  0  0  0  0
  4  5  1  0  0  0  0
  6 12  2  0  0  0  0
  7  6  1  0  0  0  0
  8  9  1  0  0  0  0
 10  1  1  0  0  0  0
 10 11  1  0  0  0  0
 12 13  1  0  0  0  0
 12  8  1  0  0  0  0
M  END
