4
 OpenBabel05122313113D

 38 38  0  0  0  0  0  0  0  0999 V2000
    2.8285    2.5425   -0.4388 O   0  0  0  0  0  0  0  0  0  0  0  0
   -1.4871    2.2630   -0.0446 N   0  0  0  0  0  0  0  0  0  0  0  0
    0.4766    1.9966    0.8662 N   0  0  0  0  0  0  0  0  0  0  0  0
   -0.5493    1.3303    0.2701 C   0  0  0  0  0  2  0  0  0  0  0  0
    0.2090    3.3536    0.9040 C   0  0  0  0  0  0  0  0  0  0  0  0
    0.9220    4.0778    1.3054 H   0  0  0  0  0  0  0  0  0  0  0  0
   -1.0297    3.5207    0.3478 C   0  0  0  0  0  0  0  0  0  0  0  0
   -1.6126    4.4303    0.1982 H   0  0  0  0  0  0  0  0  0  0  0  0
   -2.8971    2.0245   -0.5304 C   0  0  0  0  0  0  0  0  0  0  0  0
   -2.9656    0.7969   -1.4465 C   0  0  0  0  0  0  0  0  0  0  0  0
   -3.9804    0.7475   -1.8857 H   0  0  0  0  0  0  0  0  0  0  0  0
   -2.8083   -0.1493   -0.8927 H   0  0  0  0  0  0  0  0  0  0  0  0
   -2.2239    0.8500   -2.2664 H   0  0  0  0  0  0  0  0  0  0  0  0
   -3.7752    1.8207    0.7161 C   0  0  0  0  0  0  0  0  0  0  0  0
   -3.7538    2.7160    1.3697 H   0  0  0  0  0  0  0  0  0  0  0  0
   -3.4214    0.9482    1.3014 H   0  0  0  0  0  0  0  0  0  0  0  0
   -4.8242    1.6397    0.4097 H   0  0  0  0  0  0  0  0  0  0  0  0
   -3.3494    3.2586   -1.3287 C   0  0  0  0  0  0  0  0  0  0  0  0
   -3.4532    4.1636   -0.6991 H   0  0  0  0  0  0  0  0  0  0  0  0
   -4.3477    3.0532   -1.7590 H   0  0  0  0  0  0  0  0  0  0  0  0
   -2.6537    3.4756   -2.1632 H   0  0  0  0  0  0  0  0  0  0  0  0
    1.7081    1.3837    1.3259 C   0  0  0  0  0  0  0  0  0  0  0  0
    1.5161    0.3143    1.5310 H   0  0  0  0  0  0  0  0  0  0  0  0
    1.9950    1.8454    2.2935 H   0  0  0  0  0  0  0  0  0  0  0  0
    2.8713    1.5999    0.3301 C   0  0  0  0  0  0  0  0  0  0  0  0
    4.0503    0.6201    0.4186 C   0  0  0  0  0  0  0  0  0  0  0  0
    5.1725    1.1209   -0.5006 C   0  0  0  0  0  0  0  0  0  0  0  0
    4.8200    1.1947   -1.5470 H   0  0  0  0  0  0  0  0  0  0  0  0
    6.0317    0.4222   -0.4649 H   0  0  0  0  0  0  0  0  0  0  0  0
    5.5236    2.1268   -0.1969 H   0  0  0  0  0  0  0  0  0  0  0  0
    4.5433    0.5493    1.8819 C   0  0  0  0  0  0  0  0  0  0  0  0
    4.8504    1.5461    2.2606 H   0  0  0  0  0  0  0  0  0  0  0  0
    5.4271   -0.1179    1.9381 H   0  0  0  0  0  0  0  0  0  0  0  0
    3.7791    0.1307    2.5674 H   0  0  0  0  0  0  0  0  0  0  0  0
    3.5771   -0.7800   -0.0401 C   0  0  0  0  0  0  0  0  0  0  0  0
    2.7905   -1.2075    0.6137 H   0  0  0  0  0  0  0  0  0  0  0  0
    4.4387   -1.4776   -0.0166 H   0  0  0  0  0  0  0  0  0  0  0  0
    3.1723   -0.7555   -1.0703 H   0  0  0  0  0  0  0  0  0  0  0  0
  1 25  2  0  0  0  0
  2  4  1  0  0  0  0
  2  7  1  0  0  0  0
  3  5  1  0  0  0  0
  3 22  1  0  0  0  0
  4  3  1  0  0  0  0
  5  6  1  0  0  0  0
  7  5  2  0  0  0  0
  8  7  1  0  0  0  0
  9  2  1  0  0  0  0
  9 14  1  0  0  0  0
 10 12  1  0  0  0  0
 10  9  1  0  0  0  0
 11 10  1  0  0  0  0
 13 10  1  0  0  0  0
 14 16  1  0  0  0  0
 14 15  1  0  0  0  0
 17 14  1  0  0  0  0
 18 19  1  0  0  0  0
 18  9  1  0  0  0  0
 20 18  1  0  0  0  0
 21 18  1  0  0  0  0
 22 23  1  0  0  0  0
 22 24  1  0  0  0  0
 25 26  1  0  0  0  0
 25 22  1  0  0  0  0
 26 31  1  0  0  0  0
 27 29  1  0  0  0  0
 27 30  1  0  0  0  0
 27 26  1  0  0  0  0
 28 27  1  0  0  0  0
 31 33  1  0  0  0  0
 31 32  1  0  0  0  0
 31 34  1  0  0  0  0
 35 37  1  0  0  0  0
 35 26  1  0  0  0  0
 35 36  1  0  0  0  0
 38 35  1  0  0  0  0
M  END
