5
 OpenBabel05122313113D

 25 26  0  0  0  0  0  0  0  0999 V2000
    3.7548   -0.5234    0.3039 Si  0  0  0  0  0  0  0  0  0  0  0  0
    3.7002    0.9755    0.3921 H   0  0  0  0  0  0  0  0  0  0  0  0
    0.1748   -2.6233   -0.0888 C   0  0  0  0  0  0  0  0  0  0  0  0
   -0.0585   -1.9882    1.1961 C   0  0  0  0  0  0  0  0  0  0  0  0
    1.0684   -1.1298    1.4578 C   0  0  0  0  0  3  0  0  0  0  0  0
    1.2329   -0.5623    2.3813 H   0  0  0  0  0  0  0  0  0  0  0  0
    2.0055   -1.2541    0.3794 C   0  0  0  0  0  0  0  0  0  0  0  0
    1.4172   -2.1185   -0.5986 C   0  0  0  0  0  0  0  0  0  0  0  0
    1.8646   -2.3870   -1.5633 H   0  0  0  0  0  0  0  0  0  0  0  0
   -1.2378   -2.3000    1.9368 C   0  0  0  0  0  0  0  0  0  0  0  0
   -1.4178   -1.8359    2.9183 H   0  0  0  0  0  0  0  0  0  0  0  0
   -2.1265   -3.2278    1.4163 C   0  0  0  0  0  0  0  0  0  0  0  0
   -3.0323   -3.4900    1.9831 H   0  0  0  0  0  0  0  0  0  0  0  0
   -1.8908   -3.8573    0.1553 C   0  0  0  0  0  0  0  0  0  0  0  0
   -2.6246   -4.5853   -0.2214 H   0  0  0  0  0  0  0  0  0  0  0  0
   -0.7681   -3.5624   -0.5992 C   0  0  0  0  0  0  0  0  0  0  0  0
   -0.5978   -4.0365   -1.5761 H   0  0  0  0  0  0  0  0  0  0  0  0
    4.5893   -1.0787   -1.2918 C   0  0  0  0  0  0  0  0  0  0  0  0
    4.0233   -0.7058   -2.1681 H   0  0  0  0  0  0  0  0  0  0  0  0
    4.6441   -2.1852   -1.3463 H   0  0  0  0  0  0  0  0  0  0  0  0
    5.6228   -0.6811   -1.3497 H   0  0  0  0  0  0  0  0  0  0  0  0
    4.6798   -1.1762    1.8232 C   0  0  0  0  0  0  0  0  0  0  0  0
    4.1783   -0.8629    2.7616 H   0  0  0  0  0  0  0  0  0  0  0  0
    5.7192   -0.7890    1.8481 H   0  0  0  0  0  0  0  0  0  0  0  0
    4.7239   -2.2844    1.8144 H   0  0  0  0  0  0  0  0  0  0  0  0
  1  7  1  0  0  0  0
  1  2  1  0  0  0  0
  1 22  1  0  0  0  0
  3  4  1  0  0  0  0
  4  5  1  0  0  0  0
  4 10  2  0  0  0  0
  5  6  1  0  0  0  0
  7  5  1  0  0  0  0
  8  3  1  0  0  0  0
  8  7  2  0  0  0  0
  9  8  1  0  0  0  0
 10 11  1  0  0  0  0
 12 10  1  0  0  0  0
 12 13  1  0  0  0  0
 14 12  2  0  0  0  0
 15 14  1  0  0  0  0
 16  3  2  0  0  0  0
 16 14  1  0  0  0  0
 17 16  1  0  0  0  0
 18  1  1  0  0  0  0
 19 18  1  0  0  0  0
 20 18  1  0  0  0  0
 21 18  1  0  0  0  0
 22 24  1  0  0  0  0
 22 23  1  0  0  0  0
 25 22  1  0  0  0  0
M  END
