1
 OpenBabel05122313113D

 57 59  0  0  0  0  0  0  0  0999 V2000
    2.4484    1.2126   -0.4660 C   0  0  0  0  0  2  0  0  0  0  0  0
   -3.3727   -0.2582   -0.4166 C   0  0  0  0  0  0  0  0  0  0  0  0
    1.0992    1.1702   -0.1897 N   0  0  0  0  0  0  0  0  0  0  0  0
   -5.7700   -0.2389   -0.4304 N   0  0  0  0  0  0  0  0  0  0  0  0
   -2.1663    0.0239    0.2705 C   0  0  0  0  0  0  0  0  0  0  0  0
   -2.2288    0.4655    1.2800 H   0  0  0  0  0  0  0  0  0  0  0  0
   -4.6554    0.0132    0.1937 C   0  0  0  0  0  0  0  0  0  0  0  0
   -4.6601    0.4258    1.2282 H   0  0  0  0  0  0  0  0  0  0  0  0
   -4.4231   -1.1153   -2.4140 O   0  0  0  0  0  0  0  0  0  0  0  0
   -5.2059   -0.8197   -1.8081 H   0  0  0  0  0  0  0  0  0  0  0  0
   -0.8788   -0.8283   -1.5932 C   0  0  0  0  0  0  0  0  0  0  0  0
    0.1064   -1.0674   -2.0264 H   0  0  0  0  0  0  0  0  0  0  0  0
    0.3648    0.0578    0.4315 C   0  0  0  0  0  0  0  0  0  0  0  0
    0.1539    0.3260    1.4882 H   0  0  0  0  0  0  0  0  0  0  0  0
    1.0470   -0.8145    0.3994 H   0  0  0  0  0  0  0  0  0  0  0  0
    2.6448    2.4824   -0.9625 N   0  0  0  0  0  0  0  0  0  0  0  0
   -0.9204   -0.2505   -0.2958 C   0  0  0  0  0  0  0  0  0  0  0  0
   -7.0364    0.0274    0.1247 C   0  0  0  0  0  0  0  0  0  0  0  0
   -7.9267   -1.0782    0.2646 C   0  0  0  0  0  0  0  0  0  0  0  0
   -3.3149   -0.8365   -1.7305 C   0  0  0  0  0  0  0  0  0  0  0  0
   -2.0466   -1.1135   -2.2957 C   0  0  0  0  0  0  0  0  0  0  0  0
   -2.0149   -1.5657   -3.2974 H   0  0  0  0  0  0  0  0  0  0  0  0
   -7.4431    1.3488    0.4645 C   0  0  0  0  0  0  0  0  0  0  0  0
   -8.7393    1.5243    0.9884 C   0  0  0  0  0  0  0  0  0  0  0  0
   -9.0735    2.5383    1.2582 H   0  0  0  0  0  0  0  0  0  0  0  0
    3.9233    3.0735   -1.3317 C   0  0  0  0  0  0  0  0  0  0  0  0
    4.5915    2.2714   -1.7026 H   0  0  0  0  0  0  0  0  0  0  0  0
    4.3795    3.5884   -0.4616 H   0  0  0  0  0  0  0  0  0  0  0  0
    3.7553    3.8120   -2.1377 H   0  0  0  0  0  0  0  0  0  0  0  0
   -9.2054   -0.8456    0.7937 C   0  0  0  0  0  0  0  0  0  0  0  0
   -9.8988   -1.6896    0.9218 H   0  0  0  0  0  0  0  0  0  0  0  0
    0.4801    2.3694   -0.5127 C   0  0  0  0  0  0  0  0  0  0  0  0
   -0.5986    2.5079   -0.3999 H   0  0  0  0  0  0  0  0  0  0  0  0
    1.4547    3.1965   -0.9951 C   0  0  0  0  0  0  0  0  0  0  0  0
    1.4049    4.2208   -1.3754 H   0  0  0  0  0  0  0  0  0  0  0  0
   -6.5546    2.5682    0.2367 C   0  0  0  0  0  0  0  0  0  0  0  0
   -5.6519    2.2339   -0.3130 H   0  0  0  0  0  0  0  0  0  0  0  0
   -9.6115    0.4452    1.1626 C   0  0  0  0  0  0  0  0  0  0  0  0
  -10.6174    0.6100    1.5774 H   0  0  0  0  0  0  0  0  0  0  0  0
   -7.4424   -2.4781   -0.0888 C   0  0  0  0  0  0  0  0  0  0  0  0
   -6.6960   -2.3585   -0.9031 H   0  0  0  0  0  0  0  0  0  0  0  0
   -6.0865    3.1848    1.5666 C   0  0  0  0  0  0  0  0  0  0  0  0
   -5.4185    4.0527    1.3879 H   0  0  0  0  0  0  0  0  0  0  0  0
   -5.5372    2.4485    2.1878 H   0  0  0  0  0  0  0  0  0  0  0  0
   -6.9490    3.5416    2.1670 H   0  0  0  0  0  0  0  0  0  0  0  0
   -6.6992   -3.1049    1.1072 C   0  0  0  0  0  0  0  0  0  0  0  0
   -5.8555   -2.4685    1.4407 H   0  0  0  0  0  0  0  0  0  0  0  0
   -6.2893   -4.1008    0.8407 H   0  0  0  0  0  0  0  0  0  0  0  0
   -7.3858   -3.2340    1.9696 H   0  0  0  0  0  0  0  0  0  0  0  0
   -8.5517   -3.4066   -0.5962 C   0  0  0  0  0  0  0  0  0  0  0  0
   -9.2753   -3.6650    0.2048 H   0  0  0  0  0  0  0  0  0  0  0  0
   -8.1173   -4.3601   -0.9581 H   0  0  0  0  0  0  0  0  0  0  0  0
   -9.1179   -2.9485   -1.4316 H   0  0  0  0  0  0  0  0  0  0  0  0
   -7.2468    3.6193   -0.6485 C   0  0  0  0  0  0  0  0  0  0  0  0
   -8.1408    4.0502   -0.1527 H   0  0  0  0  0  0  0  0  0  0  0  0
   -7.5749    3.1797   -1.6111 H   0  0  0  0  0  0  0  0  0  0  0  0
   -6.5554    4.4580   -0.8703 H   0  0  0  0  0  0  0  0  0  0  0  0
  1  3  1  0  0  0  0
  2  7  1  0  0  0  0
  2  5  1  0  0  0  0
  3 13  1  0  0  0  0
  4 18  1  0  0  0  0
  4  7  2  0  0  0  0
  5  6  1  0  0  0  0
  7  8  1  0  0  0  0
  9 10  1  0  0  0  0
  9 20  1  0  0  0  0
 11 17  1  0  0  0  0
 12 11  1  0  0  0  0
 13 14  1  0  0  0  0
 15 13  1  0  0  0  0
 16  1  1  0  0  0  0
 17  5  2  0  0  0  0
 17 13  1  0  0  0  0
 18 19  2  0  0  0  0
 18 23  1  0  0  0  0
 19 30  1  0  0  0  0
 20  2  2  0  0  0  0
 21 20  1  0  0  0  0
 21 11  2  0  0  0  0
 22 21  1  0  0  0  0
 23 24  2  0  0  0  0
 24 38  1  0  0  0  0
 24 25  1  0  0  0  0
 26 16  1  0  0  0  0
 26 28  1  0  0  0  0
 27 26  1  0  0  0  0
 29 26  1  0  0  0  0
 30 31  1  0  0  0  0
 30 38  2  0  0  0  0
 32 33  1  0  0  0  0
 32  3  1  0  0  0  0
 34 16  1  0  0  0  0
 34 32  2  0  0  0  0
 35 34  1  0  0  0  0
 36 23  1  0  0  0  0
 36 42  1  0  0  0  0
 37 36  1  0  0  0  0
 38 39  1  0  0  0  0
 40 19  1  0  0  0  0
 40 46  1  0  0  0  0
 41 40  1  0  0  0  0
 42 45  1  0  0  0  0
 42 44  1  0  0  0  0
 43 42  1  0  0  0  0
 46 47  1  0  0  0  0
 46 49  1  0  0  0  0
 48 46  1  0  0  0  0
 50 40  1  0  0  0  0
 50 51  1  0  0  0  0
 52 50  1  0  0  0  0
 53 50  1  0  0  0  0
 54 55  1  0  0  0  0
 54 36  1  0  0  0  0
 56 54  1  0  0  0  0
 57 54  1  0  0  0  0
M  END
