2
 OpenBabel05122313113D

 17 17  0  0  0  0  0  0  0  0999 V2000
   -2.5140   -1.1116    2.0801 O   0  0  0  0  0  0  0  0  0  0  0  0
   -2.0725   -0.0000   -0.0001 C   0  0  0  0  0  2  0  0  0  0  0  0
   -2.5137    1.1117   -2.0802 O   0  0  0  0  0  0  0  0  0  0  0  0
   -2.9294   -0.5210    0.9180 N   0  0  0  0  0  0  0  0  0  0  0  0
   -2.9293    0.5211   -0.9182 N   0  0  0  0  0  0  0  0  0  0  0  0
   -2.2745   -2.5228    1.9004 C   0  0  0  0  0  0  0  0  0  0  0  0
   -3.1976   -3.0466    1.5747 H   0  0  0  0  0  0  0  0  0  0  0  0
   -1.9715   -2.8840    2.8995 H   0  0  0  0  0  0  0  0  0  0  0  0
   -1.4544   -2.6947    1.1714 H   0  0  0  0  0  0  0  0  0  0  0  0
   -2.2740    2.5228   -1.9004 C   0  0  0  0  0  0  0  0  0  0  0  0
   -3.1970    3.0467   -1.5746 H   0  0  0  0  0  0  0  0  0  0  0  0
   -1.9710    2.8840   -2.8995 H   0  0  0  0  0  0  0  0  0  0  0  0
   -1.4538    2.6944   -1.1714 H   0  0  0  0  0  0  0  0  0  0  0  0
   -4.2652   -0.3386    0.5983 C   0  0  0  0  0  0  0  0  0  0  0  0
   -5.0777   -0.6928    1.2398 H   0  0  0  0  0  0  0  0  0  0  0  0
   -4.2652    0.3387   -0.5987 C   0  0  0  0  0  0  0  0  0  0  0  0
   -5.0775    0.6930   -1.2402 H   0  0  0  0  0  0  0  0  0  0  0  0
  2  4  1  0  0  0  0
  3 10  1  0  0  0  0
  3  5  1  0  0  0  0
  4  1  1  0  0  0  0
  5 16  1  0  0  0  0
  5  2  1  0  0  0  0
  6  1  1  0  0  0  0
  6  8  1  0  0  0  0
  7  6  1  0  0  0  0
  9  6  1  0  0  0  0
 10 11  1  0  0  0  0
 10 13  1  0  0  0  0
 12 10  1  0  0  0  0
 14  4  1  0  0  0  0
 14 15  1  0  0  0  0
 16 14  2  0  0  0  0
 17 16  1  0  0  0  0
M  END
