6
 OpenBabel05122313113D

 45 47  0  0  1  0  0  0  0  0999 V2000
    1.0590   -1.5276    2.1452 O   0  0  0  0  0  0  0  0  0  0  0  0
   -0.5333    2.8093   -0.9681 O   0  0  0  0  0  0  0  0  0  0  0  0
   -1.7957   -1.0621    1.1022 N   0  0  0  0  0  0  0  0  0  0  0  0
   -0.1674    1.8614   -0.2761 C   0  0  0  0  0  0  0  0  0  0  0  0
    1.2427    1.3938   -0.2058 C   0  0  2  0  0  3  0  0  0  0  0  0
    1.6560    0.4435    0.7969 C   0  0  2  0  0  3  0  0  0  0  0  0
    0.6676   -0.5050    1.2963 C   0  0  2  0  0  3  0  0  0  0  0  0
   -0.6843   -0.2611    0.9614 C   0  0  2  0  0  3  0  0  0  0  0  0
   -1.1428    1.1627    0.6860 C   0  0  2  0  0  0  0  0  0  0  0  0
   -2.5565    0.9300    0.2061 C   0  0  0  0  0  0  0  0  0  0  0  0
   -3.4779    1.7684   -0.4185 C   0  0  0  0  0  0  0  0  0  0  0  0
   -4.7679    1.2658   -0.6856 C   0  0  0  0  0  0  0  0  0  0  0  0
   -5.1179   -0.0447   -0.3190 C   0  0  0  0  0  0  0  0  0  0  0  0
   -4.1931   -0.9019    0.3084 C   0  0  0  0  0  0  0  0  0  0  0  0
   -2.9135   -0.3917    0.5556 C   0  0  0  0  0  0  0  0  0  0  0  0
    2.2283    2.2879   -0.9390 C   0  0  0  0  0  0  0  0  0  0  0  0
    2.4778    3.6477   -0.2721 C   0  0  0  0  0  0  0  0  0  0  0  0
    3.0327    0.4611    1.4275 C   0  0  0  0  0  0  0  0  0  0  0  0
    3.0881    1.3757    2.6616 C   0  0  0  0  0  0  0  0  0  0  0  0
    0.6066   -1.3653    3.4901 C   0  0  0  0  0  0  0  0  0  0  0  0
   -1.1618    1.9848    2.0047 C   0  0  0  0  0  0  0  0  0  0  0  0
   -1.7912   -2.4974    1.3138 C   0  0  0  0  0  0  0  0  0  0  0  0
   -3.1788    2.7839   -0.7128 H   0  0  0  0  0  0  0  0  0  0  0  0
   -5.5078    1.9052   -1.1893 H   0  0  0  0  0  0  0  0  0  0  0  0
   -6.1303   -0.4179   -0.5355 H   0  0  0  0  0  0  0  0  0  0  0  0
   -4.4675   -1.9324    0.5745 H   0  0  0  0  0  0  0  0  0  0  0  0
    3.1842    1.7506   -1.0961 H   0  0  0  0  0  0  0  0  0  0  0  0
    1.8033    2.4703   -1.9462 H   0  0  0  0  0  0  0  0  0  0  0  0
    3.1318    4.2776   -0.9081 H   0  0  0  0  0  0  0  0  0  0  0  0
    2.9728    3.5458    0.7139 H   0  0  0  0  0  0  0  0  0  0  0  0
    1.5242    4.1924   -0.1296 H   0  0  0  0  0  0  0  0  0  0  0  0
    3.7781    0.7943    0.6801 H   0  0  0  0  0  0  0  0  0  0  0  0
    3.3134   -0.5673    1.7239 H   0  0  0  0  0  0  0  0  0  0  0  0
    4.1116    1.3955    3.0863 H   0  0  0  0  0  0  0  0  0  0  0  0
    2.4038    1.0241    3.4593 H   0  0  0  0  0  0  0  0  0  0  0  0
    2.8015    2.4169    2.4161 H   0  0  0  0  0  0  0  0  0  0  0  0
    0.9809   -2.2374    4.0584 H   0  0  0  0  0  0  0  0  0  0  0  0
   -0.5040   -1.3378    3.5557 H   0  0  0  0  0  0  0  0  0  0  0  0
    1.0066   -0.4340    3.9466 H   0  0  0  0  0  0  0  0  0  0  0  0
   -1.8183    1.5013    2.7552 H   0  0  0  0  0  0  0  0  0  0  0  0
   -1.5547    2.9980    1.7935 H   0  0  0  0  0  0  0  0  0  0  0  0
   -0.1394    2.0775    2.4231 H   0  0  0  0  0  0  0  0  0  0  0  0
   -0.7753   -2.8226    1.5934 H   0  0  0  0  0  0  0  0  0  0  0  0
   -2.0850   -3.0272    0.3836 H   0  0  0  0  0  0  0  0  0  0  0  0
   -2.5043   -2.7718    2.1178 H   0  0  0  0  0  0  0  0  0  0  0  0
  1 20  1  0  0  0  0
  2  4  2  0  0  0  0
  3 22  1  0  0  0  0
  4  5  1  0  0  0  0
  4  9  1  0  0  0  0
  5 16  1  1  0  0  0
  5  6  1  0  0  0  0
  6  7  1  0  0  0  0
  6 18  1  1  0  0  0
  7  1  1  1  0  0  0
  8  3  1  1  0  0  0
  8  7  1  0  0  0  0
  9  8  1  0  0  0  0
  9 21  1  1  0  0  0
 10 15  1  0  0  0  0
 10  9  1  0  0  0  0
 11 10  2  0  0  0  0
 12 11  1  0  0  0  0
 12 13  2  0  0  0  0
 13 14  1  0  0  0  0
 14 15  2  0  0  0  0
 14 26  1  0  0  0  0
 15  3  1  0  0  0  0
 16 17  1  0  0  0  0
 17 31  1  0  0  0  0
 17 30  1  0  0  0  0
 18 33  1  0  0  0  0
 18 19  1  0  0  0  0
 19 34  1  0  0  0  0
 19 35  1  0  0  0  0
 20 38  1  0  0  0  0
 20 39  1  0  0  0  0
 20 37  1  0  0  0  0
 21 42  1  0  0  0  0
 21 40  1  0  0  0  0
 22 43  1  0  0  0  0
 22 45  1  0  0  0  0
 23 11  1  0  0  0  0
 24 12  1  0  0  0  0
 25 13  1  0  0  0  0
 27 16  1  0  0  0  0
 28 16  1  0  0  0  0
 29 17  1  0  0  0  0
 32 18  1  0  0  0  0
 36 19  1  0  0  0  0
 41 21  1  0  0  0  0
 44 22  1  0  0  0  0
M  END
