6
q = -1.0, confidence = 0.026

 11 11  0  0  0  0  0  0  0  0999 V2000
    2.3192   -2.1526    0.2032 I   0  0  0  0  0  0  0  0  0  0  0  0
    0.3378    3.0557    0.1693 F   0  0  0  0  0  0  0  0  0  0  0  0
    2.7573    4.0692   -0.0635 F   0  0  0  0  0  0  0  0  0  0  0  0
    4.9673    2.4297   -0.2799 F   0  0  0  0  0  0  0  0  0  0  0  0
    4.6443   -0.2439   -0.2078 F   0  0  0  0  0  0  0  0  0  0  0  0
    1.0746    0.7659    0.0072 C   0  0  0  0  0  0  0  0  0  0  0  0
    1.3464    2.1489    0.0343 C   0  0  0  0  0  0  0  0  0  0  0  0
    2.6166    2.7360   -0.0695 C   0  0  0  0  0  0  0  0  0  0  0  0
    3.7386    1.9094   -0.1763 C   0  0  0  0  0  0  0  0  0  0  0  0
    3.5447    0.5209   -0.1493 C   0  0  0  0  0  0  0  0  0  0  0  0
    2.2530   -0.0330   -0.0352 C   0  0  0  0  0  0  0  0  0  0  0  0
  4  9  1  0  0  0  0
  5 10  1  0  0  0  0
  6  7  1  0  0  0  0
  7  2  1  0  0  0  0
  8  3  1  0  0  0  0
  8  7  2  0  0  0  0
  9 10  2  0  0  0  0
  9  8  1  0  0  0  0
 10 11  1  0  0  0  0
 11  6  2  0  0  0  0
 11  1  1  0  0  0  0
M  END
