5
 OpenBabel05122313113D

 20 19  0  0  0  0  0  0  0  0999 V2000
    4.7034   -0.4407   -1.2162 O   0  0  0  0  0  0  0  0  0  0  0  0
    1.1292   -0.7383   -1.6196 C   0  0  0  0  0  3  0  0  0  0  0  0
    1.5094   -1.7634   -1.7378 H   0  0  0  0  0  0  0  0  0  0  0  0
    0.8069   -0.2747   -2.5687 H   0  0  0  0  0  0  0  0  0  0  0  0
    1.6331    0.0950   -0.5649 C   0  0  0  0  0  3  0  0  0  0  0  0
    1.6326    1.1782   -0.7871 H   0  0  0  0  0  0  0  0  0  0  0  0
    2.8322   -0.3030    0.3272 C   0  0  0  0  0  0  0  0  0  0  0  0
    2.7189    0.3441    1.7189 C   0  0  0  0  0  0  0  0  0  0  0  0
    2.5045    1.4288    1.6622 H   0  0  0  0  0  0  0  0  0  0  0  0
    3.6529    0.2076    2.3020 H   0  0  0  0  0  0  0  0  0  0  0  0
    1.8952   -0.1339    2.2835 H   0  0  0  0  0  0  0  0  0  0  0  0
    3.0143   -1.8193    0.4638 C   0  0  0  0  0  0  0  0  0  0  0  0
    2.1161   -2.2906    0.9013 H   0  0  0  0  0  0  0  0  0  0  0  0
    3.8746   -2.0337    1.1289 H   0  0  0  0  0  0  0  0  0  0  0  0
    3.2426   -2.2817   -0.5134 H   0  0  0  0  0  0  0  0  0  0  0  0
    4.0503    0.2650   -0.4647 C   0  0  0  0  0  0  0  0  0  0  0  0
    4.3901    1.7396   -0.2977 C   0  0  0  0  0  0  0  0  0  0  0  0
    3.4911    2.3872   -0.2926 H   0  0  0  0  0  0  0  0  0  0  0  0
    5.0782    2.0465   -1.1061 H   0  0  0  0  0  0  0  0  0  0  0  0
    4.8969    1.8925    0.6778 H   0  0  0  0  0  0  0  0  0  0  0  0
  1 16  2  0  0  0  0
  2  5  1  0  0  0  0
  3  2  1  0  0  0  0
  4  2  1  0  0  0  0
  5  7  1  0  0  0  0
  6  5  1  0  0  0  0
  7 12  1  0  0  0  0
  7  8  1  0  0  0  0
  8 11  1  0  0  0  0
  8 10  1  0  0  0  0
  9  8  1  0  0  0  0
 12 13  1  0  0  0  0
 12 14  1  0  0  0  0
 15 12  1  0  0  0  0
 16 17  1  0  0  0  0
 16  7  1  0  0  0  0
 17 18  1  0  0  0  0
 17 20  1  0  0  0  0
 19 17  1  0  0  0  0
M  END
