1
 OpenBabel05122313113D

 62 65  0  0  0  0  0  0  0  0999 V2000
   -0.0724   -0.1802   -0.0001 C   0  0  0  0  0  2  0  0  0  0  0  0
   -5.1051    0.2764   -1.2354 C   0  0  0  0  0  0  0  0  0  0  0  0
   -0.7341    1.0306   -0.0001 N   0  0  0  0  0  0  0  0  0  0  0  0
   -4.4123    0.2116    0.0000 C   0  0  0  0  0  0  0  0  0  0  0  0
    1.5613    4.6087    0.0002 C   0  0  0  0  0  0  0  0  0  0  0  0
   -0.2719   -2.6890   -0.0002 C   0  0  0  0  0  0  0  0  0  0  0  0
   -2.0950    1.1666   -0.0001 C   0  0  0  0  0  0  0  0  0  0  0  0
   -2.4738    2.1986   -0.0000 H   0  0  0  0  0  0  0  0  0  0  0  0
   -5.1051    0.2755    1.2355 C   0  0  0  0  0  0  0  0  0  0  0  0
    1.1705    4.0037    1.2094 C   0  0  0  0  0  0  0  0  0  0  0  0
    1.4728    4.4603    2.1653 H   0  0  0  0  0  0  0  0  0  0  0  0
   -2.3016   -1.2138   -0.0001 C   0  0  0  0  0  0  0  0  0  0  0  0
   -2.9281   -2.1201   -0.0002 H   0  0  0  0  0  0  0  0  0  0  0  0
    0.0540    2.2534   -0.0000 C   0  0  0  0  0  0  0  0  0  0  0  0
   -0.9103   -1.3387   -0.0002 C   0  0  0  0  0  0  0  0  0  0  0  0
    0.4158    2.8189    1.2395 C   0  0  0  0  0  0  0  0  0  0  0  0
    1.1707    4.0037   -1.2092 C   0  0  0  0  0  0  0  0  0  0  0  0
    1.4731    4.4603   -2.1650 H   0  0  0  0  0  0  0  0  0  0  0  0
    0.0551    2.1404    2.5341 C   0  0  0  0  0  0  0  0  0  0  0  0
    0.3537    2.7550    3.4033 H   0  0  0  0  0  0  0  0  0  0  0  0
    0.5746    1.1606    2.6091 H   0  0  0  0  0  0  0  0  0  0  0  0
   -1.0328    1.9344    2.6141 H   0  0  0  0  0  0  0  0  0  0  0  0
   -4.3539    0.2004    2.5423 C   0  0  0  0  0  0  0  0  0  0  0  0
   -5.0443    0.2358    3.4061 H   0  0  0  0  0  0  0  0  0  0  0  0
   -3.6325    1.0378    2.6481 H   0  0  0  0  0  0  0  0  0  0  0  0
   -3.7563   -0.7319    2.6186 H   0  0  0  0  0  0  0  0  0  0  0  0
   -7.2024    0.4779    0.0002 C   0  0  0  0  0  0  0  0  0  0  0  0
   -8.2980    0.5822    0.0002 H   0  0  0  0  0  0  0  0  0  0  0  0
   -6.5062    0.4100    1.2141 C   0  0  0  0  0  0  0  0  0  0  0  0
   -7.0543    0.4604    2.1677 H   0  0  0  0  0  0  0  0  0  0  0  0
    0.4160    2.8189   -1.2394 C   0  0  0  0  0  0  0  0  0  0  0  0
   -2.9283    0.0576   -0.0001 C   0  0  0  0  0  0  0  0  0  0  0  0
   -6.5063    0.4109   -1.2138 C   0  0  0  0  0  0  0  0  0  0  0  0
   -7.0544    0.4620   -2.1674 H   0  0  0  0  0  0  0  0  0  0  0  0
    0.9199   -5.2235   -0.0003 C   0  0  0  0  0  0  0  0  0  0  0  0
    1.3910   -6.2181   -0.0003 H   0  0  0  0  0  0  0  0  0  0  0  0
    0.0299   -3.3145    1.2348 C   0  0  0  0  0  0  0  0  0  0  0  0
    0.0302   -3.3143   -1.2353 C   0  0  0  0  0  0  0  0  0  0  0  0
   -4.3540    0.2022   -2.5423 C   0  0  0  0  0  0  0  0  0  0  0  0
   -5.0445    0.2379   -3.4060 H   0  0  0  0  0  0  0  0  0  0  0  0
   -3.7563   -0.7300   -2.6191 H   0  0  0  0  0  0  0  0  0  0  0  0
   -3.6328    1.0398   -2.6477 H   0  0  0  0  0  0  0  0  0  0  0  0
    2.4163    5.8501    0.0003 C   0  0  0  0  0  0  0  0  0  0  0  0
    2.2354    6.4727    0.8983 H   0  0  0  0  0  0  0  0  0  0  0  0
    2.2359    6.4725   -0.8981 H   0  0  0  0  0  0  0  0  0  0  0  0
    3.4941    5.5800    0.0006 H   0  0  0  0  0  0  0  0  0  0  0  0
    0.6262   -4.5886    1.2133 C   0  0  0  0  0  0  0  0  0  0  0  0
    0.8712   -5.0807    2.1673 H   0  0  0  0  0  0  0  0  0  0  0  0
   -0.2429   -2.6049   -2.5376 C   0  0  0  0  0  0  0  0  0  0  0  0
   -1.3083   -2.3090   -2.6362 H   0  0  0  0  0  0  0  0  0  0  0  0
    0.0197   -3.2392   -3.4054 H   0  0  0  0  0  0  0  0  0  0  0  0
    0.3543   -1.6701   -2.6025 H   0  0  0  0  0  0  0  0  0  0  0  0
    0.6265   -4.5884   -1.2139 C   0  0  0  0  0  0  0  0  0  0  0  0
    0.8718   -5.0803   -2.1679 H   0  0  0  0  0  0  0  0  0  0  0  0
    0.0555    2.1405   -2.5342 C   0  0  0  0  0  0  0  0  0  0  0  0
   -1.0323    1.9340   -2.6141 H   0  0  0  0  0  0  0  0  0  0  0  0
    0.5755    1.1609   -2.6093 H   0  0  0  0  0  0  0  0  0  0  0  0
    0.3539    2.7554   -3.4033 H   0  0  0  0  0  0  0  0  0  0  0  0
   -0.2435   -2.6054    2.5372 C   0  0  0  0  0  0  0  0  0  0  0  0
   -1.3089   -2.3094    2.6356 H   0  0  0  0  0  0  0  0  0  0  0  0
    0.3537   -1.6705    2.6023 H   0  0  0  0  0  0  0  0  0  0  0  0
    0.0190   -3.2397    3.4049 H   0  0  0  0  0  0  0  0  0  0  0  0
  1  3  1  0  0  0  0
  2 33  2  0  0  0  0
  2  4  1  0  0  0  0
  3  7  1  0  0  0  0
  3 14  1  0  0  0  0
  4  9  2  0  0  0  0
  5 43  1  0  0  0  0
  5 10  1  0  0  0  0
  6 15  1  0  0  0  0
  6 37  1  0  0  0  0
  7  8  1  0  0  0  0
  9 23  1  0  0  0  0
 10 16  2  0  0  0  0
 10 11  1  0  0  0  0
 12 32  1  0  0  0  0
 13 12  1  0  0  0  0
 14 16  1  0  0  0  0
 15 12  2  0  0  0  0
 15  1  1  0  0  0  0
 16 19  1  0  0  0  0
 17  5  2  0  0  0  0
 18 17  1  0  0  0  0
 19 21  1  0  0  0  0
 19 22  1  0  0  0  0
 19 20  1  0  0  0  0
 23 26  1  0  0  0  0
 23 25  1  0  0  0  0
 23 24  1  0  0  0  0
 27 28  1  0  0  0  0
 27 29  2  0  0  0  0
 29  9  1  0  0  0  0
 29 30  1  0  0  0  0
 31 17  1  0  0  0  0
 31 14  2  0  0  0  0
 32  7  2  0  0  0  0
 32  4  1  0  0  0  0
 33 27  1  0  0  0  0
 34 33  1  0  0  0  0
 35 47  1  0  0  0  0
 36 35  1  0  0  0  0
 37 59  1  0  0  0  0
 38 53  1  0  0  0  0
 38  6  2  0  0  0  0
 39  2  1  0  0  0  0
 40 39  1  0  0  0  0
 41 39  1  0  0  0  0
 42 39  1  0  0  0  0
 43 46  1  0  0  0  0
 43 44  1  0  0  0  0
 45 43  1  0  0  0  0
 47 37  2  0  0  0  0
 47 48  1  0  0  0  0
 49 38  1  0  0  0  0
 50 49  1  0  0  0  0
 51 49  1  0  0  0  0
 52 49  1  0  0  0  0
 53 35  2  0  0  0  0
 54 53  1  0  0  0  0
 55 31  1  0  0  0  0
 56 55  1  0  0  0  0
 57 55  1  0  0  0  0
 58 55  1  0  0  0  0
 59 61  1  0  0  0  0
 59 60  1  0  0  0  0
 59 62  1  0  0  0  0
M  END
