18
 OpenBabel05122313113D

 55 58  0  0  1  0  0  0  0  0999 V2000
   -1.6675    3.0120   -0.8816 O   0  0  0  0  0  0  0  0  0  0  0  0
   -2.9476    2.2561    0.8566 O   0  0  0  0  0  0  0  0  0  0  0  0
    4.4619   -2.1823   -0.0393 O   0  0  0  0  0  0  0  0  0  0  0  0
    6.5184   -1.1540    0.4100 O   0  0  0  0  0  0  0  0  0  0  0  0
   -0.8270    0.2472    1.2999 O   0  0  0  0  0  0  0  0  0  0  0  0
   -1.0051    0.9875    0.0752 C   0  0  1  0  0  0  0  0  0  0  0  0
    0.4610    1.0031   -0.5010 C   0  0  1  0  0  0  0  0  0  0  0  0
    1.3321    2.1579    0.0308 C   0  0  0  0  0  0  0  0  0  0  0  0
    2.7973    1.8648   -0.1679 C   0  0  0  0  0  0  0  0  0  0  0  0
    3.6844    2.7647   -0.7789 C   0  0  0  0  0  0  0  0  0  0  0  0
    5.0371    2.4259   -0.9296 C   0  0  0  0  0  0  0  0  0  0  0  0
    5.5026    1.1841   -0.4770 C   0  0  0  0  0  0  0  0  0  0  0  0
    4.6242    0.2657    0.1278 C   0  0  0  0  0  0  0  0  0  0  0  0
    3.2626    0.6078    0.2894 C   0  0  0  0  0  0  0  0  0  0  0  0
    2.2148   -0.2889    0.9079 C   0  0  0  0  0  0  0  0  0  0  0  0
    0.9877   -0.3946   -0.0168 C   0  0  1  0  0  0  0  0  0  0  0  0
   -0.2737   -0.9453    0.7139 C   0  0  2  0  0  0  0  0  0  0  0  0
   -1.2546   -1.2751   -0.3987 C   0  0  2  0  0  3  0  0  0  0  0  0
   -1.7542   -0.0061   -0.8165 C   0  0  1  0  0  3  0  0  0  0  0  0
   -1.7202   -2.4670   -1.0217 C   0  0  0  0  0  3  0  0  0  0  0  0
   -2.7416    0.0520   -1.8421 C   0  0  0  0  0  3  0  0  0  0  0  0
   -1.6393    2.3495    0.3472 C   0  0  0  0  0  0  0  0  0  0  0  0
   -2.1007    4.3607   -0.7908 C   0  0  0  0  0  0  0  0  0  0  0  0
   -3.0444    2.1991    2.2716 C   0  0  0  0  0  0  0  0  0  0  0  0
    5.1288   -1.0938    0.5943 C   0  0  0  0  0  0  0  0  0  0  0  0
    4.5139   -2.1631   -1.4599 C   0  0  0  0  0  0  0  0  0  0  0  0
    7.1223   -2.2763    1.0275 C   0  0  0  0  0  0  0  0  0  0  0  0
    0.4335    1.0602   -1.6055 H   0  0  0  0  0  0  0  0  0  0  0  0
    1.1360    2.2731    1.1200 H   0  0  0  0  0  0  0  0  0  0  0  0
    1.0445    3.1093   -0.4567 H   0  0  0  0  0  0  0  0  0  0  0  0
    3.3095    3.7370   -1.1364 H   0  0  0  0  0  0  0  0  0  0  0  0
    5.7336    3.1329   -1.4056 H   0  0  0  0  0  0  0  0  0  0  0  0
    6.5590    0.9037   -0.5844 H   0  0  0  0  0  0  0  0  0  0  0  0
    1.8789    0.1490    1.8741 H   0  0  0  0  0  0  0  0  0  0  0  0
    2.6056   -1.3017    1.1101 H   0  0  0  0  0  0  0  0  0  0  0  0
    1.2516   -1.0371   -0.8803 H   0  0  0  0  0  0  0  0  0  0  0  0
   -0.0968   -1.7131    1.4884 H   0  0  0  0  0  0  0  0  0  0  0  0
   -1.8156   -2.5011   -2.1192 H   0  0  0  0  0  0  0  0  0  0  0  0
   -1.4987   -3.4354   -0.5458 H   0  0  0  0  0  0  0  0  0  0  0  0
   -2.6171   -0.5652   -2.7472 H   0  0  0  0  0  0  0  0  0  0  0  0
   -3.2702    1.0048   -1.9928 H   0  0  0  0  0  0  0  0  0  0  0  0
   -1.0081    2.9067    1.0914 H   0  0  0  0  0  0  0  0  0  0  0  0
   -2.0839    4.7770   -1.8154 H   0  0  0  0  0  0  0  0  0  0  0  0
   -3.1297    4.4290   -0.3796 H   0  0  0  0  0  0  0  0  0  0  0  0
   -1.4173    4.9611   -0.1440 H   0  0  0  0  0  0  0  0  0  0  0  0
   -4.1221    2.2315    2.5177 H   0  0  0  0  0  0  0  0  0  0  0  0
   -2.6020    1.2648    2.6774 H   0  0  0  0  0  0  0  0  0  0  0  0
   -2.5360    3.0714    2.7469 H   0  0  0  0  0  0  0  0  0  0  0  0
    4.8811   -1.2478    1.6729 H   0  0  0  0  0  0  0  0  0  0  0  0
    4.0930   -3.1261   -1.8066 H   0  0  0  0  0  0  0  0  0  0  0  0
    3.9139   -1.3286   -1.8886 H   0  0  0  0  0  0  0  0  0  0  0  0
    5.5580   -2.0681   -1.8307 H   0  0  0  0  0  0  0  0  0  0  0  0
    8.2034   -2.2369    0.7959 H   0  0  0  0  0  0  0  0  0  0  0  0
    6.9892   -2.2514    2.1353 H   0  0  0  0  0  0  0  0  0  0  0  0
    6.6983   -3.2321    0.6497 H   0  0  0  0  0  0  0  0  0  0  0  0
  1 23  1  0  0  0  0
  1 22  1  0  0  0  0
  2 24  1  0  0  0  0
  3 25  1  0  0  0  0
  4 25  1  0  0  0  0
  4 27  1  0  0  0  0
  6 22  1  1  0  0  0
  6  5  1  0  0  0  0
  7 28  1  6  0  0  0
  7 16  1  0  0  0  0
  7  8  1  0  0  0  0
  7  6  1  0  0  0  0
  8 29  1  0  0  0  0
  9  8  1  0  0  0  0
  9 14  1  0  0  0  0
 10  9  2  0  0  0  0
 11 10  1  0  0  0  0
 11 12  2  0  0  0  0
 12 13  1  0  0  0  0
 13 14  2  0  0  0  0
 13 25  1  0  0  0  0
 14 15  1  0  0  0  0
 15 35  1  0  0  0  0
 15 34  1  0  0  0  0
 16 36  1  6  0  0  0
 16 17  1  0  0  0  0
 16 15  1  0  0  0  0
 17  5  1  0  0  0  0
 17 37  1  1  0  0  0
 18 20  1  1  0  0  0
 18 17  1  0  0  0  0
 19 21  1  1  0  0  0
 19 18  1  0  0  0  0
 19  6  1  0  0  0  0
 20 39  1  0  0  0  0
 22  2  1  0  0  0  0
 22 42  1  0  0  0  0
 23 44  1  0  0  0  0
 23 45  1  0  0  0  0
 24 46  1  0  0  0  0
 24 47  1  0  0  0  0
 24 48  1  0  0  0  0
 25 49  1  0  0  0  0
 26  3  1  0  0  0  0
 27 54  1  0  0  0  0
 30  8  1  0  0  0  0
 31 10  1  0  0  0  0
 32 11  1  0  0  0  0
 33 12  1  0  0  0  0
 38 20  1  0  0  0  0
 40 21  1  0  0  0  0
 41 21  1  0  0  0  0
 43 23  1  0  0  0  0
 50 26  1  0  0  0  0
 51 26  1  0  0  0  0
 52 26  1  0  0  0  0
 53 27  1  0  0  0  0
 55 27  1  0  0  0  0
M  END
