15
 OpenBabel05122313113D

 36 38  0  0  1  0  0  0  0  0999 V2000
    2.8639   -2.5672   -0.1579 O   0  0  0  0  0  0  0  0  0  0  0  0
    2.2391    2.9275    0.3001 O   0  0  0  0  0  0  0  0  0  0  0  0
    0.4652   -1.6616    2.2131 C   0  0  0  0  0  0  0  0  0  0  0  0
    1.8196   -1.5342    2.2431 C   0  0  0  0  0  0  0  0  0  0  0  0
    2.4795   -0.6756    1.2042 C   0  0  0  0  0  0  0  0  0  0  0  0
    2.7618   -1.2069   -0.0791 C   0  0  0  0  0  0  0  0  0  0  0  0
    2.7140   -0.3566   -1.2028 C   0  0  0  0  0  0  0  0  0  0  0  0
    2.4224    1.0155   -1.0745 C   0  0  0  0  0  0  0  0  0  0  0  0
    2.4406    1.5788    0.2255 C   0  0  0  0  0  0  0  0  0  0  0  0
    2.4517    0.7244    1.3466 C   0  0  0  0  0  0  0  0  0  0  0  0
    1.6910    1.7338   -2.1713 C   0  0  0  0  0  0  0  0  0  0  0  0
    0.3402    1.5888   -2.2452 C   0  0  0  0  0  0  0  0  0  0  0  0
   -0.2919    0.7322   -1.1954 C   0  0  2  0  0  3  0  0  0  0  0  0
   -0.6276    1.2870    0.0827 C   0  0  0  0  0  3  0  0  0  0  0  0
   -0.6213    0.4352    1.2288 C   0  0  0  0  0  3  0  0  0  0  0  0
   -0.2523   -0.9491    1.1117 C   0  0  1  0  0  3  0  0  0  0  0  0
   -0.3043   -1.5132   -0.1795 C   0  0  0  0  0  0  0  0  0  0  0  0
   -0.3177   -0.6717   -1.3376 C   0  0  0  0  0  0  0  0  0  0  0  0
    3.0036   -3.1592   -1.4334 C   0  0  0  0  0  0  0  0  0  0  0  0
    2.1006    3.5197    1.5763 C   0  0  0  0  0  0  0  0  0  0  0  0
   -0.0681   -2.2718    2.9607 H   0  0  0  0  0  0  0  0  0  0  0  0
    2.4042   -2.0601    3.0179 H   0  0  0  0  0  0  0  0  0  0  0  0
    2.7091   -0.7885   -2.2128 H   0  0  0  0  0  0  0  0  0  0  0  0
    2.2421    1.1329    2.3444 H   0  0  0  0  0  0  0  0  0  0  0  0
    2.2131    2.3923   -2.8871 H   0  0  0  0  0  0  0  0  0  0  0  0
   -0.2564    2.1115   -3.0109 H   0  0  0  0  0  0  0  0  0  0  0  0
   -0.7251    2.3748    0.1951 H   0  0  0  0  0  0  0  0  0  0  0  0
   -0.7387    0.8754    2.2295 H   0  0  0  0  0  0  0  0  0  0  0  0
   -0.1733   -2.5983   -0.2994 H   0  0  0  0  0  0  0  0  0  0  0  0
   -0.2131   -1.1155   -2.3371 H   0  0  0  0  0  0  0  0  0  0  0  0
    3.1092   -4.2470   -1.2646 H   0  0  0  0  0  0  0  0  0  0  0  0
    3.9057   -2.7862   -1.9684 H   0  0  0  0  0  0  0  0  0  0  0  0
    2.1120   -2.9807   -2.0777 H   0  0  0  0  0  0  0  0  0  0  0  0
    1.9846    4.6062    1.4062 H   0  0  0  0  0  0  0  0  0  0  0  0
    1.2023    3.1426    2.1168 H   0  0  0  0  0  0  0  0  0  0  0  0
    2.9963    3.3462    2.2139 H   0  0  0  0  0  0  0  0  0  0  0  0
  1  6  1  0  0  0  0
  2 20  1  0  0  0  0
  3  4  2  0  0  0  0
  3 21  1  0  0  0  0
  4 22  1  0  0  0  0
  5 10  1  0  0  0  0
  5  4  1  0  0  0  0
  6  5  2  0  0  0  0
  7  8  2  0  0  0  0
  7  6  1  0  0  0  0
  8  9  1  0  0  0  0
  9  2  1  0  0  0  0
  9 10  2  0  0  0  0
 10 24  1  0  0  0  0
 11  8  1  0  0  0  0
 12 11  2  0  0  0  0
 13 12  1  1  0  0  0
 13 14  1  0  0  0  0
 14 27  1  0  0  0  0
 14 15  1  0  0  0  0
 15 28  1  0  0  0  0
 16 17  1  6  0  0  0
 16 15  1  0  0  0  0
 16  3  1  0  0  0  0
 18 13  1  0  0  0  0
 18 17  2  0  0  0  0
 19 31  1  0  0  0  0
 19  1  1  0  0  0  0
 20 35  1  0  0  0  0
 20 36  1  0  0  0  0
 23  7  1  0  0  0  0
 25 11  1  0  0  0  0
 26 12  1  0  0  0  0
 29 17  1  0  0  0  0
 30 18  1  0  0  0  0
 32 19  1  0  0  0  0
 33 19  1  0  0  0  0
 34 20  1  0  0  0  0
M  END
