4
 OpenBabel05122313113D

 23 24  0  0  0  0  0  0  0  0999 V2000
    2.5760    0.9002    0.2614 C   0  0  0  0  0  0  0  0  0  0  0  0
    2.2208    0.6246   -1.0943 C   0  0  0  0  0  0  0  0  0  0  0  0
    2.3889   -0.3281   -1.6092 H   0  0  0  0  0  0  0  0  0  0  0  0
    1.6431    1.7991   -1.6557 C   0  0  0  0  0  3  0  0  0  0  0  0
    1.2944    1.9146   -2.6889 H   0  0  0  0  0  0  0  0  0  0  0  0
    1.6366    2.8114   -0.6457 C   0  0  0  0  0  0  0  0  0  0  0  0
    1.2831    3.8425   -0.7646 H   0  0  0  0  0  0  0  0  0  0  0  0
    2.2133    2.2543    0.5320 C   0  0  0  0  0  0  0  0  0  0  0  0
    2.3599    2.7717    1.4877 H   0  0  0  0  0  0  0  0  0  0  0  0
    3.2143   -0.0687    1.2305 C   0  0  0  0  0  0  0  0  0  0  0  0
    3.7235    0.5162    2.0249 H   0  0  0  0  0  0  0  0  0  0  0  0
    2.4327   -0.6647    1.7482 H   0  0  0  0  0  0  0  0  0  0  0  0
    4.1981   -1.0137    0.5713 C   0  0  0  0  0  0  0  0  0  0  0  0
    3.9484   -2.3975    0.5110 C   0  0  0  0  0  0  0  0  0  0  0  0
    3.0274   -2.7990    0.9631 H   0  0  0  0  0  0  0  0  0  0  0  0
    4.8547   -3.2668   -0.1184 C   0  0  0  0  0  0  0  0  0  0  0  0
    4.6409   -4.3460   -0.1553 H   0  0  0  0  0  0  0  0  0  0  0  0
    6.0268   -2.7607   -0.6987 C   0  0  0  0  0  0  0  0  0  0  0  0
    6.7388   -3.4396   -1.1923 H   0  0  0  0  0  0  0  0  0  0  0  0
    6.2861   -1.3804   -0.6468 C   0  0  0  0  0  0  0  0  0  0  0  0
    7.2040   -0.9749   -1.0998 H   0  0  0  0  0  0  0  0  0  0  0  0
    5.3784   -0.5166   -0.0196 C   0  0  0  0  0  0  0  0  0  0  0  0
    5.5808    0.5660    0.0110 H   0  0  0  0  0  0  0  0  0  0  0  0
  1  8  1  0  0  0  0
  1 10  1  0  0  0  0
  2  1  2  0  0  0  0
  3  2  1  0  0  0  0
  4  2  1  0  0  0  0
  4  6  1  0  0  0  0
  5  4  1  0  0  0  0
  6  8  2  0  0  0  0
  7  6  1  0  0  0  0
  8  9  1  0  0  0  0
 10 12  1  0  0  0  0
 10 11  1  0  0  0  0
 13 10  1  0  0  0  0
 14 13  1  0  0  0  0
 14 15  1  0  0  0  0
 16 14  2  0  0  0  0
 17 16  1  0  0  0  0
 18 20  2  0  0  0  0
 18 16  1  0  0  0  0
 19 18  1  0  0  0  0
 20 22  1  0  0  0  0
 21 20  1  0  0  0  0
 22 23  1  0  0  0  0
 22 13  2  0  0  0  0
M  END
