6
 OpenBabel05122313113D

 58 61  0  0  0  0  0  0  0  0999 V2000
   -4.9130    0.2304   -0.7097 O   0  0  0  0  0  0  0  0  0  0  0  0
   -0.4659    1.7463   -1.0923 O   0  0  0  0  0  0  0  0  0  0  0  0
    0.9306   -2.8219   -0.5306 N   0  0  0  0  0  0  0  0  0  0  0  0
    2.5618   -1.4127   -0.6266 N   0  0  0  0  0  0  0  0  0  0  0  0
   -1.5188   -1.1506   -0.7575 N   0  0  0  0  0  0  0  0  0  0  0  0
    1.2555   -1.5286   -0.2155 C   0  0  0  0  0  2  0  0  0  0  0  0
    3.0209   -2.6090   -1.1834 C   0  0  0  0  0  0  0  0  0  0  0  0
    4.0357   -2.7038   -1.5805 H   0  0  0  0  0  0  0  0  0  0  0  0
    1.9851   -3.5006   -1.1253 C   0  0  0  0  0  0  0  0  0  0  0  0
    1.9150   -4.5452   -1.4430 H   0  0  0  0  0  0  0  0  0  0  0  0
   -0.4341   -3.3107   -0.3590 C   0  0  0  0  0  0  0  0  0  0  0  0
   -0.6941   -3.2651    0.7195 H   0  0  0  0  0  0  0  0  0  0  0  0
   -0.4787   -4.3606   -0.7008 H   0  0  0  0  0  0  0  0  0  0  0  0
   -1.3867   -2.4475   -1.1553 C   0  0  0  0  0  0  0  0  0  0  0  0
   -2.0580   -2.9690   -2.2657 C   0  0  0  0  0  0  0  0  0  0  0  0
   -1.9186   -4.0239   -2.5414 H   0  0  0  0  0  0  0  0  0  0  0  0
   -2.8908   -2.1266   -3.0143 C   0  0  0  0  0  0  0  0  0  0  0  0
   -3.4151   -2.4988   -3.9066 H   0  0  0  0  0  0  0  0  0  0  0  0
   -3.0472   -0.8085   -2.5912 C   0  0  0  0  0  0  0  0  0  0  0  0
   -3.7076   -0.1150   -3.1276 H   0  0  0  0  0  0  0  0  0  0  0  0
   -2.3746   -0.3395   -1.4409 C   0  0  0  0  0  0  0  0  0  0  0  0
   -2.7091    1.0243   -0.9533 C   0  0  0  0  0  0  0  0  0  0  0  0
   -4.0680    1.2901   -0.6187 C   0  0  0  0  0  0  0  0  0  0  0  0
   -4.4671    2.5702   -0.1867 C   0  0  0  0  0  0  0  0  0  0  0  0
   -5.5101    2.7750    0.0826 H   0  0  0  0  0  0  0  0  0  0  0  0
   -3.5101    3.5874   -0.1025 C   0  0  0  0  0  0  0  0  0  0  0  0
   -3.8199    4.5912    0.2243 H   0  0  0  0  0  0  0  0  0  0  0  0
   -2.1650    3.3570   -0.4169 C   0  0  0  0  0  0  0  0  0  0  0  0
   -1.4410    4.1753   -0.3334 H   0  0  0  0  0  0  0  0  0  0  0  0
   -1.7621    2.0709   -0.8282 C   0  0  0  0  0  0  0  0  0  0  0  0
   -6.2865    0.4134   -0.3910 C   0  0  0  0  0  0  0  0  0  0  0  0
   -6.4221    0.7200    0.6687 H   0  0  0  0  0  0  0  0  0  0  0  0
   -6.7713   -0.5669   -0.5490 H   0  0  0  0  0  0  0  0  0  0  0  0
   -6.7638    1.1677   -1.0529 H   0  0  0  0  0  0  0  0  0  0  0  0
    0.5165    2.7654   -0.9251 C   0  0  0  0  0  0  0  0  0  0  0  0
    0.3641    3.5930   -1.6501 H   0  0  0  0  0  0  0  0  0  0  0  0
    1.4949    2.2913   -1.1039 H   0  0  0  0  0  0  0  0  0  0  0  0
    0.5001    3.1729    0.1074 H   0  0  0  0  0  0  0  0  0  0  0  0
    3.3387   -0.2026   -0.7179 C   0  0  0  0  0  0  0  0  0  0  0  0
    3.1229    0.6279   -1.8394 C   0  0  0  0  0  0  0  0  0  0  0  0
    3.9185    1.7837   -1.9565 C   0  0  0  0  0  0  0  0  0  0  0  0
    3.7661    2.4448   -2.8244 H   0  0  0  0  0  0  0  0  0  0  0  0
    4.9034    2.1110   -1.0066 C   0  0  0  0  0  0  0  0  0  0  0  0
    5.1044    1.2316    0.0761 C   0  0  0  0  0  0  0  0  0  0  0  0
    5.8878    1.4587    0.8165 H   0  0  0  0  0  0  0  0  0  0  0  0
    4.3500    0.0566    0.2354 C   0  0  0  0  0  0  0  0  0  0  0  0
    2.0817    0.2809   -2.8733 C   0  0  0  0  0  0  0  0  0  0  0  0
    2.2375   -0.7411   -3.2764 H   0  0  0  0  0  0  0  0  0  0  0  0
    2.1156    0.9894   -3.7215 H   0  0  0  0  0  0  0  0  0  0  0  0
    1.0579    0.3063   -2.4453 H   0  0  0  0  0  0  0  0  0  0  0  0
    5.7462    3.3518   -1.1491 C   0  0  0  0  0  0  0  0  0  0  0  0
    6.8150    3.0910   -1.2953 H   0  0  0  0  0  0  0  0  0  0  0  0
    5.6943    3.9797   -0.2362 H   0  0  0  0  0  0  0  0  0  0  0  0
    5.4285    3.9693   -2.0103 H   0  0  0  0  0  0  0  0  0  0  0  0
    4.6414   -0.9071    1.3571 C   0  0  0  0  0  0  0  0  0  0  0  0
    5.0834   -1.8499    0.9718 H   0  0  0  0  0  0  0  0  0  0  0  0
    3.7271   -1.1903    1.9146 H   0  0  0  0  0  0  0  0  0  0  0  0
    5.3601   -0.4724    2.0761 H   0  0  0  0  0  0  0  0  0  0  0  0
  1 23  1  0  0  0  0
  1 31  1  0  0  0  0
  2 35  1  0  0  0  0
  2 30  1  0  0  0  0
  3 11  1  0  0  0  0
  3  6  1  0  0  0  0
  4  6  1  0  0  0  0
  7  9  2  0  0  0  0
  7  4  1  0  0  0  0
  8  7  1  0  0  0  0
  9  3  1  0  0  0  0
 10  9  1  0  0  0  0
 11 12  1  0  0  0  0
 13 11  1  0  0  0  0
 14  5  1  0  0  0  0
 14 11  1  0  0  0  0
 15 14  2  0  0  0  0
 16 15  1  0  0  0  0
 17 19  2  0  0  0  0
 17 15  1  0  0  0  0
 18 17  1  0  0  0  0
 19 21  1  0  0  0  0
 20 19  1  0  0  0  0
 21 22  1  0  0  0  0
 21  5  2  0  0  0  0
 22 30  2  0  0  0  0
 22 23  1  0  0  0  0
 23 24  2  0  0  0  0
 24 26  1  0  0  0  0
 24 25  1  0  0  0  0
 26 27  1  0  0  0  0
 28 29  1  0  0  0  0
 28 26  2  0  0  0  0
 30 28  1  0  0  0  0
 31 32  1  0  0  0  0
 33 31  1  0  0  0  0
 34 31  1  0  0  0  0
 35 38  1  0  0  0  0
 36 35  1  0  0  0  0
 37 35  1  0  0  0  0
 39  4  1  0  0  0  0
 39 46  1  0  0  0  0
 40 39  2  0  0  0  0
 41 40  1  0  0  0  0
 41 43  2  0  0  0  0
 42 41  1  0  0  0  0
 43 44  1  0  0  0  0
 44 46  2  0  0  0  0
 44 45  1  0  0  0  0
 46 55  1  0  0  0  0
 47 50  1  0  0  0  0
 47 40  1  0  0  0  0
 48 47  1  0  0  0  0
 49 47  1  0  0  0  0
 51 43  1  0  0  0  0
 51 53  1  0  0  0  0
 52 51  1  0  0  0  0
 54 51  1  0  0  0  0
 55 57  1  0  0  0  0
 55 58  1  0  0  0  0
 56 55  1  0  0  0  0
M  END
