4
 OpenBabel05122313113D

 28 29  0  0  1  0  0  0  0  0999 V2000
    0.6518   -1.5966    1.1897 C   0  0  0  0  0  0  0  0  0  0  0  0
   -0.3710   -2.3079    0.6710 C   0  0  0  0  0  0  0  0  0  0  0  0
   -1.3676   -1.8664   -0.3209 C   0  0  0  0  0  3  0  0  0  0  0  0
   -1.1259   -1.0541   -1.4904 C   0  0  0  0  0  3  0  0  0  0  0  0
   -0.4015    0.1612   -1.3564 C   0  0  0  0  0  3  0  0  0  0  0  0
    0.0363    0.5836   -0.0466 C   0  0  0  0  0  3  0  0  0  0  0  0
    0.9574   -0.1560    0.9100 C   0  0  2  0  0  0  0  0  0  0  0  0
    2.4541   -0.0254    0.4846 C   0  0  1  0  0  0  0  0  0  0  0  0
    2.7748   -0.6968   -0.8264 C   0  0  0  0  0  0  0  0  0  0  0  0
    4.0606   -0.9906   -1.1806 C   0  0  0  0  0  0  0  0  0  0  0  0
    5.2405   -0.5259   -0.4929 C   0  0  0  0  0  0  0  0  0  0  0  0
    5.3518    0.6690    0.1926 C   0  0  0  0  0  0  0  0  0  0  0  0
    4.3070    1.6543    0.3317 C   0  0  0  0  0  0  0  0  0  0  0  0
    2.9676    1.3873    0.3592 C   0  0  0  0  0  0  0  0  0  0  0  0
    1.3175   -2.0865    1.9199 H   0  0  0  0  0  0  0  0  0  0  0  0
   -0.5121   -3.3404    1.0331 H   0  0  0  0  0  0  0  0  0  0  0  0
   -2.1749   -2.6038   -0.4648 H   0  0  0  0  0  0  0  0  0  0  0  0
   -1.6122   -1.2925   -2.4500 H   0  0  0  0  0  0  0  0  0  0  0  0
   -0.3443    0.8452   -2.2190 H   0  0  0  0  0  0  0  0  0  0  0  0
    0.2404    1.6678   -0.0089 H   0  0  0  0  0  0  0  0  0  0  0  0
    0.8937    0.3781    1.8882 H   0  0  0  0  0  0  0  0  0  0  0  0
    3.0624   -0.5266    1.2754 H   0  0  0  0  0  0  0  0  0  0  0  0
    1.9429   -0.9801   -1.4919 H   0  0  0  0  0  0  0  0  0  0  0  0
    4.2245   -1.6115   -2.0782 H   0  0  0  0  0  0  0  0  0  0  0  0
    6.1703   -1.0964   -0.6587 H   0  0  0  0  0  0  0  0  0  0  0  0
    6.3615    0.9646    0.5248 H   0  0  0  0  0  0  0  0  0  0  0  0
    4.6278    2.7088    0.3890 H   0  0  0  0  0  0  0  0  0  0  0  0
    2.2502    2.2232    0.3155 H   0  0  0  0  0  0  0  0  0  0  0  0
  1 15  1  0  0  0  0
  2 16  1  0  0  0  0
  2  1  2  0  0  0  0
  3  2  1  0  0  0  0
  4  5  1  0  0  0  0
  4  3  1  0  0  0  0
  5  6  1  0  0  0  0
  6 20  1  0  0  0  0
  6  7  1  0  0  0  0
  7  1  1  0  0  0  0
  7 21  1  1  0  0  0
  8  7  1  0  0  0  0
  8 22  1  1  0  0  0
  9  8  1  0  0  0  0
 10  9  2  0  0  0  0
 10 11  1  0  0  0  0
 11 12  2  0  0  0  0
 12 13  1  0  0  0  0
 12 26  1  0  0  0  0
 13 14  2  0  0  0  0
 13 27  1  0  0  0  0
 14  8  1  0  0  0  0
 17  3  1  0  0  0  0
 18  4  1  0  0  0  0
 19  5  1  0  0  0  0
 23  9  1  0  0  0  0
 24 10  1  0  0  0  0
 25 11  1  0  0  0  0
 28 14  1  0  0  0  0
M  END
