7
 OpenBabel05122313113D

 31 33  0  0  0  0  0  0  0  0999 V2000
    3.9188    0.5615    2.7634 Cl  0  0  0  0  0  0  0  0  0  0  0  0
    2.1264   -0.7157   -2.2216 Cl  0  0  0  0  0  0  0  0  0  0  0  0
   -1.6908    3.1471    2.3292 Cl  0  0  0  0  0  0  0  0  0  0  0  0
    0.5093    2.6905   -2.6149 Cl  0  0  0  0  0  0  0  0  0  0  0  0
    2.2274    0.9654    0.3055 N   0  0  0  0  0  0  0  0  0  0  0  0
    0.4006    2.2035    0.3394 N   0  0  0  0  0  0  0  0  0  0  0  0
    0.8504    0.9026    0.1512 C   0  0  0  0  0  2  0  0  0  0  0  0
    2.7243    2.3545    0.3455 C   0  0  0  0  0  0  0  0  0  0  0  0
    3.0695    2.6494   -0.6699 H   0  0  0  0  0  0  0  0  0  0  0  0
    3.5587    2.4579    1.0626 H   0  0  0  0  0  0  0  0  0  0  0  0
    1.4760    3.1150    0.7758 C   0  0  0  0  0  0  0  0  0  0  0  0
    1.4279    3.2610    1.8768 H   0  0  0  0  0  0  0  0  0  0  0  0
    1.3781    4.0980    0.2782 H   0  0  0  0  0  0  0  0  0  0  0  0
    3.1597   -0.0889    0.2179 C   0  0  0  0  0  0  0  0  0  0  0  0
    4.0747   -0.3309    1.2729 C   0  0  0  0  0  0  0  0  0  0  0  0
    5.0596   -1.3222    1.1863 C   0  0  0  0  0  0  0  0  0  0  0  0
    5.7367   -1.4788    2.0368 H   0  0  0  0  0  0  0  0  0  0  0  0
    5.1388   -2.1171    0.0353 C   0  0  0  0  0  0  0  0  0  0  0  0
    5.9030   -2.9050   -0.0334 H   0  0  0  0  0  0  0  0  0  0  0  0
    4.2393   -1.9245   -1.0207 C   0  0  0  0  0  0  0  0  0  0  0  0
    4.2732   -2.5496   -1.9231 H   0  0  0  0  0  0  0  0  0  0  0  0
    3.2747   -0.9142   -0.9274 C   0  0  0  0  0  0  0  0  0  0  0  0
   -0.7826    2.7414   -0.2160 C   0  0  0  0  0  0  0  0  0  0  0  0
   -1.8519    3.1980    0.5889 C   0  0  0  0  0  0  0  0  0  0  0  0
   -3.0268    3.7182    0.0306 C   0  0  0  0  0  0  0  0  0  0  0  0
   -3.8432    4.0371    0.6922 H   0  0  0  0  0  0  0  0  0  0  0  0
   -3.1307    3.8237   -1.3636 C   0  0  0  0  0  0  0  0  0  0  0  0
   -4.0556    4.2167   -1.8110 H   0  0  0  0  0  0  0  0  0  0  0  0
   -2.0585    3.4664   -2.1900 C   0  0  0  0  0  0  0  0  0  0  0  0
   -2.1111    3.5872   -3.2801 H   0  0  0  0  0  0  0  0  0  0  0  0
   -0.8863    2.9588   -1.6131 C   0  0  0  0  0  0  0  0  0  0  0  0
  2 22  1  0  0  0  0
  4 31  1  0  0  0  0
  5  8  1  0  0  0  0
  6 11  1  0  0  0  0
  7  5  1  0  0  0  0
  7  6  1  0  0  0  0
  8 11  1  0  0  0  0
  8 10  1  0  0  0  0
  9  8  1  0  0  0  0
 11 12  1  0  0  0  0
 13 11  1  0  0  0  0
 14  5  1  0  0  0  0
 14 15  1  0  0  0  0
 15  1  1  0  0  0  0
 16 15  2  0  0  0  0
 16 17  1  0  0  0  0
 18 16  1  0  0  0  0
 19 18  1  0  0  0  0
 20 22  1  0  0  0  0
 20 18  2  0  0  0  0
 21 20  1  0  0  0  0
 22 14  2  0  0  0  0
 23  6  1  0  0  0  0
 23 24  1  0  0  0  0
 24  3  1  0  0  0  0
 25 24  2  0  0  0  0
 25 26  1  0  0  0  0
 27 25  1  0  0  0  0
 28 27  1  0  0  0  0
 29 31  1  0  0  0  0
 29 27  2  0  0  0  0
 30 29  1  0  0  0  0
 31 23  2  0  0  0  0
M  END
