11
 OpenBabel05122313113D

 58 59  0  0  1  0  0  0  0  0999 V2000
   -0.0024    3.9495    0.7445 O   0  0  0  0  0  0  0  0  0  0  0  0
   -2.0375    3.1588    0.1356 O   0  0  0  0  0  0  0  0  0  0  0  0
    5.1961    0.5020   -0.1563 O   0  0  0  0  0  0  0  0  0  0  0  0
    4.0794   -0.8693   -1.5848 O   0  0  0  0  0  0  0  0  0  0  0  0
    2.3629   -2.7410    2.3734 O   0  0  0  0  0  0  0  0  0  0  0  0
    4.0608   -2.3005    0.9291 O   0  0  0  0  0  0  0  0  0  0  0  0
   -3.4386   -0.2619    1.6094 O   0  0  0  0  0  0  0  0  0  0  0  0
   -2.6036    1.6663    2.4543 O   0  0  0  0  0  0  0  0  0  0  0  0
   -0.3680   -0.6551    0.9253 N   0  0  0  0  0  0  0  0  0  0  0  0
    2.1868    1.3109    0.1228 N   0  0  0  0  0  0  0  0  0  0  0  0
   -1.2376    0.5040    0.9460 C   0  0  2  0  0  3  0  0  0  0  0  0
   -0.3239    1.5825    0.5600 C   0  0  2  0  0  3  0  0  0  0  0  0
    1.0649    1.2706    1.0880 C   0  0  1  0  0  0  0  0  0  0  0  0
    2.8418    0.1295    0.1462 C   0  0  0  0  0  0  0  0  0  0  0  0
    2.2282   -0.8289    0.9533 C   0  0  0  0  0  0  0  0  0  0  0  0
    0.9774   -0.2137    1.5123 C   0  0  2  0  0  0  0  0  0  0  0  0
   -0.7394    2.9992    0.5033 C   0  0  0  0  0  0  0  0  0  0  0  0
   -2.4914    4.5093    0.0523 C   0  0  0  0  0  0  0  0  0  0  0  0
    2.5492    2.5641   -0.5612 C   0  0  0  0  0  0  0  0  0  0  0  0
    3.1373    2.3539   -1.9604 C   0  0  0  0  0  0  0  0  0  0  0  0
    3.4478    3.4292    0.3333 C   0  0  0  0  0  0  0  0  0  0  0  0
    4.1766   -0.0475   -0.5308 C   0  0  0  0  0  0  0  0  0  0  0  0
    5.3120   -1.1644   -2.2503 C   0  0  0  0  0  0  0  0  0  0  0  0
    2.8385   -2.0261    1.4892 C   0  0  0  0  0  0  0  0  0  0  0  0
    4.7327   -3.4407    1.4594 C   0  0  0  0  0  0  0  0  0  0  0  0
   -0.9261   -1.9848    1.3239 C   0  0  0  0  0  0  0  0  0  0  0  0
   -0.2986   -3.1276    0.5263 C   0  0  0  0  0  0  0  0  0  0  0  0
   -0.8557   -2.2179    2.8365 C   0  0  0  0  0  0  0  0  0  0  0  0
   -2.5327    0.5602    1.6765 C   0  0  0  0  0  0  0  0  0  0  0  0
   -3.8675    1.8953    3.0856 C   0  0  0  0  0  0  0  0  0  0  0  0
    1.3197    1.9484    1.9337 H   0  0  0  0  0  0  0  0  0  0  0  0
    0.8979   -0.3394    2.6096 H   0  0  0  0  0  0  0  0  0  0  0  0
    1.5843    3.0919   -0.6816 H   0  0  0  0  0  0  0  0  0  0  0  0
   -1.9904   -1.9087    1.0395 H   0  0  0  0  0  0  0  0  0  0  0  0
   -2.4602    5.0005    1.0467 H   0  0  0  0  0  0  0  0  0  0  0  0
   -1.8605    5.0977   -0.6439 H   0  0  0  0  0  0  0  0  0  0  0  0
   -3.5299    4.4599   -0.3210 H   0  0  0  0  0  0  0  0  0  0  0  0
    4.2038    2.0597   -1.9271 H   0  0  0  0  0  0  0  0  0  0  0  0
    2.5719    1.5956   -2.5334 H   0  0  0  0  0  0  0  0  0  0  0  0
    3.0845    3.3128   -2.5122 H   0  0  0  0  0  0  0  0  0  0  0  0
    2.9408    3.6658    1.2890 H   0  0  0  0  0  0  0  0  0  0  0  0
    4.4018    2.9050    0.5406 H   0  0  0  0  0  0  0  0  0  0  0  0
    3.6693    4.3912   -0.1706 H   0  0  0  0  0  0  0  0  0  0  0  0
    5.8178   -0.2342   -2.5788 H   0  0  0  0  0  0  0  0  0  0  0  0
    5.9926   -1.7130   -1.5682 H   0  0  0  0  0  0  0  0  0  0  0  0
    5.0456   -1.7908   -3.1193 H   0  0  0  0  0  0  0  0  0  0  0  0
    4.9033   -3.3358    2.5504 H   0  0  0  0  0  0  0  0  0  0  0  0
    4.1448   -4.3670    1.2936 H   0  0  0  0  0  0  0  0  0  0  0  0
    5.6995   -3.5023    0.9270 H   0  0  0  0  0  0  0  0  0  0  0  0
   -0.2896   -2.8946   -0.5552 H   0  0  0  0  0  0  0  0  0  0  0  0
    0.7282   -3.3472    0.8678 H   0  0  0  0  0  0  0  0  0  0  0  0
   -0.9041   -4.0438    0.6800 H   0  0  0  0  0  0  0  0  0  0  0  0
    0.1851   -2.4084    3.1636 H   0  0  0  0  0  0  0  0  0  0  0  0
   -1.2793   -1.3649    3.4045 H   0  0  0  0  0  0  0  0  0  0  0  0
   -1.4610   -3.1117    3.0873 H   0  0  0  0  0  0  0  0  0  0  0  0
   -4.6614    2.0432    2.3251 H   0  0  0  0  0  0  0  0  0  0  0  0
   -4.1536    1.0365    3.7249 H   0  0  0  0  0  0  0  0  0  0  0  0
   -3.7443    2.8090    3.6937 H   0  0  0  0  0  0  0  0  0  0  0  0
  2 17  1  0  0  0  0
  4 22  1  0  0  0  0
  6 25  1  0  0  0  0
  6 24  1  0  0  0  0
  7 29  2  0  0  0  0
  8 30  1  0  0  0  0
  9 11  1  0  0  0  0
  9 26  1  0  0  0  0
  9 16  1  0  0  0  0
 10 14  1  0  0  0  0
 10 13  1  0  0  0  0
 11 29  1  1  0  0  0
 12 17  1  1  0  0  0
 12 11  1  0  0  0  0
 12 13  1  0  0  0  0
 13 16  1  0  0  0  0
 13 31  1  1  0  0  0
 14 15  2  0  0  0  0
 15 24  1  0  0  0  0
 15 16  1  0  0  0  0
 16 32  1  1  0  0  0
 17  1  2  0  0  0  0
 18  2  1  0  0  0  0
 18 35  1  0  0  0  0
 19 10  1  0  0  0  0
 19 21  1  0  0  0  0
 20 38  1  0  0  0  0
 20 19  1  0  0  0  0
 21 42  1  0  0  0  0
 21 41  1  0  0  0  0
 22  3  2  0  0  0  0
 22 14  1  0  0  0  0
 23  4  1  0  0  0  0
 23 45  1  0  0  0  0
 24  5  2  0  0  0  0
 25 47  1  0  0  0  0
 26 28  1  0  0  0  0
 27 52  1  0  0  0  0
 27 51  1  0  0  0  0
 27 26  1  0  0  0  0
 28 55  1  0  0  0  0
 28 53  1  0  0  0  0
 28 54  1  0  0  0  0
 29  8  1  0  0  0  0
 30 58  1  0  0  0  0
 30 57  1  0  0  0  0
 33 19  1  0  0  0  0
 34 26  1  0  0  0  0
 36 18  1  0  0  0  0
 37 18  1  0  0  0  0
 39 20  1  0  0  0  0
 40 20  1  0  0  0  0
 43 21  1  0  0  0  0
 44 23  1  0  0  0  0
 46 23  1  0  0  0  0
 48 25  1  0  0  0  0
 49 25  1  0  0  0  0
 50 27  1  0  0  0  0
 56 30  1  0  0  0  0
M  END
