3
 OpenBabel05122313113D

 36 37  0  0  1  0  0  0  0  0999 V2000
   -0.7339   -0.2165   -2.0749 C   0  0  0  0  0  3  0  0  0  0  0  0
    0.6553   -0.3614   -1.7724 C   0  0  0  0  0  3  0  0  0  0  0  0
    1.2039    0.1006   -0.5238 C   0  0  1  0  0  3  0  0  0  0  0  0
    2.6672    0.0795   -0.2897 C   0  0  0  0  0  0  0  0  0  0  0  0
    3.5217   -0.9136   -0.8298 C   0  0  0  0  0  0  0  0  0  0  0  0
    4.9062   -0.8738   -0.6186 C   0  0  0  0  0  0  0  0  0  0  0  0
    5.4828    0.1646    0.1323 C   0  0  0  0  0  0  0  0  0  0  0  0
    4.6546    1.1704    0.6558 C   0  0  0  0  0  0  0  0  0  0  0  0
    3.2703    1.1306    0.4421 C   0  0  0  0  0  0  0  0  0  0  0  0
    0.2357    0.7808    0.3788 C   0  0  1  0  0  3  0  0  0  0  0  0
    0.1298    0.1685    1.7548 C   0  0  0  0  0  0  0  0  0  0  0  0
    1.3546   -0.1182    2.6305 C   0  0  0  0  0  0  0  0  0  0  0  0
   -0.2420    2.1514    0.1241 C   0  0  0  0  0  0  0  0  0  0  0  0
    0.0852    2.8049   -1.0961 C   0  0  0  0  0  0  0  0  0  0  0  0
   -0.3936    4.0865   -1.3945 C   0  0  0  0  0  0  0  0  0  0  0  0
   -1.1916    4.7874   -0.4755 C   0  0  0  0  0  0  0  0  0  0  0  0
   -1.4884    4.1834    0.7577 C   0  0  0  0  0  0  0  0  0  0  0  0
   -1.0219    2.8959    1.0516 C   0  0  0  0  0  0  0  0  0  0  0  0
   -1.1132   -0.7748   -2.9476 H   0  0  0  0  0  0  0  0  0  0  0  0
   -1.2041    0.7675   -1.9366 H   0  0  0  0  0  0  0  0  0  0  0  0
    1.3162   -0.9457   -2.4303 H   0  0  0  0  0  0  0  0  0  0  0  0
    3.0941   -1.7358   -1.4227 H   0  0  0  0  0  0  0  0  0  0  0  0
    5.5435   -1.6651   -1.0434 H   0  0  0  0  0  0  0  0  0  0  0  0
    6.5702    0.1938    0.2990 H   0  0  0  0  0  0  0  0  0  0  0  0
    5.0927    2.0023    1.2291 H   0  0  0  0  0  0  0  0  0  0  0  0
    2.6287    1.9348    0.8322 H   0  0  0  0  0  0  0  0  0  0  0  0
   -0.4465   -0.8411    1.7043 H   0  0  0  0  0  0  0  0  0  0  0  0
   -0.6084    0.7381    2.3540 H   0  0  0  0  0  0  0  0  0  0  0  0
    1.0460   -0.6580    3.5503 H   0  0  0  0  0  0  0  0  0  0  0  0
    2.1052   -0.7353    2.1052 H   0  0  0  0  0  0  0  0  0  0  0  0
    1.8479    0.8232    2.9421 H   0  0  0  0  0  0  0  0  0  0  0  0
    0.7380    2.2860   -1.8118 H   0  0  0  0  0  0  0  0  0  0  0  0
   -0.1252    4.5510   -2.3563 H   0  0  0  0  0  0  0  0  0  0  0  0
   -1.5587    5.7984   -0.7069 H   0  0  0  0  0  0  0  0  0  0  0  0
   -2.0903    4.7232    1.5054 H   0  0  0  0  0  0  0  0  0  0  0  0
   -1.2769    2.4624    2.0301 H   0  0  0  0  0  0  0  0  0  0  0  0
  1 20  1  0  0  0  0
  1  2  1  0  0  0  0
  3  2  1  6  0  0  0
  3  4  1  0  0  0  0
  3 10  1  0  0  0  0
  4  9  1  0  0  0  0
  5  6  1  0  0  0  0
  5  4  2  0  0  0  0
  6  7  2  0  0  0  0
  7 24  1  0  0  0  0
  7  8  1  0  0  0  0
  8 25  1  0  0  0  0
  9  8  2  0  0  0  0
  9 26  1  0  0  0  0
 10 11  1  1  0  0  0
 11 28  1  0  0  0  0
 11 12  1  0  0  0  0
 12 31  1  0  0  0  0
 12 29  1  0  0  0  0
 13 10  1  0  0  0  0
 13 18  1  0  0  0  0
 14 13  2  0  0  0  0
 15 14  1  0  0  0  0
 15 16  2  0  0  0  0
 16 17  1  0  0  0  0
 17 18  2  0  0  0  0
 17 35  1  0  0  0  0
 18 36  1  0  0  0  0
 19  1  1  0  0  0  0
 21  2  1  0  0  0  0
 22  5  1  0  0  0  0
 23  6  1  0  0  0  0
 27 11  1  0  0  0  0
 30 12  1  0  0  0  0
 32 14  1  0  0  0  0
 33 15  1  0  0  0  0
 34 16  1  0  0  0  0
M  END
