8
 OpenBabel05122313113D

 41 44  0  0  0  0  0  0  0  0999 V2000
   -3.3183   -1.3123   -2.6953 F   0  0  0  0  0  0  0  0  0  0  0  0
   -5.7285   -1.1217   -1.4527 F   0  0  0  0  0  0  0  0  0  0  0  0
   -6.0627   -2.1742    1.0572 F   0  0  0  0  0  0  0  0  0  0  0  0
   -3.9949   -3.5022    2.2641 F   0  0  0  0  0  0  0  0  0  0  0  0
   -1.6489   -3.8355    0.9840 F   0  0  0  0  0  0  0  0  0  0  0  0
    0.0782   -2.8957   -0.8944 N   0  0  0  0  0  0  0  0  0  0  0  0
    1.7211   -2.4740    0.4787 N   0  0  0  0  0  0  0  0  0  0  0  0
    0.6513   -1.9048   -0.1461 C   0  0  0  0  0  2  0  0  0  0  0  0
    0.7660   -4.1001   -0.7414 C   0  0  0  0  0  0  0  0  0  0  0  0
    0.5614   -5.3857   -1.2588 C   0  0  0  0  0  0  0  0  0  0  0  0
   -0.2836   -5.6153   -1.9230 H   0  0  0  0  0  0  0  0  0  0  0  0
    1.4819   -6.3771   -0.8867 C   0  0  0  0  0  0  0  0  0  0  0  0
    1.3550   -7.3986   -1.2743 H   0  0  0  0  0  0  0  0  0  0  0  0
    2.5667   -6.0929   -0.0277 C   0  0  0  0  0  0  0  0  0  0  0  0
    3.2706   -6.8963    0.2342 H   0  0  0  0  0  0  0  0  0  0  0  0
    2.7670   -4.8081    0.4987 C   0  0  0  0  0  0  0  0  0  0  0  0
    3.6160   -4.5820    1.1574 H   0  0  0  0  0  0  0  0  0  0  0  0
    1.8413   -3.8213    0.1343 C   0  0  0  0  0  0  0  0  0  0  0  0
    2.6789   -1.7528    1.3096 C   0  0  0  0  0  0  0  0  0  0  0  0
    2.2084   -0.7774    1.5442 H   0  0  0  0  0  0  0  0  0  0  0  0
    2.7963   -2.2961    2.2687 H   0  0  0  0  0  0  0  0  0  0  0  0
    4.0147   -1.5850    0.6141 C   0  0  0  0  0  0  0  0  0  0  0  0
    5.2076   -1.9863    1.2411 C   0  0  0  0  0  0  0  0  0  0  0  0
    5.1692   -2.4212    2.2532 H   0  0  0  0  0  0  0  0  0  0  0  0
    6.4423   -1.8293    0.5920 C   0  0  0  0  0  0  0  0  0  0  0  0
    7.3695   -2.1428    1.0952 H   0  0  0  0  0  0  0  0  0  0  0  0
    6.4918   -1.2693   -0.6926 C   0  0  0  0  0  0  0  0  0  0  0  0
    7.4586   -1.1390   -1.2018 H   0  0  0  0  0  0  0  0  0  0  0  0
    5.3027   -0.8706   -1.3261 C   0  0  0  0  0  0  0  0  0  0  0  0
    5.3352   -0.4227   -2.3305 H   0  0  0  0  0  0  0  0  0  0  0  0
    4.0690   -1.0273   -0.6798 C   0  0  0  0  0  0  0  0  0  0  0  0
    3.1410   -0.7022   -1.1805 H   0  0  0  0  0  0  0  0  0  0  0  0
   -1.1158   -2.7028   -1.6977 C   0  0  0  0  0  0  0  0  0  0  0  0
   -0.9676   -1.7848   -2.3033 H   0  0  0  0  0  0  0  0  0  0  0  0
   -1.1817   -3.5509   -2.4100 H   0  0  0  0  0  0  0  0  0  0  0  0
   -2.4016   -2.5790   -0.9062 C   0  0  0  0  0  0  0  0  0  0  0  0
   -3.4790   -1.8876   -1.4886 C   0  0  0  0  0  0  0  0  0  0  0  0
   -4.7240   -1.7665   -0.8579 C   0  0  0  0  0  0  0  0  0  0  0  0
   -4.8967   -2.3131    0.4235 C   0  0  0  0  0  0  0  0  0  0  0  0
   -3.8346   -2.9881    1.0434 C   0  0  0  0  0  0  0  0  0  0  0  0
   -2.6124   -3.1393    0.3661 C   0  0  0  0  0  0  0  0  0  0  0  0
  1 37  1  0  0  0  0
  2 38  1  0  0  0  0
  6  9  1  0  0  0  0
  6  8  1  0  0  0  0
  7 19  1  0  0  0  0
  8  7  1  0  0  0  0
  9 18  1  0  0  0  0
 10 12  1  0  0  0  0
 10  9  2  0  0  0  0
 11 10  1  0  0  0  0
 12 14  2  0  0  0  0
 13 12  1  0  0  0  0
 14 15  1  0  0  0  0
 14 16  1  0  0  0  0
 16 17  1  0  0  0  0
 18  7  1  0  0  0  0
 18 16  2  0  0  0  0
 19 20  1  0  0  0  0
 19 21  1  0  0  0  0
 22 23  1  0  0  0  0
 22 19  1  0  0  0  0
 23 24  1  0  0  0  0
 25 26  1  0  0  0  0
 25 23  2  0  0  0  0
 27 25  1  0  0  0  0
 28 27  1  0  0  0  0
 29 27  2  0  0  0  0
 29 31  1  0  0  0  0
 30 29  1  0  0  0  0
 31 22  2  0  0  0  0
 32 31  1  0  0  0  0
 33 36  1  0  0  0  0
 33  6  1  0  0  0  0
 34 33  1  0  0  0  0
 35 33  1  0  0  0  0
 36 41  1  0  0  0  0
 37 36  2  0  0  0  0
 37 38  1  0  0  0  0
 38 39  2  0  0  0  0
 39 40  1  0  0  0  0
 39  3  1  0  0  0  0
 40  4  1  0  0  0  0
 41  5  1  0  0  0  0
 41 40  2  0  0  0  0
M  END
