3
 OpenBabel05122313113D

  8  7  0  0  0  0  0  0  0  0999 V2000
   -1.6279    3.5318   -3.3748 F   0  0  0  0  0  0  0  0  0  0  0  0
   -0.8410    3.5713   -1.3404 F   0  0  0  0  0  0  0  0  0  0  0  0
   -0.4354    1.5763   -2.5608 C   0  0  0  0  0  3  0  0  0  0  0  0
   -1.3505    2.7341   -2.3043 C   0  0  0  0  0  0  0  0  0  0  0  0
    0.0102    1.3972   -3.8251 C   0  0  0  0  0  0  0  0  0  0  0  0
   -0.2700    2.0714   -4.6566 H   0  0  0  0  0  0  0  0  0  0  0  0
    0.6822    0.5610   -4.0833 H   0  0  0  0  0  0  0  0  0  0  0  0
   -2.5647    2.3155   -1.8248 F   0  0  0  0  0  0  0  0  0  0  0  0
  1  4  1  0  0  0  0
  3  4  1  0  0  0  0
  4  8  1  0  0  0  0
  4  2  1  0  0  0  0
  5  3  2  0  0  0  0
  6  5  1  0  0  0  0
  7  5  1  0  0  0  0
M  END
