8
q = 0.0, confidence = 1.0

 30 30  0  0  1  0  0  0  0  0999 V2000
   -2.0447   -1.9489   -0.2308 O   0  0  0  0  0  0  0  0  0  0  0  0
   -3.2463    0.0507   -0.0142 O   0  0  0  0  0  0  0  0  0  0  0  0
    0.1889    3.1569   -1.1567 O   0  0  0  0  0  0  0  0  0  0  0  0
   -0.2776    1.2485    0.2990 C   0  0  0  0  0  0  0  0  0  0  0  0
    0.8330    1.6599    1.1059 C   0  0  0  0  0  0  0  0  0  0  0  0
    1.3896    0.7926    2.0723 C   0  0  0  0  0  0  0  0  0  0  0  0
    0.8112   -0.4936    2.3009 C   0  0  0  0  0  3  0  0  0  0  0  0
   -0.2884   -0.9031    1.5139 C   0  0  0  0  0  3  0  0  0  0  0  0
   -0.8493   -0.0474    0.5078 C   0  0  0  0  0  0  0  0  0  0  0  0
   -0.8149    2.2553   -0.7268 C   0  0  1  0  0  0  0  0  0  0  0  0
   -2.0040   -0.5540   -0.3473 C   0  0  0  0  0  0  0  0  0  0  0  0
   -2.8079   -2.5880   -1.2425 C   0  0  0  0  0  0  0  0  0  0  0  0
   -3.6620   -0.1453    1.3326 C   0  0  0  0  0  0  0  0  0  0  0  0
   -1.9418    3.0838   -0.1095 C   0  0  0  0  0  0  0  0  0  0  0  0
    1.2875    2.6341    0.8817 H   0  0  0  0  0  0  0  0  0  0  0  0
    2.2848    1.0999    2.6310 H   0  0  0  0  0  0  0  0  0  0  0  0
    1.2583   -1.1847    3.0278 H   0  0  0  0  0  0  0  0  0  0  0  0
   -0.7003   -1.9154    1.6138 H   0  0  0  0  0  0  0  0  0  0  0  0
   -1.2269    1.6880   -1.5934 H   0  0  0  0  0  0  0  0  0  0  0  0
   -1.8471   -0.2560   -1.4084 H   0  0  0  0  0  0  0  0  0  0  0  0
   -2.3534   -2.4276   -2.2469 H   0  0  0  0  0  0  0  0  0  0  0  0
   -3.8559   -2.2175   -1.2588 H   0  0  0  0  0  0  0  0  0  0  0  0
   -2.8029   -3.6708   -1.0187 H   0  0  0  0  0  0  0  0  0  0  0  0
   -3.6674   -1.2224    1.6069 H   0  0  0  0  0  0  0  0  0  0  0  0
   -3.0131    0.4028    2.0534 H   0  0  0  0  0  0  0  0  0  0  0  0
   -4.6917    0.2519    1.4080 H   0  0  0  0  0  0  0  0  0  0  0  0
   -1.5779    3.6150    0.7926 H   0  0  0  0  0  0  0  0  0  0  0  0
   -2.7918    2.4316    0.1612 H   0  0  0  0  0  0  0  0  0  0  0  0
   -2.2801    3.8388   -0.8452 H   0  0  0  0  0  0  0  0  0  0  0  0
    0.7945    2.6701   -1.7500 H   0  0  0  0  0  0  0  0  0  0  0  0
  2 13  1  0  0  0  0
  3 10  1  0  0  0  0
  4  9  2  0  0  0  0
  4  5  1  0  0  0  0
  5  6  2  0  0  0  0
  6  7  1  0  0  0  0
  6 16  1  0  0  0  0
  7 17  1  0  0  0  0
  8 18  1  0  0  0  0
  8  7  1  0  0  0  0
  9  8  1  0  0  0  0
 10 19  1  6  0  0  0
 10 14  1  0  0  0  0
 10  4  1  0  0  0  0
 11  1  1  0  0  0  0
 11  2  1  0  0  0  0
 11  9  1  0  0  0  0
 12 23  1  0  0  0  0
 12  1  1  0  0  0  0
 13 26  1  0  0  0  0
 13 24  1  0  0  0  0
 13 25  1  0  0  0  0
 14 28  1  0  0  0  0
 14 27  1  0  0  0  0
 15  5  1  0  0  0  0
 20 11  1  0  0  0  0
 21 12  1  0  0  0  0
 22 12  1  0  0  0  0
 29 14  1  0  0  0  0
 30  3  1  0  0  0  0
M  END
