1
 OpenBabel05122313113D

 41 44  0  0  0  0  0  0  0  0999 V2000
   -0.7564    0.0033   -0.9884 C   0  0  0  0  0  2  0  0  0  0  0  0
   -1.5808    1.0963   -1.0638 N   0  0  0  0  0  0  0  0  0  0  0  0
   -1.5786   -1.0914   -1.0628 N   0  0  0  0  0  0  0  0  0  0  0  0
   -2.9171    0.7089   -1.1547 C   0  0  0  0  0  0  0  0  0  0  0  0
   -1.2003    3.1261    2.7934 C   0  0  0  0  0  0  0  0  0  0  0  0
   -0.7952    2.6734    3.7110 H   0  0  0  0  0  0  0  0  0  0  0  0
   -2.2146    4.2801    0.4499 C   0  0  0  0  0  0  0  0  0  0  0  0
   -2.6092    4.7372   -0.4723 H   0  0  0  0  0  0  0  0  0  0  0  0
   -2.9156   -0.7069   -1.1541 C   0  0  0  0  0  0  0  0  0  0  0  0
   -1.4301    3.1159    0.3666 C   0  0  0  0  0  0  0  0  0  0  0  0
   -5.3001   -0.7084   -1.3232 C   0  0  0  0  0  0  0  0  0  0  0  0
   -6.2571   -1.2470   -1.3840 H   0  0  0  0  0  0  0  0  0  0  0  0
   -1.9865    4.2885    2.8693 C   0  0  0  0  0  0  0  0  0  0  0  0
   -2.2034    4.7452    3.8468 H   0  0  0  0  0  0  0  0  0  0  0  0
   -1.1169   -2.4747   -0.9735 C   0  0  0  0  0  0  0  0  0  0  0  0
   -0.0217   -2.4402   -1.1486 H   0  0  0  0  0  0  0  0  0  0  0  0
   -1.5767   -3.0536   -1.7999 H   0  0  0  0  0  0  0  0  0  0  0  0
   -0.9468   -2.5292    1.5535 C   0  0  0  0  0  0  0  0  0  0  0  0
   -0.3398   -1.6108    1.4979 H   0  0  0  0  0  0  0  0  0  0  0  0
   -4.1103    1.4404   -1.2374 C   0  0  0  0  0  0  0  0  0  0  0  0
   -4.1138    2.5384   -1.2182 H   0  0  0  0  0  0  0  0  0  0  0  0
   -4.1071   -1.4412   -1.2360 C   0  0  0  0  0  0  0  0  0  0  0  0
   -4.1079   -2.5392   -1.2155 H   0  0  0  0  0  0  0  0  0  0  0  0
   -1.2280   -3.1161    2.7945 C   0  0  0  0  0  0  0  0  0  0  0  0
   -0.8425   -2.6546    3.7161 H   0  0  0  0  0  0  0  0  0  0  0  0
   -1.4302   -3.1125    0.3652 C   0  0  0  0  0  0  0  0  0  0  0  0
   -1.1216    2.4808   -0.9745 C   0  0  0  0  0  0  0  0  0  0  0  0
   -1.5870    3.0593   -1.7979 H   0  0  0  0  0  0  0  0  0  0  0  0
   -0.0272    2.4492   -1.1546 H   0  0  0  0  0  0  0  0  0  0  0  0
   -2.1939   -4.2910    0.4410 C   0  0  0  0  0  0  0  0  0  0  0  0
   -2.5701   -4.7557   -0.4851 H   0  0  0  0  0  0  0  0  0  0  0  0
   -0.9223    2.5432    1.5499 C   0  0  0  0  0  0  0  0  0  0  0  0
   -0.2978    1.6368    1.4880 H   0  0  0  0  0  0  0  0  0  0  0  0
   -2.4911    4.8667    1.6953 C   0  0  0  0  0  0  0  0  0  0  0  0
   -3.1057    5.7782    1.7473 H   0  0  0  0  0  0  0  0  0  0  0  0
   -2.4733   -4.8816    1.6838 C   0  0  0  0  0  0  0  0  0  0  0  0
   -3.0715   -5.8042    1.7299 H   0  0  0  0  0  0  0  0  0  0  0  0
   -5.3016    0.7047   -1.3239 C   0  0  0  0  0  0  0  0  0  0  0  0
   -6.2598    1.2413   -1.3854 H   0  0  0  0  0  0  0  0  0  0  0  0
   -1.9928   -4.2931    2.8628 C   0  0  0  0  0  0  0  0  0  0  0  0
   -2.2124   -4.7527    3.8384 H   0  0  0  0  0  0  0  0  0  0  0  0
  2  1  1  0  0  0  0
  2 27  1  0  0  0  0
  3  1  1  0  0  0  0
  3 15  1  0  0  0  0
  4  9  1  0  0  0  0
  4  2  1  0  0  0  0
  5 13  1  0  0  0  0
  5  6  1  0  0  0  0
  7 34  1  0  0  0  0
  8  7  1  0  0  0  0
  9  3  1  0  0  0  0
 10  7  2  0  0  0  0
 10 32  1  0  0  0  0
 11 22  1  0  0  0  0
 12 11  1  0  0  0  0
 13 14  1  0  0  0  0
 15 26  1  0  0  0  0
 16 15  1  0  0  0  0
 17 15  1  0  0  0  0
 18 24  1  0  0  0  0
 19 18  1  0  0  0  0
 20 21  1  0  0  0  0
 20  4  2  0  0  0  0
 22 23  1  0  0  0  0
 22  9  2  0  0  0  0
 24 40  2  0  0  0  0
 24 25  1  0  0  0  0
 26 30  1  0  0  0  0
 26 18  2  0  0  0  0
 27 10  1  0  0  0  0
 28 27  1  0  0  0  0
 29 27  1  0  0  0  0
 30 36  2  0  0  0  0
 31 30  1  0  0  0  0
 32  5  2  0  0  0  0
 33 32  1  0  0  0  0
 34 35  1  0  0  0  0
 34 13  2  0  0  0  0
 36 37  1  0  0  0  0
 36 40  1  0  0  0  0
 38 11  2  0  0  0  0
 38 20  1  0  0  0  0
 39 38  1  0  0  0  0
 40 41  1  0  0  0  0
M  END
