9
 OpenBabel05122313113D

 24 24  0  0  1  0  0  0  0  0999 V2000
    3.6640    1.8808    0.8894 C   0  0  0  0  0  0  0  0  0  0  0  0
    3.9505    1.3313    1.8078 H   0  0  0  0  0  0  0  0  0  0  0  0
    3.8685    2.9572    1.0805 H   0  0  0  0  0  0  0  0  0  0  0  0
    4.3353    1.5485    0.0732 H   0  0  0  0  0  0  0  0  0  0  0  0
    2.2110    1.6695    0.5561 C   0  0  0  0  0  3  0  0  0  0  0  0
    1.5147    1.9685    1.3579 H   0  0  0  0  0  0  0  0  0  0  0  0
    1.7335    1.7509   -0.7929 C   0  0  0  0  0  3  0  0  0  0  0  0
    2.4126    1.9801   -1.6302 H   0  0  0  0  0  0  0  0  0  0  0  0
    0.3912    1.3507   -1.0563 C   0  0  0  0  0  3  0  0  0  0  0  0
    0.0226    1.2858   -2.0924 H   0  0  0  0  0  0  0  0  0  0  0  0
   -0.3882    0.8967    0.0627 C   0  0  0  0  0  3  0  0  0  0  0  0
   -0.3171    1.4523    1.0142 H   0  0  0  0  0  0  0  0  0  0  0  0
   -1.7422    0.2864   -0.1611 C   0  0  2  0  0  0  0  0  0  0  0  0
   -1.7859   -0.2003   -1.1639 H   0  0  0  0  0  0  0  0  0  0  0  0
   -3.1387   -1.3178    0.8838 C   0  0  0  0  0  0  0  0  0  0  0  0
   -3.1333   -2.2695    1.4412 H   0  0  0  0  0  0  0  0  0  0  0  0
   -4.2701   -0.7674    0.3530 C   0  0  0  0  0  0  0  0  0  0  0  0
   -5.2289   -1.2985    0.4261 H   0  0  0  0  0  0  0  0  0  0  0  0
   -2.8933    1.2853   -0.0564 C   0  0  0  0  0  0  0  0  0  0  0  0
   -2.8699    1.7906    0.9352 H   0  0  0  0  0  0  0  0  0  0  0  0
   -2.8005    2.0713   -0.8302 H   0  0  0  0  0  0  0  0  0  0  0  0
   -4.2544    0.5876   -0.2037 C   0  0  0  0  0  0  0  0  0  0  0  0
   -1.9066   -0.7923    0.8053 O   0  0  0  0  0  0  0  0  0  0  0  0
   -5.2315    1.1588   -0.6771 O   0  0  0  0  0  0  0  0  0  0  0  0
  1  3  1  0  0  0  0
  1  2  1  0  0  0  0
  4  1  1  0  0  0  0
  5  1  1  0  0  0  0
  5  6  1  0  0  0  0
  7  5  1  0  0  0  0
  8  7  1  0  0  0  0
  9  7  1  0  0  0  0
  9 11  1  0  0  0  0
 10  9  1  0  0  0  0
 11 12  1  0  0  0  0
 13 14  1  6  0  0  0
 13 19  1  0  0  0  0
 13 11  1  0  0  0  0
 13 23  1  0  0  0  0
 15 16  1  0  0  0  0
 17 18  1  0  0  0  0
 17 15  2  0  0  0  0
 19 20  1  0  0  0  0
 21 19  1  0  0  0  0
 22 19  1  0  0  0  0
 22 17  1  0  0  0  0
 23 15  1  0  0  0  0
 24 22  2  0  0  0  0
M  END
