1
 OpenBabel05122313113D

 39 39  0  0  0  0  0  0  0  0999 V2000
   -0.3632    0.0474   -0.1518 C   0  0  0  0  0  1  0  0  0  0  0  0
   -1.7925    0.1619   -0.1038 C   0  0  0  0  0  0  0  0  0  0  0  0
   -2.5996   -1.0237   -0.0998 C   0  0  0  0  0  0  0  0  0  0  0  0
   -3.9884   -0.8860    0.0155 C   0  0  0  0  0  0  0  0  0  0  0  0
   -4.6088   -1.7947    0.0223 H   0  0  0  0  0  0  0  0  0  0  0  0
   -4.6128    0.3723    0.1244 C   0  0  0  0  0  0  0  0  0  0  0  0
   -3.8037    1.5215    0.1018 C   0  0  0  0  0  0  0  0  0  0  0  0
   -4.2881    2.5078    0.1737 H   0  0  0  0  0  0  0  0  0  0  0  0
   -2.4074    1.4515   -0.0174 C   0  0  0  0  0  0  0  0  0  0  0  0
   -1.9550   -2.3873   -0.2898 C   0  0  0  0  0  0  0  0  0  0  0  0
   -0.9249   -2.3153    0.1145 H   0  0  0  0  0  0  0  0  0  0  0  0
   -1.8341   -2.6992   -1.7938 C   0  0  0  0  0  0  0  0  0  0  0  0
   -2.8372   -2.7709   -2.2650 H   0  0  0  0  0  0  0  0  0  0  0  0
   -1.3069   -3.6627   -1.9497 H   0  0  0  0  0  0  0  0  0  0  0  0
   -1.2587   -1.9122   -2.3194 H   0  0  0  0  0  0  0  0  0  0  0  0
   -2.6636   -3.5209    0.4608 C   0  0  0  0  0  0  0  0  0  0  0  0
   -3.6654   -3.7455    0.0378 H   0  0  0  0  0  0  0  0  0  0  0  0
   -2.7915   -3.2812    1.5356 H   0  0  0  0  0  0  0  0  0  0  0  0
   -2.0665   -4.4520    0.3884 H   0  0  0  0  0  0  0  0  0  0  0  0
   -6.1234    0.4868    0.2587 C   0  0  0  0  0  0  0  0  0  0  0  0
   -6.3602    1.5719    0.3135 H   0  0  0  0  0  0  0  0  0  0  0  0
   -6.8471   -0.0865   -0.9718 C   0  0  0  0  0  0  0  0  0  0  0  0
   -6.5042    0.4025   -1.9052 H   0  0  0  0  0  0  0  0  0  0  0  0
   -7.9437    0.0585   -0.8872 H   0  0  0  0  0  0  0  0  0  0  0  0
   -6.6613   -1.1756   -1.0758 H   0  0  0  0  0  0  0  0  0  0  0  0
   -6.6251   -0.1663    1.5582 C   0  0  0  0  0  0  0  0  0  0  0  0
   -6.4239   -1.2577    1.5619 H   0  0  0  0  0  0  0  0  0  0  0  0
   -7.7198   -0.0273    1.6728 H   0  0  0  0  0  0  0  0  0  0  0  0
   -6.1263    0.2692    2.4470 H   0  0  0  0  0  0  0  0  0  0  0  0
   -1.5679    2.7133   -0.1387 C   0  0  0  0  0  0  0  0  0  0  0  0
   -0.5363    2.4575    0.1830 H   0  0  0  0  0  0  0  0  0  0  0  0
   -1.4668    3.1225   -1.6202 C   0  0  0  0  0  0  0  0  0  0  0  0
   -1.0447    2.2986   -2.2281 H   0  0  0  0  0  0  0  0  0  0  0  0
   -0.8015    4.0019   -1.7375 H   0  0  0  0  0  0  0  0  0  0  0  0
   -2.4674    3.3795   -2.0269 H   0  0  0  0  0  0  0  0  0  0  0  0
   -2.0575    3.8764    0.7328 C   0  0  0  0  0  0  0  0  0  0  0  0
   -3.0345    4.2754    0.3895 H   0  0  0  0  0  0  0  0  0  0  0  0
   -1.3335    4.7150    0.6891 H   0  0  0  0  0  0  0  0  0  0  0  0
   -2.1717    3.5757    1.7946 H   0  0  0  0  0  0  0  0  0  0  0  0
  1  2  1  0  0  0  0
  2  3  2  0  0  0  0
  2  9  1  0  0  0  0
  3  4  1  0  0  0  0
  4  5  1  0  0  0  0
  4  6  2  0  0  0  0
  6 20  1  0  0  0  0
  7  6  1  0  0  0  0
  7  8  1  0  0  0  0
  9  7  2  0  0  0  0
 10  3  1  0  0  0  0
 10 11  1  0  0  0  0
 10 16  1  0  0  0  0
 12 10  1  0  0  0  0
 13 12  1  0  0  0  0
 14 12  1  0  0  0  0
 15 12  1  0  0  0  0
 16 18  1  0  0  0  0
 17 16  1  0  0  0  0
 19 16  1  0  0  0  0
 20 21  1  0  0  0  0
 20 26  1  0  0  0  0
 22 24  1  0  0  0  0
 22 20  1  0  0  0  0
 23 22  1  0  0  0  0
 25 22  1  0  0  0  0
 26 27  1  0  0  0  0
 26 28  1  0  0  0  0
 26 29  1  0  0  0  0
 30  9  1  0  0  0  0
 30 31  1  0  0  0  0
 30 36  1  0  0  0  0
 32 30  1  0  0  0  0
 33 32  1  0  0  0  0
 34 32  1  0  0  0  0
 35 32  1  0  0  0  0
 36 39  1  0  0  0  0
 37 36  1  0  0  0  0
 38 36  1  0  0  0  0
M  END
