5
 OpenBabel05122313113D

 22 23  0  0  1  0  0  0  0  0999 V2000
    0.6636   -3.5748   -0.6080 F   0  0  0  0  0  0  0  0  0  0  0  0
    2.7058   -2.9941   -1.5346 F   0  0  0  0  0  0  0  0  0  0  0  0
    0.7545   -2.0299   -2.3237 F   0  0  0  0  0  0  0  0  0  0  0  0
    1.5640   -1.4457   -0.1538 O   0  0  0  0  0  0  0  0  0  0  0  0
    1.9990    0.8828   -0.3027 C   0  0  0  0  0  3  0  0  0  0  0  0
    2.1361    1.4760   -1.2269 H   0  0  0  0  0  0  0  0  0  0  0  0
    2.6706   -0.5116   -0.3517 C   0  0  1  0  0  0  0  0  0  0  0  0
    3.1838   -0.7717   -1.2970 H   0  0  0  0  0  0  0  0  0  0  0  0
    3.6306   -0.5017    0.8446 C   0  0  1  0  0  0  0  0  0  0  0  0
    3.9557   -1.5163    1.1419 H   0  0  0  0  0  0  0  0  0  0  0  0
    4.7782    0.4697    0.4749 C   0  0  0  0  0  0  0  0  0  0  0  0
    5.6166    0.3685    1.1923 H   0  0  0  0  0  0  0  0  0  0  0  0
    5.1866    0.2577   -0.5341 H   0  0  0  0  0  0  0  0  0  0  0  0
    4.1096    1.8784    0.5740 C   0  0  0  0  0  0  0  0  0  0  0  0
    4.1756    2.4542   -0.3714 H   0  0  0  0  0  0  0  0  0  0  0  0
    4.5803    2.4956    1.3676 H   0  0  0  0  0  0  0  0  0  0  0  0
    2.6426    1.5366    0.9408 C   0  0  2  0  0  0  0  0  0  0  0  0
    2.0811    2.3905    1.3693 H   0  0  0  0  0  0  0  0  0  0  0  0
    2.8426    0.3270    1.8818 C   0  0  0  0  0  0  0  0  0  0  0  0
    1.8898   -0.1515    2.1853 H   0  0  0  0  0  0  0  0  0  0  0  0
    3.4342    0.5688    2.7886 H   0  0  0  0  0  0  0  0  0  0  0  0
    1.4301   -2.5601   -1.2117 B   0  0  0  0  0  0  0  0  0  0  0  0
  2 22  1  0  0  0  0
  3 22  1  0  0  0  0
  5 17  1  0  0  0  0
  6  5  1  0  0  0  0
  7  8  1  6  0  0  0
  7  5  1  0  0  0  0
  7  4  1  0  0  0  0
  7  9  1  0  0  0  0
  9 10  1  1  0  0  0
  9 19  1  0  0  0  0
 11 14  1  0  0  0  0
 11  9  1  0  0  0  0
 11 12  1  0  0  0  0
 13 11  1  0  0  0  0
 14 17  1  0  0  0  0
 14 16  1  0  0  0  0
 15 14  1  0  0  0  0
 17 18  1  1  0  0  0
 17 19  1  0  0  0  0
 19 20  1  0  0  0  0
 19 21  1  0  0  0  0
 22  1  1  0  0  0  0
 22  4  1  0  0  0  0
M  END
