1
 OpenBabel05122313113D

 40 42  0  0  0  0  0  0  0  0999 V2000
   -2.0027   -0.9838   -0.4828 C   0  0  0  0  0  3  0  0  0  0  0  0
   -3.2465   -1.4148   -0.0332 C   0  0  0  0  0  0  0  0  0  0  0  0
   -3.8309   -1.1054    0.8377 H   0  0  0  0  0  0  0  0  0  0  0  0
   -5.0131   -3.0792   -0.7651 C   0  0  0  0  0  0  0  0  0  0  0  0
   -5.1255   -3.8023   -1.5923 H   0  0  0  0  0  0  0  0  0  0  0  0
   -5.8425   -2.3477   -0.8101 H   0  0  0  0  0  0  0  0  0  0  0  0
   -5.0572   -3.6225    0.1983 H   0  0  0  0  0  0  0  0  0  0  0  0
   -2.8237   -2.5863   -1.8594 C   0  0  0  0  0  3  0  0  0  0  0  0
   -2.9209   -3.2878   -2.6945 H   0  0  0  0  0  0  0  0  0  0  0  0
   -0.6125   -1.6920   -2.5208 C   0  0  0  0  0  0  0  0  0  0  0  0
   -0.6074   -0.6731   -2.9607 H   0  0  0  0  0  0  0  0  0  0  0  0
   -0.7632   -2.4393   -3.3236 H   0  0  0  0  0  0  0  0  0  0  0  0
    0.6914   -1.9772   -1.7819 C   0  0  0  0  0  0  0  0  0  0  0  0
    1.5271   -2.0065   -2.5090 H   0  0  0  0  0  0  0  0  0  0  0  0
    0.6503   -2.9664   -1.2828 H   0  0  0  0  0  0  0  0  0  0  0  0
    2.4776    0.2965   -1.1189 C   0  0  0  0  0  0  0  0  0  0  0  0
    2.4472    0.7477   -2.4552 C   0  0  0  0  0  0  0  0  0  0  0  0
    1.6275    0.4557   -3.1248 H   0  0  0  0  0  0  0  0  0  0  0  0
    3.4505    1.6062   -2.9272 C   0  0  0  0  0  0  0  0  0  0  0  0
    3.4215    1.9505   -3.9716 H   0  0  0  0  0  0  0  0  0  0  0  0
    4.4793    2.0320   -2.0726 C   0  0  0  0  0  0  0  0  0  0  0  0
    5.2620    2.7084   -2.4470 H   0  0  0  0  0  0  0  0  0  0  0  0
    4.5100    1.5908   -0.7402 C   0  0  0  0  0  0  0  0  0  0  0  0
    5.3175    1.9158   -0.0674 H   0  0  0  0  0  0  0  0  0  0  0  0
    3.5163    0.7245   -0.2626 C   0  0  0  0  0  0  0  0  0  0  0  0
    3.5645    0.3648    0.7761 H   0  0  0  0  0  0  0  0  0  0  0  0
    1.9858   -1.8083    0.7816 C   0  0  0  0  0  0  0  0  0  0  0  0
    3.1587   -2.4844    0.3729 C   0  0  0  0  0  0  0  0  0  0  0  0
    3.5613   -2.3344   -0.6409 H   0  0  0  0  0  0  0  0  0  0  0  0
    3.8282   -3.3342    1.2629 C   0  0  0  0  0  0  0  0  0  0  0  0
    4.7407   -3.8550    0.9365 H   0  0  0  0  0  0  0  0  0  0  0  0
    3.3409   -3.5145    2.5686 C   0  0  0  0  0  0  0  0  0  0  0  0
    3.8718   -4.1780    3.2673 H   0  0  0  0  0  0  0  0  0  0  0  0
    2.1797   -2.8445    2.9800 C   0  0  0  0  0  0  0  0  0  0  0  0
    1.7954   -2.9803    4.0019 H   0  0  0  0  0  0  0  0  0  0  0  0
    1.5029   -1.9958    2.0896 C   0  0  0  0  0  0  0  0  0  0  0  0
    0.5884   -1.4750    2.4112 H   0  0  0  0  0  0  0  0  0  0  0  0
   -3.7340   -2.3898   -0.8909 N   0  0  0  0  0  0  0  0  0  0  0  0
   -1.7812   -1.7607   -1.6350 N   0  0  0  0  0  0  0  0  0  0  0  0
    1.1279   -0.7433   -0.4480 P   0  0  0  0  0  0  0  0  0  0  0  0
  1  2  2  0  0  0  0
  2  3  1  0  0  0  0
  4  7  1  0  0  0  0
  5  4  1  0  0  0  0
  6  4  1  0  0  0  0
  8 39  1  0  0  0  0
  8 38  1  0  0  0  0
  9  8  1  0  0  0  0
 10 13  1  0  0  0  0
 10 39  1  0  0  0  0
 11 10  1  0  0  0  0
 12 10  1  0  0  0  0
 13 15  1  0  0  0  0
 13 40  1  0  0  0  0
 14 13  1  0  0  0  0
 16 40  1  0  0  0  0
 16 25  1  0  0  0  0
 17 16  2  0  0  0  0
 18 17  1  0  0  0  0
 19 17  1  0  0  0  0
 19 21  2  0  0  0  0
 20 19  1  0  0  0  0
 21 23  1  0  0  0  0
 22 21  1  0  0  0  0
 23 25  2  0  0  0  0
 23 24  1  0  0  0  0
 25 26  1  0  0  0  0
 27 36  1  0  0  0  0
 28 27  2  0  0  0  0
 28 30  1  0  0  0  0
 29 28  1  0  0  0  0
 30 32  2  0  0  0  0
 31 30  1  0  0  0  0
 32 34  1  0  0  0  0
 32 33  1  0  0  0  0
 34 35  1  0  0  0  0
 36 37  1  0  0  0  0
 36 34  2  0  0  0  0
 38  4  1  0  0  0  0
 38  2  1  0  0  0  0
 39  1  1  0  0  0  0
 40 27  1  0  0  0  0
M  END
