4
 OpenBabel05122313113D

 30 32  0  0  1  0  0  0  0  0999 V2000
   -3.7347    0.0905    0.5766 C   0  0  2  0  0  0  0  0  0  0  0  0
   -2.4025   -0.5792    0.4305 C   0  0  1  0  0  3  0  0  0  0  0  0
   -1.7278   -1.6380    1.0950 C   0  0  0  0  0  3  0  0  0  0  0  0
   -0.7240   -2.1287    0.2021 C   0  0  0  0  0  3  0  0  0  0  0  0
   -0.7520   -1.3460   -0.9874 C   0  0  0  0  0  3  0  0  0  0  0  0
   -1.7924   -0.3725   -0.8390 C   0  0  1  0  0  3  0  0  0  0  0  0
   -2.6841    0.3492   -1.8218 C   0  0  1  0  0  0  0  0  0  0  0  0
   -3.9298   -0.5922   -1.8741 C   0  0  0  0  0  0  0  0  0  0  0  0
   -4.6495   -0.6220   -0.4857 C   0  0  1  0  0  0  0  0  0  0  0  0
   -3.2292    1.7178   -1.3213 C   0  0  1  0  0  0  0  0  0  0  0  0
   -3.6315    1.5773    0.1720 C   0  0  0  0  0  0  0  0  0  0  0  0
   -5.0552   -2.0368   -0.0732 C   0  0  0  0  0  0  0  0  0  0  0  0
   -2.3358    2.9288   -1.5807 C   0  0  0  0  0  0  0  0  0  0  0  0
   -4.1529   -0.0186    1.5957 H   0  0  0  0  0  0  0  0  0  0  0  0
   -1.9163   -1.9984    2.1122 H   0  0  0  0  0  0  0  0  0  0  0  0
   -0.0128   -2.9266    0.4384 H   0  0  0  0  0  0  0  0  0  0  0  0
   -0.1178   -1.4845   -1.8697 H   0  0  0  0  0  0  0  0  0  0  0  0
   -2.2217    0.4450   -2.8254 H   0  0  0  0  0  0  0  0  0  0  0  0
   -4.6252   -0.2422   -2.6650 H   0  0  0  0  0  0  0  0  0  0  0  0
   -3.6036   -1.6147   -2.1555 H   0  0  0  0  0  0  0  0  0  0  0  0
   -5.5702   -0.0024   -0.5520 H   0  0  0  0  0  0  0  0  0  0  0  0
   -4.1540    1.8807   -1.9176 H   0  0  0  0  0  0  0  0  0  0  0  0
   -4.6035    2.0783    0.3580 H   0  0  0  0  0  0  0  0  0  0  0  0
   -2.8794    2.0632    0.8227 H   0  0  0  0  0  0  0  0  0  0  0  0
   -5.7058   -2.5051   -0.8401 H   0  0  0  0  0  0  0  0  0  0  0  0
   -4.1633   -2.6855    0.0519 H   0  0  0  0  0  0  0  0  0  0  0  0
   -5.6110   -2.0355    0.8866 H   0  0  0  0  0  0  0  0  0  0  0  0
   -2.8640    3.8647   -1.3055 H   0  0  0  0  0  0  0  0  0  0  0  0
   -1.4110    2.8929   -0.9791 H   0  0  0  0  0  0  0  0  0  0  0  0
   -2.0518    3.0076   -2.6507 H   0  0  0  0  0  0  0  0  0  0  0  0
  1 14  1  1  0  0  0
  2  1  1  0  0  0  0
  2  3  1  6  0  0  0
  3 15  1  0  0  0  0
  4 16  1  0  0  0  0
  4  3  1  0  0  0  0
  5  4  1  0  0  0  0
  6  5  1  6  0  0  0
  6  2  1  0  0  0  0
  7 18  1  6  0  0  0
  7 10  1  0  0  0  0
  7  6  1  0  0  0  0
  8  7  1  0  0  0  0
  8  9  1  0  0  0  0
  9 21  1  6  0  0  0
  9 12  1  0  0  0  0
  9  1  1  0  0  0  0
 10 22  1  6  0  0  0
 10 11  1  0  0  0  0
 11 23  1  0  0  0  0
 11  1  1  0  0  0  0
 11 24  1  0  0  0  0
 12 26  1  0  0  0  0
 12 27  1  0  0  0  0
 13 10  1  0  0  0  0
 13 28  1  0  0  0  0
 13 29  1  0  0  0  0
 17  5  1  0  0  0  0
 19  8  1  0  0  0  0
 20  8  1  0  0  0  0
 25 12  1  0  0  0  0
 30 13  1  0  0  0  0
M  END
