5
 OpenBabel05122313113D

 36 38  0  0  0  0  0  0  0  0999 V2000
   -1.6204   -1.4274   -0.0006 N   0  0  0  0  0  0  0  0  0  0  0  0
    0.5328   -1.5047   -0.0004 N   0  0  0  0  0  0  0  0  0  0  0  0
   -3.1448    0.3625   -0.0022 N   0  0  0  0  0  0  0  0  0  0  0  0
   -3.9064   -1.9121    0.0015 N   0  0  0  0  0  0  0  0  0  0  0  0
   -0.5003   -0.6172   -0.0004 C   0  0  0  0  0  2  0  0  0  0  0  0
    0.0866   -2.8289   -0.0006 C   0  0  0  0  0  0  0  0  0  0  0  0
    0.7807   -3.6744   -0.0006 H   0  0  0  0  0  0  0  0  0  0  0  0
   -1.2783   -2.7836   -0.0007 C   0  0  0  0  0  0  0  0  0  0  0  0
   -2.0480   -3.5584   -0.0007 H   0  0  0  0  0  0  0  0  0  0  0  0
   -2.9634   -0.9600   -0.0004 C   0  0  0  0  0  0  0  0  0  0  0  0
   -5.1743   -1.4741    0.0018 C   0  0  0  0  0  0  0  0  0  0  0  0
   -5.9617   -2.2479    0.0033 H   0  0  0  0  0  0  0  0  0  0  0  0
   -5.4968   -0.1090    0.0004 C   0  0  0  0  0  0  0  0  0  0  0  0
   -6.5387    0.2400    0.0008 H   0  0  0  0  0  0  0  0  0  0  0  0
   -4.4148    0.7858   -0.0017 C   0  0  0  0  0  0  0  0  0  0  0  0
   -4.5635    1.8797   -0.0031 H   0  0  0  0  0  0  0  0  0  0  0  0
    1.9159   -1.1021   -0.0002 C   0  0  0  0  0  0  0  0  0  0  0  0
    2.5624   -0.9018   -1.2381 C   0  0  0  0  0  0  0  0  0  0  0  0
    3.9121   -0.5114   -1.2091 C   0  0  0  0  0  0  0  0  0  0  0  0
    4.4349   -0.3474   -2.1648 H   0  0  0  0  0  0  0  0  0  0  0  0
    4.6040   -0.3116    0.0001 C   0  0  0  0  0  0  0  0  0  0  0  0
    3.9120   -0.5122    1.2092 C   0  0  0  0  0  0  0  0  0  0  0  0
    4.4348   -0.3490    2.1651 H   0  0  0  0  0  0  0  0  0  0  0  0
    2.5623   -0.9026    1.2379 C   0  0  0  0  0  0  0  0  0  0  0  0
    1.8108   -1.0513   -2.5342 C   0  0  0  0  0  0  0  0  0  0  0  0
    1.0211   -0.2734   -2.6122 H   0  0  0  0  0  0  0  0  0  0  0  0
    1.3002   -2.0332   -2.6115 H   0  0  0  0  0  0  0  0  0  0  0  0
    2.4868   -0.9425   -3.4026 H   0  0  0  0  0  0  0  0  0  0  0  0
    6.0385    0.1521    0.0003 C   0  0  0  0  0  0  0  0  0  0  0  0
    6.0900    1.2621    0.0013 H   0  0  0  0  0  0  0  0  0  0  0  0
    6.5827   -0.1990   -0.8982 H   0  0  0  0  0  0  0  0  0  0  0  0
    6.5830   -0.2006    0.8982 H   0  0  0  0  0  0  0  0  0  0  0  0
    1.8106   -1.0528    2.5338 C   0  0  0  0  0  0  0  0  0  0  0  0
    1.0212   -0.2747    2.6124 H   0  0  0  0  0  0  0  0  0  0  0  0
    2.4867   -0.9450    3.4023 H   0  0  0  0  0  0  0  0  0  0  0  0
    1.2997   -2.0346    2.6104 H   0  0  0  0  0  0  0  0  0  0  0  0
  1 10  1  0  0  0  0
  1  5  1  0  0  0  0
  2  5  1  0  0  0  0
  2 17  1  0  0  0  0
  3 15  2  0  0  0  0
  3 10  1  0  0  0  0
  4 11  1  0  0  0  0
  6  2  1  0  0  0  0
  7  6  1  0  0  0  0
  8  1  1  0  0  0  0
  8  6  2  0  0  0  0
  9  8  1  0  0  0  0
 10  4  2  0  0  0  0
 11 12  1  0  0  0  0
 13 14  1  0  0  0  0
 13 11  2  0  0  0  0
 15 13  1  0  0  0  0
 16 15  1  0  0  0  0
 17 24  1  0  0  0  0
 18 19  1  0  0  0  0
 18 17  2  0  0  0  0
 19 21  2  0  0  0  0
 20 19  1  0  0  0  0
 21 29  1  0  0  0  0
 21 22  1  0  0  0  0
 22 24  2  0  0  0  0
 22 23  1  0  0  0  0
 24 33  1  0  0  0  0
 25 18  1  0  0  0  0
 26 25  1  0  0  0  0
 27 25  1  0  0  0  0
 28 25  1  0  0  0  0
 29 30  1  0  0  0  0
 29 32  1  0  0  0  0
 31 29  1  0  0  0  0
 33 36  1  0  0  0  0
 33 34  1  0  0  0  0
 33 35  1  0  0  0  0
M  END
