4
 OpenBabel05122313113D

 24 25  0  0  1  0  0  0  0  0999 V2000
    1.9420   -1.0290   -0.7466 O   0  0  0  0  0  0  0  0  0  0  0  0
    3.4334    0.5339    0.0412 O   0  0  0  0  0  0  0  0  0  0  0  0
    0.6752    1.9982    0.0942 N   0  0  0  0  0  0  0  0  0  0  0  0
    0.2870    0.7836   -0.2942 C   0  0  0  0  0  2  0  0  0  0  0  0
    1.4476    0.2271   -1.1420 C   0  0  1  0  0  0  0  0  0  0  0  0
    1.1101    0.1499   -2.1974 H   0  0  0  0  0  0  0  0  0  0  0  0
    2.6430    1.1859   -0.9354 C   0  0  1  0  0  0  0  0  0  0  0  0
    3.2325    1.3756   -1.8589 H   0  0  0  0  0  0  0  0  0  0  0  0
    1.9989    2.4518   -0.3872 C   0  0  0  0  0  0  0  0  0  0  0  0
    2.5856    2.8869    0.4465 H   0  0  0  0  0  0  0  0  0  0  0  0
    1.8631    3.2314   -1.1682 H   0  0  0  0  0  0  0  0  0  0  0  0
    2.9617   -0.8193    0.2421 C   0  0  0  0  0  0  0  0  0  0  0  0
    4.0886   -1.8009   -0.0477 C   0  0  0  0  0  0  0  0  0  0  0  0
    3.7207   -2.8402    0.0512 H   0  0  0  0  0  0  0  0  0  0  0  0
    4.9224   -1.6461    0.6631 H   0  0  0  0  0  0  0  0  0  0  0  0
    4.4573   -1.6475   -1.0793 H   0  0  0  0  0  0  0  0  0  0  0  0
    2.4112   -0.9406    1.6620 C   0  0  0  0  0  0  0  0  0  0  0  0
    2.0367   -1.9654    1.8443 H   0  0  0  0  0  0  0  0  0  0  0  0
    1.5778   -0.2306    1.8206 H   0  0  0  0  0  0  0  0  0  0  0  0
    3.2106   -0.7122    2.3932 H   0  0  0  0  0  0  0  0  0  0  0  0
   -0.0818    2.9517    0.8886 C   0  0  0  0  0  0  0  0  0  0  0  0
   -0.9345    2.4515    1.3719 H   0  0  0  0  0  0  0  0  0  0  0  0
   -0.4616    3.7741    0.2475 H   0  0  0  0  0  0  0  0  0  0  0  0
    0.5795    3.3872    1.6643 H   0  0  0  0  0  0  0  0  0  0  0  0
  1 12  1  0  0  0  0
  2 12  1  0  0  0  0
  3 21  1  0  0  0  0
  4  3  1  0  0  0  0
  5  6  1  6  0  0  0
  5  7  1  0  0  0  0
  5  1  1  0  0  0  0
  5  4  1  0  0  0  0
  7  8  1  6  0  0  0
  7  9  1  0  0  0  0
  7  2  1  0  0  0  0
  9  3  1  0  0  0  0
  9 10  1  0  0  0  0
 11  9  1  0  0  0  0
 12 17  1  0  0  0  0
 13 14  1  0  0  0  0
 13 12  1  0  0  0  0
 13 15  1  0  0  0  0
 16 13  1  0  0  0  0
 17 19  1  0  0  0  0
 17 18  1  0  0  0  0
 17 20  1  0  0  0  0
 21 22  1  0  0  0  0
 21 24  1  0  0  0  0
 23 21  1  0  0  0  0
M  END
