1
 OpenBabel05122313113D

 39 41  0  0  1  0  0  0  0  0999 V2000
    1.5080   -0.3394    1.9993 C   0  0  0  0  0  3  0  0  0  0  0  0
    0.1930   -0.0927    1.4970 C   0  0  1  0  0  3  0  0  0  0  0  0
    0.0081    0.7693    0.3638 C   0  0  1  0  0  3  0  0  0  0  0  0
   -1.3872    0.8072   -0.2589 C   0  0  0  0  0  0  0  0  0  0  0  0
   -2.3067   -0.3119    0.2493 C   0  0  2  0  0  0  0  0  0  0  0  0
   -1.0049   -0.8079    2.1514 C   0  0  1  0  0  0  0  0  0  0  0  0
   -1.0283   -0.5632    3.6597 C   0  0  0  0  0  0  0  0  0  0  0  0
    0.7625    2.0488    0.1719 C   0  0  0  0  0  0  0  0  0  0  0  0
    1.3189    2.7652    1.2570 C   0  0  0  0  0  0  0  0  0  0  0  0
    1.9961    3.9771    1.0524 C   0  0  0  0  0  0  0  0  0  0  0  0
    2.1052    4.5237   -0.2356 C   0  0  0  0  0  0  0  0  0  0  0  0
    1.5084    3.8518   -1.3169 C   0  0  0  0  0  0  0  0  0  0  0  0
    0.8417    2.6379   -1.1134 C   0  0  0  0  0  0  0  0  0  0  0  0
   -3.7333   -0.1014   -0.2064 C   0  0  0  0  0  0  0  0  0  0  0  0
   -4.6930    0.4683    0.6491 C   0  0  0  0  0  0  0  0  0  0  0  0
   -5.9997    0.6974    0.1909 C   0  0  0  0  0  0  0  0  0  0  0  0
   -6.3575    0.3641   -1.1249 C   0  0  0  0  0  0  0  0  0  0  0  0
   -5.4024   -0.2080   -1.9815 C   0  0  0  0  0  0  0  0  0  0  0  0
   -4.0979   -0.4424   -1.5237 C   0  0  0  0  0  0  0  0  0  0  0  0
   -2.2464   -0.3251    1.6678 O   0  0  0  0  0  0  0  0  0  0  0  0
   -0.1610   -1.0297    4.1621 H   0  0  0  0  0  0  0  0  0  0  0  0
    1.6252   -1.0716    2.8123 H   0  0  0  0  0  0  0  0  0  0  0  0
    2.2533    0.4683    2.0031 H   0  0  0  0  0  0  0  0  0  0  0  0
   -1.3350    0.7827   -1.3657 H   0  0  0  0  0  0  0  0  0  0  0  0
   -1.8643    1.7761    0.0059 H   0  0  0  0  0  0  0  0  0  0  0  0
   -1.9591   -1.2969   -0.1369 H   0  0  0  0  0  0  0  0  0  0  0  0
   -0.9313   -1.9063    1.9571 H   0  0  0  0  0  0  0  0  0  0  0  0
   -1.9558   -0.9988    4.0788 H   0  0  0  0  0  0  0  0  0  0  0  0
   -1.0245    0.5245    3.8726 H   0  0  0  0  0  0  0  0  0  0  0  0
    1.2030    2.3733    2.2774 H   0  0  0  0  0  0  0  0  0  0  0  0
    2.4260    4.5095    1.9149 H   0  0  0  0  0  0  0  0  0  0  0  0
    2.6343    5.4752   -0.3945 H   0  0  0  0  0  0  0  0  0  0  0  0
    1.5655    4.2783   -2.3301 H   0  0  0  0  0  0  0  0  0  0  0  0
    0.3945    2.1140   -1.9715 H   0  0  0  0  0  0  0  0  0  0  0  0
   -4.4027    0.7159    1.6800 H   0  0  0  0  0  0  0  0  0  0  0  0
   -6.7463    1.1390    0.8690 H   0  0  0  0  0  0  0  0  0  0  0  0
   -7.3830    0.5439   -1.4821 H   0  0  0  0  0  0  0  0  0  0  0  0
   -5.6782   -0.4819   -3.0114 H   0  0  0  0  0  0  0  0  0  0  0  0
   -3.3510   -0.9048   -2.1891 H   0  0  0  0  0  0  0  0  0  0  0  0
  1 23  1  0  0  0  0
  1 22  1  0  0  0  0
  2  1  1  6  0  0  0
  2  6  1  0  0  0  0
  3  8  1  1  0  0  0
  3  2  1  0  0  0  0
  4 25  1  0  0  0  0
  4  5  1  0  0  0  0
  4  3  1  0  0  0  0
  5 26  1  6  0  0  0
  5 20  1  0  0  0  0
  6 27  1  6  0  0  0
  6  7  1  0  0  0  0
  7 29  1  0  0  0  0
  7 28  1  0  0  0  0
  7 21  1  0  0  0  0
  8  9  1  0  0  0  0
  9 30  1  0  0  0  0
 10  9  2  0  0  0  0
 10 31  1  0  0  0  0
 11 10  1  0  0  0  0
 12 13  1  0  0  0  0
 12 11  2  0  0  0  0
 13  8  2  0  0  0  0
 14  5  1  0  0  0  0
 14 15  1  0  0  0  0
 15 35  1  0  0  0  0
 16 15  2  0  0  0  0
 16 36  1  0  0  0  0
 17 16  1  0  0  0  0
 18 19  1  0  0  0  0
 18 17  2  0  0  0  0
 19 14  2  0  0  0  0
 20  6  1  0  0  0  0
 24  4  1  0  0  0  0
 32 11  1  0  0  0  0
 33 12  1  0  0  0  0
 34 13  1  0  0  0  0
 37 17  1  0  0  0  0
 38 18  1  0  0  0  0
 39 19  1  0  0  0  0
M  END
