2
 OpenBabel05122313113D

 14 14  0  0  0  0  0  0  0  0999 V2000
   -0.9826    0.1459   -2.0384 S   0  0  0  0  0  0  0  0  0  0  0  0
   -1.1994    0.0054   -0.2896 C   0  0  0  0  0  3  0  0  0  0  0  0
   -2.1461   -0.0958    0.5675 N   0  0  0  0  0  2  0  0  0  0  0  0
   -3.5204   -0.0471    0.2965 C   0  0  0  0  0  0  0  0  0  0  0  0
   -4.3949   -0.5508    1.2896 C   0  0  0  0  0  0  0  0  0  0  0  0
   -3.9490   -0.9602    2.2089 H   0  0  0  0  0  0  0  0  0  0  0  0
   -5.7823   -0.5297    1.1054 C   0  0  0  0  0  0  0  0  0  0  0  0
   -6.4427   -0.9339    1.8885 H   0  0  0  0  0  0  0  0  0  0  0  0
   -6.3327    0.0097   -0.0699 C   0  0  0  0  0  0  0  0  0  0  0  0
   -7.4235    0.0316   -0.2145 H   0  0  0  0  0  0  0  0  0  0  0  0
   -5.4752    0.5259   -1.0557 C   0  0  0  0  0  0  0  0  0  0  0  0
   -5.8962    0.9574   -1.9776 H   0  0  0  0  0  0  0  0  0  0  0  0
   -4.0848    0.4988   -0.8832 C   0  0  0  0  0  0  0  0  0  0  0  0
   -3.4204    0.9031   -1.6611 H   0  0  0  0  0  0  0  0  0  0  0  0
  1  2  2  0  0  0  0
  2  3  1  0  0  0  0
  4  3  1  0  0  0  0
  4  5  1  0  0  0  0
  5  6  1  0  0  0  0
  7  5  2  0  0  0  0
  7  8  1  0  0  0  0
  9  7  1  0  0  0  0
 10  9  1  0  0  0  0
 11 13  1  0  0  0  0
 11  9  2  0  0  0  0
 12 11  1  0  0  0  0
 13  4  2  0  0  0  0
 14 13  1  0  0  0  0
M  END
