2
 OpenBabel05122313113D

 28 29  0  0  0  0  0  0  0  0999 V2000
    1.7674   -0.2496   -0.5374 P   0  0  0  0  0  0  0  0  0  0  0  0
    1.3350   -1.3010   -1.9176 C   0  0  0  0  0  3  0  0  0  0  0  0
    0.0636   -1.0737   -2.5302 C   0  0  0  0  0  3  0  0  0  0  0  0
    3.3553   -0.7241    0.2144 C   0  0  0  0  0  0  0  0  0  0  0  0
    3.3901   -1.6544    1.2714 C   0  0  0  0  0  0  0  0  0  0  0  0
    4.6191   -2.0347    1.8302 C   0  0  0  0  0  0  0  0  0  0  0  0
    5.8129   -1.4832    1.3393 C   0  0  0  0  0  0  0  0  0  0  0  0
    5.7796   -0.5451    0.2936 C   0  0  0  0  0  0  0  0  0  0  0  0
    4.5555   -0.1575   -0.2675 C   0  0  0  0  0  0  0  0  0  0  0  0
    1.9178    1.5034   -1.0018 C   0  0  0  0  0  0  0  0  0  0  0  0
    1.8659    2.4932    0.0033 C   0  0  0  0  0  0  0  0  0  0  0  0
    1.9463    3.8470   -0.3506 C   0  0  0  0  0  0  0  0  0  0  0  0
    2.0813    4.2185   -1.6987 C   0  0  0  0  0  0  0  0  0  0  0  0
    2.1508    3.2336   -2.6980 C   0  0  0  0  0  0  0  0  0  0  0  0
    2.0725    1.8753   -2.3550 C   0  0  0  0  0  0  0  0  0  0  0  0
    1.9226   -2.2179   -2.0941 H   0  0  0  0  0  0  0  0  0  0  0  0
   -0.3104   -1.8555   -3.2130 H   0  0  0  0  0  0  0  0  0  0  0  0
   -0.2688   -0.0581   -2.7943 H   0  0  0  0  0  0  0  0  0  0  0  0
    2.4491   -2.0666    1.6595 H   0  0  0  0  0  0  0  0  0  0  0  0
    4.6442   -2.7591    2.6578 H   0  0  0  0  0  0  0  0  0  0  0  0
    6.7767   -1.7799    1.7795 H   0  0  0  0  0  0  0  0  0  0  0  0
    6.7153   -0.1091   -0.0867 H   0  0  0  0  0  0  0  0  0  0  0  0
    4.5312    0.5858   -1.0787 H   0  0  0  0  0  0  0  0  0  0  0  0
    1.7510    2.2094    1.0598 H   0  0  0  0  0  0  0  0  0  0  0  0
    1.8980    4.6166    0.4339 H   0  0  0  0  0  0  0  0  0  0  0  0
    2.1403    5.2826   -1.9722 H   0  0  0  0  0  0  0  0  0  0  0  0
    2.2716    3.5234   -3.7525 H   0  0  0  0  0  0  0  0  0  0  0  0
    2.1248    1.1014   -3.1352 H   0  0  0  0  0  0  0  0  0  0  0  0
  1  4  1  0  0  0  0
  2  1  1  0  0  0  0
  3  2  1  0  0  0  0
  4  5  1  0  0  0  0
  5 19  1  0  0  0  0
  5  6  2  0  0  0  0
  6 20  1  0  0  0  0
  7 21  1  0  0  0  0
  7  6  1  0  0  0  0
  8  7  2  0  0  0  0
  9  4  2  0  0  0  0
  9  8  1  0  0  0  0
 10  1  1  0  0  0  0
 10 11  1  0  0  0  0
 11 24  1  0  0  0  0
 12 11  2  0  0  0  0
 12 25  1  0  0  0  0
 13 12  1  0  0  0  0
 14 15  1  0  0  0  0
 14 13  2  0  0  0  0
 15 10  2  0  0  0  0
 16  2  1  0  0  0  0
 17  3  1  0  0  0  0
 18  3  1  0  0  0  0
 22  8  1  0  0  0  0
 23  9  1  0  0  0  0
 26 13  1  0  0  0  0
 27 14  1  0  0  0  0
 28 15  1  0  0  0  0
M  END
