1
 OpenBabel05122313113D

 17 17  0  0  0  0  0  0  0  0999 V2000
   -1.9351   -0.8464   -0.4602 C   0  0  0  0  0  3  0  0  0  0  0  0
   -4.4993   -0.7915   -0.9272 C   0  0  0  0  0  0  0  0  0  0  0  0
   -3.1700   -0.8221   -0.6875 C   0  0  0  0  0  0  0  0  0  0  0  0
   -5.7269   -0.7581   -1.1460 C   0  0  0  0  0  0  0  0  0  0  0  0
   -7.1337   -0.6912   -1.3750 C   0  0  0  0  0  0  0  0  0  0  0  0
   -6.8638   -0.7729    1.5063 F   0  0  0  0  0  0  0  0  0  0  0  0
   -7.9158    0.1694   -0.3982 C   0  0  0  0  0  0  0  0  0  0  0  0
   -7.7623    0.0823    1.0009 C   0  0  0  0  0  0  0  0  0  0  0  0
   -9.0841    1.2236   -2.1743 F   0  0  0  0  0  0  0  0  0  0  0  0
   -7.7191   -1.2493   -2.3085 O   0  0  0  0  0  0  0  0  0  0  0  0
   -9.4708    1.7181    1.3795 C   0  0  0  0  0  0  0  0  0  0  0  0
   -8.8975    1.0734   -0.8569 C   0  0  0  0  0  0  0  0  0  0  0  0
   -8.5224    0.8354    1.9046 C   0  0  0  0  0  0  0  0  0  0  0  0
   -8.3759    0.7284    2.9868 H   0  0  0  0  0  0  0  0  0  0  0  0
   -9.6743    1.8593    0.0027 C   0  0  0  0  0  0  0  0  0  0  0  0
  -10.4140    2.5646   -0.3966 H   0  0  0  0  0  0  0  0  0  0  0  0
  -10.2122    2.4572    2.2253 F   0  0  0  0  0  0  0  0  0  0  0  0
  2  3  1  0  0  0  0
  3  1  3  0  0  0  0
  4  2  3  0  0  0  0
  5  4  1  0  0  0  0
  5  7  1  0  0  0  0
  7  8  1  0  0  0  0
  8  6  1  0  0  0  0
  8 13  2  0  0  0  0
  9 12  1  0  0  0  0
 10  5  2  0  0  0  0
 11 13  1  0  0  0  0
 11 17  1  0  0  0  0
 12  7  2  0  0  0  0
 12 15  1  0  0  0  0
 13 14  1  0  0  0  0
 15 11  2  0  0  0  0
 16 15  1  0  0  0  0
M  END
