1
 OpenBabel05122313113D

 16 16  0  0  0  0  0  0  0  0999 V2000
    1.4494   -0.2403   -1.0712 C   0  0  0  0  0  3  0  0  0  0  0  0
    2.4523    0.8940   -1.4015 C   0  0  0  0  0  0  0  0  0  0  0  0
    3.7896    0.6043   -0.7624 C   0  0  0  0  0  0  0  0  0  0  0  0
    4.5587   -0.4865   -1.2228 C   0  0  0  0  0  0  0  0  0  0  0  0
    5.7741   -0.8206   -0.6092 C   0  0  0  0  0  0  0  0  0  0  0  0
    6.2448   -0.0682    0.4803 C   0  0  0  0  0  0  0  0  0  0  0  0
    5.4913    1.0217    0.9437 C   0  0  0  0  0  0  0  0  0  0  0  0
    4.2731    1.3534    0.3288 C   0  0  0  0  0  0  0  0  0  0  0  0
    1.2046   -1.0521   -1.9589 O   0  0  0  0  0  0  0  0  0  0  0  0
    2.5465    0.9281   -2.5065 H   0  0  0  0  0  0  0  0  0  0  0  0
    2.0501    1.8616   -1.0475 H   0  0  0  0  0  0  0  0  0  0  0  0
    4.1840   -1.0815   -2.0709 H   0  0  0  0  0  0  0  0  0  0  0  0
    6.3599   -1.6744   -0.9836 H   0  0  0  0  0  0  0  0  0  0  0  0
    7.1993   -0.3285    0.9627 H   0  0  0  0  0  0  0  0  0  0  0  0
    5.8541    1.6219    1.7925 H   0  0  0  0  0  0  0  0  0  0  0  0
    3.6822    2.2024    0.7041 H   0  0  0  0  0  0  0  0  0  0  0  0
  2  1  1  0  0  0  0
  2 11  1  0  0  0  0
  2  3  1  0  0  0  0
  3  8  1  0  0  0  0
  4  3  2  0  0  0  0
  4  5  1  0  0  0  0
  5  6  2  0  0  0  0
  6  7  1  0  0  0  0
  6 14  1  0  0  0  0
  7 15  1  0  0  0  0
  8 16  1  0  0  0  0
  8  7  2  0  0  0  0
  9  1  2  0  0  0  0
 10  2  1  0  0  0  0
 12  4  1  0  0  0  0
 13  5  1  0  0  0  0
M  END
