6
 OpenBabel05122313113D

 30 31  0  0  1  0  0  0  0  0999 V2000
   -1.9548    2.0143   -1.6961 O   0  0  0  0  0  0  0  0  0  0  0  0
   -1.2445    2.2625    0.4458 O   0  0  0  0  0  0  0  0  0  0  0  0
   -2.5354   -0.3158    0.7791 O   0  0  0  0  0  0  0  0  0  0  0  0
   -1.7506   -2.4415    0.6757 O   0  0  0  0  0  0  0  0  0  0  0  0
    0.6213    0.5561   -2.1624 C   0  0  1  0  0  0  0  0  0  0  0  0
   -0.2491    0.5623   -0.9040 C   0  0  2  0  0  3  0  0  0  0  0  0
   -0.4953   -0.7788   -0.4200 C   0  0  2  0  0  3  0  0  0  0  0  0
    0.2168   -1.8429   -1.2523 C   0  0  2  0  0  0  0  0  0  0  0  0
    1.6506   -1.3750   -1.0870 C   0  0  0  0  0  0  0  0  0  0  0  0
    1.8733   -0.0808   -1.5751 C   0  0  0  0  0  0  0  0  0  0  0  0
    0.0017   -0.3256   -3.2721 C   0  0  0  0  0  0  0  0  0  0  0  0
   -0.2238   -1.7628   -2.7344 C   0  0  0  0  0  0  0  0  0  0  0  0
   -1.2437    1.6725   -0.7647 C   0  0  0  0  0  0  0  0  0  0  0  0
   -2.3326    3.1584    0.6978 C   0  0  0  0  0  0  0  0  0  0  0  0
   -1.6882   -1.1103    0.3993 C   0  0  0  0  0  0  0  0  0  0  0  0
   -2.8660   -2.8399    1.4791 C   0  0  0  0  0  0  0  0  0  0  0  0
    0.8059    1.5871   -2.5152 H   0  0  0  0  0  0  0  0  0  0  0  0
    0.0549   -2.8440   -0.8186 H   0  0  0  0  0  0  0  0  0  0  0  0
    2.4705   -2.0729   -0.8629 H   0  0  0  0  0  0  0  0  0  0  0  0
    2.8816    0.3186   -1.7571 H   0  0  0  0  0  0  0  0  0  0  0  0
   -0.9510    0.1489   -3.5776 H   0  0  0  0  0  0  0  0  0  0  0  0
    0.6700   -0.3272   -4.1575 H   0  0  0  0  0  0  0  0  0  0  0  0
   -1.2923   -2.0532   -2.7987 H   0  0  0  0  0  0  0  0  0  0  0  0
    0.3467   -2.5101   -3.3237 H   0  0  0  0  0  0  0  0  0  0  0  0
   -3.2777    2.5821    0.7592 H   0  0  0  0  0  0  0  0  0  0  0  0
   -2.1149    3.6392    1.6677 H   0  0  0  0  0  0  0  0  0  0  0  0
   -2.4191    3.9136   -0.1081 H   0  0  0  0  0  0  0  0  0  0  0  0
   -2.8426   -2.3305    2.4638 H   0  0  0  0  0  0  0  0  0  0  0  0
   -2.7763   -3.9332    1.6079 H   0  0  0  0  0  0  0  0  0  0  0  0
   -3.8235   -2.5840    0.9823 H   0  0  0  0  0  0  0  0  0  0  0  0
  1 13  2  0  0  0  0
  2 14  1  0  0  0  0
  4 16  1  0  0  0  0
  5 17  1  6  0  0  0
  5 10  1  0  0  0  0
  5  6  1  0  0  0  0
  6 13  1  6  0  0  0
  6  7  1  0  0  0  0
  7 15  1  6  0  0  0
  8  9  1  0  0  0  0
  8 18  1  1  0  0  0
  8  7  1  0  0  0  0
  9 19  1  0  0  0  0
 10  9  2  0  0  0  0
 11 12  1  0  0  0  0
 11  5  1  0  0  0  0
 12  8  1  0  0  0  0
 13  2  1  0  0  0  0
 14 25  1  0  0  0  0
 14 26  1  0  0  0  0
 15  4  1  0  0  0  0
 15  3  2  0  0  0  0
 16 29  1  0  0  0  0
 16 28  1  0  0  0  0
 20 10  1  0  0  0  0
 21 11  1  0  0  0  0
 22 11  1  0  0  0  0
 23 12  1  0  0  0  0
 24 12  1  0  0  0  0
 27 14  1  0  0  0  0
 30 16  1  0  0  0  0
M  END
