3
 OpenBabel05122313113D

 17 17  0  0  0  0  0  0  0  0999 V2000
   -4.1878    2.4834    0.2510 O   0  0  0  0  0  0  0  0  0  0  0  0
   -1.9714    0.6946   -0.1229 N   0  0  0  0  0  0  0  0  0  0  0  0
   -2.1730   -0.6679   -0.6025 C   0  0  0  0  0  3  0  0  0  0  0  0
   -2.5655   -0.7222   -1.6343 H   0  0  0  0  0  0  0  0  0  0  0  0
   -2.7863   -1.2780    0.0861 H   0  0  0  0  0  0  0  0  0  0  0  0
   -2.5009    1.0219    1.2183 C   0  0  0  0  0  0  0  0  0  0  0  0
   -1.9081    1.8729    1.6131 H   0  0  0  0  0  0  0  0  0  0  0  0
   -2.3384    0.1531    1.8870 H   0  0  0  0  0  0  0  0  0  0  0  0
   -3.9799    1.4043    1.1452 C   0  0  0  0  0  0  0  0  0  0  0  0
   -4.5808    0.5133    0.8309 H   0  0  0  0  0  0  0  0  0  0  0  0
   -4.3435    1.7293    2.1408 H   0  0  0  0  0  0  0  0  0  0  0  0
   -2.2558    1.7968   -1.0674 C   0  0  0  0  0  0  0  0  0  0  0  0
   -1.9079    1.4921   -2.0725 H   0  0  0  0  0  0  0  0  0  0  0  0
   -1.6548    2.6746   -0.7510 H   0  0  0  0  0  0  0  0  0  0  0  0
   -3.7420    2.1489   -1.0558 C   0  0  0  0  0  0  0  0  0  0  0  0
   -3.9339    3.0300   -1.7001 H   0  0  0  0  0  0  0  0  0  0  0  0
   -4.3346    1.2893   -1.4594 H   0  0  0  0  0  0  0  0  0  0  0  0
  1  9  1  0  0  0  0
  2  6  1  0  0  0  0
  3  2  1  0  0  0  0
  3  5  1  0  0  0  0
  4  3  1  0  0  0  0
  6  7  1  0  0  0  0
  6  8  1  0  0  0  0
  9  6  1  0  0  0  0
  9 11  1  0  0  0  0
 10  9  1  0  0  0  0
 12 15  1  0  0  0  0
 12 14  1  0  0  0  0
 12  2  1  0  0  0  0
 13 12  1  0  0  0  0
 15  1  1  0  0  0  0
 16 15  1  0  0  0  0
 17 15  1  0  0  0  0
M  END
