8
 OpenBabel05122313113D

 25 28  0  0  0  0  0  0  0  0999 V2000
   -5.8493    0.0026   -0.7452 C   0  0  0  0  0  0  0  0  0  0  0  0
   -4.5890   -0.6937   -0.3389 C   0  0  0  0  0  0  0  0  0  0  0  0
   -3.5242   -1.4753   -0.0024 C   0  0  0  0  0  0  0  0  0  0  0  0
   -2.3349   -0.7357    0.3809 C   0  0  0  0  0  0  0  0  0  0  0  0
   -1.1616   -1.4115    0.7481 C   0  0  0  0  0  0  0  0  0  0  0  0
    0.0154   -0.7314    1.1397 C   0  0  0  0  0  0  0  0  0  0  0  0
    1.2491   -1.4245    1.4498 C   0  0  0  0  0  3  0  0  0  0  0  0
    2.3942   -0.7213    1.8764 C   0  0  0  0  0  3  0  0  0  0  0  0
    2.3943    0.7110    1.8805 C   0  0  0  0  0  0  0  0  0  0  0  0
    1.2496    1.4163    1.4566 C   0  0  0  0  0  0  0  0  0  0  0  0
    0.0155    0.7251    1.1432 C   0  0  0  0  0  0  0  0  0  0  0  0
   -1.1609    1.4076    0.7545 C   0  0  0  0  0  0  0  0  0  0  0  0
   -2.3346    0.7341    0.3842 C   0  0  0  0  0  0  0  0  0  0  0  0
   -3.5235    1.4760    0.0043 C   0  0  0  0  0  0  0  0  0  0  0  0
   -4.5887    0.6965   -0.3358 C   0  0  0  0  0  0  0  0  0  0  0  0
   -6.1481    0.0050   -1.8127 H   0  0  0  0  0  0  0  0  0  0  0  0
   -6.7177    0.0012   -0.0559 H   0  0  0  0  0  0  0  0  0  0  0  0
   -3.5044   -2.5768   -0.0037 H   0  0  0  0  0  0  0  0  0  0  0  0
   -1.1548   -2.5125    0.7399 H   0  0  0  0  0  0  0  0  0  0  0  0
    1.2681   -2.5215    1.3860 H   0  0  0  0  0  0  0  0  0  0  0  0
    3.3119   -1.2689    2.1307 H   0  0  0  0  0  0  0  0  0  0  0  0
    3.3121    1.2571    2.1377 H   0  0  0  0  0  0  0  0  0  0  0  0
    1.2686    2.5137    1.3982 H   0  0  0  0  0  0  0  0  0  0  0  0
   -1.1535    2.5086    0.7513 H   0  0  0  0  0  0  0  0  0  0  0  0
   -3.5032    2.5775    0.0079 H   0  0  0  0  0  0  0  0  0  0  0  0
  1  2  1  0  0  0  0
  1 15  1  0  0  0  0
  1 17  1  0  0  0  0
  2 15  2  0  0  0  0
  2  3  1  0  0  0  0
  3  4  2  0  0  0  0
  4 13  1  0  0  0  0
  4  5  1  0  0  0  0
  5  6  2  0  0  0  0
  6 11  1  0  0  0  0
  6  7  1  0  0  0  0
  7  8  1  0  0  0  0
  8  9  1  0  0  0  0
  8 21  1  0  0  0  0
  9 22  1  0  0  0  0
 10  9  2  0  0  0  0
 11 10  1  0  0  0  0
 12 11  2  0  0  0  0
 13 12  1  0  0  0  0
 14 25  1  0  0  0  0
 14 13  2  0  0  0  0
 15 14  1  0  0  0  0
 16  1  1  0  0  0  0
 18  3  1  0  0  0  0
 19  5  1  0  0  0  0
 20  7  1  0  0  0  0
 23 10  1  0  0  0  0
 24 12  1  0  0  0  0
M  END
