4
 OpenBabel05122313113D

 38 39  0  0  0  0  0  0  0  0999 V2000
    0.9387   -0.7097    0.1858 N   0  0  0  0  0  0  0  0  0  0  0  0
    0.3621   -1.2053   -0.9390 C   0  0  0  0  0  0  0  0  0  0  0  0
    0.9255   -1.4441   -1.8564 H   0  0  0  0  0  0  0  0  0  0  0  0
   -1.0629   -1.3405   -0.9070 C   0  0  0  0  0  3  0  0  0  0  0  0
   -1.5984   -1.6639   -1.8112 H   0  0  0  0  0  0  0  0  0  0  0  0
   -1.7210   -0.9653    0.3093 C   0  0  0  0  0  3  0  0  0  0  0  0
   -1.1326   -1.1276    1.2276 H   0  0  0  0  0  0  0  0  0  0  0  0
   -3.1811   -0.8857    0.4834 C   0  0  0  0  0  0  0  0  0  0  0  0
   -3.7015   -0.7439    1.7913 C   0  0  0  0  0  0  0  0  0  0  0  0
   -3.0015   -0.6963    2.6401 H   0  0  0  0  0  0  0  0  0  0  0  0
   -5.0809   -0.6583    2.0157 C   0  0  0  0  0  0  0  0  0  0  0  0
   -5.4615   -0.5469    3.0423 H   0  0  0  0  0  0  0  0  0  0  0  0
   -5.9753   -0.7138    0.9345 C   0  0  0  0  0  0  0  0  0  0  0  0
   -7.0598   -0.6458    1.1075 H   0  0  0  0  0  0  0  0  0  0  0  0
   -5.4749   -0.8540   -0.3706 C   0  0  0  0  0  0  0  0  0  0  0  0
   -6.1680   -0.8961   -1.2246 H   0  0  0  0  0  0  0  0  0  0  0  0
   -4.0952   -0.9363   -0.5954 C   0  0  0  0  0  0  0  0  0  0  0  0
   -3.7274   -1.0344   -1.6273 H   0  0  0  0  0  0  0  0  0  0  0  0
    2.3333   -0.5723    0.2739 C   0  0  0  0  0  0  0  0  0  0  0  0
    3.2353   -1.5376   -0.2814 C   0  0  0  0  0  0  0  0  0  0  0  0
    4.6190   -1.3296   -0.1407 C   0  0  0  0  0  0  0  0  0  0  0  0
    5.3007   -2.0852   -0.5655 H   0  0  0  0  0  0  0  0  0  0  0  0
    5.1639   -0.2249    0.5333 C   0  0  0  0  0  0  0  0  0  0  0  0
    4.2592    0.6554    1.1508 C   0  0  0  0  0  0  0  0  0  0  0  0
    4.6482    1.4962    1.7484 H   0  0  0  0  0  0  0  0  0  0  0  0
    2.8684    0.4908    1.0654 C   0  0  0  0  0  0  0  0  0  0  0  0
    2.7862   -2.8373   -0.9171 C   0  0  0  0  0  0  0  0  0  0  0  0
    1.8579   -3.2301   -0.4561 H   0  0  0  0  0  0  0  0  0  0  0  0
    3.5729   -3.6063   -0.7887 H   0  0  0  0  0  0  0  0  0  0  0  0
    2.6009   -2.7547   -2.0089 H   0  0  0  0  0  0  0  0  0  0  0  0
    6.6526   -0.0022    0.6089 C   0  0  0  0  0  0  0  0  0  0  0  0
    7.2155   -0.9484    0.4838 H   0  0  0  0  0  0  0  0  0  0  0  0
    6.9501    0.4507    1.5760 H   0  0  0  0  0  0  0  0  0  0  0  0
    6.9957    0.6902   -0.1906 H   0  0  0  0  0  0  0  0  0  0  0  0
    1.9696    1.4206    1.8306 C   0  0  0  0  0  0  0  0  0  0  0  0
    2.5478    1.9868    2.5856 H   0  0  0  0  0  0  0  0  0  0  0  0
    1.1625    0.8649    2.3462 H   0  0  0  0  0  0  0  0  0  0  0  0
    1.4714    2.1625    1.1718 H   0  0  0  0  0  0  0  0  0  0  0  0
  1 19  1  0  0  0  0
  2  4  1  0  0  0  0
  2  1  2  0  0  0  0
  3  2  1  0  0  0  0
  4  6  1  0  0  0  0
  5  4  1  0  0  0  0
  6  8  1  0  0  0  0
  6  7  1  0  0  0  0
  8  9  1  0  0  0  0
  9 11  2  0  0  0  0
  9 10  1  0  0  0  0
 11 12  1  0  0  0  0
 13 14  1  0  0  0  0
 13 11  1  0  0  0  0
 15 13  2  0  0  0  0
 16 15  1  0  0  0  0
 17 15  1  0  0  0  0
 17  8  2  0  0  0  0
 18 17  1  0  0  0  0
 19 26  1  0  0  0  0
 20 21  1  0  0  0  0
 20 19  2  0  0  0  0
 21 23  2  0  0  0  0
 22 21  1  0  0  0  0
 23 31  1  0  0  0  0
 23 24  1  0  0  0  0
 24 25  1  0  0  0  0
 26 24  2  0  0  0  0
 26 35  1  0  0  0  0
 27 29  1  0  0  0  0
 27 28  1  0  0  0  0
 27 20  1  0  0  0  0
 30 27  1  0  0  0  0
 31 33  1  0  0  0  0
 32 31  1  0  0  0  0
 34 31  1  0  0  0  0
 35 37  1  0  0  0  0
 35 36  1  0  0  0  0
 38 35  1  0  0  0  0
M  END
