4
 OpenBabel05122313113D

 32 33  0  0  0  0  0  0  0  0999 V2000
   -1.0818   -0.6048   -0.5007 N   0  0  0  0  0  0  0  0  0  0  0  0
   -0.4555   -0.2567   -1.6451 C   0  0  0  0  0  0  0  0  0  0  0  0
   -0.9859    0.1704   -2.5209 H   0  0  0  0  0  0  0  0  0  0  0  0
    0.9678   -0.4082   -1.6387 C   0  0  0  0  0  3  0  0  0  0  0  0
    1.5734   -0.0612   -2.4882 H   0  0  0  0  0  0  0  0  0  0  0  0
    1.5346   -0.9880   -0.4529 C   0  0  0  0  0  3  0  0  0  0  0  0
    0.9100   -1.7250    0.0766 H   0  0  0  0  0  0  0  0  0  0  0  0
    2.9608   -1.0947   -0.2322 C   0  0  0  0  0  0  0  0  0  0  0  0
    4.7104   -1.8639    0.8747 C   0  0  0  0  0  0  0  0  0  0  0  0
    5.1685   -2.4667    1.6651 H   0  0  0  0  0  0  0  0  0  0  0  0
    5.2175   -1.0482   -0.1127 C   0  0  0  0  0  0  0  0  0  0  0  0
    6.2745   -0.8314   -0.3016 H   0  0  0  0  0  0  0  0  0  0  0  0
    3.3522   -1.8989    0.8117 O   0  0  0  0  0  0  0  0  0  0  0  0
    4.0870   -0.5459   -0.8303 C   0  0  0  0  0  0  0  0  0  0  0  0
    4.0978    0.1490   -1.6765 H   0  0  0  0  0  0  0  0  0  0  0  0
   -2.5129   -0.3474   -0.4161 C   0  0  0  0  0  0  0  0  0  0  0  0
   -2.7925    0.5753   -0.9906 H   0  0  0  0  0  0  0  0  0  0  0  0
   -3.2705   -1.5368   -1.0425 C   0  0  0  0  0  0  0  0  0  0  0  0
   -2.9381   -2.4623   -0.5233 H   0  0  0  0  0  0  0  0  0  0  0  0
   -2.9715   -1.6468   -2.1067 H   0  0  0  0  0  0  0  0  0  0  0  0
   -4.7901   -1.3746   -0.9175 C   0  0  0  0  0  0  0  0  0  0  0  0
   -5.1172   -0.4962   -1.5183 H   0  0  0  0  0  0  0  0  0  0  0  0
   -5.3001   -2.2582   -1.3549 H   0  0  0  0  0  0  0  0  0  0  0  0
   -5.2128   -1.1722    0.5426 C   0  0  0  0  0  0  0  0  0  0  0  0
   -4.9874   -2.0975    1.1189 H   0  0  0  0  0  0  0  0  0  0  0  0
   -6.3101   -1.0191    0.6111 H   0  0  0  0  0  0  0  0  0  0  0  0
   -4.4650    0.0092    1.1732 C   0  0  0  0  0  0  0  0  0  0  0  0
   -4.7423    0.1218    2.2418 H   0  0  0  0  0  0  0  0  0  0  0  0
   -4.7799    0.9514    0.6706 H   0  0  0  0  0  0  0  0  0  0  0  0
   -2.9460   -0.1473    1.0421 C   0  0  0  0  0  0  0  0  0  0  0  0
   -2.4249    0.7373    1.4622 H   0  0  0  0  0  0  0  0  0  0  0  0
   -2.5949   -1.0265    1.6259 H   0  0  0  0  0  0  0  0  0  0  0  0
  1 16  1  0  0  0  0
  2  4  1  0  0  0  0
  2  1  2  0  0  0  0
  3  2  1  0  0  0  0
  4  6  1  0  0  0  0
  5  4  1  0  0  0  0
  6  8  1  0  0  0  0
  6  7  1  0  0  0  0
  8 13  1  0  0  0  0
  9 10  1  0  0  0  0
 11  9  2  0  0  0  0
 12 11  1  0  0  0  0
 13  9  1  0  0  0  0
 14  8  2  0  0  0  0
 14 11  1  0  0  0  0
 15 14  1  0  0  0  0
 16 30  1  0  0  0  0
 17 16  1  0  0  0  0
 18 21  1  0  0  0  0
 18 19  1  0  0  0  0
 18 16  1  0  0  0  0
 20 18  1  0  0  0  0
 21 24  1  0  0  0  0
 22 21  1  0  0  0  0
 23 21  1  0  0  0  0
 24 26  1  0  0  0  0
 24 25  1  0  0  0  0
 24 27  1  0  0  0  0
 27 28  1  0  0  0  0
 29 27  1  0  0  0  0
 30 27  1  0  0  0  0
 30 31  1  0  0  0  0
 30 32  1  0  0  0  0
M  END
