3
 OpenBabel05122313113D

 20 19  0  0  0  0  0  0  0  0999 V2000
   -1.0765    1.6531    0.3287 P   0  0  0  0  0  0  0  0  0  0  0  0
   -2.8347   -0.9102    0.0948 P   0  0  0  0  0  0  0  0  0  0  0  0
   -1.4410    0.1166   -0.5253 C   0  0  0  0  0  3  0  0  0  0  0  0
   -1.5208    3.1017   -0.7308 C   0  0  0  0  0  0  0  0  0  0  0  0
   -2.1647    1.8820    1.8011 C   0  0  0  0  0  0  0  0  0  0  0  0
   -4.3048   -0.0674   -0.7081 C   0  0  0  0  0  0  0  0  0  0  0  0
   -2.7444   -2.3931   -1.0180 C   0  0  0  0  0  0  0  0  0  0  0  0
   -1.4775    0.2677   -1.6255 H   0  0  0  0  0  0  0  0  0  0  0  0
   -2.6151    3.1179   -0.9087 H   0  0  0  0  0  0  0  0  0  0  0  0
   -1.2133    4.0489   -0.2428 H   0  0  0  0  0  0  0  0  0  0  0  0
   -1.0030    3.0216   -1.7047 H   0  0  0  0  0  0  0  0  0  0  0  0
   -3.2074    2.0879    1.4875 H   0  0  0  0  0  0  0  0  0  0  0  0
   -1.7908    2.7324    2.4058 H   0  0  0  0  0  0  0  0  0  0  0  0
   -2.1621    0.9652    2.4176 H   0  0  0  0  0  0  0  0  0  0  0  0
   -4.4803    0.9218   -0.2385 H   0  0  0  0  0  0  0  0  0  0  0  0
   -4.1523    0.0779   -1.7992 H   0  0  0  0  0  0  0  0  0  0  0  0
   -5.2173   -0.6803   -0.5542 H   0  0  0  0  0  0  0  0  0  0  0  0
   -1.8154   -2.9545   -0.8053 H   0  0  0  0  0  0  0  0  0  0  0  0
   -3.6240   -3.0389   -0.8201 H   0  0  0  0  0  0  0  0  0  0  0  0
   -2.7348   -2.1082   -2.0911 H   0  0  0  0  0  0  0  0  0  0  0  0
  1  5  1  0  0  0  0
  3  2  1  0  0  0  0
  3  1  1  0  0  0  0
  4 10  1  0  0  0  0
  4  1  1  0  0  0  0
  5 13  1  0  0  0  0
  5 14  1  0  0  0  0
  6 17  1  0  0  0  0
  6 15  1  0  0  0  0
  6  2  1  0  0  0  0
  7 19  1  0  0  0  0
  7 18  1  0  0  0  0
  7  2  1  0  0  0  0
  8  3  1  0  0  0  0
  9  4  1  0  0  0  0
 11  4  1  0  0  0  0
 12  5  1  0  0  0  0
 16  6  1  0  0  0  0
 20  7  1  0  0  0  0
M  END
