12
 OpenBabel05122313113D

 25 26  0  0  0  0  0  0  0  0999 V2000
    2.4005   -0.9687    0.6554 N   0  0  0  0  0  0  0  0  0  0  0  0
    2.2651    0.7777   -0.6188 N   0  0  0  0  0  0  0  0  0  0  0  0
    2.1451    3.0579   -1.0947 N   0  0  0  0  0  0  0  0  0  0  0  0
    3.5588   -4.1881    1.5312 C   0  0  0  0  0  0  0  0  0  0  0  0
    3.8279   -3.9670    2.5781 H   0  0  0  0  0  0  0  0  0  0  0  0
    3.9995   -5.0914    1.0826 H   0  0  0  0  0  0  0  0  0  0  0  0
    2.7160   -3.4038    0.8394 C   0  0  0  0  0  0  0  0  0  0  0  0
    2.4460   -3.6364   -0.2056 H   0  0  0  0  0  0  0  0  0  0  0  0
    2.0583   -2.1810    1.4136 C   0  0  0  0  0  0  0  0  0  0  0  0
    2.3436   -2.0220    2.4733 H   0  0  0  0  0  0  0  0  0  0  0  0
    0.9525   -2.2604    1.3611 H   0  0  0  0  0  0  0  0  0  0  0  0
    1.5157   -0.2077   -0.0366 C   0  0  0  0  0  2  0  0  0  0  0  0
    3.6911   -0.4653    0.5254 C   0  0  0  0  0  0  0  0  0  0  0  0
    4.5511   -0.9597    0.9864 H   0  0  0  0  0  0  0  0  0  0  0  0
    3.6085    0.6475   -0.2667 C   0  0  0  0  0  0  0  0  0  0  0  0
    4.3643    1.3506   -0.6260 H   0  0  0  0  0  0  0  0  0  0  0  0
    1.7463    1.8321   -1.4419 C   0  0  0  0  0  0  0  0  0  0  0  0
    0.8954    1.5361   -2.5191 C   0  0  0  0  0  0  0  0  0  0  0  0
    0.6362    0.4943   -2.7607 H   0  0  0  0  0  0  0  0  0  0  0  0
    0.4218    2.6225   -3.2688 C   0  0  0  0  0  0  0  0  0  0  0  0
   -0.2436    2.4498   -4.1277 H   0  0  0  0  0  0  0  0  0  0  0  0
    0.8254    3.9215   -2.9233 C   0  0  0  0  0  0  0  0  0  0  0  0
    0.4813    4.7958   -3.4945 H   0  0  0  0  0  0  0  0  0  0  0  0
    1.6952    4.0866   -1.8336 C   0  0  0  0  0  0  0  0  0  0  0  0
    2.0439    5.0903   -1.5372 H   0  0  0  0  0  0  0  0  0  0  0  0
  1  9  1  0  0  0  0
  2 15  1  0  0  0  0
  2 12  1  0  0  0  0
  4  5  1  0  0  0  0
  6  4  1  0  0  0  0
  7  9  1  0  0  0  0
  7  4  2  0  0  0  0
  8  7  1  0  0  0  0
  9 10  1  0  0  0  0
 11  9  1  0  0  0  0
 12  1  1  0  0  0  0
 13  1  1  0  0  0  0
 13 14  1  0  0  0  0
 15 13  2  0  0  0  0
 16 15  1  0  0  0  0
 17  3  1  0  0  0  0
 17  2  1  0  0  0  0
 18 17  2  0  0  0  0
 19 18  1  0  0  0  0
 20 22  2  0  0  0  0
 20 18  1  0  0  0  0
 21 20  1  0  0  0  0
 22 24  1  0  0  0  0
 23 22  1  0  0  0  0
 24 25  1  0  0  0  0
 24  3  2  0  0  0  0
M  END
