3
 OpenBabel05122313113D

 41 43  0  0  1  0  0  0  0  0999 V2000
    1.0704    0.8344   -0.1700 C   0  0  0  0  0  3  0  0  0  0  0  0
    1.0354   -0.3671   -0.9860 C   0  0  1  0  0  3  0  0  0  0  0  0
   -0.0467   -0.4928   -1.9328 C   0  0  0  0  0  3  0  0  0  0  0  0
   -0.1496   -1.6217   -2.9227 C   0  0  0  0  0  0  0  0  0  0  0  0
    0.8081    2.1874   -0.7769 C   0  0  0  0  0  0  0  0  0  0  0  0
    2.0792    0.9383    0.9506 C   0  0  0  0  0  0  0  0  0  0  0  0
    2.1366   -1.3856   -0.9722 C   0  0  0  0  0  0  0  0  0  0  0  0
    2.4719   -2.2184    0.1109 C   0  0  0  0  0  0  0  0  0  0  0  0
    0.4789    4.6046   -0.4938 C   0  0  0  0  0  0  0  0  0  0  0  0
    2.6860    1.4320    3.2694 C   0  0  0  0  0  0  0  0  0  0  0  0
    0.5559    4.7989   -1.8833 C   0  0  0  0  0  0  0  0  0  0  0  0
    2.9407   -1.4286   -2.1341 C   0  0  0  0  0  0  0  0  0  0  0  0
    3.5791   -3.0753    0.0361 C   0  0  0  0  0  0  0  0  0  0  0  0
    3.4536    0.8620    0.6343 C   0  0  0  0  0  0  0  0  0  0  0  0
    4.4257    1.0438    1.6270 C   0  0  0  0  0  0  0  0  0  0  0  0
    0.6172    3.3218    0.0493 C   0  0  0  0  0  0  0  0  0  0  0  0
    1.7136    1.2482    2.2754 C   0  0  0  0  0  0  0  0  0  0  0  0
    4.0496   -2.2825   -2.2075 C   0  0  0  0  0  0  0  0  0  0  0  0
    4.0469    1.3235    2.9491 C   0  0  0  0  0  0  0  0  0  0  0  0
    0.9411    2.4122   -2.1695 C   0  0  0  0  0  0  0  0  0  0  0  0
    0.8082    3.6977   -2.7144 C   0  0  0  0  0  0  0  0  0  0  0  0
    4.3714   -3.1107   -1.1210 C   0  0  0  0  0  0  0  0  0  0  0  0
   -0.5159    0.4461   -2.2650 H   0  0  0  0  0  0  0  0  0  0  0  0
    0.3392   -1.3315   -3.8775 H   0  0  0  0  0  0  0  0  0  0  0  0
    0.3439   -2.5454   -2.5701 H   0  0  0  0  0  0  0  0  0  0  0  0
   -1.2046   -1.8499   -3.1667 H   0  0  0  0  0  0  0  0  0  0  0  0
    1.8752   -2.1964    1.0303 H   0  0  0  0  0  0  0  0  0  0  0  0
    0.3287    5.4643    0.1763 H   0  0  0  0  0  0  0  0  0  0  0  0
    2.3754    1.6587    4.3001 H   0  0  0  0  0  0  0  0  0  0  0  0
    0.4567    5.8075   -2.3108 H   0  0  0  0  0  0  0  0  0  0  0  0
    2.7032   -0.7722   -2.9855 H   0  0  0  0  0  0  0  0  0  0  0  0
    3.8232   -3.7202    0.8930 H   0  0  0  0  0  0  0  0  0  0  0  0
    3.7661    0.6602   -0.3996 H   0  0  0  0  0  0  0  0  0  0  0  0
    5.4906    0.9676    1.3613 H   0  0  0  0  0  0  0  0  0  0  0  0
    0.6092    3.1987    1.1396 H   0  0  0  0  0  0  0  0  0  0  0  0
    0.6493    1.3431    2.5352 H   0  0  0  0  0  0  0  0  0  0  0  0
    4.6645   -2.3002   -3.1196 H   0  0  0  0  0  0  0  0  0  0  0  0
    4.8117    1.4634    3.7272 H   0  0  0  0  0  0  0  0  0  0  0  0
    1.2021    1.5801   -2.8375 H   0  0  0  0  0  0  0  0  0  0  0  0
    0.9280    3.8402   -3.7988 H   0  0  0  0  0  0  0  0  0  0  0  0
    5.2389   -3.7847   -1.1774 H   0  0  0  0  0  0  0  0  0  0  0  0
  1  6  1  0  0  0  0
  2  3  1  6  0  0  0
  2  7  1  0  0  0  0
  2  1  1  0  0  0  0
  4 25  1  0  0  0  0
  4  3  1  0  0  0  0
  5  1  1  0  0  0  0
  5 16  1  0  0  0  0
  6 17  1  0  0  0  0
  7  8  1  0  0  0  0
  8 27  1  0  0  0  0
  9 16  2  0  0  0  0
  9 28  1  0  0  0  0
 10 29  1  0  0  0  0
 11  9  1  0  0  0  0
 12  7  2  0  0  0  0
 13  8  2  0  0  0  0
 13 32  1  0  0  0  0
 14  6  2  0  0  0  0
 14 15  1  0  0  0  0
 15 19  2  0  0  0  0
 16 35  1  0  0  0  0
 17 36  1  0  0  0  0
 17 10  2  0  0  0  0
 18 12  1  0  0  0  0
 18 22  2  0  0  0  0
 19 10  1  0  0  0  0
 19 38  1  0  0  0  0
 20  5  2  0  0  0  0
 21 20  1  0  0  0  0
 21 11  2  0  0  0  0
 22 13  1  0  0  0  0
 23  3  1  0  0  0  0
 24  4  1  0  0  0  0
 26  4  1  0  0  0  0
 30 11  1  0  0  0  0
 31 12  1  0  0  0  0
 33 14  1  0  0  0  0
 34 15  1  0  0  0  0
 37 18  1  0  0  0  0
 39 20  1  0  0  0  0
 40 21  1  0  0  0  0
 41 22  1  0  0  0  0
M  END
