2
 OpenBabel05122313113D

 10  9  0  0  0  0  0  0  0  0999 V2000
   -0.0065   -2.2622    2.3105 O   0  0  0  0  0  0  0  0  0  0  0  0
    0.0002   -0.9696    1.8864 C   0  0  0  0  0  2  0  0  0  0  0  0
   -0.0547   -2.4839    3.7278 C   0  0  0  0  0  0  0  0  0  0  0  0
   -1.4573   -2.3203    4.2944 C   0  0  0  0  0  0  0  0  0  0  0  0
    0.0189   -0.2411    2.7368 H   0  0  0  0  0  0  0  0  0  0  0  0
    0.3130   -3.5198    3.8735 H   0  0  0  0  0  0  0  0  0  0  0  0
    0.6635   -1.7984    4.2338 H   0  0  0  0  0  0  0  0  0  0  0  0
   -2.1676   -3.0035    3.7879 H   0  0  0  0  0  0  0  0  0  0  0  0
   -1.4661   -2.5494    5.3792 H   0  0  0  0  0  0  0  0  0  0  0  0
   -1.8240   -1.2819    4.1627 H   0  0  0  0  0  0  0  0  0  0  0  0
  1  3  1  0  0  0  0
  2  1  1  0  0  0  0
  2  5  1  0  0  0  0
  3  6  1  0  0  0  0
  3  7  1  0  0  0  0
  3  4  1  0  0  0  0
  4  9  1  0  0  0  0
  8  4  1  0  0  0  0
 10  4  1  0  0  0  0
M  END
