6
 OpenBabel05122313113D

 15 15  0  0  0  0  0  0  0  0999 V2000
    0.1094    4.0546    0.1129 N   0  0  0  0  0  0  0  0  0  0  0  0
    0.1061    2.4845   -1.3796 N   0  0  0  0  0  0  0  0  0  0  0  0
    0.1158    2.0199   -2.2894 H   0  0  0  0  0  0  0  0  0  0  0  0
    0.1280    3.8209   -1.2096 C   0  0  0  0  0  3  0  0  0  0  0  0
    0.1504    4.5803   -1.9962 H   0  0  0  0  0  0  0  0  0  0  0  0
    0.0715    1.8103   -0.1597 C   0  0  0  0  0  3  0  0  0  0  0  0
    0.0805    2.8344    0.7805 C   0  0  0  0  0  0  0  0  0  0  0  0
    0.0523    2.7819    1.8725 H   0  0  0  0  0  0  0  0  0  0  0  0
    0.1147    5.3783    0.7475 C   0  0  0  0  0  0  0  0  0  0  0  0
   -0.7338    5.4015    1.4614 H   0  0  0  0  0  0  0  0  0  0  0  0
   -0.1099    6.1192   -0.0444 H   0  0  0  0  0  0  0  0  0  0  0  0
    1.4319    5.6961    1.4465 C   0  0  0  0  0  0  0  0  0  0  0  0
    1.6594    4.9585    2.2410 H   0  0  0  0  0  0  0  0  0  0  0  0
    1.3714    6.6953    1.9196 H   0  0  0  0  0  0  0  0  0  0  0  0
    2.2731    5.7045    0.7268 H   0  0  0  0  0  0  0  0  0  0  0  0
  1  9  1  0  0  0  0
  1  7  1  0  0  0  0
  2  4  1  0  0  0  0
  2  6  1  0  0  0  0
  3  2  1  0  0  0  0
  4  1  1  0  0  0  0
  5  4  1  0  0  0  0
  6  7  2  0  0  0  0
  7  8  1  0  0  0  0
  9 12  1  0  0  0  0
  9 10  1  0  0  0  0
 11  9  1  0  0  0  0
 12 14  1  0  0  0  0
 12 13  1  0  0  0  0
 15 12  1  0  0  0  0
M  END
