3
 OpenBabel05122313113D

 23 22  0  0  1  0  0  0  0  0999 V2000
    0.6736    1.1444    1.4658 S   0  0  0  0  0  0  0  0  0  0  0  0
    2.8948    0.4747   -0.4414 P   0  0  0  0  0  4  0  0  0  0  0  0
    1.6397   -0.2030    0.6994 C   0  0  1  0  0  3  0  0  0  0  0  0
    2.2758   -1.2074    1.6605 C   0  0  0  0  0  0  0  0  0  0  0  0
    0.5530    0.7099    3.2532 C   0  0  0  0  0  0  0  0  0  0  0  0
    2.5150    2.1308   -1.0800 C   0  0  0  0  0  0  0  0  0  0  0  0
    3.0996   -0.6669   -1.8382 C   0  0  0  0  0  0  0  0  0  0  0  0
    4.5339    0.6197    0.3622 C   0  0  0  0  0  0  0  0  0  0  0  0
    1.5078   -1.7062    2.2793 H   0  0  0  0  0  0  0  0  0  0  0  0
    3.0283   -0.7596    2.3444 H   0  0  0  0  0  0  0  0  0  0  0  0
    2.7849   -2.0100    1.0871 H   0  0  0  0  0  0  0  0  0  0  0  0
   -0.1479    1.4537    3.6789 H   0  0  0  0  0  0  0  0  0  0  0  0
    1.5387    0.8189    3.7439 H   0  0  0  0  0  0  0  0  0  0  0  0
    0.1394   -0.3047    3.3887 H   0  0  0  0  0  0  0  0  0  0  0  0
    1.7337    2.0761   -1.8601 H   0  0  0  0  0  0  0  0  0  0  0  0
    3.4472    2.5434   -1.5131 H   0  0  0  0  0  0  0  0  0  0  0  0
    2.1806    2.7783   -0.2468 H   0  0  0  0  0  0  0  0  0  0  0  0
    2.1942   -0.6180   -2.4711 H   0  0  0  0  0  0  0  0  0  0  0  0
    3.2335   -1.6979   -1.4583 H   0  0  0  0  0  0  0  0  0  0  0  0
    3.9901   -0.3739   -2.4279 H   0  0  0  0  0  0  0  0  0  0  0  0
    4.8868   -0.3700    0.7088 H   0  0  0  0  0  0  0  0  0  0  0  0
    4.4581    1.3029    1.2310 H   0  0  0  0  0  0  0  0  0  0  0  0
    5.2699    1.0308   -0.3563 H   0  0  0  0  0  0  0  0  0  0  0  0
  1  5  1  0  0  0  0
  2  8  1  0  0  0  0
  2  3  1  0  0  0  0
  3  1  1  1  0  0  0
  3  4  1  0  0  0  0
  4  9  1  0  0  0  0
  4 10  1  0  0  0  0
  5 14  1  0  0  0  0
  5 12  1  0  0  0  0
  5 13  1  0  0  0  0
  6  2  1  0  0  0  0
  6 17  1  0  0  0  0
  7 19  1  0  0  0  0
  7  2  1  0  0  0  0
  8 21  1  0  0  0  0
  8 22  1  0  0  0  0
 11  4  1  0  0  0  0
 15  6  1  0  0  0  0
 16  6  1  0  0  0  0
 18  7  1  0  0  0  0
 20  7  1  0  0  0  0
 23  8  1  0  0  0  0
M  END
