4
 OpenBabel05122313113D

 20 19  0  0  1  0  0  0  0  0999 V2000
    0.6511    0.1390   -1.8199 S   0  0  0  0  0  1  0  0  0  0  0  0
    1.4372    2.7135    0.7971 N   0  0  0  0  0  0  0  0  0  0  0  0
    1.3465    1.6245    0.3537 C   0  0  0  0  0  0  0  0  0  0  0  0
    1.2391    0.2871   -0.1497 C   0  0  2  0  0  3  0  0  0  0  0  0
    2.2990   -0.6913    0.3575 C   0  0  0  0  0  0  0  0  0  0  0  0
    2.1647   -0.8341    1.4526 H   0  0  0  0  0  0  0  0  0  0  0  0
    2.0810   -1.6644   -0.1247 H   0  0  0  0  0  0  0  0  0  0  0  0
    3.8027   -0.3624    0.0888 C   0  0  0  0  0  0  0  0  0  0  0  0
    4.5836   -1.6683    0.3368 C   0  0  0  0  0  0  0  0  0  0  0  0
    5.6735   -1.5049    0.2093 H   0  0  0  0  0  0  0  0  0  0  0  0
    4.2731   -2.4646   -0.3711 H   0  0  0  0  0  0  0  0  0  0  0  0
    4.4176   -2.0462    1.3673 H   0  0  0  0  0  0  0  0  0  0  0  0
    4.0189    0.0889   -1.3651 C   0  0  0  0  0  0  0  0  0  0  0  0
    3.6114   -0.6511   -2.0838 H   0  0  0  0  0  0  0  0  0  0  0  0
    5.1021    0.2121   -1.5721 H   0  0  0  0  0  0  0  0  0  0  0  0
    3.5267    1.0609   -1.5700 H   0  0  0  0  0  0  0  0  0  0  0  0
    4.3302    0.7144    1.0554 C   0  0  0  0  0  0  0  0  0  0  0  0
    3.8262    1.6891    0.9167 H   0  0  0  0  0  0  0  0  0  0  0  0
    5.4173    0.8709    0.8964 H   0  0  0  0  0  0  0  0  0  0  0  0
    4.1863    0.4057    2.1119 H   0  0  0  0  0  0  0  0  0  0  0  0
  3  2  3  0  0  0  0
  4  1  1  6  0  0  0
  4  3  1  0  0  0  0
  4  5  1  0  0  0  0
  5  6  1  0  0  0  0
  7  5  1  0  0  0  0
  8  9  1  0  0  0  0
  8  5  1  0  0  0  0
  8 17  1  0  0  0  0
  9 12  1  0  0  0  0
 10  9  1  0  0  0  0
 11  9  1  0  0  0  0
 13  8  1  0  0  0  0
 14 13  1  0  0  0  0
 15 13  1  0  0  0  0
 16 13  1  0  0  0  0
 17 20  1  0  0  0  0
 18 17  1  0  0  0  0
 19 17  1  0  0  0  0
M  END
