1
 OpenBabel05122313113D

 13 13  0  0  0  0  0  0  0  0999 V2000
    1.0190    2.8004   -0.6732 C   0  0  0  0  0  3  0  0  0  0  0  0
   -0.2833    3.0420   -0.6076 C   0  0  0  0  0  3  0  0  0  0  0  0
   -1.0569    4.2337   -0.4747 C   0  0  0  0  0  0  0  0  0  0  0  0
   -0.4526    5.3985   -0.0430 C   0  0  0  0  0  0  0  0  0  0  0  0
    0.9206    5.5488    0.4072 C   0  0  0  0  0  0  0  0  0  0  0  0
    2.0430    4.8008    0.1652 C   0  0  0  0  0  0  0  0  0  0  0  0
    2.2032    3.6872   -0.8529 C   0  0  0  0  0  0  0  0  0  0  0  0
   -2.1490    4.2183   -0.6223 H   0  0  0  0  0  0  0  0  0  0  0  0
   -1.1053    6.2727    0.1244 H   0  0  0  0  0  0  0  0  0  0  0  0
    1.0669    6.3904    1.1087 H   0  0  0  0  0  0  0  0  0  0  0  0
    2.9418    5.0532    0.7555 H   0  0  0  0  0  0  0  0  0  0  0  0
    2.2202    4.0902   -1.8948 H   0  0  0  0  0  0  0  0  0  0  0  0
    3.1648    3.1544   -0.7098 H   0  0  0  0  0  0  0  0  0  0  0  0
  1  2  2  0  0  0  0
  2  3  1  0  0  0  0
  3  4  2  0  0  0  0
  4  9  1  0  0  0  0
  4  5  1  0  0  0  0
  5 10  1  0  0  0  0
  6  5  2  0  0  0  0
  6 11  1  0  0  0  0
  7 13  1  0  0  0  0
  7  1  1  0  0  0  0
  7  6  1  0  0  0  0
  8  3  1  0  0  0  0
 12  7  1  0  0  0  0
M  END
