8
 OpenBabel05122313113D

 38 40  0  0  0  0  0  0  0  0999 V2000
    1.7108   -4.0064   -1.3397 N   0  0  0  0  0  0  0  0  0  0  0  0
    0.6777   -4.5736   -0.7414 N   0  0  0  0  0  2  0  0  0  0  0  0
    4.1433   -2.0542   -1.4349 O   0  0  0  0  0  0  0  0  0  0  0  0
    0.0641   -3.5481   -0.1469 N   0  0  0  0  0  0  0  0  0  0  0  0
    1.7590   -2.6469   -1.1422 C   0  0  0  0  0  0  0  0  0  0  0  0
    3.8622   -1.0013    0.7637 C   0  0  0  0  0  0  0  0  0  0  0  0
    2.7696   -1.1317    0.7722 H   0  0  0  0  0  0  0  0  0  0  0  0
    0.6603   -2.3208   -0.3272 C   0  0  0  0  0  3  0  0  0  0  0  0
    4.6529   -1.4511   -0.3102 C   0  0  0  0  0  0  0  0  0  0  0  0
    2.6295   -4.8178   -2.1238 C   0  0  0  0  0  0  0  0  0  0  0  0
    2.5149   -5.8701   -1.8120 H   0  0  0  0  0  0  0  0  0  0  0  0
    3.6594   -4.4631   -1.9370 H   0  0  0  0  0  0  0  0  0  0  0  0
    2.3966   -4.7214   -3.2031 H   0  0  0  0  0  0  0  0  0  0  0  0
   -2.3497   -3.0784   -0.0306 C   0  0  0  0  0  0  0  0  0  0  0  0
   -1.1747   -3.7986    0.5927 C   0  0  0  0  0  0  0  0  0  0  0  0
   -1.0074   -3.4513    1.6329 H   0  0  0  0  0  0  0  0  0  0  0  0
   -1.3122   -4.8976    0.5935 H   0  0  0  0  0  0  0  0  0  0  0  0
    4.4786   -0.3907    1.8685 C   0  0  0  0  0  0  0  0  0  0  0  0
    3.8405   -0.0664    2.7058 H   0  0  0  0  0  0  0  0  0  0  0  0
   -2.6174   -3.2035   -1.4065 C   0  0  0  0  0  0  0  0  0  0  0  0
   -1.9542   -3.8125   -2.0403 H   0  0  0  0  0  0  0  0  0  0  0  0
    5.8699   -0.2194    1.9120 C   0  0  0  0  0  0  0  0  0  0  0  0
    6.3460    0.2622    2.7788 H   0  0  0  0  0  0  0  0  0  0  0  0
    6.0535   -1.2958   -0.2681 C   0  0  0  0  0  0  0  0  0  0  0  0
    6.6479   -1.6523   -1.1219 H   0  0  0  0  0  0  0  0  0  0  0  0
    6.6530   -0.6807    0.8382 C   0  0  0  0  0  0  0  0  0  0  0  0
    7.7464   -0.5550    0.8587 H   0  0  0  0  0  0  0  0  0  0  0  0
   -5.9245   -0.9689   -1.9006 Cl  0  0  0  0  0  0  0  0  0  0  0  0
    2.7860   -1.7695   -1.7908 C   0  0  0  0  0  0  0  0  0  0  0  0
    2.7458   -1.8965   -2.8923 H   0  0  0  0  0  0  0  0  0  0  0  0
    2.5176   -0.7153   -1.5750 H   0  0  0  0  0  0  0  0  0  0  0  0
   -4.5502   -1.7676   -1.1810 C   0  0  0  0  0  0  0  0  0  0  0  0
   -3.1929   -2.2732    0.7561 C   0  0  0  0  0  0  0  0  0  0  0  0
   -2.9777   -2.1550    1.8296 H   0  0  0  0  0  0  0  0  0  0  0  0
   -3.7090   -2.5506   -1.9885 C   0  0  0  0  0  0  0  0  0  0  0  0
   -3.9149   -2.6400   -3.0639 H   0  0  0  0  0  0  0  0  0  0  0  0
   -4.2979   -1.6194    0.1916 C   0  0  0  0  0  0  0  0  0  0  0  0
   -4.9555   -0.9857    0.8026 H   0  0  0  0  0  0  0  0  0  0  0  0
  1  5  1  0  0  0  0
  1  2  1  0  0  0  0
  2  4  1  0  0  0  0
  3  9  1  0  0  0  0
  4 15  1  0  0  0  0
  5  8  2  0  0  0  0
  6  7  1  0  0  0  0
  6 18  1  0  0  0  0
  8  4  1  0  0  0  0
  9 24  1  0  0  0  0
  9  6  2  0  0  0  0
 10 12  1  0  0  0  0
 10 11  1  0  0  0  0
 10  1  1  0  0  0  0
 13 10  1  0  0  0  0
 14 15  1  0  0  0  0
 14 33  1  0  0  0  0
 15 17  1  0  0  0  0
 15 16  1  0  0  0  0
 18 22  2  0  0  0  0
 18 19  1  0  0  0  0
 20 14  2  0  0  0  0
 21 20  1  0  0  0  0
 22 23  1  0  0  0  0
 24 26  2  0  0  0  0
 25 24  1  0  0  0  0
 26 27  1  0  0  0  0
 26 22  1  0  0  0  0
 28 32  1  0  0  0  0
 29 31  1  0  0  0  0
 29  3  1  0  0  0  0
 29  5  1  0  0  0  0
 30 29  1  0  0  0  0
 32 37  1  0  0  0  0
 33 34  1  0  0  0  0
 35 20  1  0  0  0  0
 35 32  2  0  0  0  0
 36 35  1  0  0  0  0
 37 33  2  0  0  0  0
 37 38  1  0  0  0  0
M  END
