5
 OpenBabel05122313113D

 41 43  0  0  0  0  0  0  0  0999 V2000
    4.5797   -0.2429   -0.3420 B   0  0  0  0  0  0  0  0  0  0  0  0
   -0.5485   -0.0025    0.0801 C   0  0  0  0  0  0  0  0  0  0  0  0
   -1.2517   -0.6607    1.1347 C   0  0  0  0  0  0  0  0  0  0  0  0
   -1.0720   -1.6903    1.4686 H   0  0  0  0  0  0  0  0  0  0  0  0
   -2.1615    0.2736    1.7262 C   0  0  0  0  0  3  0  0  0  0  0  0
   -2.8037    0.0869    2.5942 H   0  0  0  0  0  0  0  0  0  0  0  0
   -2.0435    1.5018    1.0189 C   0  0  0  0  0  0  0  0  0  0  0  0
   -2.6262    2.4119    1.2011 H   0  0  0  0  0  0  0  0  0  0  0  0
   -1.0699    1.3250   -0.0074 C   0  0  0  0  0  0  0  0  0  0  0  0
   -0.7771    2.0755   -0.7521 H   0  0  0  0  0  0  0  0  0  0  0  0
    0.6107   -0.5508   -0.6963 C   0  0  0  0  0  0  0  0  0  0  0  0
    0.5707   -0.1744   -1.7390 H   0  0  0  0  0  0  0  0  0  0  0  0
    0.5318   -1.6557   -0.7645 H   0  0  0  0  0  0  0  0  0  0  0  0
    1.9575   -0.1634   -0.0591 C   0  0  0  0  0  0  0  0  0  0  0  0
    2.0176    0.9427    0.0074 H   0  0  0  0  0  0  0  0  0  0  0  0
    1.9905   -0.5350    0.9876 H   0  0  0  0  0  0  0  0  0  0  0  0
    3.1627   -0.7212   -0.8387 C   0  0  0  0  0  0  0  0  0  0  0  0
    3.0915   -0.3651   -1.8946 H   0  0  0  0  0  0  0  0  0  0  0  0
    3.1000   -1.8262   -0.8870 H   0  0  0  0  0  0  0  0  0  0  0  0
    4.8948    1.2882   -0.1401 C   0  0  0  0  0  0  0  0  0  0  0  0
    5.8024    1.7366    0.8472 C   0  0  0  0  0  0  0  0  0  0  0  0
    6.4154    0.8596    1.6565 F   0  0  0  0  0  0  0  0  0  0  0  0
    6.0952    3.0913    1.0606 C   0  0  0  0  0  0  0  0  0  0  0  0
    6.9479    3.4689    2.0152 F   0  0  0  0  0  0  0  0  0  0  0  0
    5.4721    4.0608    0.2556 C   0  0  0  0  0  0  0  0  0  0  0  0
    5.7403    5.3506    0.4403 F   0  0  0  0  0  0  0  0  0  0  0  0
    4.5664    3.6674   -0.7444 C   0  0  0  0  0  0  0  0  0  0  0  0
    3.9798    4.5891   -1.5104 F   0  0  0  0  0  0  0  0  0  0  0  0
    4.2840    2.3032   -0.9114 C   0  0  0  0  0  0  0  0  0  0  0  0
    3.4102    1.9939   -1.8830 F   0  0  0  0  0  0  0  0  0  0  0  0
    5.7074   -1.3090   -0.0703 C   0  0  0  0  0  0  0  0  0  0  0  0
    7.0348   -1.1336   -0.5112 C   0  0  0  0  0  0  0  0  0  0  0  0
    7.3815   -0.0167   -1.1718 F   0  0  0  0  0  0  0  0  0  0  0  0
    8.0336   -2.0987   -0.3177 C   0  0  0  0  0  0  0  0  0  0  0  0
    9.2754   -1.9073   -0.7683 F   0  0  0  0  0  0  0  0  0  0  0  0
    7.7130   -3.2838    0.3690 C   0  0  0  0  0  0  0  0  0  0  0  0
    8.6504   -4.2071    0.5728 F   0  0  0  0  0  0  0  0  0  0  0  0
    6.4058   -3.4954    0.8414 C   0  0  0  0  0  0  0  0  0  0  0  0
    6.1112   -4.6155    1.5059 F   0  0  0  0  0  0  0  0  0  0  0  0
    5.4308   -2.5138    0.6074 C   0  0  0  0  0  0  0  0  0  0  0  0
    4.2014   -2.7442    1.0999 F   0  0  0  0  0  0  0  0  0  0  0  0
  1 20  1  0  0  0  0
  1 31  1  0  0  0  0
  2  3  2  0  0  0  0
  3  4  1  0  0  0  0
  3  5  1  0  0  0  0
  5  6  1  0  0  0  0
  7  8  1  0  0  0  0
  7  5  1  0  0  0  0
  9  2  1  0  0  0  0
  9  7  2  0  0  0  0
 10  9  1  0  0  0  0
 11 14  1  0  0  0  0
 11  2  1  0  0  0  0
 12 11  1  0  0  0  0
 13 11  1  0  0  0  0
 14 15  1  0  0  0  0
 14 16  1  0  0  0  0
 17  1  1  0  0  0  0
 17 14  1  0  0  0  0
 18 17  1  0  0  0  0
 19 17  1  0  0  0  0
 20 21  1  0  0  0  0
 21 23  2  0  0  0  0
 21 22  1  0  0  0  0
 23 24  1  0  0  0  0
 25 26  1  0  0  0  0
 25 23  1  0  0  0  0
 27 25  2  0  0  0  0
 28 27  1  0  0  0  0
 29 27  1  0  0  0  0
 29 20  2  0  0  0  0
 30 29  1  0  0  0  0
 31 40  1  0  0  0  0
 32 34  1  0  0  0  0
 32 31  2  0  0  0  0
 33 32  1  0  0  0  0
 34 36  2  0  0  0  0
 35 34  1  0  0  0  0
 36 37  1  0  0  0  0
 36 38  1  0  0  0  0
 38 39  1  0  0  0  0
 40 38  2  0  0  0  0
 40 41  1  0  0  0  0
M  END
