1
 OpenBabel05122313113D

 78 82  0  0  1  0  0  0  0  0999 V2000
   -0.3821   -1.3374   -0.4975 C   0  0  2  0  0  3  0  0  0  0  0  0
    0.4248   -2.2372   -1.2553 C   0  0  0  0  0  3  0  0  0  0  0  0
    1.3950   -2.8247   -0.3908 C   0  0  0  0  0  0  0  0  0  0  0  0
    1.1832   -2.3330    0.9309 C   0  0  0  0  0  0  0  0  0  0  0  0
    0.1159   -1.3842    0.8521 C   0  0  0  0  0  3  0  0  0  0  0  0
   -1.5800   -0.5728   -1.0084 C   0  0  1  0  0  0  0  0  0  0  0  0
   -1.4702    1.0453   -0.8580 C   0  0  2  0  0  0  0  0  0  0  0  0
   -1.9371    1.1456   -2.3362 C   0  0  0  0  0  0  0  0  0  0  0  0
   -1.5974   -0.3367   -2.5560 C   0  0  0  0  0  0  0  0  0  0  0  0
    0.0113    1.4030   -0.7266 C   0  0  0  0  0  0  0  0  0  0  0  0
    0.9360    1.6844   -1.7745 C   0  0  0  0  0  0  0  0  0  0  0  0
    2.1697    2.1264   -1.2020 C   0  0  0  0  0  0  0  0  0  0  0  0
    2.0272    2.1519    0.2136 C   0  0  0  0  0  0  0  0  0  0  0  0
    0.7224    1.6384    0.5036 C   0  0  0  0  0  3  0  0  0  0  0  0
   -2.8822   -1.2855   -0.5420 C   0  0  0  0  0  0  0  0  0  0  0  0
   -3.0089   -2.7118   -1.1195 C   0  0  0  0  0  0  0  0  0  0  0  0
   -4.3721   -3.3317   -0.7820 C   0  0  0  0  0  0  0  0  0  0  0  0
   -4.6314   -3.3492    0.7295 C   0  0  0  0  0  0  0  0  0  0  0  0
   -4.4489   -1.9555    1.3426 C   0  0  0  0  0  0  0  0  0  0  0  0
   -3.0754   -1.3720    0.9849 C   0  0  0  0  0  0  0  0  0  0  0  0
   -2.2718    1.9102    0.1650 C   0  0  0  0  0  0  0  0  0  0  0  0
   -3.8112    1.8082    0.1122 C   0  0  0  0  0  0  0  0  0  0  0  0
   -4.4772    2.6589    1.2039 C   0  0  0  0  0  0  0  0  0  0  0  0
   -4.0821    4.1345    1.0977 C   0  0  0  0  0  0  0  0  0  0  0  0
   -2.5585    4.2870    1.0830 C   0  0  0  0  0  0  0  0  0  0  0  0
   -1.9056    3.4085    0.0089 C   0  0  0  0  0  0  0  0  0  0  0  0
    1.8605   -2.7915    2.2042 C   0  0  0  0  0  0  0  0  0  0  0  0
    3.0320   -3.7409    1.9368 C   0  0  0  0  0  0  0  0  0  0  0  0
    0.8194   -3.4392    3.1373 C   0  0  0  0  0  0  0  0  0  0  0  0
    2.9907    2.7243    1.2291 C   0  0  0  0  0  0  0  0  0  0  0  0
    2.3664    3.9766    1.8755 C   0  0  0  0  0  0  0  0  0  0  0  0
    4.3638    3.0361    0.6270 C   0  0  0  0  0  0  0  0  0  0  0  0
    0.3335   -2.4292   -2.3298 H   0  0  0  0  0  0  0  0  0  0  0  0
    2.1718   -3.5341   -0.6970 H   0  0  0  0  0  0  0  0  0  0  0  0
   -0.2932   -0.8231    1.6995 H   0  0  0  0  0  0  0  0  0  0  0  0
   -3.0267    1.3265   -2.3972 H   0  0  0  0  0  0  0  0  0  0  0  0
   -1.4320    1.8965   -2.9734 H   0  0  0  0  0  0  0  0  0  0  0  0
   -0.6024   -0.4824   -3.0188 H   0  0  0  0  0  0  0  0  0  0  0  0
   -2.3305   -0.9337   -3.1313 H   0  0  0  0  0  0  0  0  0  0  0  0
    0.7493    1.5818   -2.8490 H   0  0  0  0  0  0  0  0  0  0  0  0
    3.0665    2.4023   -1.7673 H   0  0  0  0  0  0  0  0  0  0  0  0
    0.2981    1.5508    1.5110 H   0  0  0  0  0  0  0  0  0  0  0  0
   -3.7301   -0.7012   -0.9643 H   0  0  0  0  0  0  0  0  0  0  0  0
   -2.1969   -3.3458   -0.6997 H   0  0  0  0  0  0  0  0  0  0  0  0
   -2.8599   -2.7062   -2.2187 H   0  0  0  0  0  0  0  0  0  0  0  0
   -4.4376   -4.3591   -1.1977 H   0  0  0  0  0  0  0  0  0  0  0  0
   -5.1725   -2.7419   -1.2835 H   0  0  0  0  0  0  0  0  0  0  0  0
   -5.6464   -3.7433    0.9466 H   0  0  0  0  0  0  0  0  0  0  0  0
   -3.9133   -4.0501    1.2118 H   0  0  0  0  0  0  0  0  0  0  0  0
   -5.2485   -1.2769    0.9667 H   0  0  0  0  0  0  0  0  0  0  0  0
   -4.5717   -1.9973    2.4453 H   0  0  0  0  0  0  0  0  0  0  0  0
   -2.9337   -0.3848    1.4679 H   0  0  0  0  0  0  0  0  0  0  0  0
   -2.2903   -2.0369    1.4031 H   0  0  0  0  0  0  0  0  0  0  0  0
   -1.9570    1.5959    1.1875 H   0  0  0  0  0  0  0  0  0  0  0  0
   -4.1592    0.7662    0.2088 H   0  0  0  0  0  0  0  0  0  0  0  0
   -4.1647    2.1638   -0.8806 H   0  0  0  0  0  0  0  0  0  0  0  0
   -4.1762    2.2666    2.2020 H   0  0  0  0  0  0  0  0  0  0  0  0
   -5.5801    2.5445    1.1474 H   0  0  0  0  0  0  0  0  0  0  0  0
   -4.5295    4.7226    1.9264 H   0  0  0  0  0  0  0  0  0  0  0  0
   -4.4989    4.5540    0.1544 H   0  0  0  0  0  0  0  0  0  0  0  0
   -2.2728    5.3487    0.9283 H   0  0  0  0  0  0  0  0  0  0  0  0
   -2.1505    3.9990    2.0788 H   0  0  0  0  0  0  0  0  0  0  0  0
   -2.2390    3.7447   -0.9990 H   0  0  0  0  0  0  0  0  0  0  0  0
   -0.8083    3.5513    0.0333 H   0  0  0  0  0  0  0  0  0  0  0  0
    2.2660   -1.8887    2.7112 H   0  0  0  0  0  0  0  0  0  0  0  0
    2.6857   -4.6778    1.4523 H   0  0  0  0  0  0  0  0  0  0  0  0
    3.7896   -3.2649    1.2849 H   0  0  0  0  0  0  0  0  0  0  0  0
    3.5279   -4.0209    2.8874 H   0  0  0  0  0  0  0  0  0  0  0  0
   -0.0114   -2.7449    3.3755 H   0  0  0  0  0  0  0  0  0  0  0  0
    0.3782   -4.3435    2.6688 H   0  0  0  0  0  0  0  0  0  0  0  0
    1.2904   -3.7460    4.0934 H   0  0  0  0  0  0  0  0  0  0  0  0
    3.1335    1.9588    2.0225 H   0  0  0  0  0  0  0  0  0  0  0  0
    2.1968    4.7692    1.1172 H   0  0  0  0  0  0  0  0  0  0  0  0
    3.0388    4.3890    2.6551 H   0  0  0  0  0  0  0  0  0  0  0  0
    1.3903    3.7527    2.3511 H   0  0  0  0  0  0  0  0  0  0  0  0
    4.2902    3.8204   -0.1552 H   0  0  0  0  0  0  0  0  0  0  0  0
    5.0533    3.4109    1.4094 H   0  0  0  0  0  0  0  0  0  0  0  0
    4.8170    2.1310    0.1786 H   0  0  0  0  0  0  0  0  0  0  0  0
  1  2  1  1  0  0  0
  1  5  1  0  0  0  0
  2  3  1  0  0  0  0
  3  4  2  0  0  0  0
  4 27  1  0  0  0  0
  5  4  1  0  0  0  0
  5 35  1  0  0  0  0
  6  7  1  0  0  0  0
  6 15  1  1  0  0  0
  6  1  1  0  0  0  0
  7 10  1  1  0  0  0
  7 21  1  0  0  0  0
  8  7  1  0  0  0  0
  9  8  1  0  0  0  0
  9  6  1  0  0  0  0
 10 14  1  0  0  0  0
 11 12  1  0  0  0  0
 11 10  2  0  0  0  0
 12 13  2  0  0  0  0
 13 14  1  0  0  0  0
 13 30  1  0  0  0  0
 14 42  1  0  0  0  0
 15 20  1  0  0  0  0
 16 17  1  0  0  0  0
 16 44  1  0  0  0  0
 16 15  1  0  0  0  0
 17 18  1  0  0  0  0
 18 48  1  0  0  0  0
 18 49  1  0  0  0  0
 18 19  1  0  0  0  0
 19 51  1  0  0  0  0
 20 19  1  0  0  0  0
 20 53  1  0  0  0  0
 20 52  1  0  0  0  0
 21 54  1  0  0  0  0
 22 21  1  0  0  0  0
 22 55  1  0  0  0  0
 22 23  1  0  0  0  0
 23 57  1  0  0  0  0
 24 23  1  0  0  0  0
 24 59  1  0  0  0  0
 25 24  1  0  0  0  0
 25 62  1  0  0  0  0
 26 64  1  0  0  0  0
 26 21  1  0  0  0  0
 26 25  1  0  0  0  0
 27 65  1  0  0  0  0
 27 29  1  0  0  0  0
 28 27  1  0  0  0  0
 28 68  1  0  0  0  0
 29 69  1  0  0  0  0
 29 71  1  0  0  0  0
 30 31  1  0  0  0  0
 30 72  1  0  0  0  0
 31 75  1  0  0  0  0
 31 74  1  0  0  0  0
 32 30  1  0  0  0  0
 32 77  1  0  0  0  0
 33  2  1  0  0  0  0
 34  3  1  0  0  0  0
 36  8  1  0  0  0  0
 37  8  1  0  0  0  0
 38  9  1  0  0  0  0
 39  9  1  0  0  0  0
 40 11  1  0  0  0  0
 41 12  1  0  0  0  0
 43 15  1  0  0  0  0
 45 16  1  0  0  0  0
 46 17  1  0  0  0  0
 47 17  1  0  0  0  0
 50 19  1  0  0  0  0
 56 22  1  0  0  0  0
 58 23  1  0  0  0  0
 60 24  1  0  0  0  0
 61 25  1  0  0  0  0
 63 26  1  0  0  0  0
 66 28  1  0  0  0  0
 67 28  1  0  0  0  0
 70 29  1  0  0  0  0
 73 31  1  0  0  0  0
 76 32  1  0  0  0  0
 78 32  1  0  0  0  0
M  END
