1
 OpenBabel05122313113D

  9  8  0  0  0  0  0  0  0  0999 V2000
    2.1238    0.0313    0.5663 C   0  0  0  0  0  3  0  0  0  0  0  0
    3.0886    0.0835   -0.6280 C   0  0  0  0  0  0  0  0  0  0  0  0
    4.4832    0.0513   -0.1899 C   0  0  0  0  0  0  0  0  0  0  0  0
    5.6382    0.0222    0.2153 C   0  0  0  0  0  0  0  0  0  0  0  0
    2.2943    0.9072    1.2235 H   0  0  0  0  0  0  0  0  0  0  0  0
    2.3237   -0.8819    1.1616 H   0  0  0  0  0  0  0  0  0  0  0  0
    2.9075   -0.7624   -1.3253 H   0  0  0  0  0  0  0  0  0  0  0  0
    2.9242    0.9988   -1.2359 H   0  0  0  0  0  0  0  0  0  0  0  0
    6.6602   -0.0031    0.5638 H   0  0  0  0  0  0  0  0  0  0  0  0
  1  6  1  0  0  0  0
  1  5  1  0  0  0  0
  2  3  1  0  0  0  0
  2  1  1  0  0  0  0
  3  4  3  0  0  0  0
  4  9  1  0  0  0  0
  7  2  1  0  0  0  0
  8  2  1  0  0  0  0
M  END
