2
 OpenBabel05122313113D

 53 56  0  0  1  0  0  0  0  0999 V2000
   -1.3503    2.4633    0.0959 Si  0  0  0  0  0  0  0  0  0  0  0  0
    0.0092    1.6379   -0.9256 C   0  0  1  0  0  3  0  0  0  0  0  0
    1.3813    1.6301   -0.5035 C   0  0  0  0  0  3  0  0  0  0  0  0
    2.0922    0.5882   -1.1874 C   0  0  0  0  0  0  0  0  0  0  0  0
    1.1325   -0.0870   -1.9950 C   0  0  0  0  0  0  0  0  0  0  0  0
   -0.1422    0.5398   -1.8527 C   0  0  2  0  0  3  0  0  0  0  0  0
   -1.6131    0.9835    1.2632 C   0  0  0  0  0  0  0  0  0  0  0  0
   -2.1870   -0.3172    0.9895 C   0  0  0  0  0  0  0  0  0  0  0  0
   -1.6365   -1.2491    1.9316 C   0  0  0  0  0  0  0  0  0  0  0  0
   -0.7576   -0.5674    2.8127 C   0  0  0  0  0  0  0  0  0  0  0  0
   -0.7166    0.7950    2.3725 C   0  0  0  0  0  3  0  0  0  0  0  0
   -0.6213    3.8941    1.0862 C   0  0  0  0  0  0  0  0  0  0  0  0
   -2.7949    3.1061   -0.9265 C   0  0  0  0  0  0  0  0  0  0  0  0
    3.5275    0.2771   -1.0889 C   0  0  0  0  0  0  0  0  0  0  0  0
    4.4510    1.2664   -0.6885 C   0  0  0  0  0  0  0  0  0  0  0  0
    5.8185    0.9746   -0.5956 C   0  0  0  0  0  0  0  0  0  0  0  0
    6.2880   -0.3122   -0.9011 C   0  0  0  0  0  0  0  0  0  0  0  0
    5.3776   -1.3064   -1.2970 C   0  0  0  0  0  0  0  0  0  0  0  0
    4.0115   -1.0164   -1.3885 C   0  0  0  0  0  0  0  0  0  0  0  0
   -1.3577    0.1634   -2.6513 C   0  0  0  0  0  0  0  0  0  0  0  0
   -3.2747   -0.6409    0.0419 C   0  0  0  0  0  0  0  0  0  0  0  0
   -4.3357    0.2736   -0.1446 C   0  0  0  0  0  0  0  0  0  0  0  0
   -5.3897   -0.0162   -1.0226 C   0  0  0  0  0  0  0  0  0  0  0  0
   -5.4128   -1.2353   -1.7183 C   0  0  0  0  0  0  0  0  0  0  0  0
   -4.3810   -2.1668   -1.5148 C   0  0  0  0  0  0  0  0  0  0  0  0
   -3.3237   -1.8769   -0.6429 C   0  0  0  0  0  0  0  0  0  0  0  0
   -0.0814   -1.1411    4.0187 C   0  0  0  0  0  0  0  0  0  0  0  0
    1.8233    2.3051    0.2403 H   0  0  0  0  0  0  0  0  0  0  0  0
    1.3379   -0.9437   -2.6473 H   0  0  0  0  0  0  0  0  0  0  0  0
   -1.8987   -2.3124    1.9905 H   0  0  0  0  0  0  0  0  0  0  0  0
   -0.0900    1.5738    2.8268 H   0  0  0  0  0  0  0  0  0  0  0  0
    0.2811    3.6023    1.6579 H   0  0  0  0  0  0  0  0  0  0  0  0
   -1.3680    4.2853    1.8070 H   0  0  0  0  0  0  0  0  0  0  0  0
   -0.3375    4.7217    0.4047 H   0  0  0  0  0  0  0  0  0  0  0  0
   -3.2496    2.3392   -1.5794 H   0  0  0  0  0  0  0  0  0  0  0  0
   -2.4194    3.9302   -1.5684 H   0  0  0  0  0  0  0  0  0  0  0  0
   -3.5885    3.5207   -0.2719 H   0  0  0  0  0  0  0  0  0  0  0  0
    4.0933    2.2821   -0.4634 H   0  0  0  0  0  0  0  0  0  0  0  0
    6.5241    1.7602   -0.2849 H   0  0  0  0  0  0  0  0  0  0  0  0
    7.3616   -0.5423   -0.8266 H   0  0  0  0  0  0  0  0  0  0  0  0
    5.7347   -2.3223   -1.5241 H   0  0  0  0  0  0  0  0  0  0  0  0
    3.3009   -1.8120   -1.6583 H   0  0  0  0  0  0  0  0  0  0  0  0
   -2.3032    0.4308   -2.1472 H   0  0  0  0  0  0  0  0  0  0  0  0
   -1.3839   -0.9255   -2.8485 H   0  0  0  0  0  0  0  0  0  0  0  0
   -1.3411    0.6855   -3.6318 H   0  0  0  0  0  0  0  0  0  0  0  0
   -4.3385    1.2098    0.4309 H   0  0  0  0  0  0  0  0  0  0  0  0
   -6.2060    0.7107   -1.1534 H   0  0  0  0  0  0  0  0  0  0  0  0
   -6.2390   -1.4642   -2.4084 H   0  0  0  0  0  0  0  0  0  0  0  0
   -4.3938   -3.1287   -2.0498 H   0  0  0  0  0  0  0  0  0  0  0  0
   -2.4992   -2.5941   -0.5174 H   0  0  0  0  0  0  0  0  0  0  0  0
    0.0414   -2.2372    3.9276 H   0  0  0  0  0  0  0  0  0  0  0  0
   -0.6885   -0.9395    4.9266 H   0  0  0  0  0  0  0  0  0  0  0  0
    0.9216   -0.6970    4.1657 H   0  0  0  0  0  0  0  0  0  0  0  0
  1 12  1  0  0  0  0
  1  7  1  0  0  0  0
  2  3  1  0  0  0  0
  2  1  1  1  0  0  0
  3 28  1  0  0  0  0
  4 14  1  0  0  0  0
  4  3  1  0  0  0  0
  5  6  1  0  0  0  0
  5  4  2  0  0  0  0
  6 20  1  6  0  0  0
  6  2  1  0  0  0  0
  7 11  1  0  0  0  0
  8  7  2  0  0  0  0
  8  9  1  0  0  0  0
  9 30  1  0  0  0  0
  9 10  2  0  0  0  0
 10 27  1  0  0  0  0
 11 10  1  0  0  0  0
 11 31  1  0  0  0  0
 12 32  1  0  0  0  0
 12 33  1  0  0  0  0
 13 37  1  0  0  0  0
 13  1  1  0  0  0  0
 14 15  1  0  0  0  0
 15 16  2  0  0  0  0
 15 38  1  0  0  0  0
 16 39  1  0  0  0  0
 17 40  1  0  0  0  0
 17 16  1  0  0  0  0
 18 17  2  0  0  0  0
 19 18  1  0  0  0  0
 19 14  2  0  0  0  0
 20 43  1  0  0  0  0
 21  8  1  0  0  0  0
 22 21  1  0  0  0  0
 22 46  1  0  0  0  0
 23 22  2  0  0  0  0
 24 25  2  0  0  0  0
 24 23  1  0  0  0  0
 25 26  1  0  0  0  0
 26 50  1  0  0  0  0
 26 21  2  0  0  0  0
 27 53  1  0  0  0  0
 27 52  1  0  0  0  0
 29  5  1  0  0  0  0
 34 12  1  0  0  0  0
 35 13  1  0  0  0  0
 36 13  1  0  0  0  0
 41 18  1  0  0  0  0
 42 19  1  0  0  0  0
 44 20  1  0  0  0  0
 45 20  1  0  0  0  0
 47 23  1  0  0  0  0
 48 24  1  0  0  0  0
 49 25  1  0  0  0  0
 51 27  1  0  0  0  0
M  END
