2
 OpenBabel05122313113D

 26 27  0  0  0  0  0  0  0  0999 V2000
    0.7912    0.4652   -0.9658 N   0  0  0  0  0  2  0  0  0  0  0  0
   -0.3771    0.5634   -0.4768 C   0  0  0  0  0  2  0  0  0  0  0  0
    1.9561    0.2579   -1.4372 C   0  0  0  0  0  3  0  0  0  0  0  0
   -0.8890    1.9463   -0.2622 C   0  0  0  0  0  0  0  0  0  0  0  0
   -0.0074    2.9588    0.1846 C   0  0  0  0  0  0  0  0  0  0  0  0
   -0.4759    4.2588    0.4099 C   0  0  0  0  0  0  0  0  0  0  0  0
   -1.8220    4.5744    0.1620 C   0  0  0  0  0  0  0  0  0  0  0  0
   -2.6974    3.5806   -0.3044 C   0  0  0  0  0  0  0  0  0  0  0  0
   -2.2405    2.2713   -0.5025 C   0  0  0  0  0  0  0  0  0  0  0  0
    3.1739    0.1616   -0.6260 C   0  0  0  0  0  0  0  0  0  0  0  0
    3.1390    0.2376    0.7862 C   0  0  0  0  0  0  0  0  0  0  0  0
    4.3221    0.1276    1.5230 C   0  0  0  0  0  0  0  0  0  0  0  0
    5.5527   -0.0536    0.8658 C   0  0  0  0  0  0  0  0  0  0  0  0
    5.5954   -0.1297   -0.5358 C   0  0  0  0  0  0  0  0  0  0  0  0
    4.4131   -0.0250   -1.2789 C   0  0  0  0  0  0  0  0  0  0  0  0
    2.0555    0.1284   -2.5340 H   0  0  0  0  0  0  0  0  0  0  0  0
    1.0482    2.7113    0.3748 H   0  0  0  0  0  0  0  0  0  0  0  0
    0.2149    5.0320    0.7787 H   0  0  0  0  0  0  0  0  0  0  0  0
   -2.1897    5.5971    0.3343 H   0  0  0  0  0  0  0  0  0  0  0  0
   -3.7508    3.8236   -0.5083 H   0  0  0  0  0  0  0  0  0  0  0  0
   -2.9283    1.4967   -0.8663 H   0  0  0  0  0  0  0  0  0  0  0  0
    2.1773    0.3665    1.3036 H   0  0  0  0  0  0  0  0  0  0  0  0
    4.2851    0.1782    2.6214 H   0  0  0  0  0  0  0  0  0  0  0  0
    6.4810   -0.1395    1.4503 H   0  0  0  0  0  0  0  0  0  0  0  0
    6.5559   -0.2752   -1.0522 H   0  0  0  0  0  0  0  0  0  0  0  0
    4.4413   -0.0906   -2.3779 H   0  0  0  0  0  0  0  0  0  0  0  0
  1  2  1  0  0  0  0
  2  4  1  0  0  0  0
  3  1  1  0  0  0  0
  3 10  1  0  0  0  0
  4  5  1  0  0  0  0
  5 17  1  0  0  0  0
  5  6  2  0  0  0  0
  6 18  1  0  0  0  0
  7 19  1  0  0  0  0
  7  6  1  0  0  0  0
  8  7  2  0  0  0  0
  9  8  1  0  0  0  0
  9  4  2  0  0  0  0
 10 11  1  0  0  0  0
 11 22  1  0  0  0  0
 11 12  2  0  0  0  0
 12 23  1  0  0  0  0
 13 24  1  0  0  0  0
 13 12  1  0  0  0  0
 14 13  2  0  0  0  0
 15 10  2  0  0  0  0
 15 14  1  0  0  0  0
 16  3  1  0  0  0  0
 20  8  1  0  0  0  0
 21  9  1  0  0  0  0
 25 14  1  0  0  0  0
 26 15  1  0  0  0  0
M  END
