3
 OpenBabel05122313113D

 42 45  0  0  1  0  0  0  0  0999 V2000
    1.6849    0.6736   -3.3146 O   0  0  0  0  0  0  0  0  0  0  0  0
    1.6033    0.6706   -2.0014 C   0  0  0  0  0  0  0  0  0  0  0  0
    2.3841    0.1386   -0.8910 C   0  0  1  0  0  3  0  0  0  0  0  0
    3.7407   -0.4255   -0.7626 C   0  0  0  0  0  0  0  0  0  0  0  0
    4.0288   -1.7628   -1.1107 C   0  0  0  0  0  0  0  0  0  0  0  0
    5.3375   -2.2540   -1.0148 C   0  0  0  0  0  0  0  0  0  0  0  0
    6.3720   -1.4191   -0.5621 C   0  0  0  0  0  0  0  0  0  0  0  0
    6.0931   -0.0899   -0.2059 C   0  0  0  0  0  0  0  0  0  0  0  0
    4.7865    0.4080   -0.3042 C   0  0  0  0  0  0  0  0  0  0  0  0
    1.5352    0.9647    0.0207 C   0  0  1  0  0  3  0  0  0  0  0  0
    1.8399    1.4929    1.3497 C   0  0  0  0  0  0  0  0  0  0  0  0
    1.4670    2.8070    1.7145 C   0  0  0  0  0  0  0  0  0  0  0  0
    1.8099    3.3211    2.9719 C   0  0  0  0  0  0  0  0  0  0  0  0
    2.5362    2.5389    3.8826 C   0  0  0  0  0  0  0  0  0  0  0  0
    2.9355    1.2398    3.5212 C   0  0  0  0  0  0  0  0  0  0  0  0
    2.5969    0.7217    2.2673 C   0  0  0  0  0  0  0  0  0  0  0  0
    0.6857    1.3815   -1.1146 C   0  0  0  0  0  0  0  0  0  0  0  0
   -0.3535    2.3682   -1.3973 C   0  0  0  0  0  0  0  0  0  0  0  0
   -0.5625    2.7894   -2.7347 C   0  0  0  0  0  0  0  0  0  0  0  0
   -1.5736    3.7084   -3.0392 C   0  0  0  0  0  0  0  0  0  0  0  0
   -2.3967    4.2206   -2.0229 C   0  0  0  0  0  0  0  0  0  0  0  0
   -2.1918    3.8155   -0.6938 C   0  0  0  0  0  0  0  0  0  0  0  0
   -1.1791    2.9023   -0.3813 C   0  0  0  0  0  0  0  0  0  0  0  0
    2.7043   -0.1431   -3.9296 C   0  0  0  0  0  0  0  0  0  0  0  0
    3.2136   -2.4217   -1.4459 H   0  0  0  0  0  0  0  0  0  0  0  0
    5.5496   -3.2991   -1.2851 H   0  0  0  0  0  0  0  0  0  0  0  0
    7.3980   -1.8076   -0.4813 H   0  0  0  0  0  0  0  0  0  0  0  0
    6.9001    0.5668    0.1518 H   0  0  0  0  0  0  0  0  0  0  0  0
    4.5694    1.4500   -0.0263 H   0  0  0  0  0  0  0  0  0  0  0  0
    0.9264    3.4399    0.9988 H   0  0  0  0  0  0  0  0  0  0  0  0
    1.5129    4.3464    3.2378 H   0  0  0  0  0  0  0  0  0  0  0  0
    2.8035    2.9441    4.8700 H   0  0  0  0  0  0  0  0  0  0  0  0
    3.5195    0.6262    4.2233 H   0  0  0  0  0  0  0  0  0  0  0  0
    2.9176   -0.2941    1.9977 H   0  0  0  0  0  0  0  0  0  0  0  0
    0.0715    2.3868   -3.5366 H   0  0  0  0  0  0  0  0  0  0  0  0
   -1.7203    4.0290   -4.0814 H   0  0  0  0  0  0  0  0  0  0  0  0
   -3.1941    4.9383   -2.2662 H   0  0  0  0  0  0  0  0  0  0  0  0
   -2.8300    4.2118    0.1103 H   0  0  0  0  0  0  0  0  0  0  0  0
   -1.0419    2.5822    0.6580 H   0  0  0  0  0  0  0  0  0  0  0  0
    2.6428    0.0607   -5.0121 H   0  0  0  0  0  0  0  0  0  0  0  0
    2.5013   -1.2150   -3.7334 H   0  0  0  0  0  0  0  0  0  0  0  0
    3.7055    0.1253   -3.5419 H   0  0  0  0  0  0  0  0  0  0  0  0
  1  2  1  0  0  0  0
  2 17  2  0  0  0  0
  2  3  1  0  0  0  0
  3  4  1  6  0  0  0
  3 10  1  0  0  0  0
  4  9  1  0  0  0  0
  5  6  1  0  0  0  0
  5  4  2  0  0  0  0
  6  7  2  0  0  0  0
  7 27  1  0  0  0  0
  7  8  1  0  0  0  0
  8 28  1  0  0  0  0
  9  8  2  0  0  0  0
  9 29  1  0  0  0  0
 10 11  1  6  0  0  0
 11 12  2  0  0  0  0
 11 16  1  0  0  0  0
 12 13  1  0  0  0  0
 13 31  1  0  0  0  0
 13 14  2  0  0  0  0
 14 32  1  0  0  0  0
 15 14  1  0  0  0  0
 15 33  1  0  0  0  0
 16 15  2  0  0  0  0
 17 10  1  0  0  0  0
 18 17  1  0  0  0  0
 18 23  1  0  0  0  0
 19 18  2  0  0  0  0
 20 19  1  0  0  0  0
 20 21  2  0  0  0  0
 21 22  1  0  0  0  0
 22 23  2  0  0  0  0
 22 38  1  0  0  0  0
 23 39  1  0  0  0  0
 24 41  1  0  0  0  0
 24 42  1  0  0  0  0
 24  1  1  0  0  0  0
 25  5  1  0  0  0  0
 26  6  1  0  0  0  0
 30 12  1  0  0  0  0
 34 16  1  0  0  0  0
 35 19  1  0  0  0  0
 36 20  1  0  0  0  0
 37 21  1  0  0  0  0
 40 24  1  0  0  0  0
M  END
