1
 OpenBabel05122313113D

 25 25  0  0  1  0  0  0  0  0999 V2000
   -0.5485    0.1214    0.8571 C   0  0  0  0  0  3  0  0  0  0  0  0
    0.6289   -0.1375   -0.0873 C   0  0  2  0  0  0  0  0  0  0  0  0
    0.8645   -1.5979   -0.3741 C   0  0  0  0  0  0  0  0  0  0  0  0
    2.0691   -2.1672   -0.5626 C   0  0  0  0  0  0  0  0  0  0  0  0
    3.3979   -1.4617   -0.5398 C   0  0  1  0  0  0  0  0  0  0  0  0
    3.1854    0.1038   -0.4747 C   0  0  0  0  0  0  0  0  0  0  0  0
    1.9604    0.4946    0.4839 C   0  0  0  0  0  0  0  0  0  0  0  0
    4.3448   -2.0333    0.5290 C   0  0  0  0  0  0  0  0  0  0  0  0
    2.8533    0.5870   -1.8304 C   0  0  0  0  0  0  0  0  0  0  0  0
    4.4095    0.7889   -0.0241 C   0  0  0  0  0  0  0  0  0  0  0  0
    2.2046    0.0131    1.8553 C   0  0  0  0  0  0  0  0  0  0  0  0
    1.8180    1.9622    0.5200 C   0  0  0  0  0  0  0  0  0  0  0  0
    2.5729    0.9321   -2.9130 N   0  0  0  0  0  0  0  0  0  0  0  0
    5.3867    1.3139    0.3485 N   0  0  0  0  0  0  0  0  0  0  0  0
    2.3545   -0.3706    2.9506 N   0  0  0  0  0  0  0  0  0  0  0  0
    1.6630    3.1222    0.5193 N   0  0  0  0  0  0  0  0  0  0  0  0
   -0.4917   -0.5697    1.7200 H   0  0  0  0  0  0  0  0  0  0  0  0
   -0.4734    1.1478    1.2641 H   0  0  0  0  0  0  0  0  0  0  0  0
    0.4709    0.4068   -1.0456 H   0  0  0  0  0  0  0  0  0  0  0  0
   -0.0291   -2.2388   -0.4126 H   0  0  0  0  0  0  0  0  0  0  0  0
    2.1233   -3.2531   -0.7436 H   0  0  0  0  0  0  0  0  0  0  0  0
    3.8830   -1.6333   -1.5265 H   0  0  0  0  0  0  0  0  0  0  0  0
    4.4657   -3.1198    0.3502 H   0  0  0  0  0  0  0  0  0  0  0  0
    3.9495   -1.9005    1.5523 H   0  0  0  0  0  0  0  0  0  0  0  0
    5.3465   -1.5664    0.4716 H   0  0  0  0  0  0  0  0  0  0  0  0
  1 18  1  0  0  0  0
  1 17  1  0  0  0  0
  2 19  1  6  0  0  0
  2  7  1  0  0  0  0
  2  1  1  0  0  0  0
  3  2  1  0  0  0  0
  4  5  1  0  0  0  0
  4  3  2  0  0  0  0
  5 22  1  6  0  0  0
  5  6  1  0  0  0  0
  5  8  1  0  0  0  0
  6 10  1  0  0  0  0
  6  7  1  0  0  0  0
  7 12  1  0  0  0  0
  7 11  1  0  0  0  0
  8 24  1  0  0  0  0
  9  6  1  0  0  0  0
 10 14  3  0  0  0  0
 11 15  3  0  0  0  0
 13  9  3  0  0  0  0
 16 12  3  0  0  0  0
 20  3  1  0  0  0  0
 21  4  1  0  0  0  0
 23  8  1  0  0  0  0
 25  8  1  0  0  0  0
M  END
