6
 OpenBabel05122313113D

 12 11  0  0  0  0  0  0  0  0999 V2000
   -2.5477    1.4087    0.2863 O   0  0  0  0  0  0  0  0  0  0  0  0
   -1.3697    2.9692   -0.7973 O   0  0  0  0  0  0  0  0  0  0  0  0
   -2.5931   -1.2070    0.2562 O   0  0  0  0  0  0  0  0  0  0  0  0
   -1.5312   -2.8556   -0.8397 O   0  0  0  0  0  0  0  0  0  0  0  0
   -0.6808    0.7497   -1.1863 C   0  0  0  0  0  3  0  0  0  0  0  0
   -0.7184   -0.6890   -1.2004 C   0  0  0  0  0  3  0  0  0  0  0  0
   -1.6977   -1.5584   -0.5206 C   0  0  0  0  0  0  0  0  0  0  0  0
   -1.5755    1.7941   -0.5500 C   0  0  0  0  0  0  0  0  0  0  0  0
   -0.1889    1.2128   -2.0557 H   0  0  0  0  0  0  0  0  0  0  0  0
   -0.2697   -1.1912   -2.0718 H   0  0  0  0  0  0  0  0  0  0  0  0
   -2.6386    0.4059    0.3156 H   0  0  0  0  0  0  0  0  0  0  0  0
   -2.2203   -3.3478   -0.3417 H   0  0  0  0  0  0  0  0  0  0  0  0
  1 11  1  0  0  0  0
  2  8  2  0  0  0  0
  4  7  1  0  0  0  0
  4 12  1  0  0  0  0
  5  8  1  0  0  0  0
  6  5  1  0  0  0  0
  6  7  1  0  0  0  0
  7  3  2  0  0  0  0
  8  1  1  0  0  0  0
  9  5  1  0  0  0  0
 10  6  1  0  0  0  0
M  END
