8
 OpenBabel05122313113D

 26 26  0  0  0  0  0  0  0  0999 V2000
    0.3789   -0.8444   -0.2761 S   0  0  0  0  0  0  0  0  0  0  0  0
    1.0892    1.7646   -0.3566 N   0  0  0  0  0  0  0  0  0  0  0  0
    1.6166    2.5149    0.0940 H   0  0  0  0  0  0  0  0  0  0  0  0
    2.7226    0.2828    0.3799 N   0  0  0  0  0  0  0  0  0  0  0  0
   -1.4182    1.6765    1.1538 C   0  0  0  0  0  3  0  0  0  0  0  0
   -0.4804    1.5525    1.7195 H   0  0  0  0  0  0  0  0  0  0  0  0
   -2.3370    1.8519    1.7323 H   0  0  0  0  0  0  0  0  0  0  0  0
   -1.4043    1.9552   -0.2224 C   0  0  0  0  0  3  0  0  0  0  0  0
   -2.3243    2.3428   -0.6931 H   0  0  0  0  0  0  0  0  0  0  0  0
   -0.1400    2.1451   -1.0356 C   0  0  0  0  0  0  0  0  0  0  0  0
   -0.2204    1.5836   -1.9905 H   0  0  0  0  0  0  0  0  0  0  0  0
   -0.0366    3.2181   -1.3064 H   0  0  0  0  0  0  0  0  0  0  0  0
    1.4469    0.4865   -0.0575 C   0  0  0  0  0  0  0  0  0  0  0  0
    3.1527   -0.9619    1.0263 C   0  0  0  0  0  0  0  0  0  0  0  0
    2.2800   -1.6355    1.1175 H   0  0  0  0  0  0  0  0  0  0  0  0
    3.5254   -0.7089    2.0442 H   0  0  0  0  0  0  0  0  0  0  0  0
    4.2803   -1.6073    0.2246 C   0  0  0  0  0  0  0  0  0  0  0  0
    4.6737   -2.4942    0.7585 H   0  0  0  0  0  0  0  0  0  0  0  0
    3.8880   -1.9356   -0.7687 H   0  0  0  0  0  0  0  0  0  0  0  0
    4.9546    0.4597   -0.6211 C   0  0  0  0  0  0  0  0  0  0  0  0
    4.5896    0.2089   -1.6486 H   0  0  0  0  0  0  0  0  0  0  0  0
    5.8416    1.1176   -0.7165 H   0  0  0  0  0  0  0  0  0  0  0  0
    3.8342    1.2037    0.1266 C   0  0  0  0  0  0  0  0  0  0  0  0
    4.2220    1.5954    1.0936 H   0  0  0  0  0  0  0  0  0  0  0  0
    3.4923    2.0557   -0.4902 H   0  0  0  0  0  0  0  0  0  0  0  0
    5.3655   -0.7034    0.0622 O   0  0  0  0  0  0  0  0  0  0  0  0
  1 13  2  0  0  0  0
  2 13  1  0  0  0  0
  2  3  1  0  0  0  0
  4 14  1  0  0  0  0
  5  6  1  0  0  0  0
  5  7  1  0  0  0  0
  8  5  1  0  0  0  0
  9  8  1  0  0  0  0
 10  2  1  0  0  0  0
 10  8  1  0  0  0  0
 11 10  1  0  0  0  0
 12 10  1  0  0  0  0
 13  4  1  0  0  0  0
 14 15  1  0  0  0  0
 14 16  1  0  0  0  0
 17 18  1  0  0  0  0
 17 14  1  0  0  0  0
 19 17  1  0  0  0  0
 20 26  1  0  0  0  0
 20 23  1  0  0  0  0
 21 20  1  0  0  0  0
 22 20  1  0  0  0  0
 23  4  1  0  0  0  0
 23 24  1  0  0  0  0
 25 23  1  0  0  0  0
 26 17  1  0  0  0  0
M  END
