5
 OpenBabel05122313113D

 27 26  0  0  0  0  0  0  0  0999 V2000
    0.5561    1.2321    0.1213 S   0  0  0  0  0  0  0  0  0  0  0  0
   -0.6695   -1.6896   -1.0159 C   0  0  0  0  0  3  0  0  0  0  0  0
    0.2392   -1.4567   -1.5957 H   0  0  0  0  0  0  0  0  0  0  0  0
   -1.4975   -2.1562   -1.5716 H   0  0  0  0  0  0  0  0  0  0  0  0
   -0.6121   -1.8430    0.3954 C   0  0  0  0  0  3  0  0  0  0  0  0
   -1.4098   -2.4222    0.8932 H   0  0  0  0  0  0  0  0  0  0  0  0
    0.6679   -1.7355    1.2016 C   0  0  0  0  0  0  0  0  0  0  0  0
    0.4737   -1.1490    2.1256 H   0  0  0  0  0  0  0  0  0  0  0  0
    0.9883   -2.7487    1.5241 H   0  0  0  0  0  0  0  0  0  0  0  0
    1.8704    0.1259    0.0571 C   0  0  0  0  0  0  0  0  0  0  0  0
    4.4385    0.1514   -0.1444 C   0  0  0  0  0  0  0  0  0  0  0  0
    4.6608    0.0387    1.3748 C   0  0  0  0  0  0  0  0  0  0  0  0
    5.7085   -0.2537    1.5848 H   0  0  0  0  0  0  0  0  0  0  0  0
    3.9979   -0.7196    1.8340 H   0  0  0  0  0  0  0  0  0  0  0  0
    4.4629    1.0094    1.8702 H   0  0  0  0  0  0  0  0  0  0  0  0
    4.7610   -1.1795   -0.8551 C   0  0  0  0  0  0  0  0  0  0  0  0
    5.8467   -1.3892   -0.7877 H   0  0  0  0  0  0  0  0  0  0  0  0
    4.4795   -1.1348   -1.9252 H   0  0  0  0  0  0  0  0  0  0  0  0
    4.2540   -2.0543   -0.3964 H   0  0  0  0  0  0  0  0  0  0  0  0
    5.3434    1.2518   -0.7231 C   0  0  0  0  0  0  0  0  0  0  0  0
    6.4072    1.0075   -0.5416 H   0  0  0  0  0  0  0  0  0  0  0  0
    5.1325    2.2295   -0.2439 H   0  0  0  0  0  0  0  0  0  0  0  0
    5.1965    1.3534   -1.8176 H   0  0  0  0  0  0  0  0  0  0  0  0
    3.0470    0.5924   -0.4397 N   0  0  0  0  0  0  0  0  0  0  0  0
    2.9543    1.5302   -0.8382 H   0  0  0  0  0  0  0  0  0  0  0  0
    1.7968   -1.1540    0.4872 N   0  0  0  0  0  0  0  0  0  0  0  0
    2.5428   -1.7852    0.1918 H   0  0  0  0  0  0  0  0  0  0  0  0
  2  5  1  0  0  0  0
  3  2  1  0  0  0  0
  4  2  1  0  0  0  0
  5  6  1  0  0  0  0
  5  7  1  0  0  0  0
  7  9  1  0  0  0  0
  7  8  1  0  0  0  0
 10  1  2  0  0  0  0
 10 26  1  0  0  0  0
 11 12  1  0  0  0  0
 12 13  1  0  0  0  0
 12 14  1  0  0  0  0
 12 15  1  0  0  0  0
 16 17  1  0  0  0  0
 16 19  1  0  0  0  0
 16 11  1  0  0  0  0
 18 16  1  0  0  0  0
 20 21  1  0  0  0  0
 20 22  1  0  0  0  0
 20 11  1  0  0  0  0
 23 20  1  0  0  0  0
 24 11  1  0  0  0  0
 24 10  1  0  0  0  0
 25 24  1  0  0  0  0
 26  7  1  0  0  0  0
 27 26  1  0  0  0  0
M  END
