1
 OpenBabel05122313113D

 10 10  0  0  0  0  0  0  0  0999 V2000
   -0.2050    1.7372   -0.0833 C   0  0  0  0  0  3  0  0  0  0  0  0
    0.0449    2.5990   -1.0927 C   0  0  0  0  0  0  0  0  0  0  0  0
   -0.2697    3.9379   -1.0290 O   0  0  0  0  0  0  0  0  0  0  0  0
   -1.4126    4.2149   -0.2333 C   0  0  0  0  0  0  0  0  0  0  0  0
   -1.4596    3.4601    1.0837 C   0  0  0  0  0  0  0  0  0  0  0  0
   -0.8128    2.2588    1.0911 O   0  0  0  0  0  0  0  0  0  0  0  0
   -2.0617    3.8313    2.0676 O   0  0  0  0  0  0  0  0  0  0  0  0
    0.5584    2.2985   -2.0139 H   0  0  0  0  0  0  0  0  0  0  0  0
   -1.4242    5.2986   -0.0130 H   0  0  0  0  0  0  0  0  0  0  0  0
   -2.3532    3.9625   -0.7802 H   0  0  0  0  0  0  0  0  0  0  0  0
  1  6  1  0  0  0  0
  2  3  1  0  0  0  0
  2  1  2  0  0  0  0
  3  4  1  0  0  0  0
  4  9  1  0  0  0  0
  4  5  1  0  0  0  0
  5  6  1  0  0  0  0
  5  7  2  0  0  0  0
  8  2  1  0  0  0  0
 10  4  1  0  0  0  0
M  END
