3
 OpenBabel05122313113D

 23 24  0  0  0  0  0  0  0  0999 V2000
   -0.3506    2.0041   -0.0001 N   0  0  0  0  0  0  0  0  0  0  0  0
   -0.9633    0.8987    0.0000 N   0  0  0  0  0  0  0  0  0  0  0  0
    1.8444    0.7469    0.0001 C   0  0  0  0  0  3  0  0  0  0  0  0
    3.2428    0.8594    0.0002 C   0  0  0  0  0  0  0  0  0  0  0  0
    3.8690    2.1226    0.0000 C   0  0  0  0  0  0  0  0  0  0  0  0
    3.0969    3.2942   -0.0002 C   0  0  0  0  0  0  0  0  0  0  0  0
    1.7011    3.1992   -0.0002 C   0  0  0  0  0  0  0  0  0  0  0  0
    1.0651    1.9371   -0.0000 C   0  0  0  0  0  0  0  0  0  0  0  0
   -2.3716    0.9414    0.0000 C   0  0  0  0  0  0  0  0  0  0  0  0
   -3.1200    2.1428    0.0002 C   0  0  0  0  0  0  0  0  0  0  0  0
   -4.5147    2.0824    0.0002 C   0  0  0  0  0  0  0  0  0  0  0  0
   -5.1729    0.8359    0.0000 C   0  0  0  0  0  0  0  0  0  0  0  0
   -4.4294   -0.3554   -0.0001 C   0  0  0  0  0  0  0  0  0  0  0  0
   -3.0292   -0.3095   -0.0001 C   0  0  0  0  0  0  0  0  0  0  0  0
    3.8728   -0.0431    0.0004 H   0  0  0  0  0  0  0  0  0  0  0  0
    4.9682    2.1843    0.0001 H   0  0  0  0  0  0  0  0  0  0  0  0
    3.5837    4.2808   -0.0003 H   0  0  0  0  0  0  0  0  0  0  0  0
    1.0559    4.0904   -0.0003 H   0  0  0  0  0  0  0  0  0  0  0  0
   -2.5754    3.0973    0.0003 H   0  0  0  0  0  0  0  0  0  0  0  0
   -5.1036    3.0125    0.0003 H   0  0  0  0  0  0  0  0  0  0  0  0
   -6.2729    0.7976    0.0000 H   0  0  0  0  0  0  0  0  0  0  0  0
   -4.9435   -1.3281   -0.0002 H   0  0  0  0  0  0  0  0  0  0  0  0
   -2.4262   -1.2316   -0.0001 H   0  0  0  0  0  0  0  0  0  0  0  0
  1  8  1  0  0  0  0
  1  2  2  0  0  0  0
  3  4  1  0  0  0  0
  4 15  1  0  0  0  0
  5 16  1  0  0  0  0
  5  4  2  0  0  0  0
  6  5  1  0  0  0  0
  7  6  2  0  0  0  0
  7  8  1  0  0  0  0
  8  3  2  0  0  0  0
  9  2  1  0  0  0  0
  9 10  1  0  0  0  0
 10 11  2  0  0  0  0
 10 19  1  0  0  0  0
 11 20  1  0  0  0  0
 12 21  1  0  0  0  0
 12 11  1  0  0  0  0
 13 14  1  0  0  0  0
 13 12  2  0  0  0  0
 14  9  2  0  0  0  0
 17  6  1  0  0  0  0
 18  7  1  0  0  0  0
 22 13  1  0  0  0  0
 23 14  1  0  0  0  0
M  END
