14
 OpenBabel05122313113D

 30 31  0  0  0  0  0  0  0  0999 V2000
    1.2428   -1.8354   -0.1001 N   0  0  0  0  0  0  0  0  0  0  0  0
   -0.5838   -1.1155   -1.0012 N   0  0  0  0  0  0  0  0  0  0  0  0
   -4.8488    0.3021    1.3729 N   0  0  0  0  0  0  0  0  0  0  0  0
    2.5568   -1.8377    0.5768 C   0  0  0  0  0  0  0  0  0  0  0  0
    3.0035   -0.8617    0.2919 H   0  0  0  0  0  0  0  0  0  0  0  0
    2.3656   -1.8612    2.0950 C   0  0  0  0  0  0  0  0  0  0  0  0
    3.3466   -1.7895    2.6042 H   0  0  0  0  0  0  0  0  0  0  0  0
    1.8732   -2.7994    2.4239 H   0  0  0  0  0  0  0  0  0  0  0  0
    1.7447   -1.0027    2.4188 H   0  0  0  0  0  0  0  0  0  0  0  0
    3.4469   -2.9649    0.0569 C   0  0  0  0  0  0  0  0  0  0  0  0
    3.5311   -2.9353   -1.0471 H   0  0  0  0  0  0  0  0  0  0  0  0
    3.0704   -3.9647    0.3567 H   0  0  0  0  0  0  0  0  0  0  0  0
    4.4632   -2.8580    0.4828 H   0  0  0  0  0  0  0  0  0  0  0  0
    0.6180   -0.6899   -0.5040 C   0  0  0  0  0  2  0  0  0  0  0  0
    0.4443   -2.9492   -0.3221 C   0  0  0  0  0  0  0  0  0  0  0  0
    0.7592   -3.9664   -0.0740 H   0  0  0  0  0  0  0  0  0  0  0  0
   -0.7161   -2.4926   -0.8929 C   0  0  0  0  0  0  0  0  0  0  0  0
   -1.6097   -3.0275   -1.2282 H   0  0  0  0  0  0  0  0  0  0  0  0
   -1.6274   -0.2182   -1.4938 C   0  0  0  0  0  0  0  0  0  0  0  0
   -2.0142   -0.6122   -2.4543 H   0  0  0  0  0  0  0  0  0  0  0  0
   -1.1293    0.7526   -1.6953 H   0  0  0  0  0  0  0  0  0  0  0  0
   -2.5022    0.4698    0.7913 C   0  0  0  0  0  0  0  0  0  0  0  0
   -1.4806    0.7501    1.0956 H   0  0  0  0  0  0  0  0  0  0  0  0
   -3.5786    0.6185    1.6783 C   0  0  0  0  0  0  0  0  0  0  0  0
   -3.4032    1.0199    2.6923 H   0  0  0  0  0  0  0  0  0  0  0  0
   -5.0833   -0.1771    0.1431 C   0  0  0  0  0  0  0  0  0  0  0  0
   -6.1321   -0.4310   -0.0953 H   0  0  0  0  0  0  0  0  0  0  0  0
   -4.0798   -0.3667   -0.8228 C   0  0  0  0  0  0  0  0  0  0  0  0
   -4.3343   -0.7638   -1.8185 H   0  0  0  0  0  0  0  0  0  0  0  0
   -2.7539   -0.0383   -0.4969 C   0  0  0  0  0  0  0  0  0  0  0  0
  1  4  1  0  0  0  0
  2 17  1  0  0  0  0
  2 14  1  0  0  0  0
  3 24  1  0  0  0  0
  4  6  1  0  0  0  0
  5  4  1  0  0  0  0
  6  9  1  0  0  0  0
  6  8  1  0  0  0  0
  6  7  1  0  0  0  0
 10 12  1  0  0  0  0
 10 13  1  0  0  0  0
 10  4  1  0  0  0  0
 11 10  1  0  0  0  0
 14  1  1  0  0  0  0
 15  1  1  0  0  0  0
 15 16  1  0  0  0  0
 17 15  2  0  0  0  0
 18 17  1  0  0  0  0
 19  2  1  0  0  0  0
 19 30  1  0  0  0  0
 20 19  1  0  0  0  0
 21 19  1  0  0  0  0
 22 23  1  0  0  0  0
 22 24  2  0  0  0  0
 24 25  1  0  0  0  0
 26  3  2  0  0  0  0
 27 26  1  0  0  0  0
 28 30  2  0  0  0  0
 28 26  1  0  0  0  0
 29 28  1  0  0  0  0
 30 22  1  0  0  0  0
M  END
