24
 OpenBabel05122313113D

 40 42  0  0  0  0  0  0  0  0999 V2000
   -0.4928   -1.9992    1.1062 N   0  0  0  0  0  0  0  0  0  0  0  0
   -2.3170   -0.9799    0.5196 N   0  0  0  0  0  0  0  0  0  0  0  0
   -6.9694   -2.0823   -1.1549 N   0  0  0  0  0  0  0  0  0  0  0  0
    1.2415   -3.3896    0.0693 C   0  0  0  0  0  0  0  0  0  0  0  0
    2.5719   -3.8493    0.0677 C   0  0  0  0  0  0  0  0  0  0  0  0
    2.8880   -4.5304   -0.7382 H   0  0  0  0  0  0  0  0  0  0  0  0
    3.4946   -3.4858    1.0650 C   0  0  0  0  0  0  0  0  0  0  0  0
    3.0517   -2.6473    2.1051 C   0  0  0  0  0  0  0  0  0  0  0  0
    3.7491   -2.3710    2.9124 H   0  0  0  0  0  0  0  0  0  0  0  0
    1.7417   -2.1341    2.1428 C   0  0  0  0  0  0  0  0  0  0  0  0
    0.8595   -2.4980    1.1010 C   0  0  0  0  0  0  0  0  0  0  0  0
    0.2606   -3.8522   -0.9696 C   0  0  0  0  0  0  0  0  0  0  0  0
   -0.0530   -3.0278   -1.6501 H   0  0  0  0  0  0  0  0  0  0  0  0
   -0.6719   -4.2278   -0.4993 H   0  0  0  0  0  0  0  0  0  0  0  0
    0.6916   -4.6649   -1.5832 H   0  0  0  0  0  0  0  0  0  0  0  0
    4.9259   -3.9549    1.0053 C   0  0  0  0  0  0  0  0  0  0  0  0
    5.5391   -3.2628    0.3876 H   0  0  0  0  0  0  0  0  0  0  0  0
    5.0099   -4.9577    0.5424 H   0  0  0  0  0  0  0  0  0  0  0  0
    5.3880   -3.9949    2.0112 H   0  0  0  0  0  0  0  0  0  0  0  0
    1.3260   -1.1991    3.2470 C   0  0  0  0  0  0  0  0  0  0  0  0
    1.1685   -0.1728    2.8600 H   0  0  0  0  0  0  0  0  0  0  0  0
    2.1039   -1.1465    4.0315 H   0  0  0  0  0  0  0  0  0  0  0  0
    0.3758   -1.5080    3.7263 H   0  0  0  0  0  0  0  0  0  0  0  0
   -0.9792   -1.0365    0.2557 C   0  0  0  0  0  2  0  0  0  0  0  0
   -1.5233   -2.5374    1.8793 C   0  0  0  0  0  0  0  0  0  0  0  0
   -1.3456   -3.3442    2.5957 H   0  0  0  0  0  0  0  0  0  0  0  0
   -2.6712   -1.8881    1.5101 C   0  0  0  0  0  0  0  0  0  0  0  0
   -3.7058   -2.0079    1.8435 H   0  0  0  0  0  0  0  0  0  0  0  0
   -3.2503   -0.0815   -0.1730 C   0  0  0  0  0  0  0  0  0  0  0  0
   -2.7250    0.2364   -1.0970 H   0  0  0  0  0  0  0  0  0  0  0  0
   -3.4289    0.8077    0.4620 H   0  0  0  0  0  0  0  0  0  0  0  0
   -5.8018   -2.4520   -1.7121 C   0  0  0  0  0  0  0  0  0  0  0  0
   -5.8484   -3.2876   -2.4333 H   0  0  0  0  0  0  0  0  0  0  0  0
   -4.5711   -1.8402   -1.4327 C   0  0  0  0  0  0  0  0  0  0  0  0
   -3.6370   -2.1559   -1.9272 H   0  0  0  0  0  0  0  0  0  0  0  0
   -4.5462   -0.7726   -0.5146 C   0  0  0  0  0  0  0  0  0  0  0  0
   -5.7628   -0.3764    0.0670 C   0  0  0  0  0  0  0  0  0  0  0  0
   -5.7947    0.4576    0.7869 H   0  0  0  0  0  0  0  0  0  0  0  0
   -6.9387   -1.0603   -0.2874 C   0  0  0  0  0  0  0  0  0  0  0  0
   -7.9056   -0.7641    0.1591 H   0  0  0  0  0  0  0  0  0  0  0  0
  1 25  1  0  0  0  0
  2 27  1  0  0  0  0
  3 39  1  0  0  0  0
  4 11  1  0  0  0  0
  5  4  2  0  0  0  0
  5  7  1  0  0  0  0
  6  5  1  0  0  0  0
  7  8  2  0  0  0  0
  8 10  1  0  0  0  0
  8  9  1  0  0  0  0
 10 20  1  0  0  0  0
 11  1  1  0  0  0  0
 11 10  2  0  0  0  0
 12 14  1  0  0  0  0
 12  4  1  0  0  0  0
 13 12  1  0  0  0  0
 15 12  1  0  0  0  0
 16  7  1  0  0  0  0
 16 19  1  0  0  0  0
 17 16  1  0  0  0  0
 18 16  1  0  0  0  0
 20 23  1  0  0  0  0
 20 22  1  0  0  0  0
 21 20  1  0  0  0  0
 24  2  1  0  0  0  0
 24  1  1  0  0  0  0
 25 26  1  0  0  0  0
 27 28  1  0  0  0  0
 27 25  2  0  0  0  0
 29 31  1  0  0  0  0
 29  2  1  0  0  0  0
 30 29  1  0  0  0  0
 32 34  1  0  0  0  0
 32  3  2  0  0  0  0
 33 32  1  0  0  0  0
 34 36  2  0  0  0  0
 35 34  1  0  0  0  0
 36 29  1  0  0  0  0
 36 37  1  0  0  0  0
 37 38  1  0  0  0  0
 39 37  2  0  0  0  0
 39 40  1  0  0  0  0
M  END
