5
 OpenBabel05122313113D

 41 42  0  0  1  0  0  0  0  0999 V2000
   -2.7154    0.3064    2.8670 C   0  0  0  0  0  0  0  0  0  0  0  0
   -1.3897   -1.8597    2.8138 C   0  0  0  0  0  0  0  0  0  0  0  0
   -0.2523    0.3190    3.3313 C   0  0  0  0  0  0  0  0  0  0  0  0
   -1.3688   -0.3485    2.5036 C   0  0  0  0  0  0  0  0  0  0  0  0
   -1.1170   -0.1889    0.9795 C   0  0  0  0  0  2  0  0  0  0  0  0
   -0.0233    0.3950    0.6820 N   0  0  0  0  0  2  0  0  0  0  0  0
    0.9373    1.1244    0.2818 C   0  0  2  0  0  3  0  0  0  0  0  0
    2.2124    0.6199    0.1276 O   0  0  0  0  0  0  0  0  0  0  0  0
    2.4254   -0.6998   -0.2770 C   0  0  0  0  0  0  0  0  0  0  0  0
    1.5384   -1.4169   -0.6791 O   0  0  0  0  0  0  0  0  0  0  0  0
    3.8601   -1.0645   -0.1609 C   0  0  0  0  0  0  0  0  0  0  0  0
    4.8292   -0.1964    0.3855 C   0  0  0  0  0  0  0  0  0  0  0  0
    6.1650   -0.6097    0.4690 C   0  0  0  0  0  0  0  0  0  0  0  0
    6.5386   -1.8838    0.0094 C   0  0  0  0  0  0  0  0  0  0  0  0
    5.5744   -2.7508   -0.5334 C   0  0  0  0  0  0  0  0  0  0  0  0
    4.2382   -2.3450   -0.6182 C   0  0  0  0  0  0  0  0  0  0  0  0
    0.8124    2.5654    0.0039 C   0  0  0  0  0  0  0  0  0  0  0  0
    1.9143    3.2992   -0.4884 C   0  0  0  0  0  0  0  0  0  0  0  0
    1.7761    4.6636   -0.7725 C   0  0  0  0  0  0  0  0  0  0  0  0
    0.5445    5.3079   -0.5732 C   0  0  0  0  0  0  0  0  0  0  0  0
   -0.5548    4.5803   -0.0857 C   0  0  0  0  0  0  0  0  0  0  0  0
   -0.4241    3.2190    0.2058 C   0  0  0  0  0  0  0  0  0  0  0  0
   -2.7163    1.3878    2.6232 H   0  0  0  0  0  0  0  0  0  0  0  0
   -3.5642   -0.1635    2.3405 H   0  0  0  0  0  0  0  0  0  0  0  0
   -2.8879    0.2031    3.9576 H   0  0  0  0  0  0  0  0  0  0  0  0
   -1.5144   -2.0069    3.9060 H   0  0  0  0  0  0  0  0  0  0  0  0
   -2.2199   -2.3756    2.2995 H   0  0  0  0  0  0  0  0  0  0  0  0
   -0.4410   -2.3430    2.5055 H   0  0  0  0  0  0  0  0  0  0  0  0
   -0.4550    0.1871    4.4125 H   0  0  0  0  0  0  0  0  0  0  0  0
    0.7389   -0.1277    3.1153 H   0  0  0  0  0  0  0  0  0  0  0  0
   -0.1895    1.4074    3.1293 H   0  0  0  0  0  0  0  0  0  0  0  0
    4.5266    0.7959    0.7473 H   0  0  0  0  0  0  0  0  0  0  0  0
    6.9212    0.0656    0.8964 H   0  0  0  0  0  0  0  0  0  0  0  0
    7.5895   -2.2042    0.0760 H   0  0  0  0  0  0  0  0  0  0  0  0
    5.8686   -3.7486   -0.8915 H   0  0  0  0  0  0  0  0  0  0  0  0
    3.4617   -3.0025   -1.0359 H   0  0  0  0  0  0  0  0  0  0  0  0
    2.8717    2.7878   -0.6566 H   0  0  0  0  0  0  0  0  0  0  0  0
    2.6378    5.2281   -1.1590 H   0  0  0  0  0  0  0  0  0  0  0  0
    0.4393    6.3792   -0.8010 H   0  0  0  0  0  0  0  0  0  0  0  0
   -1.5255    5.0752    0.0653 H   0  0  0  0  0  0  0  0  0  0  0  0
   -1.2885    2.6543    0.5808 H   0  0  0  0  0  0  0  0  0  0  0  0
  1 25  1  0  0  0  0
  2 26  1  0  0  0  0
  3 29  1  0  0  0  0
  4  2  1  0  0  0  0
  4  1  1  0  0  0  0
  4  3  1  0  0  0  0
  5  4  1  0  0  0  0
  6  5  1  0  0  0  0
  7  8  1  1  0  0  0
  7  6  1  0  0  0  0
  9 11  1  0  0  0  0
  9  8  1  0  0  0  0
 10  9  2  0  0  0  0
 11 12  1  0  0  0  0
 12 13  2  0  0  0  0
 12 32  1  0  0  0  0
 13 33  1  0  0  0  0
 14 34  1  0  0  0  0
 14 13  1  0  0  0  0
 15 14  2  0  0  0  0
 16 15  1  0  0  0  0
 16 11  2  0  0  0  0
 17 22  1  0  0  0  0
 17  7  1  0  0  0  0
 18 17  2  0  0  0  0
 19 20  2  0  0  0  0
 19 18  1  0  0  0  0
 20 21  1  0  0  0  0
 21 40  1  0  0  0  0
 21 22  2  0  0  0  0
 22 41  1  0  0  0  0
 23  1  1  0  0  0  0
 24  1  1  0  0  0  0
 27  2  1  0  0  0  0
 28  2  1  0  0  0  0
 30  3  1  0  0  0  0
 31  3  1  0  0  0  0
 35 15  1  0  0  0  0
 36 16  1  0  0  0  0
 37 18  1  0  0  0  0
 38 19  1  0  0  0  0
 39 20  1  0  0  0  0
M  END
