3
 OpenBabel05122313113D

 30 29  0  0  0  0  0  0  0  0999 V2000
    2.4512    1.4989   -0.1161 Si  0  0  0  0  0  0  0  0  0  0  0  0
    0.4033   -1.4566   -0.2684 N   0  0  0  0  0  2  0  0  0  0  0  0
    0.9868   -0.4743   -0.8575 C   0  0  0  0  0  2  0  0  0  0  0  0
    2.3148   -0.0633   -1.3015 C   0  0  0  0  0  0  0  0  0  0  0  0
    0.7073    2.1752   -0.1825 C   0  0  0  0  0  3  0  0  0  0  0  0
    3.0276    0.8670    1.5786 C   0  0  0  0  0  0  0  0  0  0  0  0
    3.8201    2.6307   -0.7949 C   0  0  0  0  0  0  0  0  0  0  0  0
    0.8412   -2.8621   -0.0548 C   0  0  0  0  0  0  0  0  0  0  0  0
    2.0871   -2.8876    0.8475 C   0  0  0  0  0  0  0  0  0  0  0  0
   -0.3135   -3.6224    0.6098 C   0  0  0  0  0  0  0  0  0  0  0  0
    1.1574   -3.4780   -1.4297 C   0  0  0  0  0  0  0  0  0  0  0  0
    3.1537   -0.7919   -1.2927 H   0  0  0  0  0  0  0  0  0  0  0  0
    2.2459    0.4251   -2.2973 H   0  0  0  0  0  0  0  0  0  0  0  0
    0.6102    2.5593   -1.2235 H   0  0  0  0  0  0  0  0  0  0  0  0
    0.5391    3.0426    0.4920 H   0  0  0  0  0  0  0  0  0  0  0  0
    4.0550    0.4536    1.5094 H   0  0  0  0  0  0  0  0  0  0  0  0
    2.3649    0.0717    1.9712 H   0  0  0  0  0  0  0  0  0  0  0  0
    3.0491    1.6900    2.3231 H   0  0  0  0  0  0  0  0  0  0  0  0
    3.9375    3.5223   -0.1440 H   0  0  0  0  0  0  0  0  0  0  0  0
    3.5686    2.9921   -1.8133 H   0  0  0  0  0  0  0  0  0  0  0  0
    4.8020    2.1151   -0.8420 H   0  0  0  0  0  0  0  0  0  0  0  0
    2.4113   -3.9331    1.0256 H   0  0  0  0  0  0  0  0  0  0  0  0
    1.8742   -2.4247    1.8313 H   0  0  0  0  0  0  0  0  0  0  0  0
    2.9318   -2.3392    0.3883 H   0  0  0  0  0  0  0  0  0  0  0  0
   -0.5221   -3.2245    1.6216 H   0  0  0  0  0  0  0  0  0  0  0  0
   -0.0684   -4.6988    0.7069 H   0  0  0  0  0  0  0  0  0  0  0  0
   -1.2388   -3.5262    0.0072 H   0  0  0  0  0  0  0  0  0  0  0  0
    1.4689   -4.5365   -1.3208 H   0  0  0  0  0  0  0  0  0  0  0  0
    1.9742   -2.9266   -1.9353 H   0  0  0  0  0  0  0  0  0  0  0  0
    0.2638   -3.4460   -2.0851 H   0  0  0  0  0  0  0  0  0  0  0  0
  1  6  1  0  0  0  0
  2  8  1  0  0  0  0
  3  2  1  0  0  0  0
  4 12  1  0  0  0  0
  4  3  1  0  0  0  0
  4  1  1  0  0  0  0
  5  1  1  0  0  0  0
  5 15  1  0  0  0  0
  6 17  1  0  0  0  0
  6 18  1  0  0  0  0
  7 19  1  0  0  0  0
  7  1  1  0  0  0  0
  8 10  1  0  0  0  0
  8  9  1  0  0  0  0
  9 22  1  0  0  0  0
  9 23  1  0  0  0  0
 10 26  1  0  0  0  0
 10 25  1  0  0  0  0
 11 28  1  0  0  0  0
 11  8  1  0  0  0  0
 13  4  1  0  0  0  0
 14  5  1  0  0  0  0
 16  6  1  0  0  0  0
 20  7  1  0  0  0  0
 21  7  1  0  0  0  0
 24  9  1  0  0  0  0
 27 10  1  0  0  0  0
 29 11  1  0  0  0  0
 30 11  1  0  0  0  0
M  END
