7
q = 0.0, confidence = 1.0

 40 41  0  0  0  0  0  0  0  0999 V2000
    2.4613   -2.8284    0.3853 O   0  0  0  0  0  0  0  0  0  0  0  0
   -1.7822   -1.6890    0.6586 N   0  0  0  0  0  0  0  0  0  0  0  0
   -0.1986   -2.2023   -0.6617 N   0  0  0  0  0  0  0  0  0  0  0  0
   -0.9116   -3.3566   -0.5195 N   0  0  0  0  0  0  0  0  0  0  0  0
    2.9834   -0.8825   -0.7412 N   0  0  0  0  0  0  0  0  0  0  0  0
    2.6039   -0.1993   -1.4010 H   0  0  0  0  0  0  0  0  0  0  0  0
   -0.6859   -1.1511    0.0421 C   0  0  0  0  0  2  0  0  0  0  0  0
   -1.8868   -3.0136    0.2904 C   0  0  0  0  0  0  0  0  0  0  0  0
   -2.6793   -3.6866    0.6364 H   0  0  0  0  0  0  0  0  0  0  0  0
   -2.7292   -0.9379    1.4975 C   0  0  0  0  0  0  0  0  0  0  0  0
   -2.1306   -0.2032    2.0687 H   0  0  0  0  0  0  0  0  0  0  0  0
   -3.1702   -1.6563    2.2154 H   0  0  0  0  0  0  0  0  0  0  0  0
   -3.8051   -0.2495    0.6849 C   0  0  0  0  0  0  0  0  0  0  0  0
   -5.0057   -0.9189    0.3794 C   0  0  0  0  0  0  0  0  0  0  0  0
   -5.1819   -1.9336    0.7721 H   0  0  0  0  0  0  0  0  0  0  0  0
   -5.9827   -0.3003   -0.4145 C   0  0  0  0  0  0  0  0  0  0  0  0
   -6.9193   -0.8306   -0.6438 H   0  0  0  0  0  0  0  0  0  0  0  0
   -5.7663    0.9953   -0.9100 C   0  0  0  0  0  0  0  0  0  0  0  0
   -6.5326    1.4822   -1.5319 H   0  0  0  0  0  0  0  0  0  0  0  0
   -4.5738    1.6710   -0.6057 C   0  0  0  0  0  0  0  0  0  0  0  0
   -4.4003    2.6886   -0.9864 H   0  0  0  0  0  0  0  0  0  0  0  0
   -3.5978    1.0527    0.1893 C   0  0  0  0  0  0  0  0  0  0  0  0
   -2.6614    1.5856    0.4233 H   0  0  0  0  0  0  0  0  0  0  0  0
    1.0318   -2.1812   -1.4408 C   0  0  0  0  0  0  0  0  0  0  0  0
    0.9516   -1.3937   -2.2160 H   0  0  0  0  0  0  0  0  0  0  0  0
    1.1135   -3.1696   -1.9281 H   0  0  0  0  0  0  0  0  0  0  0  0
    2.2455   -1.9984   -0.4943 C   0  0  0  0  0  0  0  0  0  0  0  0
    4.1407   -0.4246    0.0710 C   0  0  0  0  0  0  0  0  0  0  0  0
    3.6804   -0.1453    1.5144 C   0  0  0  0  0  0  0  0  0  0  0  0
    2.9175    0.6594    1.5260 H   0  0  0  0  0  0  0  0  0  0  0  0
    4.5421    0.1849    2.1285 H   0  0  0  0  0  0  0  0  0  0  0  0
    3.2550   -1.0610    1.9674 H   0  0  0  0  0  0  0  0  0  0  0  0
    4.6405    0.8721   -0.5825 C   0  0  0  0  0  0  0  0  0  0  0  0
    4.9659    0.6923   -1.6282 H   0  0  0  0  0  0  0  0  0  0  0  0
    5.5086    1.2656   -0.0191 H   0  0  0  0  0  0  0  0  0  0  0  0
    3.8478    1.6500   -0.5754 H   0  0  0  0  0  0  0  0  0  0  0  0
    5.2383   -1.5025    0.0425 C   0  0  0  0  0  0  0  0  0  0  0  0
    4.8677   -2.4471    0.4826 H   0  0  0  0  0  0  0  0  0  0  0  0
    6.1167   -1.1581    0.6236 H   0  0  0  0  0  0  0  0  0  0  0  0
    5.5660   -1.6992   -0.9984 H   0  0  0  0  0  0  0  0  0  0  0  0
  2 10  1  0  0  0  0
  3  4  1  0  0  0  0
  3  7  1  0  0  0  0
  4  8  2  0  0  0  0
  5 27  1  0  0  0  0
  5 28  1  0  0  0  0
  6  5  1  0  0  0  0
  7  2  1  0  0  0  0
  8  9  1  0  0  0  0
  8  2  1  0  0  0  0
 10 11  1  0  0  0  0
 10 12  1  0  0  0  0
 13 10  1  0  0  0  0
 14 13  1  0  0  0  0
 14 15  1  0  0  0  0
 16 14  2  0  0  0  0
 17 16  1  0  0  0  0
 18 20  2  0  0  0  0
 18 16  1  0  0  0  0
 19 18  1  0  0  0  0
 20 22  1  0  0  0  0
 21 20  1  0  0  0  0
 22 23  1  0  0  0  0
 22 13  2  0  0  0  0
 24  3  1  0  0  0  0
 24 27  1  0  0  0  0
 25 24  1  0  0  0  0
 26 24  1  0  0  0  0
 27  1  2  0  0  0  0
 28 29  1  0  0  0  0
 29 30  1  0  0  0  0
 29 32  1  0  0  0  0
 29 31  1  0  0  0  0
 33 36  1  0  0  0  0
 33 35  1  0  0  0  0
 33 28  1  0  0  0  0
 34 33  1  0  0  0  0
 37 28  1  0  0  0  0
 37 38  1  0  0  0  0
 37 39  1  0  0  0  0
 40 37  1  0  0  0  0
M  END
