3
 OpenBabel05122313113D

 49 51  0  0  1  0  0  0  0  0999 V2000
   -1.1346    0.8812   -0.1701 N   0  0  0  0  0  0  0  0  0  0  0  0
    0.3419    1.6684   -1.7397 N   0  0  1  0  0  0  0  0  0  0  0  0
    0.0895    0.7755   -0.7298 C   0  0  0  0  0  2  0  0  0  0  0  0
   -1.8876    2.1658   -0.1469 C   0  0  0  0  0  0  0  0  0  0  0  0
   -1.8795    2.5276    0.9020 H   0  0  0  0  0  0  0  0  0  0  0  0
   -2.9416    1.9369   -0.3984 H   0  0  0  0  0  0  0  0  0  0  0  0
   -1.3450    3.2278   -1.1169 C   0  0  2  0  0  0  0  0  0  0  0  0
   -2.2048    3.8594   -1.4232 H   0  0  0  0  0  0  0  0  0  0  0  0
   -0.7998    2.4065   -2.2836 C   0  0  0  0  0  0  0  0  0  0  0  0
   -1.5464    1.6829   -2.6690 H   0  0  0  0  0  0  0  0  0  0  0  0
   -0.4456    3.0303   -3.1265 H   0  0  0  0  0  0  0  0  0  0  0  0
    1.5219    2.5279   -1.5629 C   0  0  0  0  0  0  0  0  0  0  0  0
    1.7376    3.0317   -2.5275 H   0  0  0  0  0  0  0  0  0  0  0  0
    2.3889    1.8915   -1.2963 H   0  0  0  0  0  0  0  0  0  0  0  0
    1.1741    3.5259   -0.4413 C   0  0  0  0  0  0  0  0  0  0  0  0
    1.9483    4.3172   -0.3671 H   0  0  0  0  0  0  0  0  0  0  0  0
    1.2084    2.9709    0.5203 H   0  0  0  0  0  0  0  0  0  0  0  0
   -0.2172    4.1731   -0.6252 C   0  0  0  0  0  0  0  0  0  0  0  0
   -0.5248    4.6721    0.3173 H   0  0  0  0  0  0  0  0  0  0  0  0
   -0.1377    4.9817   -1.3847 H   0  0  0  0  0  0  0  0  0  0  0  0
   -1.7323   -0.1809    0.6144 C   0  0  0  0  0  0  0  0  0  0  0  0
   -1.5699   -0.1929    2.0229 C   0  0  0  0  0  0  0  0  0  0  0  0
   -2.2525   -1.1815    2.7566 C   0  0  0  0  0  0  0  0  0  0  0  0
   -2.1363   -1.2137    3.8503 H   0  0  0  0  0  0  0  0  0  0  0  0
   -3.0626   -2.1256    2.1196 C   0  0  0  0  0  0  0  0  0  0  0  0
   -3.5853   -2.8926    2.7110 H   0  0  0  0  0  0  0  0  0  0  0  0
   -3.2005   -2.1008    0.7274 C   0  0  0  0  0  0  0  0  0  0  0  0
   -3.8302   -2.8539    0.2328 H   0  0  0  0  0  0  0  0  0  0  0  0
   -2.5477   -1.1326   -0.0575 C   0  0  0  0  0  0  0  0  0  0  0  0
   -0.6886    0.8034    2.7654 C   0  0  0  0  0  0  0  0  0  0  0  0
   -0.1165    1.3748    2.0063 H   0  0  0  0  0  0  0  0  0  0  0  0
    0.3345    0.0864    3.6631 C   0  0  0  0  0  0  0  0  0  0  0  0
    1.0783    0.8070    4.0568 H   0  0  0  0  0  0  0  0  0  0  0  0
    0.8777   -0.6934    3.0952 H   0  0  0  0  0  0  0  0  0  0  0  0
   -0.1588   -0.3992    4.5298 H   0  0  0  0  0  0  0  0  0  0  0  0
   -1.5254    1.8003    3.5885 C   0  0  0  0  0  0  0  0  0  0  0  0
   -2.2586    2.3509    2.9642 H   0  0  0  0  0  0  0  0  0  0  0  0
   -0.8703    2.5439    4.0868 H   0  0  0  0  0  0  0  0  0  0  0  0
   -2.1007    1.2753    4.3787 H   0  0  0  0  0  0  0  0  0  0  0  0
   -2.7652   -1.1113   -1.5676 C   0  0  0  0  0  0  0  0  0  0  0  0
   -1.8857   -0.6113   -2.0201 H   0  0  0  0  0  0  0  0  0  0  0  0
   -2.8219   -2.5171   -2.1829 C   0  0  0  0  0  0  0  0  0  0  0  0
   -1.9319   -3.1072   -1.8940 H   0  0  0  0  0  0  0  0  0  0  0  0
   -2.8337   -2.4419   -3.2888 H   0  0  0  0  0  0  0  0  0  0  0  0
   -3.7376   -3.0681   -1.8837 H   0  0  0  0  0  0  0  0  0  0  0  0
   -4.0357   -0.3185   -1.9324 C   0  0  0  0  0  0  0  0  0  0  0  0
   -4.9371   -0.8016   -1.5012 H   0  0  0  0  0  0  0  0  0  0  0  0
   -4.1676   -0.2766   -3.0332 H   0  0  0  0  0  0  0  0  0  0  0  0
   -4.0122    0.7237   -1.5556 H   0  0  0  0  0  0  0  0  0  0  0  0
  1  4  1  0  0  0  0
  1 21  1  0  0  0  0
  2 12  1  0  0  0  0
  2  3  1  1  0  0  0
  3  1  1  0  0  0  0
  4  5  1  0  0  0  0
  6  4  1  0  0  0  0
  7  8  1  6  0  0  0
  7 18  1  0  0  0  0
  7  4  1  0  0  0  0
  9  2  1  0  0  0  0
  9  7  1  0  0  0  0
 10  9  1  0  0  0  0
 11  9  1  0  0  0  0
 12 14  1  0  0  0  0
 12 15  1  0  0  0  0
 13 12  1  0  0  0  0
 15 16  1  0  0  0  0
 15 17  1  0  0  0  0
 18 15  1  0  0  0  0
 18 19  1  0  0  0  0
 20 18  1  0  0  0  0
 21 22  1  0  0  0  0
 22 23  2  0  0  0  0
 22 30  1  0  0  0  0
 23 24  1  0  0  0  0
 25 26  1  0  0  0  0
 25 23  1  0  0  0  0
 27 25  2  0  0  0  0
 28 27  1  0  0  0  0
 29 21  2  0  0  0  0
 29 27  1  0  0  0  0
 30 36  1  0  0  0  0
 30 32  1  0  0  0  0
 31 30  1  0  0  0  0
 32 33  1  0  0  0  0
 32 35  1  0  0  0  0
 34 32  1  0  0  0  0
 36 38  1  0  0  0  0
 36 39  1  0  0  0  0
 37 36  1  0  0  0  0
 40 29  1  0  0  0  0
 41 40  1  0  0  0  0
 42 43  1  0  0  0  0
 42 45  1  0  0  0  0
 42 40  1  0  0  0  0
 44 42  1  0  0  0  0
 46 40  1  0  0  0  0
 46 49  1  0  0  0  0
 46 47  1  0  0  0  0
 48 46  1  0  0  0  0
M  END
