3
 OpenBabel05122313113D

 15 16  0  0  0  0  0  0  0  0999 V2000
    0.7972   -1.6127   -1.2069 C   0  0  0  0  0  0  0  0  0  0  0  0
    0.5634   -1.8861   -2.2421 H   0  0  0  0  0  0  0  0  0  0  0  0
    0.2689   -2.2480   -0.0286 C   0  0  0  0  0  3  0  0  0  0  0  0
   -0.4512   -3.0757   -0.0237 H   0  0  0  0  0  0  0  0  0  0  0  0
    0.8410   -1.6307    1.1507 C   0  0  0  0  0  0  0  0  0  0  0  0
    0.6485   -1.9265    2.1879 H   0  0  0  0  0  0  0  0  0  0  0  0
    2.7844    0.3529    1.1673 C   0  0  0  0  0  0  0  0  0  0  0  0
    2.3935    1.1578    1.8258 H   0  0  0  0  0  0  0  0  0  0  0  0
    3.5635   -0.1786    1.7577 H   0  0  0  0  0  0  0  0  0  0  0  0
    3.3444    0.9002   -0.1339 C   0  0  0  0  0  0  0  0  0  0  0  0
    4.1274    1.6706   -0.1641 H   0  0  0  0  0  0  0  0  0  0  0  0
    2.7291    0.3585   -1.2211 C   0  0  0  0  0  0  0  0  0  0  0  0
    2.9378    0.5977   -2.2717 H   0  0  0  0  0  0  0  0  0  0  0  0
    1.7235   -0.6034   -0.7564 C   0  0  0  0  0  0  0  0  0  0  0  0
    1.7276   -0.6073    0.6823 C   0  0  0  0  0  0  0  0  0  0  0  0
  1 14  2  0  0  0  0
  1  3  1  0  0  0  0
  2  1  1  0  0  0  0
  3  4  1  0  0  0  0
  3  5  1  0  0  0  0
  5  6  1  0  0  0  0
  7  9  1  0  0  0  0
  7  8  1  0  0  0  0
 10  7  1  0  0  0  0
 11 10  1  0  0  0  0
 12 14  1  0  0  0  0
 12 10  2  0  0  0  0
 13 12  1  0  0  0  0
 14 15  1  0  0  0  0
 15  5  2  0  0  0  0
 15  7  1  0  0  0  0
M  END
