1
 OpenBabel05122313113D

 11 10  0  0  0  0  0  0  0  0999 V2000
    0.0030    1.4173   -1.4713 C   0  0  0  0  0  3  0  0  0  0  0  0
    0.1267    2.5558   -0.5360 C   0  0  0  0  0  0  0  0  0  0  0  0
    0.1589    2.3130    0.6882 O   0  0  0  0  0  0  0  0  0  0  0  0
    0.1987    3.8082   -1.0101 O   0  0  0  0  0  0  0  0  0  0  0  0
    0.2861    4.8523   -0.0291 C   0  0  0  0  0  0  0  0  0  0  0  0
   -0.0509    1.6169   -2.8182 C   0  0  0  0  0  0  0  0  0  0  0  0
    0.2972    5.8012   -0.5936 H   0  0  0  0  0  0  0  0  0  0  0  0
    1.2118    4.7502    0.5726 H   0  0  0  0  0  0  0  0  0  0  0  0
   -0.5830    4.8170    0.6579 H   0  0  0  0  0  0  0  0  0  0  0  0
   -0.0081    2.6311   -3.2503 H   0  0  0  0  0  0  0  0  0  0  0  0
   -0.1339    0.7705   -3.5186 H   0  0  0  0  0  0  0  0  0  0  0  0
  1  2  1  0  0  0  0
  2  3  2  0  0  0  0
  4  2  1  0  0  0  0
  4  5  1  0  0  0  0
  5  8  1  0  0  0  0
  5  9  1  0  0  0  0
  6  1  2  0  0  0  0
  7  5  1  0  0  0  0
 10  6  1  0  0  0  0
 11  6  1  0  0  0  0
M  END
