10
 OpenBabel05122313113D

 54 57  0  0  1  0  0  0  0  0999 V2000
   -0.1501    3.0870    0.7412 Si  0  0  0  0  0  0  0  0  0  0  0  0
   -3.3228    0.3458   -0.2842 Si  0  0  0  0  0  0  0  0  0  0  0  0
   -1.9064    2.8984    0.0477 C   0  0  0  0  0  0  0  0  0  0  0  0
   -0.2748    3.7806    2.5029 C   0  0  0  0  0  0  0  0  0  0  0  0
    0.7830    4.3057   -0.3582 C   0  0  0  0  0  0  0  0  0  0  0  0
   -2.8622    1.8893    0.7299 C   0  0  0  0  0  0  0  0  0  0  0  0
   -3.8178    0.8968   -2.0232 C   0  0  0  0  0  0  0  0  0  0  0  0
   -4.7926   -0.4908    0.5733 C   0  0  0  0  0  0  0  0  0  0  0  0
    0.7648    1.4369    0.9252 C   0  0  2  0  0  3  0  0  0  0  0  0
    0.2760    0.3546    1.7205 C   0  0  0  0  0  3  0  0  0  0  0  0
    2.4539   -0.1926    1.1990 C   0  0  0  0  0  0  0  0  0  0  0  0
    1.2509   -0.6802    1.8185 C   0  0  0  0  0  3  0  0  0  0  0  0
    3.7607   -0.7414    1.0955 C   0  0  0  0  0  0  0  0  0  0  0  0
    4.7193   -0.0415    0.3814 C   0  0  0  0  0  0  0  0  0  0  0  0
    4.4063    1.1929   -0.2616 C   0  0  0  0  0  0  0  0  0  0  0  0
    2.1418    1.0916    0.5973 C   0  0  0  0  0  0  0  0  0  0  0  0
    3.1438    1.7586   -0.1693 C   0  0  0  0  0  0  0  0  0  0  0  0
   -1.9704   -0.9619   -0.4954 C   0  0  0  0  0  0  0  0  0  0  0  0
   -1.5100   -1.4202   -1.7824 C   0  0  0  0  0  0  0  0  0  0  0  0
   -0.6204   -2.8803   -0.2410 C   0  0  0  0  0  0  0  0  0  0  0  0
   -0.6605   -2.5396   -1.6411 C   0  0  0  0  0  0  0  0  0  0  0  0
    0.0462   -3.9182    0.4747 C   0  0  0  0  0  0  0  0  0  0  0  0
   -0.2026   -4.0583    1.8327 C   0  0  0  0  0  0  0  0  0  0  0  0
   -1.0941   -3.1742    2.5138 C   0  0  0  0  0  0  0  0  0  0  0  0
   -1.7112   -2.1206    1.8545 C   0  0  0  0  0  0  0  0  0  0  0  0
   -1.4751   -1.9362    0.4600 C   0  0  2  0  0  3  0  0  0  0  0  0
   -1.8023    2.6986   -1.0395 H   0  0  0  0  0  0  0  0  0  0  0  0
   -2.3266    3.9270    0.1132 H   0  0  0  0  0  0  0  0  0  0  0  0
   -0.8675    3.1104    3.1591 H   0  0  0  0  0  0  0  0  0  0  0  0
    0.7312    3.8892    2.9572 H   0  0  0  0  0  0  0  0  0  0  0  0
   -0.7639    4.7769    2.5032 H   0  0  0  0  0  0  0  0  0  0  0  0
    1.7699    4.5772    0.0669 H   0  0  0  0  0  0  0  0  0  0  0  0
    0.9313    3.8849   -1.3725 H   0  0  0  0  0  0  0  0  0  0  0  0
    0.1913    5.2395   -0.4552 H   0  0  0  0  0  0  0  0  0  0  0  0
   -2.5181    1.5891    1.7448 H   0  0  0  0  0  0  0  0  0  0  0  0
   -3.8514    2.3662    0.9141 H   0  0  0  0  0  0  0  0  0  0  0  0
   -2.9453    1.2892   -2.5840 H   0  0  0  0  0  0  0  0  0  0  0  0
   -4.2462    0.0527   -2.6008 H   0  0  0  0  0  0  0  0  0  0  0  0
   -4.5812    1.6999   -1.9735 H   0  0  0  0  0  0  0  0  0  0  0  0
   -4.5645   -0.7643    1.6236 H   0  0  0  0  0  0  0  0  0  0  0  0
   -5.6701    0.1883    0.5867 H   0  0  0  0  0  0  0  0  0  0  0  0
   -5.0836   -1.4188    0.0406 H   0  0  0  0  0  0  0  0  0  0  0  0
   -0.7231    0.3079    2.1678 H   0  0  0  0  0  0  0  0  0  0  0  0
    1.1361   -1.6281    2.3586 H   0  0  0  0  0  0  0  0  0  0  0  0
    3.9906   -1.7101    1.5623 H   0  0  0  0  0  0  0  0  0  0  0  0
    5.7375   -0.4488    0.2907 H   0  0  0  0  0  0  0  0  0  0  0  0
    5.1872    1.7050   -0.8435 H   0  0  0  0  0  0  0  0  0  0  0  0
    2.9163    2.7074   -0.6705 H   0  0  0  0  0  0  0  0  0  0  0  0
   -1.7343   -0.9264   -2.7349 H   0  0  0  0  0  0  0  0  0  0  0  0
   -0.1356   -3.0653   -2.4454 H   0  0  0  0  0  0  0  0  0  0  0  0
    0.7204   -4.6050   -0.0573 H   0  0  0  0  0  0  0  0  0  0  0  0
    0.2826   -4.8692    2.3962 H   0  0  0  0  0  0  0  0  0  0  0  0
   -1.2897   -3.3336    3.5851 H   0  0  0  0  0  0  0  0  0  0  0  0
   -2.3938   -1.4471    2.3937 H   0  0  0  0  0  0  0  0  0  0  0  0
  1  4  1  0  0  0  0
  2  8  1  0  0  0  0
  2  6  1  0  0  0  0
  3 28  1  0  0  0  0
  3  6  1  0  0  0  0
  3  1  1  0  0  0  0
  4 31  1  0  0  0  0
  4 30  1  0  0  0  0
  4 29  1  0  0  0  0
  5 32  1  0  0  0  0
  5  1  1  0  0  0  0
  6 36  1  0  0  0  0
  6 35  1  0  0  0  0
  7 39  1  0  0  0  0
  7  2  1  0  0  0  0
  8 41  1  0  0  0  0
  8 40  1  0  0  0  0
  9  1  1  1  0  0  0
  9 10  1  0  0  0  0
 10 12  1  0  0  0  0
 10 43  1  0  0  0  0
 11 12  1  0  0  0  0
 12 44  1  0  0  0  0
 13 11  1  0  0  0  0
 13 45  1  0  0  0  0
 14 13  2  0  0  0  0
 15 17  2  0  0  0  0
 15 14  1  0  0  0  0
 16  9  1  0  0  0  0
 16 11  2  0  0  0  0
 17 16  1  0  0  0  0
 18  2  1  0  0  0  0
 19 21  1  0  0  0  0
 19 18  2  0  0  0  0
 20 26  1  0  0  0  0
 20 22  1  0  0  0  0
 21 20  2  0  0  0  0
 22 23  2  0  0  0  0
 23 52  1  0  0  0  0
 23 24  1  0  0  0  0
 24 53  1  0  0  0  0
 25 54  1  0  0  0  0
 25 24  2  0  0  0  0
 26 18  1  6  0  0  0
 26 25  1  0  0  0  0
 27  3  1  0  0  0  0
 33  5  1  0  0  0  0
 34  5  1  0  0  0  0
 37  7  1  0  0  0  0
 38  7  1  0  0  0  0
 42  8  1  0  0  0  0
 46 14  1  0  0  0  0
 47 15  1  0  0  0  0
 48 17  1  0  0  0  0
 49 19  1  0  0  0  0
 50 21  1  0  0  0  0
 51 22  1  0  0  0  0
M  END
