1
 OpenBabel05122313113D

 37 37  0  0  1  0  0  0  0  0999 V2000
   -2.0381   -1.2575   -0.9162 C   0  0  2  0  0  3  0  0  0  0  0  0
   -2.1452   -2.6747   -1.3712 C   0  0  0  0  0  0  0  0  0  0  0  0
   -2.3847   -3.6289   -0.6518 O   0  0  0  0  0  0  0  0  0  0  0  0
   -1.9325   -2.7997   -2.7149 O   0  0  0  0  0  0  0  0  0  0  0  0
   -2.0306   -4.1345   -3.2168 C   0  0  0  0  0  0  0  0  0  0  0  0
   -2.2321   -0.9277    0.5093 C   0  0  0  0  0  0  0  0  0  0  0  0
   -1.8989   -1.8251    1.6416 C   0  0  0  0  0  0  0  0  0  0  0  0
   -0.8348   -2.4128    1.7908 O   0  0  0  0  0  0  0  0  0  0  0  0
   -2.9142   -1.9040    2.5308 O   0  0  0  0  0  0  0  0  0  0  0  0
   -2.6295   -2.6629    3.7081 C   0  0  0  0  0  0  0  0  0  0  0  0
   -2.6827    0.3892    0.5919 C   0  0  0  0  0  0  0  0  0  0  0  0
   -2.8903    1.1624    1.8355 C   0  0  0  0  0  0  0  0  0  0  0  0
   -3.7723    1.9778    2.0346 O   0  0  0  0  0  0  0  0  0  0  0  0
   -1.9334    0.8547    2.7638 O   0  0  0  0  0  0  0  0  0  0  0  0
   -2.0715    1.5219    4.0170 C   0  0  0  0  0  0  0  0  0  0  0  0
   -2.8583    0.9063   -0.7493 C   0  0  1  0  0  3  0  0  0  0  0  0
   -3.0836    2.3429   -1.0237 C   0  0  0  0  0  0  0  0  0  0  0  0
   -2.5636    3.2606   -0.4024 O   0  0  0  0  0  0  0  0  0  0  0  0
   -3.9149    2.5607   -2.0794 O   0  0  0  0  0  0  0  0  0  0  0  0
   -4.1196    3.9380   -2.4114 C   0  0  0  0  0  0  0  0  0  0  0  0
   -2.5065   -0.0835   -1.6819 C   0  0  2  0  0  3  0  0  0  0  0  0
   -2.5972   -0.0002   -3.1746 C   0  0  0  0  0  0  0  0  0  0  0  0
   -1.2696   -4.7915   -2.7483 H   0  0  0  0  0  0  0  0  0  0  0  0
   -3.0303   -4.5672   -3.0088 H   0  0  0  0  0  0  0  0  0  0  0  0
   -1.8605   -4.0654   -4.3064 H   0  0  0  0  0  0  0  0  0  0  0  0
   -2.3500   -3.7038    3.4491 H   0  0  0  0  0  0  0  0  0  0  0  0
   -1.7904   -2.2075    4.2739 H   0  0  0  0  0  0  0  0  0  0  0  0
   -3.5537   -2.6488    4.3130 H   0  0  0  0  0  0  0  0  0  0  0  0
   -2.0469    2.6225    3.8826 H   0  0  0  0  0  0  0  0  0  0  0  0
   -3.0306    1.2550    4.5071 H   0  0  0  0  0  0  0  0  0  0  0  0
   -1.2159    1.1943    4.6349 H   0  0  0  0  0  0  0  0  0  0  0  0
   -4.5819    4.4814   -1.5628 H   0  0  0  0  0  0  0  0  0  0  0  0
   -3.1596    4.4369   -2.6559 H   0  0  0  0  0  0  0  0  0  0  0  0
   -4.7935    3.9451   -3.2868 H   0  0  0  0  0  0  0  0  0  0  0  0
   -3.4153   -0.6533   -3.5465 H   0  0  0  0  0  0  0  0  0  0  0  0
   -2.8197    1.0314   -3.4991 H   0  0  0  0  0  0  0  0  0  0  0  0
   -1.6723   -0.3589   -3.6637 H   0  0  0  0  0  0  0  0  0  0  0  0
  1  2  1  6  0  0  0
  1  6  1  0  0  0  0
  2  3  2  0  0  0  0
  4  2  1  0  0  0  0
  5 24  1  0  0  0  0
  5 23  1  0  0  0  0
  5  4  1  0  0  0  0
  6 11  2  0  0  0  0
  6  7  1  0  0  0  0
  7  8  2  0  0  0  0
  7  9  1  0  0  0  0
  9 10  1  0  0  0  0
 10 27  1  0  0  0  0
 10 28  1  0  0  0  0
 11 12  1  0  0  0  0
 12 13  2  0  0  0  0
 12 14  1  0  0  0  0
 14 15  1  0  0  0  0
 15 30  1  0  0  0  0
 15 31  1  0  0  0  0
 16 17  1  1  0  0  0
 16 11  1  0  0  0  0
 17 18  2  0  0  0  0
 19 17  1  0  0  0  0
 20 19  1  0  0  0  0
 20 32  1  0  0  0  0
 21 22  1  1  0  0  0
 21  1  1  0  0  0  0
 21 16  1  0  0  0  0
 25  5  1  0  0  0  0
 26 10  1  0  0  0  0
 29 15  1  0  0  0  0
 33 20  1  0  0  0  0
 34 20  1  0  0  0  0
 35 22  1  0  0  0  0
 36 22  1  0  0  0  0
 37 22  1  0  0  0  0
M  END
