1
 OpenBabel05122313113D

 44 44  0  0  1  0  0  0  0  0999 V2000
   -1.0574    0.1734   -0.7406 C   0  0  0  0  0  1  0  0  0  0  0  0
    0.0960    0.3905   -0.9392 N   0  0  0  0  0  2  0  0  0  0  0  0
    1.4726    0.2845   -1.2057 C   0  0  1  0  0  0  0  0  0  0  0  0
    2.2168    1.6370   -1.0883 C   0  0  2  0  0  0  0  0  0  0  0  0
    3.5354    1.4820   -1.4896 O   0  0  0  0  0  0  0  0  0  0  0  0
    4.3115    0.5440   -0.7187 C   0  0  1  0  0  0  0  0  0  0  0  0
    3.6342   -0.8434   -0.6262 C   0  0  2  0  0  0  0  0  0  0  0  0
    2.1580   -0.7242   -0.2653 C   0  0  2  0  0  0  0  0  0  0  0  0
    1.2624    3.0118    0.6636 C   0  0  0  0  0  0  0  0  0  0  0  0
    1.4844    3.4050    2.1017 C   0  0  0  0  0  0  0  0  0  0  0  0
    5.6915    0.4780   -1.3769 C   0  0  0  0  0  0  0  0  0  0  0  0
    7.2572    1.0509    0.3024 C   0  0  0  0  0  0  0  0  0  0  0  0
    8.1952    2.1318    0.7774 C   0  0  0  0  0  0  0  0  0  0  0  0
    5.1859   -2.5244    0.1050 C   0  0  0  0  0  0  0  0  0  0  0  0
    5.8106   -3.0952    1.3462 C   0  0  0  0  0  0  0  0  0  0  0  0
    0.7014   -2.3939    0.6254 C   0  0  0  0  0  0  0  0  0  0  0  0
   -0.0031   -3.6647    0.2717 C   0  0  0  0  0  0  0  0  0  0  0  0
    2.1963    2.0831    0.2840 O   0  0  0  0  0  0  0  0  0  0  0  0
    0.3935    3.4286   -0.0734 O   0  0  0  0  0  0  0  0  0  0  0  0
    6.6012    1.4425   -0.8239 O   0  0  0  0  0  0  0  0  0  0  0  0
    7.0958   -0.0346    0.8303 O   0  0  0  0  0  0  0  0  0  0  0  0
    4.2611   -1.5684    0.4379 O   0  0  0  0  0  0  0  0  0  0  0  0
    5.4661   -2.8096   -1.0424 O   0  0  0  0  0  0  0  0  0  0  0  0
    1.5363   -2.0007   -0.3940 O   0  0  0  0  0  0  0  0  0  0  0  0
    0.5453   -1.7405    1.6427 O   0  0  0  0  0  0  0  0  0  0  0  0
    1.6017   -0.0519   -2.2586 H   0  0  0  0  0  0  0  0  0  0  0  0
    1.7415    2.4059   -1.7284 H   0  0  0  0  0  0  0  0  0  0  0  0
    4.4145    0.9191    0.3223 H   0  0  0  0  0  0  0  0  0  0  0  0
    3.7530   -1.4078   -1.5757 H   0  0  0  0  0  0  0  0  0  0  0  0
    2.0505   -0.3754    0.7810 H   0  0  0  0  0  0  0  0  0  0  0  0
    0.7295    4.1505    2.4043 H   0  0  0  0  0  0  0  0  0  0  0  0
    2.5029    3.8229    2.2267 H   0  0  0  0  0  0  0  0  0  0  0  0
    1.4182    2.5099    2.7515 H   0  0  0  0  0  0  0  0  0  0  0  0
    5.5801    0.7449   -2.4446 H   0  0  0  0  0  0  0  0  0  0  0  0
    6.1201   -0.5375   -1.2931 H   0  0  0  0  0  0  0  0  0  0  0  0
    8.6493    1.8343    1.7378 H   0  0  0  0  0  0  0  0  0  0  0  0
    7.6525    3.0911    0.8857 H   0  0  0  0  0  0  0  0  0  0  0  0
    8.9897    2.2949    0.0218 H   0  0  0  0  0  0  0  0  0  0  0  0
    5.0588   -3.2402    2.1443 H   0  0  0  0  0  0  0  0  0  0  0  0
    6.5504   -2.3504    1.7052 H   0  0  0  0  0  0  0  0  0  0  0  0
    6.3258   -4.0408    1.1052 H   0  0  0  0  0  0  0  0  0  0  0  0
   -0.2963   -4.2010    1.1914 H   0  0  0  0  0  0  0  0  0  0  0  0
    0.6120   -4.3016   -0.3892 H   0  0  0  0  0  0  0  0  0  0  0  0
   -0.9306   -3.3789   -0.2830 H   0  0  0  0  0  0  0  0  0  0  0  0
  2  1  1  0  0  0  0
  3 26  1  6  0  0  0
  3  4  1  0  0  0  0
  3  2  1  0  0  0  0
  3  8  1  0  0  0  0
  4 27  1  6  0  0  0
  4 18  1  0  0  0  0
  5  4  1  0  0  0  0
  5  6  1  0  0  0  0
  6  7  1  0  0  0  0
  6 28  1  1  0  0  0
  7 29  1  6  0  0  0
  7  8  1  0  0  0  0
  7 22  1  0  0  0  0
  8 30  1  1  0  0  0
  9 10  1  0  0  0  0
 10 32  1  0  0  0  0
 10 31  1  0  0  0  0
 10 33  1  0  0  0  0
 11 35  1  0  0  0  0
 11 20  1  0  0  0  0
 11  6  1  0  0  0  0
 12 13  1  0  0  0  0
 12 21  2  0  0  0  0
 13 37  1  0  0  0  0
 13 36  1  0  0  0  0
 14 22  1  0  0  0  0
 14 15  1  0  0  0  0
 15 40  1  0  0  0  0
 15 39  1  0  0  0  0
 16 25  2  0  0  0  0
 17 16  1  0  0  0  0
 17 42  1  0  0  0  0
 18  9  1  0  0  0  0
 19  9  2  0  0  0  0
 20 12  1  0  0  0  0
 23 14  2  0  0  0  0
 24  8  1  0  0  0  0
 24 16  1  0  0  0  0
 34 11  1  0  0  0  0
 38 13  1  0  0  0  0
 41 15  1  0  0  0  0
 43 17  1  0  0  0  0
 44 17  1  0  0  0  0
M  END
