2
 OpenBabel05122313113D

 77 83  0  0  1  0  0  0  0  0999 V2000
    1.0993    0.2386    0.0104 N   0  0  0  0  0  0  0  0  0  0  0  0
   -0.0001   -0.5495    0.0007 C   0  0  0  0  0  2  0  0  0  0  0  0
    0.7594    1.6597   -0.1939 C   0  0  1  0  0  0  0  0  0  0  0  0
    1.0186    2.1244   -1.6170 C   0  0  0  0  0  0  0  0  0  0  0  0
    0.6816    1.3110   -2.7168 C   0  0  0  0  0  0  0  0  0  0  0  0
    0.8846    1.7691   -4.0253 C   0  0  0  0  0  0  0  0  0  0  0  0
    1.4433    3.0383   -4.2506 C   0  0  0  0  0  0  0  0  0  0  0  0
    1.7919    3.8484   -3.1591 C   0  0  0  0  0  0  0  0  0  0  0  0
    1.5747    3.3943   -1.8491 C   0  0  0  0  0  0  0  0  0  0  0  0
    2.4664   -0.2879    0.2073 C   0  0  0  0  0  0  0  0  0  0  0  0
    3.4842    0.5668   -0.5421 C   0  0  0  0  0  0  0  0  0  0  0  0
    3.6515    0.3504   -1.9249 C   0  0  0  0  0  0  0  0  0  0  0  0
    4.4991    1.1682   -2.6819 C   0  0  0  0  0  0  0  0  0  0  0  0
    5.2035    2.2132   -2.0621 C   0  0  0  0  0  0  0  0  0  0  0  0
    5.0658    2.4198   -0.6817 C   0  0  0  0  0  0  0  0  0  0  0  0
    4.2145    1.5985    0.0750 C   0  0  0  0  0  0  0  0  0  0  0  0
    2.7715   -0.5256    1.6797 C   0  0  0  0  0  0  0  0  0  0  0  0
    2.5447    0.4570    2.6649 C   0  0  0  0  0  0  0  0  0  0  0  0
    2.8246    0.1955    4.0144 C   0  0  0  0  0  0  0  0  0  0  0  0
    3.3375   -1.0535    4.3991 C   0  0  0  0  0  0  0  0  0  0  0  0
    3.5607   -2.0404    3.4266 C   0  0  0  0  0  0  0  0  0  0  0  0
    3.2762   -1.7776    2.0783 C   0  0  0  0  0  0  0  0  0  0  0  0
    1.3221    2.3051    0.5073 H   0  0  0  0  0  0  0  0  0  0  0  0
    0.2759    0.3020   -2.5508 H   0  0  0  0  0  0  0  0  0  0  0  0
    0.6129    1.1232   -4.8741 H   0  0  0  0  0  0  0  0  0  0  0  0
    1.6147    3.3927   -5.2784 H   0  0  0  0  0  0  0  0  0  0  0  0
    2.2442    4.8375   -3.3268 H   0  0  0  0  0  0  0  0  0  0  0  0
    1.8609    4.0253   -0.9930 H   0  0  0  0  0  0  0  0  0  0  0  0
    2.4484   -1.2855   -0.2785 H   0  0  0  0  0  0  0  0  0  0  0  0
    3.0906   -0.4610   -2.4133 H   0  0  0  0  0  0  0  0  0  0  0  0
    4.6063    0.9925   -3.7627 H   0  0  0  0  0  0  0  0  0  0  0  0
    5.8678    2.8598   -2.6551 H   0  0  0  0  0  0  0  0  0  0  0  0
    5.6294    3.2241   -0.1847 H   0  0  0  0  0  0  0  0  0  0  0  0
    4.1271    1.7581    1.1593 H   0  0  0  0  0  0  0  0  0  0  0  0
    2.1230    1.4341    2.3890 H   0  0  0  0  0  0  0  0  0  0  0  0
    2.6330    0.9734    4.7693 H   0  0  0  0  0  0  0  0  0  0  0  0
    3.5532   -1.2608    5.4581 H   0  0  0  0  0  0  0  0  0  0  0  0
    3.9448   -3.0291    3.7193 H   0  0  0  0  0  0  0  0  0  0  0  0
    3.4275   -2.5637    1.3222 H   0  0  0  0  0  0  0  0  0  0  0  0
   -1.0992    0.2389   -0.0112 N   0  0  0  0  0  0  0  0  0  0  0  0
   -0.7589    1.6604    0.1891 C   0  0  1  0  0  0  0  0  0  0  0  0
   -1.0180    2.1291    1.6109 C   0  0  0  0  0  0  0  0  0  0  0  0
   -0.6813    1.3185    2.7129 C   0  0  0  0  0  0  0  0  0  0  0  0
   -0.8840    1.7803    4.0202 C   0  0  0  0  0  0  0  0  0  0  0  0
   -1.4420    3.0504    4.2420 C   0  0  0  0  0  0  0  0  0  0  0  0
   -1.7902    3.8577    3.1483 C   0  0  0  0  0  0  0  0  0  0  0  0
   -1.5733    3.4000    1.8396 C   0  0  0  0  0  0  0  0  0  0  0  0
   -2.4665   -0.2878   -0.2065 C   0  0  0  0  0  0  0  0  0  0  0  0
   -3.4840    0.5695    0.5404 C   0  0  0  0  0  0  0  0  0  0  0  0
   -3.6516    0.3573    1.9237 C   0  0  0  0  0  0  0  0  0  0  0  0
   -4.4991    1.1776    2.6781 C   0  0  0  0  0  0  0  0  0  0  0  0
   -5.2029    2.2210    2.0551 C   0  0  0  0  0  0  0  0  0  0  0  0
   -5.0649    2.4235    0.6742 C   0  0  0  0  0  0  0  0  0  0  0  0
   -4.2138    1.5997   -0.0800 C   0  0  0  0  0  0  0  0  0  0  0  0
   -2.7718   -0.5300   -1.6781 C   0  0  0  0  0  0  0  0  0  0  0  0
   -2.5446    0.4495   -2.6663 C   0  0  0  0  0  0  0  0  0  0  0  0
   -2.8247    0.1838   -4.0150 C   0  0  0  0  0  0  0  0  0  0  0  0
   -3.3382   -1.0661   -4.3957 C   0  0  0  0  0  0  0  0  0  0  0  0
   -3.5617   -2.0498   -3.4202 C   0  0  0  0  0  0  0  0  0  0  0  0
   -3.2770   -1.7830   -2.0728 C   0  0  0  0  0  0  0  0  0  0  0  0
   -1.3215    2.3041   -0.5139 H   0  0  0  0  0  0  0  0  0  0  0  0
   -0.2761    0.3089    2.5496 H   0  0  0  0  0  0  0  0  0  0  0  0
   -0.6125    1.1366    4.8707 H   0  0  0  0  0  0  0  0  0  0  0  0
   -1.6131    3.4076    5.2688 H   0  0  0  0  0  0  0  0  0  0  0  0
   -2.2419    4.8476    3.3134 H   0  0  0  0  0  0  0  0  0  0  0  0
   -1.8592    4.0288    0.9818 H   0  0  0  0  0  0  0  0  0  0  0  0
   -2.4488   -1.2839    0.2825 H   0  0  0  0  0  0  0  0  0  0  0  0
   -3.0911   -0.4529    2.4146 H   0  0  0  0  0  0  0  0  0  0  0  0
   -4.6064    1.0051    3.7594 H   0  0  0  0  0  0  0  0  0  0  0  0
   -5.8672    2.8697    2.6461 H   0  0  0  0  0  0  0  0  0  0  0  0
   -5.6282    3.2265    0.1748 H   0  0  0  0  0  0  0  0  0  0  0  0
   -4.1262    1.7560   -1.1646 H   0  0  0  0  0  0  0  0  0  0  0  0
   -2.1225    1.4272   -2.3935 H   0  0  0  0  0  0  0  0  0  0  0  0
   -2.6329    0.9593   -4.7724 H   0  0  0  0  0  0  0  0  0  0  0  0
   -3.5541   -1.2766   -5.4541 H   0  0  0  0  0  0  0  0  0  0  0  0
   -3.9463   -3.0393   -3.7097 H   0  0  0  0  0  0  0  0  0  0  0  0
   -3.4287   -2.5667   -1.3142 H   0  0  0  0  0  0  0  0  0  0  0  0
  1 10  1  0  0  0  0
  2  1  1  0  0  0  0
  3  1  1  0  0  0  0
  3 41  1  0  0  0  0
  3 23  1  1  0  0  0
  4  3  1  0  0  0  0
  5 24  1  0  0  0  0
  5  4  2  0  0  0  0
  6  5  1  0  0  0  0
  7  6  2  0  0  0  0
  7  8  1  0  0  0  0
  8  9  2  0  0  0  0
  9  4  1  0  0  0  0
  9 28  1  0  0  0  0
 10 17  1  0  0  0  0
 11 16  1  0  0  0  0
 11 10  1  0  0  0  0
 12 11  2  0  0  0  0
 13 14  2  0  0  0  0
 13 12  1  0  0  0  0
 14 15  1  0  0  0  0
 15 33  1  0  0  0  0
 15 16  2  0  0  0  0
 16 34  1  0  0  0  0
 17 22  2  0  0  0  0
 17 18  1  0  0  0  0
 18 19  2  0  0  0  0
 19 20  1  0  0  0  0
 19 36  1  0  0  0  0
 20 37  1  0  0  0  0
 21 38  1  0  0  0  0
 21 20  2  0  0  0  0
 22 21  1  0  0  0  0
 25  6  1  0  0  0  0
 26  7  1  0  0  0  0
 27  8  1  0  0  0  0
 29 10  1  0  0  0  0
 30 12  1  0  0  0  0
 31 13  1  0  0  0  0
 32 14  1  0  0  0  0
 35 18  1  0  0  0  0
 39 22  1  0  0  0  0
 40  2  1  0  0  0  0
 40 41  1  0  0  0  0
 41 61  1  6  0  0  0
 41 42  1  0  0  0  0
 42 47  2  0  0  0  0
 42 43  1  0  0  0  0
 43 44  2  0  0  0  0
 44 45  1  0  0  0  0
 44 63  1  0  0  0  0
 45 64  1  0  0  0  0
 46 65  1  0  0  0  0
 46 45  2  0  0  0  0
 47 46  1  0  0  0  0
 48 40  1  0  0  0  0
 48 67  1  0  0  0  0
 48 49  1  0  0  0  0
 49 50  1  0  0  0  0
 50 68  1  0  0  0  0
 50 51  2  0  0  0  0
 51 69  1  0  0  0  0
 52 70  1  0  0  0  0
 52 51  1  0  0  0  0
 53 52  2  0  0  0  0
 54 49  2  0  0  0  0
 54 53  1  0  0  0  0
 55 48  1  0  0  0  0
 56 73  1  0  0  0  0
 56 55  2  0  0  0  0
 57 56  1  0  0  0  0
 58 57  2  0  0  0  0
 58 59  1  0  0  0  0
 59 60  2  0  0  0  0
 60 55  1  0  0  0  0
 60 77  1  0  0  0  0
 62 43  1  0  0  0  0
 66 47  1  0  0  0  0
 71 53  1  0  0  0  0
 72 54  1  0  0  0  0
 74 57  1  0  0  0  0
 75 58  1  0  0  0  0
 76 59  1  0  0  0  0
M  END
