13
 OpenBabel05122313113D

 26 28  0  0  1  0  0  0  0  0999 V2000
   -0.3405   -2.5213    1.0285 O   0  0  0  0  0  0  0  0  0  0  0  0
    0.0312   -1.6541    0.2431 C   0  0  0  0  0  0  0  0  0  0  0  0
    1.4469   -1.2925   -0.0990 C   0  0  0  0  0  0  0  0  0  0  0  0
    2.6586   -1.8800    0.3727 C   0  0  0  0  0  0  0  0  0  0  0  0
    2.6224   -2.5514    1.2435 H   0  0  0  0  0  0  0  0  0  0  0  0
    3.8309   -1.6190   -0.3121 C   0  0  0  0  0  0  0  0  0  0  0  0
    4.7773   -2.0673    0.0255 H   0  0  0  0  0  0  0  0  0  0  0  0
    3.8375   -0.7900   -1.4850 C   0  0  0  0  0  0  0  0  0  0  0  0
    4.7898   -0.6268   -2.0120 H   0  0  0  0  0  0  0  0  0  0  0  0
    2.6843   -0.2031   -1.9693 C   0  0  0  0  0  0  0  0  0  0  0  0
    2.6950    0.4262   -2.8715 H   0  0  0  0  0  0  0  0  0  0  0  0
    1.4556   -0.4392   -1.2684 C   0  0  0  0  0  0  0  0  0  0  0  0
    0.1001    0.0019   -1.4971 C   0  0  0  0  0  3  0  0  0  0  0  0
   -0.2198    0.6091   -2.3526 H   0  0  0  0  0  0  0  0  0  0  0  0
   -0.7721   -0.6292   -0.5274 C   0  0  1  0  0  3  0  0  0  0  0  0
   -2.2366   -0.4835   -0.4742 C   0  0  0  0  0  0  0  0  0  0  0  0
   -2.9074    0.4739   -1.2729 C   0  0  0  0  0  0  0  0  0  0  0  0
   -2.3360    1.1388   -1.9373 H   0  0  0  0  0  0  0  0  0  0  0  0
   -4.2997    0.6036   -1.2195 C   0  0  0  0  0  0  0  0  0  0  0  0
   -4.8008    1.3568   -1.8463 H   0  0  0  0  0  0  0  0  0  0  0  0
   -5.0541   -0.2206   -0.3676 C   0  0  0  0  0  0  0  0  0  0  0  0
   -6.1490   -0.1171   -0.3253 H   0  0  0  0  0  0  0  0  0  0  0  0
   -4.4006   -1.1732    0.4294 C   0  0  0  0  0  0  0  0  0  0  0  0
   -4.9835   -1.8233    1.0997 H   0  0  0  0  0  0  0  0  0  0  0  0
   -3.0068   -1.3072    0.3818 C   0  0  0  0  0  0  0  0  0  0  0  0
   -2.4856   -2.0526    0.9982 H   0  0  0  0  0  0  0  0  0  0  0  0
  2  1  2  0  0  0  0
  3  2  1  0  0  0  0
  3  4  1  0  0  0  0
  4  5  1  0  0  0  0
  6  7  1  0  0  0  0
  6  4  2  0  0  0  0
  8  6  1  0  0  0  0
  9  8  1  0  0  0  0
 10  8  2  0  0  0  0
 10 12  1  0  0  0  0
 11 10  1  0  0  0  0
 12  3  2  0  0  0  0
 13 12  1  0  0  0  0
 13 15  1  0  0  0  0
 14 13  1  0  0  0  0
 15 16  1  6  0  0  0
 15  2  1  0  0  0  0
 16 25  1  0  0  0  0
 17 19  1  0  0  0  0
 17 16  2  0  0  0  0
 18 17  1  0  0  0  0
 19 21  2  0  0  0  0
 20 19  1  0  0  0  0
 21 22  1  0  0  0  0
 21 23  1  0  0  0  0
 23 24  1  0  0  0  0
 25 23  2  0  0  0  0
 25 26  1  0  0  0  0
M  END
