5
 OpenBabel05122313113D

 22 21  0  0  0  0  0  0  0  0999 V2000
   -1.1091   -0.5019   -1.9047 N   0  0  0  0  0  0  0  0  0  0  0  0
   -1.7858   -1.7848   -2.2350 C   0  0  0  0  0  0  0  0  0  0  0  0
   -2.8305   -2.1632   -1.1913 C   0  0  0  0  0  0  0  0  0  0  0  0
   -2.2472   -2.1440    0.2047 C   0  0  0  0  0  3  0  0  0  0  0  0
   -0.9161   -2.6076    0.4636 C   0  0  0  0  0  3  0  0  0  0  0  0
   -0.4118   -2.3182    1.7698 C   0  0  0  0  0  3  0  0  0  0  0  0
    0.1461   -0.3914   -2.6681 C   0  0  0  0  0  0  0  0  0  0  0  0
   -1.9843    0.6386   -2.2476 C   0  0  0  0  0  0  0  0  0  0  0  0
   -1.0004   -2.5652   -2.2770 H   0  0  0  0  0  0  0  0  0  0  0  0
   -2.2304   -1.7274   -3.2566 H   0  0  0  0  0  0  0  0  0  0  0  0
   -3.2327   -3.1718   -1.4399 H   0  0  0  0  0  0  0  0  0  0  0  0
   -3.7022   -1.4770   -1.2342 H   0  0  0  0  0  0  0  0  0  0  0  0
   -2.9835   -2.2394    1.0213 H   0  0  0  0  0  0  0  0  0  0  0  0
   -0.2643   -3.0381   -0.3140 H   0  0  0  0  0  0  0  0  0  0  0  0
    0.6478   -2.5323    1.9800 H   0  0  0  0  0  0  0  0  0  0  0  0
   -1.0878   -2.3977    2.6367 H   0  0  0  0  0  0  0  0  0  0  0  0
   -0.0496   -0.4200   -3.7654 H   0  0  0  0  0  0  0  0  0  0  0  0
    0.8221   -1.2214   -2.3937 H   0  0  0  0  0  0  0  0  0  0  0  0
    0.6514    0.5600   -2.4200 H   0  0  0  0  0  0  0  0  0  0  0  0
   -2.1529    0.6861   -3.3489 H   0  0  0  0  0  0  0  0  0  0  0  0
   -1.5101    1.5746   -1.9021 H   0  0  0  0  0  0  0  0  0  0  0  0
   -2.9580    0.5418   -1.7358 H   0  0  0  0  0  0  0  0  0  0  0  0
  2  1  1  0  0  0  0
  2  3  1  0  0  0  0
  3  4  1  0  0  0  0
  4  5  1  0  0  0  0
  4 13  1  0  0  0  0
  5  6  1  0  0  0  0
  6 15  1  0  0  0  0
  6 16  1  0  0  0  0
  7 19  1  0  0  0  0
  7 18  1  0  0  0  0
  7  1  1  0  0  0  0
  8  1  1  0  0  0  0
  8 21  1  0  0  0  0
  8 22  1  0  0  0  0
  9  2  1  0  0  0  0
 10  2  1  0  0  0  0
 11  3  1  0  0  0  0
 12  3  1  0  0  0  0
 14  5  1  0  0  0  0
 17  7  1  0  0  0  0
 20  8  1  0  0  0  0
M  END
