15
 OpenBabel05122313113D

 34 35  0  0  0  0  0  0  0  0999 V2000
   -1.8674   -0.1201   -0.5194 P   0  0  0  0  0  0  0  0  0  0  0  0
   -2.4851    2.5998    0.1539 C   0  0  0  0  0  0  0  0  0  0  0  0
   -2.4489    3.9766   -0.1161 C   0  0  0  0  0  0  0  0  0  0  0  0
   -1.8468    4.4529   -1.2899 C   0  0  0  0  0  0  0  0  0  0  0  0
   -1.2692    3.5496   -2.1987 C   0  0  0  0  0  0  0  0  0  0  0  0
   -1.3000    2.1754   -1.9333 C   0  0  0  0  0  0  0  0  0  0  0  0
   -1.9163    1.6924   -0.7579 C   0  0  0  0  0  0  0  0  0  0  0  0
   -2.2860   -1.2814    1.9860 C   0  0  0  0  0  0  0  0  0  0  0  0
   -3.0302   -1.6182    3.1265 C   0  0  0  0  0  0  0  0  0  0  0  0
   -4.3560   -1.1735    3.2536 C   0  0  0  0  0  0  0  0  0  0  0  0
   -4.9431   -0.4060    2.2331 C   0  0  0  0  0  0  0  0  0  0  0  0
   -4.2029   -0.0669    1.0913 C   0  0  0  0  0  0  0  0  0  0  0  0
   -2.8614   -0.4880    0.9738 C   0  0  0  0  0  0  0  0  0  0  0  0
   -1.2872   -2.9333   -1.0501 C   0  0  0  0  0  3  0  0  0  0  0  0
   -1.3326   -2.3045   -2.3294 C   0  0  0  0  0  3  0  0  0  0  0  0
   -2.4930   -1.4582   -2.7253 C   0  0  0  0  0  0  0  0  0  0  0  0
   -0.5285   -4.2004   -0.7676 C   0  0  0  0  0  0  0  0  0  0  0  0
   -2.9863   -0.6099   -1.7230 O   0  0  0  0  0  0  0  0  0  0  0  0
   -3.0337   -1.4665   -3.8061 O   0  0  0  0  0  0  0  0  0  0  0  0
   -2.9383    2.2366    1.0867 H   0  0  0  0  0  0  0  0  0  0  0  0
   -2.8878    4.6822    0.6054 H   0  0  0  0  0  0  0  0  0  0  0  0
   -1.8207    5.5337   -1.4964 H   0  0  0  0  0  0  0  0  0  0  0  0
   -0.7916    3.9183   -3.1189 H   0  0  0  0  0  0  0  0  0  0  0  0
   -0.8450    1.4600   -2.6374 H   0  0  0  0  0  0  0  0  0  0  0  0
   -1.2524   -1.6432    1.8547 H   0  0  0  0  0  0  0  0  0  0  0  0
   -2.5759   -2.2379    3.9144 H   0  0  0  0  0  0  0  0  0  0  0  0
   -4.9417   -1.4382    4.1472 H   0  0  0  0  0  0  0  0  0  0  0  0
   -5.9892   -0.0762    2.3240 H   0  0  0  0  0  0  0  0  0  0  0  0
   -4.6691    0.5130    0.2807 H   0  0  0  0  0  0  0  0  0  0  0  0
   -2.1571   -2.7778   -0.3837 H   0  0  0  0  0  0  0  0  0  0  0  0
   -0.7771   -2.7403   -3.1747 H   0  0  0  0  0  0  0  0  0  0  0  0
   -0.1492   -4.2052    0.2749 H   0  0  0  0  0  0  0  0  0  0  0  0
    0.3314   -4.3208   -1.4512 H   0  0  0  0  0  0  0  0  0  0  0  0
   -1.2107   -5.0742   -0.8701 H   0  0  0  0  0  0  0  0  0  0  0  0
  1 13  1  0  0  0  0
  2 20  1  0  0  0  0
  3  2  1  0  0  0  0
  3 21  1  0  0  0  0
  4  3  2  0  0  0  0
  5  6  2  0  0  0  0
  5  4  1  0  0  0  0
  6  7  1  0  0  0  0
  7  1  1  0  0  0  0
  7  2  2  0  0  0  0
  8  9  1  0  0  0  0
  9 10  2  0  0  0  0
  9 26  1  0  0  0  0
 10 27  1  0  0  0  0
 11 28  1  0  0  0  0
 11 10  1  0  0  0  0
 12 11  2  0  0  0  0
 13 12  1  0  0  0  0
 13  8  2  0  0  0  0
 14 17  1  0  0  0  0
 14 30  1  0  0  0  0
 15 14  1  0  0  0  0
 16 15  1  0  0  0  0
 16 18  1  0  0  0  0
 17 32  1  0  0  0  0
 18  1  1  0  0  0  0
 19 16  2  0  0  0  0
 22  4  1  0  0  0  0
 23  5  1  0  0  0  0
 24  6  1  0  0  0  0
 25  8  1  0  0  0  0
 29 12  1  0  0  0  0
 31 15  1  0  0  0  0
 33 17  1  0  0  0  0
 34 17  1  0  0  0  0
M  END
