4
 OpenBabel05122313113D

 54 57  0  0  1  0  0  0  0  0999 V2000
   -2.4511   -0.1042    0.5315 C   0  0  0  0  0  3  0  0  0  0  0  0
   -1.1533   -0.1585    1.1042 C   0  0  0  0  0  0  0  0  0  0  0  0
   -0.0117   -0.2295    0.2297 C   0  0  0  0  0  0  0  0  0  0  0  0
   -0.2715   -0.1720   -1.1779 C   0  0  0  0  0  3  0  0  0  0  0  0
   -1.5806   -0.0194   -1.6695 C   0  0  0  0  0  3  0  0  0  0  0  0
   -2.6394    0.6278   -0.7955 C   0  0  2  0  0  0  0  0  0  0  0  0
   -2.6090    2.1500   -0.6901 C   0  0  0  0  0  0  0  0  0  0  0  0
   -1.4001    2.8682   -0.5663 C   0  0  0  0  0  0  0  0  0  0  0  0
   -1.4128    4.2627   -0.4126 C   0  0  0  0  0  0  0  0  0  0  0  0
   -2.6286    4.9649   -0.3816 C   0  0  0  0  0  0  0  0  0  0  0  0
   -3.8363    4.2615   -0.5091 C   0  0  0  0  0  0  0  0  0  0  0  0
   -3.8218    2.8670   -0.6632 C   0  0  0  0  0  0  0  0  0  0  0  0
   -1.9751   -0.4428    3.3305 C   0  0  0  0  0  0  0  0  0  0  0  0
    1.4171   -0.2443    0.7377 C   0  0  1  0  0  0  0  0  0  0  0  0
    2.6876   -2.3082    0.3942 C   0  0  0  0  0  0  0  0  0  0  0  0
    1.5585    1.9243    1.8967 C   0  0  0  0  0  0  0  0  0  0  0  0
    3.3816   -0.0902   -0.5604 C   0  0  1  0  0  0  0  0  0  0  0  0
    3.3833    0.9802    0.5318 C   0  0  1  0  0  0  0  0  0  0  0  0
    4.1897    2.1990    0.1013 C   0  0  0  0  0  0  0  0  0  0  0  0
    5.6240    1.7353   -0.2189 C   0  0  0  0  0  0  0  0  0  0  0  0
    5.6677    0.5782   -1.2341 C   0  0  0  0  0  0  0  0  0  0  0  0
    4.7859   -0.6184   -0.8239 C   0  0  0  0  0  0  0  0  0  0  0  0
   -0.8876   -0.2868    2.4302 O   0  0  0  0  0  0  0  0  0  0  0  0
    2.3145   -1.0120   -0.1382 N   0  0  0  0  0  0  0  0  0  0  0  0
    1.9521    1.1374    0.7470 N   0  0  0  0  0  0  0  0  0  0  0  0
   -3.3237   -0.2137    1.1897 H   0  0  0  0  0  0  0  0  0  0  0  0
    0.5832   -0.3770   -1.8403 H   0  0  0  0  0  0  0  0  0  0  0  0
   -1.7478   -0.0978   -2.7544 H   0  0  0  0  0  0  0  0  0  0  0  0
   -3.6361    0.3411   -1.1860 H   0  0  0  0  0  0  0  0  0  0  0  0
   -0.4353    2.3392   -0.5887 H   0  0  0  0  0  0  0  0  0  0  0  0
   -0.4598    4.8063   -0.3188 H   0  0  0  0  0  0  0  0  0  0  0  0
   -2.6344    6.0591   -0.2630 H   0  0  0  0  0  0  0  0  0  0  0  0
   -4.7954    4.8019   -0.4937 H   0  0  0  0  0  0  0  0  0  0  0  0
   -4.7723    2.3180   -0.7665 H   0  0  0  0  0  0  0  0  0  0  0  0
   -1.5319   -0.4802    4.3422 H   0  0  0  0  0  0  0  0  0  0  0  0
   -2.5232   -1.3906    3.1412 H   0  0  0  0  0  0  0  0  0  0  0  0
   -2.6826    0.4122    3.2703 H   0  0  0  0  0  0  0  0  0  0  0  0
    1.4240   -0.6770    1.7721 H   0  0  0  0  0  0  0  0  0  0  0  0
    3.2364   -2.8933   -0.3689 H   0  0  0  0  0  0  0  0  0  0  0  0
    1.7680   -2.8786    0.6323 H   0  0  0  0  0  0  0  0  0  0  0  0
    3.3086   -2.2685    1.3267 H   0  0  0  0  0  0  0  0  0  0  0  0
    1.9655    2.9511    1.8061 H   0  0  0  0  0  0  0  0  0  0  0  0
    0.4553    2.0076    1.9470 H   0  0  0  0  0  0  0  0  0  0  0  0
    1.9133    1.4904    2.8687 H   0  0  0  0  0  0  0  0  0  0  0  0
    3.0447    0.4210   -1.4956 H   0  0  0  0  0  0  0  0  0  0  0  0
    3.8764    0.5442    1.4480 H   0  0  0  0  0  0  0  0  0  0  0  0
    3.7094    2.6470   -0.7960 H   0  0  0  0  0  0  0  0  0  0  0  0
    4.2046    2.9815    0.8887 H   0  0  0  0  0  0  0  0  0  0  0  0
    6.2260    2.5884   -0.5942 H   0  0  0  0  0  0  0  0  0  0  0  0
    6.1111    1.4056    0.7258 H   0  0  0  0  0  0  0  0  0  0  0  0
    6.7156    0.2446   -1.3806 H   0  0  0  0  0  0  0  0  0  0  0  0
    5.3196    0.9522   -2.2224 H   0  0  0  0  0  0  0  0  0  0  0  0
    4.7816   -1.3861   -1.6252 H   0  0  0  0  0  0  0  0  0  0  0  0
    5.1990   -1.1005    0.0879 H   0  0  0  0  0  0  0  0  0  0  0  0
  1  2  1  0  0  0  0
  1 26  1  0  0  0  0
  2 23  1  0  0  0  0
  3 14  1  0  0  0  0
  3  2  2  0  0  0  0
  4  3  1  0  0  0  0
  5  4  1  0  0  0  0
  5  6  1  0  0  0  0
  6 29  1  6  0  0  0
  6  7  1  0  0  0  0
  6  1  1  0  0  0  0
  7 12  2  0  0  0  0
  7  8  1  0  0  0  0
  8  9  2  0  0  0  0
  9 10  1  0  0  0  0
  9 31  1  0  0  0  0
 10 32  1  0  0  0  0
 11 33  1  0  0  0  0
 11 10  2  0  0  0  0
 12 11  1  0  0  0  0
 13 35  1  0  0  0  0
 14 25  1  0  0  0  0
 14 38  1  1  0  0  0
 15 40  1  0  0  0  0
 15 41  1  0  0  0  0
 16 43  1  0  0  0  0
 16 44  1  0  0  0  0
 17 45  1  6  0  0  0
 17 24  1  0  0  0  0
 17 18  1  0  0  0  0
 18 25  1  0  0  0  0
 18 46  1  1  0  0  0
 19 18  1  0  0  0  0
 19 48  1  0  0  0  0
 20 19  1  0  0  0  0
 20 50  1  0  0  0  0
 21 22  1  0  0  0  0
 21 20  1  0  0  0  0
 22 17  1  0  0  0  0
 22 54  1  0  0  0  0
 23 13  1  0  0  0  0
 24 15  1  0  0  0  0
 24 14  1  0  0  0  0
 25 16  1  0  0  0  0
 27  4  1  0  0  0  0
 28  5  1  0  0  0  0
 30  8  1  0  0  0  0
 34 12  1  0  0  0  0
 36 13  1  0  0  0  0
 37 13  1  0  0  0  0
 39 15  1  0  0  0  0
 42 16  1  0  0  0  0
 47 19  1  0  0  0  0
 49 20  1  0  0  0  0
 51 21  1  0  0  0  0
 52 21  1  0  0  0  0
 53 22  1  0  0  0  0
M  END
