2
 OpenBabel05122313113D

 21 21  0  0  0  0  0  0  0  0999 V2000
   -8.9620   -0.0051    0.0757 N   0  0  0  0  0  0  0  0  0  0  0  0
   -2.0307    0.0483   -0.4480 C   0  0  0  0  0  3  0  0  0  0  0  0
   -3.2728    0.0404   -0.3668 C   0  0  0  0  0  0  0  0  0  0  0  0
   -4.6973    0.0305   -0.2673 C   0  0  0  0  0  0  0  0  0  0  0  0
   -5.4414    1.2196   -0.0497 C   0  0  0  0  0  0  0  0  0  0  0  0
   -4.8981    2.1734    0.0324 H   0  0  0  0  0  0  0  0  0  0  0  0
   -6.8338    1.2162    0.0569 C   0  0  0  0  0  0  0  0  0  0  0  0
   -7.3495    2.1718    0.2199 H   0  0  0  0  0  0  0  0  0  0  0  0
   -7.5774    0.0075   -0.0430 C   0  0  0  0  0  0  0  0  0  0  0  0
   -6.8401   -1.1876   -0.2715 C   0  0  0  0  0  0  0  0  0  0  0  0
   -7.3610   -2.1491   -0.3703 H   0  0  0  0  0  0  0  0  0  0  0  0
   -5.4478   -1.1696   -0.3759 C   0  0  0  0  0  0  0  0  0  0  0  0
   -4.9095   -2.1133   -0.5527 H   0  0  0  0  0  0  0  0  0  0  0  0
   -9.6825    1.2409    0.2072 C   0  0  0  0  0  0  0  0  0  0  0  0
   -9.3625    1.8111    1.1084 H   0  0  0  0  0  0  0  0  0  0  0  0
  -10.7628    1.0313    0.3131 H   0  0  0  0  0  0  0  0  0  0  0  0
   -9.5490    1.9148   -0.6730 H   0  0  0  0  0  0  0  0  0  0  0  0
   -9.6890   -1.2366   -0.1336 C   0  0  0  0  0  0  0  0  0  0  0  0
   -9.3737   -2.0304    0.5806 H   0  0  0  0  0  0  0  0  0  0  0  0
   -9.5572   -1.6491   -1.1629 H   0  0  0  0  0  0  0  0  0  0  0  0
  -10.7685   -1.0575    0.0242 H   0  0  0  0  0  0  0  0  0  0  0  0
  1 14  1  0  0  0  0
  2  3  3  0  0  0  0
  3  4  1  0  0  0  0
  4  5  1  0  0  0  0
  5  6  1  0  0  0  0
  5  7  2  0  0  0  0
  7  8  1  0  0  0  0
  9  7  1  0  0  0  0
  9  1  1  0  0  0  0
 10  9  2  0  0  0  0
 11 10  1  0  0  0  0
 12 10  1  0  0  0  0
 12  4  2  0  0  0  0
 13 12  1  0  0  0  0
 14 16  1  0  0  0  0
 14 15  1  0  0  0  0
 17 14  1  0  0  0  0
 18 21  1  0  0  0  0
 18  1  1  0  0  0  0
 18 19  1  0  0  0  0
 20 18  1  0  0  0  0
M  END
