6
 OpenBabel05122313113D

 31 32  0  0  0  0  0  0  0  0999 V2000
    0.7882    1.4840   -0.3205 Si  0  0  0  0  0  0  0  0  0  0  0  0
   -1.0209   -0.3048   -1.8714 C   0  0  0  0  0  0  0  0  0  0  0  0
   -1.2037    0.4221   -2.6706 H   0  0  0  0  0  0  0  0  0  0  0  0
   -1.5502   -1.6145   -1.8171 C   0  0  0  0  0  0  0  0  0  0  0  0
   -2.2068   -2.0754   -2.5613 H   0  0  0  0  0  0  0  0  0  0  0  0
   -1.1628   -2.1940   -0.5743 C   0  0  0  0  0  3  0  0  0  0  0  0
   -1.4327   -3.1974   -0.2234 H   0  0  0  0  0  0  0  0  0  0  0  0
   -0.3356   -1.2472    0.1029 C   0  0  0  0  0  0  0  0  0  0  0  0
    0.1656   -1.4083    1.0647 H   0  0  0  0  0  0  0  0  0  0  0  0
   -0.2557   -0.0566   -0.6767 C   0  0  0  0  0  0  0  0  0  0  0  0
    0.3628    2.3276    1.3122 C   0  0  0  0  0  0  0  0  0  0  0  0
    0.5223    1.6524    2.1761 H   0  0  0  0  0  0  0  0  0  0  0  0
   -0.6921    2.6638    1.2948 H   0  0  0  0  0  0  0  0  0  0  0  0
    1.0196    3.2101    1.4520 H   0  0  0  0  0  0  0  0  0  0  0  0
    0.6553    2.6683   -1.7760 C   0  0  0  0  0  0  0  0  0  0  0  0
    1.3032    3.5532   -1.6158 H   0  0  0  0  0  0  0  0  0  0  0  0
   -0.3956    3.0050   -1.8801 H   0  0  0  0  0  0  0  0  0  0  0  0
    0.9704    2.1764   -2.7177 H   0  0  0  0  0  0  0  0  0  0  0  0
    2.5179    0.8504   -0.1799 C   0  0  0  0  0  0  0  0  0  0  0  0
    3.6700    0.4153   -0.0728 C   0  0  0  0  0  0  0  0  0  0  0  0
    4.9993   -0.0895    0.0483 C   0  0  0  0  0  0  0  0  0  0  0  0
    5.9072    0.4795    0.9778 C   0  0  0  0  0  0  0  0  0  0  0  0
    5.5724    1.3188    1.6045 H   0  0  0  0  0  0  0  0  0  0  0  0
    7.2092   -0.0210    1.0925 C   0  0  0  0  0  0  0  0  0  0  0  0
    7.9037    0.4304    1.8174 H   0  0  0  0  0  0  0  0  0  0  0  0
    7.6308   -1.0929    0.2882 C   0  0  0  0  0  0  0  0  0  0  0  0
    8.6555   -1.4833    0.3814 H   0  0  0  0  0  0  0  0  0  0  0  0
    6.7401   -1.6643   -0.6359 C   0  0  0  0  0  0  0  0  0  0  0  0
    7.0662   -2.5037   -1.2686 H   0  0  0  0  0  0  0  0  0  0  0  0
    5.4361   -1.1711   -0.7589 C   0  0  0  0  0  0  0  0  0  0  0  0
    4.7350   -1.6139   -1.4811 H   0  0  0  0  0  0  0  0  0  0  0  0
  1 19  1  0  0  0  0
  1 11  1  0  0  0  0
  2  4  2  0  0  0  0
  2 10  1  0  0  0  0
  3  2  1  0  0  0  0
  4  6  1  0  0  0  0
  5  4  1  0  0  0  0
  6  7  1  0  0  0  0
  6  8  1  0  0  0  0
  8  9  1  0  0  0  0
 10  1  1  0  0  0  0
 10  8  2  0  0  0  0
 11 14  1  0  0  0  0
 11 12  1  0  0  0  0
 13 11  1  0  0  0  0
 15 16  1  0  0  0  0
 15  1  1  0  0  0  0
 17 15  1  0  0  0  0
 18 15  1  0  0  0  0
 19 20  3  0  0  0  0
 20 21  1  0  0  0  0
 21 22  1  0  0  0  0
 22 24  2  0  0  0  0
 22 23  1  0  0  0  0
 24 25  1  0  0  0  0
 26 27  1  0  0  0  0
 26 24  1  0  0  0  0
 28 26  2  0  0  0  0
 29 28  1  0  0  0  0
 30 28  1  0  0  0  0
 30 21  2  0  0  0  0
 31 30  1  0  0  0  0
M  END
