4
 OpenBabel05122313113D

 34 36  0  0  0  0  0  0  0  0999 V2000
   -0.9863   -3.1423    0.4293 Cl  0  0  0  0  0  0  0  0  0  0  0  0
   -2.5791   -1.1191   -0.1974 N   0  0  0  0  0  0  0  0  0  0  0  0
   -2.1714    0.9753   -0.5926 N   0  0  0  0  0  0  0  0  0  0  0  0
   -1.5079   -0.2110   -0.3165 C   0  0  0  0  0  2  0  0  0  0  0  0
   -3.8420   -0.4906   -0.4177 C   0  0  0  0  0  0  0  0  0  0  0  0
   -3.5524    0.8321   -0.6629 C   0  0  0  0  0  0  0  0  0  0  0  0
   -4.2061    1.6789   -0.8829 H   0  0  0  0  0  0  0  0  0  0  0  0
   -2.5405   -2.4671    0.1085 C   0  0  0  0  0  0  0  0  0  0  0  0
   -3.6873   -3.2185    0.1727 C   0  0  0  0  0  0  0  0  0  0  0  0
   -3.6036   -4.2836    0.4213 H   0  0  0  0  0  0  0  0  0  0  0  0
   -5.0393   -1.2621   -0.3557 C   0  0  0  0  0  0  0  0  0  0  0  0
   -5.9984   -0.7587   -0.5378 H   0  0  0  0  0  0  0  0  0  0  0  0
   -4.9619   -2.6051   -0.0707 C   0  0  0  0  0  0  0  0  0  0  0  0
   -5.8707   -3.2209   -0.0189 H   0  0  0  0  0  0  0  0  0  0  0  0
   -1.5782    2.2647   -0.8095 C   0  0  0  0  0  0  0  0  0  0  0  0
   -1.3956    2.6800   -2.1391 C   0  0  0  0  0  0  0  0  0  0  0  0
   -1.6702    1.9915   -2.9511 H   0  0  0  0  0  0  0  0  0  0  0  0
   -0.8338    3.9345   -2.4055 C   0  0  0  0  0  0  0  0  0  0  0  0
   -0.6745    4.2577   -3.4447 H   0  0  0  0  0  0  0  0  0  0  0  0
   -0.6657    4.3385   -0.0119 C   0  0  0  0  0  0  0  0  0  0  0  0
   -0.3682    4.9991    0.8160 H   0  0  0  0  0  0  0  0  0  0  0  0
   -1.2202    3.0775    0.2905 C   0  0  0  0  0  0  0  0  0  0  0  0
   -0.4692    4.7645   -1.3334 C   0  0  0  0  0  0  0  0  0  0  0  0
   -0.0254    5.7528   -1.5277 H   0  0  0  0  0  0  0  0  0  0  0  0
   -1.4077    2.6186    1.7274 C   0  0  0  0  0  0  0  0  0  0  0  0
   -1.5313    1.5173    1.7149 H   0  0  0  0  0  0  0  0  0  0  0  0
   -0.1730    2.8968    2.5955 C   0  0  0  0  0  0  0  0  0  0  0  0
    0.0091    3.9830    2.7348 H   0  0  0  0  0  0  0  0  0  0  0  0
    0.7302    2.4334    2.1527 H   0  0  0  0  0  0  0  0  0  0  0  0
   -0.3117    2.4466    3.5979 H   0  0  0  0  0  0  0  0  0  0  0  0
   -2.6840    3.2379    2.3251 C   0  0  0  0  0  0  0  0  0  0  0  0
   -2.6140    4.3455    2.3619 H   0  0  0  0  0  0  0  0  0  0  0  0
   -2.8449    2.8716    3.3594 H   0  0  0  0  0  0  0  0  0  0  0  0
   -3.5810    2.9766    1.7274 H   0  0  0  0  0  0  0  0  0  0  0  0
  2  8  1  0  0  0  0
  3  4  1  0  0  0  0
  4  2  1  0  0  0  0
  5 11  1  0  0  0  0
  5  2  1  0  0  0  0
  6  3  1  0  0  0  0
  6  5  2  0  0  0  0
  7  6  1  0  0  0  0
  8  9  2  0  0  0  0
  8  1  1  0  0  0  0
  9 10  1  0  0  0  0
 11 13  2  0  0  0  0
 12 11  1  0  0  0  0
 13 14  1  0  0  0  0
 13  9  1  0  0  0  0
 15  3  1  0  0  0  0
 15 22  1  0  0  0  0
 16 15  2  0  0  0  0
 17 16  1  0  0  0  0
 18 16  1  0  0  0  0
 18 23  2  0  0  0  0
 19 18  1  0  0  0  0
 20 22  2  0  0  0  0
 20 21  1  0  0  0  0
 22 25  1  0  0  0  0
 23 20  1  0  0  0  0
 24 23  1  0  0  0  0
 25 31  1  0  0  0  0
 25 27  1  0  0  0  0
 26 25  1  0  0  0  0
 27 28  1  0  0  0  0
 27 30  1  0  0  0  0
 29 27  1  0  0  0  0
 31 32  1  0  0  0  0
 31 33  1  0  0  0  0
 34 31  1  0  0  0  0
M  END
