3
 OpenBabel05122313113D

 34 36  0  0  0  0  0  0  0  0999 V2000
   -2.2673    0.7374   -0.6038 N   0  0  0  0  0  0  0  0  0  0  0  0
   -2.4411   -1.3785   -0.1804 N   0  0  0  0  0  0  0  0  0  0  0  0
   -1.4811   -0.3629   -0.3194 C   0  0  0  0  0  2  0  0  0  0  0  0
   -1.7887    2.0720   -0.8269 C   0  0  0  0  0  0  0  0  0  0  0  0
   -1.6304    2.4950   -2.1570 C   0  0  0  0  0  0  0  0  0  0  0  0
   -1.8471    1.7849   -2.9680 H   0  0  0  0  0  0  0  0  0  0  0  0
   -1.0434    4.2134   -0.0329 C   0  0  0  0  0  0  0  0  0  0  0  0
   -0.8023    4.8979    0.7941 H   0  0  0  0  0  0  0  0  0  0  0  0
   -3.6280    0.4430   -0.6573 C   0  0  0  0  0  0  0  0  0  0  0  0
   -4.3720    1.2110   -0.8795 H   0  0  0  0  0  0  0  0  0  0  0  0
   -1.4974    2.9132    0.2714 C   0  0  0  0  0  0  0  0  0  0  0  0
   -2.2345   -2.7020    0.1384 C   0  0  0  0  0  0  0  0  0  0  0  0
   -3.2644   -3.5946    0.2360 C   0  0  0  0  0  0  0  0  0  0  0  0
   -3.0350   -4.6353    0.4955 H   0  0  0  0  0  0  0  0  0  0  0  0
   -0.8768    4.6495   -1.3549 C   0  0  0  0  0  0  0  0  0  0  0  0
   -0.5124    5.6694   -1.5511 H   0  0  0  0  0  0  0  0  0  0  0  0
   -3.7686   -0.9022   -0.3920 C   0  0  0  0  0  0  0  0  0  0  0  0
   -4.8589   -1.8188   -0.2981 C   0  0  0  0  0  0  0  0  0  0  0  0
   -5.8777   -1.4465   -0.4701 H   0  0  0  0  0  0  0  0  0  0  0  0
   -1.1689    3.7893   -2.4255 C   0  0  0  0  0  0  0  0  0  0  0  0
   -1.0307    4.1207   -3.4651 H   0  0  0  0  0  0  0  0  0  0  0  0
   -4.6080   -3.1372    0.0060 C   0  0  0  0  0  0  0  0  0  0  0  0
   -5.4349   -3.8572    0.0824 H   0  0  0  0  0  0  0  0  0  0  0  0
   -1.6528    2.4470    1.7101 C   0  0  0  0  0  0  0  0  0  0  0  0
   -1.7198    1.3408    1.7006 H   0  0  0  0  0  0  0  0  0  0  0  0
   -0.4290    2.7924    2.5700 C   0  0  0  0  0  0  0  0  0  0  0  0
   -0.3029    3.8873    2.7026 H   0  0  0  0  0  0  0  0  0  0  0  0
    0.4951    2.3759    2.1237 H   0  0  0  0  0  0  0  0  0  0  0  0
   -0.5384    2.3416    3.5759 H   0  0  0  0  0  0  0  0  0  0  0  0
   -2.9562    2.9993    2.3148 C   0  0  0  0  0  0  0  0  0  0  0  0
   -3.0914    2.6271    3.3507 H   0  0  0  0  0  0  0  0  0  0  0  0
   -3.8415    2.6901    1.7227 H   0  0  0  0  0  0  0  0  0  0  0  0
   -2.9446    4.1091    2.3497 H   0  0  0  0  0  0  0  0  0  0  0  0
   -0.9638   -3.0387    0.3558 F   0  0  0  0  0  0  0  0  0  0  0  0
  1  3  1  0  0  0  0
  2 12  1  0  0  0  0
  3  2  1  0  0  0  0
  4  1  1  0  0  0  0
  4 11  1  0  0  0  0
  5  4  2  0  0  0  0
  6  5  1  0  0  0  0
  7 11  2  0  0  0  0
  7  8  1  0  0  0  0
  9  1  1  0  0  0  0
  9 17  2  0  0  0  0
 10  9  1  0  0  0  0
 11 24  1  0  0  0  0
 12 13  2  0  0  0  0
 12 34  1  0  0  0  0
 13 14  1  0  0  0  0
 15  7  1  0  0  0  0
 16 15  1  0  0  0  0
 17 18  1  0  0  0  0
 17  2  1  0  0  0  0
 18 22  2  0  0  0  0
 19 18  1  0  0  0  0
 20  5  1  0  0  0  0
 20 15  2  0  0  0  0
 21 20  1  0  0  0  0
 22 23  1  0  0  0  0
 22 13  1  0  0  0  0
 24 30  1  0  0  0  0
 24 26  1  0  0  0  0
 25 24  1  0  0  0  0
 26 27  1  0  0  0  0
 26 29  1  0  0  0  0
 28 26  1  0  0  0  0
 30 33  1  0  0  0  0
 30 31  1  0  0  0  0
 32 30  1  0  0  0  0
M  END
