2
 OpenBabel05122313113D

 46 48  0  0  0  0  0  0  0  0999 V2000
    2.1469   -1.8533   -0.0128 N   0  0  0  0  0  0  0  0  0  0  0  0
    1.2940   -0.7324   -0.0072 C   0  0  0  0  0  2  0  0  0  0  0  0
    3.5114   -0.0860    0.1212 C   0  0  0  0  0  0  0  0  0  0  0  0
    4.3305    0.6333    0.1860 H   0  0  0  0  0  0  0  0  0  0  0  0
    1.8764    1.7230    0.1190 C   0  0  0  0  0  0  0  0  0  0  0  0
    3.5148   -1.4617    0.0654 C   0  0  0  0  0  0  0  0  0  0  0  0
    4.5466   -2.4435    0.0725 C   0  0  0  0  0  0  0  0  0  0  0  0
    5.5910   -2.1081    0.1328 H   0  0  0  0  0  0  0  0  0  0  0  0
    1.8046   -3.2085   -0.0810 C   0  0  0  0  0  0  0  0  0  0  0  0
    0.3637   -3.5725   -0.1605 C   0  0  0  0  0  0  0  0  0  0  0  0
    0.2402   -4.6698   -0.2051 H   0  0  0  0  0  0  0  0  0  0  0  0
   -0.0993   -3.1362   -1.0744 H   0  0  0  0  0  0  0  0  0  0  0  0
   -0.1810   -3.2005    0.7372 H   0  0  0  0  0  0  0  0  0  0  0  0
    2.8186   -4.1413   -0.0715 C   0  0  0  0  0  0  0  0  0  0  0  0
    2.5355   -5.2011   -0.1255 H   0  0  0  0  0  0  0  0  0  0  0  0
    4.2003   -3.7715    0.0044 C   0  0  0  0  0  0  0  0  0  0  0  0
    4.9733   -4.5532    0.0081 H   0  0  0  0  0  0  0  0  0  0  0  0
    2.1854    0.3207    0.0773 N   0  0  0  0  0  0  0  0  0  0  0  0
    1.8209    2.4356   -1.1019 C   0  0  0  0  0  0  0  0  0  0  0  0
    1.9852    1.7434   -2.4478 C   0  0  0  0  0  0  0  0  0  0  0  0
    1.9699    0.6502   -2.2684 H   0  0  0  0  0  0  0  0  0  0  0  0
    1.5700    3.8192   -1.0284 C   0  0  0  0  0  0  0  0  0  0  0  0
    1.5158    4.4060   -1.9576 H   0  0  0  0  0  0  0  0  0  0  0  0
    2.9755    1.7346    3.4471 C   0  0  0  0  0  0  0  0  0  0  0  0
    3.8597    1.4579    2.8380 H   0  0  0  0  0  0  0  0  0  0  0  0
    2.9888    1.1164    4.3678 H   0  0  0  0  0  0  0  0  0  0  0  0
    3.0919    2.7970    3.7484 H   0  0  0  0  0  0  0  0  0  0  0  0
    0.4314    1.8102    3.5355 C   0  0  0  0  0  0  0  0  0  0  0  0
    0.4283    2.8504    3.9228 H   0  0  0  0  0  0  0  0  0  0  0  0
    0.4120    1.1269    4.4076 H   0  0  0  0  0  0  0  0  0  0  0  0
   -0.5012    1.6397    2.9631 H   0  0  0  0  0  0  0  0  0  0  0  0
    1.6628    2.3279    1.3806 C   0  0  0  0  0  0  0  0  0  0  0  0
    1.6655    1.5178    2.6693 C   0  0  0  0  0  0  0  0  0  0  0  0
    1.6035    0.4468    2.3920 H   0  0  0  0  0  0  0  0  0  0  0  0
    1.3748    4.4531    0.2056 C   0  0  0  0  0  0  0  0  0  0  0  0
    1.1797    5.5360    0.2404 H   0  0  0  0  0  0  0  0  0  0  0  0
    3.3387    2.1010   -3.0860 C   0  0  0  0  0  0  0  0  0  0  0  0
    3.4126    3.1898   -3.2903 H   0  0  0  0  0  0  0  0  0  0  0  0
    3.4686    1.5662   -4.0489 H   0  0  0  0  0  0  0  0  0  0  0  0
    4.1848    1.8244   -2.4248 H   0  0  0  0  0  0  0  0  0  0  0  0
    1.4160    3.7137    1.3954 C   0  0  0  0  0  0  0  0  0  0  0  0
    1.2413    4.2184    2.3572 H   0  0  0  0  0  0  0  0  0  0  0  0
    0.8094    2.0455   -3.3898 C   0  0  0  0  0  0  0  0  0  0  0  0
   -0.1522    1.7498   -2.9270 H   0  0  0  0  0  0  0  0  0  0  0  0
    0.9155    1.4631   -4.3267 H   0  0  0  0  0  0  0  0  0  0  0  0
    0.7609    3.1200   -3.6638 H   0  0  0  0  0  0  0  0  0  0  0  0
  1  2  1  0  0  0  0
  1  6  1  0  0  0  0
  2 18  1  0  0  0  0
  3  4  1  0  0  0  0
  5 32  1  0  0  0  0
  6  7  1  0  0  0  0
  6  3  2  0  0  0  0
  7  8  1  0  0  0  0
  9 14  2  0  0  0  0
  9  1  1  0  0  0  0
 10  9  1  0  0  0  0
 10 13  1  0  0  0  0
 11 10  1  0  0  0  0
 12 10  1  0  0  0  0
 14 16  1  0  0  0  0
 15 14  1  0  0  0  0
 16 17  1  0  0  0  0
 16  7  2  0  0  0  0
 18  5  1  0  0  0  0
 18  3  1  0  0  0  0
 19 22  1  0  0  0  0
 19  5  2  0  0  0  0
 20 21  1  0  0  0  0
 20 19  1  0  0  0  0
 22 35  2  0  0  0  0
 23 22  1  0  0  0  0
 24 27  1  0  0  0  0
 24 26  1  0  0  0  0
 25 24  1  0  0  0  0
 28 29  1  0  0  0  0
 28 30  1  0  0  0  0
 31 28  1  0  0  0  0
 32 41  2  0  0  0  0
 32 33  1  0  0  0  0
 33 24  1  0  0  0  0
 33 28  1  0  0  0  0
 34 33  1  0  0  0  0
 35 36  1  0  0  0  0
 35 41  1  0  0  0  0
 37 20  1  0  0  0  0
 37 40  1  0  0  0  0
 38 37  1  0  0  0  0
 39 37  1  0  0  0  0
 41 42  1  0  0  0  0
 43 44  1  0  0  0  0
 43 20  1  0  0  0  0
 45 43  1  0  0  0  0
 46 43  1  0  0  0  0
M  END
