1
 OpenBabel05122313113D

 30 34  0  0  1  0  0  0  0  0999 V2000
   -0.2776   -1.4328    0.7070 C   0  0  0  0  0  3  0  0  0  0  0  0
    0.3147   -2.1917    1.2428 H   0  0  0  0  0  0  0  0  0  0  0  0
   -1.4475   -0.7912    1.4155 C   0  0  1  0  0  0  0  0  0  0  0  0
   -1.4431   -1.1294    2.4688 H   0  0  0  0  0  0  0  0  0  0  0  0
   -2.8317    1.1687   -0.7880 C   0  0  1  0  0  0  0  0  0  0  0  0
   -3.1655    2.1567   -1.1600 H   0  0  0  0  0  0  0  0  0  0  0  0
   -1.4475    0.7912    1.4155 C   0  0  2  0  0  0  0  0  0  0  0  0
   -1.4431    1.1294    2.4689 H   0  0  0  0  0  0  0  0  0  0  0  0
   -0.2776   -1.4327   -0.7071 C   0  0  0  0  0  3  0  0  0  0  0  0
    0.3148   -2.1917   -1.2429 H   0  0  0  0  0  0  0  0  0  0  0  0
   -3.6834   -0.0000    1.3136 C   0  0  0  0  0  0  0  0  0  0  0  0
   -3.7006   -0.0000    2.4228 H   0  0  0  0  0  0  0  0  0  0  0  0
   -4.7351   -0.0000    0.9746 H   0  0  0  0  0  0  0  0  0  0  0  0
   -2.8317    1.1687    0.7880 C   0  0  2  0  0  0  0  0  0  0  0  0
   -3.1655    2.1566    1.1600 H   0  0  0  0  0  0  0  0  0  0  0  0
   -2.8317   -1.1687   -0.7880 C   0  0  2  0  0  0  0  0  0  0  0  0
   -3.1654   -2.1566   -1.1600 H   0  0  0  0  0  0  0  0  0  0  0  0
   -0.2776    1.4328    0.7071 C   0  0  0  0  0  3  0  0  0  0  0  0
    0.3148    2.1917    1.2429 H   0  0  0  0  0  0  0  0  0  0  0  0
   -1.4476    0.7912   -1.4155 C   0  0  1  0  0  0  0  0  0  0  0  0
   -1.4431    1.1294   -2.4688 H   0  0  0  0  0  0  0  0  0  0  0  0
   -0.2777    1.4328   -0.7070 C   0  0  0  0  0  3  0  0  0  0  0  0
    0.3148    2.1917   -1.2428 H   0  0  0  0  0  0  0  0  0  0  0  0
   -2.8317   -1.1687    0.7880 C   0  0  1  0  0  0  0  0  0  0  0  0
   -3.1654   -2.1567    1.1600 H   0  0  0  0  0  0  0  0  0  0  0  0
   -1.4475   -0.7911   -1.4155 C   0  0  1  0  0  0  0  0  0  0  0  0
   -1.4431   -1.1293   -2.4689 H   0  0  0  0  0  0  0  0  0  0  0  0
   -3.6834    0.0000   -1.3136 C   0  0  0  0  0  0  0  0  0  0  0  0
   -3.7006    0.0000   -2.4228 H   0  0  0  0  0  0  0  0  0  0  0  0
   -4.7351   -0.0000   -0.9745 H   0  0  0  0  0  0  0  0  0  0  0  0
  1  2  1  0  0  0  0
  1  3  1  0  0  0  0
  3  7  1  0  0  0  0
  3  4  1  1  0  0  0
  5  6  1  6  0  0  0
  5 14  1  0  0  0  0
  7  8  1  1  0  0  0
  9  1  1  0  0  0  0
 10  9  1  0  0  0  0
 11 12  1  0  0  0  0
 13 11  1  0  0  0  0
 14 15  1  1  0  0  0
 14 11  1  0  0  0  0
 14  7  1  0  0  0  0
 16 17  1  6  0  0  0
 16 24  1  0  0  0  0
 18 19  1  0  0  0  0
 18  7  1  0  0  0  0
 20 21  1  6  0  0  0
 20  5  1  0  0  0  0
 20 22  1  0  0  0  0
 22 18  1  0  0  0  0
 23 22  1  0  0  0  0
 24 25  1  1  0  0  0
 24 11  1  0  0  0  0
 24  3  1  0  0  0  0
 26 27  1  6  0  0  0
 26 20  1  0  0  0  0
 26 16  1  0  0  0  0
 26  9  1  0  0  0  0
 28 30  1  0  0  0  0
 28 16  1  0  0  0  0
 28  5  1  0  0  0  0
 29 28  1  0  0  0  0
M  END
