7
 OpenBabel05122313113D

 15 15  0  0  0  0  0  0  0  0999 V2000
    0.3185    6.1530    1.7230 O   0  0  0  0  0  0  0  0  0  0  0  0
    0.7787    6.3262   -0.4080 O   0  0  0  0  0  0  0  0  0  0  0  0
    1.0626    2.3937   -3.1386 O   0  0  0  0  0  0  0  0  0  0  0  0
    0.0361    0.5763   -2.5088 O   0  0  0  0  0  0  0  0  0  0  0  0
    0.4864    5.6773    0.5978 N   0  0  0  0  0  0  0  0  0  0  0  0
    0.5013    1.7038   -2.2885 N   0  0  0  0  0  0  0  0  0  0  0  0
    0.0553    1.4115    0.1684 C   0  0  0  0  0  3  0  0  0  0  0  0
    0.3498    2.2588   -0.9260 C   0  0  0  0  0  0  0  0  0  0  0  0
    0.5109    3.6451   -0.8096 C   0  0  0  0  0  0  0  0  0  0  0  0
    0.7633    4.2619   -1.6802 H   0  0  0  0  0  0  0  0  0  0  0  0
    0.3296    4.2176    0.4482 C   0  0  0  0  0  0  0  0  0  0  0  0
    0.0076    3.4376    1.5713 C   0  0  0  0  0  0  0  0  0  0  0  0
   -0.1348    3.9359    2.5394 H   0  0  0  0  0  0  0  0  0  0  0  0
   -0.1157    2.0548    1.4205 C   0  0  0  0  0  0  0  0  0  0  0  0
   -0.3659    1.4482    2.3038 H   0  0  0  0  0  0  0  0  0  0  0  0
  2  5  2  0  0  0  0
  3  6  2  0  0  0  0
  4  6  2  0  0  0  0
  5  1  2  0  0  0  0
  6  8  1  0  0  0  0
  7 14  1  0  0  0  0
  8  9  1  0  0  0  0
  8  7  2  0  0  0  0
  9 11  2  0  0  0  0
 10  9  1  0  0  0  0
 11  5  1  0  0  0  0
 11 12  1  0  0  0  0
 12 13  1  0  0  0  0
 14 12  2  0  0  0  0
 14 15  1  0  0  0  0
M  END
