2
 OpenBabel05122313113D

 25 26  0  0  1  0  0  0  0  0999 V2000
    2.3994   -0.2404   -0.2693 N   0  0  0  0  0  0  0  0  0  0  0  0
   -1.0163    0.5427   -0.0901 C   0  0  0  0  0  3  0  0  0  0  0  0
    0.2240    0.7750   -0.1229 C   0  0  0  0  0  0  0  0  0  0  0  0
    1.6021    0.8917   -0.1033 C   0  0  0  0  0  0  0  0  0  0  0  0
    2.2579    2.1548    0.0942 C   0  0  0  0  0  0  0  0  0  0  0  0
    1.6106    3.0354    0.1949 H   0  0  0  0  0  0  0  0  0  0  0  0
    3.6240    2.2435    0.1614 C   0  0  0  0  0  0  0  0  0  0  0  0
    4.1165    3.2158    0.3149 H   0  0  0  0  0  0  0  0  0  0  0  0
    4.4356    1.0673    0.0508 C   0  0  0  0  0  0  0  0  0  0  0  0
    3.7870   -0.1966   -0.1542 C   0  0  1  0  0  3  0  0  0  0  0  0
    4.5846   -1.3671   -0.2275 C   0  0  0  0  0  0  0  0  0  0  0  0
    4.1207   -2.3525   -0.3516 H   0  0  0  0  0  0  0  0  0  0  0  0
    5.9737   -1.2813   -0.1248 C   0  0  0  0  0  0  0  0  0  0  0  0
    6.5696   -2.2044   -0.1828 H   0  0  0  0  0  0  0  0  0  0  0  0
    6.6171   -0.0394    0.0569 C   0  0  0  0  0  0  0  0  0  0  0  0
    7.7127    0.0115    0.1340 H   0  0  0  0  0  0  0  0  0  0  0  0
    5.8483    1.1175    0.1465 C   0  0  0  0  0  0  0  0  0  0  0  0
    6.3247    2.0982    0.2976 H   0  0  0  0  0  0  0  0  0  0  0  0
    1.7118   -1.5207   -0.5241 C   0  0  0  0  0  0  0  0  0  0  0  0
    2.3547   -2.1247   -1.1910 H   0  0  0  0  0  0  0  0  0  0  0  0
    0.7932   -1.2715   -1.0876 H   0  0  0  0  0  0  0  0  0  0  0  0
    1.3449   -2.2706    0.7534 C   0  0  0  0  0  0  0  0  0  0  0  0
    2.2408   -2.5500    1.3431 H   0  0  0  0  0  0  0  0  0  0  0  0
    0.7908   -3.1929    0.4911 H   0  0  0  0  0  0  0  0  0  0  0  0
    0.6811   -1.6517    1.3882 H   0  0  0  0  0  0  0  0  0  0  0  0
  1 10  1  0  0  0  0
  1  4  1  0  0  0  0
  3  4  1  0  0  0  0
  3  2  3  0  0  0  0
  4  5  2  0  0  0  0
  5  7  1  0  0  0  0
  5  6  1  0  0  0  0
  7  8  1  0  0  0  0
  9 17  1  0  0  0  0
  9  7  2  0  0  0  0
 10 11  1  1  0  0  0
 10  9  1  0  0  0  0
 11 13  2  0  0  0  0
 12 11  1  0  0  0  0
 13 15  1  0  0  0  0
 14 13  1  0  0  0  0
 15 16  1  0  0  0  0
 15 17  2  0  0  0  0
 17 18  1  0  0  0  0
 19  1  1  0  0  0  0
 19 22  1  0  0  0  0
 20 19  1  0  0  0  0
 21 19  1  0  0  0  0
 22 23  1  0  0  0  0
 22 25  1  0  0  0  0
 24 22  1  0  0  0  0
M  END
