1
 OpenBabel05122313113D

 14 13  0  0  0  0  0  0  0  0999 V2000
   -1.7340    0.6710    0.9311 C   0  0  0  0  0  3  0  0  0  0  0  0
   -3.0540    1.0066    0.1862 C   0  0  0  0  0  0  0  0  0  0  0  0
   -4.1973    0.9780    1.2168 C   0  0  0  0  0  0  0  0  0  0  0  0
   -3.0188    2.3941   -0.4816 C   0  0  0  0  0  0  0  0  0  0  0  0
   -3.4038    0.0141   -0.7809 O   0  0  0  0  0  0  0  0  0  0  0  0
   -1.9827   -0.1443    1.6415 H   0  0  0  0  0  0  0  0  0  0  0  0
   -1.4683    1.5559    1.5484 H   0  0  0  0  0  0  0  0  0  0  0  0
   -4.0233    1.7060    2.0342 H   0  0  0  0  0  0  0  0  0  0  0  0
   -4.2904   -0.0341    1.6599 H   0  0  0  0  0  0  0  0  0  0  0  0
   -5.1579    1.2243    0.7210 H   0  0  0  0  0  0  0  0  0  0  0  0
   -2.1907    2.4504   -1.2139 H   0  0  0  0  0  0  0  0  0  0  0  0
   -2.9020    3.2016    0.2708 H   0  0  0  0  0  0  0  0  0  0  0  0
   -3.9693    2.5636   -1.0254 H   0  0  0  0  0  0  0  0  0  0  0  0
   -2.6964    0.0822   -1.4735 H   0  0  0  0  0  0  0  0  0  0  0  0
  1  7  1  0  0  0  0
  1  6  1  0  0  0  0
  2  1  1  0  0  0  0
  2  3  1  0  0  0  0
  3  9  1  0  0  0  0
  3  8  1  0  0  0  0
  4  2  1  0  0  0  0
  4 12  1  0  0  0  0
  5  2  1  0  0  0  0
 10  3  1  0  0  0  0
 11  4  1  0  0  0  0
 13  4  1  0  0  0  0
 14  5  1  0  0  0  0
M  END
