2
 OpenBabel05122313113D

 18 18  0  0  0  0  0  0  0  0999 V2000
    0.7376   -1.3549    1.8900 N   0  0  0  0  0  0  0  0  0  0  0  0
    0.8039   -0.4315    0.9252 C   0  0  0  0  0  2  0  0  0  0  0  0
    2.1215   -0.3089    0.2349 C   0  0  0  0  0  0  0  0  0  0  0  0
    2.2803   -0.8067   -1.0767 C   0  0  0  0  0  0  0  0  0  0  0  0
    3.5096   -0.6680   -1.7369 C   0  0  0  0  0  0  0  0  0  0  0  0
    4.5868   -0.0218   -1.1074 C   0  0  0  0  0  0  0  0  0  0  0  0
    4.4334    0.4763    0.1964 C   0  0  0  0  0  0  0  0  0  0  0  0
    3.2119    0.3256    0.8699 C   0  0  0  0  0  0  0  0  0  0  0  0
    1.7386   -2.3330    2.2878 C   0  0  0  0  0  0  0  0  0  0  0  0
   -0.1757   -1.4508    2.3448 H   0  0  0  0  0  0  0  0  0  0  0  0
    1.4211   -1.2942   -1.5643 H   0  0  0  0  0  0  0  0  0  0  0  0
    3.6250   -1.0643   -2.7573 H   0  0  0  0  0  0  0  0  0  0  0  0
    5.5463    0.0945   -1.6335 H   0  0  0  0  0  0  0  0  0  0  0  0
    5.2724    0.9849    0.6956 H   0  0  0  0  0  0  0  0  0  0  0  0
    3.0905    0.7146    1.8930 H   0  0  0  0  0  0  0  0  0  0  0  0
    2.6158   -2.2680    1.6206 H   0  0  0  0  0  0  0  0  0  0  0  0
    1.3134   -3.3552    2.2201 H   0  0  0  0  0  0  0  0  0  0  0  0
    2.0724   -2.1610    3.3329 H   0  0  0  0  0  0  0  0  0  0  0  0
  1  9  1  0  0  0  0
  1 10  1  0  0  0  0
  2  1  1  0  0  0  0
  3  8  1  0  0  0  0
  3  2  1  0  0  0  0
  4  3  2  0  0  0  0
  5  6  2  0  0  0  0
  5  4  1  0  0  0  0
  6  7  1  0  0  0  0
  7 14  1  0  0  0  0
  7  8  2  0  0  0  0
  8 15  1  0  0  0  0
  9 18  1  0  0  0  0
 11  4  1  0  0  0  0
 12  5  1  0  0  0  0
 13  6  1  0  0  0  0
 16  9  1  0  0  0  0
 17  9  1  0  0  0  0
M  END
