9
 OpenBabel05122313113D

 11 11  0  0  0  0  0  0  0  0999 V2000
   -2.1235    0.0747   -0.0001 S   0  0  0  0  0  0  0  0  0  0  0  0
   -3.3283   -0.7844   -0.0010 O   0  0  0  0  0  0  0  0  0  0  0  0
   -2.2872    1.5449    0.0016 O   0  0  0  0  0  0  0  0  0  0  0  0
   -0.8839   -0.4846    1.2166 C   0  0  0  0  0  3  0  0  0  0  0  0
   -0.2951   -1.6932    0.7152 C   0  0  0  0  0  3  0  0  0  0  0  0
   -1.0188   -0.2449    2.2805 H   0  0  0  0  0  0  0  0  0  0  0  0
    0.1188   -2.5065    1.3273 H   0  0  0  0  0  0  0  0  0  0  0  0
   -0.8837   -0.4818   -1.2178 C   0  0  0  0  0  3  0  0  0  0  0  0
   -0.2950   -1.6916   -0.7191 C   0  0  0  0  0  3  0  0  0  0  0  0
   -1.0187   -0.2397   -2.2811 H   0  0  0  0  0  0  0  0  0  0  0  0
    0.1189   -2.5035   -1.3330 H   0  0  0  0  0  0  0  0  0  0  0  0
  1  3  2  0  0  0  0
  1  4  1  0  0  0  0
  2  1  2  0  0  0  0
  4  6  1  0  0  0  0
  5  4  1  0  0  0  0
  5  7  1  0  0  0  0
  8  9  1  0  0  0  0
  8  1  1  0  0  0  0
  9  5  1  0  0  0  0
 10  8  1  0  0  0  0
 11  9  1  0  0  0  0
M  END
