6
 OpenBabel05122313113D

 39 40  0  0  1  0  0  0  0  0999 V2000
    0.2591   -0.3652    2.0703 O   0  0  0  0  0  0  0  0  0  0  0  0
    2.0512   -0.0828    3.4440 O   0  0  0  0  0  0  0  0  0  0  0  0
   -0.8014   -0.4564   -0.0213 O   0  0  0  0  0  0  0  0  0  0  0  0
    1.6006   -0.5116    2.4101 C   0  0  0  0  0  0  0  0  0  0  0  0
    2.2759   -1.2727    1.3101 C   0  0  0  0  0  3  0  0  0  0  0  0
    1.2763   -1.6373    0.3630 C   0  0  0  0  0  3  0  0  0  0  0  0
   -0.0598   -1.1676    0.9006 C   0  0  1  0  0  0  0  0  0  0  0  0
   -2.2169   -0.3473    0.2710 C   0  0  1  0  0  0  0  0  0  0  0  0
   -2.7742    0.8578   -0.4992 C   0  0  1  0  0  0  0  0  0  0  0  0
   -4.2879    0.9572   -0.2308 C   0  0  0  0  0  0  0  0  0  0  0  0
   -5.0312   -0.3334   -0.5893 C   0  0  0  0  0  0  0  0  0  0  0  0
   -4.4566   -1.5550    0.1430 C   0  0  2  0  0  0  0  0  0  0  0  0
   -2.9432   -1.6405   -0.1110 C   0  0  0  0  0  0  0  0  0  0  0  0
   -5.1693   -2.8525   -0.2433 C   0  0  0  0  0  0  0  0  0  0  0  0
   -1.9874    2.1686   -0.2387 C   0  0  0  0  0  0  0  0  0  0  0  0
   -2.5001    3.3218   -1.1110 C   0  0  0  0  0  0  0  0  0  0  0  0
   -1.9254    2.5724    1.2401 C   0  0  0  0  0  0  0  0  0  0  0  0
    3.1863   -1.8351    1.5559 H   0  0  0  0  0  0  0  0  0  0  0  0
    1.2820   -2.5674   -0.2243 H   0  0  0  0  0  0  0  0  0  0  0  0
   -0.6362   -2.0446    1.2845 H   0  0  0  0  0  0  0  0  0  0  0  0
   -2.3373   -0.1626    1.3628 H   0  0  0  0  0  0  0  0  0  0  0  0
   -2.6425    0.6202   -1.5812 H   0  0  0  0  0  0  0  0  0  0  0  0
   -4.4579    1.1927    0.8431 H   0  0  0  0  0  0  0  0  0  0  0  0
   -4.7117    1.8061   -0.8036 H   0  0  0  0  0  0  0  0  0  0  0  0
   -6.1136   -0.2308   -0.3623 H   0  0  0  0  0  0  0  0  0  0  0  0
   -4.9574   -0.5100   -1.6867 H   0  0  0  0  0  0  0  0  0  0  0  0
   -4.6034   -1.3889    1.2360 H   0  0  0  0  0  0  0  0  0  0  0  0
   -2.7539   -1.8382   -1.1897 H   0  0  0  0  0  0  0  0  0  0  0  0
   -2.5191   -2.5009    0.4505 H   0  0  0  0  0  0  0  0  0  0  0  0
   -5.0466   -3.0624   -1.3270 H   0  0  0  0  0  0  0  0  0  0  0  0
   -6.2570   -2.7927   -0.0351 H   0  0  0  0  0  0  0  0  0  0  0  0
   -4.7647   -3.7220    0.3142 H   0  0  0  0  0  0  0  0  0  0  0  0
   -0.9497    1.9538   -0.5652 H   0  0  0  0  0  0  0  0  0  0  0  0
   -3.5007    3.6766   -0.7870 H   0  0  0  0  0  0  0  0  0  0  0  0
   -2.5765    3.0252   -2.1779 H   0  0  0  0  0  0  0  0  0  0  0  0
   -1.8134    4.1904   -1.0517 H   0  0  0  0  0  0  0  0  0  0  0  0
   -1.4217    1.8048    1.8604 H   0  0  0  0  0  0  0  0  0  0  0  0
   -2.9363    2.7558    1.6610 H   0  0  0  0  0  0  0  0  0  0  0  0
   -1.3461    3.5100    1.3584 H   0  0  0  0  0  0  0  0  0  0  0  0
  1  4  1  0  0  0  0
  3  8  1  0  0  0  0
  3  7  1  0  0  0  0
  4  2  2  0  0  0  0
  5 18  1  0  0  0  0
  5  4  1  0  0  0  0
  6  7  1  0  0  0  0
  6  5  1  0  0  0  0
  7 20  1  1  0  0  0
  7  1  1  0  0  0  0
  8 21  1  1  0  0  0
  9 22  1  6  0  0  0
  9 15  1  0  0  0  0
  9 10  1  0  0  0  0
  9  8  1  0  0  0  0
 10 23  1  0  0  0  0
 11 25  1  0  0  0  0
 11 10  1  0  0  0  0
 11 12  1  0  0  0  0
 12 27  1  1  0  0  0
 13 12  1  0  0  0  0
 13  8  1  0  0  0  0
 13 29  1  0  0  0  0
 14 31  1  0  0  0  0
 14 12  1  0  0  0  0
 14 32  1  0  0  0  0
 15 17  1  0  0  0  0
 16 36  1  0  0  0  0
 16 34  1  0  0  0  0
 16 15  1  0  0  0  0
 17 39  1  0  0  0  0
 17 38  1  0  0  0  0
 17 37  1  0  0  0  0
 19  6  1  0  0  0  0
 24 10  1  0  0  0  0
 26 11  1  0  0  0  0
 28 13  1  0  0  0  0
 30 14  1  0  0  0  0
 33 15  1  0  0  0  0
 35 16  1  0  0  0  0
M  END
