4
 OpenBabel05122313113D

 29 30  0  0  0  0  0  0  0  0999 V2000
   -2.4922   -1.1696    0.6780 C   0  0  0  0  0  0  0  0  0  0  0  0
   -1.8779   -2.3001    1.2951 C   0  0  0  0  0  0  0  0  0  0  0  0
   -1.6983   -2.4184    2.3703 H   0  0  0  0  0  0  0  0  0  0  0  0
   -1.5345   -3.2547    0.2901 C   0  0  0  0  0  3  0  0  0  0  0  0
   -1.0320   -4.2173    0.4447 H   0  0  0  0  0  0  0  0  0  0  0  0
   -1.9984   -2.7462   -0.9584 C   0  0  0  0  0  0  0  0  0  0  0  0
   -1.8763   -3.2315   -1.9314 H   0  0  0  0  0  0  0  0  0  0  0  0
   -2.5582   -1.4692   -0.7295 C   0  0  0  0  0  0  0  0  0  0  0  0
   -2.9462   -0.7891   -1.4965 H   0  0  0  0  0  0  0  0  0  0  0  0
   -3.2702    0.3411    1.5244 Si  0  0  0  0  0  0  0  0  0  0  0  0
   -2.0335    1.3801    2.5014 C   0  0  0  0  0  0  0  0  0  0  0  0
   -2.5409    2.2772    2.9119 H   0  0  0  0  0  0  0  0  0  0  0  0
   -1.1979    1.7090    1.8540 H   0  0  0  0  0  0  0  0  0  0  0  0
   -1.6197    0.8126    3.3594 H   0  0  0  0  0  0  0  0  0  0  0  0
   -4.5695   -0.3530    2.7173 C   0  0  0  0  0  0  0  0  0  0  0  0
   -5.0912    0.4694    3.2482 H   0  0  0  0  0  0  0  0  0  0  0  0
   -4.0970   -1.0086    3.4779 H   0  0  0  0  0  0  0  0  0  0  0  0
   -5.3320   -0.9542    2.1826 H   0  0  0  0  0  0  0  0  0  0  0  0
   -4.1220    1.3705    0.1885 C   0  0  0  0  0  0  0  0  0  0  0  0
   -3.6482    2.6456   -0.1908 C   0  0  0  0  0  0  0  0  0  0  0  0
   -2.7516    3.0628    0.2926 H   0  0  0  0  0  0  0  0  0  0  0  0
   -4.2918    3.3892   -1.1920 C   0  0  0  0  0  0  0  0  0  0  0  0
   -3.9040    4.3802   -1.4738 H   0  0  0  0  0  0  0  0  0  0  0  0
   -5.4227    2.8671   -1.8393 C   0  0  0  0  0  0  0  0  0  0  0  0
   -5.9261    3.4482   -2.6273 H   0  0  0  0  0  0  0  0  0  0  0  0
   -5.9077    1.5994   -1.4801 C   0  0  0  0  0  0  0  0  0  0  0  0
   -6.7931    1.1835   -1.9855 H   0  0  0  0  0  0  0  0  0  0  0  0
   -5.2627    0.8628   -0.4748 C   0  0  0  0  0  0  0  0  0  0  0  0
   -5.6577   -0.1313   -0.2066 H   0  0  0  0  0  0  0  0  0  0  0  0
  1  2  2  0  0  0  0
  1 10  1  0  0  0  0
  2  3  1  0  0  0  0
  4  5  1  0  0  0  0
  4  2  1  0  0  0  0
  6  8  2  0  0  0  0
  6  4  1  0  0  0  0
  7  6  1  0  0  0  0
  8  1  1  0  0  0  0
  9  8  1  0  0  0  0
 10 11  1  0  0  0  0
 10 15  1  0  0  0  0
 11 12  1  0  0  0  0
 11 14  1  0  0  0  0
 13 11  1  0  0  0  0
 15 16  1  0  0  0  0
 15 17  1  0  0  0  0
 18 15  1  0  0  0  0
 19 10  1  0  0  0  0
 20 19  1  0  0  0  0
 20 21  1  0  0  0  0
 22 20  2  0  0  0  0
 23 22  1  0  0  0  0
 24 26  2  0  0  0  0
 24 22  1  0  0  0  0
 25 24  1  0  0  0  0
 26 28  1  0  0  0  0
 27 26  1  0  0  0  0
 28 29  1  0  0  0  0
 28 19  2  0  0  0  0
M  END
