24
 OpenBabel05122313113D

 35 37  0  0  1  0  0  0  0  0999 V2000
   -0.4943    1.4440   -0.5036 O   0  0  0  0  0  0  0  0  0  0  0  0
   -2.1836    2.0937    0.8755 O   0  0  0  0  0  0  0  0  0  0  0  0
   -2.0546    0.0037   -1.5472 O   0  0  0  0  0  0  0  0  0  0  0  0
   -1.2211   -1.1383    0.6974 O   0  0  0  0  0  0  0  0  0  0  0  0
   -1.6664    1.3371   -1.2817 C   0  0  1  0  0  0  0  0  0  0  0  0
   -1.4957    1.8170   -2.2695 H   0  0  0  0  0  0  0  0  0  0  0  0
   -2.7844    1.9688   -0.4028 C   0  0  1  0  0  0  0  0  0  0  0  0
   -3.1316    2.9531   -0.7914 H   0  0  0  0  0  0  0  0  0  0  0  0
   -3.8837    0.9106   -0.3896 C   0  0  0  0  0  0  0  0  0  0  0  0
   -4.6130    1.1236   -1.1965 H   0  0  0  0  0  0  0  0  0  0  0  0
   -4.4262    0.9047    0.5753 H   0  0  0  0  0  0  0  0  0  0  0  0
   -3.1338   -0.4004   -0.6943 C   0  0  2  0  0  0  0  0  0  0  0  0
   -3.7679   -1.0755   -1.3066 H   0  0  0  0  0  0  0  0  0  0  0  0
   -2.6321   -1.2039    0.5690 C   0  0  1  0  0  0  0  0  0  0  0  0
   -3.0512   -0.7264    1.4773 H   0  0  0  0  0  0  0  0  0  0  0  0
   -2.9643   -2.7273    0.5033 C   0  0  0  0  0  0  0  0  0  0  0  0
   -3.6377   -2.9526   -0.3485 H   0  0  0  0  0  0  0  0  0  0  0  0
   -3.4784   -3.0694    1.4219 H   0  0  0  0  0  0  0  0  0  0  0  0
   -1.5830   -3.4034    0.3386 C   0  0  0  0  0  0  0  0  0  0  0  0
   -1.2251   -3.8185    1.3033 H   0  0  0  0  0  0  0  0  0  0  0  0
   -1.5819   -4.2214   -0.4080 H   0  0  0  0  0  0  0  0  0  0  0  0
   -0.6836   -2.2236   -0.0726 C   0  0  2  0  0  0  0  0  0  0  0  0
   -0.8376   -2.0054   -1.1553 H   0  0  0  0  0  0  0  0  0  0  0  0
    0.7976   -2.3488    0.2134 C   0  0  0  0  0  3  0  0  0  0  0  0
    1.2665   -3.1090   -0.4415 H   0  0  0  0  0  0  0  0  0  0  0  0
    0.9796   -2.6302    1.2714 H   0  0  0  0  0  0  0  0  0  0  0  0
   -0.7758    2.2317    0.6775 C   0  0  0  0  0  0  0  0  0  0  0  0
   -0.3776    3.6836    0.3965 C   0  0  0  0  0  0  0  0  0  0  0  0
    0.7005    3.7174    0.1470 H   0  0  0  0  0  0  0  0  0  0  0  0
   -0.5700    4.3193    1.2827 H   0  0  0  0  0  0  0  0  0  0  0  0
   -0.9455    4.0938   -0.4620 H   0  0  0  0  0  0  0  0  0  0  0  0
   -0.0659    1.6569    1.8910 C   0  0  0  0  0  0  0  0  0  0  0  0
   -0.3240    0.5866    1.9917 H   0  0  0  0  0  0  0  0  0  0  0  0
   -0.3939    2.2036    2.7960 H   0  0  0  0  0  0  0  0  0  0  0  0
    1.0282    1.7822    1.7803 H   0  0  0  0  0  0  0  0  0  0  0  0
  1 27  1  0  0  0  0
  3  5  1  0  0  0  0
  3 12  1  0  0  0  0
  5  6  1  6  0  0  0
  5  1  1  0  0  0  0
  5  7  1  0  0  0  0
  7  8  1  6  0  0  0
  7  9  1  0  0  0  0
  7  2  1  0  0  0  0
  9 11  1  0  0  0  0
 10  9  1  0  0  0  0
 12 13  1  6  0  0  0
 12  9  1  0  0  0  0
 12 14  1  0  0  0  0
 14  4  1  0  0  0  0
 14 15  1  1  0  0  0
 16 14  1  0  0  0  0
 16 18  1  0  0  0  0
 17 16  1  0  0  0  0
 19 16  1  0  0  0  0
 19 20  1  0  0  0  0
 21 19  1  0  0  0  0
 22 23  1  6  0  0  0
 22 24  1  0  0  0  0
 22 19  1  0  0  0  0
 22  4  1  0  0  0  0
 24 26  1  0  0  0  0
 25 24  1  0  0  0  0
 27  2  1  0  0  0  0
 27 32  1  0  0  0  0
 28 27  1  0  0  0  0
 28 30  1  0  0  0  0
 29 28  1  0  0  0  0
 31 28  1  0  0  0  0
 32 33  1  0  0  0  0
 32 34  1  0  0  0  0
 35 32  1  0  0  0  0
M  END
