16
 OpenBabel05122313113D

 40 43  0  0  1  0  0  0  0  0999 V2000
    0.4766   -1.7109   -0.9578 S   0  0  1  0  0  0  0  0  0  0  0  0
    0.6635   -1.7632   -2.4509 O   0  0  0  0  0  0  0  0  0  0  0  0
    0.0577    0.9488    1.7148 C   0  0  0  0  0  0  0  0  0  0  0  0
    1.2905    1.7226    1.6090 C   0  0  0  0  0  0  0  0  0  0  0  0
    1.9504    1.9698    2.4489 H   0  0  0  0  0  0  0  0  0  0  0  0
    1.4340    2.1942    0.2496 C   0  0  0  0  0  0  0  0  0  0  0  0
    2.4261    2.9802   -0.3961 C   0  0  0  0  0  0  0  0  0  0  0  0
    3.2457    3.4224    0.1869 H   0  0  0  0  0  0  0  0  0  0  0  0
    2.3438    3.1462   -1.7708 C   0  0  0  0  0  0  0  0  0  0  0  0
    3.1091    3.7446   -2.2876 H   0  0  0  0  0  0  0  0  0  0  0  0
    1.3051    2.5462   -2.5446 C   0  0  0  0  0  0  0  0  0  0  0  0
    1.3002    2.6907   -3.6348 H   0  0  0  0  0  0  0  0  0  0  0  0
    0.3168    1.7751   -1.9517 C   0  0  0  0  0  0  0  0  0  0  0  0
   -0.4727    1.2910   -2.5439 H   0  0  0  0  0  0  0  0  0  0  0  0
    0.3679    1.5938   -0.5419 C   0  0  0  0  0  0  0  0  0  0  0  0
   -0.4575    0.7863    0.3736 C   0  0  1  0  0  3  0  0  0  0  0  0
   -1.5775   -0.0851   -0.0666 C   0  0  0  0  0  0  0  0  0  0  0  0
   -1.2924   -1.3084   -0.6750 C   0  0  0  0  0  0  0  0  0  0  0  0
   -2.3041   -2.1384   -1.2193 C   0  0  0  0  0  0  0  0  0  0  0  0
   -2.0326   -3.0634   -1.7485 H   0  0  0  0  0  0  0  0  0  0  0  0
   -3.6301   -1.7673   -1.0745 C   0  0  0  0  0  0  0  0  0  0  0  0
   -4.4310   -2.4107   -1.4700 H   0  0  0  0  0  0  0  0  0  0  0  0
   -3.9867   -0.5474   -0.4251 C   0  0  0  0  0  0  0  0  0  0  0  0
   -5.3458   -0.1482   -0.2689 C   0  0  0  0  0  0  0  0  0  0  0  0
   -6.1380   -0.8128   -0.6465 H   0  0  0  0  0  0  0  0  0  0  0  0
   -5.6683    1.0545    0.3422 C   0  0  0  0  0  0  0  0  0  0  0  0
   -6.7223    1.3492    0.4555 H   0  0  0  0  0  0  0  0  0  0  0  0
   -4.6425    1.9129    0.8203 C   0  0  0  0  0  0  0  0  0  0  0  0
   -4.9090    2.8675    1.2980 H   0  0  0  0  0  0  0  0  0  0  0  0
   -3.3091    1.5550    0.6872 C   0  0  0  0  0  0  0  0  0  0  0  0
   -2.5137    2.2201    1.0549 H   0  0  0  0  0  0  0  0  0  0  0  0
   -2.9461    0.3207    0.0733 C   0  0  0  0  0  0  0  0  0  0  0  0
   -0.5471    0.4047    2.9650 C   0  0  0  0  0  0  0  0  0  0  0  0
   -1.3224   -0.3493    2.7317 H   0  0  0  0  0  0  0  0  0  0  0  0
   -1.0195    1.2223    3.5490 H   0  0  0  0  0  0  0  0  0  0  0  0
    0.2300   -0.0814    3.5864 H   0  0  0  0  0  0  0  0  0  0  0  0
    0.6178   -3.4013   -0.3181 C   0  0  0  0  0  0  0  0  0  0  0  0
    1.6653   -3.6822   -0.5365 H   0  0  0  0  0  0  0  0  0  0  0  0
   -0.0919   -4.0468   -0.8667 H   0  0  0  0  0  0  0  0  0  0  0  0
    0.4600   -3.3730    0.7762 H   0  0  0  0  0  0  0  0  0  0  0  0
  1  2  2  6  0  0  0
  1 18  1  0  0  0  0
  1 37  1  0  0  0  0
  3 33  1  0  0  0  0
  4  3  2  0  0  0  0
  4  5  1  0  0  0  0
  6  4  1  0  0  0  0
  7  8  1  0  0  0  0
  7  6  1  0  0  0  0
  9  7  2  0  0  0  0
 10  9  1  0  0  0  0
 11 13  2  0  0  0  0
 11  9  1  0  0  0  0
 12 11  1  0  0  0  0
 13 15  1  0  0  0  0
 14 13  1  0  0  0  0
 15  6  2  0  0  0  0
 15 16  1  0  0  0  0
 16 17  1  6  0  0  0
 16  3  1  0  0  0  0
 17 32  1  0  0  0  0
 18 17  2  0  0  0  0
 19 21  2  0  0  0  0
 19 18  1  0  0  0  0
 20 19  1  0  0  0  0
 21 23  1  0  0  0  0
 22 21  1  0  0  0  0
 23 24  2  0  0  0  0
 23 32  1  0  0  0  0
 24 26  1  0  0  0  0
 25 24  1  0  0  0  0
 26 27  1  0  0  0  0
 26 28  2  0  0  0  0
 28 29  1  0  0  0  0
 30 28  1  0  0  0  0
 30 31  1  0  0  0  0
 32 30  2  0  0  0  0
 33 35  1  0  0  0  0
 33 36  1  0  0  0  0
 34 33  1  0  0  0  0
 37 40  1  0  0  0  0
 38 37  1  0  0  0  0
 39 37  1  0  0  0  0
M  END
