1
 OpenBabel05122313113D

 13 13  0  0  0  0  0  0  0  0999 V2000
    0.4982   -2.7360   -1.6838 C   0  0  0  0  0  3  0  0  0  0  0  0
    1.0711   -3.4077   -1.0269 H   0  0  0  0  0  0  0  0  0  0  0  0
    0.9568   -2.5282   -2.6643 H   0  0  0  0  0  0  0  0  0  0  0  0
   -0.9254   -2.7756   -1.6175 C   0  0  0  0  0  0  0  0  0  0  0  0
   -1.8395   -1.8628   -2.2267 C   0  0  0  0  0  0  0  0  0  0  0  0
   -1.6444   -1.2642   -3.1248 H   0  0  0  0  0  0  0  0  0  0  0  0
   -3.1196   -2.1445   -1.6496 C   0  0  0  0  0  0  0  0  0  0  0  0
   -4.0716   -1.6534   -1.8798 H   0  0  0  0  0  0  0  0  0  0  0  0
   -2.9160   -3.1402   -0.7143 C   0  0  0  0  0  0  0  0  0  0  0  0
   -1.5910   -3.5160   -0.6782 O   0  0  0  0  0  0  0  0  0  0  0  0
   -3.8241   -3.7079    0.2896 C   0  0  0  0  0  0  0  0  0  0  0  0
   -4.9016   -3.4143    0.1284 H   0  0  0  0  0  0  0  0  0  0  0  0
   -3.4588   -4.3939    1.2301 O   0  0  0  0  0  0  0  0  0  0  0  0
  1  4  1  0  0  0  0
  1  2  1  0  0  0  0
  3  1  1  0  0  0  0
  4 10  1  0  0  0  0
  5  7  1  0  0  0  0
  5  4  2  0  0  0  0
  6  5  1  0  0  0  0
  7  9  2  0  0  0  0
  8  7  1  0  0  0  0
  9 10  1  0  0  0  0
  9 11  1  0  0  0  0
 11 13  2  0  0  0  0
 12 11  1  0  0  0  0
M  END
