3
 OpenBabel05122313113D

 42 43  0  0  0  0  0  0  0  0999 V2000
   -1.2106   -2.8648   -0.1802 N   0  0  0  0  0  0  0  0  0  0  0  0
   -2.2160   -0.9379    0.1620 N   0  0  0  0  0  0  0  0  0  0  0  0
   -0.9982   -1.5117   -0.0887 C   0  0  0  0  0  2  0  0  0  0  0  0
   -2.5406   -3.2455    0.2879 C   0  0  0  0  0  0  0  0  0  0  0  0
   -2.4928   -3.6065    1.3430 H   0  0  0  0  0  0  0  0  0  0  0  0
   -2.9715   -4.0571   -0.3335 H   0  0  0  0  0  0  0  0  0  0  0  0
   -3.3065   -1.9244    0.1692 C   0  0  0  0  0  0  0  0  0  0  0  0
   -3.8905   -1.8582   -0.7773 H   0  0  0  0  0  0  0  0  0  0  0  0
   -3.9993   -1.7378    1.0135 H   0  0  0  0  0  0  0  0  0  0  0  0
   -2.5399    0.4527    0.1634 C   0  0  0  0  0  0  0  0  0  0  0  0
   -2.5935    1.1371    1.4046 C   0  0  0  0  0  0  0  0  0  0  0  0
   -2.9520    2.4982    1.3907 C   0  0  0  0  0  0  0  0  0  0  0  0
   -2.9932    3.0544    2.3398 H   0  0  0  0  0  0  0  0  0  0  0  0
   -3.2418    3.1565    0.1888 C   0  0  0  0  0  0  0  0  0  0  0  0
   -3.5192    4.2218    0.1986 H   0  0  0  0  0  0  0  0  0  0  0  0
   -3.1702    2.4641   -1.0269 C   0  0  0  0  0  0  0  0  0  0  0  0
   -3.3825    2.9939   -1.9682 H   0  0  0  0  0  0  0  0  0  0  0  0
   -2.8167    1.1021   -1.0677 C   0  0  0  0  0  0  0  0  0  0  0  0
   -2.6911    0.3866   -2.4066 C   0  0  0  0  0  0  0  0  0  0  0  0
   -2.3337   -0.6436   -2.2088 H   0  0  0  0  0  0  0  0  0  0  0  0
   -1.6300    1.0527   -3.2988 C   0  0  0  0  0  0  0  0  0  0  0  0
   -1.9119    2.0938   -3.5606 H   0  0  0  0  0  0  0  0  0  0  0  0
   -1.5118    0.4845   -4.2432 H   0  0  0  0  0  0  0  0  0  0  0  0
   -0.6433    1.0649   -2.7969 H   0  0  0  0  0  0  0  0  0  0  0  0
   -4.0515    0.2904   -3.1192 C   0  0  0  0  0  0  0  0  0  0  0  0
   -4.4471    1.2962   -3.3723 H   0  0  0  0  0  0  0  0  0  0  0  0
   -4.8110   -0.2146   -2.4878 H   0  0  0  0  0  0  0  0  0  0  0  0
   -3.9564   -0.2791   -4.0662 H   0  0  0  0  0  0  0  0  0  0  0  0
   -2.2284    0.4516    2.7132 C   0  0  0  0  0  0  0  0  0  0  0  0
   -1.8936   -0.5751    2.4645 H   0  0  0  0  0  0  0  0  0  0  0  0
   -3.4440    0.3486    3.6502 C   0  0  0  0  0  0  0  0  0  0  0  0
   -4.2892   -0.1844    3.1681 H   0  0  0  0  0  0  0  0  0  0  0  0
   -3.8128    1.3524    3.9485 H   0  0  0  0  0  0  0  0  0  0  0  0
   -3.1773   -0.1987    4.5774 H   0  0  0  0  0  0  0  0  0  0  0  0
   -1.0403    1.1486    3.3962 C   0  0  0  0  0  0  0  0  0  0  0  0
   -1.2909    2.1874    3.6971 H   0  0  0  0  0  0  0  0  0  0  0  0
   -0.1612    1.1759    2.7233 H   0  0  0  0  0  0  0  0  0  0  0  0
   -0.7423    0.5930    4.3080 H   0  0  0  0  0  0  0  0  0  0  0  0
   -0.1456   -3.8439   -0.2153 C   0  0  0  0  0  0  0  0  0  0  0  0
    0.2496   -4.0706    0.7996 H   0  0  0  0  0  0  0  0  0  0  0  0
    0.6769   -3.4630   -0.8536 H   0  0  0  0  0  0  0  0  0  0  0  0
   -0.5215   -4.7770   -0.6813 H   0  0  0  0  0  0  0  0  0  0  0  0
  1  3  1  0  0  0  0
  1  4  1  0  0  0  0
  2 10  1  0  0  0  0
  2  7  1  0  0  0  0
  3  2  1  0  0  0  0
  4  5  1  0  0  0  0
  6  4  1  0  0  0  0
  7  4  1  0  0  0  0
  7  9  1  0  0  0  0
  8  7  1  0  0  0  0
 10 11  1  0  0  0  0
 11 29  1  0  0  0  0
 12 11  2  0  0  0  0
 12 13  1  0  0  0  0
 14 15  1  0  0  0  0
 14 12  1  0  0  0  0
 16 14  2  0  0  0  0
 17 16  1  0  0  0  0
 18 16  1  0  0  0  0
 18 10  2  0  0  0  0
 19 20  1  0  0  0  0
 19 18  1  0  0  0  0
 21 24  1  0  0  0  0
 21 19  1  0  0  0  0
 22 21  1  0  0  0  0
 23 21  1  0  0  0  0
 25 27  1  0  0  0  0
 25 19  1  0  0  0  0
 26 25  1  0  0  0  0
 28 25  1  0  0  0  0
 29 35  1  0  0  0  0
 29 31  1  0  0  0  0
 30 29  1  0  0  0  0
 31 33  1  0  0  0  0
 31 34  1  0  0  0  0
 32 31  1  0  0  0  0
 35 36  1  0  0  0  0
 35 38  1  0  0  0  0
 37 35  1  0  0  0  0
 39  1  1  0  0  0  0
 39 40  1  0  0  0  0
 41 39  1  0  0  0  0
 42 39  1  0  0  0  0
M  END
