8
 OpenBabel05122313113D

 44 45  0  0  0  0  0  0  0  0999 V2000
   -2.6964    2.3822    0.1152 Si  0  0  0  0  0  0  0  0  0  0  0  0
   -3.4773   -1.9846    0.1958 Si  0  0  0  0  0  0  0  0  0  0  0  0
   -2.3152    0.8112   -0.5240 O   0  0  0  0  0  0  0  0  0  0  0  0
   -2.0523   -1.9345   -0.7670 O   0  0  0  0  0  0  0  0  0  0  0  0
    1.4264   -0.9224   -1.3521 C   0  0  0  0  0  0  0  0  0  0  0  0
    2.7383   -1.5048   -1.5260 C   0  0  0  0  0  0  0  0  0  0  0  0
    3.8698   -0.6991   -1.7725 C   0  0  0  0  0  0  0  0  0  0  0  0
    3.7507    0.7271   -1.7368 C   0  0  0  0  0  3  0  0  0  0  0  0
    2.5018    1.3218   -1.4569 C   0  0  0  0  0  3  0  0  0  0  0  0
    1.3098    0.5187   -1.3055 C   0  0  0  0  0  0  0  0  0  0  0  0
    0.0329    1.0934   -1.0317 C   0  0  0  0  0  0  0  0  0  0  0  0
   -1.0928    0.3102   -0.8168 C   0  0  0  0  0  0  0  0  0  0  0  0
   -0.9834   -1.1356   -0.9012 C   0  0  0  0  0  0  0  0  0  0  0  0
    0.2563   -1.7097   -1.1525 C   0  0  0  0  0  0  0  0  0  0  0  0
   -4.5321    2.2706    0.4912 C   0  0  0  0  0  0  0  0  0  0  0  0
   -2.3986    3.7009   -1.1977 C   0  0  0  0  0  0  0  0  0  0  0  0
   -1.6885    2.6639    1.6751 C   0  0  0  0  0  0  0  0  0  0  0  0
   -4.8934   -1.1931   -0.7535 C   0  0  0  0  0  0  0  0  0  0  0  0
   -3.1407   -1.2443    1.8931 C   0  0  0  0  0  0  0  0  0  0  0  0
   -3.7889   -3.8318    0.3619 C   0  0  0  0  0  0  0  0  0  0  0  0
    2.8381   -2.5987   -1.4935 H   0  0  0  0  0  0  0  0  0  0  0  0
    4.8547   -1.1637   -1.9164 H   0  0  0  0  0  0  0  0  0  0  0  0
    4.6435    1.3556   -1.8577 H   0  0  0  0  0  0  0  0  0  0  0  0
    2.4199    2.4143   -1.3698 H   0  0  0  0  0  0  0  0  0  0  0  0
   -0.0450    2.1880   -0.9907 H   0  0  0  0  0  0  0  0  0  0  0  0
    0.3187   -2.8062   -1.1922 H   0  0  0  0  0  0  0  0  0  0  0  0
   -4.7581    1.4360    1.1836 H   0  0  0  0  0  0  0  0  0  0  0  0
   -4.8682    3.2132    0.9707 H   0  0  0  0  0  0  0  0  0  0  0  0
   -5.1305    2.1271   -0.4306 H   0  0  0  0  0  0  0  0  0  0  0  0
   -2.8293    3.3869   -2.1703 H   0  0  0  0  0  0  0  0  0  0  0  0
   -2.9031    4.6412   -0.8922 H   0  0  0  0  0  0  0  0  0  0  0  0
   -1.3275    3.9348   -1.3552 H   0  0  0  0  0  0  0  0  0  0  0  0
   -1.8974    3.6779    2.0753 H   0  0  0  0  0  0  0  0  0  0  0  0
   -1.9674    1.9305    2.4588 H   0  0  0  0  0  0  0  0  0  0  0  0
   -0.5950    2.5797    1.5181 H   0  0  0  0  0  0  0  0  0  0  0  0
   -5.8181   -1.1675   -0.1406 H   0  0  0  0  0  0  0  0  0  0  0  0
   -4.6381   -0.1614   -1.0563 H   0  0  0  0  0  0  0  0  0  0  0  0
   -5.1082   -1.7823   -1.6682 H   0  0  0  0  0  0  0  0  0  0  0  0
   -2.2612   -1.7381    2.3547 H   0  0  0  0  0  0  0  0  0  0  0  0
   -2.9383   -0.1586    1.8478 H   0  0  0  0  0  0  0  0  0  0  0  0
   -4.0105   -1.4115    2.5618 H   0  0  0  0  0  0  0  0  0  0  0  0
   -2.9658   -4.3303    0.9127 H   0  0  0  0  0  0  0  0  0  0  0  0
   -4.7347   -4.0232    0.9099 H   0  0  0  0  0  0  0  0  0  0  0  0
   -3.8714   -4.3081   -0.6361 H   0  0  0  0  0  0  0  0  0  0  0  0
  1 15  1  0  0  0  0
  1 17  1  0  0  0  0
  2 20  1  0  0  0  0
  2 19  1  0  0  0  0
  3  1  1  0  0  0  0
  4  2  1  0  0  0  0
  5 10  2  0  0  0  0
  5 14  1  0  0  0  0
  6 21  1  0  0  0  0
  6  5  1  0  0  0  0
  7  8  1  0  0  0  0
  7  6  2  0  0  0  0
  8  9  1  0  0  0  0
  9 24  1  0  0  0  0
  9 10  1  0  0  0  0
 10 11  1  0  0  0  0
 11 25  1  0  0  0  0
 11 12  2  0  0  0  0
 12  3  1  0  0  0  0
 13 12  1  0  0  0  0
 13  4  1  0  0  0  0
 14 13  2  0  0  0  0
 15 28  1  0  0  0  0
 15 27  1  0  0  0  0
 16 31  1  0  0  0  0
 16  1  1  0  0  0  0
 17 33  1  0  0  0  0
 17 34  1  0  0  0  0
 18 36  1  0  0  0  0
 18  2  1  0  0  0  0
 19 39  1  0  0  0  0
 19 41  1  0  0  0  0
 20 43  1  0  0  0  0
 20 42  1  0  0  0  0
 22  7  1  0  0  0  0
 23  8  1  0  0  0  0
 26 14  1  0  0  0  0
 29 15  1  0  0  0  0
 30 16  1  0  0  0  0
 32 16  1  0  0  0  0
 35 17  1  0  0  0  0
 37 18  1  0  0  0  0
 38 18  1  0  0  0  0
 40 19  1  0  0  0  0
 44 20  1  0  0  0  0
M  END
