10
 OpenBabel05122313113D

 27 28  0  0  0  0  0  0  0  0999 V2000
   -0.9799   -2.4110    1.1705 N   0  0  0  0  0  0  0  0  0  0  0  0
   -2.9686   -1.9342    0.7504 N   0  0  0  0  0  0  0  0  0  0  0  0
   -2.2279   -0.8832    0.2490 C   0  0  0  0  0  0  0  0  0  0  0  0
   -2.2209   -2.8698    1.3173 N   0  0  0  0  0  2  0  0  0  0  0  0
   -2.7817    0.2943   -0.4260 C   0  0  0  0  0  0  0  0  0  0  0  0
   -3.9254    0.9703    0.0506 C   0  0  0  0  0  0  0  0  0  0  0  0
   -4.4246    0.6330    0.9706 H   0  0  0  0  0  0  0  0  0  0  0  0
   -2.1241    0.8025   -1.5709 C   0  0  0  0  0  0  0  0  0  0  0  0
   -1.2294    0.2839   -1.9490 H   0  0  0  0  0  0  0  0  0  0  0  0
   -0.8831   -1.2038    0.5251 C   0  0  0  0  0  3  0  0  0  0  0  0
   -2.6114    1.9410   -2.2175 C   0  0  0  0  0  0  0  0  0  0  0  0
   -2.0866    2.3154   -3.1109 H   0  0  0  0  0  0  0  0  0  0  0  0
   -3.7608    2.6173   -1.7536 C   0  0  0  0  0  0  0  0  0  0  0  0
    0.1336   -3.1851    1.6936 C   0  0  0  0  0  0  0  0  0  0  0  0
    0.6606   -2.5799    2.4565 H   0  0  0  0  0  0  0  0  0  0  0  0
    0.8296   -3.4067    0.8610 H   0  0  0  0  0  0  0  0  0  0  0  0
   -0.2674   -4.1139    2.1346 H   0  0  0  0  0  0  0  0  0  0  0  0
   -4.4049    2.1099   -0.6085 C   0  0  0  0  0  0  0  0  0  0  0  0
   -5.2925    2.6289   -0.2137 H   0  0  0  0  0  0  0  0  0  0  0  0
   -4.4071   -2.1425    0.7012 C   0  0  0  0  0  0  0  0  0  0  0  0
   -4.9021   -1.6782    1.5763 H   0  0  0  0  0  0  0  0  0  0  0  0
   -4.5933   -3.2307    0.7082 H   0  0  0  0  0  0  0  0  0  0  0  0
   -4.8037   -1.6898   -0.2252 H   0  0  0  0  0  0  0  0  0  0  0  0
   -4.2660    3.8490   -2.4598 C   0  0  0  0  0  0  0  0  0  0  0  0
   -3.5129    4.6643   -2.4288 H   0  0  0  0  0  0  0  0  0  0  0  0
   -5.1982    4.2321   -2.0020 H   0  0  0  0  0  0  0  0  0  0  0  0
   -4.4693    3.6439   -3.5314 H   0  0  0  0  0  0  0  0  0  0  0  0
  1  4  1  0  0  0  0
  1 14  1  0  0  0  0
  2  4  1  0  0  0  0
  3 10  2  0  0  0  0
  3  2  1  0  0  0  0
  5  6  1  0  0  0  0
  5  3  1  0  0  0  0
  6  7  1  0  0  0  0
  8  5  2  0  0  0  0
  9  8  1  0  0  0  0
 10  1  1  0  0  0  0
 11 13  2  0  0  0  0
 11  8  1  0  0  0  0
 12 11  1  0  0  0  0
 13 18  1  0  0  0  0
 14 17  1  0  0  0  0
 14 15  1  0  0  0  0
 16 14  1  0  0  0  0
 18 19  1  0  0  0  0
 18  6  2  0  0  0  0
 20 22  1  0  0  0  0
 20  2  1  0  0  0  0
 20 21  1  0  0  0  0
 23 20  1  0  0  0  0
 24 25  1  0  0  0  0
 24 26  1  0  0  0  0
 24 13  1  0  0  0  0
 27 24  1  0  0  0  0
M  END
