1
 OpenBabel05122313113D

 16 16  0  0  0  0  0  0  0  0999 V2000
    1.0890   -0.6024   -0.7233 C   0  0  0  0  0  2  0  0  0  0  0  0
    0.9011   -0.4798   -1.8173 H   0  0  0  0  0  0  0  0  0  0  0  0
    2.4700   -1.0156   -0.5010 C   0  0  0  0  0  0  0  0  0  0  0  0
    3.3452   -1.1263   -1.6165 C   0  0  0  0  0  0  0  0  0  0  0  0
    2.9511   -0.9066   -2.6221 H   0  0  0  0  0  0  0  0  0  0  0  0
    4.6817   -1.5029   -1.4610 C   0  0  0  0  0  0  0  0  0  0  0  0
    5.3354   -1.5793   -2.3447 H   0  0  0  0  0  0  0  0  0  0  0  0
    5.2103   -1.7874   -0.1839 C   0  0  0  0  0  0  0  0  0  0  0  0
    4.3437   -1.6854    0.9288 C   0  0  0  0  0  0  0  0  0  0  0  0
    4.7320   -1.9115    1.9350 H   0  0  0  0  0  0  0  0  0  0  0  0
    3.0080   -1.3100    0.7845 C   0  0  0  0  0  0  0  0  0  0  0  0
    2.3430   -1.2642    1.6604 H   0  0  0  0  0  0  0  0  0  0  0  0
    6.6483   -2.1955   -0.0017 C   0  0  0  0  0  0  0  0  0  0  0  0
    7.2058   -2.1803   -0.9580 H   0  0  0  0  0  0  0  0  0  0  0  0
    6.7224   -3.2205    0.4194 H   0  0  0  0  0  0  0  0  0  0  0  0
    7.1699   -1.5231    0.7111 H   0  0  0  0  0  0  0  0  0  0  0  0
  1  3  1  0  0  0  0
  2  1  1  0  0  0  0
  3 11  1  0  0  0  0
  4  6  1  0  0  0  0
  4  3  2  0  0  0  0
  5  4  1  0  0  0  0
  6  8  2  0  0  0  0
  7  6  1  0  0  0  0
  8 13  1  0  0  0  0
  8  9  1  0  0  0  0
  9 10  1  0  0  0  0
 11  9  2  0  0  0  0
 11 12  1  0  0  0  0
 13 15  1  0  0  0  0
 13 16  1  0  0  0  0
 14 13  1  0  0  0  0
M  END
