4
 OpenBabel05122313113D

 42 44  0  0  1  0  0  0  0  0999 V2000
    0.1492    6.1168   -0.7487 Cl  0  0  0  0  0  0  0  0  0  0  0  0
   -6.5423   -1.5863   -1.6848 Cl  0  0  0  0  0  0  0  0  0  0  0  0
    0.7982   -1.2369   -1.3423 N   0  0  0  0  0  0  0  0  0  0  0  0
    0.1444   -0.7502   -0.3702 C   0  0  0  0  0  3  0  0  0  0  0  0
   -0.9361    0.1788   -0.1338 C   0  0  0  0  0  3  0  0  0  0  0  0
    1.8180   -2.2552   -1.1056 C   0  0  1  0  0  0  0  0  0  0  0  0
    1.4206   -3.5387   -1.8536 C   0  0  0  0  0  0  0  0  0  0  0  0
    3.1890   -1.7603   -1.5484 C   0  0  0  0  0  0  0  0  0  0  0  0
    4.3542   -2.3208   -0.9876 C   0  0  0  0  0  0  0  0  0  0  0  0
    5.6265   -1.8853   -1.3882 C   0  0  0  0  0  0  0  0  0  0  0  0
    5.7519   -0.8791   -2.3596 C   0  0  0  0  0  0  0  0  0  0  0  0
    4.5970   -0.3180   -2.9274 C   0  0  0  0  0  0  0  0  0  0  0  0
    3.3253   -0.7558   -2.5259 C   0  0  0  0  0  0  0  0  0  0  0  0
   -2.3146   -0.2480   -0.5278 C   0  0  0  0  0  0  0  0  0  0  0  0
   -3.4420    0.5647   -0.2611 C   0  0  0  0  0  0  0  0  0  0  0  0
   -4.7370    0.1621   -0.6098 C   0  0  0  0  0  0  0  0  0  0  0  0
   -4.9294   -1.0728   -1.2499 C   0  0  0  0  0  0  0  0  0  0  0  0
   -3.8288   -1.8905   -1.5534 C   0  0  0  0  0  0  0  0  0  0  0  0
   -2.5405   -1.4743   -1.1984 C   0  0  0  0  0  0  0  0  0  0  0  0
   -0.6802    1.6530   -0.2587 C   0  0  0  0  0  0  0  0  0  0  0  0
   -0.9315    2.5549    0.7952 C   0  0  0  0  0  0  0  0  0  0  0  0
   -0.1974    2.1681   -1.4805 C   0  0  0  0  0  0  0  0  0  0  0  0
    0.0628    3.5361   -1.6390 C   0  0  0  0  0  0  0  0  0  0  0  0
   -0.6875    3.9282    0.6522 C   0  0  0  0  0  0  0  0  0  0  0  0
   -0.1802    4.4106   -0.5666 C   0  0  0  0  0  0  0  0  0  0  0  0
    1.8762   -2.4927   -0.0153 H   0  0  0  0  0  0  0  0  0  0  0  0
    4.2608   -3.1108   -0.2241 H   0  0  0  0  0  0  0  0  0  0  0  0
    6.5257   -2.3313   -0.9359 H   0  0  0  0  0  0  0  0  0  0  0  0
    6.7487   -0.5324   -2.6720 H   0  0  0  0  0  0  0  0  0  0  0  0
    4.6869    0.4710   -3.6901 H   0  0  0  0  0  0  0  0  0  0  0  0
    2.4124   -0.3180   -2.9558 H   0  0  0  0  0  0  0  0  0  0  0  0
   -3.3043    1.5370    0.2335 H   0  0  0  0  0  0  0  0  0  0  0  0
   -5.6028    0.8033   -0.3916 H   0  0  0  0  0  0  0  0  0  0  0  0
   -3.9869   -2.8434   -2.0783 H   0  0  0  0  0  0  0  0  0  0  0  0
   -1.6786   -2.1022   -1.4655 H   0  0  0  0  0  0  0  0  0  0  0  0
   -1.3035    2.1546    1.7510 H   0  0  0  0  0  0  0  0  0  0  0  0
   -0.0042    1.4705   -2.3096 H   0  0  0  0  0  0  0  0  0  0  0  0
    0.4554    3.9329   -2.5860 H   0  0  0  0  0  0  0  0  0  0  0  0
   -0.8789    4.6291    1.4772 H   0  0  0  0  0  0  0  0  0  0  0  0
    2.1887   -4.3268   -1.7244 H   0  0  0  0  0  0  0  0  0  0  0  0
    1.3090   -3.3299   -2.9362 H   0  0  0  0  0  0  0  0  0  0  0  0
    0.4532   -3.9211   -1.4692 H   0  0  0  0  0  0  0  0  0  0  0  0
  1 25  1  0  0  0  0
  2 17  1  0  0  0  0
  3  6  1  0  0  0  0
  3  4  2  0  0  0  0
  4  5  1  0  0  0  0
  6 26  1  1  0  0  0
  7 40  1  0  0  0  0
  7 42  1  0  0  0  0
  7  6  1  0  0  0  0
  8  6  1  0  0  0  0
  8  9  1  0  0  0  0
  9 27  1  0  0  0  0
 10  9  2  0  0  0  0
 10 28  1  0  0  0  0
 11 10  1  0  0  0  0
 12 13  1  0  0  0  0
 12 11  2  0  0  0  0
 13  8  2  0  0  0  0
 14 15  1  0  0  0  0
 14  5  1  0  0  0  0
 15 32  1  0  0  0  0
 16 33  1  0  0  0  0
 16 15  2  0  0  0  0
 17 16  1  0  0  0  0
 18 17  2  0  0  0  0
 18 19  1  0  0  0  0
 19 14  2  0  0  0  0
 20  5  1  0  0  0  0
 20 21  1  0  0  0  0
 21 36  1  0  0  0  0
 22 20  2  0  0  0  0
 23 22  1  0  0  0  0
 23 25  2  0  0  0  0
 24 21  2  0  0  0  0
 24 39  1  0  0  0  0
 25 24  1  0  0  0  0
 29 11  1  0  0  0  0
 30 12  1  0  0  0  0
 31 13  1  0  0  0  0
 34 18  1  0  0  0  0
 35 19  1  0  0  0  0
 37 22  1  0  0  0  0
 38 23  1  0  0  0  0
 41  7  1  0  0  0  0
M  END
