1
 OpenBabel05122313113D

  3  2  0  0  0  0  0  0  0  0999 V2000
   -1.9087    0.0104   -0.0078 C   0  0  0  0  0  1  0  0  0  0  0  0
   -3.0949    0.0172   -0.0130 N   0  0  0  0  0  2  0  0  0  0  0  0
   -4.1028    0.0211   -0.0165 H   0  0  0  0  0  0  0  0  0  0  0  0
  2  1  1  0  0  0  0
  3  2  1  0  0  0  0
M  END
