5
 OpenBabel05122313113D

 19 20  0  0  1  0  0  0  0  0999 V2000
    2.5690    0.6031    0.2234 C   0  0  1  0  0  0  0  0  0  0  0  0
    2.2946    0.4939   -1.3339 C   0  0  0  0  0  0  0  0  0  0  0  0
    1.1994   -0.5054   -1.0024 C   0  0  0  0  0  0  0  0  0  0  0  0
    0.1965   -1.3320   -1.5414 C   0  0  0  0  0  0  0  0  0  0  0  0
   -0.5368   -2.1317   -0.5917 C   0  0  0  0  0  3  0  0  0  0  0  0
   -0.2921   -2.0470    0.8059 C   0  0  0  0  0  3  0  0  0  0  0  0
    0.6978   -1.1482    1.3455 C   0  0  0  0  0  0  0  0  0  0  0  0
    1.4425   -0.4142    0.4041 C   0  0  0  0  0  0  0  0  0  0  0  0
    3.9497    0.1650    0.6971 C   0  0  0  0  0  0  0  0  0  0  0  0
    2.3154    1.6053    0.6254 H   0  0  0  0  0  0  0  0  0  0  0  0
    3.1420    0.0542   -1.8984 H   0  0  0  0  0  0  0  0  0  0  0  0
    1.9695    1.4280   -1.8312 H   0  0  0  0  0  0  0  0  0  0  0  0
   -0.0409   -1.3718   -2.6132 H   0  0  0  0  0  0  0  0  0  0  0  0
   -1.3472   -2.7827   -0.9487 H   0  0  0  0  0  0  0  0  0  0  0  0
   -0.9202   -2.6331    1.4913 H   0  0  0  0  0  0  0  0  0  0  0  0
    0.8351   -1.0499    2.4312 H   0  0  0  0  0  0  0  0  0  0  0  0
    4.2083   -0.8411    0.3069 H   0  0  0  0  0  0  0  0  0  0  0  0
    3.9980    0.1222    1.8041 H   0  0  0  0  0  0  0  0  0  0  0  0
    4.7267    0.8772    0.3526 H   0  0  0  0  0  0  0  0  0  0  0  0
  1  8  1  0  0  0  0
  1 10  1  1  0  0  0
  1  9  1  0  0  0  0
  2  3  1  0  0  0  0
  2  1  1  0  0  0  0
  3  8  1  0  0  0  0
  4  3  2  0  0  0  0
  4  5  1  0  0  0  0
  5  6  1  0  0  0  0
  6  7  1  0  0  0  0
  6 15  1  0  0  0  0
  7 16  1  0  0  0  0
  8  7  2  0  0  0  0
  9 18  1  0  0  0  0
 11  2  1  0  0  0  0
 12  2  1  0  0  0  0
 13  4  1  0  0  0  0
 14  5  1  0  0  0  0
 17  9  1  0  0  0  0
 19  9  1  0  0  0  0
M  END
