14
 OpenBabel05122313113D

 35 38  0  0  1  0  0  0  0  0999 V2000
    0.0000   -2.5137   -0.5334 O   0  0  0  0  0  0  0  0  0  0  0  0
   -3.6561    0.1623   -0.6281 C   0  0  0  0  0  0  0  0  0  0  0  0
   -0.0000    3.0225   -1.7617 O   0  0  0  0  0  0  0  0  0  0  0  0
    0.0000   -1.2895   -0.6403 C   0  0  0  0  0  0  0  0  0  0  0  0
   -1.1996   -0.3597   -0.6490 C   0  0  2  0  0  3  0  0  0  0  0  0
   -2.6043   -0.7811   -0.5315 C   0  0  0  0  0  0  0  0  0  0  0  0
   -4.9928   -0.2371   -0.5192 C   0  0  0  0  0  0  0  0  0  0  0  0
   -5.3107   -1.5895   -0.3120 C   0  0  0  0  0  0  0  0  0  0  0  0
   -4.2777   -2.5347   -0.2139 C   0  0  0  0  0  0  0  0  0  0  0  0
   -2.9374   -2.1413   -0.3206 C   0  0  0  0  0  0  0  0  0  0  0  0
   -0.7157    0.9274   -1.0689 C   0  0  2  0  0  3  0  0  0  0  0  0
   -1.1711    2.2067   -1.7197 C   0  0  0  0  0  0  0  0  0  0  0  0
    1.1711    2.2067   -1.7196 C   0  0  0  0  0  0  0  0  0  0  0  0
    0.7158    0.9274   -1.0689 C   0  0  2  0  0  3  0  0  0  0  0  0
    1.1996   -0.3597   -0.6489 C   0  0  2  0  0  3  0  0  0  0  0  0
    2.6044   -0.7811   -0.5314 C   0  0  0  0  0  0  0  0  0  0  0  0
    2.9374   -2.1413   -0.3205 C   0  0  0  0  0  0  0  0  0  0  0  0
    4.2777   -2.5347   -0.2137 C   0  0  0  0  0  0  0  0  0  0  0  0
    5.3108   -1.5895   -0.3120 C   0  0  0  0  0  0  0  0  0  0  0  0
    4.9929   -0.2371   -0.5194 C   0  0  0  0  0  0  0  0  0  0  0  0
    3.6562    0.1622   -0.6282 C   0  0  0  0  0  0  0  0  0  0  0  0
    2.1233   -2.8749   -0.2509 H   0  0  0  0  0  0  0  0  0  0  0  0
    6.3620   -1.9038   -0.2260 H   0  0  0  0  0  0  0  0  0  0  0  0
    4.5172   -3.5967   -0.0515 H   0  0  0  0  0  0  0  0  0  0  0  0
    3.4291    1.2272   -0.7754 H   0  0  0  0  0  0  0  0  0  0  0  0
    5.7932    0.5146   -0.5943 H   0  0  0  0  0  0  0  0  0  0  0  0
   -2.1233   -2.8749   -0.2511 H   0  0  0  0  0  0  0  0  0  0  0  0
   -4.5172   -3.5967   -0.0518 H   0  0  0  0  0  0  0  0  0  0  0  0
   -3.4291    1.2272   -0.7752 H   0  0  0  0  0  0  0  0  0  0  0  0
   -6.3620   -1.9038   -0.2260 H   0  0  0  0  0  0  0  0  0  0  0  0
   -5.7932    0.5146   -0.5940 H   0  0  0  0  0  0  0  0  0  0  0  0
    1.9584    2.7666   -1.1765 H   0  0  0  0  0  0  0  0  0  0  0  0
   -1.9585    2.7666   -1.1767 H   0  0  0  0  0  0  0  0  0  0  0  0
    1.5587    1.9756   -2.7443 H   0  0  0  0  0  0  0  0  0  0  0  0
   -1.5585    1.9755   -2.7445 H   0  0  0  0  0  0  0  0  0  0  0  0
  2  6  2  0  0  0  0
  2  7  1  0  0  0  0
  3 12  1  0  0  0  0
  3 13  1  0  0  0  0
  4  1  2  0  0  0  0
  5  4  1  0  0  0  0
  5  6  1  6  0  0  0
  6 10  1  0  0  0  0
  7  8  2  0  0  0  0
  8 30  1  0  0  0  0
  8  9  1  0  0  0  0
  9 28  1  0  0  0  0
 10 27  1  0  0  0  0
 10  9  2  0  0  0  0
 11 12  1  6  0  0  0
 11 14  1  0  0  0  0
 11  5  1  0  0  0  0
 12 33  1  0  0  0  0
 13 32  1  0  0  0  0
 14 13  1  6  0  0  0
 14 15  1  0  0  0  0
 15  4  1  0  0  0  0
 15 16  1  6  0  0  0
 16 17  1  0  0  0  0
 17 22  1  0  0  0  0
 17 18  2  0  0  0  0
 18 24  1  0  0  0  0
 19 23  1  0  0  0  0
 19 18  1  0  0  0  0
 20 19  2  0  0  0  0
 21 16  2  0  0  0  0
 21 20  1  0  0  0  0
 25 21  1  0  0  0  0
 26 20  1  0  0  0  0
 29  2  1  0  0  0  0
 31  7  1  0  0  0  0
 34 13  1  0  0  0  0
 35 12  1  0  0  0  0
M  END
