9
 OpenBabel05122313113D

 59 61  0  0  0  0  0  0  0  0999 V2000
   -5.8449   -2.9429    1.6251 O   0  0  0  0  0  0  0  0  0  0  0  0
   -5.1517   -3.8057   -0.7929 O   0  0  0  0  0  0  0  0  0  0  0  0
   -3.1481   -2.6168   -2.2076 O   0  0  0  0  0  0  0  0  0  0  0  0
    6.2453   -2.3735    1.4968 O   0  0  0  0  0  0  0  0  0  0  0  0
    5.2237   -3.7919   -0.5114 O   0  0  0  0  0  0  0  0  0  0  0  0
    2.9496   -3.0071   -1.7921 O   0  0  0  0  0  0  0  0  0  0  0  0
   -1.1029    0.4865    1.7099 N   0  0  0  0  0  0  0  0  0  0  0  0
    1.0590    0.5249    1.6712 N   0  0  0  0  0  0  0  0  0  0  0  0
   -0.0428    1.1076    1.1083 C   0  0  0  0  0  2  0  0  0  0  0  0
   -0.6723   -0.4831    2.6092 C   0  0  0  0  0  0  0  0  0  0  0  0
    0.6964   -0.4579    2.5861 C   0  0  0  0  0  0  0  0  0  0  0  0
   -2.5073    0.7488    1.3777 C   0  0  0  0  0  0  0  0  0  0  0  0
    2.4387    0.8385    1.2899 C   0  0  0  0  0  0  0  0  0  0  0  0
   -3.2066   -0.4626    0.8039 C   0  0  0  0  0  0  0  0  0  0  0  0
   -4.2281   -1.0984    1.5306 C   0  0  0  0  0  0  0  0  0  0  0  0
   -4.8584   -2.2439    0.9986 C   0  0  0  0  0  0  0  0  0  0  0  0
   -4.4786   -2.7373   -0.2738 C   0  0  0  0  0  0  0  0  0  0  0  0
   -3.4434   -2.0825   -0.9924 C   0  0  0  0  0  0  0  0  0  0  0  0
   -2.8068   -0.9487   -0.4531 C   0  0  0  0  0  0  0  0  0  0  0  0
    3.1918   -0.3791    0.8043 C   0  0  0  0  0  0  0  0  0  0  0  0
    4.3774   -0.7815    1.4422 C   0  0  0  0  0  0  0  0  0  0  0  0
    5.0787   -1.9113    0.9678 C   0  0  0  0  0  0  0  0  0  0  0  0
    4.5675   -2.6597   -0.1208 C   0  0  0  0  0  0  0  0  0  0  0  0
    3.3663   -2.2385   -0.7499 C   0  0  0  0  0  0  0  0  0  0  0  0
    2.6814   -1.0995   -0.2892 C   0  0  0  0  0  0  0  0  0  0  0  0
   -6.2900   -2.4814    2.8823 C   0  0  0  0  0  0  0  0  0  0  0  0
   -4.4077   -5.0158   -0.8905 C   0  0  0  0  0  0  0  0  0  0  0  0
   -2.1665   -1.9605   -2.9972 C   0  0  0  0  0  0  0  0  0  0  0  0
    6.7930   -1.6844    2.6001 C   0  0  0  0  0  0  0  0  0  0  0  0
    5.8955   -3.7100   -1.7644 C   0  0  0  0  0  0  0  0  0  0  0  0
    1.7067   -2.6795   -2.3954 C   0  0  0  0  0  0  0  0  0  0  0  0
   -1.3749   -1.1164    3.1585 H   0  0  0  0  0  0  0  0  0  0  0  0
    1.4408   -1.0626    3.1120 H   0  0  0  0  0  0  0  0  0  0  0  0
   -2.4747    1.5843    0.6464 H   0  0  0  0  0  0  0  0  0  0  0  0
   -3.0283    1.1046    2.2903 H   0  0  0  0  0  0  0  0  0  0  0  0
    2.3474    1.6060    0.4910 H   0  0  0  0  0  0  0  0  0  0  0  0
    2.9588    1.3010    2.1543 H   0  0  0  0  0  0  0  0  0  0  0  0
   -4.5236   -0.7000    2.5108 H   0  0  0  0  0  0  0  0  0  0  0  0
   -1.9950   -0.4391   -0.9957 H   0  0  0  0  0  0  0  0  0  0  0  0
    4.7583   -0.2012    2.2935 H   0  0  0  0  0  0  0  0  0  0  0  0
    1.7588   -0.7496   -0.7773 H   0  0  0  0  0  0  0  0  0  0  0  0
   -6.7104   -1.4515    2.8252 H   0  0  0  0  0  0  0  0  0  0  0  0
   -7.0880   -3.1752    3.2069 H   0  0  0  0  0  0  0  0  0  0  0  0
   -5.4768   -2.4879    3.6443 H   0  0  0  0  0  0  0  0  0  0  0  0
   -3.5387   -4.9114   -1.5747 H   0  0  0  0  0  0  0  0  0  0  0  0
   -5.0981   -5.7807   -1.2950 H   0  0  0  0  0  0  0  0  0  0  0  0
   -2.0849   -2.5411   -3.9347 H   0  0  0  0  0  0  0  0  0  0  0  0
   -2.4578   -0.9142   -3.2323 H   0  0  0  0  0  0  0  0  0  0  0  0
    0.8712   -2.7596   -1.6651 H   0  0  0  0  0  0  0  0  0  0  0  0
    7.7249   -2.2152    2.8707 H   0  0  0  0  0  0  0  0  0  0  0  0
    6.1084   -1.6906    3.4791 H   0  0  0  0  0  0  0  0  0  0  0  0
   -4.0482   -5.3497    0.1090 H   0  0  0  0  0  0  0  0  0  0  0  0
   -1.1781   -1.9242   -2.4912 H   0  0  0  0  0  0  0  0  0  0  0  0
    1.6980   -1.6502   -2.8152 H   0  0  0  0  0  0  0  0  0  0  0  0
    1.5533   -3.4141   -3.2076 H   0  0  0  0  0  0  0  0  0  0  0  0
    5.1878   -3.5182   -2.5991 H   0  0  0  0  0  0  0  0  0  0  0  0
    6.6731   -2.9132   -1.7535 H   0  0  0  0  0  0  0  0  0  0  0  0
    7.0401   -0.6262    2.3540 H   0  0  0  0  0  0  0  0  0  0  0  0
    6.3887   -4.6880   -1.9246 H   0  0  0  0  0  0  0  0  0  0  0  0
  1 26  1  0  0  0  0
  2 17  1  0  0  0  0
  3 18  1  0  0  0  0
  4 29  1  0  0  0  0
  5 23  1  0  0  0  0
  6 24  1  0  0  0  0
  7 10  1  0  0  0  0
  8 11  1  0  0  0  0
  9  8  1  0  0  0  0
  9  7  1  0  0  0  0
 10 32  1  0  0  0  0
 11 10  2  0  0  0  0
 11 33  1  0  0  0  0
 12  7  1  0  0  0  0
 12 35  1  0  0  0  0
 13  8  1  0  0  0  0
 13 37  1  0  0  0  0
 14 12  1  0  0  0  0
 14 15  1  0  0  0  0
 15 38  1  0  0  0  0
 16 15  2  0  0  0  0
 16  1  1  0  0  0  0
 17 16  1  0  0  0  0
 18 19  1  0  0  0  0
 18 17  2  0  0  0  0
 19 14  2  0  0  0  0
 20 13  1  0  0  0  0
 20 21  1  0  0  0  0
 21 40  1  0  0  0  0
 22 21  2  0  0  0  0
 22  4  1  0  0  0  0
 23 22  1  0  0  0  0
 24 25  1  0  0  0  0
 24 23  2  0  0  0  0
 25 20  2  0  0  0  0
 26 43  1  0  0  0  0
 26 44  1  0  0  0  0
 27  2  1  0  0  0  0
 27 52  1  0  0  0  0
 28 53  1  0  0  0  0
 28  3  1  0  0  0  0
 29 50  1  0  0  0  0
 29 51  1  0  0  0  0
 30 57  1  0  0  0  0
 30  5  1  0  0  0  0
 31  6  1  0  0  0  0
 31 49  1  0  0  0  0
 34 12  1  0  0  0  0
 36 13  1  0  0  0  0
 39 19  1  0  0  0  0
 41 25  1  0  0  0  0
 42 26  1  0  0  0  0
 45 27  1  0  0  0  0
 46 27  1  0  0  0  0
 47 28  1  0  0  0  0
 48 28  1  0  0  0  0
 54 31  1  0  0  0  0
 55 31  1  0  0  0  0
 56 30  1  0  0  0  0
 58 29  1  0  0  0  0
 59 30  1  0  0  0  0
M  END
