1
 OpenBabel05122313113D

 23 23  0  0  0  0  0  0  0  0999 V2000
   -2.5687   -0.4218   -0.5264 C   0  0  0  0  0  3  0  0  0  0  0  0
   -3.0529   -1.0705   -1.6721 C   0  0  0  0  0  0  0  0  0  0  0  0
   -2.3558   -1.5406   -2.3817 H   0  0  0  0  0  0  0  0  0  0  0  0
   -4.4359   -1.1356   -1.9148 C   0  0  0  0  0  0  0  0  0  0  0  0
   -4.8043   -1.6496   -2.8153 H   0  0  0  0  0  0  0  0  0  0  0  0
   -5.3392   -0.5645   -1.0070 C   0  0  0  0  0  0  0  0  0  0  0  0
   -6.4224   -0.6295   -1.1851 H   0  0  0  0  0  0  0  0  0  0  0  0
   -4.8546    0.0846    0.1354 C   0  0  0  0  0  0  0  0  0  0  0  0
   -5.5619    0.5272    0.8554 H   0  0  0  0  0  0  0  0  0  0  0  0
   -3.4673    0.1710    0.3895 C   0  0  0  0  0  0  0  0  0  0  0  0
   -2.9757    0.9125    1.6025 C   0  0  0  0  0  0  0  0  0  0  0  0
   -3.7656    1.0206    2.3718 H   0  0  0  0  0  0  0  0  0  0  0  0
   -2.1068    0.4002    2.0611 H   0  0  0  0  0  0  0  0  0  0  0  0
   -2.4977    2.3185    1.2665 N   0  3  0  0  0  0  0  0  0  0  0  0
   -1.7966    2.2097    0.4626 H   0  0  0  0  0  0  0  0  0  0  0  0
   -1.7552    2.9332    2.4006 C   0  0  0  0  0  0  0  0  0  0  0  0
   -0.8972    2.2864    2.6591 H   0  0  0  0  0  0  0  0  0  0  0  0
   -2.4277    3.0334    3.2731 H   0  0  0  0  0  0  0  0  0  0  0  0
   -1.3866    3.9289    2.0947 H   0  0  0  0  0  0  0  0  0  0  0  0
   -3.5867    3.1961    0.7552 C   0  0  0  0  0  0  0  0  0  0  0  0
   -4.0670    2.7017   -0.1077 H   0  0  0  0  0  0  0  0  0  0  0  0
   -3.1479    4.1584    0.4357 H   0  0  0  0  0  0  0  0  0  0  0  0
   -4.3297    3.3669    1.5569 H   0  0  0  0  0  0  0  0  0  0  0  0
  1 10  1  0  0  0  0
  2  1  2  0  0  0  0
  3  2  1  0  0  0  0
  4  2  1  0  0  0  0
  4  6  2  0  0  0  0
  5  4  1  0  0  0  0
  6  8  1  0  0  0  0
  7  6  1  0  0  0  0
  8 10  2  0  0  0  0
  8  9  1  0  0  0  0
 10 11  1  0  0  0  0
 11 13  1  0  0  0  0
 11 12  1  0  0  0  0
 14 11  1  0  0  0  0
 14 16  1  0  0  0  0
 15 14  1  0  0  0  0
 16 17  1  0  0  0  0
 16 18  1  0  0  0  0
 19 16  1  0  0  0  0
 20 14  1  0  0  0  0
 20 23  1  0  0  0  0
 21 20  1  0  0  0  0
 22 20  1  0  0  0  0
M  CHG  1  14   1
M  END
