4
 OpenBabel05122313113D

 32 33  0  0  0  0  0  0  0  0999 V2000
    2.4260    0.2212   -0.2042 P   0  0  0  0  0  0  0  0  0  0  0  0
    1.1552   -0.3414    0.5044 O   0  0  0  0  0  0  0  0  0  0  0  0
   -0.1873    0.5980   -1.8624 C   0  0  0  0  0  3  0  0  0  0  0  0
    0.8071   -0.3418   -2.3233 C   0  0  0  0  0  3  0  0  0  0  0  0
    2.2810   -0.1920   -1.9814 C   0  0  0  0  0  0  0  0  0  0  0  0
    2.5229    2.0219    0.0609 C   0  0  0  0  0  0  0  0  0  0  0  0
    2.4092    2.9546   -0.9877 C   0  0  0  0  0  0  0  0  0  0  0  0
    2.3578    4.3279   -0.7023 C   0  0  0  0  0  0  0  0  0  0  0  0
    2.4162    4.7741    0.6267 C   0  0  0  0  0  0  0  0  0  0  0  0
    2.5282    3.8464    1.6771 C   0  0  0  0  0  0  0  0  0  0  0  0
    2.5812    2.4743    1.3978 C   0  0  0  0  0  0  0  0  0  0  0  0
    3.9202   -0.5089    0.5116 C   0  0  0  0  0  0  0  0  0  0  0  0
    3.8366   -1.8422    0.9671 C   0  0  0  0  0  0  0  0  0  0  0  0
    4.9814   -2.4566    1.4938 C   0  0  0  0  0  0  0  0  0  0  0  0
    6.1954   -1.7531    1.5652 C   0  0  0  0  0  0  0  0  0  0  0  0
    6.2737   -0.4268    1.1095 C   0  0  0  0  0  0  0  0  0  0  0  0
    5.1358    0.2009    0.5822 C   0  0  0  0  0  0  0  0  0  0  0  0
    0.1102    1.4789   -1.2722 H   0  0  0  0  0  0  0  0  0  0  0  0
   -1.0655    0.7993   -2.4964 H   0  0  0  0  0  0  0  0  0  0  0  0
    0.6432   -0.8623   -3.2819 H   0  0  0  0  0  0  0  0  0  0  0  0
    2.7853   -1.1759   -2.0852 H   0  0  0  0  0  0  0  0  0  0  0  0
    2.8309    0.5470   -2.6055 H   0  0  0  0  0  0  0  0  0  0  0  0
    2.3406    2.6135   -2.0308 H   0  0  0  0  0  0  0  0  0  0  0  0
    2.2637    5.0519   -1.5253 H   0  0  0  0  0  0  0  0  0  0  0  0
    2.3739    5.8515    0.8477 H   0  0  0  0  0  0  0  0  0  0  0  0
    2.5741    4.1950    2.7198 H   0  0  0  0  0  0  0  0  0  0  0  0
    2.6636    1.7456    2.2195 H   0  0  0  0  0  0  0  0  0  0  0  0
    2.8824   -2.3880    0.8891 H   0  0  0  0  0  0  0  0  0  0  0  0
    4.9226   -3.4957    1.8508 H   0  0  0  0  0  0  0  0  0  0  0  0
    7.0894   -2.2422    1.9813 H   0  0  0  0  0  0  0  0  0  0  0  0
    7.2248    0.1236    1.1689 H   0  0  0  0  0  0  0  0  0  0  0  0
    5.1906    1.2440    0.2338 H   0  0  0  0  0  0  0  0  0  0  0  0
  1  6  1  0  0  0  0
  1  2  2  0  0  0  0
  1 12  1  0  0  0  0
  3 18  1  0  0  0  0
  4  5  1  0  0  0  0
  4  3  1  0  0  0  0
  5  1  1  0  0  0  0
  6 11  1  0  0  0  0
  7  8  1  0  0  0  0
  7  6  2  0  0  0  0
  8  9  2  0  0  0  0
  9 25  1  0  0  0  0
  9 10  1  0  0  0  0
 10 26  1  0  0  0  0
 11 10  2  0  0  0  0
 11 27  1  0  0  0  0
 12 17  2  0  0  0  0
 12 13  1  0  0  0  0
 13 14  2  0  0  0  0
 14 15  1  0  0  0  0
 14 29  1  0  0  0  0
 15 30  1  0  0  0  0
 16 31  1  0  0  0  0
 16 15  2  0  0  0  0
 17 16  1  0  0  0  0
 19  3  1  0  0  0  0
 20  4  1  0  0  0  0
 21  5  1  0  0  0  0
 22  5  1  0  0  0  0
 23  7  1  0  0  0  0
 24  8  1  0  0  0  0
 28 13  1  0  0  0  0
 32 17  1  0  0  0  0
M  END
