3
 OpenBabel05122313113D

 34 35  0  0  0  0  0  0  0  0999 V2000
    1.8530    3.0706    0.7769 N   0  0  0  0  0  0  0  0  0  0  0  0
    2.6872    2.2703    0.1403 N   0  0  0  0  0  2  0  0  0  0  0  0
    0.6745    1.2221    0.4329 C   0  0  0  0  0  3  0  0  0  0  0  0
    1.9717    1.1536   -0.0499 N   0  0  0  0  0  0  0  0  0  0  0  0
    0.6258    2.5033    1.0042 C   0  0  0  0  0  0  0  0  0  0  0  0
    2.6326    0.0314   -0.6702 C   0  0  0  0  0  0  0  0  0  0  0  0
   -0.9314    4.3248    0.7367 O   0  0  0  0  0  0  0  0  0  0  0  0
   -1.3394    3.8720   -0.0421 H   0  0  0  0  0  0  0  0  0  0  0  0
    3.5824   -0.6855    0.0918 C   0  0  0  0  0  0  0  0  0  0  0  0
   -0.5192    3.2748    1.5922 C   0  0  0  0  0  0  0  0  0  0  0  0
   -1.3321    2.5466    1.8096 H   0  0  0  0  0  0  0  0  0  0  0  0
   -0.2190    3.7380    2.5561 H   0  0  0  0  0  0  0  0  0  0  0  0
    4.1911   -1.7945   -0.5172 C   0  0  0  0  0  0  0  0  0  0  0  0
    4.9251   -2.3750    0.0640 H   0  0  0  0  0  0  0  0  0  0  0  0
    1.3826    0.5496   -2.8244 C   0  0  0  0  0  0  0  0  0  0  0  0
    0.3360    0.4573   -2.4642 H   0  0  0  0  0  0  0  0  0  0  0  0
    1.6319    1.6280   -2.7549 H   0  0  0  0  0  0  0  0  0  0  0  0
    1.4103    0.2551   -3.8901 H   0  0  0  0  0  0  0  0  0  0  0  0
    3.9292   -0.2786    1.4984 C   0  0  0  0  0  0  0  0  0  0  0  0
    4.6518   -0.9865    1.9453 H   0  0  0  0  0  0  0  0  0  0  0  0
    4.3719    0.7379    1.5255 H   0  0  0  0  0  0  0  0  0  0  0  0
    3.0191   -0.2708    2.1350 H   0  0  0  0  0  0  0  0  0  0  0  0
    2.9672   -1.4117   -2.5645 C   0  0  0  0  0  0  0  0  0  0  0  0
    2.7427   -1.6802   -3.6092 H   0  0  0  0  0  0  0  0  0  0  0  0
    2.3283   -0.2879   -2.0096 C   0  0  0  0  0  0  0  0  0  0  0  0
    3.8867   -2.1853   -1.8347 C   0  0  0  0  0  0  0  0  0  0  0  0
    2.2550    4.4286    1.1100 C   0  0  0  0  0  0  0  0  0  0  0  0
    1.4370    5.1077    0.8028 H   0  0  0  0  0  0  0  0  0  0  0  0
    2.4251    4.5198    2.2006 H   0  0  0  0  0  0  0  0  0  0  0  0
    3.1874    4.6542    0.5649 H   0  0  0  0  0  0  0  0  0  0  0  0
    4.5219   -3.4119   -2.4385 C   0  0  0  0  0  0  0  0  0  0  0  0
    4.4862   -3.3901   -3.5451 H   0  0  0  0  0  0  0  0  0  0  0  0
    5.5799   -3.5199   -2.1264 H   0  0  0  0  0  0  0  0  0  0  0  0
    3.9919   -4.3311   -2.1082 H   0  0  0  0  0  0  0  0  0  0  0  0
  1  5  1  0  0  0  0
  1 27  1  0  0  0  0
  2  1  1  0  0  0  0
  3  5  2  0  0  0  0
  4  2  1  0  0  0  0
  4  3  1  0  0  0  0
  5 10  1  0  0  0  0
  6  4  1  0  0  0  0
  6  9  1  0  0  0  0
  7 10  1  0  0  0  0
  8  7  1  0  0  0  0
  9 19  1  0  0  0  0
 10 11  1  0  0  0  0
 10 12  1  0  0  0  0
 13 14  1  0  0  0  0
 13  9  2  0  0  0  0
 15 17  1  0  0  0  0
 15 16  1  0  0  0  0
 15 25  1  0  0  0  0
 18 15  1  0  0  0  0
 19 21  1  0  0  0  0
 19 20  1  0  0  0  0
 19 22  1  0  0  0  0
 23 25  1  0  0  0  0
 23 26  2  0  0  0  0
 24 23  1  0  0  0  0
 25  6  2  0  0  0  0
 26 13  1  0  0  0  0
 27 29  1  0  0  0  0
 28 27  1  0  0  0  0
 30 27  1  0  0  0  0
 31 33  1  0  0  0  0
 31 34  1  0  0  0  0
 31 26  1  0  0  0  0
 32 31  1  0  0  0  0
M  END
