4
 OpenBabel05122313113D

 49 51  0  0  0  0  0  0  0  0999 V2000
    0.9688   -1.4490    0.2157 N   0  0  0  0  0  0  0  0  0  0  0  0
    0.5258   -2.6947    0.4179 N   0  0  0  0  0  2  0  0  0  0  0  0
   -0.7888   -2.5563    0.4028 N   0  0  0  0  0  0  0  0  0  0  0  0
   -0.0194   -0.4924    0.0696 C   0  0  0  0  0  3  0  0  0  0  0  0
   -1.1971   -1.2554    0.1929 C   0  0  0  0  0  0  0  0  0  0  0  0
   -2.6130   -0.8449    0.1313 C   0  0  0  0  0  0  0  0  0  0  0  0
   -3.1810   -0.1365    1.2234 C   0  0  0  0  0  0  0  0  0  0  0  0
   -2.3472    0.2197    2.4268 C   0  0  0  0  0  0  0  0  0  0  0  0
   -1.8204   -0.6628    2.8449 H   0  0  0  0  0  0  0  0  0  0  0  0
   -2.9651    0.6673    3.2277 H   0  0  0  0  0  0  0  0  0  0  0  0
   -1.5589    0.9508    2.1442 H   0  0  0  0  0  0  0  0  0  0  0  0
   -4.5287    0.2491    1.1412 C   0  0  0  0  0  0  0  0  0  0  0  0
   -4.9747    0.7956    1.9878 H   0  0  0  0  0  0  0  0  0  0  0  0
   -5.3190   -0.0328    0.0107 C   0  0  0  0  0  0  0  0  0  0  0  0
   -6.7523    0.4288   -0.0588 C   0  0  0  0  0  0  0  0  0  0  0  0
   -7.2719    0.2918    0.9107 H   0  0  0  0  0  0  0  0  0  0  0  0
   -7.3215   -0.1136   -0.8384 H   0  0  0  0  0  0  0  0  0  0  0  0
   -6.8050    1.5116   -0.3022 H   0  0  0  0  0  0  0  0  0  0  0  0
   -4.7236   -0.7181   -1.0635 C   0  0  0  0  0  0  0  0  0  0  0  0
   -5.3203   -0.9299   -1.9653 H   0  0  0  0  0  0  0  0  0  0  0  0
   -3.3785   -1.1247   -1.0298 C   0  0  0  0  0  0  0  0  0  0  0  0
   -2.7509   -1.8083   -2.2196 C   0  0  0  0  0  0  0  0  0  0  0  0
   -2.5097   -2.8734   -2.0164 H   0  0  0  0  0  0  0  0  0  0  0  0
   -1.8002   -1.3130   -2.5052 H   0  0  0  0  0  0  0  0  0  0  0  0
   -3.4271   -1.7878   -3.0951 H   0  0  0  0  0  0  0  0  0  0  0  0
   -1.6255   -3.7284    0.6072 C   0  0  0  0  0  0  0  0  0  0  0  0
   -1.5701   -4.3952   -0.2746 H   0  0  0  0  0  0  0  0  0  0  0  0
   -2.6653   -3.3838    0.7498 H   0  0  0  0  0  0  0  0  0  0  0  0
   -1.2762   -4.2757    1.5016 H   0  0  0  0  0  0  0  0  0  0  0  0
    2.3870   -1.2068    0.1641 C   0  0  0  0  0  0  0  0  0  0  0  0
    3.0326   -0.7475    1.3299 C   0  0  0  0  0  0  0  0  0  0  0  0
    4.4128   -0.5002    1.2439 C   0  0  0  0  0  0  0  0  0  0  0  0
    4.9411   -0.1406    2.1412 H   0  0  0  0  0  0  0  0  0  0  0  0
    5.1307   -0.6889    0.0477 C   0  0  0  0  0  0  0  0  0  0  0  0
    6.6028   -0.3715   -0.0233 C   0  0  0  0  0  0  0  0  0  0  0  0
    7.1108   -0.9566   -0.8145 H   0  0  0  0  0  0  0  0  0  0  0  0
    7.1114   -0.5721    0.9401 H   0  0  0  0  0  0  0  0  0  0  0  0
    6.7601    0.7034   -0.2573 H   0  0  0  0  0  0  0  0  0  0  0  0
    4.4355   -1.1411   -1.0898 C   0  0  0  0  0  0  0  0  0  0  0  0
    4.9810   -1.2859   -2.0358 H   0  0  0  0  0  0  0  0  0  0  0  0
    3.0555   -1.4031   -1.0607 C   0  0  0  0  0  0  0  0  0  0  0  0
    2.2987   -1.8357   -2.2881 C   0  0  0  0  0  0  0  0  0  0  0  0
    2.9782   -1.9707   -3.1499 H   0  0  0  0  0  0  0  0  0  0  0  0
    1.5398   -1.0721   -2.5628 H   0  0  0  0  0  0  0  0  0  0  0  0
    1.7567   -2.7886   -2.1185 H   0  0  0  0  0  0  0  0  0  0  0  0
    2.2551   -0.4953    2.5931 C   0  0  0  0  0  0  0  0  0  0  0  0
    1.5650    0.3645    2.4497 H   0  0  0  0  0  0  0  0  0  0  0  0
    2.9285   -0.2620    3.4386 H   0  0  0  0  0  0  0  0  0  0  0  0
    1.6315   -1.3690    2.8722 H   0  0  0  0  0  0  0  0  0  0  0  0
  1  2  1  0  0  0  0
  3  2  1  0  0  0  0
  3 26  1  0  0  0  0
  4  5  2  0  0  0  0
  4  1  1  0  0  0  0
  5  3  1  0  0  0  0
  6  5  1  0  0  0  0
  6  7  1  0  0  0  0
  7  8  1  0  0  0  0
  8  9  1  0  0  0  0
  8 10  1  0  0  0  0
 11  8  1  0  0  0  0
 12  7  2  0  0  0  0
 12 13  1  0  0  0  0
 14 12  1  0  0  0  0
 15 14  1  0  0  0  0
 15 16  1  0  0  0  0
 17 15  1  0  0  0  0
 18 15  1  0  0  0  0
 19 21  1  0  0  0  0
 19 14  2  0  0  0  0
 20 19  1  0  0  0  0
 21  6  2  0  0  0  0
 22 23  1  0  0  0  0
 22 21  1  0  0  0  0
 24 22  1  0  0  0  0
 25 22  1  0  0  0  0
 26 28  1  0  0  0  0
 26 29  1  0  0  0  0
 27 26  1  0  0  0  0
 30  1  1  0  0  0  0
 30 31  1  0  0  0  0
 31 46  1  0  0  0  0
 32 31  2  0  0  0  0
 32 33  1  0  0  0  0
 34 32  1  0  0  0  0
 35 34  1  0  0  0  0
 35 37  1  0  0  0  0
 36 35  1  0  0  0  0
 38 35  1  0  0  0  0
 39 41  1  0  0  0  0
 39 34  2  0  0  0  0
 40 39  1  0  0  0  0
 41 30  2  0  0  0  0
 42 45  1  0  0  0  0
 42 41  1  0  0  0  0
 43 42  1  0  0  0  0
 44 42  1  0  0  0  0
 46 49  1  0  0  0  0
 46 48  1  0  0  0  0
 47 46  1  0  0  0  0
M  END
