5
 OpenBabel05122313113D

 57 61  0  0  0  0  0  0  0  0999 V2000
    4.9027   -4.4682    0.2774 O   0  0  0  0  0  0  0  0  0  0  0  0
    5.2255    4.0018    0.2349 O   0  0  0  0  0  0  0  0  0  0  0  0
   -0.7264   -1.0999    0.0366 N   0  0  0  0  0  0  0  0  0  0  0  0
   -0.6615    1.0616    0.0226 N   0  0  0  0  0  0  0  0  0  0  0  0
   -1.5342    0.0059    0.0084 C   0  0  0  0  0  2  0  0  0  0  0  0
    0.6362   -0.7527    0.0664 C   0  0  0  0  0  0  0  0  0  0  0  0
    0.6780    0.6336    0.0595 C   0  0  0  0  0  0  0  0  0  0  0  0
   -1.2421   -2.4356   -0.0317 C   0  0  0  0  0  0  0  0  0  0  0  0
   -2.2144   -2.8485    0.8943 C   0  0  0  0  0  0  0  0  0  0  0  0
   -2.5595   -2.1475    1.6676 H   0  0  0  0  0  0  0  0  0  0  0  0
   -2.7367   -4.1472    0.8105 C   0  0  0  0  0  0  0  0  0  0  0  0
   -3.5069   -4.4672    1.5276 H   0  0  0  0  0  0  0  0  0  0  0  0
   -2.2817   -5.0297   -0.1814 C   0  0  0  0  0  0  0  0  0  0  0  0
   -2.6932   -6.0482   -0.2433 H   0  0  0  0  0  0  0  0  0  0  0  0
   -1.3060   -4.6091   -1.0995 C   0  0  0  0  0  0  0  0  0  0  0  0
   -0.9528   -5.2943   -1.8843 H   0  0  0  0  0  0  0  0  0  0  0  0
   -0.7863   -3.3092   -1.0330 C   0  0  0  0  0  0  0  0  0  0  0  0
   -0.0332   -2.9653   -1.7555 H   0  0  0  0  0  0  0  0  0  0  0  0
   -1.1002    2.4252    0.0722 C   0  0  0  0  0  0  0  0  0  0  0  0
   -1.9977    2.8979   -0.8996 C   0  0  0  0  0  0  0  0  0  0  0  0
   -2.3435    2.2208   -1.6936 H   0  0  0  0  0  0  0  0  0  0  0  0
   -2.4472    4.2246   -0.8340 C   0  0  0  0  0  0  0  0  0  0  0  0
   -3.1602    4.5914   -1.5869 H   0  0  0  0  0  0  0  0  0  0  0  0
   -1.9935    5.0753    0.1860 C   0  0  0  0  0  0  0  0  0  0  0  0
   -2.3487    6.1154    0.2343 H   0  0  0  0  0  0  0  0  0  0  0  0
   -1.0926    4.5947    1.1501 C   0  0  0  0  0  0  0  0  0  0  0  0
   -0.7421    5.2546    1.9576 H   0  0  0  0  0  0  0  0  0  0  0  0
   -0.6465    3.2670    1.1014 C   0  0  0  0  0  0  0  0  0  0  0  0
    0.0465    2.8769    1.8597 H   0  0  0  0  0  0  0  0  0  0  0  0
    1.7427   -1.7191    0.0995 C   0  0  0  0  0  0  0  0  0  0  0  0
    1.7362   -2.8234    0.9874 C   0  0  0  0  0  0  0  0  0  0  0  0
    0.8832   -2.9745    1.6646 H   0  0  0  0  0  0  0  0  0  0  0  0
    2.8015   -3.7209    1.0214 C   0  0  0  0  0  0  0  0  0  0  0  0
    2.8037   -4.5783    1.7095 H   0  0  0  0  0  0  0  0  0  0  0  0
    3.9148   -3.5427    0.1695 C   0  0  0  0  0  0  0  0  0  0  0  0
    3.9368   -2.4467   -0.7190 C   0  0  0  0  0  0  0  0  0  0  0  0
    4.7849   -2.2834   -1.3967 H   0  0  0  0  0  0  0  0  0  0  0  0
    2.8573   -1.5536   -0.7484 C   0  0  0  0  0  0  0  0  0  0  0  0
    2.8785   -0.7066   -1.4496 H   0  0  0  0  0  0  0  0  0  0  0  0
    1.8398    1.5332    0.0822 C   0  0  0  0  0  0  0  0  0  0  0  0
    1.9378    2.6345   -0.7936 C   0  0  0  0  0  0  0  0  0  0  0  0
    1.1288    2.8339   -1.5112 H   0  0  0  0  0  0  0  0  0  0  0  0
    3.0515    3.4851   -0.7743 C   0  0  0  0  0  0  0  0  0  0  0  0
    3.0888    4.3318   -1.4721 H   0  0  0  0  0  0  0  0  0  0  0  0
    4.1046    3.2418    0.1324 C   0  0  0  0  0  0  0  0  0  0  0  0
    4.0193    2.1389    1.0121 C   0  0  0  0  0  0  0  0  0  0  0  0
    4.8463    1.9685    1.7162 H   0  0  0  0  0  0  0  0  0  0  0  0
    2.9048    1.3030    0.9877 C   0  0  0  0  0  0  0  0  0  0  0  0
    2.8459    0.4540    1.6841 H   0  0  0  0  0  0  0  0  0  0  0  0
    6.0448   -4.3372   -0.5494 C   0  0  0  0  0  0  0  0  0  0  0  0
    5.7830   -4.3938   -1.6298 H   0  0  0  0  0  0  0  0  0  0  0  0
    6.7121   -5.1817   -0.2969 H   0  0  0  0  0  0  0  0  0  0  0  0
    6.5839   -3.3815   -0.3627 H   0  0  0  0  0  0  0  0  0  0  0  0
    5.3583    5.1276   -0.6139 C   0  0  0  0  0  0  0  0  0  0  0  0
    5.3679    4.8377   -1.6885 H   0  0  0  0  0  0  0  0  0  0  0  0
    6.3261    5.5981   -0.3603 H   0  0  0  0  0  0  0  0  0  0  0  0
    4.5426    5.8672   -0.4516 H   0  0  0  0  0  0  0  0  0  0  0  0
  3  6  1  0  0  0  0
  4  7  1  0  0  0  0
  4 19  1  0  0  0  0
  5  4  1  0  0  0  0
  5  3  1  0  0  0  0
  6 30  1  0  0  0  0
  7  6  2  0  0  0  0
  7 40  1  0  0  0  0
  8  3  1  0  0  0  0
  8  9  1  0  0  0  0
  9 10  1  0  0  0  0
 11  9  2  0  0  0  0
 11 12  1  0  0  0  0
 13 11  1  0  0  0  0
 14 13  1  0  0  0  0
 15 17  1  0  0  0  0
 15 13  2  0  0  0  0
 16 15  1  0  0  0  0
 17  8  2  0  0  0  0
 18 17  1  0  0  0  0
 19 28  1  0  0  0  0
 20 22  1  0  0  0  0
 20 19  2  0  0  0  0
 21 20  1  0  0  0  0
 22 24  2  0  0  0  0
 23 22  1  0  0  0  0
 24 25  1  0  0  0  0
 24 26  1  0  0  0  0
 26 27  1  0  0  0  0
 28 26  2  0  0  0  0
 28 29  1  0  0  0  0
 30 31  1  0  0  0  0
 31 33  2  0  0  0  0
 31 32  1  0  0  0  0
 33 34  1  0  0  0  0
 35  1  1  0  0  0  0
 35 33  1  0  0  0  0
 36 35  2  0  0  0  0
 37 36  1  0  0  0  0
 38 36  1  0  0  0  0
 38 30  2  0  0  0  0
 39 38  1  0  0  0  0
 40 48  1  0  0  0  0
 41 43  1  0  0  0  0
 41 40  2  0  0  0  0
 42 41  1  0  0  0  0
 43 45  2  0  0  0  0
 44 43  1  0  0  0  0
 45  2  1  0  0  0  0
 45 46  1  0  0  0  0
 46 47  1  0  0  0  0
 48 46  2  0  0  0  0
 48 49  1  0  0  0  0
 50 53  1  0  0  0  0
 50 52  1  0  0  0  0
 50  1  1  0  0  0  0
 51 50  1  0  0  0  0
 54 57  1  0  0  0  0
 54 56  1  0  0  0  0
 54  2  1  0  0  0  0
 55 54  1  0  0  0  0
M  END
