14
 OpenBabel05122313113D

 52 59  0  0  1  0  0  0  0  0999 V2000
    0.9481   -1.2712   -1.8567 O   0  0  0  0  0  0  0  0  0  0  0  0
    2.8224    2.7689   -0.6320 O   0  0  0  0  0  0  0  0  0  0  0  0
    1.9042    0.7112   -1.1102 N   0  0  0  0  0  0  0  0  0  0  0  0
   -1.6713   -0.2251   -0.6182 N   0  0  0  0  0  0  0  0  0  0  0  0
   -1.7776    1.7674    0.2900 N   0  0  0  0  0  0  0  0  0  0  0  0
    0.6048    2.4554   -0.1014 N   0  0  0  0  0  0  0  0  0  0  0  0
    5.4280    0.1619    0.0970 C   0  0  1  0  0  0  0  0  0  0  0  0
    3.9994   -0.5185   -0.4673 C   0  0  1  0  0  0  0  0  0  0  0  0
    3.2077    0.2254   -1.5511 C   0  0  0  0  0  0  0  0  0  0  0  0
    3.7891    1.0836   -1.9286 H   0  0  0  0  0  0  0  0  0  0  0  0
    3.0196   -0.4889   -2.3717 H   0  0  0  0  0  0  0  0  0  0  0  0
    0.8055   -0.1937   -1.2923 C   0  0  0  0  0  0  0  0  0  0  0  0
   -0.4059    0.3408   -0.7247 C   0  0  0  0  0  0  0  0  0  0  0  0
   -2.5223    0.6286    0.0007 C   0  0  0  0  0  2  0  0  0  0  0  0
   -0.4766    1.6028   -0.1520 C   0  0  0  0  0  0  0  0  0  0  0  0
    1.8483    2.0231   -0.6192 C   0  0  0  0  0  0  0  0  0  0  0  0
   -2.0320   -1.5644   -1.0873 C   0  0  0  0  0  0  0  0  0  0  0  0
   -1.8149   -1.6487   -2.1679 H   0  0  0  0  0  0  0  0  0  0  0  0
   -3.1124   -1.7263   -0.8929 H   0  0  0  0  0  0  0  0  0  0  0  0
   -1.4275   -2.3198   -0.5514 H   0  0  0  0  0  0  0  0  0  0  0  0
   -2.3760    2.9044    0.9823 C   0  0  0  0  0  0  0  0  0  0  0  0
   -1.8708    3.0957    1.9472 H   0  0  0  0  0  0  0  0  0  0  0  0
   -3.4295    2.6291    1.1775 H   0  0  0  0  0  0  0  0  0  0  0  0
   -2.3538    3.8154    0.3563 H   0  0  0  0  0  0  0  0  0  0  0  0
    0.5424    3.8187    0.4236 C   0  0  0  0  0  0  0  0  0  0  0  0
   -0.1845    4.4306   -0.1433 H   0  0  0  0  0  0  0  0  0  0  0  0
    1.5514    4.2477    0.2978 H   0  0  0  0  0  0  0  0  0  0  0  0
    0.2802    3.8195    1.4982 H   0  0  0  0  0  0  0  0  0  0  0  0
    5.8546    1.5240   -0.4170 C   0  0  0  0  0  0  0  0  0  0  0  0
    6.3182    1.4452   -1.4175 H   0  0  0  0  0  0  0  0  0  0  0  0
    6.6074    1.9367    0.2790 H   0  0  0  0  0  0  0  0  0  0  0  0
    4.9979    2.2226   -0.4566 H   0  0  0  0  0  0  0  0  0  0  0  0
    4.0603    0.0946    1.1413 B   0  0  2  0  0  0  0  0  0  0  0  0
    3.4936    1.1269    1.3787 H   0  0  0  0  0  0  0  0  0  0  0  0
    5.6912   -0.2819    1.7250 B   0  0  1  0  0  0  0  0  0  0  0  0
    6.2391    0.5321    2.4261 H   0  0  0  0  0  0  0  0  0  0  0  0
    6.5785   -1.0607    0.3965 B   0  0  1  0  0  0  0  0  0  0  0  0
    7.7335   -0.7826    0.1882 H   0  0  0  0  0  0  0  0  0  0  0  0
    5.4881   -1.1762   -0.9979 B   0  0  1  0  0  0  0  0  0  0  0  0
    5.8165   -0.9329   -2.1314 H   0  0  0  0  0  0  0  0  0  0  0  0
    4.3190   -1.3233    2.1707 B   0  0  0  0  0  0  0  0  0  0  0  0
    3.8773   -1.3293    3.2949 H   0  0  0  0  0  0  0  0  0  0  0  0
    5.8904   -2.0498    1.7116 B   0  0  0  0  0  0  0  0  0  0  0  0
    6.6102   -2.5906    2.5169 H   0  0  0  0  0  0  0  0  0  0  0  0
    5.7701   -2.6035    0.0145 B   0  0  1  0  0  0  0  0  0  0  0  0
    6.3904   -3.5381   -0.4325 H   0  0  0  0  0  0  0  0  0  0  0  0
    4.1289   -2.2281   -0.5584 B   0  0  2  0  0  0  0  0  0  0  0  0
    3.5238   -2.7609   -1.4529 H   0  0  0  0  0  0  0  0  0  0  0  0
    3.2411   -1.4356    0.7606 B   0  0  2  0  0  0  0  0  0  0  0  0
    2.0376   -1.4513    0.7930 H   0  0  0  0  0  0  0  0  0  0  0  0
    4.3700   -2.7689    1.1169 B   0  0  2  0  0  0  0  0  0  0  0  0
    3.9538   -3.8430    1.4799 H   0  0  0  0  0  0  0  0  0  0  0  0
  1 12  2  0  0  0  0
  2 16  2  0  0  0  0
  3 16  1  0  0  0  0
  4 14  1  0  0  0  0
  5 21  1  0  0  0  0
  6 25  1  0  0  0  0
  7 29  1  6  0  0  0
  7 37  1  0  0  0  0
  7 35  1  0  0  0  0
  8  9  1  6  0  0  0
  8  7  1  0  0  0  0
  8 49  1  0  0  0  0
  9  3  1  0  0  0  0
 10  9  1  0  0  0  0
 11  9  1  0  0  0  0
 12  3  1  0  0  0  0
 12 13  1  0  0  0  0
 13  4  1  0  0  0  0
 13 15  2  0  0  0  0
 14  5  1  0  0  0  0
 15  6  1  0  0  0  0
 15  5  1  0  0  0  0
 16  6  1  0  0  0  0
 17 19  1  0  0  0  0
 17  4  1  0  0  0  0
 17 20  1  0  0  0  0
 18 17  1  0  0  0  0
 21 23  1  0  0  0  0
 21 22  1  0  0  0  0
 24 21  1  0  0  0  0
 25 28  1  0  0  0  0
 26 25  1  0  0  0  0
 27 25  1  0  0  0  0
 29 31  1  0  0  0  0
 30 29  1  0  0  0  0
 32 29  1  0  0  0  0
 33 34  1  1  0  0  0
 33 35  1  0  0  0  0
 33 41  1  0  0  0  0
 35 36  1  1  0  0  0
 37 38  1  6  0  0  0
 37 35  1  0  0  0  0
 39 40  1  6  0  0  0
 39  8  1  0  0  0  0
 39 45  1  0  0  0  0
 39 37  1  0  0  0  0
 41 42  1  0  0  0  0
 43 44  1  0  0  0  0
 45 46  1  6  0  0  0
 45 43  1  0  0  0  0
 47 48  1  6  0  0  0
 47 45  1  0  0  0  0
 47 49  1  0  0  0  0
 47 51  1  0  0  0  0
 49 50  1  1  0  0  0
 49 33  1  0  0  0  0
 51 52  1  1  0  0  0
 51 43  1  0  0  0  0
 51 41  1  0  0  0  0
M  END
