1
 OpenBabel05122313113D

 30 30  0  0  0  0  0  0  0  0999 V2000
   -1.9427   -1.1552    0.2961 C   0  0  0  0  0  2  0  0  0  0  0  0
   -3.0770   -0.5372   -0.1279 O   0  0  0  0  0  0  0  0  0  0  0  0
   -3.0776    0.6722   -0.8439 C   0  0  0  0  0  0  0  0  0  0  0  0
   -2.0958    1.1631   -1.3435 O   0  0  0  0  0  0  0  0  0  0  0  0
   -2.2355   -2.3181    0.8723 N   0  0  0  0  0  0  0  0  0  0  0  0
   -1.1704   -3.1385    1.4728 C   0  0  0  0  0  0  0  0  0  0  0  0
   -0.8269   -4.3718    0.6449 C   0  0  0  0  0  0  0  0  0  0  0  0
   -3.6176   -2.7996    1.0506 C   0  0  0  0  0  0  0  0  0  0  0  0
   -4.2642   -2.2282    2.3124 C   0  0  0  0  0  0  0  0  0  0  0  0
   -4.4537    1.2298   -0.9121 C   0  0  0  0  0  0  0  0  0  0  0  0
   -5.5630    0.6320   -0.2772 C   0  0  0  0  0  0  0  0  0  0  0  0
   -6.8286    1.2234   -0.3804 C   0  0  0  0  0  0  0  0  0  0  0  0
   -6.9954    2.4091   -1.1148 C   0  0  0  0  0  0  0  0  0  0  0  0
   -5.8925    3.0079   -1.7477 C   0  0  0  0  0  0  0  0  0  0  0  0
   -4.6263    2.4221   -1.6475 C   0  0  0  0  0  0  0  0  0  0  0  0
   -0.2875   -2.4731    1.5725 H   0  0  0  0  0  0  0  0  0  0  0  0
   -1.5044   -3.4087    2.4972 H   0  0  0  0  0  0  0  0  0  0  0  0
   -1.7001   -5.0403    0.4981 H   0  0  0  0  0  0  0  0  0  0  0  0
   -0.4384   -4.0678   -0.3481 H   0  0  0  0  0  0  0  0  0  0  0  0
   -0.0421   -4.9568    1.1644 H   0  0  0  0  0  0  0  0  0  0  0  0
   -3.5709   -3.9054    1.0940 H   0  0  0  0  0  0  0  0  0  0  0  0
   -4.1989   -2.5340    0.1480 H   0  0  0  0  0  0  0  0  0  0  0  0
   -3.6965   -2.5109    3.2209 H   0  0  0  0  0  0  0  0  0  0  0  0
   -4.2989   -1.1220    2.2731 H   0  0  0  0  0  0  0  0  0  0  0  0
   -5.2979   -2.6128    2.4204 H   0  0  0  0  0  0  0  0  0  0  0  0
   -5.4272   -0.2917    0.3002 H   0  0  0  0  0  0  0  0  0  0  0  0
   -7.6921    0.7573    0.1175 H   0  0  0  0  0  0  0  0  0  0  0  0
   -7.9916    2.8706   -1.1932 H   0  0  0  0  0  0  0  0  0  0  0  0
   -6.0232    3.9377   -2.3212 H   0  0  0  0  0  0  0  0  0  0  0  0
   -3.7453    2.8702   -2.1296 H   0  0  0  0  0  0  0  0  0  0  0  0
  1  5  1  0  0  0  0
  2  1  1  0  0  0  0
  3  2  1  0  0  0  0
  4  3  2  0  0  0  0
  5  8  1  0  0  0  0
  5  6  1  0  0  0  0
  6 16  1  0  0  0  0
  6 17  1  0  0  0  0
  7 20  1  0  0  0  0
  7  6  1  0  0  0  0
  8 21  1  0  0  0  0
  8  9  1  0  0  0  0
  9 25  1  0  0  0  0
  9 23  1  0  0  0  0
 10  3  1  0  0  0  0
 10 11  1  0  0  0  0
 11 26  1  0  0  0  0
 12 11  2  0  0  0  0
 12 27  1  0  0  0  0
 13 12  1  0  0  0  0
 14 15  1  0  0  0  0
 14 13  2  0  0  0  0
 15 10  2  0  0  0  0
 18  7  1  0  0  0  0
 19  7  1  0  0  0  0
 22  8  1  0  0  0  0
 24  9  1  0  0  0  0
 28 13  1  0  0  0  0
 29 14  1  0  0  0  0
 30 15  1  0  0  0  0
M  END
