7
 OpenBabel05122313113D

 20 19  0  0  0  0  0  0  0  0999 V2000
    0.6849   -0.0033    1.2755 N   0  0  0  0  0  2  0  0  0  0  0  0
    5.3234   -0.6889   -0.1794 N   0  0  0  0  0  4  0  0  0  0  0  0
    3.0042    1.9778   -0.3343 N   0  0  0  0  0  4  0  0  0  0  0  0
    2.5665   -1.7765   -0.2021 C   0  0  0  0  0  0  0  0  0  0  0  0
    2.9327   -0.3929    0.3490 C   0  0  0  0  0  0  0  0  0  0  0  0
    2.0606   -0.0358    1.5851 C   0  0  0  0  0  0  0  0  0  0  0  0
   -0.4064   -0.0079    0.8049 C   0  0  0  0  0  1  0  0  0  0  0  0
    4.4034   -0.3645    0.8462 C   0  0  0  0  0  0  0  0  0  0  0  0
    6.0588   -0.9595   -1.0711 C   0  0  0  0  0  3  0  0  0  0  0  0
    2.7332    0.6578   -0.7752 C   0  0  0  0  0  0  0  0  0  0  0  0
    3.2393    3.0562    0.1026 C   0  0  0  0  0  3  0  0  0  0  0  0
    3.2069   -2.0378   -1.0666 H   0  0  0  0  0  0  0  0  0  0  0  0
    2.7056   -2.5566    0.5728 H   0  0  0  0  0  0  0  0  0  0  0  0
    1.5106   -1.8106   -0.5341 H   0  0  0  0  0  0  0  0  0  0  0  0
    2.2366   -0.7854    2.3872 H   0  0  0  0  0  0  0  0  0  0  0  0
    2.3625    0.9556    1.9881 H   0  0  0  0  0  0  0  0  0  0  0  0
    4.6505    0.6446    1.2406 H   0  0  0  0  0  0  0  0  0  0  0  0
    4.5258   -1.0885    1.6802 H   0  0  0  0  0  0  0  0  0  0  0  0
    3.4046    0.4130   -1.6248 H   0  0  0  0  0  0  0  0  0  0  0  0
    1.6916    0.6117   -1.1555 H   0  0  0  0  0  0  0  0  0  0  0  0
  1  6  1  0  0  0  0
  2  8  1  0  0  0  0
  3 11  3  0  0  0  0
  4  5  1  0  0  0  0
  4 13  1  0  0  0  0
  5  8  1  0  0  0  0
  5  6  1  0  0  0  0
  6 16  1  0  0  0  0
  6 15  1  0  0  0  0
  7  1  1  0  0  0  0
  8 17  1  0  0  0  0
  8 18  1  0  0  0  0
  9  2  3  0  0  0  0
 10  3  1  0  0  0  0
 10  5  1  0  0  0  0
 12  4  1  0  0  0  0
 14  4  1  0  0  0  0
 19 10  1  0  0  0  0
 20 10  1  0  0  0  0
M  END
