2
 OpenBabel05122313113D

 29 30  0  0  1  0  0  0  0  0999 V2000
   -1.1754    1.6954    0.2103 N   0  0  0  0  0  0  0  0  0  0  0  0
    0.8503    0.6985   -0.4614 C   0  0  0  0  0  3  0  0  0  0  0  0
    2.2554    0.2663   -0.2624 C   0  0  0  0  0  0  0  0  0  0  0  0
    3.0031    0.5572    0.9027 C   0  0  0  0  0  0  0  0  0  0  0  0
    4.3216    0.1051    1.0529 C   0  0  0  0  0  0  0  0  0  0  0  0
    4.9354   -0.6538    0.0449 C   0  0  0  0  0  0  0  0  0  0  0  0
    4.2110   -0.9523   -1.1215 C   0  0  0  0  0  0  0  0  0  0  0  0
    2.8965   -0.4958   -1.2706 C   0  0  0  0  0  0  0  0  0  0  0  0
    0.3170    1.8887    0.3101 C   0  0  1  0  0  0  0  0  0  0  0  0
    0.6176    3.2991   -0.2713 C   0  0  0  0  0  0  0  0  0  0  0  0
   -0.6517    3.6761   -1.0797 C   0  0  0  0  0  0  0  0  0  0  0  0
   -1.5138    2.3976   -1.0641 C   0  0  0  0  0  0  0  0  0  0  0  0
   -1.9135    2.3051    1.3329 C   0  0  0  0  0  0  0  0  0  0  0  0
    0.6834    0.8508   -1.5473 H   0  0  0  0  0  0  0  0  0  0  0  0
    2.5457    1.1385    1.7173 H   0  0  0  0  0  0  0  0  0  0  0  0
    4.8749    0.3472    1.9735 H   0  0  0  0  0  0  0  0  0  0  0  0
    5.9694   -1.0101    0.1661 H   0  0  0  0  0  0  0  0  0  0  0  0
    4.6777   -1.5440   -1.9245 H   0  0  0  0  0  0  0  0  0  0  0  0
    2.3382   -0.7337   -2.1909 H   0  0  0  0  0  0  0  0  0  0  0  0
    0.5867    1.8005    1.3798 H   0  0  0  0  0  0  0  0  0  0  0  0
    1.5249    3.2506   -0.9043 H   0  0  0  0  0  0  0  0  0  0  0  0
    0.8195    4.0393    0.5279 H   0  0  0  0  0  0  0  0  0  0  0  0
   -1.1889    4.5226   -0.6070 H   0  0  0  0  0  0  0  0  0  0  0  0
   -0.4261    3.9853   -2.1185 H   0  0  0  0  0  0  0  0  0  0  0  0
   -1.2367    1.7373   -1.9061 H   0  0  0  0  0  0  0  0  0  0  0  0
   -2.6058    2.5715   -1.1186 H   0  0  0  0  0  0  0  0  0  0  0  0
   -2.9855    2.0437    1.2536 H   0  0  0  0  0  0  0  0  0  0  0  0
   -1.8094    3.4125    1.3412 H   0  0  0  0  0  0  0  0  0  0  0  0
   -1.5300    1.9031    2.2868 H   0  0  0  0  0  0  0  0  0  0  0  0
  1  9  1  0  0  0  0
  1 13  1  0  0  0  0
  2  3  1  0  0  0  0
  2  9  1  0  0  0  0
  3  4  1  0  0  0  0
  4  5  2  0  0  0  0
  4 15  1  0  0  0  0
  5 16  1  0  0  0  0
  6 17  1  0  0  0  0
  6  5  1  0  0  0  0
  7  6  2  0  0  0  0
  8  7  1  0  0  0  0
  8  3  2  0  0  0  0
  9 20  1  1  0  0  0
 10  9  1  0  0  0  0
 10 22  1  0  0  0  0
 11 12  1  0  0  0  0
 11 23  1  0  0  0  0
 11 10  1  0  0  0  0
 12  1  1  0  0  0  0
 13 28  1  0  0  0  0
 13 29  1  0  0  0  0
 14  2  1  0  0  0  0
 18  7  1  0  0  0  0
 19  8  1  0  0  0  0
 21 10  1  0  0  0  0
 24 11  1  0  0  0  0
 25 12  1  0  0  0  0
 26 12  1  0  0  0  0
 27 13  1  0  0  0  0
M  END
