2
 OpenBabel05122313113D

 18 18  0  0  0  0  0  0  0  0999 V2000
    1.7373   -1.0583   -1.5494 C   0  0  0  0  0  3  0  0  0  0  0  0
    0.4301   -0.4746   -1.5973 C   0  0  0  0  0  3  0  0  0  0  0  0
   -0.9589   -1.6191   -1.2995 S   0  0  1  0  0  0  0  0  0  0  0  0
   -0.4743   -2.5635   -0.1929 O   0  0  0  0  0  0  0  0  0  0  0  0
   -2.1139   -0.4541   -0.5065 C   0  0  0  0  0  0  0  0  0  0  0  0
   -2.6081    0.6640   -1.1955 C   0  0  0  0  0  0  0  0  0  0  0  0
   -3.4935    1.5265   -0.5332 C   0  0  0  0  0  0  0  0  0  0  0  0
   -3.8904    1.2544    0.7876 C   0  0  0  0  0  0  0  0  0  0  0  0
   -3.4072    0.1152    1.4493 C   0  0  0  0  0  0  0  0  0  0  0  0
   -2.5138   -0.7521    0.8011 C   0  0  0  0  0  0  0  0  0  0  0  0
    2.5102   -0.7214   -2.2578 H   0  0  0  0  0  0  0  0  0  0  0  0
    1.8332   -2.1026   -1.2111 H   0  0  0  0  0  0  0  0  0  0  0  0
    0.1607    0.2529   -2.3840 H   0  0  0  0  0  0  0  0  0  0  0  0
   -2.3013    0.8730   -2.2323 H   0  0  0  0  0  0  0  0  0  0  0  0
   -3.8770    2.4179   -1.0524 H   0  0  0  0  0  0  0  0  0  0  0  0
   -4.5843    1.9361    1.3018 H   0  0  0  0  0  0  0  0  0  0  0  0
   -3.7222   -0.0991    2.4818 H   0  0  0  0  0  0  0  0  0  0  0  0
   -2.1051   -1.6497    1.2901 H   0  0  0  0  0  0  0  0  0  0  0  0
  1 12  1  0  0  0  0
  2  1  1  0  0  0  0
  2  3  1  0  0  0  0
  3  5  1  0  0  0  0
  3  4  2  1  0  0  0
  5 10  1  0  0  0  0
  6  7  1  0  0  0  0
  6  5  2  0  0  0  0
  7  8  2  0  0  0  0
  8 16  1  0  0  0  0
  8  9  1  0  0  0  0
  9 17  1  0  0  0  0
 10 18  1  0  0  0  0
 10  9  2  0  0  0  0
 11  1  1  0  0  0  0
 13  2  1  0  0  0  0
 14  6  1  0  0  0  0
 15  7  1  0  0  0  0
M  END
