3
 OpenBabel05122313113D

 65 71  0  0  1  0  0  0  0  0999 V2000
   -1.1019   -0.9779    0.0031 N   0  0  2  0  0  0  0  0  0  0  0  0
    1.1018   -0.9780   -0.0033 N   0  0  2  0  0  0  0  0  0  0  0  0
    0.0000   -0.1970   -0.0001 C   0  0  0  0  0  2  0  0  0  0  0  0
    0.7445   -2.4009    0.1608 C   0  0  0  0  0  0  0  0  0  0  0  0
    1.3417   -3.0327   -0.5237 H   0  0  0  0  0  0  0  0  0  0  0  0
    0.9588   -2.7147    1.2048 H   0  0  0  0  0  0  0  0  0  0  0  0
   -0.7448   -2.4008   -0.1610 C   0  0  0  0  0  0  0  0  0  0  0  0
   -1.3421   -3.0326    0.5235 H   0  0  0  0  0  0  0  0  0  0  0  0
   -0.9591   -2.7145   -1.2051 H   0  0  0  0  0  0  0  0  0  0  0  0
   -2.5436   -0.6543    0.0226 C   0  0  0  0  0  0  0  0  0  0  0  0
   -3.2386   -1.2951   -1.1834 C   0  0  0  0  0  0  0  0  0  0  0  0
   -2.9978   -1.0545   -2.5373 C   0  0  0  0  0  0  0  0  0  0  0  0
   -2.2062   -0.3506   -2.8444 H   0  0  0  0  0  0  0  0  0  0  0  0
   -3.7865   -1.7358   -3.4848 C   0  0  0  0  0  0  0  0  0  0  0  0
   -3.6163   -1.5666   -4.5589 H   0  0  0  0  0  0  0  0  0  0  0  0
   -4.7927   -2.6294   -3.0715 C   0  0  0  0  0  0  0  0  0  0  0  0
   -5.4014   -3.1486   -3.8276 H   0  0  0  0  0  0  0  0  0  0  0  0
   -5.0291   -2.8705   -1.7068 C   0  0  0  0  0  0  0  0  0  0  0  0
   -5.8162   -3.5730   -1.3926 H   0  0  0  0  0  0  0  0  0  0  0  0
   -4.2399   -2.2014   -0.7574 C   0  0  0  0  0  0  0  0  0  0  0  0
   -4.2229   -2.2612    0.7159 C   0  0  0  0  0  0  0  0  0  0  0  0
   -4.9869   -3.0074    1.6278 C   0  0  0  0  0  0  0  0  0  0  0  0
   -5.7804   -3.6855    1.2781 H   0  0  0  0  0  0  0  0  0  0  0  0
   -4.7158   -2.8766    3.0012 C   0  0  0  0  0  0  0  0  0  0  0  0
   -5.3051   -3.4564    3.7280 H   0  0  0  0  0  0  0  0  0  0  0  0
   -3.6991   -2.0178    3.4600 C   0  0  0  0  0  0  0  0  0  0  0  0
   -3.5020   -1.9356    4.5397 H   0  0  0  0  0  0  0  0  0  0  0  0
   -2.9340   -1.2618    2.5505 C   0  0  0  0  0  0  0  0  0  0  0  0
   -2.1341   -0.5843    2.8925 H   0  0  0  0  0  0  0  0  0  0  0  0
   -3.2107   -1.3912    1.1887 C   0  0  0  0  0  0  0  0  0  0  0  0
   -2.8618    0.8571    0.0902 C   0  0  0  0  0  0  0  0  0  0  0  0
   -2.3687    1.2698    0.9942 H   0  0  0  0  0  0  0  0  0  0  0  0
   -2.3913    1.3442   -0.7889 H   0  0  0  0  0  0  0  0  0  0  0  0
   -4.3578    1.1732    0.1208 C   0  0  0  0  0  0  0  0  0  0  0  0
   -4.5028    2.2705    0.1659 H   0  0  0  0  0  0  0  0  0  0  0  0
   -4.8782    0.8022   -0.7848 H   0  0  0  0  0  0  0  0  0  0  0  0
   -4.8574    0.7307    1.0058 H   0  0  0  0  0  0  0  0  0  0  0  0
    2.5436   -0.6545   -0.0226 C   0  0  0  0  0  0  0  0  0  0  0  0
    3.2107   -1.3916   -1.1887 C   0  0  0  0  0  0  0  0  0  0  0  0
    2.9340   -1.2622   -2.5505 C   0  0  0  0  0  0  0  0  0  0  0  0
    2.1343   -0.5846   -2.8926 H   0  0  0  0  0  0  0  0  0  0  0  0
    3.6990   -2.0184   -3.4600 C   0  0  0  0  0  0  0  0  0  0  0  0
    3.5020   -1.9362   -4.5397 H   0  0  0  0  0  0  0  0  0  0  0  0
    4.7156   -2.8774   -3.0010 C   0  0  0  0  0  0  0  0  0  0  0  0
    5.3048   -3.4574   -3.7277 H   0  0  0  0  0  0  0  0  0  0  0  0
    4.9865   -3.0082   -1.6276 C   0  0  0  0  0  0  0  0  0  0  0  0
    5.7798   -3.6865   -1.2778 H   0  0  0  0  0  0  0  0  0  0  0  0
    4.2226   -2.2618   -0.7157 C   0  0  0  0  0  0  0  0  0  0  0  0
    4.2395   -2.2020    0.7575 C   0  0  0  0  0  0  0  0  0  0  0  0
    5.0285   -2.8712    1.7070 C   0  0  0  0  0  0  0  0  0  0  0  0
    5.8154   -3.5739    1.3929 H   0  0  0  0  0  0  0  0  0  0  0  0
    4.7920   -2.6301    3.0717 C   0  0  0  0  0  0  0  0  0  0  0  0
    5.4005   -3.1494    3.8278 H   0  0  0  0  0  0  0  0  0  0  0  0
    3.7860   -1.7362    3.4849 C   0  0  0  0  0  0  0  0  0  0  0  0
    3.6156   -1.5670    4.5590 H   0  0  0  0  0  0  0  0  0  0  0  0
    2.9975   -1.0547    2.5372 C   0  0  0  0  0  0  0  0  0  0  0  0
    2.2060   -0.3507    2.8443 H   0  0  0  0  0  0  0  0  0  0  0  0
    3.2384   -1.2954    1.1834 C   0  0  0  0  0  0  0  0  0  0  0  0
    2.8619    0.8568   -0.0903 C   0  0  0  0  0  0  0  0  0  0  0  0
    2.3689    1.2696   -0.9943 H   0  0  0  0  0  0  0  0  0  0  0  0
    2.3913    1.3439    0.7888 H   0  0  0  0  0  0  0  0  0  0  0  0
    4.3579    1.1727   -0.1207 C   0  0  0  0  0  0  0  0  0  0  0  0
    4.5031    2.2701   -0.1659 H   0  0  0  0  0  0  0  0  0  0  0  0
    4.8782    0.8017    0.7849 H   0  0  0  0  0  0  0  0  0  0  0  0
    4.8575    0.7301   -1.0057 H   0  0  0  0  0  0  0  0  0  0  0  0
  1  3  1  6  0  0  0
  1 10  1  0  0  0  0
  2 38  1  1  0  0  0
  2  3  1  0  0  0  0
  2  4  1  0  0  0  0
  4  6  1  0  0  0  0
  5  4  1  0  0  0  0
  7  1  1  0  0  0  0
  7  4  1  0  0  0  0
  7  8  1  0  0  0  0
  9  7  1  0  0  0  0
 10 31  1  0  0  0  0
 10 30  1  0  0  0  0
 11 20  1  0  0  0  0
 11 10  1  0  0  0  0
 12 11  2  0  0  0  0
 13 12  1  0  0  0  0
 14 16  2  0  0  0  0
 14 12  1  0  0  0  0
 15 14  1  0  0  0  0
 16 18  1  0  0  0  0
 17 16  1  0  0  0  0
 18 19  1  0  0  0  0
 18 20  2  0  0  0  0
 20 21  1  0  0  0  0
 21 30  2  0  0  0  0
 21 22  1  0  0  0  0
 22 24  2  0  0  0  0
 23 22  1  0  0  0  0
 24 26  1  0  0  0  0
 24 25  1  0  0  0  0
 26 27  1  0  0  0  0
 28 29  1  0  0  0  0
 28 26  2  0  0  0  0
 30 28  1  0  0  0  0
 31 34  1  0  0  0  0
 31 32  1  0  0  0  0
 33 31  1  0  0  0  0
 34 35  1  0  0  0  0
 34 37  1  0  0  0  0
 36 34  1  0  0  0  0
 38 58  1  0  0  0  0
 39 48  1  0  0  0  0
 39 38  1  0  0  0  0
 40 39  2  0  0  0  0
 41 40  1  0  0  0  0
 42 44  2  0  0  0  0
 42 40  1  0  0  0  0
 43 42  1  0  0  0  0
 44 46  1  0  0  0  0
 45 44  1  0  0  0  0
 46 47  1  0  0  0  0
 46 48  2  0  0  0  0
 48 49  1  0  0  0  0
 49 58  2  0  0  0  0
 49 50  1  0  0  0  0
 50 52  2  0  0  0  0
 51 50  1  0  0  0  0
 52 54  1  0  0  0  0
 52 53  1  0  0  0  0
 54 55  1  0  0  0  0
 56 57  1  0  0  0  0
 56 54  2  0  0  0  0
 58 56  1  0  0  0  0
 59 38  1  0  0  0  0
 59 61  1  0  0  0  0
 60 59  1  0  0  0  0
 62 59  1  0  0  0  0
 62 64  1  0  0  0  0
 63 62  1  0  0  0  0
 65 62  1  0  0  0  0
M  END
