13
 OpenBabel05122313113D

 40 42  0  0  0  0  0  0  0  0999 V2000
   -2.4666    1.5514   -1.3065 C   0  0  0  0  0  0  0  0  0  0  0  0
   -2.4599    0.8619   -2.1753 H   0  0  0  0  0  0  0  0  0  0  0  0
   -2.9232    2.5153   -1.6092 H   0  0  0  0  0  0  0  0  0  0  0  0
   -3.2505    0.9302   -0.1729 C   0  0  0  0  0  0  0  0  0  0  0  0
   -3.3497    1.5573    1.0844 C   0  0  0  0  0  0  0  0  0  0  0  0
   -2.8160    2.5104    1.2637 H   0  0  0  0  0  0  0  0  0  0  0  0
   -4.7052   -0.0913    1.9247 C   0  0  0  0  0  0  0  0  0  0  0  0
   -5.2832   -0.4757    2.7844 H   0  0  0  0  0  0  0  0  0  0  0  0
   -4.6752   -0.8060    0.7159 C   0  0  0  0  0  0  0  0  0  0  0  0
   -5.2158   -1.7594    0.6188 H   0  0  0  0  0  0  0  0  0  0  0  0
   -3.9246   -0.2904   -0.3486 C   0  0  0  0  0  0  0  0  0  0  0  0
   -3.8200   -0.8348   -1.3001 H   0  0  0  0  0  0  0  0  0  0  0  0
   -0.1759    0.8708   -0.5739 C   0  0  0  0  0  2  0  0  0  0  0  0
   -0.4640    3.0783   -1.0780 C   0  0  0  0  0  0  0  0  0  0  0  0
   -1.0160    3.9702   -1.3887 H   0  0  0  0  0  0  0  0  0  0  0  0
    0.8529    2.9082   -0.7449 C   0  0  0  0  0  0  0  0  0  0  0  0
    1.6880    3.6126   -0.7055 H   0  0  0  0  0  0  0  0  0  0  0  0
    2.2602    0.9488   -0.0856 C   0  0  0  0  0  0  0  0  0  0  0  0
    2.9336    0.1699   -1.0564 C   0  0  0  0  0  0  0  0  0  0  0  0
    4.1417   -0.4365   -0.6746 C   0  0  0  0  0  0  0  0  0  0  0  0
    4.6786   -1.0505   -1.4155 H   0  0  0  0  0  0  0  0  0  0  0  0
    4.6809   -0.2863    0.6190 C   0  0  0  0  0  0  0  0  0  0  0  0
    3.9854    0.5122    1.5435 C   0  0  0  0  0  0  0  0  0  0  0  0
    4.3937    0.6439    2.5583 H   0  0  0  0  0  0  0  0  0  0  0  0
    2.7726    1.1464    1.2133 C   0  0  0  0  0  0  0  0  0  0  0  0
    2.3629   -0.0125   -2.4356 C   0  0  0  0  0  0  0  0  0  0  0  0
    3.0755   -0.5441   -3.0936 H   0  0  0  0  0  0  0  0  0  0  0  0
    2.1148    0.9627   -2.9032 H   0  0  0  0  0  0  0  0  0  0  0  0
    1.4109   -0.5872   -2.4037 H   0  0  0  0  0  0  0  0  0  0  0  0
    5.9685   -0.9759    0.9944 C   0  0  0  0  0  0  0  0  0  0  0  0
    6.7774   -0.7405    0.2726 H   0  0  0  0  0  0  0  0  0  0  0  0
    5.8466   -2.0795    0.9889 H   0  0  0  0  0  0  0  0  0  0  0  0
    6.3132   -0.6805    2.0039 H   0  0  0  0  0  0  0  0  0  0  0  0
    2.0514    2.0104    2.2169 C   0  0  0  0  0  0  0  0  0  0  0  0
    2.3627    1.7642    3.2499 H   0  0  0  0  0  0  0  0  0  0  0  0
    0.9516    1.8979    2.1434 H   0  0  0  0  0  0  0  0  0  0  0  0
    2.2685    3.0879    2.0549 H   0  0  0  0  0  0  0  0  0  0  0  0
   -4.0496    1.0665    2.1173 N   0  0  0  0  0  0  0  0  0  0  0  0
   -1.0710    1.8335   -0.9658 N   0  0  0  0  0  0  0  0  0  0  0  0
    1.0100    1.5579   -0.4392 N   0  0  0  0  0  0  0  0  0  0  0  0
  1 39  1  0  0  0  0
  1  4  1  0  0  0  0
  2  1  1  0  0  0  0
  3  1  1  0  0  0  0
  4  5  1  0  0  0  0
  5  6  1  0  0  0  0
  5 38  2  0  0  0  0
  7 38  1  0  0  0  0
  7  8  1  0  0  0  0
  9  7  2  0  0  0  0
 10  9  1  0  0  0  0
 11  4  2  0  0  0  0
 11  9  1  0  0  0  0
 12 11  1  0  0  0  0
 13 40  1  0  0  0  0
 14 39  1  0  0  0  0
 14 16  2  0  0  0  0
 15 14  1  0  0  0  0
 16 17  1  0  0  0  0
 16 40  1  0  0  0  0
 18 25  1  0  0  0  0
 19 20  1  0  0  0  0
 19 18  2  0  0  0  0
 20 22  2  0  0  0  0
 21 20  1  0  0  0  0
 22 30  1  0  0  0  0
 22 23  1  0  0  0  0
 23 24  1  0  0  0  0
 25 23  2  0  0  0  0
 25 34  1  0  0  0  0
 26 29  1  0  0  0  0
 26 19  1  0  0  0  0
 27 26  1  0  0  0  0
 28 26  1  0  0  0  0
 30 33  1  0  0  0  0
 31 30  1  0  0  0  0
 32 30  1  0  0  0  0
 34 35  1  0  0  0  0
 36 34  1  0  0  0  0
 37 34  1  0  0  0  0
 39 13  1  0  0  0  0
 40 18  1  0  0  0  0
M  END
