4
 OpenBabel05122313113D

 17 17  0  0  0  0  0  0  0  0999 V2000
    2.6772    0.1675    0.2426 O   0  0  0  0  0  0  0  0  0  0  0  0
    1.6730   -2.1414    0.8812 O   0  0  0  0  0  0  0  0  0  0  0  0
    1.2337   -2.9944    1.0730 H   0  0  0  0  0  0  0  0  0  0  0  0
   -0.1848    0.0940   -2.1342 C   0  0  0  0  0  3  0  0  0  0  0  0
   -0.6584    0.7131   -2.9098 H   0  0  0  0  0  0  0  0  0  0  0  0
   -0.7236   -1.1723   -1.8101 C   0  0  0  0  0  3  0  0  0  0  0  0
   -1.6190   -1.5524   -2.3202 H   0  0  0  0  0  0  0  0  0  0  0  0
   -0.1291   -1.9243   -0.7519 C   0  0  0  0  0  0  0  0  0  0  0  0
   -0.5744   -2.8860   -0.4521 H   0  0  0  0  0  0  0  0  0  0  0  0
    1.0381   -1.4748   -0.0807 C   0  0  0  0  0  0  0  0  0  0  0  0
    1.6074   -0.1867   -0.4450 C   0  0  0  0  0  0  0  0  0  0  0  0
    0.9538    0.6002   -1.4366 C   0  0  0  0  0  0  0  0  0  0  0  0
    1.3334    1.6009   -1.6780 H   0  0  0  0  0  0  0  0  0  0  0  0
    3.2658    1.4659    0.0470 C   0  0  0  0  0  0  0  0  0  0  0  0
    3.6051    1.5911   -1.0011 H   0  0  0  0  0  0  0  0  0  0  0  0
    4.1347    1.5018    0.7257 H   0  0  0  0  0  0  0  0  0  0  0  0
    2.5448    2.2627    0.3234 H   0  0  0  0  0  0  0  0  0  0  0  0
  2  3  1  0  0  0  0
  4  6  1  0  0  0  0
  4 12  1  0  0  0  0
  5  4  1  0  0  0  0
  6  8  1  0  0  0  0
  7  6  1  0  0  0  0
  8  9  1  0  0  0  0
  8 10  2  0  0  0  0
 10  2  1  0  0  0  0
 11 10  1  0  0  0  0
 11  1  1  0  0  0  0
 12 11  2  0  0  0  0
 13 12  1  0  0  0  0
 14  1  1  0  0  0  0
 14 17  1  0  0  0  0
 14 16  1  0  0  0  0
 15 14  1  0  0  0  0
M  END
