5
 OpenBabel05122313113D

 29 31  0  0  1  0  0  0  0  0999 V2000
    3.3325   -0.0890    2.1793 O   0  0  0  0  0  0  0  0  0  0  0  0
    1.2103    0.8658   -1.6535 N   0  0  0  0  0  0  0  0  0  0  0  0
    2.5395    0.9957   -1.6545 N   0  0  0  0  0  2  0  0  0  0  0  0
    2.8779    0.5978   -0.4392 N   0  0  0  0  0  0  0  0  0  0  0  0
    0.6735    0.3986   -0.4752 C   0  0  0  0  0  3  0  0  0  0  0  0
    1.8075    0.2358    0.3293 C   0  0  0  0  0  0  0  0  0  0  0  0
    2.0066   -0.3026    1.7128 C   0  0  0  0  0  0  0  0  0  0  0  0
    1.3158    0.2023    2.4173 H   0  0  0  0  0  0  0  0  0  0  0  0
    1.7429   -1.3902    1.7079 H   0  0  0  0  0  0  0  0  0  0  0  0
    4.3055   -0.4322    1.2060 C   0  0  2  0  0  0  0  0  0  0  0  0
    4.0841   -1.4483    0.7880 H   0  0  0  0  0  0  0  0  0  0  0  0
    5.6950   -0.4405    1.8307 C   0  0  0  0  0  0  0  0  0  0  0  0
    5.7084   -1.1721    2.6631 H   0  0  0  0  0  0  0  0  0  0  0  0
    5.8819    0.5595    2.2790 H   0  0  0  0  0  0  0  0  0  0  0  0
    6.7603   -0.7693    0.7743 C   0  0  0  0  0  0  0  0  0  0  0  0
    7.7702   -0.7293    1.2308 H   0  0  0  0  0  0  0  0  0  0  0  0
    6.6177   -1.8164    0.4268 H   0  0  0  0  0  0  0  0  0  0  0  0
    6.6845    0.1768   -0.4340 C   0  0  0  0  0  0  0  0  0  0  0  0
    7.4237   -0.1206   -1.2051 H   0  0  0  0  0  0  0  0  0  0  0  0
    6.9645    1.2050   -0.1142 H   0  0  0  0  0  0  0  0  0  0  0  0
    5.2785    0.2093   -1.0508 C   0  0  0  0  0  0  0  0  0  0  0  0
    5.2169    0.9376   -1.8829 H   0  0  0  0  0  0  0  0  0  0  0  0
    5.0163   -0.7844   -1.4742 H   0  0  0  0  0  0  0  0  0  0  0  0
    4.2647    0.5694    0.0343 C   0  0  1  0  0  0  0  0  0  0  0  0
    4.4937    1.5779    0.4443 H   0  0  0  0  0  0  0  0  0  0  0  0
    0.4600    1.2069   -2.8504 C   0  0  0  0  0  0  0  0  0  0  0  0
    1.1705    1.5684   -3.6137 H   0  0  0  0  0  0  0  0  0  0  0  0
   -0.2791    1.9902   -2.5907 H   0  0  0  0  0  0  0  0  0  0  0  0
   -0.0760    0.3064   -3.2071 H   0  0  0  0  0  0  0  0  0  0  0  0
  2  5  1  0  0  0  0
  3  2  1  0  0  0  0
  3  4  1  0  0  0  0
  4 24  1  0  0  0  0
  4  6  1  0  0  0  0
  5  6  2  0  0  0  0
  6  7  1  0  0  0  0
  7  1  1  0  0  0  0
  7  8  1  0  0  0  0
  9  7  1  0  0  0  0
 10 11  1  6  0  0  0
 10 12  1  0  0  0  0
 10  1  1  0  0  0  0
 12 14  1  0  0  0  0
 12 13  1  0  0  0  0
 15 16  1  0  0  0  0
 15 12  1  0  0  0  0
 17 15  1  0  0  0  0
 18 20  1  0  0  0  0
 18 15  1  0  0  0  0
 19 18  1  0  0  0  0
 21 18  1  0  0  0  0
 21 24  1  0  0  0  0
 22 21  1  0  0  0  0
 23 21  1  0  0  0  0
 24 25  1  1  0  0  0
 24 10  1  0  0  0  0
 26 28  1  0  0  0  0
 26  2  1  0  0  0  0
 27 26  1  0  0  0  0
 29 26  1  0  0  0  0
M  END
