3
 OpenBabel05122313113D

 28 29  0  0  1  0  0  0  0  0999 V2000
   -2.7827   -0.5279    1.4219 N   0  0  0  0  0  0  0  0  0  0  0  0
   -3.0290   -0.0830    0.1455 N   0  0  0  0  0  0  0  0  0  0  0  0
   -0.7847   -0.1638    0.4149 C   0  0  0  0  0  3  0  0  0  0  0  0
   -1.4218   -0.5633    1.6045 C   0  0  1  0  0  3  0  0  0  0  0  0
   -1.8268    0.1280   -0.4860 C   0  0  0  0  0  0  0  0  0  0  0  0
   -0.8007   -0.9528    2.9007 C   0  0  0  0  0  0  0  0  0  0  0  0
   -0.8155   -0.1138    3.6290 H   0  0  0  0  0  0  0  0  0  0  0  0
    0.2565   -1.2084    2.6996 H   0  0  0  0  0  0  0  0  0  0  0  0
   -1.2909   -1.8330    3.3633 H   0  0  0  0  0  0  0  0  0  0  0  0
   -1.7255    0.5585   -1.9056 C   0  0  0  0  0  0  0  0  0  0  0  0
   -2.7068    0.6265   -2.4106 H   0  0  0  0  0  0  0  0  0  0  0  0
   -1.0757   -0.1537   -2.4532 H   0  0  0  0  0  0  0  0  0  0  0  0
   -1.2173    1.5455   -1.9431 H   0  0  0  0  0  0  0  0  0  0  0  0
   -3.8327   -0.5702    2.4181 C   0  0  0  0  0  0  0  0  0  0  0  0
   -4.2364    0.4435    2.6227 H   0  0  0  0  0  0  0  0  0  0  0  0
   -3.3937   -0.9746    3.3462 H   0  0  0  0  0  0  0  0  0  0  0  0
   -4.6629   -1.2292    2.1006 H   0  0  0  0  0  0  0  0  0  0  0  0
   -4.3527    0.0426   -0.3685 C   0  0  0  0  0  0  0  0  0  0  0  0
   -5.1261   -1.1086   -0.6082 C   0  0  0  0  0  0  0  0  0  0  0  0
   -4.6963   -2.1010   -0.4068 H   0  0  0  0  0  0  0  0  0  0  0  0
   -6.4239   -0.9700   -1.1193 C   0  0  0  0  0  0  0  0  0  0  0  0
   -7.0332   -1.8662   -1.3087 H   0  0  0  0  0  0  0  0  0  0  0  0
   -6.9362    0.3058   -1.4080 C   0  0  0  0  0  0  0  0  0  0  0  0
   -7.9520    0.4091   -1.8177 H   0  0  0  0  0  0  0  0  0  0  0  0
   -6.1523    1.4487   -1.1818 C   0  0  0  0  0  0  0  0  0  0  0  0
   -6.5514    2.4477   -1.4119 H   0  0  0  0  0  0  0  0  0  0  0  0
   -4.8594    1.3231   -0.6536 C   0  0  0  0  0  0  0  0  0  0  0  0
   -4.2317    2.2052   -0.4598 H   0  0  0  0  0  0  0  0  0  0  0  0
  1  4  1  0  0  0  0
  1 14  1  0  0  0  0
  2  1  1  0  0  0  0
  3  4  1  0  0  0  0
  4  6  1  1  0  0  0
  5  2  1  0  0  0  0
  5  3  2  0  0  0  0
  6  9  1  0  0  0  0
  6  7  1  0  0  0  0
  8  6  1  0  0  0  0
 10  5  1  0  0  0  0
 11 10  1  0  0  0  0
 12 10  1  0  0  0  0
 13 10  1  0  0  0  0
 14 15  1  0  0  0  0
 14 16  1  0  0  0  0
 17 14  1  0  0  0  0
 18  2  1  0  0  0  0
 19 20  1  0  0  0  0
 19 18  1  0  0  0  0
 21 19  2  0  0  0  0
 22 21  1  0  0  0  0
 23 25  2  0  0  0  0
 23 21  1  0  0  0  0
 24 23  1  0  0  0  0
 25 27  1  0  0  0  0
 26 25  1  0  0  0  0
 27 28  1  0  0  0  0
 27 18  2  0  0  0  0
M  END
