2
 OpenBabel05122313113D

 21 21  0  0  1  0  0  0  0  0999 V2000
    2.3970   -2.0580    1.0568 Se  0  0  0  0  0  1  0  0  0  0  0  0
    2.8379   -0.2351    0.7159 C   0  0  1  0  0  3  0  0  0  0  0  0
    3.0575    0.6980    1.8009 C   0  0  0  0  0  0  0  0  0  0  0  0
    3.3522    2.0158    1.4909 C   0  0  0  0  0  0  0  0  0  0  0  0
    3.3626    2.5049    0.1470 C   0  0  0  0  0  0  0  0  0  0  0  0
    3.1711    1.6028   -0.8851 C   0  0  0  0  0  0  0  0  0  0  0  0
    3.0046    0.1878   -0.6597 C   0  0  1  0  0  3  0  0  0  0  0  0
    2.9393    0.2428    3.2267 C   0  0  0  0  0  0  0  0  0  0  0  0
    3.5750    3.9743   -0.1083 C   0  0  0  0  0  0  0  0  0  0  0  0
    3.5383   -0.7061   -1.7578 C   0  0  0  0  0  0  0  0  0  0  0  0
    3.5341    2.7274    2.3135 H   0  0  0  0  0  0  0  0  0  0  0  0
    3.2324    1.9511   -1.9281 H   0  0  0  0  0  0  0  0  0  0  0  0
    1.9116   -0.1263    3.4313 H   0  0  0  0  0  0  0  0  0  0  0  0
    3.6096   -0.6161    3.4361 H   0  0  0  0  0  0  0  0  0  0  0  0
    3.1754    1.0637    3.9319 H   0  0  0  0  0  0  0  0  0  0  0  0
    3.6481    4.1946   -1.1905 H   0  0  0  0  0  0  0  0  0  0  0  0
    2.7334    4.5744    0.2999 H   0  0  0  0  0  0  0  0  0  0  0  0
    4.4989    4.3425    0.3851 H   0  0  0  0  0  0  0  0  0  0  0  0
    2.9731   -0.5810   -2.7040 H   0  0  0  0  0  0  0  0  0  0  0  0
    4.5944   -0.4296   -1.9708 H   0  0  0  0  0  0  0  0  0  0  0  0
    3.5170   -1.7672   -1.4529 H   0  0  0  0  0  0  0  0  0  0  0  0
  2  1  1  1  0  0  0
  2  3  1  0  0  0  0
  3  8  1  0  0  0  0
  4  3  2  0  0  0  0
  4 11  1  0  0  0  0
  5  4  1  0  0  0  0
  6  7  1  0  0  0  0
  6  5  2  0  0  0  0
  7 10  1  1  0  0  0
  7  2  1  0  0  0  0
  8 13  1  0  0  0  0
  8 14  1  0  0  0  0
  8 15  1  0  0  0  0
  9  5  1  0  0  0  0
  9 17  1  0  0  0  0
  9 18  1  0  0  0  0
 10 21  1  0  0  0  0
 12  6  1  0  0  0  0
 16  9  1  0  0  0  0
 19 10  1  0  0  0  0
 20 10  1  0  0  0  0
M  END
