1
 OpenBabel05122313113D

 28 30  0  0  1  0  0  0  0  0999 V2000
   -0.4024    1.5255    0.2617 C   0  0  0  0  0  3  0  0  0  0  0  0
   -0.0758    2.8591    0.5793 C   0  0  0  0  0  0  0  0  0  0  0  0
   -1.0772    3.8396    0.6988 C   0  0  0  0  0  0  0  0  0  0  0  0
   -2.4166    3.4832    0.4901 C   0  0  0  0  0  0  0  0  0  0  0  0
   -2.7441    2.1580    0.1700 C   0  0  0  0  0  0  0  0  0  0  0  0
   -1.7579    1.1518    0.0571 C   0  0  0  0  0  0  0  0  0  0  0  0
   -2.1283   -0.2889   -0.2527 C   0  0  2  0  0  0  0  0  0  0  0  0
   -3.0167   -0.5238   -1.5229 C   0  0  0  0  0  0  0  0  0  0  0  0
   -4.1083   -1.4953   -1.0312 C   0  0  1  0  0  0  0  0  0  0  0  0
   -3.4476   -2.8493   -0.6726 C   0  0  0  0  0  0  0  0  0  0  0  0
   -2.7055   -2.5398    0.6685 C   0  0  0  0  0  0  0  0  0  0  0  0
   -2.9554   -1.0268    0.8571 C   0  0  2  0  0  0  0  0  0  0  0  0
   -4.4124   -0.9122    0.3621 C   0  0  0  0  0  0  0  0  0  0  0  0
    0.9759    3.1552    0.7306 H   0  0  0  0  0  0  0  0  0  0  0  0
   -0.8057    4.8771    0.9467 H   0  0  0  0  0  0  0  0  0  0  0  0
   -3.2114    4.2393    0.5726 H   0  0  0  0  0  0  0  0  0  0  0  0
   -3.8002    1.8994    0.0000 H   0  0  0  0  0  0  0  0  0  0  0  0
   -1.1592   -0.8298   -0.3671 H   0  0  0  0  0  0  0  0  0  0  0  0
   -2.4404   -0.9372   -2.3755 H   0  0  0  0  0  0  0  0  0  0  0  0
   -3.4680    0.4298   -1.8656 H   0  0  0  0  0  0  0  0  0  0  0  0
   -4.9671   -1.5842   -1.7236 H   0  0  0  0  0  0  0  0  0  0  0  0
   -4.2117   -3.6394   -0.5352 H   0  0  0  0  0  0  0  0  0  0  0  0
   -2.7643   -3.1986   -1.4735 H   0  0  0  0  0  0  0  0  0  0  0  0
   -1.6223   -2.7846    0.6273 H   0  0  0  0  0  0  0  0  0  0  0  0
   -3.1395   -3.1153    1.5107 H   0  0  0  0  0  0  0  0  0  0  0  0
   -2.7615   -0.6499    1.8785 H   0  0  0  0  0  0  0  0  0  0  0  0
   -4.8031    0.1232    0.3331 H   0  0  0  0  0  0  0  0  0  0  0  0
   -5.1141   -1.5307    0.9577 H   0  0  0  0  0  0  0  0  0  0  0  0
  1  2  1  0  0  0  0
  2  3  2  0  0  0  0
  2 14  1  0  0  0  0
  3 15  1  0  0  0  0
  4 16  1  0  0  0  0
  4  3  1  0  0  0  0
  5  4  2  0  0  0  0
  6  5  1  0  0  0  0
  6  1  2  0  0  0  0
  7 18  1  6  0  0  0
  7  6  1  0  0  0  0
  7 12  1  0  0  0  0
  8  9  1  0  0  0  0
  8  7  1  0  0  0  0
  9 21  1  6  0  0  0
  9 10  1  0  0  0  0
  9 13  1  0  0  0  0
 10 22  1  0  0  0  0
 10 11  1  0  0  0  0
 11 12  1  0  0  0  0
 11 25  1  0  0  0  0
 12 26  1  1  0  0  0
 13 12  1  0  0  0  0
 13 28  1  0  0  0  0
 17  5  1  0  0  0  0
 19  8  1  0  0  0  0
 20  8  1  0  0  0  0
 23 10  1  0  0  0  0
 24 11  1  0  0  0  0
 27 13  1  0  0  0  0
M  END
