14
 OpenBabel05122313113D

 70 75  0  0  1  0  0  0  0  0999 V2000
    3.0501    0.0352   -1.8379 C   0  0  0  0  0  0  0  0  0  0  0  0
    0.9734   -0.2423   -0.5685 N   0  0  0  0  0  0  0  0  0  0  0  0
   -1.1264    0.3145   -0.3361 N   0  0  0  0  0  0  0  0  0  0  0  0
    3.1329   -0.2343    0.6162 C   0  0  0  0  0  0  0  0  0  0  0  0
    0.2617   -1.5067   -0.9419 C   0  0  2  0  0  0  0  0  0  0  0  0
    0.4854   -1.7248   -2.0075 H   0  0  0  0  0  0  0  0  0  0  0  0
   -4.3310    1.4305    1.2095 C   0  0  0  0  0  0  0  0  0  0  0  0
   -4.9653    1.1799    2.0732 H   0  0  0  0  0  0  0  0  0  0  0  0
    5.2170   -0.0368   -0.6803 C   0  0  0  0  0  0  0  0  0  0  0  0
   -3.8715    2.8079   -0.7395 C   0  0  0  0  0  0  0  0  0  0  0  0
   -4.1540    3.6225   -1.4224 H   0  0  0  0  0  0  0  0  0  0  0  0
   -2.6648   -0.2589    2.0500 C   0  0  0  0  0  0  0  0  0  0  0  0
   -2.3009    1.0788   -0.0679 C   0  0  0  0  0  0  0  0  0  0  0  0
    0.1416    0.7602   -0.2323 C   0  0  0  0  0  2  0  0  0  0  0  0
   -3.1123    0.7412    1.0427 C   0  0  0  0  0  0  0  0  0  0  0  0
   -1.2298   -1.0955   -0.7971 C   0  0  2  0  0  0  0  0  0  0  0  0
   -1.7265   -1.6896   -0.0043 H   0  0  0  0  0  0  0  0  0  0  0  0
   -2.0470   -1.2180   -2.0653 C   0  0  0  0  0  0  0  0  0  0  0  0
   -1.7010   -0.4834   -3.2172 C   0  0  0  0  0  0  0  0  0  0  0  0
   -0.8310    0.1914   -3.1920 H   0  0  0  0  0  0  0  0  0  0  0  0
    2.4022   -0.1416   -0.5930 C   0  0  0  0  0  0  0  0  0  0  0  0
    4.5352   -0.1823    0.5417 C   0  0  0  0  0  0  0  0  0  0  0  0
    5.1140   -0.2549    1.4764 H   0  0  0  0  0  0  0  0  0  0  0  0
    4.4551    0.0753   -1.8571 C   0  0  0  0  0  0  0  0  0  0  0  0
    4.9681    0.2162   -2.8220 H   0  0  0  0  0  0  0  0  0  0  0  0
   -3.5810   -1.4486   -4.4195 C   0  0  0  0  0  0  0  0  0  0  0  0
   -4.1803   -1.5370   -5.3382 H   0  0  0  0  0  0  0  0  0  0  0  0
   -2.4630   -0.5975   -4.3873 C   0  0  0  0  0  0  0  0  0  0  0  0
   -2.1863   -0.0164   -5.2800 H   0  0  0  0  0  0  0  0  0  0  0  0
   -2.6746    2.1098   -0.9453 C   0  0  0  0  0  0  0  0  0  0  0  0
   -2.0154    2.3491   -1.7914 H   0  0  0  0  0  0  0  0  0  0  0  0
    0.7348   -2.6887   -0.1163 C   0  0  0  0  0  0  0  0  0  0  0  0
    0.1164   -3.0716    1.0890 C   0  0  0  0  0  0  0  0  0  0  0  0
   -0.7736   -2.5424    1.4570 H   0  0  0  0  0  0  0  0  0  0  0  0
   -3.9332   -2.1809   -3.2761 C   0  0  0  0  0  0  0  0  0  0  0  0
   -4.8098   -2.8460   -3.2943 H   0  0  0  0  0  0  0  0  0  0  0  0
   -3.1699   -2.0624   -2.1039 C   0  0  0  0  0  0  0  0  0  0  0  0
   -3.4478   -2.6306   -1.2019 H   0  0  0  0  0  0  0  0  0  0  0  0
   -4.7095    2.4533    0.3289 C   0  0  0  0  0  0  0  0  0  0  0  0
   -5.6567    2.9896    0.4896 H   0  0  0  0  0  0  0  0  0  0  0  0
   -1.4537   -0.0578    2.7506 C   0  0  0  0  0  0  0  0  0  0  0  0
   -0.8435    0.8306    2.5254 H   0  0  0  0  0  0  0  0  0  0  0  0
    2.2558    0.2313   -3.1036 C   0  0  0  0  0  0  0  0  0  0  0  0
    2.9167    0.5026   -3.9480 H   0  0  0  0  0  0  0  0  0  0  0  0
    1.5109    1.0443   -2.9750 H   0  0  0  0  0  0  0  0  0  0  0  0
    1.6937   -0.6792   -3.4023 H   0  0  0  0  0  0  0  0  0  0  0  0
    2.4363   -0.3366    1.9458 C   0  0  0  0  0  0  0  0  0  0  0  0
    1.9588    0.6339    2.2041 H   0  0  0  0  0  0  0  0  0  0  0  0
    3.1525   -0.5885    2.7503 H   0  0  0  0  0  0  0  0  0  0  0  0
    1.6340   -1.0992    1.9359 H   0  0  0  0  0  0  0  0  0  0  0  0
    6.7221    0.0451   -0.7168 C   0  0  0  0  0  0  0  0  0  0  0  0
    7.0674    1.0651   -0.4432 H   0  0  0  0  0  0  0  0  0  0  0  0
    7.1213   -0.1791   -1.7250 H   0  0  0  0  0  0  0  0  0  0  0  0
    7.1859   -0.6566    0.0049 H   0  0  0  0  0  0  0  0  0  0  0  0
    0.6384   -4.1241    1.8551 C   0  0  0  0  0  0  0  0  0  0  0  0
    0.1391   -4.4052    2.7947 H   0  0  0  0  0  0  0  0  0  0  0  0
   -1.8295   -2.0915    4.0340 C   0  0  0  0  0  0  0  0  0  0  0  0
   -1.5059   -2.8024    4.8094 H   0  0  0  0  0  0  0  0  0  0  0  0
   -3.0299   -2.3056    3.3378 C   0  0  0  0  0  0  0  0  0  0  0  0
   -3.6485   -3.1878    3.5622 H   0  0  0  0  0  0  0  0  0  0  0  0
   -3.4478   -1.3929    2.3558 C   0  0  0  0  0  0  0  0  0  0  0  0
   -4.3901   -1.5579    1.8105 H   0  0  0  0  0  0  0  0  0  0  0  0
   -1.0440   -0.9646    3.7379 C   0  0  0  0  0  0  0  0  0  0  0  0
   -0.1034   -0.7875    4.2809 H   0  0  0  0  0  0  0  0  0  0  0  0
    2.4143   -4.4297    0.2301 C   0  0  0  0  0  0  0  0  0  0  0  0
    3.3174   -4.9571   -0.1120 H   0  0  0  0  0  0  0  0  0  0  0  0
    1.8868   -3.3823   -0.5381 C   0  0  0  0  0  0  0  0  0  0  0  0
    2.3822   -3.0870   -1.4761 H   0  0  0  0  0  0  0  0  0  0  0  0
    1.7902   -4.8041    1.4307 C   0  0  0  0  0  0  0  0  0  0  0  0
    2.2010   -5.6279    2.0339 H   0  0  0  0  0  0  0  0  0  0  0  0
  1 21  1  0  0  0  0
  2 14  1  0  0  0  0
  3 14  1  0  0  0  0
  3 13  1  0  0  0  0
  4 47  1  0  0  0  0
  5  6  1  6  0  0  0
  5 16  1  0  0  0  0
  5  2  1  0  0  0  0
  5 32  1  0  0  0  0
  7  8  1  0  0  0  0
  9 22  2  0  0  0  0
 10 39  1  0  0  0  0
 11 10  1  0  0  0  0
 12 61  2  0  0  0  0
 12 41  1  0  0  0  0
 13 15  2  0  0  0  0
 15  7  1  0  0  0  0
 15 12  1  0  0  0  0
 16  3  1  0  0  0  0
 16 17  1  1  0  0  0
 18 16  1  0  0  0  0
 19 20  1  0  0  0  0
 19 18  2  0  0  0  0
 21  2  1  0  0  0  0
 21  4  2  0  0  0  0
 22  4  1  0  0  0  0
 22 23  1  0  0  0  0
 24  1  2  0  0  0  0
 24  9  1  0  0  0  0
 25 24  1  0  0  0  0
 26 28  2  0  0  0  0
 26 35  1  0  0  0  0
 27 26  1  0  0  0  0
 28 19  1  0  0  0  0
 29 28  1  0  0  0  0
 30 10  2  0  0  0  0
 30 13  1  0  0  0  0
 31 30  1  0  0  0  0
 32 33  1  0  0  0  0
 33 34  1  0  0  0  0
 33 55  2  0  0  0  0
 35 37  2  0  0  0  0
 36 35  1  0  0  0  0
 37 18  1  0  0  0  0
 37 38  1  0  0  0  0
 39 40  1  0  0  0  0
 39  7  2  0  0  0  0
 41 63  2  0  0  0  0
 42 41  1  0  0  0  0
 43 45  1  0  0  0  0
 43  1  1  0  0  0  0
 44 43  1  0  0  0  0
 46 43  1  0  0  0  0
 47 48  1  0  0  0  0
 47 49  1  0  0  0  0
 50 47  1  0  0  0  0
 51  9  1  0  0  0  0
 51 52  1  0  0  0  0
 51 54  1  0  0  0  0
 53 51  1  0  0  0  0
 55 56  1  0  0  0  0
 57 58  1  0  0  0  0
 59 60  1  0  0  0  0
 59 57  2  0  0  0  0
 61 59  1  0  0  0  0
 62 61  1  0  0  0  0
 63 57  1  0  0  0  0
 63 64  1  0  0  0  0
 65 69  2  0  0  0  0
 66 65  1  0  0  0  0
 67 32  2  0  0  0  0
 67 65  1  0  0  0  0
 68 67  1  0  0  0  0
 69 55  1  0  0  0  0
 69 70  1  0  0  0  0
M  END
