1
 OpenBabel05122313113D

 25 25  0  0  0  0  0  0  0  0999 V2000
    1.0797   -0.4025    0.2827 C   0  0  0  0  0  3  0  0  0  0  0  0
    1.8076   -0.3432   -0.9240 C   0  0  0  0  0  0  0  0  0  0  0  0
    3.2077   -0.1428   -0.9234 C   0  0  0  0  0  0  0  0  0  0  0  0
    3.9011    0.0385    0.3115 C   0  0  0  0  0  0  0  0  0  0  0  0
    3.1806    0.0064    1.5069 C   0  0  0  0  0  0  0  0  0  0  0  0
    1.7817   -0.2221    1.4953 C   0  0  0  0  0  0  0  0  0  0  0  0
    1.2357   -1.7019   -2.7681 C   0  0  0  0  0  0  0  0  0  0  0  0
    4.4404    1.0523   -2.5561 C   0  0  0  0  0  0  0  0  0  0  0  0
    5.9804    0.3624    1.4157 C   0  0  0  0  0  0  0  0  0  0  0  0
    1.0810   -0.2656    2.7993 C   0  0  0  0  0  0  0  0  0  0  0  0
    1.1549   -0.4222   -2.1338 O   0  0  0  0  0  0  0  0  0  0  0  0
    3.8728   -0.1775   -2.1158 O   0  0  0  0  0  0  0  0  0  0  0  0
    5.2513    0.2217    0.2111 O   0  0  0  0  0  0  0  0  0  0  0  0
    1.6135   -0.0761    3.8855 O   0  0  0  0  0  0  0  0  0  0  0  0
    3.6515    0.1331    2.4922 H   0  0  0  0  0  0  0  0  0  0  0  0
    0.6678   -1.6214   -3.7152 H   0  0  0  0  0  0  0  0  0  0  0  0
    2.2906   -1.9657   -2.9978 H   0  0  0  0  0  0  0  0  0  0  0  0
    0.7750   -2.4853   -2.1277 H   0  0  0  0  0  0  0  0  0  0  0  0
    4.9245    0.8469   -3.5299 H   0  0  0  0  0  0  0  0  0  0  0  0
    3.6513    1.8236   -2.7031 H   0  0  0  0  0  0  0  0  0  0  0  0
    5.2012    1.4325   -1.8423 H   0  0  0  0  0  0  0  0  0  0  0  0
    7.0417    0.4810    1.1285 H   0  0  0  0  0  0  0  0  0  0  0  0
    5.6569    1.2561    1.9958 H   0  0  0  0  0  0  0  0  0  0  0  0
    5.8759   -0.5340    2.0667 H   0  0  0  0  0  0  0  0  0  0  0  0
   -0.0251   -0.4915    2.7132 H   0  0  0  0  0  0  0  0  0  0  0  0
  1  6  1  0  0  0  0
  2  3  1  0  0  0  0
  2  1  2  0  0  0  0
  3  4  2  0  0  0  0
  4  5  1  0  0  0  0
  5 15  1  0  0  0  0
  6  5  2  0  0  0  0
  6 10  1  0  0  0  0
  7 11  1  0  0  0  0
  7 18  1  0  0  0  0
  8 12  1  0  0  0  0
  8 21  1  0  0  0  0
  9 23  1  0  0  0  0
  9 24  1  0  0  0  0
 10 14  2  0  0  0  0
 11  2  1  0  0  0  0
 12  3  1  0  0  0  0
 13  4  1  0  0  0  0
 13  9  1  0  0  0  0
 16  7  1  0  0  0  0
 17  7  1  0  0  0  0
 19  8  1  0  0  0  0
 20  8  1  0  0  0  0
 22  9  1  0  0  0  0
 25 10  1  0  0  0  0
M  END
