2
 OpenBabel05122313113D

 17 18  0  0  1  0  0  0  0  0999 V2000
    0.9057   -0.7492    0.5504 C   0  0  0  0  0  3  0  0  0  0  0  0
    0.9076   -0.4044   -0.8335 C   0  0  0  0  0  3  0  0  0  0  0  0
    2.0421    0.6154   -0.6593 C   0  0  1  0  0  0  0  0  0  0  0  0
    2.0405    0.2311    0.8788 C   0  0  2  0  0  0  0  0  0  0  0  0
    3.3923   -0.4627    1.1312 C   0  0  0  0  0  0  0  0  0  0  0  0
    3.8366   -0.9941   -0.2428 C   0  0  0  0  0  0  0  0  0  0  0  0
    3.3951    0.1221   -1.2055 C   0  0  0  0  0  0  0  0  0  0  0  0
    0.7468   -1.7242    1.0422 H   0  0  0  0  0  0  0  0  0  0  0  0
    0.7508   -1.0339   -1.7264 H   0  0  0  0  0  0  0  0  0  0  0  0
    1.8295    1.6653   -0.9402 H   0  0  0  0  0  0  0  0  0  0  0  0
    1.8277    1.0257    1.6203 H   0  0  0  0  0  0  0  0  0  0  0  0
    4.1213    0.2939    1.4931 H   0  0  0  0  0  0  0  0  0  0  0  0
    3.3284   -1.2505    1.9106 H   0  0  0  0  0  0  0  0  0  0  0  0
    3.3045   -1.9400   -0.4803 H   0  0  0  0  0  0  0  0  0  0  0  0
    4.9220   -1.2131   -0.2964 H   0  0  0  0  0  0  0  0  0  0  0  0
    4.1243    0.9598   -1.1664 H   0  0  0  0  0  0  0  0  0  0  0  0
    3.3337   -0.2054   -2.2644 H   0  0  0  0  0  0  0  0  0  0  0  0
  1  4  1  0  0  0  0
  1  8  1  0  0  0  0
  2  3  1  0  0  0  0
  2  1  1  0  0  0  0
  3 10  1  6  0  0  0
  3  4  1  0  0  0  0
  4  5  1  0  0  0  0
  4 11  1  1  0  0  0
  5 12  1  0  0  0  0
  5 13  1  0  0  0  0
  6  5  1  0  0  0  0
  7 16  1  0  0  0  0
  7  3  1  0  0  0  0
  7  6  1  0  0  0  0
  9  2  1  0  0  0  0
 14  6  1  0  0  0  0
 15  6  1  0  0  0  0
 17  7  1  0  0  0  0
M  END
