4
 OpenBabel05122313113D

 36 38  0  0  1  0  0  0  0  0999 V2000
   -0.6578   -2.8716   -2.5046 C   0  0  0  0  0  0  0  0  0  0  0  0
   -1.4753   -3.5557   -2.8108 H   0  0  0  0  0  0  0  0  0  0  0  0
    0.3107   -3.0144   -3.0105 H   0  0  0  0  0  0  0  0  0  0  0  0
   -0.8534   -1.9210   -1.5629 C   0  0  0  0  0  3  0  0  0  0  0  0
   -2.2258   -1.7801   -0.9366 C   0  0  2  0  0  0  0  0  0  0  0  0
   -2.8797   -2.6217   -1.2627 H   0  0  0  0  0  0  0  0  0  0  0  0
   -2.8888   -0.4139   -1.2381 C   0  0  0  0  0  0  0  0  0  0  0  0
   -2.1179    0.2713   -1.6453 H   0  0  0  0  0  0  0  0  0  0  0  0
   -3.7015   -0.5044   -1.9828 H   0  0  0  0  0  0  0  0  0  0  0  0
   -2.1589   -1.8735    0.5108 O   0  0  0  0  0  0  0  0  0  0  0  0
   -3.3929    0.1249    0.1353 C   0  0  0  0  0  0  0  0  0  0  0  0
   -2.3769   -0.5950    1.0659 C   0  0  0  0  0  0  0  0  0  0  0  0
   -1.4283   -0.0033    1.0965 H   0  0  0  0  0  0  0  0  0  0  0  0
   -2.7466   -0.7287    2.1031 H   0  0  0  0  0  0  0  0  0  0  0  0
   -3.2839    1.6399    0.2665 C   0  0  0  0  0  0  0  0  0  0  0  0
   -3.3814    2.4952   -0.8499 C   0  0  0  0  0  0  0  0  0  0  0  0
   -3.5261    2.0659   -1.8521 H   0  0  0  0  0  0  0  0  0  0  0  0
   -3.3028    3.8893   -0.7051 C   0  0  0  0  0  0  0  0  0  0  0  0
   -3.3853    4.5344   -1.5934 H   0  0  0  0  0  0  0  0  0  0  0  0
   -3.1154    4.4589    0.5634 C   0  0  0  0  0  0  0  0  0  0  0  0
   -3.0492    5.5515    0.6783 H   0  0  0  0  0  0  0  0  0  0  0  0
   -3.0188    3.6204    1.6856 C   0  0  0  0  0  0  0  0  0  0  0  0
   -2.8780    4.0534    2.6880 H   0  0  0  0  0  0  0  0  0  0  0  0
   -3.1105    2.2286    1.5369 C   0  0  0  0  0  0  0  0  0  0  0  0
   -3.0556    1.5886    2.4301 H   0  0  0  0  0  0  0  0  0  0  0  0
   -4.8374   -0.3448    0.3995 C   0  0  0  0  0  0  0  0  0  0  0  0
   -5.9334    0.5182    0.1887 C   0  0  0  0  0  0  0  0  0  0  0  0
   -5.7554    1.5553   -0.1301 H   0  0  0  0  0  0  0  0  0  0  0  0
   -7.2516    0.0803    0.3890 C   0  0  0  0  0  0  0  0  0  0  0  0
   -8.0862    0.7779    0.2182 H   0  0  0  0  0  0  0  0  0  0  0  0
   -7.5061   -1.2327    0.8112 C   0  0  0  0  0  0  0  0  0  0  0  0
   -8.5394   -1.5766    0.9715 H   0  0  0  0  0  0  0  0  0  0  0  0
   -6.4255   -2.1012    1.0284 C   0  0  0  0  0  0  0  0  0  0  0  0
   -6.6069   -3.1351    1.3611 H   0  0  0  0  0  0  0  0  0  0  0  0
   -5.1080   -1.6657    0.8230 C   0  0  0  0  0  0  0  0  0  0  0  0
   -4.2685   -2.3578    0.9840 H   0  0  0  0  0  0  0  0  0  0  0  0
  1  4  2  0  0  0  0
  2  1  1  0  0  0  0
  3  1  1  0  0  0  0
  4  5  1  0  0  0  0
  5  6  1  6  0  0  0
  5 10  1  0  0  0  0
  7  5  1  0  0  0  0
  7 11  1  0  0  0  0
  8  7  1  0  0  0  0
  9  7  1  0  0  0  0
 10 12  1  0  0  0  0
 11 15  1  0  0  0  0
 11 26  1  0  0  0  0
 11 12  1  0  0  0  0
 12 13  1  0  0  0  0
 12 14  1  0  0  0  0
 15 24  1  0  0  0  0
 16 18  1  0  0  0  0
 16 15  2  0  0  0  0
 17 16  1  0  0  0  0
 18 20  2  0  0  0  0
 19 18  1  0  0  0  0
 20 21  1  0  0  0  0
 20 22  1  0  0  0  0
 22 23  1  0  0  0  0
 24 22  2  0  0  0  0
 24 25  1  0  0  0  0
 26 35  1  0  0  0  0
 27 29  1  0  0  0  0
 27 26  2  0  0  0  0
 28 27  1  0  0  0  0
 29 31  2  0  0  0  0
 30 29  1  0  0  0  0
 31 32  1  0  0  0  0
 31 33  1  0  0  0  0
 33 34  1  0  0  0  0
 35 36  1  0  0  0  0
 35 33  2  0  0  0  0
M  END
