11
 OpenBabel05122313113D

 26 26  0  0  1  0  0  0  0  0999 V2000
   -1.4972    0.0206    2.0680 N   0  3  0  0  0  0  0  0  0  0  0  0
   -2.5919   -0.9746    2.1329 C   0  0  0  0  0  0  0  0  0  0  0  0
   -0.7439    0.1192    3.3325 C   0  0  0  0  0  0  0  0  0  0  0  0
   -1.8900    1.3678    1.4647 C   0  0  2  0  0  0  0  0  0  0  0  0
   -2.8343    2.1469    2.3692 C   0  0  0  0  0  0  0  0  0  0  0  0
   -2.3606    1.1197    0.0389 C   0  0  0  0  0  0  0  0  0  0  0  0
   -3.5981    1.6257   -0.4118 C   0  0  0  0  0  0  0  0  0  0  0  0
   -4.0281    1.4147   -1.7284 C   0  0  0  0  0  0  0  0  0  0  0  0
   -3.2196    0.6712   -2.6018 C   0  0  0  0  0  0  0  0  0  0  0  0
   -1.9951    0.1525   -2.1577 C   0  0  0  0  0  0  0  0  0  0  0  0
   -1.5255    0.3704   -0.8410 C   0  0  0  0  0  3  0  0  0  0  0  0
   -0.7627   -0.3244    1.2785 H   0  0  0  0  0  0  0  0  0  0  0  0
   -3.1233   -0.9742    1.1649 H   0  0  0  0  0  0  0  0  0  0  0  0
   -3.2837   -0.7255    2.9608 H   0  0  0  0  0  0  0  0  0  0  0  0
   -2.1453   -1.9757    2.2754 H   0  0  0  0  0  0  0  0  0  0  0  0
    0.0526    0.8773    3.2176 H   0  0  0  0  0  0  0  0  0  0  0  0
   -0.2847   -0.8638    3.5478 H   0  0  0  0  0  0  0  0  0  0  0  0
   -1.4121    0.4015    4.1681 H   0  0  0  0  0  0  0  0  0  0  0  0
   -0.9131    1.8981    1.4031 H   0  0  0  0  0  0  0  0  0  0  0  0
   -3.0075    3.1500    1.9361 H   0  0  0  0  0  0  0  0  0  0  0  0
   -2.4034    2.3012    3.3774 H   0  0  0  0  0  0  0  0  0  0  0  0
   -3.8213    1.6552    2.4778 H   0  0  0  0  0  0  0  0  0  0  0  0
   -4.2424    2.2005    0.2698 H   0  0  0  0  0  0  0  0  0  0  0  0
   -4.9921    1.8240   -2.0658 H   0  0  0  0  0  0  0  0  0  0  0  0
   -3.5471    0.4878   -3.6373 H   0  0  0  0  0  0  0  0  0  0  0  0
   -1.3809   -0.4431   -2.8495 H   0  0  0  0  0  0  0  0  0  0  0  0
  1  2  1  0  0  0  0
  1  3  1  0  0  0  0
  2 15  1  0  0  0  0
  2 14  1  0  0  0  0
  3 17  1  0  0  0  0
  3 18  1  0  0  0  0
  4 19  1  6  0  0  0
  4  1  1  0  0  0  0
  4  5  1  0  0  0  0
  5 22  1  0  0  0  0
  5 21  1  0  0  0  0
  6  4  1  0  0  0  0
  7  6  1  0  0  0  0
  7 23  1  0  0  0  0
  8  7  2  0  0  0  0
  9 10  2  0  0  0  0
  9  8  1  0  0  0  0
 10 11  1  0  0  0  0
 11  6  2  0  0  0  0
 12  1  1  0  0  0  0
 13  2  1  0  0  0  0
 16  3  1  0  0  0  0
 20  5  1  0  0  0  0
 24  8  1  0  0  0  0
 25  9  1  0  0  0  0
 26 10  1  0  0  0  0
M  CHG  1   1   1
M  END
