8
 OpenBabel05122313113D

 40 42  0  0  0  0  0  0  0  0999 V2000
   -2.9084    1.1318    2.3047 C   0  0  0  0  0  0  0  0  0  0  0  0
   -3.9095    1.3191    2.7411 H   0  0  0  0  0  0  0  0  0  0  0  0
   -3.1710    0.2838    1.1191 N   0  0  0  0  0  0  0  0  0  0  0  0
    0.2330   -2.1353   -2.1562 C   0  0  0  0  0  0  0  0  0  0  0  0
    0.2130   -1.4399   -3.0103 H   0  0  0  0  0  0  0  0  0  0  0  0
   -2.8710   -0.9452   -0.6600 N   0  0  0  0  0  0  0  0  0  0  0  0
   -0.9447   -2.3391   -1.4125 C   0  0  0  0  0  0  0  0  0  0  0  0
   -2.2157   -0.1850    0.2686 C   0  0  0  0  0  2  0  0  0  0  0  0
   -4.2467   -0.9566   -0.4176 C   0  0  0  0  0  0  0  0  0  0  0  0
   -2.2190   -1.6133   -1.7921 C   0  0  0  0  0  0  0  0  0  0  0  0
   -4.4410   -0.1638    0.7396 C   0  0  0  0  0  0  0  0  0  0  0  0
   -0.9263   -3.2446   -0.3337 C   0  0  0  0  0  0  0  0  0  0  0  0
   -1.8401   -3.4191    0.2549 H   0  0  0  0  0  0  0  0  0  0  0  0
   -6.5999   -1.3670   -0.5368 C   0  0  0  0  0  0  0  0  0  0  0  0
   -7.4693   -1.8302   -1.0251 H   0  0  0  0  0  0  0  0  0  0  0  0
   -2.3033    2.4744    1.8943 C   0  0  0  0  0  0  0  0  0  0  0  0
   -1.2977    2.3344    1.4474 H   0  0  0  0  0  0  0  0  0  0  0  0
   -2.2036    3.1316    2.7799 H   0  0  0  0  0  0  0  0  0  0  0  0
   -2.9391    2.9866    1.1463 H   0  0  0  0  0  0  0  0  0  0  0  0
   -2.0676    0.3812    3.3398 C   0  0  0  0  0  0  0  0  0  0  0  0
   -2.5346   -0.5852    3.6129 H   0  0  0  0  0  0  0  0  0  0  0  0
   -1.9656    0.9915    4.2582 H   0  0  0  0  0  0  0  0  0  0  0  0
   -1.0506    0.1792    2.9440 H   0  0  0  0  0  0  0  0  0  0  0  0
    1.4364   -2.7963   -1.8380 C   0  0  0  0  0  0  0  0  0  0  0  0
   -5.7218    0.0349    1.2794 C   0  0  0  0  0  0  0  0  0  0  0  0
   -5.8864    0.6453    2.1781 H   0  0  0  0  0  0  0  0  0  0  0  0
   -5.3237   -1.5682   -1.0781 C   0  0  0  0  0  0  0  0  0  0  0  0
   -5.1825   -2.1769   -1.9821 H   0  0  0  0  0  0  0  0  0  0  0  0
   -6.7949   -0.5798    0.6215 C   0  0  0  0  0  0  0  0  0  0  0  0
   -7.8129   -0.4452    1.0147 H   0  0  0  0  0  0  0  0  0  0  0  0
    1.4299   -3.6926   -0.7505 C   0  0  0  0  0  0  0  0  0  0  0  0
    2.3541   -4.2321   -0.4899 H   0  0  0  0  0  0  0  0  0  0  0  0
    0.2597   -3.9164   -0.0086 C   0  0  0  0  0  0  0  0  0  0  0  0
    0.2710   -4.6302    0.8290 H   0  0  0  0  0  0  0  0  0  0  0  0
    2.7019   -2.5312   -2.6130 C   0  0  0  0  0  0  0  0  0  0  0  0
    2.4970   -2.0236   -3.5757 H   0  0  0  0  0  0  0  0  0  0  0  0
    3.2483   -3.4695   -2.8338 H   0  0  0  0  0  0  0  0  0  0  0  0
    3.3978   -1.8879   -2.0317 H   0  0  0  0  0  0  0  0  0  0  0  0
   -2.9550   -2.3314   -2.2056 H   0  0  0  0  0  0  0  0  0  0  0  0
   -2.0130   -0.8636   -2.5833 H   0  0  0  0  0  0  0  0  0  0  0  0
  1  2  1  0  0  0  0
  1 20  1  0  0  0  0
  3  1  1  0  0  0  0
  4 24  2  0  0  0  0
  4  7  1  0  0  0  0
  5  4  1  0  0  0  0
  6  9  1  0  0  0  0
  6  8  1  0  0  0  0
  7 12  2  0  0  0  0
  8  3  1  0  0  0  0
  9 11  1  0  0  0  0
 10  7  1  0  0  0  0
 10  6  1  0  0  0  0
 11  3  1  0  0  0  0
 11 25  2  0  0  0  0
 12 33  1  0  0  0  0
 12 13  1  0  0  0  0
 14 29  2  0  0  0  0
 15 14  1  0  0  0  0
 16  1  1  0  0  0  0
 16 18  1  0  0  0  0
 17 16  1  0  0  0  0
 19 16  1  0  0  0  0
 20 21  1  0  0  0  0
 20 22  1  0  0  0  0
 23 20  1  0  0  0  0
 24 31  1  0  0  0  0
 25 26  1  0  0  0  0
 27 14  1  0  0  0  0
 27  9  2  0  0  0  0
 28 27  1  0  0  0  0
 29 30  1  0  0  0  0
 29 25  1  0  0  0  0
 31 32  1  0  0  0  0
 31 33  2  0  0  0  0
 33 34  1  0  0  0  0
 35 38  1  0  0  0  0
 35 24  1  0  0  0  0
 36 35  1  0  0  0  0
 37 35  1  0  0  0  0
 39 10  1  0  0  0  0
 40 10  1  0  0  0  0
M  END
