1
 OpenBabel05122313113D

 33 32  0  0  1  0  0  0  0  0999 V2000
   -0.3854    1.6763   -0.1202 C   0  0  0  0  0  2  0  0  0  0  0  0
   -1.4813    0.9841   -0.5483 C   0  0  2  0  0  3  0  0  0  0  0  0
   -1.2972   -0.3935   -1.0773 C   0  0  0  0  0  0  0  0  0  0  0  0
   -1.8670   -1.5116   -0.5512 C   0  0  0  0  0  0  0  0  0  0  0  0
   -0.3887    3.0591    0.4279 C   0  0  0  0  0  0  0  0  0  0  0  0
   -0.0838    3.3390    1.5800 O   0  0  0  0  0  0  0  0  0  0  0  0
   -0.6878    3.9794   -0.5114 O   0  0  0  0  0  0  0  0  0  0  0  0
   -0.6060    5.3394   -0.0770 C   0  0  0  0  0  0  0  0  0  0  0  0
   -1.3216    5.5342    0.7479 H   0  0  0  0  0  0  0  0  0  0  0  0
   -0.8544    5.9568   -0.9585 H   0  0  0  0  0  0  0  0  0  0  0  0
    0.4161    5.5747    0.2825 H   0  0  0  0  0  0  0  0  0  0  0  0
   -2.8662    1.5411   -0.5904 C   0  0  0  0  0  0  0  0  0  0  0  0
   -3.7448    1.1546   -1.3415 O   0  0  0  0  0  0  0  0  0  0  0  0
   -3.0427    2.5393    0.3156 O   0  0  0  0  0  0  0  0  0  0  0  0
   -4.3091    3.1960    0.2570 C   0  0  0  0  0  0  0  0  0  0  0  0
   -4.4487    3.7006   -0.7212 H   0  0  0  0  0  0  0  0  0  0  0  0
   -4.3075    3.9387    1.0750 H   0  0  0  0  0  0  0  0  0  0  0  0
   -5.1367    2.4703    0.3917 H   0  0  0  0  0  0  0  0  0  0  0  0
   -0.3057   -0.5889   -2.2005 C   0  0  0  0  0  0  0  0  0  0  0  0
    0.4274   -1.5678   -2.3206 O   0  0  0  0  0  0  0  0  0  0  0  0
   -0.3549    0.4343   -3.0617 O   0  0  0  0  0  0  0  0  0  0  0  0
    0.6445    0.4703   -4.0916 C   0  0  0  0  0  0  0  0  0  0  0  0
    1.5539    0.9484   -3.6716 H   0  0  0  0  0  0  0  0  0  0  0  0
    0.2291    1.0986   -4.8992 H   0  0  0  0  0  0  0  0  0  0  0  0
    0.8709   -0.5507   -4.4539 H   0  0  0  0  0  0  0  0  0  0  0  0
   -3.1108   -1.4625    1.1509 I   0  0  0  0  0  0  0  0  0  0  0  0
   -1.5209   -2.9030   -1.0025 C   0  0  0  0  0  0  0  0  0  0  0  0
   -0.8987   -3.7009   -0.3228 O   0  0  0  0  0  0  0  0  0  0  0  0
   -1.9940   -3.1446   -2.2384 O   0  0  0  0  0  0  0  0  0  0  0  0
   -1.5499   -4.3701   -2.8353 C   0  0  0  0  0  0  0  0  0  0  0  0
   -0.4671   -4.2965   -3.0649 H   0  0  0  0  0  0  0  0  0  0  0  0
   -2.1326   -4.4871   -3.7658 H   0  0  0  0  0  0  0  0  0  0  0  0
   -1.7167   -5.2272   -2.1535 H   0  0  0  0  0  0  0  0  0  0  0  0
  1  5  1  0  0  0  0
  2  1  1  6  0  0  0
  3  4  2  0  0  0  0
  3  2  1  0  0  0  0
  4 26  1  0  0  0  0
  5  6  2  0  0  0  0
  7  8  1  0  0  0  0
  7  5  1  0  0  0  0
  8 11  1  0  0  0  0
  8  9  1  0  0  0  0
 10  8  1  0  0  0  0
 12  2  1  0  0  0  0
 12 14  1  0  0  0  0
 13 12  2  0  0  0  0
 15 14  1  0  0  0  0
 15 18  1  0  0  0  0
 15 17  1  0  0  0  0
 16 15  1  0  0  0  0
 19  3  1  0  0  0  0
 20 19  2  0  0  0  0
 21 19  1  0  0  0  0
 22 23  1  0  0  0  0
 22 21  1  0  0  0  0
 24 22  1  0  0  0  0
 25 22  1  0  0  0  0
 27  4  1  0  0  0  0
 27 28  2  0  0  0  0
 29 27  1  0  0  0  0
 30 29  1  0  0  0  0
 30 33  1  0  0  0  0
 31 30  1  0  0  0  0
 32 30  1  0  0  0  0
M  END
