4
 OpenBabel05122313113D

 22 23  0  0  0  0  0  0  0  0999 V2000
   -3.5265    1.6636   -0.4325 N   0  0  0  0  0  0  0  0  0  0  0  0
    0.3589    5.0161   -0.4267 N   0  0  0  0  0  0  0  0  0  0  0  0
    0.0667    2.6357   -0.2157 C   0  0  0  0  0  3  0  0  0  0  0  0
   -1.1968    2.2347   -0.2412 C   0  0  0  0  0  3  0  0  0  0  0  0
   -2.5792    2.6361   -0.3726 C   0  0  0  0  0  0  0  0  0  0  0  0
   -2.9064    4.0170   -0.4257 C   0  0  0  0  0  0  0  0  0  0  0  0
   -2.0813    4.7477   -0.3947 H   0  0  0  0  0  0  0  0  0  0  0  0
   -4.2512    4.3860   -0.5182 C   0  0  0  0  0  0  0  0  0  0  0  0
   -4.5362    5.4490   -0.5574 H   0  0  0  0  0  0  0  0  0  0  0  0
   -5.2310    3.3797   -0.5599 C   0  0  0  0  0  0  0  0  0  0  0  0
   -6.3019    3.6229   -0.6283 H   0  0  0  0  0  0  0  0  0  0  0  0
   -4.8076    2.0396   -0.5201 C   0  0  0  0  0  0  0  0  0  0  0  0
   -5.5510    1.2222   -0.5620 H   0  0  0  0  0  0  0  0  0  0  0  0
    1.1612    6.0839   -0.4952 C   0  0  0  0  0  0  0  0  0  0  0  0
    0.6592    7.0632   -0.6007 H   0  0  0  0  0  0  0  0  0  0  0  0
    0.9351    3.7884   -0.2968 C   0  0  0  0  0  0  0  0  0  0  0  0
    2.3431    3.6284   -0.2290 C   0  0  0  0  0  0  0  0  0  0  0  0
    2.7556    2.6155   -0.1131 H   0  0  0  0  0  0  0  0  0  0  0  0
    3.1638    4.7568   -0.3011 C   0  0  0  0  0  0  0  0  0  0  0  0
    4.2589    4.6545   -0.2478 H   0  0  0  0  0  0  0  0  0  0  0  0
    2.5654    6.0197   -0.4393 C   0  0  0  0  0  0  0  0  0  0  0  0
    3.1677    6.9383   -0.5005 H   0  0  0  0  0  0  0  0  0  0  0  0
  1  5  1  0  0  0  0
  2 16  1  0  0  0  0
  4  3  2  0  0  0  0
  5  4  1  0  0  0  0
  6  7  1  0  0  0  0
  6  5  2  0  0  0  0
  8  6  1  0  0  0  0
  9  8  1  0  0  0  0
 10 12  1  0  0  0  0
 10  8  2  0  0  0  0
 11 10  1  0  0  0  0
 12  1  2  0  0  0  0
 13 12  1  0  0  0  0
 14 21  1  0  0  0  0
 14  2  2  0  0  0  0
 15 14  1  0  0  0  0
 16 17  2  0  0  0  0
 16  3  1  0  0  0  0
 17 18  1  0  0  0  0
 19 20  1  0  0  0  0
 19 17  1  0  0  0  0
 21 19  2  0  0  0  0
 22 21  1  0  0  0  0
M  END
