3
 OpenBabel05122313113D

 47 48  0  0  0  0  0  0  0  0999 V2000
   -1.0349    1.6943   -0.0292 P   0  0  0  0  0  0  0  0  0  0  0  0
    1.5721    0.2278    0.9212 N   0  0  0  0  0  0  0  0  0  0  0  0
    0.8138   -0.4684   -0.0053 C   0  0  0  0  0  2  0  0  0  0  0  0
    1.7303   -1.0766   -0.8287 N   0  0  0  0  0  0  0  0  0  0  0  0
    1.3782   -1.4681   -1.7143 H   0  0  0  0  0  0  0  0  0  0  0  0
    0.9468    1.0794    1.9214 C   0  0  0  0  0  0  0  0  0  0  0  0
    1.7355    1.4388    2.6113 H   0  0  0  0  0  0  0  0  0  0  0  0
    0.2445    0.4519    2.5047 H   0  0  0  0  0  0  0  0  0  0  0  0
    4.2799   -1.0637   -1.0355 C   0  0  0  0  0  0  0  0  0  0  0  0
    4.3538   -1.7109   -1.9220 H   0  0  0  0  0  0  0  0  0  0  0  0
    0.1773    2.2571    1.3078 C   0  0  0  0  0  0  0  0  0  0  0  0
    0.8799    3.0025    0.8817 H   0  0  0  0  0  0  0  0  0  0  0  0
   -0.3820    2.7685    2.1161 H   0  0  0  0  0  0  0  0  0  0  0  0
    3.0337   -0.7388   -0.4900 C   0  0  0  0  0  0  0  0  0  0  0  0
    5.3458    0.3008    0.7125 C   0  0  0  0  0  0  0  0  0  0  0  0
    5.4435   -0.5419   -0.4363 C   0  0  0  0  0  0  0  0  0  0  0  0
    4.0850    0.6210    1.2554 C   0  0  0  0  0  0  0  0  0  0  0  0
    4.0182    1.2756    2.1372 H   0  0  0  0  0  0  0  0  0  0  0  0
    2.9359    0.1008    0.6494 C   0  0  0  0  0  0  0  0  0  0  0  0
    1.0211    2.1590   -1.9108 C   0  0  0  0  0  0  0  0  0  0  0  0
    1.7595    2.3653   -1.1077 H   0  0  0  0  0  0  0  0  0  0  0  0
    1.3665    2.7013   -2.8159 H   0  0  0  0  0  0  0  0  0  0  0  0
    1.0255    1.0792   -2.1444 H   0  0  0  0  0  0  0  0  0  0  0  0
   -0.3933    2.6268   -1.5459 C   0  0  0  0  0  0  0  0  0  0  0  0
   -1.0725    2.2617   -2.3466 H   0  0  0  0  0  0  0  0  0  0  0  0
   -2.6721    2.5202    0.4224 C   0  0  0  0  0  0  0  0  0  0  0  0
   -3.0582    1.7826    1.1575 H   0  0  0  0  0  0  0  0  0  0  0  0
    6.7969   -0.8739   -1.0133 C   0  0  0  0  0  0  0  0  0  0  0  0
    6.7086   -1.5337   -1.8975 H   0  0  0  0  0  0  0  0  0  0  0  0
    7.4464   -1.3873   -0.2725 H   0  0  0  0  0  0  0  0  0  0  0  0
    7.3462    0.0392   -1.3275 H   0  0  0  0  0  0  0  0  0  0  0  0
    6.5964    0.8559    1.3469 C   0  0  0  0  0  0  0  0  0  0  0  0
    7.2782    0.0485    1.6897 H   0  0  0  0  0  0  0  0  0  0  0  0
    6.3596    1.4900    2.2228 H   0  0  0  0  0  0  0  0  0  0  0  0
    7.1820    1.4729    0.6323 H   0  0  0  0  0  0  0  0  0  0  0  0
   -3.5902    2.4690   -0.8059 C   0  0  0  0  0  0  0  0  0  0  0  0
   -3.3289    3.2558   -1.5423 H   0  0  0  0  0  0  0  0  0  0  0  0
   -4.6486    2.6270   -0.5124 H   0  0  0  0  0  0  0  0  0  0  0  0
   -3.5127    1.4869   -1.3159 H   0  0  0  0  0  0  0  0  0  0  0  0
   -2.6727    3.8885    1.1113 C   0  0  0  0  0  0  0  0  0  0  0  0
   -2.0651    3.8978    2.0382 H   0  0  0  0  0  0  0  0  0  0  0  0
   -3.7105    4.1537    1.4059 H   0  0  0  0  0  0  0  0  0  0  0  0
   -2.3005    4.6994    0.4578 H   0  0  0  0  0  0  0  0  0  0  0  0
   -0.4643    4.1553   -1.4659 C   0  0  0  0  0  0  0  0  0  0  0  0
   -1.5007    4.5359   -1.4014 H   0  0  0  0  0  0  0  0  0  0  0  0
   -0.0098    4.5979   -2.3777 H   0  0  0  0  0  0  0  0  0  0  0  0
    0.1016    4.5569   -0.5986 H   0  0  0  0  0  0  0  0  0  0  0  0
  1 26  1  0  0  0  0
  1 11  1  0  0  0  0
  2  6  1  0  0  0  0
  3  2  1  0  0  0  0
  4 14  1  0  0  0  0
  4  3  1  0  0  0  0
  5  4  1  0  0  0  0
  6  8  1  0  0  0  0
  6  7  1  0  0  0  0
  9 14  2  0  0  0  0
  9 16  1  0  0  0  0
 10  9  1  0  0  0  0
 11  6  1  0  0  0  0
 11 13  1  0  0  0  0
 12 11  1  0  0  0  0
 14 19  1  0  0  0  0
 15 17  1  0  0  0  0
 15 32  1  0  0  0  0
 16 15  2  0  0  0  0
 17 18  1  0  0  0  0
 19  2  1  0  0  0  0
 19 17  2  0  0  0  0
 20 24  1  0  0  0  0
 20 21  1  0  0  0  0
 22 20  1  0  0  0  0
 23 20  1  0  0  0  0
 24 44  1  0  0  0  0
 24  1  1  0  0  0  0
 25 24  1  0  0  0  0
 26 40  1  0  0  0  0
 26 27  1  0  0  0  0
 28 16  1  0  0  0  0
 28 30  1  0  0  0  0
 29 28  1  0  0  0  0
 31 28  1  0  0  0  0
 32 33  1  0  0  0  0
 32 34  1  0  0  0  0
 35 32  1  0  0  0  0
 36 38  1  0  0  0  0
 36 26  1  0  0  0  0
 37 36  1  0  0  0  0
 39 36  1  0  0  0  0
 40 42  1  0  0  0  0
 40 41  1  0  0  0  0
 43 40  1  0  0  0  0
 44 45  1  0  0  0  0
 44 47  1  0  0  0  0
 46 44  1  0  0  0  0
M  END
