3
 OpenBabel05122313113D

 24 24  0  0  1  0  0  0  0  0999 V2000
   -0.6819   -0.5100   -2.0050 C   0  0  0  0  0  0  0  0  0  0  0  0
    0.7335   -0.3847   -2.0241 C   0  0  0  0  0  0  0  0  0  0  0  0
    0.6811    0.8991   -1.2876 C   0  0  1  0  0  3  0  0  0  0  0  0
   -0.8333    0.7731   -1.2865 C   0  0  2  0  0  3  0  0  0  0  0  0
    1.6306    1.3064   -0.3285 C   0  0  0  0  0  3  0  0  0  0  0  0
   -1.8430    1.0997   -0.3701 C   0  0  0  0  0  3  0  0  0  0  0  0
    3.0589    0.8369   -0.4961 C   0  0  0  0  0  0  0  0  0  0  0  0
    1.5145    2.4989    0.5819 C   0  0  0  0  0  0  0  0  0  0  0  0
   -1.9071    2.3908    0.4072 C   0  0  0  0  0  0  0  0  0  0  0  0
   -3.1602    0.3630   -0.4328 C   0  0  0  0  0  0  0  0  0  0  0  0
   -1.3889   -1.2096   -2.4644 H   0  0  0  0  0  0  0  0  0  0  0  0
    1.5395   -0.9607   -2.4918 H   0  0  0  0  0  0  0  0  0  0  0  0
    3.4960    0.5604    0.4841 H   0  0  0  0  0  0  0  0  0  0  0  0
    3.6795    1.6668   -0.9018 H   0  0  0  0  0  0  0  0  0  0  0  0
    3.1625   -0.0317   -1.1697 H   0  0  0  0  0  0  0  0  0  0  0  0
    0.4806    2.8094    0.7848 H   0  0  0  0  0  0  0  0  0  0  0  0
    2.0576    3.3617    0.1354 H   0  0  0  0  0  0  0  0  0  0  0  0
    2.0006    2.2855    1.5549 H   0  0  0  0  0  0  0  0  0  0  0  0
   -1.1569    3.1275    0.0726 H   0  0  0  0  0  0  0  0  0  0  0  0
   -1.7874    2.2281    1.4987 H   0  0  0  0  0  0  0  0  0  0  0  0
   -2.9075    2.8508    0.2651 H   0  0  0  0  0  0  0  0  0  0  0  0
   -3.5381    0.1632    0.5904 H   0  0  0  0  0  0  0  0  0  0  0  0
   -3.1012   -0.6025   -0.9645 H   0  0  0  0  0  0  0  0  0  0  0  0
   -3.9235    0.9978   -0.9358 H   0  0  0  0  0  0  0  0  0  0  0  0
  1  4  1  0  0  0  0
  2  1  2  0  0  0  0
  2  3  1  0  0  0  0
  3  4  1  0  0  0  0
  3  5  1  1  0  0  0
  4  6  1  1  0  0  0
  5  8  1  0  0  0  0
  6  9  1  0  0  0  0
  7  5  1  0  0  0  0
  7 13  1  0  0  0  0
  8 16  1  0  0  0  0
  8 18  1  0  0  0  0
  9 20  1  0  0  0  0
 10  6  1  0  0  0  0
 10 22  1  0  0  0  0
 11  1  1  0  0  0  0
 12  2  1  0  0  0  0
 14  7  1  0  0  0  0
 15  7  1  0  0  0  0
 17  8  1  0  0  0  0
 19  9  1  0  0  0  0
 21  9  1  0  0  0  0
 23 10  1  0  0  0  0
 24 10  1  0  0  0  0
M  END
