1
 OpenBabel05122313113D

 66 69  0  0  0  0  0  0  0  0999 V2000
    0.3607   -0.7373   -0.5158 C   0  0  0  0  0  3  0  0  0  0  0  0
    1.0372    0.3329   -0.2413 N   0  0  0  0  0  0  0  0  0  0  0  0
    1.5938    1.1109    0.6229 C   0  0  0  0  0  0  0  0  0  0  0  0
   -1.0648   -0.7200   -0.7680 C   0  0  0  0  0  0  0  0  0  0  0  0
   -1.9296    0.3662   -0.6416 C   0  0  0  0  0  3  0  0  0  0  0  0
   -3.3636    0.1451   -0.4349 C   0  0  0  0  0  0  0  0  0  0  0  0
   -3.8596   -1.0528    0.1452 C   0  0  0  0  0  0  0  0  0  0  0  0
   -5.2204   -1.2735    0.3277 C   0  0  0  0  0  0  0  0  0  0  0  0
   -6.1840   -0.2976   -0.0686 C   0  0  0  0  0  0  0  0  0  0  0  0
   -5.6905    0.9135   -0.6377 C   0  0  0  0  0  0  0  0  0  0  0  0
   -4.3242    1.1214   -0.8054 C   0  0  0  0  0  0  0  0  0  0  0  0
   -7.5336   -0.5143    0.1013 N   0  0  0  0  0  0  0  0  0  0  0  0
   -8.0052   -1.7651    0.6649 C   0  0  0  0  0  0  0  0  0  0  0  0
   -8.4875    0.5082   -0.2823 C   0  0  0  0  0  0  0  0  0  0  0  0
   -1.4276    1.7523   -0.7012 C   0  0  0  0  0  0  0  0  0  0  0  0
   -0.5888    2.1703   -1.7615 C   0  0  0  0  0  0  0  0  0  0  0  0
   -0.0577    3.4549   -1.8128 C   0  0  0  0  0  0  0  0  0  0  0  0
   -0.3152    4.3951   -0.7722 C   0  0  0  0  0  0  0  0  0  0  0  0
   -1.1685    3.9798    0.2904 C   0  0  0  0  0  0  0  0  0  0  0  0
   -1.7212    2.6978    0.3068 C   0  0  0  0  0  0  0  0  0  0  0  0
    0.2462    5.6543   -0.7945 N   0  0  0  0  0  0  0  0  0  0  0  0
    0.0359    6.5592    0.3161 C   0  0  0  0  0  0  0  0  0  0  0  0
    1.0653    6.0657   -1.9184 C   0  0  0  0  0  0  0  0  0  0  0  0
    2.4964    2.1830    0.1302 C   0  0  0  0  0  0  0  0  0  0  0  0
    3.2479    1.9842   -1.0493 C   0  0  0  0  0  0  0  0  0  0  0  0
    4.0700    3.0016   -1.5483 C   0  0  0  0  0  0  0  0  0  0  0  0
    4.1509    4.2375   -0.8831 C   0  0  0  0  0  0  0  0  0  0  0  0
    3.3989    4.4477    0.2852 C   0  0  0  0  0  0  0  0  0  0  0  0
    2.5786    3.4299    0.7890 C   0  0  0  0  0  0  0  0  0  0  0  0
    1.3435    0.9006    2.0737 C   0  0  0  0  0  0  0  0  0  0  0  0
    2.3202    1.2407    3.0383 C   0  0  0  0  0  0  0  0  0  0  0  0
    2.1124    0.9523    4.3929 C   0  0  0  0  0  0  0  0  0  0  0  0
    0.9301    0.3196    4.8102 C   0  0  0  0  0  0  0  0  0  0  0  0
   -0.0430   -0.0293    3.8600 C   0  0  0  0  0  0  0  0  0  0  0  0
    0.1603    0.2572    2.5047 C   0  0  0  0  0  0  0  0  0  0  0  0
   -1.5103   -1.7092   -0.9384 H   0  0  0  0  0  0  0  0  0  0  0  0
   -3.1482   -1.8140    0.4992 H   0  0  0  0  0  0  0  0  0  0  0  0
   -5.5416   -2.2091    0.8026 H   0  0  0  0  0  0  0  0  0  0  0  0
   -6.3864    1.6977   -0.9617 H   0  0  0  0  0  0  0  0  0  0  0  0
   -3.9779    2.0598   -1.2630 H   0  0  0  0  0  0  0  0  0  0  0  0
   -7.6409   -1.9208    1.7054 H   0  0  0  0  0  0  0  0  0  0  0  0
   -9.1094   -1.7615    0.6900 H   0  0  0  0  0  0  0  0  0  0  0  0
   -7.6807   -2.6414    0.0611 H   0  0  0  0  0  0  0  0  0  0  0  0
   -8.3241    1.4598    0.2713 H   0  0  0  0  0  0  0  0  0  0  0  0
   -8.4373    0.7402   -1.3700 H   0  0  0  0  0  0  0  0  0  0  0  0
   -9.5106    0.1573   -0.0580 H   0  0  0  0  0  0  0  0  0  0  0  0
   -0.3528    1.4557   -2.5641 H   0  0  0  0  0  0  0  0  0  0  0  0
    0.5882    3.7254   -2.6568 H   0  0  0  0  0  0  0  0  0  0  0  0
   -1.4021    4.6645    1.1154 H   0  0  0  0  0  0  0  0  0  0  0  0
   -2.3691    2.4031    1.1463 H   0  0  0  0  0  0  0  0  0  0  0  0
   -1.0359    6.8357    0.4416 H   0  0  0  0  0  0  0  0  0  0  0  0
    0.3824    6.1198    1.2789 H   0  0  0  0  0  0  0  0  0  0  0  0
    0.6071    7.4891    0.1443 H   0  0  0  0  0  0  0  0  0  0  0  0
    1.9841    5.4449   -2.0138 H   0  0  0  0  0  0  0  0  0  0  0  0
    0.5071    6.0055   -2.8791 H   0  0  0  0  0  0  0  0  0  0  0  0
    1.3784    7.1156   -1.7753 H   0  0  0  0  0  0  0  0  0  0  0  0
    3.1845    1.0157   -1.5663 H   0  0  0  0  0  0  0  0  0  0  0  0
    4.6595    2.8260   -2.4609 H   0  0  0  0  0  0  0  0  0  0  0  0
    4.8033    5.0342   -1.2722 H   0  0  0  0  0  0  0  0  0  0  0  0
    3.4463    5.4168    0.8055 H   0  0  0  0  0  0  0  0  0  0  0  0
    1.9698    3.6068    1.6876 H   0  0  0  0  0  0  0  0  0  0  0  0
    3.2664    1.6976    2.7159 H   0  0  0  0  0  0  0  0  0  0  0  0
    2.8903    1.2084    5.1281 H   0  0  0  0  0  0  0  0  0  0  0  0
    0.7722    0.0895    5.8748 H   0  0  0  0  0  0  0  0  0  0  0  0
   -0.9680   -0.5363    4.1732 H   0  0  0  0  0  0  0  0  0  0  0  0
   -0.6065   -0.0195    1.7692 H   0  0  0  0  0  0  0  0  0  0  0  0
  1  2  1  0  0  0  0
  2  3  2  0  0  0  0
  3 30  1  0  0  0  0
  4  5  1  0  0  0  0
  4  1  2  0  0  0  0
  5  6  1  0  0  0  0
  6  7  1  0  0  0  0
  7  8  2  0  0  0  0
  7 37  1  0  0  0  0
  8 38  1  0  0  0  0
  9 12  1  0  0  0  0
  9  8  1  0  0  0  0
 10  9  2  0  0  0  0
 11 10  1  0  0  0  0
 11  6  2  0  0  0  0
 12 13  1  0  0  0  0
 13 42  1  0  0  0  0
 13 41  1  0  0  0  0
 14 46  1  0  0  0  0
 14 12  1  0  0  0  0
 14 44  1  0  0  0  0
 15  5  1  0  0  0  0
 15 20  1  0  0  0  0
 16 15  2  0  0  0  0
 17 16  1  0  0  0  0
 17 18  2  0  0  0  0
 18 19  1  0  0  0  0
 19 20  2  0  0  0  0
 19 49  1  0  0  0  0
 20 50  1  0  0  0  0
 21 18  1  0  0  0  0
 21 22  1  0  0  0  0
 22 51  1  0  0  0  0
 22 52  1  0  0  0  0
 23 56  1  0  0  0  0
 23 21  1  0  0  0  0
 24  3  1  0  0  0  0
 24 29  1  0  0  0  0
 25 24  2  0  0  0  0
 26 25  1  0  0  0  0
 26 27  2  0  0  0  0
 27 28  1  0  0  0  0
 28 29  2  0  0  0  0
 28 60  1  0  0  0  0
 29 61  1  0  0  0  0
 30 35  2  0  0  0  0
 30 31  1  0  0  0  0
 31 32  2  0  0  0  0
 32 33  1  0  0  0  0
 32 63  1  0  0  0  0
 33 64  1  0  0  0  0
 34 65  1  0  0  0  0
 34 33  2  0  0  0  0
 35 34  1  0  0  0  0
 36  4  1  0  0  0  0
 39 10  1  0  0  0  0
 40 11  1  0  0  0  0
 43 13  1  0  0  0  0
 45 14  1  0  0  0  0
 47 16  1  0  0  0  0
 48 17  1  0  0  0  0
 53 22  1  0  0  0  0
 54 23  1  0  0  0  0
 55 23  1  0  0  0  0
 57 25  1  0  0  0  0
 58 26  1  0  0  0  0
 59 27  1  0  0  0  0
 62 31  1  0  0  0  0
 66 35  1  0  0  0  0
M  END
