2
 OpenBabel05122313113D

 13 12  0  0  0  0  0  0  0  0999 V2000
   -0.4686   -3.0038    1.9709 C   0  0  0  0  0  0  0  0  0  0  0  0
   -0.1724   -2.6534    0.5106 C   0  0  0  0  0  3  0  0  0  0  0  0
   -0.8195   -3.6667   -0.4430 C   0  0  0  0  0  0  0  0  0  0  0  0
   -0.5231   -3.4509   -1.9268 C   0  0  0  0  0  0  0  0  0  0  0  0
   -1.5543   -2.9312    2.1929 H   0  0  0  0  0  0  0  0  0  0  0  0
    0.0581   -2.3325    2.6776 H   0  0  0  0  0  0  0  0  0  0  0  0
   -0.1549   -4.0483    2.2056 H   0  0  0  0  0  0  0  0  0  0  0  0
    0.9268   -2.7045    0.3520 H   0  0  0  0  0  0  0  0  0  0  0  0
   -0.4829   -4.6897   -0.1459 H   0  0  0  0  0  0  0  0  0  0  0  0
   -1.9222   -3.6699   -0.2849 H   0  0  0  0  0  0  0  0  0  0  0  0
   -0.8502   -2.4391   -2.2451 H   0  0  0  0  0  0  0  0  0  0  0  0
   -1.0385   -4.2000   -2.5623 H   0  0  0  0  0  0  0  0  0  0  0  0
    0.5647   -3.5320   -2.1363 H   0  0  0  0  0  0  0  0  0  0  0  0
  1  5  1  0  0  0  0
  1  7  1  0  0  0  0
  1  6  1  0  0  0  0
  2  1  1  0  0  0  0
  3 10  1  0  0  0  0
  3  9  1  0  0  0  0
  3  2  1  0  0  0  0
  4  3  1  0  0  0  0
  8  2  1  0  0  0  0
 11  4  1  0  0  0  0
 12  4  1  0  0  0  0
 13  4  1  0  0  0  0
M  END
