2
 OpenBabel05122313113D

 30 30  0  0  1  0  0  0  0  0999 V2000
    2.9880    1.1554    2.0095 C   0  0  0  0  0  3  0  0  0  0  0  0
    1.8335    0.3339    2.1350 C   0  0  0  0  0  3  0  0  0  0  0  0
    0.6223    0.7476    1.4957 C   0  0  0  0  0  3  0  0  0  0  0  0
   -0.5444   -0.1705    1.4158 C   0  0  0  0  0  0  0  0  0  0  0  0
   -1.8283    0.4404    0.8628 C   0  0  0  0  0  0  0  0  0  0  0  0
   -2.7687   -0.5990    0.2245 C   0  0  1  0  0  0  0  0  0  0  0  0
   -4.1917   -0.0742    0.0809 C   0  0  0  0  0  0  0  0  0  0  0  0
   -5.2749   -0.8077    0.6018 C   0  0  0  0  0  0  0  0  0  0  0  0
   -6.5923   -0.3440    0.4655 C   0  0  0  0  0  0  0  0  0  0  0  0
   -6.8481    0.8642   -0.2010 C   0  0  0  0  0  0  0  0  0  0  0  0
   -5.7772    1.6031   -0.7291 C   0  0  0  0  0  0  0  0  0  0  0  0
   -4.4617    1.1373   -0.5895 C   0  0  0  0  0  0  0  0  0  0  0  0
   -2.2441   -1.0493   -1.1216 C   0  0  0  0  0  0  0  0  0  0  0  0
   -1.9072   -2.3118   -1.4368 C   0  0  0  0  0  0  0  0  0  0  0  0
   -0.4978   -1.3452    1.7859 O   0  0  0  0  0  0  0  0  0  0  0  0
    2.8760    2.2499    1.9806 H   0  0  0  0  0  0  0  0  0  0  0  0
    3.9446    0.7949    2.4194 H   0  0  0  0  0  0  0  0  0  0  0  0
    1.8623   -0.6600    2.6104 H   0  0  0  0  0  0  0  0  0  0  0  0
    0.4076    1.8241    1.4009 H   0  0  0  0  0  0  0  0  0  0  0  0
   -2.3409    0.9276    1.7236 H   0  0  0  0  0  0  0  0  0  0  0  0
   -1.5812    1.2603    0.1573 H   0  0  0  0  0  0  0  0  0  0  0  0
   -2.7814   -1.4773    0.9014 H   0  0  0  0  0  0  0  0  0  0  0  0
   -5.0767   -1.7577    1.1231 H   0  0  0  0  0  0  0  0  0  0  0  0
   -7.4245   -0.9309    0.8837 H   0  0  0  0  0  0  0  0  0  0  0  0
   -7.8804    1.2300   -0.3093 H   0  0  0  0  0  0  0  0  0  0  0  0
   -5.9678    2.5515   -1.2546 H   0  0  0  0  0  0  0  0  0  0  0  0
   -3.6325    1.7277   -1.0104 H   0  0  0  0  0  0  0  0  0  0  0  0
   -2.1588   -0.2562   -1.8878 H   0  0  0  0  0  0  0  0  0  0  0  0
   -1.9738   -3.1243   -0.6946 H   0  0  0  0  0  0  0  0  0  0  0  0
   -1.5645   -2.5792   -2.4491 H   0  0  0  0  0  0  0  0  0  0  0  0
  1  2  1  0  0  0  0
  1 17  1  0  0  0  0
  2 18  1  0  0  0  0
  3  2  1  0  0  0  0
  4  3  1  0  0  0  0
  4 15  2  0  0  0  0
  5  4  1  0  0  0  0
  5 20  1  0  0  0  0
  6  5  1  0  0  0  0
  6 22  1  1  0  0  0
  7  6  1  0  0  0  0
  7  8  1  0  0  0  0
  8 23  1  0  0  0  0
  9  8  2  0  0  0  0
  9 24  1  0  0  0  0
 10  9  1  0  0  0  0
 11 12  1  0  0  0  0
 11 10  2  0  0  0  0
 12  7  2  0  0  0  0
 13  6  1  0  0  0  0
 14 13  2  0  0  0  0
 14 29  1  0  0  0  0
 16  1  1  0  0  0  0
 19  3  1  0  0  0  0
 21  5  1  0  0  0  0
 25 10  1  0  0  0  0
 26 11  1  0  0  0  0
 27 12  1  0  0  0  0
 28 13  1  0  0  0  0
 30 14  1  0  0  0  0
M  END
