4
 OpenBabel05122313113D

 32 34  0  0  1  0  0  0  0  0999 V2000
   -1.9739   -2.1515    0.3356 C   0  0  0  0  0  0  0  0  0  0  0  0
   -2.1835   -1.1471   -0.8827 C   0  0  2  0  0  0  0  0  0  0  0  0
   -2.6972   -1.7252   -1.6829 H   0  0  0  0  0  0  0  0  0  0  0  0
   -0.7897   -0.6501   -1.2127 C   0  0  0  0  0  2  0  0  0  0  0  0
   -0.6641    0.6875   -1.0503 C   0  0  0  0  0  2  0  0  0  0  0  0
   -2.0087    1.2501   -0.8191 C   0  0  0  0  0  0  0  0  0  0  0  0
   -2.9331    0.1653   -0.6627 C   0  0  0  0  0  0  0  0  0  0  0  0
   -4.2909    0.4138   -0.4381 C   0  0  0  0  0  0  0  0  0  0  0  0
   -5.0091   -0.4154   -0.3419 H   0  0  0  0  0  0  0  0  0  0  0  0
   -4.7424    1.7466   -0.3422 C   0  0  0  0  0  0  0  0  0  0  0  0
   -5.8079    1.9507   -0.1549 H   0  0  0  0  0  0  0  0  0  0  0  0
   -3.8440    2.8152   -0.4987 C   0  0  0  0  0  0  0  0  0  0  0  0
   -4.2149    3.8506   -0.4412 H   0  0  0  0  0  0  0  0  0  0  0  0
   -2.4786    2.5749   -0.7420 C   0  0  0  0  0  0  0  0  0  0  0  0
   -1.7882    3.4194   -0.8961 H   0  0  0  0  0  0  0  0  0  0  0  0
   -0.7185   -1.7432    1.1133 C   0  0  0  0  0  0  0  0  0  0  0  0
   -0.5304   -0.5220    1.8355 C   0  0  0  0  0  3  0  0  0  0  0  0
   -1.2726    0.2809    1.9175 H   0  0  0  0  0  0  0  0  0  0  0  0
    0.7832   -0.5175    2.4011 C   0  0  0  0  0  0  0  0  0  0  0  0
    1.2072    0.2591    3.0497 H   0  0  0  0  0  0  0  0  0  0  0  0
    1.4241   -1.7333    2.0351 C   0  0  0  0  0  0  0  0  0  0  0  0
    2.4325   -2.0483    2.3284 H   0  0  0  0  0  0  0  0  0  0  0  0
    0.5041   -2.4839    1.2409 C   0  0  0  0  0  0  0  0  0  0  0  0
    0.6971   -3.4741    0.8145 H   0  0  0  0  0  0  0  0  0  0  0  0
   -3.1842   -2.1824    1.2858 C   0  0  0  0  0  0  0  0  0  0  0  0
   -3.3593   -1.1973    1.7585 H   0  0  0  0  0  0  0  0  0  0  0  0
   -3.0237   -2.9289    2.0903 H   0  0  0  0  0  0  0  0  0  0  0  0
   -4.1066   -2.4653    0.7381 H   0  0  0  0  0  0  0  0  0  0  0  0
   -1.7683   -3.5479   -0.2738 C   0  0  0  0  0  0  0  0  0  0  0  0
   -0.9371   -3.5374   -1.0075 H   0  0  0  0  0  0  0  0  0  0  0  0
   -2.6861   -3.8727   -0.8033 H   0  0  0  0  0  0  0  0  0  0  0  0
   -1.5418   -4.3021    0.5066 H   0  0  0  0  0  0  0  0  0  0  0  0
  1 16  1  0  0  0  0
  1 25  1  0  0  0  0
  2  3  1  6  0  0  0
  2  7  1  0  0  0  0
  2  1  1  0  0  0  0
  4  5  1  0  0  0  0
  4  2  1  0  0  0  0
  5  6  1  0  0  0  0
  6 14  2  0  0  0  0
  6  7  1  0  0  0  0
  7  8  2  0  0  0  0
  8 10  1  0  0  0  0
  8  9  1  0  0  0  0
 10 11  1  0  0  0  0
 12 13  1  0  0  0  0
 12 10  2  0  0  0  0
 14 12  1  0  0  0  0
 15 14  1  0  0  0  0
 16 23  2  0  0  0  0
 16 17  1  0  0  0  0
 17 18  1  0  0  0  0
 17 19  1  0  0  0  0
 19 20  1  0  0  0  0
 21 22  1  0  0  0  0
 21 19  2  0  0  0  0
 23 21  1  0  0  0  0
 24 23  1  0  0  0  0
 25 26  1  0  0  0  0
 25 27  1  0  0  0  0
 28 25  1  0  0  0  0
 29  1  1  0  0  0  0
 29 32  1  0  0  0  0
 30 29  1  0  0  0  0
 31 29  1  0  0  0  0
M  END
