1
 OpenBabel05122313113D

 29 30  0  0  1  0  0  0  0  0999 V2000
    0.5356   -0.0636    1.6216 C   0  0  0  0  0  1  0  0  0  0  0  0
    1.8375   -0.5823    1.5117 C   0  0  1  0  0  3  0  0  0  0  0  0
    2.0781   -1.8362    2.3382 C   0  0  0  0  0  0  0  0  0  0  0  0
    2.7893    0.0100    0.6717 C   0  0  0  0  0  3  0  0  0  0  0  0
    2.1255    2.4147    1.0019 C   0  0  0  0  0  0  0  0  0  0  0  0
    1.9825    3.7241    0.5216 C   0  0  0  0  0  0  0  0  0  0  0  0
    2.2951    4.0198   -0.8151 C   0  0  0  0  0  0  0  0  0  0  0  0
    2.7528    3.0007   -1.6698 C   0  0  0  0  0  0  0  0  0  0  0  0
    2.9104    1.6960   -1.1887 C   0  0  0  0  0  0  0  0  0  0  0  0
    2.5862    1.3791    0.1541 C   0  0  0  0  0  0  0  0  0  0  0  0
    4.0894   -2.0440   -0.0036 C   0  0  0  0  0  0  0  0  0  0  0  0
    5.2902   -2.6543   -0.3814 C   0  0  0  0  0  0  0  0  0  0  0  0
    6.4767   -1.9035   -0.4415 C   0  0  0  0  0  0  0  0  0  0  0  0
    6.4533   -0.5318   -0.1386 C   0  0  0  0  0  0  0  0  0  0  0  0
    5.2507    0.0882    0.2175 C   0  0  0  0  0  0  0  0  0  0  0  0
    4.0484   -0.6609    0.3037 C   0  0  0  0  0  0  0  0  0  0  0  0
    3.1607   -2.0190    2.4702 H   0  0  0  0  0  0  0  0  0  0  0  0
    1.6265   -2.7307    1.8636 H   0  0  0  0  0  0  0  0  0  0  0  0
    1.6114   -1.7289    3.3368 H   0  0  0  0  0  0  0  0  0  0  0  0
    1.9412    2.1898    2.0613 H   0  0  0  0  0  0  0  0  0  0  0  0
    1.6526    4.5243    1.2013 H   0  0  0  0  0  0  0  0  0  0  0  0
    2.2001    5.0509   -1.1879 H   0  0  0  0  0  0  0  0  0  0  0  0
    2.9970    3.2296   -2.7178 H   0  0  0  0  0  0  0  0  0  0  0  0
    3.2737    0.8989   -1.8531 H   0  0  0  0  0  0  0  0  0  0  0  0
    3.1594   -2.6270    0.0064 H   0  0  0  0  0  0  0  0  0  0  0  0
    5.3017   -3.7245   -0.6364 H   0  0  0  0  0  0  0  0  0  0  0  0
    7.4216   -2.3882   -0.7292 H   0  0  0  0  0  0  0  0  0  0  0  0
    7.3805    0.0586   -0.1809 H   0  0  0  0  0  0  0  0  0  0  0  0
    5.2365    1.1614    0.4575 H   0  0  0  0  0  0  0  0  0  0  0  0
  2  1  1  6  0  0  0
  2  3  1  0  0  0  0
  3 17  1  0  0  0  0
  3 19  1  0  0  0  0
  4  2  1  0  0  0  0
  5 20  1  0  0  0  0
  6  5  1  0  0  0  0
  6 21  1  0  0  0  0
  7  6  2  0  0  0  0
  8  9  2  0  0  0  0
  8  7  1  0  0  0  0
  9 10  1  0  0  0  0
 10  4  1  0  0  0  0
 10  5  2  0  0  0  0
 11 25  1  0  0  0  0
 11 16  1  0  0  0  0
 12 11  2  0  0  0  0
 13 12  1  0  0  0  0
 13 14  2  0  0  0  0
 14 15  1  0  0  0  0
 15 16  2  0  0  0  0
 15 29  1  0  0  0  0
 16  4  1  0  0  0  0
 18  3  1  0  0  0  0
 22  7  1  0  0  0  0
 23  8  1  0  0  0  0
 24  9  1  0  0  0  0
 26 12  1  0  0  0  0
 27 13  1  0  0  0  0
 28 14  1  0  0  0  0
M  END
