1
 OpenBabel05122313113D

 19 19  0  0  0  0  0  0  0  0999 V2000
    2.7744   -0.0385   -0.0017 C   0  0  0  0  0  3  0  0  0  0  0  0
    3.3546    1.2592    0.0495 C   0  0  0  0  0  0  0  0  0  0  0  0
    4.7486    1.4217    0.0619 C   0  0  0  0  0  0  0  0  0  0  0  0
    5.2056    2.4203    0.1020 H   0  0  0  0  0  0  0  0  0  0  0  0
    5.5992    0.2970    0.0236 C   0  0  0  0  0  0  0  0  0  0  0  0
    6.6862    0.4538    0.0343 H   0  0  0  0  0  0  0  0  0  0  0  0
    5.0459   -0.9913   -0.0271 C   0  0  0  0  0  0  0  0  0  0  0  0
    3.6388   -1.1413   -0.0389 C   0  0  0  0  0  0  0  0  0  0  0  0
    3.2468   -2.1688   -0.0795 H   0  0  0  0  0  0  0  0  0  0  0  0
    2.4693    2.3184    0.0841 O   0  0  0  0  0  0  0  0  0  0  0  0
    2.9947    3.6239    0.1112 C   0  0  0  0  0  0  0  0  0  0  0  0
    3.6133    3.8128    1.0198 H   0  0  0  0  0  0  0  0  0  0  0  0
    2.1296    4.3151    0.1216 H   0  0  0  0  0  0  0  0  0  0  0  0
    3.6185    3.8466   -0.7859 H   0  0  0  0  0  0  0  0  0  0  0  0
    5.7740   -2.1531   -0.0677 O   0  0  0  0  0  0  0  0  0  0  0  0
    7.1785   -2.0486   -0.0573 C   0  0  0  0  0  0  0  0  0  0  0  0
    7.5656   -1.4837   -0.9375 H   0  0  0  0  0  0  0  0  0  0  0  0
    7.5759   -3.0809   -0.0943 H   0  0  0  0  0  0  0  0  0  0  0  0
    7.5572   -1.5517    0.8665 H   0  0  0  0  0  0  0  0  0  0  0  0
  1  2  1  0  0  0  0
  2  3  2  0  0  0  0
  2 10  1  0  0  0  0
  3  4  1  0  0  0  0
  5  6  1  0  0  0  0
  5  3  1  0  0  0  0
  7  5  2  0  0  0  0
  8  7  1  0  0  0  0
  8  1  2  0  0  0  0
  9  8  1  0  0  0  0
 10 11  1  0  0  0  0
 11 13  1  0  0  0  0
 11 12  1  0  0  0  0
 14 11  1  0  0  0  0
 15 16  1  0  0  0  0
 15  7  1  0  0  0  0
 16 19  1  0  0  0  0
 17 16  1  0  0  0  0
 18 16  1  0  0  0  0
M  END
