3
 OpenBabel05122313113D

 65 67  0  0  1  0  0  0  0  0999 V2000
   -0.9654    0.7897    1.2863 N   0  0  0  0  0  0  0  0  0  0  0  0
    1.0416    1.3903    0.6915 N   0  0  0  0  0  0  0  0  0  0  0  0
   -0.0148    0.6015    0.3194 C   0  0  0  0  0  2  0  0  0  0  0  0
    0.7507    2.0655    1.8713 C   0  0  0  0  0  0  0  0  0  0  0  0
   -0.5166    1.6974    2.2376 C   0  0  0  0  0  0  0  0  0  0  0  0
   -2.2762    0.1079    1.1999 C   0  0  2  0  0  0  0  0  0  0  0  0
   -3.2023    0.8908    0.2739 C   0  0  0  0  0  0  0  0  0  0  0  0
   -3.8914    0.2630   -0.8005 C   0  0  0  0  0  0  0  0  0  0  0  0
   -4.7049    1.0654   -1.6314 C   0  0  0  0  0  0  0  0  0  0  0  0
   -4.8478    2.4434   -1.4283 C   0  0  0  0  0  0  0  0  0  0  0  0
   -4.1563    3.0594   -0.3753 C   0  0  0  0  0  0  0  0  0  0  0  0
   -3.3422    2.2823    0.4570 C   0  0  0  0  0  0  0  0  0  0  0  0
   -3.7786   -1.2107   -1.1085 C   0  0  0  0  0  0  0  0  0  0  0  0
   -2.8845   -0.3209    2.5853 C   0  0  0  0  0  0  0  0  0  0  0  0
   -1.7920   -1.0041    3.4323 C   0  0  0  0  0  0  0  0  0  0  0  0
   -3.5591    0.8199    3.3717 C   0  0  0  0  0  0  0  0  0  0  0  0
   -3.9751   -1.3697    2.2827 C   0  0  0  0  0  0  0  0  0  0  0  0
    2.2994    1.4031   -0.0814 C   0  0  2  0  0  0  0  0  0  0  0  0
    3.3528    0.5012    0.5559 C   0  0  0  0  0  0  0  0  0  0  0  0
    3.9323   -0.5672   -0.1831 C   0  0  0  0  0  0  0  0  0  0  0  0
    4.8984   -1.3753    0.4521 C   0  0  0  0  0  0  0  0  0  0  0  0
    5.2900   -1.1606    1.7789 C   0  0  0  0  0  0  0  0  0  0  0  0
    4.7027   -0.1200    2.5106 C   0  0  0  0  0  0  0  0  0  0  0  0
    3.7439    0.6954    1.8962 C   0  0  0  0  0  0  0  0  0  0  0  0
    3.5208   -0.8975   -1.5964 C   0  0  0  0  0  0  0  0  0  0  0  0
    2.7795    2.8438   -0.4966 C   0  0  0  0  0  0  0  0  0  0  0  0
    3.7923    2.6630   -1.6451 C   0  0  0  0  0  0  0  0  0  0  0  0
    3.4815    3.6396    0.6198 C   0  0  0  0  0  0  0  0  0  0  0  0
    1.5722    3.6430   -1.0203 C   0  0  0  0  0  0  0  0  0  0  0  0
    1.4451    2.7495    2.3605 H   0  0  0  0  0  0  0  0  0  0  0  0
   -1.1096    2.0057    3.0990 H   0  0  0  0  0  0  0  0  0  0  0  0
   -2.0143   -0.8467    0.7030 H   0  0  0  0  0  0  0  0  0  0  0  0
   -5.2318    0.5839   -2.4705 H   0  0  0  0  0  0  0  0  0  0  0  0
   -5.4880    3.0361   -2.0992 H   0  0  0  0  0  0  0  0  0  0  0  0
   -4.2429    4.1434   -0.2064 H   0  0  0  0  0  0  0  0  0  0  0  0
   -2.7799    2.7759    1.2636 H   0  0  0  0  0  0  0  0  0  0  0  0
   -2.7430   -1.5922   -0.9872 H   0  0  0  0  0  0  0  0  0  0  0  0
   -4.4219   -1.8236   -0.4453 H   0  0  0  0  0  0  0  0  0  0  0  0
   -4.0965   -1.4140   -2.1496 H   0  0  0  0  0  0  0  0  0  0  0  0
   -1.2719   -1.7890    2.8453 H   0  0  0  0  0  0  0  0  0  0  0  0
   -1.0227   -0.2945    3.7931 H   0  0  0  0  0  0  0  0  0  0  0  0
   -2.2510   -1.4794    4.3228 H   0  0  0  0  0  0  0  0  0  0  0  0
   -2.8639    1.6228    3.6848 H   0  0  0  0  0  0  0  0  0  0  0  0
   -4.3746    1.2899    2.7878 H   0  0  0  0  0  0  0  0  0  0  0  0
   -4.0039    0.4080    4.3004 H   0  0  0  0  0  0  0  0  0  0  0  0
   -4.7879   -0.9438    1.6611 H   0  0  0  0  0  0  0  0  0  0  0  0
   -3.5509   -2.2506    1.7610 H   0  0  0  0  0  0  0  0  0  0  0  0
   -4.4277   -1.7222    3.2311 H   0  0  0  0  0  0  0  0  0  0  0  0
    1.9818    0.9218   -1.0269 H   0  0  0  0  0  0  0  0  0  0  0  0
    5.3399   -2.2085   -0.1165 H   0  0  0  0  0  0  0  0  0  0  0  0
    6.0424   -1.8152    2.2443 H   0  0  0  0  0  0  0  0  0  0  0  0
    4.9830    0.0557    3.5601 H   0  0  0  0  0  0  0  0  0  0  0  0
    3.2788    1.4943    2.4894 H   0  0  0  0  0  0  0  0  0  0  0  0
    2.4279   -1.1061   -1.6488 H   0  0  0  0  0  0  0  0  0  0  0  0
    3.7405   -0.0764   -2.3079 H   0  0  0  0  0  0  0  0  0  0  0  0
    4.0458   -1.8030   -1.9540 H   0  0  0  0  0  0  0  0  0  0  0  0
    4.6560    2.0442   -1.3294 H   0  0  0  0  0  0  0  0  0  0  0  0
    3.3219    2.1812   -2.5263 H   0  0  0  0  0  0  0  0  0  0  0  0
    4.1809    3.6492   -1.9693 H   0  0  0  0  0  0  0  0  0  0  0  0
    2.8160    3.8687    1.4747 H   0  0  0  0  0  0  0  0  0  0  0  0
    4.3739    3.1090    1.0040 H   0  0  0  0  0  0  0  0  0  0  0  0
    3.8192    4.6150    0.2139 H   0  0  0  0  0  0  0  0  0  0  0  0
    1.0457    3.0888   -1.8227 H   0  0  0  0  0  0  0  0  0  0  0  0
    0.8335    3.8556   -0.2224 H   0  0  0  0  0  0  0  0  0  0  0  0
    1.9089    4.6128   -1.4390 H   0  0  0  0  0  0  0  0  0  0  0  0
  1  5  1  0  0  0  0
  2  4  1  0  0  0  0
  3  2  1  0  0  0  0
  3  1  1  0  0  0  0
  4  5  2  0  0  0  0
  4 30  1  0  0  0  0
  5 31  1  0  0  0  0
  6 32  1  6  0  0  0
  6  1  1  0  0  0  0
  6 14  1  0  0  0  0
  7 12  1  0  0  0  0
  7  6  1  0  0  0  0
  8  7  2  0  0  0  0
  9 10  2  0  0  0  0
  9  8  1  0  0  0  0
 10 11  1  0  0  0  0
 11 35  1  0  0  0  0
 11 12  2  0  0  0  0
 12 36  1  0  0  0  0
 13 37  1  0  0  0  0
 13  8  1  0  0  0  0
 13 38  1  0  0  0  0
 14 16  1  0  0  0  0
 14 15  1  0  0  0  0
 15 41  1  0  0  0  0
 15 42  1  0  0  0  0
 16 43  1  0  0  0  0
 16 45  1  0  0  0  0
 17 14  1  0  0  0  0
 17 48  1  0  0  0  0
 18 49  1  6  0  0  0
 18 19  1  0  0  0  0
 18  2  1  0  0  0  0
 19 24  1  0  0  0  0
 20 21  1  0  0  0  0
 20 19  2  0  0  0  0
 21 22  2  0  0  0  0
 22 51  1  0  0  0  0
 22 23  1  0  0  0  0
 23 52  1  0  0  0  0
 24 53  1  0  0  0  0
 24 23  2  0  0  0  0
 25 20  1  0  0  0  0
 26 18  1  0  0  0  0
 26 28  1  0  0  0  0
 27 57  1  0  0  0  0
 27 26  1  0  0  0  0
 28 61  1  0  0  0  0
 28 60  1  0  0  0  0
 29 26  1  0  0  0  0
 29 64  1  0  0  0  0
 33  9  1  0  0  0  0
 34 10  1  0  0  0  0
 39 13  1  0  0  0  0
 40 15  1  0  0  0  0
 44 16  1  0  0  0  0
 46 17  1  0  0  0  0
 47 17  1  0  0  0  0
 50 21  1  0  0  0  0
 54 25  1  0  0  0  0
 55 25  1  0  0  0  0
 56 25  1  0  0  0  0
 58 27  1  0  0  0  0
 59 27  1  0  0  0  0
 62 28  1  0  0  0  0
 63 29  1  0  0  0  0
 65 29  1  0  0  0  0
M  END
