4
 OpenBabel05122313113D

 35 35  0  0  1  0  0  0  0  0999 V2000
    1.0986    0.5719   -0.7882 C   0  0  0  0  0  0  0  0  0  0  0  0
   -0.1995    1.2207   -0.7840 C   0  0  0  0  0  0  0  0  0  0  0  0
   -1.2295    0.1933   -0.7867 C   0  0  0  0  0  0  0  0  0  0  0  0
   -0.5577   -1.1014   -0.7875 C   0  0  2  0  0  3  0  0  0  0  0  0
    0.8733   -0.8719   -0.7895 C   0  0  0  0  0  0  0  0  0  0  0  0
    2.3563    1.2182   -0.8542 C   0  0  0  0  0  0  0  0  0  0  0  0
    3.4512    1.7666   -0.9312 C   0  0  0  0  0  0  0  0  0  0  0  0
   -0.4266    2.6181   -0.8554 C   0  0  0  0  0  0  0  0  0  0  0  0
   -0.6283    3.8258   -0.9207 C   0  0  0  0  0  0  0  0  0  0  0  0
   -2.6265    0.4096   -0.8503 C   0  0  0  0  0  0  0  0  0  0  0  0
   -3.8373    0.5931   -0.9291 C   0  0  0  0  0  0  0  0  0  0  0  0
   -1.1971   -2.3640   -0.8597 C   0  0  0  0  0  0  0  0  0  0  0  0
   -1.7631   -3.4498   -0.9280 C   0  0  0  0  0  0  0  0  0  0  0  0
    1.8783   -1.8675   -0.8596 C   0  0  0  0  0  0  0  0  0  0  0  0
    2.7605   -2.7167   -0.9326 C   0  0  0  0  0  0  0  0  0  0  0  0
    4.7483    2.4177   -1.0086 C   0  0  0  0  0  0  0  0  0  0  0  0
    5.2190    2.5014   -0.0060 H   0  0  0  0  0  0  0  0  0  0  0  0
    5.4469    1.8505   -1.6589 H   0  0  0  0  0  0  0  0  0  0  0  0
    4.6606    3.4435   -1.4238 H   0  0  0  0  0  0  0  0  0  0  0  0
   -0.8674    5.2577   -0.9813 C   0  0  0  0  0  0  0  0  0  0  0  0
   -1.7752    5.4913   -1.5759 H   0  0  0  0  0  0  0  0  0  0  0  0
   -1.0143    5.6804    0.0351 H   0  0  0  0  0  0  0  0  0  0  0  0
   -0.0121    5.7910   -1.4463 H   0  0  0  0  0  0  0  0  0  0  0  0
   -5.2723    0.8110   -1.0073 C   0  0  0  0  0  0  0  0  0  0  0  0
   -5.7385    0.8056    0.0010 H   0  0  0  0  0  0  0  0  0  0  0  0
   -5.5066    1.7885   -1.4786 H   0  0  0  0  0  0  0  0  0  0  0  0
   -5.7687    0.0208   -1.6088 H   0  0  0  0  0  0  0  0  0  0  0  0
   -2.4341   -4.7371   -0.9939 C   0  0  0  0  0  0  0  0  0  0  0  0
   -1.7431   -5.5355   -1.3360 H   0  0  0  0  0  0  0  0  0  0  0  0
   -2.8255   -5.0352    0.0018 H   0  0  0  0  0  0  0  0  0  0  0  0
   -3.2930   -4.7100   -1.6967 H   0  0  0  0  0  0  0  0  0  0  0  0
    3.8053   -3.7243   -1.0058 C   0  0  0  0  0  0  0  0  0  0  0  0
    4.5526   -3.4767   -1.7888 H   0  0  0  0  0  0  0  0  0  0  0  0
    4.3484   -3.8107   -0.0408 H   0  0  0  0  0  0  0  0  0  0  0  0
    3.3855   -4.7235   -1.2452 H   0  0  0  0  0  0  0  0  0  0  0  0
  1  2  1  0  0  0  0
  3  2  2  0  0  0  0
  4 12  1  6  0  0  0
  4  3  1  0  0  0  0
  5  1  2  0  0  0  0
  5  4  1  0  0  0  0
  6  1  1  0  0  0  0
  7  6  3  0  0  0  0
  8  2  1  0  0  0  0
  9  8  3  0  0  0  0
 10  3  1  0  0  0  0
 11 10  3  0  0  0  0
 13 12  3  0  0  0  0
 14  5  1  0  0  0  0
 15 14  3  0  0  0  0
 16  7  1  0  0  0  0
 16 17  1  0  0  0  0
 18 16  1  0  0  0  0
 19 16  1  0  0  0  0
 20  9  1  0  0  0  0
 20 22  1  0  0  0  0
 21 20  1  0  0  0  0
 23 20  1  0  0  0  0
 24 11  1  0  0  0  0
 24 25  1  0  0  0  0
 26 24  1  0  0  0  0
 27 24  1  0  0  0  0
 28 13  1  0  0  0  0
 28 30  1  0  0  0  0
 29 28  1  0  0  0  0
 31 28  1  0  0  0  0
 32 15  1  0  0  0  0
 32 34  1  0  0  0  0
 33 32  1  0  0  0  0
 35 32  1  0  0  0  0
M  END
