1
 OpenBabel05122313113D

 31 31  0  0  0  0  0  0  0  0999 V2000
   -1.7968    1.0836    1.5387 C   0  0  0  0  0  2  0  0  0  0  0  0
   -3.1054    0.8092    0.9732 C   0  0  0  0  0  0  0  0  0  0  0  0
   -3.2452   -0.1072   -0.0307 C   0  0  0  0  0  0  0  0  0  0  0  0
   -4.4640   -0.5349   -0.7006 C   0  0  0  0  0  0  0  0  0  0  0  0
   -5.7502   -0.0254   -0.3902 C   0  0  0  0  0  0  0  0  0  0  0  0
   -5.8616    0.7369    0.3953 H   0  0  0  0  0  0  0  0  0  0  0  0
   -6.8812   -0.4820   -1.0721 C   0  0  0  0  0  0  0  0  0  0  0  0
   -7.8729   -0.0769   -0.8199 H   0  0  0  0  0  0  0  0  0  0  0  0
   -6.7566   -1.4575   -2.0790 C   0  0  0  0  0  0  0  0  0  0  0  0
   -7.6504   -1.8140   -2.6132 H   0  0  0  0  0  0  0  0  0  0  0  0
   -5.4907   -1.9734   -2.3995 C   0  0  0  0  0  0  0  0  0  0  0  0
   -5.3876   -2.7357   -3.1863 H   0  0  0  0  0  0  0  0  0  0  0  0
   -4.3567   -1.5167   -1.7179 C   0  0  0  0  0  0  0  0  0  0  0  0
   -3.3613   -1.9189   -1.9641 H   0  0  0  0  0  0  0  0  0  0  0  0
   -1.6764    1.9803    2.5174 N   0  0  0  0  0  0  0  0  0  0  0  0
   -0.3685    2.2300    3.1454 C   0  0  0  0  0  0  0  0  0  0  0  0
    0.3241    1.4763    2.7206 H   0  0  0  0  0  0  0  0  0  0  0  0
   -0.4709    2.0132    4.2311 H   0  0  0  0  0  0  0  0  0  0  0  0
    0.1687    3.6389    2.9127 C   0  0  0  0  0  0  0  0  0  0  0  0
    0.2143    3.8620    1.8286 H   0  0  0  0  0  0  0  0  0  0  0  0
    1.1976    3.7078    3.3163 H   0  0  0  0  0  0  0  0  0  0  0  0
   -0.4408    4.4197    3.4111 H   0  0  0  0  0  0  0  0  0  0  0  0
   -2.8053    2.7704    3.0530 C   0  0  0  0  0  0  0  0  0  0  0  0
   -3.6593    2.0868    3.2314 H   0  0  0  0  0  0  0  0  0  0  0  0
   -2.4956    3.1427    4.0494 H   0  0  0  0  0  0  0  0  0  0  0  0
   -3.2144    3.9352    2.1511 C   0  0  0  0  0  0  0  0  0  0  0  0
   -2.3800    4.6484    2.0100 H   0  0  0  0  0  0  0  0  0  0  0  0
   -4.0660    4.4838    2.6009 H   0  0  0  0  0  0  0  0  0  0  0  0
   -3.5234    3.5796    1.1487 H   0  0  0  0  0  0  0  0  0  0  0  0
   -4.0014    1.3177    1.3647 H   0  0  0  0  0  0  0  0  0  0  0  0
   -2.3139   -0.5867   -0.3810 H   0  0  0  0  0  0  0  0  0  0  0  0
  1 15  1  0  0  0  0
  2 30  1  0  0  0  0
  2  1  1  0  0  0  0
  3  2  2  0  0  0  0
  4  5  1  0  0  0  0
  4  3  1  0  0  0  0
  5  6  1  0  0  0  0
  7  8  1  0  0  0  0
  7  5  2  0  0  0  0
  9  7  1  0  0  0  0
 10  9  1  0  0  0  0
 11  9  2  0  0  0  0
 11 13  1  0  0  0  0
 12 11  1  0  0  0  0
 13  4  2  0  0  0  0
 14 13  1  0  0  0  0
 15 23  1  0  0  0  0
 15 16  1  0  0  0  0
 16 18  1  0  0  0  0
 17 16  1  0  0  0  0
 19 16  1  0  0  0  0
 19 21  1  0  0  0  0
 19 22  1  0  0  0  0
 20 19  1  0  0  0  0
 23 24  1  0  0  0  0
 23 25  1  0  0  0  0
 26 28  1  0  0  0  0
 26 23  1  0  0  0  0
 27 26  1  0  0  0  0
 29 26  1  0  0  0  0
 31  3  1  0  0  0  0
M  END
