3
 OpenBabel05122313113D

 66 67  0  0  1  0  0  0  0  0999 V2000
   -1.7506    2.4574   -0.2858 Si  0  0  0  0  0  0  0  0  0  0  0  0
   -2.8484   -1.3472    0.3299 Si  0  0  0  0  0  0  0  0  0  0  0  0
   -0.0959    1.7991    0.3642 C   0  0  2  0  0  3  0  0  0  0  0  0
    0.1693    1.1406    1.6240 C   0  0  0  0  0  0  0  0  0  0  0  0
    1.5782    1.1133    1.8398 C   0  0  0  0  0  0  0  0  0  0  0  0
    2.1999    1.8464    0.7681 C   0  0  0  0  0  0  0  0  0  0  0  0
    1.1792    2.2903   -0.1125 C   0  0  0  0  0  0  0  0  0  0  0  0
   -0.8565    0.8416    2.6698 C   0  0  0  0  0  0  0  0  0  0  0  0
   -0.4344    0.2897    3.5283 H   0  0  0  0  0  0  0  0  0  0  0  0
   -1.7132    0.2725    2.2770 H   0  0  0  0  0  0  0  0  0  0  0  0
   -1.2577    1.8007    3.0633 H   0  0  0  0  0  0  0  0  0  0  0  0
    2.3120    0.5577    3.0211 C   0  0  0  0  0  0  0  0  0  0  0  0
    2.7306    1.3759    3.6452 H   0  0  0  0  0  0  0  0  0  0  0  0
    3.1588   -0.0762    2.6884 H   0  0  0  0  0  0  0  0  0  0  0  0
    1.6572   -0.0536    3.6699 H   0  0  0  0  0  0  0  0  0  0  0  0
    3.6452    2.2174    0.6787 C   0  0  0  0  0  0  0  0  0  0  0  0
    3.7969    3.2444    1.0783 H   0  0  0  0  0  0  0  0  0  0  0  0
    4.0033    2.2059   -0.3687 H   0  0  0  0  0  0  0  0  0  0  0  0
    4.2827    1.5227    1.2541 H   0  0  0  0  0  0  0  0  0  0  0  0
    1.4131    3.2551   -1.2316 C   0  0  0  0  0  0  0  0  0  0  0  0
    1.3767    4.2928   -0.8325 H   0  0  0  0  0  0  0  0  0  0  0  0
    0.6589    3.1638   -2.0306 H   0  0  0  0  0  0  0  0  0  0  0  0
    2.4051    3.1048   -1.6964 H   0  0  0  0  0  0  0  0  0  0  0  0
   -1.8520    4.2495    0.3364 C   0  0  0  0  0  0  0  0  0  0  0  0
   -2.7737    4.7468   -0.0311 H   0  0  0  0  0  0  0  0  0  0  0  0
   -0.9822    4.8419   -0.0124 H   0  0  0  0  0  0  0  0  0  0  0  0
   -1.8613    4.2863    1.4453 H   0  0  0  0  0  0  0  0  0  0  0  0
   -1.8362    2.4370   -2.1816 C   0  0  0  0  0  0  0  0  0  0  0  0
   -1.2486    1.5988   -2.6046 H   0  0  0  0  0  0  0  0  0  0  0  0
   -1.4381    3.3767   -2.6134 H   0  0  0  0  0  0  0  0  0  0  0  0
   -2.8896    2.3402   -2.5165 H   0  0  0  0  0  0  0  0  0  0  0  0
   -3.3214    1.5915    0.3593 C   0  0  0  0  0  0  0  0  0  0  0  0
   -3.3122    1.5396    1.4680 H   0  0  0  0  0  0  0  0  0  0  0  0
   -4.1099    2.3433    0.1216 H   0  0  0  0  0  0  0  0  0  0  0  0
   -0.9710   -1.4706    0.0300 C   0  0  0  0  0  0  0  0  0  0  0  0
   -0.4765   -1.6847   -1.3077 C   0  0  0  0  0  0  0  0  0  0  0  0
    0.7796   -2.3723   -1.2365 C   0  0  0  0  0  0  0  0  0  0  0  0
    1.0588   -2.6245    0.1409 C   0  0  0  0  0  0  0  0  0  0  0  0
    0.0192   -2.0396    0.9258 C   0  0  2  0  0  3  0  0  0  0  0  0
   -1.1948   -1.4031   -2.5921 C   0  0  0  0  0  0  0  0  0  0  0  0
   -0.5049   -0.9681   -3.3406 H   0  0  0  0  0  0  0  0  0  0  0  0
   -2.0325   -0.6953   -2.4570 H   0  0  0  0  0  0  0  0  0  0  0  0
   -1.6043   -2.3452   -3.0145 H   0  0  0  0  0  0  0  0  0  0  0  0
    1.6132   -2.8334   -2.3891 C   0  0  0  0  0  0  0  0  0  0  0  0
    2.6915   -2.7493   -2.1496 H   0  0  0  0  0  0  0  0  0  0  0  0
    1.4238   -2.2234   -3.2910 H   0  0  0  0  0  0  0  0  0  0  0  0
    1.3949   -3.8957   -2.6329 H   0  0  0  0  0  0  0  0  0  0  0  0
    2.1420   -3.5027    0.6792 C   0  0  0  0  0  0  0  0  0  0  0  0
    1.7194   -4.5060    0.9100 H   0  0  0  0  0  0  0  0  0  0  0  0
    2.5808   -3.0976    1.6105 H   0  0  0  0  0  0  0  0  0  0  0  0
    2.9649   -3.6318   -0.0461 H   0  0  0  0  0  0  0  0  0  0  0  0
   -0.0843   -2.3082    2.3996 C   0  0  0  0  0  0  0  0  0  0  0  0
   -0.3086   -3.3844    2.5685 H   0  0  0  0  0  0  0  0  0  0  0  0
   -0.8778   -1.7279    2.8920 H   0  0  0  0  0  0  0  0  0  0  0  0
    0.8720   -2.1026    2.9202 H   0  0  0  0  0  0  0  0  0  0  0  0
   -3.6117   -2.7828   -0.6559 C   0  0  0  0  0  0  0  0  0  0  0  0
   -3.1182   -3.7402   -0.3906 H   0  0  0  0  0  0  0  0  0  0  0  0
   -3.5248   -2.6483   -1.7507 H   0  0  0  0  0  0  0  0  0  0  0  0
   -4.6897   -2.8757   -0.4094 H   0  0  0  0  0  0  0  0  0  0  0  0
   -3.4060   -1.7058    2.1142 C   0  0  0  0  0  0  0  0  0  0  0  0
   -3.1372   -0.9502    2.8761 H   0  0  0  0  0  0  0  0  0  0  0  0
   -3.0315   -2.6904    2.4583 H   0  0  0  0  0  0  0  0  0  0  0  0
   -4.5145   -1.7656    2.0894 H   0  0  0  0  0  0  0  0  0  0  0  0
   -3.7032    0.2405   -0.2683 C   0  0  0  0  0  0  0  0  0  0  0  0
   -3.6003    0.2856   -1.3745 H   0  0  0  0  0  0  0  0  0  0  0  0
   -4.7844    0.0288   -0.0969 H   0  0  0  0  0  0  0  0  0  0  0  0
  1 24  1  0  0  0  0
  1 32  1  0  0  0  0
  2 60  1  0  0  0  0
  3  1  1  1  0  0  0
  3  4  1  0  0  0  0
  4  5  2  0  0  0  0
  4  8  1  0  0  0  0
  5 12  1  0  0  0  0
  6  5  1  0  0  0  0
  7  3  1  0  0  0  0
  7  6  2  0  0  0  0
  8 11  1  0  0  0  0
  8  9  1  0  0  0  0
 10  8  1  0  0  0  0
 12 13  1  0  0  0  0
 12 15  1  0  0  0  0
 14 12  1  0  0  0  0
 16  6  1  0  0  0  0
 16 17  1  0  0  0  0
 16 19  1  0  0  0  0
 18 16  1  0  0  0  0
 20 21  1  0  0  0  0
 20  7  1  0  0  0  0
 22 20  1  0  0  0  0
 23 20  1  0  0  0  0
 24 27  1  0  0  0  0
 25 24  1  0  0  0  0
 26 24  1  0  0  0  0
 28  1  1  0  0  0  0
 29 28  1  0  0  0  0
 30 28  1  0  0  0  0
 31 28  1  0  0  0  0
 32 33  1  0  0  0  0
 34 32  1  0  0  0  0
 35  2  1  0  0  0  0
 35 39  1  0  0  0  0
 36 37  1  0  0  0  0
 36 35  2  0  0  0  0
 37 38  2  0  0  0  0
 38 48  1  0  0  0  0
 38 39  1  0  0  0  0
 39 52  1  6  0  0  0
 40 42  1  0  0  0  0
 40 36  1  0  0  0  0
 41 40  1  0  0  0  0
 43 40  1  0  0  0  0
 44 45  1  0  0  0  0
 44 37  1  0  0  0  0
 46 44  1  0  0  0  0
 47 44  1  0  0  0  0
 48 49  1  0  0  0  0
 48 50  1  0  0  0  0
 51 48  1  0  0  0  0
 52 53  1  0  0  0  0
 52 54  1  0  0  0  0
 52 55  1  0  0  0  0
 56 59  1  0  0  0  0
 56 57  1  0  0  0  0
 56  2  1  0  0  0  0
 58 56  1  0  0  0  0
 60 62  1  0  0  0  0
 60 61  1  0  0  0  0
 63 60  1  0  0  0  0
 64 66  1  0  0  0  0
 64  2  1  0  0  0  0
 64 32  1  0  0  0  0
 65 64  1  0  0  0  0
M  END
