17
 OpenBabel05122313113D

 40 46  0  0  1  0  0  0  0  0999 V2000
    0.4677   -2.8761    0.6851 C   0  0  1  0  0  0  0  0  0  0  0  0
    0.0485   -1.6093   -0.4244 C   0  0  1  0  0  0  0  0  0  0  0  0
    0.7454   -2.4352    2.1556 C   0  0  0  0  0  0  0  0  0  0  0  0
   -0.1761   -3.1663    3.1563 C   0  0  0  0  0  0  0  0  0  0  0  0
    0.0875   -4.2381    3.2124 H   0  0  0  0  0  0  0  0  0  0  0  0
   -1.2421   -3.0939    2.8754 H   0  0  0  0  0  0  0  0  0  0  0  0
   -0.0465   -2.7237    4.1635 H   0  0  0  0  0  0  0  0  0  0  0  0
    2.2015   -2.7240    2.5732 C   0  0  0  0  0  0  0  0  0  0  0  0
    2.9344   -2.2918    1.8691 H   0  0  0  0  0  0  0  0  0  0  0  0
    2.3788   -3.8136    2.6171 H   0  0  0  0  0  0  0  0  0  0  0  0
    2.3865   -2.3029    3.5806 H   0  0  0  0  0  0  0  0  0  0  0  0
    0.4720   -0.9371    2.2518 C   0  0  0  0  0  0  0  0  0  0  0  0
    1.4675    0.0963    2.2320 C   0  0  0  0  0  0  0  0  0  0  0  0
    2.5478   -0.0405    2.1231 H   0  0  0  0  0  0  0  0  0  0  0  0
    0.7790    1.3493    2.3408 C   0  0  0  0  0  0  0  0  0  0  0  0
    1.2558    2.3368    2.3658 H   0  0  0  0  0  0  0  0  0  0  0  0
   -0.6362    1.0932    2.4697 C   0  0  0  0  0  3  0  0  0  0  0  0
   -1.4139    1.8533    2.6166 H   0  0  0  0  0  0  0  0  0  0  0  0
   -0.8342   -0.3267    2.4205 C   0  0  0  0  0  0  0  0  0  0  0  0
   -1.7843   -0.8568    2.5345 H   0  0  0  0  0  0  0  0  0  0  0  0
    1.5892   -2.3795   -0.5073 B   0  0  2  0  0  0  0  0  0  0  0  0
    2.5641   -1.7557   -0.1864 H   0  0  0  0  0  0  0  0  0  0  0  0
    1.3710   -4.1020   -0.0884 B   0  0  1  0  0  0  0  0  0  0  0  0
    2.2367   -4.6541    0.5420 H   0  0  0  0  0  0  0  0  0  0  0  0
   -0.3407   -4.3312    0.3069 B   0  0  2  0  0  0  0  0  0  0  0  0
   -0.6800   -5.0443    1.2165 H   0  0  0  0  0  0  0  0  0  0  0  0
   -1.1410   -2.7431    0.1223 B   0  0  1  0  0  0  0  0  0  0  0  0
   -2.0140   -2.3712    0.8604 H   0  0  0  0  0  0  0  0  0  0  0  0
    0.6489   -2.0607   -1.9670 B   0  0  1  0  0  0  0  0  0  0  0  0
    0.9955   -1.2095   -2.7451 H   0  0  0  0  0  0  0  0  0  0  0  0
    1.4900   -3.6155   -1.7881 B   0  0  1  0  0  0  0  0  0  0  0  0
    2.4717   -3.8762   -2.4452 H   0  0  0  0  0  0  0  0  0  0  0  0
    0.2750   -4.8290   -1.2834 B   0  0  0  0  0  2  0  0  0  0  0  0
    0.3651   -6.0004   -1.5714 H   0  0  0  0  0  0  0  0  0  0  0  0
   -1.3000   -3.9920   -1.1399 B   0  0  0  0  0  0  0  0  0  0  0  0
   -2.3690   -4.5279   -1.3199 H   0  0  0  0  0  0  0  0  0  0  0  0
   -1.0467   -2.2885   -1.5724 B   0  0  2  0  0  0  0  0  0  0  0  0
   -1.9142   -1.6067   -2.0434 H   0  0  0  0  0  0  0  0  0  0  0  0
   -0.1680   -3.5642   -2.4501 B   0  0  1  0  0  0  0  0  0  0  0  0
   -0.4077   -3.7827   -3.6159 H   0  0  0  0  0  0  0  0  0  0  0  0
  1  3  1  1  0  0  0
  2 27  1  0  0  0  0
  3 12  1  0  0  0  0
  3  8  1  0  0  0  0
  3  4  1  0  0  0  0
  4  5  1  0  0  0  0
  4  7  1  0  0  0  0
  6  4  1  0  0  0  0
  8 10  1  0  0  0  0
  8 11  1  0  0  0  0
  9  8  1  0  0  0  0
 12 19  2  0  0  0  0
 13 12  1  0  0  0  0
 13 15  2  0  0  0  0
 14 13  1  0  0  0  0
 15 16  1  0  0  0  0
 15 17  1  0  0  0  0
 17 18  1  0  0  0  0
 19 17  1  0  0  0  0
 19 20  1  0  0  0  0
 21  2  1  0  0  0  0
 21 22  1  0  0  0  0
 23 25  1  0  0  0  0
 23 24  1  0  0  0  0
 23  1  1  0  0  0  0
 25  1  1  0  0  0  0
 25 26  1  0  0  0  0
 27  1  1  0  0  0  0
 27 28  1  0  0  0  0
 29 37  1  0  0  0  0
 29 21  1  0  0  0  0
 29  2  1  0  0  0  0
 30 29  1  0  0  0  0
 31 21  1  0  0  0  0
 31 23  1  0  0  0  0
 32 31  1  0  0  0  0
 34 33  1  0  0  0  0
 35 25  1  0  0  0  0
 36 35  1  0  0  0  0
 37  2  1  0  0  0  0
 37 27  1  0  0  0  0
 38 37  1  0  0  0  0
 39 31  1  0  0  0  0
 39 33  1  0  0  0  0
 39 35  1  0  0  0  0
 40 39  1  0  0  0  0
M  END
