17
 OpenBabel05122313113D

 41 42  0  0  0  0  0  0  0  0999 V2000
   -1.6957    3.1274   -0.1557 N   0  0  0  0  0  4  0  0  0  0  0  0
   -2.7025    2.9547   -0.1523 H   0  0  0  0  0  0  0  0  0  0  0  0
    7.3292    0.8590   -0.6890 Cl  0  0  0  0  0  0  0  0  0  0  0  0
   -7.4856   -0.0795   -0.4346 Cl  0  0  0  0  0  0  0  0  0  0  0  0
    1.2935    1.0700   -1.1597 C   0  0  0  0  0  3  0  0  0  0  0  0
    0.9156    0.5602   -2.0574 H   0  0  0  0  0  0  0  0  0  0  0  0
    2.7664    1.0567   -1.0353 C   0  0  0  0  0  0  0  0  0  0  0  0
    3.5349    0.2456   -1.9027 C   0  0  0  0  0  0  0  0  0  0  0  0
    3.0243   -0.3542   -2.6690 H   0  0  0  0  0  0  0  0  0  0  0  0
    4.9298    0.1773   -1.8047 C   0  0  0  0  0  0  0  0  0  0  0  0
    5.5089   -0.4644   -2.4832 H   0  0  0  0  0  0  0  0  0  0  0  0
    5.5911    0.9363   -0.8274 C   0  0  0  0  0  0  0  0  0  0  0  0
    4.8597    1.7625    0.0438 C   0  0  0  0  0  0  0  0  0  0  0  0
    5.3892    2.3568    0.8019 H   0  0  0  0  0  0  0  0  0  0  0  0
    3.4665    1.8139   -0.0651 C   0  0  0  0  0  0  0  0  0  0  0  0
    2.9131    2.4560    0.6357 H   0  0  0  0  0  0  0  0  0  0  0  0
    0.5103    2.1410   -0.6127 C   0  0  0  0  0  3  0  0  0  0  0  0
    1.0052    3.0055   -0.1456 H   0  0  0  0  0  0  0  0  0  0  0  0
   -0.9306    2.0977   -0.6200 C   0  0  0  0  0  0  0  0  0  0  0  0
   -1.5133    0.8189   -0.9794 C   0  0  0  0  0  3  0  0  0  0  0  0
   -1.1255    0.3911   -1.9183 H   0  0  0  0  0  0  0  0  0  0  0  0
   -2.9733    0.5938   -0.8103 C   0  0  0  0  0  0  0  0  0  0  0  0
   -3.6336    0.7119    0.4350 C   0  0  0  0  0  0  0  0  0  0  0  0
   -3.0456    0.9407    1.3336 H   0  0  0  0  0  0  0  0  0  0  0  0
   -5.0145    0.5143    0.5576 C   0  0  0  0  0  0  0  0  0  0  0  0
   -5.5125    0.6007    1.5335 H   0  0  0  0  0  0  0  0  0  0  0  0
   -5.7672    0.1797   -0.5801 C   0  0  0  0  0  0  0  0  0  0  0  0
   -5.1427    0.0476   -1.8304 C   0  0  0  0  0  0  0  0  0  0  0  0
   -5.7396   -0.2203   -2.7133 H   0  0  0  0  0  0  0  0  0  0  0  0
   -3.7624    0.2569   -1.9346 C   0  0  0  0  0  0  0  0  0  0  0  0
   -3.2790    0.1557   -2.9177 H   0  0  0  0  0  0  0  0  0  0  0  0
   -1.1972    4.3234    0.4959 C   0  0  0  0  0  0  0  0  0  0  0  0
   -0.3747    4.0512    1.1969 H   0  0  0  0  0  0  0  0  0  0  0  0
   -2.0120    4.7266    1.1334 H   0  0  0  0  0  0  0  0  0  0  0  0
   -0.7138    5.4170   -0.4684 C   0  0  0  0  0  0  0  0  0  0  0  0
   -1.5574    5.6960   -1.1350 H   0  0  0  0  0  0  0  0  0  0  0  0
    0.0698    4.9936   -1.1328 H   0  0  0  0  0  0  0  0  0  0  0  0
   -0.1777    6.6452    0.2649 C   0  0  0  0  0  0  0  0  0  0  0  0
    0.1621    7.4244   -0.4449 H   0  0  0  0  0  0  0  0  0  0  0  0
    0.6864    6.3864    0.9125 H   0  0  0  0  0  0  0  0  0  0  0  0
   -0.9528    7.1018    0.9155 H   0  0  0  0  0  0  0  0  0  0  0  0
  1  2  1  0  0  0  0
  1 32  1  0  0  0  0
  5  7  1  0  0  0  0
  5 17  1  0  0  0  0
  6  5  1  0  0  0  0
  7 15  1  0  0  0  0
  8 10  1  0  0  0  0
  8  7  2  0  0  0  0
  9  8  1  0  0  0  0
 10 12  2  0  0  0  0
 11 10  1  0  0  0  0
 12  3  1  0  0  0  0
 12 13  1  0  0  0  0
 13 14  1  0  0  0  0
 15 13  2  0  0  0  0
 15 16  1  0  0  0  0
 17 18  1  0  0  0  0
 19 17  1  0  0  0  0
 19  1  2  0  0  0  0
 20 22  1  0  0  0  0
 20 19  1  0  0  0  0
 21 20  1  0  0  0  0
 22 23  1  0  0  0  0
 23 25  2  0  0  0  0
 23 24  1  0  0  0  0
 25 26  1  0  0  0  0
 27  4  1  0  0  0  0
 27 25  1  0  0  0  0
 28 27  2  0  0  0  0
 29 28  1  0  0  0  0
 30 28  1  0  0  0  0
 30 22  2  0  0  0  0
 31 30  1  0  0  0  0
 32 34  1  0  0  0  0
 32 33  1  0  0  0  0
 35 38  1  0  0  0  0
 35 32  1  0  0  0  0
 36 35  1  0  0  0  0
 37 35  1  0  0  0  0
 38 40  1  0  0  0  0
 38 41  1  0  0  0  0
 39 38  1  0  0  0  0
M  END
