9
 OpenBabel05122313113D

 38 39  0  0  1  0  0  0  0  0999 V2000
   -1.5261   -1.7648   -0.8668 O   0  0  0  0  0  0  0  0  0  0  0  0
    3.8276    2.3892    0.3570 O   0  0  0  0  0  0  0  0  0  0  0  0
    4.0983    1.2520   -1.6020 O   0  0  0  0  0  0  0  0  0  0  0  0
   -2.6976   -0.1064    0.3333 O   0  0  0  0  0  0  0  0  0  0  0  0
   -0.8416   -1.0362   -1.8886 C   0  0  0  0  0  0  0  0  0  0  0  0
   -1.5770   -0.9568    0.3106 C   0  0  2  0  0  0  0  0  0  0  0  0
   -0.3541   -0.0586    0.2404 C   0  0  0  0  0  3  0  0  0  0  0  0
    0.0840   -0.1218   -1.1282 C   0  0  1  0  0  3  0  0  0  0  0  0
    1.3111    0.4769   -1.5009 C   0  0  0  0  0  3  0  0  0  0  0  0
    1.9839    1.2058   -0.4586 C   0  0  0  0  0  3  0  0  0  0  0  0
    3.3991    1.6025   -0.6625 C   0  0  0  0  0  0  0  0  0  0  0  0
    5.2362    2.7122    0.3574 C   0  0  0  0  0  0  0  0  0  0  0  0
    6.0525    1.5832    0.9671 C   0  0  0  0  0  0  0  0  0  0  0  0
   -3.9358   -0.7951    0.4415 C   0  0  0  0  0  0  0  0  0  0  0  0
   -5.0902    0.1637    0.2772 C   0  0  0  0  0  0  0  0  0  0  0  0
   -6.3976   -0.2616    0.5857 C   0  0  0  0  0  0  0  0  0  0  0  0
   -7.4880    0.6015    0.4106 C   0  0  0  0  0  0  0  0  0  0  0  0
   -7.2848    1.9055   -0.0710 C   0  0  0  0  0  0  0  0  0  0  0  0
   -5.9847    2.3359   -0.3749 C   0  0  0  0  0  0  0  0  0  0  0  0
   -4.8925    1.4705   -0.2034 C   0  0  0  0  0  0  0  0  0  0  0  0
    5.5575    2.9180   -0.6837 H   0  0  0  0  0  0  0  0  0  0  0  0
    5.3105    3.6420    0.9542 H   0  0  0  0  0  0  0  0  0  0  0  0
    7.1203    1.8747    1.0300 H   0  0  0  0  0  0  0  0  0  0  0  0
    5.9823    0.6711    0.3425 H   0  0  0  0  0  0  0  0  0  0  0  0
    5.6960    1.3445    1.9891 H   0  0  0  0  0  0  0  0  0  0  0  0
   -3.9910   -1.5912   -0.3379 H   0  0  0  0  0  0  0  0  0  0  0  0
   -4.0035   -1.3115    1.4311 H   0  0  0  0  0  0  0  0  0  0  0  0
   -6.5630   -1.2815    0.9696 H   0  0  0  0  0  0  0  0  0  0  0  0
   -8.5038    0.2557    0.6564 H   0  0  0  0  0  0  0  0  0  0  0  0
   -8.1401    2.5851   -0.2053 H   0  0  0  0  0  0  0  0  0  0  0  0
   -5.8163    3.3575   -0.7490 H   0  0  0  0  0  0  0  0  0  0  0  0
   -3.8699    1.7993   -0.4348 H   0  0  0  0  0  0  0  0  0  0  0  0
   -1.5519   -0.4246   -2.4946 H   0  0  0  0  0  0  0  0  0  0  0  0
   -0.3307   -1.7562   -2.5575 H   0  0  0  0  0  0  0  0  0  0  0  0
   -1.6132   -1.6701    1.1664 H   0  0  0  0  0  0  0  0  0  0  0  0
   -0.3780    0.8656    0.8356 H   0  0  0  0  0  0  0  0  0  0  0  0
    1.7841    0.3198   -2.4822 H   0  0  0  0  0  0  0  0  0  0  0  0
    1.4132    1.8401    0.2362 H   0  0  0  0  0  0  0  0  0  0  0  0
  1  6  1  0  0  0  0
  2 12  1  0  0  0  0
  3 11  2  0  0  0  0
  4 14  1  0  0  0  0
  5  8  1  0  0  0  0
  5  1  1  0  0  0  0
  6  4  1  0  0  0  0
  6 35  1  1  0  0  0
  7  6  1  0  0  0  0
  7 36  1  0  0  0  0
  8  9  1  1  0  0  0
  8  7  1  0  0  0  0
  9 10  1  0  0  0  0
 10 38  1  0  0  0  0
 11 10  1  0  0  0  0
 11  2  1  0  0  0  0
 12 22  1  0  0  0  0
 12 13  1  0  0  0  0
 13 23  1  0  0  0  0
 13 25  1  0  0  0  0
 14 27  1  0  0  0  0
 15 14  1  0  0  0  0
 15 16  1  0  0  0  0
 16 28  1  0  0  0  0
 17 16  2  0  0  0  0
 17 29  1  0  0  0  0
 18 17  1  0  0  0  0
 19 20  1  0  0  0  0
 19 18  2  0  0  0  0
 20 15  2  0  0  0  0
 21 12  1  0  0  0  0
 24 13  1  0  0  0  0
 26 14  1  0  0  0  0
 30 18  1  0  0  0  0
 31 19  1  0  0  0  0
 32 20  1  0  0  0  0
 33  5  1  0  0  0  0
 34  5  1  0  0  0  0
 37  9  1  0  0  0  0
M  END
