5
 OpenBabel05122313113D

 42 45  0  0  1  0  0  0  0  0999 V2000
   -0.4901   -1.4404    1.8682 O   0  0  0  0  0  0  0  0  0  0  0  0
   -0.5362   -0.7469   -0.3830 C   0  0  1  0  0  3  0  0  0  0  0  0
   -1.2161   -0.6441   -1.6447 C   0  0  0  0  0  0  0  0  0  0  0  0
   -2.5604   -1.1142   -1.7617 C   0  0  0  0  0  0  0  0  0  0  0  0
   -3.2418   -1.6193   -0.6260 C   0  0  0  0  0  3  0  0  0  0  0  0
   -2.5783   -1.7536    0.6270 C   0  0  0  0  0  0  0  0  0  0  0  0
   -1.2195   -1.3412    0.7349 C   0  0  0  0  0  0  0  0  0  0  0  0
   -0.5033   -0.0907   -2.8497 C   0  0  0  0  0  0  0  0  0  0  0  0
   -1.1525   -1.7550    3.0863 C   0  0  0  0  0  0  0  0  0  0  0  0
    0.8852   -0.3240   -0.2238 C   0  0  0  0  0  0  0  0  0  0  0  0
    1.9116   -1.3113   -0.2723 C   0  0  0  0  0  0  0  0  0  0  0  0
    3.2551   -0.9652   -0.1455 C   0  0  0  0  0  0  0  0  0  0  0  0
    3.6530    0.3902    0.0408 C   0  0  0  0  0  0  0  0  0  0  0  0
    5.0116    0.7956    0.1890 C   0  0  0  0  0  0  0  0  0  0  0  0
    5.3382    2.1327    0.3679 C   0  0  0  0  0  0  0  0  0  0  0  0
    4.3197    3.1227    0.4068 C   0  0  0  0  0  0  0  0  0  0  0  0
    2.9879    2.7602    0.2681 C   0  0  0  0  0  0  0  0  0  0  0  0
    2.6154    1.3961    0.0845 C   0  0  0  0  0  0  0  0  0  0  0  0
    1.2501    1.0073   -0.0474 C   0  0  0  0  0  0  0  0  0  0  0  0
    1.7517   -2.8088   -0.4003 C   0  0  0  0  0  0  0  0  0  0  0  0
    3.1794   -3.2836   -0.7595 C   0  0  0  0  0  0  0  0  0  0  0  0
    4.1264   -2.2012   -0.1862 C   0  0  0  0  0  0  0  0  0  0  0  0
   -3.0921   -0.9984   -2.7155 H   0  0  0  0  0  0  0  0  0  0  0  0
   -4.2995   -1.9074   -0.7068 H   0  0  0  0  0  0  0  0  0  0  0  0
   -3.1254   -2.1347    1.4964 H   0  0  0  0  0  0  0  0  0  0  0  0
   -1.2239    0.2138   -3.6314 H   0  0  0  0  0  0  0  0  0  0  0  0
    0.1698   -0.8639   -3.2763 H   0  0  0  0  0  0  0  0  0  0  0  0
    0.1251    0.7798   -2.5894 H   0  0  0  0  0  0  0  0  0  0  0  0
   -0.3802   -1.7061    3.8748 H   0  0  0  0  0  0  0  0  0  0  0  0
   -1.5865   -2.7784    3.0671 H   0  0  0  0  0  0  0  0  0  0  0  0
   -1.9491   -1.0143    3.3105 H   0  0  0  0  0  0  0  0  0  0  0  0
    5.8038    0.0325    0.1615 H   0  0  0  0  0  0  0  0  0  0  0  0
    6.3918    2.4306    0.4810 H   0  0  0  0  0  0  0  0  0  0  0  0
    4.5912    4.1796    0.5491 H   0  0  0  0  0  0  0  0  0  0  0  0
    2.1945    3.5232    0.3005 H   0  0  0  0  0  0  0  0  0  0  0  0
    0.4662    1.7780   -0.0009 H   0  0  0  0  0  0  0  0  0  0  0  0
    0.9887   -3.1071   -1.1487 H   0  0  0  0  0  0  0  0  0  0  0  0
    1.4093   -3.2261    0.5742 H   0  0  0  0  0  0  0  0  0  0  0  0
    3.4072   -4.3016   -0.3876 H   0  0  0  0  0  0  0  0  0  0  0  0
    3.2854   -3.3077   -1.8642 H   0  0  0  0  0  0  0  0  0  0  0  0
    4.4660   -2.4588    0.8435 H   0  0  0  0  0  0  0  0  0  0  0  0
    5.0467   -2.0721   -0.7925 H   0  0  0  0  0  0  0  0  0  0  0  0
  1  9  1  0  0  0  0
  2 10  1  6  0  0  0
  2  7  1  0  0  0  0
  3  2  1  0  0  0  0
  4  3  2  0  0  0  0
  4  5  1  0  0  0  0
  5  6  1  0  0  0  0
  6  7  2  0  0  0  0
  6 25  1  0  0  0  0
  7  1  1  0  0  0  0
  8 28  1  0  0  0  0
  8  3  1  0  0  0  0
  9 31  1  0  0  0  0
  9 29  1  0  0  0  0
 10 19  1  0  0  0  0
 11 10  2  0  0  0  0
 11 12  1  0  0  0  0
 12 13  2  0  0  0  0
 13 18  1  0  0  0  0
 13 14  1  0  0  0  0
 14 15  2  0  0  0  0
 15 16  1  0  0  0  0
 15 33  1  0  0  0  0
 16 34  1  0  0  0  0
 17 35  1  0  0  0  0
 17 16  2  0  0  0  0
 18 17  1  0  0  0  0
 19 36  1  0  0  0  0
 19 18  2  0  0  0  0
 20 11  1  0  0  0  0
 20 38  1  0  0  0  0
 21 20  1  0  0  0  0
 21 39  1  0  0  0  0
 21 22  1  0  0  0  0
 22 12  1  0  0  0  0
 22 41  1  0  0  0  0
 23  4  1  0  0  0  0
 24  5  1  0  0  0  0
 26  8  1  0  0  0  0
 27  8  1  0  0  0  0
 30  9  1  0  0  0  0
 32 14  1  0  0  0  0
 37 20  1  0  0  0  0
 40 21  1  0  0  0  0
 42 22  1  0  0  0  0
M  END
