3
 OpenBabel05122313113D

 52 53  0  0  0  0  0  0  0  0999 V2000
    0.7541    0.0139    0.0927 Si  0  0  0  0  0  0  0  0  0  0  0  0
   -0.4739   -1.1189    2.4934 N   0  0  0  0  0  0  0  0  0  0  0  0
   -0.5742   -0.5785    1.2865 C   0  0  0  0  0  2  0  0  0  0  0  0
    0.7827   -1.3823    3.1935 C   0  0  0  0  0  0  0  0  0  0  0  0
   -1.6646   -1.5557    3.2243 C   0  0  0  0  0  0  0  0  0  0  0  0
    2.3133   -1.0496   -0.1317 C   0  0  0  0  0  0  0  0  0  0  0  0
    2.3433   -2.2045   -0.9716 C   0  0  0  0  0  0  0  0  0  0  0  0
    3.5244   -2.9617   -1.0605 C   0  0  0  0  0  0  0  0  0  0  0  0
    4.6904   -2.6258   -0.3495 C   0  0  0  0  0  0  0  0  0  0  0  0
    4.6501   -1.4836    0.4642 C   0  0  0  0  0  0  0  0  0  0  0  0
    3.4940   -0.6876    0.5828 C   0  0  0  0  0  0  0  0  0  0  0  0
    1.1555   -2.6437   -1.7930 C   0  0  0  0  0  0  0  0  0  0  0  0
    5.9326   -3.4716   -0.4621 C   0  0  0  0  0  0  0  0  0  0  0  0
    3.5791    0.5477    1.4511 C   0  0  0  0  0  0  0  0  0  0  0  0
    1.0747    1.8759    0.0204 C   0  0  0  0  0  0  0  0  0  0  0  0
    0.7738    2.7671    1.0874 C   0  0  0  0  0  0  0  0  0  0  0  0
    1.0142    4.1422    0.9233 C   0  0  0  0  0  0  0  0  0  0  0  0
    1.5426    4.6736   -0.2665 C   0  0  0  0  0  0  0  0  0  0  0  0
    1.8331    3.7806   -1.3112 C   0  0  0  0  0  0  0  0  0  0  0  0
    1.6067    2.3968   -1.1941 C   0  0  0  0  0  0  0  0  0  0  0  0
    0.1868    2.2874    2.3921 C   0  0  0  0  0  0  0  0  0  0  0  0
    1.7535    6.1574   -0.4257 C   0  0  0  0  0  0  0  0  0  0  0  0
    1.9165    1.5036   -2.3725 C   0  0  0  0  0  0  0  0  0  0  0  0
   -0.1293   -0.2438   -1.2004 H   0  0  0  0  0  0  0  0  0  0  0  0
    1.6340   -1.2245    2.5095 H   0  0  0  0  0  0  0  0  0  0  0  0
    0.8838   -0.7227    4.0823 H   0  0  0  0  0  0  0  0  0  0  0  0
    0.8046   -2.4348    3.5456 H   0  0  0  0  0  0  0  0  0  0  0  0
   -2.5611   -1.1769    2.7046 H   0  0  0  0  0  0  0  0  0  0  0  0
   -1.7074   -2.6652    3.2635 H   0  0  0  0  0  0  0  0  0  0  0  0
   -1.6332   -1.1691    4.2643 H   0  0  0  0  0  0  0  0  0  0  0  0
    1.3837   -3.5710   -2.3516 H   0  0  0  0  0  0  0  0  0  0  0  0
    0.2607   -2.8359   -1.1701 H   0  0  0  0  0  0  0  0  0  0  0  0
    0.8567   -1.8712   -2.5313 H   0  0  0  0  0  0  0  0  0  0  0  0
    6.7772   -3.0387    0.1077 H   0  0  0  0  0  0  0  0  0  0  0  0
    5.7542   -4.4982   -0.0784 H   0  0  0  0  0  0  0  0  0  0  0  0
    6.2515   -3.5787   -1.5196 H   0  0  0  0  0  0  0  0  0  0  0  0
    2.6899    0.6844    2.0989 H   0  0  0  0  0  0  0  0  0  0  0  0
    4.4679    0.5060    2.1098 H   0  0  0  0  0  0  0  0  0  0  0  0
    3.6508    1.4698    0.8387 H   0  0  0  0  0  0  0  0  0  0  0  0
    0.0695    3.1227    3.1084 H   0  0  0  0  0  0  0  0  0  0  0  0
   -0.8099    1.8245    2.2382 H   0  0  0  0  0  0  0  0  0  0  0  0
    0.8253    1.5192    2.8764 H   0  0  0  0  0  0  0  0  0  0  0  0
    2.5128    6.3830   -1.1998 H   0  0  0  0  0  0  0  0  0  0  0  0
    0.8104    6.6578   -0.7343 H   0  0  0  0  0  0  0  0  0  0  0  0
    2.0733    6.6293    0.5247 H   0  0  0  0  0  0  0  0  0  0  0  0
    2.6152    0.6845   -2.1042 H   0  0  0  0  0  0  0  0  0  0  0  0
    0.9945    1.0224   -2.7638 H   0  0  0  0  0  0  0  0  0  0  0  0
    2.3675    2.0780   -3.2036 H   0  0  0  0  0  0  0  0  0  0  0  0
    3.5312   -3.8504   -1.7127 H   0  0  0  0  0  0  0  0  0  0  0  0
    5.5523   -1.1934    1.0272 H   0  0  0  0  0  0  0  0  0  0  0  0
    0.7767    4.8240    1.7563 H   0  0  0  0  0  0  0  0  0  0  0  0
    2.2474    4.1721   -2.2547 H   0  0  0  0  0  0  0  0  0  0  0  0
  1  3  1  0  0  0  0
  2  4  1  0  0  0  0
  2  5  1  0  0  0  0
  3  2  1  0  0  0  0
  4 27  1  0  0  0  0
  4 26  1  0  0  0  0
  5 29  1  0  0  0  0
  5 30  1  0  0  0  0
  6  1  1  0  0  0  0
  6 11  1  0  0  0  0
  7  6  2  0  0  0  0
  8  7  1  0  0  0  0
  8  9  2  0  0  0  0
  9 10  1  0  0  0  0
 10 11  2  0  0  0  0
 10 50  1  0  0  0  0
 11 14  1  0  0  0  0
 12 32  1  0  0  0  0
 12  7  1  0  0  0  0
 13  9  1  0  0  0  0
 13 35  1  0  0  0  0
 13 34  1  0  0  0  0
 14 37  1  0  0  0  0
 14 38  1  0  0  0  0
 15  1  1  0  0  0  0
 15 16  1  0  0  0  0
 16 21  1  0  0  0  0
 17 16  2  0  0  0  0
 17 51  1  0  0  0  0
 18 17  1  0  0  0  0
 19 20  1  0  0  0  0
 19 18  2  0  0  0  0
 20 15  2  0  0  0  0
 21 42  1  0  0  0  0
 21 40  1  0  0  0  0
 22 18  1  0  0  0  0
 22 45  1  0  0  0  0
 23 46  1  0  0  0  0
 23 20  1  0  0  0  0
 24  1  1  0  0  0  0
 25  4  1  0  0  0  0
 28  5  1  0  0  0  0
 31 12  1  0  0  0  0
 33 12  1  0  0  0  0
 36 13  1  0  0  0  0
 39 14  1  0  0  0  0
 41 21  1  0  0  0  0
 43 22  1  0  0  0  0
 44 22  1  0  0  0  0
 47 23  1  0  0  0  0
 48 23  1  0  0  0  0
 49  8  1  0  0  0  0
 52 19  1  0  0  0  0
M  END
