3
 OpenBabel05122313113D

 66 68  0  0  1  0  0  0  0  0999 V2000
   -0.6225   -0.3100   -0.1276 O   0  0  0  0  0  0  0  0  0  0  0  0
    5.1229   -0.6738    0.7507 O   0  0  0  0  0  0  0  0  0  0  0  0
    0.2639    0.5868   -0.4770 C   0  0  0  0  0  2  0  0  0  0  0  0
    1.3439   -0.1626   -1.2256 C   0  0  0  0  0  0  0  0  0  0  0  0
    2.4805   -0.6047   -0.2623 C   0  0  2  0  0  0  0  0  0  0  0  0
    3.6385   -1.2224   -1.0610 C   0  0  0  0  0  0  0  0  0  0  0  0
    4.9245   -1.3532   -0.2440 C   0  0  0  0  0  0  0  0  0  0  0  0
    5.9377   -2.3603   -0.7500 C   0  0  0  0  0  0  0  0  0  0  0  0
    1.9948   -1.5515    0.8274 C   0  0  0  0  0  0  0  0  0  0  0  0
    1.2721   -2.7199    0.5069 C   0  0  0  0  0  0  0  0  0  0  0  0
    0.8203   -3.5853    1.5134 C   0  0  0  0  0  0  0  0  0  0  0  0
    1.0879   -3.2995    2.8630 C   0  0  0  0  0  0  0  0  0  0  0  0
    1.8155   -2.1456    3.1927 C   0  0  0  0  0  0  0  0  0  0  0  0
    2.2657   -1.2807    2.1825 C   0  0  0  0  0  0  0  0  0  0  0  0
   -1.7787   -0.0960    0.7243 C   0  0  1  0  0  0  0  0  0  0  0  0
   -2.8590   -1.1088    0.3164 C   0  0  1  0  0  0  0  0  0  0  0  0
   -4.0241   -0.9827    1.3221 C   0  0  0  0  0  0  0  0  0  0  0  0
   -3.5727   -1.1515    2.7766 C   0  0  0  0  0  0  0  0  0  0  0  0
   -2.4820   -0.1450    3.1634 C   0  0  2  0  0  0  0  0  0  0  0  0
   -1.3205   -0.2628    2.1701 C   0  0  0  0  0  0  0  0  0  0  0  0
   -3.3030   -1.0027   -1.1920 C   0  0  0  0  0  0  0  0  0  0  0  0
   -3.7303    0.4373   -1.5292 C   0  0  0  0  0  0  0  0  0  0  0  0
   -4.5189   -1.9282   -1.4520 C   0  0  0  0  0  0  0  0  0  0  0  0
   -2.1775   -1.4994   -2.1241 C   0  0  0  0  0  0  0  0  0  0  0  0
   -1.6490   -2.7995   -1.9633 C   0  0  0  0  0  0  0  0  0  0  0  0
   -0.6627   -3.3024   -2.8233 C   0  0  0  0  0  0  0  0  0  0  0  0
   -0.1766   -2.5149   -3.8803 C   0  0  0  0  0  0  0  0  0  0  0  0
   -0.6950   -1.2250   -4.0598 C   0  0  0  0  0  0  0  0  0  0  0  0
   -1.6831   -0.7266   -3.1942 C   0  0  0  0  0  0  0  0  0  0  0  0
   -1.9954   -0.3285    4.6020 C   0  0  0  0  0  0  0  0  0  0  0  0
    1.7761    0.4852   -2.0099 H   0  0  0  0  0  0  0  0  0  0  0  0
    0.9046   -1.0534   -1.7190 H   0  0  0  0  0  0  0  0  0  0  0  0
    2.8937    0.2956    0.2354 H   0  0  0  0  0  0  0  0  0  0  0  0
    3.8942   -0.5672   -1.9262 H   0  0  0  0  0  0  0  0  0  0  0  0
    3.3568   -2.2030   -1.5008 H   0  0  0  0  0  0  0  0  0  0  0  0
    6.9035   -2.2233   -0.2311 H   0  0  0  0  0  0  0  0  0  0  0  0
    6.0716   -2.2857   -1.8486 H   0  0  0  0  0  0  0  0  0  0  0  0
    5.5563   -3.3836   -0.5439 H   0  0  0  0  0  0  0  0  0  0  0  0
    1.0324   -2.9464   -0.5433 H   0  0  0  0  0  0  0  0  0  0  0  0
    0.2500   -4.4874    1.2423 H   0  0  0  0  0  0  0  0  0  0  0  0
    0.7308   -3.9758    3.6547 H   0  0  0  0  0  0  0  0  0  0  0  0
    2.0339   -1.9121    4.2459 H   0  0  0  0  0  0  0  0  0  0  0  0
    2.8386   -0.3794    2.4436 H   0  0  0  0  0  0  0  0  0  0  0  0
   -2.1397    0.9331    0.5482 H   0  0  0  0  0  0  0  0  0  0  0  0
   -2.4158   -2.1186    0.4620 H   0  0  0  0  0  0  0  0  0  0  0  0
   -4.5122    0.0101    1.2070 H   0  0  0  0  0  0  0  0  0  0  0  0
   -4.7976   -1.7388    1.0883 H   0  0  0  0  0  0  0  0  0  0  0  0
   -3.1752   -2.1815    2.9244 H   0  0  0  0  0  0  0  0  0  0  0  0
   -4.4454   -1.0516    3.4560 H   0  0  0  0  0  0  0  0  0  0  0  0
   -2.9125    0.8786    3.0642 H   0  0  0  0  0  0  0  0  0  0  0  0
   -0.8362   -1.2578    2.2725 H   0  0  0  0  0  0  0  0  0  0  0  0
   -0.5413    0.4916    2.3924 H   0  0  0  0  0  0  0  0  0  0  0  0
   -2.8934    1.1594   -1.4840 H   0  0  0  0  0  0  0  0  0  0  0  0
   -4.5123    0.7849   -0.8265 H   0  0  0  0  0  0  0  0  0  0  0  0
   -4.1598    0.4937   -2.5487 H   0  0  0  0  0  0  0  0  0  0  0  0
   -5.4353   -1.5482   -0.9592 H   0  0  0  0  0  0  0  0  0  0  0  0
   -4.3366   -2.9608   -1.0919 H   0  0  0  0  0  0  0  0  0  0  0  0
   -4.7201   -1.9839   -2.5400 H   0  0  0  0  0  0  0  0  0  0  0  0
   -2.0090   -3.4392   -1.1431 H   0  0  0  0  0  0  0  0  0  0  0  0
   -0.2742   -4.3212   -2.6689 H   0  0  0  0  0  0  0  0  0  0  0  0
    0.5966   -2.9065   -4.5584 H   0  0  0  0  0  0  0  0  0  0  0  0
   -0.3271   -0.5892   -4.8797 H   0  0  0  0  0  0  0  0  0  0  0  0
   -2.0528    0.2935   -3.3600 H   0  0  0  0  0  0  0  0  0  0  0  0
   -2.8295   -0.2329    5.3264 H   0  0  0  0  0  0  0  0  0  0  0  0
   -1.2252    0.4242    4.8662 H   0  0  0  0  0  0  0  0  0  0  0  0
   -1.5403   -1.3325    4.7372 H   0  0  0  0  0  0  0  0  0  0  0  0
  1 15  1  0  0  0  0
  3  1  1  0  0  0  0
  4  3  1  0  0  0  0
  4  5  1  0  0  0  0
  5 33  1  1  0  0  0
  5  9  1  0  0  0  0
  6  5  1  0  0  0  0
  6  7  1  0  0  0  0
  7  2  2  0  0  0  0
  8 38  1  0  0  0  0
  8  7  1  0  0  0  0
  8 36  1  0  0  0  0
  9 14  1  0  0  0  0
 10  9  2  0  0  0  0
 10 11  1  0  0  0  0
 11 12  2  0  0  0  0
 12 13  1  0  0  0  0
 12 41  1  0  0  0  0
 13 42  1  0  0  0  0
 14 43  1  0  0  0  0
 14 13  2  0  0  0  0
 15 44  1  6  0  0  0
 15 20  1  0  0  0  0
 16 45  1  1  0  0  0
 16 15  1  0  0  0  0
 16 17  1  0  0  0  0
 17 18  1  0  0  0  0
 18 48  1  0  0  0  0
 18 19  1  0  0  0  0
 18 49  1  0  0  0  0
 19 50  1  6  0  0  0
 19 30  1  0  0  0  0
 20 51  1  0  0  0  0
 20 52  1  0  0  0  0
 20 19  1  0  0  0  0
 21 16  1  0  0  0  0
 22 53  1  0  0  0  0
 22 21  1  0  0  0  0
 22 54  1  0  0  0  0
 23 21  1  0  0  0  0
 23 57  1  0  0  0  0
 23 56  1  0  0  0  0
 24 25  1  0  0  0  0
 24 21  1  0  0  0  0
 25 59  1  0  0  0  0
 26 60  1  0  0  0  0
 26 25  2  0  0  0  0
 27 26  1  0  0  0  0
 28 27  2  0  0  0  0
 28 29  1  0  0  0  0
 29 24  2  0  0  0  0
 30 66  1  0  0  0  0
 30 65  1  0  0  0  0
 30 64  1  0  0  0  0
 31  4  1  0  0  0  0
 32  4  1  0  0  0  0
 34  6  1  0  0  0  0
 35  6  1  0  0  0  0
 37  8  1  0  0  0  0
 39 10  1  0  0  0  0
 40 11  1  0  0  0  0
 46 17  1  0  0  0  0
 47 17  1  0  0  0  0
 55 22  1  0  0  0  0
 58 23  1  0  0  0  0
 61 27  1  0  0  0  0
 62 28  1  0  0  0  0
 63 29  1  0  0  0  0
M  END
