14
 OpenBabel05122313113D

 23 23  0  0  1  0  0  0  0  0999 V2000
   -3.1573   -1.1483   -1.1757 O   0  0  0  0  0  0  0  0  0  0  0  0
    1.2118   -0.7471    1.1497 C   0  0  0  0  0  3  0  0  0  0  0  0
    2.6489   -0.5068    1.5583 C   0  0  0  0  0  0  0  0  0  0  0  0
    2.7220    0.3552    2.2525 H   0  0  0  0  0  0  0  0  0  0  0  0
    2.9522   -1.3959    2.1592 H   0  0  0  0  0  0  0  0  0  0  0  0
    3.6412   -0.3403    0.3931 C   0  0  0  0  0  0  0  0  0  0  0  0
    4.6762   -0.5245    0.7488 H   0  0  0  0  0  0  0  0  0  0  0  0
    3.6465    0.7158    0.0401 H   0  0  0  0  0  0  0  0  0  0  0  0
    3.3266   -1.2160   -0.7875 C   0  0  0  0  0  0  0  0  0  0  0  0
    4.1392   -1.4454   -1.4959 H   0  0  0  0  0  0  0  0  0  0  0  0
    2.0704   -1.6449   -1.0507 C   0  0  0  0  0  0  0  0  0  0  0  0
    1.8444   -2.2169   -1.9640 H   0  0  0  0  0  0  0  0  0  0  0  0
    0.9573   -1.3516   -0.1359 C   0  0  2  0  0  3  0  0  0  0  0  0
   -0.4131   -1.5179   -0.5000 C   0  0  0  0  0  3  0  0  0  0  0  0
   -0.7098   -1.8417   -1.5099 H   0  0  0  0  0  0  0  0  0  0  0  0
   -1.4195   -1.1334    0.4514 C   0  0  0  0  0  3  0  0  0  0  0  0
   -1.2665   -1.3390    1.5234 H   0  0  0  0  0  0  0  0  0  0  0  0
   -2.8432   -1.0517    0.0074 C   0  0  0  0  0  0  0  0  0  0  0  0
   -3.8716   -0.8379    1.1022 C   0  0  0  0  0  0  0  0  0  0  0  0
   -3.6004    0.0428    1.7207 H   0  0  0  0  0  0  0  0  0  0  0  0
   -3.8918   -1.7136    1.7847 H   0  0  0  0  0  0  0  0  0  0  0  0
   -4.8723   -0.6959    0.6567 H   0  0  0  0  0  0  0  0  0  0  0  0
    0.5729   -1.0622    1.9902 H   0  0  0  0  0  0  0  0  0  0  0  0
  1 18  2  0  0  0  0
  2  3  1  0  0  0  0
  2 23  1  0  0  0  0
  3  5  1  0  0  0  0
  3  4  1  0  0  0  0
  6  7  1  0  0  0  0
  6  3  1  0  0  0  0
  8  6  1  0  0  0  0
  9  6  1  0  0  0  0
 10  9  1  0  0  0  0
 11  9  2  0  0  0  0
 11 13  1  0  0  0  0
 12 11  1  0  0  0  0
 13 14  1  6  0  0  0
 13  2  1  0  0  0  0
 14 16  1  0  0  0  0
 15 14  1  0  0  0  0
 16 17  1  0  0  0  0
 18 16  1  0  0  0  0
 18 19  1  0  0  0  0
 19 20  1  0  0  0  0
 19 21  1  0  0  0  0
 22 19  1  0  0  0  0
M  END
