12
 OpenBabel05122313113D

 17 18  0  0  0  0  0  0  0  0999 V2000
   -4.0799    0.3037   -0.0372 C   0  0  0  0  0  0  0  0  0  0  0  0
   -5.4060    0.6828    0.2786 C   0  0  0  0  0  0  0  0  0  0  0  0
   -6.1346   -0.1139    0.4869 H   0  0  0  0  0  0  0  0  0  0  0  0
   -5.7745    2.0331    0.3247 C   0  0  0  0  0  0  0  0  0  0  0  0
   -6.8118    2.3045    0.5757 H   0  0  0  0  0  0  0  0  0  0  0  0
   -4.8317    3.0401    0.0565 C   0  0  0  0  0  0  0  0  0  0  0  0
   -5.1240    4.1007    0.0939 H   0  0  0  0  0  0  0  0  0  0  0  0
   -3.5144    2.6772   -0.2697 C   0  0  0  0  0  0  0  0  0  0  0  0
   -2.7652    3.4513   -0.4991 H   0  0  0  0  0  0  0  0  0  0  0  0
   -3.1461    1.3262   -0.3211 C   0  0  0  0  0  0  0  0  0  0  0  0
   -2.1157    1.0517   -0.5997 H   0  0  0  0  0  0  0  0  0  0  0  0
   -2.4530   -1.7451   -0.0984 C   0  0  0  0  0  3  0  0  0  0  0  0
   -3.7210   -1.1221   -0.0646 C   0  0  0  0  0  0  0  0  0  0  0  0
   -2.8012   -3.0688   -0.0953 N   0  0  0  0  0  0  0  0  0  0  0  0
   -2.1748   -3.8750   -0.1128 H   0  0  0  0  0  0  0  0  0  0  0  0
   -4.1404   -3.2758   -0.0585 N   0  0  0  0  0  0  0  0  0  0  0  0
   -4.6942   -2.0959   -0.0366 N   0  0  0  0  0  0  0  0  0  0  0  0
  1  2  1  0  0  0  0
  2  4  2  0  0  0  0
  2  3  1  0  0  0  0
  4  5  1  0  0  0  0
  6  7  1  0  0  0  0
  6  4  1  0  0  0  0
  8  6  2  0  0  0  0
  9  8  1  0  0  0  0
 10  8  1  0  0  0  0
 10  1  2  0  0  0  0
 11 10  1  0  0  0  0
 12 14  1  0  0  0  0
 12 13  2  0  0  0  0
 13  1  1  0  0  0  0
 13 17  1  0  0  0  0
 14 16  1  0  0  0  0
 15 14  1  0  0  0  0
 16 17  2  0  0  0  0
M  END
