3
 OpenBabel05122313113D

 19 18  0  0  0  0  0  0  0  0999 V2000
    3.1837    0.4338    0.3016 Si  0  0  0  0  0  0  0  0  0  0  0  0
    1.5520   -2.8079   -1.2532 C   0  0  0  0  0  0  0  0  0  0  0  0
    1.0933   -1.5050   -0.7254 C   0  0  0  0  0  3  0  0  0  0  0  0
    1.5684   -0.3337   -0.2642 C   0  0  0  0  0  3  0  0  0  0  0  0
    4.5003    0.2431   -1.0498 C   0  0  0  0  0  0  0  0  0  0  0  0
    3.6649   -0.5230    1.8607 C   0  0  0  0  0  0  0  0  0  0  0  0
    2.9539    2.2618    0.7357 C   0  0  0  0  0  0  0  0  0  0  0  0
    1.1752   -2.9322   -2.2911 H   0  0  0  0  0  0  0  0  0  0  0  0
    2.6556   -2.9285   -1.2547 H   0  0  0  0  0  0  0  0  0  0  0  0
    1.0880   -3.6285   -0.6661 H   0  0  0  0  0  0  0  0  0  0  0  0
    4.2012    0.7662   -1.9815 H   0  0  0  0  0  0  0  0  0  0  0  0
    5.4723    0.6665   -0.7210 H   0  0  0  0  0  0  0  0  0  0  0  0
    4.6585   -0.8258   -1.2997 H   0  0  0  0  0  0  0  0  0  0  0  0
    3.8084   -1.5994    1.6370 H   0  0  0  0  0  0  0  0  0  0  0  0
    4.6036   -0.1274    2.3009 H   0  0  0  0  0  0  0  0  0  0  0  0
    2.8540   -0.4325    2.6112 H   0  0  0  0  0  0  0  0  0  0  0  0
    2.0846    2.3722    1.4151 H   0  0  0  0  0  0  0  0  0  0  0  0
    3.8550    2.6498    1.2541 H   0  0  0  0  0  0  0  0  0  0  0  0
    2.7848    2.8963   -0.1574 H   0  0  0  0  0  0  0  0  0  0  0  0
  1  7  1  0  0  0  0
  1  6  1  0  0  0  0
  2  3  1  0  0  0  0
  2 10  1  0  0  0  0
  3  4  2  0  0  0  0
  4  1  1  0  0  0  0
  5 12  1  0  0  0  0
  5  1  1  0  0  0  0
  6 15  1  0  0  0  0
  6 16  1  0  0  0  0
  7 18  1  0  0  0  0
  7 17  1  0  0  0  0
  8  2  1  0  0  0  0
  9  2  1  0  0  0  0
 11  5  1  0  0  0  0
 13  5  1  0  0  0  0
 14  6  1  0  0  0  0
 19  7  1  0  0  0  0
M  END
