6
 OpenBabel05122313113D

 30 31  0  0  0  0  0  0  0  0999 V2000
   -0.7753    1.6254   -0.0004 N   0  0  0  0  0  0  0  0  0  0  0  0
    1.3857    1.8453    0.0278 N   0  0  0  0  0  0  0  0  0  0  0  0
   -1.7757   -0.1333   -2.0452 N   0  0  0  0  0  0  0  0  0  0  0  0
   -0.7669   -0.1759   -1.8618 H   0  0  0  0  0  0  0  0  0  0  0  0
   -2.0973   -0.9484   -2.5704 H   0  0  0  0  0  0  0  0  0  0  0  0
    0.3932    0.9058    0.0824 C   0  0  0  0  0  2  0  0  0  0  0  0
    0.8561    3.1230   -0.0908 C   0  0  0  0  0  0  0  0  0  0  0  0
    1.4800    4.0183   -0.1532 H   0  0  0  0  0  0  0  0  0  0  0  0
   -0.5071    2.9867   -0.1065 C   0  0  0  0  0  0  0  0  0  0  0  0
   -1.3090    3.7256   -0.1876 H   0  0  0  0  0  0  0  0  0  0  0  0
    2.8234    1.5022    0.0049 C   0  0  0  0  0  0  0  0  0  0  0  0
    2.8612    0.4905    0.4606 H   0  0  0  0  0  0  0  0  0  0  0  0
    3.6373    2.4697    0.8616 C   0  0  0  0  0  0  0  0  0  0  0  0
    3.6773    3.4871    0.4204 H   0  0  0  0  0  0  0  0  0  0  0  0
    4.6802    2.1055    0.9358 H   0  0  0  0  0  0  0  0  0  0  0  0
    3.2252    2.5447    1.8870 H   0  0  0  0  0  0  0  0  0  0  0  0
    3.3157    1.4030   -1.4405 C   0  0  0  0  0  0  0  0  0  0  0  0
    2.7180    0.6557   -1.9987 H   0  0  0  0  0  0  0  0  0  0  0  0
    4.3756    1.0820   -1.4614 H   0  0  0  0  0  0  0  0  0  0  0  0
    3.2396    2.3806   -1.9597 H   0  0  0  0  0  0  0  0  0  0  0  0
   -2.1030    1.0803    0.0613 C   0  0  0  0  0  0  0  0  0  0  0  0
   -2.9376    1.4698    1.1202 C   0  0  0  0  0  0  0  0  0  0  0  0
   -2.5230    2.1293    1.8973 H   0  0  0  0  0  0  0  0  0  0  0  0
   -4.2605    1.0193    1.1918 C   0  0  0  0  0  0  0  0  0  0  0  0
   -4.9065    1.3232    2.0273 H   0  0  0  0  0  0  0  0  0  0  0  0
   -4.7368    0.1615    0.1850 C   0  0  0  0  0  0  0  0  0  0  0  0
   -5.7708   -0.2132    0.2242 H   0  0  0  0  0  0  0  0  0  0  0  0
   -3.9082   -0.2363   -0.8665 C   0  0  0  0  0  0  0  0  0  0  0  0
   -4.2924   -0.9139   -1.6446 H   0  0  0  0  0  0  0  0  0  0  0  0
   -2.5668    0.2118   -0.9669 C   0  0  0  0  0  0  0  0  0  0  0  0
  1 21  1  0  0  0  0
  1  6  1  0  0  0  0
  2  6  1  0  0  0  0
  3  4  1  0  0  0  0
  3 30  1  0  0  0  0
  5  3  1  0  0  0  0
  7  2  1  0  0  0  0
  8  7  1  0  0  0  0
  9  7  2  0  0  0  0
  9  1  1  0  0  0  0
 10  9  1  0  0  0  0
 11  2  1  0  0  0  0
 11 12  1  0  0  0  0
 11 13  1  0  0  0  0
 13 15  1  0  0  0  0
 13 16  1  0  0  0  0
 14 13  1  0  0  0  0
 17 11  1  0  0  0  0
 18 17  1  0  0  0  0
 19 17  1  0  0  0  0
 20 17  1  0  0  0  0
 21 22  1  0  0  0  0
 22 24  2  0  0  0  0
 22 23  1  0  0  0  0
 24 25  1  0  0  0  0
 26 27  1  0  0  0  0
 26 24  1  0  0  0  0
 28 26  2  0  0  0  0
 29 28  1  0  0  0  0
 30 28  1  0  0  0  0
 30 21  2  0  0  0  0
M  END
