2
 OpenBabel05122313113D

 23 23  0  0  0  0  0  0  0  0999 V2000
    2.7727   -0.5964    1.2200 C   0  0  0  0  0  3  0  0  0  0  0  0
    2.1439    0.6772    1.4768 C   0  0  0  0  0  3  0  0  0  0  0  0
    1.6442    1.1413    0.2157 C   0  0  0  0  0  3  0  0  0  0  0  0
    1.9988    0.1385   -0.7547 C   0  0  0  0  0  3  0  0  0  0  0  0
    3.2137   -0.6330   -0.2429 C   0  0  0  0  0  0  0  0  0  0  0  0
    4.5796    0.0125   -0.5558 C   0  0  0  0  0  0  0  0  0  0  0  0
    5.7661   -0.7611    0.0269 C   0  0  0  0  0  0  0  0  0  0  0  0
    7.1443   -0.1755   -0.3130 C   0  0  0  0  0  0  0  0  0  0  0  0
    7.4061    1.2123    0.2773 C   0  0  0  0  0  0  0  0  0  0  0  0
    3.2271   -1.2063    2.0135 H   0  0  0  0  0  0  0  0  0  0  0  0
    2.0512    1.1892    2.4438 H   0  0  0  0  0  0  0  0  0  0  0  0
    1.0985    2.0763    0.0318 H   0  0  0  0  0  0  0  0  0  0  0  0
    1.7377    0.2263   -1.8190 H   0  0  0  0  0  0  0  0  0  0  0  0
    3.2202   -1.6745   -0.6286 H   0  0  0  0  0  0  0  0  0  0  0  0
    4.5684    1.0567   -0.1751 H   0  0  0  0  0  0  0  0  0  0  0  0
    4.6923    0.0851   -1.6615 H   0  0  0  0  0  0  0  0  0  0  0  0
    5.6585   -0.8185    1.1338 H   0  0  0  0  0  0  0  0  0  0  0  0
    5.7190   -1.8125   -0.3340 H   0  0  0  0  0  0  0  0  0  0  0  0
    7.2590   -0.1361   -1.4197 H   0  0  0  0  0  0  0  0  0  0  0  0
    7.9287   -0.8771    0.0449 H   0  0  0  0  0  0  0  0  0  0  0  0
    7.3003    1.2036    1.3829 H   0  0  0  0  0  0  0  0  0  0  0  0
    6.6981    1.9707   -0.1148 H   0  0  0  0  0  0  0  0  0  0  0  0
    8.4303    1.5668    0.0430 H   0  0  0  0  0  0  0  0  0  0  0  0
  1  2  1  0  0  0  0
  1 10  1  0  0  0  0
  2 11  1  0  0  0  0
  3  2  1  0  0  0  0
  4  5  1  0  0  0  0
  4  3  1  0  0  0  0
  5  1  1  0  0  0  0
  6  5  1  0  0  0  0
  6 15  1  0  0  0  0
  6  7  1  0  0  0  0
  7 17  1  0  0  0  0
  8  7  1  0  0  0  0
  8 20  1  0  0  0  0
  8  9  1  0  0  0  0
  9 21  1  0  0  0  0
 12  3  1  0  0  0  0
 13  4  1  0  0  0  0
 14  5  1  0  0  0  0
 16  6  1  0  0  0  0
 18  7  1  0  0  0  0
 19  8  1  0  0  0  0
 22  9  1  0  0  0  0
 23  9  1  0  0  0  0
M  END
