34
 OpenBabel05122313113D

 45 46  0  0  0  0  0  0  0  0999 V2000
    0.0192   -1.7063   -0.1165 P   0  0  0  0  0  0  0  0  0  0  0  0
    0.3059   -2.6202   -1.7391 C   0  0  0  0  0  0  0  0  0  0  0  0
    1.2670   -3.1608   -1.5978 H   0  0  0  0  0  0  0  0  0  0  0  0
   -0.8008   -3.6444   -2.0213 C   0  0  0  0  0  0  0  0  0  0  0  0
   -1.7977   -3.1606   -2.0298 H   0  0  0  0  0  0  0  0  0  0  0  0
   -0.8284   -4.4497   -1.2622 H   0  0  0  0  0  0  0  0  0  0  0  0
   -0.6260   -4.1233   -3.0077 H   0  0  0  0  0  0  0  0  0  0  0  0
    0.4683   -1.6318   -2.8970 C   0  0  0  0  0  0  0  0  0  0  0  0
    0.7517   -2.1753   -3.8221 H   0  0  0  0  0  0  0  0  0  0  0  0
    1.2457   -0.8684   -2.6942 H   0  0  0  0  0  0  0  0  0  0  0  0
   -0.4819   -1.1018   -3.0994 H   0  0  0  0  0  0  0  0  0  0  0  0
    0.2682   -2.9985    1.2347 C   0  0  0  0  0  0  0  0  0  0  0  0
    0.5269   -2.3395    2.0937 H   0  0  0  0  0  0  0  0  0  0  0  0
   -1.0278   -3.7514    1.5705 C   0  0  0  0  0  0  0  0  0  0  0  0
   -1.2558   -4.5193    0.8050 H   0  0  0  0  0  0  0  0  0  0  0  0
   -1.9071   -3.0802    1.6132 H   0  0  0  0  0  0  0  0  0  0  0  0
   -0.9224   -4.2765    2.5430 H   0  0  0  0  0  0  0  0  0  0  0  0
    1.4463   -3.9513    1.0044 C   0  0  0  0  0  0  0  0  0  0  0  0
    1.5976   -4.5842    1.9044 H   0  0  0  0  0  0  0  0  0  0  0  0
    2.3929   -3.4125    0.8067 H   0  0  0  0  0  0  0  0  0  0  0  0
    1.2532   -4.6393    0.1559 H   0  0  0  0  0  0  0  0  0  0  0  0
    1.3244   -0.4463    0.0499 C   0  0  0  0  0  0  0  0  0  0  0  0
    2.7869   -0.6578    0.1958 C   0  0  0  0  0  0  0  0  0  0  0  0
    3.5255   -1.4926   -0.6759 C   0  0  0  0  0  0  0  0  0  0  0  0
    3.0145   -1.9934   -1.5104 H   0  0  0  0  0  0  0  0  0  0  0  0
    4.9058   -1.6738   -0.5071 C   0  0  0  0  0  0  0  0  0  0  0  0
    5.4590   -2.3215   -1.2045 H   0  0  0  0  0  0  0  0  0  0  0  0
    5.5816   -1.0302    0.5416 C   0  0  0  0  0  0  0  0  0  0  0  0
    6.6642   -1.1754    0.6758 H   0  0  0  0  0  0  0  0  0  0  0  0
    4.8638   -0.1991    1.4171 C   0  0  0  0  0  0  0  0  0  0  0  0
    5.3826    0.3103    2.2436 H   0  0  0  0  0  0  0  0  0  0  0  0
    3.4860   -0.0147    1.2449 C   0  0  0  0  0  0  0  0  0  0  0  0
    2.9275    0.6388    1.9312 H   0  0  0  0  0  0  0  0  0  0  0  0
    0.6520    0.7547    0.0720 C   0  0  0  0  0  3  0  0  0  0  0  0
    1.3891    2.0336   -0.0394 C   0  0  0  0  0  0  0  0  0  0  0  0
    2.2424    2.2300   -1.1569 C   0  0  0  0  0  0  0  0  0  0  0  0
    2.3748    1.4021   -1.8701 H   0  0  0  0  0  0  0  0  0  0  0  0
    2.9107    3.4430   -1.3645 C   0  0  0  0  0  0  0  0  0  0  0  0
    3.5601    3.5614   -2.2456 H   0  0  0  0  0  0  0  0  0  0  0  0
    2.7626    4.4995   -0.4515 C   0  0  0  0  0  0  0  0  0  0  0  0
    3.2905    5.4519   -0.6097 H   0  0  0  0  0  0  0  0  0  0  0  0
    1.9320    4.3240    0.6666 C   0  0  0  0  0  0  0  0  0  0  0  0
    1.8109    5.1399    1.3960 H   0  0  0  0  0  0  0  0  0  0  0  0
    1.2470    3.1163    0.8635 C   0  0  0  0  0  0  0  0  0  0  0  0
    0.6011    3.0106    1.7444 H   0  0  0  0  0  0  0  0  0  0  0  0
  1 22  1  0  0  0  0
  1 12  1  0  0  0  0
  2  3  1  0  0  0  0
  2  1  1  0  0  0  0
  4  2  1  0  0  0  0
  4  6  1  0  0  0  0
  5  4  1  0  0  0  0
  7  4  1  0  0  0  0
  8 10  1  0  0  0  0
  8  2  1  0  0  0  0
  9  8  1  0  0  0  0
 11  8  1  0  0  0  0
 12 14  1  0  0  0  0
 12 13  1  0  0  0  0
 14 16  1  0  0  0  0
 14 17  1  0  0  0  0
 15 14  1  0  0  0  0
 18 12  1  0  0  0  0
 18 19  1  0  0  0  0
 20 18  1  0  0  0  0
 21 18  1  0  0  0  0
 22 34  2  0  0  0  0
 22 23  1  0  0  0  0
 23 32  1  0  0  0  0
 24 26  1  0  0  0  0
 24 23  2  0  0  0  0
 25 24  1  0  0  0  0
 26 28  2  0  0  0  0
 27 26  1  0  0  0  0
 28 29  1  0  0  0  0
 28 30  1  0  0  0  0
 30 31  1  0  0  0  0
 32 30  2  0  0  0  0
 32 33  1  0  0  0  0
 35 34  1  0  0  0  0
 35 44  1  0  0  0  0
 36 35  2  0  0  0  0
 37 36  1  0  0  0  0
 38 36  1  0  0  0  0
 38 40  2  0  0  0  0
 39 38  1  0  0  0  0
 40 42  1  0  0  0  0
 41 40  1  0  0  0  0
 42 44  2  0  0  0  0
 42 43  1  0  0  0  0
 44 45  1  0  0  0  0
M  END
