13
 OpenBabel05122313113D

 31 32  0  0  0  0  0  0  0  0999 V2000
   -0.0867   -0.9664   -0.0693 O   0  0  0  0  0  0  0  0  0  0  0  0
   -0.5127    2.5735    0.4580 C   0  0  0  0  0  3  0  0  0  0  0  0
   -0.0120    1.3142    0.4613 C   0  0  0  0  0  0  0  0  0  0  0  0
    1.4465    1.1147    0.8082 C   0  0  0  0  0  0  0  0  0  0  0  0
    1.9617    0.7918   -1.6084 C   0  0  0  0  0  0  0  0  0  0  0  0
    2.5551    2.1720   -1.8317 C   0  0  0  0  0  0  0  0  0  0  0  0
    3.5913    0.0735    0.0995 C   0  0  0  0  0  0  0  0  0  0  0  0
    4.3374   -0.8034   -0.7101 C   0  0  0  0  0  0  0  0  0  0  0  0
    5.7039   -0.9862   -0.4667 C   0  0  0  0  0  0  0  0  0  0  0  0
    6.3397   -0.3056    0.5833 C   0  0  0  0  0  0  0  0  0  0  0  0
    5.5911    0.5555    1.3944 C   0  0  0  0  0  0  0  0  0  0  0  0
    4.2198    0.7478    1.1579 C   0  0  0  0  0  0  0  0  0  0  0  0
   -0.8255    0.0986    0.1522 C   0  0  0  0  0  3  0  0  0  0  0  0
    2.1493    0.2535   -0.2024 N   0  0  0  0  0  4  0  0  0  0  0  0
    1.6953   -1.9876   -1.1496 F   0  0  0  0  0  0  0  0  0  0  0  0
    1.7631   -1.7416    1.1584 F   0  0  0  0  0  0  0  0  0  0  0  0
    1.3696   -1.2252   -0.0518 B   0  0  0  0  0  0  0  0  0  0  0  0
   -1.5700    2.7778    0.2509 H   0  0  0  0  0  0  0  0  0  0  0  0
    0.1369    3.4382    0.6683 H   0  0  0  0  0  0  0  0  0  0  0  0
    3.8436   -1.3675   -1.5105 H   0  0  0  0  0  0  0  0  0  0  0  0
    6.2732   -1.6792   -1.1037 H   0  0  0  0  0  0  0  0  0  0  0  0
    7.4132   -0.4531    0.7722 H   0  0  0  0  0  0  0  0  0  0  0  0
    6.0704    1.0896    2.2281 H   0  0  0  0  0  0  0  0  0  0  0  0
    3.6656    1.4248    1.8180 H   0  0  0  0  0  0  0  0  0  0  0  0
    1.9548    2.0932    0.8871 H   0  0  0  0  0  0  0  0  0  0  0  0
    1.5474    0.5874    1.7779 H   0  0  0  0  0  0  0  0  0  0  0  0
    0.8730    0.7865   -1.8060 H   0  0  0  0  0  0  0  0  0  0  0  0
    2.4065    0.0410   -2.2836 H   0  0  0  0  0  0  0  0  0  0  0  0
    2.4477    2.4379   -2.9012 H   0  0  0  0  0  0  0  0  0  0  0  0
    3.6344    2.2010   -1.5828 H   0  0  0  0  0  0  0  0  0  0  0  0
    2.0331    2.9558   -1.2484 H   0  0  0  0  0  0  0  0  0  0  0  0
  1 17  1  0  0  0  0
  1 13  1  0  0  0  0
  2  3  1  0  0  0  0
  2 19  1  0  0  0  0
  3  4  1  0  0  0  0
  4 25  1  0  0  0  0
  4 26  1  0  0  0  0
  5 14  1  0  0  0  0
  6  5  1  0  0  0  0
  6 30  1  0  0  0  0
  6 31  1  0  0  0  0
  7 12  1  0  0  0  0
  8  9  1  0  0  0  0
  8  7  2  0  0  0  0
  9 10  2  0  0  0  0
 10 22  1  0  0  0  0
 10 11  1  0  0  0  0
 11 23  1  0  0  0  0
 12 11  2  0  0  0  0
 12 24  1  0  0  0  0
 13  3  2  0  0  0  0
 14 17  1  0  0  0  0
 14  7  1  0  0  0  0
 14  4  1  0  0  0  0
 15 17  1  0  0  0  0
 17 16  1  0  0  0  0
 18  2  1  0  0  0  0
 20  8  1  0  0  0  0
 21  9  1  0  0  0  0
 27  5  1  0  0  0  0
 28  5  1  0  0  0  0
 29  6  1  0  0  0  0
M  END
