9
 OpenBabel05122313113D

 27 27  0  0  0  0  0  0  0  0999 V2000
   -0.6028   -0.9720   -0.0282 O   0  0  0  0  0  0  0  0  0  0  0  0
   -0.1431    2.4776    0.9321 C   0  0  0  0  0  3  0  0  0  0  0  0
   -0.6376    1.2219    0.8105 C   0  0  0  0  0  0  0  0  0  0  0  0
   -2.0572    0.9496    1.2513 C   0  0  0  0  0  0  0  0  0  0  0  0
   -2.7934    0.8893   -1.1341 C   0  0  0  0  0  0  0  0  0  0  0  0
   -3.4136    2.2774   -1.1747 C   0  0  0  0  0  0  0  0  0  0  0  0
   -4.2420    0.0098    0.7191 C   0  0  0  0  0  0  0  0  0  0  0  0
   -5.1840   -0.7117   -0.2319 C   0  0  0  0  0  0  0  0  0  0  0  0
    0.1458    0.0708    0.2601 C   0  0  0  0  0  3  0  0  0  0  0  0
   -2.8357    0.2012    0.2064 N   0  3  0  0  0  0  0  0  0  0  0  0
   -2.3096   -1.9282    1.2797 F   0  0  0  0  0  0  0  0  0  0  0  0
   -2.4894   -1.9011   -1.0303 F   0  0  0  0  0  0  0  0  0  0  0  0
   -2.0527   -1.2529    0.1020 B   0  0  0  0  0  0  0  0  0  0  0  0
    0.8892    2.7252    0.6576 H   0  0  0  0  0  0  0  0  0  0  0  0
   -0.7730    3.2949    1.3184 H   0  0  0  0  0  0  0  0  0  0  0  0
   -1.7282    0.9354   -1.4298 H   0  0  0  0  0  0  0  0  0  0  0  0
   -3.2803    0.1988   -1.8452 H   0  0  0  0  0  0  0  0  0  0  0  0
   -3.3181    2.6749   -2.2039 H   0  0  0  0  0  0  0  0  0  0  0  0
   -2.8968    2.9920   -0.5042 H   0  0  0  0  0  0  0  0  0  0  0  0
   -4.4927    2.2750   -0.9239 H   0  0  0  0  0  0  0  0  0  0  0  0
   -4.1319   -0.5643    1.6577 H   0  0  0  0  0  0  0  0  0  0  0  0
   -4.6344    1.0137    0.9844 H   0  0  0  0  0  0  0  0  0  0  0  0
   -6.1506   -0.8673    0.2860 H   0  0  0  0  0  0  0  0  0  0  0  0
   -4.7866   -1.6990   -0.5298 H   0  0  0  0  0  0  0  0  0  0  0  0
   -5.3937   -0.1274   -1.1493 H   0  0  0  0  0  0  0  0  0  0  0  0
   -2.0660    0.3020    2.1518 H   0  0  0  0  0  0  0  0  0  0  0  0
   -2.5852    1.8902    1.5038 H   0  0  0  0  0  0  0  0  0  0  0  0
  1 13  1  0  0  0  0
  1  9  1  0  0  0  0
  2 15  1  0  0  0  0
  3  2  1  0  0  0  0
  3  4  1  0  0  0  0
  4 27  1  0  0  0  0
  4 26  1  0  0  0  0
  5 10  1  0  0  0  0
  6  5  1  0  0  0  0
  6 20  1  0  0  0  0
  6 19  1  0  0  0  0
  7 22  1  0  0  0  0
  7 21  1  0  0  0  0
  8 23  1  0  0  0  0
  8  7  1  0  0  0  0
  9  3  2  0  0  0  0
 10  7  1  0  0  0  0
 10  4  1  0  0  0  0
 12 13  1  0  0  0  0
 13 10  1  0  0  0  0
 13 11  1  0  0  0  0
 14  2  1  0  0  0  0
 16  5  1  0  0  0  0
 17  5  1  0  0  0  0
 18  6  1  0  0  0  0
 24  8  1  0  0  0  0
 25  8  1  0  0  0  0
M  CHG  1  10   1
M  END
