22
 OpenBabel05122313113D

 37 40  0  0  1  0  0  0  0  0999 V2000
    1.5658   -0.9306   -0.8426 C   0  0  1  0  0  0  0  0  0  0  0  0
    0.0995   -1.5154   -1.2720 C   0  0  2  0  0  0  0  0  0  0  0  0
   -0.4354   -0.9315   -2.0331 H   0  0  0  0  0  0  0  0  0  0  0  0
   -0.6506   -2.3194    0.0243 B   0  0  0  0  0  0  0  0  0  0  0  0
   -1.8555   -2.4400    0.0410 H   0  0  0  0  0  0  0  0  0  0  0  0
    0.5609   -2.2924    1.3692 B   0  0  0  0  0  2  0  0  0  0  0  0
    0.2884   -2.4282    2.5422 H   0  0  0  0  0  0  0  0  0  0  0  0
    2.0031   -1.3958    0.7949 B   0  0  2  0  0  0  0  0  0  0  0  0
    2.7703   -0.6537    1.3675 H   0  0  0  0  0  0  0  0  0  0  0  0
    2.7065   -2.1580   -0.6329 B   0  0  1  0  0  0  0  0  0  0  0  0
    3.8629   -1.9615   -0.9260 H   0  0  0  0  0  0  0  0  0  0  0  0
    1.4973   -2.2048   -1.9656 B   0  0  0  0  0  0  0  0  0  0  0  0
    1.7326   -2.0158   -3.1332 H   0  0  0  0  0  0  0  0  0  0  0  0
    0.1029   -3.1831   -1.3741 B   0  0  2  0  0  0  0  0  0  0  0  0
   -0.5911   -3.7011   -2.2157 H   0  0  0  0  0  0  0  0  0  0  0  0
    0.4381   -3.7251    0.2730 B   0  0  1  0  0  0  0  0  0  0  0  0
    0.0107   -4.7934    0.6471 H   0  0  0  0  0  0  0  0  0  0  0  0
    2.0421   -3.1353    0.7436 B   0  0  0  0  0  0  0  0  0  0  0  0
    2.7957   -3.7366    1.4751 H   0  0  0  0  0  0  0  0  0  0  0  0
    1.7678   -3.6465   -0.9473 B   0  0  2  0  0  0  0  0  0  0  0  0
    2.2843   -4.6259   -1.4325 H   0  0  0  0  0  0  0  0  0  0  0  0
    1.4545    0.5301   -0.7172 C   0  0  0  0  0  2  0  0  0  0  0  0
    2.3215    1.4377   -1.1046 N   0  0  0  0  0  0  0  0  0  0  0  0
    3.1436    1.1156   -1.6311 H   0  0  0  0  0  0  0  0  0  0  0  0
    2.3309    2.8766   -0.7023 C   0  0  0  0  0  0  0  0  0  0  0  0
    3.3045    3.5818   -1.6558 C   0  0  0  0  0  0  0  0  0  0  0  0
    4.3254    3.1522   -1.5782 H   0  0  0  0  0  0  0  0  0  0  0  0
    3.3754    4.6555   -1.3979 H   0  0  0  0  0  0  0  0  0  0  0  0
    2.9644    3.5030   -2.7082 H   0  0  0  0  0  0  0  0  0  0  0  0
    0.9184    3.4586   -0.8426 C   0  0  0  0  0  0  0  0  0  0  0  0
    0.2004    2.9314   -0.1859 H   0  0  0  0  0  0  0  0  0  0  0  0
    0.5575    3.3767   -1.8871 H   0  0  0  0  0  0  0  0  0  0  0  0
    0.9326    4.5283   -0.5580 H   0  0  0  0  0  0  0  0  0  0  0  0
    2.8238    2.9711    0.7525 C   0  0  0  0  0  0  0  0  0  0  0  0
    3.8268    2.5127    0.8634 H   0  0  0  0  0  0  0  0  0  0  0  0
    2.1266    2.4563    1.4408 H   0  0  0  0  0  0  0  0  0  0  0  0
    2.8915    4.0333    1.0598 H   0  0  0  0  0  0  0  0  0  0  0  0
  1 22  1  6  0  0  0
  1 10  1  0  0  0  0
  2  3  1  6  0  0  0
  2  1  1  0  0  0  0
  2  4  1  0  0  0  0
  4  5  1  0  0  0  0
  4 16  1  0  0  0  0
  6  7  1  0  0  0  0
  8  9  1  1  0  0  0
  8  6  1  0  0  0  0
 10 11  1  6  0  0  0
 10  8  1  0  0  0  0
 12 20  1  0  0  0  0
 12  1  1  0  0  0  0
 13 12  1  0  0  0  0
 14 15  1  6  0  0  0
 14  2  1  0  0  0  0
 14 20  1  0  0  0  0
 14 16  1  0  0  0  0
 16 17  1  1  0  0  0
 16 18  1  0  0  0  0
 18  8  1  0  0  0  0
 18 19  1  0  0  0  0
 20 21  1  6  0  0  0
 20 10  1  0  0  0  0
 23 22  1  0  0  0  0
 23 25  1  0  0  0  0
 24 23  1  0  0  0  0
 25 34  1  0  0  0  0
 26 27  1  0  0  0  0
 26 28  1  0  0  0  0
 26 25  1  0  0  0  0
 29 26  1  0  0  0  0
 30 25  1  0  0  0  0
 30 33  1  0  0  0  0
 30 31  1  0  0  0  0
 32 30  1  0  0  0  0
 34 35  1  0  0  0  0
 34 37  1  0  0  0  0
 34 36  1  0  0  0  0
M  END
