24
 OpenBabel05122313113D

 66 69  0  0  0  0  0  0  0  0999 V2000
    0.0705   -2.2174   -1.7124 N   0  0  0  0  0  0  0  0  0  0  0  0
   -0.9263   -1.8647    1.7493 N   0  0  0  0  0  0  0  0  0  0  0  0
    0.4850    3.0833   -0.0283 Si  0  0  0  0  0  0  0  0  0  0  0  0
   -0.8556    2.0517   -0.8706 C   0  0  0  0  0  0  0  0  0  0  0  0
   -2.0302    1.4495   -0.2708 C   0  0  0  0  0  0  0  0  0  0  0  0
   -2.8303    1.8197    0.8486 C   0  0  0  0  0  0  0  0  0  0  0  0
   -2.5475    2.6883    1.4609 H   0  0  0  0  0  0  0  0  0  0  0  0
   -4.0014    1.1198    1.1221 C   0  0  0  0  0  0  0  0  0  0  0  0
   -4.6364    1.4283    1.9665 H   0  0  0  0  0  0  0  0  0  0  0  0
   -4.3986    0.0073    0.3217 C   0  0  0  0  0  0  0  0  0  0  0  0
   -5.3340   -0.5216    0.5612 H   0  0  0  0  0  0  0  0  0  0  0  0
   -3.6314   -0.4047   -0.7642 C   0  0  0  0  0  3  0  0  0  0  0  0
   -3.9642   -1.2437   -1.3962 H   0  0  0  0  0  0  0  0  0  0  0  0
   -1.5291    0.2154   -2.1960 C   0  0  0  0  0  0  0  0  0  0  0  0
   -0.6173    1.2996   -2.0675 C   0  0  0  0  0  0  0  0  0  0  0  0
    0.2140    1.4748   -2.7643 H   0  0  0  0  0  0  0  0  0  0  0  0
   -1.4471   -0.8596   -3.2426 C   0  0  0  0  0  0  0  0  0  0  0  0
   -0.7343   -0.5285   -4.0232 H   0  0  0  0  0  0  0  0  0  0  0  0
   -2.4211   -0.9984   -3.7615 H   0  0  0  0  0  0  0  0  0  0  0  0
    0.5416   -3.5798   -1.4680 C   0  0  0  0  0  0  0  0  0  0  0  0
    1.0369   -4.0078   -2.3734 H   0  0  0  0  0  0  0  0  0  0  0  0
   -0.3012   -4.2499   -1.1956 H   0  0  0  0  0  0  0  0  0  0  0  0
    1.2822   -3.5852   -0.6429 H   0  0  0  0  0  0  0  0  0  0  0  0
    1.1677   -1.2494   -1.9546 C   0  0  0  0  0  3  0  0  0  0  0  0
    1.2352   -0.9093   -3.0070 H   0  0  0  0  0  0  0  0  0  0  0  0
    2.1347   -1.6978   -1.6553 H   0  0  0  0  0  0  0  0  0  0  0  0
   -0.2051    4.3186    1.2261 C   0  0  0  0  0  0  0  0  0  0  0  0
   -0.9650    4.9773    0.7584 H   0  0  0  0  0  0  0  0  0  0  0  0
    0.6145    4.9552    1.6179 H   0  0  0  0  0  0  0  0  0  0  0  0
   -0.6755    3.8131    2.0928 H   0  0  0  0  0  0  0  0  0  0  0  0
    1.5094    3.9916   -1.3304 C   0  0  0  0  0  0  0  0  0  0  0  0
    0.9167    4.8201   -1.7692 H   0  0  0  0  0  0  0  0  0  0  0  0
    1.8133    3.3211   -2.1584 H   0  0  0  0  0  0  0  0  0  0  0  0
    2.4283    4.4208   -0.8815 H   0  0  0  0  0  0  0  0  0  0  0  0
    1.4450    1.7229    0.8617 C   0  0  0  0  0  0  0  0  0  0  0  0
    2.4605    0.8324    0.3399 C   0  0  0  0  0  0  0  0  0  0  0  0
    3.3708    0.9383   -0.7524 C   0  0  0  0  0  0  0  0  0  0  0  0
    3.3728    1.8419   -1.3787 H   0  0  0  0  0  0  0  0  0  0  0  0
    4.2790   -0.0854   -0.9958 C   0  0  0  0  0  0  0  0  0  0  0  0
    4.9933    0.0078   -1.8278 H   0  0  0  0  0  0  0  0  0  0  0  0
    4.3040   -1.2592   -0.1862 C   0  0  0  0  0  0  0  0  0  0  0  0
    5.0413   -2.0473   -0.4037 H   0  0  0  0  0  0  0  0  0  0  0  0
    3.4168   -1.4165    0.8720 C   0  0  0  0  0  0  0  0  0  0  0  0
    3.4550   -2.3191    1.5033 H   0  0  0  0  0  0  0  0  0  0  0  0
    2.4855   -0.3766    1.1595 C   0  0  0  0  0  0  0  0  0  0  0  0
    1.4886   -0.2359    2.1815 C   0  0  0  0  0  0  0  0  0  0  0  0
    0.8919    1.0448    2.0019 C   0  0  0  0  0  3  0  0  0  0  0  0
    0.0967    1.4547    2.6425 H   0  0  0  0  0  0  0  0  0  0  0  0
    1.0883   -1.2999    3.1654 C   0  0  0  0  0  0  0  0  0  0  0  0
    0.5460   -0.8489    4.0208 H   0  0  0  0  0  0  0  0  0  0  0  0
    1.9813   -1.7958    3.6031 H   0  0  0  0  0  0  0  0  0  0  0  0
    0.2304   -2.3967    2.5116 C   0  0  0  0  0  0  0  0  0  0  0  0
    0.8539   -2.9758    1.7972 H   0  0  0  0  0  0  0  0  0  0  0  0
   -0.1318   -3.1216    3.2846 H   0  0  0  0  0  0  0  0  0  0  0  0
   -1.8278   -1.1005    2.6281 C   0  0  0  0  0  0  0  0  0  0  0  0
   -2.1567   -1.7194    3.4980 H   0  0  0  0  0  0  0  0  0  0  0  0
   -2.7195   -0.7874    2.0569 H   0  0  0  0  0  0  0  0  0  0  0  0
   -1.3342   -0.1894    3.0067 H   0  0  0  0  0  0  0  0  0  0  0  0
   -2.4470    0.3148   -1.0963 C   0  0  0  0  0  0  0  0  0  0  0  0
   -1.0153   -2.2416   -2.7132 C   0  0  0  0  0  0  0  0  0  0  0  0
   -1.8814   -2.7556   -2.2407 H   0  0  0  0  0  0  0  0  0  0  0  0
   -0.7104   -2.8738   -3.5871 H   0  0  0  0  0  0  0  0  0  0  0  0
   -1.6897   -2.9790    1.1655 C   0  0  0  0  0  0  0  0  0  0  0  0
   -2.5036   -2.5783    0.5307 H   0  0  0  0  0  0  0  0  0  0  0  0
   -2.1416   -3.6207    1.9604 H   0  0  0  0  0  0  0  0  0  0  0  0
   -1.0280   -3.6073    0.5463 H   0  0  0  0  0  0  0  0  0  0  0  0
  1 20  1  0  0  0  0
  2 52  1  0  0  0  0
  2 55  1  0  0  0  0
  3 35  1  0  0  0  0
  3 27  1  0  0  0  0
  4  5  1  0  0  0  0
  4  3  1  0  0  0  0
  5  6  2  0  0  0  0
  6  8  1  0  0  0  0
  6  7  1  0  0  0  0
  8  9  1  0  0  0  0
 10 11  1  0  0  0  0
 10  8  2  0  0  0  0
 12 10  1  0  0  0  0
 13 12  1  0  0  0  0
 14 15  1  0  0  0  0
 14 59  2  0  0  0  0
 15  4  2  0  0  0  0
 16 15  1  0  0  0  0
 17 60  1  0  0  0  0
 17 14  1  0  0  0  0
 18 17  1  0  0  0  0
 19 17  1  0  0  0  0
 20 22  1  0  0  0  0
 20 23  1  0  0  0  0
 21 20  1  0  0  0  0
 24  1  1  0  0  0  0
 24 26  1  0  0  0  0
 25 24  1  0  0  0  0
 27 29  1  0  0  0  0
 27 30  1  0  0  0  0
 28 27  1  0  0  0  0
 31 34  1  0  0  0  0
 31  3  1  0  0  0  0
 32 31  1  0  0  0  0
 33 31  1  0  0  0  0
 35 47  1  0  0  0  0
 36 35  2  0  0  0  0
 36 45  1  0  0  0  0
 37 36  1  0  0  0  0
 38 37  1  0  0  0  0
 39 37  2  0  0  0  0
 39 41  1  0  0  0  0
 40 39  1  0  0  0  0
 41 43  2  0  0  0  0
 42 41  1  0  0  0  0
 43 45  1  0  0  0  0
 43 44  1  0  0  0  0
 45 46  2  0  0  0  0
 46 49  1  0  0  0  0
 47 46  1  0  0  0  0
 47 48  1  0  0  0  0
 49 51  1  0  0  0  0
 49 50  1  0  0  0  0
 52 49  1  0  0  0  0
 52 54  1  0  0  0  0
 53 52  1  0  0  0  0
 55 58  1  0  0  0  0
 55 56  1  0  0  0  0
 57 55  1  0  0  0  0
 59 12  1  0  0  0  0
 59  5  1  0  0  0  0
 60 61  1  0  0  0  0
 60  1  1  0  0  0  0
 62 60  1  0  0  0  0
 63  2  1  0  0  0  0
 63 65  1  0  0  0  0
 64 63  1  0  0  0  0
 66 63  1  0  0  0  0
M  END
