5
 OpenBabel05122313113D

 56 56  0  0  1  0  0  0  0  0999 V2000
   -0.7853    2.0871   -1.3491 Si  0  0  0  0  0  0  0  0  0  0  0  0
   -2.0821    2.2160    1.7575 Si  0  0  0  0  0  0  0  0  0  0  0  0
    2.9535   -1.0590    1.4633 Si  0  0  0  0  0  0  0  0  0  0  0  0
    3.6634    0.9637   -0.9230 Si  0  0  0  0  0  0  0  0  0  0  0  0
    0.2506    0.8145    0.7868 C   0  0  0  0  0  3  0  0  0  0  0  0
    1.0269    0.3116   -0.3372 C   0  0  1  0  0  3  0  0  0  0  0  0
    0.3338    0.6012   -1.5860 C   0  0  0  0  0  3  0  0  0  0  0  0
   -0.9678    1.5092    0.4348 C   0  0  2  0  0  3  0  0  0  0  0  0
   -3.7938    2.6233    1.0535 C   0  0  0  0  0  0  0  0  0  0  0  0
   -2.2470    1.0378    3.2358 C   0  0  0  0  0  0  0  0  0  0  0  0
   -1.2927    3.8339    2.3709 C   0  0  0  0  0  0  0  0  0  0  0  0
   -2.3878    2.1314   -2.3558 C   0  0  0  0  0  0  0  0  0  0  0  0
    0.0400    3.7901   -1.5922 C   0  0  0  0  0  0  0  0  0  0  0  0
    2.3947   -0.3179   -0.2261 C   0  0  0  0  0  0  0  0  0  0  0  0
    3.9030    0.1758    2.5510 C   0  0  0  0  0  0  0  0  0  0  0  0
    1.5170   -1.6773    2.5466 C   0  0  0  0  0  0  0  0  0  0  0  0
    4.0867   -2.5292    1.0687 C   0  0  0  0  0  0  0  0  0  0  0  0
    3.5545    2.5867    0.0481 C   0  0  0  0  0  0  0  0  0  0  0  0
    3.2941    1.3450   -2.7438 C   0  0  0  0  0  0  0  0  0  0  0  0
    5.4304    0.2699   -0.8723 C   0  0  0  0  0  0  0  0  0  0  0  0
    0.5829    0.6522    1.8241 H   0  0  0  0  0  0  0  0  0  0  0  0
    0.7177    0.1425   -2.5110 H   0  0  0  0  0  0  0  0  0  0  0  0
   -4.3002    1.7173    0.6669 H   0  0  0  0  0  0  0  0  0  0  0  0
   -4.4444    3.0762    1.8298 H   0  0  0  0  0  0  0  0  0  0  0  0
   -3.7124    3.3466    0.2164 H   0  0  0  0  0  0  0  0  0  0  0  0
   -2.7769    0.1095    2.9445 H   0  0  0  0  0  0  0  0  0  0  0  0
   -1.2506    0.7415    3.6236 H   0  0  0  0  0  0  0  0  0  0  0  0
   -2.8092    1.5097    4.0676 H   0  0  0  0  0  0  0  0  0  0  0  0
   -1.9131    4.3224    3.1512 H   0  0  0  0  0  0  0  0  0  0  0  0
   -1.1653    4.5518    1.5346 H   0  0  0  0  0  0  0  0  0  0  0  0
   -0.2882    3.6423    2.8019 H   0  0  0  0  0  0  0  0  0  0  0  0
   -2.1975    1.8844   -3.4207 H   0  0  0  0  0  0  0  0  0  0  0  0
   -3.1252    1.4095   -1.9611 H   0  0  0  0  0  0  0  0  0  0  0  0
   -2.8361    3.1454   -2.3257 H   0  0  0  0  0  0  0  0  0  0  0  0
    0.2446    3.9851   -2.6666 H   0  0  0  0  0  0  0  0  0  0  0  0
    1.0002    3.8598   -1.0437 H   0  0  0  0  0  0  0  0  0  0  0  0
   -0.6227    4.6037   -1.2275 H   0  0  0  0  0  0  0  0  0  0  0  0
    2.4587   -1.1619   -0.9533 H   0  0  0  0  0  0  0  0  0  0  0  0
    4.1567   -0.3240    3.5093 H   0  0  0  0  0  0  0  0  0  0  0  0
    3.2745    1.0575    2.7917 H   0  0  0  0  0  0  0  0  0  0  0  0
    4.8470    0.5406    2.1015 H   0  0  0  0  0  0  0  0  0  0  0  0
    0.5802   -1.7611    1.9653 H   0  0  0  0  0  0  0  0  0  0  0  0
    1.3278   -0.9790    3.3872 H   0  0  0  0  0  0  0  0  0  0  0  0
    1.7617   -2.6672    2.9834 H   0  0  0  0  0  0  0  0  0  0  0  0
    4.9412   -2.2390    0.4263 H   0  0  0  0  0  0  0  0  0  0  0  0
    3.5253   -3.3311    0.5461 H   0  0  0  0  0  0  0  0  0  0  0  0
    4.4957   -2.9620    2.0052 H   0  0  0  0  0  0  0  0  0  0  0  0
    4.0035    3.4136   -0.5395 H   0  0  0  0  0  0  0  0  0  0  0  0
    2.4945    2.8478    0.2436 H   0  0  0  0  0  0  0  0  0  0  0  0
    4.0772    2.5364    1.0221 H   0  0  0  0  0  0  0  0  0  0  0  0
    2.3593    1.9270   -2.8599 H   0  0  0  0  0  0  0  0  0  0  0  0
    3.2041    0.4210   -3.3512 H   0  0  0  0  0  0  0  0  0  0  0  0
    4.1270    1.9465   -3.1649 H   0  0  0  0  0  0  0  0  0  0  0  0
    5.5082   -0.6628   -1.4684 H   0  0  0  0  0  0  0  0  0  0  0  0
    6.1266    1.0095   -1.3197 H   0  0  0  0  0  0  0  0  0  0  0  0
    5.7874    0.0510    0.1528 H   0  0  0  0  0  0  0  0  0  0  0  0
  1  8  1  0  0  0  0
  2 11  1  0  0  0  0
  2 10  1  0  0  0  0
  3 16  1  0  0  0  0
  3 15  1  0  0  0  0
  4 20  1  0  0  0  0
  4 14  1  0  0  0  0
  4 18  1  0  0  0  0
  5 21  1  0  0  0  0
  6 14  1  6  0  0  0
  6  5  1  0  0  0  0
  7  1  1  0  0  0  0
  7  6  1  0  0  0  0
  8  5  1  0  0  0  0
  8  2  1  1  0  0  0
  9  2  1  0  0  0  0
  9 24  1  0  0  0  0
 10 27  1  0  0  0  0
 10 28  1  0  0  0  0
 11 31  1  0  0  0  0
 11 29  1  0  0  0  0
 12 34  1  0  0  0  0
 12 33  1  0  0  0  0
 12  1  1  0  0  0  0
 13  1  1  0  0  0  0
 13 37  1  0  0  0  0
 13 36  1  0  0  0  0
 14  3  1  0  0  0  0
 15 40  1  0  0  0  0
 15 39  1  0  0  0  0
 16 44  1  0  0  0  0
 16 43  1  0  0  0  0
 17  3  1  0  0  0  0
 17 47  1  0  0  0  0
 18 49  1  0  0  0  0
 18 50  1  0  0  0  0
 19  4  1  0  0  0  0
 20 56  1  0  0  0  0
 22  7  1  0  0  0  0
 23  9  1  0  0  0  0
 25  9  1  0  0  0  0
 26 10  1  0  0  0  0
 30 11  1  0  0  0  0
 32 12  1  0  0  0  0
 35 13  1  0  0  0  0
 38 14  1  0  0  0  0
 41 15  1  0  0  0  0
 42 16  1  0  0  0  0
 45 17  1  0  0  0  0
 46 17  1  0  0  0  0
 48 18  1  0  0  0  0
 51 19  1  0  0  0  0
 52 19  1  0  0  0  0
 53 19  1  0  0  0  0
 54 20  1  0  0  0  0
 55 20  1  0  0  0  0
M  END
