49
 OpenBabel05122313113D

 49 51  0  0  1  0  0  0  0  0999 V2000
    1.5507   -0.0502   -0.1047 P   0  0  0  0  0  4  0  0  0  0  0  0
   -0.0793   -0.2699   -0.9202 C   0  0  0  0  0  0  0  0  0  0  0  0
   -0.0197    0.3510   -1.8347 H   0  0  0  0  0  0  0  0  0  0  0  0
   -0.1292   -1.3316   -1.2446 H   0  0  0  0  0  0  0  0  0  0  0  0
    1.7583   -1.3129    1.1750 C   0  0  0  0  0  0  0  0  0  0  0  0
    0.7622   -2.2778    1.4356 C   0  0  0  0  0  0  0  0  0  0  0  0
   -0.1878   -2.2840    0.8826 H   0  0  0  0  0  0  0  0  0  0  0  0
    2.8811   -0.2157   -1.3217 C   0  0  0  0  0  0  0  0  0  0  0  0
   -1.2068    0.1523    0.0142 C   0  0  0  0  0  3  0  0  0  0  0  0
   -0.9713   -0.0592    1.0728 H   0  0  0  0  0  0  0  0  0  0  0  0
    1.5874    1.6053    0.6260 C   0  0  0  0  0  0  0  0  0  0  0  0
    2.1934   -3.2693    3.1357 C   0  0  0  0  0  0  0  0  0  0  0  0
    2.3634   -4.0371    3.9051 H   0  0  0  0  0  0  0  0  0  0  0  0
    1.5215    1.7830    2.0227 C   0  0  0  0  0  0  0  0  0  0  0  0
    1.5142    0.9118    2.6941 H   0  0  0  0  0  0  0  0  0  0  0  0
    2.9784   -1.3368    1.8880 C   0  0  0  0  0  0  0  0  0  0  0  0
    3.7667   -0.5991    1.6711 H   0  0  0  0  0  0  0  0  0  0  0  0
    1.5840    2.7235   -0.2383 C   0  0  0  0  0  0  0  0  0  0  0  0
    1.6303    2.5902   -1.3303 H   0  0  0  0  0  0  0  0  0  0  0  0
   -2.6671    0.4706   -2.3564 C   0  0  0  0  0  3  0  0  0  0  0  0
   -1.7416   -0.0151   -2.6896 H   0  0  0  0  0  0  0  0  0  0  0  0
   -3.4386    0.5097   -3.1412 H   0  0  0  0  0  0  0  0  0  0  0  0
    3.1885   -2.3131    2.8694 C   0  0  0  0  0  0  0  0  0  0  0  0
    4.1376   -2.3327    3.4249 H   0  0  0  0  0  0  0  0  0  0  0  0
    4.0004    0.6432   -1.2942 C   0  0  0  0  0  0  0  0  0  0  0  0
    4.0595    1.4604   -0.5601 H   0  0  0  0  0  0  0  0  0  0  0  0
    0.9873   -3.2531    2.4188 C   0  0  0  0  0  0  0  0  0  0  0  0
    0.2118   -4.0059    2.6220 H   0  0  0  0  0  0  0  0  0  0  0  0
    1.4664    3.0811    2.5524 C   0  0  0  0  0  0  0  0  0  0  0  0
    1.4189    3.2222    3.6421 H   0  0  0  0  0  0  0  0  0  0  0  0
    1.4714    4.1933    1.6962 C   0  0  0  0  0  0  0  0  0  0  0  0
    1.4302    5.2093    2.1164 H   0  0  0  0  0  0  0  0  0  0  0  0
    5.0400    0.4525   -2.2161 C   0  0  0  0  0  0  0  0  0  0  0  0
    5.9124    1.1222   -2.1976 H   0  0  0  0  0  0  0  0  0  0  0  0
    1.5282    4.0146    0.3027 C   0  0  0  0  0  0  0  0  0  0  0  0
    1.5306    4.8870   -0.3672 H   0  0  0  0  0  0  0  0  0  0  0  0
    2.8124   -1.2683   -2.2615 C   0  0  0  0  0  0  0  0  0  0  0  0
    1.9533   -1.9562   -2.2791 H   0  0  0  0  0  0  0  0  0  0  0  0
    4.9673   -0.5860   -3.1575 C   0  0  0  0  0  0  0  0  0  0  0  0
    5.7845   -0.7297   -3.8799 H   0  0  0  0  0  0  0  0  0  0  0  0
   -2.0868    2.4053    0.9491 C   0  0  0  0  0  0  0  0  0  0  0  0
   -2.0495    1.9297    1.9486 H   0  0  0  0  0  0  0  0  0  0  0  0
   -3.0232    2.9907    0.8736 H   0  0  0  0  0  0  0  0  0  0  0  0
   -1.2313    3.1115    0.8935 H   0  0  0  0  0  0  0  0  0  0  0  0
   -2.6851    1.5229   -1.3796 C   0  0  0  0  0  3  0  0  0  0  0  0
   -3.3996    2.3577   -1.4720 H   0  0  0  0  0  0  0  0  0  0  0  0
    3.8555   -1.4450   -3.1794 C   0  0  0  0  0  0  0  0  0  0  0  0
    3.8013   -2.2611   -3.9149 H   0  0  0  0  0  0  0  0  0  0  0  0
   -1.9731    1.3833   -0.1496 C   0  0  2  0  0  3  0  0  0  0  0  0
  1 11  1  0  0  0  0
  1  5  1  0  0  0  0
  2  1  1  0  0  0  0
  2  9  1  0  0  0  0
  3  2  1  0  0  0  0
  4  2  1  0  0  0  0
  5  6  2  0  0  0  0
  5 16  1  0  0  0  0
  6 27  1  0  0  0  0
  7  6  1  0  0  0  0
  8 25  1  0  0  0  0
  8  1  1  0  0  0  0
  9 10  1  0  0  0  0
 11 14  1  0  0  0  0
 12 13  1  0  0  0  0
 14 29  2  0  0  0  0
 14 15  1  0  0  0  0
 16 23  2  0  0  0  0
 17 16  1  0  0  0  0
 18 35  1  0  0  0  0
 18 11  2  0  0  0  0
 19 18  1  0  0  0  0
 20 45  1  0  0  0  0
 21 20  1  0  0  0  0
 22 20  1  0  0  0  0
 23 12  1  0  0  0  0
 23 24  1  0  0  0  0
 25 26  1  0  0  0  0
 27 28  1  0  0  0  0
 27 12  2  0  0  0  0
 29 30  1  0  0  0  0
 31 32  1  0  0  0  0
 31 29  1  0  0  0  0
 33 34  1  0  0  0  0
 33 25  2  0  0  0  0
 35 31  2  0  0  0  0
 36 35  1  0  0  0  0
 37  8  2  0  0  0  0
 38 37  1  0  0  0  0
 39 33  1  0  0  0  0
 40 39  1  0  0  0  0
 41 42  1  0  0  0  0
 43 41  1  0  0  0  0
 44 41  1  0  0  0  0
 46 45  1  0  0  0  0
 47 39  2  0  0  0  0
 47 37  1  0  0  0  0
 48 47  1  0  0  0  0
 49 45  1  1  0  0  0
 49  9  1  0  0  0  0
 49 41  1  0  0  0  0
M  END
