4
 OpenBabel05122313113D

 33 35  0  0  0  0  0  0  0  0999 V2000
    0.1048   -0.7286   -0.3670 C   0  0  0  0  0  0  0  0  0  0  0  0
   -0.4994   -0.2043   -1.5477 C   0  0  0  0  0  0  0  0  0  0  0  0
   -0.2864    0.7800   -1.9788 H   0  0  0  0  0  0  0  0  0  0  0  0
   -1.4687   -1.1420   -2.0118 C   0  0  0  0  0  3  0  0  0  0  0  0
   -2.1437   -1.0029   -2.8653 H   0  0  0  0  0  0  0  0  0  0  0  0
   -1.4502   -2.2670   -1.1324 C   0  0  0  0  0  0  0  0  0  0  0  0
   -2.1054   -3.1429   -1.1952 H   0  0  0  0  0  0  0  0  0  0  0  0
   -0.4956   -2.0072   -0.1137 C   0  0  0  0  0  0  0  0  0  0  0  0
   -0.2710   -2.6507    0.7452 H   0  0  0  0  0  0  0  0  0  0  0  0
    1.2074   -0.1025    0.4587 C   0  0  0  0  0  0  0  0  0  0  0  0
    0.9023   -0.2073    1.5212 H   0  0  0  0  0  0  0  0  0  0  0  0
    2.5288   -0.8518    0.2976 C   0  0  0  0  0  0  0  0  0  0  0  0
    2.8388   -1.5946   -0.8574 C   0  0  0  0  0  0  0  0  0  0  0  0
    2.0964   -1.6798   -1.6656 H   0  0  0  0  0  0  0  0  0  0  0  0
    4.0845   -2.2305   -0.9866 C   0  0  0  0  0  0  0  0  0  0  0  0
    4.3102   -2.8073   -1.8966 H   0  0  0  0  0  0  0  0  0  0  0  0
    5.0358   -2.1344    0.0393 C   0  0  0  0  0  0  0  0  0  0  0  0
    6.0106   -2.6354   -0.0600 H   0  0  0  0  0  0  0  0  0  0  0  0
    4.7344   -1.3975    1.1969 C   0  0  0  0  0  0  0  0  0  0  0  0
    5.4728   -1.3195    2.0094 H   0  0  0  0  0  0  0  0  0  0  0  0
    3.4918   -0.7622    1.3228 C   0  0  0  0  0  0  0  0  0  0  0  0
    3.2607   -0.1795    2.2286 H   0  0  0  0  0  0  0  0  0  0  0  0
    1.3434    1.3922    0.1697 C   0  0  0  0  0  0  0  0  0  0  0  0
    2.1826    1.8669   -0.8570 C   0  0  0  0  0  0  0  0  0  0  0  0
    2.8037    1.1554   -1.4224 H   0  0  0  0  0  0  0  0  0  0  0  0
    2.2419    3.2375   -1.1527 C   0  0  0  0  0  0  0  0  0  0  0  0
    2.9042    3.5940   -1.9564 H   0  0  0  0  0  0  0  0  0  0  0  0
    1.4659    4.1515   -0.4225 C   0  0  0  0  0  0  0  0  0  0  0  0
    1.5143    5.2266   -0.6530 H   0  0  0  0  0  0  0  0  0  0  0  0
    0.6320    3.6867    0.6061 C   0  0  0  0  0  0  0  0  0  0  0  0
    0.0194    4.3946    1.1847 H   0  0  0  0  0  0  0  0  0  0  0  0
    0.5710    2.3166    0.8993 C   0  0  0  0  0  0  0  0  0  0  0  0
   -0.0950    1.9535    1.6970 H   0  0  0  0  0  0  0  0  0  0  0  0
  1  8  1  0  0  0  0
  1 10  1  0  0  0  0
  2  1  2  0  0  0  0
  3  2  1  0  0  0  0
  4  2  1  0  0  0  0
  4  6  1  0  0  0  0
  5  4  1  0  0  0  0
  6  8  2  0  0  0  0
  7  6  1  0  0  0  0
  8  9  1  0  0  0  0
 10 11  1  0  0  0  0
 12 10  1  0  0  0  0
 12 21  1  0  0  0  0
 13 12  2  0  0  0  0
 14 13  1  0  0  0  0
 15 13  1  0  0  0  0
 15 17  2  0  0  0  0
 16 15  1  0  0  0  0
 17 19  1  0  0  0  0
 18 17  1  0  0  0  0
 19 21  2  0  0  0  0
 19 20  1  0  0  0  0
 21 22  1  0  0  0  0
 23 10  1  0  0  0  0
 23 32  1  0  0  0  0
 24 23  2  0  0  0  0
 25 24  1  0  0  0  0
 26 24  1  0  0  0  0
 26 28  2  0  0  0  0
 27 26  1  0  0  0  0
 28 30  1  0  0  0  0
 29 28  1  0  0  0  0
 30 32  2  0  0  0  0
 30 31  1  0  0  0  0
 32 33  1  0  0  0  0
M  END
