1
 OpenBabel05122313113D

 19 20  0  0  0  0  0  0  0  0999 V2000
    0.8387   -1.6573   -0.3798 C   0  0  0  0  0  3  0  0  0  0  0  0
    0.4463   -3.0032   -0.3755 C   0  0  0  0  0  0  0  0  0  0  0  0
   -0.5119   -3.3768    0.0064 H   0  0  0  0  0  0  0  0  0  0  0  0
    1.4736   -3.8130   -0.9586 C   0  0  0  0  0  0  0  0  0  0  0  0
    1.4589   -4.8978   -1.1197 H   0  0  0  0  0  0  0  0  0  0  0  0
    2.5014   -2.9566   -1.3153 C   0  0  0  0  0  0  0  0  0  0  0  0
    3.4448   -3.1425   -1.8400 H   0  0  0  0  0  0  0  0  0  0  0  0
    2.1119   -1.6645   -0.9784 N   0  0  0  0  0  0  0  0  0  0  0  0
    2.9088   -0.5179   -1.2012 C   0  0  0  0  0  0  0  0  0  0  0  0
    4.3059   -0.5650   -0.9987 C   0  0  0  0  0  0  0  0  0  0  0  0
    4.7716   -1.5057   -0.6703 H   0  0  0  0  0  0  0  0  0  0  0  0
    5.0845    0.5865   -1.1842 C   0  0  0  0  0  0  0  0  0  0  0  0
    6.1716    0.5355   -1.0183 H   0  0  0  0  0  0  0  0  0  0  0  0
    4.4855    1.8010   -1.5580 C   0  0  0  0  0  0  0  0  0  0  0  0
    5.0990    2.7044   -1.6921 H   0  0  0  0  0  0  0  0  0  0  0  0
    3.0970    1.8460   -1.7669 C   0  0  0  0  0  0  0  0  0  0  0  0
    2.6064    2.7834   -2.0708 H   0  0  0  0  0  0  0  0  0  0  0  0
    2.3134    0.6952   -1.6055 C   0  0  0  0  0  0  0  0  0  0  0  0
    1.2312    0.7385   -1.7918 H   0  0  0  0  0  0  0  0  0  0  0  0
  1  2  2  0  0  0  0
  2  3  1  0  0  0  0
  4  2  1  0  0  0  0
  5  4  1  0  0  0  0
  6  8  1  0  0  0  0
  6  4  2  0  0  0  0
  7  6  1  0  0  0  0
  8  1  1  0  0  0  0
  9 10  1  0  0  0  0
  9  8  1  0  0  0  0
 10 11  1  0  0  0  0
 12 13  1  0  0  0  0
 12 10  2  0  0  0  0
 14 12  1  0  0  0  0
 15 14  1  0  0  0  0
 16 18  1  0  0  0  0
 16 14  2  0  0  0  0
 17 16  1  0  0  0  0
 18  9  2  0  0  0  0
 19 18  1  0  0  0  0
M  END
