6
 OpenBabel05122313113D

 10  9  0  0  0  0  0  0  0  0999 V2000
   -5.6065    0.5340    1.2021 F   0  0  0  0  0  0  0  0  0  0  0  0
   -5.0429   -0.2087   -0.7768 F   0  0  0  0  0  0  0  0  0  0  0  0
   -5.4377    1.9195   -0.4760 F   0  0  0  0  0  0  0  0  0  0  0  0
   -2.9596    0.0860    1.1801 O   0  0  0  0  0  0  0  0  0  0  0  0
   -2.7617    1.9470   -0.1230 O   0  0  0  0  0  0  0  0  0  0  0  0
   -1.5196    0.0247    1.4259 C   0  0  0  0  0  3  0  0  0  0  0  0
   -3.4034    1.0442    0.3854 C   0  0  0  0  0  0  0  0  0  0  0  0
   -4.9077    0.8255    0.0884 C   0  0  0  0  0  0  0  0  0  0  0  0
   -1.1368    1.0632    1.4285 H   0  0  0  0  0  0  0  0  0  0  0  0
   -1.4516   -0.3778    2.4529 H   0  0  0  0  0  0  0  0  0  0  0  0
  2  8  1  0  0  0  0
  3  8  1  0  0  0  0
  4  6  1  0  0  0  0
  5  7  2  0  0  0  0
  6  9  1  0  0  0  0
  6 10  1  0  0  0  0
  7  4  1  0  0  0  0
  8  7  1  0  0  0  0
  8  1  1  0  0  0  0
M  END
