21
 OpenBabel05122313113D

 45 48  0  0  0  0  0  0  0  0999 V2000
    2.1093   -2.5842    0.4435 C   0  0  0  0  0  0  0  0  0  0  0  0
    2.4435   -3.1318   -0.8129 C   0  0  0  0  0  0  0  0  0  0  0  0
    1.8039   -3.9125   -1.2511 H   0  0  0  0  0  0  0  0  0  0  0  0
    2.9734   -1.6407    1.0378 C   0  0  0  0  0  0  0  0  0  0  0  0
    2.6944   -1.1853    1.9972 H   0  0  0  0  0  0  0  0  0  0  0  0
    4.4487   -1.7572   -0.8977 C   0  0  0  0  0  0  0  0  0  0  0  0
    5.3575   -1.4275   -1.4228 H   0  0  0  0  0  0  0  0  0  0  0  0
    3.5927   -2.6992   -1.4889 C   0  0  0  0  0  0  0  0  0  0  0  0
    3.8319   -3.1228   -2.4759 H   0  0  0  0  0  0  0  0  0  0  0  0
    4.1388   -1.2430    0.3715 C   0  0  0  0  0  0  0  0  0  0  0  0
    4.7973   -0.4950    0.8390 H   0  0  0  0  0  0  0  0  0  0  0  0
   -0.5658   -2.4408   -0.7887 C   0  0  0  0  0  0  0  0  0  0  0  0
    0.3094   -1.9291   -1.2266 H   0  0  0  0  0  0  0  0  0  0  0  0
   -0.9395   -3.1950   -1.5088 H   0  0  0  0  0  0  0  0  0  0  0  0
    0.9463   -3.0184    1.1330 N   0  0  0  0  0  0  0  0  0  0  0  0
   -0.3131   -3.1165    0.5722 C   0  0  0  0  0  0  0  0  0  0  0  0
    1.0479   -3.2851    2.5683 C   0  0  0  0  0  0  0  0  0  0  0  0
    0.9258   -2.3399    3.1385 H   0  0  0  0  0  0  0  0  0  0  0  0
    2.0284   -3.7421    2.7967 H   0  0  0  0  0  0  0  0  0  0  0  0
    0.2272   -3.9710    2.8446 H   0  0  0  0  0  0  0  0  0  0  0  0
   -1.3026   -0.1210   -0.3521 C   0  0  0  0  0  2  0  0  0  0  0  0
   -2.9742   -1.6393   -0.5579 C   0  0  0  0  0  0  0  0  0  0  0  0
   -3.5587   -0.3743   -0.3114 C   0  0  0  0  0  0  0  0  0  0  0  0
   -4.9492   -0.2069   -0.2601 C   0  0  0  0  0  0  0  0  0  0  0  0
   -5.3984    0.7802   -0.0862 H   0  0  0  0  0  0  0  0  0  0  0  0
   -3.7577   -2.7892   -0.7191 C   0  0  0  0  0  0  0  0  0  0  0  0
   -3.2960   -3.7767   -0.8460 H   0  0  0  0  0  0  0  0  0  0  0  0
   -5.1483   -2.6235   -0.6581 C   0  0  0  0  0  0  0  0  0  0  0  0
   -5.7980   -3.5035   -0.7728 H   0  0  0  0  0  0  0  0  0  0  0  0
   -5.7335   -1.3555   -0.4403 C   0  0  0  0  0  0  0  0  0  0  0  0
   -6.8293   -1.2671   -0.4027 H   0  0  0  0  0  0  0  0  0  0  0  0
   -2.6139    1.9296    0.0824 C   0  0  0  0  0  0  0  0  0  0  0  0
   -2.4932    0.5297   -0.1850 N   0  0  0  0  0  0  0  0  0  0  0  0
   -1.5950   -1.4272   -0.6025 N   0  0  0  0  0  0  0  0  0  0  0  0
   -1.9922    2.8540   -0.7744 C   0  0  0  0  0  0  0  0  0  0  0  0
   -1.4220    2.4900   -1.6426 H   0  0  0  0  0  0  0  0  0  0  0  0
   -2.8303    4.6632    0.6253 C   0  0  0  0  0  0  0  0  0  0  0  0
   -2.9136    5.7392    0.8401 H   0  0  0  0  0  0  0  0  0  0  0  0
   -3.3385    2.3563    1.2072 C   0  0  0  0  0  0  0  0  0  0  0  0
   -3.7851    1.6121    1.8818 H   0  0  0  0  0  0  0  0  0  0  0  0
   -2.1007    4.2230   -0.4909 C   0  0  0  0  0  0  0  0  0  0  0  0
   -1.6117    4.9513   -1.1550 H   0  0  0  0  0  0  0  0  0  0  0  0
   -3.4498    3.7291    1.4708 C   0  0  0  0  0  0  0  0  0  0  0  0
   -4.0107    4.0685    2.3544 H   0  0  0  0  0  0  0  0  0  0  0  0
   -1.2643   -3.6294    1.1614 O   0  0  0  0  0  0  0  0  0  0  0  0
  1  4  1  0  0  0  0
  1 15  1  0  0  0  0
  2  1  2  0  0  0  0
  3  2  1  0  0  0  0
  4  5  1  0  0  0  0
  6 10  1  0  0  0  0
  7  6  1  0  0  0  0
  8  6  2  0  0  0  0
  8  2  1  0  0  0  0
  9  8  1  0  0  0  0
 10 11  1  0  0  0  0
 10  4  2  0  0  0  0
 12 34  1  0  0  0  0
 12 16  1  0  0  0  0
 13 12  1  0  0  0  0
 14 12  1  0  0  0  0
 15 17  1  0  0  0  0
 16 15  1  0  0  0  0
 16 45  2  0  0  0  0
 17 19  1  0  0  0  0
 17 20  1  0  0  0  0
 17 18  1  0  0  0  0
 21 33  1  0  0  0  0
 22 23  1  0  0  0  0
 23 24  2  0  0  0  0
 23 33  1  0  0  0  0
 24 25  1  0  0  0  0
 26 28  1  0  0  0  0
 26 22  2  0  0  0  0
 27 26  1  0  0  0  0
 28 30  2  0  0  0  0
 29 28  1  0  0  0  0
 30 31  1  0  0  0  0
 30 24  1  0  0  0  0
 32 39  1  0  0  0  0
 33 32  1  0  0  0  0
 34 22  1  0  0  0  0
 34 21  1  0  0  0  0
 35 41  1  0  0  0  0
 35 32  2  0  0  0  0
 36 35  1  0  0  0  0
 37 38  1  0  0  0  0
 37 43  1  0  0  0  0
 39 43  2  0  0  0  0
 39 40  1  0  0  0  0
 41 37  2  0  0  0  0
 42 41  1  0  0  0  0
 43 44  1  0  0  0  0
M  END
