1
 OpenBabel05122313113D

 45 48  0  0  0  0  0  0  0  0999 V2000
   -1.2908   -0.1452   -0.2617 C   0  0  0  0  0  3  0  0  0  0  0  0
   -0.3455   -2.4159   -0.7492 C   0  0  0  0  0  0  0  0  0  0  0  0
    0.4689   -1.8145   -1.1922 H   0  0  0  0  0  0  0  0  0  0  0  0
   -0.6523   -3.1931   -1.4770 H   0  0  0  0  0  0  0  0  0  0  0  0
   -3.4815   -0.6755   -0.2459 N   0  0  0  0  0  0  0  0  0  0  0  0
   -2.5738    0.3862   -0.1036 C   0  0  0  0  0  0  0  0  0  0  0  0
   -0.0064   -3.0822    0.5979 C   0  0  0  0  0  0  0  0  0  0  0  0
   -4.8518   -0.7075   -0.1157 C   0  0  0  0  0  3  0  0  0  0  0  0
   -5.3328    0.2494    0.1203 H   0  0  0  0  0  0  0  0  0  0  0  0
   -4.0149    2.3859   -0.6114 C   0  0  0  0  0  0  0  0  0  0  0  0
   -4.5242    1.8201   -1.4066 H   0  0  0  0  0  0  0  0  0  0  0  0
   -3.4267   -3.0814   -0.6321 C   0  0  0  0  0  0  0  0  0  0  0  0
   -2.8294   -3.9915   -0.7625 H   0  0  0  0  0  0  0  0  0  0  0  0
   -2.9797    1.7775    0.1369 C   0  0  0  0  0  0  0  0  0  0  0  0
   -2.2907    2.5477    1.1025 C   0  0  0  0  0  0  0  0  0  0  0  0
   -1.4808    2.0767    1.6814 H   0  0  0  0  0  0  0  0  0  0  0  0
   -2.7710   -1.8483   -0.4944 C   0  0  0  0  0  0  0  0  0  0  0  0
   -3.6799    4.4800    0.5783 C   0  0  0  0  0  0  0  0  0  0  0  0
   -3.9526    5.5322    0.7512 H   0  0  0  0  0  0  0  0  0  0  0  0
   -2.6407    3.8878    1.3141 C   0  0  0  0  0  0  0  0  0  0  0  0
   -2.0959    4.4749    2.0692 H   0  0  0  0  0  0  0  0  0  0  0  0
   -5.5244   -1.9048   -0.2608 C   0  0  0  0  0  0  0  0  0  0  0  0
   -6.6170   -1.9109   -0.1485 H   0  0  0  0  0  0  0  0  0  0  0  0
   -4.3645    3.7246   -0.3868 C   0  0  0  0  0  0  0  0  0  0  0  0
   -5.1662    4.1858   -0.9837 H   0  0  0  0  0  0  0  0  0  0  0  0
   -4.8138   -3.1057   -0.5267 C   0  0  0  0  0  0  0  0  0  0  0  0
   -5.3554   -4.0568   -0.6234 H   0  0  0  0  0  0  0  0  0  0  0  0
   -1.4558   -1.5004   -0.5328 N   0  0  0  0  0  0  0  0  0  0  0  0
    1.2727   -2.9500    1.0927 N   0  0  0  0  0  0  0  0  0  0  0  0
    4.2941   -0.9483    0.2019 C   0  0  0  0  0  0  0  0  0  0  0  0
    4.9148   -0.1524    0.6409 H   0  0  0  0  0  0  0  0  0  0  0  0
    2.3746   -2.4335    0.3566 C   0  0  0  0  0  0  0  0  0  0  0  0
    3.7745   -2.4403   -1.6387 C   0  0  0  0  0  0  0  0  0  0  0  0
    3.9995   -2.8427   -2.6379 H   0  0  0  0  0  0  0  0  0  0  0  0
    4.5846   -1.4393   -1.0811 C   0  0  0  0  0  0  0  0  0  0  0  0
    5.4420   -1.0425   -1.6449 H   0  0  0  0  0  0  0  0  0  0  0  0
    2.6897   -2.9547   -0.9149 C   0  0  0  0  0  0  0  0  0  0  0  0
    2.0855   -3.7759   -1.3285 H   0  0  0  0  0  0  0  0  0  0  0  0
    1.4650   -3.2512    2.5118 C   0  0  0  0  0  0  0  0  0  0  0  0
    1.3251   -2.3302    3.1164 H   0  0  0  0  0  0  0  0  0  0  0  0
    2.4792   -3.6606    2.6731 H   0  0  0  0  0  0  0  0  0  0  0  0
    0.6974   -3.9871    2.8112 H   0  0  0  0  0  0  0  0  0  0  0  0
    3.1912   -1.4302    0.9172 C   0  0  0  0  0  0  0  0  0  0  0  0
    2.9176   -0.9944    1.8875 H   0  0  0  0  0  0  0  0  0  0  0  0
   -0.9115   -3.6378    1.2231 O   0  0  0  0  0  0  0  0  0  0  0  0
  1  6  2  0  0  0  0
  2 28  1  0  0  0  0
  2  7  1  0  0  0  0
  3  2  1  0  0  0  0
  4  2  1  0  0  0  0
  5  8  1  0  0  0  0
  5  6  1  0  0  0  0
  6 14  1  0  0  0  0
  7 29  1  0  0  0  0
  7 45  2  0  0  0  0
  8  9  1  0  0  0  0
 10 24  2  0  0  0  0
 10 14  1  0  0  0  0
 11 10  1  0  0  0  0
 12 26  1  0  0  0  0
 12 17  2  0  0  0  0
 13 12  1  0  0  0  0
 14 15  2  0  0  0  0
 15 20  1  0  0  0  0
 15 16  1  0  0  0  0
 17  5  1  0  0  0  0
 18 19  1  0  0  0  0
 18 20  2  0  0  0  0
 20 21  1  0  0  0  0
 22 23  1  0  0  0  0
 22  8  1  0  0  0  0
 24 18  1  0  0  0  0
 25 24  1  0  0  0  0
 26 22  2  0  0  0  0
 27 26  1  0  0  0  0
 28 17  1  0  0  0  0
 28  1  1  0  0  0  0
 29 39  1  0  0  0  0
 30 31  1  0  0  0  0
 30 43  1  0  0  0  0
 32 43  2  0  0  0  0
 32 29  1  0  0  0  0
 33 35  1  0  0  0  0
 33 37  2  0  0  0  0
 34 33  1  0  0  0  0
 35 30  2  0  0  0  0
 36 35  1  0  0  0  0
 37 32  1  0  0  0  0
 38 37  1  0  0  0  0
 39 41  1  0  0  0  0
 39 42  1  0  0  0  0
 39 40  1  0  0  0  0
 43 44  1  0  0  0  0
M  END
