44
 OpenBabel05122313113D

 44 47  0  0  0  0  0  0  0  0999 V2000
    1.6788    0.0819    0.1677 P   0  0  0  0  0  4  0  0  0  0  0  0
    3.0545    0.8509    1.1079 C   0  0  0  0  0  0  0  0  0  0  0  0
    3.0643    0.8966    2.5150 C   0  0  0  0  0  0  0  0  0  0  0  0
    2.2176    0.4843    3.0835 H   0  0  0  0  0  0  0  0  0  0  0  0
    4.1530    1.4749    3.1873 C   0  0  0  0  0  0  0  0  0  0  0  0
    4.1553    1.5119    4.2871 H   0  0  0  0  0  0  0  0  0  0  0  0
    5.2302    2.0056    2.4618 C   0  0  0  0  0  0  0  0  0  0  0  0
    6.0814    2.4586    2.9924 H   0  0  0  0  0  0  0  0  0  0  0  0
    5.2201    1.9655    1.0571 C   0  0  0  0  0  0  0  0  0  0  0  0
    6.0606    2.3873    0.4857 H   0  0  0  0  0  0  0  0  0  0  0  0
    4.1353    1.3938    0.3792 C   0  0  0  0  0  0  0  0  0  0  0  0
    4.1222    1.3737   -0.7217 H   0  0  0  0  0  0  0  0  0  0  0  0
    0.3462   -0.2778    1.3440 C   0  0  0  0  0  0  0  0  0  0  0  0
    0.5224   -1.3815    2.2102 C   0  0  0  0  0  0  0  0  0  0  0  0
    1.4194   -2.0139    2.1268 H   0  0  0  0  0  0  0  0  0  0  0  0
   -0.4827   -1.6929    3.1379 C   0  0  0  0  0  0  0  0  0  0  0  0
   -0.3576   -2.5627    3.8006 H   0  0  0  0  0  0  0  0  0  0  0  0
   -1.6497   -0.9156    3.2067 C   0  0  0  0  0  0  0  0  0  0  0  0
   -2.4486   -1.1823    3.9144 H   0  0  0  0  0  0  0  0  0  0  0  0
   -1.8188    0.1847    2.3469 C   0  0  0  0  0  0  0  0  0  0  0  0
   -2.7494    0.7704    2.3637 H   0  0  0  0  0  0  0  0  0  0  0  0
   -0.8166    0.5151    1.4268 C   0  0  0  0  0  0  0  0  0  0  0  0
   -0.9749    1.3429    0.7235 H   0  0  0  0  0  0  0  0  0  0  0  0
    1.1930    1.3710   -1.0228 C   0  0  0  0  0  0  0  0  0  0  0  0
    0.9034    2.6593   -0.5265 C   0  0  0  0  0  0  0  0  0  0  0  0
    1.0126    2.8790    0.5463 H   0  0  0  0  0  0  0  0  0  0  0  0
    0.4619    3.6600   -1.4068 C   0  0  0  0  0  0  0  0  0  0  0  0
    0.2084    4.6568   -1.0163 H   0  0  0  0  0  0  0  0  0  0  0  0
    0.3499    3.3887   -2.7790 C   0  0  0  0  0  0  0  0  0  0  0  0
    0.0002    4.1733   -3.4668 H   0  0  0  0  0  0  0  0  0  0  0  0
    0.6971    2.1204   -3.2787 C   0  0  0  0  0  0  0  0  0  0  0  0
    0.6297    1.9135   -4.3570 H   0  0  0  0  0  0  0  0  0  0  0  0
    1.1152    1.1062   -2.4060 C   0  0  0  0  0  0  0  0  0  0  0  0
    1.3600    0.1026   -2.7842 H   0  0  0  0  0  0  0  0  0  0  0  0
    2.2562   -1.4410   -0.6010 C   0  0  0  0  0  0  0  0  0  0  0  0
    3.5722   -1.9276   -0.4529 C   0  0  0  0  0  0  0  0  0  0  0  0
    4.3287   -1.3653    0.1159 H   0  0  0  0  0  0  0  0  0  0  0  0
    3.8901   -3.1579   -1.0419 C   0  0  0  0  0  0  0  0  0  0  0  0
    4.9052   -3.5717   -0.9435 H   0  0  0  0  0  0  0  0  0  0  0  0
    2.8987   -3.8602   -1.7539 C   0  0  0  0  0  0  0  0  0  0  0  0
    3.1502   -4.8302   -2.2128 H   0  0  0  0  0  0  0  0  0  0  0  0
    1.5985   -3.3456   -1.8858 C   0  0  0  0  0  0  0  0  0  0  0  0
    0.8571   -3.9295   -2.4554 H   0  0  0  0  0  0  0  0  0  0  0  0
    1.2126   -2.1083   -1.3085 C   0  0  0  0  0  3  0  0  0  0  0  0
  1  2  1  0  0  0  0
  1 13  1  0  0  0  0
  2  3  1  0  0  0  0
  3  4  1  0  0  0  0
  3  5  2  0  0  0  0
  5  6  1  0  0  0  0
  7  8  1  0  0  0  0
  7  5  1  0  0  0  0
  9  7  2  0  0  0  0
 10  9  1  0  0  0  0
 11  9  1  0  0  0  0
 11  2  2  0  0  0  0
 12 11  1  0  0  0  0
 13 22  2  0  0  0  0
 13 14  1  0  0  0  0
 14 16  2  0  0  0  0
 15 14  1  0  0  0  0
 16 18  1  0  0  0  0
 16 17  1  0  0  0  0
 18 19  1  0  0  0  0
 20 21  1  0  0  0  0
 20 18  2  0  0  0  0
 22 20  1  0  0  0  0
 23 22  1  0  0  0  0
 24 25  1  0  0  0  0
 24  1  1  0  0  0  0
 25 26  1  0  0  0  0
 27 28  1  0  0  0  0
 27 25  2  0  0  0  0
 29 27  1  0  0  0  0
 30 29  1  0  0  0  0
 31 29  2  0  0  0  0
 31 33  1  0  0  0  0
 32 31  1  0  0  0  0
 33 24  2  0  0  0  0
 34 33  1  0  0  0  0
 35 36  1  0  0  0  0
 35  1  1  0  0  0  0
 36 37  1  0  0  0  0
 38 39  1  0  0  0  0
 38 36  2  0  0  0  0
 40 38  1  0  0  0  0
 41 40  1  0  0  0  0
 42 40  2  0  0  0  0
 42 44  1  0  0  0  0
 43 42  1  0  0  0  0
 44 35  2  0  0  0  0
M  END
