20
 OpenBabel05122313113D

 55 57  0  0  1  0  0  0  0  0999 V2000
    1.8869    0.2035    0.8767 P   0  0  0  0  0  0  0  0  0  0  0  0
    2.7394   -0.5644    2.3397 C   0  0  0  0  0  0  0  0  0  0  0  0
    3.3358    0.2515    2.7974 H   0  0  0  0  0  0  0  0  0  0  0  0
    1.9396   -0.8108    3.0678 H   0  0  0  0  0  0  0  0  0  0  0  0
    3.6162   -1.7986    2.1157 C   0  0  0  0  0  0  0  0  0  0  0  0
    4.4104   -1.5863    1.3709 H   0  0  0  0  0  0  0  0  0  0  0  0
    4.1524   -2.0145    3.0624 H   0  0  0  0  0  0  0  0  0  0  0  0
    2.8272   -3.0566    1.7268 C   0  0  0  0  0  0  0  0  0  0  0  0
    3.5134   -3.9314    1.7424 H   0  0  0  0  0  0  0  0  0  0  0  0
    2.0493   -3.2587    2.4915 H   0  0  0  0  0  0  0  0  0  0  0  0
    2.1839   -3.0260    0.3642 C   0  0  1  0  0  3  0  0  0  0  0  0
    2.9752   -2.6977   -0.8047 C   0  0  0  0  0  0  0  0  0  0  0  0
    4.0301   -2.4149   -0.6896 H   0  0  0  0  0  0  0  0  0  0  0  0
    2.3765   -2.6468   -2.0742 C   0  0  0  0  0  0  0  0  0  0  0  0
    2.9529   -2.2883   -2.9393 H   0  0  0  0  0  0  0  0  0  0  0  0
    0.9909   -2.9889   -2.2438 C   0  0  0  0  0  0  0  0  0  0  0  0
    0.5148   -2.8891   -3.2284 H   0  0  0  0  0  0  0  0  0  0  0  0
    0.2427   -3.4393   -1.1233 C   0  0  0  0  0  0  0  0  0  0  0  0
   -0.8211   -3.6911   -1.2431 H   0  0  0  0  0  0  0  0  0  0  0  0
    0.8292   -3.4537    0.1799 C   0  0  0  0  0  3  0  0  0  0  0  0
    0.2298   -3.7539    1.0512 H   0  0  0  0  0  0  0  0  0  0  0  0
    3.1382    1.3591    0.0987 C   0  0  0  0  0  0  0  0  0  0  0  0
    2.5136    1.8946   -0.6489 H   0  0  0  0  0  0  0  0  0  0  0  0
    4.2347    0.6262   -0.6937 C   0  0  0  0  0  0  0  0  0  0  0  0
    4.8606    0.0190   -0.0013 H   0  0  0  0  0  0  0  0  0  0  0  0
    3.7615   -0.0637   -1.4189 H   0  0  0  0  0  0  0  0  0  0  0  0
    5.1326    1.6271   -1.4348 C   0  0  0  0  0  0  0  0  0  0  0  0
    4.5207    2.1438   -2.2068 H   0  0  0  0  0  0  0  0  0  0  0  0
    5.9302    1.0824   -1.9811 H   0  0  0  0  0  0  0  0  0  0  0  0
    5.7384    2.6613   -0.4804 C   0  0  0  0  0  0  0  0  0  0  0  0
    6.4344    2.1506    0.2228 H   0  0  0  0  0  0  0  0  0  0  0  0
    6.3499    3.3964   -1.0426 H   0  0  0  0  0  0  0  0  0  0  0  0
    4.6469    3.3782    0.3207 C   0  0  0  0  0  0  0  0  0  0  0  0
    4.0175    3.9820   -0.3699 H   0  0  0  0  0  0  0  0  0  0  0  0
    5.0934    4.0926    1.0426 H   0  0  0  0  0  0  0  0  0  0  0  0
    3.7457    2.3849    1.0732 C   0  0  0  0  0  0  0  0  0  0  0  0
    2.9546    2.9414    1.6156 H   0  0  0  0  0  0  0  0  0  0  0  0
    4.3551    1.8609    1.8432 H   0  0  0  0  0  0  0  0  0  0  0  0
    0.6816    1.3531    1.7307 C   0  0  0  0  0  0  0  0  0  0  0  0
    1.3411    1.9355    2.4154 H   0  0  0  0  0  0  0  0  0  0  0  0
   -0.3535    0.6213    2.6039 C   0  0  0  0  0  0  0  0  0  0  0  0
    0.1471   -0.0188    3.3593 H   0  0  0  0  0  0  0  0  0  0  0  0
   -0.9564   -0.0575    1.9652 H   0  0  0  0  0  0  0  0  0  0  0  0
   -1.2826    1.6169    3.3153 C   0  0  0  0  0  0  0  0  0  0  0  0
   -2.0363    1.0594    3.9091 H   0  0  0  0  0  0  0  0  0  0  0  0
   -0.6893    2.2119    4.0453 H   0  0  0  0  0  0  0  0  0  0  0  0
   -1.9644    2.5646    2.3236 C   0  0  0  0  0  0  0  0  0  0  0  0
   -2.6398    1.9821    1.6607 H   0  0  0  0  0  0  0  0  0  0  0  0
   -2.6074    3.2901    2.8631 H   0  0  0  0  0  0  0  0  0  0  0  0
   -0.9308    3.3027    1.4665 C   0  0  0  0  0  0  0  0  0  0  0  0
   -0.3381    3.9862    2.1152 H   0  0  0  0  0  0  0  0  0  0  0  0
   -1.4355    3.9431    0.7139 H   0  0  0  0  0  0  0  0  0  0  0  0
    0.0186    2.3337    0.7474 C   0  0  0  0  0  0  0  0  0  0  0  0
    0.7888    2.9073    0.1936 H   0  0  0  0  0  0  0  0  0  0  0  0
   -0.5392    1.7560   -0.0169 H   0  0  0  0  0  0  0  0  0  0  0  0
  1 39  1  0  0  0  0
  1  2  1  0  0  0  0
  2  3  1  0  0  0  0
  2  4  1  0  0  0  0
  5  2  1  0  0  0  0
  5  7  1  0  0  0  0
  6  5  1  0  0  0  0
  8  9  1  0  0  0  0
  8  5  1  0  0  0  0
  8 10  1  0  0  0  0
 11  8  1  6  0  0  0
 12 13  1  0  0  0  0
 12 11  1  0  0  0  0
 14 12  2  0  0  0  0
 15 14  1  0  0  0  0
 16 14  1  0  0  0  0
 16 18  2  0  0  0  0
 17 16  1  0  0  0  0
 18 20  1  0  0  0  0
 19 18  1  0  0  0  0
 20 11  1  0  0  0  0
 20 21  1  0  0  0  0
 22  1  1  0  0  0  0
 22 36  1  0  0  0  0
 23 22  1  0  0  0  0
 24 25  1  0  0  0  0
 24 22  1  0  0  0  0
 26 24  1  0  0  0  0
 27 24  1  0  0  0  0
 27 30  1  0  0  0  0
 28 27  1  0  0  0  0
 29 27  1  0  0  0  0
 30 31  1  0  0  0  0
 30 33  1  0  0  0  0
 32 30  1  0  0  0  0
 33 35  1  0  0  0  0
 33 36  1  0  0  0  0
 34 33  1  0  0  0  0
 36 37  1  0  0  0  0
 36 38  1  0  0  0  0
 39 40  1  0  0  0  0
 39 41  1  0  0  0  0
 41 44  1  0  0  0  0
 41 42  1  0  0  0  0
 43 41  1  0  0  0  0
 44 45  1  0  0  0  0
 44 46  1  0  0  0  0
 47 49  1  0  0  0  0
 47 44  1  0  0  0  0
 48 47  1  0  0  0  0
 50 51  1  0  0  0  0
 50 47  1  0  0  0  0
 52 50  1  0  0  0  0
 53 50  1  0  0  0  0
 53 39  1  0  0  0  0
 54 53  1  0  0  0  0
 55 53  1  0  0  0  0
M  END
