10
 OpenBabel05122313113D

 21 22  0  0  0  0  0  0  0  0999 V2000
    0.2883    1.2650   -1.9636 F   0  0  0  0  0  0  0  0  0  0  0  0
   -2.3824    1.1807   -2.1016 F   0  0  0  0  0  0  0  0  0  0  0  0
   -4.0870    2.2472   -0.1465 F   0  0  0  0  0  0  0  0  0  0  0  0
   -6.8017    2.2682   -0.2688 F   0  0  0  0  0  0  0  0  0  0  0  0
   -8.1900   -0.0925   -0.3071 F   0  0  0  0  0  0  0  0  0  0  0  0
   -6.8462   -2.4780   -0.2531 F   0  0  0  0  0  0  0  0  0  0  0  0
   -4.1304   -2.5087   -0.1967 F   0  0  0  0  0  0  0  0  0  0  0  0
   -2.5307   -1.4393    1.8682 F   0  0  0  0  0  0  0  0  0  0  0  0
    0.1396   -1.3764    2.0237 F   0  0  0  0  0  0  0  0  0  0  0  0
    0.3529   -0.0659    0.0291 C   0  0  0  0  0  0  0  0  0  0  0  0
   -0.3706    0.5707   -0.9857 C   0  0  0  0  0  0  0  0  0  0  0  0
   -1.7683    0.5490   -1.0831 C   0  0  0  0  0  0  0  0  0  0  0  0
   -2.5439   -0.1369   -0.1255 C   0  0  0  0  0  0  0  0  0  0  0  0
   -1.8427   -0.7961    0.9048 C   0  0  0  0  0  0  0  0  0  0  0  0
   -0.4450   -0.7519    0.9526 C   0  0  0  0  0  0  0  0  0  0  0  0
   -4.0193   -0.1317   -0.1776 C   0  0  0  0  0  0  0  0  0  0  0  0
   -4.7396    1.0798   -0.1992 C   0  0  0  0  0  0  0  0  0  0  0  0
   -6.1418    1.1056   -0.2522 C   0  0  0  0  0  0  0  0  0  0  0  0
   -6.8557   -0.1048   -0.2650 C   0  0  0  0  0  0  0  0  0  0  0  0
   -6.1649   -1.3279   -0.2318 C   0  0  0  0  0  0  0  0  0  0  0  0
   -4.7615   -1.3296   -0.1965 C   0  0  0  0  0  0  0  0  0  0  0  0
  1 11  1  0  0  0  0
  2 12  1  0  0  0  0
  4 18  1  0  0  0  0
  5 19  1  0  0  0  0
  6 20  1  0  0  0  0
  7 21  1  0  0  0  0
 10 15  1  0  0  0  0
 11 10  2  0  0  0  0
 12 11  1  0  0  0  0
 12 13  2  0  0  0  0
 13 14  1  0  0  0  0
 14 15  2  0  0  0  0
 14  8  1  0  0  0  0
 15  9  1  0  0  0  0
 16 13  1  0  0  0  0
 17 16  2  0  0  0  0
 17  3  1  0  0  0  0
 18 17  1  0  0  0  0
 19 18  2  0  0  0  0
 19 20  1  0  0  0  0
 20 21  2  0  0  0  0
 21 16  1  0  0  0  0
M  END
