5
 OpenBabel05122313113D

 23 24  0  0  0  0  0  0  0  0999 V2000
   -1.1224   -2.0803   -1.3022 N   0  0  0  0  0  0  0  0  0  0  0  0
    0.2908   -1.7429   -1.6125 B   0  0  0  0  0  0  0  0  0  0  0  0
    0.1736   -0.4740   -2.4435 C   0  0  0  0  0  0  0  0  0  0  0  0
    0.9531    0.1268   -2.9319 H   0  0  0  0  0  0  0  0  0  0  0  0
   -1.2271   -0.2440   -2.6668 C   0  0  0  0  0  3  0  0  0  0  0  0
   -1.6871    0.5429   -3.2821 H   0  0  0  0  0  0  0  0  0  0  0  0
   -1.9795   -1.1832   -1.9510 C   0  0  0  0  0  3  0  0  0  0  0  0
   -3.0668   -1.3073   -1.9009 H   0  0  0  0  0  0  0  0  0  0  0  0
   -1.6840   -3.2380   -0.6224 C   0  0  0  0  0  0  0  0  0  0  0  0
   -1.9076   -4.0515   -1.3453 H   0  0  0  0  0  0  0  0  0  0  0  0
   -2.6196   -2.9671   -0.0970 H   0  0  0  0  0  0  0  0  0  0  0  0
   -0.9689   -3.6358    0.1207 H   0  0  0  0  0  0  0  0  0  0  0  0
    1.5590   -2.5179   -1.1043 C   0  0  0  0  0  0  0  0  0  0  0  0
    1.6058   -3.9196   -0.8932 C   0  0  0  0  0  0  0  0  0  0  0  0
    0.7156   -4.5338   -1.0989 H   0  0  0  0  0  0  0  0  0  0  0  0
    2.7757   -4.5645   -0.4590 C   0  0  0  0  0  0  0  0  0  0  0  0
    2.7755   -5.6556   -0.3091 H   0  0  0  0  0  0  0  0  0  0  0  0
    3.9478   -3.8258   -0.2296 C   0  0  0  0  0  0  0  0  0  0  0  0
    4.8661   -4.3304    0.1079 H   0  0  0  0  0  0  0  0  0  0  0  0
    3.9365   -2.4369   -0.4461 C   0  0  0  0  0  0  0  0  0  0  0  0
    4.8488   -1.8424   -0.2785 H   0  0  0  0  0  0  0  0  0  0  0  0
    2.7617   -1.8018   -0.8710 C   0  0  0  0  0  0  0  0  0  0  0  0
    2.7708   -0.7115   -1.0181 H   0  0  0  0  0  0  0  0  0  0  0  0
  1  9  1  0  0  0  0
  2  1  1  0  0  0  0
  2 13  1  0  0  0  0
  3  2  2  0  0  0  0
  4  3  1  0  0  0  0
  5  3  1  0  0  0  0
  5  7  1  0  0  0  0
  6  5  1  0  0  0  0
  7  8  1  0  0  0  0
  7  1  1  0  0  0  0
  9 11  1  0  0  0  0
  9 12  1  0  0  0  0
 10  9  1  0  0  0  0
 13 14  2  0  0  0  0
 13 22  1  0  0  0  0
 14 16  1  0  0  0  0
 15 14  1  0  0  0  0
 16 17  1  0  0  0  0
 16 18  2  0  0  0  0
 18 19  1  0  0  0  0
 20 21  1  0  0  0  0
 20 18  1  0  0  0  0
 22 20  2  0  0  0  0
 23 22  1  0  0  0  0
M  END
