6
q = -1.0, confidence = 0.016

 44 49  0  0  1  0  0  0  0  0999 V2000
    0.8350    0.0806   -0.2026 C   0  0  0  0  0  0  0  0  0  0  0  0
    0.2172    0.3115   -1.4735 C   0  0  0  0  0  0  0  0  0  0  0  0
    0.3489   -0.3017   -2.3713 H   0  0  0  0  0  0  0  0  0  0  0  0
   -0.5818    1.4811   -1.3903 C   0  0  0  0  0  0  0  0  0  0  0  0
   -1.1344    1.9325   -2.2207 H   0  0  0  0  0  0  0  0  0  0  0  0
   -0.4907    1.9768   -0.0494 C   0  0  0  0  0  3  0  0  0  0  0  0
   -0.9601    2.8833    0.3478 H   0  0  0  0  0  0  0  0  0  0  0  0
    0.3672    1.1058    0.6741 C   0  0  0  0  0  0  0  0  0  0  0  0
    0.6211    1.2119    1.7318 H   0  0  0  0  0  0  0  0  0  0  0  0
    1.9311   -0.9514    0.0902 C   0  0  0  0  0  0  0  0  0  0  0  0
    1.6856   -1.5942    1.4684 C   0  0  0  0  0  0  0  0  0  0  0  0
    2.4362   -2.3770    1.6848 H   0  0  0  0  0  0  0  0  0  0  0  0
    0.6852   -2.0659    1.4681 H   0  0  0  0  0  0  0  0  0  0  0  0
    1.7110   -0.8562    2.2909 H   0  0  0  0  0  0  0  0  0  0  0  0
    1.8547   -2.0656   -0.9727 C   0  0  0  0  0  0  0  0  0  0  0  0
    2.4956   -2.9221   -0.7101 H   0  0  0  0  0  0  0  0  0  0  0  0
    2.1376   -1.7155   -1.9807 H   0  0  0  0  0  0  0  0  0  0  0  0
    0.8137   -2.4348   -1.0128 H   0  0  0  0  0  0  0  0  0  0  0  0
    3.3265   -0.1669    0.0586 C   0  0  2  0  0  0  0  0  0  0  0  0
    4.8186   -0.9659   -0.1909 C   0  0  2  0  0  0  0  0  0  0  0  0
    4.9188   -2.4717   -0.3696 C   0  0  0  0  0  0  0  0  0  0  0  0
    4.6150   -2.7841   -1.3834 H   0  0  0  0  0  0  0  0  0  0  0  0
    4.3188   -3.0166    0.3803 H   0  0  0  0  0  0  0  0  0  0  0  0
    5.9765   -2.7564   -0.2223 H   0  0  0  0  0  0  0  0  0  0  0  0
    4.4635   -0.3585    1.3680 B   0  0  1  0  0  0  0  0  0  0  0  0
    4.2195   -1.1466    2.2388 H   0  0  0  0  0  0  0  0  0  0  0  0
    6.0847   -0.1978    0.6748 B   0  0  1  0  0  0  0  0  0  0  0  0
    6.9458   -0.9225    1.1096 H   0  0  0  0  0  0  0  0  0  0  0  0
    5.8997    0.0232   -1.0729 B   0  0  2  0  0  0  0  0  0  0  0  0
    6.6348   -0.5422   -1.8451 H   0  0  0  0  0  0  0  0  0  0  0  0
    4.1631    0.0183   -1.4434 B   0  0  0  0  0  0  0  0  0  0  0  0
    3.7293   -0.5212   -2.4248 H   0  0  0  0  0  0  0  0  0  0  0  0
    3.6049    1.1647    1.1087 B   0  0  0  0  0  0  0  0  0  0  0  0
    2.7416    1.4650    1.8890 H   0  0  0  0  0  0  0  0  0  0  0  0
    5.3381    1.1803    1.4998 B   0  0  0  0  0  0  0  0  0  0  0  0
    5.7247    1.5494    2.5833 H   0  0  0  0  0  0  0  0  0  0  0  0
    6.2389    1.4255   -0.0257 B   0  0  0  0  0  0  0  0  0  0  0  0
    7.3141    1.9758   -0.0644 H   0  0  0  0  0  0  0  0  0  0  0  0
    5.0474    1.5544   -1.3499 B   0  0  1  0  0  0  0  0  0  0  0  0
    5.2254    2.1972   -2.3573 H   0  0  0  0  0  0  0  0  0  0  0  0
    3.4270    1.4106   -0.6402 B   0  0  2  0  0  0  0  0  0  0  0  0
    2.4318    1.8875   -1.1131 H   0  0  0  0  0  0  0  0  0  0  0  0
    4.6989    2.2775    0.2468 B   0  0  0  0  0  0  0  0  0  0  0  0
    4.6133    3.4715    0.4139 H   0  0  0  0  0  0  0  0  0  0  0  0
  1 10  1  0  0  0  0
  1  8  2  0  0  0  0
  2  4  2  0  0  0  0
  2  1  1  0  0  0  0
  3  2  1  0  0  0  0
  4  6  1  0  0  0  0
  5  4  1  0  0  0  0
  6  7  1  0  0  0  0
  6  8  1  0  0  0  0
  8  9  1  0  0  0  0
 10 11  1  0  0  0  0
 11 12  1  0  0  0  0
 11 14  1  0  0  0  0
 13 11  1  0  0  0  0
 15 16  1  0  0  0  0
 15 10  1  0  0  0  0
 17 15  1  0  0  0  0
 18 15  1  0  0  0  0
 19 10  1  1  0  0  0
 19 33  1  0  0  0  0
 20 21  1  6  0  0  0
 20 19  1  0  0  0  0
 20 25  1  0  0  0  0
 21 24  1  0  0  0  0
 21 23  1  0  0  0  0
 22 21  1  0  0  0  0
 25 26  1  1  0  0  0
 27 28  1  1  0  0  0
 27 25  1  0  0  0  0
 27 35  1  0  0  0  0
 29 30  1  6  0  0  0
 29 20  1  0  0  0  0
 29 27  1  0  0  0  0
 31 39  1  0  0  0  0
 31 41  1  0  0  0  0
 32 31  1  0  0  0  0
 33 25  1  0  0  0  0
 33 34  1  0  0  0  0
 35 36  1  0  0  0  0
 37 43  1  0  0  0  0
 37 35  1  0  0  0  0
 38 37  1  0  0  0  0
 39 40  1  6  0  0  0
 39 29  1  0  0  0  0
 39 41  1  0  0  0  0
 41 42  1  6  0  0  0
 41 19  1  0  0  0  0
 43 44  1  0  0  0  0
 43 35  1  0  0  0  0
M  END
