43
 OpenBabel05122313113D

 53 55  0  0  0  0  0  0  0  0999 V2000
   -1.2628   -2.2104   -0.9848 C   0  0  0  0  0  0  0  0  0  0  0  0
   -0.2687   -2.1855    0.0277 C   0  0  0  0  0  0  0  0  0  0  0  0
   -2.9715   -1.7942    0.7283 C   0  0  0  0  0  0  0  0  0  0  0  0
   -0.6144   -1.9438    1.3850 C   0  0  0  0  0  0  0  0  0  0  0  0
   -2.6226   -2.0506   -0.6198 C   0  0  0  0  0  0  0  0  0  0  0  0
    0.4577   -1.8346    2.4482 C   0  0  0  0  0  0  0  0  0  0  0  0
    1.4401   -2.2178    2.1186 H   0  0  0  0  0  0  0  0  0  0  0  0
    0.1881   -2.3917    3.3667 H   0  0  0  0  0  0  0  0  0  0  0  0
    0.6170   -0.7755    2.7457 H   0  0  0  0  0  0  0  0  0  0  0  0
   -1.9700   -1.7228    1.7289 C   0  0  0  0  0  0  0  0  0  0  0  0
   -0.9131   -2.3196   -2.4534 C   0  0  0  0  0  0  0  0  0  0  0  0
    0.1685   -2.2211   -2.6535 H   0  0  0  0  0  0  0  0  0  0  0  0
   -1.4090   -1.5117   -3.0276 H   0  0  0  0  0  0  0  0  0  0  0  0
   -1.2473   -3.2827   -2.8952 H   0  0  0  0  0  0  0  0  0  0  0  0
   -3.7005   -2.0238   -1.6737 C   0  0  0  0  0  0  0  0  0  0  0  0
   -4.6246   -2.5297   -1.3337 H   0  0  0  0  0  0  0  0  0  0  0  0
   -3.3918   -2.4999   -2.6207 H   0  0  0  0  0  0  0  0  0  0  0  0
   -3.9746   -0.9681   -1.8967 H   0  0  0  0  0  0  0  0  0  0  0  0
   -0.3838    4.2441    1.5305 C   0  0  0  0  0  0  0  0  0  0  0  0
   -1.3821    3.7729    1.3908 H   0  0  0  0  0  0  0  0  0  0  0  0
   -0.5333    5.3391    1.4187 H   0  0  0  0  0  0  0  0  0  0  0  0
   -0.0282    4.0371    2.5591 H   0  0  0  0  0  0  0  0  0  0  0  0
   -4.4125   -1.4961    1.0588 C   0  0  0  0  0  0  0  0  0  0  0  0
   -4.6973   -0.5172    0.6156 H   0  0  0  0  0  0  0  0  0  0  0  0
   -4.6054   -1.4405    2.1434 H   0  0  0  0  0  0  0  0  0  0  0  0
   -5.1001   -2.2555    0.6350 H   0  0  0  0  0  0  0  0  0  0  0  0
   -2.3597   -1.3421    3.1395 C   0  0  0  0  0  0  0  0  0  0  0  0
   -2.8229   -0.3332    3.1544 H   0  0  0  0  0  0  0  0  0  0  0  0
   -1.4995   -1.3141    3.8294 H   0  0  0  0  0  0  0  0  0  0  0  0
   -3.1048   -2.0434    3.5694 H   0  0  0  0  0  0  0  0  0  0  0  0
    1.9827   -1.1271   -0.3015 N   0  0  0  0  0  0  0  0  0  0  0  0
    2.5969    0.9668   -0.3313 N   0  0  0  0  0  0  0  0  0  0  0  0
    3.3712   -1.1297   -0.1686 C   0  0  0  0  0  0  0  0  0  0  0  0
    4.3051   -2.1685   -0.0374 C   0  0  0  0  0  0  0  0  0  0  0  0
    3.9983   -3.2235   -0.0377 H   0  0  0  0  0  0  0  0  0  0  0  0
    3.7709    0.2298   -0.1828 C   0  0  0  0  0  0  0  0  0  0  0  0
    5.1214    0.5904   -0.0592 C   0  0  0  0  0  0  0  0  0  0  0  0
    5.4432    1.6412   -0.0685 H   0  0  0  0  0  0  0  0  0  0  0  0
    6.0536   -0.4488    0.0767 C   0  0  0  0  0  0  0  0  0  0  0  0
    7.1209   -0.2017    0.1751 H   0  0  0  0  0  0  0  0  0  0  0  0
    5.6538   -1.8038    0.0872 C   0  0  0  0  0  0  0  0  0  0  0  0
    6.4161   -2.5897    0.1918 H   0  0  0  0  0  0  0  0  0  0  0  0
    1.5008    0.1482   -0.4027 C   0  0  0  0  0  2  0  0  0  0  0  0
    2.5190    2.4389   -0.3875 C   0  0  0  0  0  0  0  0  0  0  0  0
    2.1098    2.7297   -1.3765 H   0  0  0  0  0  0  0  0  0  0  0  0
    3.5641    2.8063   -0.3387 H   0  0  0  0  0  0  0  0  0  0  0  0
    0.5458    3.7128    0.4908 C   0  0  0  0  0  0  0  0  0  0  0  0
    0.2375    3.8782   -0.5586 H   0  0  0  0  0  0  0  0  0  0  0  0
    1.1860   -2.3715   -0.3280 C   0  0  0  0  0  0  0  0  0  0  0  0
    1.6710   -3.0629    0.3893 H   0  0  0  0  0  0  0  0  0  0  0  0
    1.3053   -2.8307   -1.3273 H   0  0  0  0  0  0  0  0  0  0  0  0
    1.6795    3.0177    0.7151 C   0  0  0  0  0  0  0  0  0  0  0  0
    2.0078    2.8054    1.7487 H   0  0  0  0  0  0  0  0  0  0  0  0
  1  5  2  0  0  0  0
  1  2  1  0  0  0  0
  2  4  2  0  0  0  0
  3 23  1  0  0  0  0
  3 10  2  0  0  0  0
  4 10  1  0  0  0  0
  4  6  1  0  0  0  0
  5  3  1  0  0  0  0
  6  9  1  0  0  0  0
  6  8  1  0  0  0  0
  7  6  1  0  0  0  0
 10 27  1  0  0  0  0
 11  1  1  0  0  0  0
 12 11  1  0  0  0  0
 13 11  1  0  0  0  0
 14 11  1  0  0  0  0
 15 16  1  0  0  0  0
 15  5  1  0  0  0  0
 17 15  1  0  0  0  0
 18 15  1  0  0  0  0
 19 22  1  0  0  0  0
 20 19  1  0  0  0  0
 21 19  1  0  0  0  0
 23 25  1  0  0  0  0
 24 23  1  0  0  0  0
 26 23  1  0  0  0  0
 27 28  1  0  0  0  0
 27 30  1  0  0  0  0
 27 29  1  0  0  0  0
 31 33  1  0  0  0  0
 32 36  1  0  0  0  0
 33 34  1  0  0  0  0
 34 41  2  0  0  0  0
 35 34  1  0  0  0  0
 36 33  2  0  0  0  0
 36 37  1  0  0  0  0
 37 39  2  0  0  0  0
 38 37  1  0  0  0  0
 39 41  1  0  0  0  0
 39 40  1  0  0  0  0
 41 42  1  0  0  0  0
 43 32  1  0  0  0  0
 43 31  1  0  0  0  0
 44 46  1  0  0  0  0
 44 32  1  0  0  0  0
 44 52  1  0  0  0  0
 45 44  1  0  0  0  0
 47 52  2  0  0  0  0
 47 19  1  0  0  0  0
 48 47  1  0  0  0  0
 49 31  1  0  0  0  0
 49  2  1  0  0  0  0
 49 50  1  0  0  0  0
 51 49  1  0  0  0  0
 52 53  1  0  0  0  0
M  END
