1
 OpenBabel05122313113D

 16 16  0  0  0  0  0  0  0  0999 V2000
   -1.2098    0.0158    0.0004 C   0  0  0  0  0  1  0  0  0  0  0  0
   -2.3939    0.0175    0.0004 N   0  0  0  0  0  2  0  0  0  0  0  0
   -3.7700    0.0189    0.0002 C   0  0  0  0  0  0  0  0  0  0  0  0
   -4.4666   -1.2100    0.0001 C   0  0  0  0  0  0  0  0  0  0  0  0
   -3.9016   -2.1524    0.0002 H   0  0  0  0  0  0  0  0  0  0  0  0
   -5.8634   -1.2022   -0.0000 C   0  0  0  0  0  0  0  0  0  0  0  0
   -6.4214   -2.1483   -0.0001 H   0  0  0  0  0  0  0  0  0  0  0  0
   -6.5674    0.0193   -0.0001 C   0  0  0  0  0  0  0  0  0  0  0  0
   -5.8609    1.2388   -0.0000 C   0  0  0  0  0  0  0  0  0  0  0  0
   -6.4369    2.1756   -0.0001 H   0  0  0  0  0  0  0  0  0  0  0  0
   -4.4659    1.2491    0.0001 C   0  0  0  0  0  0  0  0  0  0  0  0
   -3.9007    2.1914    0.0002 H   0  0  0  0  0  0  0  0  0  0  0  0
   -8.0619    0.0810   -0.0002 C   0  0  0  0  0  0  0  0  0  0  0  0
   -8.7058    1.1150   -0.0002 O   0  0  0  0  0  0  0  0  0  0  0  0
   -8.6330   -1.1486   -0.0003 O   0  0  0  0  0  0  0  0  0  0  0  0
   -9.6019   -0.9909   -0.0004 H   0  0  0  0  0  0  0  0  0  0  0  0
  1  2  1  0  0  0  0
  3  2  1  0  0  0  0
  4  3  1  0  0  0  0
  4  5  1  0  0  0  0
  6  4  2  0  0  0  0
  7  6  1  0  0  0  0
  8  9  2  0  0  0  0
  8  6  1  0  0  0  0
  9 11  1  0  0  0  0
 10  9  1  0  0  0  0
 11 12  1  0  0  0  0
 11  3  2  0  0  0  0
 13  8  1  0  0  0  0
 14 13  2  0  0  0  0
 15 13  1  0  0  0  0
 16 15  1  0  0  0  0
M  END
