4
 OpenBabel05122313113D

 19 19  0  0  0  0  0  0  0  0999 V2000
   -0.8481   -4.3422   -0.7214 S   0  0  0  0  0  1  0  0  0  0  0  0
    1.3764   -2.7637    1.1498 N   0  0  0  0  0  0  0  0  0  0  0  0
   -0.6352   -2.8032   -0.1794 C   0  0  0  0  0  3  0  0  0  0  0  0
    0.3012   -2.1715    0.6448 C   0  0  0  0  0  3  0  0  0  0  0  0
    2.4941   -2.0945    1.8109 C   0  0  0  0  0  0  0  0  0  0  0  0
    3.1265   -2.8861    2.2633 H   0  0  0  0  0  0  0  0  0  0  0  0
    2.1095   -1.4700    2.6408 H   0  0  0  0  0  0  0  0  0  0  0  0
    3.3248   -1.2308    0.8789 C   0  0  0  0  0  0  0  0  0  0  0  0
    3.4087    0.1576    1.0826 C   0  0  0  0  0  0  0  0  0  0  0  0
    2.8647    0.6132    1.9242 H   0  0  0  0  0  0  0  0  0  0  0  0
    4.1759    0.9594    0.2232 C   0  0  0  0  0  0  0  0  0  0  0  0
    4.2336    2.0451    0.3970 H   0  0  0  0  0  0  0  0  0  0  0  0
    4.8619    0.3811   -0.8542 C   0  0  0  0  0  0  0  0  0  0  0  0
    5.4576    1.0100   -1.5331 H   0  0  0  0  0  0  0  0  0  0  0  0
    4.7793   -1.0049   -1.0684 C   0  0  0  0  0  0  0  0  0  0  0  0
    5.3134   -1.4651   -1.9136 H   0  0  0  0  0  0  0  0  0  0  0  0
    4.0164   -1.8043   -0.2068 C   0  0  0  0  0  0  0  0  0  0  0  0
    3.9553   -2.8910   -0.3796 H   0  0  0  0  0  0  0  0  0  0  0  0
    1.4656   -3.7683    0.9178 H   0  0  0  0  0  0  0  0  0  0  0  0
  1  3  1  0  0  0  0
  2  5  1  0  0  0  0
  3  4  2  0  0  0  0
  4  2  1  0  0  0  0
  5  6  1  0  0  0  0
  5  7  1  0  0  0  0
  8  9  1  0  0  0  0
  8  5  1  0  0  0  0
  9 10  1  0  0  0  0
 11 12  1  0  0  0  0
 11  9  2  0  0  0  0
 13 11  1  0  0  0  0
 14 13  1  0  0  0  0
 15 13  2  0  0  0  0
 15 17  1  0  0  0  0
 16 15  1  0  0  0  0
 17  8  2  0  0  0  0
 18 17  1  0  0  0  0
 19  2  1  0  0  0  0
M  END
