3
q = 0.0, confidence = 0.828

 13 13  0  0  0  0  0  0  0  0999 V2000
   -0.0585    0.4634    2.1856 C   0  0  0  0  0  3  0  0  0  0  0  0
    1.0057    0.7308    2.2987 H   0  0  0  0  0  0  0  0  0  0  0  0
   -0.4926   -0.9184    1.9825 C   0  0  0  0  0  3  0  0  0  0  0  0
    0.2452   -1.7389    2.0341 H   0  0  0  0  0  0  0  0  0  0  0  0
   -1.7753   -1.1387    2.7871 C   0  0  0  0  0  0  0  0  0  0  0  0
   -2.5383   -1.7684    2.2852 H   0  0  0  0  0  0  0  0  0  0  0  0
   -1.5125   -1.6739    3.7292 H   0  0  0  0  0  0  0  0  0  0  0  0
   -2.2967    0.2735    3.1122 C   0  0  0  0  0  0  0  0  0  0  0  0
   -2.8724    0.3109    4.0589 H   0  0  0  0  0  0  0  0  0  0  0  0
   -2.9755    0.6288    2.3121 H   0  0  0  0  0  0  0  0  0  0  0  0
   -1.0249    1.1423    3.1519 C   0  0  0  0  0  0  0  0  0  0  0  0
   -1.2245    2.2136    2.9424 H   0  0  0  0  0  0  0  0  0  0  0  0
   -0.5659    1.0982    4.1664 H   0  0  0  0  0  0  0  0  0  0  0  0
  1  2  1  0  0  0  0
  1 11  1  0  0  0  0
  3  4  1  0  0  0  0
  3  1  1  0  0  0  0
  3  5  1  0  0  0  0
  5  8  1  0  0  0  0
  5  7  1  0  0  0  0
  6  5  1  0  0  0  0
  8 11  1  0  0  0  0
  8  9  1  0  0  0  0
 10  8  1  0  0  0  0
 11 13  1  0  0  0  0
 12 11  1  0  0  0  0
M  END
