3
 OpenBabel05122313113D

 24 24  0  0  0  0  0  0  0  0999 V2000
   -6.4005   -0.1432   -1.0384 F   0  0  0  0  0  0  0  0  0  0  0  0
   -5.7043    1.9006   -1.3675 F   0  0  0  0  0  0  0  0  0  0  0  0
   -1.0438    0.5461    1.1173 C   0  0  0  0  0  3  0  0  0  0  0  0
   -1.2058    0.7130    2.5061 C   0  0  0  0  0  0  0  0  0  0  0  0
   -0.5194    0.2061    3.2016 H   0  0  0  0  0  0  0  0  0  0  0  0
   -2.2403    1.5183    3.0139 C   0  0  0  0  0  0  0  0  0  0  0  0
   -2.3566    1.6400    4.1024 H   0  0  0  0  0  0  0  0  0  0  0  0
   -3.1254    2.1505    2.1288 C   0  0  0  0  0  0  0  0  0  0  0  0
   -3.9439    2.7781    2.5134 H   0  0  0  0  0  0  0  0  0  0  0  0
   -2.9794    1.9659    0.7454 C   0  0  0  0  0  0  0  0  0  0  0  0
   -3.6979    2.4493    0.0668 H   0  0  0  0  0  0  0  0  0  0  0  0
   -1.9465    1.1620    0.2136 C   0  0  0  0  0  0  0  0  0  0  0  0
   -1.7756    0.9769   -1.2834 C   0  0  0  0  0  0  0  0  0  0  0  0
   -1.3057   -0.0158   -1.4498 H   0  0  0  0  0  0  0  0  0  0  0  0
   -1.0291    1.7128   -1.6627 H   0  0  0  0  0  0  0  0  0  0  0  0
   -3.0501    1.1039   -2.1392 C   0  0  0  0  0  0  0  0  0  0  0  0
   -3.4320    2.1438   -2.1215 H   0  0  0  0  0  0  0  0  0  0  0  0
   -2.7630    0.9026   -3.1961 H   0  0  0  0  0  0  0  0  0  0  0  0
   -4.1471    0.1433   -1.7447 C   0  0  0  0  0  0  0  0  0  0  0  0
   -5.3600    0.6063   -1.4011 C   0  0  0  0  0  0  0  0  0  0  0  0
   -3.8471   -1.3291   -1.7136 C   0  0  0  0  0  0  0  0  0  0  0  0
   -4.7532   -1.9324   -1.5209 H   0  0  0  0  0  0  0  0  0  0  0  0
   -3.1019   -1.5708   -0.9240 H   0  0  0  0  0  0  0  0  0  0  0  0
   -3.4059   -1.6601   -2.6784 H   0  0  0  0  0  0  0  0  0  0  0  0
  3  4  1  0  0  0  0
  4  6  2  0  0  0  0
  4  5  1  0  0  0  0
  6  7  1  0  0  0  0
  8  9  1  0  0  0  0
  8  6  1  0  0  0  0
 10  8  2  0  0  0  0
 11 10  1  0  0  0  0
 12 10  1  0  0  0  0
 12  3  2  0  0  0  0
 13 12  1  0  0  0  0
 14 13  1  0  0  0  0
 15 13  1  0  0  0  0
 16 17  1  0  0  0  0
 16 19  1  0  0  0  0
 16 13  1  0  0  0  0
 18 16  1  0  0  0  0
 19 21  1  0  0  0  0
 19 20  2  0  0  0  0
 20  2  1  0  0  0  0
 20  1  1  0  0  0  0
 21 22  1  0  0  0  0
 21 23  1  0  0  0  0
 24 21  1  0  0  0  0
M  END
