13
 OpenBabel05122313113D

 13 12  0  0  0  0  0  0  0  0999 V2000
    2.6159   -1.5116    0.8548 Cl  0  0  0  0  0  0  0  0  0  0  0  0
    1.8820   -1.3384   -1.7065 O   0  0  0  0  0  0  0  0  0  0  0  0
    1.7655    1.5038   -0.1284 N   0  0  0  0  0  0  0  0  0  0  0  0
    1.7914   -0.8104   -0.6355 C   0  0  0  0  0  0  0  0  0  0  0  0
    1.2287    2.7776    0.3508 C   0  0  0  0  0  0  0  0  0  0  0  0
    1.0590    3.4698   -0.4991 H   0  0  0  0  0  0  0  0  0  0  0  0
    1.9603    3.2373    1.0443 H   0  0  0  0  0  0  0  0  0  0  0  0
    0.2796    2.6149    0.8821 H   0  0  0  0  0  0  0  0  0  0  0  0
    3.2011    1.5651   -0.4393 C   0  0  0  0  0  0  0  0  0  0  0  0
    3.5031    0.7160   -1.0761 H   0  0  0  0  0  0  0  0  0  0  0  0
    3.7962    1.5477    0.4969 H   0  0  0  0  0  0  0  0  0  0  0  0
    3.4138    2.5065   -0.9828 H   0  0  0  0  0  0  0  0  0  0  0  0
    1.0334    0.4004   -0.2315 C   0  0  0  0  0  2  0  0  0  0  0  0
  2  4  2  0  0  0  0
  3  5  1  0  0  0  0
  4 13  1  0  0  0  0
  4  1  1  0  0  0  0
  5  8  1  0  0  0  0
  5  7  1  0  0  0  0
  6  5  1  0  0  0  0
  9  3  1  0  0  0  0
  9 11  1  0  0  0  0
 10  9  1  0  0  0  0
 12  9  1  0  0  0  0
 13  3  1  0  0  0  0
M  END
