17
 OpenBabel05122313113D

 35 35  0  0  1  0  0  0  0  0999 V2000
  -10.2934    1.1065   -0.6937 C   0  0  0  0  0  0  0  0  0  0  0  0
  -10.7834    2.0247   -1.0749 H   0  0  0  0  0  0  0  0  0  0  0  0
  -10.7442    0.8639    0.2880 H   0  0  0  0  0  0  0  0  0  0  0  0
  -10.5448    0.2779   -1.3887 H   0  0  0  0  0  0  0  0  0  0  0  0
   -9.5466   -1.0946    1.4033 O   0  0  0  0  0  0  0  0  0  0  0  0
   -6.2780   -1.0520   -1.9910 O   0  0  0  0  0  0  0  0  0  0  0  0
   -6.6084    0.1573   -0.0808 N   0  0  0  0  0  0  0  0  0  0  0  0
   -6.2047    0.6139    0.7394 H   0  0  0  0  0  0  0  0  0  0  0  0
   -0.0870   -0.1580   -0.3376 C   0  0  0  0  0  0  0  0  0  0  0  0
   -4.3301   -0.3608   -0.7733 C   0  0  0  0  0  0  0  0  0  0  0  0
   -3.7494   -0.0348    0.4709 C   0  0  0  0  0  0  0  0  0  0  0  0
   -4.3790    0.1419    1.3576 H   0  0  0  0  0  0  0  0  0  0  0  0
   -1.5033   -0.2300   -0.4828 C   0  0  0  0  0  0  0  0  0  0  0  0
   -5.8107   -0.4652   -1.0102 C   0  0  0  0  0  0  0  0  0  0  0  0
   -8.7755    1.3062   -0.6160 C   0  0  0  0  0  0  0  0  0  0  0  0
   -8.5616    2.1170    0.1181 H   0  0  0  0  0  0  0  0  0  0  0  0
    1.1421   -0.0955   -0.2129 C   0  0  0  0  0  3  0  0  0  0  0  0
   -3.4806   -0.6414   -1.8633 C   0  0  0  0  0  0  0  0  0  0  0  0
   -3.9509   -0.9186   -2.8183 H   0  0  0  0  0  0  0  0  0  0  0  0
   -2.3614    0.0312    0.6175 C   0  0  0  0  0  0  0  0  0  0  0  0
   -1.9168    0.2783    1.5922 H   0  0  0  0  0  0  0  0  0  0  0  0
   -8.0503    0.0283   -0.0866 C   0  0  2  0  0  0  0  0  0  0  0  0
   -8.3031   -0.8202   -0.7552 H   0  0  0  0  0  0  0  0  0  0  0  0
  -10.0302   -1.3846    2.7238 C   0  0  0  0  0  0  0  0  0  0  0  0
   -9.2415   -1.8726    3.3303 H   0  0  0  0  0  0  0  0  0  0  0  0
  -10.8922   -2.0615    2.5911 H   0  0  0  0  0  0  0  0  0  0  0  0
  -10.3419   -0.4550    3.2411 H   0  0  0  0  0  0  0  0  0  0  0  0
   -8.2018    1.7187   -1.9757 C   0  0  0  0  0  0  0  0  0  0  0  0
   -8.3277    0.9081   -2.7215 H   0  0  0  0  0  0  0  0  0  0  0  0
   -7.1200    1.9426   -1.9085 H   0  0  0  0  0  0  0  0  0  0  0  0
   -8.7165    2.6259   -2.3516 H   0  0  0  0  0  0  0  0  0  0  0  0
   -2.0939   -0.5726   -1.7287 C   0  0  0  0  0  0  0  0  0  0  0  0
   -1.4389   -0.7848   -2.5861 H   0  0  0  0  0  0  0  0  0  0  0  0
   -7.9098    0.1708    2.3299 O   0  0  0  0  0  0  0  0  0  0  0  0
   -8.4711   -0.2825    1.3464 C   0  0  0  0  0  0  0  0  0  0  0  0
  1 15  1  0  0  0  0
  1  3  1  0  0  0  0
  2  1  1  0  0  0  0
  4  1  1  0  0  0  0
  5 24  1  0  0  0  0
  6 14  2  0  0  0  0
  7  8  1  0  0  0  0
  9 17  3  0  0  0  0
 10 11  1  0  0  0  0
 11 20  2  0  0  0  0
 11 12  1  0  0  0  0
 13  9  1  0  0  0  0
 13 20  1  0  0  0  0
 14 10  1  0  0  0  0
 14  7  1  0  0  0  0
 15 22  1  0  0  0  0
 15 16  1  0  0  0  0
 18 32  1  0  0  0  0
 18 10  2  0  0  0  0
 19 18  1  0  0  0  0
 20 21  1  0  0  0  0
 22 23  1  6  0  0  0
 22  7  1  0  0  0  0
 22 35  1  0  0  0  0
 24 27  1  0  0  0  0
 24 25  1  0  0  0  0
 26 24  1  0  0  0  0
 28 30  1  0  0  0  0
 28 15  1  0  0  0  0
 29 28  1  0  0  0  0
 31 28  1  0  0  0  0
 32 13  2  0  0  0  0
 33 32  1  0  0  0  0
 35  5  1  0  0  0  0
 35 34  2  0  0  0  0
M  END
