29
 OpenBabel05122313113D

 42 45  0  0  0  0  0  0  0  0999 V2000
   -4.9761   -0.3583   -1.0338 N   0  0  0  0  0  0  0  0  0  0  0  0
   -1.7841    2.4217   -0.5564 N   0  0  0  0  0  0  0  0  0  0  0  0
    0.2040    3.1357   -0.1071 N   0  0  0  0  0  0  0  0  0  0  0  0
   -3.9270    1.4915    0.2102 C   0  0  0  0  0  0  0  0  0  0  0  0
   -3.9823    2.3307    1.3686 C   0  0  0  0  0  0  0  0  0  0  0  0
   -3.1730    3.0515    1.5548 H   0  0  0  0  0  0  0  0  0  0  0  0
   -5.0433    2.2328    2.2491 C   0  0  0  0  0  0  0  0  0  0  0  0
   -5.0779    2.8819    3.1367 H   0  0  0  0  0  0  0  0  0  0  0  0
   -6.0987    1.2964    2.0233 C   0  0  0  0  0  0  0  0  0  0  0  0
   -6.9356    1.2441    2.7354 H   0  0  0  0  0  0  0  0  0  0  0  0
   -6.0689    0.4572    0.9278 C   0  0  0  0  0  0  0  0  0  0  0  0
   -6.8591   -0.2814    0.7330 H   0  0  0  0  0  0  0  0  0  0  0  0
   -4.9846    0.5138   -0.0088 C   0  0  0  0  0  0  0  0  0  0  0  0
   -3.9670   -0.3198   -1.9234 C   0  0  0  0  0  0  0  0  0  0  0  0
   -3.9651   -1.2747   -2.9941 C   0  0  0  0  0  0  0  0  0  0  0  0
   -4.8040   -1.9841   -3.0324 H   0  0  0  0  0  0  0  0  0  0  0  0
   -2.9523   -1.2808   -3.9326 C   0  0  0  0  0  0  0  0  0  0  0  0
   -2.9641   -2.0150   -4.7520 H   0  0  0  0  0  0  0  0  0  0  0  0
   -1.8939   -0.3233   -3.8633 C   0  0  0  0  0  0  0  0  0  0  0  0
   -1.1087   -0.3276   -4.6339 H   0  0  0  0  0  0  0  0  0  0  0  0
   -1.8516    0.6128   -2.8469 C   0  0  0  0  0  0  0  0  0  0  0  0
   -1.0382    1.3510   -2.8089 H   0  0  0  0  0  0  0  0  0  0  0  0
   -2.8713    0.6347   -1.8409 C   0  0  0  0  0  0  0  0  0  0  0  0
   -2.8833    1.5197   -0.7396 C   0  0  0  0  0  0  0  0  0  0  0  0
   -1.8288    3.8059   -0.6908 C   0  0  0  0  0  0  0  0  0  0  0  0
   -2.7420    4.3388   -0.9710 H   0  0  0  0  0  0  0  0  0  0  0  0
   -0.5628    4.2538   -0.4110 C   0  0  0  0  0  0  0  0  0  0  0  0
   -0.1504    5.2674   -0.4019 H   0  0  0  0  0  0  0  0  0  0  0  0
   -0.5311    1.9949   -0.1987 C   0  0  0  0  0  2  0  0  0  0  0  0
    1.6471    3.1666    0.1629 C   0  0  0  0  0  0  0  0  0  0  0  0
    1.8814    4.1660    0.5808 H   0  0  0  0  0  0  0  0  0  0  0  0
    1.8583    2.4205    0.9552 H   0  0  0  0  0  0  0  0  0  0  0  0
    2.4789    2.8913   -1.0924 C   0  0  0  0  0  0  0  0  0  0  0  0
    2.1114    3.5414   -1.9170 H   0  0  0  0  0  0  0  0  0  0  0  0
    2.2930    1.8425   -1.4164 H   0  0  0  0  0  0  0  0  0  0  0  0
    3.9787    3.1198   -0.8825 C   0  0  0  0  0  0  0  0  0  0  0  0
    4.1464    4.1783   -0.5835 H   0  0  0  0  0  0  0  0  0  0  0  0
    4.3406    2.4987   -0.0354 H   0  0  0  0  0  0  0  0  0  0  0  0
    4.8015    2.7980   -2.1302 C   0  0  0  0  0  0  0  0  0  0  0  0
    4.4967    3.4244   -2.9942 H   0  0  0  0  0  0  0  0  0  0  0  0
    5.8814    2.9722   -1.9549 H   0  0  0  0  0  0  0  0  0  0  0  0
    4.6810    1.7356   -2.4269 H   0  0  0  0  0  0  0  0  0  0  0  0
  1 13  1  0  0  0  0
  2 29  1  0  0  0  0
  3 30  1  0  0  0  0
  4  5  1  0  0  0  0
  5  6  1  0  0  0  0
  5  7  2  0  0  0  0
  7  8  1  0  0  0  0
  9  7  1  0  0  0  0
  9 10  1  0  0  0  0
 11  9  2  0  0  0  0
 12 11  1  0  0  0  0
 13  4  2  0  0  0  0
 13 11  1  0  0  0  0
 14 23  1  0  0  0  0
 14  1  2  0  0  0  0
 15 14  1  0  0  0  0
 16 15  1  0  0  0  0
 17 19  1  0  0  0  0
 17 15  2  0  0  0  0
 18 17  1  0  0  0  0
 19 21  2  0  0  0  0
 20 19  1  0  0  0  0
 21 22  1  0  0  0  0
 21 23  1  0  0  0  0
 23 24  2  0  0  0  0
 24  2  1  0  0  0  0
 24  4  1  0  0  0  0
 25  2  1  0  0  0  0
 25 27  2  0  0  0  0
 26 25  1  0  0  0  0
 27 28  1  0  0  0  0
 27  3  1  0  0  0  0
 29  3  1  0  0  0  0
 30 31  1  0  0  0  0
 30 32  1  0  0  0  0
 33 36  1  0  0  0  0
 33 30  1  0  0  0  0
 34 33  1  0  0  0  0
 35 33  1  0  0  0  0
 36 37  1  0  0  0  0
 36 38  1  0  0  0  0
 39 41  1  0  0  0  0
 39 36  1  0  0  0  0
 40 39  1  0  0  0  0
 42 39  1  0  0  0  0
M  END
