6
q = 0.0, confidence = 0.882

 11 10  0  0  0  0  0  0  0  0999 V2000
   -3.0193   -0.3530   -1.5179 O   0  0  0  0  0  0  0  0  0  0  0  0
   -3.6864    0.3560   -1.4917 H   0  0  0  0  0  0  0  0  0  0  0  0
    0.6859    1.2269   -2.1034 C   0  0  0  0  0  3  0  0  0  0  0  0
   -0.0629    1.9786   -2.4108 H   0  0  0  0  0  0  0  0  0  0  0  0
    1.7087    1.6293   -2.0980 H   0  0  0  0  0  0  0  0  0  0  0  0
    0.5038   -0.1426   -2.4921 C   0  0  0  0  0  3  0  0  0  0  0  0
    1.3223   -0.7854   -2.8544 H   0  0  0  0  0  0  0  0  0  0  0  0
   -0.7938   -0.6846   -2.3135 C   0  0  0  0  0  3  0  0  0  0  0  0
   -1.0188   -1.7411   -2.5220 H   0  0  0  0  0  0  0  0  0  0  0  0
   -1.7859    0.2001   -1.7904 C   0  0  0  0  0  3  0  0  0  0  0  0
   -1.8235    1.2472   -2.1373 H   0  0  0  0  0  0  0  0  0  0  0  0
  1  2  1  0  0  0  0
  3  5  1  0  0  0  0
  4  3  1  0  0  0  0
  6  8  1  0  0  0  0
  6  3  1  0  0  0  0
  7  6  1  0  0  0  0
  8 10  1  0  0  0  0
  9  8  1  0  0  0  0
 10  1  1  0  0  0  0
 11 10  1  0  0  0  0
M  END
