7
 OpenBabel05122313113D

 26 26  0  0  0  0  0  0  0  0999 V2000
   -3.0601   -0.7901    0.0224 Si  0  0  0  0  0  0  0  0  0  0  0  0
   -1.6706    0.4874   -0.1434 C   0  0  0  0  0  0  0  0  0  0  0  0
   -1.0755    1.2394    0.9265 C   0  0  0  0  0  0  0  0  0  0  0  0
   -1.2802    1.0884    1.9928 H   0  0  0  0  0  0  0  0  0  0  0  0
   -0.1540    2.1678    0.3886 C   0  0  0  0  0  0  0  0  0  0  0  0
    0.4312    2.8930    0.9618 H   0  0  0  0  0  0  0  0  0  0  0  0
   -0.1460    2.0001   -1.0343 C   0  0  0  0  0  3  0  0  0  0  0  0
    0.4490    2.5703   -1.7557 H   0  0  0  0  0  0  0  0  0  0  0  0
   -1.0974    0.9935   -1.3485 C   0  0  0  0  0  0  0  0  0  0  0  0
   -1.3093    0.6228   -2.3573 H   0  0  0  0  0  0  0  0  0  0  0  0
   -4.5421   -0.0292   -0.9378 C   0  0  0  0  0  0  0  0  0  0  0  0
   -4.2689   -0.0368   -2.0162 H   0  0  0  0  0  0  0  0  0  0  0  0
   -5.4082   -0.7143   -0.8100 H   0  0  0  0  0  0  0  0  0  0  0  0
   -4.8639    1.3532   -0.4702 C   0  0  0  0  0  0  0  0  0  0  0  0
   -4.1504    2.1397   -0.7802 H   0  0  0  0  0  0  0  0  0  0  0  0
   -5.8887    1.7030    0.3322 C   0  0  0  0  0  0  0  0  0  0  0  0
   -6.6270    0.9601    0.6792 H   0  0  0  0  0  0  0  0  0  0  0  0
   -6.0276    2.7423    0.6675 H   0  0  0  0  0  0  0  0  0  0  0  0
   -2.6418   -2.4567   -0.7473 C   0  0  0  0  0  0  0  0  0  0  0  0
   -3.5226   -3.1300   -0.6989 H   0  0  0  0  0  0  0  0  0  0  0  0
   -1.7983   -2.9216   -0.2007 H   0  0  0  0  0  0  0  0  0  0  0  0
   -2.3340   -2.3456   -1.8053 H   0  0  0  0  0  0  0  0  0  0  0  0
   -3.5335   -0.9385    1.8408 C   0  0  0  0  0  0  0  0  0  0  0  0
   -3.8947    0.0343    2.2321 H   0  0  0  0  0  0  0  0  0  0  0  0
   -2.6621   -1.2707    2.4388 H   0  0  0  0  0  0  0  0  0  0  0  0
   -4.3484   -1.6804    1.9687 H   0  0  0  0  0  0  0  0  0  0  0  0
  1 23  1  0  0  0  0
  2  1  1  0  0  0  0
  2  3  1  0  0  0  0
  3  4  1  0  0  0  0
  5  3  2  0  0  0  0
  5  6  1  0  0  0  0
  7  5  1  0  0  0  0
  8  7  1  0  0  0  0
  9  7  1  0  0  0  0
  9  2  2  0  0  0  0
 10  9  1  0  0  0  0
 11 13  1  0  0  0  0
 11 14  1  0  0  0  0
 11  1  1  0  0  0  0
 12 11  1  0  0  0  0
 14 16  2  0  0  0  0
 15 14  1  0  0  0  0
 16 18  1  0  0  0  0
 16 17  1  0  0  0  0
 19 20  1  0  0  0  0
 19 21  1  0  0  0  0
 19  1  1  0  0  0  0
 22 19  1  0  0  0  0
 23 26  1  0  0  0  0
 23 24  1  0  0  0  0
 23 25  1  0  0  0  0
M  END
