1
 OpenBabel05122313113D

 11 11  0  0  0  0  0  0  0  0999 V2000
   -0.5970    2.1103   -0.0449 C   0  0  0  0  0  3  0  0  0  0  0  0
   -1.8258    2.6702   -0.4236 C   0  0  0  0  0  0  0  0  0  0  0  0
   -2.8708    1.8887   -0.8276 F   0  0  0  0  0  0  0  0  0  0  0  0
   -2.0682    4.0557   -0.4415 C   0  0  0  0  0  0  0  0  0  0  0  0
   -3.2864    4.4998   -0.8129 F   0  0  0  0  0  0  0  0  0  0  0  0
   -1.0627    4.9587   -0.0918 C   0  0  0  0  0  0  0  0  0  0  0  0
   -1.2754    6.0368   -0.1182 H   0  0  0  0  0  0  0  0  0  0  0  0
    0.1897    4.4387    0.2763 C   0  0  0  0  0  0  0  0  0  0  0  0
    1.0052    5.1267    0.5474 H   0  0  0  0  0  0  0  0  0  0  0  0
    0.4104    3.0536    0.2975 C   0  0  0  0  0  0  0  0  0  0  0  0
    1.4061    2.6810    0.5776 H   0  0  0  0  0  0  0  0  0  0  0  0
  1 10  1  0  0  0  0
  2  1  2  0  0  0  0
  3  2  1  0  0  0  0
  4  2  1  0  0  0  0
  4  6  2  0  0  0  0
  5  4  1  0  0  0  0
  6  8  1  0  0  0  0
  7  6  1  0  0  0  0
  8 10  2  0  0  0  0
  8  9  1  0  0  0  0
 10 11  1  0  0  0  0
M  END
