1
 OpenBabel05122313113D

 23 23  0  0  0  0  0  0  0  0999 V2000
   -1.4780    1.0836    0.1370 C   0  0  0  0  0  3  0  0  0  0  0  0
   -2.2255    0.8539    1.3060 C   0  0  0  0  0  0  0  0  0  0  0  0
   -3.5998    0.5773    1.2255 C   0  0  0  0  0  0  0  0  0  0  0  0
   -4.2797    0.5268   -0.0097 C   0  0  0  0  0  0  0  0  0  0  0  0
   -3.5238    0.8031   -1.1658 C   0  0  0  0  0  0  0  0  0  0  0  0
   -2.1486    1.0809   -1.0972 C   0  0  0  0  0  0  0  0  0  0  0  0
   -5.7814    0.1918   -0.0512 C   0  0  0  0  0  0  0  0  0  0  0  0
   -6.3160    0.1112   -1.4917 C   0  0  0  0  0  0  0  0  0  0  0  0
   -6.0231   -1.1750    0.6284 C   0  0  0  0  0  0  0  0  0  0  0  0
   -6.5684    1.2869    0.7038 C   0  0  0  0  0  0  0  0  0  0  0  0
   -1.7485    0.8915    2.2959 H   0  0  0  0  0  0  0  0  0  0  0  0
   -4.1498    0.3954    2.1628 H   0  0  0  0  0  0  0  0  0  0  0  0
   -4.0007    0.7967   -2.1556 H   0  0  0  0  0  0  0  0  0  0  0  0
   -1.5971    1.2798   -2.0279 H   0  0  0  0  0  0  0  0  0  0  0  0
   -7.3932   -0.1523   -1.4808 H   0  0  0  0  0  0  0  0  0  0  0  0
   -5.7844   -0.6630   -2.0818 H   0  0  0  0  0  0  0  0  0  0  0  0
   -6.2148    1.0784   -2.0237 H   0  0  0  0  0  0  0  0  0  0  0  0
   -7.1029   -1.4324    0.6164 H   0  0  0  0  0  0  0  0  0  0  0  0
   -5.6886   -1.1752    1.6847 H   0  0  0  0  0  0  0  0  0  0  0  0
   -5.4710   -1.9790    0.1005 H   0  0  0  0  0  0  0  0  0  0  0  0
   -7.6564    1.0650    0.6953 H   0  0  0  0  0  0  0  0  0  0  0  0
   -6.4128    2.2783    0.2328 H   0  0  0  0  0  0  0  0  0  0  0  0
   -6.2460    1.3644    1.7612 H   0  0  0  0  0  0  0  0  0  0  0  0
  1  2  1  0  0  0  0
  2 11  1  0  0  0  0
  3  2  2  0  0  0  0
  3 12  1  0  0  0  0
  4  3  1  0  0  0  0
  5  6  1  0  0  0  0
  5  4  2  0  0  0  0
  6  1  2  0  0  0  0
  7  4  1  0  0  0  0
  7  9  1  0  0  0  0
  7 10  1  0  0  0  0
  8 15  1  0  0  0  0
  8  7  1  0  0  0  0
  9 19  1  0  0  0  0
 10 23  1  0  0  0  0
 13  5  1  0  0  0  0
 14  6  1  0  0  0  0
 16  8  1  0  0  0  0
 17  8  1  0  0  0  0
 18  9  1  0  0  0  0
 20  9  1  0  0  0  0
 21 10  1  0  0  0  0
 22 10  1  0  0  0  0
M  END
