10
q = 0.0, confidence = 0.982

 16 16  0  0  0  0  0  0  0  0999 V2000
   -1.9743    3.6076    0.2309 O   0  0  0  0  0  0  0  0  0  0  0  0
   -2.2362    2.4082    0.3847 C   0  0  0  0  0  0  0  0  0  0  0  0
   -3.5015    1.8424   -0.2648 C   0  0  0  0  0  0  0  0  0  0  0  0
   -4.2766    2.6362   -0.1923 H   0  0  0  0  0  0  0  0  0  0  0  0
   -3.2917    1.7536   -1.3574 H   0  0  0  0  0  0  0  0  0  0  0  0
   -4.0111    0.5247    0.2554 C   0  0  0  0  0  0  0  0  0  0  0  0
   -3.2251   -0.2365    1.0564 C   0  0  0  0  0  0  0  0  0  0  0  0
   -3.6296   -1.1920    1.4338 H   0  0  0  0  0  0  0  0  0  0  0  0
   -1.8558    0.1402    1.4554 C   0  0  0  0  0  3  0  0  0  0  0  0
   -1.3863    1.4909    1.1697 C   0  0  0  0  0  3  0  0  0  0  0  0
   -5.3831    0.1039   -0.1875 C   0  0  0  0  0  0  0  0  0  0  0  0
   -5.4325    0.0100   -1.2954 H   0  0  0  0  0  0  0  0  0  0  0  0
   -6.1502    0.8597    0.0917 H   0  0  0  0  0  0  0  0  0  0  0  0
   -5.6812   -0.8689    0.2526 H   0  0  0  0  0  0  0  0  0  0  0  0
   -1.5399   -0.2826    2.4260 H   0  0  0  0  0  0  0  0  0  0  0  0
   -0.7304    2.0010    1.8960 H   0  0  0  0  0  0  0  0  0  0  0  0
  1  2  2  0  0  0  0
  2 10  1  0  0  0  0
  3  4  1  0  0  0  0
  3  6  1  0  0  0  0
  3  2  1  0  0  0  0
  5  3  1  0  0  0  0
  6  7  2  0  0  0  0
  7  8  1  0  0  0  0
  7  9  1  0  0  0  0
  9 15  1  0  0  0  0
 10  9  1  0  0  0  0
 10 16  1  0  0  0  0
 11 13  1  0  0  0  0
 11 14  1  0  0  0  0
 11  6  1  0  0  0  0
 12 11  1  0  0  0  0
M  END
