4
 OpenBabel05122313113D

 16 16  0  0  0  0  0  0  0  0999 V2000
    2.3345   -1.6293    0.1007 N   0  0  0  0  0  0  0  0  0  0  0  0
    4.4200   -2.1021   -1.7559 O   0  0  0  0  0  0  0  0  0  0  0  0
    2.1141   -0.4300    2.0322 O   0  0  0  0  0  0  0  0  0  0  0  0
    1.6810   -0.7040    0.9094 C   0  0  0  0  0  3  0  0  0  0  0  0
    3.5910   -2.2381    0.5348 C   0  0  0  0  0  0  0  0  0  0  0  0
    3.4911   -3.3473    0.5137 H   0  0  0  0  0  0  0  0  0  0  0  0
    3.7745   -1.9085    1.5761 H   0  0  0  0  0  0  0  0  0  0  0  0
    4.7264   -1.8141   -0.3979 C   0  0  0  0  0  0  0  0  0  0  0  0
    4.9161   -0.7189   -0.2682 H   0  0  0  0  0  0  0  0  0  0  0  0
    5.6605   -2.3606   -0.1574 H   0  0  0  0  0  0  0  0  0  0  0  0
    2.0357   -1.8146   -1.3111 C   0  0  0  0  0  0  0  0  0  0  0  0
    1.1567   -1.1764   -1.5579 H   0  0  0  0  0  0  0  0  0  0  0  0
    1.7797   -2.8818   -1.5130 H   0  0  0  0  0  0  0  0  0  0  0  0
    3.2459   -1.4212   -2.1648 C   0  0  0  0  0  0  0  0  0  0  0  0
    3.0748   -1.6806   -3.2292 H   0  0  0  0  0  0  0  0  0  0  0  0
    3.3932   -0.3142   -2.0908 H   0  0  0  0  0  0  0  0  0  0  0  0
  1  5  1  0  0  0  0
  1  4  1  0  0  0  0
  2  8  1  0  0  0  0
  4  3  2  0  0  0  0
  5  7  1  0  0  0  0
  6  5  1  0  0  0  0
  8  9  1  0  0  0  0
  8 10  1  0  0  0  0
  8  5  1  0  0  0  0
 11  1  1  0  0  0  0
 12 11  1  0  0  0  0
 13 11  1  0  0  0  0
 14 16  1  0  0  0  0
 14  2  1  0  0  0  0
 14 11  1  0  0  0  0
 15 14  1  0  0  0  0
M  END
