5
 OpenBabel05122313113D

 27 27  0  0  0  0  0  0  0  0999 V2000
   -1.8275   -1.1669   -0.7187 N   0  0  0  0  0  0  0  0  0  0  0  0
   -3.1430   -1.3930   -0.5782 N   0  0  0  0  0  0  0  0  0  0  0  0
   -1.3646   -0.2893   -1.6455 C   0  0  0  0  0  0  0  0  0  0  0  0
   -2.0118    0.2280   -2.3746 H   0  0  0  0  0  0  0  0  0  0  0  0
    0.0534   -0.0841   -1.6472 C   0  0  0  0  0  3  0  0  0  0  0  0
    0.4960    0.6018   -2.3830 H   0  0  0  0  0  0  0  0  0  0  0  0
    0.8157   -0.7974   -0.6618 C   0  0  0  0  0  3  0  0  0  0  0  0
    0.4036   -1.7742   -0.3619 H   0  0  0  0  0  0  0  0  0  0  0  0
   -4.1439   -0.4788   -1.1049 C   0  0  0  0  0  0  0  0  0  0  0  0
   -5.1457   -0.9038   -0.9113 H   0  0  0  0  0  0  0  0  0  0  0  0
   -4.0360   -0.3639   -2.2019 H   0  0  0  0  0  0  0  0  0  0  0  0
   -4.0898    0.5308   -0.6364 H   0  0  0  0  0  0  0  0  0  0  0  0
   -3.4548   -2.0684    0.6665 C   0  0  0  0  0  0  0  0  0  0  0  0
   -4.4630   -2.5220    0.6125 H   0  0  0  0  0  0  0  0  0  0  0  0
   -3.4173   -1.3631    1.5336 H   0  0  0  0  0  0  0  0  0  0  0  0
   -2.7029   -2.8606    0.8378 H   0  0  0  0  0  0  0  0  0  0  0  0
    2.2650   -0.6368   -0.4529 C   0  0  0  0  0  0  0  0  0  0  0  0
    3.0253    0.4030   -1.0383 C   0  0  0  0  0  0  0  0  0  0  0  0
    2.5340    1.1531   -1.6755 H   0  0  0  0  0  0  0  0  0  0  0  0
    4.4038    0.5011   -0.8114 C   0  0  0  0  0  0  0  0  0  0  0  0
    4.9740    1.3187   -1.2784 H   0  0  0  0  0  0  0  0  0  0  0  0
    5.0577   -0.4315    0.0104 C   0  0  0  0  0  0  0  0  0  0  0  0
    6.1402   -0.3493    0.1901 H   0  0  0  0  0  0  0  0  0  0  0  0
    4.3170   -1.4670    0.6032 C   0  0  0  0  0  0  0  0  0  0  0  0
    4.8173   -2.2029    1.2511 H   0  0  0  0  0  0  0  0  0  0  0  0
    2.9397   -1.5672    0.3723 C   0  0  0  0  0  0  0  0  0  0  0  0
    2.3604   -2.3782    0.8411 H   0  0  0  0  0  0  0  0  0  0  0  0
  1  2  1  0  0  0  0
  2 13  1  0  0  0  0
  3  1  2  0  0  0  0
  4  3  1  0  0  0  0
  5  3  1  0  0  0  0
  5  7  1  0  0  0  0
  6  5  1  0  0  0  0
  7 17  1  0  0  0  0
  7  8  1  0  0  0  0
  9 10  1  0  0  0  0
  9 12  1  0  0  0  0
  9  2  1  0  0  0  0
 11  9  1  0  0  0  0
 13 16  1  0  0  0  0
 13 15  1  0  0  0  0
 14 13  1  0  0  0  0
 17 26  1  0  0  0  0
 18 20  1  0  0  0  0
 18 17  2  0  0  0  0
 19 18  1  0  0  0  0
 20 22  2  0  0  0  0
 21 20  1  0  0  0  0
 22 23  1  0  0  0  0
 22 24  1  0  0  0  0
 24 25  1  0  0  0  0
 26 24  2  0  0  0  0
 26 27  1  0  0  0  0
M  END
