5
 OpenBabel05122313113D

 43 46  0  0  1  0  0  0  0  0999 V2000
    1.4700    0.1152    0.1048 P   0  0  0  0  0  4  0  0  0  0  0  0
    0.2678   -2.0582   -2.0961 O   0  0  0  0  0  0  0  0  0  0  0  0
   -0.3019   -0.9959   -1.9416 C   0  0  0  0  0  0  0  0  0  0  0  0
    0.0361    0.1377   -0.9792 C   0  0  2  0  0  3  0  0  0  0  0  0
   -0.5430    1.3468   -1.5139 C   0  0  0  0  0  3  0  0  0  0  0  0
   -0.2477    2.3731   -1.2597 H   0  0  0  0  0  0  0  0  0  0  0  0
   -1.5161    0.9588   -2.5179 C   0  0  0  0  0  3  0  0  0  0  0  0
   -2.1104    1.6528   -3.1258 H   0  0  0  0  0  0  0  0  0  0  0  0
   -1.5541   -0.4623   -2.5764 C   0  0  0  0  0  3  0  0  0  0  0  0
   -2.2013   -1.0611   -3.2285 H   0  0  0  0  0  0  0  0  0  0  0  0
    1.4123   -1.1770    1.3638 C   0  0  0  0  0  0  0  0  0  0  0  0
    1.1714   -2.5063    0.9498 C   0  0  0  0  0  0  0  0  0  0  0  0
    0.9742   -2.7309   -0.1093 H   0  0  0  0  0  0  0  0  0  0  0  0
    1.1916   -3.5302    1.9057 C   0  0  0  0  0  0  0  0  0  0  0  0
    0.9964   -4.5656    1.5903 H   0  0  0  0  0  0  0  0  0  0  0  0
    1.4538   -3.2392    3.2543 C   0  0  0  0  0  0  0  0  0  0  0  0
    1.4663   -4.0501    3.9979 H   0  0  0  0  0  0  0  0  0  0  0  0
    1.7079   -1.9184    3.6573 C   0  0  0  0  0  0  0  0  0  0  0  0
    1.9261   -1.6925    4.7115 H   0  0  0  0  0  0  0  0  0  0  0  0
    1.6922   -0.8801    2.7151 C   0  0  0  0  0  0  0  0  0  0  0  0
    1.9079    0.1499    3.0330 H   0  0  0  0  0  0  0  0  0  0  0  0
    1.5678    1.7537    0.8798 C   0  0  0  0  0  0  0  0  0  0  0  0
    0.5951    2.1259    1.8342 C   0  0  0  0  0  0  0  0  0  0  0  0
   -0.1762    1.4043    2.1382 H   0  0  0  0  0  0  0  0  0  0  0  0
    0.6309    3.4081    2.3985 C   0  0  0  0  0  0  0  0  0  0  0  0
   -0.1181    3.6959    3.1516 H   0  0  0  0  0  0  0  0  0  0  0  0
    1.6294    4.3197    2.0129 C   0  0  0  0  0  0  0  0  0  0  0  0
    1.6565    5.3247    2.4600 H   0  0  0  0  0  0  0  0  0  0  0  0
    2.5978    3.9474    1.0677 C   0  0  0  0  0  0  0  0  0  0  0  0
    3.3840    4.6579    0.7730 H   0  0  0  0  0  0  0  0  0  0  0  0
    2.5736    2.6646    0.4987 C   0  0  0  0  0  0  0  0  0  0  0  0
    3.3369    2.3706   -0.2371 H   0  0  0  0  0  0  0  0  0  0  0  0
    2.9420   -0.1398   -0.9226 C   0  0  0  0  0  0  0  0  0  0  0  0
    2.9595    0.2967   -2.2634 C   0  0  0  0  0  0  0  0  0  0  0  0
    2.0660    0.7520   -2.7161 H   0  0  0  0  0  0  0  0  0  0  0  0
    4.1232    0.1334   -3.0270 C   0  0  0  0  0  0  0  0  0  0  0  0
    4.1383    0.4637   -4.0760 H   0  0  0  0  0  0  0  0  0  0  0  0
    5.2615   -0.4608   -2.4576 C   0  0  0  0  0  0  0  0  0  0  0  0
    6.1707   -0.5928   -3.0628 H   0  0  0  0  0  0  0  0  0  0  0  0
    5.2405   -0.8968   -1.1227 C   0  0  0  0  0  0  0  0  0  0  0  0
    6.1300   -1.3700   -0.6814 H   0  0  0  0  0  0  0  0  0  0  0  0
    4.0819   -0.7411   -0.3495 C   0  0  0  0  0  0  0  0  0  0  0  0
    4.0584   -1.0968    0.6916 H   0  0  0  0  0  0  0  0  0  0  0  0
  1 22  1  0  0  0  0
  1 11  1  0  0  0  0
  2  3  2  0  0  0  0
  3  4  1  0  0  0  0
  4  1  1  6  0  0  0
  5  6  1  0  0  0  0
  5  4  1  0  0  0  0
  7  5  1  0  0  0  0
  8  7  1  0  0  0  0
  9  7  1  0  0  0  0
  9  3  1  0  0  0  0
 10  9  1  0  0  0  0
 11 20  1  0  0  0  0
 12 11  2  0  0  0  0
 12 14  1  0  0  0  0
 13 12  1  0  0  0  0
 14 16  2  0  0  0  0
 15 14  1  0  0  0  0
 16 18  1  0  0  0  0
 16 17  1  0  0  0  0
 18 19  1  0  0  0  0
 20 21  1  0  0  0  0
 20 18  2  0  0  0  0
 22 23  1  0  0  0  0
 23 24  1  0  0  0  0
 23 25  2  0  0  0  0
 25 26  1  0  0  0  0
 27 25  1  0  0  0  0
 27 28  1  0  0  0  0
 29 27  2  0  0  0  0
 30 29  1  0  0  0  0
 31 22  2  0  0  0  0
 31 29  1  0  0  0  0
 32 31  1  0  0  0  0
 33 42  1  0  0  0  0
 33  1  1  0  0  0  0
 34 33  2  0  0  0  0
 35 34  1  0  0  0  0
 36 38  2  0  0  0  0
 36 34  1  0  0  0  0
 37 36  1  0  0  0  0
 38 40  1  0  0  0  0
 39 38  1  0  0  0  0
 40 41  1  0  0  0  0
 40 42  2  0  0  0  0
 42 43  1  0  0  0  0
M  END
