1
 OpenBabel05122313113D

 25 27  0  0  0  0  0  0  0  0999 V2000
    1.3860    0.1789    0.0194 C   0  0  0  0  0  1  0  0  0  0  0  0
    2.6273    0.2144    0.0097 C   0  0  0  0  0  2  0  0  0  0  0  0
    4.0515    0.2346    0.0005 C   0  0  0  0  0  0  0  0  0  0  0  0
    4.7437    1.4359   -0.0574 C   0  0  0  0  0  0  0  0  0  0  0  0
    4.1758    2.3773   -0.0955 H   0  0  0  0  0  0  0  0  0  0  0  0
    6.1726    1.4951   -0.0691 C   0  0  0  0  0  0  0  0  0  0  0  0
    6.8455    2.7482   -0.1291 C   0  0  0  0  0  0  0  0  0  0  0  0
    6.2395    3.6670   -0.1657 H   0  0  0  0  0  0  0  0  0  0  0  0
    8.2331    2.8184   -0.1412 C   0  0  0  0  0  0  0  0  0  0  0  0
    8.7388    3.7949   -0.1876 H   0  0  0  0  0  0  0  0  0  0  0  0
    8.9937    1.6270   -0.0932 C   0  0  0  0  0  0  0  0  0  0  0  0
   10.0932    1.6754   -0.1024 H   0  0  0  0  0  0  0  0  0  0  0  0
    8.3570    0.3894   -0.0340 C   0  0  0  0  0  0  0  0  0  0  0  0
    8.9727   -0.5201    0.0026 H   0  0  0  0  0  0  0  0  0  0  0  0
    6.9419    0.2828   -0.0200 C   0  0  0  0  0  0  0  0  0  0  0  0
    6.2374   -0.9939    0.0418 C   0  0  0  0  0  0  0  0  0  0  0  0
    6.9235   -2.2373    0.0936 C   0  0  0  0  0  0  0  0  0  0  0  0
    8.0222   -2.2510    0.0871 H   0  0  0  0  0  0  0  0  0  0  0  0
    6.2385   -3.4472    0.1530 C   0  0  0  0  0  0  0  0  0  0  0  0
    6.8012   -4.3924    0.1923 H   0  0  0  0  0  0  0  0  0  0  0  0
    4.8257   -3.4615    0.1631 C   0  0  0  0  0  0  0  0  0  0  0  0
    4.2826   -4.4177    0.2107 H   0  0  0  0  0  0  0  0  0  0  0  0
    4.1241   -2.2621    0.1133 C   0  0  0  0  0  0  0  0  0  0  0  0
    3.0240   -2.2486    0.1206 H   0  0  0  0  0  0  0  0  0  0  0  0
    4.8026   -1.0170    0.0522 C   0  0  0  0  0  0  0  0  0  0  0  0
  2  1  1  0  0  0  0
  3  2  1  0  0  0  0
  3 25  1  0  0  0  0
  4  3  2  0  0  0  0
  5  4  1  0  0  0  0
  6  4  1  0  0  0  0
  6 15  1  0  0  0  0
  7  6  2  0  0  0  0
  8  7  1  0  0  0  0
  9  7  1  0  0  0  0
  9 11  2  0  0  0  0
 10  9  1  0  0  0  0
 11 13  1  0  0  0  0
 12 11  1  0  0  0  0
 13 15  2  0  0  0  0
 13 14  1  0  0  0  0
 15 16  1  0  0  0  0
 16 25  2  0  0  0  0
 16 17  1  0  0  0  0
 17 19  2  0  0  0  0
 18 17  1  0  0  0  0
 19 21  1  0  0  0  0
 19 20  1  0  0  0  0
 21 22  1  0  0  0  0
 23 24  1  0  0  0  0
 23 21  2  0  0  0  0
 25 23  1  0  0  0  0
M  END
