5
 OpenBabel05122313113D

 49 52  0  0  0  0  0  0  0  0999 V2000
    5.6442   -2.9502   -0.0265 Cl  0  0  0  0  0  0  0  0  0  0  0  0
   -1.0470   -3.6263    0.2592 O   0  0  0  0  0  0  0  0  0  0  0  0
   -2.4748    0.7032    0.5290 N   0  0  0  0  0  0  0  0  0  0  0  0
   -1.9307   -1.0330   -0.6944 N   0  0  0  0  0  0  0  0  0  0  0  0
   -1.4230    0.0720   -0.0708 C   0  0  0  0  0  2  0  0  0  0  0  0
   -3.6534   -0.0204    0.3260 C   0  0  0  0  0  0  0  0  0  0  0  0
   -4.9777    0.1801    0.7354 C   0  0  0  0  0  0  0  0  0  0  0  0
   -5.2624    1.0496    1.3456 H   0  0  0  0  0  0  0  0  0  0  0  0
   -5.9499   -0.7642    0.3604 C   0  0  0  0  0  0  0  0  0  0  0  0
   -5.5859   -1.9098   -0.4175 C   0  0  0  0  0  0  0  0  0  0  0  0
   -4.2533   -2.0991   -0.8222 C   0  0  0  0  0  0  0  0  0  0  0  0
   -3.9670   -2.9946   -1.3916 H   0  0  0  0  0  0  0  0  0  0  0  0
   -3.2992   -1.1461   -0.4501 C   0  0  0  0  0  0  0  0  0  0  0  0
   -7.3818   -0.5762    0.7931 C   0  0  0  0  0  0  0  0  0  0  0  0
   -7.5090    0.3510    1.3835 H   0  0  0  0  0  0  0  0  0  0  0  0
   -7.7362   -1.4250    1.4157 H   0  0  0  0  0  0  0  0  0  0  0  0
   -8.0693   -0.5208   -0.0775 H   0  0  0  0  0  0  0  0  0  0  0  0
   -6.6342   -2.9260   -0.7931 C   0  0  0  0  0  0  0  0  0  0  0  0
   -7.4521   -2.4703   -1.3906 H   0  0  0  0  0  0  0  0  0  0  0  0
   -7.1141   -3.3699    0.1048 H   0  0  0  0  0  0  0  0  0  0  0  0
   -6.2015   -3.7530   -1.3873 H   0  0  0  0  0  0  0  0  0  0  0  0
   -1.1134   -1.9680   -1.4514 C   0  0  0  0  0  0  0  0  0  0  0  0
   -0.4533   -1.3705   -2.1061 H   0  0  0  0  0  0  0  0  0  0  0  0
   -1.7840   -2.5794   -2.0854 H   0  0  0  0  0  0  0  0  0  0  0  0
   -0.3763   -2.9200   -0.4839 C   0  0  0  0  0  0  0  0  0  0  0  0
    1.1156   -2.9257   -0.4525 C   0  0  0  0  0  0  0  0  0  0  0  0
    1.9229   -2.2005   -1.3571 C   0  0  0  0  0  0  0  0  0  0  0  0
    1.4810   -1.5726   -2.1440 H   0  0  0  0  0  0  0  0  0  0  0  0
    3.3182   -2.2279   -1.2458 C   0  0  0  0  0  0  0  0  0  0  0  0
    3.9472   -1.6530   -1.9390 H   0  0  0  0  0  0  0  0  0  0  0  0
    3.9088   -2.9690   -0.2100 C   0  0  0  0  0  0  0  0  0  0  0  0
    3.1261   -3.7010    0.7021 C   0  0  0  0  0  0  0  0  0  0  0  0
    3.6128   -4.2674    1.5083 H   0  0  0  0  0  0  0  0  0  0  0  0
    1.7368   -3.6780    0.5694 C   0  0  0  0  0  0  0  0  0  0  0  0
    1.0892   -4.2257    1.2693 H   0  0  0  0  0  0  0  0  0  0  0  0
   -2.3400    1.8874    1.3826 C   0  0  0  0  0  0  0  0  0  0  0  0
   -1.8939    1.5656    2.3460 H   0  0  0  0  0  0  0  0  0  0  0  0
   -3.3667    2.2554    1.5779 H   0  0  0  0  0  0  0  0  0  0  0  0
   -1.4992    2.9796    0.7573 C   0  0  0  0  0  0  0  0  0  0  0  0
   -1.8499    3.5317   -0.4891 C   0  0  0  0  0  0  0  0  0  0  0  0
   -2.7324    3.1495   -1.0256 H   0  0  0  0  0  0  0  0  0  0  0  0
   -1.0610    4.5337   -1.0682 C   0  0  0  0  0  0  0  0  0  0  0  0
   -1.3329    4.9427   -2.0526 H   0  0  0  0  0  0  0  0  0  0  0  0
    0.0795    5.0073   -0.3990 C   0  0  0  0  0  0  0  0  0  0  0  0
    0.6979    5.7956   -0.8553 H   0  0  0  0  0  0  0  0  0  0  0  0
    0.4300    4.4692    0.8490 C   0  0  0  0  0  0  0  0  0  0  0  0
    1.3271    4.8284    1.3760 H   0  0  0  0  0  0  0  0  0  0  0  0
   -0.3512    3.4533    1.4211 C   0  0  0  0  0  0  0  0  0  0  0  0
   -0.0593    3.0007    2.3809 H   0  0  0  0  0  0  0  0  0  0  0  0
  3 36  1  0  0  0  0
  4 13  1  0  0  0  0
  4  5  1  0  0  0  0
  5  3  1  0  0  0  0
  6  3  1  0  0  0  0
  6  7  1  0  0  0  0
  7  8  1  0  0  0  0
  9  7  2  0  0  0  0
  9 14  1  0  0  0  0
 10  9  1  0  0  0  0
 11 13  1  0  0  0  0
 11 10  2  0  0  0  0
 12 11  1  0  0  0  0
 13  6  2  0  0  0  0
 14 15  1  0  0  0  0
 14 16  1  0  0  0  0
 17 14  1  0  0  0  0
 18 10  1  0  0  0  0
 18 20  1  0  0  0  0
 19 18  1  0  0  0  0
 21 18  1  0  0  0  0
 22  4  1  0  0  0  0
 22 25  1  0  0  0  0
 23 22  1  0  0  0  0
 24 22  1  0  0  0  0
 25 26  1  0  0  0  0
 25  2  2  0  0  0  0
 26 34  1  0  0  0  0
 27 29  1  0  0  0  0
 27 26  2  0  0  0  0
 28 27  1  0  0  0  0
 29 31  2  0  0  0  0
 30 29  1  0  0  0  0
 31  1  1  0  0  0  0
 31 32  1  0  0  0  0
 32 33  1  0  0  0  0
 34 32  2  0  0  0  0
 34 35  1  0  0  0  0
 36 38  1  0  0  0  0
 36 37  1  0  0  0  0
 39 36  1  0  0  0  0
 39 48  1  0  0  0  0
 40 39  2  0  0  0  0
 41 40  1  0  0  0  0
 42 40  1  0  0  0  0
 42 44  2  0  0  0  0
 43 42  1  0  0  0  0
 44 46  1  0  0  0  0
 45 44  1  0  0  0  0
 46 47  1  0  0  0  0
 46 48  2  0  0  0  0
 48 49  1  0  0  0  0
M  END
