6
 OpenBabel05122313113D

  9  9  0  0  1  0  0  0  0  0999 V2000
    0.0442    1.6479   -2.2029 F   0  0  0  0  0  0  0  0  0  0  0  0
    0.0326    5.5782    0.0168 F   0  0  0  0  0  0  0  0  0  0  0  0
   -0.0236    1.8172    2.5115 F   0  0  0  0  0  0  0  0  0  0  0  0
    0.0405    3.6212   -1.1062 N   0  0  0  0  0  0  0  0  0  0  0  0
    0.0038    3.7066    1.2768 N   0  0  0  0  0  0  0  0  0  0  0  0
    0.0091    1.5427    0.1614 C   0  0  0  0  0  0  0  0  0  0  0  0
    0.0312    2.2966   -1.0221 C   0  0  1  0  0  0  0  0  0  0  0  0
    0.0253    4.2449    0.0643 C   0  0  0  0  0  0  0  0  0  0  0  0
   -0.0026    2.3779    1.2878 C   0  0  0  0  0  0  0  0  0  0  0  0
  2  8  1  0  0  0  0
  4  7  1  0  0  0  0
  4  8  2  0  0  0  0
  5  9  2  0  0  0  0
  6  9  1  0  0  0  0
  7  1  1  6  0  0  0
  7  6  1  0  0  0  0
  8  5  1  0  0  0  0
  9  3  1  0  0  0  0
M  END
