3
 OpenBabel05122313113D

 40 41  0  0  0  0  0  0  0  0999 V2000
   -1.9503   -2.3859   -1.3827 N   0  0  0  0  0  0  0  0  0  0  0  0
   -2.8960   -0.6933   -0.4229 N   0  0  0  0  0  0  0  0  0  0  0  0
   -1.6707   -1.2302   -0.7180 C   0  0  0  0  0  2  0  0  0  0  0  0
   -3.3201   -2.5796   -1.5043 C   0  0  0  0  0  0  0  0  0  0  0  0
   -3.7479   -3.4515   -2.0073 H   0  0  0  0  0  0  0  0  0  0  0  0
   -3.9220   -1.5083   -0.8976 C   0  0  0  0  0  0  0  0  0  0  0  0
   -4.9758   -1.2524   -0.7630 H   0  0  0  0  0  0  0  0  0  0  0  0
   -0.9119   -3.2814   -1.8727 C   0  0  0  0  0  0  0  0  0  0  0  0
   -0.2394   -2.7225   -2.5525 H   0  0  0  0  0  0  0  0  0  0  0  0
   -1.3822   -4.1223   -2.4143 H   0  0  0  0  0  0  0  0  0  0  0  0
   -0.3225   -3.6653   -1.0167 H   0  0  0  0  0  0  0  0  0  0  0  0
   -3.0979    0.5458    0.2891 C   0  0  0  0  0  0  0  0  0  0  0  0
   -3.2581    0.4999    1.6962 C   0  0  0  0  0  0  0  0  0  0  0  0
   -3.4617    1.7231    2.3633 C   0  0  0  0  0  0  0  0  0  0  0  0
   -3.5864    1.7238    3.4556 H   0  0  0  0  0  0  0  0  0  0  0  0
   -3.4959    2.9333    1.6614 C   0  0  0  0  0  0  0  0  0  0  0  0
   -3.6507    3.8782    2.2047 H   0  0  0  0  0  0  0  0  0  0  0  0
   -3.3308    2.9473    0.2712 C   0  0  0  0  0  0  0  0  0  0  0  0
   -3.3561    3.9038   -0.2699 H   0  0  0  0  0  0  0  0  0  0  0  0
   -3.1326    1.7549   -0.4505 C   0  0  0  0  0  0  0  0  0  0  0  0
   -3.2550   -0.8145    2.4654 C   0  0  0  0  0  0  0  0  0  0  0  0
   -2.6782   -1.5489    1.8669 H   0  0  0  0  0  0  0  0  0  0  0  0
   -2.5505   -0.7118    3.8246 C   0  0  0  0  0  0  0  0  0  0  0  0
   -1.5244   -0.3130    3.7099 H   0  0  0  0  0  0  0  0  0  0  0  0
   -2.4641   -1.7189    4.2789 H   0  0  0  0  0  0  0  0  0  0  0  0
   -3.1095   -0.0736    4.5404 H   0  0  0  0  0  0  0  0  0  0  0  0
   -4.6927   -1.3428    2.6319 C   0  0  0  0  0  0  0  0  0  0  0  0
   -5.3087   -0.6331    3.2230 H   0  0  0  0  0  0  0  0  0  0  0  0
   -4.6902   -2.3169    3.1626 H   0  0  0  0  0  0  0  0  0  0  0  0
   -5.1962   -1.4907    1.6562 H   0  0  0  0  0  0  0  0  0  0  0  0
   -3.0140    1.7687   -1.9685 C   0  0  0  0  0  0  0  0  0  0  0  0
   -2.3892    0.8999   -2.2611 H   0  0  0  0  0  0  0  0  0  0  0  0
   -2.3036    3.0154   -2.5097 C   0  0  0  0  0  0  0  0  0  0  0  0
   -2.9135    3.9346   -2.3836 H   0  0  0  0  0  0  0  0  0  0  0  0
   -2.1084    2.8943   -3.5935 H   0  0  0  0  0  0  0  0  0  0  0  0
   -1.3263    3.1670   -2.0130 H   0  0  0  0  0  0  0  0  0  0  0  0
   -4.4026    1.6101   -2.6177 C   0  0  0  0  0  0  0  0  0  0  0  0
   -4.9052    0.6755   -2.3001 H   0  0  0  0  0  0  0  0  0  0  0  0
   -4.3131    1.5859   -3.7231 H   0  0  0  0  0  0  0  0  0  0  0  0
   -5.0649    2.4586   -2.3460 H   0  0  0  0  0  0  0  0  0  0  0  0
  1  3  1  0  0  0  0
  2 12  1  0  0  0  0
  3  2  1  0  0  0  0
  4  1  1  0  0  0  0
  4  6  2  0  0  0  0
  5  4  1  0  0  0  0
  6  7  1  0  0  0  0
  6  2  1  0  0  0  0
  8  1  1  0  0  0  0
  8 11  1  0  0  0  0
  9  8  1  0  0  0  0
 10  8  1  0  0  0  0
 12 13  1  0  0  0  0
 13 14  2  0  0  0  0
 13 21  1  0  0  0  0
 14 15  1  0  0  0  0
 16 17  1  0  0  0  0
 16 14  1  0  0  0  0
 18 16  2  0  0  0  0
 19 18  1  0  0  0  0
 20 18  1  0  0  0  0
 20 12  2  0  0  0  0
 21 27  1  0  0  0  0
 21 23  1  0  0  0  0
 22 21  1  0  0  0  0
 23 25  1  0  0  0  0
 23 26  1  0  0  0  0
 24 23  1  0  0  0  0
 27 29  1  0  0  0  0
 27 28  1  0  0  0  0
 30 27  1  0  0  0  0
 31 20  1  0  0  0  0
 32 31  1  0  0  0  0
 33 34  1  0  0  0  0
 33 36  1  0  0  0  0
 33 31  1  0  0  0  0
 35 33  1  0  0  0  0
 37 40  1  0  0  0  0
 37 38  1  0  0  0  0
 37 31  1  0  0  0  0
 39 37  1  0  0  0  0
M  END
