1
 OpenBabel05122313113D

 10 10  0  0  0  0  0  0  0  0999 V2000
   -3.3843    0.2158    0.2444 C   0  0  0  0  0  3  0  0  0  0  0  0
   -4.1861    0.8276   -0.7484 C   0  0  0  0  0  0  0  0  0  0  0  0
   -3.7307    1.2883   -1.6398 H   0  0  0  0  0  0  0  0  0  0  0  0
   -5.5838    0.8553   -0.6091 C   0  0  0  0  0  0  0  0  0  0  0  0
   -6.2049    1.3353   -1.3896 H   0  0  0  0  0  0  0  0  0  0  0  0
   -6.2460    0.3263    0.4332 N   0  0  0  0  0  0  0  0  0  0  0  0
   -5.4955   -0.2570    1.3825 C   0  0  0  0  0  0  0  0  0  0  0  0
   -6.0438   -0.6919    2.2401 H   0  0  0  0  0  0  0  0  0  0  0  0
   -4.0936   -0.3374    1.3370 C   0  0  0  0  0  0  0  0  0  0  0  0
   -3.5622   -0.8367    2.1634 H   0  0  0  0  0  0  0  0  0  0  0  0
  1  9  1  0  0  0  0
  2  4  1  0  0  0  0
  2  1  2  0  0  0  0
  3  2  1  0  0  0  0
  4  6  2  0  0  0  0
  5  4  1  0  0  0  0
  6  7  1  0  0  0  0
  7  8  1  0  0  0  0
  9  7  2  0  0  0  0
  9 10  1  0  0  0  0
M  END
