28
 OpenBabel05122313113D

 33 38  0  0  1  0  0  0  0  0999 V2000
   -0.5009    0.8098    1.4626 Se  0  0  0  0  0  1  0  0  0  0  0  0
    1.5483    2.9178    0.8554 O   0  0  0  0  0  0  0  0  0  0  0  0
    1.1198    3.2804   -1.3446 O   0  0  0  0  0  0  0  0  0  0  0  0
   -2.2601    0.2984    0.7680 C   0  0  2  0  0  0  0  0  0  0  0  0
   -2.3182   -0.7963   -0.4767 C   0  0  2  0  0  0  0  0  0  0  0  0
   -2.9836   -1.2118    1.0755 B   0  0  2  0  0  0  0  0  0  0  0  0
   -2.3824   -2.0132    1.7415 H   0  0  0  0  0  0  0  0  0  0  0  0
   -3.6719    0.3095    1.7099 B   0  0  0  0  0  0  0  0  0  0  0  0
   -3.5622    0.5252    2.8921 H   0  0  0  0  0  0  0  0  0  0  0  0
   -3.3291    1.6017    0.5288 B   0  0  2  0  0  0  0  0  0  0  0  0
   -2.9636    2.6870    0.9107 H   0  0  0  0  0  0  0  0  0  0  0  0
   -2.4146    0.8960   -0.8379 B   0  0  1  0  0  0  0  0  0  0  0  0
   -3.4784   -0.2911   -1.6244 B   0  0  2  0  0  0  0  0  0  0  0  0
   -3.2538   -0.5556   -2.7788 H   0  0  0  0  0  0  0  0  0  0  0  0
   -3.8204   -1.5952   -0.4522 B   0  0  1  0  0  0  0  0  0  0  0  0
   -3.8453   -2.7467   -0.8080 H   0  0  0  0  0  0  0  0  0  0  0  0
   -4.7209   -0.8882    0.9193 B   0  0  0  0  0  0  0  0  0  0  0  0
   -5.5126   -1.5453    1.5526 H   0  0  0  0  0  0  0  0  0  0  0  0
   -4.9391    0.8624    0.5797 B   0  0  0  0  0  0  0  0  0  0  0  0
   -5.8921    1.4825    0.9892 H   0  0  0  0  0  0  0  0  0  0  0  0
   -4.1624    1.2277   -0.9931 B   0  0  0  0  0  0  0  0  0  0  0  0
   -4.5336    2.1076   -1.7343 H   0  0  0  0  0  0  0  0  0  0  0  0
   -5.0287   -0.3190   -0.7548 B   0  0  1  0  0  0  0  0  0  0  0  0
   -6.0567   -0.5794   -1.3346 H   0  0  0  0  0  0  0  0  0  0  0  0
   -1.0695    1.5426   -1.3706 C   0  0  0  0  0  0  0  0  0  0  0  0
   -0.7663    1.0037   -2.2944 H   0  0  0  0  0  0  0  0  0  0  0  0
   -1.2415    2.6039   -1.6383 H   0  0  0  0  0  0  0  0  0  0  0  0
    0.0549    1.4368   -0.3452 C   0  0  1  0  0  3  0  0  0  0  0  0
    0.9699    2.5951   -0.1801 C   0  0  0  0  0  0  0  0  0  0  0  0
    1.9396    4.4529   -1.2788 C   0  0  0  0  0  0  0  0  0  0  0  0
    1.8006    4.9759   -2.2418 H   0  0  0  0  0  0  0  0  0  0  0  0
    3.0076    4.1862   -1.1456 H   0  0  0  0  0  0  0  0  0  0  0  0
    1.6338    5.1004   -0.4333 H   0  0  0  0  0  0  0  0  0  0  0  0
  3 30  1  0  0  0  0
  3 29  1  0  0  0  0
  4  6  1  0  0  0  0
  4  8  1  6  0  0  0
  5 15  1  0  0  0  0
  5  4  1  0  0  0  0
  6  7  1  0  0  0  0
  8  9  1  0  0  0  0
 10 19  1  0  0  0  0
 10  4  1  0  0  0  0
 10 11  1  0  0  0  0
 12  5  1  0  0  0  0
 13 12  1  0  0  0  0
 13 23  1  0  0  0  0
 13  5  1  0  0  0  0
 14 13  1  0  0  0  0
 15  6  1  0  0  0  0
 16 15  1  0  0  0  0
 17  6  1  0  0  0  0
 17 18  1  0  0  0  0
 17  8  1  0  0  0  0
 19 20  1  0  0  0  0
 21 12  1  0  0  0  0
 21 10  1  0  0  0  0
 22 21  1  0  0  0  0
 23 15  1  0  0  0  0
 23 19  1  0  0  0  0
 24 23  1  0  0  0  0
 25 12  1  0  0  0  0
 25 28  1  0  0  0  0
 26 25  1  0  0  0  0
 27 25  1  0  0  0  0
 28 29  1  0  0  0  0
 28  1  1  0  0  0  0
 29  2  2  0  0  0  0
 30 32  1  0  0  0  0
 30 33  1  0  0  0  0
 31 30  1  0  0  0  0
M  END
