1
 OpenBabel05122313113D

 22 22  0  0  0  0  0  0  0  0999 V2000
   -1.8777   -0.9803   -2.2315 C   0  0  0  0  0  3  0  0  0  0  0  0
   -2.0992   -1.9555   -2.7073 H   0  0  0  0  0  0  0  0  0  0  0  0
   -2.4900   -0.1989   -2.7251 H   0  0  0  0  0  0  0  0  0  0  0  0
   -0.4290   -0.6489   -2.2929 C   0  0  0  0  0  0  0  0  0  0  0  0
    0.5664   -1.6469   -2.1659 C   0  0  0  0  0  0  0  0  0  0  0  0
    0.2530   -2.7017   -2.1164 H   0  0  0  0  0  0  0  0  0  0  0  0
    1.9273   -1.3453   -2.0643 C   0  0  0  0  0  0  0  0  0  0  0  0
    2.6762   -2.1374   -1.9483 H   0  0  0  0  0  0  0  0  0  0  0  0
    2.3470    0.0037   -2.0933 C   0  0  0  0  0  0  0  0  0  0  0  0
    1.3812    1.0128   -2.2853 C   0  0  0  0  0  0  0  0  0  0  0  0
    1.6962    2.0686   -2.3342 H   0  0  0  0  0  0  0  0  0  0  0  0
    0.0242    0.6874   -2.3839 C   0  0  0  0  0  0  0  0  0  0  0  0
   -0.7123    1.4967   -2.5088 H   0  0  0  0  0  0  0  0  0  0  0  0
    3.6886    0.3991   -1.9245 N   0  0  0  0  0  0  0  0  0  0  0  0
    3.8777    1.4021   -1.9625 H   0  0  0  0  0  0  0  0  0  0  0  0
    4.7755   -0.3837   -1.6280 C   0  0  0  0  0  0  0  0  0  0  0  0
    4.8133   -1.6033   -1.5470 O   0  0  0  0  0  0  0  0  0  0  0  0
    5.8539    0.4321   -1.4081 O   0  0  0  0  0  0  0  0  0  0  0  0
    7.0589   -0.2530   -1.0630 C   0  0  0  0  0  0  0  0  0  0  0  0
    7.8518    0.5161   -1.0407 H   0  0  0  0  0  0  0  0  0  0  0  0
    7.3020   -1.0376   -1.8071 H   0  0  0  0  0  0  0  0  0  0  0  0
    6.9706   -0.7339   -0.0664 H   0  0  0  0  0  0  0  0  0  0  0  0
  2  1  1  0  0  0  0
  3  1  1  0  0  0  0
  4  1  1  0  0  0  0
  4  5  1  0  0  0  0
  5  6  1  0  0  0  0
  5  7  2  0  0  0  0
  7  8  1  0  0  0  0
  9  7  1  0  0  0  0
  9 14  1  0  0  0  0
 10  9  2  0  0  0  0
 11 10  1  0  0  0  0
 12  4  2  0  0  0  0
 12 10  1  0  0  0  0
 13 12  1  0  0  0  0
 14 16  1  0  0  0  0
 15 14  1  0  0  0  0
 16 17  2  0  0  0  0
 16 18  1  0  0  0  0
 18 19  1  0  0  0  0
 19 20  1  0  0  0  0
 19 22  1  0  0  0  0
 21 19  1  0  0  0  0
M  END
