15
 OpenBabel05122313113D

 52 57  0  0  1  0  0  0  0  0999 V2000
    0.8874    1.8944    2.5336 N   0  0  0  0  0  0  0  0  0  0  0  0
   -1.3148    1.0645   -2.3066 N   0  0  0  0  0  0  0  0  0  0  0  0
   -1.9869    0.5907   -0.2775 N   0  0  0  0  0  0  0  0  0  0  0  0
   -0.2753    2.4248    0.6465 O   0  0  0  0  0  0  0  0  0  0  0  0
   -3.9966    2.1680   -0.1957 C   0  0  0  0  0  0  0  0  0  0  0  0
   -4.3203    1.9276    0.8264 H   0  0  0  0  0  0  0  0  0  0  0  0
   -4.6739    3.1035   -0.9925 C   0  0  0  0  0  0  0  0  0  0  0  0
   -5.5583    3.6150   -0.5853 H   0  0  0  0  0  0  0  0  0  0  0  0
   -4.2465    3.4041   -2.3057 C   0  0  0  0  0  0  0  0  0  0  0  0
   -4.8062    4.1432   -2.8974 H   0  0  0  0  0  0  0  0  0  0  0  0
   -3.1232    2.7823   -2.8728 C   0  0  0  0  0  0  0  0  0  0  0  0
   -2.7906    3.0188   -3.8932 H   0  0  0  0  0  0  0  0  0  0  0  0
   -2.4451    1.8488   -2.0763 C   0  0  0  0  0  0  0  0  0  0  0  0
   -2.8784    1.5476   -0.7646 C   0  0  0  0  0  0  0  0  0  0  0  0
   -1.0215    0.3005   -1.2097 C   0  0  0  0  0  2  0  0  0  0  0  0
   -3.8344   -2.5518    3.0249 C   0  0  0  0  0  0  0  0  0  0  0  0
   -3.8269   -2.9654    4.0450 H   0  0  0  0  0  0  0  0  0  0  0  0
   -4.7178   -3.0378    2.0725 C   0  0  0  0  0  0  0  0  0  0  0  0
   -5.4228   -3.8414    2.3329 H   0  0  0  0  0  0  0  0  0  0  0  0
   -4.7082   -2.5085    0.7549 C   0  0  0  0  0  0  0  0  0  0  0  0
   -5.4030   -2.9086    0.0014 H   0  0  0  0  0  0  0  0  0  0  0  0
   -3.8247   -1.4971    0.4079 C   0  0  0  0  0  0  0  0  0  0  0  0
   -3.8157   -1.0989   -0.6163 H   0  0  0  0  0  0  0  0  0  0  0  0
   -2.9144   -0.9689    1.3698 C   0  0  0  0  0  0  0  0  0  0  0  0
   -2.9120   -1.5155    2.7038 C   0  0  0  0  0  0  0  0  0  0  0  0
   -1.9722   -1.0141    3.6519 C   0  0  0  0  0  0  0  0  0  0  0  0
   -1.9601   -1.4458    4.6643 H   0  0  0  0  0  0  0  0  0  0  0  0
   -1.0844   -0.0125    3.3160 C   0  0  0  0  0  0  0  0  0  0  0  0
   -0.3465    0.3742    4.0322 H   0  0  0  0  0  0  0  0  0  0  0  0
   -1.0881    0.5675    2.0109 C   0  0  0  0  0  0  0  0  0  0  0  0
   -1.9872    0.0755    1.0583 C   0  0  0  0  0  0  0  0  0  0  0  0
    3.2496    1.2238    0.9541 C   0  0  0  0  0  0  0  0  0  0  0  0
    2.4052    0.5216    0.8678 H   0  0  0  0  0  0  0  0  0  0  0  0
    4.5191    0.8209    0.5168 C   0  0  0  0  0  0  0  0  0  0  0  0
    4.6375   -0.1856    0.0858 H   0  0  0  0  0  0  0  0  0  0  0  0
    5.6133    1.6936    0.6339 C   0  0  0  0  0  0  0  0  0  0  0  0
    6.6114    1.3773    0.2938 H   0  0  0  0  0  0  0  0  0  0  0  0
    5.4316    2.9690    1.1923 C   0  0  0  0  0  0  0  0  0  0  0  0
    6.2867    3.6548    1.2950 H   0  0  0  0  0  0  0  0  0  0  0  0
    4.1591    3.3703    1.6285 C   0  0  0  0  0  0  0  0  0  0  0  0
    4.0196    4.3697    2.0723 H   0  0  0  0  0  0  0  0  0  0  0  0
    3.0569    2.5039    1.5076 C   0  0  0  0  0  0  0  0  0  0  0  0
   -0.1091    1.6442    1.7575 C   0  0  0  0  0  0  0  0  0  0  0  0
    0.7927    3.3989    0.6793 C   0  0  0  0  0  0  0  0  0  0  0  0
    0.3400    4.4056    0.7925 H   0  0  0  0  0  0  0  0  0  0  0  0
    1.3428    3.3465   -0.2808 H   0  0  0  0  0  0  0  0  0  0  0  0
    1.6651    2.9686    1.9063 C   0  0  1  0  0  0  0  0  0  0  0  0
    1.7715    3.8077    2.6266 H   0  0  0  0  0  0  0  0  0  0  0  0
   -0.5498    1.0722   -3.5402 C   0  0  0  0  0  0  0  0  0  0  0  0
    0.2863    0.3569   -3.4303 H   0  0  0  0  0  0  0  0  0  0  0  0
   -0.1442    2.0855   -3.7339 H   0  0  0  0  0  0  0  0  0  0  0  0
   -1.1884    0.7668   -4.3932 H   0  0  0  0  0  0  0  0  0  0  0  0
  2 13  1  0  0  0  0
  2 15  1  0  0  0  0
  3 31  1  0  0  0  0
  4 44  1  0  0  0  0
  4 43  1  0  0  0  0
  5  6  1  0  0  0  0
  7  8  1  0  0  0  0
  7  5  2  0  0  0  0
  9  7  1  0  0  0  0
 10  9  1  0  0  0  0
 11  9  2  0  0  0  0
 11 13  1  0  0  0  0
 12 11  1  0  0  0  0
 13 14  2  0  0  0  0
 14  3  1  0  0  0  0
 14  5  1  0  0  0  0
 15  3  1  0  0  0  0
 16 17  1  0  0  0  0
 18 19  1  0  0  0  0
 18 16  2  0  0  0  0
 20 18  1  0  0  0  0
 21 20  1  0  0  0  0
 22 20  2  0  0  0  0
 22 24  1  0  0  0  0
 23 22  1  0  0  0  0
 24 25  1  0  0  0  0
 25 16  1  0  0  0  0
 25 26  2  0  0  0  0
 26 27  1  0  0  0  0
 28 26  1  0  0  0  0
 28 29  1  0  0  0  0
 30 28  2  0  0  0  0
 31 24  2  0  0  0  0
 31 30  1  0  0  0  0
 32 42  1  0  0  0  0
 33 32  1  0  0  0  0
 34 36  1  0  0  0  0
 34 32  2  0  0  0  0
 35 34  1  0  0  0  0
 36 38  2  0  0  0  0
 37 36  1  0  0  0  0
 38 39  1  0  0  0  0
 38 40  1  0  0  0  0
 40 41  1  0  0  0  0
 42 40  2  0  0  0  0
 42 47  1  0  0  0  0
 43 30  1  0  0  0  0
 43  1  2  0  0  0  0
 44 45  1  0  0  0  0
 44 47  1  0  0  0  0
 46 44  1  0  0  0  0
 47  1  1  0  0  0  0
 47 48  1  1  0  0  0
 49 50  1  0  0  0  0
 49  2  1  0  0  0  0
 51 49  1  0  0  0  0
 52 49  1  0  0  0  0
M  END
