3
q = 0.0, confidence = 0.998

 39 41  0  0  0  0  0  0  0  0999 V2000
    1.0918   -1.1787   -0.0243 N   0  0  0  0  0  0  0  0  0  0  0  0
    1.0513    1.1742   -0.0404 N   0  0  0  0  0  0  0  0  0  0  0  0
    0.3767   -0.0141    0.0140 C   0  0  0  0  0  2  0  0  0  0  0  0
    0.3078   -2.4351    0.1886 C   0  0  0  0  0  0  0  0  0  0  0  0
   -0.7366   -2.0394    0.2406 H   0  0  0  0  0  0  0  0  0  0  0  0
    0.5834   -3.0617    1.5561 C   0  0  0  0  0  0  0  0  0  0  0  0
   -0.1040   -3.9198    1.6980 H   0  0  0  0  0  0  0  0  0  0  0  0
    0.3680   -2.3183    2.3486 H   0  0  0  0  0  0  0  0  0  0  0  0
    1.6191   -3.4333    1.6756 H   0  0  0  0  0  0  0  0  0  0  0  0
    0.3417   -3.4069   -0.9976 C   0  0  0  0  0  0  0  0  0  0  0  0
    0.3060   -2.8652   -1.9630 H   0  0  0  0  0  0  0  0  0  0  0  0
   -0.5554   -4.0557   -0.9429 H   0  0  0  0  0  0  0  0  0  0  0  0
    1.2220   -4.0770   -1.0193 H   0  0  0  0  0  0  0  0  0  0  0  0
    2.5019   -1.2171   -0.1392 C   0  0  0  0  0  0  0  0  0  0  0  0
    3.2381   -2.4058   -0.1837 C   0  0  0  0  0  0  0  0  0  0  0  0
    2.7417   -3.3762   -0.1188 H   0  0  0  0  0  0  0  0  0  0  0  0
    4.6464   -2.3732   -0.3088 C   0  0  0  0  0  0  0  0  0  0  0  0
    5.1939   -3.3272   -0.3425 H   0  0  0  0  0  0  0  0  0  0  0  0
    5.3343   -1.1742   -0.3851 C   0  0  0  0  0  0  0  0  0  0  0  0
    6.4300   -1.1541   -0.4803 H   0  0  0  0  0  0  0  0  0  0  0  0
    4.6255    0.0598   -0.3324 C   0  0  0  0  0  0  0  0  0  0  0  0
    3.1898    0.0346   -0.2112 C   0  0  0  0  0  0  0  0  0  0  0  0
    2.4589    1.2618   -0.1457 C   0  0  0  0  0  0  0  0  0  0  0  0
    3.1523    2.4760   -0.1900 C   0  0  0  0  0  0  0  0  0  0  0  0
    2.6208    3.4280   -0.1280 H   0  0  0  0  0  0  0  0  0  0  0  0
    4.5611    2.4925   -0.3126 C   0  0  0  0  0  0  0  0  0  0  0  0
    5.0752    3.4649   -0.3469 H   0  0  0  0  0  0  0  0  0  0  0  0
    5.2904    1.3181   -0.3872 C   0  0  0  0  0  0  0  0  0  0  0  0
    6.3861    1.3362   -0.4823 H   0  0  0  0  0  0  0  0  0  0  0  0
    0.2195    2.4043    0.1343 C   0  0  0  0  0  0  0  0  0  0  0  0
   -0.8108    1.9675    0.1674 H   0  0  0  0  0  0  0  0  0  0  0  0
    0.2392    3.3526   -1.0707 C   0  0  0  0  0  0  0  0  0  0  0  0
    0.2592    2.7879   -2.0235 H   0  0  0  0  0  0  0  0  0  0  0  0
    1.0849    4.0664   -1.0834 H   0  0  0  0  0  0  0  0  0  0  0  0
   -0.6920    3.9541   -1.0567 H   0  0  0  0  0  0  0  0  0  0  0  0
    0.4374    3.0607    1.4978 C   0  0  0  0  0  0  0  0  0  0  0  0
    0.2312    2.3204    2.2963 H   0  0  0  0  0  0  0  0  0  0  0  0
   -0.2847    3.8943    1.6105 H   0  0  0  0  0  0  0  0  0  0  0  0
    1.4552    3.4727    1.6382 H   0  0  0  0  0  0  0  0  0  0  0  0
  1  3  1  0  0  0  0
  1  4  1  0  0  0  0
  2  3  1  0  0  0  0
  2 30  1  0  0  0  0
  4  5  1  0  0  0  0
  4  6  1  0  0  0  0
  6  9  1  0  0  0  0
  6  7  1  0  0  0  0
  6  8  1  0  0  0  0
 10 12  1  0  0  0  0
 10  4  1  0  0  0  0
 11 10  1  0  0  0  0
 13 10  1  0  0  0  0
 14  1  1  0  0  0  0
 15 14  1  0  0  0  0
 15 16  1  0  0  0  0
 17 15  2  0  0  0  0
 18 17  1  0  0  0  0
 19 21  2  0  0  0  0
 19 17  1  0  0  0  0
 20 19  1  0  0  0  0
 21 22  1  0  0  0  0
 22 23  1  0  0  0  0
 22 14  2  0  0  0  0
 23  2  1  0  0  0  0
 24 23  2  0  0  0  0
 24 25  1  0  0  0  0
 26 24  1  0  0  0  0
 27 26  1  0  0  0  0
 28 21  1  0  0  0  0
 28 26  2  0  0  0  0
 29 28  1  0  0  0  0
 30 31  1  0  0  0  0
 30 36  1  0  0  0  0
 32 35  1  0  0  0  0
 32 30  1  0  0  0  0
 33 32  1  0  0  0  0
 34 32  1  0  0  0  0
 36 38  1  0  0  0  0
 36 39  1  0  0  0  0
 36 37  1  0  0  0  0
M  END
