4
 OpenBabel05122313113D

 40 42  0  0  1  0  0  0  0  0999 V2000
   -0.1773    2.5878   -0.6097 O   0  0  0  0  0  0  0  0  0  0  0  0
   -0.1682    1.3578   -0.6614 C   0  0  0  0  0  0  0  0  0  0  0  0
    1.0232    0.4092   -0.6256 C   0  0  1  0  0  3  0  0  0  0  0  0
    0.5094   -0.8903   -1.0083 C   0  0  2  0  0  3  0  0  0  0  0  0
    0.9687   -2.2139   -1.5812 C   0  0  1  0  0  0  0  0  0  0  0  0
    1.2857   -2.0127   -2.6361 H   0  0  0  0  0  0  0  0  0  0  0  0
    2.0259   -2.8157   -0.8543 O   0  0  0  0  0  0  0  0  0  0  0  0
    2.3319   -3.5912   -1.3590 H   0  0  0  0  0  0  0  0  0  0  0  0
   -0.3318   -3.0689   -1.5611 C   0  0  0  0  0  0  0  0  0  0  0  0
   -0.3396   -3.5949   -0.5846 H   0  0  0  0  0  0  0  0  0  0  0  0
   -0.3473   -3.8343   -2.3616 H   0  0  0  0  0  0  0  0  0  0  0  0
   -1.5164   -2.0832   -1.6357 C   0  0  0  0  0  0  0  0  0  0  0  0
   -1.7986   -1.8691   -2.6902 H   0  0  0  0  0  0  0  0  0  0  0  0
   -2.4294   -2.4452   -1.1261 H   0  0  0  0  0  0  0  0  0  0  0  0
   -0.9286   -0.8309   -1.0450 C   0  0  2  0  0  3  0  0  0  0  0  0
   -1.3785    0.4635   -0.6353 C   0  0  2  0  0  3  0  0  0  0  0  0
   -3.1224    1.1942   -0.5128 Si  0  0  0  0  0  0  0  0  0  0  0  0
   -3.3687    2.2590   -2.0554 C   0  0  0  0  0  0  0  0  0  0  0  0
   -2.5693    3.0257   -2.0997 H   0  0  0  0  0  0  0  0  0  0  0  0
   -4.3515    2.7735   -2.0327 H   0  0  0  0  0  0  0  0  0  0  0  0
   -3.3201    1.6514   -2.9821 H   0  0  0  0  0  0  0  0  0  0  0  0
   -4.3973   -0.2046   -0.4591 C   0  0  0  0  0  0  0  0  0  0  0  0
   -4.3793   -0.8123   -1.3868 H   0  0  0  0  0  0  0  0  0  0  0  0
   -5.4173    0.2218   -0.3613 H   0  0  0  0  0  0  0  0  0  0  0  0
   -4.2330   -0.8816    0.4033 H   0  0  0  0  0  0  0  0  0  0  0  0
   -3.2295    2.2578    1.0401 C   0  0  0  0  0  0  0  0  0  0  0  0
   -3.1736    1.6423    1.9601 H   0  0  0  0  0  0  0  0  0  0  0  0
   -4.1825    2.8254    1.0628 H   0  0  0  0  0  0  0  0  0  0  0  0
   -2.3896    2.9809    1.0509 H   0  0  0  0  0  0  0  0  0  0  0  0
    2.4252    0.8435   -0.4947 C   0  0  0  0  0  0  0  0  0  0  0  0
    2.7313    2.2194   -0.3413 C   0  0  0  0  0  0  0  0  0  0  0  0
    1.9044    2.9419   -0.3262 H   0  0  0  0  0  0  0  0  0  0  0  0
    4.0610    2.6434   -0.2235 C   0  0  0  0  0  0  0  0  0  0  0  0
    4.2770    3.7166   -0.1069 H   0  0  0  0  0  0  0  0  0  0  0  0
    5.1123    1.7139   -0.2531 C   0  0  0  0  0  0  0  0  0  0  0  0
    6.1558    2.0513   -0.1580 H   0  0  0  0  0  0  0  0  0  0  0  0
    4.8199    0.3483   -0.4022 C   0  0  0  0  0  0  0  0  0  0  0  0
    5.6353   -0.3912   -0.4211 H   0  0  0  0  0  0  0  0  0  0  0  0
    3.4943   -0.0861   -0.5214 C   0  0  0  0  0  0  0  0  0  0  0  0
    3.2780   -1.1591   -0.6218 H   0  0  0  0  0  0  0  0  0  0  0  0
  2 16  1  0  0  0  0
  2  3  1  0  0  0  0
  2  1  2  0  0  0  0
  3 30  1  6  0  0  0
  4  3  1  0  0  0  0
  5  9  1  0  0  0  0
  5  4  1  0  0  0  0
  5  7  1  0  0  0  0
  6  5  1  0  0  0  0
  8  7  1  0  0  0  0
  9 10  1  0  0  0  0
 11  9  1  0  0  0  0
 12  9  1  0  0  0  0
 12 14  1  0  0  0  0
 12 15  1  0  0  0  0
 13 12  1  0  0  0  0
 15  4  1  0  0  0  0
 15 16  1  0  0  0  0
 16 17  1  0  0  0  0
 17 22  1  0  0  0  0
 17 26  1  0  0  0  0
 18 20  1  0  0  0  0
 18 17  1  0  0  0  0
 19 18  1  0  0  0  0
 21 18  1  0  0  0  0
 22 24  1  0  0  0  0
 22 25  1  0  0  0  0
 23 22  1  0  0  0  0
 26 29  1  0  0  0  0
 26 28  1  0  0  0  0
 26 27  1  0  0  0  0
 30 31  1  0  0  0  0
 31 32  1  0  0  0  0
 31 33  2  0  0  0  0
 33 34  1  0  0  0  0
 35 33  1  0  0  0  0
 35 36  1  0  0  0  0
 37 35  2  0  0  0  0
 38 37  1  0  0  0  0
 39 30  2  0  0  0  0
 39 37  1  0  0  0  0
 40 39  1  0  0  0  0
M  END
