6
 OpenBabel05122313113D

 67 72  0  0  1  0  0  0  0  0999 V2000
   -1.0995   -1.0239   -2.7066 O   0  0  0  0  0  0  0  0  0  0  0  0
    4.0779    2.1622   -1.1200 O   0  0  0  0  0  0  0  0  0  0  0  0
    3.9476    0.5184    0.4422 O   0  0  0  0  0  0  0  0  0  0  0  0
    0.9267   -1.3256   -1.7152 N   0  0  1  0  0  0  0  0  0  0  0  0
   -0.5773    0.0584    1.6641 N   0  0  0  0  0  0  0  0  0  0  0  0
   -1.2936   -0.0733    0.5508 C   0  0  0  0  0  2  0  0  0  0  0  0
   -0.6231    0.3877   -0.6690 C   0  0  0  0  0  0  0  0  0  0  0  0
   -0.1222    1.5932   -1.0909 C   0  0  0  0  0  0  0  0  0  0  0  0
    0.3805    1.0726   -2.4481 C   0  0  2  0  0  0  0  0  0  0  0  0
   -0.1397   -0.3417   -1.9413 C   0  0  2  0  0  0  0  0  0  0  0  0
   -0.5150   -2.2104   -3.2517 C   0  0  0  0  0  0  0  0  0  0  0  0
   -0.0197   -1.9902   -4.2257 H   0  0  0  0  0  0  0  0  0  0  0  0
   -1.3242   -2.9488   -3.4038 H   0  0  0  0  0  0  0  0  0  0  0  0
    0.5087   -2.6378   -2.1959 C   0  0  0  0  0  0  0  0  0  0  0  0
    0.0307   -3.2555   -1.4064 H   0  0  0  0  0  0  0  0  0  0  0  0
    1.3689   -3.1953   -2.6131 H   0  0  0  0  0  0  0  0  0  0  0  0
    2.1545   -0.9594   -1.2108 C   0  0  1  0  0  3  0  0  0  0  0  0
    2.6006    0.3254   -1.5006 C   0  0  1  0  0  3  0  0  0  0  0  0
    1.9040    1.0391   -2.6339 C   0  0  0  0  0  0  0  0  0  0  0  0
    2.0998    0.4937   -3.5866 H   0  0  0  0  0  0  0  0  0  0  0  0
    2.3301    2.0530   -2.7538 H   0  0  0  0  0  0  0  0  0  0  0  0
   -0.3572    1.6203   -3.6651 C   0  0  0  0  0  0  0  0  0  0  0  0
   -0.0845    2.6830   -3.8275 H   0  0  0  0  0  0  0  0  0  0  0  0
   -1.4534    1.5559   -3.5322 H   0  0  0  0  0  0  0  0  0  0  0  0
   -0.0834    1.0540   -4.5791 H   0  0  0  0  0  0  0  0  0  0  0  0
   -1.0535   -0.2947    3.0232 C   0  0  0  0  0  0  0  0  0  0  0  0
   -1.1435   -1.3975    3.0902 H   0  0  0  0  0  0  0  0  0  0  0  0
   -2.0557    0.1347    3.1983 H   0  0  0  0  0  0  0  0  0  0  0  0
    0.0215    0.2409    3.9720 C   0  0  0  0  0  0  0  0  0  0  0  0
   -0.1889    1.3005    4.2270 H   0  0  0  0  0  0  0  0  0  0  0  0
    0.0631   -0.3311    4.9186 H   0  0  0  0  0  0  0  0  0  0  0  0
    1.2983    0.1484    3.1287 C   0  0  0  0  0  0  0  0  0  0  0  0
    1.6703   -0.8971    3.0825 H   0  0  0  0  0  0  0  0  0  0  0  0
    2.1247    0.7827    3.5019 H   0  0  0  0  0  0  0  0  0  0  0  0
    0.8124    0.5943    1.7541 C   0  0  0  0  0  0  0  0  0  0  0  0
    1.4256    0.2327    0.9119 H   0  0  0  0  0  0  0  0  0  0  0  0
    0.7688    1.7019    1.6830 H   0  0  0  0  0  0  0  0  0  0  0  0
   -0.1071    2.9168   -0.4759 C   0  0  0  0  0  0  0  0  0  0  0  0
    0.9802    3.8067   -0.6587 C   0  0  0  0  0  0  0  0  0  0  0  0
    1.8445    3.5071   -1.2682 H   0  0  0  0  0  0  0  0  0  0  0  0
    0.9930    5.0494   -0.0101 C   0  0  0  0  0  0  0  0  0  0  0  0
    1.8522    5.7226   -0.1506 H   0  0  0  0  0  0  0  0  0  0  0  0
   -0.0744    5.4331    0.8181 C   0  0  0  0  0  0  0  0  0  0  0  0
   -0.0600    6.4121    1.3208 H   0  0  0  0  0  0  0  0  0  0  0  0
   -1.1621    4.5617    1.0000 C   0  0  0  0  0  0  0  0  0  0  0  0
   -2.0089    4.8540    1.6394 H   0  0  0  0  0  0  0  0  0  0  0  0
   -1.1788    3.3169    0.3609 C   0  0  0  0  0  0  0  0  0  0  0  0
   -2.0393    2.6459    0.4876 H   0  0  0  0  0  0  0  0  0  0  0  0
    3.6106    1.0854   -0.7562 C   0  0  0  0  0  0  0  0  0  0  0  0
    4.9666    1.1910    1.1992 C   0  0  0  0  0  0  0  0  0  0  0  0
    4.5857    2.1854    1.5198 H   0  0  0  0  0  0  0  0  0  0  0  0
    5.8404    1.3879    0.5423 H   0  0  0  0  0  0  0  0  0  0  0  0
    5.3228    0.3057    2.3775 C   0  0  0  0  0  0  0  0  0  0  0  0
    4.4410    0.1291    3.0251 H   0  0  0  0  0  0  0  0  0  0  0  0
    6.1135    0.7824    2.9901 H   0  0  0  0  0  0  0  0  0  0  0  0
    5.6906   -0.6811    2.0327 H   0  0  0  0  0  0  0  0  0  0  0  0
    2.8531   -1.9760   -0.3875 C   0  0  0  0  0  0  0  0  0  0  0  0
    2.1375   -2.6915    0.5977 C   0  0  0  0  0  0  0  0  0  0  0  0
    1.0663   -2.4809    0.7417 H   0  0  0  0  0  0  0  0  0  0  0  0
    2.7871   -3.6375    1.4025 C   0  0  0  0  0  0  0  0  0  0  0  0
    2.2221   -4.1794    2.1762 H   0  0  0  0  0  0  0  0  0  0  0  0
    4.1562   -3.8932    1.2201 C   0  0  0  0  0  0  0  0  0  0  0  0
    4.6659   -4.6402    1.8473 H   0  0  0  0  0  0  0  0  0  0  0  0
    4.8708   -3.2009    0.2272 C   0  0  0  0  0  0  0  0  0  0  0  0
    5.9405   -3.4091    0.0730 H   0  0  0  0  0  0  0  0  0  0  0  0
    4.2245   -2.2489   -0.5708 C   0  0  0  0  0  0  0  0  0  0  0  0
    4.7759   -1.7022   -1.3501 H   0  0  0  0  0  0  0  0  0  0  0  0
  2 49  2  0  0  0  0
  3 50  1  0  0  0  0
  4 14  1  6  0  0  0
  4 17  1  0  0  0  0
  5 35  1  0  0  0  0
  5 26  1  0  0  0  0
  6  5  1  0  0  0  0
  7  6  1  0  0  0  0
  8  7  2  0  0  0  0
  8 38  1  0  0  0  0
  9 22  1  6  0  0  0
  9 10  1  0  0  0  0
  9  8  1  0  0  0  0
 10  1  1  6  0  0  0
 10  4  1  0  0  0  0
 10  7  1  0  0  0  0
 11  1  1  0  0  0  0
 11 14  1  0  0  0  0
 12 11  1  0  0  0  0
 13 11  1  0  0  0  0
 14 15  1  0  0  0  0
 16 14  1  0  0  0  0
 17 57  1  1  0  0  0
 18 17  1  0  0  0  0
 18 49  1  1  0  0  0
 19  9  1  0  0  0  0
 19 18  1  0  0  0  0
 20 19  1  0  0  0  0
 21 19  1  0  0  0  0
 22 24  1  0  0  0  0
 23 22  1  0  0  0  0
 25 22  1  0  0  0  0
 26 27  1  0  0  0  0
 26 28  1  0  0  0  0
 26 29  1  0  0  0  0
 29 30  1  0  0  0  0
 29 31  1  0  0  0  0
 32 34  1  0  0  0  0
 32 29  1  0  0  0  0
 33 32  1  0  0  0  0
 35 32  1  0  0  0  0
 36 35  1  0  0  0  0
 37 35  1  0  0  0  0
 38 47  1  0  0  0  0
 39 38  2  0  0  0  0
 39 41  1  0  0  0  0
 40 39  1  0  0  0  0
 41 43  2  0  0  0  0
 42 41  1  0  0  0  0
 43 45  1  0  0  0  0
 43 44  1  0  0  0  0
 45 46  1  0  0  0  0
 47 48  1  0  0  0  0
 47 45  2  0  0  0  0
 49  3  1  0  0  0  0
 50 51  1  0  0  0  0
 50 53  1  0  0  0  0
 52 50  1  0  0  0  0
 53 55  1  0  0  0  0
 53 54  1  0  0  0  0
 56 53  1  0  0  0  0
 57 58  1  0  0  0  0
 58 59  1  0  0  0  0
 58 60  2  0  0  0  0
 60 61  1  0  0  0  0
 62 60  1  0  0  0  0
 62 63  1  0  0  0  0
 64 62  2  0  0  0  0
 65 64  1  0  0  0  0
 66 57  2  0  0  0  0
 66 64  1  0  0  0  0
 67 66  1  0  0  0  0
M  END
