9
 OpenBabel05122313113D

 37 38  0  0  1  0  0  0  0  0999 V2000
    2.2560    0.4101    0.6670 N   0  0  0  0  0  0  0  0  0  0  0  0
    3.3125    1.7423    2.2250 O   0  0  0  0  0  0  0  0  0  0  0  0
    3.5956    2.0899   -0.0197 O   0  0  0  0  0  0  0  0  0  0  0  0
    0.0575   -1.8729    2.4070 O   0  0  0  0  0  0  0  0  0  0  0  0
    5.4797   -0.6236    0.4823 O   0  0  0  0  0  0  0  0  0  0  0  0
    5.0097   -0.6572   -1.7297 O   0  0  0  0  0  0  0  0  0  0  0  0
    2.3130   -0.2635   -0.6223 C   0  0  2  0  0  0  0  0  0  0  0  0
    0.9120   -0.7648   -0.9965 C   0  0  0  0  0  3  0  0  0  0  0  0
    0.2421   -1.6060   -0.0221 C   0  0  0  0  0  3  0  0  0  0  0  0
    0.5414   -1.2198    1.3106 C   0  0  2  0  0  3  0  0  0  0  0  0
    1.9336   -0.6522    1.6024 C   0  0  1  0  0  0  0  0  0  0  0  0
    2.9850   -1.7444    1.2215 C   0  0  0  0  0  0  0  0  0  0  0  0
    3.2982   -1.4697   -0.2851 C   0  0  2  0  0  0  0  0  0  0  0  0
    3.0839    1.4378    1.0672 C   0  0  0  0  0  0  0  0  0  0  0  0
    4.4998    3.1460    0.3041 C   0  0  0  0  0  0  0  0  0  0  0  0
   -0.7697   -3.0120    2.1981 C   0  0  0  0  0  0  0  0  0  0  0  0
    4.7136   -0.8881   -0.4259 C   0  0  0  0  0  0  0  0  0  0  0  0
    6.2642   -0.0098   -1.9690 C   0  0  0  0  0  0  0  0  0  0  0  0
    3.1516   -2.6974   -1.1949 C   0  0  0  0  0  0  0  0  0  0  0  0
    2.7139    0.4061   -1.4007 H   0  0  0  0  0  0  0  0  0  0  0  0
    0.8390   -1.0802   -2.0488 H   0  0  0  0  0  0  0  0  0  0  0  0
   -0.3414   -2.4951   -0.2995 H   0  0  0  0  0  0  0  0  0  0  0  0
    2.0077   -0.2848    2.6407 H   0  0  0  0  0  0  0  0  0  0  0  0
    3.9044   -1.6054    1.8211 H   0  0  0  0  0  0  0  0  0  0  0  0
    2.6024   -2.7697    1.3889 H   0  0  0  0  0  0  0  0  0  0  0  0
    4.7575    3.6311   -0.6550 H   0  0  0  0  0  0  0  0  0  0  0  0
    5.4132    2.7441    0.7898 H   0  0  0  0  0  0  0  0  0  0  0  0
    4.0306    3.8770    0.9922 H   0  0  0  0  0  0  0  0  0  0  0  0
   -1.1148   -3.3349    3.1972 H   0  0  0  0  0  0  0  0  0  0  0  0
   -0.1936   -3.8355    1.7218 H   0  0  0  0  0  0  0  0  0  0  0  0
   -1.6540   -2.7723    1.5715 H   0  0  0  0  0  0  0  0  0  0  0  0
    6.3778    0.0443   -3.0663 H   0  0  0  0  0  0  0  0  0  0  0  0
    7.0991   -0.5812   -1.5166 H   0  0  0  0  0  0  0  0  0  0  0  0
    6.2617    1.0097   -1.5324 H   0  0  0  0  0  0  0  0  0  0  0  0
    3.9086   -3.4654   -0.9369 H   0  0  0  0  0  0  0  0  0  0  0  0
    3.2935   -2.4262   -2.2584 H   0  0  0  0  0  0  0  0  0  0  0  0
    2.1516   -3.1546   -1.0720 H   0  0  0  0  0  0  0  0  0  0  0  0
  1 14  1  0  0  0  0
  1 11  1  0  0  0  0
  3 15  1  0  0  0  0
  3 14  1  0  0  0  0
  6 17  1  0  0  0  0
  7 20  1  6  0  0  0
  7 13  1  0  0  0  0
  7  1  1  0  0  0  0
  8  7  1  0  0  0  0
  8  9  1  0  0  0  0
  9 10  1  0  0  0  0
 10 11  1  0  0  0  0
 10  4  1  1  0  0  0
 11 23  1  1  0  0  0
 12 25  1  0  0  0  0
 12 11  1  0  0  0  0
 12 24  1  0  0  0  0
 13 17  1  6  0  0  0
 13 12  1  0  0  0  0
 14  2  2  0  0  0  0
 15 27  1  0  0  0  0
 15 28  1  0  0  0  0
 16  4  1  0  0  0  0
 16 29  1  0  0  0  0
 17  5  2  0  0  0  0
 18  6  1  0  0  0  0
 18 34  1  0  0  0  0
 18 33  1  0  0  0  0
 19 37  1  0  0  0  0
 19 35  1  0  0  0  0
 19 13  1  0  0  0  0
 21  8  1  0  0  0  0
 22  9  1  0  0  0  0
 26 15  1  0  0  0  0
 30 16  1  0  0  0  0
 31 16  1  0  0  0  0
 32 18  1  0  0  0  0
 36 19  1  0  0  0  0
M  END
