1
 OpenBabel05122313113D

 21 22  0  0  0  0  0  0  0  0999 V2000
    1.4782    2.1328    0.0048 C   0  0  0  0  0  1  0  0  0  0  0  0
    2.3367    1.3015   -0.0192 N   0  0  0  0  0  2  0  0  0  0  0  0
    3.3226    0.3571   -0.0760 C   0  0  0  0  0  0  0  0  0  0  0  0
    3.9663    0.0841   -1.3131 C   0  0  0  0  0  0  0  0  0  0  0  0
    3.6621    0.6398   -2.2101 H   0  0  0  0  0  0  0  0  0  0  0  0
    4.9685   -0.8766   -1.3711 C   0  0  0  0  0  0  0  0  0  0  0  0
    5.4604   -1.0798   -2.3308 H   0  0  0  0  0  0  0  0  0  0  0  0
    5.3656   -1.5963   -0.2146 C   0  0  0  0  0  0  0  0  0  0  0  0
    4.7066   -1.3056    1.0138 C   0  0  0  0  0  0  0  0  0  0  0  0
    3.6945   -0.3394    1.0895 C   0  0  0  0  0  0  0  0  0  0  0  0
    3.2083   -0.1393    2.0528 H   0  0  0  0  0  0  0  0  0  0  0  0
    6.3967   -2.6136   -0.1743 C   0  0  0  0  0  0  0  0  0  0  0  0
    6.7008   -3.2464    0.9980 C   0  0  0  0  0  0  0  0  0  0  0  0
    7.4776   -4.0195    1.0519 H   0  0  0  0  0  0  0  0  0  0  0  0
    6.0174   -2.9406    2.2529 C   0  0  0  0  0  0  0  0  0  0  0  0
    6.2221   -3.4503    3.3290 O   0  0  0  0  0  0  0  0  0  0  0  0
    5.0218   -1.9451    2.1691 O   0  0  0  0  0  0  0  0  0  0  0  0
    7.1473   -2.9833   -1.4422 C   0  0  0  0  0  0  0  0  0  0  0  0
    8.0672   -3.9420   -1.2273 F   0  0  0  0  0  0  0  0  0  0  0  0
    7.7868   -1.9047   -1.9553 F   0  0  0  0  0  0  0  0  0  0  0  0
    6.2934   -3.4361   -2.3921 F   0  0  0  0  0  0  0  0  0  0  0  0
  2  1  1  0  0  0  0
  3  2  1  0  0  0  0
  3 10  1  0  0  0  0
  4  3  2  0  0  0  0
  5  4  1  0  0  0  0
  6  4  1  0  0  0  0
  6  8  2  0  0  0  0
  7  6  1  0  0  0  0
  8 12  1  0  0  0  0
  8  9  1  0  0  0  0
  9 10  2  0  0  0  0
  9 17  1  0  0  0  0
 10 11  1  0  0  0  0
 12 13  2  0  0  0  0
 13 14  1  0  0  0  0
 13 15  1  0  0  0  0
 15 16  2  0  0  0  0
 17 15  1  0  0  0  0
 18 19  1  0  0  0  0
 18 12  1  0  0  0  0
 20 18  1  0  0  0  0
 21 18  1  0  0  0  0
M  END
