26
 OpenBabel05122313113D

 37 43  0  0  1  0  0  0  0  0999 V2000
    0.0190   -0.2245    1.3271 S   0  0  0  0  0  1  0  0  0  0  0  0
    1.6851   -1.1385   -0.8115 B   0  0  0  0  0  0  0  0  0  0  0  0
    2.2665   -2.0558    0.6104 B   0  0  1  0  0  0  0  0  0  0  0  0
    1.5327   -2.9216    1.0209 H   0  0  0  0  0  0  0  0  0  0  0  0
    3.0199   -0.9080    1.7551 B   0  0  1  0  0  0  0  0  0  0  0  0
    2.8152   -1.0165    2.9387 H   0  0  0  0  0  0  0  0  0  0  0  0
    2.9175    0.7278    1.0439 B   0  0  0  0  0  0  0  0  0  0  0  0
    2.6058    1.7147    1.6564 H   0  0  0  0  0  0  0  0  0  0  0  0
    3.0998   -0.4256   -1.6103 B   0  0  2  0  0  0  0  0  0  0  0  0
    2.9994   -0.1517   -2.7795 H   0  0  0  0  0  0  0  0  0  0  0  0
    3.2029   -2.0607   -0.9001 B   0  0  0  0  0  2  0  0  0  0  0  0
    3.2593   -3.0473   -1.5956 H   0  0  0  0  0  0  0  0  0  0  0  0
    4.0322   -1.9163    0.6829 B   0  0  2  0  0  0  0  0  0  0  0  0
    4.7063   -2.8082    1.1404 H   0  0  0  0  0  0  0  0  0  0  0  0
    4.4311   -0.1852    0.9507 B   0  0  2  0  0  0  0  0  0  0  0  0
    5.3929    0.1833    1.5813 H   0  0  0  0  0  0  0  0  0  0  0  0
    3.8543    0.7322   -0.4731 B   0  0  1  0  0  0  0  0  0  0  0  0
    4.2849    1.7855   -0.8688 H   0  0  0  0  0  0  0  0  0  0  0  0
    4.5465   -0.8975   -0.6924 B   0  0  2  0  0  0  0  0  0  0  0  0
    5.6105   -1.0389   -1.2471 H   0  0  0  0  0  0  0  0  0  0  0  0
    1.7233   -0.4528    0.7626 C   0  0  2  0  0  0  0  0  0  0  0  0
    2.1687    0.5075   -0.5214 C   0  0  1  0  0  0  0  0  0  0  0  0
    0.1888   -1.2556   -1.3118 C   0  0  0  0  0  0  0  0  0  0  0  0
    0.0931   -0.6829   -2.2597 H   0  0  0  0  0  0  0  0  0  0  0  0
   -0.0690   -2.3146   -1.5149 H   0  0  0  0  0  0  0  0  0  0  0  0
   -0.7777   -0.6712   -0.2774 C   0  0  1  0  0  3  0  0  0  0  0  0
   -2.0919   -1.3606   -0.1504 C   0  0  0  0  0  0  0  0  0  0  0  0
   -2.7874   -1.7106   -1.3339 C   0  0  0  0  0  0  0  0  0  0  0  0
   -2.3350   -1.4879   -2.3115 H   0  0  0  0  0  0  0  0  0  0  0  0
   -4.0503   -2.3142   -1.2778 C   0  0  0  0  0  0  0  0  0  0  0  0
   -4.5699   -2.5701   -2.2138 H   0  0  0  0  0  0  0  0  0  0  0  0
   -4.6507   -2.5958   -0.0398 C   0  0  0  0  0  0  0  0  0  0  0  0
   -5.6403   -3.0743    0.0035 H   0  0  0  0  0  0  0  0  0  0  0  0
   -3.9660   -2.2719    1.1420 C   0  0  0  0  0  0  0  0  0  0  0  0
   -4.4119   -2.5063    2.1206 H   0  0  0  0  0  0  0  0  0  0  0  0
   -2.7042   -1.6645    1.0871 C   0  0  0  0  0  0  0  0  0  0  0  0
   -2.1712   -1.4444    2.0254 H   0  0  0  0  0  0  0  0  0  0  0  0
  3 13  1  0  0  0  0
  3 21  1  0  0  0  0
  3  4  1  1  0  0  0
  5  6  1  1  0  0  0
  7  8  1  0  0  0  0
  9 10  1  6  0  0  0
  9  2  1  0  0  0  0
  9 19  1  0  0  0  0
  9 22  1  0  0  0  0
 11  3  1  0  0  0  0
 12 11  1  0  0  0  0
 13 14  1  1  0  0  0
 13  5  1  0  0  0  0
 15  7  1  0  0  0  0
 15 16  1  1  0  0  0
 15  5  1  0  0  0  0
 17 18  1  6  0  0  0
 17 15  1  0  0  0  0
 19 20  1  6  0  0  0
 19 17  1  0  0  0  0
 19 13  1  0  0  0  0
 21  7  1  1  0  0  0
 21  5  1  0  0  0  0
 22  2  1  6  0  0  0
 22 17  1  0  0  0  0
 22 21  1  0  0  0  0
 23  2  1  0  0  0  0
 23 26  1  0  0  0  0
 24 23  1  0  0  0  0
 25 23  1  0  0  0  0
 26 27  1  0  0  0  0
 26  1  1  1  0  0  0
 27 36  1  0  0  0  0
 28 30  1  0  0  0  0
 28 27  2  0  0  0  0
 29 28  1  0  0  0  0
 30 32  2  0  0  0  0
 31 30  1  0  0  0  0
 32 33  1  0  0  0  0
 32 34  1  0  0  0  0
 34 35  1  0  0  0  0
 36 34  2  0  0  0  0
 36 37  1  0  0  0  0
M  END
