2
 OpenBabel05122313113D

 31 32  0  0  0  0  0  0  0  0999 V2000
   -2.1529   -1.4016   -1.7869 O   0  0  0  0  0  0  0  0  0  0  0  0
   -1.6784   -0.3974   -1.0921 C   0  0  0  0  0  2  0  0  0  0  0  0
   -2.6573    0.5726   -0.6577 C   0  0  0  0  0  0  0  0  0  0  0  0
   -2.2548    1.5967   -0.6111 H   0  0  0  0  0  0  0  0  0  0  0  0
   -3.9437    0.3332   -0.2161 C   0  0  0  0  0  0  0  0  0  0  0  0
   -4.4596   -1.0351    0.0345 C   0  0  0  0  0  0  0  0  0  0  0  0
   -3.6761   -1.9932    0.7196 C   0  0  0  0  0  0  0  0  0  0  0  0
   -2.6660   -1.7311    1.0739 H   0  0  0  0  0  0  0  0  0  0  0  0
   -4.1736   -3.2820    0.9475 C   0  0  0  0  0  0  0  0  0  0  0  0
   -3.5492   -4.0121    1.4846 H   0  0  0  0  0  0  0  0  0  0  0  0
   -5.4568   -3.6383    0.5002 C   0  0  0  0  0  0  0  0  0  0  0  0
   -5.8449   -4.6523    0.6819 H   0  0  0  0  0  0  0  0  0  0  0  0
   -6.2468   -2.6918   -0.1724 C   0  0  0  0  0  0  0  0  0  0  0  0
   -7.2526   -2.9632   -0.5274 H   0  0  0  0  0  0  0  0  0  0  0  0
   -5.7579   -1.3976   -0.3941 C   0  0  0  0  0  0  0  0  0  0  0  0
   -6.3761   -0.6581   -0.9247 H   0  0  0  0  0  0  0  0  0  0  0  0
   -1.2656   -2.4636   -2.2003 C   0  0  0  0  0  0  0  0  0  0  0  0
   -0.9500   -3.0308   -1.3034 H   0  0  0  0  0  0  0  0  0  0  0  0
   -0.3738   -2.0303   -2.6938 H   0  0  0  0  0  0  0  0  0  0  0  0
   -1.8522   -3.0889   -2.8961 H   0  0  0  0  0  0  0  0  0  0  0  0
   -4.8241    1.4792    0.1075 C   0  0  0  0  0  0  0  0  0  0  0  0
   -4.7115    2.7021   -0.5987 C   0  0  0  0  0  0  0  0  0  0  0  0
   -3.9858    2.7845   -1.4217 H   0  0  0  0  0  0  0  0  0  0  0  0
   -5.5336    3.7892   -0.2833 C   0  0  0  0  0  0  0  0  0  0  0  0
   -5.4394    4.7268   -0.8517 H   0  0  0  0  0  0  0  0  0  0  0  0
   -6.4830    3.6822    0.7477 C   0  0  0  0  0  0  0  0  0  0  0  0
   -7.1287    4.5385    0.9949 H   0  0  0  0  0  0  0  0  0  0  0  0
   -6.6070    2.4769    1.4570 C   0  0  0  0  0  0  0  0  0  0  0  0
   -7.3441    2.3880    2.2695 H   0  0  0  0  0  0  0  0  0  0  0  0
   -5.7910    1.3843    1.1378 C   0  0  0  0  0  0  0  0  0  0  0  0
   -5.8832    0.4453    1.7026 H   0  0  0  0  0  0  0  0  0  0  0  0
  1  2  1  0  0  0  0
  2  3  1  0  0  0  0
  3  4  1  0  0  0  0
  3  5  2  0  0  0  0
  5  6  1  0  0  0  0
  5 21  1  0  0  0  0
  6  7  1  0  0  0  0
  7  9  2  0  0  0  0
  7  8  1  0  0  0  0
  9 10  1  0  0  0  0
 11 12  1  0  0  0  0
 11  9  1  0  0  0  0
 13 11  2  0  0  0  0
 14 13  1  0  0  0  0
 15 13  1  0  0  0  0
 15  6  2  0  0  0  0
 16 15  1  0  0  0  0
 17  1  1  0  0  0  0
 17 18  1  0  0  0  0
 19 17  1  0  0  0  0
 20 17  1  0  0  0  0
 21 30  1  0  0  0  0
 22 24  1  0  0  0  0
 22 21  2  0  0  0  0
 23 22  1  0  0  0  0
 24 26  2  0  0  0  0
 25 24  1  0  0  0  0
 26 27  1  0  0  0  0
 26 28  1  0  0  0  0
 28 29  1  0  0  0  0
 30 28  2  0  0  0  0
 30 31  1  0  0  0  0
M  END
