2
 OpenBabel05122313113D

 34 35  0  0  0  0  0  0  0  0999 V2000
   -2.1406   -1.3752   -1.6504 O   0  0  0  0  0  0  0  0  0  0  0  0
   -1.6603   -0.3530   -0.9920 C   0  0  0  0  0  2  0  0  0  0  0  0
   -2.6280    0.6572   -0.6215 C   0  0  0  0  0  0  0  0  0  0  0  0
   -2.2087    1.6755   -0.6315 H   0  0  0  0  0  0  0  0  0  0  0  0
   -3.9229    0.4676   -0.1856 C   0  0  0  0  0  0  0  0  0  0  0  0
   -4.7962    1.6400    0.0494 C   0  0  0  0  0  0  0  0  0  0  0  0
   -4.6498    2.8202   -0.7204 C   0  0  0  0  0  0  0  0  0  0  0  0
   -3.9012    2.8491   -1.5263 H   0  0  0  0  0  0  0  0  0  0  0  0
   -5.4678    3.9315   -0.4897 C   0  0  0  0  0  0  0  0  0  0  0  0
   -5.3467    4.8349   -1.1064 H   0  0  0  0  0  0  0  0  0  0  0  0
   -6.4480    3.8915    0.5171 C   0  0  0  0  0  0  0  0  0  0  0  0
   -7.0908    4.7664    0.6972 H   0  0  0  0  0  0  0  0  0  0  0  0
   -6.6066    2.7286    1.2876 C   0  0  0  0  0  0  0  0  0  0  0  0
   -7.3684    2.6919    2.0810 H   0  0  0  0  0  0  0  0  0  0  0  0
   -5.7938    1.6120    1.0539 C   0  0  0  0  0  0  0  0  0  0  0  0
   -5.9135    0.7067    1.6665 H   0  0  0  0  0  0  0  0  0  0  0  0
   -4.4557   -0.8766    0.1486 C   0  0  0  0  0  0  0  0  0  0  0  0
   -3.7080   -1.7678    0.9519 C   0  0  0  0  0  0  0  0  0  0  0  0
   -2.7147   -1.4706    1.3263 H   0  0  0  0  0  0  0  0  0  0  0  0
   -4.2194   -3.0329    1.2685 C   0  0  0  0  0  0  0  0  0  0  0  0
   -3.6243   -3.7126    1.8972 H   0  0  0  0  0  0  0  0  0  0  0  0
   -5.4783   -3.4307    0.7897 C   0  0  0  0  0  0  0  0  0  0  0  0
   -5.8770   -4.4257    1.0401 H   0  0  0  0  0  0  0  0  0  0  0  0
   -6.2320   -2.5490   -0.0031 C   0  0  0  0  0  0  0  0  0  0  0  0
   -7.2189   -2.8540   -0.3834 H   0  0  0  0  0  0  0  0  0  0  0  0
   -5.7316   -1.2773   -0.3111 C   0  0  0  0  0  0  0  0  0  0  0  0
   -6.3218   -0.5870   -0.9322 H   0  0  0  0  0  0  0  0  0  0  0  0
   -1.2702   -2.4691   -2.0684 C   0  0  0  0  0  0  0  0  0  0  0  0
   -0.2197   -2.1210   -1.9636 H   0  0  0  0  0  0  0  0  0  0  0  0
   -1.5112   -2.6133   -3.1405 H   0  0  0  0  0  0  0  0  0  0  0  0
   -1.5555   -3.7052   -1.2417 C   0  0  0  0  0  0  0  0  0  0  0  0
   -0.9735   -4.5557   -1.6507 H   0  0  0  0  0  0  0  0  0  0  0  0
   -2.6311   -3.9692   -1.2686 H   0  0  0  0  0  0  0  0  0  0  0  0
   -1.2463   -3.5336   -0.1922 H   0  0  0  0  0  0  0  0  0  0  0  0
  1  2  1  0  0  0  0
  2  3  1  0  0  0  0
  3  5  2  0  0  0  0
  4  3  1  0  0  0  0
  5  6  1  0  0  0  0
  5 17  1  0  0  0  0
  6 15  1  0  0  0  0
  7  9  1  0  0  0  0
  7  6  2  0  0  0  0
  8  7  1  0  0  0  0
  9 11  2  0  0  0  0
 10  9  1  0  0  0  0
 11 12  1  0  0  0  0
 11 13  1  0  0  0  0
 13 14  1  0  0  0  0
 15 13  2  0  0  0  0
 15 16  1  0  0  0  0
 17 18  1  0  0  0  0
 18 20  2  0  0  0  0
 18 19  1  0  0  0  0
 20 21  1  0  0  0  0
 22 23  1  0  0  0  0
 22 20  1  0  0  0  0
 24 22  2  0  0  0  0
 25 24  1  0  0  0  0
 26 24  1  0  0  0  0
 26 17  2  0  0  0  0
 27 26  1  0  0  0  0
 28 29  1  0  0  0  0
 28  1  1  0  0  0  0
 28 31  1  0  0  0  0
 30 28  1  0  0  0  0
 31 34  1  0  0  0  0
 32 31  1  0  0  0  0
 33 31  1  0  0  0  0
M  END
