4
 OpenBabel05122313113D

 43 44  0  0  0  0  0  0  0  0999 V2000
    1.8418    3.8761    0.0855 S   0  0  0  0  0  0  0  0  0  0  0  0
    2.2486   -2.1387    0.4237 N   0  0  0  0  0  0  0  0  0  0  0  0
    2.7433   -0.1212   -0.2670 N   0  0  0  0  0  0  0  0  0  0  0  0
    1.7014   -0.9407    0.0665 C   0  0  0  0  0  2  0  0  0  0  0  0
    3.6396   -2.0960    0.3193 C   0  0  0  0  0  0  0  0  0  0  0  0
    4.6411   -3.0484    0.5548 C   0  0  0  0  0  0  0  0  0  0  0  0
    4.3977   -4.0691    0.8808 H   0  0  0  0  0  0  0  0  0  0  0  0
    5.9702   -2.6471    0.3522 C   0  0  0  0  0  0  0  0  0  0  0  0
    6.7812   -3.3691    0.5282 H   0  0  0  0  0  0  0  0  0  0  0  0
    6.2894   -1.3384   -0.0732 C   0  0  0  0  0  0  0  0  0  0  0  0
    7.3436   -1.0613   -0.2204 H   0  0  0  0  0  0  0  0  0  0  0  0
    5.2895   -0.3841   -0.3146 C   0  0  0  0  0  0  0  0  0  0  0  0
    5.5402    0.6331   -0.6477 H   0  0  0  0  0  0  0  0  0  0  0  0
    3.9607   -0.7834   -0.1144 C   0  0  0  0  0  0  0  0  0  0  0  0
    1.4400   -3.2866    0.8304 C   0  0  0  0  0  0  0  0  0  0  0  0
    0.7248   -2.9184    1.5950 H   0  0  0  0  0  0  0  0  0  0  0  0
    2.1147   -4.0181    1.3204 H   0  0  0  0  0  0  0  0  0  0  0  0
    0.6860   -3.9381   -0.3407 C   0  0  0  0  0  0  0  0  0  0  0  0
    0.0726   -3.1305   -0.8024 H   0  0  0  0  0  0  0  0  0  0  0  0
    1.6372   -4.4742   -1.4130 C   0  0  0  0  0  0  0  0  0  0  0  0
    2.2866   -3.6718   -1.8167 H   0  0  0  0  0  0  0  0  0  0  0  0
    1.0706   -4.8988   -2.2658 H   0  0  0  0  0  0  0  0  0  0  0  0
    2.2916   -5.2766   -1.0083 H   0  0  0  0  0  0  0  0  0  0  0  0
   -0.2580   -5.0181    0.1953 C   0  0  0  0  0  0  0  0  0  0  0  0
    0.3046   -5.8465    0.6773 H   0  0  0  0  0  0  0  0  0  0  0  0
   -0.8599   -5.4587   -0.6248 H   0  0  0  0  0  0  0  0  0  0  0  0
   -0.9596   -4.6068    0.9505 H   0  0  0  0  0  0  0  0  0  0  0  0
    2.5584    1.2741   -0.6566 C   0  0  0  0  0  0  0  0  0  0  0  0
    1.6902    1.3071   -1.3454 H   0  0  0  0  0  0  0  0  0  0  0  0
    3.4491    1.5988   -1.2267 H   0  0  0  0  0  0  0  0  0  0  0  0
    2.3057    2.1739    0.5598 C   0  0  0  0  0  0  0  0  0  0  0  0
    3.1840    2.2095    1.2373 H   0  0  0  0  0  0  0  0  0  0  0  0
    1.4613    1.7577    1.1498 H   0  0  0  0  0  0  0  0  0  0  0  0
    3.4343    4.7943    0.2896 C   0  0  0  0  0  0  0  0  0  0  0  0
    3.7275    4.6695    1.3552 H   0  0  0  0  0  0  0  0  0  0  0  0
    4.5511    4.2713   -0.6115 C   0  0  0  0  0  0  0  0  0  0  0  0
    4.2538    4.3267   -1.6785 H   0  0  0  0  0  0  0  0  0  0  0  0
    4.8140    3.2203   -0.3777 H   0  0  0  0  0  0  0  0  0  0  0  0
    5.4718    4.8771   -0.4725 H   0  0  0  0  0  0  0  0  0  0  0  0
    3.1187    6.2678    0.0277 C   0  0  0  0  0  0  0  0  0  0  0  0
    4.0231    6.8879    0.1942 H   0  0  0  0  0  0  0  0  0  0  0  0
    2.3176    6.6361    0.6987 H   0  0  0  0  0  0  0  0  0  0  0  0
    2.7892    6.4209   -1.0208 H   0  0  0  0  0  0  0  0  0  0  0  0
  1 34  1  0  0  0  0
  1 31  1  0  0  0  0
  2 15  1  0  0  0  0
  3 14  1  0  0  0  0
  3  4  1  0  0  0  0
  4  2  1  0  0  0  0
  5  2  1  0  0  0  0
  5  6  1  0  0  0  0
  6  7  1  0  0  0  0
  8  9  1  0  0  0  0
  8  6  2  0  0  0  0
 10  8  1  0  0  0  0
 11 10  1  0  0  0  0
 12 14  1  0  0  0  0
 12 10  2  0  0  0  0
 13 12  1  0  0  0  0
 14  5  2  0  0  0  0
 15 17  1  0  0  0  0
 15 16  1  0  0  0  0
 18 24  1  0  0  0  0
 18 15  1  0  0  0  0
 19 18  1  0  0  0  0
 20 23  1  0  0  0  0
 20 18  1  0  0  0  0
 21 20  1  0  0  0  0
 22 20  1  0  0  0  0
 24 25  1  0  0  0  0
 24 27  1  0  0  0  0
 26 24  1  0  0  0  0
 28  3  1  0  0  0  0
 28 31  1  0  0  0  0
 29 28  1  0  0  0  0
 30 28  1  0  0  0  0
 31 33  1  0  0  0  0
 31 32  1  0  0  0  0
 34 35  1  0  0  0  0
 36 39  1  0  0  0  0
 36 38  1  0  0  0  0
 36 34  1  0  0  0  0
 37 36  1  0  0  0  0
 40 41  1  0  0  0  0
 40 34  1  0  0  0  0
 40 42  1  0  0  0  0
 43 40  1  0  0  0  0
M  END
