7
 OpenBabel05122313113D

 34 35  0  0  0  0  0  0  0  0999 V2000
    5.1629    1.7285    0.6523 S   0  0  0  0  0  0  0  0  0  0  0  0
    5.1747    1.5377   -2.0160 F   0  0  0  0  0  0  0  0  0  0  0  0
    5.7685   -0.2969   -0.9880 F   0  0  0  0  0  0  0  0  0  0  0  0
    7.1467    1.3988   -1.0802 F   0  0  0  0  0  0  0  0  0  0  0  0
    5.1884    3.1980    0.5026 O   0  0  0  0  0  0  0  0  0  0  0  0
    5.8780    1.0093    1.7260 O   0  0  0  0  0  0  0  0  0  0  0  0
   -0.5798   -0.2588    0.2467 C   0  0  0  0  0  2  0  0  0  0  0  0
   -1.5349    0.7740    0.1668 C   0  0  0  0  0  0  0  0  0  0  0  0
   -2.3821    1.6801    0.1192 C   0  0  0  0  0  0  0  0  0  0  0  0
   -3.3614    2.7040    0.0608 C   0  0  0  0  0  0  0  0  0  0  0  0
   -4.7211    2.4043   -0.2206 C   0  0  0  0  0  0  0  0  0  0  0  0
   -5.6770    3.4217   -0.2786 C   0  0  0  0  0  0  0  0  0  0  0  0
   -5.3275    4.7710   -0.0586 C   0  0  0  0  0  0  0  0  0  0  0  0
   -3.9741    5.0678    0.2216 C   0  0  0  0  0  0  0  0  0  0  0  0
   -3.0075    4.0639    0.2809 C   0  0  0  0  0  0  0  0  0  0  0  0
   -6.3575    5.8678   -0.1104 C   0  0  0  0  0  0  0  0  0  0  0  0
    0.8246    0.2228    0.3971 C   0  0  0  0  0  0  0  0  0  0  0  0
    1.1852    1.5028   -0.1010 C   0  0  0  0  0  0  0  0  0  0  0  0
    2.5014    1.9666   -0.0337 C   0  0  0  0  0  0  0  0  0  0  0  0
    3.4697    1.1500    0.5682 C   0  0  0  0  0  0  0  0  0  0  0  0
    3.1500   -0.1094    1.0984 C   0  0  0  0  0  0  0  0  0  0  0  0
    1.8335   -0.5667    1.0016 C   0  0  0  0  0  0  0  0  0  0  0  0
    5.8657    1.0392   -0.9806 C   0  0  0  0  0  0  0  0  0  0  0  0
   -5.0141    1.3585   -0.3959 H   0  0  0  0  0  0  0  0  0  0  0  0
   -6.7253    3.1671   -0.5003 H   0  0  0  0  0  0  0  0  0  0  0  0
   -3.6769    6.1140    0.3962 H   0  0  0  0  0  0  0  0  0  0  0  0
   -1.9590    4.3113    0.5015 H   0  0  0  0  0  0  0  0  0  0  0  0
   -6.0609    6.6648   -0.8233 H   0  0  0  0  0  0  0  0  0  0  0  0
   -6.4713    6.3549    0.8812 H   0  0  0  0  0  0  0  0  0  0  0  0
   -7.3504    5.4860   -0.4158 H   0  0  0  0  0  0  0  0  0  0  0  0
    0.4092    2.1317   -0.5611 H   0  0  0  0  0  0  0  0  0  0  0  0
    2.7870    2.9530   -0.4265 H   0  0  0  0  0  0  0  0  0  0  0  0
    3.9304   -0.7113    1.5855 H   0  0  0  0  0  0  0  0  0  0  0  0
    1.5757   -1.5464    1.4204 H   0  0  0  0  0  0  0  0  0  0  0  0
  1  6  2  0  0  0  0
  2 23  1  0  0  0  0
  3 23  1  0  0  0  0
  4 23  1  0  0  0  0
  5  1  2  0  0  0  0
  7 17  1  0  0  0  0
  8  7  1  0  0  0  0
  9  8  3  0  0  0  0
 10  9  1  0  0  0  0
 10 15  1  0  0  0  0
 11 10  2  0  0  0  0
 12 11  1  0  0  0  0
 12 13  2  0  0  0  0
 13 14  1  0  0  0  0
 14 15  2  0  0  0  0
 14 26  1  0  0  0  0
 15 27  1  0  0  0  0
 16 13  1  0  0  0  0
 16 29  1  0  0  0  0
 17 22  1  0  0  0  0
 18 19  1  0  0  0  0
 18 17  2  0  0  0  0
 19 20  2  0  0  0  0
 20  1  1  0  0  0  0
 20 21  1  0  0  0  0
 21 33  1  0  0  0  0
 22 21  2  0  0  0  0
 22 34  1  0  0  0  0
 23  1  1  0  0  0  0
 24 11  1  0  0  0  0
 25 12  1  0  0  0  0
 28 16  1  0  0  0  0
 30 16  1  0  0  0  0
 31 18  1  0  0  0  0
 32 19  1  0  0  0  0
M  END
