5
 OpenBabel05122313113D

 24 26  0  0  0  0  0  0  0  0999 V2000
    1.3176   -1.8912    0.1575 N   0  0  0  0  0  0  0  0  0  0  0  0
    0.9714   -2.8508    0.2329 H   0  0  0  0  0  0  0  0  0  0  0  0
    1.3215    0.2923    0.0406 N   0  0  0  0  0  0  0  0  0  0  0  0
   -0.4504    1.7423   -0.4386 N   0  0  0  0  0  0  0  0  0  0  0  0
    0.5173   -0.8074    0.1333 C   0  0  0  0  0  2  0  0  0  0  0  0
    2.6594   -1.5279    0.0653 C   0  0  0  0  0  0  0  0  0  0  0  0
    3.8312   -2.2967    0.0243 C   0  0  0  0  0  0  0  0  0  0  0  0
    3.8061   -3.3928    0.0992 H   0  0  0  0  0  0  0  0  0  0  0  0
    5.0315   -1.5966   -0.1302 C   0  0  0  0  0  0  0  0  0  0  0  0
    5.9786   -2.1535   -0.1691 H   0  0  0  0  0  0  0  0  0  0  0  0
    5.0509   -0.1874   -0.2567 C   0  0  0  0  0  0  0  0  0  0  0  0
    6.0135    0.3232   -0.4038 H   0  0  0  0  0  0  0  0  0  0  0  0
    3.8810    0.5801   -0.2106 C   0  0  0  0  0  0  0  0  0  0  0  0
    3.9234    1.6677   -0.3415 H   0  0  0  0  0  0  0  0  0  0  0  0
    2.6717   -0.1126   -0.0253 C   0  0  0  0  0  0  0  0  0  0  0  0
    0.8006    1.6352    0.0194 C   0  0  0  0  0  0  0  0  0  0  0  0
    1.5483    2.7226    0.4946 C   0  0  0  0  0  0  0  0  0  0  0  0
    2.5417    2.5915    0.9407 H   0  0  0  0  0  0  0  0  0  0  0  0
    0.9516    3.9914    0.4253 C   0  0  0  0  0  0  0  0  0  0  0  0
    1.5020    4.8730    0.7857 H   0  0  0  0  0  0  0  0  0  0  0  0
   -0.3481    4.1193   -0.0835 C   0  0  0  0  0  0  0  0  0  0  0  0
   -0.8421    5.0987   -0.1511 H   0  0  0  0  0  0  0  0  0  0  0  0
   -1.0231    2.9561   -0.4844 C   0  0  0  0  0  0  0  0  0  0  0  0
   -2.0610    2.9917   -0.8540 H   0  0  0  0  0  0  0  0  0  0  0  0
  1  2  1  0  0  0  0
  3  5  1  0  0  0  0
  4 16  1  0  0  0  0
  5  1  1  0  0  0  0
  6  1  1  0  0  0  0
  7  6  1  0  0  0  0
  7  8  1  0  0  0  0
  9  7  2  0  0  0  0
 10  9  1  0  0  0  0
 11 13  2  0  0  0  0
 11  9  1  0  0  0  0
 12 11  1  0  0  0  0
 13 15  1  0  0  0  0
 14 13  1  0  0  0  0
 15  3  1  0  0  0  0
 15  6  2  0  0  0  0
 16  3  1  0  0  0  0
 16 17  2  0  0  0  0
 17 18  1  0  0  0  0
 19 17  1  0  0  0  0
 19 20  1  0  0  0  0
 21 19  2  0  0  0  0
 22 21  1  0  0  0  0
 23  4  2  0  0  0  0
 23 21  1  0  0  0  0
 24 23  1  0  0  0  0
M  END
