4
 OpenBabel05122313113D

 20 20  0  0  0  0  0  0  0  0999 V2000
    4.3923    1.3846   -0.2248 O   0  0  0  0  0  0  0  0  0  0  0  0
    4.4186    0.5972    0.4087 H   0  0  0  0  0  0  0  0  0  0  0  0
    3.3722    2.4816    1.4768 O   0  0  0  0  0  0  0  0  0  0  0  0
   -1.7844    0.7929   -2.2129 C   0  0  0  0  0  3  0  0  0  0  0  0
   -1.7527    0.1371   -3.1042 H   0  0  0  0  0  0  0  0  0  0  0  0
   -2.6677    1.4571   -2.2840 H   0  0  0  0  0  0  0  0  0  0  0  0
   -0.5244    1.5643   -2.0454 C   0  0  0  0  0  0  0  0  0  0  0  0
   -0.5000    2.8167   -1.3893 C   0  0  0  0  0  0  0  0  0  0  0  0
   -1.4539    3.2899   -1.1075 H   0  0  0  0  0  0  0  0  0  0  0  0
    0.7073    3.4344   -1.0342 C   0  0  0  0  0  0  0  0  0  0  0  0
    0.6902    4.3827   -0.4738 H   0  0  0  0  0  0  0  0  0  0  0  0
    1.9436    2.8393   -1.3481 C   0  0  0  0  0  0  0  0  0  0  0  0
    1.9303    1.6411   -2.0963 C   0  0  0  0  0  0  0  0  0  0  0  0
    2.8865    1.1700   -2.3709 H   0  0  0  0  0  0  0  0  0  0  0  0
    0.7244    1.0229   -2.4395 C   0  0  0  0  0  0  0  0  0  0  0  0
    0.7394    0.0656   -2.9842 H   0  0  0  0  0  0  0  0  0  0  0  0
    3.2460    3.3799   -0.7840 C   0  0  0  0  0  0  0  0  0  0  0  0
    4.0276    3.4455   -1.5669 H   0  0  0  0  0  0  0  0  0  0  0  0
    3.0942    4.3744   -0.3260 H   0  0  0  0  0  0  0  0  0  0  0  0
    3.6920    2.4017    0.3002 C   0  0  0  0  0  0  0  0  0  0  0  0
  1 20  1  0  0  0  0
  1  2  1  0  0  0  0
  4  7  1  0  0  0  0
  5  4  1  0  0  0  0
  6  4  1  0  0  0  0
  7  8  1  0  0  0  0
  8  9  1  0  0  0  0
  8 10  2  0  0  0  0
 10 11  1  0  0  0  0
 12 10  1  0  0  0  0
 12 17  1  0  0  0  0
 13 12  2  0  0  0  0
 14 13  1  0  0  0  0
 15 13  1  0  0  0  0
 15  7  2  0  0  0  0
 16 15  1  0  0  0  0
 17 19  1  0  0  0  0
 17 20  1  0  0  0  0
 18 17  1  0  0  0  0
 20  3  2  0  0  0  0
M  END
