2
 OpenBabel05122313113D

 33 36  0  0  1  0  0  0  0  0999 V2000
    1.7380   -0.7177   -0.7722 C   0  0  1  0  0  3  0  0  0  0  0  0
    1.7370    0.7198   -0.7723 C   0  0  2  0  0  3  0  0  0  0  0  0
    0.5708    1.4310   -1.1857 C   0  0  0  0  0  0  0  0  0  0  0  0
    0.5728   -1.4307   -1.1853 C   0  0  0  0  0  0  0  0  0  0  0  0
    3.0782    1.2318   -0.3063 C   0  0  0  0  0  0  0  0  0  0  0  0
   -0.6092   -0.7157   -1.5273 C   0  0  0  0  0  0  0  0  0  0  0  0
   -1.7394   -1.6723   -1.7992 C   0  0  0  0  0  0  0  0  0  0  0  0
    3.0799   -1.2278   -0.3062 C   0  0  0  0  0  0  0  0  0  0  0  0
   -0.6102    0.7143   -1.5276 C   0  0  0  0  0  0  0  0  0  0  0  0
    3.6948    0.0025    0.4012 C   0  0  0  0  0  0  0  0  0  0  0  0
   -1.7416    1.6693   -1.7998 C   0  0  0  0  0  0  0  0  0  0  0  0
    0.3074   -2.9160   -1.2198 C   0  0  0  0  0  0  0  0  0  0  0  0
    0.3034    2.9160   -1.2205 C   0  0  0  0  0  0  0  0  0  0  0  0
   -1.2368   -2.9905   -1.1669 C   0  0  0  0  0  0  0  0  0  0  0  0
   -1.2410    2.9884   -1.1679 C   0  0  0  0  0  0  0  0  0  0  0  0
    3.0026    2.1214    0.3494 H   0  0  0  0  0  0  0  0  0  0  0  0
    3.6793    1.5295   -1.1951 H   0  0  0  0  0  0  0  0  0  0  0  0
   -1.8881   -1.7641   -2.8988 H   0  0  0  0  0  0  0  0  0  0  0  0
   -2.6900   -1.3205   -1.3514 H   0  0  0  0  0  0  0  0  0  0  0  0
    3.6814   -1.5246   -1.1950 H   0  0  0  0  0  0  0  0  0  0  0  0
    3.0057   -2.1174    0.3496 H   0  0  0  0  0  0  0  0  0  0  0  0
    4.8014    0.0033    0.3825 H   0  0  0  0  0  0  0  0  0  0  0  0
    3.3775    0.0023    1.4639 H   0  0  0  0  0  0  0  0  0  0  0  0
   -2.6918    1.3163   -1.3519 H   0  0  0  0  0  0  0  0  0  0  0  0
   -1.8904    1.7605   -2.8995 H   0  0  0  0  0  0  0  0  0  0  0  0
    0.8016   -3.4641   -0.3933 H   0  0  0  0  0  0  0  0  0  0  0  0
    0.7088   -3.3318   -2.1717 H   0  0  0  0  0  0  0  0  0  0  0  0
    0.7043    3.3321   -2.1725 H   0  0  0  0  0  0  0  0  0  0  0  0
    0.7967    3.4650   -0.3941 H   0  0  0  0  0  0  0  0  0  0  0  0
   -1.6438   -3.8941   -1.6599 H   0  0  0  0  0  0  0  0  0  0  0  0
   -1.5587   -3.0058   -0.1053 H   0  0  0  0  0  0  0  0  0  0  0  0
   -1.5630    3.0035   -0.1063 H   0  0  0  0  0  0  0  0  0  0  0  0
   -1.6491    3.8912   -1.6613 H   0  0  0  0  0  0  0  0  0  0  0  0
  1  4  1  6  0  0  0
  1  8  1  0  0  0  0
  2  3  1  6  0  0  0
  2  1  1  0  0  0  0
  2  5  1  0  0  0  0
  5 16  1  0  0  0  0
  5 10  1  0  0  0  0
  6  4  2  0  0  0  0
  7  6  1  0  0  0  0
  7 19  1  0  0  0  0
  7 14  1  0  0  0  0
  8 21  1  0  0  0  0
  8 10  1  0  0  0  0
  9  6  1  0  0  0  0
  9  3  2  0  0  0  0
 10 23  1  0  0  0  0
 11  9  1  0  0  0  0
 11 24  1  0  0  0  0
 11 15  1  0  0  0  0
 12  4  1  0  0  0  0
 12 14  1  0  0  0  0
 12 26  1  0  0  0  0
 13  3  1  0  0  0  0
 13 15  1  0  0  0  0
 13 29  1  0  0  0  0
 14 31  1  0  0  0  0
 15 32  1  0  0  0  0
 17  5  1  0  0  0  0
 18  7  1  0  0  0  0
 20  8  1  0  0  0  0
 22 10  1  0  0  0  0
 25 11  1  0  0  0  0
 27 12  1  0  0  0  0
 28 13  1  0  0  0  0
 30 14  1  0  0  0  0
 33 15  1  0  0  0  0
M  END
