11
 OpenBabel05122313113D

 18 19  0  0  1  0  0  0  0  0999 V2000
   -2.7514   -1.3901   -1.2614 C   0  0  0  0  0  3  0  0  0  0  0  0
   -3.2424   -0.4731   -1.6177 H   0  0  0  0  0  0  0  0  0  0  0  0
   -2.8737   -1.8850    0.0580 C   0  0  0  0  0  3  0  0  0  0  0  0
   -3.4866   -1.4210    0.8460 H   0  0  0  0  0  0  0  0  0  0  0  0
   -2.4472   -3.3461    0.1181 C   0  0  2  0  0  0  0  0  0  0  0  0
   -1.4001   -3.5080    1.2304 C   0  0  0  0  0  0  0  0  0  0  0  0
   -1.7539   -3.1122    2.2057 H   0  0  0  0  0  0  0  0  0  0  0  0
   -1.1083   -4.5730    1.3796 H   0  0  0  0  0  0  0  0  0  0  0  0
   -0.2556   -2.7113    0.6258 C   0  0  0  0  0  3  0  0  0  0  0  0
    0.7089   -2.6725    1.1574 H   0  0  0  0  0  0  0  0  0  0  0  0
   -0.3435   -2.7562   -0.8089 C   0  0  0  0  0  3  0  0  0  0  0  0
    0.5293   -2.7959   -1.4816 H   0  0  0  0  0  0  0  0  0  0  0  0
   -1.6461   -3.4451   -1.2231 C   0  0  2  0  0  0  0  0  0  0  0  0
   -1.4975   -4.4839   -1.5861 H   0  0  0  0  0  0  0  0  0  0  0  0
   -3.3077   -4.0449    0.1883 H   0  0  0  0  0  0  0  0  0  0  0  0
   -2.3880   -2.5213   -2.2028 C   0  0  0  0  0  0  0  0  0  0  0  0
   -1.7552   -2.2039   -3.0570 H   0  0  0  0  0  0  0  0  0  0  0  0
   -3.3102   -2.9922   -2.6150 H   0  0  0  0  0  0  0  0  0  0  0  0
  1  3  1  0  0  0  0
  2  1  1  0  0  0  0
  3  5  1  0  0  0  0
  3  4  1  0  0  0  0
  5 15  1  1  0  0  0
  5  6  1  0  0  0  0
  6  8  1  0  0  0  0
  6  7  1  0  0  0  0
  9 10  1  0  0  0  0
  9  6  1  0  0  0  0
 11  9  1  0  0  0  0
 12 11  1  0  0  0  0
 13 14  1  6  0  0  0
 13 11  1  0  0  0  0
 13  5  1  0  0  0  0
 16  1  1  0  0  0  0
 16 13  1  0  0  0  0
 17 16  1  0  0  0  0
 18 16  1  0  0  0  0
M  END
