13
 OpenBabel05122313113D

 62 64  0  0  1  0  0  0  0  0999 V2000
    5.3689    3.1358    1.6729 Cl  0  0  0  0  0  0  0  0  0  0  0  0
   -3.9175    0.0009   -0.5780 O   0  0  0  0  0  0  0  0  0  0  0  0
   -3.3854   -1.2631    1.2363 O   0  0  0  0  0  0  0  0  0  0  0  0
   -0.4341   -1.9433    3.0880 O   0  0  0  0  0  0  0  0  0  0  0  0
   -1.4613    0.0757    2.9114 O   0  0  0  0  0  0  0  0  0  0  0  0
    2.6769   -0.3227    1.4414 O   0  0  0  0  0  0  0  0  0  0  0  0
    2.0804   -2.5147    1.4551 O   0  0  0  0  0  0  0  0  0  0  0  0
    1.9677   -0.5473   -3.1449 O   0  0  0  0  0  0  0  0  0  0  0  0
    2.6924   -1.7713   -1.3805 O   0  0  0  0  0  0  0  0  0  0  0  0
   -1.2015    0.7910   -0.8125 N   0  0  0  0  0  0  0  0  0  0  0  0
   -1.6168   -0.3574   -0.0130 C   0  0  1  0  0  3  0  0  0  0  0  0
   -0.6058   -0.8327    0.9367 C   0  0  1  0  0  3  0  0  0  0  0  0
    0.6700   -0.9793    0.3247 C   0  0  1  0  0  3  0  0  0  0  0  0
    0.7013   -0.5571   -1.0964 C   0  0  1  0  0  3  0  0  0  0  0  0
   -0.0018    0.6956   -1.3671 C   0  0  2  0  0  3  0  0  0  0  0  0
   -3.0801   -0.4855    0.1648 C   0  0  0  0  0  0  0  0  0  0  0  0
   -4.7630   -1.6245    1.3634 C   0  0  0  0  0  0  0  0  0  0  0  0
   -4.8236   -2.2810    2.2491 H   0  0  0  0  0  0  0  0  0  0  0  0
   -5.1095   -2.1691    0.4623 H   0  0  0  0  0  0  0  0  0  0  0  0
   -5.3970   -0.7250    1.4964 H   0  0  0  0  0  0  0  0  0  0  0  0
   -0.8168   -1.0123    2.4104 C   0  0  0  0  0  0  0  0  0  0  0  0
   -1.7797    0.0009    4.3058 C   0  0  0  0  0  0  0  0  0  0  0  0
   -2.2613    0.9609    4.5629 H   0  0  0  0  0  0  0  0  0  0  0  0
   -0.8659   -0.1534    4.9136 H   0  0  0  0  0  0  0  0  0  0  0  0
   -2.4736   -0.8425    4.4968 H   0  0  0  0  0  0  0  0  0  0  0  0
    1.9272   -1.2266    1.1216 C   0  0  0  0  0  0  0  0  0  0  0  0
    3.2264   -2.8066    2.2621 C   0  0  0  0  0  0  0  0  0  0  0  0
    3.2287   -3.9017    2.4002 H   0  0  0  0  0  0  0  0  0  0  0  0
    3.1519   -2.2933    3.2417 H   0  0  0  0  0  0  0  0  0  0  0  0
    4.1549   -2.4714    1.7575 H   0  0  0  0  0  0  0  0  0  0  0  0
    1.8299   -0.9227   -1.9879 C   0  0  0  0  0  0  0  0  0  0  0  0
    3.7481   -2.2905   -2.1917 C   0  0  0  0  0  0  0  0  0  0  0  0
    4.2350   -3.0762   -1.5878 H   0  0  0  0  0  0  0  0  0  0  0  0
    4.4745   -1.4920   -2.4461 H   0  0  0  0  0  0  0  0  0  0  0  0
    3.3460   -2.7171   -3.1315 H   0  0  0  0  0  0  0  0  0  0  0  0
    0.6958    1.8690   -1.9973 C   0  0  0  0  0  0  0  0  0  0  0  0
    0.0006    2.7196   -2.1156 H   0  0  0  0  0  0  0  0  0  0  0  0
    1.0506    1.5450   -2.9938 H   0  0  0  0  0  0  0  0  0  0  0  0
    1.8807    2.2447   -1.1174 C   0  0  0  0  0  0  0  0  0  0  0  0
    1.6582    2.8121    0.1531 C   0  0  0  0  0  0  0  0  0  0  0  0
    0.6301    3.0331    0.4801 H   0  0  0  0  0  0  0  0  0  0  0  0
    2.7242    3.0945    1.0138 C   0  0  0  0  0  0  0  0  0  0  0  0
    2.5493    3.5286    2.0078 H   0  0  0  0  0  0  0  0  0  0  0  0
    4.0338    2.8040    0.6009 C   0  0  0  0  0  0  0  0  0  0  0  0
    4.2806    2.2483   -0.6634 C   0  0  0  0  0  0  0  0  0  0  0  0
    5.3131    2.0324   -0.9717 H   0  0  0  0  0  0  0  0  0  0  0  0
    3.2026    1.9681   -1.5137 C   0  0  0  0  0  0  0  0  0  0  0  0
    3.3884    1.5149   -2.4986 H   0  0  0  0  0  0  0  0  0  0  0  0
   -1.9487    2.0205   -0.7075 C   0  0  0  0  0  0  0  0  0  0  0  0
   -2.1288    2.5990    0.5574 C   0  0  0  0  0  0  0  0  0  0  0  0
   -1.7157    2.1007    1.4476 H   0  0  0  0  0  0  0  0  0  0  0  0
   -2.8549    3.7934    0.6638 C   0  0  0  0  0  0  0  0  0  0  0  0
   -2.9920    4.2521    1.6553 H   0  0  0  0  0  0  0  0  0  0  0  0
   -3.4125    4.4182   -0.4694 C   0  0  0  0  0  0  0  0  0  0  0  0
   -3.2309    3.7988   -1.7251 C   0  0  0  0  0  0  0  0  0  0  0  0
   -3.6761    4.2543   -2.6233 H   0  0  0  0  0  0  0  0  0  0  0  0
   -2.5154    2.6038   -1.8502 C   0  0  0  0  0  0  0  0  0  0  0  0
   -2.4114    2.1032   -2.8233 H   0  0  0  0  0  0  0  0  0  0  0  0
   -4.1955    5.7006   -0.3541 C   0  0  0  0  0  0  0  0  0  0  0  0
   -3.7484    6.5025   -0.9775 H   0  0  0  0  0  0  0  0  0  0  0  0
   -4.2353    6.0640    0.6905 H   0  0  0  0  0  0  0  0  0  0  0  0
   -5.2391    5.5649   -0.7070 H   0  0  0  0  0  0  0  0  0  0  0  0
  2 16  2  0  0  0  0
  3 17  1  0  0  0  0
  5 22  1  0  0  0  0
  7 27  1  0  0  0  0
  8 31  2  0  0  0  0
 10 49  1  0  0  0  0
 10 11  1  0  0  0  0
 11 16  1  1  0  0  0
 11 12  1  0  0  0  0
 12 21  1  1  0  0  0
 13 12  1  0  0  0  0
 13 26  1  1  0  0  0
 14 31  1  1  0  0  0
 14 13  1  0  0  0  0
 15 36  1  1  0  0  0
 15 14  1  0  0  0  0
 15 10  1  0  0  0  0
 16  3  1  0  0  0  0
 17 20  1  0  0  0  0
 17 18  1  0  0  0  0
 19 17  1  0  0  0  0
 21  5  1  0  0  0  0
 21  4  2  0  0  0  0
 22 25  1  0  0  0  0
 22 23  1  0  0  0  0
 22 24  1  0  0  0  0
 26  6  2  0  0  0  0
 26  7  1  0  0  0  0
 27 28  1  0  0  0  0
 27 29  1  0  0  0  0
 30 27  1  0  0  0  0
 31  9  1  0  0  0  0
 32 33  1  0  0  0  0
 32  9  1  0  0  0  0
 34 32  1  0  0  0  0
 35 32  1  0  0  0  0
 36 39  1  0  0  0  0
 37 36  1  0  0  0  0
 38 36  1  0  0  0  0
 39 40  1  0  0  0  0
 40 41  1  0  0  0  0
 40 42  2  0  0  0  0
 42 43  1  0  0  0  0
 44 42  1  0  0  0  0
 44  1  1  0  0  0  0
 45 44  2  0  0  0  0
 46 45  1  0  0  0  0
 47 39  2  0  0  0  0
 47 45  1  0  0  0  0
 48 47  1  0  0  0  0
 49 50  1  0  0  0  0
 50 52  2  0  0  0  0
 50 51  1  0  0  0  0
 52 53  1  0  0  0  0
 54 59  1  0  0  0  0
 54 52  1  0  0  0  0
 55 54  2  0  0  0  0
 56 55  1  0  0  0  0
 57 55  1  0  0  0  0
 57 49  2  0  0  0  0
 58 57  1  0  0  0  0
 59 61  1  0  0  0  0
 60 59  1  0  0  0  0
 62 59  1  0  0  0  0
M  END
