11
 OpenBabel05122313113D

 11 11  0  0  0  0  0  0  0  0999 V2000
   -6.1036    4.0334   -0.0004 N   0  0  0  0  0  0  0  0  0  0  0  0
   -4.3570    5.6817   -0.0000 N   0  0  0  0  0  0  0  0  0  0  0  0
   -5.1847    3.0631   -0.0004 C   0  0  0  0  0  0  0  0  0  0  0  0
   -5.5415    2.0177   -0.0005 H   0  0  0  0  0  0  0  0  0  0  0  0
   -5.6441    5.2958   -0.0003 C   0  0  0  0  0  0  0  0  0  0  0  0
   -6.4028    6.0997   -0.0004 H   0  0  0  0  0  0  0  0  0  0  0  0
   -3.4458    4.7044    0.0000 C   0  0  0  0  0  0  0  0  0  0  0  0
   -2.3810    5.0027    0.0003 H   0  0  0  0  0  0  0  0  0  0  0  0
   -3.7860    3.3247   -0.0001 C   0  0  0  0  0  0  0  0  0  0  0  0
   -2.8165    2.2904   -0.0001 C   0  0  0  0  0  0  0  0  0  0  0  0
   -1.9897    1.3629   -0.0000 C   0  0  0  0  0  3  0  0  0  0  0  0
  1  3  2  0  0  0  0
  1  5  1  0  0  0  0
  2  7  1  0  0  0  0
  3  9  1  0  0  0  0
  4  3  1  0  0  0  0
  5  2  2  0  0  0  0
  6  5  1  0  0  0  0
  7  8  1  0  0  0  0
  9 10  1  0  0  0  0
  9  7  2  0  0  0  0
 10 11  3  0  0  0  0
M  END
