13
 OpenBabel05122313113D

 28 29  0  0  1  0  0  0  0  0999 V2000
    1.6894    0.0721   -0.9185 N   0  0  0  0  0  0  0  0  0  0  0  0
    1.4295    0.9121   -1.4424 H   0  0  0  0  0  0  0  0  0  0  0  0
    3.5849   -0.9825    0.1073 N   0  0  0  0  0  0  0  0  0  0  0  0
    3.5867    1.2410   -0.0938 N   0  0  0  0  0  0  0  0  0  0  0  0
    0.3374   -1.3267    0.7275 C   0  0  0  0  0  3  0  0  0  0  0  0
    0.8979   -1.1220    1.6467 H   0  0  0  0  0  0  0  0  0  0  0  0
   -0.8036   -2.1996    0.5876 C   0  0  0  0  0  0  0  0  0  0  0  0
   -1.2729   -2.7694    1.3984 H   0  0  0  0  0  0  0  0  0  0  0  0
   -1.2089   -2.2011   -0.7807 C   0  0  0  0  0  0  0  0  0  0  0  0
   -2.0442   -2.7711   -1.2045 H   0  0  0  0  0  0  0  0  0  0  0  0
   -0.3177   -1.3463   -1.5268 C   0  0  0  0  0  3  0  0  0  0  0  0
   -0.3257   -1.1712   -2.6086 H   0  0  0  0  0  0  0  0  0  0  0  0
    0.6273   -0.8134   -0.5869 C   0  0  2  0  0  3  0  0  0  0  0  0
    2.9008    0.1000   -0.3154 C   0  0  0  0  0  3  0  0  0  0  0  0
    4.7934   -0.5456    0.8265 C   0  0  0  0  0  0  0  0  0  0  0  0
    5.6562   -1.1775    0.5420 H   0  0  0  0  0  0  0  0  0  0  0  0
    4.6432   -0.6350    1.9249 H   0  0  0  0  0  0  0  0  0  0  0  0
    4.9449    0.9170    0.3685 C   0  0  0  0  0  0  0  0  0  0  0  0
    5.2422    1.5959    1.1904 H   0  0  0  0  0  0  0  0  0  0  0  0
    5.6747    1.0340   -0.4633 H   0  0  0  0  0  0  0  0  0  0  0  0
    3.2628   -2.3806   -0.1124 C   0  0  0  0  0  0  0  0  0  0  0  0
    2.8020   -2.8480    0.7831 H   0  0  0  0  0  0  0  0  0  0  0  0
    4.1947   -2.9264   -0.3587 H   0  0  0  0  0  0  0  0  0  0  0  0
    2.5656   -2.4818   -0.9632 H   0  0  0  0  0  0  0  0  0  0  0  0
    3.1716    2.5882   -0.4407 C   0  0  0  0  0  0  0  0  0  0  0  0
    3.5425    2.8913   -1.4438 H   0  0  0  0  0  0  0  0  0  0  0  0
    3.5786    3.2942    0.3085 H   0  0  0  0  0  0  0  0  0  0  0  0
    2.0679    2.6785   -0.4091 H   0  0  0  0  0  0  0  0  0  0  0  0
  1 14  1  0  0  0  0
  2  1  1  0  0  0  0
  3 15  1  0  0  0  0
  4 18  1  0  0  0  0
  5  6  1  0  0  0  0
  7  5  1  0  0  0  0
  7  8  1  0  0  0  0
  9  7  2  0  0  0  0
 10  9  1  0  0  0  0
 11  9  1  0  0  0  0
 11 13  1  0  0  0  0
 12 11  1  0  0  0  0
 13  1  1  6  0  0  0
 13  5  1  0  0  0  0
 14  4  1  0  0  0  0
 14  3  1  0  0  0  0
 15 17  1  0  0  0  0
 16 15  1  0  0  0  0
 18 15  1  0  0  0  0
 18 19  1  0  0  0  0
 20 18  1  0  0  0  0
 21  3  1  0  0  0  0
 21 22  1  0  0  0  0
 23 21  1  0  0  0  0
 24 21  1  0  0  0  0
 25 28  1  0  0  0  0
 25  4  1  0  0  0  0
 25 27  1  0  0  0  0
 26 25  1  0  0  0  0
M  END
