7
 OpenBabel05122313113D

 27 28  0  0  0  0  0  0  0  0999 V2000
   -1.7518    0.0225   -0.9593 N   0  0  0  0  0  2  0  0  0  0  0  0
   -3.6730    1.2011   -0.3378 N   0  0  0  0  0  0  0  0  0  0  0  0
   -3.5733   -0.9360    0.3630 N   0  0  0  0  0  0  0  0  0  0  0  0
   -0.7114   -0.8188   -0.6982 C   0  0  0  0  0  0  0  0  0  0  0  0
   -0.3163   -1.4248    0.5654 C   0  0  0  0  0  3  0  0  0  0  0  0
   -0.8796   -1.3539    1.5023 H   0  0  0  0  0  0  0  0  0  0  0  0
    0.8680   -2.2218    0.3338 C   0  0  0  0  0  3  0  0  0  0  0  0
    1.3703   -2.8540    1.0758 H   0  0  0  0  0  0  0  0  0  0  0  0
    1.2545   -2.0589   -1.0316 C   0  0  0  0  0  3  0  0  0  0  0  0
    2.1032   -2.5469   -1.5246 H   0  0  0  0  0  0  0  0  0  0  0  0
    0.3140   -1.1573   -1.6596 C   0  0  0  0  0  0  0  0  0  0  0  0
    0.3025   -0.8473   -2.7101 H   0  0  0  0  0  0  0  0  0  0  0  0
   -2.8945    0.0597   -0.3419 C   0  0  0  0  0  3  0  0  0  0  0  0
   -4.7814    1.0569    0.5893 C   0  0  0  0  0  0  0  0  0  0  0  0
   -5.7019    1.5519    0.2169 H   0  0  0  0  0  0  0  0  0  0  0  0
   -4.5290    1.5079    1.5802 H   0  0  0  0  0  0  0  0  0  0  0  0
   -4.9209   -0.4665    0.6822 C   0  0  0  0  0  0  0  0  0  0  0  0
   -5.2497   -0.8134    1.6830 H   0  0  0  0  0  0  0  0  0  0  0  0
   -5.6514   -0.8509   -0.0711 H   0  0  0  0  0  0  0  0  0  0  0  0
   -3.4292   -2.3432    0.0446 C   0  0  0  0  0  0  0  0  0  0  0  0
   -2.3836   -2.5786   -0.2177 H   0  0  0  0  0  0  0  0  0  0  0  0
   -4.0858   -2.6402   -0.8076 H   0  0  0  0  0  0  0  0  0  0  0  0
   -3.7073   -2.9562    0.9256 H   0  0  0  0  0  0  0  0  0  0  0  0
   -3.1188    2.4995   -0.6494 C   0  0  0  0  0  0  0  0  0  0  0  0
   -2.7336    3.0190    0.2579 H   0  0  0  0  0  0  0  0  0  0  0  0
   -3.8894    3.1364   -1.1286 H   0  0  0  0  0  0  0  0  0  0  0  0
   -2.2715    2.3525   -1.3438 H   0  0  0  0  0  0  0  0  0  0  0  0
  1  4  1  0  0  0  0
  1 13  1  0  0  0  0
  2 14  1  0  0  0  0
  3 17  1  0  0  0  0
  4  5  1  0  0  0  0
  5  6  1  0  0  0  0
  7  5  1  0  0  0  0
  7  8  1  0  0  0  0
  9  7  1  0  0  0  0
 10  9  1  0  0  0  0
 11  9  1  0  0  0  0
 11  4  2  0  0  0  0
 12 11  1  0  0  0  0
 13  2  1  0  0  0  0
 13  3  1  0  0  0  0
 14 17  1  0  0  0  0
 14 16  1  0  0  0  0
 15 14  1  0  0  0  0
 17 18  1  0  0  0  0
 19 17  1  0  0  0  0
 20  3  1  0  0  0  0
 20 23  1  0  0  0  0
 21 20  1  0  0  0  0
 22 20  1  0  0  0  0
 24  2  1  0  0  0  0
 24 25  1  0  0  0  0
 26 24  1  0  0  0  0
 27 24  1  0  0  0  0
M  END
