3
 OpenBabel05122313113D

  9  9  0  0  0  0  0  0  0  0999 V2000
   -0.4198    1.2317   -1.7538 C   0  0  0  0  0  3  0  0  0  0  0  0
   -1.7368    1.7624   -1.6864 C   0  0  0  0  0  3  0  0  0  0  0  0
   -0.7992    2.2057   -0.7029 C   0  0  0  0  0  3  0  0  0  0  0  0
   -2.8954    2.1597   -2.5215 C   0  0  0  0  0  0  0  0  0  0  0  0
    0.3524    1.0801   -2.5165 H   0  0  0  0  0  0  0  0  0  0  0  0
   -0.4364    3.1575   -0.3001 H   0  0  0  0  0  0  0  0  0  0  0  0
   -3.2909    1.3018   -3.1034 H   0  0  0  0  0  0  0  0  0  0  0  0
   -3.7211    2.5772   -1.9099 H   0  0  0  0  0  0  0  0  0  0  0  0
   -2.5892    2.9437   -3.2478 H   0  0  0  0  0  0  0  0  0  0  0  0
  1  2  1  0  0  0  0
  1  3  1  0  0  0  0
  2  3  1  0  0  0  0
  3  6  1  0  0  0  0
  4  8  1  0  0  0  0
  4  2  1  0  0  0  0
  5  1  1  0  0  0  0
  7  4  1  0  0  0  0
  9  4  1  0  0  0  0
M  END
