5
 OpenBabel05122313113D

 23 25  0  0  1  0  0  0  0  0999 V2000
    5.2377   -2.6720   -0.1797 O   0  0  0  0  0  0  0  0  0  0  0  0
    5.4299    1.7792    0.9640 O   0  0  0  0  0  0  0  0  0  0  0  0
    5.6285   -0.4450    0.3491 N   0  0  0  0  0  0  0  0  0  0  0  0
    1.1514    0.4141    0.4148 C   0  0  0  0  0  2  0  0  0  0  0  0
    1.0966   -0.8592    0.0641 C   0  0  0  0  0  2  0  0  0  0  0  0
    2.3639   -1.4476   -0.4925 C   0  0  2  0  0  0  0  0  0  0  0  0
    3.4194   -1.2326    0.6642 C   0  0  2  0  0  0  0  0  0  0  0  0
    3.4845    0.2596    1.0526 C   0  0  2  0  0  0  0  0  0  0  0  0
    2.4735    1.0930    0.1699 C   0  0  1  0  0  0  0  0  0  0  0  0
    2.8791    0.7917   -1.2781 C   0  0  0  0  0  0  0  0  0  0  0  0
    2.8214   -0.5114   -1.6183 C   0  0  0  0  0  0  0  0  0  0  0  0
    4.8327   -1.5953    0.2247 C   0  0  0  0  0  0  0  0  0  0  0  0
    4.9306    0.6762    0.8111 C   0  0  0  0  0  0  0  0  0  0  0  0
    7.0254   -0.4043   -0.0249 C   0  0  0  0  0  0  0  0  0  0  0  0
    2.3449   -2.5124   -0.7938 H   0  0  0  0  0  0  0  0  0  0  0  0
    3.1332   -1.8804    1.5160 H   0  0  0  0  0  0  0  0  0  0  0  0
    3.2368    0.4298    2.1191 H   0  0  0  0  0  0  0  0  0  0  0  0
    2.5532    2.1683    0.4256 H   0  0  0  0  0  0  0  0  0  0  0  0
    3.2560    1.5821   -1.9440 H   0  0  0  0  0  0  0  0  0  0  0  0
    3.1370   -0.9067   -2.5946 H   0  0  0  0  0  0  0  0  0  0  0  0
    7.3444   -1.4423   -0.2342 H   0  0  0  0  0  0  0  0  0  0  0  0
    7.6273    0.0337    0.7948 H   0  0  0  0  0  0  0  0  0  0  0  0
    7.1698    0.2199   -0.9302 H   0  0  0  0  0  0  0  0  0  0  0  0
  1 12  2  0  0  0  0
  3 13  1  0  0  0  0
  5  4  1  0  0  0  0
  6 15  1  6  0  0  0
  6  5  1  0  0  0  0
  6  7  1  0  0  0  0
  7  8  1  0  0  0  0
  7 16  1  1  0  0  0
  8 17  1  1  0  0  0
  9  4  1  0  0  0  0
  9 18  1  1  0  0  0
  9  8  1  0  0  0  0
 10  9  1  0  0  0  0
 11 10  2  0  0  0  0
 11  6  1  0  0  0  0
 12  3  1  0  0  0  0
 12  7  1  0  0  0  0
 13  2  2  0  0  0  0
 13  8  1  0  0  0  0
 14  3  1  0  0  0  0
 14 22  1  0  0  0  0
 19 10  1  0  0  0  0
 20 11  1  0  0  0  0
 21 14  1  0  0  0  0
 23 14  1  0  0  0  0
M  END
