6
 OpenBabel05122313113D

 24 24  0  0  1  0  0  0  0  0999 V2000
   -3.2261   -0.0487   -0.8702 O   0  0  0  0  0  0  0  0  0  0  0  0
   -3.9187   -1.7297    0.6428 O   0  0  0  0  0  0  0  0  0  0  0  0
   -4.0484    1.4043    0.7792 O   0  0  0  0  0  0  0  0  0  0  0  0
   -2.9537   -1.3180   -0.2978 C   0  0  2  0  0  0  0  0  0  0  0  0
   -1.6257   -1.3664    0.4398 C   0  0  0  0  0  3  0  0  0  0  0  0
   -1.3490   -0.2582    1.3189 C   0  0  0  0  0  3  0  0  0  0  0  0
   -1.7267    1.0085    0.8082 C   0  0  1  0  0  3  0  0  0  0  0  0
   -2.9647    1.0986   -0.0785 C   0  0  1  0  0  0  0  0  0  0  0  0
   -5.1907   -1.9888    0.0834 C   0  0  0  0  0  0  0  0  0  0  0  0
   -1.5116    2.2361    1.6560 C   0  0  0  0  0  0  0  0  0  0  0  0
   -5.1850    1.8905    0.0933 C   0  0  0  0  0  0  0  0  0  0  0  0
   -2.9653   -2.0090   -1.1724 H   0  0  0  0  0  0  0  0  0  0  0  0
   -1.4041   -2.3812    0.8044 H   0  0  0  0  0  0  0  0  0  0  0  0
   -0.8850   -0.3733    2.3097 H   0  0  0  0  0  0  0  0  0  0  0  0
   -2.8547    1.9197   -0.8258 H   0  0  0  0  0  0  0  0  0  0  0  0
   -5.8327   -2.3835    0.8942 H   0  0  0  0  0  0  0  0  0  0  0  0
   -5.1357   -2.7471   -0.7345 H   0  0  0  0  0  0  0  0  0  0  0  0
   -5.6610   -1.0697   -0.3307 H   0  0  0  0  0  0  0  0  0  0  0  0
   -2.3571    2.3222    2.3694 H   0  0  0  0  0  0  0  0  0  0  0  0
   -1.5136    3.1657    1.0527 H   0  0  0  0  0  0  0  0  0  0  0  0
   -0.5643    2.1875    2.2243 H   0  0  0  0  0  0  0  0  0  0  0  0
   -5.9623    2.1054    0.8517 H   0  0  0  0  0  0  0  0  0  0  0  0
   -5.5840    1.1465   -0.6322 H   0  0  0  0  0  0  0  0  0  0  0  0
   -4.9581    2.8294   -0.4672 H   0  0  0  0  0  0  0  0  0  0  0  0
  1  4  1  0  0  0  0
  1  8  1  0  0  0  0
  4 12  1  6  0  0  0
  4  5  1  0  0  0  0
  4  2  1  0  0  0  0
  5 13  1  0  0  0  0
  5  6  1  0  0  0  0
  6 14  1  0  0  0  0
  7  6  1  0  0  0  0
  7 10  1  1  0  0  0
  8 15  1  6  0  0  0
  8  3  1  0  0  0  0
  8  7  1  0  0  0  0
  9  2  1  0  0  0  0
  9 16  1  0  0  0  0
 10 21  1  0  0  0  0
 10 19  1  0  0  0  0
 11  3  1  0  0  0  0
 11 22  1  0  0  0  0
 17  9  1  0  0  0  0
 18  9  1  0  0  0  0
 20 10  1  0  0  0  0
 23 11  1  0  0  0  0
 24 11  1  0  0  0  0
M  END
