3
 OpenBabel05122313113D

 12 12  0  0  0  0  0  0  0  0999 V2000
    0.5858   -2.3927    0.2436 N   0  0  0  0  0  2  0  0  0  0  0  0
    3.4987   -0.2251   -0.0915 N   0  0  0  0  0  0  0  0  0  0  0  0
    1.4574   -1.4999    0.1767 C   0  0  0  0  0  3  0  0  0  0  0  0
    2.9212   -1.4229    0.1567 C   0  0  0  0  0  0  0  0  0  0  0  0
    3.6799   -2.5946    0.3913 C   0  0  0  0  0  0  0  0  0  0  0  0
    3.1485   -3.5386    0.5810 H   0  0  0  0  0  0  0  0  0  0  0  0
    5.0751   -2.5134    0.3745 C   0  0  0  0  0  0  0  0  0  0  0  0
    5.6906   -3.4080    0.5573 H   0  0  0  0  0  0  0  0  0  0  0  0
    5.6743   -1.2695    0.1188 C   0  0  0  0  0  0  0  0  0  0  0  0
    6.7681   -1.1534    0.0954 H   0  0  0  0  0  0  0  0  0  0  0  0
    4.8369   -0.1648   -0.1096 C   0  0  0  0  0  0  0  0  0  0  0  0
    5.2765    0.8277   -0.3180 H   0  0  0  0  0  0  0  0  0  0  0  0
  2  4  1  0  0  0  0
  3  1  2  0  0  0  0
  4  3  1  0  0  0  0
  4  5  2  0  0  0  0
  5  6  1  0  0  0  0
  7  5  1  0  0  0  0
  7  8  1  0  0  0  0
  9  7  2  0  0  0  0
 10  9  1  0  0  0  0
 11  2  2  0  0  0  0
 11  9  1  0  0  0  0
 12 11  1  0  0  0  0
M  END
