6
 OpenBabel05122313113D

 18 19  0  0  1  0  0  0  0  0999 V2000
    1.6412   -2.8677    0.5973 N   0  0  0  0  0  0  0  0  0  0  0  0
   -1.9091   -2.5659   -2.6518 N   0  0  0  0  0  0  0  0  0  0  0  0
    0.5031   -2.8646   -0.0457 C   0  0  0  0  0  0  0  0  0  0  0  0
   -0.2747   -3.5716    0.3011 H   0  0  0  0  0  0  0  0  0  0  0  0
    0.1793   -2.0162   -1.1900 C   0  0  1  0  0  3  0  0  0  0  0  0
    1.1788   -1.0114   -1.5591 C   0  0  0  0  0  3  0  0  0  0  0  0
    1.1320   -0.5655   -2.5686 H   0  0  0  0  0  0  0  0  0  0  0  0
    2.5007   -1.1413   -0.9558 C   0  0  0  0  0  0  0  0  0  0  0  0
    3.6128   -0.3811   -1.3853 C   0  0  0  0  0  0  0  0  0  0  0  0
    3.4933    0.2959   -2.2458 H   0  0  0  0  0  0  0  0  0  0  0  0
    4.8464   -0.4730   -0.7316 C   0  0  0  0  0  0  0  0  0  0  0  0
    5.6968    0.1331   -1.0798 H   0  0  0  0  0  0  0  0  0  0  0  0
    5.0014   -1.3422    0.3684 C   0  0  0  0  0  0  0  0  0  0  0  0
    5.9715   -1.4139    0.8830 H   0  0  0  0  0  0  0  0  0  0  0  0
    3.9235   -2.1242    0.7913 C   0  0  0  0  0  0  0  0  0  0  0  0
    4.0113   -2.8276    1.6325 H   0  0  0  0  0  0  0  0  0  0  0  0
    2.6686   -2.0458    0.1428 C   0  0  0  0  0  0  0  0  0  0  0  0
   -0.9497   -2.3174   -2.0117 C   0  0  0  0  0  0  0  0  0  0  0  0
  2 18  3  0  0  0  0
  3  4  1  0  0  0  0
  3  1  2  0  0  0  0
  5 18  1  6  0  0  0
  5  3  1  0  0  0  0
  6  5  1  0  0  0  0
  6  8  1  0  0  0  0
  7  6  1  0  0  0  0
  8 17  1  0  0  0  0
  9  8  2  0  0  0  0
  9 11  1  0  0  0  0
 10  9  1  0  0  0  0
 11 13  2  0  0  0  0
 12 11  1  0  0  0  0
 13 15  1  0  0  0  0
 13 14  1  0  0  0  0
 15 16  1  0  0  0  0
 17  1  1  0  0  0  0
 17 15  2  0  0  0  0
M  END
