3
 OpenBabel05122313113D

 14 14  0  0  0  0  0  0  0  0999 V2000
   -0.3932   -2.1581   -0.0539 N   0  0  0  0  0  2  0  0  0  0  0  0
   -8.0980   -0.6306   -0.2676 N   0  0  0  0  0  0  0  0  0  0  0  0
   -1.2334   -1.2334   -0.0852 C   0  0  0  0  0  3  0  0  0  0  0  0
   -2.6865   -1.1076   -0.1326 C   0  0  0  0  0  0  0  0  0  0  0  0
   -3.2921    0.1050   -0.5287 C   0  0  0  0  0  0  0  0  0  0  0  0
   -2.6413    0.9471   -0.8051 H   0  0  0  0  0  0  0  0  0  0  0  0
   -4.6813    0.2314   -0.5744 C   0  0  0  0  0  0  0  0  0  0  0  0
   -5.1493    1.1752   -0.8885 H   0  0  0  0  0  0  0  0  0  0  0  0
   -5.5014   -0.8636   -0.2086 C   0  0  0  0  0  0  0  0  0  0  0  0
   -4.9015   -2.0844    0.1897 C   0  0  0  0  0  0  0  0  0  0  0  0
   -5.5416   -2.9336    0.4695 H   0  0  0  0  0  0  0  0  0  0  0  0
   -3.5119   -2.2026    0.2206 C   0  0  0  0  0  0  0  0  0  0  0  0
   -3.0333   -3.1457    0.5221 H   0  0  0  0  0  0  0  0  0  0  0  0
   -6.9282   -0.7367   -0.2410 C   0  0  0  0  0  0  0  0  0  0  0  0
  2 14  3  0  0  0  0
  3  1  2  0  0  0  0
  4  3  1  0  0  0  0
  4 12  1  0  0  0  0
  5  4  2  0  0  0  0
  6  5  1  0  0  0  0
  7  5  1  0  0  0  0
  7  9  2  0  0  0  0
  8  7  1  0  0  0  0
  9 10  1  0  0  0  0
 10 12  2  0  0  0  0
 10 11  1  0  0  0  0
 12 13  1  0  0  0  0
 14  9  1  0  0  0  0
M  END
