3
 OpenBabel05122313113D

 27 27  0  0  0  0  0  0  0  0999 V2000
   -1.4770   -2.5708    0.2560 N   0  0  0  0  0  0  0  0  0  0  0  0
   -2.5254   -0.7155   -0.1529 N   0  0  0  0  0  0  0  0  0  0  0  0
   -1.2761   -1.2548   -0.0407 C   0  0  0  0  0  2  0  0  0  0  0  0
   -2.8332   -2.8501    0.3466 C   0  0  0  0  0  0  0  0  0  0  0  0
   -3.2091   -3.8510    0.5764 H   0  0  0  0  0  0  0  0  0  0  0  0
   -3.4945   -1.6772    0.0862 C   0  0  0  0  0  0  0  0  0  0  0  0
   -4.5634   -1.4512    0.0364 H   0  0  0  0  0  0  0  0  0  0  0  0
   -0.4065   -3.5156    0.5332 C   0  0  0  0  0  0  0  0  0  0  0  0
    0.4497   -3.2809   -0.1267 H   0  0  0  0  0  0  0  0  0  0  0  0
   -0.7598   -4.5430    0.3299 H   0  0  0  0  0  0  0  0  0  0  0  0
   -0.0953   -3.4178    1.5925 H   0  0  0  0  0  0  0  0  0  0  0  0
   -2.7729    0.6972   -0.4475 C   0  0  0  0  0  0  0  0  0  0  0  0
   -3.8104    0.7821   -0.8265 H   0  0  0  0  0  0  0  0  0  0  0  0
   -2.0880    0.9627   -1.2769 H   0  0  0  0  0  0  0  0  0  0  0  0
   -2.5444    1.5925    0.7731 C   0  0  0  0  0  0  0  0  0  0  0  0
   -1.6143    1.2470    1.2739 H   0  0  0  0  0  0  0  0  0  0  0  0
   -3.3672    1.4399    1.5047 H   0  0  0  0  0  0  0  0  0  0  0  0
   -2.3995    3.0872    0.4367 C   0  0  0  0  0  0  0  0  0  0  0  0
   -3.2921    3.3924   -0.1586 H   0  0  0  0  0  0  0  0  0  0  0  0
   -1.1430    3.3714   -0.3994 C   0  0  0  0  0  0  0  0  0  0  0  0
   -1.0490    4.4552   -0.6130 H   0  0  0  0  0  0  0  0  0  0  0  0
   -1.1387    2.8395   -1.3711 H   0  0  0  0  0  0  0  0  0  0  0  0
   -0.2247    3.0488    0.1353 H   0  0  0  0  0  0  0  0  0  0  0  0
   -2.3958    3.9153    1.7280 C   0  0  0  0  0  0  0  0  0  0  0  0
   -1.5271    3.6424    2.3657 H   0  0  0  0  0  0  0  0  0  0  0  0
   -3.3149    3.7514    2.3273 H   0  0  0  0  0  0  0  0  0  0  0  0
   -2.3171    4.9998    1.5121 H   0  0  0  0  0  0  0  0  0  0  0  0
  1  4  1  0  0  0  0
  1  8  1  0  0  0  0
  2  3  1  0  0  0  0
  2  6  1  0  0  0  0
  3  1  1  0  0  0  0
  4  5  1  0  0  0  0
  6  4  2  0  0  0  0
  7  6  1  0  0  0  0
  8 11  1  0  0  0  0
  9  8  1  0  0  0  0
 10  8  1  0  0  0  0
 12  2  1  0  0  0  0
 12 15  1  0  0  0  0
 13 12  1  0  0  0  0
 14 12  1  0  0  0  0
 15 16  1  0  0  0  0
 15 17  1  0  0  0  0
 18 15  1  0  0  0  0
 18 24  1  0  0  0  0
 19 18  1  0  0  0  0
 20 23  1  0  0  0  0
 20 18  1  0  0  0  0
 21 20  1  0  0  0  0
 22 20  1  0  0  0  0
 24 26  1  0  0  0  0
 24 25  1  0  0  0  0
 27 24  1  0  0  0  0
M  END
