10
 OpenBabel05122313113D

 75 76  0  0  1  0  0  0  0  0999 V2000
    1.4922   -2.5045    0.0192 Si  0  0  0  0  0  0  0  0  0  0  0  0
    3.1412    3.1706   -0.1997 Si  0  0  0  0  0  0  0  0  0  0  0  0
   -3.5193   -0.2061   -1.7880 Si  0  0  0  0  0  0  0  0  0  0  0  0
   -3.1049    0.5231    2.1142 Si  0  0  0  0  0  0  0  0  0  0  0  0
    2.1343   -0.8748   -0.6999 C   0  0  0  0  0  0  0  0  0  0  0  0
    2.6368    0.2368    0.0470 C   0  0  0  0  0  3  0  0  0  0  0  0
    2.5127    1.4525   -0.7093 C   0  0  0  0  0  0  0  0  0  0  0  0
    1.9264    1.0765   -1.9577 C   0  0  0  0  0  0  0  0  0  0  0  0
    1.6735   -0.3229   -1.9532 C   0  0  0  0  0  0  0  0  0  0  0  0
   -0.2874   -1.8881    0.1986 C   0  0  1  0  0  3  0  0  0  0  0  0
   -0.8763   -1.2102    1.3091 C   0  0  0  0  0  0  0  0  0  0  0  0
   -2.0085   -0.4295    0.8839 C   0  0  0  0  0  0  0  0  0  0  0  0
   -2.1466   -0.6328   -0.5397 C   0  0  0  0  0  0  0  0  0  0  0  0
   -1.0770   -1.4984   -0.9411 C   0  0  0  0  0  0  0  0  0  0  0  0
    2.2570   -2.7982    1.7371 C   0  0  0  0  0  0  0  0  0  0  0  0
    1.5603   -3.9259    2.5157 C   0  0  0  0  0  0  0  0  0  0  0  0
    3.7833   -2.9772    1.6989 C   0  0  0  0  0  0  0  0  0  0  0  0
    1.5782   -3.8891   -1.2853 C   0  0  0  0  0  0  0  0  0  0  0  0
    3.0183   -4.2408   -1.6887 C   0  0  0  0  0  0  0  0  0  0  0  0
    0.7535   -5.1260   -0.8976 C   0  0  0  0  0  0  0  0  0  0  0  0
    4.4199    3.6805   -1.5030 C   0  0  0  0  0  0  0  0  0  0  0  0
    3.9608    3.0051    1.4936 C   0  0  0  0  0  0  0  0  0  0  0  0
    1.7462    4.4390   -0.1524 C   0  0  0  0  0  0  0  0  0  0  0  0
   -2.7423   -0.1935   -3.5152 C   0  0  0  0  0  0  0  0  0  0  0  0
   -4.7503   -1.6460   -1.6790 C   0  0  0  0  0  0  0  0  0  0  0  0
   -4.4316    1.4228   -1.5132 C   0  0  0  0  0  0  0  0  0  0  0  0
   -4.8648   -0.1787    2.0054 C   0  0  0  0  0  0  0  0  0  0  0  0
   -3.1028    2.3859    1.8102 C   0  0  0  0  0  0  0  0  0  0  0  0
   -2.4341    0.1686    3.8468 C   0  0  0  0  0  0  0  0  0  0  0  0
    3.0246    0.1833    1.0725 H   0  0  0  0  0  0  0  0  0  0  0  0
    1.6789    1.7625   -2.7775 H   0  0  0  0  0  0  0  0  0  0  0  0
    1.2222   -0.8890   -2.7788 H   0  0  0  0  0  0  0  0  0  0  0  0
   -0.4964   -1.2402    2.3385 H   0  0  0  0  0  0  0  0  0  0  0  0
   -0.9066   -1.8427   -1.9701 H   0  0  0  0  0  0  0  0  0  0  0  0
    2.0407   -1.8391    2.2646 H   0  0  0  0  0  0  0  0  0  0  0  0
    1.9214   -3.9665    3.5656 H   0  0  0  0  0  0  0  0  0  0  0  0
    0.4588   -3.7984    2.5446 H   0  0  0  0  0  0  0  0  0  0  0  0
    1.7671   -4.9177    2.0631 H   0  0  0  0  0  0  0  0  0  0  0  0
    4.2079   -2.9895    2.7255 H   0  0  0  0  0  0  0  0  0  0  0  0
    4.0668   -3.9367    1.2193 H   0  0  0  0  0  0  0  0  0  0  0  0
    4.2882   -2.1653    1.1368 H   0  0  0  0  0  0  0  0  0  0  0  0
    1.0858   -3.4198   -2.1699 H   0  0  0  0  0  0  0  0  0  0  0  0
    3.5560   -4.7516   -0.8634 H   0  0  0  0  0  0  0  0  0  0  0  0
    3.0331   -4.9292   -2.5606 H   0  0  0  0  0  0  0  0  0  0  0  0
    3.6059   -3.3401   -1.9614 H   0  0  0  0  0  0  0  0  0  0  0  0
    0.6955   -5.8483   -1.7398 H   0  0  0  0  0  0  0  0  0  0  0  0
   -0.2845   -4.8598   -0.6103 H   0  0  0  0  0  0  0  0  0  0  0  0
    1.2081   -5.6638   -0.0401 H   0  0  0  0  0  0  0  0  0  0  0  0
    3.9583    3.7484   -2.5096 H   0  0  0  0  0  0  0  0  0  0  0  0
    5.2507    2.9479   -1.5583 H   0  0  0  0  0  0  0  0  0  0  0  0
    4.8524    4.6739   -1.2623 H   0  0  0  0  0  0  0  0  0  0  0  0
    4.3799    3.9789    1.8206 H   0  0  0  0  0  0  0  0  0  0  0  0
    4.7900    2.2684    1.4743 H   0  0  0  0  0  0  0  0  0  0  0  0
    3.2168    2.6790    2.2482 H   0  0  0  0  0  0  0  0  0  0  0  0
    1.2065    4.4842   -1.1191 H   0  0  0  0  0  0  0  0  0  0  0  0
    2.1540    5.4470    0.0691 H   0  0  0  0  0  0  0  0  0  0  0  0
    1.0101    4.1736    0.6319 H   0  0  0  0  0  0  0  0  0  0  0  0
   -3.5175    0.0303   -4.2767 H   0  0  0  0  0  0  0  0  0  0  0  0
   -2.2933   -1.1727   -3.7793 H   0  0  0  0  0  0  0  0  0  0  0  0
   -1.9584    0.5874   -3.5825 H   0  0  0  0  0  0  0  0  0  0  0  0
   -5.5678   -1.5215   -2.4193 H   0  0  0  0  0  0  0  0  0  0  0  0
   -5.2071   -1.7108   -0.6710 H   0  0  0  0  0  0  0  0  0  0  0  0
   -4.2450   -2.6119   -1.8839 H   0  0  0  0  0  0  0  0  0  0  0  0
   -5.1931    1.5341   -2.3131 H   0  0  0  0  0  0  0  0  0  0  0  0
   -4.9586    1.4654   -0.5410 H   0  0  0  0  0  0  0  0  0  0  0  0
   -3.7334    2.2794   -1.5744 H   0  0  0  0  0  0  0  0  0  0  0  0
   -5.3433    0.0178    1.0261 H   0  0  0  0  0  0  0  0  0  0  0  0
   -5.5038    0.2784    2.7894 H   0  0  0  0  0  0  0  0  0  0  0  0
   -4.8589   -1.2761    2.1668 H   0  0  0  0  0  0  0  0  0  0  0  0
   -3.3616    2.6425    0.7662 H   0  0  0  0  0  0  0  0  0  0  0  0
   -3.8311    2.8813    2.4852 H   0  0  0  0  0  0  0  0  0  0  0  0
   -2.0940    2.7938    2.0185 H   0  0  0  0  0  0  0  0  0  0  0  0
   -1.3980    0.5493    3.9479 H   0  0  0  0  0  0  0  0  0  0  0  0
   -3.0611    0.6771    4.6081 H   0  0  0  0  0  0  0  0  0  0  0  0
   -2.4380   -0.9167    4.0761 H   0  0  0  0  0  0  0  0  0  0  0  0
  1 15  1  0  0  0  0
  2 23  1  0  0  0  0
  2 22  1  0  0  0  0
  3 25  1  0  0  0  0
  3 26  1  0  0  0  0
  3 13  1  0  0  0  0
  4 29  1  0  0  0  0
  5  1  1  0  0  0  0
  5  6  1  0  0  0  0
  6 30  1  0  0  0  0
  7  2  1  0  0  0  0
  7  6  1  0  0  0  0
  8  9  1  0  0  0  0
  8  7  2  0  0  0  0
  9  5  2  0  0  0  0
 10  1  1  6  0  0  0
 10 11  1  0  0  0  0
 11 33  1  0  0  0  0
 12 11  2  0  0  0  0
 12  4  1  0  0  0  0
 13 12  1  0  0  0  0
 14 13  2  0  0  0  0
 14 10  1  0  0  0  0
 15 35  1  0  0  0  0
 15 16  1  0  0  0  0
 16 37  1  0  0  0  0
 16 36  1  0  0  0  0
 17 15  1  0  0  0  0
 17 39  1  0  0  0  0
 18 20  1  0  0  0  0
 18  1  1  0  0  0  0
 19 18  1  0  0  0  0
 19 43  1  0  0  0  0
 20 47  1  0  0  0  0
 20 48  1  0  0  0  0
 21 51  1  0  0  0  0
 21  2  1  0  0  0  0
 22 52  1  0  0  0  0
 22 54  1  0  0  0  0
 23 56  1  0  0  0  0
 23 57  1  0  0  0  0
 24  3  1  0  0  0  0
 25 62  1  0  0  0  0
 26 65  1  0  0  0  0
 27  4  1  0  0  0  0
 27 69  1  0  0  0  0
 27 68  1  0  0  0  0
 28 72  1  0  0  0  0
 28  4  1  0  0  0  0
 28 71  1  0  0  0  0
 29 73  1  0  0  0  0
 29 75  1  0  0  0  0
 29 74  1  0  0  0  0
 31  8  1  0  0  0  0
 32  9  1  0  0  0  0
 34 14  1  0  0  0  0
 38 16  1  0  0  0  0
 40 17  1  0  0  0  0
 41 17  1  0  0  0  0
 42 18  1  0  0  0  0
 44 19  1  0  0  0  0
 45 19  1  0  0  0  0
 46 20  1  0  0  0  0
 49 21  1  0  0  0  0
 50 21  1  0  0  0  0
 53 22  1  0  0  0  0
 55 23  1  0  0  0  0
 58 24  1  0  0  0  0
 59 24  1  0  0  0  0
 60 24  1  0  0  0  0
 61 25  1  0  0  0  0
 63 25  1  0  0  0  0
 64 26  1  0  0  0  0
 66 26  1  0  0  0  0
 67 27  1  0  0  0  0
 70 28  1  0  0  0  0
M  END
