4
 OpenBabel05122313113D

 27 29  0  0  1  0  0  0  0  0999 V2000
   -2.0582   -1.4514   -1.5911 N   0  0  0  0  0  0  0  0  0  0  0  0
   -0.8400   -2.3744    0.5975 C   0  0  0  0  0  3  0  0  0  0  0  0
   -1.5402   -2.3727    1.4401 H   0  0  0  0  0  0  0  0  0  0  0  0
    0.5190   -2.8439    0.6504 C   0  0  2  0  0  3  0  0  0  0  0  0
    1.1158   -2.7031   -0.6403 C   0  0  0  0  0  3  0  0  0  0  0  0
    2.1425   -2.9887   -0.8928 H   0  0  0  0  0  0  0  0  0  0  0  0
    0.1132   -2.1905   -1.5306 C   0  0  0  0  0  0  0  0  0  0  0  0
   -1.0763   -1.9964   -0.7587 C   0  0  0  0  0  0  0  0  0  0  0  0
   -0.1883   -1.7654   -2.8771 C   0  0  0  0  0  0  0  0  0  0  0  0
    0.4682   -1.7919   -3.7533 H   0  0  0  0  0  0  0  0  0  0  0  0
   -1.4959   -1.3202   -2.8705 C   0  0  0  0  0  0  0  0  0  0  0  0
   -2.1067   -0.9315   -3.6917 H   0  0  0  0  0  0  0  0  0  0  0  0
    1.1960   -3.3992    1.8721 C   0  0  0  0  0  0  0  0  0  0  0  0
    0.8125   -2.9353    2.8044 H   0  0  0  0  0  0  0  0  0  0  0  0
    2.2905   -3.2331    1.8368 H   0  0  0  0  0  0  0  0  0  0  0  0
    1.0272   -4.4942    1.9640 H   0  0  0  0  0  0  0  0  0  0  0  0
   -3.2910   -0.9280   -1.1650 C   0  0  0  0  0  0  0  0  0  0  0  0
   -3.9882   -1.5439   -0.1010 C   0  0  0  0  0  0  0  0  0  0  0  0
   -3.5942   -2.4725    0.3343 H   0  0  0  0  0  0  0  0  0  0  0  0
   -5.1875   -0.9902    0.3670 C   0  0  0  0  0  0  0  0  0  0  0  0
   -5.7228   -1.4831    1.1930 H   0  0  0  0  0  0  0  0  0  0  0  0
   -5.7166    0.1706   -0.2210 C   0  0  0  0  0  0  0  0  0  0  0  0
   -6.6593    0.6010    0.1477 H   0  0  0  0  0  0  0  0  0  0  0  0
   -5.0312    0.7728   -1.2893 C   0  0  0  0  0  0  0  0  0  0  0  0
   -5.4309    1.6862   -1.7557 H   0  0  0  0  0  0  0  0  0  0  0  0
   -3.8240    0.2382   -1.7581 C   0  0  0  0  0  0  0  0  0  0  0  0
   -3.2678    0.7424   -2.5607 H   0  0  0  0  0  0  0  0  0  0  0  0
  1 17  1  0  0  0  0
  1  8  1  0  0  0  0
  2  4  1  0  0  0  0
  2  3  1  0  0  0  0
  4 13  1  6  0  0  0
  5  4  1  0  0  0  0
  6  5  1  0  0  0  0
  7  8  2  0  0  0  0
  7  5  1  0  0  0  0
  8  2  1  0  0  0  0
  9 11  2  0  0  0  0
  9  7  1  0  0  0  0
 10  9  1  0  0  0  0
 11  1  1  0  0  0  0
 12 11  1  0  0  0  0
 13 16  1  0  0  0  0
 13 14  1  0  0  0  0
 15 13  1  0  0  0  0
 17 18  1  0  0  0  0
 18 19  1  0  0  0  0
 18 20  2  0  0  0  0
 20 21  1  0  0  0  0
 22 23  1  0  0  0  0
 22 20  1  0  0  0  0
 24 22  2  0  0  0  0
 25 24  1  0  0  0  0
 26 24  1  0  0  0  0
 26 17  2  0  0  0  0
 27 26  1  0  0  0  0
M  END
