3
 OpenBabel05122313113D

 13 13  0  0  0  0  0  0  0  0999 V2000
    0.6348    2.1538   -0.6843 S   0  0  0  0  0  1  0  0  0  0  0  0
    3.1173    2.6882    0.0903 O   0  0  0  0  0  0  0  0  0  0  0  0
    1.5680   -0.6121   -0.2074 C   0  0  0  0  0  3  0  0  0  0  0  0
    2.5919    0.3370    0.0135 C   0  0  0  0  0  0  0  0  0  0  0  0
    3.9089   -0.0733    0.3036 C   0  0  0  0  0  0  0  0  0  0  0  0
    4.6623    0.7113    0.4775 H   0  0  0  0  0  0  0  0  0  0  0  0
    4.2277   -1.4345    0.3479 C   0  0  0  0  0  0  0  0  0  0  0  0
    5.2558   -1.7586    0.5700 H   0  0  0  0  0  0  0  0  0  0  0  0
    3.2259   -2.3864    0.0860 C   0  0  0  0  0  0  0  0  0  0  0  0
    3.4712   -3.4602    0.0930 H   0  0  0  0  0  0  0  0  0  0  0  0
    1.9099   -1.9779   -0.1926 C   0  0  0  0  0  0  0  0  0  0  0  0
    1.1416   -2.7389   -0.4037 H   0  0  0  0  0  0  0  0  0  0  0  0
    2.3075    1.7971   -0.1135 C   0  0  0  0  0  0  0  0  0  0  0  0
  1 13  1  0  0  0  0
  3 11  2  0  0  0  0
  3  4  1  0  0  0  0
  4  5  2  0  0  0  0
  5  7  1  0  0  0  0
  5  6  1  0  0  0  0
  7  8  1  0  0  0  0
  9 10  1  0  0  0  0
  9  7  2  0  0  0  0
 11  9  1  0  0  0  0
 12 11  1  0  0  0  0
 13  4  1  0  0  0  0
 13  2  2  0  0  0  0
M  END
