13
 OpenBabel05122313113D

 52 55  0  0  0  0  0  0  0  0999 V2000
   -0.9203    0.8041    0.1735 P   0  0  0  0  0  0  0  0  0  0  0  0
    2.4823   -0.5822   -0.5171 N   0  0  0  0  0  0  0  0  0  0  0  0
    0.0615    0.7846    1.7321 C   0  0  0  0  0  0  0  0  0  0  0  0
   -0.2228    1.3538    2.9808 C   0  0  0  0  0  0  0  0  0  0  0  0
   -1.1293    1.9622    3.1237 H   0  0  0  0  0  0  0  0  0  0  0  0
    0.6408    1.1048    4.0640 C   0  0  0  0  0  0  0  0  0  0  0  0
    0.4127    1.5230    5.0563 H   0  0  0  0  0  0  0  0  0  0  0  0
    1.7832    0.3101    3.8800 C   0  0  0  0  0  0  0  0  0  0  0  0
    2.4487    0.1009    4.7317 H   0  0  0  0  0  0  0  0  0  0  0  0
    2.0855   -0.2245    2.6144 C   0  0  0  0  0  0  0  0  0  0  0  0
    2.9818   -0.8495    2.4883 H   0  0  0  0  0  0  0  0  0  0  0  0
    1.2245    0.0084    1.5220 C   0  0  0  0  0  0  0  0  0  0  0  0
    1.3716   -0.5380    0.1244 C   0  0  0  0  0  3  0  0  0  0  0  0
   -2.6064    1.3050    0.7616 C   0  0  0  0  0  0  0  0  0  0  0  0
   -3.2016    0.6077    1.8361 C   0  0  0  0  0  0  0  0  0  0  0  0
   -2.6316   -0.1776    2.3522 H   0  0  0  0  0  0  0  0  0  0  0  0
   -4.5076    0.9053    2.2506 C   0  0  0  0  0  0  0  0  0  0  0  0
   -4.9493    0.3566    3.0967 H   0  0  0  0  0  0  0  0  0  0  0  0
   -5.2514    1.8953    1.5862 C   0  0  0  0  0  0  0  0  0  0  0  0
   -6.2791    2.1246    1.9062 H   0  0  0  0  0  0  0  0  0  0  0  0
   -4.6715    2.5936    0.5163 C   0  0  0  0  0  0  0  0  0  0  0  0
   -5.2426    3.3764   -0.0063 H   0  0  0  0  0  0  0  0  0  0  0  0
   -3.3573    2.3073    0.1123 C   0  0  0  0  0  0  0  0  0  0  0  0
   -2.9040    2.8800   -0.7110 H   0  0  0  0  0  0  0  0  0  0  0  0
   -0.3602    2.3954   -0.6098 C   0  0  0  0  0  0  0  0  0  0  0  0
   -0.2177    3.5823    0.1392 C   0  0  0  0  0  0  0  0  0  0  0  0
   -0.4633    3.5874    1.2122 H   0  0  0  0  0  0  0  0  0  0  0  0
    0.2441    4.7547   -0.4749 C   0  0  0  0  0  0  0  0  0  0  0  0
    0.3583    5.6750    0.1186 H   0  0  0  0  0  0  0  0  0  0  0  0
    0.5665    4.7545   -1.8434 C   0  0  0  0  0  0  0  0  0  0  0  0
    0.9326    5.6753   -2.3230 H   0  0  0  0  0  0  0  0  0  0  0  0
    0.4282    3.5764   -2.5926 C   0  0  0  0  0  0  0  0  0  0  0  0
    0.6870    3.5679   -3.6626 H   0  0  0  0  0  0  0  0  0  0  0  0
   -0.0283    2.3996   -1.9760 C   0  0  0  0  0  0  0  0  0  0  0  0
   -0.1118    1.4593   -2.5379 H   0  0  0  0  0  0  0  0  0  0  0  0
    3.7467   -0.0258   -0.0757 C   0  0  0  0  0  0  0  0  0  0  0  0
    3.6499    0.5696    0.8667 H   0  0  0  0  0  0  0  0  0  0  0  0
    4.7667   -1.1509    0.1767 C   0  0  0  0  0  0  0  0  0  0  0  0
    4.8209   -1.7731   -0.7440 H   0  0  0  0  0  0  0  0  0  0  0  0
    4.3922   -1.8218    0.9800 H   0  0  0  0  0  0  0  0  0  0  0  0
    6.1536   -0.5990    0.5282 C   0  0  0  0  0  0  0  0  0  0  0  0
    6.0981   -0.0610    1.5018 H   0  0  0  0  0  0  0  0  0  0  0  0
    6.8719   -1.4332    0.6753 H   0  0  0  0  0  0  0  0  0  0  0  0
    6.6639    0.3671   -0.5495 C   0  0  0  0  0  0  0  0  0  0  0  0
    6.8289   -0.1985   -1.4942 H   0  0  0  0  0  0  0  0  0  0  0  0
    7.6503    0.7865   -0.2585 H   0  0  0  0  0  0  0  0  0  0  0  0
    5.6538    1.4924   -0.8102 C   0  0  0  0  0  0  0  0  0  0  0  0
    6.0154    2.1593   -1.6213 H   0  0  0  0  0  0  0  0  0  0  0  0
    5.5728    2.1278    0.1008 H   0  0  0  0  0  0  0  0  0  0  0  0
    4.2714    0.9318   -1.1630 C   0  0  0  0  0  0  0  0  0  0  0  0
    4.3149    0.3677   -2.1207 H   0  0  0  0  0  0  0  0  0  0  0  0
    3.5329    1.7476   -1.3104 H   0  0  0  0  0  0  0  0  0  0  0  0
  1 14  1  0  0  0  0
  1  3  1  0  0  0  0
  2 36  1  0  0  0  0
  2 13  2  0  0  0  0
  3  4  1  0  0  0  0
  4  5  1  0  0  0  0
  4  6  2  0  0  0  0
  6  7  1  0  0  0  0
  8  6  1  0  0  0  0
  8  9  1  0  0  0  0
 10  8  2  0  0  0  0
 11 10  1  0  0  0  0
 12  3  2  0  0  0  0
 12 10  1  0  0  0  0
 13 12  1  0  0  0  0
 14 15  1  0  0  0  0
 15 17  2  0  0  0  0
 15 16  1  0  0  0  0
 17 18  1  0  0  0  0
 19 20  1  0  0  0  0
 19 17  1  0  0  0  0
 21 19  2  0  0  0  0
 22 21  1  0  0  0  0
 23 21  1  0  0  0  0
 23 14  2  0  0  0  0
 24 23  1  0  0  0  0
 25 26  1  0  0  0  0
 25  1  1  0  0  0  0
 26 27  1  0  0  0  0
 28 29  1  0  0  0  0
 28 26  2  0  0  0  0
 30 28  1  0  0  0  0
 31 30  1  0  0  0  0
 32 34  1  0  0  0  0
 32 30  2  0  0  0  0
 33 32  1  0  0  0  0
 34 25  2  0  0  0  0
 35 34  1  0  0  0  0
 36 38  1  0  0  0  0
 36 37  1  0  0  0  0
 38 41  1  0  0  0  0
 38 40  1  0  0  0  0
 39 38  1  0  0  0  0
 41 43  1  0  0  0  0
 41 42  1  0  0  0  0
 44 46  1  0  0  0  0
 44 41  1  0  0  0  0
 45 44  1  0  0  0  0
 47 44  1  0  0  0  0
 47 49  1  0  0  0  0
 48 47  1  0  0  0  0
 50 47  1  0  0  0  0
 50 36  1  0  0  0  0
 51 50  1  0  0  0  0
 52 50  1  0  0  0  0
M  END
