4
 OpenBabel05122313113D

 28 30  0  0  0  0  0  0  0  0999 V2000
   -2.3626   -0.6411   -1.6764 S   0  0  0  0  0  0  0  0  0  0  0  0
    0.1930    2.4440    0.6174 N   0  0  0  0  0  0  0  0  0  0  0  0
   -0.2609    1.6167   -1.3594 N   0  0  0  0  0  0  0  0  0  0  0  0
    0.5328    1.4441   -0.2513 C   0  0  0  0  0  2  0  0  0  0  0  0
   -0.8250    3.2342    0.0859 C   0  0  0  0  0  0  0  0  0  0  0  0
   -1.5261    4.3333    0.5988 C   0  0  0  0  0  0  0  0  0  0  0  0
   -1.3109    4.7358    1.5980 H   0  0  0  0  0  0  0  0  0  0  0  0
   -2.5219    4.8914   -0.2188 C   0  0  0  0  0  0  0  0  0  0  0  0
   -3.0947    5.7559    0.1479 H   0  0  0  0  0  0  0  0  0  0  0  0
   -2.8066    4.3671   -1.4991 C   0  0  0  0  0  0  0  0  0  0  0  0
   -3.5965    4.8316   -2.1075 H   0  0  0  0  0  0  0  0  0  0  0  0
   -2.1091    3.2612   -2.0112 C   0  0  0  0  0  0  0  0  0  0  0  0
   -2.3395    2.8390   -2.9990 H   0  0  0  0  0  0  0  0  0  0  0  0
   -1.1167    2.7058   -1.1939 C   0  0  0  0  0  0  0  0  0  0  0  0
    0.8075    2.6678    1.9133 C   0  0  0  0  0  0  0  0  0  0  0  0
    0.1255    2.3481    2.7286 H   0  0  0  0  0  0  0  0  0  0  0  0
    1.0414    3.7436    2.0274 H   0  0  0  0  0  0  0  0  0  0  0  0
    1.7571    2.1016    1.9434 H   0  0  0  0  0  0  0  0  0  0  0  0
   -0.1210    0.8299   -2.5742 C   0  0  0  0  0  0  0  0  0  0  0  0
    0.7693    0.1863   -2.3948 H   0  0  0  0  0  0  0  0  0  0  0  0
    0.1318    1.5027   -3.4208 H   0  0  0  0  0  0  0  0  0  0  0  0
   -1.3344    0.0165   -2.9215 C   0  0  0  0  0  0  0  0  0  0  0  0
   -1.7471   -0.4046   -4.1756 C   0  0  0  0  0  0  0  0  0  0  0  0
   -1.2379   -0.1034   -5.1023 H   0  0  0  0  0  0  0  0  0  0  0  0
   -2.8851   -1.2684   -4.1273 C   0  0  0  0  0  0  0  0  0  0  0  0
   -3.3666   -1.7038   -5.0136 H   0  0  0  0  0  0  0  0  0  0  0  0
   -3.3292   -1.4861   -2.8371 C   0  0  0  0  0  0  0  0  0  0  0  0
   -4.1837   -2.0833   -2.4969 H   0  0  0  0  0  0  0  0  0  0  0  0
  2 15  1  0  0  0  0
  3 14  1  0  0  0  0
  3  4  1  0  0  0  0
  4  2  1  0  0  0  0
  5  6  1  0  0  0  0
  5  2  1  0  0  0  0
  6  7  1  0  0  0  0
  8  9  1  0  0  0  0
  8  6  2  0  0  0  0
 10  8  1  0  0  0  0
 11 10  1  0  0  0  0
 12 10  2  0  0  0  0
 12 14  1  0  0  0  0
 13 12  1  0  0  0  0
 14  5  2  0  0  0  0
 15 18  1  0  0  0  0
 15 17  1  0  0  0  0
 15 16  1  0  0  0  0
 19 20  1  0  0  0  0
 19  3  1  0  0  0  0
 21 19  1  0  0  0  0
 22 19  1  0  0  0  0
 22  1  1  0  0  0  0
 23 25  1  0  0  0  0
 23 22  2  0  0  0  0
 24 23  1  0  0  0  0
 25 27  2  0  0  0  0
 26 25  1  0  0  0  0
 27 28  1  0  0  0  0
 27  1  1  0  0  0  0
M  END
