35
 OpenBabel05122313113D

 37 36  0  0  0  0  0  0  0  0999 V2000
    1.3896    0.1062   -0.1234 Si  0  0  0  0  0  0  0  0  0  0  0  0
    2.6597   -0.7049   -0.8854 O   0  0  0  0  0  0  0  0  0  0  0  0
    2.0382    1.6225    0.2293 O   0  0  0  0  0  0  0  0  0  0  0  0
    1.0841   -0.6042    1.3712 O   0  0  0  0  0  0  0  0  0  0  0  0
    2.5617   -1.8825   -1.6867 C   0  0  0  0  0  0  0  0  0  0  0  0
    1.5414   -1.9403   -2.1403 H   0  0  0  0  0  0  0  0  0  0  0  0
    2.6964    2.4229   -0.7675 C   0  0  0  0  0  0  0  0  0  0  0  0
    2.3818    2.0803   -1.7834 H   0  0  0  0  0  0  0  0  0  0  0  0
    2.1232   -0.8591    2.3323 C   0  0  0  0  0  0  0  0  0  0  0  0
    3.0854   -1.0136    1.7893 H   0  0  0  0  0  0  0  0  0  0  0  0
    3.5794   -1.7686   -2.8181 C   0  0  0  0  0  0  0  0  0  0  0  0
    3.3892   -0.8564   -3.4169 H   0  0  0  0  0  0  0  0  0  0  0  0
    3.5312   -2.6486   -3.4905 H   0  0  0  0  0  0  0  0  0  0  0  0
    4.6054   -1.7000   -2.4017 H   0  0  0  0  0  0  0  0  0  0  0  0
    2.7792   -3.1257   -0.8235 C   0  0  0  0  0  0  0  0  0  0  0  0
    2.0196   -3.1885   -0.0186 H   0  0  0  0  0  0  0  0  0  0  0  0
    3.7792   -3.0874   -0.3449 H   0  0  0  0  0  0  0  0  0  0  0  0
    2.7160   -4.0513   -1.4307 H   0  0  0  0  0  0  0  0  0  0  0  0
    4.2072    2.2396   -0.6451 C   0  0  0  0  0  0  0  0  0  0  0  0
    4.4673    1.1724   -0.7822 H   0  0  0  0  0  0  0  0  0  0  0  0
    4.5500    2.5617    0.3598 H   0  0  0  0  0  0  0  0  0  0  0  0
    4.7449    2.8395   -1.4074 H   0  0  0  0  0  0  0  0  0  0  0  0
    2.2512    3.8706   -0.5843 C   0  0  0  0  0  0  0  0  0  0  0  0
    1.1542    3.9670   -0.7107 H   0  0  0  0  0  0  0  0  0  0  0  0
    2.7447    4.5345   -1.3222 H   0  0  0  0  0  0  0  0  0  0  0  0
    2.5129    4.2232    0.4345 H   0  0  0  0  0  0  0  0  0  0  0  0
    2.2728    0.3402    3.2668 C   0  0  0  0  0  0  0  0  0  0  0  0
    2.4971    1.2513    2.6800 H   0  0  0  0  0  0  0  0  0  0  0  0
    3.0895    0.1731    3.9982 H   0  0  0  0  0  0  0  0  0  0  0  0
    1.3323    0.5095    3.8320 H   0  0  0  0  0  0  0  0  0  0  0  0
    1.7684   -2.1452    3.0720 C   0  0  0  0  0  0  0  0  0  0  0  0
    1.6738   -2.9946    2.3669 H   0  0  0  0  0  0  0  0  0  0  0  0
    0.8006   -2.0286    3.6030 H   0  0  0  0  0  0  0  0  0  0  0  0
    2.5447   -2.3996    3.8212 H   0  0  0  0  0  0  0  0  0  0  0  0
   -0.1603    0.2041   -1.1194 C   0  0  0  0  0  3  0  0  0  0  0  0
   -0.1723   -0.5543   -1.9279 H   0  0  0  0  0  0  0  0  0  0  0  0
   -0.1779    1.2011   -1.6079 H   0  0  0  0  0  0  0  0  0  0  0  0
  1  3  1  0  0  0  0
  1  4  1  0  0  0  0
  2  1  1  0  0  0  0
  4  9  1  0  0  0  0
  5  2  1  0  0  0  0
  5 15  1  0  0  0  0
  6  5  1  0  0  0  0
  7 19  1  0  0  0  0
  7 23  1  0  0  0  0
  7  3  1  0  0  0  0
  8  7  1  0  0  0  0
  9 31  1  0  0  0  0
  9 27  1  0  0  0  0
 10  9  1  0  0  0  0
 11 14  1  0  0  0  0
 11  5  1  0  0  0  0
 12 11  1  0  0  0  0
 13 11  1  0  0  0  0
 15 17  1  0  0  0  0
 15 16  1  0  0  0  0
 18 15  1  0  0  0  0
 19 21  1  0  0  0  0
 20 19  1  0  0  0  0
 22 19  1  0  0  0  0
 23 26  1  0  0  0  0
 24 23  1  0  0  0  0
 25 23  1  0  0  0  0
 27 30  1  0  0  0  0
 27 29  1  0  0  0  0
 28 27  1  0  0  0  0
 31 33  1  0  0  0  0
 31 34  1  0  0  0  0
 32 31  1  0  0  0  0
 35  1  1  0  0  0  0
 36 35  1  0  0  0  0
 37 35  1  0  0  0  0
M  END
