9
 OpenBabel05122313113D

 26 27  0  0  1  0  0  0  0  0999 V2000
    3.6524   -2.1732   -0.5592 O   0  0  0  0  0  0  0  0  0  0  0  0
    4.2347   -1.3384   -0.6553 H   0  0  0  0  0  0  0  0  0  0  0  0
    4.4209    0.2867   -0.4702 O   0  0  0  0  0  0  0  0  0  0  0  0
    2.9837    1.8657    0.3103 O   0  0  0  0  0  0  0  0  0  0  0  0
   -0.9835   -1.6644   -0.1520 C   0  0  0  0  0  3  0  0  0  0  0  0
   -1.5800   -2.5899   -0.0841 H   0  0  0  0  0  0  0  0  0  0  0  0
   -0.9793   -0.9959   -1.4278 C   0  0  0  0  0  3  0  0  0  0  0  0
   -1.4641   -1.4058   -2.3267 H   0  0  0  0  0  0  0  0  0  0  0  0
   -0.4355    0.3205   -1.4058 C   0  0  0  0  0  3  0  0  0  0  0  0
   -0.4766    0.9764   -2.2886 H   0  0  0  0  0  0  0  0  0  0  0  0
    0.0236    0.7554   -0.1145 C   0  0  0  0  0  3  0  0  0  0  0  0
    0.2707    1.8230   -0.0046 H   0  0  0  0  0  0  0  0  0  0  0  0
    0.8550   -0.1843    0.7528 C   0  0  1  0  0  0  0  0  0  0  0  0
    0.8665    0.2253    1.7852 H   0  0  0  0  0  0  0  0  0  0  0  0
    0.2460   -1.6282    0.7398 C   0  0  2  0  0  0  0  0  0  0  0  0
   -0.0628   -1.9057    1.7661 H   0  0  0  0  0  0  0  0  0  0  0  0
    1.3667   -2.6036    0.2563 C   0  0  0  0  0  0  0  0  0  0  0  0
    1.6579   -3.3414    1.0340 H   0  0  0  0  0  0  0  0  0  0  0  0
    1.0737   -3.1955   -0.6377 H   0  0  0  0  0  0  0  0  0  0  0  0
    2.5223   -1.7039   -0.0606 C   0  0  0  0  0  0  0  0  0  0  0  0
    2.2619   -0.3806    0.2346 C   0  0  0  0  0  0  0  0  0  0  0  0
    3.3024    0.5904   -0.0052 C   0  0  0  0  0  0  0  0  0  0  0  0
    4.0091    2.8390    0.0788 C   0  0  0  0  0  0  0  0  0  0  0  0
    3.5819    3.8102    0.3853 H   0  0  0  0  0  0  0  0  0  0  0  0
    4.2976    2.8632   -0.9914 H   0  0  0  0  0  0  0  0  0  0  0  0
    4.9146    2.6092    0.6756 H   0  0  0  0  0  0  0  0  0  0  0  0
  1 20  1  0  0  0  0
  2  1  1  0  0  0  0
  3 22  2  0  0  0  0
  5  6  1  0  0  0  0
  5 15  1  0  0  0  0
  7  9  1  0  0  0  0
  7  5  1  0  0  0  0
  8  7  1  0  0  0  0
  9 11  1  0  0  0  0
 10  9  1  0  0  0  0
 11 12  1  0  0  0  0
 11 13  1  0  0  0  0
 13 14  1  1  0  0  0
 15 13  1  0  0  0  0
 15 16  1  1  0  0  0
 17 15  1  0  0  0  0
 17 18  1  0  0  0  0
 19 17  1  0  0  0  0
 20 21  2  0  0  0  0
 20 17  1  0  0  0  0
 21 13  1  0  0  0  0
 22 21  1  0  0  0  0
 22  4  1  0  0  0  0
 23  4  1  0  0  0  0
 23 24  1  0  0  0  0
 23 26  1  0  0  0  0
 25 23  1  0  0  0  0
M  END
