1
 OpenBabel05122313113D

 38 38  0  0  0  0  0  0  0  0999 V2000
    0.4025    1.1441    0.0378 C   0  0  0  0  0  2  0  0  0  0  0  0
    0.7353    2.4220   -0.1225 N   0  0  0  0  0  0  0  0  0  0  0  0
    2.1062    2.8500   -0.4450 C   0  0  0  0  0  0  0  0  0  0  0  0
    2.8828    3.3327    0.7779 C   0  0  0  0  0  0  0  0  0  0  0  0
   -0.2243    3.5469   -0.0099 C   0  0  0  0  0  0  0  0  0  0  0  0
   -0.8227    3.9429   -1.3575 C   0  0  0  0  0  0  0  0  0  0  0  0
   -1.0237    0.9108    0.4406 C   0  0  0  0  0  0  0  0  0  0  0  0
   -1.9584    0.6037   -0.5176 C   0  0  0  0  0  0  0  0  0  0  0  0
   -3.3463    0.1787   -0.3211 C   0  0  0  0  0  0  0  0  0  0  0  0
   -3.7517   -0.6649    0.7427 C   0  0  0  0  0  0  0  0  0  0  0  0
   -5.0896   -1.0547    0.8798 C   0  0  0  0  0  0  0  0  0  0  0  0
   -6.0775   -0.6336   -0.0331 C   0  0  0  0  0  0  0  0  0  0  0  0
   -5.6672    0.1776   -1.1136 C   0  0  0  0  0  0  0  0  0  0  0  0
   -4.3334    0.5664   -1.2614 C   0  0  0  0  0  0  0  0  0  0  0  0
   -7.5215   -1.0310    0.1332 C   0  0  0  0  0  0  0  0  0  0  0  0
   -1.3450    1.0494    1.8660 C   0  0  0  0  0  0  0  0  0  0  0  0
   -0.4551    1.2368    2.8695 C   0  0  0  0  0  0  0  0  0  0  0  0
    2.0361    3.6539   -1.2070 H   0  0  0  0  0  0  0  0  0  0  0  0
    2.6136    1.9898   -0.9127 H   0  0  0  0  0  0  0  0  0  0  0  0
    3.8936    3.6637    0.4681 H   0  0  0  0  0  0  0  0  0  0  0  0
    2.3881    4.1909    1.2764 H   0  0  0  0  0  0  0  0  0  0  0  0
    3.0035    2.5219    1.5205 H   0  0  0  0  0  0  0  0  0  0  0  0
    0.3214    4.3997    0.4420 H   0  0  0  0  0  0  0  0  0  0  0  0
   -1.0168    3.2570    0.7028 H   0  0  0  0  0  0  0  0  0  0  0  0
   -1.4786    4.8273   -1.2330 H   0  0  0  0  0  0  0  0  0  0  0  0
   -0.0403    4.2047   -2.0980 H   0  0  0  0  0  0  0  0  0  0  0  0
   -1.4326    3.1177   -1.7728 H   0  0  0  0  0  0  0  0  0  0  0  0
   -1.6346    0.6646   -1.5709 H   0  0  0  0  0  0  0  0  0  0  0  0
   -2.9971   -1.0635    1.4359 H   0  0  0  0  0  0  0  0  0  0  0  0
   -5.3721   -1.7234    1.7085 H   0  0  0  0  0  0  0  0  0  0  0  0
   -6.4119    0.5025   -1.8578 H   0  0  0  0  0  0  0  0  0  0  0  0
   -4.0394    1.1930   -2.1184 H   0  0  0  0  0  0  0  0  0  0  0  0
   -7.9941   -1.2704   -0.8406 H   0  0  0  0  0  0  0  0  0  0  0  0
   -7.6300   -1.9115    0.7960 H   0  0  0  0  0  0  0  0  0  0  0  0
   -8.1129   -0.2043    0.5832 H   0  0  0  0  0  0  0  0  0  0  0  0
   -2.4207    1.0353    2.1059 H   0  0  0  0  0  0  0  0  0  0  0  0
    0.6322    1.2260    2.6983 H   0  0  0  0  0  0  0  0  0  0  0  0
   -0.7986    1.3795    3.9047 H   0  0  0  0  0  0  0  0  0  0  0  0
  1  7  1  0  0  0  0
  2  5  1  0  0  0  0
  2  1  1  0  0  0  0
  3  2  1  0  0  0  0
  3  4  1  0  0  0  0
  4 21  1  0  0  0  0
  4 22  1  0  0  0  0
  5 23  1  0  0  0  0
  5 24  1  0  0  0  0
  6 25  1  0  0  0  0
  6  5  1  0  0  0  0
  7 16  1  0  0  0  0
  8  9  1  0  0  0  0
  8  7  2  0  0  0  0
  9 10  1  0  0  0  0
 10 11  2  0  0  0  0
 10 29  1  0  0  0  0
 11 30  1  0  0  0  0
 12 15  1  0  0  0  0
 12 11  1  0  0  0  0
 13 12  2  0  0  0  0
 14 13  1  0  0  0  0
 14  9  2  0  0  0  0
 15 35  1  0  0  0  0
 15 34  1  0  0  0  0
 16 36  1  0  0  0  0
 16 17  2  0  0  0  0
 17 38  1  0  0  0  0
 18  3  1  0  0  0  0
 19  3  1  0  0  0  0
 20  4  1  0  0  0  0
 26  6  1  0  0  0  0
 27  6  1  0  0  0  0
 28  8  1  0  0  0  0
 31 13  1  0  0  0  0
 32 14  1  0  0  0  0
 33 15  1  0  0  0  0
 37 17  1  0  0  0  0
M  END
