2
 OpenBabel05122313113D

 35 34  0  0  0  0  0  0  0  0999 V2000
    1.9011   -0.4300   -0.1307 N   0  0  0  0  0  0  0  0  0  0  0  0
    0.9989    0.5622   -0.0958 C   0  0  0  0  0  2  0  0  0  0  0  0
    1.4128    2.0545   -0.2297 C   0  0  0  0  0  0  0  0  0  0  0  0
    0.1685    2.9603   -0.0488 C   0  0  0  0  0  0  0  0  0  0  0  0
   -0.3384    2.7536    0.9124 H   0  0  0  0  0  0  0  0  0  0  0  0
   -0.5641    2.8257   -0.8654 H   0  0  0  0  0  0  0  0  0  0  0  0
    0.4941    4.0216   -0.0570 H   0  0  0  0  0  0  0  0  0  0  0  0
    2.3594    2.4212    0.9457 C   0  0  0  0  0  0  0  0  0  0  0  0
    1.8698    2.1434    1.9003 H   0  0  0  0  0  0  0  0  0  0  0  0
    2.5332    3.5164    0.9451 H   0  0  0  0  0  0  0  0  0  0  0  0
    3.3506    1.9304    0.9116 H   0  0  0  0  0  0  0  0  0  0  0  0
    2.0011    2.4190   -1.6172 C   0  0  0  0  0  0  0  0  0  0  0  0
    2.0711    3.5227   -1.6975 H   0  0  0  0  0  0  0  0  0  0  0  0
    1.3303    2.0723   -2.4299 H   0  0  0  0  0  0  0  0  0  0  0  0
    3.0098    2.0154   -1.8193 H   0  0  0  0  0  0  0  0  0  0  0  0
    1.4262   -1.7910    0.3001 C   0  0  0  0  0  0  0  0  0  0  0  0
    1.7429   -2.0799    1.7711 C   0  0  0  0  0  0  0  0  0  0  0  0
    2.8054   -2.3207    1.9599 H   0  0  0  0  0  0  0  0  0  0  0  0
    1.1419   -2.9565    2.0883 H   0  0  0  0  0  0  0  0  0  0  0  0
    1.4285   -1.2227    2.3991 H   0  0  0  0  0  0  0  0  0  0  0  0
    1.7912   -2.9399   -0.6373 C   0  0  0  0  0  0  0  0  0  0  0  0
    1.5036   -2.7300   -1.6858 H   0  0  0  0  0  0  0  0  0  0  0  0
    1.2277   -3.8369   -0.3105 H   0  0  0  0  0  0  0  0  0  0  0  0
    2.8659   -3.2110   -0.6136 H   0  0  0  0  0  0  0  0  0  0  0  0
    3.3249   -0.2598   -0.5497 C   0  0  0  0  0  0  0  0  0  0  0  0
    3.4947    0.8246   -0.5193 H   0  0  0  0  0  0  0  0  0  0  0  0
    4.3516   -0.8676    0.4084 C   0  0  0  0  0  0  0  0  0  0  0  0
    4.2030   -0.5054    1.4436 H   0  0  0  0  0  0  0  0  0  0  0  0
    5.3635   -0.5561    0.0796 H   0  0  0  0  0  0  0  0  0  0  0  0
    4.3352   -1.9737    0.4172 H   0  0  0  0  0  0  0  0  0  0  0  0
    3.5539   -0.6913   -2.0077 C   0  0  0  0  0  0  0  0  0  0  0  0
    3.6063   -1.7882   -2.1295 H   0  0  0  0  0  0  0  0  0  0  0  0
    4.5163   -0.2706   -2.3632 H   0  0  0  0  0  0  0  0  0  0  0  0
    2.7514   -0.3062   -2.6660 H   0  0  0  0  0  0  0  0  0  0  0  0
    0.3161   -1.6613    0.2533 H   0  0  0  0  0  0  0  0  0  0  0  0
  1  2  1  0  0  0  0
  1 16  1  0  0  0  0
  3  2  1  0  0  0  0
  3  4  1  0  0  0  0
  3  8  1  0  0  0  0
  4  5  1  0  0  0  0
  6  4  1  0  0  0  0
  7  4  1  0  0  0  0
  8  9  1  0  0  0  0
 10  8  1  0  0  0  0
 11  8  1  0  0  0  0
 12  3  1  0  0  0  0
 13 12  1  0  0  0  0
 14 12  1  0  0  0  0
 15 12  1  0  0  0  0
 16 17  1  0  0  0  0
 17 18  1  0  0  0  0
 17 19  1  0  0  0  0
 17 20  1  0  0  0  0
 21 24  1  0  0  0  0
 21 23  1  0  0  0  0
 21 16  1  0  0  0  0
 22 21  1  0  0  0  0
 25 26  1  0  0  0  0
 25  1  1  0  0  0  0
 25 27  1  0  0  0  0
 27 30  1  0  0  0  0
 27 28  1  0  0  0  0
 29 27  1  0  0  0  0
 31 25  1  0  0  0  0
 32 31  1  0  0  0  0
 33 31  1  0  0  0  0
 34 31  1  0  0  0  0
 35 16  1  0  0  0  0
M  END
