11
 OpenBabel05122313113D

 23 24  0  0  0  0  0  0  0  0999 V2000
   -3.4504   -0.8789    0.2965 N   0  0  0  0  0  0  0  0  0  0  0  0
   -1.7983    2.4448   -0.2650 C   0  0  0  0  0  0  0  0  0  0  0  0
   -1.2997    2.6925   -1.2294 H   0  0  0  0  0  0  0  0  0  0  0  0
   -2.1524    3.4115    0.1595 H   0  0  0  0  0  0  0  0  0  0  0  0
   -2.8975    1.4249   -0.4568 C   0  0  0  0  0  0  0  0  0  0  0  0
   -3.7383    1.5894   -1.1410 H   0  0  0  0  0  0  0  0  0  0  0  0
   -2.6573    0.2583    0.2388 C   0  0  0  0  0  0  0  0  0  0  0  0
   -1.3973    0.4339    0.9821 C   0  0  0  0  0  0  0  0  0  0  0  0
   -0.5356   -0.1821    1.9358 C   0  0  0  0  0  0  0  0  0  0  0  0
   -0.6500   -1.1623    2.4119 H   0  0  0  0  0  0  0  0  0  0  0  0
    0.4899    0.7805    2.2554 C   0  0  0  0  0  3  0  0  0  0  0  0
    1.2893    0.6424    2.9937 H   0  0  0  0  0  0  0  0  0  0  0  0
    0.2651    1.9668    1.4904 C   0  0  0  0  0  0  0  0  0  0  0  0
    0.8890    2.8669    1.5070 H   0  0  0  0  0  0  0  0  0  0  0  0
   -0.8785    1.7349    0.6865 C   0  0  0  0  0  0  0  0  0  0  0  0
   -4.6816   -0.8391   -0.4643 C   0  0  0  0  0  0  0  0  0  0  0  0
   -5.2578    0.0708   -0.2016 H   0  0  0  0  0  0  0  0  0  0  0  0
   -5.2984   -1.7254   -0.2171 H   0  0  0  0  0  0  0  0  0  0  0  0
   -4.5091   -0.8289   -1.5695 H   0  0  0  0  0  0  0  0  0  0  0  0
   -2.8038   -2.1799    0.3350 C   0  0  0  0  0  0  0  0  0  0  0  0
   -2.4248   -2.5025   -0.6650 H   0  0  0  0  0  0  0  0  0  0  0  0
   -3.5215   -2.9421    0.7013 H   0  0  0  0  0  0  0  0  0  0  0  0
   -1.9439   -2.1664    1.0280 H   0  0  0  0  0  0  0  0  0  0  0  0
  1 20  1  0  0  0  0
  2  4  1  0  0  0  0
  2 15  1  0  0  0  0
  3  2  1  0  0  0  0
  5  2  1  0  0  0  0
  5  7  2  0  0  0  0
  6  5  1  0  0  0  0
  7  1  1  0  0  0  0
  7  8  1  0  0  0  0
  8  9  2  0  0  0  0
  9 11  1  0  0  0  0
  9 10  1  0  0  0  0
 11 12  1  0  0  0  0
 13 14  1  0  0  0  0
 13 11  1  0  0  0  0
 15  8  1  0  0  0  0
 15 13  2  0  0  0  0
 16 18  1  0  0  0  0
 16 17  1  0  0  0  0
 16  1  1  0  0  0  0
 19 16  1  0  0  0  0
 20 22  1  0  0  0  0
 20 23  1  0  0  0  0
 21 20  1  0  0  0  0
M  END
