2
 OpenBabel05122313113D

 43 45  0  0  1  0  0  0  0  0999 V2000
    0.9967    0.1802    1.3569 S   0  0  0  0  0  0  0  0  0  0  0  0
    0.0509   -0.0117   -0.1729 C   0  0  1  0  0  3  0  0  0  0  0  0
    0.8777    0.3988   -1.2521 C   0  0  0  0  0  3  0  0  0  0  0  0
    2.1240    0.9536   -0.8280 C   0  0  0  0  0  3  0  0  0  0  0  0
    2.6140    0.3343    0.4574 C   0  0  2  0  0  0  0  0  0  0  0  0
   -1.7035   -0.6739   -0.1205 Si  0  0  1  0  0  0  0  0  0  0  0  0
   -1.9574   -0.2471    1.5081 O   0  0  0  0  0  0  0  0  0  0  0  0
   -2.3079    0.2116   -1.4424 O   0  0  0  0  0  0  0  0  0  0  0  0
   -1.4817   -2.3411   -0.4143 O   0  0  0  0  0  0  0  0  0  0  0  0
   -3.1175   -0.5583    2.2323 C   0  0  0  0  0  0  0  0  0  0  0  0
   -4.3159   -0.5961    1.2752 C   0  0  0  0  0  0  0  0  0  0  0  0
   -3.6783    0.4771   -1.6009 C   0  0  0  0  0  0  0  0  0  0  0  0
   -4.4796   -0.7669   -1.1941 C   0  0  0  0  0  0  0  0  0  0  0  0
   -2.5749   -3.1838   -0.6922 C   0  0  0  0  0  0  0  0  0  0  0  0
   -3.7880   -2.7477    0.1403 C   0  0  0  0  0  0  0  0  0  0  0  0
   -3.8846   -1.2829    0.0488 N   0  0  2  0  0  0  0  0  0  0  0  0
    3.4866   -1.2895    0.3392 P   0  0  0  0  0  0  0  0  0  0  0  0
    4.7805   -0.8005   -0.5327 O   0  0  0  0  0  0  0  0  0  0  0  0
    2.6682   -2.1710   -0.7747 O   0  0  0  0  0  0  0  0  0  0  0  0
    3.7347   -1.9964    1.6412 O   0  0  0  0  0  0  0  0  0  0  0  0
    5.7460   -1.7845   -0.9234 C   0  0  0  0  0  0  0  0  0  0  0  0
    1.8339   -3.2650   -0.3563 C   0  0  0  0  0  0  0  0  0  0  0  0
    0.5242    0.3728   -2.2921 H   0  0  0  0  0  0  0  0  0  0  0  0
    2.8550    1.3520   -1.5454 H   0  0  0  0  0  0  0  0  0  0  0  0
    3.2515    1.0079    1.0657 H   0  0  0  0  0  0  0  0  0  0  0  0
   -3.2847    0.2119    3.0149 H   0  0  0  0  0  0  0  0  0  0  0  0
   -2.9992   -1.5376    2.7559 H   0  0  0  0  0  0  0  0  0  0  0  0
   -4.5837    0.4431    0.9990 H   0  0  0  0  0  0  0  0  0  0  0  0
   -5.2115   -1.0724    1.7340 H   0  0  0  0  0  0  0  0  0  0  0  0
   -3.8875    0.7375   -2.6601 H   0  0  0  0  0  0  0  0  0  0  0  0
   -3.9767    1.3591   -0.9849 H   0  0  0  0  0  0  0  0  0  0  0  0
   -5.5671   -0.5583   -1.0817 H   0  0  0  0  0  0  0  0  0  0  0  0
   -4.3627   -1.5443   -1.9751 H   0  0  0  0  0  0  0  0  0  0  0  0
   -2.3058   -4.2341   -0.4493 H   0  0  0  0  0  0  0  0  0  0  0  0
   -2.8224   -3.1572   -1.7809 H   0  0  0  0  0  0  0  0  0  0  0  0
   -4.7259   -3.2531   -0.1833 H   0  0  0  0  0  0  0  0  0  0  0  0
   -3.6113   -3.0097    1.2024 H   0  0  0  0  0  0  0  0  0  0  0  0
    6.6238   -1.2408   -1.3203 H   0  0  0  0  0  0  0  0  0  0  0  0
    5.3331   -2.4467   -1.7135 H   0  0  0  0  0  0  0  0  0  0  0  0
    6.0567   -2.4022   -0.0548 H   0  0  0  0  0  0  0  0  0  0  0  0
    2.0165   -4.1105   -1.0492 H   0  0  0  0  0  0  0  0  0  0  0  0
    0.7670   -2.9654   -0.4085 H   0  0  0  0  0  0  0  0  0  0  0  0
    2.0919   -3.5756    0.6767 H   0  0  0  0  0  0  0  0  0  0  0  0
  2  3  1  6  0  0  0
  2  6  1  0  0  0  0
  2  1  1  0  0  0  0
  3  4  1  0  0  0  0
  4  5  1  0  0  0  0
  5 25  1  1  0  0  0
  5  1  1  0  0  0  0
  6  8  1  6  0  0  0
  6  7  1  0  0  0  0
  7 10  1  0  0  0  0
  9  6  1  0  0  0  0
 10 27  1  0  0  0  0
 10 26  1  0  0  0  0
 11 29  1  0  0  0  0
 11 10  1  0  0  0  0
 12  8  1  0  0  0  0
 12 13  1  0  0  0  0
 12 31  1  0  0  0  0
 13 32  1  0  0  0  0
 14 34  1  0  0  0  0
 14  9  1  0  0  0  0
 14 15  1  0  0  0  0
 15 37  1  0  0  0  0
 16 13  1  6  0  0  0
 16 15  1  0  0  0  0
 16 11  1  0  0  0  0
 17  5  1  0  0  0  0
 17 20  2  0  0  0  0
 18 17  1  0  0  0  0
 19 22  1  0  0  0  0
 19 17  1  0  0  0  0
 21 18  1  0  0  0  0
 21 40  1  0  0  0  0
 22 43  1  0  0  0  0
 23  3  1  0  0  0  0
 24  4  1  0  0  0  0
 28 11  1  0  0  0  0
 30 12  1  0  0  0  0
 33 13  1  0  0  0  0
 35 14  1  0  0  0  0
 36 15  1  0  0  0  0
 38 21  1  0  0  0  0
 39 21  1  0  0  0  0
 41 22  1  0  0  0  0
 42 22  1  0  0  0  0
M  END
