9
 OpenBabel05122313113D

 38 41  0  0  1  0  0  0  0  0999 V2000
    1.5804   -1.8321   -1.1571 C   0  0  0  0  0  0  0  0  0  0  0  0
    1.0281   -1.7282   -2.0957 H   0  0  0  0  0  0  0  0  0  0  0  0
    2.9621   -2.0836   -1.0418 C   0  0  0  0  0  0  0  0  0  0  0  0
    3.6697   -2.1824   -1.8713 H   0  0  0  0  0  0  0  0  0  0  0  0
    3.2956   -2.1113    0.3518 C   0  0  0  0  0  0  0  0  0  0  0  0
    4.3016   -2.2540    0.7639 H   0  0  0  0  0  0  0  0  0  0  0  0
    2.1036   -1.9131    1.0895 C   0  0  0  0  0  0  0  0  0  0  0  0
    1.9809   -1.9215    2.1771 H   0  0  0  0  0  0  0  0  0  0  0  0
    1.0394   -1.6774    0.1645 C   0  0  2  0  0  3  0  0  0  0  0  0
   -0.3655   -1.3682    0.5869 C   0  0  0  0  0  0  0  0  0  0  0  0
   -0.7468   -1.6293    1.7365 O   0  0  0  0  0  0  0  0  0  0  0  0
   -1.1280   -0.7831   -0.3818 N   0  0  0  0  0  0  0  0  0  0  0  0
   -0.6080   -0.3565   -1.1609 H   0  0  0  0  0  0  0  0  0  0  0  0
   -2.5103   -0.3258   -0.2044 C   0  0  1  0  0  0  0  0  0  0  0  0
   -2.6144    0.7669    0.8894 C   0  0  0  0  0  0  0  0  0  0  0  0
   -1.9445    1.6121    0.6190 H   0  0  0  0  0  0  0  0  0  0  0  0
   -2.2577    0.3457    1.8503 H   0  0  0  0  0  0  0  0  0  0  0  0
   -4.0698    1.2572    1.0071 C   0  0  1  0  0  0  0  0  0  0  0  0
   -4.1285    2.0359    1.7971 H   0  0  0  0  0  0  0  0  0  0  0  0
   -4.5208    1.8501   -0.3416 C   0  0  0  0  0  0  0  0  0  0  0  0
   -5.5635    2.2266   -0.2659 H   0  0  0  0  0  0  0  0  0  0  0  0
   -3.8819    2.7191   -0.6099 H   0  0  0  0  0  0  0  0  0  0  0  0
   -4.4303    0.7676   -1.4351 C   0  0  1  0  0  0  0  0  0  0  0  0
   -4.7453    1.1933   -2.4112 H   0  0  0  0  0  0  0  0  0  0  0  0
   -2.9771    0.2721   -1.5486 C   0  0  0  0  0  0  0  0  0  0  0  0
   -2.8907   -0.5020   -2.3417 H   0  0  0  0  0  0  0  0  0  0  0  0
   -2.3011    1.1091   -1.8319 H   0  0  0  0  0  0  0  0  0  0  0  0
   -3.4385   -1.5052    0.1687 C   0  0  0  0  0  0  0  0  0  0  0  0
   -3.3526   -2.2885   -0.6144 H   0  0  0  0  0  0  0  0  0  0  0  0
   -3.0914   -1.9476    1.1231 H   0  0  0  0  0  0  0  0  0  0  0  0
   -4.8924   -1.0105    0.2849 C   0  0  1  0  0  0  0  0  0  0  0  0
   -5.5455   -1.8675    0.5539 H   0  0  0  0  0  0  0  0  0  0  0  0
   -4.9794    0.0703    1.3803 C   0  0  0  0  0  0  0  0  0  0  0  0
   -6.0294    0.4162    1.4932 H   0  0  0  0  0  0  0  0  0  0  0  0
   -4.6694   -0.3538    2.3590 H   0  0  0  0  0  0  0  0  0  0  0  0
   -5.3452   -0.4157   -1.0624 C   0  0  0  0  0  0  0  0  0  0  0  0
   -5.3065   -1.1932   -1.8555 H   0  0  0  0  0  0  0  0  0  0  0  0
   -6.4002   -0.0733   -0.9963 H   0  0  0  0  0  0  0  0  0  0  0  0
  1  3  2  0  0  0  0
  1  9  1  0  0  0  0
  2  1  1  0  0  0  0
  3  5  1  0  0  0  0
  4  3  1  0  0  0  0
  5  6  1  0  0  0  0
  5  7  2  0  0  0  0
  7  8  1  0  0  0  0
  9 10  1  1  0  0  0
  9  7  1  0  0  0  0
 10 11  2  0  0  0  0
 12 10  1  0  0  0  0
 13 12  1  0  0  0  0
 14 12  1  6  0  0  0
 14 28  1  0  0  0  0
 14 15  1  0  0  0  0
 15 18  1  0  0  0  0
 15 17  1  0  0  0  0
 16 15  1  0  0  0  0
 18 33  1  0  0  0  0
 18 19  1  1  0  0  0
 20 21  1  0  0  0  0
 20 18  1  0  0  0  0
 22 20  1  0  0  0  0
 23 24  1  6  0  0  0
 23 36  1  0  0  0  0
 23 20  1  0  0  0  0
 25 23  1  0  0  0  0
 25 14  1  0  0  0  0
 26 25  1  0  0  0  0
 27 25  1  0  0  0  0
 28 31  1  0  0  0  0
 28 30  1  0  0  0  0
 29 28  1  0  0  0  0
 31 32  1  1  0  0  0
 31 33  1  0  0  0  0
 33 34  1  0  0  0  0
 33 35  1  0  0  0  0
 36 38  1  0  0  0  0
 36 31  1  0  0  0  0
 37 36  1  0  0  0  0
M  END
