1
 OpenBabel05122313113D

 26 26  0  0  0  0  0  0  0  0999 V2000
    1.4505   -1.2421   -0.2114 C   0  0  0  0  0  2  0  0  0  0  0  0
    1.8802   -0.4383   -1.1857 C   0  0  0  0  0  2  0  0  0  0  0  0
    3.0110   -0.2108   -2.1269 C   0  0  0  0  0  0  0  0  0  0  0  0
    4.0555    0.7855   -1.5676 C   0  0  0  0  0  0  0  0  0  0  0  0
    4.6939    0.3553   -0.2417 C   0  0  0  0  0  0  0  0  0  0  0  0
    5.4799   -0.9689   -0.3100 C   0  0  0  0  0  0  0  0  0  0  0  0
    5.4366   -1.8182    0.9720 C   0  0  0  0  0  0  0  0  0  0  0  0
    4.0166   -2.1877    1.4286 C   0  0  0  0  0  0  0  0  0  0  0  0
    3.1827   -3.0045    0.4191 C   0  0  0  0  0  0  0  0  0  0  0  0
    1.7009   -2.5892    0.3777 C   0  0  0  0  0  0  0  0  0  0  0  0
    3.4960   -1.1839   -2.3572 H   0  0  0  0  0  0  0  0  0  0  0  0
    2.6344    0.1960   -3.0872 H   0  0  0  0  0  0  0  0  0  0  0  0
    3.5601    1.7691   -1.4297 H   0  0  0  0  0  0  0  0  0  0  0  0
    4.8356    0.9255   -2.3473 H   0  0  0  0  0  0  0  0  0  0  0  0
    3.8819    0.2913    0.5130 H   0  0  0  0  0  0  0  0  0  0  0  0
    5.3555    1.1698    0.1210 H   0  0  0  0  0  0  0  0  0  0  0  0
    5.0930   -1.5863   -1.1492 H   0  0  0  0  0  0  0  0  0  0  0  0
    6.5385   -0.7652   -0.5775 H   0  0  0  0  0  0  0  0  0  0  0  0
    6.0354   -2.7421    0.8128 H   0  0  0  0  0  0  0  0  0  0  0  0
    5.9389   -1.2691    1.7984 H   0  0  0  0  0  0  0  0  0  0  0  0
    3.4742   -1.2487    1.6588 H   0  0  0  0  0  0  0  0  0  0  0  0
    4.0691   -2.7295    2.3965 H   0  0  0  0  0  0  0  0  0  0  0  0
    3.6007   -2.8958   -0.6034 H   0  0  0  0  0  0  0  0  0  0  0  0
    3.2501   -4.0878    0.6541 H   0  0  0  0  0  0  0  0  0  0  0  0
    1.2352   -2.6687    1.3818 H   0  0  0  0  0  0  0  0  0  0  0  0
    1.1254   -3.2999   -0.2605 H   0  0  0  0  0  0  0  0  0  0  0  0
  1 10  1  0  0  0  0
  2  1  1  0  0  0  0
  3  4  1  0  0  0  0
  3  2  1  0  0  0  0
  4 13  1  0  0  0  0
  4  5  1  0  0  0  0
  5 16  1  0  0  0  0
  5 15  1  0  0  0  0
  6  5  1  0  0  0  0
  6  7  1  0  0  0  0
  7  8  1  0  0  0  0
  7 20  1  0  0  0  0
  8 21  1  0  0  0  0
  8 22  1  0  0  0  0
  9 24  1  0  0  0  0
  9  8  1  0  0  0  0
 10  9  1  0  0  0  0
 10 25  1  0  0  0  0
 11  3  1  0  0  0  0
 12  3  1  0  0  0  0
 14  4  1  0  0  0  0
 17  6  1  0  0  0  0
 18  6  1  0  0  0  0
 19  7  1  0  0  0  0
 23  9  1  0  0  0  0
 26 10  1  0  0  0  0
M  END
