7
 OpenBabel05122313113D

 31 32  0  0  1  0  0  0  0  0999 V2000
    4.0664    0.7507   -0.8305 C   0  0  0  0  0  0  0  0  0  0  0  0
    3.1937    1.4198   -0.9698 H   0  0  0  0  0  0  0  0  0  0  0  0
    4.2838    0.2957   -1.8388 H   0  0  0  0  0  0  0  0  0  0  0  0
    3.7242   -0.2841    0.1416 N   0  0  0  0  0  0  0  0  0  0  0  0
   -0.6817   -1.1263   -1.4150 C   0  0  0  0  0  0  0  0  0  0  0  0
   -0.3725   -0.6989   -2.3770 H   0  0  0  0  0  0  0  0  0  0  0  0
   -0.0345   -0.8881   -0.1481 C   0  0  1  0  0  3  0  0  0  0  0  0
   -1.8049   -2.3676    0.1828 C   0  0  0  0  0  0  0  0  0  0  0  0
   -2.5301   -3.0346    0.6659 H   0  0  0  0  0  0  0  0  0  0  0  0
   -1.7675   -2.0315   -1.2071 C   0  0  0  0  0  0  0  0  0  0  0  0
   -2.4577   -2.3975   -1.9777 H   0  0  0  0  0  0  0  0  0  0  0  0
    2.4832   -0.9751   -0.1646 C   0  0  0  0  0  0  0  0  0  0  0  0
    2.4190   -1.8665    0.4949 H   0  0  0  0  0  0  0  0  0  0  0  0
    2.4646   -1.3711   -1.2179 H   0  0  0  0  0  0  0  0  0  0  0  0
   -0.7419   -1.6710    0.8349 C   0  0  0  0  0  0  0  0  0  0  0  0
   -0.4888   -1.7305    1.9008 H   0  0  0  0  0  0  0  0  0  0  0  0
    6.4779    0.6615   -0.0957 C   0  0  0  0  0  0  0  0  0  0  0  0
    7.3326    1.2455    0.3048 H   0  0  0  0  0  0  0  0  0  0  0  0
    6.8235    0.2093   -1.0528 H   0  0  0  0  0  0  0  0  0  0  0  0
    4.8392   -1.1992    0.3659 C   0  0  0  0  0  0  0  0  0  0  0  0
    5.1056   -1.7584   -0.5758 H   0  0  0  0  0  0  0  0  0  0  0  0
    4.5200   -1.9629    1.1060 H   0  0  0  0  0  0  0  0  0  0  0  0
    6.0774   -0.4563    0.8731 C   0  0  0  0  0  0  0  0  0  0  0  0
    6.9095   -1.1769    1.0164 H   0  0  0  0  0  0  0  0  0  0  0  0
    5.8438   -0.0204    1.8685 H   0  0  0  0  0  0  0  0  0  0  0  0
    1.2321   -0.1095    0.0733 C   0  0  0  0  0  0  0  0  0  0  0  0
    1.2673    0.2826    1.1096 H   0  0  0  0  0  0  0  0  0  0  0  0
    1.2366    0.7721   -0.5987 H   0  0  0  0  0  0  0  0  0  0  0  0
    5.2760    1.5699   -0.3734 C   0  0  0  0  0  0  0  0  0  0  0  0
    5.5202    2.3302   -1.1441 H   0  0  0  0  0  0  0  0  0  0  0  0
    5.0004    2.1185    0.5530 H   0  0  0  0  0  0  0  0  0  0  0  0
  1 29  1  0  0  0  0
  1  4  1  0  0  0  0
  2  1  1  0  0  0  0
  3  1  1  0  0  0  0
  4 20  1  0  0  0  0
  5 10  2  0  0  0  0
  5  7  1  0  0  0  0
  6  5  1  0  0  0  0
  7 26  1  6  0  0  0
  7 15  1  0  0  0  0
  8  9  1  0  0  0  0
  8 15  2  0  0  0  0
 10  8  1  0  0  0  0
 11 10  1  0  0  0  0
 12 26  1  0  0  0  0
 12  4  1  0  0  0  0
 12 13  1  0  0  0  0
 14 12  1  0  0  0  0
 15 16  1  0  0  0  0
 17 18  1  0  0  0  0
 17 23  1  0  0  0  0
 19 17  1  0  0  0  0
 20 23  1  0  0  0  0
 20 22  1  0  0  0  0
 21 20  1  0  0  0  0
 23 24  1  0  0  0  0
 23 25  1  0  0  0  0
 26 27  1  0  0  0  0
 28 26  1  0  0  0  0
 29 17  1  0  0  0  0
 29 31  1  0  0  0  0
 30 29  1  0  0  0  0
M  END
