3
 OpenBabel05122313113D

  9  9  0  0  0  0  0  0  0  0999 V2000
   -0.1531    2.4466   -0.7763 N   0  0  0  0  0  0  0  0  0  0  0  0
    0.0384    2.4697    1.6066 N   0  0  0  0  0  0  0  0  0  0  0  0
   -0.0412    1.8339    0.4217 C   0  0  0  0  0  3  0  0  0  0  0  0
   -0.1860    3.7873   -0.7808 C   0  0  0  0  0  0  0  0  0  0  0  0
   -0.2765    4.2782   -1.7665 H   0  0  0  0  0  0  0  0  0  0  0  0
   -0.1143    4.5414    0.3992 C   0  0  0  0  0  0  0  0  0  0  0  0
   -0.1465    5.6403    0.3896 H   0  0  0  0  0  0  0  0  0  0  0  0
   -0.0016    3.8111    1.5899 C   0  0  0  0  0  0  0  0  0  0  0  0
    0.0594    4.3225    2.5684 H   0  0  0  0  0  0  0  0  0  0  0  0
  1  3  1  0  0  0  0
  3  2  2  0  0  0  0
  4  1  2  0  0  0  0
  4  6  1  0  0  0  0
  5  4  1  0  0  0  0
  6  8  2  0  0  0  0
  7  6  1  0  0  0  0
  8  2  1  0  0  0  0
  8  9  1  0  0  0  0
M  END
