12
 OpenBabel05122313113D

 40 46  0  0  1  0  0  0  0  0999 V2000
   -2.8448    0.4968   -0.0648 C   0  0  2  0  0  0  0  0  0  0  0  0
   -1.1425    0.5867    0.0131 C   0  0  1  0  0  0  0  0  0  0  0  0
   -3.4196   -0.9600   -0.0497 C   0  0  0  0  0  0  0  0  0  0  0  0
   -4.2287   -1.2598   -1.3273 C   0  0  0  0  0  0  0  0  0  0  0  0
   -4.5198   -2.3283   -1.3361 H   0  0  0  0  0  0  0  0  0  0  0  0
   -3.6569   -1.0449   -2.2476 H   0  0  0  0  0  0  0  0  0  0  0  0
   -5.1499   -0.6489   -1.3522 H   0  0  0  0  0  0  0  0  0  0  0  0
   -4.3545   -1.1849    1.1556 C   0  0  0  0  0  0  0  0  0  0  0  0
   -4.6458   -2.2525    1.2005 H   0  0  0  0  0  0  0  0  0  0  0  0
   -5.2731   -0.5788    1.0497 H   0  0  0  0  0  0  0  0  0  0  0  0
   -3.8787   -0.9113    2.1141 H   0  0  0  0  0  0  0  0  0  0  0  0
   -2.2177   -1.9099    0.0407 C   0  0  2  0  0  3  0  0  0  0  0  0
   -1.5101   -2.4997   -1.0815 C   0  0  0  0  0  0  0  0  0  0  0  0
   -1.7460   -2.3545   -2.1401 H   0  0  0  0  0  0  0  0  0  0  0  0
   -0.4003   -3.1977   -0.5551 C   0  0  0  0  0  0  0  0  0  0  0  0
    0.3795   -3.7053   -1.1357 H   0  0  0  0  0  0  0  0  0  0  0  0
   -0.4658   -3.1420    0.8995 C   0  0  0  0  0  0  0  0  0  0  0  0
    0.2575   -3.5992    1.5854 H   0  0  0  0  0  0  0  0  0  0  0  0
   -1.6115   -2.4044    1.2668 C   0  0  0  0  0  0  0  0  0  0  0  0
   -1.9396   -2.1748    2.2850 H   0  0  0  0  0  0  0  0  0  0  0  0
   -1.9443    0.9461   -1.4576 B   0  0  2  0  0  0  0  0  0  0  0  0
   -1.8535    0.1791   -2.3793 H   0  0  0  0  0  0  0  0  0  0  0  0
   -3.4616    1.7736   -1.0181 B   0  0  1  0  0  0  0  0  0  0  0  0
   -4.4452    1.5644   -1.6827 H   0  0  0  0  0  0  0  0  0  0  0  0
   -3.5453    1.8237    0.7524 B   0  0  2  0  0  0  0  0  0  0  0  0
   -4.5876    1.6496    1.3321 H   0  0  0  0  0  0  0  0  0  0  0  0
   -2.0790    1.0262    1.3790 B   0  0  0  0  0  0  0  0  0  0  0  0
   -2.0794    0.3133    2.3472 H   0  0  0  0  0  0  0  0  0  0  0  0
   -0.5897    1.9250   -0.8844 B   0  0  1  0  0  0  0  0  0  0  0  0
    0.4611    1.8220   -1.4678 H   0  0  0  0  0  0  0  0  0  0  0  0
   -2.0449    2.7183   -1.5370 B   0  0  0  0  0  0  0  0  0  0  0  0
   -2.0279    3.2711   -2.6121 H   0  0  0  0  0  0  0  0  0  0  0  0
   -3.0332    3.2684   -0.1517 B   0  0  1  0  0  0  0  0  0  0  0  0
   -3.7470    4.2430   -0.2126 H   0  0  0  0  0  0  0  0  0  0  0  0
   -2.1815    2.7992    1.3492 B   0  0  0  0  0  0  0  0  0  0  0  0
   -2.2647    3.4113    2.3886 H   0  0  0  0  0  0  0  0  0  0  0  0
   -0.6733    1.9736    0.8827 B   0  0  2  0  0  0  0  0  0  0  0  0
    0.3174    1.9042    1.5666 H   0  0  0  0  0  0  0  0  0  0  0  0
   -1.2539    3.3660   -0.0700 B   0  0  1  0  0  0  0  0  0  0  0  0
   -0.6481    4.4134   -0.0705 H   0  0  0  0  0  0  0  0  0  0  0  0
  1  3  1  0  0  0  0
  1  2  1  0  0  0  0
  1 25  1  0  0  0  0
  2 37  1  0  0  0  0
  3 12  1  0  0  0  0
  3  8  1  0  0  0  0
  4  3  1  0  0  0  0
  5  4  1  0  0  0  0
  6  4  1  0  0  0  0
  7  4  1  0  0  0  0
  8  9  1  0  0  0  0
  8 11  1  0  0  0  0
 10  8  1  0  0  0  0
 12 19  1  0  0  0  0
 13 15  2  0  0  0  0
 13 12  1  0  0  0  0
 14 13  1  0  0  0  0
 15 17  1  0  0  0  0
 16 15  1  0  0  0  0
 17 19  2  0  0  0  0
 17 18  1  0  0  0  0
 19 20  1  0  0  0  0
 21 29  1  0  0  0  0
 21  2  1  0  0  0  0
 22 21  1  0  0  0  0
 23 33  1  0  0  0  0
 23  1  1  0  0  0  0
 23 25  1  0  0  0  0
 24 23  1  0  0  0  0
 25 26  1  0  0  0  0
 27 28  1  0  0  0  0
 29  2  1  0  0  0  0
 29 37  1  0  0  0  0
 30 29  1  0  0  0  0
 31 21  1  0  0  0  0
 31 39  1  0  0  0  0
 32 31  1  0  0  0  0
 33 39  1  0  0  0  0
 33 25  1  0  0  0  0
 34 33  1  0  0  0  0
 35 27  1  0  0  0  0
 35 36  1  0  0  0  0
 37 27  1  0  0  0  0
 37 38  1  0  0  0  0
 39 35  1  0  0  0  0
 40 39  1  0  0  0  0
M  END
