3
 OpenBabel05122313113D

 75 80  0  0  1  0  0  0  0  0999 V2000
   -4.1850   -1.0018   -0.6464 C   0  0  0  0  0  0  0  0  0  0  0  0
   -3.7513   -1.5127   -1.5194 H   0  0  0  0  0  0  0  0  0  0  0  0
   -0.9279   -0.6428   -0.1571 C   0  0  1  0  0  3  0  0  0  0  0  0
    5.1953   -1.4213    1.7144 C   0  0  0  0  0  0  0  0  0  0  0  0
    5.8466   -1.6748    2.5644 H   0  0  0  0  0  0  0  0  0  0  0  0
   -0.8277    0.7790   -0.4416 C   0  0  0  0  0  0  0  0  0  0  0  0
    0.3216   -1.2557   -0.5439 C   0  0  0  0  0  0  0  0  0  0  0  0
    0.4324    1.0072   -1.0737 C   0  0  0  0  0  0  0  0  0  0  0  0
    0.6291   -2.7182   -0.3878 C   0  0  0  0  0  0  0  0  0  0  0  0
   -0.1423   -3.3086   -0.9270 H   0  0  0  0  0  0  0  0  0  0  0  0
    1.5937   -2.9425   -0.8864 H   0  0  0  0  0  0  0  0  0  0  0  0
   -2.0029   -1.3902    0.5993 C   0  0  0  0  0  0  0  0  0  0  0  0
   -1.9874   -2.4429    0.2520 H   0  0  0  0  0  0  0  0  0  0  0  0
   -1.6736   -1.4261    1.6606 H   0  0  0  0  0  0  0  0  0  0  0  0
    0.6925   -3.1630    1.0643 C   0  0  0  0  0  0  0  0  0  0  0  0
    1.1490   -0.2525   -1.1206 C   0  0  0  0  0  0  0  0  0  0  0  0
    0.9347    2.3190   -1.6249 C   0  0  0  0  0  0  0  0  0  0  0  0
    1.3393    2.1540   -2.6439 H   0  0  0  0  0  0  0  0  0  0  0  0
    0.0741    3.0086   -1.7467 H   0  0  0  0  0  0  0  0  0  0  0  0
   -3.4204   -0.8607    0.5307 C   0  0  0  0  0  0  0  0  0  0  0  0
    1.4114   -2.4117    2.0161 C   0  0  0  0  0  0  0  0  0  0  0  0
    1.9397   -1.4992    1.7017 H   0  0  0  0  0  0  0  0  0  0  0  0
    1.9966    2.9706   -0.7561 C   0  0  0  0  0  0  0  0  0  0  0  0
   -1.8652    2.1384    1.4150 C   0  0  0  0  0  0  0  0  0  0  0  0
    2.5597   -0.4563   -1.6112 C   0  0  0  0  0  0  0  0  0  0  0  0
    2.8961    0.4564   -2.1402 H   0  0  0  0  0  0  0  0  0  0  0  0
    2.5895   -1.2724   -2.3600 H   0  0  0  0  0  0  0  0  0  0  0  0
   -1.8333    1.8259   -0.0728 C   0  0  0  0  0  0  0  0  0  0  0  0
   -2.8455    1.5111   -0.3989 H   0  0  0  0  0  0  0  0  0  0  0  0
   -1.6191    2.7571   -0.6380 H   0  0  0  0  0  0  0  0  0  0  0  0
    1.7167    3.3169    0.5820 C   0  0  0  0  0  0  0  0  0  0  0  0
    0.7121    3.1400    0.9948 H   0  0  0  0  0  0  0  0  0  0  0  0
    3.5074   -0.7774   -0.4652 C   0  0  0  0  0  0  0  0  0  0  0  0
   -4.0055   -0.2329    1.6473 C   0  0  0  0  0  0  0  0  0  0  0  0
   -3.4224   -0.1246    2.5746 H   0  0  0  0  0  0  0  0  0  0  0  0
   -2.8530    3.0136    1.9119 C   0  0  0  0  0  0  0  0  0  0  0  0
   -3.5807    3.4544    1.2125 H   0  0  0  0  0  0  0  0  0  0  0  0
   -0.9537    1.5697    2.3264 C   0  0  0  0  0  0  0  0  0  0  0  0
   -0.1739    0.8821    1.9650 H   0  0  0  0  0  0  0  0  0  0  0  0
   -6.0556    0.1530    0.3982 C   0  0  0  0  0  0  0  0  0  0  0  0
   -7.0793    0.5541    0.3431 H   0  0  0  0  0  0  0  0  0  0  0  0
   -5.4896   -0.4929   -0.7137 C   0  0  0  0  0  0  0  0  0  0  0  0
   -6.0681   -0.6030   -1.6433 H   0  0  0  0  0  0  0  0  0  0  0  0
    5.0313   -2.3277    0.6564 C   0  0  0  0  0  0  0  0  0  0  0  0
    5.5529   -3.2966    0.6725 H   0  0  0  0  0  0  0  0  0  0  0  0
    4.1968   -2.0042   -0.4253 C   0  0  0  0  0  0  0  0  0  0  0  0
    4.0747   -2.7206   -1.2537 H   0  0  0  0  0  0  0  0  0  0  0  0
    3.2907    3.2077   -1.2577 C   0  0  0  0  0  0  0  0  0  0  0  0
    3.5213    2.9477   -2.3031 H   0  0  0  0  0  0  0  0  0  0  0  0
    0.0326   -4.3327    1.4866 C   0  0  0  0  0  0  0  0  0  0  0  0
   -0.5390   -4.9246    0.7537 H   0  0  0  0  0  0  0  0  0  0  0  0
   -5.3127    0.2736    1.5823 C   0  0  0  0  0  0  0  0  0  0  0  0
   -5.7479    0.7702    2.4628 H   0  0  0  0  0  0  0  0  0  0  0  0
   -1.0331    1.8599    3.6991 C   0  0  0  0  0  0  0  0  0  0  0  0
   -0.3150    1.3977    4.3936 H   0  0  0  0  0  0  0  0  0  0  0  0
   -2.0235    2.7273    4.1812 C   0  0  0  0  0  0  0  0  0  0  0  0
   -2.0893    2.9525    5.2563 H   0  0  0  0  0  0  0  0  0  0  0  0
   -2.9327    3.3067    3.2791 C   0  0  0  0  0  0  0  0  0  0  0  0
   -3.7149    3.9885    3.6467 H   0  0  0  0  0  0  0  0  0  0  0  0
    3.6832    0.1290    0.6018 C   0  0  0  0  0  0  0  0  0  0  0  0
    3.1532    1.0916    0.5932 H   0  0  0  0  0  0  0  0  0  0  0  0
    0.8084   -3.9917    3.7667 C   0  0  0  0  0  0  0  0  0  0  0  0
    0.8516   -4.3133    4.8184 H   0  0  0  0  0  0  0  0  0  0  0  0
    2.7124    3.8680    1.4015 C   0  0  0  0  0  0  0  0  0  0  0  0
    2.4747    4.1266    2.4448 H   0  0  0  0  0  0  0  0  0  0  0  0
    4.2895    3.7584   -0.4393 C   0  0  0  0  0  0  0  0  0  0  0  0
    5.2980    3.9268   -0.8464 H   0  0  0  0  0  0  0  0  0  0  0  0
    0.0898   -4.7465    2.8267 C   0  0  0  0  0  0  0  0  0  0  0  0
   -0.4356   -5.6622    3.1385 H   0  0  0  0  0  0  0  0  0  0  0  0
    4.5229   -0.1887    1.6791 C   0  0  0  0  0  0  0  0  0  0  0  0
    4.6478    0.5357    2.4985 H   0  0  0  0  0  0  0  0  0  0  0  0
    4.0050    4.0847    0.8954 C   0  0  0  0  0  0  0  0  0  0  0  0
    4.7887    4.5104    1.5401 H   0  0  0  0  0  0  0  0  0  0  0  0
    1.4704   -2.8235    3.3554 C   0  0  0  0  0  0  0  0  0  0  0  0
    2.0431   -2.2261    4.0814 H   0  0  0  0  0  0  0  0  0  0  0  0
  1 20  1  0  0  0  0
  2  1  1  0  0  0  0
  3 12  1  1  0  0  0
  4  5  1  0  0  0  0
  6  3  1  0  0  0  0
  6 28  1  0  0  0  0
  7  9  1  0  0  0  0
  7  3  1  0  0  0  0
  8  6  2  0  0  0  0
  9 15  1  0  0  0  0
 10  9  1  0  0  0  0
 11  9  1  0  0  0  0
 12 14  1  0  0  0  0
 13 12  1  0  0  0  0
 15 50  2  0  0  0  0
 15 21  1  0  0  0  0
 16  8  1  0  0  0  0
 16  7  2  0  0  0  0
 17  8  1  0  0  0  0
 17 23  1  0  0  0  0
 18 17  1  0  0  0  0
 19 17  1  0  0  0  0
 20 12  1  0  0  0  0
 20 34  2  0  0  0  0
 21 74  2  0  0  0  0
 22 21  1  0  0  0  0
 23 31  1  0  0  0  0
 24 36  2  0  0  0  0
 24 38  1  0  0  0  0
 25 16  1  0  0  0  0
 25 33  1  0  0  0  0
 26 25  1  0  0  0  0
 27 25  1  0  0  0  0
 28 24  1  0  0  0  0
 29 28  1  0  0  0  0
 30 28  1  0  0  0  0
 31 32  1  0  0  0  0
 31 64  2  0  0  0  0
 33 46  2  0  0  0  0
 33 60  1  0  0  0  0
 34 35  1  0  0  0  0
 36 58  1  0  0  0  0
 37 36  1  0  0  0  0
 38 54  2  0  0  0  0
 39 38  1  0  0  0  0
 40 52  2  0  0  0  0
 41 40  1  0  0  0  0
 42  1  2  0  0  0  0
 42 40  1  0  0  0  0
 43 42  1  0  0  0  0
 44 45  1  0  0  0  0
 44  4  2  0  0  0  0
 46 44  1  0  0  0  0
 47 46  1  0  0  0  0
 48 23  2  0  0  0  0
 48 66  1  0  0  0  0
 49 48  1  0  0  0  0
 50 68  1  0  0  0  0
 51 50  1  0  0  0  0
 52 34  1  0  0  0  0
 52 53  1  0  0  0  0
 54 56  1  0  0  0  0
 54 55  1  0  0  0  0
 56 57  1  0  0  0  0
 58 59  1  0  0  0  0
 58 56  2  0  0  0  0
 60 70  2  0  0  0  0
 61 60  1  0  0  0  0
 62 63  1  0  0  0  0
 64 65  1  0  0  0  0
 66 72  2  0  0  0  0
 67 66  1  0  0  0  0
 68 69  1  0  0  0  0
 68 62  2  0  0  0  0
 70  4  1  0  0  0  0
 70 71  1  0  0  0  0
 72 64  1  0  0  0  0
 72 73  1  0  0  0  0
 74 62  1  0  0  0  0
 74 75  1  0  0  0  0
M  END
