2
 OpenBabel05122313113D

 28 29  0  0  0  0  0  0  0  0999 V2000
    2.5367    3.3812    0.0889 N   0  0  0  0  0  0  0  0  0  0  0  0
    1.4588   -0.1601    0.1583 C   0  0  0  0  0  3  0  0  0  0  0  0
    2.3151    0.9173    0.4389 C   0  0  0  0  0  0  0  0  0  0  0  0
    3.7314    0.7493    0.5351 C   0  0  0  0  0  0  0  0  0  0  0  0
    4.3209   -0.4889    0.3518 C   0  0  0  0  0  0  0  0  0  0  0  0
    3.5136   -1.6283    0.0668 C   0  0  0  0  0  0  0  0  0  0  0  0
    2.0797   -1.4527   -0.0250 C   0  0  0  0  0  0  0  0  0  0  0  0
    1.2957   -2.6147   -0.3145 C   0  0  0  0  0  0  0  0  0  0  0  0
    1.8685   -3.8661   -0.5013 C   0  0  0  0  0  0  0  0  0  0  0  0
    3.2773   -4.0229   -0.4082 C   0  0  0  0  0  0  0  0  0  0  0  0
    4.0775   -2.9238   -0.1301 C   0  0  0  0  0  0  0  0  0  0  0  0
    1.7600    2.3080    0.6993 C   0  0  0  0  0  0  0  0  0  0  0  0
    2.1773    4.6895    0.5903 C   0  0  0  0  0  0  0  0  0  0  0  0
    2.5455    3.3312   -1.3579 C   0  0  0  0  0  0  0  0  0  0  0  0
    4.3467    1.6398    0.7423 H   0  0  0  0  0  0  0  0  0  0  0  0
    5.4137   -0.6106    0.4235 H   0  0  0  0  0  0  0  0  0  0  0  0
    0.2013   -2.4816   -0.3835 H   0  0  0  0  0  0  0  0  0  0  0  0
    1.2332   -4.7382   -0.7219 H   0  0  0  0  0  0  0  0  0  0  0  0
    3.7309   -5.0151   -0.5569 H   0  0  0  0  0  0  0  0  0  0  0  0
    5.1715   -3.0374   -0.0562 H   0  0  0  0  0  0  0  0  0  0  0  0
    0.6762    2.3209    0.3878 H   0  0  0  0  0  0  0  0  0  0  0  0
    1.7625    2.5023    1.7970 H   0  0  0  0  0  0  0  0  0  0  0  0
    2.8575    5.4606    0.1727 H   0  0  0  0  0  0  0  0  0  0  0  0
    2.2692    4.7141    1.6958 H   0  0  0  0  0  0  0  0  0  0  0  0
    1.1250    4.9950    0.3319 H   0  0  0  0  0  0  0  0  0  0  0  0
    3.2769    4.0605   -1.7635 H   0  0  0  0  0  0  0  0  0  0  0  0
    1.5457    3.5735   -1.8151 H   0  0  0  0  0  0  0  0  0  0  0  0
    2.8402    2.3188   -1.6989 H   0  0  0  0  0  0  0  0  0  0  0  0
  1 13  1  0  0  0  0
  1 12  1  0  0  0  0
  2  3  1  0  0  0  0
  3  4  2  0  0  0  0
  3 12  1  0  0  0  0
  4 15  1  0  0  0  0
  5 16  1  0  0  0  0
  5  4  1  0  0  0  0
  6  5  2  0  0  0  0
  7  6  1  0  0  0  0
  7  2  2  0  0  0  0
  8  7  1  0  0  0  0
  9 10  1  0  0  0  0
  9  8  2  0  0  0  0
 10 11  2  0  0  0  0
 11 20  1  0  0  0  0
 11  6  1  0  0  0  0
 12 22  1  0  0  0  0
 13 24  1  0  0  0  0
 14  1  1  0  0  0  0
 17  8  1  0  0  0  0
 18  9  1  0  0  0  0
 19 10  1  0  0  0  0
 21 12  1  0  0  0  0
 23 13  1  0  0  0  0
 25 13  1  0  0  0  0
 26 14  1  0  0  0  0
 27 14  1  0  0  0  0
 28 14  1  0  0  0  0
M  END
