2
 OpenBabel05122313113D

  6  5  0  0  0  0  0  0  0  0999 V2000
   -6.8190   -0.9765    0.3668 Cl  0  0  0  0  0  0  0  0  0  0  0  0
   -3.2616    0.3691    0.0202 C   0  0  0  0  0  1  0  0  0  0  0  0
   -4.4950    0.4722    0.0467 C   0  0  0  0  0  2  0  0  0  0  0  0
   -5.9328    0.6103    0.0766 C   0  0  0  0  0  0  0  0  0  0  0  0
   -6.3339    0.9972   -0.8820 H   0  0  0  0  0  0  0  0  0  0  0  0
   -6.2695    1.2853    0.8892 H   0  0  0  0  0  0  0  0  0  0  0  0
  2  3  1  0  0  0  0
  3  4  1  0  0  0  0
  4  1  1  0  0  0  0
  4  6  1  0  0  0  0
  5  4  1  0  0  0  0
M  END
