1
 OpenBabel05122313113D

 19 18  0  0  0  0  0  0  0  0999 V2000
    1.7773    0.2035    0.3108 C   0  0  0  0  0  3  0  0  0  0  0  0
    2.4040    0.8398    0.9816 H   0  0  0  0  0  0  0  0  0  0  0  0
    1.6372   -0.7479    0.8739 H   0  0  0  0  0  0  0  0  0  0  0  0
    2.4952   -0.1032   -1.0057 C   0  0  0  0  0  0  0  0  0  0  0  0
    1.8174   -0.6933   -1.6587 H   0  0  0  0  0  0  0  0  0  0  0  0
    2.6987    0.8353   -1.5698 H   0  0  0  0  0  0  0  0  0  0  0  0
    3.8175   -0.8803   -0.8651 C   0  0  0  0  0  0  0  0  0  0  0  0
    3.6156   -1.8385   -0.3337 H   0  0  0  0  0  0  0  0  0  0  0  0
    4.1820   -1.1672   -1.8775 H   0  0  0  0  0  0  0  0  0  0  0  0
    4.9289   -0.1231   -0.1336 C   0  0  0  0  0  0  0  0  0  0  0  0
    5.1169    0.8443   -0.6555 H   0  0  0  0  0  0  0  0  0  0  0  0
    4.5836    0.1503    0.8885 H   0  0  0  0  0  0  0  0  0  0  0  0
    6.2440   -0.9003   -0.0248 C   0  0  0  0  0  0  0  0  0  0  0  0
    6.0510   -1.8670    0.4918 H   0  0  0  0  0  0  0  0  0  0  0  0
    6.5919   -1.1743   -1.0460 H   0  0  0  0  0  0  0  0  0  0  0  0
    7.3479   -0.1368    0.7080 C   0  0  0  0  0  0  0  0  0  0  0  0
    8.2859   -0.7247    0.7725 H   0  0  0  0  0  0  0  0  0  0  0  0
    7.0414    0.1179    1.7444 H   0  0  0  0  0  0  0  0  0  0  0  0
    7.5873    0.8179    0.1937 H   0  0  0  0  0  0  0  0  0  0  0  0
  1  3  1  0  0  0  0
  1  2  1  0  0  0  0
  4  7  1  0  0  0  0
  4  1  1  0  0  0  0
  5  4  1  0  0  0  0
  6  4  1  0  0  0  0
  7  8  1  0  0  0  0
  7 10  1  0  0  0  0
  9  7  1  0  0  0  0
 10 13  1  0  0  0  0
 10 12  1  0  0  0  0
 11 10  1  0  0  0  0
 13 14  1  0  0  0  0
 13 16  1  0  0  0  0
 15 13  1  0  0  0  0
 16 17  1  0  0  0  0
 16 18  1  0  0  0  0
 19 16  1  0  0  0  0
M  END
