1
 OpenBabel05122313113D

 50 53  0  0  0  0  0  0  0  0999 V2000
    2.9038    2.1224    0.7097 C   0  0  0  0  0  3  0  0  0  0  0  0
    2.3808    1.8780    1.6566 H   0  0  0  0  0  0  0  0  0  0  0  0
    3.7494    2.7973    0.9276 H   0  0  0  0  0  0  0  0  0  0  0  0
    1.9678    2.6385   -0.3121 C   0  0  0  0  0  0  0  0  0  0  0  0
    0.8472    1.8517   -0.7536 C   0  0  0  0  0  0  0  0  0  0  0  0
    0.5997    0.4618   -0.2168 C   0  0  0  0  0  0  0  0  0  0  0  0
    1.0237    0.3442    0.8096 H   0  0  0  0  0  0  0  0  0  0  0  0
    0.9944   -0.3514   -0.9073 H   0  0  0  0  0  0  0  0  0  0  0  0
    2.2175    3.8806   -0.9566 C   0  0  0  0  0  0  0  0  0  0  0  0
    3.0849    4.4744   -0.6286 H   0  0  0  0  0  0  0  0  0  0  0  0
    1.3814    4.3624   -1.9619 C   0  0  0  0  0  0  0  0  0  0  0  0
    1.5890    5.3361   -2.4314 H   0  0  0  0  0  0  0  0  0  0  0  0
    0.2530    3.6127   -2.3537 C   0  0  0  0  0  0  0  0  0  0  0  0
   -0.4311    3.9999   -3.1232 H   0  0  0  0  0  0  0  0  0  0  0  0
   -0.0051    2.3801   -1.7526 C   0  0  0  0  0  0  0  0  0  0  0  0
   -0.8955    1.8130   -2.0500 H   0  0  0  0  0  0  0  0  0  0  0  0
   -0.9934   -0.0390    0.0712 B   0  0  0  0  0  0  0  0  0  0  0  0
   -1.8443   -0.4773   -1.2683 C   0  0  0  0  0  0  0  0  0  0  0  0
   -3.1939   -0.8428   -1.1012 C   0  0  0  0  0  0  0  0  0  0  0  0
   -3.7688   -0.7134    0.1097 F   0  0  0  0  0  0  0  0  0  0  0  0
   -4.0042   -1.3387   -2.1326 C   0  0  0  0  0  0  0  0  0  0  0  0
   -5.2858   -1.6538   -1.9129 F   0  0  0  0  0  0  0  0  0  0  0  0
   -3.4503   -1.5182   -3.4117 C   0  0  0  0  0  0  0  0  0  0  0  0
   -4.1994   -1.9956   -4.4105 F   0  0  0  0  0  0  0  0  0  0  0  0
   -2.1053   -1.1889   -3.6287 C   0  0  0  0  0  0  0  0  0  0  0  0
   -1.5579   -1.3584   -4.8403 F   0  0  0  0  0  0  0  0  0  0  0  0
   -1.3419   -0.6895   -2.5592 C   0  0  0  0  0  0  0  0  0  0  0  0
   -0.0435   -0.4074   -2.8624 F   0  0  0  0  0  0  0  0  0  0  0  0
   -0.9246   -1.4428    0.9451 C   0  0  0  0  0  0  0  0  0  0  0  0
   -1.5867   -1.6924    2.1615 C   0  0  0  0  0  0  0  0  0  0  0  0
   -2.3667   -0.7621    2.7335 F   0  0  0  0  0  0  0  0  0  0  0  0
   -1.4871   -2.9113    2.8605 C   0  0  0  0  0  0  0  0  0  0  0  0
   -2.1300   -3.0847    4.0199 F   0  0  0  0  0  0  0  0  0  0  0  0
   -0.7095   -3.9557    2.3365 C   0  0  0  0  0  0  0  0  0  0  0  0
   -0.5960   -5.1134    2.9925 F   0  0  0  0  0  0  0  0  0  0  0  0
   -0.0619   -3.7675    1.1063 C   0  0  0  0  0  0  0  0  0  0  0  0
    0.7079   -4.7398    0.5876 F   0  0  0  0  0  0  0  0  0  0  0  0
   -0.1996   -2.5383    0.4477 C   0  0  0  0  0  0  0  0  0  0  0  0
    0.4585   -2.4420   -0.7449 F   0  0  0  0  0  0  0  0  0  0  0  0
   -1.5913    1.2527    0.8940 C   0  0  0  0  0  0  0  0  0  0  0  0
   -0.9982    1.6386    2.1080 C   0  0  0  0  0  0  0  0  0  0  0  0
   -0.0117    0.8693    2.6562 F   0  0  0  0  0  0  0  0  0  0  0  0
   -1.3274    2.7957    2.8243 C   0  0  0  0  0  0  0  0  0  0  0  0
   -0.7114    3.0954    3.9758 F   0  0  0  0  0  0  0  0  0  0  0  0
   -2.3095    3.6543    2.3049 C   0  0  0  0  0  0  0  0  0  0  0  0
   -2.6477    4.7688    2.9610 F   0  0  0  0  0  0  0  0  0  0  0  0
   -2.9244    3.3312    1.0872 C   0  0  0  0  0  0  0  0  0  0  0  0
   -3.8478    4.1511    0.5709 F   0  0  0  0  0  0  0  0  0  0  0  0
   -2.5478    2.1581    0.4069 C   0  0  0  0  0  0  0  0  0  0  0  0
   -3.1524    1.9652   -0.7841 F   0  0  0  0  0  0  0  0  0  0  0  0
  1  3  1  0  0  0  0
  1  2  1  0  0  0  0
  4  1  1  0  0  0  0
  5  4  1  0  0  0  0
  5  6  1  0  0  0  0
  6 17  1  0  0  0  0
  6  7  1  0  0  0  0
  8  6  1  0  0  0  0
  9 10  1  0  0  0  0
  9  4  2  0  0  0  0
 11  9  1  0  0  0  0
 12 11  1  0  0  0  0
 13 11  2  0  0  0  0
 13 15  1  0  0  0  0
 14 13  1  0  0  0  0
 15  5  2  0  0  0  0
 16 15  1  0  0  0  0
 17 40  1  0  0  0  0
 17 29  1  0  0  0  0
 18 19  1  0  0  0  0
 18 17  1  0  0  0  0
 19 20  1  0  0  0  0
 21 22  1  0  0  0  0
 21 19  2  0  0  0  0
 23 21  1  0  0  0  0
 24 23  1  0  0  0  0
 25 23  2  0  0  0  0
 25 27  1  0  0  0  0
 26 25  1  0  0  0  0
 27 18  2  0  0  0  0
 28 27  1  0  0  0  0
 29 30  1  0  0  0  0
 30 31  1  0  0  0  0
 30 32  2  0  0  0  0
 32 33  1  0  0  0  0
 34 32  1  0  0  0  0
 34 35  1  0  0  0  0
 36 34  2  0  0  0  0
 37 36  1  0  0  0  0
 38 29  2  0  0  0  0
 38 36  1  0  0  0  0
 39 38  1  0  0  0  0
 40 41  1  0  0  0  0
 41 42  1  0  0  0  0
 41 43  2  0  0  0  0
 43 44  1  0  0  0  0
 45 43  1  0  0  0  0
 45 46  1  0  0  0  0
 47 45  2  0  0  0  0
 48 47  1  0  0  0  0
 49 40  2  0  0  0  0
 49 47  1  0  0  0  0
 50 49  1  0  0  0  0
M  END
