4
 OpenBabel05122313113D

 17 17  0  0  0  0  0  0  0  0999 V2000
   -2.8884    0.4464    0.2869 C   0  0  0  0  0  0  0  0  0  0  0  0
   -2.1105    1.6327    0.4955 C   0  0  0  0  0  0  0  0  0  0  0  0
   -2.0284    2.4647   -0.2115 H   0  0  0  0  0  0  0  0  0  0  0  0
   -1.4705    1.5449    1.7637 C   0  0  0  0  0  3  0  0  0  0  0  0
   -0.8056    2.2925    2.2124 H   0  0  0  0  0  0  0  0  0  0  0  0
   -1.8517    0.3070    2.3590 C   0  0  0  0  0  0  0  0  0  0  0  0
   -1.5191   -0.0698    3.3308 H   0  0  0  0  0  0  0  0  0  0  0  0
   -2.6988   -0.3732    1.4494 C   0  0  0  0  0  0  0  0  0  0  0  0
   -3.1476   -1.3576    1.6162 H   0  0  0  0  0  0  0  0  0  0  0  0
   -3.7500    0.1637   -0.8778 C   0  0  0  0  0  0  0  0  0  0  0  0
   -4.3313   -1.0461   -1.0531 C   0  0  0  0  0  0  0  0  0  0  0  0
   -4.9872   -1.2326   -1.9170 H   0  0  0  0  0  0  0  0  0  0  0  0
   -4.1432   -1.8899   -0.3742 H   0  0  0  0  0  0  0  0  0  0  0  0
   -3.9577    1.2949   -1.8513 C   0  0  0  0  0  0  0  0  0  0  0  0
   -4.6626    1.0087   -2.6544 H   0  0  0  0  0  0  0  0  0  0  0  0
   -2.9912    1.5730   -2.3217 H   0  0  0  0  0  0  0  0  0  0  0  0
   -4.3530    2.2003   -1.3435 H   0  0  0  0  0  0  0  0  0  0  0  0
  1  2  2  0  0  0  0
  1  8  1  0  0  0  0
  2  4  1  0  0  0  0
  3  2  1  0  0  0  0
  4  5  1  0  0  0  0
  4  6  1  0  0  0  0
  6  7  1  0  0  0  0
  8  9  1  0  0  0  0
  8  6  2  0  0  0  0
 10  1  1  0  0  0  0
 11 10  2  0  0  0  0
 11 13  1  0  0  0  0
 12 11  1  0  0  0  0
 14 17  1  0  0  0  0
 14 10  1  0  0  0  0
 15 14  1  0  0  0  0
 16 14  1  0  0  0  0
M  END
