14
 OpenBabel05122313113D

 28 29  0  0  1  0  0  0  0  0999 V2000
   -1.7297   -0.8538    1.9827 O   0  0  0  0  0  0  0  0  0  0  0  0
   -1.5922    0.1190    1.9937 H   0  0  0  0  0  0  0  0  0  0  0  0
   -2.0181    1.0598    0.2534 O   0  0  0  0  0  0  0  0  0  0  0  0
   -3.5662   -0.4030   -0.7121 O   0  0  0  0  0  0  0  0  0  0  0  0
   -1.6106   -1.2190    0.6380 C   0  0  1  0  0  0  0  0  0  0  0  0
   -2.1576   -2.1801    0.4994 H   0  0  0  0  0  0  0  0  0  0  0  0
   -2.2166   -0.1869   -0.3873 C   0  0  0  0  0  0  0  0  0  0  0  0
   -1.3875   -0.3689   -1.6853 C   0  0  0  0  0  0  0  0  0  0  0  0
   -1.9271   -1.0903   -2.3331 H   0  0  0  0  0  0  0  0  0  0  0  0
   -1.2712    0.5716   -2.2575 H   0  0  0  0  0  0  0  0  0  0  0  0
   -0.0802   -0.9449   -1.2097 C   0  0  0  0  0  0  0  0  0  0  0  0
    1.1728   -1.0398   -1.8911 C   0  0  0  0  0  3  0  0  0  0  0  0
    1.2916   -0.6403   -2.9080 H   0  0  0  0  0  0  0  0  0  0  0  0
    2.2800   -1.6170   -1.2171 C   0  0  0  0  0  3  0  0  0  0  0  0
    3.2578   -1.6612   -1.7160 H   0  0  0  0  0  0  0  0  0  0  0  0
    2.1569   -2.0696    0.1384 C   0  0  0  0  0  0  0  0  0  0  0  0
    3.0424   -2.4536    0.6635 H   0  0  0  0  0  0  0  0  0  0  0  0
    0.9210   -1.9544    0.8216 C   0  0  0  0  0  0  0  0  0  0  0  0
    0.8212   -2.2398    1.8779 H   0  0  0  0  0  0  0  0  0  0  0  0
   -0.1967   -1.4090    0.1251 C   0  0  0  0  0  0  0  0  0  0  0  0
   -2.4013    2.2254   -0.4689 C   0  0  0  0  0  0  0  0  0  0  0  0
   -2.5247    3.0343    0.2760 H   0  0  0  0  0  0  0  0  0  0  0  0
   -3.3624    2.0672   -1.0019 H   0  0  0  0  0  0  0  0  0  0  0  0
   -1.6177    2.5353   -1.1928 H   0  0  0  0  0  0  0  0  0  0  0  0
   -4.4695   -0.3691    0.3888 C   0  0  0  0  0  0  0  0  0  0  0  0
   -5.4758   -0.5676   -0.0252 H   0  0  0  0  0  0  0  0  0  0  0  0
   -4.4702    0.6214    0.8934 H   0  0  0  0  0  0  0  0  0  0  0  0
   -4.2252   -1.1384    1.1531 H   0  0  0  0  0  0  0  0  0  0  0  0
  1  2  1  0  0  0  0
  4  7  1  0  0  0  0
  4 25  1  0  0  0  0
  5  6  1  6  0  0  0
  5  1  1  0  0  0  0
  7  3  1  0  0  0  0
  7  5  1  0  0  0  0
  8 11  1  0  0  0  0
  8  7  1  0  0  0  0
  9  8  1  0  0  0  0
 10  8  1  0  0  0  0
 11 20  2  0  0  0  0
 12 14  1  0  0  0  0
 12 11  1  0  0  0  0
 13 12  1  0  0  0  0
 14 16  1  0  0  0  0
 15 14  1  0  0  0  0
 16 17  1  0  0  0  0
 16 18  2  0  0  0  0
 18 19  1  0  0  0  0
 20  5  1  0  0  0  0
 20 18  1  0  0  0  0
 21  3  1  0  0  0  0
 21 22  1  0  0  0  0
 23 21  1  0  0  0  0
 24 21  1  0  0  0  0
 25 27  1  0  0  0  0
 25 28  1  0  0  0  0
 26 25  1  0  0  0  0
M  END
