20
 OpenBabel05122313113D

 43 45  0  0  0  0  0  0  0  0999 V2000
   -0.5238   -4.7521   -0.4423 C   0  0  0  0  0  0  0  0  0  0  0  0
   -1.0753   -5.5752   -0.9050 H   0  0  0  0  0  0  0  0  0  0  0  0
    1.8643   -2.9520    1.6113 C   0  0  0  0  0  0  0  0  0  0  0  0
    2.1708   -3.8151    2.2369 H   0  0  0  0  0  0  0  0  0  0  0  0
    1.3869   -2.2000    2.2791 H   0  0  0  0  0  0  0  0  0  0  0  0
    0.8220   -3.4215    0.7057 N   0  0  0  0  0  0  0  0  0  0  0  0
    0.5232   -4.7521    0.4423 C   0  0  0  0  0  0  0  0  0  0  0  0
    1.0746   -5.5754    0.9050 H   0  0  0  0  0  0  0  0  0  0  0  0
   -0.8224   -3.4214   -0.7056 N   0  0  0  0  0  0  0  0  0  0  0  0
    5.3356   -1.0815   -0.2573 C   0  0  0  0  0  0  0  0  0  0  0  0
    5.1750   -1.1278    1.1495 C   0  0  0  0  0  0  0  0  0  0  0  0
    5.9296   -0.6656    1.8033 H   0  0  0  0  0  0  0  0  0  0  0  0
    4.0602   -1.7385    1.7243 C   0  0  0  0  0  0  0  0  0  0  0  0
    3.9467   -1.7402    2.8201 H   0  0  0  0  0  0  0  0  0  0  0  0
    3.0653   -2.3392    0.9223 C   0  0  0  0  0  0  0  0  0  0  0  0
    3.2201   -2.3097   -0.4733 C   0  0  0  0  0  0  0  0  0  0  0  0
    2.4476   -2.7323   -1.1302 H   0  0  0  0  0  0  0  0  0  0  0  0
    4.3363   -1.6880   -1.0490 C   0  0  0  0  0  0  0  0  0  0  0  0
    4.4206   -1.6491   -2.1460 H   0  0  0  0  0  0  0  0  0  0  0  0
   -0.0002   -2.5901    0.0001 C   0  0  0  0  0  2  0  0  0  0  0  0
   -1.8647   -2.9517   -1.6111 C   0  0  0  0  0  0  0  0  0  0  0  0
   -2.1713   -3.8147   -2.2369 H   0  0  0  0  0  0  0  0  0  0  0  0
   -1.3872   -2.1997   -2.2789 H   0  0  0  0  0  0  0  0  0  0  0  0
   -3.0657   -2.3389   -0.9222 C   0  0  0  0  0  0  0  0  0  0  0  0
   -4.0608   -1.7385   -1.7243 C   0  0  0  0  0  0  0  0  0  0  0  0
   -3.9475   -1.7406   -2.8201 H   0  0  0  0  0  0  0  0  0  0  0  0
   -5.1755   -1.1277   -1.1496 C   0  0  0  0  0  0  0  0  0  0  0  0
   -5.9302   -0.6658   -1.8034 H   0  0  0  0  0  0  0  0  0  0  0  0
   -5.3359   -1.0809    0.2573 C   0  0  0  0  0  0  0  0  0  0  0  0
   -4.3365   -1.6872    1.0490 C   0  0  0  0  0  0  0  0  0  0  0  0
   -4.4206   -1.6478    2.1460 H   0  0  0  0  0  0  0  0  0  0  0  0
   -3.2203   -2.3089    0.4734 C   0  0  0  0  0  0  0  0  0  0  0  0
   -2.4477   -2.7313    1.1304 H   0  0  0  0  0  0  0  0  0  0  0  0
   -6.4645   -0.4050    0.9149 C   0  0  0  0  0  0  0  0  0  0  0  0
   -6.4741   -0.4957    2.0155 H   0  0  0  0  0  0  0  0  0  0  0  0
   -7.4482    0.3102    0.3263 C   0  0  0  0  0  0  0  0  0  0  0  0
   -8.2418    0.7795    0.9264 H   0  0  0  0  0  0  0  0  0  0  0  0
   -7.5027    0.4540   -0.7646 H   0  0  0  0  0  0  0  0  0  0  0  0
    6.4643   -0.4057   -0.9150 C   0  0  0  0  0  0  0  0  0  0  0  0
    7.4478    0.3097   -0.3266 C   0  0  0  0  0  0  0  0  0  0  0  0
    6.4741   -0.4969   -2.0156 H   0  0  0  0  0  0  0  0  0  0  0  0
    7.5021    0.4539    0.7644 H   0  0  0  0  0  0  0  0  0  0  0  0
    8.2414    0.7788   -0.9266 H   0  0  0  0  0  0  0  0  0  0  0  0
  1  7  2  0  0  0  0
  2  1  1  0  0  0  0
  3  4  1  0  0  0  0
  3  5  1  0  0  0  0
  6  3  1  0  0  0  0
  7  6  1  0  0  0  0
  7  8  1  0  0  0  0
  9  1  1  0  0  0  0
  9 20  1  0  0  0  0
 10 11  1  0  0  0  0
 11 13  2  0  0  0  0
 11 12  1  0  0  0  0
 13 14  1  0  0  0  0
 15  3  1  0  0  0  0
 15 13  1  0  0  0  0
 16 15  2  0  0  0  0
 17 16  1  0  0  0  0
 18 16  1  0  0  0  0
 18 10  2  0  0  0  0
 19 18  1  0  0  0  0
 20  6  1  0  0  0  0
 21 24  1  0  0  0  0
 21  9  1  0  0  0  0
 22 21  1  0  0  0  0
 23 21  1  0  0  0  0
 24 32  1  0  0  0  0
 25 27  1  0  0  0  0
 25 24  2  0  0  0  0
 26 25  1  0  0  0  0
 27 29  2  0  0  0  0
 28 27  1  0  0  0  0
 29 34  1  0  0  0  0
 29 30  1  0  0  0  0
 30 31  1  0  0  0  0
 32 30  2  0  0  0  0
 32 33  1  0  0  0  0
 34 35  1  0  0  0  0
 36 34  2  0  0  0  0
 36 37  1  0  0  0  0
 38 36  1  0  0  0  0
 39 40  2  0  0  0  0
 39 10  1  0  0  0  0
 40 42  1  0  0  0  0
 41 39  1  0  0  0  0
 43 40  1  0  0  0  0
M  END
