3
 OpenBabel05122313113D

 18 19  0  0  0  0  0  0  0  0999 V2000
   -5.2735   -1.8156   -0.1069 O   0  0  0  0  0  0  0  0  0  0  0  0
   -3.2373   -2.7299   -0.1993 O   0  0  0  0  0  0  0  0  0  0  0  0
   -0.6902   -0.0967   -0.0358 C   0  0  0  0  0  3  0  0  0  0  0  0
   -1.9205   -0.1973   -0.0231 C   0  0  0  0  0  0  0  0  0  0  0  0
   -6.1166   -0.7512   -0.0047 C   0  0  0  0  0  0  0  0  0  0  0  0
   -4.1914    0.7472    0.0967 C   0  0  0  0  0  0  0  0  0  0  0  0
   -3.7769    1.7638    0.1798 H   0  0  0  0  0  0  0  0  0  0  0  0
   -3.3337   -0.3306   -0.0102 C   0  0  0  0  0  0  0  0  0  0  0  0
   -3.8806   -1.7071   -0.1130 C   0  0  0  0  0  0  0  0  0  0  0  0
   -5.6141    0.5730    0.1034 C   0  0  0  0  0  0  0  0  0  0  0  0
   -7.9141    1.3904    0.2058 C   0  0  0  0  0  0  0  0  0  0  0  0
   -8.6264    2.2240    0.2882 H   0  0  0  0  0  0  0  0  0  0  0  0
   -6.5420    1.6399    0.2092 C   0  0  0  0  0  0  0  0  0  0  0  0
   -6.1572    2.6678    0.2937 H   0  0  0  0  0  0  0  0  0  0  0  0
   -7.4968   -1.0076   -0.0089 C   0  0  0  0  0  0  0  0  0  0  0  0
   -7.8420   -2.0473   -0.0946 H   0  0  0  0  0  0  0  0  0  0  0  0
   -8.3885    0.0653    0.0964 C   0  0  0  0  0  0  0  0  0  0  0  0
   -9.4712   -0.1305    0.0936 H   0  0  0  0  0  0  0  0  0  0  0  0
  1  5  1  0  0  0  0
  2  9  2  0  0  0  0
  3  4  3  0  0  0  0
  4  8  1  0  0  0  0
  5 10  1  0  0  0  0
  6 10  1  0  0  0  0
  6  7  1  0  0  0  0
  8  6  2  0  0  0  0
  9  1  1  0  0  0  0
  9  8  1  0  0  0  0
 10 13  2  0  0  0  0
 11 13  1  0  0  0  0
 11 12  1  0  0  0  0
 13 14  1  0  0  0  0
 15  5  2  0  0  0  0
 15 17  1  0  0  0  0
 16 15  1  0  0  0  0
 17 11  2  0  0  0  0
 18 17  1  0  0  0  0
M  END
