3
 OpenBabel05122313113D

 25 26  0  0  1  0  0  0  0  0999 V2000
    0.4431   -1.2439    0.5285 C   0  0  0  0  0  3  0  0  0  0  0  0
    1.3575   -0.0755    0.9477 C   0  0  2  0  0  0  0  0  0  0  0  0
    0.5170    1.1023    0.4793 C   0  0  1  0  0  3  0  0  0  0  0  0
    0.2253    1.3858   -0.9079 C   0  0  0  0  0  0  0  0  0  0  0  0
   -0.9806    2.1514   -0.9586 C   0  0  0  0  0  0  0  0  0  0  0  0
   -1.4429    2.3432    0.3930 C   0  0  0  0  0  0  0  0  0  0  0  0
   -0.5089    1.7167    1.2757 C   0  0  0  0  0  0  0  0  0  0  0  0
    2.7834   -0.1123    0.4254 C   0  0  0  0  0  0  0  0  0  0  0  0
    3.4514    1.0684    0.0463 C   0  0  0  0  0  0  0  0  0  0  0  0
    4.7829    1.0304   -0.3951 C   0  0  0  0  0  0  0  0  0  0  0  0
    5.4681   -0.1923   -0.4658 C   0  0  0  0  0  0  0  0  0  0  0  0
    4.8119   -1.3752   -0.0898 C   0  0  0  0  0  0  0  0  0  0  0  0
    3.4808   -1.3344    0.3499 C   0  0  0  0  0  0  0  0  0  0  0  0
    0.2390   -1.9767    1.3261 H   0  0  0  0  0  0  0  0  0  0  0  0
    0.8085   -1.7492   -0.3822 H   0  0  0  0  0  0  0  0  0  0  0  0
    1.3967   -0.0291    2.0580 H   0  0  0  0  0  0  0  0  0  0  0  0
    0.8304    1.0591   -1.7620 H   0  0  0  0  0  0  0  0  0  0  0  0
   -1.4576    2.5452   -1.8637 H   0  0  0  0  0  0  0  0  0  0  0  0
   -2.3313    2.9109    0.6940 H   0  0  0  0  0  0  0  0  0  0  0  0
   -0.5720    1.6755    2.3699 H   0  0  0  0  0  0  0  0  0  0  0  0
    2.9200    2.0318    0.0966 H   0  0  0  0  0  0  0  0  0  0  0  0
    5.2875    1.9636   -0.6892 H   0  0  0  0  0  0  0  0  0  0  0  0
    6.5108   -0.2241   -0.8162 H   0  0  0  0  0  0  0  0  0  0  0  0
    5.3404   -2.3395   -0.1416 H   0  0  0  0  0  0  0  0  0  0  0  0
    2.9736   -2.2667    0.6426 H   0  0  0  0  0  0  0  0  0  0  0  0
  1  2  1  0  0  0  0
  1 14  1  0  0  0  0
  2 16  1  1  0  0  0
  3  2  1  6  0  0  0
  3  7  1  0  0  0  0
  4  3  1  0  0  0  0
  5  4  2  0  0  0  0
  5  6  1  0  0  0  0
  6 19  1  0  0  0  0
  6  7  2  0  0  0  0
  7 20  1  0  0  0  0
  8  2  1  0  0  0  0
  9 21  1  0  0  0  0
  9  8  2  0  0  0  0
 10  9  1  0  0  0  0
 11 10  2  0  0  0  0
 11 12  1  0  0  0  0
 12 13  2  0  0  0  0
 13  8  1  0  0  0  0
 13 25  1  0  0  0  0
 15  1  1  0  0  0  0
 17  4  1  0  0  0  0
 18  5  1  0  0  0  0
 22 10  1  0  0  0  0
 23 11  1  0  0  0  0
 24 12  1  0  0  0  0
M  END
