2
 OpenBabel05122313113D

 17 17  0  0  0  0  0  0  0  0999 V2000
    0.8798   -0.0003   -1.6556 C   0  0  0  0  0  3  0  0  0  0  0  0
    1.1850   -0.0003   -0.2536 C   0  0  0  0  0  3  0  0  0  0  0  0
    2.2093   -0.0000    0.6299 C   0  0  0  0  0  0  0  0  0  0  0  0
    3.6443   -0.0001    0.3150 C   0  0  0  0  0  0  0  0  0  0  0  0
    4.1472   -0.0005   -1.0114 C   0  0  0  0  0  0  0  0  0  0  0  0
    5.5242   -0.0006   -1.2608 C   0  0  0  0  0  0  0  0  0  0  0  0
    6.4455   -0.0003   -0.1984 C   0  0  0  0  0  0  0  0  0  0  0  0
    5.9665    0.0001    1.1216 C   0  0  0  0  0  0  0  0  0  0  0  0
    4.5883    0.0001    1.3723 C   0  0  0  0  0  0  0  0  0  0  0  0
    1.0763   -0.9128   -2.2510 H   0  0  0  0  0  0  0  0  0  0  0  0
    1.0767    0.9121   -2.2511 H   0  0  0  0  0  0  0  0  0  0  0  0
    1.9738    0.0002    1.7100 H   0  0  0  0  0  0  0  0  0  0  0  0
    3.4357   -0.0007   -1.8499 H   0  0  0  0  0  0  0  0  0  0  0  0
    5.8867   -0.0008   -2.3009 H   0  0  0  0  0  0  0  0  0  0  0  0
    7.5276   -0.0004   -0.3990 H   0  0  0  0  0  0  0  0  0  0  0  0
    6.6746    0.0003    1.9651 H   0  0  0  0  0  0  0  0  0  0  0  0
    4.2207    0.0004    2.4114 H   0  0  0  0  0  0  0  0  0  0  0  0
  1  2  1  0  0  0  0
  2  3  2  0  0  0  0
  3 12  1  0  0  0  0
  4  3  1  0  0  0  0
  4  9  1  0  0  0  0
  5  4  2  0  0  0  0
  6  5  1  0  0  0  0
  6  7  2  0  0  0  0
  7  8  1  0  0  0  0
  8  9  2  0  0  0  0
  8 16  1  0  0  0  0
  9 17  1  0  0  0  0
 10  1  1  0  0  0  0
 11  1  1  0  0  0  0
 13  5  1  0  0  0  0
 14  6  1  0  0  0  0
 15  7  1  0  0  0  0
M  END
