2
 OpenBabel05122313113D

 43 43  0  0  1  0  0  0  0  0999 V2000
   -1.2244   -1.4343   -0.0000 Si  0  0  0  0  0  0  0  0  0  0  0  0
   -0.3606    0.3028    0.0001 C   0  0  2  0  0  3  0  0  0  0  0  0
   -0.6470    1.1732    1.1937 C   0  0  0  0  0  0  0  0  0  0  0  0
   -1.1170    2.3873    0.7331 C   0  0  0  0  0  0  0  0  0  0  0  0
   -1.1169    2.3873   -0.7331 C   0  0  0  0  0  0  0  0  0  0  0  0
   -0.6468    1.1732   -1.1936 C   0  0  0  0  0  0  0  0  0  0  0  0
   -0.4706    0.7662    2.6285 C   0  0  0  0  0  0  0  0  0  0  0  0
    0.3843    0.0737    2.7663 H   0  0  0  0  0  0  0  0  0  0  0  0
   -1.3670    0.2524    3.0403 H   0  0  0  0  0  0  0  0  0  0  0  0
   -0.2846    1.6475    3.2738 H   0  0  0  0  0  0  0  0  0  0  0  0
   -1.5730    3.5564    1.5513 C   0  0  0  0  0  0  0  0  0  0  0  0
   -1.0479    4.4906    1.2580 H   0  0  0  0  0  0  0  0  0  0  0  0
   -1.4065    3.4003    2.6342 H   0  0  0  0  0  0  0  0  0  0  0  0
   -2.6583    3.7529    1.4086 H   0  0  0  0  0  0  0  0  0  0  0  0
   -1.5728    3.5564   -1.5513 C   0  0  0  0  0  0  0  0  0  0  0  0
   -1.0488    4.4909   -1.2570 H   0  0  0  0  0  0  0  0  0  0  0  0
   -2.6583    3.7520   -1.4100 H   0  0  0  0  0  0  0  0  0  0  0  0
   -1.4047    3.4009   -2.6341 H   0  0  0  0  0  0  0  0  0  0  0  0
   -0.4703    0.7662   -2.6284 C   0  0  0  0  0  0  0  0  0  0  0  0
   -1.3668    0.2527   -3.0403 H   0  0  0  0  0  0  0  0  0  0  0  0
    0.3845    0.0736   -2.7663 H   0  0  0  0  0  0  0  0  0  0  0  0
   -0.2841    1.6475   -3.2737 H   0  0  0  0  0  0  0  0  0  0  0  0
   -0.6706   -2.4323    1.5177 C   0  0  0  0  0  0  0  0  0  0  0  0
   -1.0616   -2.0297    2.4714 H   0  0  0  0  0  0  0  0  0  0  0  0
    0.4361   -2.4695    1.5948 H   0  0  0  0  0  0  0  0  0  0  0  0
   -1.0261   -3.4784    1.4190 H   0  0  0  0  0  0  0  0  0  0  0  0
   -0.6707   -2.4322   -1.5179 C   0  0  0  0  0  0  0  0  0  0  0  0
   -1.0625   -2.0299   -2.4714 H   0  0  0  0  0  0  0  0  0  0  0  0
   -1.0256   -3.4785   -1.4188 H   0  0  0  0  0  0  0  0  0  0  0  0
    0.4360   -2.4688   -1.5956 H   0  0  0  0  0  0  0  0  0  0  0  0
   -3.1527   -1.2695   -0.0000 C   0  0  0  0  0  0  0  0  0  0  0  0
   -3.7472   -2.6927   -0.0005 C   0  0  0  0  0  0  0  0  0  0  0  0
   -3.4471   -3.2734    0.8960 H   0  0  0  0  0  0  0  0  0  0  0  0
   -3.4471   -3.2727   -0.8974 H   0  0  0  0  0  0  0  0  0  0  0  0
   -4.8589   -2.6409   -0.0004 H   0  0  0  0  0  0  0  0  0  0  0  0
   -3.6333   -0.5187   -1.2553 C   0  0  0  0  0  0  0  0  0  0  0  0
   -3.2413    0.5175   -1.2863 H   0  0  0  0  0  0  0  0  0  0  0  0
   -4.7449   -0.4621   -1.2655 H   0  0  0  0  0  0  0  0  0  0  0  0
   -3.3258   -1.0311   -2.1902 H   0  0  0  0  0  0  0  0  0  0  0  0
   -3.6334   -0.5195    1.2557 C   0  0  0  0  0  0  0  0  0  0  0  0
   -4.7449   -0.4630    1.2659 H   0  0  0  0  0  0  0  0  0  0  0  0
   -3.2414    0.5166    1.2874 H   0  0  0  0  0  0  0  0  0  0  0  0
   -3.3259   -1.0325    2.1904 H   0  0  0  0  0  0  0  0  0  0  0  0
  1 31  1  0  0  0  0
  1 23  1  0  0  0  0
  2  1  1  6  0  0  0
  2  3  1  0  0  0  0
  3  7  1  0  0  0  0
  4  3  2  0  0  0  0
  4 11  1  0  0  0  0
  5  4  1  0  0  0  0
  6  5  2  0  0  0  0
  6  2  1  0  0  0  0
  7  8  1  0  0  0  0
  7  9  1  0  0  0  0
  7 10  1  0  0  0  0
 11 13  1  0  0  0  0
 12 11  1  0  0  0  0
 14 11  1  0  0  0  0
 15 17  1  0  0  0  0
 15 16  1  0  0  0  0
 15  5  1  0  0  0  0
 18 15  1  0  0  0  0
 19  6  1  0  0  0  0
 20 19  1  0  0  0  0
 21 19  1  0  0  0  0
 22 19  1  0  0  0  0
 23 25  1  0  0  0  0
 23 24  1  0  0  0  0
 26 23  1  0  0  0  0
 27 29  1  0  0  0  0
 27  1  1  0  0  0  0
 28 27  1  0  0  0  0
 30 27  1  0  0  0  0
 31 40  1  0  0  0  0
 32 35  1  0  0  0  0
 32 31  1  0  0  0  0
 32 33  1  0  0  0  0
 34 32  1  0  0  0  0
 36 31  1  0  0  0  0
 37 36  1  0  0  0  0
 38 36  1  0  0  0  0
 39 36  1  0  0  0  0
 40 41  1  0  0  0  0
 40 42  1  0  0  0  0
 40 43  1  0  0  0  0
M  END
