1
 OpenBabel05122313113D

 31 31  0  0  0  0  0  0  0  0999 V2000
    0.5396    0.5020    0.8771 C   0  0  0  0  0  2  0  0  0  0  0  0
    0.0463    0.1897    2.0656 O   0  0  0  0  0  0  0  0  0  0  0  0
   -0.7768    1.0936    2.8411 C   0  0  0  0  0  0  0  0  0  0  0  0
   -0.7586    0.6974    3.8717 H   0  0  0  0  0  0  0  0  0  0  0  0
   -1.8098    1.0779    2.4419 H   0  0  0  0  0  0  0  0  0  0  0  0
   -0.3763    2.1249    2.8106 H   0  0  0  0  0  0  0  0  0  0  0  0
    0.1890    1.8531    0.3542 C   0  0  0  0  0  0  0  0  0  0  0  0
    1.1335    2.8970    0.3657 C   0  0  0  0  0  0  0  0  0  0  0  0
    2.1309    2.7137    0.7907 H   0  0  0  0  0  0  0  0  0  0  0  0
    0.8103    4.1571   -0.1561 C   0  0  0  0  0  0  0  0  0  0  0  0
    1.5577    4.9640   -0.1324 H   0  0  0  0  0  0  0  0  0  0  0  0
   -0.4570    4.3807   -0.7195 C   0  0  0  0  0  0  0  0  0  0  0  0
   -0.7072    5.3640   -1.1447 H   0  0  0  0  0  0  0  0  0  0  0  0
   -1.4038    3.3510   -0.7467 C   0  0  0  0  0  0  0  0  0  0  0  0
   -2.3967    3.5131   -1.1903 H   0  0  0  0  0  0  0  0  0  0  0  0
   -1.1073    2.0780   -0.2037 C   0  0  0  0  0  0  0  0  0  0  0  0
   -2.0657    1.0208   -0.2130 C   0  0  0  0  0  0  0  0  0  0  0  0
   -2.8388    0.0656   -0.1932 C   0  0  0  0  0  0  0  0  0  0  0  0
   -3.7380   -1.0975   -0.1929 C   0  0  0  0  0  0  0  0  0  0  0  0
   -3.2199   -2.1270   -1.2269 C   0  0  0  0  0  0  0  0  0  0  0  0
   -3.9069   -2.9971   -1.2645 H   0  0  0  0  0  0  0  0  0  0  0  0
   -2.2125   -2.4925   -0.9505 H   0  0  0  0  0  0  0  0  0  0  0  0
   -3.1597   -1.6799   -2.2383 H   0  0  0  0  0  0  0  0  0  0  0  0
   -5.1650   -0.6406   -0.5735 C   0  0  0  0  0  0  0  0  0  0  0  0
   -5.8521   -1.5113   -0.5743 H   0  0  0  0  0  0  0  0  0  0  0  0
   -5.1794   -0.1849   -1.5831 H   0  0  0  0  0  0  0  0  0  0  0  0
   -5.5502    0.1062    0.1489 H   0  0  0  0  0  0  0  0  0  0  0  0
   -3.7420   -1.7320    1.2187 C   0  0  0  0  0  0  0  0  0  0  0  0
   -4.4088   -2.6184    1.2307 H   0  0  0  0  0  0  0  0  0  0  0  0
   -4.1112   -1.0120    1.9766 H   0  0  0  0  0  0  0  0  0  0  0  0
   -2.7247   -2.0600    1.5082 H   0  0  0  0  0  0  0  0  0  0  0  0
  1  2  1  0  0  0  0
  2  3  1  0  0  0  0
  3  4  1  0  0  0  0
  5  3  1  0  0  0  0
  6  3  1  0  0  0  0
  7  8  1  0  0  0  0
  7  1  1  0  0  0  0
  8  9  1  0  0  0  0
 10 11  1  0  0  0  0
 10  8  2  0  0  0  0
 12 10  1  0  0  0  0
 13 12  1  0  0  0  0
 14 12  2  0  0  0  0
 14 16  1  0  0  0  0
 15 14  1  0  0  0  0
 16  7  2  0  0  0  0
 17 16  1  0  0  0  0
 17 18  3  0  0  0  0
 18 19  1  0  0  0  0
 19 28  1  0  0  0  0
 20 22  1  0  0  0  0
 20 19  1  0  0  0  0
 21 20  1  0  0  0  0
 23 20  1  0  0  0  0
 24 19  1  0  0  0  0
 24 27  1  0  0  0  0
 25 24  1  0  0  0  0
 26 24  1  0  0  0  0
 28 29  1  0  0  0  0
 28 31  1  0  0  0  0
 28 30  1  0  0  0  0
M  END
