2
q = 0.0, confidence = 0.992

 47 50  0  0  0  0  0  0  0  0999 V2000
    1.0342    0.0113    0.0675 P   0  0  0  0  0  0  0  0  0  0  0  0
   -2.0482    1.4590    0.0345 C   0  0  0  0  0  2  0  0  0  0  0  0
    1.5486    1.7798    0.2701 C   0  0  0  0  0  0  0  0  0  0  0  0
    0.8754    2.7824   -0.4770 C   0  0  0  0  0  0  0  0  0  0  0  0
    2.5625    2.1600    1.1710 C   0  0  0  0  0  0  0  0  0  0  0  0
    3.0890    1.3868    1.7493 H   0  0  0  0  0  0  0  0  0  0  0  0
   -0.2588    2.4378   -1.4245 C   0  0  0  0  0  0  0  0  0  0  0  0
   -0.2942    3.1690   -2.2546 H   0  0  0  0  0  0  0  0  0  0  0  0
   -0.1287    1.4362   -1.8749 H   0  0  0  0  0  0  0  0  0  0  0  0
    2.9089    3.5098    1.3376 C   0  0  0  0  0  0  0  0  0  0  0  0
    3.7033    3.7853    2.0477 H   0  0  0  0  0  0  0  0  0  0  0  0
    2.2502    4.4994    0.5950 C   0  0  0  0  0  0  0  0  0  0  0  0
    2.5215    5.5590    0.7141 H   0  0  0  0  0  0  0  0  0  0  0  0
   -2.4363    3.5461   -0.8176 C   0  0  0  0  0  0  0  0  0  0  0  0
   -2.2277    4.4460   -1.4033 H   0  0  0  0  0  0  0  0  0  0  0  0
   -4.1905    1.1968    1.3033 C   0  0  0  0  0  0  0  0  0  0  0  0
   -4.5652    0.3012    0.7668 H   0  0  0  0  0  0  0  0  0  0  0  0
   -5.0380    1.8569    1.5636 H   0  0  0  0  0  0  0  0  0  0  0  0
   -3.6826    0.8757    2.2314 H   0  0  0  0  0  0  0  0  0  0  0  0
   -3.5132    3.2089   -0.0404 C   0  0  0  0  0  0  0  0  0  0  0  0
   -4.4348    3.7555    0.1800 H   0  0  0  0  0  0  0  0  0  0  0  0
    1.2422    4.1291   -0.3077 C   0  0  0  0  0  0  0  0  0  0  0  0
    0.7258    4.9036   -0.8975 H   0  0  0  0  0  0  0  0  0  0  0  0
   -1.5657    2.4676   -0.7631 N   0  0  0  0  0  0  0  0  0  0  0  0
   -3.2582    1.9423    0.4648 N   0  0  0  0  0  0  0  0  0  0  0  0
    2.6855    0.3882   -2.2489 C   0  0  0  0  0  0  0  0  0  0  0  0
    2.9366    1.3826   -1.8500 H   0  0  0  0  0  0  0  0  0  0  0  0
    1.8153   -0.4609   -1.5343 C   0  0  0  0  0  0  0  0  0  0  0  0
    3.2377   -0.0365   -3.4680 C   0  0  0  0  0  0  0  0  0  0  0  0
    3.9148    0.6323   -4.0215 H   0  0  0  0  0  0  0  0  0  0  0  0
    1.5077   -1.7398   -2.0484 C   0  0  0  0  0  0  0  0  0  0  0  0
    0.8304   -2.4192   -1.5067 H   0  0  0  0  0  0  0  0  0  0  0  0
    2.0717   -2.1587   -3.2617 C   0  0  0  0  0  0  0  0  0  0  0  0
    1.8215   -3.1570   -3.6513 H   0  0  0  0  0  0  0  0  0  0  0  0
    2.9328   -1.3090   -3.9760 C   0  0  0  0  0  0  0  0  0  0  0  0
    3.3660   -1.6387   -4.9328 H   0  0  0  0  0  0  0  0  0  0  0  0
    2.0746   -0.8581    1.3153 C   0  0  0  0  0  0  0  0  0  0  0  0
    1.5457   -1.0237    2.6126 C   0  0  0  0  0  0  0  0  0  0  0  0
    0.5303   -0.6525    2.8287 H   0  0  0  0  0  0  0  0  0  0  0  0
    3.3592   -1.3560    1.0209 C   0  0  0  0  0  0  0  0  0  0  0  0
    3.7729   -1.2386    0.0080 H   0  0  0  0  0  0  0  0  0  0  0  0
    3.5788   -2.1612    3.3081 C   0  0  0  0  0  0  0  0  0  0  0  0
    4.1651   -2.6759    4.0845 H   0  0  0  0  0  0  0  0  0  0  0  0
    2.2983   -1.6653    3.6062 C   0  0  0  0  0  0  0  0  0  0  0  0
    1.8788   -1.7899    4.6161 H   0  0  0  0  0  0  0  0  0  0  0  0
    4.1048   -2.0083    2.0156 C   0  0  0  0  0  0  0  0  0  0  0  0
    5.1042   -2.4028    1.7764 H   0  0  0  0  0  0  0  0  0  0  0  0
  1  3  1  0  0  0  0
  1 37  1  0  0  0  0
  2 25  1  0  0  0  0
  3  5  1  0  0  0  0
  4 22  1  0  0  0  0
  4  3  2  0  0  0  0
  5 10  2  0  0  0  0
  5  6  1  0  0  0  0
  7 24  1  0  0  0  0
  7  4  1  0  0  0  0
  8  7  1  0  0  0  0
  9  7  1  0  0  0  0
 10 11  1  0  0  0  0
 12 13  1  0  0  0  0
 12 10  1  0  0  0  0
 14 24  1  0  0  0  0
 14 20  2  0  0  0  0
 15 14  1  0  0  0  0
 16 18  1  0  0  0  0
 16 19  1  0  0  0  0
 17 16  1  0  0  0  0
 20 21  1  0  0  0  0
 20 25  1  0  0  0  0
 22 12  2  0  0  0  0
 23 22  1  0  0  0  0
 24  2  1  0  0  0  0
 25 16  1  0  0  0  0
 26 27  1  0  0  0  0
 26 28  1  0  0  0  0
 28  1  1  0  0  0  0
 29 26  2  0  0  0  0
 30 29  1  0  0  0  0
 31 28  2  0  0  0  0
 31 32  1  0  0  0  0
 33 31  1  0  0  0  0
 34 33  1  0  0  0  0
 35 29  1  0  0  0  0
 35 33  2  0  0  0  0
 36 35  1  0  0  0  0
 37 38  1  0  0  0  0
 38 39  1  0  0  0  0
 38 44  2  0  0  0  0
 40 37  2  0  0  0  0
 40 46  1  0  0  0  0
 41 40  1  0  0  0  0
 42 44  1  0  0  0  0
 42 43  1  0  0  0  0
 44 45  1  0  0  0  0
 46 42  2  0  0  0  0
 47 46  1  0  0  0  0
M  END
