2
 OpenBabel05122313113D

 26 25  0  0  0  0  0  0  0  0999 V2000
   -5.2494   -0.5667    0.6844 O   0  0  0  0  0  0  0  0  0  0  0  0
   -0.8593   -0.5092   -0.0515 C   0  0  0  0  0  3  0  0  0  0  0  0
   -1.5354   -0.3951    1.3152 C   0  0  0  0  0  0  0  0  0  0  0  0
   -2.9870   -0.9008    1.3536 C   0  0  0  0  0  0  0  0  0  0  0  0
   -3.9305   -0.1097    0.4548 C   0  0  0  0  0  0  0  0  0  0  0  0
   -6.2725   -0.1712   -0.2505 C   0  0  0  0  0  0  0  0  0  0  0  0
   -6.0478   -0.8478   -1.6142 C   0  0  0  0  0  0  0  0  0  0  0  0
   -7.5648   -0.6891    0.3894 C   0  0  0  0  0  0  0  0  0  0  0  0
   -6.3291    1.3581   -0.4023 C   0  0  0  0  0  0  0  0  0  0  0  0
   -1.3861    0.1040   -0.8109 H   0  0  0  0  0  0  0  0  0  0  0  0
   -0.9446   -1.5595   -0.4115 H   0  0  0  0  0  0  0  0  0  0  0  0
   -0.9495   -0.9537    2.0770 H   0  0  0  0  0  0  0  0  0  0  0  0
   -1.5199    0.6620    1.6666 H   0  0  0  0  0  0  0  0  0  0  0  0
   -3.0278   -1.9707    1.0537 H   0  0  0  0  0  0  0  0  0  0  0  0
   -3.3863   -0.8509    2.3899 H   0  0  0  0  0  0  0  0  0  0  0  0
   -3.6316   -0.2319   -0.6120 H   0  0  0  0  0  0  0  0  0  0  0  0
   -3.8329    0.9816    0.6895 H   0  0  0  0  0  0  0  0  0  0  0  0
   -6.8863   -0.6273   -2.3048 H   0  0  0  0  0  0  0  0  0  0  0  0
   -5.1168   -0.4957   -2.1018 H   0  0  0  0  0  0  0  0  0  0  0  0
   -5.9780   -1.9463   -1.4860 H   0  0  0  0  0  0  0  0  0  0  0  0
   -7.4959   -1.7838    0.5443 H   0  0  0  0  0  0  0  0  0  0  0  0
   -7.7176   -0.2127    1.3779 H   0  0  0  0  0  0  0  0  0  0  0  0
   -8.4425   -0.4740   -0.2514 H   0  0  0  0  0  0  0  0  0  0  0  0
   -6.4210    1.8398    0.5921 H   0  0  0  0  0  0  0  0  0  0  0  0
   -5.4233    1.7569   -0.9012 H   0  0  0  0  0  0  0  0  0  0  0  0
   -7.2038    1.6555   -1.0144 H   0  0  0  0  0  0  0  0  0  0  0  0
  2  3  1  0  0  0  0
  3  4  1  0  0  0  0
  3 13  1  0  0  0  0
  3 12  1  0  0  0  0
  4 15  1  0  0  0  0
  5  1  1  0  0  0  0
  5 17  1  0  0  0  0
  5  4  1  0  0  0  0
  6  8  1  0  0  0  0
  6  1  1  0  0  0  0
  7 20  1  0  0  0  0
  7  6  1  0  0  0  0
  8 21  1  0  0  0  0
  8 22  1  0  0  0  0
  9  6  1  0  0  0  0
  9 24  1  0  0  0  0
 10  2  1  0  0  0  0
 11  2  1  0  0  0  0
 14  4  1  0  0  0  0
 16  5  1  0  0  0  0
 18  7  1  0  0  0  0
 19  7  1  0  0  0  0
 23  8  1  0  0  0  0
 25  9  1  0  0  0  0
 26  9  1  0  0  0  0
M  END
