3
 OpenBabel05122313113D

 21 20  0  0  0  0  0  0  0  0999 V2000
    4.9180   -0.0860    0.1540 Si  0  0  0  0  0  0  0  0  0  0  0  0
    0.7991   -0.0845    2.3930 O   0  0  0  0  0  0  0  0  0  0  0  0
    0.7471   -0.1586    1.1678 C   0  0  0  0  0  3  0  0  0  0  0  0
    2.0631   -0.2668    0.3760 C   0  0  0  0  0  0  0  0  0  0  0  0
    3.3088    0.2385    1.1091 C   0  0  0  0  0  0  0  0  0  0  0  0
    6.3856    0.6070    1.1306 C   0  0  0  0  0  0  0  0  0  0  0  0
    4.8226    0.7525   -1.5444 C   0  0  0  0  0  0  0  0  0  0  0  0
    5.1402   -1.9557   -0.0869 C   0  0  0  0  0  0  0  0  0  0  0  0
    2.1635   -1.3501    0.1509 H   0  0  0  0  0  0  0  0  0  0  0  0
    1.9336    0.2238   -0.6073 H   0  0  0  0  0  0  0  0  0  0  0  0
    3.2211    1.3319    1.2991 H   0  0  0  0  0  0  0  0  0  0  0  0
    3.3640   -0.2307    2.1145 H   0  0  0  0  0  0  0  0  0  0  0  0
    6.4600    0.1318    2.1305 H   0  0  0  0  0  0  0  0  0  0  0  0
    7.3432    0.4302    0.5986 H   0  0  0  0  0  0  0  0  0  0  0  0
    6.2809    1.7010    1.2840 H   0  0  0  0  0  0  0  0  0  0  0  0
    4.6298    1.8406   -1.4425 H   0  0  0  0  0  0  0  0  0  0  0  0
    5.7686    0.6266   -2.1105 H   0  0  0  0  0  0  0  0  0  0  0  0
    4.0035    0.3236   -2.1581 H   0  0  0  0  0  0  0  0  0  0  0  0
    4.3169   -2.3874   -0.6935 H   0  0  0  0  0  0  0  0  0  0  0  0
    6.0918   -2.1812   -0.6112 H   0  0  0  0  0  0  0  0  0  0  0  0
    5.1566   -2.4860    0.8877 H   0  0  0  0  0  0  0  0  0  0  0  0
  1  5  1  0  0  0  0
  1  6  1  0  0  0  0
  3  2  2  0  0  0  0
  4  5  1  0  0  0  0
  4  3  1  0  0  0  0
  5 11  1  0  0  0  0
  5 12  1  0  0  0  0
  6 15  1  0  0  0  0
  6 13  1  0  0  0  0
  7 16  1  0  0  0  0
  7  1  1  0  0  0  0
  8  1  1  0  0  0  0
  8 21  1  0  0  0  0
  9  4  1  0  0  0  0
 10  4  1  0  0  0  0
 14  6  1  0  0  0  0
 17  7  1  0  0  0  0
 18  7  1  0  0  0  0
 19  8  1  0  0  0  0
 20  8  1  0  0  0  0
M  END
