1
 OpenBabel05122313113D

 41 43  0  0  0  0  0  0  0  0999 V2000
   -0.7215   -0.3709   -0.2325 C   0  0  0  0  0  2  0  0  0  0  0  0
   -0.1012    0.8451   -0.2181 N   0  0  0  0  0  0  0  0  0  0  0  0
   -0.8456    2.1109   -0.3227 C   0  0  0  0  0  0  0  0  0  0  0  0
   -1.6126    1.9696   -1.1098 H   0  0  0  0  0  0  0  0  0  0  0  0
   -0.1302    2.8774   -0.6773 H   0  0  0  0  0  0  0  0  0  0  0  0
   -1.5277    2.5239    0.9780 C   0  0  0  0  0  0  0  0  0  0  0  0
   -2.3570    1.8287    1.2172 H   0  0  0  0  0  0  0  0  0  0  0  0
   -1.9798    3.5271    0.8516 H   0  0  0  0  0  0  0  0  0  0  0  0
   -0.8157    2.5623    1.8272 H   0  0  0  0  0  0  0  0  0  0  0  0
    1.2892    0.7050   -0.1445 C   0  0  0  0  0  0  0  0  0  0  0  0
    2.2650    1.8070   -0.1495 C   0  0  0  0  0  0  0  0  0  0  0  0
    3.3905    1.7364   -1.0035 C   0  0  0  0  0  0  0  0  0  0  0  0
    3.5000    0.8737   -1.6765 H   0  0  0  0  0  0  0  0  0  0  0  0
    4.3519    2.7545   -1.0024 C   0  0  0  0  0  0  0  0  0  0  0  0
    5.2197    2.6837   -1.6754 H   0  0  0  0  0  0  0  0  0  0  0  0
    4.2053    3.8655   -0.1560 C   0  0  0  0  0  0  0  0  0  0  0  0
    4.9588    4.6675   -0.1597 H   0  0  0  0  0  0  0  0  0  0  0  0
    3.0924    3.9475    0.6953 C   0  0  0  0  0  0  0  0  0  0  0  0
    2.9733    4.8106    1.3675 H   0  0  0  0  0  0  0  0  0  0  0  0
    2.1320    2.9265    0.7042 C   0  0  0  0  0  0  0  0  0  0  0  0
    1.2806    2.9867    1.3969 H   0  0  0  0  0  0  0  0  0  0  0  0
    1.5376   -0.6619   -0.1214 C   0  0  0  0  0  0  0  0  0  0  0  0
    2.8273   -1.3686   -0.0285 C   0  0  0  0  0  0  0  0  0  0  0  0
    3.7254   -1.0557    1.0169 C   0  0  0  0  0  0  0  0  0  0  0  0
    3.4368   -0.2987    1.7610 H   0  0  0  0  0  0  0  0  0  0  0  0
    4.9655   -1.7013    1.1072 C   0  0  0  0  0  0  0  0  0  0  0  0
    5.6534   -1.4471    1.9276 H   0  0  0  0  0  0  0  0  0  0  0  0
    5.3271   -2.6735    0.1604 C   0  0  0  0  0  0  0  0  0  0  0  0
    6.2993   -3.1833    0.2352 H   0  0  0  0  0  0  0  0  0  0  0  0
    4.4450   -2.9889   -0.8853 C   0  0  0  0  0  0  0  0  0  0  0  0
    4.7276   -3.7398   -1.6385 H   0  0  0  0  0  0  0  0  0  0  0  0
    3.2071   -2.3382   -0.9844 C   0  0  0  0  0  0  0  0  0  0  0  0
    2.5368   -2.5625   -1.8280 H   0  0  0  0  0  0  0  0  0  0  0  0
    0.2889   -1.2866   -0.1803 N   0  0  0  0  0  0  0  0  0  0  0  0
    0.0444   -2.7201    0.0014 C   0  0  0  0  0  0  0  0  0  0  0  0
    0.7545   -3.2850   -0.6322 H   0  0  0  0  0  0  0  0  0  0  0  0
   -0.9779   -2.9006   -0.3859 H   0  0  0  0  0  0  0  0  0  0  0  0
    0.1579   -3.1443    1.4624 C   0  0  0  0  0  0  0  0  0  0  0  0
    1.1761   -2.9572    1.8585 H   0  0  0  0  0  0  0  0  0  0  0  0
   -0.0554   -4.2271    1.5603 H   0  0  0  0  0  0  0  0  0  0  0  0
   -0.5724   -2.5892    2.0844 H   0  0  0  0  0  0  0  0  0  0  0  0
  1  2  1  0  0  0  0
  1 34  1  0  0  0  0
  2 10  1  0  0  0  0
  3  2  1  0  0  0  0
  3  6  1  0  0  0  0
  4  3  1  0  0  0  0
  5  3  1  0  0  0  0
  6  7  1  0  0  0  0
  6  9  1  0  0  0  0
  8  6  1  0  0  0  0
 10 22  2  0  0  0  0
 11 10  1  0  0  0  0
 11 20  1  0  0  0  0
 12 14  1  0  0  0  0
 12 11  2  0  0  0  0
 13 12  1  0  0  0  0
 14 16  2  0  0  0  0
 15 14  1  0  0  0  0
 16 18  1  0  0  0  0
 17 16  1  0  0  0  0
 18 20  2  0  0  0  0
 18 19  1  0  0  0  0
 20 21  1  0  0  0  0
 22 23  1  0  0  0  0
 23 24  1  0  0  0  0
 24 26  2  0  0  0  0
 24 25  1  0  0  0  0
 26 27  1  0  0  0  0
 28 29  1  0  0  0  0
 28 26  1  0  0  0  0
 30 28  2  0  0  0  0
 31 30  1  0  0  0  0
 32 30  1  0  0  0  0
 32 23  2  0  0  0  0
 33 32  1  0  0  0  0
 34 22  1  0  0  0  0
 34 35  1  0  0  0  0
 35 38  1  0  0  0  0
 36 35  1  0  0  0  0
 37 35  1  0  0  0  0
 38 40  1  0  0  0  0
 38 39  1  0  0  0  0
 38 41  1  0  0  0  0
M  END
