1
 OpenBabel05122313113D

 35 35  0  0  0  0  0  0  0  0999 V2000
    0.3175   -0.1211    0.3901 C   0  0  0  0  0  3  0  0  0  0  0  0
   -0.5484   -1.0974   -0.1427 C   0  0  0  0  0  0  0  0  0  0  0  0
   -0.0631   -1.9662   -0.6001 H   0  0  0  0  0  0  0  0  0  0  0  0
   -1.9528   -1.2292    0.0009 C   0  0  0  0  0  0  0  0  0  0  0  0
   -2.5688   -2.6377   -0.1147 C   0  0  0  0  0  0  0  0  0  0  0  0
   -1.8228   -3.6123    0.8234 C   0  0  0  0  0  0  0  0  0  0  0  0
   -1.9045   -3.2914    1.8810 H   0  0  0  0  0  0  0  0  0  0  0  0
   -0.7478   -3.6945    0.5748 H   0  0  0  0  0  0  0  0  0  0  0  0
   -2.2658   -4.6240    0.7369 H   0  0  0  0  0  0  0  0  0  0  0  0
   -4.0670   -2.6504    0.2459 C   0  0  0  0  0  0  0  0  0  0  0  0
   -4.2511   -2.3297    1.2932 H   0  0  0  0  0  0  0  0  0  0  0  0
   -4.4531   -3.6841    0.1624 H   0  0  0  0  0  0  0  0  0  0  0  0
   -4.6797   -2.0325   -0.4434 H   0  0  0  0  0  0  0  0  0  0  0  0
   -2.4138   -3.0899   -1.5893 C   0  0  0  0  0  0  0  0  0  0  0  0
   -2.9229   -2.3909   -2.2829 H   0  0  0  0  0  0  0  0  0  0  0  0
   -2.8717   -4.0912   -1.7158 H   0  0  0  0  0  0  0  0  0  0  0  0
   -1.3511   -3.1680   -1.8902 H   0  0  0  0  0  0  0  0  0  0  0  0
   -0.2989    0.7862    1.1451 O   0  0  0  0  0  0  0  0  0  0  0  0
    0.2914    1.9777    1.6621 C   0  0  0  0  0  0  0  0  0  0  0  0
   -0.4701    2.4185    2.3299 H   0  0  0  0  0  0  0  0  0  0  0  0
    0.5033    2.6929    0.8427 H   0  0  0  0  0  0  0  0  0  0  0  0
    1.2121    1.7644    2.2362 H   0  0  0  0  0  0  0  0  0  0  0  0
   -2.8140   -0.2188    0.2107 N   0  0  0  0  0  4  0  0  0  0  0  0
   -3.7636   -0.5101    0.4672 H   0  0  0  0  0  0  0  0  0  0  0  0
   -2.6656    1.1762   -0.0263 C   0  0  0  0  0  0  0  0  0  0  0  0
   -3.2530    2.0851    0.8714 C   0  0  0  0  0  0  0  0  0  0  0  0
   -3.7741    1.7111    1.7657 H   0  0  0  0  0  0  0  0  0  0  0  0
   -3.1519    3.4633    0.6307 C   0  0  0  0  0  0  0  0  0  0  0  0
   -3.6106    4.1722    1.3356 H   0  0  0  0  0  0  0  0  0  0  0  0
   -2.4721    3.9356   -0.5030 C   0  0  0  0  0  0  0  0  0  0  0  0
   -2.3985    5.0165   -0.6922 H   0  0  0  0  0  0  0  0  0  0  0  0
   -1.9094    3.0201   -1.4104 C   0  0  0  0  0  0  0  0  0  0  0  0
   -1.4109    3.3853   -2.3214 H   0  0  0  0  0  0  0  0  0  0  0  0
   -2.0075    1.6421   -1.1803 C   0  0  0  0  0  0  0  0  0  0  0  0
   -1.5882    0.9197   -1.8953 H   0  0  0  0  0  0  0  0  0  0  0  0
  1 18  1  0  0  0  0
  2  4  1  0  0  0  0
  2  1  2  0  0  0  0
  3  2  1  0  0  0  0
  4 23  2  0  0  0  0
  5  4  1  0  0  0  0
  5 10  1  0  0  0  0
  5  6  1  0  0  0  0
  6  7  1  0  0  0  0
  8  6  1  0  0  0  0
  9  6  1  0  0  0  0
 10 11  1  0  0  0  0
 12 10  1  0  0  0  0
 13 10  1  0  0  0  0
 14  5  1  0  0  0  0
 15 14  1  0  0  0  0
 16 14  1  0  0  0  0
 17 14  1  0  0  0  0
 18 19  1  0  0  0  0
 19 22  1  0  0  0  0
 19 20  1  0  0  0  0
 21 19  1  0  0  0  0
 23 24  1  0  0  0  0
 25 23  1  0  0  0  0
 25 26  1  0  0  0  0
 26 27  1  0  0  0  0
 28 26  2  0  0  0  0
 28 29  1  0  0  0  0
 30 28  1  0  0  0  0
 31 30  1  0  0  0  0
 32 34  1  0  0  0  0
 32 30  2  0  0  0  0
 33 32  1  0  0  0  0
 34 25  2  0  0  0  0
 35 34  1  0  0  0  0
M  END
