14
 OpenBabel05122313113D

 25 27  0  0  1  0  0  0  0  0999 V2000
    4.6105    0.0325    1.0566 C   0  0  0  0  0  0  0  0  0  0  0  0
    5.0452   -0.1906    2.0432 H   0  0  0  0  0  0  0  0  0  0  0  0
    3.5310    0.5929   -1.4181 N   0  0  0  0  0  0  0  0  0  0  0  0
    1.4795   -0.3371   -0.9000 N   0  0  0  0  0  0  0  0  0  0  0  0
   -0.6801   -1.2840   -0.4648 C   0  0  0  0  0  0  0  0  0  0  0  0
    2.7125   -0.0438   -0.5030 C   0  0  1  0  0  3  0  0  0  0  0  0
   -1.2738   -0.7756   -1.6861 C   0  0  0  0  0  0  0  0  0  0  0  0
   -0.7268   -0.2578   -2.4809 H   0  0  0  0  0  0  0  0  0  0  0  0
    0.6617   -0.9640   -0.0229 C   0  0  0  0  0  0  0  0  0  0  0  0
   -2.9615   -1.7462   -0.4113 C   0  0  0  0  0  0  0  0  0  0  0  0
   -3.9498   -2.0874   -0.0805 H   0  0  0  0  0  0  0  0  0  0  0  0
   -2.6717   -1.0755   -1.6484 C   0  0  0  0  0  0  0  0  0  0  0  0
   -3.4045   -0.8116   -2.4204 H   0  0  0  0  0  0  0  0  0  0  0  0
   -1.7469   -1.8641    0.3375 C   0  0  0  0  0  3  0  0  0  0  0  0
   -1.6502   -2.3390    1.3206 H   0  0  0  0  0  0  0  0  0  0  0  0
    2.3985   -1.0062    1.7006 C   0  0  0  0  0  0  0  0  0  0  0  0
    2.7601   -1.2703    2.7055 H   0  0  0  0  0  0  0  0  0  0  0  0
    3.2776   -0.3385    0.7886 C   0  0  0  0  0  0  0  0  0  0  0  0
    4.8113    0.9485   -1.1675 C   0  0  0  0  0  0  0  0  0  0  0  0
    5.3535    1.4462   -1.9838 H   0  0  0  0  0  0  0  0  0  0  0  0
    5.3815    0.6793    0.0759 C   0  0  0  0  0  0  0  0  0  0  0  0
    6.4218    0.9738    0.2666 H   0  0  0  0  0  0  0  0  0  0  0  0
    1.1171   -1.3117    1.3006 C   0  0  0  0  0  0  0  0  0  0  0  0
    0.4324   -1.8258    1.9880 H   0  0  0  0  0  0  0  0  0  0  0  0
    3.0995    0.7798   -2.3326 H   0  0  0  0  0  0  0  0  0  0  0  0
  1  2  1  0  0  0  0
  3 19  1  0  0  0  0
  3  6  1  0  0  0  0
  4  9  2  0  0  0  0
  5  9  1  0  0  0  0
  5 14  1  0  0  0  0
  6  4  1  6  0  0  0
  6 18  1  0  0  0  0
  7 12  1  0  0  0  0
  7  5  2  0  0  0  0
  8  7  1  0  0  0  0
  9 23  1  0  0  0  0
 10 11  1  0  0  0  0
 10 14  1  0  0  0  0
 12 10  2  0  0  0  0
 13 12  1  0  0  0  0
 14 15  1  0  0  0  0
 16 17  1  0  0  0  0
 18  1  2  0  0  0  0
 18 16  1  0  0  0  0
 19 21  2  0  0  0  0
 20 19  1  0  0  0  0
 21 22  1  0  0  0  0
 21  1  1  0  0  0  0
 23 16  2  0  0  0  0
 23 24  1  0  0  0  0
 25  3  1  0  0  0  0
M  END
