3
 OpenBabel05122313113D

 36 37  0  0  0  0  0  0  0  0999 V2000
   -2.6825   -1.3485   -0.6424 N   0  0  0  0  0  0  0  0  0  0  0  0
   -2.9910    0.5163    0.4604 N   0  0  0  0  0  0  0  0  0  0  0  0
   -2.0284   -0.2901   -0.0768 C   0  0  0  0  0  2  0  0  0  0  0  0
   -4.0601   -1.2295   -0.4640 C   0  0  0  0  0  0  0  0  0  0  0  0
   -4.2609   -0.0127    0.2352 C   0  0  0  0  0  0  0  0  0  0  0  0
   -6.6263   -0.3775    0.1870 C   0  0  0  0  0  0  0  0  0  0  0  0
   -7.6505   -0.0592    0.4310 H   0  0  0  0  0  0  0  0  0  0  0  0
   -6.4258   -1.5946   -0.5018 C   0  0  0  0  0  0  0  0  0  0  0  0
   -7.2971   -2.2054   -0.7807 H   0  0  0  0  0  0  0  0  0  0  0  0
   -5.5474    0.4351    0.5671 C   0  0  0  0  0  0  0  0  0  0  0  0
   -5.7062    1.3834    1.0995 H   0  0  0  0  0  0  0  0  0  0  0  0
   -5.1393   -2.0421   -0.8389 C   0  0  0  0  0  0  0  0  0  0  0  0
   -4.9866   -2.9906   -1.3726 H   0  0  0  0  0  0  0  0  0  0  0  0
   -2.0049   -2.4709   -1.2825 C   0  0  0  0  0  0  0  0  0  0  0  0
   -2.6913   -2.8866   -2.0486 H   0  0  0  0  0  0  0  0  0  0  0  0
   -1.1316   -2.0481   -1.8208 H   0  0  0  0  0  0  0  0  0  0  0  0
   -2.7096    1.7914    1.1116 C   0  0  0  0  0  0  0  0  0  0  0  0
   -3.5216    1.9743    1.8429 H   0  0  0  0  0  0  0  0  0  0  0  0
   -1.7716    1.6541    1.6883 H   0  0  0  0  0  0  0  0  0  0  0  0
   -1.5702   -3.5485   -0.2857 C   0  0  0  0  0  0  0  0  0  0  0  0
   -2.4623   -3.9310    0.2556 H   0  0  0  0  0  0  0  0  0  0  0  0
   -0.9242   -3.0671    0.4807 H   0  0  0  0  0  0  0  0  0  0  0  0
   -2.5765    2.9409    0.1081 C   0  0  0  0  0  0  0  0  0  0  0  0
   -3.5216    3.0344   -0.4715 H   0  0  0  0  0  0  0  0  0  0  0  0
   -1.7870    2.6613   -0.6225 H   0  0  0  0  0  0  0  0  0  0  0  0
   -0.8309   -4.6952   -0.9735 C   0  0  0  0  0  0  0  0  0  0  0  0
   -0.5233   -5.4720   -0.2460 H   0  0  0  0  0  0  0  0  0  0  0  0
    0.0867   -4.3346   -1.4837 H   0  0  0  0  0  0  0  0  0  0  0  0
   -1.4627   -5.1885   -1.7417 H   0  0  0  0  0  0  0  0  0  0  0  0
   -2.2322    4.2823    0.7664 C   0  0  0  0  0  0  0  0  0  0  0  0
   -1.2702    4.1807    1.3170 H   0  0  0  0  0  0  0  0  0  0  0  0
   -2.0400    5.0242   -0.0376 H   0  0  0  0  0  0  0  0  0  0  0  0
   -3.3083    4.8293    1.7086 C   0  0  0  0  0  0  0  0  0  0  0  0
   -3.0347    5.8309    2.0966 H   0  0  0  0  0  0  0  0  0  0  0  0
   -3.4673    4.1741    2.5897 H   0  0  0  0  0  0  0  0  0  0  0  0
   -4.2840    4.9291    1.1876 H   0  0  0  0  0  0  0  0  0  0  0  0
  1  4  1  0  0  0  0
  1  3  1  0  0  0  0
  2 17  1  0  0  0  0
  3  2  1  0  0  0  0
  4  5  1  0  0  0  0
  5  2  1  0  0  0  0
  5 10  2  0  0  0  0
  6  7  1  0  0  0  0
  6 10  1  0  0  0  0
  8  6  2  0  0  0  0
  9  8  1  0  0  0  0
 10 11  1  0  0  0  0
 12  8  1  0  0  0  0
 12  4  2  0  0  0  0
 13 12  1  0  0  0  0
 14  1  1  0  0  0  0
 14 20  1  0  0  0  0
 15 14  1  0  0  0  0
 16 14  1  0  0  0  0
 17 19  1  0  0  0  0
 17 18  1  0  0  0  0
 20 21  1  0  0  0  0
 20 22  1  0  0  0  0
 23 30  1  0  0  0  0
 23 17  1  0  0  0  0
 24 23  1  0  0  0  0
 25 23  1  0  0  0  0
 26 20  1  0  0  0  0
 26 27  1  0  0  0  0
 28 26  1  0  0  0  0
 29 26  1  0  0  0  0
 30 31  1  0  0  0  0
 30 33  1  0  0  0  0
 32 30  1  0  0  0  0
 33 34  1  0  0  0  0
 33 35  1  0  0  0  0
 36 33  1  0  0  0  0
M  END
