4
 OpenBabel05122313113D

 25 26  0  0  0  0  0  0  0  0999 V2000
    5.9184    1.8830   -0.1059 O   0  0  0  0  0  0  0  0  0  0  0  0
    5.1981   -0.3065    0.0509 N   0  0  0  0  0  0  0  0  0  0  0  0
   10.3061   -0.6062   -0.0146 N   0  0  0  0  0  0  0  0  0  0  0  0
   -0.4730   -0.0235    0.0329 C   0  0  0  0  0  1  0  0  0  0  0  0
    0.9564   -0.0758    0.0396 C   0  0  0  0  0  0  0  0  0  0  0  0
    1.6430   -1.3150    0.1777 C   0  0  0  0  0  0  0  0  0  0  0  0
    3.0338   -1.3613    0.1807 C   0  0  0  0  0  0  0  0  0  0  0  0
    3.8016   -0.1784    0.0467 C   0  0  0  0  0  0  0  0  0  0  0  0
    3.1379    1.0634   -0.0899 C   0  0  0  0  0  0  0  0  0  0  0  0
    1.7424    1.1011   -0.0922 C   0  0  0  0  0  0  0  0  0  0  0  0
    6.1627    0.6791   -0.0394 C   0  0  0  0  0  0  0  0  0  0  0  0
    7.5838    0.1681   -0.0351 C   0  0  0  0  0  0  0  0  0  0  0  0
    7.9703   -1.1488   -0.3517 C   0  0  0  0  0  0  0  0  0  0  0  0
    9.3355   -1.4778   -0.3268 C   0  0  0  0  0  0  0  0  0  0  0  0
    9.9332    0.6524    0.2744 C   0  0  0  0  0  0  0  0  0  0  0  0
    8.6016    1.0902    0.2705 C   0  0  0  0  0  0  0  0  0  0  0  0
    5.5416   -1.2586    0.1869 H   0  0  0  0  0  0  0  0  0  0  0  0
    1.0568   -2.2397    0.2810 H   0  0  0  0  0  0  0  0  0  0  0  0
    3.5459   -2.3318    0.2870 H   0  0  0  0  0  0  0  0  0  0  0  0
    3.7363    1.9763   -0.1878 H   0  0  0  0  0  0  0  0  0  0  0  0
    1.2333    2.0713   -0.1998 H   0  0  0  0  0  0  0  0  0  0  0  0
    7.2409   -1.9182   -0.6514 H   0  0  0  0  0  0  0  0  0  0  0  0
    9.6575   -2.5039   -0.5801 H   0  0  0  0  0  0  0  0  0  0  0  0
   10.7454    1.3584    0.5237 H   0  0  0  0  0  0  0  0  0  0  0  0
    8.3275    2.1310    0.4958 H   0  0  0  0  0  0  0  0  0  0  0  0
  1 11  2  0  0  0  0
  2 17  1  0  0  0  0
  3 15  1  0  0  0  0
  4  5  1  0  0  0  0
  5  6  1  0  0  0  0
  6  7  2  0  0  0  0
  6 18  1  0  0  0  0
  7 19  1  0  0  0  0
  8  2  1  0  0  0  0
  8  7  1  0  0  0  0
  9  8  2  0  0  0  0
 10  9  1  0  0  0  0
 10  5  2  0  0  0  0
 11 12  1  0  0  0  0
 11  2  1  0  0  0  0
 12 16  1  0  0  0  0
 13 14  1  0  0  0  0
 13 12  2  0  0  0  0
 14  3  2  0  0  0  0
 15 24  1  0  0  0  0
 16 15  2  0  0  0  0
 16 25  1  0  0  0  0
 20  9  1  0  0  0  0
 21 10  1  0  0  0  0
 22 13  1  0  0  0  0
 23 14  1  0  0  0  0
M  END
