2
 OpenBabel05122313113D

 34 36  0  0  0  0  0  0  0  0999 V2000
    1.1062    0.5743   -1.3006 S   0  0  0  0  0  1  0  0  0  0  0  0
    0.5033   -0.0832    1.5035 C   0  0  0  0  0  3  0  0  0  0  0  0
   -0.0325   -0.2920    2.7958 C   0  0  0  0  0  0  0  0  0  0  0  0
    0.5619    0.2526    3.9461 C   0  0  0  0  0  0  0  0  0  0  0  0
    1.7069    1.0535    3.8236 C   0  0  0  0  0  0  0  0  0  0  0  0
    2.2599    1.2717    2.5530 C   0  0  0  0  0  0  0  0  0  0  0  0
    1.6880    0.6994    1.3982 C   0  0  0  0  0  0  0  0  0  0  0  0
    2.4050    0.8111    0.0535 C   0  0  0  0  0  0  0  0  0  0  0  0
    3.4356   -0.3151   -0.1118 C   0  0  0  0  0  0  0  0  0  0  0  0
    3.7142   -1.2431    0.9090 C   0  0  0  0  0  0  0  0  0  0  0  0
    4.6604   -2.2669    0.7150 C   0  0  0  0  0  0  0  0  0  0  0  0
    5.3512   -2.3742   -0.4990 C   0  0  0  0  0  0  0  0  0  0  0  0
    5.0883   -1.4448   -1.5229 C   0  0  0  0  0  0  0  0  0  0  0  0
    4.1407   -0.4338   -1.3310 C   0  0  0  0  0  0  0  0  0  0  0  0
    3.0458    2.1968   -0.1133 C   0  0  0  0  0  0  0  0  0  0  0  0
    2.2441    3.3228   -0.3963 C   0  0  0  0  0  0  0  0  0  0  0  0
    2.8005    4.6063   -0.4653 C   0  0  0  0  0  0  0  0  0  0  0  0
    4.1763    4.7956   -0.2515 C   0  0  0  0  0  0  0  0  0  0  0  0
    4.9842    3.6863    0.0348 C   0  0  0  0  0  0  0  0  0  0  0  0
    4.4243    2.3995    0.1035 C   0  0  0  0  0  0  0  0  0  0  0  0
   -0.9633   -0.8698    2.9022 H   0  0  0  0  0  0  0  0  0  0  0  0
    0.1121    0.0682    4.9346 H   0  0  0  0  0  0  0  0  0  0  0  0
    2.1727    1.5062    4.7122 H   0  0  0  0  0  0  0  0  0  0  0  0
    3.1675    1.8861    2.4515 H   0  0  0  0  0  0  0  0  0  0  0  0
    3.1860   -1.1655    1.8690 H   0  0  0  0  0  0  0  0  0  0  0  0
    4.8571   -2.9835    1.5278 H   0  0  0  0  0  0  0  0  0  0  0  0
    6.0927   -3.1733   -0.6503 H   0  0  0  0  0  0  0  0  0  0  0  0
    5.6254   -1.5143   -2.4815 H   0  0  0  0  0  0  0  0  0  0  0  0
    3.9219    0.2786   -2.1407 H   0  0  0  0  0  0  0  0  0  0  0  0
    1.1723    3.1642   -0.5865 H   0  0  0  0  0  0  0  0  0  0  0  0
    2.1540    5.4678   -0.6938 H   0  0  0  0  0  0  0  0  0  0  0  0
    4.6155    5.8032   -0.3109 H   0  0  0  0  0  0  0  0  0  0  0  0
    6.0637    3.8179    0.2064 H   0  0  0  0  0  0  0  0  0  0  0  0
    5.0696    1.5392    0.3322 H   0  0  0  0  0  0  0  0  0  0  0  0
  1  8  1  0  0  0  0
  2  3  1  0  0  0  0
  3 21  1  0  0  0  0
  3  4  2  0  0  0  0
  4 22  1  0  0  0  0
  5  4  1  0  0  0  0
  5 23  1  0  0  0  0
  6  5  2  0  0  0  0
  7  2  2  0  0  0  0
  7  6  1  0  0  0  0
  8  7  1  0  0  0  0
  9  8  1  0  0  0  0
  9 10  1  0  0  0  0
 10 25  1  0  0  0  0
 11 10  2  0  0  0  0
 11 26  1  0  0  0  0
 12 11  1  0  0  0  0
 13 14  1  0  0  0  0
 13 12  2  0  0  0  0
 14  9  2  0  0  0  0
 15  8  1  0  0  0  0
 15 20  1  0  0  0  0
 16 15  2  0  0  0  0
 17 16  1  0  0  0  0
 17 18  2  0  0  0  0
 18 19  1  0  0  0  0
 19 20  2  0  0  0  0
 19 33  1  0  0  0  0
 20 34  1  0  0  0  0
 24  6  1  0  0  0  0
 27 12  1  0  0  0  0
 28 13  1  0  0  0  0
 29 14  1  0  0  0  0
 30 16  1  0  0  0  0
 31 17  1  0  0  0  0
 32 18  1  0  0  0  0
M  END
