8
 OpenBabel05122313113D

 30 30  0  0  1  0  0  0  0  0999 V2000
    1.8138    0.8985   -1.0166 C   0  0  0  0  0  0  0  0  0  0  0  0
    1.6248   -0.0571   -2.0558 C   0  0  0  0  0  0  0  0  0  0  0  0
    2.3106   -0.8763   -2.2970 H   0  0  0  0  0  0  0  0  0  0  0  0
    0.3804    0.1966   -2.6833 C   0  0  0  0  0  0  0  0  0  0  0  0
   -0.0674   -0.3913   -3.4922 H   0  0  0  0  0  0  0  0  0  0  0  0
   -0.2125    1.3201   -2.0448 C   0  0  0  0  0  0  0  0  0  0  0  0
   -1.1914    1.7454   -2.2934 H   0  0  0  0  0  0  0  0  0  0  0  0
    0.6603    1.7570   -1.0039 C   0  0  1  0  0  3  0  0  0  0  0  0
    2.9684    0.9538   -0.0553 C   0  0  0  0  0  0  0  0  0  0  0  0
    3.1073    1.9920    0.3083 H   0  0  0  0  0  0  0  0  0  0  0  0
    3.9083    0.6620   -0.5656 H   0  0  0  0  0  0  0  0  0  0  0  0
    2.7450    0.0198    1.1340 C   0  0  0  0  0  0  0  0  0  0  0  0
    2.9149   -1.0439    0.8583 H   0  0  0  0  0  0  0  0  0  0  0  0
    3.4089    0.2833    1.9846 H   0  0  0  0  0  0  0  0  0  0  0  0
    1.3708    0.1689    1.5510 O   0  0  0  0  0  0  0  0  0  0  0  0
    1.1886   -0.0530    2.9556 C   0  0  0  0  0  0  0  0  0  0  0  0
    0.1225    0.1149    3.1791 H   0  0  0  0  0  0  0  0  0  0  0  0
    1.8282    0.6591    3.5208 H   0  0  0  0  0  0  0  0  0  0  0  0
    1.4460   -1.0976    3.2283 H   0  0  0  0  0  0  0  0  0  0  0  0
    0.3671    2.8623   -0.0280 C   0  0  0  0  0  0  0  0  0  0  0  0
    0.5543    3.8615   -0.4790 H   0  0  0  0  0  0  0  0  0  0  0  0
    1.0280    2.7755    0.8565 H   0  0  0  0  0  0  0  0  0  0  0  0
   -1.0854    2.7995    0.4132 C   0  0  0  0  0  0  0  0  0  0  0  0
   -1.2854    3.4901    1.2628 H   0  0  0  0  0  0  0  0  0  0  0  0
   -1.7725    3.0838   -0.4174 H   0  0  0  0  0  0  0  0  0  0  0  0
   -1.3869    1.4559    0.8251 O   0  0  0  0  0  0  0  0  0  0  0  0
   -2.7518    1.3412    1.2613 C   0  0  0  0  0  0  0  0  0  0  0  0
   -2.8768    0.3168    1.6522 H   0  0  0  0  0  0  0  0  0  0  0  0
   -3.4403    1.5104    0.4059 H   0  0  0  0  0  0  0  0  0  0  0  0
   -2.9475    2.0866    2.0615 H   0  0  0  0  0  0  0  0  0  0  0  0
  1  8  1  0  0  0  0
  1  9  1  0  0  0  0
  2  1  2  0  0  0  0
  3  2  1  0  0  0  0
  4  2  1  0  0  0  0
  4  6  2  0  0  0  0
  5  4  1  0  0  0  0
  6  8  1  0  0  0  0
  7  6  1  0  0  0  0
  8 20  1  1  0  0  0
  9 10  1  0  0  0  0
  9 12  1  0  0  0  0
 11  9  1  0  0  0  0
 12 15  1  0  0  0  0
 12 14  1  0  0  0  0
 13 12  1  0  0  0  0
 15 16  1  0  0  0  0
 16 17  1  0  0  0  0
 16 19  1  0  0  0  0
 16 18  1  0  0  0  0
 20 23  1  0  0  0  0
 20 22  1  0  0  0  0
 21 20  1  0  0  0  0
 23 26  1  0  0  0  0
 23 24  1  0  0  0  0
 25 23  1  0  0  0  0
 26 27  1  0  0  0  0
 27 28  1  0  0  0  0
 27 30  1  0  0  0  0
 29 27  1  0  0  0  0
M  END
