1
 OpenBabel05122313113D

 26 27  0  0  0  0  0  0  0  0999 V2000
    0.3578   -0.6933    0.1487 C   0  0  0  0  0  3  0  0  0  0  0  0
    1.6008   -0.5906    0.2057 C   0  0  0  0  0  0  0  0  0  0  0  0
    3.0106   -0.4819    0.2668 C   0  0  0  0  0  0  0  0  0  0  0  0
    3.7869   -0.3424   -0.9273 C   0  0  0  0  0  0  0  0  0  0  0  0
    3.2601   -0.3271   -1.8929 H   0  0  0  0  0  0  0  0  0  0  0  0
    5.1690   -0.2310   -0.8766 C   0  0  0  0  0  0  0  0  0  0  0  0
    5.7761   -0.1240   -1.7867 H   0  0  0  0  0  0  0  0  0  0  0  0
    5.8435   -0.2537    0.3741 C   0  0  0  0  0  0  0  0  0  0  0  0
    5.0851   -0.3940    1.5625 C   0  0  0  0  0  0  0  0  0  0  0  0
    5.6315   -0.4112    2.5173 H   0  0  0  0  0  0  0  0  0  0  0  0
    3.6990   -0.5060    1.5148 C   0  0  0  0  0  0  0  0  0  0  0  0
    3.1131   -0.6160    2.4386 H   0  0  0  0  0  0  0  0  0  0  0  0
    7.2260   -0.1471    0.5328 N   0  0  0  0  0  2  0  0  0  0  0  0
    7.8979   -0.0180   -0.5443 N   0  0  0  0  0  2  0  0  0  0  0  0
    9.2882    0.0868   -0.3544 C   0  0  0  0  0  0  0  0  0  0  0  0
   10.0667    0.2336   -1.5253 C   0  0  0  0  0  0  0  0  0  0  0  0
    9.5404    0.2549   -2.4907 H   0  0  0  0  0  0  0  0  0  0  0  0
   11.4550    0.3469   -1.4483 C   0  0  0  0  0  0  0  0  0  0  0  0
   12.0599    0.4611   -2.3591 H   0  0  0  0  0  0  0  0  0  0  0  0
   12.0958    0.3148   -0.1858 C   0  0  0  0  0  0  0  0  0  0  0  0
   11.3164    0.1665    0.9923 C   0  0  0  0  0  0  0  0  0  0  0  0
   11.8214    0.1418    1.9691 H   0  0  0  0  0  0  0  0  0  0  0  0
    9.9319    0.0541    0.9085 C   0  0  0  0  0  0  0  0  0  0  0  0
    9.3034   -0.0617    1.8024 H   0  0  0  0  0  0  0  0  0  0  0  0
   13.5201    0.4313   -0.0964 C   0  0  0  0  0  0  0  0  0  0  0  0
   14.6891    0.5274   -0.0220 N   0  0  0  0  0  0  0  0  0  0  0  0
  1  2  3  0  0  0  0
  2  3  1  0  0  0  0
  3 11  1  0  0  0  0
  4  6  1  0  0  0  0
  4  3  2  0  0  0  0
  5  4  1  0  0  0  0
  6  8  2  0  0  0  0
  7  6  1  0  0  0  0
  8 13  1  0  0  0  0
  8  9  1  0  0  0  0
  9 10  1  0  0  0  0
 11  9  2  0  0  0  0
 11 12  1  0  0  0  0
 14 15  1  0  0  0  0
 14 13  1  0  0  0  0
 15 23  1  0  0  0  0
 16 18  1  0  0  0  0
 16 15  2  0  0  0  0
 17 16  1  0  0  0  0
 18 20  2  0  0  0  0
 19 18  1  0  0  0  0
 20 25  1  0  0  0  0
 20 21  1  0  0  0  0
 21 22  1  0  0  0  0
 23 21  2  0  0  0  0
 23 24  1  0  0  0  0
 25 26  3  0  0  0  0
M  END
