5
 OpenBabel05122313113D

  9  8  0  0  0  0  0  0  0  0999 V2000
   -2.7679    0.9071   -0.5309 O   0  0  0  0  0  0  0  0  0  0  0  0
   -2.3631   -0.2399   -0.4103 C   0  0  0  0  0  0  0  0  0  0  0  0
   -1.1051   -0.7864   -0.9832 C   0  0  0  0  0  3  0  0  0  0  0  0
   -1.0618   -1.8865   -1.0017 H   0  0  0  0  0  0  0  0  0  0  0  0
   -0.3277   -0.0164   -1.8962 C   0  0  0  0  0  3  0  0  0  0  0  0
   -0.7089    0.9718   -2.1972 H   0  0  0  0  0  0  0  0  0  0  0  0
    0.2977   -0.5272   -2.6430 H   0  0  0  0  0  0  0  0  0  0  0  0
   -3.0468   -1.1867    0.2832 O   0  0  0  0  0  0  0  0  0  0  0  0
   -3.8480   -0.7317    0.6224 H   0  0  0  0  0  0  0  0  0  0  0  0
  1  2  2  0  0  0  0
  2  8  1  0  0  0  0
  3  2  1  0  0  0  0
  4  3  1  0  0  0  0
  5  3  1  0  0  0  0
  6  5  1  0  0  0  0
  7  5  1  0  0  0  0
  8  9  1  0  0  0  0
M  END
