3
 OpenBabel05122313113D

 28 29  0  0  0  0  0  0  0  0999 V2000
   -2.6705    2.6765   -1.4783 Se  0  0  0  0  0  0  0  0  0  0  0  0
   -2.5579   -1.8463   -0.3467 Se  0  0  0  0  0  0  0  0  0  0  0  0
   -0.7539    0.7543   -0.5249 C   0  0  0  0  0  1  0  0  0  0  0  0
   -2.1260    0.9360   -0.8069 C   0  0  0  0  0  0  0  0  0  0  0  0
   -3.0654   -0.0611   -0.7304 C   0  0  0  0  0  0  0  0  0  0  0  0
   -4.1299    0.1184   -0.9511 H   0  0  0  0  0  0  0  0  0  0  0  0
   -4.2955   -2.5300    0.1249 C   0  0  0  0  0  0  0  0  0  0  0  0
   -4.6073   -3.8554   -0.2372 C   0  0  0  0  0  0  0  0  0  0  0  0
   -3.8870   -4.4496   -0.8203 H   0  0  0  0  0  0  0  0  0  0  0  0
   -5.8428   -4.4082    0.1312 C   0  0  0  0  0  0  0  0  0  0  0  0
   -6.0806   -5.4438   -0.1560 H   0  0  0  0  0  0  0  0  0  0  0  0
   -6.7783   -3.6417    0.8448 C   0  0  0  0  0  0  0  0  0  0  0  0
   -7.7505   -4.0748    1.1236 H   0  0  0  0  0  0  0  0  0  0  0  0
   -6.4660   -2.3202    1.2022 C   0  0  0  0  0  0  0  0  0  0  0  0
   -7.1903   -1.7152    1.7688 H   0  0  0  0  0  0  0  0  0  0  0  0
   -5.2243   -1.7650    0.8579 C   0  0  0  0  0  0  0  0  0  0  0  0
   -4.9731   -0.7402    1.1701 H   0  0  0  0  0  0  0  0  0  0  0  0
   -2.1418    3.7082    0.0633 C   0  0  0  0  0  0  0  0  0  0  0  0
   -1.4973    4.9431   -0.1326 C   0  0  0  0  0  0  0  0  0  0  0  0
   -1.2542    5.2800   -1.1516 H   0  0  0  0  0  0  0  0  0  0  0  0
   -1.1454    5.7268    0.9775 C   0  0  0  0  0  0  0  0  0  0  0  0
   -0.6368    6.6905    0.8216 H   0  0  0  0  0  0  0  0  0  0  0  0
   -1.4127    5.2740    2.2781 C   0  0  0  0  0  0  0  0  0  0  0  0
   -1.1175    5.8819    3.1463 H   0  0  0  0  0  0  0  0  0  0  0  0
   -2.0445    4.0339    2.4684 C   0  0  0  0  0  0  0  0  0  0  0  0
   -2.2491    3.6687    3.4866 H   0  0  0  0  0  0  0  0  0  0  0  0
   -2.4194    3.2535    1.3663 C   0  0  0  0  0  0  0  0  0  0  0  0
   -2.9196    2.2844    1.5127 H   0  0  0  0  0  0  0  0  0  0  0  0
  1  4  1  0  0  0  0
  1 18  1  0  0  0  0
  2  7  1  0  0  0  0
  4  5  2  0  0  0  0
  4  3  1  0  0  0  0
  5  2  1  0  0  0  0
  6  5  1  0  0  0  0
  7 16  1  0  0  0  0
  8  7  2  0  0  0  0
  8 10  1  0  0  0  0
  9  8  1  0  0  0  0
 10 12  2  0  0  0  0
 11 10  1  0  0  0  0
 12 13  1  0  0  0  0
 12 14  1  0  0  0  0
 14 15  1  0  0  0  0
 16 17  1  0  0  0  0
 16 14  2  0  0  0  0
 18 27  1  0  0  0  0
 19 18  2  0  0  0  0
 19 21  1  0  0  0  0
 20 19  1  0  0  0  0
 21 23  2  0  0  0  0
 22 21  1  0  0  0  0
 23 25  1  0  0  0  0
 23 24  1  0  0  0  0
 25 26  1  0  0  0  0
 27 28  1  0  0  0  0
 27 25  2  0  0  0  0
M  END
