4
 OpenBabel05122313113D

 78 78  0  0  1  0  0  0  0  0999 V2000
    2.3095   -0.4775   -0.0740 P   0  0  0  0  0  0  0  0  0  0  0  0
   -2.3096   -0.4773   -0.0741 P   0  0  0  0  0  0  0  0  0  0  0  0
    0.0003    5.2487   -0.0316 O   0  0  0  0  0  0  0  0  0  0  0  0
    0.0000    0.1493   -2.0301 C   0  0  0  0  0  3  0  0  0  0  0  0
    0.0001    1.2614   -1.0960 C   0  0  1  0  0  3  0  0  0  0  0  0
    1.2671    1.9698   -0.8390 C   0  0  0  0  0  0  0  0  0  0  0  0
    1.2781    3.2984   -0.4911 C   0  0  0  0  0  0  0  0  0  0  0  0
    0.0003    4.0404   -0.3276 C   0  0  0  0  0  0  0  0  0  0  0  0
   -1.2777    3.2985   -0.4908 C   0  0  0  0  0  0  0  0  0  0  0  0
   -1.2668    1.9699   -0.8388 C   0  0  0  0  0  0  0  0  0  0  0  0
   -2.5353    4.0926   -0.2527 C   0  0  0  0  0  0  0  0  0  0  0  0
    2.5359    4.0925   -0.2535 C   0  0  0  0  0  0  0  0  0  0  0  0
    2.5368    1.1572   -0.9692 C   0  0  0  0  0  0  0  0  0  0  0  0
    2.9222   -0.1239    1.7066 C   0  0  0  0  0  0  0  0  0  0  0  0
    3.4614   -1.6974   -0.9900 C   0  0  0  0  0  0  0  0  0  0  0  0
    4.8135   -1.0836   -1.3882 C   0  0  0  0  0  0  0  0  0  0  0  0
    3.6672   -2.9506   -0.1215 C   0  0  0  0  0  0  0  0  0  0  0  0
    2.6087   -1.3231    2.6201 C   0  0  0  0  0  0  0  0  0  0  0  0
    2.6944   -2.1132   -2.2609 C   0  0  0  0  0  0  0  0  0  0  0  0
    4.4173    0.2195    1.7742 C   0  0  0  0  0  0  0  0  0  0  0  0
    2.0957    1.0785    2.2017 C   0  0  0  0  0  0  0  0  0  0  0  0
   -2.5366    1.1575   -0.9690 C   0  0  0  0  0  0  0  0  0  0  0  0
   -2.9221   -0.1239    1.7066 C   0  0  0  0  0  0  0  0  0  0  0  0
   -3.4619   -1.6968   -0.9902 C   0  0  0  0  0  0  0  0  0  0  0  0
   -2.6950   -2.1126   -2.2612 C   0  0  0  0  0  0  0  0  0  0  0  0
   -3.6678   -2.9502   -0.1218 C   0  0  0  0  0  0  0  0  0  0  0  0
   -4.8139   -1.0828   -1.3881 C   0  0  0  0  0  0  0  0  0  0  0  0
   -2.6095   -1.3234    2.6200 C   0  0  0  0  0  0  0  0  0  0  0  0
   -4.4170    0.2207    1.7744 C   0  0  0  0  0  0  0  0  0  0  0  0
   -2.0946    1.0778    2.2019 C   0  0  0  0  0  0  0  0  0  0  0  0
   -3.2026    4.0952   -1.1387 H   0  0  0  0  0  0  0  0  0  0  0  0
   -2.2532    5.1362   -0.0190 H   0  0  0  0  0  0  0  0  0  0  0  0
   -3.1286    3.6967    0.6004 H   0  0  0  0  0  0  0  0  0  0  0  0
    2.2539    5.1358   -0.0182 H   0  0  0  0  0  0  0  0  0  0  0  0
    3.2020    4.0964   -1.1404 H   0  0  0  0  0  0  0  0  0  0  0  0
    3.1305    3.6956    0.5982 H   0  0  0  0  0  0  0  0  0  0  0  0
    3.4254    1.7041   -0.6040 H   0  0  0  0  0  0  0  0  0  0  0  0
    2.7383    0.9133   -2.0347 H   0  0  0  0  0  0  0  0  0  0  0  0
    4.6970   -0.1985   -2.0448 H   0  0  0  0  0  0  0  0  0  0  0  0
    5.3980   -1.8370   -1.9590 H   0  0  0  0  0  0  0  0  0  0  0  0
    5.4220   -0.7863   -0.5148 H   0  0  0  0  0  0  0  0  0  0  0  0
    2.7007   -3.3499    0.2473 H   0  0  0  0  0  0  0  0  0  0  0  0
    4.3272   -2.7530    0.7450 H   0  0  0  0  0  0  0  0  0  0  0  0
    4.1566   -3.7371   -0.7347 H   0  0  0  0  0  0  0  0  0  0  0  0
    1.5548   -1.6483    2.5232 H   0  0  0  0  0  0  0  0  0  0  0  0
    2.7940   -1.0229    3.6733 H   0  0  0  0  0  0  0  0  0  0  0  0
    3.2456   -2.2000    2.4067 H   0  0  0  0  0  0  0  0  0  0  0  0
    2.5590   -1.2682   -2.9662 H   0  0  0  0  0  0  0  0  0  0  0  0
    1.6963   -2.5228   -2.0074 H   0  0  0  0  0  0  0  0  0  0  0  0
    3.2754   -2.8933   -2.7969 H   0  0  0  0  0  0  0  0  0  0  0  0
    4.6962    1.0494    1.0937 H   0  0  0  0  0  0  0  0  0  0  0  0
    5.0583   -0.6533    1.5445 H   0  0  0  0  0  0  0  0  0  0  0  0
    4.6665    0.5456    2.8066 H   0  0  0  0  0  0  0  0  0  0  0  0
    2.3277    2.0128    1.6591 H   0  0  0  0  0  0  0  0  0  0  0  0
    2.3157    1.2467    3.2768 H   0  0  0  0  0  0  0  0  0  0  0  0
    1.0089    0.8892    2.0958 H   0  0  0  0  0  0  0  0  0  0  0  0
   -2.7383    0.9137   -2.0346 H   0  0  0  0  0  0  0  0  0  0  0  0
   -3.4251    1.7045   -0.6037 H   0  0  0  0  0  0  0  0  0  0  0  0
   -2.5595   -1.2674   -2.9664 H   0  0  0  0  0  0  0  0  0  0  0  0
   -3.2761   -2.8925   -2.7972 H   0  0  0  0  0  0  0  0  0  0  0  0
   -1.6969   -2.5224   -2.0079 H   0  0  0  0  0  0  0  0  0  0  0  0
   -2.7012   -3.3496    0.2470 H   0  0  0  0  0  0  0  0  0  0  0  0
   -4.1570   -3.7366   -0.7352 H   0  0  0  0  0  0  0  0  0  0  0  0
   -4.3278   -2.7527    0.7445 H   0  0  0  0  0  0  0  0  0  0  0  0
   -4.6973   -0.1975   -2.0445 H   0  0  0  0  0  0  0  0  0  0  0  0
   -5.4223   -0.7856   -0.5145 H   0  0  0  0  0  0  0  0  0  0  0  0
   -5.3986   -1.8360   -1.9591 H   0  0  0  0  0  0  0  0  0  0  0  0
   -1.5561   -1.6500    2.5223 H   0  0  0  0  0  0  0  0  0  0  0  0
   -3.2478   -2.1995    2.4071 H   0  0  0  0  0  0  0  0  0  0  0  0
   -2.7937   -1.0230    3.6732 H   0  0  0  0  0  0  0  0  0  0  0  0
   -5.0586   -0.6516    1.5445 H   0  0  0  0  0  0  0  0  0  0  0  0
   -4.6953    1.0510    1.0942 H   0  0  0  0  0  0  0  0  0  0  0  0
   -4.6659    0.5467    2.8070 H   0  0  0  0  0  0  0  0  0  0  0  0
   -1.0080    0.8875    2.0963 H   0  0  0  0  0  0  0  0  0  0  0  0
   -2.3148    1.2463    3.2770 H   0  0  0  0  0  0  0  0  0  0  0  0
   -2.3255    2.0124    1.6592 H   0  0  0  0  0  0  0  0  0  0  0  0
    0.9096   -0.0430   -2.6203 H   0  0  0  0  0  0  0  0  0  0  0  0
   -0.9097   -0.0429   -2.6203 H   0  0  0  0  0  0  0  0  0  0  0  0
  1 14  1  0  0  0  0
  2 23  1  0  0  0  0
  5  4  1  6  0  0  0
  5  6  1  0  0  0  0
  5 10  1  0  0  0  0
  6  7  2  0  0  0  0
  7  8  1  0  0  0  0
  7 12  1  0  0  0  0
  8  3  2  0  0  0  0
  9  8  1  0  0  0  0
  9 11  1  0  0  0  0
 10  9  2  0  0  0  0
 11 32  1  0  0  0  0
 11 33  1  0  0  0  0
 12 34  1  0  0  0  0
 12 36  1  0  0  0  0
 13  6  1  0  0  0  0
 13 37  1  0  0  0  0
 13  1  1  0  0  0  0
 14 20  1  0  0  0  0
 14 21  1  0  0  0  0
 14 18  1  0  0  0  0
 15 17  1  0  0  0  0
 15  1  1  0  0  0  0
 16 15  1  0  0  0  0
 16 41  1  0  0  0  0
 17 42  1  0  0  0  0
 17 43  1  0  0  0  0
 18 46  1  0  0  0  0
 19 49  1  0  0  0  0
 19 15  1  0  0  0  0
 20 53  1  0  0  0  0
 21 55  1  0  0  0  0
 22 10  1  0  0  0  0
 22 58  1  0  0  0  0
 22  2  1  0  0  0  0
 23 29  1  0  0  0  0
 23 30  1  0  0  0  0
 23 28  1  0  0  0  0
 24 26  1  0  0  0  0
 24  2  1  0  0  0  0
 25 61  1  0  0  0  0
 25 24  1  0  0  0  0
 26 62  1  0  0  0  0
 26 64  1  0  0  0  0
 27 24  1  0  0  0  0
 27 66  1  0  0  0  0
 28 70  1  0  0  0  0
 29 73  1  0  0  0  0
 30 75  1  0  0  0  0
 31 11  1  0  0  0  0
 35 12  1  0  0  0  0
 38 13  1  0  0  0  0
 39 16  1  0  0  0  0
 40 16  1  0  0  0  0
 44 17  1  0  0  0  0
 45 18  1  0  0  0  0
 47 18  1  0  0  0  0
 48 19  1  0  0  0  0
 50 19  1  0  0  0  0
 51 20  1  0  0  0  0
 52 20  1  0  0  0  0
 54 21  1  0  0  0  0
 56 21  1  0  0  0  0
 57 22  1  0  0  0  0
 59 25  1  0  0  0  0
 60 25  1  0  0  0  0
 63 26  1  0  0  0  0
 65 27  1  0  0  0  0
 67 27  1  0  0  0  0
 68 28  1  0  0  0  0
 69 28  1  0  0  0  0
 71 29  1  0  0  0  0
 72 29  1  0  0  0  0
 74 30  1  0  0  0  0
 76 30  1  0  0  0  0
 77  4  1  0  0  0  0
 78  4  1  0  0  0  0
M  END
