4
 OpenBabel05122313113D

 19 19  0  0  0  0  0  0  0  0999 V2000
   -2.8309   -0.6255    0.0225 N   0  0  0  0  0  0  0  0  0  0  0  0
   -2.9531    0.4071   -0.0047 H   0  0  0  0  0  0  0  0  0  0  0  0
   -5.1752   -0.8553    0.0599 N   0  0  0  0  0  0  0  0  0  0  0  0
   -1.4978   -1.0224    0.0278 C   0  0  0  0  0  2  0  0  0  0  0  0
   -1.3052   -2.4344    0.0580 C   0  0  0  0  0  0  0  0  0  0  0  0
   -0.2757   -2.8143    0.0620 H   0  0  0  0  0  0  0  0  0  0  0  0
   -2.3926   -3.3038    0.0759 C   0  0  0  0  0  0  0  0  0  0  0  0
   -2.2204   -4.3919    0.0923 H   0  0  0  0  0  0  0  0  0  0  0  0
   -3.7210   -2.8332    0.0699 C   0  0  0  0  0  0  0  0  0  0  0  0
   -4.5650   -3.5303    0.0786 H   0  0  0  0  0  0  0  0  0  0  0  0
   -3.9337   -1.4422    0.0508 C   0  0  0  0  0  0  0  0  0  0  0  0
   -5.3129    0.5849   -0.0816 C   0  0  0  0  0  0  0  0  0  0  0  0
   -4.7473    1.1326    0.7012 H   0  0  0  0  0  0  0  0  0  0  0  0
   -6.3779    0.8560    0.0255 H   0  0  0  0  0  0  0  0  0  0  0  0
   -4.9586    0.9554   -1.0700 H   0  0  0  0  0  0  0  0  0  0  0  0
   -6.3500   -1.7051    0.0147 C   0  0  0  0  0  0  0  0  0  0  0  0
   -6.4123   -2.2960   -0.9279 H   0  0  0  0  0  0  0  0  0  0  0  0
   -7.2547   -1.0756    0.0876 H   0  0  0  0  0  0  0  0  0  0  0  0
   -6.3642   -2.4206    0.8647 H   0  0  0  0  0  0  0  0  0  0  0  0
  1  4  1  0  0  0  0
  1 11  1  0  0  0  0
  2  1  1  0  0  0  0
  4  5  1  0  0  0  0
  5  6  1  0  0  0  0
  5  7  2  0  0  0  0
  7  8  1  0  0  0  0
  9  7  1  0  0  0  0
  9 10  1  0  0  0  0
 11  3  1  0  0  0  0
 11  9  2  0  0  0  0
 12 14  1  0  0  0  0
 12  3  1  0  0  0  0
 12 13  1  0  0  0  0
 15 12  1  0  0  0  0
 16  3  1  0  0  0  0
 16 18  1  0  0  0  0
 16 19  1  0  0  0  0
 17 16  1  0  0  0  0
M  END
