1
 OpenBabel05122313113D

 34 35  0  0  0  0  0  0  0  0999 V2000
    2.2805    1.0212    0.6943 C   0  0  0  0  0  3  0  0  0  0  0  0
    2.1894    1.0374    2.2350 C   0  0  0  0  0  0  0  0  0  0  0  0
    2.5077    0.0608    2.6535 H   0  0  0  0  0  0  0  0  0  0  0  0
    2.8886    1.8206    2.5931 H   0  0  0  0  0  0  0  0  0  0  0  0
    0.7667    1.3738    2.7228 C   0  0  0  0  0  0  0  0  0  0  0  0
    0.7834    1.5007    3.8258 H   0  0  0  0  0  0  0  0  0  0  0  0
    0.4643    2.3585    2.3039 H   0  0  0  0  0  0  0  0  0  0  0  0
   -0.2937    0.3205    2.3721 C   0  0  0  0  0  0  0  0  0  0  0  0
   -1.2967    0.6135    2.7447 H   0  0  0  0  0  0  0  0  0  0  0  0
   -0.0320   -0.6577    2.8254 H   0  0  0  0  0  0  0  0  0  0  0  0
    2.7889    1.9981    0.1487 O   0  0  0  0  0  0  0  0  0  0  0  0
   -0.3817    0.0742    0.5345 P   0  0  0  0  0  0  0  0  0  0  0  0
   -1.2207    1.6321    0.0057 C   0  0  0  0  0  0  0  0  0  0  0  0
   -0.4713    2.6307   -0.6473 C   0  0  0  0  0  0  0  0  0  0  0  0
    0.5955    2.4614   -0.8524 H   0  0  0  0  0  0  0  0  0  0  0  0
   -1.0745    3.8508   -0.9939 C   0  0  0  0  0  0  0  0  0  0  0  0
   -0.4792    4.6268   -1.4985 H   0  0  0  0  0  0  0  0  0  0  0  0
   -2.4253    4.0818   -0.6940 C   0  0  0  0  0  0  0  0  0  0  0  0
   -2.8970    5.0373   -0.9699 H   0  0  0  0  0  0  0  0  0  0  0  0
   -3.1744    3.0934   -0.0332 C   0  0  0  0  0  0  0  0  0  0  0  0
   -4.2328    3.2727    0.2103 H   0  0  0  0  0  0  0  0  0  0  0  0
   -2.5757    1.8757    0.3194 C   0  0  0  0  0  0  0  0  0  0  0  0
   -3.1690    1.1049    0.8355 H   0  0  0  0  0  0  0  0  0  0  0  0
   -1.6589   -1.2301    0.2769 C   0  0  0  0  0  0  0  0  0  0  0  0
   -2.5467   -1.1683   -0.8184 C   0  0  0  0  0  0  0  0  0  0  0  0
   -2.5618   -0.2765   -1.4631 H   0  0  0  0  0  0  0  0  0  0  0  0
   -3.4212   -2.2321   -1.0873 C   0  0  0  0  0  0  0  0  0  0  0  0
   -4.1094   -2.1675   -1.9439 H   0  0  0  0  0  0  0  0  0  0  0  0
   -3.4208   -3.3717   -0.2678 C   0  0  0  0  0  0  0  0  0  0  0  0
   -4.1085   -4.2047   -0.4779 H   0  0  0  0  0  0  0  0  0  0  0  0
   -2.5340   -3.4450    0.8185 C   0  0  0  0  0  0  0  0  0  0  0  0
   -2.5211   -4.3377    1.4622 H   0  0  0  0  0  0  0  0  0  0  0  0
   -1.6539   -2.3865    1.0860 C   0  0  0  0  0  0  0  0  0  0  0  0
   -0.9430   -2.4775    1.9207 H   0  0  0  0  0  0  0  0  0  0  0  0
  1  2  1  0  0  0  0
  2  4  1  0  0  0  0
  2  3  1  0  0  0  0
  2  5  1  0  0  0  0
  5  6  1  0  0  0  0
  7  5  1  0  0  0  0
  8  5  1  0  0  0  0
  8  9  1  0  0  0  0
  8 10  1  0  0  0  0
 11  1  2  0  0  0  0
 12  8  1  0  0  0  0
 13 22  1  0  0  0  0
 13 12  1  0  0  0  0
 14 13  2  0  0  0  0
 15 14  1  0  0  0  0
 16 18  2  0  0  0  0
 16 14  1  0  0  0  0
 17 16  1  0  0  0  0
 18 20  1  0  0  0  0
 19 18  1  0  0  0  0
 20 21  1  0  0  0  0
 20 22  2  0  0  0  0
 22 23  1  0  0  0  0
 24 12  1  0  0  0  0
 24 33  1  0  0  0  0
 25 24  2  0  0  0  0
 26 25  1  0  0  0  0
 27 25  1  0  0  0  0
 27 29  2  0  0  0  0
 28 27  1  0  0  0  0
 29 31  1  0  0  0  0
 30 29  1  0  0  0  0
 31 33  2  0  0  0  0
 31 32  1  0  0  0  0
 33 34  1  0  0  0  0
M  END
