1
 OpenBabel05122313113D

 19 19  0  0  0  0  0  0  0  0999 V2000
   -0.4188   -1.2793    0.3049 C   0  0  0  0  0  3  0  0  0  0  0  0
   -0.8103   -2.2854    0.5544 H   0  0  0  0  0  0  0  0  0  0  0  0
    0.9405   -1.2097    0.2815 C   0  0  0  0  0  0  0  0  0  0  0  0
    1.5007   -2.1327    0.5081 H   0  0  0  0  0  0  0  0  0  0  0  0
    1.7373    0.0025   -0.0100 C   0  0  0  0  0  0  0  0  0  0  0  0
    1.2379    1.1216   -0.2428 O   0  0  0  0  0  0  0  0  0  0  0  0
    3.1073   -0.1342   -0.0119 N   0  0  0  0  0  0  0  0  0  0  0  0
    3.8873   -1.3514    0.2291 C   0  0  0  0  0  0  0  0  0  0  0  0
    3.8006   -1.6813    1.2907 H   0  0  0  0  0  0  0  0  0  0  0  0
    3.5421   -2.1923   -0.4075 H   0  0  0  0  0  0  0  0  0  0  0  0
    5.3259   -0.9229   -0.1022 C   0  0  0  0  0  0  0  0  0  0  0  0
    6.0830   -1.5201    0.4427 H   0  0  0  0  0  0  0  0  0  0  0  0
    5.5156   -1.0518   -1.1888 H   0  0  0  0  0  0  0  0  0  0  0  0
    5.3356    0.5702    0.2567 C   0  0  0  0  0  0  0  0  0  0  0  0
    6.1675    1.1309   -0.2118 H   0  0  0  0  0  0  0  0  0  0  0  0
    5.4213    0.6972    1.3568 H   0  0  0  0  0  0  0  0  0  0  0  0
    3.9571    1.0415   -0.2196 C   0  0  0  0  0  0  0  0  0  0  0  0
    3.9675    1.3316   -1.2958 H   0  0  0  0  0  0  0  0  0  0  0  0
    3.5471    1.9081    0.3359 H   0  0  0  0  0  0  0  0  0  0  0  0
  1  2  1  0  0  0  0
  3  1  2  0  0  0  0
  3  4  1  0  0  0  0
  5  3  1  0  0  0  0
  6  5  2  0  0  0  0
  7  5  1  0  0  0  0
  7  8  1  0  0  0  0
  8  9  1  0  0  0  0
 10  8  1  0  0  0  0
 11  8  1  0  0  0  0
 11 14  1  0  0  0  0
 11 12  1  0  0  0  0
 13 11  1  0  0  0  0
 14 16  1  0  0  0  0
 15 14  1  0  0  0  0
 17  7  1  0  0  0  0
 17 14  1  0  0  0  0
 17 19  1  0  0  0  0
 18 17  1  0  0  0  0
M  END
