3
 OpenBabel05122313113D

 27 28  0  0  0  0  0  0  0  0999 V2000
   -2.4433   -0.4953    0.0887 N   0  0  0  0  0  0  0  0  0  0  0  0
   -1.4304   -2.8053   -0.0515 S   0  0  0  0  0  0  0  0  0  0  0  0
   -1.1948   -1.0638    0.0049 C   0  0  0  0  0  2  0  0  0  0  0  0
   -3.5531   -1.3624    0.1396 C   0  0  0  0  0  0  0  0  0  0  0  0
   -3.1830   -2.6792    0.0509 C   0  0  0  0  0  0  0  0  0  0  0  0
   -4.9215   -0.7990    0.3516 C   0  0  0  0  0  0  0  0  0  0  0  0
   -4.0309   -3.9099    0.0745 C   0  0  0  0  0  0  0  0  0  0  0  0
   -2.5881    0.9398    0.1333 C   0  0  0  0  0  0  0  0  0  0  0  0
   -2.2632    1.6109    1.3232 C   0  0  0  0  0  0  0  0  0  0  0  0
   -2.3694    3.0080    1.3825 C   0  0  0  0  0  0  0  0  0  0  0  0
   -2.8152    3.7153    0.2567 C   0  0  0  0  0  0  0  0  0  0  0  0
   -3.1370    3.0302   -0.9244 C   0  0  0  0  0  0  0  0  0  0  0  0
   -3.0221    1.6303   -1.0230 C   0  0  0  0  0  0  0  0  0  0  0  0
   -3.2471    0.9201   -2.3289 C   0  0  0  0  0  0  0  0  0  0  0  0
   -5.6671   -1.6106    0.4293 H   0  0  0  0  0  0  0  0  0  0  0  0
   -5.2303   -0.1232   -0.4716 H   0  0  0  0  0  0  0  0  0  0  0  0
   -4.9590   -0.2018    1.2860 H   0  0  0  0  0  0  0  0  0  0  0  0
   -5.1027   -3.6494    0.1645 H   0  0  0  0  0  0  0  0  0  0  0  0
   -3.7698   -4.5704    0.9278 H   0  0  0  0  0  0  0  0  0  0  0  0
   -3.9072   -4.5080   -0.8526 H   0  0  0  0  0  0  0  0  0  0  0  0
   -1.8936    1.0277    2.1791 H   0  0  0  0  0  0  0  0  0  0  0  0
   -2.1049    3.5375    2.3097 H   0  0  0  0  0  0  0  0  0  0  0  0
   -2.9069    4.8115    0.2930 H   0  0  0  0  0  0  0  0  0  0  0  0
   -3.4666    3.5948   -1.8105 H   0  0  0  0  0  0  0  0  0  0  0  0
   -3.8164   -0.0237   -2.2188 H   0  0  0  0  0  0  0  0  0  0  0  0
   -2.2557    0.6524   -2.7551 H   0  0  0  0  0  0  0  0  0  0  0  0
   -3.7759    1.5693   -3.0521 H   0  0  0  0  0  0  0  0  0  0  0  0
  1  8  1  0  0  0  0
  1  4  1  0  0  0  0
  2  3  1  0  0  0  0
  2  5  1  0  0  0  0
  3  1  1  0  0  0  0
  4  6  1  0  0  0  0
  5  7  1  0  0  0  0
  5  4  2  0  0  0  0
  6 15  1  0  0  0  0
  6 17  1  0  0  0  0
  7 18  1  0  0  0  0
  7 19  1  0  0  0  0
  8  9  1  0  0  0  0
  9 10  2  0  0  0  0
  9 21  1  0  0  0  0
 10 22  1  0  0  0  0
 11 23  1  0  0  0  0
 11 10  1  0  0  0  0
 12 11  2  0  0  0  0
 13 12  1  0  0  0  0
 13  8  2  0  0  0  0
 14 25  1  0  0  0  0
 14 13  1  0  0  0  0
 16  6  1  0  0  0  0
 20  7  1  0  0  0  0
 24 12  1  0  0  0  0
 26 14  1  0  0  0  0
 27 14  1  0  0  0  0
M  END
