3
 OpenBabel05122313113D

 24 25  0  0  0  0  0  0  0  0999 V2000
   -1.5688   -2.7109    0.3512 S   0  0  0  0  0  0  0  0  0  0  0  0
   -2.5621   -0.4177   -0.0259 N   0  0  0  0  0  0  0  0  0  0  0  0
   -1.3164   -0.9923    0.0876 C   0  0  0  0  0  2  0  0  0  0  0  0
   -3.6822   -1.2678    0.0750 C   0  0  0  0  0  0  0  0  0  0  0  0
   -3.3212   -2.5758    0.2698 C   0  0  0  0  0  0  0  0  0  0  0  0
   -5.0624   -0.6962    0.0139 C   0  0  0  0  0  0  0  0  0  0  0  0
   -4.1827   -3.7864    0.4314 C   0  0  0  0  0  0  0  0  0  0  0  0
   -2.6829    1.0079   -0.1888 C   0  0  0  0  0  0  0  0  0  0  0  0
   -2.2802    1.8525    0.8590 C   0  0  0  0  0  0  0  0  0  0  0  0
   -2.3467    3.2439    0.6827 C   0  0  0  0  0  0  0  0  0  0  0  0
   -2.8292    3.7821   -0.5193 C   0  0  0  0  0  0  0  0  0  0  0  0
   -3.2373    2.9273   -1.5572 C   0  0  0  0  0  0  0  0  0  0  0  0
   -3.1570    1.5383   -1.3995 C   0  0  0  0  0  0  0  0  0  0  0  0
   -5.8109   -1.4699    0.2631 H   0  0  0  0  0  0  0  0  0  0  0  0
   -5.3069   -0.2944   -0.9906 H   0  0  0  0  0  0  0  0  0  0  0  0
   -5.1767    0.1422    0.7313 H   0  0  0  0  0  0  0  0  0  0  0  0
   -5.2552   -3.5133    0.4218 H   0  0  0  0  0  0  0  0  0  0  0  0
   -3.9749   -4.3099    1.3880 H   0  0  0  0  0  0  0  0  0  0  0  0
   -4.0158   -4.5191   -0.3861 H   0  0  0  0  0  0  0  0  0  0  0  0
   -1.8839    1.4129    1.7864 H   0  0  0  0  0  0  0  0  0  0  0  0
   -2.0187    3.9082    1.4963 H   0  0  0  0  0  0  0  0  0  0  0  0
   -2.8803    4.8730   -0.6541 H   0  0  0  0  0  0  0  0  0  0  0  0
   -3.5961    3.3463   -2.5091 H   0  0  0  0  0  0  0  0  0  0  0  0
   -3.4158    0.8595   -2.2238 H   0  0  0  0  0  0  0  0  0  0  0  0
  2  4  1  0  0  0  0
  2  3  1  0  0  0  0
  3  1  1  0  0  0  0
  4  5  2  0  0  0  0
  5  1  1  0  0  0  0
  5  7  1  0  0  0  0
  6  4  1  0  0  0  0
  6 14  1  0  0  0  0
  6 16  1  0  0  0  0
  7 18  1  0  0  0  0
  8  2  1  0  0  0  0
  8  9  1  0  0  0  0
  9 20  1  0  0  0  0
 10  9  2  0  0  0  0
 10 21  1  0  0  0  0
 11 10  1  0  0  0  0
 12 13  1  0  0  0  0
 12 11  2  0  0  0  0
 13  8  2  0  0  0  0
 15  6  1  0  0  0  0
 17  7  1  0  0  0  0
 19  7  1  0  0  0  0
 22 11  1  0  0  0  0
 23 12  1  0  0  0  0
 24 13  1  0  0  0  0
M  END
