3
 OpenBabel05122313113D

 36 37  0  0  0  0  0  0  0  0999 V2000
    0.9163    2.7402   -0.6226 S   0  0  0  0  0  0  0  0  0  0  0  0
    2.2021    0.6327   -0.0886 N   0  0  0  0  0  0  0  0  0  0  0  0
    0.8920    1.0291   -0.2191 C   0  0  0  0  0  2  0  0  0  0  0  0
    3.1966    1.6223   -0.2417 C   0  0  0  0  0  0  0  0  0  0  0  0
    2.6668    2.8548   -0.5282 C   0  0  0  0  0  0  0  0  0  0  0  0
    4.6395    1.2554   -0.1000 C   0  0  0  0  0  0  0  0  0  0  0  0
    3.3615    4.1570   -0.7658 C   0  0  0  0  0  0  0  0  0  0  0  0
    2.5670   -0.7266    0.2407 C   0  0  0  0  0  0  0  0  0  0  0  0
    2.8445   -1.0193    1.5979 C   0  0  0  0  0  0  0  0  0  0  0  0
    3.2343   -2.3322    1.9110 C   0  0  0  0  0  0  0  0  0  0  0  0
    3.3297   -3.3113    0.9122 C   0  0  0  0  0  0  0  0  0  0  0  0
    3.0239   -2.9973   -0.4160 C   0  0  0  0  0  0  0  0  0  0  0  0
    2.6321   -1.6941   -0.7861 C   0  0  0  0  0  0  0  0  0  0  0  0
    2.6555    0.0490    2.6563 C   0  0  0  0  0  0  0  0  0  0  0  0
    2.6457   -0.4436    4.1006 C   0  0  0  0  0  0  0  0  0  0  0  0
    2.2985   -1.3883   -2.2313 C   0  0  0  0  0  0  0  0  0  0  0  0
    3.3720   -0.6049   -3.0008 C   0  0  0  0  0  0  0  0  0  0  0  0
    5.2819    2.1272   -0.3203 H   0  0  0  0  0  0  0  0  0  0  0  0
    4.9159    0.4357   -0.7925 H   0  0  0  0  0  0  0  0  0  0  0  0
    4.8765    0.9012    0.9237 H   0  0  0  0  0  0  0  0  0  0  0  0
    4.4603    4.0351   -0.7168 H   0  0  0  0  0  0  0  0  0  0  0  0
    3.0730    4.9179   -0.0105 H   0  0  0  0  0  0  0  0  0  0  0  0
    3.1122    4.5755   -1.7633 H   0  0  0  0  0  0  0  0  0  0  0  0
    3.4427   -2.6016    2.9555 H   0  0  0  0  0  0  0  0  0  0  0  0
    3.6299   -4.3363    1.1784 H   0  0  0  0  0  0  0  0  0  0  0  0
    3.0787   -3.7738   -1.1948 H   0  0  0  0  0  0  0  0  0  0  0  0
    1.6908    0.5538    2.4412 H   0  0  0  0  0  0  0  0  0  0  0  0
    3.4350    0.8349    2.5340 H   0  0  0  0  0  0  0  0  0  0  0  0
    1.8415   -1.1915    4.2513 H   0  0  0  0  0  0  0  0  0  0  0  0
    2.4555    0.3993    4.7937 H   0  0  0  0  0  0  0  0  0  0  0  0
    3.6093   -0.9050    4.3994 H   0  0  0  0  0  0  0  0  0  0  0  0
    1.3384   -0.8345   -2.2980 H   0  0  0  0  0  0  0  0  0  0  0  0
    2.1229   -2.3566   -2.7440 H   0  0  0  0  0  0  0  0  0  0  0  0
    3.4793    0.4289   -2.6173 H   0  0  0  0  0  0  0  0  0  0  0  0
    3.0937   -0.5241   -4.0707 H   0  0  0  0  0  0  0  0  0  0  0  0
    4.3629   -1.1011   -2.9428 H   0  0  0  0  0  0  0  0  0  0  0  0
  1  5  1  0  0  0  0
  1  3  1  0  0  0  0
  2  8  1  0  0  0  0
  3  2  1  0  0  0  0
  4  6  1  0  0  0  0
  4  2  1  0  0  0  0
  5  4  2  0  0  0  0
  6 20  1  0  0  0  0
  7 21  1  0  0  0  0
  7  5  1  0  0  0  0
  7 22  1  0  0  0  0
  8  9  1  0  0  0  0
  9 10  2  0  0  0  0
  9 14  1  0  0  0  0
 10 24  1  0  0  0  0
 11 25  1  0  0  0  0
 11 10  1  0  0  0  0
 12 11  2  0  0  0  0
 13 12  1  0  0  0  0
 13  8  2  0  0  0  0
 14 15  1  0  0  0  0
 15 29  1  0  0  0  0
 15 31  1  0  0  0  0
 15 30  1  0  0  0  0
 16 13  1  0  0  0  0
 17 36  1  0  0  0  0
 17 34  1  0  0  0  0
 17 16  1  0  0  0  0
 18  6  1  0  0  0  0
 19  6  1  0  0  0  0
 23  7  1  0  0  0  0
 26 12  1  0  0  0  0
 27 14  1  0  0  0  0
 28 14  1  0  0  0  0
 32 16  1  0  0  0  0
 33 16  1  0  0  0  0
 35 17  1  0  0  0  0
M  END
