8
 OpenBabel05122313113D

 30 30  0  0  0  0  0  0  0  0999 V2000
    0.3172   -2.4131   -0.0584 O   0  0  0  0  0  0  0  0  0  0  0  0
   -8.0263   -0.2325   -1.1680 F   0  0  0  0  0  0  0  0  0  0  0  0
   -5.5406    0.5317    0.0256 O   0  0  0  0  0  0  0  0  0  0  0  0
   -8.0706   -0.3700    1.0071 F   0  0  0  0  0  0  0  0  0  0  0  0
   -5.2300   -1.7683   -0.1185 N   0  0  0  0  0  0  0  0  0  0  0  0
   -5.7726   -2.6324   -0.1856 H   0  0  0  0  0  0  0  0  0  0  0  0
   -7.8171   -2.1808   -0.1945 F   0  0  0  0  0  0  0  0  0  0  0  0
   -0.6170    0.0731    0.0610 C   0  0  0  0  0  2  0  0  0  0  0  0
   -1.0721    1.0740    0.1409 H   0  0  0  0  0  0  0  0  0  0  0  0
   -1.5538   -1.0324   -0.0036 C   0  0  0  0  0  0  0  0  0  0  0  0
   -2.9475   -0.8209   -0.0186 C   0  0  0  0  0  0  0  0  0  0  0  0
   -3.3409    0.2015    0.0307 H   0  0  0  0  0  0  0  0  0  0  0  0
   -3.8255   -1.9166   -0.1001 C   0  0  0  0  0  0  0  0  0  0  0  0
   -3.2987   -3.2253   -0.1670 C   0  0  0  0  0  0  0  0  0  0  0  0
   -3.9832   -4.0860   -0.2324 H   0  0  0  0  0  0  0  0  0  0  0  0
   -1.9145   -3.4549   -0.1500 C   0  0  0  0  0  0  0  0  0  0  0  0
   -1.5372   -4.4841   -0.2030 H   0  0  0  0  0  0  0  0  0  0  0  0
   -1.0433   -2.3598   -0.0677 C   0  0  0  0  0  0  0  0  0  0  0  0
   -5.9589   -0.6164   -0.0577 C   0  0  0  0  0  0  0  0  0  0  0  0
   -7.4948   -0.8553   -0.1042 C   0  0  0  0  0  0  0  0  0  0  0  0
    1.0504   -3.6731    0.0594 C   0  0  0  0  0  0  0  0  0  0  0  0
    0.5906   -4.3727   -0.6736 H   0  0  0  0  0  0  0  0  0  0  0  0
    0.9322   -4.2094    1.4813 C   0  0  0  0  0  0  0  0  0  0  0  0
    1.3644   -3.4725    2.1863 H   0  0  0  0  0  0  0  0  0  0  0  0
    1.4829   -5.1674    1.5669 H   0  0  0  0  0  0  0  0  0  0  0  0
   -0.1211   -4.3908    1.7708 H   0  0  0  0  0  0  0  0  0  0  0  0
    2.4843   -3.3772   -0.3550 C   0  0  0  0  0  0  0  0  0  0  0  0
    2.5193   -2.9199   -1.3619 H   0  0  0  0  0  0  0  0  0  0  0  0
    3.0665   -4.3201   -0.3610 H   0  0  0  0  0  0  0  0  0  0  0  0
    2.9598   -2.6793    0.3643 H   0  0  0  0  0  0  0  0  0  0  0  0
  1 21  1  0  0  0  0
  2 20  1  0  0  0  0
  5 13  1  0  0  0  0
  5 19  1  0  0  0  0
  6  5  1  0  0  0  0
  7 20  1  0  0  0  0
  8  9  1  0  0  0  0
 10  8  1  0  0  0  0
 11 10  1  0  0  0  0
 11 12  1  0  0  0  0
 13 11  2  0  0  0  0
 14 16  2  0  0  0  0
 14 13  1  0  0  0  0
 15 14  1  0  0  0  0
 16 18  1  0  0  0  0
 17 16  1  0  0  0  0
 18  1  1  0  0  0  0
 18 10  2  0  0  0  0
 19  3  2  0  0  0  0
 20 19  1  0  0  0  0
 20  4  1  0  0  0  0
 21 23  1  0  0  0  0
 22 21  1  0  0  0  0
 23 25  1  0  0  0  0
 23 26  1  0  0  0  0
 23 24  1  0  0  0  0
 27 21  1  0  0  0  0
 27 30  1  0  0  0  0
 28 27  1  0  0  0  0
 29 27  1  0  0  0  0
M  END
