6
 OpenBabel05122313113D

 34 37  0  0  1  0  0  0  0  0999 V2000
   -0.9664    1.8586   -0.5220 C   0  0  0  0  0  0  0  0  0  0  0  0
   -2.3274    2.0397   -0.1183 C   0  0  0  0  0  0  0  0  0  0  0  0
   -2.6570    2.5672    0.7815 H   0  0  0  0  0  0  0  0  0  0  0  0
   -3.1750    1.3536   -1.0205 C   0  0  0  0  0  0  0  0  0  0  0  0
   -4.2682    1.3110   -0.9684 H   0  0  0  0  0  0  0  0  0  0  0  0
   -2.3461    0.7503   -2.0197 C   0  0  0  0  0  3  0  0  0  0  0  0
   -2.6835    0.1773   -2.8888 H   0  0  0  0  0  0  0  0  0  0  0  0
   -0.9985    1.0715   -1.7177 C   0  0  0  0  0  0  0  0  0  0  0  0
   -0.1311    0.7390   -2.2979 H   0  0  0  0  0  0  0  0  0  0  0  0
    0.2510    2.3642    0.2225 C   0  0  1  0  0  0  0  0  0  0  0  0
    0.3969    1.6806    1.0899 H   0  0  0  0  0  0  0  0  0  0  0  0
    1.5502    2.3687   -0.6238 C   0  0  2  0  0  0  0  0  0  0  0  0
    1.7173    1.3636   -1.0724 H   0  0  0  0  0  0  0  0  0  0  0  0
    2.7441    2.7048    0.2909 C   0  0  0  0  0  0  0  0  0  0  0  0
    2.8337    1.9424    1.0953 H   0  0  0  0  0  0  0  0  0  0  0  0
    3.6882    2.6705   -0.2941 H   0  0  0  0  0  0  0  0  0  0  0  0
    2.5490    4.1028    0.9093 C   0  0  2  0  0  0  0  0  0  0  0  0
    3.4113    4.3415    1.5678 H   0  0  0  0  0  0  0  0  0  0  0  0
    1.2471    4.1142    1.7323 C   0  0  0  0  0  0  0  0  0  0  0  0
    1.0994    5.1119    2.1987 H   0  0  0  0  0  0  0  0  0  0  0  0
    1.3071    3.3752    2.5598 H   0  0  0  0  0  0  0  0  0  0  0  0
    0.0500    3.7821    0.8215 C   0  0  1  0  0  0  0  0  0  0  0  0
   -0.8770    3.7854    1.4305 H   0  0  0  0  0  0  0  0  0  0  0  0
    1.4562    3.4196   -1.7486 C   0  0  0  0  0  0  0  0  0  0  0  0
    2.3855    3.3994   -2.3579 H   0  0  0  0  0  0  0  0  0  0  0  0
    0.6151    3.1830   -2.4332 H   0  0  0  0  0  0  0  0  0  0  0  0
    2.4488    5.1512   -0.2169 C   0  0  0  0  0  0  0  0  0  0  0  0
    2.3245    6.1660    0.2191 H   0  0  0  0  0  0  0  0  0  0  0  0
    3.3896    5.1676   -0.8088 H   0  0  0  0  0  0  0  0  0  0  0  0
   -0.0488    4.8242   -0.3081 C   0  0  0  0  0  0  0  0  0  0  0  0
   -0.9172    4.5977   -0.9630 H   0  0  0  0  0  0  0  0  0  0  0  0
   -0.2234    5.8332    0.1235 H   0  0  0  0  0  0  0  0  0  0  0  0
    1.2541    4.8180   -1.1327 C   0  0  2  0  0  0  0  0  0  0  0  0
    1.1849    5.5729   -1.9448 H   0  0  0  0  0  0  0  0  0  0  0  0
  1  2  1  0  0  0  0
  1 10  1  0  0  0  0
  2  3  1  0  0  0  0
  4  5  1  0  0  0  0
  4  2  2  0  0  0  0
  6  8  1  0  0  0  0
  6  4  1  0  0  0  0
  7  6  1  0  0  0  0
  8  1  2  0  0  0  0
  9  8  1  0  0  0  0
 10 22  1  0  0  0  0
 10 11  1  1  0  0  0
 12 13  1  6  0  0  0
 12 10  1  0  0  0  0
 12 14  1  0  0  0  0
 14 17  1  0  0  0  0
 14 15  1  0  0  0  0
 16 14  1  0  0  0  0
 17 18  1  1  0  0  0
 17 19  1  0  0  0  0
 19 20  1  0  0  0  0
 19 21  1  0  0  0  0
 22 23  1  1  0  0  0
 22 19  1  0  0  0  0
 24 33  1  0  0  0  0
 24 12  1  0  0  0  0
 25 24  1  0  0  0  0
 26 24  1  0  0  0  0
 27 28  1  0  0  0  0
 27 17  1  0  0  0  0
 29 27  1  0  0  0  0
 30 32  1  0  0  0  0
 30 22  1  0  0  0  0
 31 30  1  0  0  0  0
 33 34  1  6  0  0  0
 33 30  1  0  0  0  0
 33 27  1  0  0  0  0
M  END
