5
 OpenBabel05122313113D

 63 67  0  0  1  0  0  0  0  0999 V2000
    0.5612    2.3603   -0.3683 O   0  0  0  0  0  0  0  0  0  0  0  0
    0.5424   -2.3991    0.3302 O   0  0  0  0  0  0  0  0  0  0  0  0
    2.0892    0.6492   -0.1777 N   0  0  0  0  0  0  0  0  0  0  0  0
    2.0834   -0.7089    0.1127 N   0  0  0  0  0  0  0  0  0  0  0  0
   -0.1238   -0.0119   -0.0003 C   0  0  0  0  0  3  0  0  0  0  0  0
    0.7629    1.0546   -0.1987 C   0  0  1  0  0  3  0  0  0  0  0  0
    0.7495   -1.0916    0.1821 C   0  0  0  0  0  0  0  0  0  0  0  0
    3.2230    1.4549    0.1313 C   0  0  0  0  0  0  0  0  0  0  0  0
    3.4836    2.5900   -0.6580 C   0  0  0  0  0  0  0  0  0  0  0  0
    2.8238    2.8271   -1.5028 H   0  0  0  0  0  0  0  0  0  0  0  0
    4.5808    3.4040   -0.3466 C   0  0  0  0  0  0  0  0  0  0  0  0
    4.7809    4.2959   -0.9587 H   0  0  0  0  0  0  0  0  0  0  0  0
    5.4273    3.0793    0.7255 C   0  0  0  0  0  0  0  0  0  0  0  0
    6.2934    3.7163    0.9578 H   0  0  0  0  0  0  0  0  0  0  0  0
    5.1652    1.9373    1.4991 C   0  0  0  0  0  0  0  0  0  0  0  0
    5.8224    1.6774    2.3423 H   0  0  0  0  0  0  0  0  0  0  0  0
    4.0598    1.1250    1.2144 C   0  0  0  0  0  0  0  0  0  0  0  0
    3.8419    0.2386    1.8256 H   0  0  0  0  0  0  0  0  0  0  0  0
    3.1876   -1.5354   -0.2530 C   0  0  0  0  0  0  0  0  0  0  0  0
    3.9488   -1.2374   -1.3982 C   0  0  0  0  0  0  0  0  0  0  0  0
    3.6856   -0.3704   -2.0195 H   0  0  0  0  0  0  0  0  0  0  0  0
    5.0326   -2.0594   -1.7333 C   0  0  0  0  0  0  0  0  0  0  0  0
    5.6303   -1.8259   -2.6269 H   0  0  0  0  0  0  0  0  0  0  0  0
    5.3453   -3.1801   -0.9476 C   0  0  0  0  0  0  0  0  0  0  0  0
    6.1931   -3.8258   -1.2202 H   0  0  0  0  0  0  0  0  0  0  0  0
    4.5719   -3.4745    0.1867 C   0  0  0  0  0  0  0  0  0  0  0  0
    4.8108   -4.3511    0.8069 H   0  0  0  0  0  0  0  0  0  0  0  0
    3.4984   -2.6494    0.5473 C   0  0  0  0  0  0  0  0  0  0  0  0
    2.8944   -2.8646    1.4387 H   0  0  0  0  0  0  0  0  0  0  0  0
   -0.6706    2.9181    0.0417 C   0  0  0  0  0  0  0  0  0  0  0  0
   -1.4971    3.4492   -0.9661 C   0  0  0  0  0  0  0  0  0  0  0  0
   -2.7009    4.0448   -0.5427 C   0  0  0  0  0  0  0  0  0  0  0  0
   -3.3814    4.4565   -1.3037 H   0  0  0  0  0  0  0  0  0  0  0  0
   -3.0389    4.1115    0.8158 C   0  0  0  0  0  0  0  0  0  0  0  0
   -3.9887    4.5747    1.1221 H   0  0  0  0  0  0  0  0  0  0  0  0
   -2.1651    3.6052    1.7871 C   0  0  0  0  0  0  0  0  0  0  0  0
   -2.4235    3.6703    2.8550 H   0  0  0  0  0  0  0  0  0  0  0  0
   -0.9475    3.0023    1.4200 C   0  0  0  0  0  0  0  0  0  0  0  0
   -1.1118    3.3528   -2.4144 C   0  0  0  0  0  0  0  0  0  0  0  0
   -0.0728    3.7025   -2.5823 H   0  0  0  0  0  0  0  0  0  0  0  0
   -1.7925    3.9565   -3.0435 H   0  0  0  0  0  0  0  0  0  0  0  0
   -1.1641    2.2946   -2.7566 H   0  0  0  0  0  0  0  0  0  0  0  0
    0.0038    2.4509    2.4474 C   0  0  0  0  0  0  0  0  0  0  0  0
   -0.0547    1.3421    2.4898 H   0  0  0  0  0  0  0  0  0  0  0  0
   -0.2387    2.8366    3.4553 H   0  0  0  0  0  0  0  0  0  0  0  0
    1.0563    2.7124    2.2156 H   0  0  0  0  0  0  0  0  0  0  0  0
   -0.7625   -2.8612    0.6140 C   0  0  0  0  0  0  0  0  0  0  0  0
   -1.4583   -3.5155   -0.4185 C   0  0  0  0  0  0  0  0  0  0  0  0
   -2.7368   -4.0121   -0.0954 C   0  0  0  0  0  0  0  0  0  0  0  0
   -3.3197   -4.5170   -0.8808 H   0  0  0  0  0  0  0  0  0  0  0  0
   -3.2678   -3.8664    1.1929 C   0  0  0  0  0  0  0  0  0  0  0  0
   -4.2718   -4.2559    1.4183 H   0  0  0  0  0  0  0  0  0  0  0  0
   -2.5210   -3.2397    2.2003 C   0  0  0  0  0  0  0  0  0  0  0  0
   -2.9333   -3.1355    3.2154 H   0  0  0  0  0  0  0  0  0  0  0  0
   -1.2383   -2.7284    1.9325 C   0  0  0  0  0  0  0  0  0  0  0  0
   -0.8696   -3.6397   -1.7940 C   0  0  0  0  0  0  0  0  0  0  0  0
   -0.9410   -2.6631   -2.3251 H   0  0  0  0  0  0  0  0  0  0  0  0
   -1.4151   -4.3956   -2.3898 H   0  0  0  0  0  0  0  0  0  0  0  0
    0.2020   -3.9189   -1.7548 H   0  0  0  0  0  0  0  0  0  0  0  0
   -0.4120   -2.0492    2.9907 C   0  0  0  0  0  0  0  0  0  0  0  0
    0.6165   -2.4634    3.0334 H   0  0  0  0  0  0  0  0  0  0  0  0
   -0.8761   -2.1628    3.9880 H   0  0  0  0  0  0  0  0  0  0  0  0
   -0.3156   -0.9613    2.7895 H   0  0  0  0  0  0  0  0  0  0  0  0
  1 30  1  0  0  0  0
  2 47  1  0  0  0  0
  3  4  1  0  0  0  0
  3  8  1  0  0  0  0
  4  7  1  0  0  0  0
  5  7  2  0  0  0  0
  6  1  1  1  0  0  0
  6  3  1  0  0  0  0
  6  5  1  0  0  0  0
  7  2  1  0  0  0  0
  8 17  1  0  0  0  0
  9 11  1  0  0  0  0
  9  8  2  0  0  0  0
 10  9  1  0  0  0  0
 11 13  2  0  0  0  0
 12 11  1  0  0  0  0
 13 14  1  0  0  0  0
 13 15  1  0  0  0  0
 15 16  1  0  0  0  0
 17 15  2  0  0  0  0
 17 18  1  0  0  0  0
 19  4  1  0  0  0  0
 19 28  1  0  0  0  0
 20 19  2  0  0  0  0
 21 20  1  0  0  0  0
 22 20  1  0  0  0  0
 22 24  2  0  0  0  0
 23 22  1  0  0  0  0
 24 26  1  0  0  0  0
 25 24  1  0  0  0  0
 26 28  2  0  0  0  0
 26 27  1  0  0  0  0
 28 29  1  0  0  0  0
 30 38  1  0  0  0  0
 31 32  1  0  0  0  0
 31 30  2  0  0  0  0
 32 34  2  0  0  0  0
 33 32  1  0  0  0  0
 34 35  1  0  0  0  0
 34 36  1  0  0  0  0
 36 37  1  0  0  0  0
 38 36  2  0  0  0  0
 38 43  1  0  0  0  0
 39 31  1  0  0  0  0
 40 39  1  0  0  0  0
 41 39  1  0  0  0  0
 42 39  1  0  0  0  0
 43 44  1  0  0  0  0
 43 45  1  0  0  0  0
 46 43  1  0  0  0  0
 47 55  1  0  0  0  0
 48 49  1  0  0  0  0
 48 47  2  0  0  0  0
 49 51  2  0  0  0  0
 50 49  1  0  0  0  0
 51 52  1  0  0  0  0
 51 53  1  0  0  0  0
 53 54  1  0  0  0  0
 55 53  2  0  0  0  0
 55 60  1  0  0  0  0
 56 59  1  0  0  0  0
 56 48  1  0  0  0  0
 57 56  1  0  0  0  0
 58 56  1  0  0  0  0
 60 61  1  0  0  0  0
 60 62  1  0  0  0  0
 63 60  1  0  0  0  0
M  END
