1
 OpenBabel05122313113D

 37 37  0  0  1  0  0  0  0  0999 V2000
    0.5911    0.9078   -0.3519 C   0  0  0  0  0  2  0  0  0  0  0  0
    0.2931    1.9951    0.3737 O   0  0  0  0  0  0  0  0  0  0  0  0
   -0.6089    0.7715   -1.3143 C   0  0  1  0  0  0  0  0  0  0  0  0
   -1.9396    0.6268   -0.5113 C   0  0  1  0  0  0  0  0  0  0  0  0
   -3.1865    0.6163   -1.4035 C   0  0  0  0  0  0  0  0  0  0  0  0
   -4.4796    0.6814   -0.5858 C   0  0  0  0  0  0  0  0  0  0  0  0
   -5.6877   -0.0145   -1.1797 C   0  0  0  0  0  0  0  0  0  0  0  0
   -0.6022    1.9674   -2.2837 C   0  0  0  0  0  0  0  0  0  0  0  0
   -4.5259    1.2722    0.4810 O   0  0  0  0  0  0  0  0  0  0  0  0
    1.1214    2.5497    1.4092 C   0  0  0  0  0  0  0  0  0  0  0  0
    0.3515    3.6919    2.0435 C   0  0  0  0  0  0  0  0  0  0  0  0
   -1.8774   -0.6022    0.3869 C   0  0  0  0  0  0  0  0  0  0  0  0
   -2.1235   -1.8975   -0.1139 C   0  0  0  0  0  0  0  0  0  0  0  0
   -1.9850   -3.0297    0.7049 C   0  0  0  0  0  0  0  0  0  0  0  0
   -1.5953   -2.8855    2.0455 C   0  0  0  0  0  0  0  0  0  0  0  0
   -1.3623   -1.6012    2.5616 C   0  0  0  0  0  0  0  0  0  0  0  0
   -1.5087   -0.4748    1.7399 C   0  0  0  0  0  0  0  0  0  0  0  0
   -0.4828   -0.1517   -1.9058 H   0  0  0  0  0  0  0  0  0  0  0  0
   -2.0335    1.5140    0.1449 H   0  0  0  0  0  0  0  0  0  0  0  0
   -3.2067   -0.2454   -2.1033 H   0  0  0  0  0  0  0  0  0  0  0  0
   -3.2022    1.5221   -2.0496 H   0  0  0  0  0  0  0  0  0  0  0  0
   -6.5995    0.2469   -0.6128 H   0  0  0  0  0  0  0  0  0  0  0  0
   -5.5244   -1.1125   -1.1240 H   0  0  0  0  0  0  0  0  0  0  0  0
   -5.8114    0.2346   -2.2539 H   0  0  0  0  0  0  0  0  0  0  0  0
   -1.3236    1.8257   -3.1127 H   0  0  0  0  0  0  0  0  0  0  0  0
   -0.8494    2.9079   -1.7529 H   0  0  0  0  0  0  0  0  0  0  0  0
    0.4036    2.0895   -2.7344 H   0  0  0  0  0  0  0  0  0  0  0  0
    1.3613    1.7598    2.1480 H   0  0  0  0  0  0  0  0  0  0  0  0
    2.0727    2.8968    0.9594 H   0  0  0  0  0  0  0  0  0  0  0  0
    0.9615    4.1584    2.8420 H   0  0  0  0  0  0  0  0  0  0  0  0
   -0.5954    3.3344    2.4951 H   0  0  0  0  0  0  0  0  0  0  0  0
    0.1051    4.4710    1.2952 H   0  0  0  0  0  0  0  0  0  0  0  0
   -2.4240   -2.0324   -1.1653 H   0  0  0  0  0  0  0  0  0  0  0  0
   -2.1813   -4.0312    0.2915 H   0  0  0  0  0  0  0  0  0  0  0  0
   -1.4811   -3.7713    2.6885 H   0  0  0  0  0  0  0  0  0  0  0  0
   -1.0548   -1.4741    3.6102 H   0  0  0  0  0  0  0  0  0  0  0  0
   -1.3259    0.5299    2.1492 H   0  0  0  0  0  0  0  0  0  0  0  0
  1  2  1  0  0  0  0
  2 10  1  0  0  0  0
  3 18  1  6  0  0  0
  3  4  1  0  0  0  0
  3  1  1  0  0  0  0
  4 19  1  1  0  0  0
  4 12  1  0  0  0  0
  5  6  1  0  0  0  0
  5  4  1  0  0  0  0
  6  9  2  0  0  0  0
  7 23  1  0  0  0  0
  7 22  1  0  0  0  0
  7  6  1  0  0  0  0
  8 26  1  0  0  0  0
  8  3  1  0  0  0  0
 10 11  1  0  0  0  0
 10 28  1  0  0  0  0
 11 31  1  0  0  0  0
 11 30  1  0  0  0  0
 12 17  1  0  0  0  0
 13 12  2  0  0  0  0
 13 14  1  0  0  0  0
 14 15  2  0  0  0  0
 15 16  1  0  0  0  0
 15 35  1  0  0  0  0
 16 36  1  0  0  0  0
 17 37  1  0  0  0  0
 17 16  2  0  0  0  0
 20  5  1  0  0  0  0
 21  5  1  0  0  0  0
 24  7  1  0  0  0  0
 25  8  1  0  0  0  0
 27  8  1  0  0  0  0
 29 10  1  0  0  0  0
 32 11  1  0  0  0  0
 33 13  1  0  0  0  0
 34 14  1  0  0  0  0
M  END
