7
 OpenBabel05122313113D

 25 26  0  0  1  0  0  0  0  0999 V2000
    0.4222    3.2571    0.3783 O   0  0  0  0  0  0  0  0  0  0  0  0
    0.2051    0.2152   -1.6457 C   0  0  0  0  0  3  0  0  0  0  0  0
   -1.2613   -0.1142   -1.4454 C   0  0  0  0  0  0  0  0  0  0  0  0
   -1.7944    0.2863   -0.0562 C   0  0  1  0  0  0  0  0  0  0  0  0
   -1.4496    1.7526    0.2617 C   0  0  0  0  0  0  0  0  0  0  0  0
   -0.0276    2.2068   -0.0705 C   0  0  0  0  0  0  0  0  0  0  0  0
    0.7488    1.3771   -1.0309 C   0  0  0  0  0  3  0  0  0  0  0  0
   -3.2767   -0.0174    0.0782 C   0  0  0  0  0  0  0  0  0  0  0  0
   -3.7114   -1.0703    0.9071 C   0  0  0  0  0  0  0  0  0  0  0  0
   -5.0742   -1.3836    1.0257 C   0  0  0  0  0  0  0  0  0  0  0  0
   -6.0303   -0.6461    0.3112 C   0  0  0  0  0  0  0  0  0  0  0  0
   -5.6119    0.4037   -0.5224 C   0  0  0  0  0  0  0  0  0  0  0  0
   -4.2488    0.7130   -0.6365 C   0  0  0  0  0  0  0  0  0  0  0  0
    0.6078   -0.0799   -2.6303 H   0  0  0  0  0  0  0  0  0  0  0  0
   -1.8320    0.4410   -2.2261 H   0  0  0  0  0  0  0  0  0  0  0  0
   -1.4686   -1.1878   -1.6292 H   0  0  0  0  0  0  0  0  0  0  0  0
   -1.2775   -0.3499    0.6902 H   0  0  0  0  0  0  0  0  0  0  0  0
   -2.1030    2.4312   -0.3326 H   0  0  0  0  0  0  0  0  0  0  0  0
   -1.6521    2.0004    1.3227 H   0  0  0  0  0  0  0  0  0  0  0  0
    1.5419    1.9543   -1.5285 H   0  0  0  0  0  0  0  0  0  0  0  0
   -2.9621   -1.6546    1.4650 H   0  0  0  0  0  0  0  0  0  0  0  0
   -5.3904   -2.2092    1.6817 H   0  0  0  0  0  0  0  0  0  0  0  0
   -7.1002   -0.8878    0.4033 H   0  0  0  0  0  0  0  0  0  0  0  0
   -6.3541    0.9881   -1.0878 H   0  0  0  0  0  0  0  0  0  0  0  0
   -3.9386    1.5405   -1.2946 H   0  0  0  0  0  0  0  0  0  0  0  0
  2  3  1  0  0  0  0
  2  7  1  0  0  0  0
  3  4  1  0  0  0  0
  4  8  1  0  0  0  0
  4  5  1  0  0  0  0
  4 17  1  1  0  0  0
  5 19  1  0  0  0  0
  6  5  1  0  0  0  0
  6  1  2  0  0  0  0
  7  6  1  0  0  0  0
  8  9  1  0  0  0  0
  9 10  2  0  0  0  0
  9 21  1  0  0  0  0
 10 22  1  0  0  0  0
 11 23  1  0  0  0  0
 11 10  1  0  0  0  0
 12 11  2  0  0  0  0
 13 12  1  0  0  0  0
 13  8  2  0  0  0  0
 14  2  1  0  0  0  0
 15  3  1  0  0  0  0
 16  3  1  0  0  0  0
 18  5  1  0  0  0  0
 20  7  1  0  0  0  0
 24 12  1  0  0  0  0
 25 13  1  0  0  0  0
M  END
