3
 OpenBabel05122313113D

 22 24  0  0  0  0  0  0  0  0999 V2000
    1.5892    0.9545    0.7079 N   0  0  0  0  0  0  0  0  0  0  0  0
    2.9539    0.7910    0.5552 N   0  0  0  0  0  0  0  0  0  0  0  0
    0.8707    0.0122    0.0781 C   0  0  0  0  0  3  0  0  0  0  0  0
    1.8628   -0.8524   -0.5174 C   0  0  0  0  0  0  0  0  0  0  0  0
    1.7584   -2.0273   -1.2919 C   0  0  0  0  0  3  0  0  0  0  0  0
    0.7632   -2.4418   -1.5055 H   0  0  0  0  0  0  0  0  0  0  0  0
    2.9319   -2.6354   -1.7367 C   0  0  0  0  0  0  0  0  0  0  0  0
    2.8767   -3.5544   -2.3381 H   0  0  0  0  0  0  0  0  0  0  0  0
    4.2059   -2.0941   -1.4182 C   0  0  0  0  0  0  0  0  0  0  0  0
    5.1100   -2.6035   -1.7853 H   0  0  0  0  0  0  0  0  0  0  0  0
    4.3494   -0.9390   -0.6467 C   0  0  0  0  0  0  0  0  0  0  0  0
    5.3392   -0.5320   -0.3962 H   0  0  0  0  0  0  0  0  0  0  0  0
    3.1609   -0.3262   -0.2007 C   0  0  0  0  0  0  0  0  0  0  0  0
    3.7053    1.8344    1.2238 C   0  0  0  0  0  0  0  0  0  0  0  0
    4.5530    2.1680    0.5925 H   0  0  0  0  0  0  0  0  0  0  0  0
    4.1118    1.4703    2.1946 H   0  0  0  0  0  0  0  0  0  0  0  0
    2.6224    2.9224    1.4111 C   0  0  0  0  0  0  0  0  0  0  0  0
    2.8114    3.5569    2.2962 H   0  0  0  0  0  0  0  0  0  0  0  0
    2.5885    3.5724    0.5143 H   0  0  0  0  0  0  0  0  0  0  0  0
    1.3037    2.1334    1.5179 C   0  0  0  0  0  0  0  0  0  0  0  0
    1.0722    1.8148    2.5566 H   0  0  0  0  0  0  0  0  0  0  0  0
    0.4240    2.6476    1.0810 H   0  0  0  0  0  0  0  0  0  0  0  0
  1 20  1  0  0  0  0
  2  1  1  0  0  0  0
  2 14  1  0  0  0  0
  3  1  1  0  0  0  0
  4 13  1  0  0  0  0
  4  3  2  0  0  0  0
  5  4  1  0  0  0  0
  6  5  1  0  0  0  0
  7  9  2  0  0  0  0
  7  5  1  0  0  0  0
  8  7  1  0  0  0  0
  9 11  1  0  0  0  0
 10  9  1  0  0  0  0
 11 12  1  0  0  0  0
 11 13  2  0  0  0  0
 13  2  1  0  0  0  0
 14 17  1  0  0  0  0
 14 16  1  0  0  0  0
 15 14  1  0  0  0  0
 17 20  1  0  0  0  0
 17 18  1  0  0  0  0
 19 17  1  0  0  0  0
 20 21  1  0  0  0  0
 22 20  1  0  0  0  0
M  END
