1
 OpenBabel05122313113D

 28 28  0  0  0  0  0  0  0  0999 V2000
   -0.3702    0.0665   -0.0006 C   0  0  0  0  0  2  0  0  0  0  0  0
   -2.7265   -0.8694   -0.0004 C   0  0  0  0  0  0  0  0  0  0  0  0
   -3.4690   -2.0773   -0.0000 C   0  0  0  0  0  0  0  0  0  0  0  0
   -2.9510   -3.0481   -0.0001 H   0  0  0  0  0  0  0  0  0  0  0  0
   -4.8603   -1.9994    0.0004 C   0  0  0  0  0  0  0  0  0  0  0  0
   -5.4614   -2.9210    0.0008 H   0  0  0  0  0  0  0  0  0  0  0  0
   -5.4840   -0.7371    0.0005 C   0  0  0  0  0  0  0  0  0  0  0  0
   -6.5783   -0.6373    0.0009 H   0  0  0  0  0  0  0  0  0  0  0  0
   -4.6660    0.3963    0.0002 C   0  0  0  0  0  0  0  0  0  0  0  0
   -5.1039    1.4089    0.0002 H   0  0  0  0  0  0  0  0  0  0  0  0
   -0.0200    2.5667    0.0001 C   0  0  0  0  0  0  0  0  0  0  0  0
   -1.0470    3.7106   -0.0003 C   0  0  0  0  0  0  0  0  0  0  0  0
   -1.6929    3.6675   -0.9012 H   0  0  0  0  0  0  0  0  0  0  0  0
   -0.5272    4.6876    0.0002 H   0  0  0  0  0  0  0  0  0  0  0  0
   -1.6938    3.6672    0.9000 H   0  0  0  0  0  0  0  0  0  0  0  0
    0.8489    2.6396   -1.2670 C   0  0  0  0  0  0  0  0  0  0  0  0
    1.5810    1.8072   -1.2916 H   0  0  0  0  0  0  0  0  0  0  0  0
    1.4084    3.5955   -1.2869 H   0  0  0  0  0  0  0  0  0  0  0  0
    0.2212    2.5795   -2.1786 H   0  0  0  0  0  0  0  0  0  0  0  0
    0.8476    2.6391    1.2681 C   0  0  0  0  0  0  0  0  0  0  0  0
    0.2190    2.5786    2.1790 H   0  0  0  0  0  0  0  0  0  0  0  0
    1.4071    3.5950    1.2890 H   0  0  0  0  0  0  0  0  0  0  0  0
    1.5797    1.8066    1.2932 H   0  0  0  0  0  0  0  0  0  0  0  0
   -0.8225    1.3140   -0.0005 N   0  0  0  0  0  0  0  0  0  0  0  0
   -1.8653    1.4023   -0.0004 H   0  0  0  0  0  0  0  0  0  0  0  0
   -1.3321   -0.9310   -0.0009 N   0  0  0  0  0  0  0  0  0  0  0  0
   -0.9364   -1.8715   -0.0009 H   0  0  0  0  0  0  0  0  0  0  0  0
   -3.3225    0.3391   -0.0003 N   0  0  0  0  0  0  0  0  0  0  0  0
  1 24  1  0  0  0  0
  2 28  2  0  0  0  0
  2  3  1  0  0  0  0
  3  5  2  0  0  0  0
  4  3  1  0  0  0  0
  5  7  1  0  0  0  0
  5  6  1  0  0  0  0
  7  8  1  0  0  0  0
  9 10  1  0  0  0  0
  9  7  2  0  0  0  0
 11 20  1  0  0  0  0
 12 11  1  0  0  0  0
 12 14  1  0  0  0  0
 12 15  1  0  0  0  0
 13 12  1  0  0  0  0
 16 11  1  0  0  0  0
 17 16  1  0  0  0  0
 18 16  1  0  0  0  0
 19 16  1  0  0  0  0
 20 22  1  0  0  0  0
 20 23  1  0  0  0  0
 20 21  1  0  0  0  0
 24 25  1  0  0  0  0
 24 11  1  0  0  0  0
 26 27  1  0  0  0  0
 26  1  1  0  0  0  0
 26  2  1  0  0  0  0
 28  9  1  0  0  0  0
M  END
