3
 OpenBabel05122313113D

 30 30  0  0  0  0  0  0  0  0999 V2000
    3.7216   -1.2084   -0.1263 Si  0  0  0  0  0  0  0  0  0  0  0  0
    1.8884   -0.9662    0.1268 C   0  0  0  0  0  2  0  0  0  0  0  0
    0.7831   -1.6511    0.0810 C   0  0  0  0  0  2  0  0  0  0  0  0
   -0.5902   -1.7576    0.1838 C   0  0  0  0  0  3  0  0  0  0  0  0
   -0.9821   -2.2262    1.1021 H   0  0  0  0  0  0  0  0  0  0  0  0
   -1.5166   -1.0644   -0.6842 C   0  0  0  0  0  3  0  0  0  0  0  0
   -1.2002   -0.9670   -1.7348 H   0  0  0  0  0  0  0  0  0  0  0  0
   -2.9731   -1.0866   -0.4967 C   0  0  0  0  0  0  0  0  0  0  0  0
   -3.8207   -0.6511   -1.5482 C   0  0  0  0  0  0  0  0  0  0  0  0
   -3.3673   -0.3484   -2.5060 H   0  0  0  0  0  0  0  0  0  0  0  0
   -5.2112   -0.6030   -1.3978 C   0  0  0  0  0  0  0  0  0  0  0  0
   -5.8365   -0.2584   -2.2361 H   0  0  0  0  0  0  0  0  0  0  0  0
   -5.8106   -1.0003   -0.1904 C   0  0  0  0  0  0  0  0  0  0  0  0
   -6.9037   -0.9662   -0.0706 H   0  0  0  0  0  0  0  0  0  0  0  0
   -4.9920   -1.4513    0.8579 C   0  0  0  0  0  0  0  0  0  0  0  0
   -5.4443   -1.7773    1.8076 H   0  0  0  0  0  0  0  0  0  0  0  0
   -3.5992   -1.4950    0.7092 C   0  0  0  0  0  0  0  0  0  0  0  0
   -2.9874   -1.8554    1.5501 H   0  0  0  0  0  0  0  0  0  0  0  0
    4.6345    0.2124    0.7282 C   0  0  0  0  0  0  0  0  0  0  0  0
    4.3262    1.1981    0.3247 H   0  0  0  0  0  0  0  0  0  0  0  0
    5.7328    0.1180    0.6040 H   0  0  0  0  0  0  0  0  0  0  0  0
    4.4132    0.2140    1.8154 H   0  0  0  0  0  0  0  0  0  0  0  0
    4.2360   -2.8544    0.6536 C   0  0  0  0  0  0  0  0  0  0  0  0
    3.9986   -2.8697    1.7367 H   0  0  0  0  0  0  0  0  0  0  0  0
    5.3256   -3.0303    0.5376 H   0  0  0  0  0  0  0  0  0  0  0  0
    3.6958   -3.6970    0.1760 H   0  0  0  0  0  0  0  0  0  0  0  0
    4.1174   -1.2353   -1.9799 C   0  0  0  0  0  0  0  0  0  0  0  0
    3.5632   -2.0556   -2.4798 H   0  0  0  0  0  0  0  0  0  0  0  0
    5.2021   -1.4064   -2.1414 H   0  0  0  0  0  0  0  0  0  0  0  0
    3.8459   -0.2860   -2.4831 H   0  0  0  0  0  0  0  0  0  0  0  0
  1  2  1  0  0  0  0
  1 23  1  0  0  0  0
  1 19  1  0  0  0  0
  3  2  1  0  0  0  0
  3  4  1  0  0  0  0
  4  5  1  0  0  0  0
  6  8  1  0  0  0  0
  6  4  1  0  0  0  0
  7  6  1  0  0  0  0
  8 17  1  0  0  0  0
  9 11  1  0  0  0  0
  9  8  2  0  0  0  0
 10  9  1  0  0  0  0
 11 13  2  0  0  0  0
 12 11  1  0  0  0  0
 13 14  1  0  0  0  0
 13 15  1  0  0  0  0
 15 16  1  0  0  0  0
 17 15  2  0  0  0  0
 17 18  1  0  0  0  0
 19 22  1  0  0  0  0
 20 19  1  0  0  0  0
 21 19  1  0  0  0  0
 23 24  1  0  0  0  0
 25 23  1  0  0  0  0
 26 23  1  0  0  0  0
 27  1  1  0  0  0  0
 28 27  1  0  0  0  0
 29 27  1  0  0  0  0
 30 27  1  0  0  0  0
M  END
