3
 OpenBabel05122313113D

 32 31  0  0  0  0  0  0  0  0999 V2000
    3.4151    1.0699   -0.1050 Si  0  0  0  0  0  0  0  0  0  0  0  0
    1.5777    0.8468   -0.3211 C   0  0  0  0  0  2  0  0  0  0  0  0
    0.5032    1.5574   -0.5121 C   0  0  0  0  0  2  0  0  0  0  0  0
   -0.8642    1.6630   -0.6919 C   0  0  0  0  0  3  0  0  0  0  0  0
   -1.2090    1.8675   -1.7206 H   0  0  0  0  0  0  0  0  0  0  0  0
   -1.8340    1.2233    0.2857 C   0  0  0  0  0  3  0  0  0  0  0  0
   -1.5061    1.3764    1.3310 H   0  0  0  0  0  0  0  0  0  0  0  0
   -3.3323    1.5015    0.1290 C   0  0  0  0  0  0  0  0  0  0  0  0
   -4.1101    0.5480    1.0563 C   0  0  0  0  0  0  0  0  0  0  0  0
   -5.2037    0.7217    0.9826 H   0  0  0  0  0  0  0  0  0  0  0  0
   -3.8203    0.6999    2.1170 H   0  0  0  0  0  0  0  0  0  0  0  0
   -3.9014   -0.5098    0.7966 H   0  0  0  0  0  0  0  0  0  0  0  0
   -3.6175    2.9612    0.5523 C   0  0  0  0  0  0  0  0  0  0  0  0
   -3.0639    3.6727   -0.0940 H   0  0  0  0  0  0  0  0  0  0  0  0
   -3.2981    3.1413    1.5995 H   0  0  0  0  0  0  0  0  0  0  0  0
   -4.7001    3.1994    0.4803 H   0  0  0  0  0  0  0  0  0  0  0  0
   -3.8251    1.3018   -1.3147 C   0  0  0  0  0  0  0  0  0  0  0  0
   -4.9128    1.5096   -1.3800 H   0  0  0  0  0  0  0  0  0  0  0  0
   -3.6578    0.2639   -1.6608 H   0  0  0  0  0  0  0  0  0  0  0  0
   -3.3227    1.9892   -2.0257 H   0  0  0  0  0  0  0  0  0  0  0  0
    4.2649   -0.5685   -0.5282 C   0  0  0  0  0  0  0  0  0  0  0  0
    3.9116   -1.3916    0.1255 H   0  0  0  0  0  0  0  0  0  0  0  0
    5.3665   -0.4928   -0.4210 H   0  0  0  0  0  0  0  0  0  0  0  0
    4.0424   -0.8568   -1.5763 H   0  0  0  0  0  0  0  0  0  0  0  0
    4.0209    2.4194   -1.2873 C   0  0  0  0  0  0  0  0  0  0  0  0
    3.7968    2.1520   -2.3400 H   0  0  0  0  0  0  0  0  0  0  0  0
    5.1165    2.5719   -1.1967 H   0  0  0  0  0  0  0  0  0  0  0  0
    3.5172    3.3827   -1.0680 H   0  0  0  0  0  0  0  0  0  0  0  0
    3.8026    1.5776    1.6802 C   0  0  0  0  0  0  0  0  0  0  0  0
    3.2900    2.5294    1.9282 H   0  0  0  0  0  0  0  0  0  0  0  0
    4.8939    1.7309    1.8130 H   0  0  0  0  0  0  0  0  0  0  0  0
    3.4752    0.8154    2.4151 H   0  0  0  0  0  0  0  0  0  0  0  0
  1 29  1  0  0  0  0
  2  1  1  0  0  0  0
  3  2  1  0  0  0  0
  4  3  1  0  0  0  0
  4  6  1  0  0  0  0
  5  4  1  0  0  0  0
  6  7  1  0  0  0  0
  8  6  1  0  0  0  0
  8 13  1  0  0  0  0
  8  9  1  0  0  0  0
  9 11  1  0  0  0  0
 10  9  1  0  0  0  0
 12  9  1  0  0  0  0
 13 15  1  0  0  0  0
 14 13  1  0  0  0  0
 16 13  1  0  0  0  0
 17  8  1  0  0  0  0
 18 17  1  0  0  0  0
 19 17  1  0  0  0  0
 20 17  1  0  0  0  0
 21 23  1  0  0  0  0
 21  1  1  0  0  0  0
 21 22  1  0  0  0  0
 24 21  1  0  0  0  0
 25 27  1  0  0  0  0
 25 28  1  0  0  0  0
 25  1  1  0  0  0  0
 26 25  1  0  0  0  0
 29 31  1  0  0  0  0
 29 30  1  0  0  0  0
 29 32  1  0  0  0  0
M  END
