1
 OpenBabel05122313113D

 19 19  0  0  0  0  0  0  0  0999 V2000
   -1.0459   -0.3665    0.8118 C   0  0  0  0  0  1  0  0  0  0  0  0
   -2.2645   -0.0245    1.4146 C   0  0  0  0  0  0  0  0  0  0  0  0
   -3.4779   -0.1589    0.7664 C   0  0  0  0  0  0  0  0  0  0  0  0
   -4.7573    0.2366    1.4366 C   0  0  0  0  0  0  0  0  0  0  0  0
   -5.5239    1.2744    0.5785 C   0  0  0  0  0  0  0  0  0  0  0  0
   -5.7223    0.7744   -0.8551 C   0  0  0  0  0  0  0  0  0  0  0  0
   -4.3866    0.3990   -1.5022 C   0  0  0  0  0  0  0  0  0  0  0  0
   -3.6084   -0.6336   -0.6493 C   0  0  0  0  0  0  0  0  0  0  0  0
   -2.2373    0.3610    2.4500 H   0  0  0  0  0  0  0  0  0  0  0  0
   -4.5769    0.6122    2.4630 H   0  0  0  0  0  0  0  0  0  0  0  0
   -5.3917   -0.6755    1.5238 H   0  0  0  0  0  0  0  0  0  0  0  0
   -4.9475    2.2250    0.5690 H   0  0  0  0  0  0  0  0  0  0  0  0
   -6.4945    1.4966    1.0655 H   0  0  0  0  0  0  0  0  0  0  0  0
   -6.2347    1.5500   -1.4603 H   0  0  0  0  0  0  0  0  0  0  0  0
   -6.3956   -0.1113   -0.8496 H   0  0  0  0  0  0  0  0  0  0  0  0
   -3.7578    1.3075   -1.6216 H   0  0  0  0  0  0  0  0  0  0  0  0
   -4.5341   -0.0171   -2.5188 H   0  0  0  0  0  0  0  0  0  0  0  0
   -4.1988   -1.5785   -0.6298 H   0  0  0  0  0  0  0  0  0  0  0  0
   -2.6234   -0.8625   -1.1013 H   0  0  0  0  0  0  0  0  0  0  0  0
  1  2  1  0  0  0  0
  2  9  1  0  0  0  0
  3  2  2  0  0  0  0
  3  4  1  0  0  0  0
  4 11  1  0  0  0  0
  4 10  1  0  0  0  0
  5 13  1  0  0  0  0
  5  4  1  0  0  0  0
  6 15  1  0  0  0  0
  6  5  1  0  0  0  0
  7  6  1  0  0  0  0
  7  8  1  0  0  0  0
  8 18  1  0  0  0  0
  8  3  1  0  0  0  0
 12  5  1  0  0  0  0
 14  6  1  0  0  0  0
 16  7  1  0  0  0  0
 17  7  1  0  0  0  0
 19  8  1  0  0  0  0
M  END
