3
 OpenBabel05122313113D

 26 27  0  0  0  0  0  0  0  0999 V2000
    1.2126   -1.3562    0.2972 N   0  0  0  0  0  0  0  0  0  0  0  0
    1.2503    0.6557   -0.5752 N   0  0  0  0  0  0  0  0  0  0  0  0
    0.4039   -0.3414   -0.1496 C   0  0  0  0  0  2  0  0  0  0  0  0
    2.5562   -1.0129    0.1691 C   0  0  0  0  0  0  0  0  0  0  0  0
    3.7362   -1.7037    0.4765 C   0  0  0  0  0  0  0  0  0  0  0  0
    3.7150   -2.7134    0.9096 H   0  0  0  0  0  0  0  0  0  0  0  0
    4.9477   -1.0482    0.2064 C   0  0  0  0  0  0  0  0  0  0  0  0
    5.8960   -1.5561    0.4352 H   0  0  0  0  0  0  0  0  0  0  0  0
    4.9754    0.2480   -0.3530 C   0  0  0  0  0  0  0  0  0  0  0  0
    5.9448    0.7280   -0.5516 H   0  0  0  0  0  0  0  0  0  0  0  0
    3.7934    0.9396   -0.6623 C   0  0  0  0  0  0  0  0  0  0  0  0
    3.8220    1.9474   -1.0996 H   0  0  0  0  0  0  0  0  0  0  0  0
    2.5823    0.2875   -0.3904 C   0  0  0  0  0  0  0  0  0  0  0  0
    0.8098    1.9569   -1.0535 C   0  0  0  0  0  0  0  0  0  0  0  0
   -0.2443    1.8393   -1.3728 H   0  0  0  0  0  0  0  0  0  0  0  0
    1.4172    2.2298   -1.9403 H   0  0  0  0  0  0  0  0  0  0  0  0
    0.9230    3.0606    0.0207 C   0  0  0  0  0  0  0  0  0  0  0  0
    1.9866    3.1845    0.3217 H   0  0  0  0  0  0  0  0  0  0  0  0
    0.6217    4.0219   -0.4497 H   0  0  0  0  0  0  0  0  0  0  0  0
    0.0988    2.7972    1.1948 C   0  0  0  0  0  0  0  0  0  0  0  0
   -0.6141    2.5161    2.1463 C   0  0  0  0  0  0  0  0  0  0  0  0
   -1.2600    2.2727    2.9784 H   0  0  0  0  0  0  0  0  0  0  0  0
    0.7385   -2.6203    0.8300 C   0  0  0  0  0  0  0  0  0  0  0  0
   -0.3667   -2.6145    0.7926 H   0  0  0  0  0  0  0  0  0  0  0  0
    1.0706   -2.7451    1.8803 H   0  0  0  0  0  0  0  0  0  0  0  0
    1.1242   -3.4637    0.2228 H   0  0  0  0  0  0  0  0  0  0  0  0
  1 23  1  0  0  0  0
  2 13  1  0  0  0  0
  2  3  1  0  0  0  0
  3  1  1  0  0  0  0
  4  1  1  0  0  0  0
  4  5  1  0  0  0  0
  5  6  1  0  0  0  0
  7  8  1  0  0  0  0
  7  5  2  0  0  0  0
  9  7  1  0  0  0  0
 10  9  1  0  0  0  0
 11 13  1  0  0  0  0
 11  9  2  0  0  0  0
 12 11  1  0  0  0  0
 13  4  2  0  0  0  0
 14  2  1  0  0  0  0
 14 17  1  0  0  0  0
 15 14  1  0  0  0  0
 16 14  1  0  0  0  0
 17 18  1  0  0  0  0
 17 20  1  0  0  0  0
 19 17  1  0  0  0  0
 20 21  3  0  0  0  0
 21 22  1  0  0  0  0
 23 25  1  0  0  0  0
 24 23  1  0  0  0  0
 26 23  1  0  0  0  0
M  END
