1
 OpenBabel05122313113D

 18 19  0  0  1  0  0  0  0  0999 V2000
    1.4307    0.3392   -0.4349 C   0  0  0  0  0  3  0  0  0  0  0  0
    1.7445    1.5135   -1.0989 C   0  0  0  0  0  0  0  0  0  0  0  0
    1.2299    1.9912   -1.9373 H   0  0  0  0  0  0  0  0  0  0  0  0
    2.9211    2.0771   -0.5919 N   0  0  0  0  0  0  0  0  0  0  0  0
    3.5797    3.2828   -1.0503 C   0  0  0  0  0  0  0  0  0  0  0  0
    3.6604    4.0296   -0.2337 H   0  0  0  0  0  0  0  0  0  0  0  0
    2.9852    3.7224   -1.8710 H   0  0  0  0  0  0  0  0  0  0  0  0
    4.5968    3.0606   -1.4337 H   0  0  0  0  0  0  0  0  0  0  0  0
    2.4800    0.2193    0.5081 N   0  0  0  0  0  0  0  0  0  0  0  0
    3.3782    1.2760    0.4050 C   0  0  1  0  0  3  0  0  0  0  0  0
    4.5085    1.3672    1.2388 C   0  0  0  0  0  0  0  0  0  0  0  0
    5.1996    2.2152    1.1436 H   0  0  0  0  0  0  0  0  0  0  0  0
    4.7071    0.3481    2.1653 C   0  0  0  0  0  0  0  0  0  0  0  0
    5.5794    0.3808    2.8339 H   0  0  0  0  0  0  0  0  0  0  0  0
    3.7939   -0.7383    2.2431 C   0  0  0  0  0  0  0  0  0  0  0  0
    3.9568   -1.5559    2.9578 H   0  0  0  0  0  0  0  0  0  0  0  0
    2.6933   -0.7972    1.4090 C   0  0  0  0  0  0  0  0  0  0  0  0
    1.9699   -1.6231    1.3446 H   0  0  0  0  0  0  0  0  0  0  0  0
  1  9  1  0  0  0  0
  2  4  1  0  0  0  0
  2  1  2  0  0  0  0
  3  2  1  0  0  0  0
  4 10  1  0  0  0  0
  5  4  1  0  0  0  0
  5  6  1  0  0  0  0
  7  5  1  0  0  0  0
  8  5  1  0  0  0  0
  9 17  1  0  0  0  0
 10  9  1  0  0  0  0
 10 11  1  6  0  0  0
 11 13  2  0  0  0  0
 12 11  1  0  0  0  0
 13 15  1  0  0  0  0
 13 14  1  0  0  0  0
 15 16  1  0  0  0  0
 17 15  2  0  0  0  0
 18 17  1  0  0  0  0
M  END
