6
 OpenBabel05122313113D

 22 23  0  0  1  0  0  0  0  0999 V2000
   -0.9718    2.8781   -0.3325 O   0  0  0  0  0  0  0  0  0  0  0  0
   -2.5889   -0.4559    0.9055 C   0  0  2  0  0  0  0  0  0  0  0  0
   -1.8293    0.6597    0.1386 C   0  0  1  0  0  3  0  0  0  0  0  0
   -1.7668    0.2156   -1.2127 C   0  0  0  0  0  3  0  0  0  0  0  0
   -2.4927   -1.1495   -1.2549 C   0  0  1  0  0  0  0  0  0  0  0  0
   -1.4484   -1.9971   -0.4909 C   0  0  0  0  0  3  0  0  0  0  0  0
   -1.5053   -1.5577    0.8613 C   0  0  0  0  0  3  0  0  0  0  0  0
   -3.5830   -0.9486   -0.1745 C   0  0  0  0  0  0  0  0  0  0  0  0
   -1.6538    2.0872    0.6198 C   0  0  1  0  0  0  0  0  0  0  0  0
   -1.0019    2.1691    2.0075 C   0  0  0  0  0  0  0  0  0  0  0  0
   -0.1015    2.4351   -0.4837 H   0  0  0  0  0  0  0  0  0  0  0  0
   -2.9895   -0.1891    1.8994 H   0  0  0  0  0  0  0  0  0  0  0  0
   -1.5719    0.8607   -2.0814 H   0  0  0  0  0  0  0  0  0  0  0  0
   -2.8022   -1.5190   -2.2483 H   0  0  0  0  0  0  0  0  0  0  0  0
   -1.0195   -2.9416   -0.8569 H   0  0  0  0  0  0  0  0  0  0  0  0
   -1.1267   -2.0961    1.7430 H   0  0  0  0  0  0  0  0  0  0  0  0
   -4.0976   -1.8914    0.1080 H   0  0  0  0  0  0  0  0  0  0  0  0
   -4.3298   -0.1761   -0.4551 H   0  0  0  0  0  0  0  0  0  0  0  0
   -2.6815    2.5196    0.6951 H   0  0  0  0  0  0  0  0  0  0  0  0
   -1.5869    1.6252    2.7767 H   0  0  0  0  0  0  0  0  0  0  0  0
   -0.9157    3.2298    2.3135 H   0  0  0  0  0  0  0  0  0  0  0  0
    0.0147    1.7254    1.9763 H   0  0  0  0  0  0  0  0  0  0  0  0
  1  9  1  0  0  0  0
  2 12  1  1  0  0  0
  3  9  1  6  0  0  0
  3  2  1  0  0  0  0
  4  3  1  0  0  0  0
  5 14  1  6  0  0  0
  5  4  1  0  0  0  0
  5  6  1  0  0  0  0
  5  8  1  0  0  0  0
  6  7  1  0  0  0  0
  7  2  1  0  0  0  0
  7 16  1  0  0  0  0
  8 17  1  0  0  0  0
  8  2  1  0  0  0  0
  9 19  1  1  0  0  0
  9 10  1  0  0  0  0
 10 21  1  0  0  0  0
 10 20  1  0  0  0  0
 11  1  1  0  0  0  0
 13  4  1  0  0  0  0
 15  6  1  0  0  0  0
 18  8  1  0  0  0  0
 22 10  1  0  0  0  0
M  END
