3
 OpenBabel05122313113D

 39 39  0  0  0  0  0  0  0  0999 V2000
   -3.2851    1.1033    0.0220 N   0  0  0  0  0  0  0  0  0  0  0  0
   -3.2985   -1.0988    0.0206 N   0  0  0  0  0  0  0  0  0  0  0  0
   -2.4800   -0.0028    0.0541 C   0  0  0  0  0  2  0  0  0  0  0  0
   -4.6288    0.7045   -0.0470 C   0  0  0  0  0  0  0  0  0  0  0  0
   -4.6373   -0.6835   -0.0480 C   0  0  0  0  0  0  0  0  0  0  0  0
   -2.6952    2.5086    0.0612 C   0  0  0  0  0  0  0  0  0  0  0  0
   -1.8742    2.6542    1.3567 C   0  0  0  0  0  0  0  0  0  0  0  0
   -2.5166    2.5038    2.2466 H   0  0  0  0  0  0  0  0  0  0  0  0
   -1.4449    3.6736    1.4079 H   0  0  0  0  0  0  0  0  0  0  0  0
   -1.0384    1.9271    1.4093 H   0  0  0  0  0  0  0  0  0  0  0  0
   -1.8350    2.7102   -1.1999 C   0  0  0  0  0  0  0  0  0  0  0  0
   -0.9932    1.9899   -1.2526 H   0  0  0  0  0  0  0  0  0  0  0  0
   -1.4049    3.7305   -1.1979 H   0  0  0  0  0  0  0  0  0  0  0  0
   -2.4492    2.5939   -2.1145 H   0  0  0  0  0  0  0  0  0  0  0  0
   -3.7586    3.6159    0.0767 C   0  0  0  0  0  0  0  0  0  0  0  0
   -4.3699    3.6417   -0.8419 H   0  0  0  0  0  0  0  0  0  0  0  0
   -3.2172    4.5794    0.1299 H   0  0  0  0  0  0  0  0  0  0  0  0
   -4.4169    3.5667    0.9621 H   0  0  0  0  0  0  0  0  0  0  0  0
   -5.8422    1.5766   -0.1214 C   0  0  0  0  0  0  0  0  0  0  0  0
   -6.7416    0.9407   -0.1871 H   0  0  0  0  0  0  0  0  0  0  0  0
   -5.8475    2.2294   -1.0140 H   0  0  0  0  0  0  0  0  0  0  0  0
   -5.9701    2.2183    0.7699 H   0  0  0  0  0  0  0  0  0  0  0  0
   -5.8613   -1.5404   -0.1247 C   0  0  0  0  0  0  0  0  0  0  0  0
   -6.7525   -0.8933   -0.1936 H   0  0  0  0  0  0  0  0  0  0  0  0
   -5.9998   -2.1797    0.7668 H   0  0  0  0  0  0  0  0  0  0  0  0
   -5.8723   -2.1939   -1.0167 H   0  0  0  0  0  0  0  0  0  0  0  0
   -2.7263   -2.5115    0.0625 C   0  0  0  0  0  0  0  0  0  0  0  0
   -3.8035   -3.6053    0.0741 C   0  0  0  0  0  0  0  0  0  0  0  0
   -4.4651   -3.5470    0.9564 H   0  0  0  0  0  0  0  0  0  0  0  0
   -3.2746   -4.5754    0.1304 H   0  0  0  0  0  0  0  0  0  0  0  0
   -4.4113   -3.6237   -0.8471 H   0  0  0  0  0  0  0  0  0  0  0  0
   -1.9107   -2.6654    1.3599 C   0  0  0  0  0  0  0  0  0  0  0  0
   -1.0625   -1.9525    1.4031 H   0  0  0  0  0  0  0  0  0  0  0  0
   -1.4976   -3.6909    1.4164 H   0  0  0  0  0  0  0  0  0  0  0  0
   -2.5511   -2.4967    2.2480 H   0  0  0  0  0  0  0  0  0  0  0  0
   -1.8612   -2.7249   -1.1930 C   0  0  0  0  0  0  0  0  0  0  0  0
   -2.4638   -2.5854   -2.1122 H   0  0  0  0  0  0  0  0  0  0  0  0
   -1.4569   -3.7556   -1.1944 H   0  0  0  0  0  0  0  0  0  0  0  0
   -1.0006   -2.0264   -1.2298 H   0  0  0  0  0  0  0  0  0  0  0  0
  1  3  1  0  0  0  0
  1  6  1  0  0  0  0
  2  3  1  0  0  0  0
  2 27  1  0  0  0  0
  4  1  1  0  0  0  0
  5  4  2  0  0  0  0
  5  2  1  0  0  0  0
  6 15  1  0  0  0  0
  6  7  1  0  0  0  0
  7  9  1  0  0  0  0
  7 10  1  0  0  0  0
  7  8  1  0  0  0  0
 11 13  1  0  0  0  0
 11  6  1  0  0  0  0
 12 11  1  0  0  0  0
 14 11  1  0  0  0  0
 15 17  1  0  0  0  0
 15 18  1  0  0  0  0
 16 15  1  0  0  0  0
 19  4  1  0  0  0  0
 19 22  1  0  0  0  0
 20 19  1  0  0  0  0
 21 19  1  0  0  0  0
 23  5  1  0  0  0  0
 23 25  1  0  0  0  0
 24 23  1  0  0  0  0
 26 23  1  0  0  0  0
 27 28  1  0  0  0  0
 27 32  1  0  0  0  0
 28 30  1  0  0  0  0
 28 29  1  0  0  0  0
 31 28  1  0  0  0  0
 32 33  1  0  0  0  0
 32 34  1  0  0  0  0
 32 35  1  0  0  0  0
 36 27  1  0  0  0  0
 37 36  1  0  0  0  0
 38 36  1  0  0  0  0
 39 36  1  0  0  0  0
M  END
