2
 OpenBabel05122313113D

 63 65  0  0  1  0  0  0  0  0999 V2000
    1.0637    1.0266    0.2538 N   0  0  0  0  0  0  0  0  0  0  0  0
   -0.2329    0.7904    0.1086 C   0  0  0  0  0  2  0  0  0  0  0  0
    1.4412    2.4628    0.5864 C   0  0  0  0  0  0  0  0  0  0  0  0
    0.0889    3.1746    0.3605 C   0  0  0  0  0  0  0  0  0  0  0  0
   -0.1041    3.9325    1.1441 H   0  0  0  0  0  0  0  0  0  0  0  0
    0.1107    3.7086   -0.6094 H   0  0  0  0  0  0  0  0  0  0  0  0
   -1.0088    2.0794    0.3381 C   0  0  1  0  0  0  0  0  0  0  0  0
   -2.0703    2.3400   -0.7743 C   0  0  2  0  0  0  0  0  0  0  0  0
   -2.3491    3.4163   -0.6600 H   0  0  0  0  0  0  0  0  0  0  0  0
   -3.3154    1.5024   -0.5900 C   0  0  0  0  0  0  0  0  0  0  0  0
   -3.9561    1.3964   -1.4826 H   0  0  0  0  0  0  0  0  0  0  0  0
   -3.6713    0.8451    0.5368 C   0  0  0  0  0  0  0  0  0  0  0  0
   -2.8286    0.9315    1.7840 C   0  0  0  0  0  0  0  0  0  0  0  0
   -2.3773   -0.0707    1.9717 H   0  0  0  0  0  0  0  0  0  0  0  0
   -3.4830    1.1283    2.6620 H   0  0  0  0  0  0  0  0  0  0  0  0
   -1.7450    2.0068    1.7072 C   0  0  0  0  0  0  0  0  0  0  0  0
   -1.0075    1.8697    2.5250 H   0  0  0  0  0  0  0  0  0  0  0  0
   -2.2019    3.0081    1.8618 H   0  0  0  0  0  0  0  0  0  0  0  0
    2.0680   -0.0118    0.1473 C   0  0  0  0  0  0  0  0  0  0  0  0
    2.4107   -0.7722    1.2968 C   0  0  0  0  0  0  0  0  0  0  0  0
    3.4543   -1.7090    1.1710 C   0  0  0  0  0  0  0  0  0  0  0  0
    3.7405   -2.3105    2.0467 H   0  0  0  0  0  0  0  0  0  0  0  0
    4.1108   -1.9096   -0.0472 C   0  0  0  0  0  0  0  0  0  0  0  0
    4.9257   -2.6457   -0.1197 H   0  0  0  0  0  0  0  0  0  0  0  0
    3.7001   -1.2044   -1.1833 C   0  0  0  0  0  0  0  0  0  0  0  0
    4.1785   -1.4100   -2.1525 H   0  0  0  0  0  0  0  0  0  0  0  0
    2.6657   -0.2527   -1.1183 C   0  0  0  0  0  0  0  0  0  0  0  0
    2.5395    2.9830   -0.3458 C   0  0  0  0  0  0  0  0  0  0  0  0
    3.4655    2.3813   -0.2596 H   0  0  0  0  0  0  0  0  0  0  0  0
    2.7824    4.0263   -0.0630 H   0  0  0  0  0  0  0  0  0  0  0  0
    2.2164    2.9854   -1.4029 H   0  0  0  0  0  0  0  0  0  0  0  0
    1.9338    2.5635    2.0369 C   0  0  0  0  0  0  0  0  0  0  0  0
    1.1648    2.2426    2.7637 H   0  0  0  0  0  0  0  0  0  0  0  0
    2.1931    3.6177    2.2569 H   0  0  0  0  0  0  0  0  0  0  0  0
    2.8427    1.9509    2.1915 H   0  0  0  0  0  0  0  0  0  0  0  0
   -1.5133    2.1598   -2.1963 C   0  0  0  0  0  0  0  0  0  0  0  0
   -1.2612    1.0962   -2.3843 H   0  0  0  0  0  0  0  0  0  0  0  0
   -0.6053    2.7718   -2.3736 H   0  0  0  0  0  0  0  0  0  0  0  0
   -2.2680    2.4652   -2.9479 H   0  0  0  0  0  0  0  0  0  0  0  0
   -4.8502   -0.0840    0.5880 C   0  0  0  0  0  0  0  0  0  0  0  0
   -5.4679   -0.0174   -0.3282 H   0  0  0  0  0  0  0  0  0  0  0  0
   -5.4967    0.1168    1.4689 H   0  0  0  0  0  0  0  0  0  0  0  0
   -4.4933   -1.1347    0.6747 H   0  0  0  0  0  0  0  0  0  0  0  0
    1.6265   -0.7132    2.6041 C   0  0  0  0  0  0  0  0  0  0  0  0
    0.9143    0.1313    2.5366 H   0  0  0  0  0  0  0  0  0  0  0  0
    2.5198   -0.4872    3.8339 C   0  0  0  0  0  0  0  0  0  0  0  0
    3.2035   -1.3444    4.0015 H   0  0  0  0  0  0  0  0  0  0  0  0
    1.8992   -0.3831    4.7470 H   0  0  0  0  0  0  0  0  0  0  0  0
    3.1444    0.4231    3.7387 H   0  0  0  0  0  0  0  0  0  0  0  0
    0.7829   -1.9923    2.7671 C   0  0  0  0  0  0  0  0  0  0  0  0
    0.1110   -2.1418    1.8971 H   0  0  0  0  0  0  0  0  0  0  0  0
    0.1577   -1.9294    3.6814 H   0  0  0  0  0  0  0  0  0  0  0  0
    1.4291   -2.8893    2.8571 H   0  0  0  0  0  0  0  0  0  0  0  0
    2.1487    0.3752   -2.4082 C   0  0  0  0  0  0  0  0  0  0  0  0
    1.4422    1.1826   -2.1345 H   0  0  0  0  0  0  0  0  0  0  0  0
    3.2617    0.9905   -3.2701 C   0  0  0  0  0  0  0  0  0  0  0  0
    3.8661    1.7288   -2.7065 H   0  0  0  0  0  0  0  0  0  0  0  0
    2.8263    1.5026   -4.1521 H   0  0  0  0  0  0  0  0  0  0  0  0
    3.9551    0.2152   -3.6553 H   0  0  0  0  0  0  0  0  0  0  0  0
    1.3404   -0.6659   -3.2059 C   0  0  0  0  0  0  0  0  0  0  0  0
    1.9844   -1.5098   -3.5282 H   0  0  0  0  0  0  0  0  0  0  0  0
    0.9005   -0.2038   -4.1134 H   0  0  0  0  0  0  0  0  0  0  0  0
    0.5152   -1.0845   -2.5933 H   0  0  0  0  0  0  0  0  0  0  0  0
  1  3  1  0  0  0  0
  2  1  1  0  0  0  0
  3 32  1  0  0  0  0
  4  3  1  0  0  0  0
  4  5  1  0  0  0  0
  6  4  1  0  0  0  0
  7  2  1  6  0  0  0
  7  4  1  0  0  0  0
  7 16  1  0  0  0  0
  8  9  1  1  0  0  0
  8 10  1  0  0  0  0
  8  7  1  0  0  0  0
 10 12  2  0  0  0  0
 11 10  1  0  0  0  0
 12 40  1  0  0  0  0
 12 13  1  0  0  0  0
 13 14  1  0  0  0  0
 13 15  1  0  0  0  0
 16 13  1  0  0  0  0
 16 18  1  0  0  0  0
 16 17  1  0  0  0  0
 19  1  1  0  0  0  0
 19 20  1  0  0  0  0
 20 44  1  0  0  0  0
 21 20  2  0  0  0  0
 21 22  1  0  0  0  0
 23 21  1  0  0  0  0
 24 23  1  0  0  0  0
 25 27  1  0  0  0  0
 25 23  2  0  0  0  0
 26 25  1  0  0  0  0
 27 19  2  0  0  0  0
 28 29  1  0  0  0  0
 28 30  1  0  0  0  0
 28  3  1  0  0  0  0
 31 28  1  0  0  0  0
 32 35  1  0  0  0  0
 32 34  1  0  0  0  0
 32 33  1  0  0  0  0
 36  8  1  0  0  0  0
 37 36  1  0  0  0  0
 38 36  1  0  0  0  0
 39 36  1  0  0  0  0
 40 43  1  0  0  0  0
 40 42  1  0  0  0  0
 41 40  1  0  0  0  0
 44 50  1  0  0  0  0
 44 46  1  0  0  0  0
 45 44  1  0  0  0  0
 46 47  1  0  0  0  0
 46 48  1  0  0  0  0
 49 46  1  0  0  0  0
 50 53  1  0  0  0  0
 50 52  1  0  0  0  0
 51 50  1  0  0  0  0
 54 55  1  0  0  0  0
 54 27  1  0  0  0  0
 56 57  1  0  0  0  0
 56 54  1  0  0  0  0
 58 56  1  0  0  0  0
 59 56  1  0  0  0  0
 60 63  1  0  0  0  0
 60 54  1  0  0  0  0
 61 60  1  0  0  0  0
 62 60  1  0  0  0  0
M  END
