4
 OpenBabel05122313113D

 32 32  0  0  0  0  0  0  0  0999 V2000
   -1.7138    3.3576    0.4978 N   0  0  0  0  0  0  0  0  0  0  0  0
   -2.9573    1.9765   -0.6175 N   0  0  0  0  0  0  0  0  0  0  0  0
   -4.3379   -1.5061   -0.7666 N   0  0  0  0  0  0  0  0  0  0  0  0
   -1.7488    2.0820    0.0108 C   0  0  0  0  0  2  0  0  0  0  0  0
   -2.8831    4.0356    0.1875 C   0  0  0  0  0  0  0  0  0  0  0  0
   -3.0536    5.0763    0.4790 H   0  0  0  0  0  0  0  0  0  0  0  0
   -3.6722    3.1583   -0.5130 C   0  0  0  0  0  0  0  0  0  0  0  0
   -4.6673    3.2828   -0.9508 H   0  0  0  0  0  0  0  0  0  0  0  0
   -3.4573    0.7373   -1.2129 C   0  0  0  0  0  0  0  0  0  0  0  0
   -2.6049    0.2442   -1.7184 H   0  0  0  0  0  0  0  0  0  0  0  0
   -4.2038    0.9936   -1.9878 H   0  0  0  0  0  0  0  0  0  0  0  0
   -4.0707   -0.2168   -0.1686 C   0  0  0  0  0  0  0  0  0  0  0  0
   -3.3742   -0.2686    0.7103 H   0  0  0  0  0  0  0  0  0  0  0  0
   -5.0147    0.2250    0.2123 H   0  0  0  0  0  0  0  0  0  0  0  0
   -3.1788   -2.3953   -0.7471 C   0  0  0  0  0  0  0  0  0  0  0  0
   -2.9660   -2.7723    0.2904 H   0  0  0  0  0  0  0  0  0  0  0  0
   -2.2882   -1.7882   -1.0217 H   0  0  0  0  0  0  0  0  0  0  0  0
   -3.2842   -3.5737   -1.7099 C   0  0  0  0  0  0  0  0  0  0  0  0
   -4.0782   -4.2882   -1.4150 H   0  0  0  0  0  0  0  0  0  0  0  0
   -2.3307   -4.1375   -1.7341 H   0  0  0  0  0  0  0  0  0  0  0  0
   -3.5072   -3.2199   -2.7363 H   0  0  0  0  0  0  0  0  0  0  0  0
   -5.6202   -2.1127   -0.3994 C   0  0  0  0  0  0  0  0  0  0  0  0
   -5.8249   -2.9419   -1.1078 H   0  0  0  0  0  0  0  0  0  0  0  0
   -6.4097   -1.3571   -0.5973 H   0  0  0  0  0  0  0  0  0  0  0  0
   -5.7380   -2.6225    1.0427 C   0  0  0  0  0  0  0  0  0  0  0  0
   -5.5639   -1.8125    1.7813 H   0  0  0  0  0  0  0  0  0  0  0  0
   -5.0154   -3.4365    1.2559 H   0  0  0  0  0  0  0  0  0  0  0  0
   -6.7524   -3.0284    1.2285 H   0  0  0  0  0  0  0  0  0  0  0  0
   -0.6011    3.9390    1.2375 C   0  0  0  0  0  0  0  0  0  0  0  0
   -0.1913    4.8117    0.6928 H   0  0  0  0  0  0  0  0  0  0  0  0
    0.1863    3.1711    1.3429 H   0  0  0  0  0  0  0  0  0  0  0  0
   -0.9348    4.2594    2.2434 H   0  0  0  0  0  0  0  0  0  0  0  0
  1 29  1  0  0  0  0
  2  7  1  0  0  0  0
  2  4  1  0  0  0  0
  3 15  1  0  0  0  0
  3 22  1  0  0  0  0
  3 12  1  0  0  0  0
  4  1  1  0  0  0  0
  5  6  1  0  0  0  0
  5  1  1  0  0  0  0
  7  5  2  0  0  0  0
  8  7  1  0  0  0  0
  9  2  1  0  0  0  0
  9 12  1  0  0  0  0
 10  9  1  0  0  0  0
 11  9  1  0  0  0  0
 12 14  1  0  0  0  0
 12 13  1  0  0  0  0
 15 16  1  0  0  0  0
 17 15  1  0  0  0  0
 18 19  1  0  0  0  0
 18 15  1  0  0  0  0
 20 18  1  0  0  0  0
 21 18  1  0  0  0  0
 22 25  1  0  0  0  0
 23 22  1  0  0  0  0
 24 22  1  0  0  0  0
 25 28  1  0  0  0  0
 25 27  1  0  0  0  0
 25 26  1  0  0  0  0
 29 31  1  0  0  0  0
 29 32  1  0  0  0  0
 30 29  1  0  0  0  0
M  END
