4
 OpenBabel05122313113D

 48 50  0  0  0  0  0  0  0  0999 V2000
   -0.8712   -1.8483    0.0287 N   0  0  0  0  0  0  0  0  0  0  0  0
    1.3304   -1.7113    0.0252 N   0  0  0  0  0  0  0  0  0  0  0  0
   -1.2009   -4.1537   -0.2366 O   0  0  0  0  0  0  0  0  0  0  0  0
    0.2052   -0.9625    0.1092 C   0  0  0  0  0  2  0  0  0  0  0  0
   -0.4715   -3.1920   -0.1099 C   0  0  0  0  0  0  0  0  0  0  0  0
    1.0528   -3.1394   -0.0844 C   0  0  0  0  0  0  0  0  0  0  0  0
    1.4520   -3.7095    0.7815 H   0  0  0  0  0  0  0  0  0  0  0  0
    1.4768   -3.5829   -1.0093 H   0  0  0  0  0  0  0  0  0  0  0  0
   -2.2398   -1.4176   -0.0909 C   0  0  0  0  0  0  0  0  0  0  0  0
   -2.7700   -1.2265   -1.3873 C   0  0  0  0  0  0  0  0  0  0  0  0
   -4.0640   -0.6894   -1.4973 C   0  0  0  0  0  0  0  0  0  0  0  0
   -4.4822   -0.5139   -2.5016 H   0  0  0  0  0  0  0  0  0  0  0  0
   -4.8396   -0.3874   -0.3624 C   0  0  0  0  0  0  0  0  0  0  0  0
   -4.3156   -0.7054    0.9043 C   0  0  0  0  0  0  0  0  0  0  0  0
   -4.9342   -0.5425    1.8013 H   0  0  0  0  0  0  0  0  0  0  0  0
   -3.0258   -1.2418    1.0702 C   0  0  0  0  0  0  0  0  0  0  0  0
   -2.0160   -1.6635   -2.6173 C   0  0  0  0  0  0  0  0  0  0  0  0
   -2.4013   -1.1647   -3.5266 H   0  0  0  0  0  0  0  0  0  0  0  0
   -2.1235   -2.7602   -2.7570 H   0  0  0  0  0  0  0  0  0  0  0  0
   -0.9295   -1.4609   -2.5477 H   0  0  0  0  0  0  0  0  0  0  0  0
   -6.1960    0.2565   -0.4996 C   0  0  0  0  0  0  0  0  0  0  0  0
   -6.8789   -0.0496    0.3173 H   0  0  0  0  0  0  0  0  0  0  0  0
   -6.6748    0.0047   -1.4663 H   0  0  0  0  0  0  0  0  0  0  0  0
   -6.1119    1.3641   -0.4548 H   0  0  0  0  0  0  0  0  0  0  0  0
   -2.5200   -1.6578    2.4216 C   0  0  0  0  0  0  0  0  0  0  0  0
   -2.2066   -2.7224    2.4071 H   0  0  0  0  0  0  0  0  0  0  0  0
   -3.3082   -1.5422    3.1891 H   0  0  0  0  0  0  0  0  0  0  0  0
   -1.6395   -1.0523    2.7295 H   0  0  0  0  0  0  0  0  0  0  0  0
    2.6618   -1.1872   -0.1019 C   0  0  0  0  0  0  0  0  0  0  0  0
    3.4526   -0.9924    1.0551 C   0  0  0  0  0  0  0  0  0  0  0  0
    4.7384   -0.4499    0.8822 C   0  0  0  0  0  0  0  0  0  0  0  0
    5.3603   -0.2822    1.7762 H   0  0  0  0  0  0  0  0  0  0  0  0
    5.2518   -0.1207   -0.3861 C   0  0  0  0  0  0  0  0  0  0  0  0
    4.4555   -0.3853   -1.5144 C   0  0  0  0  0  0  0  0  0  0  0  0
    4.8506   -0.1651   -2.5192 H   0  0  0  0  0  0  0  0  0  0  0  0
    3.1641   -0.9308   -1.3997 C   0  0  0  0  0  0  0  0  0  0  0  0
    2.9431   -1.3638    2.4188 C   0  0  0  0  0  0  0  0  0  0  0  0
    2.0470   -0.7624    2.6903 H   0  0  0  0  0  0  0  0  0  0  0  0
    3.7219   -1.2052    3.1881 H   0  0  0  0  0  0  0  0  0  0  0  0
    2.6380   -2.4307    2.4618 H   0  0  0  0  0  0  0  0  0  0  0  0
    6.6142    0.5098   -0.5262 C   0  0  0  0  0  0  0  0  0  0  0  0
    7.0330    0.3625   -1.5408 H   0  0  0  0  0  0  0  0  0  0  0  0
    7.3324    0.0968    0.2098 H   0  0  0  0  0  0  0  0  0  0  0  0
    6.5620    1.6052   -0.3464 H   0  0  0  0  0  0  0  0  0  0  0  0
    2.3713   -1.2721   -2.6379 C   0  0  0  0  0  0  0  0  0  0  0  0
    2.7130   -0.6781   -3.5067 H   0  0  0  0  0  0  0  0  0  0  0  0
    1.2862   -1.0932   -2.5083 H   0  0  0  0  0  0  0  0  0  0  0  0
    2.4943   -2.3432   -2.9094 H   0  0  0  0  0  0  0  0  0  0  0  0
  1  4  1  0  0  0  0
  2  4  1  0  0  0  0
  3  5  2  0  0  0  0
  5  6  1  0  0  0  0
  5  1  1  0  0  0  0
  6  2  1  0  0  0  0
  6  7  1  0  0  0  0
  8  6  1  0  0  0  0
  9  1  1  0  0  0  0
  9 16  1  0  0  0  0
 10  9  2  0  0  0  0
 11 10  1  0  0  0  0
 11 13  2  0  0  0  0
 12 11  1  0  0  0  0
 13 14  1  0  0  0  0
 14 16  2  0  0  0  0
 14 15  1  0  0  0  0
 16 25  1  0  0  0  0
 17 20  1  0  0  0  0
 17 10  1  0  0  0  0
 18 17  1  0  0  0  0
 19 17  1  0  0  0  0
 21 24  1  0  0  0  0
 21 13  1  0  0  0  0
 21 22  1  0  0  0  0
 23 21  1  0  0  0  0
 25 28  1  0  0  0  0
 25 27  1  0  0  0  0
 26 25  1  0  0  0  0
 29  2  1  0  0  0  0
 29 30  1  0  0  0  0
 30 37  1  0  0  0  0
 31 30  2  0  0  0  0
 31 32  1  0  0  0  0
 33 31  1  0  0  0  0
 34 36  1  0  0  0  0
 34 33  2  0  0  0  0
 35 34  1  0  0  0  0
 36 29  2  0  0  0  0
 37 40  1  0  0  0  0
 37 38  1  0  0  0  0
 37 39  1  0  0  0  0
 41 33  1  0  0  0  0
 41 44  1  0  0  0  0
 41 43  1  0  0  0  0
 42 41  1  0  0  0  0
 45 47  1  0  0  0  0
 45 36  1  0  0  0  0
 46 45  1  0  0  0  0
 48 45  1  0  0  0  0
M  END
