1
 OpenBabel05122313113D

 31 33  0  0  0  0  0  0  0  0999 V2000
    0.0002    1.9236    0.0004 C   0  0  0  0  0  2  0  0  0  0  0  0
   -1.0391    2.7260    0.3573 N   0  0  0  0  0  0  0  0  0  0  0  0
   -2.3140    2.2662    0.7572 C   0  0  0  0  0  0  0  0  0  0  0  0
   -3.4557    3.0674    0.5559 C   0  0  0  0  0  0  0  0  0  0  0  0
   -4.7236    2.5775    0.9076 C   0  0  0  0  0  0  0  0  0  0  0  0
   -4.8663    1.2960    1.4575 C   0  0  0  0  0  0  0  0  0  0  0  0
   -3.7222    0.5119    1.6827 C   0  0  0  0  0  0  0  0  0  0  0  0
   -2.4528    0.9950    1.3550 C   0  0  0  0  0  0  0  0  0  0  0  0
   -0.7627    4.1434    0.0746 C   0  0  0  0  0  0  0  0  0  0  0  0
   -1.2722    4.4497   -0.8659 H   0  0  0  0  0  0  0  0  0  0  0  0
   -1.1236    4.7918    0.8960 H   0  0  0  0  0  0  0  0  0  0  0  0
   -3.3684    4.0633    0.0997 H   0  0  0  0  0  0  0  0  0  0  0  0
   -5.6095    3.2070    0.7335 H   0  0  0  0  0  0  0  0  0  0  0  0
   -5.8634    0.9084    1.7129 H   0  0  0  0  0  0  0  0  0  0  0  0
   -3.8168   -0.4946    2.1168 H   0  0  0  0  0  0  0  0  0  0  0  0
   -1.5488    0.3895    1.5435 H   0  0  0  0  0  0  0  0  0  0  0  0
    0.7621    4.1437   -0.0742 C   0  0  0  0  0  0  0  0  0  0  0  0
    1.0391    2.7264   -0.3565 N   0  0  0  0  0  0  0  0  0  0  0  0
    2.3142    2.2671   -0.7565 C   0  0  0  0  0  0  0  0  0  0  0  0
    3.4555    3.0689   -0.5555 C   0  0  0  0  0  0  0  0  0  0  0  0
    4.7236    2.5796   -0.9072 C   0  0  0  0  0  0  0  0  0  0  0  0
    4.8669    1.2981   -1.4569 C   0  0  0  0  0  0  0  0  0  0  0  0
    3.7232    0.5134   -1.6819 C   0  0  0  0  0  0  0  0  0  0  0  0
    2.4536    0.9959   -1.3541 C   0  0  0  0  0  0  0  0  0  0  0  0
    1.5499    0.3899   -1.5424 H   0  0  0  0  0  0  0  0  0  0  0  0
    3.8182   -0.4931   -2.1158 H   0  0  0  0  0  0  0  0  0  0  0  0
    5.8642    0.9109   -1.7125 H   0  0  0  0  0  0  0  0  0  0  0  0
    5.6092    3.2096   -0.7334 H   0  0  0  0  0  0  0  0  0  0  0  0
    3.3678    4.0648   -0.0994 H   0  0  0  0  0  0  0  0  0  0  0  0
    1.2714    4.4505    0.8662 H   0  0  0  0  0  0  0  0  0  0  0  0
    1.1227    4.7921   -0.8958 H   0  0  0  0  0  0  0  0  0  0  0  0
  1  2  1  0  0  0  0
  2  3  1  0  0  0  0
  3  8  1  0  0  0  0
  4  3  2  0  0  0  0
  4  5  1  0  0  0  0
  5  6  2  0  0  0  0
  6  7  1  0  0  0  0
  6 14  1  0  0  0  0
  7 15  1  0  0  0  0
  8 16  1  0  0  0  0
  8  7  2  0  0  0  0
  9  2  1  0  0  0  0
  9 11  1  0  0  0  0
 10  9  1  0  0  0  0
 12  4  1  0  0  0  0
 13  5  1  0  0  0  0
 17  9  1  0  0  0  0
 17 30  1  0  0  0  0
 18 17  1  0  0  0  0
 18  1  1  0  0  0  0
 19 20  1  0  0  0  0
 19 18  1  0  0  0  0
 20 29  1  0  0  0  0
 21 28  1  0  0  0  0
 21 20  2  0  0  0  0
 22 21  1  0  0  0  0
 23 22  2  0  0  0  0
 23 24  1  0  0  0  0
 24 19  2  0  0  0  0
 25 24  1  0  0  0  0
 26 23  1  0  0  0  0
 27 22  1  0  0  0  0
 31 17  1  0  0  0  0
M  END
