12
q = -1.0, confidence = 0.012

 16 15  0  0  0  0  0  0  0  0999 V2000
    0.3829    2.3860   -0.5894 N   0  0  0  0  0  0  0  0  0  0  0  0
    0.5713    3.8453   -0.5115 C   0  0  0  0  0  0  0  0  0  0  0  0
    0.4077    4.1143    0.5546 H   0  0  0  0  0  0  0  0  0  0  0  0
   -0.4614    4.6287   -1.3290 C   0  0  0  0  0  0  0  0  0  0  0  0
   -0.3925    5.7056   -1.0766 H   0  0  0  0  0  0  0  0  0  0  0  0
   -1.4915    4.2893   -1.1027 H   0  0  0  0  0  0  0  0  0  0  0  0
   -0.2943    4.5302   -2.4181 H   0  0  0  0  0  0  0  0  0  0  0  0
    2.0204    4.1937   -0.8729 C   0  0  0  0  0  0  0  0  0  0  0  0
    2.2048    5.2763   -0.7254 H   0  0  0  0  0  0  0  0  0  0  0  0
    2.2334    3.9481   -1.9323 H   0  0  0  0  0  0  0  0  0  0  0  0
    2.7355    3.6229   -0.2495 H   0  0  0  0  0  0  0  0  0  0  0  0
    0.2016    1.6098   -1.6004 C   0  0  0  0  0  3  0  0  0  0  0  0
    0.0709    1.9116   -3.0515 C   0  0  0  0  0  0  0  0  0  0  0  0
    0.7838    2.6942   -3.3795 H   0  0  0  0  0  0  0  0  0  0  0  0
   -0.9555    2.2841   -3.2511 H   0  0  0  0  0  0  0  0  0  0  0  0
    0.2306    1.0008   -3.6533 H   0  0  0  0  0  0  0  0  0  0  0  0
  1  2  1  0  0  0  0
  2  3  1  0  0  0  0
  4  6  1  0  0  0  0
  4  5  1  0  0  0  0
  4  2  1  0  0  0  0
  7  4  1  0  0  0  0
  8  9  1  0  0  0  0
  8  2  1  0  0  0  0
  8 11  1  0  0  0  0
 10  8  1  0  0  0  0
 12  1  2  0  0  0  0
 13 12  1  0  0  0  0
 14 13  1  0  0  0  0
 15 13  1  0  0  0  0
 16 13  1  0  0  0  0
M  END
