10
 OpenBabel05122313113D

 35 37  0  0  1  0  0  0  0  0999 V2000
    1.3562    3.5794   -1.3211 O   0  0  0  0  0  0  0  0  0  0  0  0
    2.5464    1.6743   -0.8909 O   0  0  0  0  0  0  0  0  0  0  0  0
    1.5437    0.9134    1.0172 N   0  0  0  0  0  0  0  0  0  0  0  0
   -1.5432    1.1627    1.2396 C   0  0  0  0  0  3  0  0  0  0  0  0
   -2.2234    1.8734    1.7334 H   0  0  0  0  0  0  0  0  0  0  0  0
   -1.4091   -0.0780    1.8739 C   0  0  0  0  0  0  0  0  0  0  0  0
   -1.9663   -0.2082    2.8159 H   0  0  0  0  0  0  0  0  0  0  0  0
   -0.8206   -1.2796    1.3579 C   0  0  0  0  0  0  0  0  0  0  0  0
   -0.8766   -2.1640    2.0109 H   0  0  0  0  0  0  0  0  0  0  0  0
   -0.3438   -1.5039    0.0471 C   0  0  0  0  0  3  0  0  0  0  0  0
   -0.0677   -2.5399   -0.2005 H   0  0  0  0  0  0  0  0  0  0  0  0
   -0.3428   -0.5727   -1.0442 C   0  0  0  0  0  3  0  0  0  0  0  0
   -0.1879   -1.0264   -2.0364 H   0  0  0  0  0  0  0  0  0  0  0  0
   -0.7172    0.7773   -1.0295 C   0  0  0  0  0  3  0  0  0  0  0  0
   -0.8434    1.2433   -2.0188 H   0  0  0  0  0  0  0  0  0  0  0  0
   -0.6541    1.7181    0.1525 C   0  0  2  0  0  0  0  0  0  0  0  0
   -1.0970    2.6776   -0.1818 H   0  0  0  0  0  0  0  0  0  0  0  0
    0.8053    2.0987    0.6151 C   0  0  1  0  0  0  0  0  0  0  0  0
    0.7645    3.1549    1.7236 C   0  0  0  0  0  0  0  0  0  0  0  0
    0.2121    2.7585    2.5970 H   0  0  0  0  0  0  0  0  0  0  0  0
    0.2677    4.0740    1.3566 H   0  0  0  0  0  0  0  0  0  0  0  0
    1.7898    3.4128    2.0516 H   0  0  0  0  0  0  0  0  0  0  0  0
    1.5453    2.6134   -0.6313 C   0  0  0  0  0  0  0  0  0  0  0  0
    2.4558    0.7268    0.1285 C   0  0  0  0  0  0  0  0  0  0  0  0
    3.3975   -0.3938    0.0614 C   0  0  0  0  0  0  0  0  0  0  0  0
    3.3110   -1.4148    1.0341 C   0  0  0  0  0  0  0  0  0  0  0  0
    2.5475   -1.3248    1.8204 H   0  0  0  0  0  0  0  0  0  0  0  0
    4.1851   -2.5049    0.9797 C   0  0  0  0  0  0  0  0  0  0  0  0
    4.1178   -3.2997    1.7379 H   0  0  0  0  0  0  0  0  0  0  0  0
    5.1490   -2.5866   -0.0415 C   0  0  0  0  0  0  0  0  0  0  0  0
    5.8353   -3.4461   -0.0821 H   0  0  0  0  0  0  0  0  0  0  0  0
    5.2365   -1.5732   -1.0094 C   0  0  0  0  0  0  0  0  0  0  0  0
    5.9904   -1.6373   -1.8082 H   0  0  0  0  0  0  0  0  0  0  0  0
    4.3642   -0.4772   -0.9627 C   0  0  0  0  0  0  0  0  0  0  0  0
    4.4209    0.3207   -1.7164 H   0  0  0  0  0  0  0  0  0  0  0  0
  1 23  2  0  0  0  0
  2 23  1  0  0  0  0
  2 24  1  0  0  0  0
  4  5  1  0  0  0  0
  4  6  1  0  0  0  0
  6  7  1  0  0  0  0
  8  6  2  0  0  0  0
  8  9  1  0  0  0  0
 10  8  1  0  0  0  0
 11 10  1  0  0  0  0
 12 14  1  0  0  0  0
 12 10  1  0  0  0  0
 13 12  1  0  0  0  0
 14 16  1  0  0  0  0
 15 14  1  0  0  0  0
 16 17  1  6  0  0  0
 16 18  1  0  0  0  0
 16  4  1  0  0  0  0
 18  3  1  0  0  0  0
 18 19  1  1  0  0  0
 19 22  1  0  0  0  0
 19 20  1  0  0  0  0
 21 19  1  0  0  0  0
 23 18  1  0  0  0  0
 24  3  2  0  0  0  0
 25 24  1  0  0  0  0
 25 26  1  0  0  0  0
 26 27  1  0  0  0  0
 28 26  2  0  0  0  0
 28 29  1  0  0  0  0
 30 28  1  0  0  0  0
 31 30  1  0  0  0  0
 32 34  1  0  0  0  0
 32 30  2  0  0  0  0
 33 32  1  0  0  0  0
 34 25  2  0  0  0  0
 35 34  1  0  0  0  0
M  END
