17
 OpenBabel05122313113D

 21 22  0  0  0  0  0  0  0  0999 V2000
   -2.9870    1.4171   -0.8570 N   0  0  0  0  0  0  0  0  0  0  0  0
   -4.2141    1.6907   -0.3983 C   0  0  0  0  0  0  0  0  0  0  0  0
   -4.5111    2.7552   -0.3951 H   0  0  0  0  0  0  0  0  0  0  0  0
   -5.1101    0.7057    0.0607 C   0  0  0  0  0  0  0  0  0  0  0  0
   -6.1131    0.9871    0.4145 H   0  0  0  0  0  0  0  0  0  0  0  0
   -4.6888   -0.6266    0.0558 C   0  0  0  0  0  0  0  0  0  0  0  0
   -5.3516   -1.4303    0.4153 H   0  0  0  0  0  0  0  0  0  0  0  0
   -3.3891   -0.9503   -0.3956 C   0  0  0  0  0  0  0  0  0  0  0  0
   -2.8580   -2.2955   -0.3713 C   0  0  0  0  0  0  0  0  0  0  0  0
   -3.5050   -3.1069   -0.0025 H   0  0  0  0  0  0  0  0  0  0  0  0
   -1.5846   -2.5578   -0.8217 C   0  0  0  0  0  0  0  0  0  0  0  0
   -1.2284   -3.6016   -0.8449 H   0  0  0  0  0  0  0  0  0  0  0  0
   -0.7215   -1.5304   -1.3447 C   0  0  0  0  0  0  0  0  0  0  0  0
   -0.0339   -1.8681   -2.1338 H   0  0  0  0  0  0  0  0  0  0  0  0
   -1.2291   -0.1692   -1.3765 C   0  0  0  0  0  0  0  0  0  0  0  0
   -2.5682    0.1327   -0.8626 C   0  0  0  0  0  0  0  0  0  0  0  0
   -0.3802    0.8240   -1.9505 C   0  0  0  0  0  3  0  0  0  0  0  0
   -0.7446    1.8620   -1.9869 H   0  0  0  0  0  0  0  0  0  0  0  0
    0.8953    0.3749   -2.4312 C   0  0  0  0  0  3  0  0  0  0  0  0
    0.9462   -0.5524   -3.0338 H   0  0  0  0  0  0  0  0  0  0  0  0
    1.6001    1.1407   -2.7888 H   0  0  0  0  0  0  0  0  0  0  0  0
  1  2  1  0  0  0  0
  2  3  1  0  0  0  0
  2  4  2  0  0  0  0
  4  5  1  0  0  0  0
  6  4  1  0  0  0  0
  6  7  1  0  0  0  0
  8  9  1  0  0  0  0
  8  6  2  0  0  0  0
  9 10  1  0  0  0  0
 11  9  2  0  0  0  0
 12 11  1  0  0  0  0
 13 11  1  0  0  0  0
 14 13  1  0  0  0  0
 15 13  2  0  0  0  0
 15 16  1  0  0  0  0
 16  1  2  0  0  0  0
 16  8  1  0  0  0  0
 17 15  1  0  0  0  0
 18 17  1  0  0  0  0
 19 17  1  0  0  0  0
 20 19  1  0  0  0  0
 21 19  1  0  0  0  0
M  END
