1
 OpenBabel05122313113D

 16 15  0  0  0  0  0  0  0  0999 V2000
   -0.7695    2.2982   -1.6718 C   0  0  0  0  0  3  0  0  0  0  0  0
   -0.5029    2.2210   -2.7405 H   0  0  0  0  0  0  0  0  0  0  0  0
   -2.2410    2.1965   -1.4525 C   0  0  0  0  0  0  0  0  0  0  0  0
   -2.8981    2.5872   -0.5002 O   0  0  0  0  0  0  0  0  0  0  0  0
   -2.8203    1.5141   -2.4992 O   0  0  0  0  0  0  0  0  0  0  0  0
   -4.2039    1.2169   -2.3228 C   0  0  0  0  0  0  0  0  0  0  0  0
   -4.3574    0.5384   -1.4568 H   0  0  0  0  0  0  0  0  0  0  0  0
   -4.5342    0.7223   -3.2552 H   0  0  0  0  0  0  0  0  0  0  0  0
   -4.7972    2.1373   -2.1453 H   0  0  0  0  0  0  0  0  0  0  0  0
   -0.0504    3.4098   -0.9898 C   0  0  0  0  0  0  0  0  0  0  0  0
   -0.2834    3.9057    0.1016 O   0  0  0  0  0  0  0  0  0  0  0  0
    1.0211    3.8122   -1.7545 O   0  0  0  0  0  0  0  0  0  0  0  0
    1.8578    4.7895   -1.1414 C   0  0  0  0  0  0  0  0  0  0  0  0
    1.2821    5.6928   -0.8527 H   0  0  0  0  0  0  0  0  0  0  0  0
    2.6303    5.0488   -1.8887 H   0  0  0  0  0  0  0  0  0  0  0  0
    2.3385    4.3884   -0.2235 H   0  0  0  0  0  0  0  0  0  0  0  0
  1  3  1  0  0  0  0
  1 10  1  0  0  0  0
  2  1  1  0  0  0  0
  3  4  2  0  0  0  0
  5  6  1  0  0  0  0
  5  3  1  0  0  0  0
  6  9  1  0  0  0  0
  6  7  1  0  0  0  0
  8  6  1  0  0  0  0
 10 11  2  0  0  0  0
 12 13  1  0  0  0  0
 12 10  1  0  0  0  0
 13 14  1  0  0  0  0
 13 16  1  0  0  0  0
 15 13  1  0  0  0  0
M  END
