19
 OpenBabel05122313113D

 41 43  0  0  0  0  0  0  0  0999 V2000
   -3.4984   -0.8972    0.1009 C   0  0  0  0  0  0  0  0  0  0  0  0
   -2.9138   -2.2518   -0.3418 C   0  0  0  0  0  0  0  0  0  0  0  0
   -4.2680   -1.0374    1.4158 C   0  0  0  0  0  0  0  0  0  0  0  0
   -4.5928   -0.2234   -1.3842 P   0  0  0  0  0  0  0  0  0  0  0  0
   -4.8228    1.5380   -0.8535 C   0  0  0  0  0  0  0  0  0  0  0  0
   -4.0895    2.5118   -1.5632 C   0  0  0  0  0  0  0  0  0  0  0  0
   -4.1160    3.8595   -1.1725 C   0  0  0  0  0  0  0  0  0  0  0  0
   -4.8898    4.2558   -0.0715 C   0  0  0  0  0  0  0  0  0  0  0  0
   -5.6443    3.3003    0.6297 C   0  0  0  0  0  0  0  0  0  0  0  0
   -5.6128    1.9530    0.2422 C   0  0  0  0  0  0  0  0  0  0  0  0
   -6.2845   -0.9294   -1.1319 C   0  0  0  0  0  0  0  0  0  0  0  0
   -7.4325   -0.1326   -1.3551 C   0  0  0  0  0  0  0  0  0  0  0  0
   -8.7191   -0.6894   -1.3088 C   0  0  0  0  0  0  0  0  0  0  0  0
   -8.8938   -2.0559   -1.0417 C   0  0  0  0  0  0  0  0  0  0  0  0
   -7.7646   -2.8644   -0.8405 C   0  0  0  0  0  0  0  0  0  0  0  0
   -6.4774   -2.3107   -0.8969 C   0  0  0  0  0  0  0  0  0  0  0  0
   -2.4244    0.1695    0.1733 C   0  0  0  0  0  0  0  0  0  0  0  0
   -1.4928    0.4806   -0.8656 C   0  0  0  0  0  0  0  0  0  0  0  0
   -0.8115    1.6913   -0.5211 C   0  0  0  0  0  3  0  0  0  0  0  0
   -1.3203    2.1318    0.7328 C   0  0  0  0  0  0  0  0  0  0  0  0
   -2.2818    1.1860    1.1749 C   0  0  0  0  0  0  0  0  0  0  0  0
   -3.6993   -3.0278   -0.4185 H   0  0  0  0  0  0  0  0  0  0  0  0
   -2.1770   -2.5977    0.4120 H   0  0  0  0  0  0  0  0  0  0  0  0
   -2.4187   -2.1855   -1.3307 H   0  0  0  0  0  0  0  0  0  0  0  0
   -3.5788   -1.3689    2.2187 H   0  0  0  0  0  0  0  0  0  0  0  0
   -5.0817   -1.7809    1.3217 H   0  0  0  0  0  0  0  0  0  0  0  0
   -4.7221   -0.0795    1.7310 H   0  0  0  0  0  0  0  0  0  0  0  0
   -3.4814    2.1997   -2.4262 H   0  0  0  0  0  0  0  0  0  0  0  0
   -3.5306    4.6037   -1.7339 H   0  0  0  0  0  0  0  0  0  0  0  0
   -4.9128    5.3121    0.2372 H   0  0  0  0  0  0  0  0  0  0  0  0
   -6.2620    3.6070    1.4880 H   0  0  0  0  0  0  0  0  0  0  0  0
   -6.2190    1.2174    0.7911 H   0  0  0  0  0  0  0  0  0  0  0  0
   -7.3199    0.9400   -1.5705 H   0  0  0  0  0  0  0  0  0  0  0  0
   -9.5941   -0.0441   -1.4825 H   0  0  0  0  0  0  0  0  0  0  0  0
   -9.9039   -2.4905   -0.9996 H   0  0  0  0  0  0  0  0  0  0  0  0
   -7.8831   -3.9409   -0.6430 H   0  0  0  0  0  0  0  0  0  0  0  0
   -5.6117   -2.9746   -0.7625 H   0  0  0  0  0  0  0  0  0  0  0  0
   -1.3696   -0.0802   -1.7991 H   0  0  0  0  0  0  0  0  0  0  0  0
   -0.0551    2.2027   -1.1275 H   0  0  0  0  0  0  0  0  0  0  0  0
   -0.9920    3.0168    1.2876 H   0  0  0  0  0  0  0  0  0  0  0  0
   -2.8295    1.2298    2.1218 H   0  0  0  0  0  0  0  0  0  0  0  0
  1 17  1  0  0  0  0
  1  3  1  0  0  0  0
  2  1  1  0  0  0  0
  2 23  1  0  0  0  0
  3 27  1  0  0  0  0
  3 25  1  0  0  0  0
  4 11  1  0  0  0  0
  4  5  1  0  0  0  0
  4  1  1  0  0  0  0
  5 10  1  0  0  0  0
  6  7  1  0  0  0  0
  6  5  2  0  0  0  0
  7  8  2  0  0  0  0
  8 30  1  0  0  0  0
  8  9  1  0  0  0  0
  9 31  1  0  0  0  0
 10  9  2  0  0  0  0
 10 32  1  0  0  0  0
 11 16  1  0  0  0  0
 12 13  1  0  0  0  0
 12 11  2  0  0  0  0
 13 14  2  0  0  0  0
 14 35  1  0  0  0  0
 14 15  1  0  0  0  0
 15 36  1  0  0  0  0
 16 15  2  0  0  0  0
 16 37  1  0  0  0  0
 17 21  1  0  0  0  0
 18 19  1  0  0  0  0
 18 17  2  0  0  0  0
 19 20  1  0  0  0  0
 20 21  2  0  0  0  0
 20 40  1  0  0  0  0
 21 41  1  0  0  0  0
 22  2  1  0  0  0  0
 24  2  1  0  0  0  0
 26  3  1  0  0  0  0
 28  6  1  0  0  0  0
 29  7  1  0  0  0  0
 33 12  1  0  0  0  0
 34 13  1  0  0  0  0
 38 18  1  0  0  0  0
 39 19  1  0  0  0  0
M  END
