1
 OpenBabel05122313113D

 32 34  0  0  0  0  0  0  0  0999 V2000
    1.8048   -2.2648   -0.6009 C   0  0  0  0  0  3  0  0  0  0  0  0
    0.8652   -2.9263   -1.4686 C   0  0  0  0  0  0  0  0  0  0  0  0
    0.1128   -4.1324   -1.3453 C   0  0  0  0  0  0  0  0  0  0  0  0
   -0.7048   -4.5173   -2.3985 C   0  0  0  0  0  0  0  0  0  0  0  0
   -0.8150   -3.7282   -3.5825 C   0  0  0  0  0  0  0  0  0  0  0  0
   -0.1228   -2.5356   -3.7229 C   0  0  0  0  0  0  0  0  0  0  0  0
    0.7249   -2.1095   -2.6636 C   0  0  0  0  0  0  0  0  0  0  0  0
    1.5421   -0.9466   -2.4911 C   0  0  0  0  0  0  0  0  0  0  0  0
    2.2724   -1.0807   -1.2715 C   0  0  0  0  0  0  0  0  0  0  0  0
    3.2975   -0.1592   -0.7513 C   0  0  0  0  0  0  0  0  0  0  0  0
    3.5323    1.1018   -1.3426 C   0  0  0  0  0  0  0  0  0  0  0  0
    4.4902    1.9724   -0.8099 C   0  0  0  0  0  0  0  0  0  0  0  0
    5.2223    1.6215    0.3377 C   0  0  0  0  0  0  0  0  0  0  0  0
    5.0021    0.3670    0.9215 C   0  0  0  0  0  0  0  0  0  0  0  0
    4.0685   -0.5221    0.3704 C   0  0  0  0  0  0  0  0  0  0  0  0
    4.7729    3.2938   -1.4906 C   0  0  0  0  0  0  0  0  0  0  0  0
    5.6964   -0.0208    2.2046 C   0  0  0  0  0  0  0  0  0  0  0  0
    5.0509    4.2653   -0.5894 F   0  0  0  0  0  0  0  0  0  0  0  0
    3.7283    3.7101   -2.2400 F   0  0  0  0  0  0  0  0  0  0  0  0
    5.8465    3.1960   -2.3140 F   0  0  0  0  0  0  0  0  0  0  0  0
    6.8096    0.7053    2.4307 F   0  0  0  0  0  0  0  0  0  0  0  0
    4.8698    0.1666    3.2765 F   0  0  0  0  0  0  0  0  0  0  0  0
    6.0417   -1.3314    2.2139 F   0  0  0  0  0  0  0  0  0  0  0  0
    2.1873   -2.6676    0.3420 H   0  0  0  0  0  0  0  0  0  0  0  0
    0.2156   -4.7576   -0.4474 H   0  0  0  0  0  0  0  0  0  0  0  0
   -1.2759   -5.4550   -2.3270 H   0  0  0  0  0  0  0  0  0  0  0  0
   -1.4730   -4.0735   -4.3937 H   0  0  0  0  0  0  0  0  0  0  0  0
   -0.2287   -1.9186   -4.6265 H   0  0  0  0  0  0  0  0  0  0  0  0
    1.6342   -0.1266   -3.2117 H   0  0  0  0  0  0  0  0  0  0  0  0
    2.9404    1.4268   -2.2074 H   0  0  0  0  0  0  0  0  0  0  0  0
    5.9532    2.3183    0.7694 H   0  0  0  0  0  0  0  0  0  0  0  0
    3.9375   -1.5081    0.8318 H   0  0  0  0  0  0  0  0  0  0  0  0
  1 24  1  0  0  0  0
  2  3  1  0  0  0  0
  2  1  1  0  0  0  0
  3 25  1  0  0  0  0
  4 26  1  0  0  0  0
  4  3  2  0  0  0  0
  5  4  1  0  0  0  0
  6  5  2  0  0  0  0
  6  7  1  0  0  0  0
  7  8  1  0  0  0  0
  7  2  2  0  0  0  0
  8  9  2  0  0  0  0
  9 10  1  0  0  0  0
  9  1  1  0  0  0  0
 10 15  1  0  0  0  0
 11 12  1  0  0  0  0
 11 10  2  0  0  0  0
 12 13  2  0  0  0  0
 13 31  1  0  0  0  0
 13 14  1  0  0  0  0
 14 17  1  0  0  0  0
 15 32  1  0  0  0  0
 15 14  2  0  0  0  0
 16 12  1  0  0  0  0
 16 18  1  0  0  0  0
 17 23  1  0  0  0  0
 17 21  1  0  0  0  0
 17 22  1  0  0  0  0
 19 16  1  0  0  0  0
 20 16  1  0  0  0  0
 27  5  1  0  0  0  0
 28  6  1  0  0  0  0
 29  8  1  0  0  0  0
 30 11  1  0  0  0  0
M  END
