1
 OpenBabel05122313113D

 67 69  0  0  0  0  0  0  0  0999 V2000
   -0.3712   -0.0884   -1.0034 C   0  0  0  0  0  3  0  0  0  0  0  0
   -0.9929   -0.0697   -2.0464 O   0  0  0  0  0  0  0  0  0  0  0  0
   -1.9714    1.0177    0.8201 N   0  0  0  0  0  0  0  0  0  0  0  0
   -3.1988    0.3701    0.4657 C   0  0  0  0  0  0  0  0  0  0  0  0
   -3.9148    0.8448   -0.6642 C   0  0  0  0  0  0  0  0  0  0  0  0
   -5.1142    0.1917   -1.0025 C   0  0  0  0  0  0  0  0  0  0  0  0
   -5.5877   -0.8891   -0.2482 C   0  0  0  0  0  0  0  0  0  0  0  0
   -4.8667   -1.3388    0.8640 C   0  0  0  0  0  0  0  0  0  0  0  0
   -3.6586   -0.7232    1.2429 C   0  0  0  0  0  0  0  0  0  0  0  0
   -2.8962   -1.2033    2.4715 C   0  0  0  0  0  0  0  0  0  0  0  0
   -2.7350   -2.7306    2.5172 C   0  0  0  0  0  0  0  0  0  0  0  0
   -3.5586   -0.6861    3.7621 C   0  0  0  0  0  0  0  0  0  0  0  0
   -3.4428    2.0635   -1.4476 C   0  0  0  0  0  0  0  0  0  0  0  0
   -0.6733    0.8921    0.2033 B   0  0  0  0  0  0  0  0  0  0  0  0
    0.1846    1.8153    0.9097 N   0  0  0  0  0  0  0  0  0  0  0  0
    1.5057    2.2692    0.5977 C   0  0  0  0  0  0  0  0  0  0  0  0
    1.7420    2.9017   -0.6542 C   0  0  0  0  0  0  0  0  0  0  0  0
    0.6433    3.1218   -1.6876 C   0  0  0  0  0  0  0  0  0  0  0  0
    1.0113    2.5439   -3.0626 C   0  0  0  0  0  0  0  0  0  0  0  0
    3.0367    3.3872   -0.9163 C   0  0  0  0  0  0  0  0  0  0  0  0
    4.0619    3.2736    0.0284 C   0  0  0  0  0  0  0  0  0  0  0  0
    3.8092    2.6521    1.2558 C   0  0  0  0  0  0  0  0  0  0  0  0
    2.5392    2.1307    1.5631 C   0  0  0  0  0  0  0  0  0  0  0  0
    2.3198    1.4267    2.8976 C   0  0  0  0  0  0  0  0  0  0  0  0
    3.3356    0.2920    3.1177 C   0  0  0  0  0  0  0  0  0  0  0  0
    2.3540    2.4202    4.0725 C   0  0  0  0  0  0  0  0  0  0  0  0
   -0.5998    2.4680    1.8726 C   0  0  0  0  0  0  0  0  0  0  0  0
   -1.8784    1.9800    1.8311 C   0  0  0  0  0  0  0  0  0  0  0  0
   -4.1633    3.3293   -0.9482 C   0  0  0  0  0  0  0  0  0  0  0  0
   -3.5723    1.8958   -2.9667 C   0  0  0  0  0  0  0  0  0  0  0  0
    0.2611    4.6094   -1.7766 C   0  0  0  0  0  0  0  0  0  0  0  0
   -5.6883    0.5378   -1.8749 H   0  0  0  0  0  0  0  0  0  0  0  0
   -6.5272   -1.3873   -0.5321 H   0  0  0  0  0  0  0  0  0  0  0  0
   -5.2449   -2.1906    1.4491 H   0  0  0  0  0  0  0  0  0  0  0  0
   -1.8804   -0.7630    2.4220 H   0  0  0  0  0  0  0  0  0  0  0  0
   -2.0543   -3.0194    3.3434 H   0  0  0  0  0  0  0  0  0  0  0  0
   -2.3188   -3.1266    1.5713 H   0  0  0  0  0  0  0  0  0  0  0  0
   -3.7031   -3.2429    2.6950 H   0  0  0  0  0  0  0  0  0  0  0  0
   -2.9816   -1.0044    4.6547 H   0  0  0  0  0  0  0  0  0  0  0  0
   -3.6227    0.4198    3.7744 H   0  0  0  0  0  0  0  0  0  0  0  0
   -4.5904   -1.0825    3.8631 H   0  0  0  0  0  0  0  0  0  0  0  0
   -2.3641    2.1927   -1.2296 H   0  0  0  0  0  0  0  0  0  0  0  0
   -0.2609    2.5828   -1.3419 H   0  0  0  0  0  0  0  0  0  0  0  0
    0.1494    2.6176   -3.7563 H   0  0  0  0  0  0  0  0  0  0  0  0
    1.8609    3.0892   -3.5233 H   0  0  0  0  0  0  0  0  0  0  0  0
    1.2932    1.4753   -2.9903 H   0  0  0  0  0  0  0  0  0  0  0  0
    3.2391    3.8776   -1.8807 H   0  0  0  0  0  0  0  0  0  0  0  0
    5.0655    3.6656   -0.1958 H   0  0  0  0  0  0  0  0  0  0  0  0
    4.6221    2.5529    1.9911 H   0  0  0  0  0  0  0  0  0  0  0  0
    1.3115    0.9688    2.8740 H   0  0  0  0  0  0  0  0  0  0  0  0
    3.0778   -0.2872    4.0273 H   0  0  0  0  0  0  0  0  0  0  0  0
    4.3649    0.6832    3.2516 H   0  0  0  0  0  0  0  0  0  0  0  0
    3.3567   -0.4104    2.2616 H   0  0  0  0  0  0  0  0  0  0  0  0
    2.1588    1.8998    5.0325 H   0  0  0  0  0  0  0  0  0  0  0  0
    3.3454    2.9130    4.1504 H   0  0  0  0  0  0  0  0  0  0  0  0
    1.5954    3.2200    3.9583 H   0  0  0  0  0  0  0  0  0  0  0  0
   -0.1821    3.2598    2.5023 H   0  0  0  0  0  0  0  0  0  0  0  0
   -2.7435    2.2494    2.4461 H   0  0  0  0  0  0  0  0  0  0  0  0
   -3.7872    4.2296   -1.4769 H   0  0  0  0  0  0  0  0  0  0  0  0
   -5.2571    3.2602   -1.1253 H   0  0  0  0  0  0  0  0  0  0  0  0
   -4.0059    3.4809    0.1385 H   0  0  0  0  0  0  0  0  0  0  0  0
   -3.1255    2.7693   -3.4847 H   0  0  0  0  0  0  0  0  0  0  0  0
   -4.6310    1.8317   -3.2935 H   0  0  0  0  0  0  0  0  0  0  0  0
   -3.0406    0.9863   -3.3056 H   0  0  0  0  0  0  0  0  0  0  0  0
   -0.5793    4.7538   -2.4869 H   0  0  0  0  0  0  0  0  0  0  0  0
    1.1135    5.2263   -2.1297 H   0  0  0  0  0  0  0  0  0  0  0  0
   -0.0534    5.0016   -0.7886 H   0  0  0  0  0  0  0  0  0  0  0  0
  1 14  1  0  0  0  0
  2  1  2  0  0  0  0
  3 28  1  0  0  0  0
  4  3  1  0  0  0  0
  4  9  1  0  0  0  0
  5  4  2  0  0  0  0
  6  5  1  0  0  0  0
  6  7  2  0  0  0  0
  7  8  1  0  0  0  0
  8  9  2  0  0  0  0
  8 34  1  0  0  0  0
  9 10  1  0  0  0  0
 10 11  1  0  0  0  0
 10 12  1  0  0  0  0
 11 38  1  0  0  0  0
 11 36  1  0  0  0  0
 12 40  1  0  0  0  0
 12 41  1  0  0  0  0
 12 39  1  0  0  0  0
 13 42  1  0  0  0  0
 13 29  1  0  0  0  0
 13  5  1  0  0  0  0
 14  3  1  0  0  0  0
 14 15  1  0  0  0  0
 15 27  1  0  0  0  0
 16 15  1  0  0  0  0
 16 23  1  0  0  0  0
 17 16  2  0  0  0  0
 18 43  1  0  0  0  0
 18 17  1  0  0  0  0
 19 46  1  0  0  0  0
 19 18  1  0  0  0  0
 20 17  1  0  0  0  0
 20 21  2  0  0  0  0
 21 22  1  0  0  0  0
 22 23  2  0  0  0  0
 22 49  1  0  0  0  0
 23 24  1  0  0  0  0
 24 25  1  0  0  0  0
 24 26  1  0  0  0  0
 25 52  1  0  0  0  0
 25 51  1  0  0  0  0
 26 55  1  0  0  0  0
 26 54  1  0  0  0  0
 27 57  1  0  0  0  0
 28 27  2  0  0  0  0
 28 58  1  0  0  0  0
 29 61  1  0  0  0  0
 30 13  1  0  0  0  0
 31 18  1  0  0  0  0
 31 67  1  0  0  0  0
 32  6  1  0  0  0  0
 33  7  1  0  0  0  0
 35 10  1  0  0  0  0
 37 11  1  0  0  0  0
 44 19  1  0  0  0  0
 45 19  1  0  0  0  0
 47 20  1  0  0  0  0
 48 21  1  0  0  0  0
 50 24  1  0  0  0  0
 53 25  1  0  0  0  0
 56 26  1  0  0  0  0
 59 29  1  0  0  0  0
 60 29  1  0  0  0  0
 62 30  1  0  0  0  0
 63 30  1  0  0  0  0
 64 30  1  0  0  0  0
 65 31  1  0  0  0  0
 66 31  1  0  0  0  0
M  END
