2
 OpenBabel05122313113D

 36 35  0  0  0  0  0  0  0  0999 V2000
   -2.1278    0.1838   -0.0635 P   0  0  0  0  0  4  0  0  0  0  0  0
    0.5933   -0.2571   -0.0902 C   0  0  0  0  0  3  0  0  0  0  0  0
    0.1281   -1.5224    0.1404 O   0  0  0  0  0  0  0  0  0  0  0  0
   -0.4629    0.6235   -0.3211 C   0  0  0  0  0  0  0  0  0  0  0  0
   -0.2739    1.6755   -0.5666 H   0  0  0  0  0  0  0  0  0  0  0  0
    0.9796   -2.6235    0.4539 C   0  0  0  0  0  0  0  0  0  0  0  0
    1.7228   -2.8038   -0.3457 H   0  0  0  0  0  0  0  0  0  0  0  0
    0.3042   -3.4971    0.5378 H   0  0  0  0  0  0  0  0  0  0  0  0
    1.5098   -2.4705    1.4139 H   0  0  0  0  0  0  0  0  0  0  0  0
   -2.3912   -0.5891    1.4225 N   0  0  0  0  0  0  0  0  0  0  0  0
   -3.1120    1.5638   -0.0279 N   0  0  0  0  0  0  0  0  0  0  0  0
   -2.7786   -0.7402   -1.3129 N   0  0  0  0  0  0  0  0  0  0  0  0
   -2.7629   -1.9941    1.4933 C   0  0  0  0  0  0  0  0  0  0  0  0
   -1.8722   -2.6445    1.6468 H   0  0  0  0  0  0  0  0  0  0  0  0
   -3.2628   -2.3150    0.5627 H   0  0  0  0  0  0  0  0  0  0  0  0
   -3.4667   -2.1602    2.3375 H   0  0  0  0  0  0  0  0  0  0  0  0
   -1.5998   -0.1236    2.5618 C   0  0  0  0  0  0  0  0  0  0  0  0
   -2.1882   -0.2300    3.4980 H   0  0  0  0  0  0  0  0  0  0  0  0
   -1.3278    0.9415    2.4406 H   0  0  0  0  0  0  0  0  0  0  0  0
   -0.6505   -0.6954    2.6667 H   0  0  0  0  0  0  0  0  0  0  0  0
   -2.9520    2.5089   -1.1261 C   0  0  0  0  0  0  0  0  0  0  0  0
   -3.9355    2.9575   -1.3848 H   0  0  0  0  0  0  0  0  0  0  0  0
   -2.5694    1.9853   -2.0237 H   0  0  0  0  0  0  0  0  0  0  0  0
   -2.2484    3.3376   -0.8790 H   0  0  0  0  0  0  0  0  0  0  0  0
   -3.6883    2.1081    1.1901 C   0  0  0  0  0  0  0  0  0  0  0  0
   -3.0460    2.8887    1.6621 H   0  0  0  0  0  0  0  0  0  0  0  0
   -3.8587    1.2948    1.9185 H   0  0  0  0  0  0  0  0  0  0  0  0
   -4.6704    2.5733    0.9568 H   0  0  0  0  0  0  0  0  0  0  0  0
   -1.9379   -1.5229   -2.2087 C   0  0  0  0  0  0  0  0  0  0  0  0
   -1.9828   -2.6115   -1.9799 H   0  0  0  0  0  0  0  0  0  0  0  0
   -0.8867   -1.1925   -2.1280 H   0  0  0  0  0  0  0  0  0  0  0  0
   -2.2744   -1.3736   -3.2574 H   0  0  0  0  0  0  0  0  0  0  0  0
   -4.2151   -0.9127   -1.4633 C   0  0  0  0  0  0  0  0  0  0  0  0
   -4.5199   -0.6881   -2.5093 H   0  0  0  0  0  0  0  0  0  0  0  0
   -4.7489   -0.2139   -0.7919 H   0  0  0  0  0  0  0  0  0  0  0  0
   -4.5432   -1.9528   -1.2319 H   0  0  0  0  0  0  0  0  0  0  0  0
  1 11  1  0  0  0  0
  1 10  1  0  0  0  0
  2  3  1  0  0  0  0
  3  6  1  0  0  0  0
  4  2  2  0  0  0  0
  4  1  1  0  0  0  0
  5  4  1  0  0  0  0
  6  8  1  0  0  0  0
  6  9  1  0  0  0  0
  7  6  1  0  0  0  0
 10 13  1  0  0  0  0
 10 17  1  0  0  0  0
 11 25  1  0  0  0  0
 12  1  1  0  0  0  0
 13 14  1  0  0  0  0
 13 16  1  0  0  0  0
 15 13  1  0  0  0  0
 17 20  1  0  0  0  0
 17 18  1  0  0  0  0
 19 17  1  0  0  0  0
 21 24  1  0  0  0  0
 21 11  1  0  0  0  0
 22 21  1  0  0  0  0
 23 21  1  0  0  0  0
 25 26  1  0  0  0  0
 25 27  1  0  0  0  0
 28 25  1  0  0  0  0
 29 31  1  0  0  0  0
 29 30  1  0  0  0  0
 29 12  1  0  0  0  0
 32 29  1  0  0  0  0
 33 12  1  0  0  0  0
 33 36  1  0  0  0  0
 33 35  1  0  0  0  0
 34 33  1  0  0  0  0
M  END
