5
 OpenBabel05122313113D

 55 59  0  0  1  0  0  0  0  0999 V2000
   -1.8076    4.4156   -1.3563 O   0  0  0  0  0  0  0  0  0  0  0  0
    1.8592    0.9546    1.5398 O   0  0  0  0  0  0  0  0  0  0  0  0
   -2.3626    1.2157   -0.0225 N   0  0  2  0  0  0  0  0  0  0  0  0
   -1.5962    2.4063   -0.1739 N   0  0  0  0  0  0  0  0  0  0  0  0
    1.1930    0.1932    0.6700 C   0  0  0  0  0  2  0  0  0  0  0  0
   -0.0800    0.8315    0.3978 C   0  0  0  0  0  0  0  0  0  0  0  0
   -1.4202    0.1101    0.3053 C   0  0  1  0  0  0  0  0  0  0  0  0
   -0.2671    2.1840    0.1457 C   0  0  0  0  0  0  0  0  0  0  0  0
   -2.2234    3.3144   -1.0544 C   0  0  0  0  0  0  0  0  0  0  0  0
   -3.4959    2.5972   -1.5050 C   0  0  0  0  0  0  0  0  0  0  0  0
   -3.7300    2.8416   -2.5563 H   0  0  0  0  0  0  0  0  0  0  0  0
   -4.3455    2.9288   -0.8703 H   0  0  0  0  0  0  0  0  0  0  0  0
   -3.1751    1.1122   -1.2479 C   0  0  2  0  0  0  0  0  0  0  0  0
    3.2380    0.7267    1.8923 C   0  0  0  0  0  0  0  0  0  0  0  0
    3.8224    0.5566    0.9663 H   0  0  0  0  0  0  0  0  0  0  0  0
    3.2903   -0.1967    2.5048 H   0  0  0  0  0  0  0  0  0  0  0  0
    3.7195    1.9458    2.6526 C   0  0  0  0  0  0  0  0  0  0  0  0
    3.6501    2.8544    2.0222 H   0  0  0  0  0  0  0  0  0  0  0  0
    4.7762    1.8056    2.9541 H   0  0  0  0  0  0  0  0  0  0  0  0
    3.1157    2.1076    3.5672 H   0  0  0  0  0  0  0  0  0  0  0  0
   -4.3548    0.1861   -1.0606 C   0  0  0  0  0  0  0  0  0  0  0  0
   -5.1312    0.2467    0.1136 C   0  0  0  0  0  0  0  0  0  0  0  0
   -4.8438    0.9517    0.9079 H   0  0  0  0  0  0  0  0  0  0  0  0
   -6.2230   -0.6141    0.2844 C   0  0  0  0  0  0  0  0  0  0  0  0
   -6.8153   -0.5674    1.2108 H   0  0  0  0  0  0  0  0  0  0  0  0
   -6.5518   -1.5456   -0.7153 C   0  0  0  0  0  0  0  0  0  0  0  0
   -7.4065   -2.2252   -0.5775 H   0  0  0  0  0  0  0  0  0  0  0  0
   -5.7803   -1.6138   -1.8854 C   0  0  0  0  0  0  0  0  0  0  0  0
   -6.0264   -2.3471   -2.6682 H   0  0  0  0  0  0  0  0  0  0  0  0
   -4.6842   -0.7526   -2.0547 C   0  0  0  0  0  0  0  0  0  0  0  0
   -4.0678   -0.8157   -2.9656 H   0  0  0  0  0  0  0  0  0  0  0  0
    0.7332    3.2628    0.0646 C   0  0  0  0  0  0  0  0  0  0  0  0
    1.9386    3.0405   -0.6364 C   0  0  0  0  0  0  0  0  0  0  0  0
    2.0967    2.0795   -1.1464 H   0  0  0  0  0  0  0  0  0  0  0  0
    2.9209    4.0361   -0.6890 C   0  0  0  0  0  0  0  0  0  0  0  0
    3.8536    3.8484   -1.2421 H   0  0  0  0  0  0  0  0  0  0  0  0
    2.7107    5.2666   -0.0441 C   0  0  0  0  0  0  0  0  0  0  0  0
    3.4827    6.0499   -0.0837 H   0  0  0  0  0  0  0  0  0  0  0  0
    1.5060    5.4997    0.6392 C   0  0  0  0  0  0  0  0  0  0  0  0
    1.3317    6.4662    1.1353 H   0  0  0  0  0  0  0  0  0  0  0  0
    0.5173    4.5087    0.6882 C   0  0  0  0  0  0  0  0  0  0  0  0
   -0.4269    4.6935    1.2196 H   0  0  0  0  0  0  0  0  0  0  0  0
   -1.8418   -0.5786    1.5995 C   0  0  0  0  0  0  0  0  0  0  0  0
   -1.3961   -0.1121    2.8502 C   0  0  0  0  0  0  0  0  0  0  0  0
   -0.6883    0.7299    2.8939 H   0  0  0  0  0  0  0  0  0  0  0  0
   -1.8418   -0.7197    4.0338 C   0  0  0  0  0  0  0  0  0  0  0  0
   -1.4840   -0.3497    5.0069 H   0  0  0  0  0  0  0  0  0  0  0  0
   -2.7383   -1.7986    3.9778 C   0  0  0  0  0  0  0  0  0  0  0  0
   -3.0853   -2.2773    4.9062 H   0  0  0  0  0  0  0  0  0  0  0  0
   -3.1839   -2.2700    2.7326 C   0  0  0  0  0  0  0  0  0  0  0  0
   -3.8807   -3.1202    2.6794 H   0  0  0  0  0  0  0  0  0  0  0  0
   -2.7359   -1.6635    1.5510 C   0  0  0  0  0  0  0  0  0  0  0  0
   -3.0838   -2.0378    0.5759 H   0  0  0  0  0  0  0  0  0  0  0  0
   -1.4383   -0.6495   -0.5115 H   0  0  0  0  0  0  0  0  0  0  0  0
   -2.5446    0.7326   -2.0921 H   0  0  0  0  0  0  0  0  0  0  0  0
  1  9  2  0  0  0  0
  2 14  1  0  0  0  0
  3  4  1  6  0  0  0
  3  7  1  0  0  0  0
  4  8  1  0  0  0  0
  5  2  1  0  0  0  0
  6  5  1  0  0  0  0
  7 54  1  6  0  0  0
  7  6  1  0  0  0  0
  7 43  1  0  0  0  0
  8  6  2  0  0  0  0
  9  4  1  0  0  0  0
 10 13  1  0  0  0  0
 10  9  1  0  0  0  0
 10 12  1  0  0  0  0
 11 10  1  0  0  0  0
 13 55  1  6  0  0  0
 13 21  1  0  0  0  0
 13  3  1  0  0  0  0
 14 16  1  0  0  0  0
 14 17  1  0  0  0  0
 15 14  1  0  0  0  0
 17 19  1  0  0  0  0
 17 20  1  0  0  0  0
 18 17  1  0  0  0  0
 21 22  1  0  0  0  0
 22 24  2  0  0  0  0
 22 23  1  0  0  0  0
 24 25  1  0  0  0  0
 26 27  1  0  0  0  0
 26 24  1  0  0  0  0
 28 26  2  0  0  0  0
 29 28  1  0  0  0  0
 30 28  1  0  0  0  0
 30 21  2  0  0  0  0
 31 30  1  0  0  0  0
 32  8  1  0  0  0  0
 32 41  1  0  0  0  0
 33 32  2  0  0  0  0
 34 33  1  0  0  0  0
 35 33  1  0  0  0  0
 35 37  2  0  0  0  0
 36 35  1  0  0  0  0
 37 39  1  0  0  0  0
 38 37  1  0  0  0  0
 39 41  2  0  0  0  0
 39 40  1  0  0  0  0
 41 42  1  0  0  0  0
 43 44  1  0  0  0  0
 44 45  1  0  0  0  0
 44 46  2  0  0  0  0
 46 47  1  0  0  0  0
 48 46  1  0  0  0  0
 48 49  1  0  0  0  0
 50 48  2  0  0  0  0
 51 50  1  0  0  0  0
 52 43  2  0  0  0  0
 52 50  1  0  0  0  0
 53 52  1  0  0  0  0
M  END
