13
 OpenBabel05122313113D

 45 51  0  0  1  0  0  0  0  0999 V2000
    2.0886    0.6917   -0.0382 C   0  0  2  0  0  0  0  0  0  0  0  0
    2.2096   -0.5337    0.9656 C   0  0  1  0  0  0  0  0  0  0  0  0
    2.1815   -0.3092    2.0423 H   0  0  0  0  0  0  0  0  0  0  0  0
    1.6687    2.0867    0.5514 C   0  0  0  0  0  0  0  0  0  0  0  0
    2.4595    2.4892    1.8123 C   0  0  0  0  0  0  0  0  0  0  0  0
    2.4673    1.7087    2.5965 H   0  0  0  0  0  0  0  0  0  0  0  0
    2.0064    3.4002    2.2514 H   0  0  0  0  0  0  0  0  0  0  0  0
    3.5121    2.7078    1.5579 H   0  0  0  0  0  0  0  0  0  0  0  0
    1.8739    3.2026   -0.4870 C   0  0  0  0  0  0  0  0  0  0  0  0
    1.3571    4.1265   -0.1599 H   0  0  0  0  0  0  0  0  0  0  0  0
    1.5079    2.9163   -1.4879 H   0  0  0  0  0  0  0  0  0  0  0  0
    2.9520    3.4236   -0.5916 H   0  0  0  0  0  0  0  0  0  0  0  0
    0.1949    1.8936    0.9194 C   0  0  1  0  0  3  0  0  0  0  0  0
   -0.9950    2.0940    0.1205 C   0  0  0  0  0  0  0  0  0  0  0  0
   -1.2584    2.7155   -1.1418 C   0  0  0  0  0  0  0  0  0  0  0  0
   -0.4443    3.1609   -1.7244 H   0  0  0  0  0  0  0  0  0  0  0  0
   -2.5599    2.7772   -1.6199 C   0  0  0  0  0  0  0  0  0  0  0  0
   -2.7547    3.2748   -2.5818 H   0  0  0  0  0  0  0  0  0  0  0  0
   -3.6545    2.2101   -0.8986 C   0  0  0  0  0  0  0  0  0  0  0  0
   -4.6699    2.2784   -1.3172 H   0  0  0  0  0  0  0  0  0  0  0  0
   -3.4495    1.6073    0.3354 C   0  0  0  0  0  0  0  0  0  0  0  0
   -4.2906    1.1987    0.9166 H   0  0  0  0  0  0  0  0  0  0  0  0
   -2.1299    1.5563    0.8696 C   0  0  0  0  0  0  0  0  0  0  0  0
   -1.6406    1.0584    2.1105 C   0  0  0  0  0  0  0  0  0  0  0  0
   -2.2537    0.6125    2.8995 H   0  0  0  0  0  0  0  0  0  0  0  0
   -0.2458    1.2825    2.1473 C   0  0  0  0  0  0  0  0  0  0  0  0
    0.4060    1.0321    2.9933 H   0  0  0  0  0  0  0  0  0  0  0  0
    1.7143   -1.9982    0.3374 B   0  0  1  0  0  0  0  0  0  0  0  0
    1.3492   -2.8763    1.0853 H   0  0  0  0  0  0  0  0  0  0  0  0
    1.2197   -1.6250   -1.3152 B   0  0  0  0  0  0  0  0  0  0  0  0
    0.4142   -2.2839   -1.9512 H   0  0  0  0  0  0  0  0  0  0  0  0
    1.4446    0.1309   -1.4802 B   0  0  2  0  0  0  0  0  0  0  0  0
    0.7645    0.8972   -2.1346 H   0  0  0  0  0  0  0  0  0  0  0  0
    3.6662    0.1044    0.2753 B   0  0  2  0  0  0  0  0  0  0  0  0
    4.4219    0.7493    0.9550 H   0  0  0  0  0  0  0  0  0  0  0  0
    3.4394   -1.6394    0.5003 B   0  0  1  0  0  0  0  0  0  0  0  0
    4.0971   -2.1807    1.3575 H   0  0  0  0  0  0  0  0  0  0  0  0
    2.8286   -2.3240   -1.0190 B   0  0  2  0  0  0  0  0  0  0  0  0
    3.1081   -3.4569   -1.3457 H   0  0  0  0  0  0  0  0  0  0  0  0
    2.6397   -0.9771   -2.1803 B   0  0  0  0  0  2  0  0  0  0  0  0
    2.7689   -1.1037   -3.3790 H   0  0  0  0  0  0  0  0  0  0  0  0
    3.1696    0.5161   -1.3713 B   0  0  1  0  0  0  0  0  0  0  0  0
    3.6383    1.5010   -1.8876 H   0  0  0  0  0  0  0  0  0  0  0  0
    4.0354   -1.0055   -1.0555 B   0  0  1  0  0  0  0  0  0  0  0  0
    5.1855   -1.1589   -1.3981 H   0  0  0  0  0  0  0  0  0  0  0  0
  1 34  1  0  0  0  0
  1  4  1  1  0  0  0
  1  2  1  0  0  0  0
  2  3  1  1  0  0  0
  4  5  1  0  0  0  0
  5  7  1  0  0  0  0
  5  6  1  0  0  0  0
  8  5  1  0  0  0  0
  9 10  1  0  0  0  0
  9  4  1  0  0  0  0
 11  9  1  0  0  0  0
 12  9  1  0  0  0  0
 13  4  1  6  0  0  0
 13 26  1  0  0  0  0
 14 23  1  0  0  0  0
 14 13  1  0  0  0  0
 15 14  2  0  0  0  0
 16 15  1  0  0  0  0
 17 15  1  0  0  0  0
 17 19  2  0  0  0  0
 18 17  1  0  0  0  0
 19 21  1  0  0  0  0
 20 19  1  0  0  0  0
 21 23  2  0  0  0  0
 21 22  1  0  0  0  0
 23 24  1  0  0  0  0
 24 26  2  0  0  0  0
 24 25  1  0  0  0  0
 26 27  1  0  0  0  0
 28 36  1  0  0  0  0
 28  2  1  0  0  0  0
 28 29  1  1  0  0  0
 30 38  1  0  0  0  0
 30 28  1  0  0  0  0
 31 30  1  0  0  0  0
 32 33  1  6  0  0  0
 32 42  1  0  0  0  0
 32  1  1  0  0  0  0
 34 35  1  1  0  0  0
 36  2  1  0  0  0  0
 36 37  1  1  0  0  0
 38 39  1  6  0  0  0
 38 36  1  0  0  0  0
 40 32  1  0  0  0  0
 41 40  1  0  0  0  0
 42 43  1  6  0  0  0
 42 44  1  0  0  0  0
 42 34  1  0  0  0  0
 44 45  1  6  0  0  0
 44 38  1  0  0  0  0
 44 34  1  0  0  0  0
M  END
