14
 OpenBabel05122313113D

 24 25  0  0  1  0  0  0  0  0999 V2000
   -2.1911    0.9910   -0.3152 O   0  0  0  0  0  0  0  0  0  0  0  0
   -2.1166   -0.9903    0.8293 N   0  0  0  0  0  0  0  0  0  0  0  0
   -2.6460   -1.8119    1.1323 H   0  0  0  0  0  0  0  0  0  0  0  0
   -7.0572   -0.1083   -0.1712 C   0  0  0  0  0  0  0  0  0  0  0  0
   -6.2793    0.6850   -1.0312 C   0  0  0  0  0  0  0  0  0  0  0  0
   -6.4418   -0.8692    0.8370 C   0  0  0  0  0  0  0  0  0  0  0  0
   -5.0506   -0.8444    0.9823 C   0  0  0  0  0  0  0  0  0  0  0  0
   -4.8878    0.7153   -0.8935 C   0  0  0  0  0  0  0  0  0  0  0  0
   -4.2624   -0.0597    0.1095 C   0  0  0  0  0  0  0  0  0  0  0  0
   -2.7979   -0.0281    0.2257 C   0  0  2  0  0  3  0  0  0  0  0  0
   -0.6566   -0.9772    1.0427 C   0  0  0  0  0  0  0  0  0  0  0  0
   -0.7362    1.0214   -0.4289 C   0  0  2  0  0  3  0  0  0  0  0  0
   -0.3359    2.1688   -1.2843 C   0  0  0  0  0  0  0  0  0  0  0  0
   -0.0115    0.0816    0.1972 C   0  0  0  0  0  2  0  0  0  0  0  0
   -8.1516   -0.1290   -0.2820 H   0  0  0  0  0  0  0  0  0  0  0  0
   -7.0513   -1.4750    1.5232 H   0  0  0  0  0  0  0  0  0  0  0  0
   -6.7619    1.2830   -1.8180 H   0  0  0  0  0  0  0  0  0  0  0  0
   -4.5874   -1.4116    1.8047 H   0  0  0  0  0  0  0  0  0  0  0  0
   -4.2678    1.3272   -1.5632 H   0  0  0  0  0  0  0  0  0  0  0  0
   -0.2472   -1.9686    0.7504 H   0  0  0  0  0  0  0  0  0  0  0  0
   -0.4416   -0.8167    2.1242 H   0  0  0  0  0  0  0  0  0  0  0  0
    0.7495    2.3409   -1.1706 H   0  0  0  0  0  0  0  0  0  0  0  0
   -0.5740    1.9847   -2.3534 H   0  0  0  0  0  0  0  0  0  0  0  0
   -0.8667    3.0897   -0.9674 H   0  0  0  0  0  0  0  0  0  0  0  0
  1 10  1  0  0  0  0
  2 11  1  0  0  0  0
  2  3  1  0  0  0  0
  4  6  1  0  0  0  0
  5  8  1  0  0  0  0
  5  4  2  0  0  0  0
  6  7  2  0  0  0  0
  6 16  1  0  0  0  0
  7 18  1  0  0  0  0
  8  9  2  0  0  0  0
  9  7  1  0  0  0  0
 10  9  1  6  0  0  0
 10  2  1  0  0  0  0
 11 21  1  0  0  0  0
 12 13  1  6  0  0  0
 12  1  1  0  0  0  0
 12 14  1  0  0  0  0
 13 22  1  0  0  0  0
 13 24  1  0  0  0  0
 14 11  1  0  0  0  0
 15  4  1  0  0  0  0
 17  5  1  0  0  0  0
 19  8  1  0  0  0  0
 20 11  1  0  0  0  0
 23 13  1  0  0  0  0
M  END
