13
 OpenBabel05122313113D

 38 39  0  0  1  0  0  0  0  0999 V2000
    5.1457    0.2413   -0.6799 S   0  0  0  0  0  0  0  0  0  0  0  0
    1.1005    4.3505    1.1572 O   0  0  0  0  0  0  0  0  0  0  0  0
    3.4687    0.9504    1.8005 O   0  0  0  0  0  0  0  0  0  0  0  0
    5.3473    0.2749   -2.1419 O   0  0  0  0  0  0  0  0  0  0  0  0
    6.2063    0.5717    0.2787 O   0  0  0  0  0  0  0  0  0  0  0  0
    1.3543    2.7832   -0.4926 N   0  0  0  0  0  0  0  0  0  0  0  0
    3.8049    1.3151   -0.4517 N   0  0  0  0  0  0  0  0  0  0  0  0
    1.3060    2.3842   -1.8433 C   0  0  0  0  0  0  0  0  0  0  0  0
    1.5106    3.1585   -2.5930 H   0  0  0  0  0  0  0  0  0  0  0  0
    1.0008    1.0977   -2.1785 C   0  0  0  0  0  0  0  0  0  0  0  0
    1.0290    0.8166   -3.2414 H   0  0  0  0  0  0  0  0  0  0  0  0
    0.6538    0.0951   -1.1682 C   0  0  0  0  0  3  0  0  0  0  0  0
    0.8558    0.4445    0.2332 C   0  0  0  0  0  3  0  0  0  0  0  0
    1.5889    1.7582    0.5276 C   0  0  1  0  0  0  0  0  0  0  0  0
    1.2933    2.2171    1.4873 H   0  0  0  0  0  0  0  0  0  0  0  0
    1.1092    4.0827   -0.0464 C   0  0  0  0  0  0  0  0  0  0  0  0
    0.8339    5.1244   -1.1086 C   0  0  0  0  0  0  0  0  0  0  0  0
    0.6829    6.0911   -0.5984 H   0  0  0  0  0  0  0  0  0  0  0  0
   -0.0815    4.8533   -1.6714 H   0  0  0  0  0  0  0  0  0  0  0  0
    1.6726    5.2198   -1.8279 H   0  0  0  0  0  0  0  0  0  0  0  0
    3.0600    1.3527    0.7162 C   0  0  0  0  0  0  0  0  0  0  0  0
    4.4191   -1.3382   -0.2317 C   0  0  0  0  0  0  0  0  0  0  0  0
    4.5311   -1.8025    1.0860 C   0  0  0  0  0  0  0  0  0  0  0  0
    5.0753   -1.2012    1.8264 H   0  0  0  0  0  0  0  0  0  0  0  0
    3.9270   -3.0227    1.4195 C   0  0  0  0  0  0  0  0  0  0  0  0
    4.0109   -3.4006    2.4507 H   0  0  0  0  0  0  0  0  0  0  0  0
    3.2217   -3.7792    0.4597 C   0  0  0  0  0  0  0  0  0  0  0  0
    3.1197   -3.2730   -0.8549 C   0  0  0  0  0  0  0  0  0  0  0  0
    2.5669   -3.8476   -1.6146 H   0  0  0  0  0  0  0  0  0  0  0  0
    3.7160   -2.0577   -1.2099 C   0  0  0  0  0  0  0  0  0  0  0  0
    3.6518   -1.6627   -2.2340 H   0  0  0  0  0  0  0  0  0  0  0  0
    2.6281   -5.1187    0.8120 C   0  0  0  0  0  0  0  0  0  0  0  0
    3.3437   -5.9365    0.5795 H   0  0  0  0  0  0  0  0  0  0  0  0
    1.7041   -5.3185    0.2352 H   0  0  0  0  0  0  0  0  0  0  0  0
    2.3925   -5.1916    1.8922 H   0  0  0  0  0  0  0  0  0  0  0  0
    3.3141    1.5155   -1.3399 H   0  0  0  0  0  0  0  0  0  0  0  0
    0.7809   -0.9608   -1.4641 H   0  0  0  0  0  0  0  0  0  0  0  0
    1.2479   -0.3621    0.8765 H   0  0  0  0  0  0  0  0  0  0  0  0
  1  7  1  0  0  0  0
  1 22  1  0  0  0  0
  1  5  2  0  0  0  0
  4  1  2  0  0  0  0
  6 16  1  0  0  0  0
  6 14  1  0  0  0  0
  7 21  1  0  0  0  0
  8  6  1  0  0  0  0
  9  8  1  0  0  0  0
 10  8  2  0  0  0  0
 10 12  1  0  0  0  0
 11 10  1  0  0  0  0
 12 13  1  0  0  0  0
 13 14  1  0  0  0  0
 13 38  1  0  0  0  0
 14 21  1  0  0  0  0
 14 15  1  1  0  0  0
 16  2  2  0  0  0  0
 17 18  1  0  0  0  0
 17 16  1  0  0  0  0
 19 17  1  0  0  0  0
 20 17  1  0  0  0  0
 21  3  2  0  0  0  0
 22 23  1  0  0  0  0
 23 25  2  0  0  0  0
 23 24  1  0  0  0  0
 25 26  1  0  0  0  0
 27 32  1  0  0  0  0
 27 25  1  0  0  0  0
 28 27  2  0  0  0  0
 29 28  1  0  0  0  0
 30 28  1  0  0  0  0
 30 22  2  0  0  0  0
 31 30  1  0  0  0  0
 32 35  1  0  0  0  0
 33 32  1  0  0  0  0
 34 32  1  0  0  0  0
 36  7  1  0  0  0  0
 37 12  1  0  0  0  0
M  END
