4
 OpenBabel05122313113D

 32 34  0  0  0  0  0  0  0  0999 V2000
   -2.6524    1.5672   -0.9915 S   0  0  0  0  0  0  0  0  0  0  0  0
   -0.5218   -2.3502    0.2518 N   0  0  0  0  0  0  0  0  0  0  0  0
   -1.6027   -1.0001   -1.0999 N   0  0  0  0  0  0  0  0  0  0  0  0
   -0.3929   -1.2243   -0.5037 C   0  0  0  0  0  2  0  0  0  0  0  0
    0.5211   -2.9478    1.0652 C   0  0  0  0  0  0  0  0  0  0  0  0
    0.6768   -4.0031    0.7682 H   0  0  0  0  0  0  0  0  0  0  0  0
    0.2452   -2.8946    2.1373 H   0  0  0  0  0  0  0  0  0  0  0  0
    1.4536   -2.3823    0.8929 H   0  0  0  0  0  0  0  0  0  0  0  0
   -1.8198   -2.8540    0.1529 C   0  0  0  0  0  0  0  0  0  0  0  0
   -2.4308   -3.9708    0.7397 C   0  0  0  0  0  0  0  0  0  0  0  0
   -1.8832   -4.6393    1.4182 H   0  0  0  0  0  0  0  0  0  0  0  0
   -3.7753   -4.1970    0.4138 C   0  0  0  0  0  0  0  0  0  0  0  0
   -4.2957   -5.0621    0.8495 H   0  0  0  0  0  0  0  0  0  0  0  0
   -4.4742   -3.3409   -0.4675 C   0  0  0  0  0  0  0  0  0  0  0  0
   -5.5273   -3.5528   -0.7019 H   0  0  0  0  0  0  0  0  0  0  0  0
   -3.8630   -2.2224   -1.0510 C   0  0  0  0  0  0  0  0  0  0  0  0
   -4.4217   -1.5567   -1.7213 H   0  0  0  0  0  0  0  0  0  0  0  0
   -2.5206   -1.9899   -0.7196 C   0  0  0  0  0  0  0  0  0  0  0  0
   -1.9010    0.1629   -1.9154 C   0  0  0  0  0  0  0  0  0  0  0  0
   -2.5644   -0.1342   -2.7494 H   0  0  0  0  0  0  0  0  0  0  0  0
   -0.9444    0.5377   -2.3276 H   0  0  0  0  0  0  0  0  0  0  0  0
   -4.3673    1.0530   -0.9151 C   0  0  0  0  0  0  0  0  0  0  0  0
   -4.9380    0.7249    0.3294 C   0  0  0  0  0  0  0  0  0  0  0  0
   -4.3231    0.7782    1.2402 H   0  0  0  0  0  0  0  0  0  0  0  0
   -6.2796    0.3202    0.3974 C   0  0  0  0  0  0  0  0  0  0  0  0
   -6.7231    0.0615    1.3706 H   0  0  0  0  0  0  0  0  0  0  0  0
   -7.0505    0.2336   -0.7728 C   0  0  0  0  0  0  0  0  0  0  0  0
   -8.0998   -0.0922   -0.7185 H   0  0  0  0  0  0  0  0  0  0  0  0
   -6.4861    0.5798   -2.0127 C   0  0  0  0  0  0  0  0  0  0  0  0
   -7.0946    0.5345   -2.9284 H   0  0  0  0  0  0  0  0  0  0  0  0
   -5.1517    1.0067   -2.0854 C   0  0  0  0  0  0  0  0  0  0  0  0
   -4.7143    1.3060   -3.0502 H   0  0  0  0  0  0  0  0  0  0  0  0
  1 22  1  0  0  0  0
  2  5  1  0  0  0  0
  3 18  1  0  0  0  0
  3  4  1  0  0  0  0
  4  2  1  0  0  0  0
  5  7  1  0  0  0  0
  6  5  1  0  0  0  0
  8  5  1  0  0  0  0
  9  2  1  0  0  0  0
  9 10  1  0  0  0  0
 10 11  1  0  0  0  0
 12 10  2  0  0  0  0
 12 13  1  0  0  0  0
 14 12  1  0  0  0  0
 15 14  1  0  0  0  0
 16 18  1  0  0  0  0
 16 14  2  0  0  0  0
 17 16  1  0  0  0  0
 18  9  2  0  0  0  0
 19  3  1  0  0  0  0
 19  1  1  0  0  0  0
 20 19  1  0  0  0  0
 21 19  1  0  0  0  0
 22 23  1  0  0  0  0
 23 25  2  0  0  0  0
 23 24  1  0  0  0  0
 25 26  1  0  0  0  0
 27 28  1  0  0  0  0
 27 25  1  0  0  0  0
 29 27  2  0  0  0  0
 30 29  1  0  0  0  0
 31 29  1  0  0  0  0
 31 22  2  0  0  0  0
 32 31  1  0  0  0  0
M  END
