2
 OpenBabel05122313113D

 28 27  0  0  0  0  0  0  0  0999 V2000
   -1.6484   -1.0052   -0.2497 N   0  0  0  0  0  0  0  0  0  0  0  0
   -0.7985   -1.9061   -0.3975 C   0  0  0  0  0  3  0  0  0  0  0  0
   -0.7742   -3.3780   -0.5949 C   0  0  0  0  0  0  0  0  0  0  0  0
   -1.7999   -3.7877   -0.6764 H   0  0  0  0  0  0  0  0  0  0  0  0
   -0.2556   -3.8602    0.2592 H   0  0  0  0  0  0  0  0  0  0  0  0
   -0.1981   -3.6370   -1.5053 H   0  0  0  0  0  0  0  0  0  0  0  0
   -3.1703   -0.6403   -0.0749 B   0  0  0  0  0  0  0  0  0  0  0  0
   -4.0277   -1.8445   -0.8044 C   0  0  0  0  0  0  0  0  0  0  0  0
   -3.6791   -1.9765   -1.8552 H   0  0  0  0  0  0  0  0  0  0  0  0
   -3.8262   -2.8217   -0.3064 H   0  0  0  0  0  0  0  0  0  0  0  0
   -5.5419   -1.6032   -0.8051 C   0  0  0  0  0  0  0  0  0  0  0  0
   -6.1156   -2.4267   -1.2844 H   0  0  0  0  0  0  0  0  0  0  0  0
   -5.8040   -0.6680   -1.3435 H   0  0  0  0  0  0  0  0  0  0  0  0
   -5.9355   -1.4919    0.2276 H   0  0  0  0  0  0  0  0  0  0  0  0
   -3.3913    0.8352   -0.7534 C   0  0  0  0  0  0  0  0  0  0  0  0
   -4.4107    1.2084   -0.5068 H   0  0  0  0  0  0  0  0  0  0  0  0
   -2.6929    1.5463   -0.2542 H   0  0  0  0  0  0  0  0  0  0  0  0
   -3.1699    0.8906   -2.2677 C   0  0  0  0  0  0  0  0  0  0  0  0
   -3.2090    1.9191   -2.6913 H   0  0  0  0  0  0  0  0  0  0  0  0
   -3.9273    0.2883   -2.8124 H   0  0  0  0  0  0  0  0  0  0  0  0
   -2.1791    0.4632   -2.5395 H   0  0  0  0  0  0  0  0  0  0  0  0
   -3.4017   -0.5800    1.5584 C   0  0  0  0  0  0  0  0  0  0  0  0
   -2.8230    0.2740    1.9787 H   0  0  0  0  0  0  0  0  0  0  0  0
   -4.4706   -0.3167    1.7269 H   0  0  0  0  0  0  0  0  0  0  0  0
   -3.0543   -1.8447    2.3472 C   0  0  0  0  0  0  0  0  0  0  0  0
   -3.2376   -1.7475    3.4396 H   0  0  0  0  0  0  0  0  0  0  0  0
   -1.9808   -2.1150    2.2272 H   0  0  0  0  0  0  0  0  0  0  0  0
   -3.6412   -2.7206    1.9979 H   0  0  0  0  0  0  0  0  0  0  0  0
  1  7  1  0  0  0  0
  2  1  2  0  0  0  0
  3  2  1  0  0  0  0
  3  5  1  0  0  0  0
  4  3  1  0  0  0  0
  6  3  1  0  0  0  0
  7 22  1  0  0  0  0
  8 10  1  0  0  0  0
  8  7  1  0  0  0  0
  9  8  1  0  0  0  0
 11  8  1  0  0  0  0
 11 14  1  0  0  0  0
 12 11  1  0  0  0  0
 13 11  1  0  0  0  0
 15 16  1  0  0  0  0
 15 17  1  0  0  0  0
 15  7  1  0  0  0  0
 18 15  1  0  0  0  0
 19 18  1  0  0  0  0
 20 18  1  0  0  0  0
 21 18  1  0  0  0  0
 22 24  1  0  0  0  0
 22 23  1  0  0  0  0
 22 25  1  0  0  0  0
 25 26  1  0  0  0  0
 27 25  1  0  0  0  0
 28 25  1  0  0  0  0
M  END
