6
 OpenBabel05122313113D

 46 47  0  0  0  0  0  0  0  0999 V2000
   -1.8832   -0.3791    0.6720 N   0  0  0  0  0  0  0  0  0  0  0  0
   -1.9857    0.9681    0.1666 C   0  0  0  0  0  0  0  0  0  0  0  0
   -0.7899    1.7802    2.3122 C   0  0  0  0  0  0  0  0  0  0  0  0
    0.2916    1.9909    2.1708 H   0  0  0  0  0  0  0  0  0  0  0  0
   -0.8380    0.7077    2.5784 H   0  0  0  0  0  0  0  0  0  0  0  0
   -0.8387   -1.1901    0.4674 C   0  0  0  0  0  2  0  0  0  0  0  0
   -1.4842    2.0198    0.9844 C   0  0  0  0  0  0  0  0  0  0  0  0
   -2.9862   -0.9996    1.5191 C   0  0  0  0  0  0  0  0  0  0  0  0
   -3.0012    0.1384   -2.0619 C   0  0  0  0  0  0  0  0  0  0  0  0
   -2.7795   -0.8600   -1.6471 H   0  0  0  0  0  0  0  0  0  0  0  0
   -2.3542    0.1913   -2.9633 H   0  0  0  0  0  0  0  0  0  0  0  0
   -2.5486    1.2245   -1.1107 C   0  0  0  0  0  0  0  0  0  0  0  0
   -0.9722   -2.4483    1.3635 C   0  0  0  0  0  0  0  0  0  0  0  0
   -1.5989    3.3397    0.5117 C   0  0  0  0  0  0  0  0  0  0  0  0
   -1.2020    4.1638    1.1226 H   0  0  0  0  0  0  0  0  0  0  0  0
   -1.3014    2.6373    3.4766 C   0  0  0  0  0  0  0  0  0  0  0  0
   -1.1495    3.7192    3.2917 H   0  0  0  0  0  0  0  0  0  0  0  0
   -0.7616    2.3860    4.4114 H   0  0  0  0  0  0  0  0  0  0  0  0
   -2.3849    2.4853    3.6553 H   0  0  0  0  0  0  0  0  0  0  0  0
   -2.6388    2.5674   -1.5304 C   0  0  0  0  0  0  0  0  0  0  0  0
   -3.0661    2.7831   -2.5219 H   0  0  0  0  0  0  0  0  0  0  0  0
   -4.4662    0.2456   -2.5012 C   0  0  0  0  0  0  0  0  0  0  0  0
   -5.1633    0.1987   -1.6394 H   0  0  0  0  0  0  0  0  0  0  0  0
   -4.7250   -0.5824   -3.1908 H   0  0  0  0  0  0  0  0  0  0  0  0
   -4.6736    1.1969   -3.0319 H   0  0  0  0  0  0  0  0  0  0  0  0
   -2.1786    3.6167   -0.7305 C   0  0  0  0  0  0  0  0  0  0  0  0
   -2.2491    4.6557   -1.0863 H   0  0  0  0  0  0  0  0  0  0  0  0
   -4.0654   -1.6025    0.6058 C   0  0  0  0  0  0  0  0  0  0  0  0
   -3.6380   -2.3068   -0.1311 H   0  0  0  0  0  0  0  0  0  0  0  0
   -4.6103   -0.8117    0.0579 H   0  0  0  0  0  0  0  0  0  0  0  0
   -4.8014   -2.1509    1.2265 H   0  0  0  0  0  0  0  0  0  0  0  0
   -3.6417    0.0103    2.4616 C   0  0  0  0  0  0  0  0  0  0  0  0
   -4.4435   -0.5030    3.0280 H   0  0  0  0  0  0  0  0  0  0  0  0
   -4.1036    0.8477    1.9029 H   0  0  0  0  0  0  0  0  0  0  0  0
   -2.9268    0.4251    3.1942 H   0  0  0  0  0  0  0  0  0  0  0  0
   -1.2134   -3.7353    0.5456 C   0  0  0  0  0  0  0  0  0  0  0  0
   -0.3258   -3.9866   -0.0656 H   0  0  0  0  0  0  0  0  0  0  0  0
   -2.0621   -3.6428   -0.1559 H   0  0  0  0  0  0  0  0  0  0  0  0
   -1.4128   -4.5703    1.2478 H   0  0  0  0  0  0  0  0  0  0  0  0
    0.3032   -2.6420    2.2120 C   0  0  0  0  0  0  0  0  0  0  0  0
    0.1399   -3.4687    2.9336 H   0  0  0  0  0  0  0  0  0  0  0  0
    0.5570   -1.7275    2.7854 H   0  0  0  0  0  0  0  0  0  0  0  0
    1.1720   -2.9087    1.5760 H   0  0  0  0  0  0  0  0  0  0  0  0
   -2.1806   -2.0773    2.2646 C   0  0  0  0  0  0  0  0  0  0  0  0
   -2.8019   -2.9599    2.5101 H   0  0  0  0  0  0  0  0  0  0  0  0
   -1.8098   -1.6532    3.2204 H   0  0  0  0  0  0  0  0  0  0  0  0
  1  8  1  0  0  0  0
  2  1  1  0  0  0  0
  2  7  1  0  0  0  0
  3  5  1  0  0  0  0
  3 16  1  0  0  0  0
  4  3  1  0  0  0  0
  6  1  1  0  0  0  0
  6 13  1  0  0  0  0
  7  3  1  0  0  0  0
  8 44  1  0  0  0  0
  8 32  1  0  0  0  0
  9 10  1  0  0  0  0
  9 12  1  0  0  0  0
 11  9  1  0  0  0  0
 12  2  2  0  0  0  0
 13 40  1  0  0  0  0
 13 44  1  0  0  0  0
 14  7  2  0  0  0  0
 14 15  1  0  0  0  0
 16 19  1  0  0  0  0
 16 18  1  0  0  0  0
 17 16  1  0  0  0  0
 20 12  1  0  0  0  0
 20 26  2  0  0  0  0
 21 20  1  0  0  0  0
 22  9  1  0  0  0  0
 22 23  1  0  0  0  0
 24 22  1  0  0  0  0
 25 22  1  0  0  0  0
 26 14  1  0  0  0  0
 27 26  1  0  0  0  0
 28 31  1  0  0  0  0
 28  8  1  0  0  0  0
 29 28  1  0  0  0  0
 30 28  1  0  0  0  0
 32 33  1  0  0  0  0
 32 35  1  0  0  0  0
 34 32  1  0  0  0  0
 36 39  1  0  0  0  0
 36 13  1  0  0  0  0
 37 36  1  0  0  0  0
 38 36  1  0  0  0  0
 40 42  1  0  0  0  0
 40 41  1  0  0  0  0
 43 40  1  0  0  0  0
 44 45  1  0  0  0  0
 44 46  1  0  0  0  0
M  END
