1
 OpenBabel05122313113D

 42 42  0  0  1  0  0  0  0  0999 V2000
   -1.2326   -0.3685   -0.7010 C   0  0  2  0  0  3  0  0  0  0  0  0
   -2.6020   -0.6914   -0.7913 N   0  0  0  0  0  0  0  0  0  0  0  0
   -3.2351   -0.1724   -2.0013 C   0  0  0  0  0  0  0  0  0  0  0  0
   -4.3386   -0.2512   -1.9087 H   0  0  0  0  0  0  0  0  0  0  0  0
   -2.9220   -0.7174   -2.9250 H   0  0  0  0  0  0  0  0  0  0  0  0
   -2.9819    0.8977   -2.1344 H   0  0  0  0  0  0  0  0  0  0  0  0
   -2.9353   -2.0881   -0.5289 C   0  0  0  0  0  0  0  0  0  0  0  0
   -4.0392   -2.1924   -0.4898 H   0  0  0  0  0  0  0  0  0  0  0  0
   -2.5267   -2.3824    0.4576 H   0  0  0  0  0  0  0  0  0  0  0  0
   -2.5342   -2.7892   -1.2963 H   0  0  0  0  0  0  0  0  0  0  0  0
   -0.7475    0.9593   -0.3413 C   0  0  2  0  0  3  0  0  0  0  0  0
   -1.4703    2.1259   -0.1118 N   0  0  0  0  0  0  0  0  0  0  0  0
   -1.3062    3.2184   -1.0581 C   0  0  0  0  0  0  0  0  0  0  0  0
   -1.4419    4.1957   -0.5473 H   0  0  0  0  0  0  0  0  0  0  0  0
   -2.0498    3.1681   -1.8921 H   0  0  0  0  0  0  0  0  0  0  0  0
   -0.2970    3.1966   -1.5062 H   0  0  0  0  0  0  0  0  0  0  0  0
   -2.7706    2.0924    0.5325 C   0  0  0  0  0  0  0  0  0  0  0  0
   -2.9236    3.0454    1.0846 H   0  0  0  0  0  0  0  0  0  0  0  0
   -2.8271    1.2566    1.2478 H   0  0  0  0  0  0  0  0  0  0  0  0
   -3.6153    1.9797   -0.1869 H   0  0  0  0  0  0  0  0  0  0  0  0
    0.7032    0.9414   -0.4873 C   0  0  0  0  0  0  0  0  0  0  0  0
    1.5661    2.0209   -0.3326 N   0  0  0  0  0  0  0  0  0  0  0  0
    2.4415    2.3972   -1.4276 C   0  0  0  0  0  0  0  0  0  0  0  0
    3.4216    2.7493   -1.0386 H   0  0  0  0  0  0  0  0  0  0  0  0
    2.0108    3.2217   -2.0475 H   0  0  0  0  0  0  0  0  0  0  0  0
    2.6225    1.5260   -2.0856 H   0  0  0  0  0  0  0  0  0  0  0  0
    1.3706    3.0101    0.7094 C   0  0  0  0  0  0  0  0  0  0  0  0
    2.3323    3.2010    1.2360 H   0  0  0  0  0  0  0  0  0  0  0  0
    0.6345    2.6384    1.4432 H   0  0  0  0  0  0  0  0  0  0  0  0
    1.0029    3.9853    0.3144 H   0  0  0  0  0  0  0  0  0  0  0  0
    1.1008   -0.3769   -0.9797 C   0  0  0  0  0  0  0  0  0  0  0  0
    2.3947   -0.7711   -1.2751 N   0  0  0  0  0  0  0  0  0  0  0  0
    2.5955   -2.0822   -1.8884 C   0  0  0  0  0  0  0  0  0  0  0  0
    3.5896   -2.0951   -2.3786 H   0  0  0  0  0  0  0  0  0  0  0  0
    1.7997   -2.2896   -2.6227 H   0  0  0  0  0  0  0  0  0  0  0  0
    2.5744   -2.8954   -1.1237 H   0  0  0  0  0  0  0  0  0  0  0  0
    3.4377   -0.4542   -0.3089 C   0  0  0  0  0  0  0  0  0  0  0  0
    4.4289   -0.4946   -0.8032 H   0  0  0  0  0  0  0  0  0  0  0  0
    3.4306   -1.1932    0.5287 H   0  0  0  0  0  0  0  0  0  0  0  0
    3.2885    0.5483    0.1262 H   0  0  0  0  0  0  0  0  0  0  0  0
   -0.1585   -1.0724   -1.4536 C   0  0  0  0  0  0  0  0  0  0  0  0
   -0.2887   -2.0466   -2.1982 O   0  0  0  0  0  0  0  0  0  0  0  0
  1  2  1  6  0  0  0
  1 11  1  0  0  0  0
  2  7  1  0  0  0  0
  3  4  1  0  0  0  0
  3  2  1  0  0  0  0
  5  3  1  0  0  0  0
  6  3  1  0  0  0  0
  7  8  1  0  0  0  0
  7  9  1  0  0  0  0
 10  7  1  0  0  0  0
 11 12  1  6  0  0  0
 12 17  1  0  0  0  0
 13 14  1  0  0  0  0
 13 12  1  0  0  0  0
 15 13  1  0  0  0  0
 16 13  1  0  0  0  0
 17 18  1  0  0  0  0
 17 19  1  0  0  0  0
 20 17  1  0  0  0  0
 21 11  1  0  0  0  0
 21 22  1  0  0  0  0
 22 27  1  0  0  0  0
 23 24  1  0  0  0  0
 23 22  1  0  0  0  0
 25 23  1  0  0  0  0
 26 23  1  0  0  0  0
 27 28  1  0  0  0  0
 27 29  1  0  0  0  0
 30 27  1  0  0  0  0
 31 21  2  0  0  0  0
 32 31  1  0  0  0  0
 32 37  1  0  0  0  0
 33 32  1  0  0  0  0
 33 36  1  0  0  0  0
 34 33  1  0  0  0  0
 35 33  1  0  0  0  0
 37 40  1  0  0  0  0
 37 39  1  0  0  0  0
 38 37  1  0  0  0  0
 41 31  1  0  0  0  0
 41  1  1  0  0  0  0
 42 41  2  0  0  0  0
M  END
