8
 OpenBabel05122313113D

 32 34  0  0  0  0  0  0  0  0999 V2000
   -3.2264   -2.2796    0.0661 C   0  0  0  0  0  0  0  0  0  0  0  0
   -2.8786   -0.9449    0.3686 C   0  0  0  0  0  0  0  0  0  0  0  0
   -3.8335    0.0754    0.1643 C   0  0  0  0  0  0  0  0  0  0  0  0
   -5.1076   -0.2343   -0.3233 C   0  0  0  0  0  0  0  0  0  0  0  0
   -5.4487   -1.5668   -0.6101 C   0  0  0  0  0  0  0  0  0  0  0  0
   -4.5067   -2.5878   -0.4125 C   0  0  0  0  0  0  0  0  0  0  0  0
   -1.3384    0.3943    1.8732 C   0  0  0  0  0  0  0  0  0  0  0  0
   -0.0181    0.6917    2.3561 C   0  0  0  0  0  3  0  0  0  0  0  0
    1.1116   -0.0475    1.9096 C   0  0  0  0  0  0  0  0  0  0  0  0
    3.2606   -2.0395    1.1375 C   0  0  0  0  0  0  0  0  0  0  0  0
    4.3778   -2.6865    0.5917 C   0  0  0  0  0  0  0  0  0  0  0  0
    4.3825   -3.0728   -0.7579 C   0  0  0  0  0  0  0  0  0  0  0  0
    3.2593   -2.8159   -1.5609 C   0  0  0  0  0  0  0  0  0  0  0  0
    2.1351   -2.1786   -1.0171 C   0  0  0  0  0  0  0  0  0  0  0  0
   -0.3759   -1.3608    0.4369 C   0  0  0  0  0  3  0  0  0  0  0  0
   -1.5374   -0.6444    0.9159 C   0  0  0  0  0  0  0  0  0  0  0  0
    2.1211   -1.7830    0.3432 C   0  0  0  0  0  0  0  0  0  0  0  0
    0.9398   -1.0953    0.9249 C   0  0  0  0  0  0  0  0  0  0  0  0
    1.2618   -1.9790   -1.6585 H   0  0  0  0  0  0  0  0  0  0  0  0
    3.2562   -3.1158   -2.6194 H   0  0  0  0  0  0  0  0  0  0  0  0
    5.2619   -3.5774   -1.1846 H   0  0  0  0  0  0  0  0  0  0  0  0
    5.2503   -2.8959    1.2282 H   0  0  0  0  0  0  0  0  0  0  0  0
    3.2609   -1.7640    2.2027 H   0  0  0  0  0  0  0  0  0  0  0  0
   -2.5024   -3.0903    0.2380 H   0  0  0  0  0  0  0  0  0  0  0  0
   -4.7705   -3.6332   -0.6301 H   0  0  0  0  0  0  0  0  0  0  0  0
   -6.4511   -1.8083   -0.9937 H   0  0  0  0  0  0  0  0  0  0  0  0
   -5.8380    0.5705   -0.4929 H   0  0  0  0  0  0  0  0  0  0  0  0
   -3.5616    1.1249    0.3490 H   0  0  0  0  0  0  0  0  0  0  0  0
   -0.5089   -2.0993   -0.3640 H   0  0  0  0  0  0  0  0  0  0  0  0
   -2.2007    0.9802    2.2213 H   0  0  0  0  0  0  0  0  0  0  0  0
    0.1302    1.5288    3.0563 H   0  0  0  0  0  0  0  0  0  0  0  0
    2.1168    0.2272    2.2578 H   0  0  0  0  0  0  0  0  0  0  0  0
  1 24  1  0  0  0  0
  1  2  1  0  0  0  0
  2 16  1  0  0  0  0
  3 28  1  0  0  0  0
  3  2  2  0  0  0  0
  4  3  1  0  0  0  0
  5  6  1  0  0  0  0
  5  4  2  0  0  0  0
  6  1  2  0  0  0  0
  7 30  1  0  0  0  0
  7  8  1  0  0  0  0
  8 31  1  0  0  0  0
  9 32  1  0  0  0  0
  9  8  1  0  0  0  0
 10 23  1  0  0  0  0
 11 10  1  0  0  0  0
 11 22  1  0  0  0  0
 12 11  2  0  0  0  0
 13 14  2  0  0  0  0
 13 12  1  0  0  0  0
 14 17  1  0  0  0  0
 15 16  1  0  0  0  0
 15 18  1  0  0  0  0
 16  7  2  0  0  0  0
 17 18  1  0  0  0  0
 17 10  2  0  0  0  0
 18  9  2  0  0  0  0
 19 14  1  0  0  0  0
 20 13  1  0  0  0  0
 21 12  1  0  0  0  0
 25  6  1  0  0  0  0
 26  5  1  0  0  0  0
 27  4  1  0  0  0  0
 29 15  1  0  0  0  0
M  END
