4
 OpenBabel05122313113D

 26 27  0  0  1  0  0  0  0  0999 V2000
   -2.2401   -0.0462    0.3771 C   0  0  2  0  0  0  0  0  0  0  0  0
   -1.0148    0.8220    0.7360 C   0  0  0  0  0  3  0  0  0  0  0  0
   -1.0037    1.2048    1.7704 H   0  0  0  0  0  0  0  0  0  0  0  0
   -0.3680    1.6319   -0.2495 C   0  0  1  0  0  3  0  0  0  0  0  0
   -0.2421    1.0537   -1.5406 C   0  0  0  0  0  3  0  0  0  0  0  0
    0.3201    1.5811   -2.3254 H   0  0  0  0  0  0  0  0  0  0  0  0
   -1.2299   -0.0432   -1.9194 C   0  0  1  0  0  0  0  0  0  0  0  0
   -1.4127   -0.0620   -3.0119 H   0  0  0  0  0  0  0  0  0  0  0  0
   -0.4794   -1.2808   -1.4685 C   0  0  0  0  0  0  0  0  0  0  0  0
    0.1894   -1.7590   -2.1992 H   0  0  0  0  0  0  0  0  0  0  0  0
   -0.6935   -1.8803   -0.2318 C   0  0  0  0  0  0  0  0  0  0  0  0
   -0.1807   -2.8351   -0.0322 H   0  0  0  0  0  0  0  0  0  0  0  0
   -1.8807   -1.5193    0.6287 C   0  0  0  0  0  0  0  0  0  0  0  0
   -1.6493   -1.6807    1.7013 H   0  0  0  0  0  0  0  0  0  0  0  0
   -2.7387   -2.1894    0.3859 H   0  0  0  0  0  0  0  0  0  0  0  0
   -2.5324    0.1198   -1.1310 C   0  0  0  0  0  0  0  0  0  0  0  0
   -3.2789   -0.6389   -1.4493 H   0  0  0  0  0  0  0  0  0  0  0  0
   -2.9629    1.1234   -1.3300 H   0  0  0  0  0  0  0  0  0  0  0  0
   -3.4499    0.3815    1.2176 C   0  0  0  0  0  0  0  0  0  0  0  0
   -4.3502   -0.2101    0.9520 H   0  0  0  0  0  0  0  0  0  0  0  0
   -3.6855    1.4530    1.0560 H   0  0  0  0  0  0  0  0  0  0  0  0
   -3.2532    0.2345    2.2995 H   0  0  0  0  0  0  0  0  0  0  0  0
    0.1431    3.0204    0.0477 C   0  0  0  0  0  0  0  0  0  0  0  0
    0.4258    3.1404    1.1109 H   0  0  0  0  0  0  0  0  0  0  0  0
   -0.6704    3.7456   -0.1664 H   0  0  0  0  0  0  0  0  0  0  0  0
    1.0133    3.2936   -0.5803 H   0  0  0  0  0  0  0  0  0  0  0  0
  1 13  1  0  0  0  0
  1  2  1  0  0  0  0
  1 19  1  1  0  0  0
  2  3  1  0  0  0  0
  4 23  1  6  0  0  0
  4  2  1  0  0  0  0
  5  4  1  0  0  0  0
  6  5  1  0  0  0  0
  7  8  1  6  0  0  0
  7  5  1  0  0  0  0
  7  9  1  0  0  0  0
  7 16  1  0  0  0  0
  9 11  2  0  0  0  0
 10  9  1  0  0  0  0
 11 12  1  0  0  0  0
 11 13  1  0  0  0  0
 13 14  1  0  0  0  0
 15 13  1  0  0  0  0
 16  1  1  0  0  0  0
 17 16  1  0  0  0  0
 18 16  1  0  0  0  0
 19 22  1  0  0  0  0
 20 19  1  0  0  0  0
 21 19  1  0  0  0  0
 23 24  1  0  0  0  0
 25 23  1  0  0  0  0
 26 23  1  0  0  0  0
M  END
