1
 OpenBabel05122313113D

 29 32  0  0  0  0  0  0  0  0999 V2000
    1.9853   -1.2193    0.0480 C   0  0  0  0  0  3  0  0  0  0  0  0
    2.3901   -2.5767    0.0401 C   0  0  0  0  0  0  0  0  0  0  0  0
    1.4399   -3.6561    0.0635 C   0  0  0  0  0  0  0  0  0  0  0  0
    0.3710   -3.3875    0.0918 H   0  0  0  0  0  0  0  0  0  0  0  0
    1.8347   -4.9776    0.0554 C   0  0  0  0  0  0  0  0  0  0  0  0
    1.0812   -5.7798    0.0757 H   0  0  0  0  0  0  0  0  0  0  0  0
    3.2256   -5.3147    0.0222 C   0  0  0  0  0  0  0  0  0  0  0  0
    3.5296   -6.3728    0.0159 H   0  0  0  0  0  0  0  0  0  0  0  0
    4.1793   -4.3192   -0.0010 C   0  0  0  0  0  0  0  0  0  0  0  0
    5.2514   -4.5716   -0.0262 H   0  0  0  0  0  0  0  0  0  0  0  0
    3.8085   -2.9309    0.0071 C   0  0  0  0  0  0  0  0  0  0  0  0
    4.7730   -1.9147   -0.0191 C   0  0  0  0  0  0  0  0  0  0  0  0
    5.8411   -2.1840   -0.0488 H   0  0  0  0  0  0  0  0  0  0  0  0
    4.4083   -0.5486   -0.0088 C   0  0  0  0  0  0  0  0  0  0  0  0
    5.3810    0.4826   -0.0374 C   0  0  0  0  0  0  0  0  0  0  0  0
    6.4468    0.2036   -0.0695 H   0  0  0  0  0  0  0  0  0  0  0  0
    5.0307    1.8400   -0.0263 C   0  0  0  0  0  0  0  0  0  0  0  0
    6.0053    2.8944   -0.0583 C   0  0  0  0  0  0  0  0  0  0  0  0
    7.0718    2.6218   -0.0949 H   0  0  0  0  0  0  0  0  0  0  0  0
    5.6202    4.2193   -0.0435 C   0  0  0  0  0  0  0  0  0  0  0  0
    6.3806    5.0149   -0.0685 H   0  0  0  0  0  0  0  0  0  0  0  0
    4.2325    4.5735    0.0059 C   0  0  0  0  0  0  0  0  0  0  0  0
    3.9454    5.6361    0.0197 H   0  0  0  0  0  0  0  0  0  0  0  0
    3.2633    3.5920    0.0384 C   0  0  0  0  0  0  0  0  0  0  0  0
    2.1943    3.8567    0.0798 H   0  0  0  0  0  0  0  0  0  0  0  0
    3.6192    2.2010    0.0216 C   0  0  0  0  0  0  0  0  0  0  0  0
    2.6557    1.1833    0.0499 C   0  0  0  0  0  0  0  0  0  0  0  0
    1.5892    1.4597    0.0924 H   0  0  0  0  0  0  0  0  0  0  0  0
    2.9879   -0.1952    0.0311 C   0  0  0  0  0  0  0  0  0  0  0  0
  2  1  1  0  0  0  0
  2  3  1  0  0  0  0
  3  4  1  0  0  0  0
  5  3  2  0  0  0  0
  5  6  1  0  0  0  0
  7  5  1  0  0  0  0
  8  7  1  0  0  0  0
  9 11  1  0  0  0  0
  9  7  2  0  0  0  0
 10  9  1  0  0  0  0
 11  2  2  0  0  0  0
 12 14  2  0  0  0  0
 12 11  1  0  0  0  0
 13 12  1  0  0  0  0
 14 29  1  0  0  0  0
 15 17  2  0  0  0  0
 15 14  1  0  0  0  0
 16 15  1  0  0  0  0
 17 26  1  0  0  0  0
 18 20  2  0  0  0  0
 18 17  1  0  0  0  0
 19 18  1  0  0  0  0
 20 22  1  0  0  0  0
 21 20  1  0  0  0  0
 22 23  1  0  0  0  0
 22 24  2  0  0  0  0
 24 25  1  0  0  0  0
 26 24  1  0  0  0  0
 26 27  2  0  0  0  0
 27 28  1  0  0  0  0
 29  1  2  0  0  0  0
 29 27  1  0  0  0  0
M  END
