10
 OpenBabel05122313113D

 12 11  0  0  0  0  0  0  0  0999 V2000
   -1.1244    1.0255    1.8190 N   0  0  0  0  0  0  0  0  0  0  0  0
   -1.5721    0.3024    2.4096 H   0  0  0  0  0  0  0  0  0  0  0  0
   -0.2191    1.2412    2.2585 H   0  0  0  0  0  0  0  0  0  0  0  0
   -1.9138    2.2609    1.6329 C   0  0  0  0  0  0  0  0  0  0  0  0
   -2.9580    1.9578    1.4060 H   0  0  0  0  0  0  0  0  0  0  0  0
   -1.9362    2.8831    2.5554 H   0  0  0  0  0  0  0  0  0  0  0  0
   -1.2980    2.9800    0.4396 C   0  0  0  0  0  0  0  0  0  0  0  0
   -1.8674    3.9095    0.2130 H   0  0  0  0  0  0  0  0  0  0  0  0
   -0.2770    3.3111    0.7352 H   0  0  0  0  0  0  0  0  0  0  0  0
   -1.2253    2.0196   -0.7645 C   0  0  0  0  0  3  0  0  0  0  0  0
   -0.5217    2.4188   -1.5244 H   0  0  0  0  0  0  0  0  0  0  0  0
   -2.2232    2.0258   -1.2714 H   0  0  0  0  0  0  0  0  0  0  0  0
  1  3  1  0  0  0  0
  1  2  1  0  0  0  0
  4  1  1  0  0  0  0
  4  6  1  0  0  0  0
  5  4  1  0  0  0  0
  7  9  1  0  0  0  0
  7  4  1  0  0  0  0
  8  7  1  0  0  0  0
 10  7  1  0  0  0  0
 11 10  1  0  0  0  0
 12 10  1  0  0  0  0
M  END
