6
 OpenBabel05122313113D

 18 20  0  0  1  0  0  0  0  0999 V2000
    3.9945   -2.2514    0.1311 O   0  0  0  0  0  0  0  0  0  0  0  0
    4.2617   -0.0004    0.2627 O   0  0  0  0  0  0  0  0  0  0  0  0
    3.9948    2.2508    0.1329 O   0  0  0  0  0  0  0  0  0  0  0  0
    1.0941   -0.0005    0.9399 O   0  0  0  0  0  0  0  0  0  0  0  0
   -0.1598    0.7215   -0.8898 C   0  0  0  0  0  3  0  0  0  0  0  0
   -0.1599   -0.7209   -0.8904 C   0  0  0  0  0  3  0  0  0  0  0  0
    1.0337   -1.0799   -0.0077 C   0  0  1  0  0  0  0  0  0  0  0  0
    2.3085   -0.7707   -0.8689 C   0  0  2  0  0  0  0  0  0  0  0  0
    3.5835   -1.1541   -0.1285 C   0  0  0  0  0  0  0  0  0  0  0  0
    3.5836    1.1537   -0.1275 C   0  0  0  0  0  0  0  0  0  0  0  0
    2.3085    0.7710   -0.8683 C   0  0  2  0  0  0  0  0  0  0  0  0
    1.0338    1.0797   -0.0068 C   0  0  2  0  0  0  0  0  0  0  0  0
   -0.3323    1.3306   -1.7906 H   0  0  0  0  0  0  0  0  0  0  0  0
   -0.3324   -1.3293   -1.7916 H   0  0  0  0  0  0  0  0  0  0  0  0
    1.0481   -2.0548    0.5113 H   0  0  0  0  0  0  0  0  0  0  0  0
    2.2845   -1.2676   -1.8569 H   0  0  0  0  0  0  0  0  0  0  0  0
    2.2846    1.2687   -1.8559 H   0  0  0  0  0  0  0  0  0  0  0  0
    1.0483    2.0541    0.5130 H   0  0  0  0  0  0  0  0  0  0  0  0
  5 12  1  0  0  0  0
  6  5  1  0  0  0  0
  6  7  1  0  0  0  0
  7 15  1  1  0  0  0
  7  4  1  0  0  0  0
  8 16  1  6  0  0  0
  8 11  1  0  0  0  0
  8  9  1  0  0  0  0
  8  7  1  0  0  0  0
  9  1  2  0  0  0  0
  9  2  1  0  0  0  0
 10  3  2  0  0  0  0
 10  2  1  0  0  0  0
 11 17  1  6  0  0  0
 11 10  1  0  0  0  0
 11 12  1  0  0  0  0
 12 18  1  1  0  0  0
 12  4  1  0  0  0  0
 13  5  1  0  0  0  0
 14  6  1  0  0  0  0
M  END
