7
 OpenBabel05122313113D

 41 43  0  0  1  0  0  0  0  0999 V2000
   -0.3052   -0.0027    2.1787 O   0  0  0  0  0  0  0  0  0  0  0  0
   -5.6498    2.0972   -0.5139 O   0  0  0  0  0  0  0  0  0  0  0  0
    1.7676   -0.5099    0.9621 C   0  0  0  0  0  3  0  0  0  0  0  0
    2.2572   -0.8369    1.8896 H   0  0  0  0  0  0  0  0  0  0  0  0
    0.4124   -0.0914    1.0342 C   0  0  0  0  0  0  0  0  0  0  0  0
   -0.3260    0.1445   -0.1906 C   0  0  0  0  0  0  0  0  0  0  0  0
    0.4304   -0.0093   -1.4058 C   0  0  0  0  0  3  0  0  0  0  0  0
   -0.1245    0.0315   -2.3556 H   0  0  0  0  0  0  0  0  0  0  0  0
    1.7947   -0.3599   -1.3949 C   0  0  0  0  0  3  0  0  0  0  0  0
    2.2821   -0.5797   -2.3566 H   0  0  0  0  0  0  0  0  0  0  0  0
    2.6549   -0.0418   -0.1812 C   0  0  1  0  0  0  0  0  0  0  0  0
    3.5355   -0.7141   -0.2108 H   0  0  0  0  0  0  0  0  0  0  0  0
    0.3057   -0.3828    3.4033 C   0  0  0  0  0  0  0  0  0  0  0  0
    0.5449   -1.4680    3.4156 H   0  0  0  0  0  0  0  0  0  0  0  0
   -0.4374   -0.1697    4.1930 H   0  0  0  0  0  0  0  0  0  0  0  0
    1.2298    0.2023    3.6002 H   0  0  0  0  0  0  0  0  0  0  0  0
   -1.7307    0.6171   -0.2232 C   0  0  0  0  0  0  0  0  0  0  0  0
   -2.0813    1.6771   -1.0929 C   0  0  0  0  0  0  0  0  0  0  0  0
   -1.3015    2.1498   -1.7101 H   0  0  0  0  0  0  0  0  0  0  0  0
   -3.3914    2.1516   -1.1705 C   0  0  0  0  0  0  0  0  0  0  0  0
   -3.6631    2.9781   -1.8427 H   0  0  0  0  0  0  0  0  0  0  0  0
   -4.4021    1.5743   -0.3730 C   0  0  0  0  0  0  0  0  0  0  0  0
   -4.0705    0.5156    0.4996 C   0  0  0  0  0  0  0  0  0  0  0  0
   -4.8366    0.0374    1.1241 H   0  0  0  0  0  0  0  0  0  0  0  0
   -2.7510    0.0503    0.5670 C   0  0  0  0  0  0  0  0  0  0  0  0
   -2.5125   -0.7849    1.2388 H   0  0  0  0  0  0  0  0  0  0  0  0
   -6.7003    1.5506    0.2605 C   0  0  0  0  0  0  0  0  0  0  0  0
   -6.8649    0.4727    0.0357 H   0  0  0  0  0  0  0  0  0  0  0  0
   -7.6127    2.1157   -0.0058 H   0  0  0  0  0  0  0  0  0  0  0  0
   -6.5129    1.6610    1.3524 H   0  0  0  0  0  0  0  0  0  0  0  0
    3.1876    1.3857   -0.1066 C   0  0  0  0  0  0  0  0  0  0  0  0
    4.5625    1.6282   -0.2944 C   0  0  0  0  0  0  0  0  0  0  0  0
    5.2379    0.7757   -0.4736 H   0  0  0  0  0  0  0  0  0  0  0  0
    5.0803    2.9319   -0.2554 C   0  0  0  0  0  0  0  0  0  0  0  0
    6.1583    3.0986   -0.4036 H   0  0  0  0  0  0  0  0  0  0  0  0
    4.2242    4.0192   -0.0243 C   0  0  0  0  0  0  0  0  0  0  0  0
    4.6257    5.0434    0.0092 H   0  0  0  0  0  0  0  0  0  0  0  0
    2.8513    3.7916    0.1668 C   0  0  0  0  0  0  0  0  0  0  0  0
    2.1729    4.6390    0.3505 H   0  0  0  0  0  0  0  0  0  0  0  0
    2.3378    2.4874    0.1257 C   0  0  0  0  0  0  0  0  0  0  0  0
    1.2605    2.3258    0.2774 H   0  0  0  0  0  0  0  0  0  0  0  0
  1 13  1  0  0  0  0
  2 22  1  0  0  0  0
  2 27  1  0  0  0  0
  3  5  1  0  0  0  0
  3  4  1  0  0  0  0
  5  1  1  0  0  0  0
  6  5  2  0  0  0  0
  7  9  1  0  0  0  0
  7  6  1  0  0  0  0
  8  7  1  0  0  0  0
  9 11  1  0  0  0  0
 10  9  1  0  0  0  0
 11 12  1  6  0  0  0
 11 31  1  0  0  0  0
 11  3  1  0  0  0  0
 13 14  1  0  0  0  0
 13 16  1  0  0  0  0
 13 15  1  0  0  0  0
 17  6  1  0  0  0  0
 17 25  1  0  0  0  0
 18 17  2  0  0  0  0
 19 18  1  0  0  0  0
 20 18  1  0  0  0  0
 20 22  2  0  0  0  0
 21 20  1  0  0  0  0
 22 23  1  0  0  0  0
 23 25  2  0  0  0  0
 23 24  1  0  0  0  0
 25 26  1  0  0  0  0
 27 30  1  0  0  0  0
 28 27  1  0  0  0  0
 29 27  1  0  0  0  0
 31 40  1  0  0  0  0
 32 34  1  0  0  0  0
 32 31  2  0  0  0  0
 33 32  1  0  0  0  0
 34 36  2  0  0  0  0
 35 34  1  0  0  0  0
 36 37  1  0  0  0  0
 36 38  1  0  0  0  0
 38 39  1  0  0  0  0
 40 38  2  0  0  0  0
 40 41  1  0  0  0  0
M  END
