2
 OpenBabel05122313113D

 36 36  0  0  0  0  0  0  0  0999 V2000
    0.3890   -1.7562   -0.6461 C   0  0  0  0  0  0  0  0  0  0  0  0
   -0.6878   -2.5676   -0.1352 C   0  0  0  0  0  3  0  0  0  0  0  0
   -0.6493   -3.1863    0.7697 H   0  0  0  0  0  0  0  0  0  0  0  0
   -1.8211   -2.4330   -1.0069 C   0  0  0  0  0  0  0  0  0  0  0  0
   -2.7938   -2.9250   -0.8809 H   0  0  0  0  0  0  0  0  0  0  0  0
   -1.4635   -1.5556   -2.0741 C   0  0  0  0  0  0  0  0  0  0  0  0
   -2.1080   -1.2548   -2.9090 H   0  0  0  0  0  0  0  0  0  0  0  0
   -0.1148   -1.1311   -1.8489 C   0  0  0  0  0  0  0  0  0  0  0  0
    0.4588   -0.4686   -2.5091 H   0  0  0  0  0  0  0  0  0  0  0  0
    0.2237    1.7947   -0.3063 Si  0  0  0  0  0  3  0  0  0  0  0  0
   -0.1273    3.2633    0.8491 C   0  0  0  0  0  0  0  0  0  0  0  0
    0.6144    4.0672    0.6602 H   0  0  0  0  0  0  0  0  0  0  0  0
   -0.0650    2.9773    1.9165 H   0  0  0  0  0  0  0  0  0  0  0  0
   -1.1376    3.6766    0.6521 H   0  0  0  0  0  0  0  0  0  0  0  0
    0.2052    2.5058   -2.0805 C   0  0  0  0  0  0  0  0  0  0  0  0
   -0.7762    2.9637   -2.3170 H   0  0  0  0  0  0  0  0  0  0  0  0
    0.4282    1.7449   -2.8540 H   0  0  0  0  0  0  0  0  0  0  0  0
    0.9806    3.2975   -2.1507 H   0  0  0  0  0  0  0  0  0  0  0  0
    2.3864    0.8945    0.1181 Si  0  0  0  0  0  0  0  0  0  0  0  0
    3.0256    1.4689    1.8189 C   0  0  0  0  0  0  0  0  0  0  0  0
    4.0201    1.0285    2.0394 H   0  0  0  0  0  0  0  0  0  0  0  0
    2.3231    1.1686    2.6210 H   0  0  0  0  0  0  0  0  0  0  0  0
    3.1251    2.5737    1.8445 H   0  0  0  0  0  0  0  0  0  0  0  0
    3.6133    1.4419   -1.2390 C   0  0  0  0  0  0  0  0  0  0  0  0
    3.7352    2.5449   -1.2394 H   0  0  0  0  0  0  0  0  0  0  0  0
    3.2617    1.1395   -2.2463 H   0  0  0  0  0  0  0  0  0  0  0  0
    4.6124    0.9868   -1.0753 H   0  0  0  0  0  0  0  0  0  0  0  0
    2.1140   -1.4578    0.0949 Si  0  0  0  0  0  0  0  0  0  0  0  0
    2.1484   -2.2132    1.8322 C   0  0  0  0  0  0  0  0  0  0  0  0
    1.9368   -3.3023    1.7979 H   0  0  0  0  0  0  0  0  0  0  0  0
    1.4066   -1.7311    2.4988 H   0  0  0  0  0  0  0  0  0  0  0  0
    3.1505   -2.0778    2.2876 H   0  0  0  0  0  0  0  0  0  0  0  0
    3.3958   -2.3170   -1.0132 C   0  0  0  0  0  0  0  0  0  0  0  0
    4.4220   -2.1542   -0.6240 H   0  0  0  0  0  0  0  0  0  0  0  0
    3.3594   -1.9172   -2.0468 H   0  0  0  0  0  0  0  0  0  0  0  0
    3.2134   -3.4105   -1.0602 H   0  0  0  0  0  0  0  0  0  0  0  0
  1  2  1  0  0  0  0
  1 28  1  0  0  0  0
  2  3  1  0  0  0  0
  4  5  1  0  0  0  0
  4  2  1  0  0  0  0
  6  8  1  0  0  0  0
  6  4  2  0  0  0  0
  7  6  1  0  0  0  0
  8  1  2  0  0  0  0
  9  8  1  0  0  0  0
 10 19  1  0  0  0  0
 10 11  1  0  0  0  0
 11 13  1  0  0  0  0
 12 11  1  0  0  0  0
 14 11  1  0  0  0  0
 15 10  1  0  0  0  0
 16 15  1  0  0  0  0
 17 15  1  0  0  0  0
 18 15  1  0  0  0  0
 19 20  1  0  0  0  0
 20 23  1  0  0  0  0
 20 21  1  0  0  0  0
 20 22  1  0  0  0  0
 24 27  1  0  0  0  0
 24 19  1  0  0  0  0
 25 24  1  0  0  0  0
 26 24  1  0  0  0  0
 28 19  1  0  0  0  0
 28 29  1  0  0  0  0
 29 32  1  0  0  0  0
 29 31  1  0  0  0  0
 30 29  1  0  0  0  0
 33 34  1  0  0  0  0
 33 28  1  0  0  0  0
 35 33  1  0  0  0  0
 36 33  1  0  0  0  0
M  END
