2
 OpenBabel05122313113D

 35 35  0  0  1  0  0  0  0  0999 V2000
    2.0448   -0.4664    0.0812 N   0  0  0  0  0  0  0  0  0  0  0  0
    0.9660    0.2812   -0.2928 C   0  0  0  0  0  2  0  0  0  0  0  0
    1.4018    1.5006   -0.6932 N   0  0  0  0  0  0  0  0  0  0  0  0
    2.8548    1.5524   -0.8246 C   0  0  0  0  0  0  0  0  0  0  0  0
    3.2947    0.3443    0.0164 C   0  0  1  0  0  0  0  0  0  0  0  0
    2.1161   -1.9628    0.0488 C   0  0  0  0  0  0  0  0  0  0  0  0
    0.8407   -2.5929    0.6211 C   0  0  0  0  0  0  0  0  0  0  0  0
    3.2985   -2.4555    0.9027 C   0  0  0  0  0  0  0  0  0  0  0  0
    2.3055   -2.3978   -1.4189 C   0  0  0  0  0  0  0  0  0  0  0  0
    0.5646    2.5350   -1.2806 C   0  0  0  0  0  0  0  0  0  0  0  0
    0.6240    3.8686   -0.5386 C   0  0  0  0  0  0  0  0  0  0  0  0
    3.8069    0.7488    1.4147 C   0  0  0  0  0  0  0  0  0  0  0  0
    2.7872    1.4860    2.2832 C   0  0  0  0  0  0  0  0  0  0  0  0
    3.1409    1.4674   -1.8985 H   0  0  0  0  0  0  0  0  0  0  0  0
    3.2725    2.5029   -0.4337 H   0  0  0  0  0  0  0  0  0  0  0  0
    4.0847   -0.2270   -0.5096 H   0  0  0  0  0  0  0  0  0  0  0  0
   -0.0676   -2.2358    0.0857 H   0  0  0  0  0  0  0  0  0  0  0  0
    0.9030   -3.6936    0.5126 H   0  0  0  0  0  0  0  0  0  0  0  0
    0.7208   -2.3517    1.6951 H   0  0  0  0  0  0  0  0  0  0  0  0
    4.2795   -2.1009    0.5306 H   0  0  0  0  0  0  0  0  0  0  0  0
    3.1874   -2.1537    1.9630 H   0  0  0  0  0  0  0  0  0  0  0  0
    3.3197   -3.5619    0.8679 H   0  0  0  0  0  0  0  0  0  0  0  0
    1.4383   -2.0674   -2.0270 H   0  0  0  0  0  0  0  0  0  0  0  0
    2.3971   -3.5005   -1.4883 H   0  0  0  0  0  0  0  0  0  0  0  0
    3.2292   -1.9566   -1.8480 H   0  0  0  0  0  0  0  0  0  0  0  0
   -0.4668    2.1229   -1.2937 H   0  0  0  0  0  0  0  0  0  0  0  0
    0.8699    2.6663   -2.3438 H   0  0  0  0  0  0  0  0  0  0  0  0
   -0.0236    4.6128   -1.0436 H   0  0  0  0  0  0  0  0  0  0  0  0
    0.2706    3.7603    0.5064 H   0  0  0  0  0  0  0  0  0  0  0  0
    1.6500    4.2905   -0.5108 H   0  0  0  0  0  0  0  0  0  0  0  0
    4.1603   -0.1572    1.9453 H   0  0  0  0  0  0  0  0  0  0  0  0
    4.7093    1.3805    1.2603 H   0  0  0  0  0  0  0  0  0  0  0  0
    1.8800    0.8679    2.4393 H   0  0  0  0  0  0  0  0  0  0  0  0
    2.4613    2.4433    1.8283 H   0  0  0  0  0  0  0  0  0  0  0  0
    3.2129    1.7192    3.2790 H   0  0  0  0  0  0  0  0  0  0  0  0
  2  1  1  0  0  0  0
  3  2  1  0  0  0  0
  4  3  1  0  0  0  0
  4 15  1  0  0  0  0
  4  5  1  0  0  0  0
  5 16  1  6  0  0  0
  5  1  1  0  0  0  0
  5 12  1  0  0  0  0
  6  1  1  0  0  0  0
  6  7  1  0  0  0  0
  6  8  1  0  0  0  0
  7 19  1  0  0  0  0
  8 21  1  0  0  0  0
  9  6  1  0  0  0  0
 10  3  1  0  0  0  0
 10 11  1  0  0  0  0
 11 30  1  0  0  0  0
 11 29  1  0  0  0  0
 12 31  1  0  0  0  0
 12 13  1  0  0  0  0
 13 33  1  0  0  0  0
 13 35  1  0  0  0  0
 14  4  1  0  0  0  0
 17  7  1  0  0  0  0
 18  7  1  0  0  0  0
 20  8  1  0  0  0  0
 22  8  1  0  0  0  0
 23  9  1  0  0  0  0
 24  9  1  0  0  0  0
 25  9  1  0  0  0  0
 26 10  1  0  0  0  0
 27 10  1  0  0  0  0
 28 11  1  0  0  0  0
 32 12  1  0  0  0  0
 34 13  1  0  0  0  0
M  END
