12
 OpenBabel05122313113D

 56 57  0  0  0  0  0  0  0  0999 V2000
    0.5452    0.5874   -0.1376 C   0  0  0  0  0  0  0  0  0  0  0  0
    0.2739    1.8349    0.4343 C   0  0  0  0  0  0  0  0  0  0  0  0
   -1.0254    2.4305    0.2729 C   0  0  0  0  0  0  0  0  0  0  0  0
   -2.0251    1.7382   -0.4116 C   0  0  0  0  0  0  0  0  0  0  0  0
   -1.8011    0.4190   -0.9270 C   0  0  0  0  0  0  0  0  0  0  0  0
   -2.8783   -0.3981   -1.4399 C   0  0  0  0  0  0  0  0  0  0  0  0
   -3.8958    0.0123   -1.4235 H   0  0  0  0  0  0  0  0  0  0  0  0
   -2.6319   -1.6917   -1.9448 C   0  0  0  0  0  0  0  0  0  0  0  0
   -3.4632   -2.2974   -2.3308 H   0  0  0  0  0  0  0  0  0  0  0  0
   -1.3181   -2.2548   -1.8584 C   0  0  0  0  0  3  0  0  0  0  0  0
   -1.1427   -3.2897   -2.1822 H   0  0  0  0  0  0  0  0  0  0  0  0
   -0.2747   -1.5187   -1.2583 C   0  0  0  0  0  3  0  0  0  0  0  0
    0.7091   -1.9748   -1.1042 H   0  0  0  0  0  0  0  0  0  0  0  0
   -0.4808   -0.1562   -0.8206 C   0  0  0  0  0  0  0  0  0  0  0  0
    1.7502   -0.0138    0.0393 O   0  0  0  0  0  0  0  0  0  0  0  0
    3.1808    0.0001   -0.9174 Si  0  0  0  0  0  0  0  0  0  0  0  0
    3.6141    1.7738   -1.3902 C   0  0  0  0  0  0  0  0  0  0  0  0
    3.9735    2.3726   -0.5308 H   0  0  0  0  0  0  0  0  0  0  0  0
    2.7237    2.2839   -1.8128 H   0  0  0  0  0  0  0  0  0  0  0  0
    4.4056    1.7796   -2.1673 H   0  0  0  0  0  0  0  0  0  0  0  0
    2.9011   -0.9806   -2.5053 C   0  0  0  0  0  0  0  0  0  0  0  0
    2.7187   -2.0567   -2.3150 H   0  0  0  0  0  0  0  0  0  0  0  0
    3.7939   -0.8994   -3.1592 H   0  0  0  0  0  0  0  0  0  0  0  0
    2.0346   -0.5795   -3.0696 H   0  0  0  0  0  0  0  0  0  0  0  0
    4.4392   -0.8296    0.2505 C   0  0  0  0  0  0  0  0  0  0  0  0
    4.6244    0.0459    1.5047 C   0  0  0  0  0  0  0  0  0  0  0  0
    5.0329    1.0481    1.2587 H   0  0  0  0  0  0  0  0  0  0  0  0
    5.3388   -0.4362    2.2078 H   0  0  0  0  0  0  0  0  0  0  0  0
    3.6676    0.1887    2.0461 H   0  0  0  0  0  0  0  0  0  0  0  0
    5.7820   -0.9852   -0.4885 C   0  0  0  0  0  0  0  0  0  0  0  0
    6.1990   -0.0066   -0.8074 H   0  0  0  0  0  0  0  0  0  0  0  0
    5.6900   -1.6251   -1.3908 H   0  0  0  0  0  0  0  0  0  0  0  0
    6.5361   -1.4618    0.1760 H   0  0  0  0  0  0  0  0  0  0  0  0
    3.8932   -2.2105    0.6658 C   0  0  0  0  0  0  0  0  0  0  0  0
    3.7621   -2.8854   -0.2058 H   0  0  0  0  0  0  0  0  0  0  0  0
    2.9156   -2.1250    1.1822 H   0  0  0  0  0  0  0  0  0  0  0  0
    4.6023   -2.7103    1.3619 H   0  0  0  0  0  0  0  0  0  0  0  0
    1.3062    2.4448    1.3570 C   0  0  0  0  0  0  0  0  0  0  0  0
    1.2187    3.5483    1.3739 H   0  0  0  0  0  0  0  0  0  0  0  0
    2.3209    2.2212    0.9788 H   0  0  0  0  0  0  0  0  0  0  0  0
    1.1728    1.8809    2.7823 C   0  0  0  0  0  0  0  0  0  0  0  0
    1.9528    2.2962    3.4523 H   0  0  0  0  0  0  0  0  0  0  0  0
    1.2703    0.7769    2.7755 H   0  0  0  0  0  0  0  0  0  0  0  0
    0.1818    2.1194    3.2191 H   0  0  0  0  0  0  0  0  0  0  0  0
   -1.3303    3.8003    0.8386 C   0  0  0  0  0  0  0  0  0  0  0  0
   -0.9138    3.8787    1.8639 H   0  0  0  0  0  0  0  0  0  0  0  0
   -2.4287    3.8966    0.9378 H   0  0  0  0  0  0  0  0  0  0  0  0
   -0.7898    4.9539   -0.0222 C   0  0  0  0  0  0  0  0  0  0  0  0
   -1.0291    5.9362    0.4331 H   0  0  0  0  0  0  0  0  0  0  0  0
   -1.2316    4.9352   -1.0390 H   0  0  0  0  0  0  0  0  0  0  0  0
    0.3110    4.8958   -0.1451 H   0  0  0  0  0  0  0  0  0  0  0  0
   -3.2919    2.2679   -0.5331 O   0  0  0  0  0  0  0  0  0  0  0  0
   -3.5791    2.8691   -1.7916 C   0  0  0  0  0  0  0  0  0  0  0  0
   -4.6327    3.2059   -1.7557 H   0  0  0  0  0  0  0  0  0  0  0  0
   -3.4572    2.1503   -2.6335 H   0  0  0  0  0  0  0  0  0  0  0  0
   -2.9230    3.7472   -1.9844 H   0  0  0  0  0  0  0  0  0  0  0  0
  1 15  1  0  0  0  0
  1  2  1  0  0  0  0
  2 38  1  0  0  0  0
  3  2  2  0  0  0  0
  3 45  1  0  0  0  0
  4  3  1  0  0  0  0
  5 14  1  0  0  0  0
  5  4  2  0  0  0  0
  6  7  1  0  0  0  0
  6  5  1  0  0  0  0
  8 10  1  0  0  0  0
  8  6  2  0  0  0  0
  9  8  1  0  0  0  0
 10 12  1  0  0  0  0
 11 10  1  0  0  0  0
 12 13  1  0  0  0  0
 12 14  1  0  0  0  0
 14  1  2  0  0  0  0
 16 15  1  0  0  0  0
 16 25  1  0  0  0  0
 17 16  1  0  0  0  0
 17 18  1  0  0  0  0
 19 17  1  0  0  0  0
 20 17  1  0  0  0  0
 21 22  1  0  0  0  0
 21 16  1  0  0  0  0
 23 21  1  0  0  0  0
 24 21  1  0  0  0  0
 25 34  1  0  0  0  0
 25 26  1  0  0  0  0
 26 29  1  0  0  0  0
 26 28  1  0  0  0  0
 27 26  1  0  0  0  0
 30 33  1  0  0  0  0
 30 25  1  0  0  0  0
 31 30  1  0  0  0  0
 32 30  1  0  0  0  0
 34 36  1  0  0  0  0
 34 37  1  0  0  0  0
 35 34  1  0  0  0  0
 38 39  1  0  0  0  0
 38 41  1  0  0  0  0
 40 38  1  0  0  0  0
 41 44  1  0  0  0  0
 41 42  1  0  0  0  0
 43 41  1  0  0  0  0
 45 47  1  0  0  0  0
 45 46  1  0  0  0  0
 48 49  1  0  0  0  0
 48 45  1  0  0  0  0
 50 48  1  0  0  0  0
 51 48  1  0  0  0  0
 52  4  1  0  0  0  0
 53 54  1  0  0  0  0
 53 52  1  0  0  0  0
 55 53  1  0  0  0  0
 56 53  1  0  0  0  0
M  END
