3
 OpenBabel05122313113D

 16 16  0  0  0  0  0  0  0  0999 V2000
    0.9791   -1.5848    0.7234 C   0  0  0  0  0  3  0  0  0  0  0  0
    0.2357   -2.2529    1.1977 H   0  0  0  0  0  0  0  0  0  0  0  0
    0.9805   -1.5823   -0.7285 C   0  0  0  0  0  3  0  0  0  0  0  0
    0.2383   -2.2490   -1.2067 H   0  0  0  0  0  0  0  0  0  0  0  0
    2.2011   -1.2618   -1.5186 C   0  0  0  0  0  0  0  0  0  0  0  0
    2.6861   -2.0598   -2.1066 H   0  0  0  0  0  0  0  0  0  0  0  0
    2.6803   -0.0006   -1.5115 C   0  0  0  0  0  0  0  0  0  0  0  0
    3.5728    0.2868   -2.0933 H   0  0  0  0  0  0  0  0  0  0  0  0
    1.9839    1.0445   -0.7113 C   0  0  0  0  0  3  0  0  0  0  0  0
    1.7653    2.0073   -1.2089 H   0  0  0  0  0  0  0  0  0  0  0  0
    1.9819    1.0420    0.7176 C   0  0  0  0  0  3  0  0  0  0  0  0
    1.7619    2.0030    1.2180 H   0  0  0  0  0  0  0  0  0  0  0  0
    2.6768   -0.0057    1.5159 C   0  0  0  0  0  0  0  0  0  0  0  0
    3.5678    0.2800    2.1006 H   0  0  0  0  0  0  0  0  0  0  0  0
    2.1979   -1.2670    1.5172 C   0  0  0  0  0  0  0  0  0  0  0  0
    2.6818   -2.0671    2.1032 H   0  0  0  0  0  0  0  0  0  0  0  0
  1  2  1  0  0  0  0
  1 15  1  0  0  0  0
  3  1  1  0  0  0  0
  4  3  1  0  0  0  0
  5  7  2  0  0  0  0
  5  3  1  0  0  0  0
  6  5  1  0  0  0  0
  7  9  1  0  0  0  0
  8  7  1  0  0  0  0
  9 11  1  0  0  0  0
 10  9  1  0  0  0  0
 11 12  1  0  0  0  0
 11 13  1  0  0  0  0
 13 15  2  0  0  0  0
 13 14  1  0  0  0  0
 15 16  1  0  0  0  0
M  END
