2
 OpenBabel05122313113D

 51 53  0  0  0  0  0  0  0  0999 V2000
    0.0000   -0.4968   -0.0318 N   0  0  0  0  0  2  0  0  0  0  0  0
   -0.0001    0.6884   -0.0813 C   0  0  0  0  0  1  0  0  0  0  0  0
    0.0001   -1.8575    0.1511 C   0  0  0  0  0  0  0  0  0  0  0  0
    1.2464   -2.5298    0.2472 C   0  0  0  0  0  0  0  0  0  0  0  0
    1.2200   -3.9200    0.4488 C   0  0  0  0  0  0  0  0  0  0  0  0
    2.1747   -4.4609    0.5301 H   0  0  0  0  0  0  0  0  0  0  0  0
    0.0002   -4.6088    0.5513 C   0  0  0  0  0  0  0  0  0  0  0  0
    0.0003   -5.6969    0.7144 H   0  0  0  0  0  0  0  0  0  0  0  0
    2.4946   -1.7248    0.1093 C   0  0  0  0  0  0  0  0  0  0  0  0
    2.9724   -0.9695    1.2087 C   0  0  0  0  0  0  0  0  0  0  0  0
    4.0797   -0.1235    1.0174 C   0  0  0  0  0  0  0  0  0  0  0  0
    4.4488    0.4675    1.8713 H   0  0  0  0  0  0  0  0  0  0  0  0
    4.7120    0.0040   -0.2314 C   0  0  0  0  0  0  0  0  0  0  0  0
    4.2255   -0.7685   -1.3020 C   0  0  0  0  0  0  0  0  0  0  0  0
    4.7057   -0.6826   -2.2902 H   0  0  0  0  0  0  0  0  0  0  0  0
    3.1243   -1.6288   -1.1575 C   0  0  0  0  0  0  0  0  0  0  0  0
    2.2825   -1.0314    2.5495 C   0  0  0  0  0  0  0  0  0  0  0  0
    1.3349   -0.4508    2.5400 H   0  0  0  0  0  0  0  0  0  0  0  0
    2.9174   -0.6016    3.3477 H   0  0  0  0  0  0  0  0  0  0  0  0
    2.0169   -2.0692    2.8327 H   0  0  0  0  0  0  0  0  0  0  0  0
    5.8360    0.9860   -0.4390 C   0  0  0  0  0  0  0  0  0  0  0  0
    6.3556    1.2248    0.5094 H   0  0  0  0  0  0  0  0  0  0  0  0
    5.4351    1.9379   -0.8492 H   0  0  0  0  0  0  0  0  0  0  0  0
    6.5853    0.6076   -1.1624 H   0  0  0  0  0  0  0  0  0  0  0  0
    2.5909   -2.3999   -2.3401 C   0  0  0  0  0  0  0  0  0  0  0  0
    3.1912   -2.2071   -3.2495 H   0  0  0  0  0  0  0  0  0  0  0  0
    1.5384   -2.1212   -2.5600 H   0  0  0  0  0  0  0  0  0  0  0  0
    2.5876   -3.4932   -2.1538 H   0  0  0  0  0  0  0  0  0  0  0  0
   -1.2461   -2.5299    0.2471 C   0  0  0  0  0  0  0  0  0  0  0  0
   -1.2196   -3.9202    0.4487 C   0  0  0  0  0  0  0  0  0  0  0  0
   -2.1742   -4.4612    0.5300 H   0  0  0  0  0  0  0  0  0  0  0  0
   -2.4944   -1.7250    0.1093 C   0  0  0  0  0  0  0  0  0  0  0  0
   -2.9723   -0.9699    1.2087 C   0  0  0  0  0  0  0  0  0  0  0  0
   -4.0797   -0.1241    1.0174 C   0  0  0  0  0  0  0  0  0  0  0  0
   -4.4490    0.4669    1.8714 H   0  0  0  0  0  0  0  0  0  0  0  0
   -4.7119    0.0036   -0.2315 C   0  0  0  0  0  0  0  0  0  0  0  0
   -4.2252   -0.7688   -1.3021 C   0  0  0  0  0  0  0  0  0  0  0  0
   -4.7054   -0.6828   -2.2904 H   0  0  0  0  0  0  0  0  0  0  0  0
   -3.1240   -1.6289   -1.1576 C   0  0  0  0  0  0  0  0  0  0  0  0
   -2.2825   -1.0318    2.5496 C   0  0  0  0  0  0  0  0  0  0  0  0
   -1.3349   -0.4512    2.5402 H   0  0  0  0  0  0  0  0  0  0  0  0
   -2.9175   -0.6022    3.3477 H   0  0  0  0  0  0  0  0  0  0  0  0
   -2.0168   -2.0696    2.8327 H   0  0  0  0  0  0  0  0  0  0  0  0
   -5.8360    0.9854   -0.4390 C   0  0  0  0  0  0  0  0  0  0  0  0
   -6.3555    1.2244    0.5095 H   0  0  0  0  0  0  0  0  0  0  0  0
   -5.4354    1.9372   -0.8495 H   0  0  0  0  0  0  0  0  0  0  0  0
   -6.5855    0.6068   -1.1622 H   0  0  0  0  0  0  0  0  0  0  0  0
   -2.5903   -2.3998   -2.3402 C   0  0  0  0  0  0  0  0  0  0  0  0
   -3.1906   -2.2070   -3.2497 H   0  0  0  0  0  0  0  0  0  0  0  0
   -1.5379   -2.1210   -2.5601 H   0  0  0  0  0  0  0  0  0  0  0  0
   -2.5869   -3.4931   -2.1540 H   0  0  0  0  0  0  0  0  0  0  0  0
  1  3  1  0  0  0  0
  2  1  1  0  0  0  0
  3 29  2  0  0  0  0
  3  4  1  0  0  0  0
  4  5  2  0  0  0  0
  5  6  1  0  0  0  0
  5  7  1  0  0  0  0
  7  8  1  0  0  0  0
  9  4  1  0  0  0  0
  9 10  1  0  0  0  0
 10 17  1  0  0  0  0
 11 10  2  0  0  0  0
 11 12  1  0  0  0  0
 13 11  1  0  0  0  0
 14 16  1  0  0  0  0
 14 13  2  0  0  0  0
 15 14  1  0  0  0  0
 16  9  2  0  0  0  0
 17 20  1  0  0  0  0
 17 19  1  0  0  0  0
 18 17  1  0  0  0  0
 21 13  1  0  0  0  0
 21 22  1  0  0  0  0
 23 21  1  0  0  0  0
 24 21  1  0  0  0  0
 25 28  1  0  0  0  0
 25 16  1  0  0  0  0
 26 25  1  0  0  0  0
 27 25  1  0  0  0  0
 29 30  1  0  0  0  0
 30 31  1  0  0  0  0
 30  7  2  0  0  0  0
 32 29  1  0  0  0  0
 32 33  1  0  0  0  0
 33 40  1  0  0  0  0
 34 33  2  0  0  0  0
 34 35  1  0  0  0  0
 36 34  1  0  0  0  0
 37 39  1  0  0  0  0
 37 36  2  0  0  0  0
 38 37  1  0  0  0  0
 39 32  2  0  0  0  0
 40 43  1  0  0  0  0
 40 42  1  0  0  0  0
 41 40  1  0  0  0  0
 44 36  1  0  0  0  0
 44 45  1  0  0  0  0
 46 44  1  0  0  0  0
 47 44  1  0  0  0  0
 48 51  1  0  0  0  0
 48 39  1  0  0  0  0
 49 48  1  0  0  0  0
 50 48  1  0  0  0  0
M  END
