3
 OpenBabel05122313113D

 35 36  0  0  1  0  0  0  0  0999 V2000
   -3.4113   -2.5475    0.4389 O   0  0  0  0  0  0  0  0  0  0  0  0
   -1.7414   -0.2993   -0.6199 C   0  0  2  0  0  3  0  0  0  0  0  0
   -1.4984   -0.2006    0.7833 C   0  0  0  0  0  3  0  0  0  0  0  0
   -1.6133   -1.0290    1.4897 H   0  0  0  0  0  0  0  0  0  0  0  0
   -1.1204    1.1294    1.1403 C   0  0  1  0  0  3  0  0  0  0  0  0
   -1.2457    1.9268   -0.0641 C   0  0  0  0  0  0  0  0  0  0  0  0
   -1.0949    3.3210   -0.3171 C   0  0  0  0  0  0  0  0  0  0  0  0
   -0.7970    4.0042    0.4889 H   0  0  0  0  0  0  0  0  0  0  0  0
   -1.3300    3.8041   -1.5947 C   0  0  0  0  0  0  0  0  0  0  0  0
   -1.2236    4.8807   -1.7957 H   0  0  0  0  0  0  0  0  0  0  0  0
   -1.6967    2.9314   -2.6612 C   0  0  0  0  0  0  0  0  0  0  0  0
   -1.8636    3.3503   -3.6649 H   0  0  0  0  0  0  0  0  0  0  0  0
   -1.8369    1.5685   -2.4542 C   0  0  0  0  0  0  0  0  0  0  0  0
   -2.1053    0.8982   -3.2829 H   0  0  0  0  0  0  0  0  0  0  0  0
   -1.6316    1.0454   -1.1462 C   0  0  0  0  0  0  0  0  0  0  0  0
   -2.2363   -1.5045   -1.3752 C   0  0  0  0  0  0  0  0  0  0  0  0
   -1.5098   -2.3412   -1.3342 H   0  0  0  0  0  0  0  0  0  0  0  0
   -2.3356   -1.2493   -2.4484 H   0  0  0  0  0  0  0  0  0  0  0  0
   -3.5798   -2.0218   -0.8657 C   0  0  0  0  0  0  0  0  0  0  0  0
   -4.3322   -1.1940   -0.8564 H   0  0  0  0  0  0  0  0  0  0  0  0
   -3.9697   -2.8144   -1.5531 H   0  0  0  0  0  0  0  0  0  0  0  0
   -4.6183   -2.9672    1.0277 C   0  0  0  0  0  0  0  0  0  0  0  0
   -4.3841   -3.3600    2.0363 H   0  0  0  0  0  0  0  0  0  0  0  0
   -5.1145   -3.7765    0.4381 H   0  0  0  0  0  0  0  0  0  0  0  0
   -5.3474   -2.1271    1.1320 H   0  0  0  0  0  0  0  0  0  0  0  0
   -1.0165    1.6362    2.5662 C   0  0  0  0  0  0  0  0  0  0  0  0
   -0.9551    0.7350    3.2111 H   0  0  0  0  0  0  0  0  0  0  0  0
   -2.3183    2.3706    2.9457 C   0  0  0  0  0  0  0  0  0  0  0  0
   -3.2040    1.7236    2.7864 H   0  0  0  0  0  0  0  0  0  0  0  0
   -2.4559    3.2831    2.3308 H   0  0  0  0  0  0  0  0  0  0  0  0
   -2.3005    2.6787    4.0115 H   0  0  0  0  0  0  0  0  0  0  0  0
    0.2161    2.5006    2.8674 C   0  0  0  0  0  0  0  0  0  0  0  0
    1.1565    1.9830    2.6009 H   0  0  0  0  0  0  0  0  0  0  0  0
    0.2495    2.7605    3.9452 H   0  0  0  0  0  0  0  0  0  0  0  0
    0.2074    3.4494    2.2962 H   0  0  0  0  0  0  0  0  0  0  0  0
  1 22  1  0  0  0  0
  2 16  1  1  0  0  0
  2  3  1  0  0  0  0
  3  5  1  0  0  0  0
  3  4  1  0  0  0  0
  5 26  1  1  0  0  0
  6  5  1  0  0  0  0
  7  6  1  0  0  0  0
  7  8  1  0  0  0  0
  9  7  2  0  0  0  0
 10  9  1  0  0  0  0
 11 13  2  0  0  0  0
 11  9  1  0  0  0  0
 12 11  1  0  0  0  0
 13 15  1  0  0  0  0
 14 13  1  0  0  0  0
 15  2  1  0  0  0  0
 15  6  2  0  0  0  0
 16 17  1  0  0  0  0
 16 19  1  0  0  0  0
 18 16  1  0  0  0  0
 19 20  1  0  0  0  0
 19  1  1  0  0  0  0
 21 19  1  0  0  0  0
 22 25  1  0  0  0  0
 22 23  1  0  0  0  0
 24 22  1  0  0  0  0
 26 32  1  0  0  0  0
 26 28  1  0  0  0  0
 26 27  1  0  0  0  0
 28 31  1  0  0  0  0
 29 28  1  0  0  0  0
 30 28  1  0  0  0  0
 32 34  1  0  0  0  0
 33 32  1  0  0  0  0
 35 32  1  0  0  0  0
M  END
