7
 OpenBabel05122313113D

 36 36  0  0  0  0  0  0  0  0999 V2000
   -2.7680    0.2099    0.4588 O   0  0  0  0  0  0  0  0  0  0  0  0
    0.1583    3.0469   -0.1753 N   0  0  0  0  0  0  0  0  0  0  0  0
   -0.5638    4.1976   -0.0533 N   0  0  0  0  0  0  0  0  0  0  0  0
   -1.7859    2.5462   -0.8815 N   0  0  0  0  0  0  0  0  0  0  0  0
   -4.8759    0.8591   -0.1888 N   0  0  0  0  0  0  0  0  0  0  0  0
   -5.3921    1.4897   -0.8053 H   0  0  0  0  0  0  0  0  0  0  0  0
   -0.5405    2.0033   -0.6750 C   0  0  0  0  0  2  0  0  0  0  0  0
   -1.7565    3.8685   -0.4862 C   0  0  0  0  0  0  0  0  0  0  0  0
   -2.6145    4.5491   -0.5424 H   0  0  0  0  0  0  0  0  0  0  0  0
    1.5744    3.0292    0.2488 C   0  0  0  0  0  0  0  0  0  0  0  0
    1.9076    1.9948    0.0260 H   0  0  0  0  0  0  0  0  0  0  0  0
    2.3775    4.0330   -0.5773 C   0  0  0  0  0  0  0  0  0  0  0  0
    2.2972    3.8161   -1.6609 H   0  0  0  0  0  0  0  0  0  0  0  0
    3.4461    3.9796   -0.2923 H   0  0  0  0  0  0  0  0  0  0  0  0
    2.0203    5.0660   -0.3977 H   0  0  0  0  0  0  0  0  0  0  0  0
    1.6664    3.2638    1.7562 C   0  0  0  0  0  0  0  0  0  0  0  0
    1.2822    4.2676    2.0249 H   0  0  0  0  0  0  0  0  0  0  0  0
    2.7238    3.1961    2.0779 H   0  0  0  0  0  0  0  0  0  0  0  0
    1.0896    2.4984    2.3113 H   0  0  0  0  0  0  0  0  0  0  0  0
   -2.9481    1.8112   -1.3477 C   0  0  0  0  0  0  0  0  0  0  0  0
   -2.6351    1.1654   -2.1932 H   0  0  0  0  0  0  0  0  0  0  0  0
   -3.6918    2.5369   -1.7292 H   0  0  0  0  0  0  0  0  0  0  0  0
   -3.5240    0.8844   -0.2468 C   0  0  0  0  0  0  0  0  0  0  0  0
   -5.6961    0.0020    0.7123 C   0  0  0  0  0  0  0  0  0  0  0  0
   -5.3972   -1.4807    0.4278 C   0  0  0  0  0  0  0  0  0  0  0  0
   -5.5989   -1.7294   -0.6334 H   0  0  0  0  0  0  0  0  0  0  0  0
   -6.0411   -2.1217    1.0613 H   0  0  0  0  0  0  0  0  0  0  0  0
   -4.3405   -1.7135    0.6551 H   0  0  0  0  0  0  0  0  0  0  0  0
   -5.3820    0.3506    2.1779 C   0  0  0  0  0  0  0  0  0  0  0  0
   -4.3169    0.1576    2.4056 H   0  0  0  0  0  0  0  0  0  0  0  0
   -6.0054   -0.2670    2.8538 H   0  0  0  0  0  0  0  0  0  0  0  0
   -5.6027    1.4169    2.3846 H   0  0  0  0  0  0  0  0  0  0  0  0
   -7.1629    0.3188    0.3885 C   0  0  0  0  0  0  0  0  0  0  0  0
   -7.3945    1.3879    0.5752 H   0  0  0  0  0  0  0  0  0  0  0  0
   -7.8312   -0.2844    1.0319 H   0  0  0  0  0  0  0  0  0  0  0  0
   -7.4051    0.0784   -0.6673 H   0  0  0  0  0  0  0  0  0  0  0  0
  2  3  1  0  0  0  0
  2 10  1  0  0  0  0
  4  7  1  0  0  0  0
  4  8  1  0  0  0  0
  5 24  1  0  0  0  0
  6  5  1  0  0  0  0
  7  2  1  0  0  0  0
  8  3  2  0  0  0  0
  9  8  1  0  0  0  0
 10 16  1  0  0  0  0
 11 10  1  0  0  0  0
 12 15  1  0  0  0  0
 12 14  1  0  0  0  0
 12 10  1  0  0  0  0
 13 12  1  0  0  0  0
 16 17  1  0  0  0  0
 16 18  1  0  0  0  0
 16 19  1  0  0  0  0
 20  4  1  0  0  0  0
 20 23  1  0  0  0  0
 21 20  1  0  0  0  0
 22 20  1  0  0  0  0
 23  5  1  0  0  0  0
 23  1  2  0  0  0  0
 24 29  1  0  0  0  0
 25 28  1  0  0  0  0
 25 24  1  0  0  0  0
 25 27  1  0  0  0  0
 26 25  1  0  0  0  0
 29 32  1  0  0  0  0
 29 30  1  0  0  0  0
 29 31  1  0  0  0  0
 33 34  1  0  0  0  0
 33 24  1  0  0  0  0
 33 35  1  0  0  0  0
 36 33  1  0  0  0  0
M  END
