1
 OpenBabel05122313113D

 18 18  0  0  1  0  0  0  0  0999 V2000
   -0.1309   -0.5283   -2.1479 C   0  0  0  0  0  3  0  0  0  0  0  0
   -1.0989   -0.8269   -2.5742 H   0  0  0  0  0  0  0  0  0  0  0  0
    0.5747   -0.1323   -2.8940 H   0  0  0  0  0  0  0  0  0  0  0  0
    0.3779   -1.2456   -1.0212 C   0  0  2  0  0  3  0  0  0  0  0  0
    1.8275   -1.4651   -0.7555 C   0  0  0  0  0  0  0  0  0  0  0  0
    2.8172   -1.0737   -1.6899 C   0  0  0  0  0  0  0  0  0  0  0  0
    2.5164   -0.6546   -2.6610 H   0  0  0  0  0  0  0  0  0  0  0  0
    4.1767   -1.2140   -1.4096 C   0  0  0  0  0  0  0  0  0  0  0  0
    4.9288   -0.9046   -2.1498 H   0  0  0  0  0  0  0  0  0  0  0  0
    4.6098   -1.7751   -0.1804 C   0  0  0  0  0  0  0  0  0  0  0  0
    3.6224   -2.1987    0.7436 C   0  0  0  0  0  0  0  0  0  0  0  0
    3.9389   -2.6433    1.6981 H   0  0  0  0  0  0  0  0  0  0  0  0
    2.2634   -2.0478    0.4603 C   0  0  0  0  0  0  0  0  0  0  0  0
    1.5086   -2.3565    1.1979 H   0  0  0  0  0  0  0  0  0  0  0  0
    5.9999   -1.9144    0.1116 C   0  0  0  0  0  0  0  0  0  0  0  0
    7.1944   -2.0303    0.3641 C   0  0  0  0  0  0  0  0  0  0  0  0
    8.2466   -2.1375    0.5869 H   0  0  0  0  0  0  0  0  0  0  0  0
   -0.6545   -2.6078   -0.3521 S   0  0  0  0  0  1  0  0  0  0  0  0
  1  4  1  0  0  0  0
  2  1  1  0  0  0  0
  3  1  1  0  0  0  0
  4  5  1  0  0  0  0
  4 18  1  6  0  0  0
  5 13  1  0  0  0  0
  6  8  1  0  0  0  0
  6  5  2  0  0  0  0
  7  6  1  0  0  0  0
  8 10  2  0  0  0  0
  9  8  1  0  0  0  0
 10 15  1  0  0  0  0
 10 11  1  0  0  0  0
 11 12  1  0  0  0  0
 13 11  2  0  0  0  0
 13 14  1  0  0  0  0
 15 16  3  0  0  0  0
 16 17  1  0  0  0  0
M  END
