2
 OpenBabel05122313113D

 24 24  0  0  0  0  0  0  0  0999 V2000
    0.1422    2.1497   -0.0022 N   0  0  0  0  0  0  0  0  0  0  0  0
    0.3108    0.7839   -0.0003 C   0  0  0  0  0  2  0  0  0  0  0  0
    1.6822    0.6243   -0.0005 N   0  0  0  0  0  0  0  0  0  0  0  0
    1.3568    2.8178   -0.0035 C   0  0  0  0  0  0  0  0  0  0  0  0
    1.4302    3.9091   -0.0050 H   0  0  0  0  0  0  0  0  0  0  0  0
    2.3282    1.8572   -0.0024 C   0  0  0  0  0  0  0  0  0  0  0  0
    3.4131    1.9658   -0.0029 H   0  0  0  0  0  0  0  0  0  0  0  0
   -1.1416    2.8323   -0.0026 C   0  0  0  0  0  0  0  0  0  0  0  0
   -1.7288    2.5644    0.8960 H   0  0  0  0  0  0  0  0  0  0  0  0
   -1.7307    2.5598   -0.8985 H   0  0  0  0  0  0  0  0  0  0  0  0
   -0.9621    3.9229   -0.0056 H   0  0  0  0  0  0  0  0  0  0  0  0
    2.4025   -0.6936    0.0011 C   0  0  0  0  0  0  0  0  0  0  0  0
    3.9213   -0.4625    0.0012 C   0  0  0  0  0  0  0  0  0  0  0  0
    4.2638    0.0813    0.9040 H   0  0  0  0  0  0  0  0  0  0  0  0
    4.2643    0.0790   -0.9028 H   0  0  0  0  0  0  0  0  0  0  0  0
    4.4192   -1.4510    0.0025 H   0  0  0  0  0  0  0  0  0  0  0  0
    2.0241   -1.4541   -1.2814 C   0  0  0  0  0  0  0  0  0  0  0  0
    2.4097   -0.9172   -2.1713 H   0  0  0  0  0  0  0  0  0  0  0  0
    0.9277   -1.5432   -1.3797 H   0  0  0  0  0  0  0  0  0  0  0  0
    2.4658   -2.4696   -1.2664 H   0  0  0  0  0  0  0  0  0  0  0  0
    2.0237   -1.4514    1.2851 C   0  0  0  0  0  0  0  0  0  0  0  0
    2.4658   -2.4668    1.2725 H   0  0  0  0  0  0  0  0  0  0  0  0
    0.9273   -1.5407    1.3831 H   0  0  0  0  0  0  0  0  0  0  0  0
    2.4088   -0.9124    2.1741 H   0  0  0  0  0  0  0  0  0  0  0  0
  1  2  1  0  0  0  0
  3  2  1  0  0  0  0
  3 12  1  0  0  0  0
  4  6  2  0  0  0  0
  4  1  1  0  0  0  0
  5  4  1  0  0  0  0
  6  3  1  0  0  0  0
  7  6  1  0  0  0  0
  8  1  1  0  0  0  0
  8  9  1  0  0  0  0
 10  8  1  0  0  0  0
 11  8  1  0  0  0  0
 12 13  1  0  0  0  0
 12 21  1  0  0  0  0
 13 16  1  0  0  0  0
 13 14  1  0  0  0  0
 15 13  1  0  0  0  0
 17 20  1  0  0  0  0
 17 12  1  0  0  0  0
 18 17  1  0  0  0  0
 19 17  1  0  0  0  0
 21 23  1  0  0  0  0
 21 24  1  0  0  0  0
 22 21  1  0  0  0  0
M  END
