26
 OpenBabel05122313113D

 45 48  0  0  1  0  0  0  0  0999 V2000
   -1.9445    1.3002   -1.3241 N   0  0  0  0  0  2  0  0  0  0  0  0
   -1.7615    0.5818    0.9136 N   0  0  0  0  0  0  0  0  0  0  0  0
   -0.3137    0.4645    0.6750 C   0  0  2  0  0  0  0  0  0  0  0  0
    0.1883    0.5459    1.6554 H   0  0  0  0  0  0  0  0  0  0  0  0
    0.0648    1.6368   -0.2181 C   0  0  0  0  0  0  0  0  0  0  0  0
   -5.7171   -1.1750    0.3505 C   0  0  0  0  0  0  0  0  0  0  0  0
   -6.0807   -2.0138    0.9635 H   0  0  0  0  0  0  0  0  0  0  0  0
   -3.9023    0.3172   -0.3178 C   0  0  0  0  0  0  0  0  0  0  0  0
    1.3055    2.4071   -0.0389 C   0  0  0  0  0  0  0  0  0  0  0  0
   -0.7773    1.9640   -1.1645 N   0  0  0  0  0  0  0  0  0  0  0  0
   -2.2426    0.9021    2.2596 C   0  0  0  0  0  0  0  0  0  0  0  0
   -3.3253    1.1179    2.1754 H   0  0  0  0  0  0  0  0  0  0  0  0
   -1.7600    1.8489    2.5964 H   0  0  0  0  0  0  0  0  0  0  0  0
   -6.1012    0.5110   -1.3579 C   0  0  0  0  0  0  0  0  0  0  0  0
   -6.7725    1.0055   -2.0764 H   0  0  0  0  0  0  0  0  0  0  0  0
   -1.9932   -0.1972    3.2894 C   0  0  0  0  0  0  0  0  0  0  0  0
   -2.3815    0.1133    4.2798 H   0  0  0  0  0  0  0  0  0  0  0  0
   -0.9114   -0.4075    3.4149 H   0  0  0  0  0  0  0  0  0  0  0  0
   -2.4936   -1.1439    3.0033 H   0  0  0  0  0  0  0  0  0  0  0  0
    2.1733    2.1934    1.0563 C   0  0  0  0  0  0  0  0  0  0  0  0
    1.9302    1.4541    1.8317 H   0  0  0  0  0  0  0  0  0  0  0  0
    3.7224    3.8617    0.2027 C   0  0  0  0  0  0  0  0  0  0  0  0
    4.6664    4.4205    0.2911 H   0  0  0  0  0  0  0  0  0  0  0  0
   -4.3866   -0.7527    0.4684 C   0  0  0  0  0  0  0  0  0  0  0  0
   -3.6998   -1.2763    1.1492 H   0  0  0  0  0  0  0  0  0  0  0  0
    0.1389   -2.1304    0.7611 C   0  0  0  0  0  3  0  0  0  0  0  0
    0.0392   -2.2674    1.8447 H   0  0  0  0  0  0  0  0  0  0  0  0
   -4.7750    0.9421   -1.2369 C   0  0  0  0  0  0  0  0  0  0  0  0
   -4.3784    1.7655   -1.8476 H   0  0  0  0  0  0  0  0  0  0  0  0
    1.6722    3.3702   -1.0113 C   0  0  0  0  0  0  0  0  0  0  0  0
    0.9973    3.5209   -1.8656 H   0  0  0  0  0  0  0  0  0  0  0  0
    3.3702    2.9132    1.1739 C   0  0  0  0  0  0  0  0  0  0  0  0
    4.0341    2.7220    2.0303 H   0  0  0  0  0  0  0  0  0  0  0  0
   -2.4965    0.7586   -0.2402 C   0  0  2  0  0  3  0  0  0  0  0  0
    0.0290   -0.8738    0.0604 C   0  0  0  0  0  0  0  0  0  0  0  0
   -6.5796   -0.5428   -0.5603 C   0  0  0  0  0  0  0  0  0  0  0  0
   -7.6249   -0.8749   -0.6517 H   0  0  0  0  0  0  0  0  0  0  0  0
    0.4488   -2.5515   -1.4977 C   0  0  0  0  0  0  0  0  0  0  0  0
    0.6332   -3.0702   -2.4452 H   0  0  0  0  0  0  0  0  0  0  0  0
    2.8644    4.0876   -0.8891 C   0  0  0  0  0  0  0  0  0  0  0  0
    3.1365    4.8261   -1.6586 H   0  0  0  0  0  0  0  0  0  0  0  0
    0.2180   -1.1521   -1.3367 C   0  0  0  0  0  0  0  0  0  0  0  0
    0.1889   -0.4008   -2.1345 H   0  0  0  0  0  0  0  0  0  0  0  0
    0.4004   -3.1578   -0.1927 C   0  0  0  0  0  0  0  0  0  0  0  0
    0.5450   -4.2217    0.0297 H   0  0  0  0  0  0  0  0  0  0  0  0
  1 10  1  0  0  0  0
  1 34  1  0  0  0  0
  2 11  1  0  0  0  0
  3  2  1  0  0  0  0
  3  4  1  1  0  0  0
  5  9  1  0  0  0  0
  5  3  1  0  0  0  0
  6 24  1  0  0  0  0
  6  7  1  0  0  0  0
  8 24  2  0  0  0  0
  9 20  1  0  0  0  0
 10  5  2  0  0  0  0
 11 13  1  0  0  0  0
 11 16  1  0  0  0  0
 12 11  1  0  0  0  0
 14 28  2  0  0  0  0
 14 36  1  0  0  0  0
 15 14  1  0  0  0  0
 16 18  1  0  0  0  0
 16 17  1  0  0  0  0
 19 16  1  0  0  0  0
 20 32  2  0  0  0  0
 20 21  1  0  0  0  0
 22 23  1  0  0  0  0
 22 32  1  0  0  0  0
 24 25  1  0  0  0  0
 26 27  1  0  0  0  0
 28  8  1  0  0  0  0
 29 28  1  0  0  0  0
 30 40  1  0  0  0  0
 30  9  2  0  0  0  0
 31 30  1  0  0  0  0
 32 33  1  0  0  0  0
 34  8  1  6  0  0  0
 34  2  1  0  0  0  0
 35  3  1  0  0  0  0
 35 26  1  0  0  0  0
 36  6  2  0  0  0  0
 37 36  1  0  0  0  0
 38 42  1  0  0  0  0
 38 44  2  0  0  0  0
 39 38  1  0  0  0  0
 40 22  2  0  0  0  0
 41 40  1  0  0  0  0
 42 35  2  0  0  0  0
 43 42  1  0  0  0  0
 44 45  1  0  0  0  0
 44 26  1  0  0  0  0
M  END
