24
 OpenBabel05122313113D

 49 51  0  0  1  0  0  0  0  0999 V2000
   -3.7809   -0.5044    0.6174 C   0  0  0  0  0  0  0  0  0  0  0  0
   -3.7124    0.5248    0.9969 H   0  0  0  0  0  0  0  0  0  0  0  0
   -5.0379   -1.1123    0.5246 C   0  0  0  0  0  0  0  0  0  0  0  0
   -5.9343   -0.5607    0.8460 H   0  0  0  0  0  0  0  0  0  0  0  0
   -5.1552   -2.4177    0.0186 C   0  0  0  0  0  0  0  0  0  0  0  0
   -6.1438   -2.8958   -0.0543 H   0  0  0  0  0  0  0  0  0  0  0  0
   -4.0034   -3.1041   -0.3963 C   0  0  0  0  0  0  0  0  0  0  0  0
   -4.0860   -4.1263   -0.7961 H   0  0  0  0  0  0  0  0  0  0  0  0
   -2.7419   -2.5007   -0.3077 C   0  0  0  0  0  0  0  0  0  0  0  0
   -1.8338   -3.0291   -0.6277 H   0  0  0  0  0  0  0  0  0  0  0  0
   -2.6102   -1.1877    0.2061 C   0  0  0  0  0  0  0  0  0  0  0  0
   -1.2856   -0.5568    0.3154 C   0  0  1  0  0  3  0  0  0  0  0  0
   -0.9437    0.6221    1.0689 C   0  0  1  0  0  3  0  0  0  0  0  0
   -1.4799    1.5416    2.1428 C   0  0  1  0  0  0  0  0  0  0  0  0
   -2.3869    2.1039    1.8365 H   0  0  0  0  0  0  0  0  0  0  0  0
   -1.7483    0.7806    3.4441 C   0  0  0  0  0  0  0  0  0  0  0  0
   -2.0095    1.4957    4.2477 H   0  0  0  0  0  0  0  0  0  0  0  0
   -0.8519    0.2091    3.7584 H   0  0  0  0  0  0  0  0  0  0  0  0
   -2.5838    0.0643    3.3142 H   0  0  0  0  0  0  0  0  0  0  0  0
   -0.4333    2.5228    2.2957 O   0  0  0  0  0  0  0  0  0  0  0  0
    0.8233    1.9849    1.8797 C   0  0  0  0  0  0  0  0  0  0  0  0
    1.4009    1.5544    2.7357 H   0  0  0  0  0  0  0  0  0  0  0  0
    1.4306    2.8008    1.4398 H   0  0  0  0  0  0  0  0  0  0  0  0
    0.4591    0.8775    0.9311 C   0  0  1  0  0  3  0  0  0  0  0  0
    1.0600   -0.0981    0.0711 C   0  0  2  0  0  3  0  0  0  0  0  0
    0.0315   -1.1922   -0.1000 C   0  0  0  0  0  0  0  0  0  0  0  0
    0.2170   -2.3115   -0.5764 O   0  0  0  0  0  0  0  0  0  0  0  0
    2.8850   -0.2913   -0.4132 Si  0  0  0  0  0  0  0  0  0  0  0  0
    3.7269    1.3989   -0.2592 C   0  0  0  0  0  0  0  0  0  0  0  0
    3.2243    2.1705   -0.8740 H   0  0  0  0  0  0  0  0  0  0  0  0
    4.7767    1.3276   -0.6093 H   0  0  0  0  0  0  0  0  0  0  0  0
    3.7521    1.7568    0.7905 H   0  0  0  0  0  0  0  0  0  0  0  0
    2.9723   -0.9274   -2.1859 C   0  0  0  0  0  0  0  0  0  0  0  0
    2.6537   -0.1455   -2.9042 H   0  0  0  0  0  0  0  0  0  0  0  0
    2.2991   -1.8001   -2.3004 H   0  0  0  0  0  0  0  0  0  0  0  0
    4.0035   -1.2370   -2.4519 H   0  0  0  0  0  0  0  0  0  0  0  0
    3.7069   -1.5287    0.8250 C   0  0  0  0  0  0  0  0  0  0  0  0
    5.2375   -1.3692    0.7401 C   0  0  0  0  0  0  0  0  0  0  0  0
    5.7371   -2.1140    1.3992 H   0  0  0  0  0  0  0  0  0  0  0  0
    5.5760   -0.3637    1.0639 H   0  0  0  0  0  0  0  0  0  0  0  0
    5.6179   -1.5398   -0.2893 H   0  0  0  0  0  0  0  0  0  0  0  0
    3.3230   -2.9762    0.4653 C   0  0  0  0  0  0  0  0  0  0  0  0
    3.7524   -3.6822    1.2111 H   0  0  0  0  0  0  0  0  0  0  0  0
    3.7202   -3.2657   -0.5292 H   0  0  0  0  0  0  0  0  0  0  0  0
    2.2256   -3.1244    0.4324 H   0  0  0  0  0  0  0  0  0  0  0  0
    3.2354   -1.2034    2.2547 C   0  0  0  0  0  0  0  0  0  0  0  0
    3.7446   -1.8630    2.9922 H   0  0  0  0  0  0  0  0  0  0  0  0
    2.1430   -1.3592    2.3730 H   0  0  0  0  0  0  0  0  0  0  0  0
    3.4638   -0.1551    2.5441 H   0  0  0  0  0  0  0  0  0  0  0  0
  1  2  1  0  0  0  0
  3  1  1  0  0  0  0
  3  4  1  0  0  0  0
  5  3  2  0  0  0  0
  6  5  1  0  0  0  0
  7  9  2  0  0  0  0
  7  5  1  0  0  0  0
  8  7  1  0  0  0  0
  9 11  1  0  0  0  0
 10  9  1  0  0  0  0
 11  1  2  0  0  0  0
 12 11  1  1  0  0  0
 12 13  1  0  0  0  0
 13 14  1  0  0  0  0
 14 20  1  0  0  0  0
 14 16  1  0  0  0  0
 15 14  1  0  0  0  0
 16 18  1  0  0  0  0
 16 17  1  0  0  0  0
 19 16  1  0  0  0  0
 21 20  1  0  0  0  0
 21 22  1  0  0  0  0
 23 21  1  0  0  0  0
 24 13  1  0  0  0  0
 24 21  1  0  0  0  0
 25 24  1  0  0  0  0
 26 25  1  0  0  0  0
 26 12  1  0  0  0  0
 27 26  2  0  0  0  0
 28 29  1  0  0  0  0
 28 25  1  0  0  0  0
 28 37  1  0  0  0  0
 29 32  1  0  0  0  0
 30 29  1  0  0  0  0
 31 29  1  0  0  0  0
 33 28  1  0  0  0  0
 34 33  1  0  0  0  0
 35 33  1  0  0  0  0
 36 33  1  0  0  0  0
 37 46  1  0  0  0  0
 38 37  1  0  0  0  0
 38 40  1  0  0  0  0
 38 39  1  0  0  0  0
 41 38  1  0  0  0  0
 42 37  1  0  0  0  0
 42 43  1  0  0  0  0
 44 42  1  0  0  0  0
 45 42  1  0  0  0  0
 46 48  1  0  0  0  0
 46 49  1  0  0  0  0
 46 47  1  0  0  0  0
M  END
