1
 OpenBabel05122313113D

 18 18  0  0  0  0  0  0  0  0999 V2000
   -1.1062   -0.0004   -0.1989 C   0  0  0  0  0  3  0  0  0  0  0  0
   -1.3971   -0.0003   -1.2700 H   0  0  0  0  0  0  0  0  0  0  0  0
   -2.1130   -0.0008    0.7167 C   0  0  0  0  0  0  0  0  0  0  0  0
   -1.8655   -0.0010    1.7950 H   0  0  0  0  0  0  0  0  0  0  0  0
   -3.5589   -0.0008    0.4386 C   0  0  0  0  0  0  0  0  0  0  0  0
   -4.1045   -0.0006   -0.8710 C   0  0  0  0  0  0  0  0  0  0  0  0
   -3.4253   -0.0006   -1.7374 H   0  0  0  0  0  0  0  0  0  0  0  0
   -5.4850   -0.0010   -1.0831 C   0  0  0  0  0  0  0  0  0  0  0  0
   -5.8711   -0.0013   -2.1160 H   0  0  0  0  0  0  0  0  0  0  0  0
   -6.3997   -0.0014   -0.0057 C   0  0  0  0  0  0  0  0  0  0  0  0
   -5.8639   -0.0023    1.2962 C   0  0  0  0  0  0  0  0  0  0  0  0
   -6.5485   -0.0036    2.1601 H   0  0  0  0  0  0  0  0  0  0  0  0
   -4.4795   -0.0019    1.5131 C   0  0  0  0  0  0  0  0  0  0  0  0
   -4.0899   -0.0029    2.5441 H   0  0  0  0  0  0  0  0  0  0  0  0
   -7.8874    0.0030   -0.2526 C   0  0  0  0  0  0  0  0  0  0  0  0
   -8.4583   -0.0410    0.6955 H   0  0  0  0  0  0  0  0  0  0  0  0
   -8.2003   -0.8612   -0.8759 H   0  0  0  0  0  0  0  0  0  0  0  0
   -8.2077    0.9180   -0.7954 H   0  0  0  0  0  0  0  0  0  0  0  0
  1  3  2  0  0  0  0
  2  1  1  0  0  0  0
  3  4  1  0  0  0  0
  5  3  1  0  0  0  0
  5 13  1  0  0  0  0
  6  5  2  0  0  0  0
  7  6  1  0  0  0  0
  8  6  1  0  0  0  0
  8 10  2  0  0  0  0
  9  8  1  0  0  0  0
 10 11  1  0  0  0  0
 11 13  2  0  0  0  0
 11 12  1  0  0  0  0
 13 14  1  0  0  0  0
 15 10  1  0  0  0  0
 15 16  1  0  0  0  0
 17 15  1  0  0  0  0
 18 15  1  0  0  0  0
M  END
