1
 OpenBabel05122313113D

 21 21  0  0  0  0  0  0  0  0999 V2000
   -1.3437   -1.5058   -0.3551 C   0  0  0  0  0  3  0  0  0  0  0  0
   -2.1016   -1.5013   -1.4859 C   0  0  0  0  0  0  0  0  0  0  0  0
   -2.0256   -0.6465   -2.1870 H   0  0  0  0  0  0  0  0  0  0  0  0
   -3.1336   -2.5407   -1.8766 C   0  0  0  0  0  0  0  0  0  0  0  0
   -2.7589   -3.5635   -1.6501 H   0  0  0  0  0  0  0  0  0  0  0  0
   -3.2632   -2.5057   -2.9784 H   0  0  0  0  0  0  0  0  0  0  0  0
   -4.5257   -2.3756   -1.2298 C   0  0  0  0  0  0  0  0  0  0  0  0
   -5.2359   -3.0173   -1.7942 H   0  0  0  0  0  0  0  0  0  0  0  0
   -4.8749   -1.3306   -1.3876 H   0  0  0  0  0  0  0  0  0  0  0  0
   -4.6598   -2.7255    0.2631 C   0  0  0  0  0  0  0  0  0  0  0  0
   -5.7462   -2.7320    0.4901 H   0  0  0  0  0  0  0  0  0  0  0  0
   -4.3251   -3.7739    0.4333 H   0  0  0  0  0  0  0  0  0  0  0  0
   -3.9633   -1.7825    1.2672 C   0  0  0  0  0  0  0  0  0  0  0  0
   -4.6073   -1.6669    2.1637 H   0  0  0  0  0  0  0  0  0  0  0  0
   -3.9080   -0.7666    0.8191 H   0  0  0  0  0  0  0  0  0  0  0  0
   -2.5747   -2.2139    1.7659 C   0  0  0  0  0  0  0  0  0  0  0  0
   -2.6891   -3.0908    2.4396 H   0  0  0  0  0  0  0  0  0  0  0  0
   -2.1554   -1.3977    2.3963 H   0  0  0  0  0  0  0  0  0  0  0  0
   -1.5539   -2.5926    0.6745 C   0  0  0  0  0  0  0  0  0  0  0  0
   -0.6004   -2.8735    1.1648 H   0  0  0  0  0  0  0  0  0  0  0  0
   -1.9094   -3.5172    0.1706 H   0  0  0  0  0  0  0  0  0  0  0  0
  1 19  1  0  0  0  0
  2  1  2  0  0  0  0
  3  2  1  0  0  0  0
  4  5  1  0  0  0  0
  4  2  1  0  0  0  0
  4  7  1  0  0  0  0
  6  4  1  0  0  0  0
  7 10  1  0  0  0  0
  8  7  1  0  0  0  0
  9  7  1  0  0  0  0
 10 12  1  0  0  0  0
 10 11  1  0  0  0  0
 10 13  1  0  0  0  0
 13 16  1  0  0  0  0
 13 14  1  0  0  0  0
 15 13  1  0  0  0  0
 16 18  1  0  0  0  0
 16 17  1  0  0  0  0
 19 20  1  0  0  0  0
 19 16  1  0  0  0  0
 21 19  1  0  0  0  0
M  END
