7
 OpenBabel05122313113D

 12 12  0  0  0  0  0  0  0  0999 V2000
    1.3807   -2.9063    1.7850 B   0  0  0  0  0  0  0  0  0  0  0  0
    2.5410   -2.7255    2.1183 H   0  0  0  0  0  0  0  0  0  0  0  0
    1.0234   -3.4425    0.3824 C   0  0  0  0  0  0  0  0  0  0  0  0
    1.7993   -3.6666   -0.3684 H   0  0  0  0  0  0  0  0  0  0  0  0
   -0.3221   -3.6128   -0.0241 C   0  0  0  0  0  0  0  0  0  0  0  0
   -0.5890   -4.0151   -1.0155 H   0  0  0  0  0  0  0  0  0  0  0  0
   -1.3709   -3.1776    0.8456 C   0  0  0  0  0  3  0  0  0  0  0  0
   -2.4127   -3.2241    0.4954 H   0  0  0  0  0  0  0  0  0  0  0  0
   -1.1214   -2.7105    2.1875 C   0  0  0  0  0  3  0  0  0  0  0  0
   -2.0027   -2.4255    2.7867 H   0  0  0  0  0  0  0  0  0  0  0  0
    0.1859   -2.5835    2.6995 C   0  0  0  0  0  0  0  0  0  0  0  0
    0.2783   -2.1976    3.7299 H   0  0  0  0  0  0  0  0  0  0  0  0
  1  2  1  0  0  0  0
  1 11  2  0  0  0  0
  3  1  1  0  0  0  0
  4  3  1  0  0  0  0
  5  3  2  0  0  0  0
  5  7  1  0  0  0  0
  6  5  1  0  0  0  0
  7  9  1  0  0  0  0
  8  7  1  0  0  0  0
  9 11  1  0  0  0  0
  9 10  1  0  0  0  0
 11 12  1  0  0  0  0
M  END
