38
 OpenBabel05122313113D

 65 68  0  0  0  0  0  0  0  0999 V2000
   -4.9279   -1.9825    0.6765 O   0  0  0  0  0  0  0  0  0  0  0  0
   -3.2188   -1.3821   -0.7552 O   0  0  0  0  0  0  0  0  0  0  0  0
   -0.6221   -1.3495    1.3905 N   0  0  0  0  0  0  0  0  0  0  0  0
   -3.5047   -3.5947    1.5024 H   0  0  0  0  0  0  0  0  0  0  0  0
   -0.2548    0.6649    0.6887 N   0  0  0  0  0  0  0  0  0  0  0  0
   -3.0054   -3.1023    0.7608 N   0  0  0  0  0  0  0  0  0  0  0  0
    1.5605    1.7259   -0.7115 C   0  0  0  0  0  0  0  0  0  0  0  0
    2.6752    2.5474   -0.4681 C   0  0  0  0  0  0  0  0  0  0  0  0
    2.6380    3.3064    0.3249 H   0  0  0  0  0  0  0  0  0  0  0  0
    3.8419    2.4194   -1.2437 C   0  0  0  0  0  0  0  0  0  0  0  0
    4.7016    3.0754   -1.0388 H   0  0  0  0  0  0  0  0  0  0  0  0
    3.9060    1.4728   -2.2772 C   0  0  0  0  0  0  0  0  0  0  0  0
    4.8171    1.3799   -2.8879 H   0  0  0  0  0  0  0  0  0  0  0  0
    0.2173    1.9174    0.0176 C   0  0  0  0  0  0  0  0  0  0  0  0
   -1.6155   -0.5529    1.9459 C   0  0  0  0  0  0  0  0  0  0  0  0
   -2.4046   -0.9580    2.5844 H   0  0  0  0  0  0  0  0  0  0  0  0
   -1.3863    0.7175    1.5067 C   0  0  0  0  0  0  0  0  0  0  0  0
   -1.9182    1.6515    1.6999 H   0  0  0  0  0  0  0  0  0  0  0  0
    0.3245    2.9502    1.1630 C   0  0  0  0  0  0  0  0  0  0  0  0
   -0.6158   -2.8055    1.4516 C   0  0  0  0  0  0  0  0  0  0  0  0
   -0.8253   -3.1167    2.4970 H   0  0  0  0  0  0  0  0  0  0  0  0
    0.4096   -3.1260    1.1722 H   0  0  0  0  0  0  0  0  0  0  0  0
    1.6274    0.7781   -1.7625 C   0  0  0  0  0  0  0  0  0  0  0  0
    0.7358    0.2048   -2.0534 H   0  0  0  0  0  0  0  0  0  0  0  0
    1.2694    3.4878    3.3564 C   0  0  0  0  0  0  0  0  0  0  0  0
    1.9164    3.2100    4.2023 H   0  0  0  0  0  0  0  0  0  0  0  0
    1.1412    2.6188    2.2671 C   0  0  0  0  0  0  0  0  0  0  0  0
    1.6741    1.6556    2.2700 H   0  0  0  0  0  0  0  0  0  0  0  0
   -0.7919    2.3104   -1.0852 C   0  0  0  0  0  0  0  0  0  0  0  0
   -0.3870    4.1611    1.1976 C   0  0  0  0  0  0  0  0  0  0  0  0
   -1.0553    4.4278    0.3679 H   0  0  0  0  0  0  0  0  0  0  0  0
   -3.6795   -2.0830    0.1363 C   0  0  0  0  0  0  0  0  0  0  0  0
   -1.6239   -3.4245    0.4686 C   0  0  0  0  0  0  0  0  0  0  0  0
   -1.3750   -3.0612   -0.5504 H   0  0  0  0  0  0  0  0  0  0  0  0
   -1.4891   -4.5263    0.4730 H   0  0  0  0  0  0  0  0  0  0  0  0
   -0.5611    3.4900   -1.8266 C   0  0  0  0  0  0  0  0  0  0  0  0
    0.3186    4.1108   -1.5994 H   0  0  0  0  0  0  0  0  0  0  0  0
    0.2414   -0.6129    0.6122 C   0  0  0  0  0  2  0  0  0  0  0  0
   -1.8686    1.4831   -1.4510 C   0  0  0  0  0  0  0  0  0  0  0  0
   -2.0491    0.5189   -0.9558 H   0  0  0  0  0  0  0  0  0  0  0  0
    2.7935    0.6598   -2.5401 C   0  0  0  0  0  0  0  0  0  0  0  0
    2.8089   -0.0768   -3.3566 H   0  0  0  0  0  0  0  0  0  0  0  0
   -6.1560   -1.0882   -1.2649 C   0  0  0  0  0  0  0  0  0  0  0  0
   -6.9339   -0.3586   -1.5667 H   0  0  0  0  0  0  0  0  0  0  0  0
   -6.5396   -2.1069   -1.4734 H   0  0  0  0  0  0  0  0  0  0  0  0
   -5.2476   -0.9197   -1.8707 H   0  0  0  0  0  0  0  0  0  0  0  0
   -0.2635    5.0335    2.2939 C   0  0  0  0  0  0  0  0  0  0  0  0
   -0.8317    5.9761    2.3005 H   0  0  0  0  0  0  0  0  0  0  0  0
   -2.5143    3.0473   -3.2067 C   0  0  0  0  0  0  0  0  0  0  0  0
   -3.1852    3.3345   -4.0306 H   0  0  0  0  0  0  0  0  0  0  0  0
   -5.8510   -0.9299    0.2291 C   0  0  0  0  0  0  0  0  0  0  0  0
   -1.4207    3.8623   -2.8676 C   0  0  0  0  0  0  0  0  0  0  0  0
   -1.2247    4.7885   -3.4291 H   0  0  0  0  0  0  0  0  0  0  0  0
   -2.7229    1.8536   -2.5043 C   0  0  0  0  0  0  0  0  0  0  0  0
   -3.5511    1.1811   -2.7749 H   0  0  0  0  0  0  0  0  0  0  0  0
    0.5685    4.7061    3.3721 C   0  0  0  0  0  0  0  0  0  0  0  0
    0.6650    5.3910    4.2281 H   0  0  0  0  0  0  0  0  0  0  0  0
   -7.1020   -1.1997    1.0691 C   0  0  0  0  0  0  0  0  0  0  0  0
   -6.8694   -1.1260    2.1499 H   0  0  0  0  0  0  0  0  0  0  0  0
   -7.4954   -2.2151    0.8656 H   0  0  0  0  0  0  0  0  0  0  0  0
   -7.8915   -0.4614    0.8282 H   0  0  0  0  0  0  0  0  0  0  0  0
   -5.2668    0.4500    0.5552 C   0  0  0  0  0  0  0  0  0  0  0  0
   -5.0171    0.5164    1.6334 H   0  0  0  0  0  0  0  0  0  0  0  0
   -6.0135    1.2366    0.3272 H   0  0  0  0  0  0  0  0  0  0  0  0
   -4.3543    0.6492   -0.0348 H   0  0  0  0  0  0  0  0  0  0  0  0
  2 32  2  0  0  0  0
  3 20  1  0  0  0  0
  3 15  1  0  0  0  0
  5 17  1  0  0  0  0
  6  4  1  0  0  0  0
  7  8  1  0  0  0  0
  7 14  1  0  0  0  0
  8  9  1  0  0  0  0
 10 11  1  0  0  0  0
 10  8  2  0  0  0  0
 12 10  1  0  0  0  0
 13 12  1  0  0  0  0
 14  5  1  0  0  0  0
 14 19  1  0  0  0  0
 15 16  1  0  0  0  0
 17 18  1  0  0  0  0
 17 15  2  0  0  0  0
 19 30  2  0  0  0  0
 19 27  1  0  0  0  0
 20 21  1  0  0  0  0
 22 20  1  0  0  0  0
 23  7  2  0  0  0  0
 24 23  1  0  0  0  0
 25 56  1  0  0  0  0
 25 26  1  0  0  0  0
 27 28  1  0  0  0  0
 27 25  2  0  0  0  0
 29 14  1  0  0  0  0
 30 47  1  0  0  0  0
 31 30  1  0  0  0  0
 32  1  1  0  0  0  0
 32  6  1  0  0  0  0
 33 35  1  0  0  0  0
 33  6  1  0  0  0  0
 33 20  1  0  0  0  0
 34 33  1  0  0  0  0
 36 37  1  0  0  0  0
 36 29  2  0  0  0  0
 38  5  1  0  0  0  0
 38  3  1  0  0  0  0
 39 29  1  0  0  0  0
 39 40  1  0  0  0  0
 41 12  2  0  0  0  0
 41 23  1  0  0  0  0
 42 41  1  0  0  0  0
 43 51  1  0  0  0  0
 44 43  1  0  0  0  0
 45 43  1  0  0  0  0
 46 43  1  0  0  0  0
 47 48  1  0  0  0  0
 47 56  2  0  0  0  0
 49 52  2  0  0  0  0
 49 54  1  0  0  0  0
 50 49  1  0  0  0  0
 51 62  1  0  0  0  0
 51  1  1  0  0  0  0
 51 58  1  0  0  0  0
 52 36  1  0  0  0  0
 53 52  1  0  0  0  0
 54 39  2  0  0  0  0
 55 54  1  0  0  0  0
 56 57  1  0  0  0  0
 58 59  1  0  0  0  0
 60 58  1  0  0  0  0
 61 58  1  0  0  0  0
 62 63  1  0  0  0  0
 64 62  1  0  0  0  0
 65 62  1  0  0  0  0
M  END
