4
 OpenBabel05122313113D

 41 41  0  0  0  0  0  0  0  0999 V2000
   -1.4470    0.5449   -0.0168 P   0  0  0  0  0  0  0  0  0  0  0  0
   -2.8267    1.0285   -1.7759 Si  0  0  0  0  0  0  0  0  0  0  0  0
   -2.7138    0.8613    1.8610 Si  0  0  0  0  0  0  0  0  0  0  0  0
    1.0828    1.1108   -0.1540 C   0  0  0  0  0  3  0  0  0  0  0  0
   -0.1039    1.7728   -0.0568 C   0  0  0  0  0  0  0  0  0  0  0  0
    2.3496    1.8706   -0.1456 C   0  0  0  0  0  0  0  0  0  0  0  0
    2.6152    2.7824    0.9082 C   0  0  0  0  0  0  0  0  0  0  0  0
    3.8244    3.4887    0.9760 C   0  0  0  0  0  0  0  0  0  0  0  0
    4.8022    3.3157   -0.0162 C   0  0  0  0  0  0  0  0  0  0  0  0
    4.5539    2.4273   -1.0756 C   0  0  0  0  0  0  0  0  0  0  0  0
    3.3519    1.7086   -1.1343 C   0  0  0  0  0  0  0  0  0  0  0  0
   -1.7291    1.5531   -3.2279 C   0  0  0  0  0  0  0  0  0  0  0  0
   -3.9820    2.4844   -1.4007 C   0  0  0  0  0  0  0  0  0  0  0  0
   -3.8382   -0.5269   -2.1465 C   0  0  0  0  0  0  0  0  0  0  0  0
   -1.8402    0.0912    3.3440 C   0  0  0  0  0  0  0  0  0  0  0  0
   -4.3609   -0.0292    1.5981 C   0  0  0  0  0  0  0  0  0  0  0  0
   -2.9249    2.7202    2.1565 C   0  0  0  0  0  0  0  0  0  0  0  0
   -0.2256    2.8761   -0.0407 H   0  0  0  0  0  0  0  0  0  0  0  0
    1.8522    2.9198    1.6903 H   0  0  0  0  0  0  0  0  0  0  0  0
    4.0040    4.1822    1.8123 H   0  0  0  0  0  0  0  0  0  0  0  0
    5.7521    3.8689    0.0351 H   0  0  0  0  0  0  0  0  0  0  0  0
    5.3076    2.2900   -1.8666 H   0  0  0  0  0  0  0  0  0  0  0  0
    3.1780    1.0200   -1.9722 H   0  0  0  0  0  0  0  0  0  0  0  0
   -1.1505    0.7182   -3.6659 H   0  0  0  0  0  0  0  0  0  0  0  0
   -2.3645    1.9844   -4.0296 H   0  0  0  0  0  0  0  0  0  0  0  0
   -1.0101    2.3319   -2.9017 H   0  0  0  0  0  0  0  0  0  0  0  0
   -4.6706    2.2723   -0.5597 H   0  0  0  0  0  0  0  0  0  0  0  0
   -3.4048    3.3989   -1.1564 H   0  0  0  0  0  0  0  0  0  0  0  0
   -4.5989    2.7021   -2.2982 H   0  0  0  0  0  0  0  0  0  0  0  0
   -3.2047   -1.4360   -2.1364 H   0  0  0  0  0  0  0  0  0  0  0  0
   -4.6212   -0.6704   -1.3757 H   0  0  0  0  0  0  0  0  0  0  0  0
   -4.3367   -0.4487   -3.1350 H   0  0  0  0  0  0  0  0  0  0  0  0
   -0.8206    0.5010    3.4833 H   0  0  0  0  0  0  0  0  0  0  0  0
   -2.4226    0.2902    4.2678 H   0  0  0  0  0  0  0  0  0  0  0  0
   -1.7715   -1.0036    3.1917 H   0  0  0  0  0  0  0  0  0  0  0  0
   -4.9792    0.4342    0.8045 H   0  0  0  0  0  0  0  0  0  0  0  0
   -4.1585   -1.0835    1.3194 H   0  0  0  0  0  0  0  0  0  0  0  0
   -4.9507   -0.0237    2.5383 H   0  0  0  0  0  0  0  0  0  0  0  0
   -3.4655    3.2210    1.3307 H   0  0  0  0  0  0  0  0  0  0  0  0
   -3.4916    2.8924    3.0959 H   0  0  0  0  0  0  0  0  0  0  0  0
   -1.9339    3.2068    2.2641 H   0  0  0  0  0  0  0  0  0  0  0  0
  1  3  1  0  0  0  0
  2 13  1  0  0  0  0
  2  1  1  0  0  0  0
  3 17  1  0  0  0  0
  3 15  1  0  0  0  0
  4  6  1  0  0  0  0
  4  5  2  0  0  0  0
  5 18  1  0  0  0  0
  5  1  1  0  0  0  0
  6  7  1  0  0  0  0
  7  8  2  0  0  0  0
  7 19  1  0  0  0  0
  8 20  1  0  0  0  0
  9 21  1  0  0  0  0
  9  8  1  0  0  0  0
 10  9  2  0  0  0  0
 11 10  1  0  0  0  0
 11  6  2  0  0  0  0
 12 26  1  0  0  0  0
 12  2  1  0  0  0  0
 13 28  1  0  0  0  0
 13 27  1  0  0  0  0
 14 30  1  0  0  0  0
 14  2  1  0  0  0  0
 14 31  1  0  0  0  0
 15 33  1  0  0  0  0
 15 34  1  0  0  0  0
 16  3  1  0  0  0  0
 16 38  1  0  0  0  0
 17 41  1  0  0  0  0
 17 40  1  0  0  0  0
 22 10  1  0  0  0  0
 23 11  1  0  0  0  0
 24 12  1  0  0  0  0
 25 12  1  0  0  0  0
 29 13  1  0  0  0  0
 32 14  1  0  0  0  0
 35 15  1  0  0  0  0
 36 16  1  0  0  0  0
 37 16  1  0  0  0  0
 39 17  1  0  0  0  0
M  END
