1
 OpenBabel05122313113D

 19 18  0  0  1  0  0  0  0  0999 V2000
    1.9427   -0.3976    0.3271 C   0  0  0  0  0  1  0  0  0  0  0  0
    2.9990    0.3814    0.5815 C   0  0  2  0  0  3  0  0  0  0  0  0
    2.8388    1.5851    1.4916 C   0  0  0  0  0  0  0  0  0  0  0  0
    4.3554    0.1695   -0.1333 C   0  0  0  0  0  0  0  0  0  0  0  0
    4.4321    1.1541   -1.3235 C   0  0  0  0  0  0  0  0  0  0  0  0
    4.4876   -1.2655   -0.6716 C   0  0  0  0  0  0  0  0  0  0  0  0
    5.5207    0.4417    0.8383 C   0  0  0  0  0  0  0  0  0  0  0  0
    1.7833    1.7267    1.7908 H   0  0  0  0  0  0  0  0  0  0  0  0
    3.4402    1.4879    2.4212 H   0  0  0  0  0  0  0  0  0  0  0  0
    3.1700    2.5204    0.9873 H   0  0  0  0  0  0  0  0  0  0  0  0
    5.4204    1.0919   -1.8268 H   0  0  0  0  0  0  0  0  0  0  0  0
    3.6481    0.9203   -2.0717 H   0  0  0  0  0  0  0  0  0  0  0  0
    4.2917    2.2042   -0.9936 H   0  0  0  0  0  0  0  0  0  0  0  0
    5.4441   -1.3831   -1.2219 H   0  0  0  0  0  0  0  0  0  0  0  0
    4.4762   -2.0006    0.1583 H   0  0  0  0  0  0  0  0  0  0  0  0
    3.6580   -1.5174   -1.3600 H   0  0  0  0  0  0  0  0  0  0  0  0
    6.4916    0.2564    0.3333 H   0  0  0  0  0  0  0  0  0  0  0  0
    5.5285    1.4899    1.1978 H   0  0  0  0  0  0  0  0  0  0  0  0
    5.4643   -0.2239    1.7241 H   0  0  0  0  0  0  0  0  0  0  0  0
  2  1  1  6  0  0  0
  2  3  1  0  0  0  0
  3  8  1  0  0  0  0
  3  9  1  0  0  0  0
  4  2  1  0  0  0  0
  4  7  1  0  0  0  0
  5 13  1  0  0  0  0
  5  4  1  0  0  0  0
  6  4  1  0  0  0  0
  6 15  1  0  0  0  0
  7 18  1  0  0  0  0
  7 19  1  0  0  0  0
 10  3  1  0  0  0  0
 11  5  1  0  0  0  0
 12  5  1  0  0  0  0
 14  6  1  0  0  0  0
 16  6  1  0  0  0  0
 17  7  1  0  0  0  0
M  END
