8
 OpenBabel05122313113D

 28 30  0  0  0  0  0  0  0  0999 V2000
   -2.9855    1.9966    1.1696 F   0  0  0  0  0  0  0  0  0  0  0  0
   -5.5833    1.2446    1.3961 F   0  0  0  0  0  0  0  0  0  0  0  0
   -6.4063   -1.1690    0.4024 F   0  0  0  0  0  0  0  0  0  0  0  0
   -4.6176   -2.8241   -0.8426 F   0  0  0  0  0  0  0  0  0  0  0  0
   -2.0299   -2.0564   -1.1357 F   0  0  0  0  0  0  0  0  0  0  0  0
    0.8883    1.4997   -0.5401 N   0  0  0  0  0  0  0  0  0  0  0  0
    0.0940   -0.3268    0.3017 N   0  0  0  0  0  0  0  0  0  0  0  0
    1.2643    0.3114    0.0404 C   0  0  0  0  0  2  0  0  0  0  0  0
    1.7225    2.5020   -1.0056 C   0  0  0  0  0  0  0  0  0  0  0  0
    2.7966    2.2990   -0.8901 H   0  0  0  0  0  0  0  0  0  0  0  0
    1.1720    3.6248   -1.5664 C   0  0  0  0  0  0  0  0  0  0  0  0
    1.8396    4.4161   -1.9325 H   0  0  0  0  0  0  0  0  0  0  0  0
   -0.2525    3.7611   -1.6814 C   0  0  0  0  0  0  0  0  0  0  0  0
   -0.6747    4.6681   -2.1369 H   0  0  0  0  0  0  0  0  0  0  0  0
   -1.0881    2.7603   -1.2305 C   0  0  0  0  0  0  0  0  0  0  0  0
   -2.1806    2.8373   -1.3082 H   0  0  0  0  0  0  0  0  0  0  0  0
   -0.5183    1.5967   -0.6454 C   0  0  0  0  0  0  0  0  0  0  0  0
   -1.0198    0.4097   -0.1076 C   0  0  0  0  0  0  0  0  0  0  0  0
    0.0539   -1.6464    0.9213 C   0  0  0  0  0  0  0  0  0  0  0  0
    0.1568   -2.4235    0.1413 H   0  0  0  0  0  0  0  0  0  0  0  0
   -0.8956   -1.7637    1.4749 H   0  0  0  0  0  0  0  0  0  0  0  0
    0.9141   -1.7269    1.6107 H   0  0  0  0  0  0  0  0  0  0  0  0
   -2.4109   -0.0191    0.0357 C   0  0  0  0  0  0  0  0  0  0  0  0
   -3.3632    0.8163    0.6634 C   0  0  0  0  0  0  0  0  0  0  0  0
   -4.7088    0.4398    0.7905 C   0  0  0  0  0  0  0  0  0  0  0  0
   -5.1328   -0.8008    0.2822 C   0  0  0  0  0  0  0  0  0  0  0  0
   -4.2101   -1.6555   -0.3470 C   0  0  0  0  0  0  0  0  0  0  0  0
   -2.8742   -1.2494   -0.4845 C   0  0  0  0  0  0  0  0  0  0  0  0
  4 27  1  0  0  0  0
  5 28  1  0  0  0  0
  6  8  1  0  0  0  0
  7 19  1  0  0  0  0
  8  7  1  0  0  0  0
  9 10  1  0  0  0  0
  9  6  1  0  0  0  0
 11  9  2  0  0  0  0
 12 11  1  0  0  0  0
 13 11  1  0  0  0  0
 13 15  2  0  0  0  0
 14 13  1  0  0  0  0
 15 17  1  0  0  0  0
 16 15  1  0  0  0  0
 17  6  1  0  0  0  0
 17 18  2  0  0  0  0
 18 23  1  0  0  0  0
 18  7  1  0  0  0  0
 19 21  1  0  0  0  0
 19 22  1  0  0  0  0
 20 19  1  0  0  0  0
 23 24  1  0  0  0  0
 24 25  2  0  0  0  0
 24  1  1  0  0  0  0
 25  2  1  0  0  0  0
 26  3  1  0  0  0  0
 26 25  1  0  0  0  0
 27 26  2  0  0  0  0
 28 27  1  0  0  0  0
 28 23  2  0  0  0  0
M  END
