4
 OpenBabel05122313113D

 27 30  0  0  1  0  0  0  0  0999 V2000
    0.3458   -0.2153    0.7126 C   0  0  2  0  0  3  0  0  0  0  0  0
   -0.4003   -1.1831    1.4402 C   0  0  0  0  0  0  0  0  0  0  0  0
   -1.1474   -2.1495    0.7162 C   0  0  0  0  0  0  0  0  0  0  0  0
   -1.1473   -2.1491   -0.7173 C   0  0  0  0  0  3  0  0  0  0  0  0
   -0.4001   -1.1824   -1.4408 C   0  0  0  0  0  0  0  0  0  0  0  0
    0.3458   -0.2150   -0.7127 C   0  0  0  0  0  0  0  0  0  0  0  0
    1.3198    0.8832   -1.1424 C   0  0  2  0  0  0  0  0  0  0  0  0
    2.6927    0.3539   -0.7089 C   0  0  0  0  0  0  0  0  0  0  0  0
    3.7937   -0.1102   -1.4255 C   0  0  0  0  0  0  0  0  0  0  0  0
    4.9173   -0.5676   -0.7016 C   0  0  0  0  0  0  0  0  0  0  0  0
    4.9173   -0.5679    0.7013 C   0  0  0  0  0  0  0  0  0  0  0  0
    3.7937   -0.1109    1.4254 C   0  0  0  0  0  0  0  0  0  0  0  0
    2.6927    0.3536    0.7091 C   0  0  0  0  0  0  0  0  0  0  0  0
    1.3198    0.8826    1.1428 C   0  0  1  0  0  0  0  0  0  0  0  0
    1.0819    1.9149    0.0005 C   0  0  0  0  0  0  0  0  0  0  0  0
   -0.4406   -1.1584    2.5381 H   0  0  0  0  0  0  0  0  0  0  0  0
   -1.7699   -2.8750    1.2574 H   0  0  0  0  0  0  0  0  0  0  0  0
   -1.7699   -2.8743   -1.2589 H   0  0  0  0  0  0  0  0  0  0  0  0
   -0.4403   -1.1574   -2.5388 H   0  0  0  0  0  0  0  0  0  0  0  0
    1.2258    1.2304   -2.1863 H   0  0  0  0  0  0  0  0  0  0  0  0
    3.7975   -0.1140   -2.5264 H   0  0  0  0  0  0  0  0  0  0  0  0
    5.8041   -0.9268   -1.2454 H   0  0  0  0  0  0  0  0  0  0  0  0
    5.8041   -0.9274    1.2449 H   0  0  0  0  0  0  0  0  0  0  0  0
    3.7975   -0.1153    2.5263 H   0  0  0  0  0  0  0  0  0  0  0  0
    1.2258    1.2292    2.1869 H   0  0  0  0  0  0  0  0  0  0  0  0
    0.0574    2.3317    0.0006 H   0  0  0  0  0  0  0  0  0  0  0  0
    1.8377    2.7237    0.0007 H   0  0  0  0  0  0  0  0  0  0  0  0
  1  6  1  6  0  0  0
  1 14  1  0  0  0  0
  1  2  1  0  0  0  0
  2 16  1  0  0  0  0
  3 17  1  0  0  0  0
  3  2  2  0  0  0  0
  4  3  1  0  0  0  0
  5  4  1  0  0  0  0
  5  6  2  0  0  0  0
  7 20  1  6  0  0  0
  7  6  1  0  0  0  0
  7  8  1  0  0  0  0
  7 15  1  0  0  0  0
  8 13  1  0  0  0  0
  9  8  2  0  0  0  0
  9 10  1  0  0  0  0
 10 11  2  0  0  0  0
 11 23  1  0  0  0  0
 11 12  1  0  0  0  0
 12 24  1  0  0  0  0
 13 14  1  0  0  0  0
 13 12  2  0  0  0  0
 14 25  1  1  0  0  0
 15 26  1  0  0  0  0
 15 27  1  0  0  0  0
 15 14  1  0  0  0  0
 18  4  1  0  0  0  0
 19  5  1  0  0  0  0
 21  9  1  0  0  0  0
 22 10  1  0  0  0  0
M  END
