5
 OpenBabel05122313113D

 24 24  0  0  0  0  0  0  0  0999 V2000
    0.6527    2.0226   -0.0233 P   0  0  0  0  0  0  0  0  0  0  0  0
    2.7922   -0.1267   -0.0879 C   0  0  0  0  0  0  0  0  0  0  0  0
    2.5199   -1.0798   -1.1217 C   0  0  0  0  0  0  0  0  0  0  0  0
    2.1323   -2.3043   -0.5183 C   0  0  0  0  0  0  0  0  0  0  0  0
    2.1531   -2.1244    0.8986 C   0  0  0  0  0  3  0  0  0  0  0  0
    2.5698   -0.7909    1.1588 C   0  0  0  0  0  0  0  0  0  0  0  0
    3.2953    1.2864   -0.2773 C   0  0  0  0  0  0  0  0  0  0  0  0
    2.2578    2.2150   -0.9315 C   0  0  0  0  0  0  0  0  0  0  0  0
    0.9321    2.9369    1.5530 C   0  0  0  0  0  0  0  0  0  0  0  0
   -0.5293    3.0901   -0.9425 C   0  0  0  0  0  0  0  0  0  0  0  0
    2.5786   -0.8897   -2.1984 H   0  0  0  0  0  0  0  0  0  0  0  0
    1.8330   -3.2160   -1.0470 H   0  0  0  0  0  0  0  0  0  0  0  0
    1.8695   -2.8707    1.6495 H   0  0  0  0  0  0  0  0  0  0  0  0
    2.6741   -0.3351    2.1498 H   0  0  0  0  0  0  0  0  0  0  0  0
    4.2172    1.2688   -0.8969 H   0  0  0  0  0  0  0  0  0  0  0  0
    3.5980    1.6920    0.7102 H   0  0  0  0  0  0  0  0  0  0  0  0
    2.0429    1.8897   -1.9707 H   0  0  0  0  0  0  0  0  0  0  0  0
    2.5931    3.2736   -0.9597 H   0  0  0  0  0  0  0  0  0  0  0  0
    1.2212    3.9914    1.3689 H   0  0  0  0  0  0  0  0  0  0  0  0
    1.7219    2.4270    2.1367 H   0  0  0  0  0  0  0  0  0  0  0  0
    0.0077    2.8981    2.1609 H   0  0  0  0  0  0  0  0  0  0  0  0
   -0.1214    4.1096   -1.0926 H   0  0  0  0  0  0  0  0  0  0  0  0
   -1.4804    3.1576   -0.3796 H   0  0  0  0  0  0  0  0  0  0  0  0
   -0.7273    2.6052   -1.9176 H   0  0  0  0  0  0  0  0  0  0  0  0
  1  9  1  0  0  0  0
  2  6  2  0  0  0  0
  3  4  2  0  0  0  0
  3  2  1  0  0  0  0
  4  5  1  0  0  0  0
  5  6  1  0  0  0  0
  5 13  1  0  0  0  0
  6 14  1  0  0  0  0
  7  2  1  0  0  0  0
  7 16  1  0  0  0  0
  8  7  1  0  0  0  0
  8  1  1  0  0  0  0
  9 20  1  0  0  0  0
  9 21  1  0  0  0  0
 10 23  1  0  0  0  0
 10  1  1  0  0  0  0
 11  3  1  0  0  0  0
 12  4  1  0  0  0  0
 15  7  1  0  0  0  0
 17  8  1  0  0  0  0
 18  8  1  0  0  0  0
 19  9  1  0  0  0  0
 22 10  1  0  0  0  0
 24 10  1  0  0  0  0
M  END
