4
 OpenBabel05122313113D

 36 36  0  0  1  0  0  0  0  0999 V2000
    0.0417    2.3818   -0.0157 P   0  0  0  0  0  0  0  0  0  0  0  0
   -2.4066    0.5934    0.0347 C   0  0  0  0  0  0  0  0  0  0  0  0
   -2.2322   -0.1189    1.2726 C   0  0  0  0  0  0  0  0  0  0  0  0
   -2.0458   -1.5046    0.9611 C   0  0  2  0  0  3  0  0  0  0  0  0
   -2.1653   -1.6591   -0.4646 C   0  0  0  0  0  0  0  0  0  0  0  0
   -2.4018   -0.3682   -1.0325 C   0  0  0  0  0  0  0  0  0  0  0  0
   -2.4066    0.4264    2.6564 C   0  0  0  0  0  0  0  0  0  0  0  0
   -1.8752   -2.6078    1.9619 C   0  0  0  0  0  0  0  0  0  0  0  0
   -2.2023   -2.9527   -1.2196 C   0  0  0  0  0  0  0  0  0  0  0  0
   -2.8107   -0.1161   -2.4509 C   0  0  0  0  0  0  0  0  0  0  0  0
   -2.7054    2.0685   -0.1218 C   0  0  0  0  0  0  0  0  0  0  0  0
   -1.5698    2.8622   -0.7945 C   0  0  0  0  0  0  0  0  0  0  0  0
    1.3127    3.2648   -1.0072 C   0  0  0  0  0  0  0  0  0  0  0  0
    0.0561    3.2856    1.5907 C   0  0  0  0  0  0  0  0  0  0  0  0
   -3.3714    0.0742    3.0802 H   0  0  0  0  0  0  0  0  0  0  0  0
   -2.4245    1.5330    2.6718 H   0  0  0  0  0  0  0  0  0  0  0  0
   -1.5930    0.0957    3.3307 H   0  0  0  0  0  0  0  0  0  0  0  0
   -2.8624   -3.0090    2.2797 H   0  0  0  0  0  0  0  0  0  0  0  0
   -1.3445   -2.2498    2.8646 H   0  0  0  0  0  0  0  0  0  0  0  0
   -1.2853   -3.4433    1.5399 H   0  0  0  0  0  0  0  0  0  0  0  0
   -3.2509   -3.3095   -1.3179 H   0  0  0  0  0  0  0  0  0  0  0  0
   -1.6155   -3.7383   -0.7096 H   0  0  0  0  0  0  0  0  0  0  0  0
   -1.7883   -2.8396   -2.2402 H   0  0  0  0  0  0  0  0  0  0  0  0
   -3.8895   -0.3571   -2.5745 H   0  0  0  0  0  0  0  0  0  0  0  0
   -2.2370   -0.7401   -3.1613 H   0  0  0  0  0  0  0  0  0  0  0  0
   -2.6618    0.9369   -2.7527 H   0  0  0  0  0  0  0  0  0  0  0  0
   -2.9198    2.5028    0.8758 H   0  0  0  0  0  0  0  0  0  0  0  0
   -3.6383    2.1955   -0.7124 H   0  0  0  0  0  0  0  0  0  0  0  0
   -1.7370    3.9599   -0.7554 H   0  0  0  0  0  0  0  0  0  0  0  0
   -1.4645    2.5692   -1.8598 H   0  0  0  0  0  0  0  0  0  0  0  0
    1.0569    4.3361   -1.1310 H   0  0  0  0  0  0  0  0  0  0  0  0
    1.3794    2.7644   -1.9921 H   0  0  0  0  0  0  0  0  0  0  0  0
    2.2923    3.1781   -0.4994 H   0  0  0  0  0  0  0  0  0  0  0  0
   -0.0830    4.3758    1.4443 H   0  0  0  0  0  0  0  0  0  0  0  0
    1.0216    3.0952    2.0977 H   0  0  0  0  0  0  0  0  0  0  0  0
   -0.7402    2.8887    2.2475 H   0  0  0  0  0  0  0  0  0  0  0  0
  1 14  1  0  0  0  0
  2  3  2  0  0  0  0
  3  7  1  0  0  0  0
  4  3  1  0  0  0  0
  4  8  1  1  0  0  0
  5  4  1  0  0  0  0
  6  5  2  0  0  0  0
  6  2  1  0  0  0  0
  7 16  1  0  0  0  0
  7 15  1  0  0  0  0
  7 17  1  0  0  0  0
  8 18  1  0  0  0  0
  8 19  1  0  0  0  0
  9 22  1  0  0  0  0
  9  5  1  0  0  0  0
 10  6  1  0  0  0  0
 11  2  1  0  0  0  0
 11 27  1  0  0  0  0
 12 29  1  0  0  0  0
 12 11  1  0  0  0  0
 12  1  1  0  0  0  0
 13 33  1  0  0  0  0
 13  1  1  0  0  0  0
 14 35  1  0  0  0  0
 14 36  1  0  0  0  0
 20  8  1  0  0  0  0
 21  9  1  0  0  0  0
 23  9  1  0  0  0  0
 24 10  1  0  0  0  0
 25 10  1  0  0  0  0
 26 10  1  0  0  0  0
 28 11  1  0  0  0  0
 30 12  1  0  0  0  0
 31 13  1  0  0  0  0
 32 13  1  0  0  0  0
 34 14  1  0  0  0  0
M  END
