3
 OpenBabel05122313113D

 37 37  0  0  0  0  0  0  0  0999 V2000
   -2.4270   -1.5988   -1.5909 N   0  0  0  0  0  0  0  0  0  0  0  0
   -0.1502    2.7344   -0.8150 Si  0  0  0  0  0  0  0  0  0  0  0  0
   -0.5050    0.9248   -0.3944 C   0  0  0  0  0  3  0  0  0  0  0  0
   -0.7571    0.4343   -1.3557 H   0  0  0  0  0  0  0  0  0  0  0  0
   -1.5461    0.6455    0.6288 C   0  0  0  0  0  0  0  0  0  0  0  0
   -1.3325    1.0083    1.9871 C   0  0  0  0  0  0  0  0  0  0  0  0
   -0.3876    1.5117    2.2482 H   0  0  0  0  0  0  0  0  0  0  0  0
   -2.2598    0.7198    2.9948 C   0  0  0  0  0  0  0  0  0  0  0  0
   -2.0449    1.0157    4.0338 H   0  0  0  0  0  0  0  0  0  0  0  0
   -3.4552    0.0499    2.6819 C   0  0  0  0  0  0  0  0  0  0  0  0
   -4.1906   -0.1872    3.4651 H   0  0  0  0  0  0  0  0  0  0  0  0
   -3.6998   -0.2982    1.3459 C   0  0  0  0  0  0  0  0  0  0  0  0
   -4.6431   -0.8032    1.0784 H   0  0  0  0  0  0  0  0  0  0  0  0
   -2.7791   -0.0098    0.3190 C   0  0  0  0  0  0  0  0  0  0  0  0
   -3.1127   -0.3885   -1.1065 C   0  0  0  0  0  0  0  0  0  0  0  0
   -4.2247   -0.5043   -1.2077 H   0  0  0  0  0  0  0  0  0  0  0  0
   -2.8215    0.4442   -1.7801 H   0  0  0  0  0  0  0  0  0  0  0  0
   -2.5235   -1.7159   -3.0358 C   0  0  0  0  0  0  0  0  0  0  0  0
   -1.9641   -2.6081   -3.3860 H   0  0  0  0  0  0  0  0  0  0  0  0
   -2.0826   -0.8208   -3.5210 H   0  0  0  0  0  0  0  0  0  0  0  0
   -3.5808   -1.8161   -3.4009 H   0  0  0  0  0  0  0  0  0  0  0  0
   -2.9137   -2.7981   -0.9304 C   0  0  0  0  0  0  0  0  0  0  0  0
   -3.9879   -3.0223   -1.1720 H   0  0  0  0  0  0  0  0  0  0  0  0
   -2.8376   -2.6850    0.1684 H   0  0  0  0  0  0  0  0  0  0  0  0
   -2.3084   -3.6766   -1.2359 H   0  0  0  0  0  0  0  0  0  0  0  0
   -1.6834    3.5225   -1.6194 C   0  0  0  0  0  0  0  0  0  0  0  0
   -1.9507    3.0019   -2.5631 H   0  0  0  0  0  0  0  0  0  0  0  0
   -1.5242    4.5951   -1.8571 H   0  0  0  0  0  0  0  0  0  0  0  0
   -2.5556    3.4511   -0.9364 H   0  0  0  0  0  0  0  0  0  0  0  0
    0.3554    3.7560    0.6942 C   0  0  0  0  0  0  0  0  0  0  0  0
   -0.4631    3.8226    1.4392 H   0  0  0  0  0  0  0  0  0  0  0  0
    0.6196    4.7894    0.3876 H   0  0  0  0  0  0  0  0  0  0  0  0
    1.2445    3.3009    1.1780 H   0  0  0  0  0  0  0  0  0  0  0  0
    1.2881    2.7476   -2.0581 C   0  0  0  0  0  0  0  0  0  0  0  0
    2.2146    2.3928   -1.5587 H   0  0  0  0  0  0  0  0  0  0  0  0
    1.4807    3.7693   -2.4458 H   0  0  0  0  0  0  0  0  0  0  0  0
    1.0794    2.0931   -2.9311 H   0  0  0  0  0  0  0  0  0  0  0  0
  1 15  1  0  0  0  0
  1 22  1  0  0  0  0
  2  3  1  0  0  0  0
  2 30  1  0  0  0  0
  3  5  1  0  0  0  0
  4  3  1  0  0  0  0
  5  6  1  0  0  0  0
  6  7  1  0  0  0  0
  6  8  2  0  0  0  0
  8  9  1  0  0  0  0
 10  8  1  0  0  0  0
 10 11  1  0  0  0  0
 12 10  2  0  0  0  0
 13 12  1  0  0  0  0
 14  5  2  0  0  0  0
 14 12  1  0  0  0  0
 15 14  1  0  0  0  0
 16 15  1  0  0  0  0
 17 15  1  0  0  0  0
 18  1  1  0  0  0  0
 19 18  1  0  0  0  0
 20 18  1  0  0  0  0
 21 18  1  0  0  0  0
 22 24  1  0  0  0  0
 23 22  1  0  0  0  0
 25 22  1  0  0  0  0
 26 29  1  0  0  0  0
 26  2  1  0  0  0  0
 27 26  1  0  0  0  0
 28 26  1  0  0  0  0
 30 33  1  0  0  0  0
 30 31  1  0  0  0  0
 32 30  1  0  0  0  0
 34 35  1  0  0  0  0
 34  2  1  0  0  0  0
 36 34  1  0  0  0  0
 37 34  1  0  0  0  0
M  END
