1
 OpenBabel05122313113D

 15 14  0  0  0  0  0  0  0  0999 V2000
   -0.3461   -0.2164    0.0001 C   0  0  0  0  0  3  0  0  0  0  0  0
   -1.5795   -0.4000    0.0001 C   0  0  0  0  0  0  0  0  0  0  0  0
   -2.9429   -0.7191    0.0001 C   0  0  0  0  0  0  0  0  0  0  0  0
   -3.3374   -2.0810    0.0001 C   0  0  0  0  0  0  0  0  0  0  0  0
   -2.3189   -3.0776    0.0001 C   0  0  0  0  0  0  0  0  0  0  0  0
   -1.4245   -3.8415    0.0000 N   0  0  0  0  0  0  0  0  0  0  0  0
   -4.7013   -2.4884    0.0002 C   0  0  0  0  0  0  0  0  0  0  0  0
   -5.8340   -2.8074    0.0002 N   0  0  0  0  0  0  0  0  0  0  0  0
   -3.9674    0.3091   -0.0001 C   0  0  0  0  0  0  0  0  0  0  0  0
   -3.7654    1.6731    0.0001 C   0  0  0  0  0  0  0  0  0  0  0  0
   -1.4925    2.9537    0.0007 N   0  0  0  0  0  0  0  0  0  0  0  0
   -2.4864    2.3280    0.0004 C   0  0  0  0  0  0  0  0  0  0  0  0
   -4.8985    2.5546   -0.0002 C   0  0  0  0  0  0  0  0  0  0  0  0
   -5.8225    3.2791   -0.0004 N   0  0  0  0  0  0  0  0  0  0  0  0
   -5.0134   -0.0351   -0.0003 H   0  0  0  0  0  0  0  0  0  0  0  0
  1  2  3  0  0  0  0
  3  4  2  0  0  0  0
  3  2  1  0  0  0  0
  4  7  1  0  0  0  0
  5  4  1  0  0  0  0
  6  5  3  0  0  0  0
  7  8  3  0  0  0  0
  9 10  2  0  0  0  0
  9  3  1  0  0  0  0
 10 12  1  0  0  0  0
 12 11  3  0  0  0  0
 13 10  1  0  0  0  0
 14 13  3  0  0  0  0
 15  9  1  0  0  0  0
M  END
