1
 OpenBabel05122313113D

 14 13  0  0  0  0  0  0  0  0999 V2000
    1.6714    0.0637   -0.7361 C   0  0  0  0  0  3  0  0  0  0  0  0
    3.8619    0.7383    0.0162 C   0  0  0  0  0  0  0  0  0  0  0  0
    4.9520   -0.2198    0.4720 C   0  0  0  0  0  0  0  0  0  0  0  0
    5.0686   -1.4577   -0.4245 C   0  0  0  0  0  0  0  0  0  0  0  0
    1.8292    0.5816   -1.8264 O   0  0  0  0  0  0  0  0  0  0  0  0
    2.5763    0.1154    0.2694 O   0  0  0  0  0  0  0  0  0  0  0  0
    5.3803   -1.1274   -1.7694 O   0  0  0  0  0  0  0  0  0  0  0  0
    3.9478    0.9513   -1.0675 H   0  0  0  0  0  0  0  0  0  0  0  0
    3.8810    1.6911    0.5862 H   0  0  0  0  0  0  0  0  0  0  0  0
    5.9209    0.3315    0.4806 H   0  0  0  0  0  0  0  0  0  0  0  0
    4.7604   -0.5317    1.5217 H   0  0  0  0  0  0  0  0  0  0  0  0
    4.0926   -1.9877   -0.4523 H   0  0  0  0  0  0  0  0  0  0  0  0
    5.8137   -2.1644    0.0175 H   0  0  0  0  0  0  0  0  0  0  0  0
    6.2530   -0.6926   -1.7628 H   0  0  0  0  0  0  0  0  0  0  0  0
  1  6  1  0  0  0  0
  2  6  1  0  0  0  0
  2  3  1  0  0  0  0
  2  9  1  0  0  0  0
  3 10  1  0  0  0  0
  3 11  1  0  0  0  0
  4 13  1  0  0  0  0
  4  3  1  0  0  0  0
  5  1  2  0  0  0  0
  7 14  1  0  0  0  0
  7  4  1  0  0  0  0
  8  2  1  0  0  0  0
 12  4  1  0  0  0  0
M  END
