11
 OpenBabel05122313113D

 30 30  0  0  1  0  0  0  0  0999 V2000
   -2.8921    0.4071   -0.4458 O   0  0  0  0  0  0  0  0  0  0  0  0
    3.8286   -0.1918   -1.3428 O   0  0  0  0  0  0  0  0  0  0  0  0
    3.8499   -1.6320    0.4164 O   0  0  0  0  0  0  0  0  0  0  0  0
   -4.2279    0.7534   -0.1041 C   0  0  0  0  0  0  0  0  0  0  0  0
   -5.1952   -0.3892   -0.4147 C   0  0  0  0  0  0  0  0  0  0  0  0
   -4.7392   -1.6738    0.2892 C   0  0  0  0  0  0  0  0  0  0  0  0
   -3.2632   -1.9595   -0.0206 C   0  0  0  0  0  0  0  0  0  0  0  0
   -2.4041   -0.7148    0.2783 C   0  0  1  0  0  0  0  0  0  0  0  0
   -0.9515   -0.9190   -0.0737 C   0  0  0  0  0  3  0  0  0  0  0  0
   -0.4502   -0.5194   -1.3566 C   0  0  0  0  0  3  0  0  0  0  0  0
    0.9563   -0.5741   -1.5576 C   0  0  0  0  0  3  0  0  0  0  0  0
    1.7581   -1.0609   -0.4672 C   0  0  0  0  0  3  0  0  0  0  0  0
    3.2293   -0.8936   -0.5426 C   0  0  0  0  0  0  0  0  0  0  0  0
    5.2752   -1.5108    0.4453 C   0  0  0  0  0  0  0  0  0  0  0  0
   -4.4668    1.6671   -0.6839 H   0  0  0  0  0  0  0  0  0  0  0  0
   -4.2827    1.0178    0.9820 H   0  0  0  0  0  0  0  0  0  0  0  0
   -5.2143   -0.5494   -1.5146 H   0  0  0  0  0  0  0  0  0  0  0  0
   -6.2239   -0.1061   -0.1079 H   0  0  0  0  0  0  0  0  0  0  0  0
   -4.8625   -1.5527    1.3891 H   0  0  0  0  0  0  0  0  0  0  0  0
   -5.3738   -2.5348   -0.0054 H   0  0  0  0  0  0  0  0  0  0  0  0
   -2.8903   -2.8223    0.5697 H   0  0  0  0  0  0  0  0  0  0  0  0
   -3.1361   -2.2164   -1.0947 H   0  0  0  0  0  0  0  0  0  0  0  0
   -2.4809   -0.5062    1.3772 H   0  0  0  0  0  0  0  0  0  0  0  0
   -0.5196   -1.8112    0.4089 H   0  0  0  0  0  0  0  0  0  0  0  0
   -1.1113   -0.0367   -2.0913 H   0  0  0  0  0  0  0  0  0  0  0  0
    1.4343   -0.1635   -2.4598 H   0  0  0  0  0  0  0  0  0  0  0  0
    1.4279   -1.9200    0.1359 H   0  0  0  0  0  0  0  0  0  0  0  0
    5.7227   -1.8594   -0.5077 H   0  0  0  0  0  0  0  0  0  0  0  0
    5.6207   -2.1394    1.2853 H   0  0  0  0  0  0  0  0  0  0  0  0
    5.5790   -0.4554    0.6000 H   0  0  0  0  0  0  0  0  0  0  0  0
  1  4  1  0  0  0  0
  1  8  1  0  0  0  0
  2 13  2  0  0  0  0
  3 14  1  0  0  0  0
  4 16  1  0  0  0  0
  5 18  1  0  0  0  0
  5  4  1  0  0  0  0
  5  6  1  0  0  0  0
  6 19  1  0  0  0  0
  7  8  1  0  0  0  0
  7  6  1  0  0  0  0
  7 21  1  0  0  0  0
  8 23  1  1  0  0  0
  9  8  1  0  0  0  0
  9 24  1  0  0  0  0
 10  9  1  0  0  0  0
 11 10  1  0  0  0  0
 11 12  1  0  0  0  0
 12 27  1  0  0  0  0
 13 12  1  0  0  0  0
 13  3  1  0  0  0  0
 14 30  1  0  0  0  0
 14 29  1  0  0  0  0
 15  4  1  0  0  0  0
 17  5  1  0  0  0  0
 20  6  1  0  0  0  0
 22  7  1  0  0  0  0
 25 10  1  0  0  0  0
 26 11  1  0  0  0  0
 28 14  1  0  0  0  0
M  END
