4
 OpenBabel05122313113D

 21 21  0  0  1  0  0  0  0  0999 V2000
   -1.1266    0.2839    2.0509 O   0  0  0  0  0  0  0  0  0  0  0  0
   -1.0024    2.4851    1.3950 O   0  0  0  0  0  0  0  0  0  0  0  0
   -1.2496   -2.0057    2.0274 O   0  0  0  0  0  0  0  0  0  0  0  0
   -1.3908   -0.7275   -0.0574 C   0  0  1  0  0  3  0  0  0  0  0  0
   -1.3823    0.7087   -0.2483 C   0  0  2  0  0  3  0  0  0  0  0  0
   -1.1634    1.3132    1.0697 C   0  0  0  0  0  0  0  0  0  0  0  0
   -1.2682   -0.9615    1.3971 C   0  0  0  0  0  0  0  0  0  0  0  0
   -1.9788   -1.7908   -0.9477 C   0  0  0  0  0  0  0  0  0  0  0  0
   -3.4749   -2.0316   -0.7009 C   0  0  0  0  0  0  0  0  0  0  0  0
   -1.9214    1.5095   -1.4053 C   0  0  0  0  0  0  0  0  0  0  0  0
   -3.3586    1.9988   -1.1735 C   0  0  0  0  0  0  0  0  0  0  0  0
   -1.8020   -1.5231   -2.0114 H   0  0  0  0  0  0  0  0  0  0  0  0
   -1.4345   -2.7439   -0.7680 H   0  0  0  0  0  0  0  0  0  0  0  0
   -3.8715   -2.8331   -1.3569 H   0  0  0  0  0  0  0  0  0  0  0  0
   -4.0644   -1.1121   -0.8908 H   0  0  0  0  0  0  0  0  0  0  0  0
   -3.6470   -2.3328    0.3517 H   0  0  0  0  0  0  0  0  0  0  0  0
   -1.2700    2.3918   -1.5778 H   0  0  0  0  0  0  0  0  0  0  0  0
   -1.8650    0.8982   -2.3311 H   0  0  0  0  0  0  0  0  0  0  0  0
   -3.7295    2.5902   -2.0354 H   0  0  0  0  0  0  0  0  0  0  0  0
   -3.4041    2.6407   -0.2711 H   0  0  0  0  0  0  0  0  0  0  0  0
   -4.0531    1.1484   -1.0183 H   0  0  0  0  0  0  0  0  0  0  0  0
  4  8  1  1  0  0  0
  4  7  1  0  0  0  0
  5 10  1  1  0  0  0
  5  4  1  0  0  0  0
  5  6  1  0  0  0  0
  6  2  2  0  0  0  0
  6  1  1  0  0  0  0
  7  3  2  0  0  0  0
  7  1  1  0  0  0  0
  8 13  1  0  0  0  0
  8  9  1  0  0  0  0
  9 16  1  0  0  0  0
 10 11  1  0  0  0  0
 11 21  1  0  0  0  0
 11 20  1  0  0  0  0
 12  8  1  0  0  0  0
 14  9  1  0  0  0  0
 15  9  1  0  0  0  0
 17 10  1  0  0  0  0
 18 10  1  0  0  0  0
 19 11  1  0  0  0  0
M  END
