4
 OpenBabel05122313113D

 27 29  0  0  0  0  0  0  0  0999 V2000
    7.3707   -0.2166   -0.8280 O   0  0  0  0  0  0  0  0  0  0  0  0
    6.9391   -1.6524    0.7609 O   0  0  0  0  0  0  0  0  0  0  0  0
    6.6028   -0.7589   -0.0248 N   0  0  0  0  0  0  0  0  0  0  0  0
   -0.0496    1.3466    0.0740 C   0  0  0  0  0  3  0  0  0  0  0  0
    1.1405    0.9752    0.0561 C   0  0  0  0  0  0  0  0  0  0  0  0
    2.4874    0.5493    0.0364 C   0  0  0  0  0  0  0  0  0  0  0  0
    3.5507    1.5123    0.0656 C   0  0  0  0  0  0  0  0  0  0  0  0
    3.2580    2.9083    0.1400 C   0  0  0  0  0  0  0  0  0  0  0  0
    2.1983    3.2010    0.1768 H   0  0  0  0  0  0  0  0  0  0  0  0
    4.2652    3.8536    0.1707 C   0  0  0  0  0  0  0  0  0  0  0  0
    4.0204    4.9250    0.2290 H   0  0  0  0  0  0  0  0  0  0  0  0
    5.6243    3.4346    0.1291 C   0  0  0  0  0  0  0  0  0  0  0  0
    6.4291    4.1850    0.1550 H   0  0  0  0  0  0  0  0  0  0  0  0
    5.9507    2.0932    0.0522 C   0  0  0  0  0  0  0  0  0  0  0  0
    7.0032    1.7901    0.0029 H   0  0  0  0  0  0  0  0  0  0  0  0
    4.9327    1.0825    0.0217 C   0  0  0  0  0  0  0  0  0  0  0  0
    5.2045   -0.3145   -0.0029 C   0  0  0  0  0  0  0  0  0  0  0  0
    4.1760   -1.2984   -0.0079 C   0  0  0  0  0  0  0  0  0  0  0  0
    4.4220   -2.7112   -0.0569 C   0  0  0  0  0  0  0  0  0  0  0  0
    5.4572   -3.0718   -0.0379 H   0  0  0  0  0  0  0  0  0  0  0  0
    3.3788   -3.6175   -0.1139 C   0  0  0  0  0  0  0  0  0  0  0  0
    3.6025   -4.6946   -0.1547 H   0  0  0  0  0  0  0  0  0  0  0  0
    2.0272   -3.1741   -0.1157 C   0  0  0  0  0  0  0  0  0  0  0  0
    1.2026   -3.9011   -0.1602 H   0  0  0  0  0  0  0  0  0  0  0  0
    1.7527   -1.8212   -0.0662 C   0  0  0  0  0  0  0  0  0  0  0  0
    0.7175   -1.4563   -0.0772 H   0  0  0  0  0  0  0  0  0  0  0  0
    2.7988   -0.8509   -0.0113 C   0  0  0  0  0  0  0  0  0  0  0  0
  1  3  2  0  0  0  0
  3 17  1  0  0  0  0
  3  2  2  0  0  0  0
  5  4  3  0  0  0  0
  6  5  1  0  0  0  0
  6  7  1  0  0  0  0
  7  8  1  0  0  0  0
  8 10  2  0  0  0  0
  8  9  1  0  0  0  0
 10 11  1  0  0  0  0
 12 13  1  0  0  0  0
 12 10  1  0  0  0  0
 14 12  2  0  0  0  0
 15 14  1  0  0  0  0
 16 14  1  0  0  0  0
 16  7  2  0  0  0  0
 17 16  1  0  0  0  0
 18 17  2  0  0  0  0
 19 20  1  0  0  0  0
 19 18  1  0  0  0  0
 21 19  2  0  0  0  0
 22 21  1  0  0  0  0
 23 21  1  0  0  0  0
 23 25  2  0  0  0  0
 24 23  1  0  0  0  0
 25 27  1  0  0  0  0
 26 25  1  0  0  0  0
 27 18  1  0  0  0  0
 27  6  2  0  0  0  0
M  END
