2
 OpenBabel05122313113D

 25 26  0  0  1  0  0  0  0  0999 V2000
    1.1290    0.6196   -0.7822 C   0  0  0  0  0  3  0  0  0  0  0  0
    0.1358    1.3634   -0.0594 C   0  0  0  0  0  3  0  0  0  0  0  0
    0.4060    1.0933    1.3256 C   0  0  0  0  0  3  0  0  0  0  0  0
    1.9111    0.9136    1.5145 C   0  0  1  0  0  0  0  0  0  0  0  0
    2.4233    0.5807    0.0615 C   0  0  0  0  0  0  0  0  0  0  0  0
    3.4093    1.6015   -0.5790 C   0  0  0  0  0  0  0  0  0  0  0  0
    4.0239    0.8496   -1.7790 C   0  0  0  0  0  0  0  0  0  0  0  0
    3.9559   -0.6597   -1.4019 C   0  0  0  0  0  0  0  0  0  0  0  0
    3.2802   -0.6990   -0.0182 C   0  0  0  0  0  0  0  0  0  0  0  0
    2.5253    2.1625    2.1633 C   0  0  0  0  0  0  0  0  0  0  0  0
    1.1918    0.6771   -1.8799 H   0  0  0  0  0  0  0  0  0  0  0  0
   -0.6481    2.0108   -0.4823 H   0  0  0  0  0  0  0  0  0  0  0  0
   -0.2083    1.5222    2.1342 H   0  0  0  0  0  0  0  0  0  0  0  0
    2.1372    0.0572    2.1829 H   0  0  0  0  0  0  0  0  0  0  0  0
    2.9221    2.5564   -0.8616 H   0  0  0  0  0  0  0  0  0  0  0  0
    4.2017    1.8458    0.1575 H   0  0  0  0  0  0  0  0  0  0  0  0
    3.4424    1.0473   -2.7029 H   0  0  0  0  0  0  0  0  0  0  0  0
    5.0568    1.1931   -1.9876 H   0  0  0  0  0  0  0  0  0  0  0  0
    3.3502   -1.2233   -2.1387 H   0  0  0  0  0  0  0  0  0  0  0  0
    4.9558   -1.1372   -1.3852 H   0  0  0  0  0  0  0  0  0  0  0  0
    2.7001   -1.6207    0.1730 H   0  0  0  0  0  0  0  0  0  0  0  0
    4.0461   -0.6336    0.7846 H   0  0  0  0  0  0  0  0  0  0  0  0
    2.3378    3.0753    1.5624 H   0  0  0  0  0  0  0  0  0  0  0  0
    2.0878    2.3262    3.1695 H   0  0  0  0  0  0  0  0  0  0  0  0
    3.6211    2.0586    2.2967 H   0  0  0  0  0  0  0  0  0  0  0  0
  1  2  1  0  0  0  0
  1  5  1  0  0  0  0
  2  3  1  0  0  0  0
  3  4  1  0  0  0  0
  3 13  1  0  0  0  0
  4 10  1  0  0  0  0
  4 14  1  1  0  0  0
  5  4  1  0  0  0  0
  6  5  1  0  0  0  0
  6 16  1  0  0  0  0
  7  8  1  0  0  0  0
  7  6  1  0  0  0  0
  8 20  1  0  0  0  0
  8  9  1  0  0  0  0
  9  5  1  0  0  0  0
  9 21  1  0  0  0  0
  9 22  1  0  0  0  0
 10 25  1  0  0  0  0
 10 24  1  0  0  0  0
 11  1  1  0  0  0  0
 12  2  1  0  0  0  0
 15  6  1  0  0  0  0
 17  7  1  0  0  0  0
 18  7  1  0  0  0  0
 19  8  1  0  0  0  0
 23 10  1  0  0  0  0
M  END
