4
 OpenBabel05122313113D

 45 48  0  0  0  0  0  0  0  0999 V2000
   -1.0636   -0.2861   -0.0015 P   0  0  0  0  0  4  0  0  0  0  0  0
   -0.0341    0.9100   -0.3210 N   0  0  0  0  0  2  0  0  0  0  0  0
   -0.2499   -1.8538   -0.4834 C   0  0  0  0  0  0  0  0  0  0  0  0
    1.1578   -1.9683   -0.4996 C   0  0  0  0  0  3  0  0  0  0  0  0
    1.7267   -3.2190   -0.8135 C   0  0  0  0  0  0  0  0  0  0  0  0
    2.8206   -3.3375   -0.8363 H   0  0  0  0  0  0  0  0  0  0  0  0
    0.9159   -4.3289   -1.1066 C   0  0  0  0  0  0  0  0  0  0  0  0
    1.3817   -5.2965   -1.3495 H   0  0  0  0  0  0  0  0  0  0  0  0
   -0.4806   -4.2015   -1.1015 C   0  0  0  0  0  0  0  0  0  0  0  0
   -1.1196   -5.0628   -1.3476 H   0  0  0  0  0  0  0  0  0  0  0  0
   -1.0635   -2.9646   -0.7918 C   0  0  0  0  0  0  0  0  0  0  0  0
   -2.1593   -2.8547   -0.8125 H   0  0  0  0  0  0  0  0  0  0  0  0
   -2.6417   -0.2430   -0.9351 C   0  0  0  0  0  0  0  0  0  0  0  0
   -3.9114   -0.3195   -0.3312 C   0  0  0  0  0  0  0  0  0  0  0  0
   -3.9983   -0.4471    0.7580 H   0  0  0  0  0  0  0  0  0  0  0  0
   -5.0673   -0.2199   -1.1219 C   0  0  0  0  0  0  0  0  0  0  0  0
   -6.0589   -0.2800   -0.6481 H   0  0  0  0  0  0  0  0  0  0  0  0
   -4.9593   -0.0373   -2.5091 C   0  0  0  0  0  0  0  0  0  0  0  0
   -5.8675    0.0439   -3.1254 H   0  0  0  0  0  0  0  0  0  0  0  0
   -3.6923    0.0516   -3.1109 C   0  0  0  0  0  0  0  0  0  0  0  0
   -3.6064    0.2064   -4.1970 H   0  0  0  0  0  0  0  0  0  0  0  0
   -2.5350   -0.0470   -2.3284 C   0  0  0  0  0  0  0  0  0  0  0  0
   -1.5389    0.0396   -2.7899 H   0  0  0  0  0  0  0  0  0  0  0  0
   -1.4908   -0.4627    1.7763 C   0  0  0  0  0  0  0  0  0  0  0  0
   -1.0817    0.5642    2.6503 C   0  0  0  0  0  0  0  0  0  0  0  0
   -0.5512    1.4407    2.2492 H   0  0  0  0  0  0  0  0  0  0  0  0
   -1.3481    0.4593    4.0241 C   0  0  0  0  0  0  0  0  0  0  0  0
   -1.0296    1.2649    4.7026 H   0  0  0  0  0  0  0  0  0  0  0  0
   -2.0110   -0.6695    4.5303 C   0  0  0  0  0  0  0  0  0  0  0  0
   -2.2147   -0.7509    5.6088 H   0  0  0  0  0  0  0  0  0  0  0  0
   -2.4048   -1.7022    3.6629 C   0  0  0  0  0  0  0  0  0  0  0  0
   -2.9109   -2.5949    4.0605 H   0  0  0  0  0  0  0  0  0  0  0  0
   -2.1441   -1.6033    2.2886 C   0  0  0  0  0  0  0  0  0  0  0  0
   -2.4374   -2.4252    1.6183 H   0  0  0  0  0  0  0  0  0  0  0  0
   -0.3218    2.2792   -0.3115 C   0  0  0  0  0  0  0  0  0  0  0  0
    0.7244    3.1876   -0.6238 C   0  0  0  0  0  0  0  0  0  0  0  0
    1.7289    2.7896   -0.8288 H   0  0  0  0  0  0  0  0  0  0  0  0
    0.4977    4.5681   -0.6369 C   0  0  0  0  0  0  0  0  0  0  0  0
    1.3337    5.2437   -0.8765 H   0  0  0  0  0  0  0  0  0  0  0  0
   -0.7721    5.0969   -0.3460 C   0  0  0  0  0  0  0  0  0  0  0  0
   -0.9442    6.1835   -0.3605 H   0  0  0  0  0  0  0  0  0  0  0  0
   -1.8149    4.2131   -0.0300 C   0  0  0  0  0  0  0  0  0  0  0  0
   -2.8176    4.6026    0.2071 H   0  0  0  0  0  0  0  0  0  0  0  0
   -1.5976    2.8284   -0.0079 C   0  0  0  0  0  0  0  0  0  0  0  0
   -2.4337    2.1595    0.2464 H   0  0  0  0  0  0  0  0  0  0  0  0
  1 24  1  0  0  0  0
  2 35  1  0  0  0  0
  2  1  1  0  0  0  0
  3  1  1  0  0  0  0
  4  3  1  0  0  0  0
  5  4  2  0  0  0  0
  6  5  1  0  0  0  0
  7  9  2  0  0  0  0
  7  5  1  0  0  0  0
  8  7  1  0  0  0  0
  9 11  1  0  0  0  0
 10  9  1  0  0  0  0
 11  3  2  0  0  0  0
 12 11  1  0  0  0  0
 13 14  1  0  0  0  0
 13  1  1  0  0  0  0
 14 15  1  0  0  0  0
 16 17  1  0  0  0  0
 16 14  2  0  0  0  0
 18 16  1  0  0  0  0
 19 18  1  0  0  0  0
 20 18  2  0  0  0  0
 20 22  1  0  0  0  0
 21 20  1  0  0  0  0
 22 13  2  0  0  0  0
 23 22  1  0  0  0  0
 24 33  2  0  0  0  0
 24 25  1  0  0  0  0
 25 27  2  0  0  0  0
 26 25  1  0  0  0  0
 27 29  1  0  0  0  0
 27 28  1  0  0  0  0
 29 30  1  0  0  0  0
 31 32  1  0  0  0  0
 31 29  2  0  0  0  0
 33 31  1  0  0  0  0
 34 33  1  0  0  0  0
 35 44  1  0  0  0  0
 36 35  2  0  0  0  0
 37 36  1  0  0  0  0
 38 36  1  0  0  0  0
 38 40  2  0  0  0  0
 39 38  1  0  0  0  0
 40 42  1  0  0  0  0
 41 40  1  0  0  0  0
 42 44  2  0  0  0  0
 42 43  1  0  0  0  0
 44 45  1  0  0  0  0
M  END
