4
 OpenBabel05122313113D

 46 49  0  0  1  0  0  0  0  0999 V2000
    1.4476   -0.9599    0.3432 N   0  0  0  0  0  0  0  0  0  0  0  0
    0.2594   -2.7436    0.6754 N   0  0  0  0  0  0  0  0  0  0  0  0
    1.5933   -3.1457    0.6531 N   0  0  0  0  0  0  0  0  0  0  0  0
    0.1046   -1.4199    0.4527 C   0  0  0  0  0  2  0  0  0  0  0  0
    2.3385   -2.0362    0.4044 C   0  0  1  0  0  3  0  0  0  0  0  0
    3.7037   -1.8767    0.2223 C   0  0  0  0  0  0  0  0  0  0  0  0
    4.3817   -2.7392    0.2519 H   0  0  0  0  0  0  0  0  0  0  0  0
    4.1952   -0.5741   -0.0075 C   0  0  0  0  0  0  0  0  0  0  0  0
    5.5865   -0.3204   -0.2034 C   0  0  0  0  0  0  0  0  0  0  0  0
    6.2867   -1.1686   -0.1995 H   0  0  0  0  0  0  0  0  0  0  0  0
    6.0434    0.9715   -0.3873 C   0  0  0  0  0  0  0  0  0  0  0  0
    7.1180    1.1548   -0.5361 H   0  0  0  0  0  0  0  0  0  0  0  0
    5.1385    2.0756   -0.3752 C   0  0  0  0  0  0  0  0  0  0  0  0
    5.5263    3.0959   -0.5076 H   0  0  0  0  0  0  0  0  0  0  0  0
    3.7855    1.8716   -0.1954 C   0  0  0  0  0  0  0  0  0  0  0  0
    3.0854    2.7181   -0.1792 H   0  0  0  0  0  0  0  0  0  0  0  0
    3.2660    0.5446   -0.0242 C   0  0  0  0  0  0  0  0  0  0  0  0
    1.8761    0.3310    0.1418 C   0  0  0  0  0  0  0  0  0  0  0  0
    0.9215    1.4628    0.2043 C   0  0  0  0  0  0  0  0  0  0  0  0
    0.5858    2.1861   -0.9750 C   0  0  0  0  0  0  0  0  0  0  0  0
   -0.1652    3.3640   -0.8277 C   0  0  0  0  0  0  0  0  0  0  0  0
   -0.4389    3.9254   -1.7353 H   0  0  0  0  0  0  0  0  0  0  0  0
   -0.5629    3.8560    0.4312 C   0  0  0  0  0  0  0  0  0  0  0  0
   -0.1837    3.1321    1.5764 C   0  0  0  0  0  0  0  0  0  0  0  0
   -0.4660    3.5098    2.5720 H   0  0  0  0  0  0  0  0  0  0  0  0
    0.5580    1.9426    1.4918 C   0  0  0  0  0  0  0  0  0  0  0  0
    1.0176    1.7150   -2.3369 C   0  0  0  0  0  0  0  0  0  0  0  0
    0.6179    2.3752   -3.1290 H   0  0  0  0  0  0  0  0  0  0  0  0
    0.6586    0.6809   -2.5313 H   0  0  0  0  0  0  0  0  0  0  0  0
    2.1228    1.7047   -2.4375 H   0  0  0  0  0  0  0  0  0  0  0  0
   -1.3896    5.1095    0.5376 C   0  0  0  0  0  0  0  0  0  0  0  0
   -2.4417    4.9112    0.2382 H   0  0  0  0  0  0  0  0  0  0  0  0
   -1.0128    5.9039   -0.1369 H   0  0  0  0  0  0  0  0  0  0  0  0
   -1.4069    5.5070    1.5700 H   0  0  0  0  0  0  0  0  0  0  0  0
    0.9668    1.1998    2.7390 C   0  0  0  0  0  0  0  0  0  0  0  0
    0.4930    0.1953    2.7864 H   0  0  0  0  0  0  0  0  0  0  0  0
    0.6689    1.7511    3.6501 H   0  0  0  0  0  0  0  0  0  0  0  0
    2.0646    1.0418    2.7844 H   0  0  0  0  0  0  0  0  0  0  0  0
   -0.7979   -3.7377    0.6916 C   0  0  0  0  0  0  0  0  0  0  0  0
   -1.7451   -3.1712    0.6540 H   0  0  0  0  0  0  0  0  0  0  0  0
   -0.7455   -4.3578    1.6073 H   0  0  0  0  0  0  0  0  0  0  0  0
   -0.7387   -4.3685   -0.2169 H   0  0  0  0  0  0  0  0  0  0  0  0
    2.0066   -4.5303    0.5565 C   0  0  0  0  0  0  0  0  0  0  0  0
    3.0926   -4.5772    0.7532 H   0  0  0  0  0  0  0  0  0  0  0  0
    1.8007   -4.9502   -0.4503 H   0  0  0  0  0  0  0  0  0  0  0  0
    1.5001   -5.1374    1.3288 H   0  0  0  0  0  0  0  0  0  0  0  0
  1  5  1  0  0  0  0
  1  4  1  0  0  0  0
  2 39  1  0  0  0  0
  3  2  1  0  0  0  0
  4  2  1  0  0  0  0
  5  6  1  6  0  0  0
  5  3  1  0  0  0  0
  6  7  1  0  0  0  0
  8  6  2  0  0  0  0
  9 10  1  0  0  0  0
  9  8  1  0  0  0  0
 11 13  1  0  0  0  0
 11  9  2  0  0  0  0
 12 11  1  0  0  0  0
 13 15  2  0  0  0  0
 14 13  1  0  0  0  0
 15 16  1  0  0  0  0
 15 17  1  0  0  0  0
 17  8  1  0  0  0  0
 17 18  2  0  0  0  0
 18 19  1  0  0  0  0
 18  1  1  0  0  0  0
 19 26  1  0  0  0  0
 20 21  1  0  0  0  0
 20 19  2  0  0  0  0
 21 23  2  0  0  0  0
 22 21  1  0  0  0  0
 23 31  1  0  0  0  0
 23 24  1  0  0  0  0
 24 25  1  0  0  0  0
 26 24  2  0  0  0  0
 26 35  1  0  0  0  0
 27 20  1  0  0  0  0
 28 27  1  0  0  0  0
 29 27  1  0  0  0  0
 30 27  1  0  0  0  0
 31 34  1  0  0  0  0
 32 31  1  0  0  0  0
 33 31  1  0  0  0  0
 35 38  1  0  0  0  0
 35 36  1  0  0  0  0
 35 37  1  0  0  0  0
 39 41  1  0  0  0  0
 40 39  1  0  0  0  0
 42 39  1  0  0  0  0
 43  3  1  0  0  0  0
 43 44  1  0  0  0  0
 43 46  1  0  0  0  0
 45 43  1  0  0  0  0
M  END
