18
 OpenBabel05122313113D

 45 47  0  0  1  0  0  0  0  0999 V2000
   -1.6488    4.9939   -0.0101 N   0  0  0  0  0  0  0  0  0  0  0  0
   -2.8215   -4.6766   -0.5121 N   0  0  0  0  0  0  0  0  0  0  0  0
   -2.2369    0.1642   -0.3170 N   0  0  0  0  0  0  0  0  0  0  0  0
   -4.6366    2.9098    0.5084 C   0  0  0  0  0  0  0  0  0  0  0  0
   -3.8370    4.0217    0.4165 C   0  0  0  0  0  0  0  0  0  0  0  0
   -2.4404    3.8864    0.0800 C   0  0  0  0  0  0  0  0  0  0  0  0
   -1.9128    2.5868   -0.1553 C   0  0  0  0  0  0  0  0  0  0  0  0
   -2.5033   -2.2716   -0.3737 C   0  0  0  0  0  0  0  0  0  0  0  0
   -3.3271   -3.4230   -0.2848 C   0  0  0  0  0  0  0  0  0  0  0  0
   -4.7173   -3.2546    0.0484 C   0  0  0  0  0  0  0  0  0  0  0  0
   -5.2270   -1.9952    0.2614 C   0  0  0  0  0  0  0  0  0  0  0  0
   -4.9388    0.4606    0.3727 C   0  0  0  0  0  0  0  0  0  0  0  0
   -3.0229   -0.9742   -0.1821 C   0  0  2  0  0  3  0  0  0  0  0  0
   -4.4191   -0.8239    0.1560 C   0  0  0  0  0  0  0  0  0  0  0  0
   -4.1282    1.5944    0.2753 C   0  0  0  0  0  0  0  0  0  0  0  0
   -2.7306    1.4457   -0.0708 C   0  0  0  0  0  0  0  0  0  0  0  0
   -0.8021    0.0231   -0.6659 C   0  0  0  0  0  0  0  0  0  0  0  0
    0.1069   -0.0456    0.5635 C   0  0  0  0  0  3  0  0  0  0  0  0
   -2.1928    6.3224    0.2409 C   0  0  0  0  0  0  0  0  0  0  0  0
   -0.2537    4.8636   -0.4107 C   0  0  0  0  0  0  0  0  0  0  0  0
   -3.6683   -5.8554   -0.3795 C   0  0  0  0  0  0  0  0  0  0  0  0
   -1.4264   -4.8450   -0.8742 C   0  0  0  0  0  0  0  0  0  0  0  0
   -5.7012    3.0161    0.7655 H   0  0  0  0  0  0  0  0  0  0  0  0
   -4.2707    5.0116    0.5994 H   0  0  0  0  0  0  0  0  0  0  0  0
   -0.8455    2.4830   -0.3814 H   0  0  0  0  0  0  0  0  0  0  0  0
   -1.4419   -2.3966   -0.5953 H   0  0  0  0  0  0  0  0  0  0  0  0
   -5.3791   -4.1241    0.1334 H   0  0  0  0  0  0  0  0  0  0  0  0
   -6.2896   -1.8698    0.5178 H   0  0  0  0  0  0  0  0  0  0  0  0
   -6.0032    0.5762    0.6310 H   0  0  0  0  0  0  0  0  0  0  0  0
   -0.5235    0.8811   -1.3025 H   0  0  0  0  0  0  0  0  0  0  0  0
   -0.6978   -0.8650   -1.3137 H   0  0  0  0  0  0  0  0  0  0  0  0
   -0.0875    0.8404    1.2073 H   0  0  0  0  0  0  0  0  0  0  0  0
   -0.1635   -0.9378    1.1735 H   0  0  0  0  0  0  0  0  0  0  0  0
   -1.3798    7.0641    0.1614 H   0  0  0  0  0  0  0  0  0  0  0  0
   -2.6265    6.4031    1.2597 H   0  0  0  0  0  0  0  0  0  0  0  0
   -2.9789    6.5973   -0.4953 H   0  0  0  0  0  0  0  0  0  0  0  0
    0.2153    5.8621   -0.4290 H   0  0  0  0  0  0  0  0  0  0  0  0
   -0.1608    4.4116   -1.4211 H   0  0  0  0  0  0  0  0  0  0  0  0
    0.3208    4.2154    0.2831 H   0  0  0  0  0  0  0  0  0  0  0  0
   -3.0673   -6.7574   -0.5877 H   0  0  0  0  0  0  0  0  0  0  0  0
   -4.5157   -5.8391   -1.0978 H   0  0  0  0  0  0  0  0  0  0  0  0
   -4.0840   -5.9536    0.6459 H   0  0  0  0  0  0  0  0  0  0  0  0
   -1.2339   -5.9048   -1.1149 H   0  0  0  0  0  0  0  0  0  0  0  0
   -0.7442   -4.5518   -0.0450 H   0  0  0  0  0  0  0  0  0  0  0  0
   -1.1606   -4.2382   -1.7669 H   0  0  0  0  0  0  0  0  0  0  0  0
  1  6  1  0  0  0  0
  1 19  1  0  0  0  0
  2 21  1  0  0  0  0
  2  9  1  0  0  0  0
  3 13  1  0  0  0  0
  3 16  1  0  0  0  0
  4 23  1  0  0  0  0
  5  4  1  0  0  0  0
  5 24  1  0  0  0  0
  6  5  2  0  0  0  0
  7 16  2  0  0  0  0
  7  6  1  0  0  0  0
  8  9  2  0  0  0  0
  9 10  1  0  0  0  0
 10 27  1  0  0  0  0
 10 11  2  0  0  0  0
 11 28  1  0  0  0  0
 12 29  1  0  0  0  0
 13  8  1  6  0  0  0
 13 14  1  0  0  0  0
 14 11  1  0  0  0  0
 14 12  2  0  0  0  0
 15 12  1  0  0  0  0
 15  4  2  0  0  0  0
 16 15  1  0  0  0  0
 17  3  1  0  0  0  0
 17 18  1  0  0  0  0
 18 33  1  0  0  0  0
 18 32  1  0  0  0  0
 19 35  1  0  0  0  0
 20  1  1  0  0  0  0
 20 39  1  0  0  0  0
 21 42  1  0  0  0  0
 22  2  1  0  0  0  0
 22 44  1  0  0  0  0
 25  7  1  0  0  0  0
 26  8  1  0  0  0  0
 30 17  1  0  0  0  0
 31 17  1  0  0  0  0
 34 19  1  0  0  0  0
 36 19  1  0  0  0  0
 37 20  1  0  0  0  0
 38 20  1  0  0  0  0
 40 21  1  0  0  0  0
 41 21  1  0  0  0  0
 43 22  1  0  0  0  0
 45 22  1  0  0  0  0
M  END
