3
 OpenBabel05122313113D

 39 40  0  0  0  0  0  0  0  0999 V2000
   -2.7543    1.0599   -0.4476 N   0  0  0  0  0  0  0  0  0  0  0  0
   -2.6703   -1.1304   -0.4505 N   0  0  0  0  0  0  0  0  0  0  0  0
   -1.8961   -0.0040   -0.4348 C   0  0  0  0  0  2  0  0  0  0  0  0
   -4.0794    0.6204   -0.4624 C   0  0  0  0  0  0  0  0  0  0  0  0
   -5.3026    1.3076   -0.4972 C   0  0  0  0  0  0  0  0  0  0  0  0
   -5.3512    2.4052   -0.5005 H   0  0  0  0  0  0  0  0  0  0  0  0
   -6.4666    0.5282   -0.5290 C   0  0  0  0  0  0  0  0  0  0  0  0
   -7.4460    1.0273   -0.5550 H   0  0  0  0  0  0  0  0  0  0  0  0
   -6.4121   -0.8853   -0.5303 C   0  0  0  0  0  0  0  0  0  0  0  0
   -7.3503   -1.4583   -0.5572 H   0  0  0  0  0  0  0  0  0  0  0  0
   -5.1918   -1.5731   -0.5000 C   0  0  0  0  0  0  0  0  0  0  0  0
   -5.1554   -2.6711   -0.5053 H   0  0  0  0  0  0  0  0  0  0  0  0
   -4.0249   -0.7940   -0.4638 C   0  0  0  0  0  0  0  0  0  0  0  0
   -2.3482    2.4602   -0.3900 C   0  0  0  0  0  0  0  0  0  0  0  0
   -2.9413    3.0186   -1.1435 H   0  0  0  0  0  0  0  0  0  0  0  0
   -1.2865    2.4947   -0.7104 H   0  0  0  0  0  0  0  0  0  0  0  0
   -2.5044    3.1051    1.0005 C   0  0  0  0  0  0  0  0  0  0  0  0
   -3.5821    3.0535    1.2747 H   0  0  0  0  0  0  0  0  0  0  0  0
   -1.7037    2.3632    2.0745 C   0  0  0  0  0  0  0  0  0  0  0  0
   -2.0133    1.3033    2.1697 H   0  0  0  0  0  0  0  0  0  0  0  0
   -1.8389    2.8416    3.0645 H   0  0  0  0  0  0  0  0  0  0  0  0
   -0.6174    2.3707    1.8394 H   0  0  0  0  0  0  0  0  0  0  0  0
   -2.1055    4.5823    0.9102 C   0  0  0  0  0  0  0  0  0  0  0  0
   -2.2502    5.0917    1.8830 H   0  0  0  0  0  0  0  0  0  0  0  0
   -2.7030    5.1278    0.1518 H   0  0  0  0  0  0  0  0  0  0  0  0
   -1.0342    4.6879    0.6348 H   0  0  0  0  0  0  0  0  0  0  0  0
   -2.1552   -2.4955   -0.3948 C   0  0  0  0  0  0  0  0  0  0  0  0
   -1.0942   -2.4470   -0.7159 H   0  0  0  0  0  0  0  0  0  0  0  0
   -2.7036   -3.0975   -1.1484 H   0  0  0  0  0  0  0  0  0  0  0  0
   -2.2578   -3.1522    0.9954 C   0  0  0  0  0  0  0  0  0  0  0  0
   -3.3369   -3.2038    1.2642 H   0  0  0  0  0  0  0  0  0  0  0  0
   -1.5359   -2.3392    2.0738 C   0  0  0  0  0  0  0  0  0  0  0  0
   -0.4532   -2.2414    1.8429 H   0  0  0  0  0  0  0  0  0  0  0  0
   -1.6282   -2.8315    3.0619 H   0  0  0  0  0  0  0  0  0  0  0  0
   -1.9480   -1.3147    2.1711 H   0  0  0  0  0  0  0  0  0  0  0  0
   -1.7181   -4.5843    0.9057 C   0  0  0  0  0  0  0  0  0  0  0  0
   -0.6394   -4.5848    0.6395 H   0  0  0  0  0  0  0  0  0  0  0  0
   -2.2542   -5.1824    0.1411 H   0  0  0  0  0  0  0  0  0  0  0  0
   -1.8219   -5.1076    1.8762 H   0  0  0  0  0  0  0  0  0  0  0  0
  1  3  1  0  0  0  0
  1 14  1  0  0  0  0
  2  3  1  0  0  0  0
  2 27  1  0  0  0  0
  4  1  1  0  0  0  0
  5  4  2  0  0  0  0
  6  5  1  0  0  0  0
  7  5  1  0  0  0  0
  8  7  1  0  0  0  0
  9  7  2  0  0  0  0
  9 11  1  0  0  0  0
 10  9  1  0  0  0  0
 11 13  2  0  0  0  0
 12 11  1  0  0  0  0
 13  4  1  0  0  0  0
 13  2  1  0  0  0  0
 14 17  1  0  0  0  0
 15 14  1  0  0  0  0
 16 14  1  0  0  0  0
 17 18  1  0  0  0  0
 17 19  1  0  0  0  0
 19 20  1  0  0  0  0
 19 21  1  0  0  0  0
 22 19  1  0  0  0  0
 23 17  1  0  0  0  0
 23 24  1  0  0  0  0
 25 23  1  0  0  0  0
 26 23  1  0  0  0  0
 27 30  1  0  0  0  0
 28 27  1  0  0  0  0
 29 27  1  0  0  0  0
 30 31  1  0  0  0  0
 30 32  1  0  0  0  0
 32 35  1  0  0  0  0
 32 34  1  0  0  0  0
 33 32  1  0  0  0  0
 36 30  1  0  0  0  0
 36 39  1  0  0  0  0
 37 36  1  0  0  0  0
 38 36  1  0  0  0  0
M  END
