17
 OpenBabel05122313113D

 17 19  0  0  0  0  0  0  0  0999 V2000
   -2.4279    1.5495    0.7662 Br  0  0  0  0  0  0  0  0  0  0  0  0
    2.3561    1.1322    0.8734 S   0  0  2  0  0  0  0  0  0  0  0  0
    3.1217    1.5002    2.0649 O   0  0  0  0  0  0  0  0  0  0  0  0
    2.6277    2.2056   -0.3986 O   0  0  0  0  0  0  0  0  0  0  0  0
    0.7514    1.1144    0.8847 N   0  0  0  0  0  0  0  0  0  0  0  0
    0.3180    2.0043   -0.0979 C   0  0  0  0  0  0  0  0  0  0  0  0
   -1.0120    2.3419   -0.4595 C   0  0  0  0  0  0  0  0  0  0  0  0
   -1.3472    3.1875   -1.4890 C   0  0  0  0  0  0  0  0  0  0  0  0
   -0.1830    3.5968   -1.9533 C   0  0  0  0  0  0  0  0  0  0  0  0
    1.1268    3.4922   -1.9323 C   0  0  0  0  0  0  0  0  0  0  0  0
    1.3653    2.6272   -0.8657 C   0  0  0  0  0  0  0  0  0  0  0  0
    3.0125   -0.4494    0.2509 C   0  0  0  0  0  0  0  0  0  0  0  0
    4.4054   -0.6146    0.2203 C   0  0  0  0  0  0  0  0  0  0  0  0
    4.6380   -1.7988   -0.2753 C   0  0  0  0  0  0  0  0  0  0  0  0
    3.9980   -2.8724   -0.7520 C   0  0  0  0  0  0  0  0  0  0  0  0
    2.7396   -2.5495   -0.6258 C   0  0  0  0  0  0  0  0  0  0  0  0
    2.0500   -1.4527   -0.1913 C   0  0  0  0  0  0  0  0  0  0  0  0
  2  5  1  0  0  0  0
  2  3  1  1  0  0  0
  4  2  1  0  0  0  0
  6  5  1  0  0  0  0
  7  6  1  0  0  0  0
  7  1  1  0  0  0  0
  8  7  2  0  0  0  0
  9 10  2  0  0  0  0
  9  8  1  0  0  0  0
 10 11  1  0  0  0  0
 11  4  1  0  0  0  0
 11  6  2  0  0  0  0
 12  2  1  0  0  0  0
 13 12  1  0  0  0  0
 14 13  2  0  0  0  0
 15 16  2  0  0  0  0
 15 14  1  0  0  0  0
 16 17  1  0  0  0  0
 17 12  2  0  0  0  0
M  END
