5
 OpenBabel05122313113D

 20 21  0  0  0  0  0  0  0  0999 V2000
    1.9387   -1.7390   -2.4160 O   0  0  0  0  0  0  0  0  0  0  0  0
    3.8761    1.5722    0.1980 O   0  0  0  0  0  0  0  0  0  0  0  0
    3.1695   -0.3439   -0.9737 N   0  0  0  0  0  0  0  0  0  0  0  0
    1.2098    0.5427   -1.9158 C   0  0  0  0  0  3  0  0  0  0  0  0
    1.8281    1.5596   -1.1288 C   0  0  0  0  0  3  0  0  0  0  0  0
    2.0816   -0.6743   -1.8448 C   0  0  0  0  0  0  0  0  0  0  0  0
    3.0743    1.0026   -0.5351 C   0  0  0  0  0  0  0  0  0  0  0  0
    4.1740   -1.2621   -0.5618 C   0  0  0  0  0  0  0  0  0  0  0  0
    3.8487   -2.6173   -0.3486 C   0  0  0  0  0  0  0  0  0  0  0  0
    4.8464   -3.5149    0.0527 C   0  0  0  0  0  0  0  0  0  0  0  0
    6.1643   -3.0767    0.2556 C   0  0  0  0  0  0  0  0  0  0  0  0
    6.4819   -1.7258    0.0469 C   0  0  0  0  0  0  0  0  0  0  0  0
    5.4978   -0.8179   -0.3671 C   0  0  0  0  0  0  0  0  0  0  0  0
    0.6227    0.7017   -2.8299 H   0  0  0  0  0  0  0  0  0  0  0  0
    1.7713    2.6409   -1.3128 H   0  0  0  0  0  0  0  0  0  0  0  0
    2.8208   -2.9641   -0.5058 H   0  0  0  0  0  0  0  0  0  0  0  0
    4.5838   -4.5713    0.2145 H   0  0  0  0  0  0  0  0  0  0  0  0
    6.9420   -3.7867    0.5751 H   0  0  0  0  0  0  0  0  0  0  0  0
    7.5121   -1.3700    0.2010 H   0  0  0  0  0  0  0  0  0  0  0  0
    5.7444    0.2386   -0.5267 H   0  0  0  0  0  0  0  0  0  0  0  0
  1  6  2  0  0  0  0
  3  8  1  0  0  0  0
  3  7  1  0  0  0  0
  4  6  1  0  0  0  0
  4  5  1  0  0  0  0
  5  7  1  0  0  0  0
  6  3  1  0  0  0  0
  7  2  2  0  0  0  0
  8 13  2  0  0  0  0
  8  9  1  0  0  0  0
  9 10  2  0  0  0  0
 10 17  1  0  0  0  0
 10 11  1  0  0  0  0
 11 18  1  0  0  0  0
 12 19  1  0  0  0  0
 12 11  2  0  0  0  0
 13 12  1  0  0  0  0
 14  4  1  0  0  0  0
 15  5  1  0  0  0  0
 16  9  1  0  0  0  0
 20 13  1  0  0  0  0
M  END
