6
q = 0.0, confidence = 0.978

 38 39  0  0  0  0  0  0  0  0999 V2000
   -3.8997   -0.2251    1.7230 S   0  0  0  0  0  0  0  0  0  0  0  0
   -3.2100    0.4695    2.8281 O   0  0  0  0  0  0  0  0  0  0  0  0
   -4.9832   -1.2038    1.9500 O   0  0  0  0  0  0  0  0  0  0  0  0
   -2.6935   -1.0444    0.8522 N   0  0  0  0  0  0  0  0  0  0  0  0
   -1.4374   -0.3104    0.6334 C   0  0  0  0  0  0  0  0  0  0  0  0
   -0.3520   -1.3000    0.2846 C   0  0  0  0  0  3  0  0  0  0  0  0
   -0.0127   -1.6013   -1.0573 C   0  0  0  0  0  3  0  0  0  0  0  0
    0.3408   -2.9808   -1.5375 C   0  0  0  0  0  0  0  0  0  0  0  0
   -0.9872   -3.7443   -1.8282 C   0  0  0  0  0  0  0  0  0  0  0  0
   -1.7138   -4.1246   -0.5644 C   0  0  0  0  0  0  0  0  0  0  0  0
   -2.5992   -3.3869    0.1396 C   0  0  0  0  0  0  0  0  0  0  0  0
   -3.1291   -2.0096   -0.1728 C   0  0  0  0  0  0  0  0  0  0  0  0
   -4.5177    1.0264    0.5895 C   0  0  0  0  0  0  0  0  0  0  0  0
   -5.6646    0.7626   -0.1739 C   0  0  0  0  0  0  0  0  0  0  0  0
   -6.0896    1.7106   -1.1151 C   0  0  0  0  0  0  0  0  0  0  0  0
   -5.3865    2.9173   -1.3081 C   0  0  0  0  0  0  0  0  0  0  0  0
   -4.2437    3.1601   -0.5143 C   0  0  0  0  0  0  0  0  0  0  0  0
   -3.8064    2.2293    0.4343 C   0  0  0  0  0  0  0  0  0  0  0  0
   -5.8340    3.9292   -2.3313 C   0  0  0  0  0  0  0  0  0  0  0  0
   -2.9311    2.4327    1.0672 H   0  0  0  0  0  0  0  0  0  0  0  0
   -3.6883    4.1030   -0.6393 H   0  0  0  0  0  0  0  0  0  0  0  0
   -6.9944    1.5124   -1.7111 H   0  0  0  0  0  0  0  0  0  0  0  0
   -6.2224   -0.1700   -0.0062 H   0  0  0  0  0  0  0  0  0  0  0  0
   -5.9671    4.9317   -1.8751 H   0  0  0  0  0  0  0  0  0  0  0  0
   -5.0776    4.0421   -3.1364 H   0  0  0  0  0  0  0  0  0  0  0  0
   -6.7911    3.6383   -2.8050 H   0  0  0  0  0  0  0  0  0  0  0  0
   -1.5260    0.4494   -0.1773 H   0  0  0  0  0  0  0  0  0  0  0  0
   -1.1976    0.2124    1.5790 H   0  0  0  0  0  0  0  0  0  0  0  0
    0.9436   -2.9202   -2.4668 H   0  0  0  0  0  0  0  0  0  0  0  0
    0.9438   -3.5173   -0.7785 H   0  0  0  0  0  0  0  0  0  0  0  0
   -4.2370   -2.0427   -0.1436 H   0  0  0  0  0  0  0  0  0  0  0  0
   -2.8350   -1.6546   -1.1840 H   0  0  0  0  0  0  0  0  0  0  0  0
   -1.6229   -3.1190   -2.4901 H   0  0  0  0  0  0  0  0  0  0  0  0
   -0.7446   -4.6603   -2.4050 H   0  0  0  0  0  0  0  0  0  0  0  0
   -2.9819   -3.7924    1.0920 H   0  0  0  0  0  0  0  0  0  0  0  0
   -0.1530   -2.0667    1.0531 H   0  0  0  0  0  0  0  0  0  0  0  0
   -1.4235   -5.0971   -0.1283 H   0  0  0  0  0  0  0  0  0  0  0  0
   -0.4631   -0.9468   -1.8283 H   0  0  0  0  0  0  0  0  0  0  0  0
  1  3  2  0  0  0  0
  1  2  2  0  0  0  0
  4  1  1  0  0  0  0
  5  4  1  0  0  0  0
  5 28  1  0  0  0  0
  6  5  1  0  0  0  0
  6 36  1  0  0  0  0
  7  6  1  0  0  0  0
  8  7  1  0  0  0  0
  8 30  1  0  0  0  0
  9  8  1  0  0  0  0
  9 10  1  0  0  0  0
 10 37  1  0  0  0  0
 10 11  2  0  0  0  0
 11 35  1  0  0  0  0
 12 31  1  0  0  0  0
 12 11  1  0  0  0  0
 12  4  1  0  0  0  0
 13  1  1  0  0  0  0
 14 23  1  0  0  0  0
 14 13  2  0  0  0  0
 15 14  1  0  0  0  0
 16 15  2  0  0  0  0
 16 17  1  0  0  0  0
 17 18  2  0  0  0  0
 18 13  1  0  0  0  0
 18 20  1  0  0  0  0
 19 24  1  0  0  0  0
 19 16  1  0  0  0  0
 21 17  1  0  0  0  0
 22 15  1  0  0  0  0
 25 19  1  0  0  0  0
 26 19  1  0  0  0  0
 27  5  1  0  0  0  0
 29  8  1  0  0  0  0
 32 12  1  0  0  0  0
 33  9  1  0  0  0  0
 34  9  1  0  0  0  0
 38  7  1  0  0  0  0
M  END
