1
 OpenBabel05122313113D

 26 27  0  0  0  0  0  0  0  0999 V2000
   -1.0434    0.3058    0.3382 C   0  0  0  0  0  2  0  0  0  0  0  0
   -1.7475    1.5292   -0.1372 C   0  0  0  0  0  0  0  0  0  0  0  0
   -1.9144    2.6710    0.6840 C   0  0  0  0  0  0  0  0  0  0  0  0
   -1.4907    2.6754    1.7004 H   0  0  0  0  0  0  0  0  0  0  0  0
   -2.5837    3.8095    0.2141 C   0  0  0  0  0  0  0  0  0  0  0  0
   -2.6722    4.6975    0.8604 H   0  0  0  0  0  0  0  0  0  0  0  0
   -3.1473    3.8140   -1.0722 C   0  0  0  0  0  0  0  0  0  0  0  0
   -3.6828    4.7035   -1.4397 H   0  0  0  0  0  0  0  0  0  0  0  0
   -3.0233    2.6737   -1.8832 C   0  0  0  0  0  0  0  0  0  0  0  0
   -3.4730    2.6609   -2.8885 H   0  0  0  0  0  0  0  0  0  0  0  0
   -2.3220    1.5488   -1.4312 C   0  0  0  0  0  0  0  0  0  0  0  0
   -2.2182    0.6459   -2.0559 H   0  0  0  0  0  0  0  0  0  0  0  0
   -1.6368   -0.1958    1.6519 C   0  0  0  0  0  0  0  0  0  0  0  0
   -1.6213    0.6216    2.4084 H   0  0  0  0  0  0  0  0  0  0  0  0
   -1.0474   -1.0532    2.0242 H   0  0  0  0  0  0  0  0  0  0  0  0
   -3.0742   -0.6256    1.4244 C   0  0  0  0  0  0  0  0  0  0  0  0
   -4.1589    0.1292    1.9127 C   0  0  0  0  0  0  0  0  0  0  0  0
   -3.9597    1.0483    2.4871 H   0  0  0  0  0  0  0  0  0  0  0  0
   -5.4821   -0.2696    1.6674 C   0  0  0  0  0  0  0  0  0  0  0  0
   -6.3176    0.3322    2.0598 H   0  0  0  0  0  0  0  0  0  0  0  0
   -5.7377   -1.4283    0.9168 C   0  0  0  0  0  0  0  0  0  0  0  0
   -6.7750   -1.7408    0.7161 H   0  0  0  0  0  0  0  0  0  0  0  0
   -4.6610   -2.1796    0.4165 C   0  0  0  0  0  0  0  0  0  0  0  0
   -4.8501   -3.0826   -0.1851 H   0  0  0  0  0  0  0  0  0  0  0  0
   -3.3378   -1.7854    0.6628 C   0  0  0  0  0  0  0  0  0  0  0  0
   -2.4892   -2.3629    0.2630 H   0  0  0  0  0  0  0  0  0  0  0  0
  1 13  1  0  0  0  0
  2  1  1  0  0  0  0
  2  3  1  0  0  0  0
  3  4  1  0  0  0  0
  5  3  2  0  0  0  0
  5  6  1  0  0  0  0
  7  5  1  0  0  0  0
  8  7  1  0  0  0  0
  9 11  1  0  0  0  0
  9  7  2  0  0  0  0
 10  9  1  0  0  0  0
 11  2  2  0  0  0  0
 12 11  1  0  0  0  0
 13 15  1  0  0  0  0
 13 14  1  0  0  0  0
 16 13  1  0  0  0  0
 16 17  1  0  0  0  0
 17 18  1  0  0  0  0
 19 17  2  0  0  0  0
 19 20  1  0  0  0  0
 21 19  1  0  0  0  0
 22 21  1  0  0  0  0
 23 25  1  0  0  0  0
 23 21  2  0  0  0  0
 24 23  1  0  0  0  0
 25 16  2  0  0  0  0
 26 25  1  0  0  0  0
M  END
