1
 OpenBabel05122313113D

 30 31  0  0  0  0  0  0  0  0999 V2000
    0.0273   -0.5879   -0.2877 C   0  0  0  0  0  3  0  0  0  0  0  0
   -1.1072    0.1780    0.0037 C   0  0  0  0  0  0  0  0  0  0  0  0
   -1.1864    1.1194    0.5524 H   0  0  0  0  0  0  0  0  0  0  0  0
   -0.5292   -1.6887   -0.9166 N   0  0  0  0  0  0  0  0  0  0  0  0
    0.1766   -2.8541   -1.4270 C   0  0  0  0  0  0  0  0  0  0  0  0
   -0.5626   -3.6579   -1.5858 H   0  0  0  0  0  0  0  0  0  0  0  0
    0.9237   -3.1424   -0.6591 H   0  0  0  0  0  0  0  0  0  0  0  0
    0.6759   -2.6100   -2.3842 H   0  0  0  0  0  0  0  0  0  0  0  0
   -1.8626   -1.6766   -1.0015 N   0  0  0  0  0  2  0  0  0  0  0  0
   -2.1947   -0.5237   -0.4317 N   0  0  0  0  0  0  0  0  0  0  0  0
   -3.5742   -0.1799   -0.2228 C   0  0  0  0  0  0  0  0  0  0  0  0
   -4.3512    0.2387   -1.3210 C   0  0  0  0  0  0  0  0  0  0  0  0
   -3.7662    0.2985   -2.7079 C   0  0  0  0  0  0  0  0  0  0  0  0
   -2.8299    0.8944   -2.7255 H   0  0  0  0  0  0  0  0  0  0  0  0
   -4.4787    0.7531   -3.4211 H   0  0  0  0  0  0  0  0  0  0  0  0
   -3.5033   -0.7150   -3.0739 H   0  0  0  0  0  0  0  0  0  0  0  0
   -5.6883    0.5921   -1.0659 C   0  0  0  0  0  0  0  0  0  0  0  0
   -6.3175    0.9229   -1.9075 H   0  0  0  0  0  0  0  0  0  0  0  0
   -6.2381    0.5379    0.2281 C   0  0  0  0  0  0  0  0  0  0  0  0
   -7.6672    0.9449    0.4841 C   0  0  0  0  0  0  0  0  0  0  0  0
   -8.1926    0.2004    1.1158 H   0  0  0  0  0  0  0  0  0  0  0  0
   -8.2362    1.0611   -0.4582 H   0  0  0  0  0  0  0  0  0  0  0  0
   -7.7126    1.9138    1.0253 H   0  0  0  0  0  0  0  0  0  0  0  0
   -5.4188    0.1065    1.2900 C   0  0  0  0  0  0  0  0  0  0  0  0
   -5.8388    0.0458    2.3067 H   0  0  0  0  0  0  0  0  0  0  0  0
   -4.0768   -0.2616    1.0959 C   0  0  0  0  0  0  0  0  0  0  0  0
   -3.2148   -0.7452    2.2341 C   0  0  0  0  0  0  0  0  0  0  0  0
   -2.7165   -1.7036    1.9823 H   0  0  0  0  0  0  0  0  0  0  0  0
   -3.8191   -0.8974    3.1475 H   0  0  0  0  0  0  0  0  0  0  0  0
   -2.3960   -0.0369    2.4795 H   0  0  0  0  0  0  0  0  0  0  0  0
  1  2  2  0  0  0  0
  2  3  1  0  0  0  0
  4  1  1  0  0  0  0
  5  4  1  0  0  0  0
  5  7  1  0  0  0  0
  6  5  1  0  0  0  0
  8  5  1  0  0  0  0
  9  4  1  0  0  0  0
  9 10  1  0  0  0  0
 10 11  1  0  0  0  0
 10  2  1  0  0  0  0
 11 26  1  0  0  0  0
 12 17  1  0  0  0  0
 12 11  2  0  0  0  0
 13 12  1  0  0  0  0
 14 13  1  0  0  0  0
 15 13  1  0  0  0  0
 16 13  1  0  0  0  0
 17 19  2  0  0  0  0
 18 17  1  0  0  0  0
 19 20  1  0  0  0  0
 19 24  1  0  0  0  0
 20 23  1  0  0  0  0
 20 21  1  0  0  0  0
 22 20  1  0  0  0  0
 24 25  1  0  0  0  0
 26 24  2  0  0  0  0
 26 27  1  0  0  0  0
 27 30  1  0  0  0  0
 27 29  1  0  0  0  0
 28 27  1  0  0  0  0
M  END
