5
 OpenBabel05122313113D

 40 41  0  0  1  0  0  0  0  0999 V2000
    5.0364   -1.0981    0.1285 Si  0  0  0  0  0  0  0  0  0  0  0  0
   -8.2869    0.4140    1.1510 O   0  0  0  0  0  0  0  0  0  0  0  0
   -8.5189   -0.4575   -0.8420 O   0  0  0  0  0  0  0  0  0  0  0  0
   -7.8415   -0.0902    0.1190 N   0  0  0  0  0  0  0  0  0  0  0  0
    0.8577   -1.1261   -0.7461 C   0  0  0  0  0  3  0  0  0  0  0  0
    2.2606   -1.2598   -0.8506 C   0  0  0  0  0  0  0  0  0  0  0  0
    3.1338   -0.9925    0.2617 C   0  0  0  0  0  0  0  0  0  0  0  0
    2.5181   -0.6087    1.4864 C   0  0  0  0  0  0  0  0  0  0  0  0
    1.1026   -0.4819    1.6051 C   0  0  0  0  0  0  0  0  0  0  0  0
    0.2383   -0.7429    0.4998 C   0  0  1  0  0  3  0  0  0  0  0  0
   -1.1998   -0.5421    0.6540 C   0  0  0  0  0  0  0  0  0  0  0  0
   -2.1530   -0.8208   -0.2768 C   0  0  0  0  0  0  0  0  0  0  0  0
   -3.5921   -0.6147   -0.1381 C   0  0  0  0  0  0  0  0  0  0  0  0
   -4.4441   -1.0082   -1.2025 C   0  0  0  0  0  0  0  0  0  0  0  0
   -5.8284   -0.8415   -1.1288 C   0  0  0  0  0  0  0  0  0  0  0  0
   -6.3757   -0.2704    0.0274 C   0  0  0  0  0  0  0  0  0  0  0  0
   -5.5684    0.1368    1.1014 C   0  0  0  0  0  0  0  0  0  0  0  0
   -4.1881   -0.0357    1.0136 C   0  0  0  0  0  0  0  0  0  0  0  0
    5.5704   -2.6576    1.0582 C   0  0  0  0  0  0  0  0  0  0  0  0
    5.7881    0.4364    0.9297 C   0  0  0  0  0  0  0  0  0  0  0  0
    5.5201   -1.2134   -1.6919 C   0  0  0  0  0  0  0  0  0  0  0  0
    0.2382   -1.2791   -1.6396 H   0  0  0  0  0  0  0  0  0  0  0  0
    2.6919   -1.5119   -1.8300 H   0  0  0  0  0  0  0  0  0  0  0  0
    3.1409   -0.3467    2.3547 H   0  0  0  0  0  0  0  0  0  0  0  0
    0.6653   -0.1361    2.5528 H   0  0  0  0  0  0  0  0  0  0  0  0
   -1.5008   -0.1222    1.6276 H   0  0  0  0  0  0  0  0  0  0  0  0
   -1.8410   -1.2503   -1.2431 H   0  0  0  0  0  0  0  0  0  0  0  0
   -3.9995   -1.4545   -2.1053 H   0  0  0  0  0  0  0  0  0  0  0  0
   -6.5006   -1.1413   -1.9435 H   0  0  0  0  0  0  0  0  0  0  0  0
   -6.0468    0.5835    1.9830 H   0  0  0  0  0  0  0  0  0  0  0  0
   -3.5586    0.2906    1.8538 H   0  0  0  0  0  0  0  0  0  0  0  0
    5.2694   -2.6120    2.1249 H   0  0  0  0  0  0  0  0  0  0  0  0
    5.1135   -3.5658    0.6148 H   0  0  0  0  0  0  0  0  0  0  0  0
    6.6729   -2.7776    1.0220 H   0  0  0  0  0  0  0  0  0  0  0  0
    5.4274    0.5822    1.9681 H   0  0  0  0  0  0  0  0  0  0  0  0
    6.8933    0.3463    0.9692 H   0  0  0  0  0  0  0  0  0  0  0  0
    5.5368    1.3456    0.3487 H   0  0  0  0  0  0  0  0  0  0  0  0
    6.6238   -1.2816   -1.7815 H   0  0  0  0  0  0  0  0  0  0  0  0
    5.0931   -2.1133   -2.1802 H   0  0  0  0  0  0  0  0  0  0  0  0
    5.1913   -0.3152   -2.2519 H   0  0  0  0  0  0  0  0  0  0  0  0
  1  7  1  0  0  0  0
  1 20  1  0  0  0  0
  1 19  1  0  0  0  0
  3  4  2  0  0  0  0
  4  2  2  0  0  0  0
  5 10  1  0  0  0  0
  6  5  1  0  0  0  0
  6  7  2  0  0  0  0
  7  8  1  0  0  0  0
  8  9  2  0  0  0  0
  8 24  1  0  0  0  0
  9 25  1  0  0  0  0
 10 11  1  6  0  0  0
 10  9  1  0  0  0  0
 11 26  1  0  0  0  0
 12 13  1  0  0  0  0
 12 11  2  0  0  0  0
 13 18  1  0  0  0  0
 14 15  1  0  0  0  0
 14 13  2  0  0  0  0
 15 16  2  0  0  0  0
 16  4  1  0  0  0  0
 16 17  1  0  0  0  0
 17 30  1  0  0  0  0
 18 17  2  0  0  0  0
 18 31  1  0  0  0  0
 19 32  1  0  0  0  0
 20 36  1  0  0  0  0
 20 35  1  0  0  0  0
 21  1  1  0  0  0  0
 22  5  1  0  0  0  0
 23  6  1  0  0  0  0
 27 12  1  0  0  0  0
 28 14  1  0  0  0  0
 29 15  1  0  0  0  0
 33 19  1  0  0  0  0
 34 19  1  0  0  0  0
 37 20  1  0  0  0  0
 38 21  1  0  0  0  0
 39 21  1  0  0  0  0
 40 21  1  0  0  0  0
M  END
