1
 OpenBabel05122313113D

  4  3  0  0  0  0  0  0  0  0999 V2000
   -0.8436   -3.0707   -0.0717 C   0  0  0  0  0  0  0  0  0  0  0  0
    0.4657   -3.2153   -0.0702 C   0  0  0  0  0  0  0  0  0  0  0  0
   -2.3081   -3.9571   -0.1468 Cl  0  0  0  0  0  0  0  0  0  0  0  0
    1.6684   -4.4370   -0.1380 Cl  0  0  0  0  0  0  0  0  0  0  0  0
  1  2  2  0  0  0  0
  3  1  1  0  0  0  0
  4  2  1  0  0  0  0
M  END
