5
 OpenBabel05122313113D

 20 19  0  0  0  0  0  0  0  0999 V2000
   -3.5866   -2.0216    0.1558 O   0  0  0  0  0  0  0  0  0  0  0  0
    2.6973   -0.9808   -0.2819 N   0  0  0  0  0  0  0  0  0  0  0  0
   -2.9151   -1.2461   -0.5045 C   0  0  0  0  0  0  0  0  0  0  0  0
   -1.4444   -1.2855   -0.6040 C   0  0  0  0  0  3  0  0  0  0  0  0
   -0.7693   -0.5883   -1.6720 C   0  0  0  0  0  3  0  0  0  0  0  0
    0.6515   -0.4701   -1.5979 C   0  0  0  0  0  3  0  0  0  0  0  0
    1.3566   -1.1057   -0.5338 C   0  0  0  0  0  3  0  0  0  0  0  0
    3.1627   -1.4028    1.0282 C   0  0  0  0  0  0  0  0  0  0  0  0
    3.4895    0.0406   -0.9420 C   0  0  0  0  0  0  0  0  0  0  0  0
   -3.4006   -0.4130   -1.1041 H   0  0  0  0  0  0  0  0  0  0  0  0
   -1.0096   -2.1920   -0.1499 H   0  0  0  0  0  0  0  0  0  0  0  0
   -1.3190   -0.1228   -2.5043 H   0  0  0  0  0  0  0  0  0  0  0  0
    1.1769    0.1536   -2.3351 H   0  0  0  0  0  0  0  0  0  0  0  0
    0.9002   -1.9746   -0.0395 H   0  0  0  0  0  0  0  0  0  0  0  0
    4.5629   -0.1735   -0.7774 H   0  0  0  0  0  0  0  0  0  0  0  0
    3.2757    1.0649   -0.5601 H   0  0  0  0  0  0  0  0  0  0  0  0
    3.3101    0.0297   -2.0342 H   0  0  0  0  0  0  0  0  0  0  0  0
    4.2380   -1.6668    0.9868 H   0  0  0  0  0  0  0  0  0  0  0  0
    3.0207   -0.6037    1.7946 H   0  0  0  0  0  0  0  0  0  0  0  0
    2.5949   -2.2930    1.3610 H   0  0  0  0  0  0  0  0  0  0  0  0
  2  8  1  0  0  0  0
  3  1  2  0  0  0  0
  4  3  1  0  0  0  0
  4 11  1  0  0  0  0
  5  6  1  0  0  0  0
  5  4  1  0  0  0  0
  6  7  1  0  0  0  0
  7  2  1  0  0  0  0
  7 14  1  0  0  0  0
  8 20  1  0  0  0  0
  8 19  1  0  0  0  0
  9 15  1  0  0  0  0
  9 16  1  0  0  0  0
  9  2  1  0  0  0  0
 10  3  1  0  0  0  0
 12  5  1  0  0  0  0
 13  6  1  0  0  0  0
 17  9  1  0  0  0  0
 18  8  1  0  0  0  0
M  END
