1
 OpenBabel05122313113D

 44 45  0  0  0  0  0  0  0  0999 V2000
    0.3160    0.7930   -0.9735 C   0  0  0  0  0  2  0  0  0  0  0  0
    2.0920    2.1970   -0.8457 C   0  0  0  0  0  0  0  0  0  0  0  0
    3.0529    2.5614   -0.4742 H   0  0  0  0  0  0  0  0  0  0  0  0
    1.2285    2.7054   -1.7784 C   0  0  0  0  0  0  0  0  0  0  0  0
    1.2848    3.6107   -2.3893 H   0  0  0  0  0  0  0  0  0  0  0  0
   -1.1030    2.0996   -2.5332 C   0  0  0  0  0  0  0  0  0  0  0  0
   -1.6635    1.1430   -2.5263 H   0  0  0  0  0  0  0  0  0  0  0  0
   -0.9030    2.3715   -3.5900 H   0  0  0  0  0  0  0  0  0  0  0  0
    2.0510    0.2455    0.7273 C   0  0  0  0  0  0  0  0  0  0  0  0
    3.1409   -0.6258    0.4919 C   0  0  0  0  0  0  0  0  0  0  0  0
    3.6425   -1.3404    1.5959 C   0  0  0  0  0  0  0  0  0  0  0  0
    4.4858   -2.0308    1.4487 H   0  0  0  0  0  0  0  0  0  0  0  0
    3.0784   -1.1990    2.8686 C   0  0  0  0  0  0  0  0  0  0  0  0
    3.4832   -1.7745    3.7151 H   0  0  0  0  0  0  0  0  0  0  0  0
    1.9997   -0.3295    3.0687 C   0  0  0  0  0  0  0  0  0  0  0  0
    1.5666   -0.2226    4.0741 H   0  0  0  0  0  0  0  0  0  0  0  0
    1.4610    0.4171    2.0044 C   0  0  0  0  0  0  0  0  0  0  0  0
    3.7827   -0.7734   -0.8815 C   0  0  0  0  0  0  0  0  0  0  0  0
    3.0499   -0.4029   -1.6263 H   0  0  0  0  0  0  0  0  0  0  0  0
    4.0725   -2.2382   -1.2402 C   0  0  0  0  0  0  0  0  0  0  0  0
    4.8639   -2.6765   -0.5973 H   0  0  0  0  0  0  0  0  0  0  0  0
    4.4269   -2.3075   -2.2885 H   0  0  0  0  0  0  0  0  0  0  0  0
    3.1531   -2.8473   -1.1478 H   0  0  0  0  0  0  0  0  0  0  0  0
    5.0624    0.0787   -0.9772 C   0  0  0  0  0  0  0  0  0  0  0  0
    4.8688    1.1513   -0.7750 H   0  0  0  0  0  0  0  0  0  0  0  0
    5.5094   -0.0002   -1.9894 H   0  0  0  0  0  0  0  0  0  0  0  0
    5.8214   -0.2637   -0.2432 H   0  0  0  0  0  0  0  0  0  0  0  0
    0.3403    1.4191    2.2563 C   0  0  0  0  0  0  0  0  0  0  0  0
   -0.1278    1.6755    1.2865 H   0  0  0  0  0  0  0  0  0  0  0  0
    0.9155    2.7243    2.8369 C   0  0  0  0  0  0  0  0  0  0  0  0
    1.3934    2.5477    3.8232 H   0  0  0  0  0  0  0  0  0  0  0  0
    0.1124    3.4776    2.9703 H   0  0  0  0  0  0  0  0  0  0  0  0
    1.6813    3.1613    2.1648 H   0  0  0  0  0  0  0  0  0  0  0  0
   -0.7729    0.8497    3.1462 C   0  0  0  0  0  0  0  0  0  0  0  0
   -1.1707   -0.0978    2.7324 H   0  0  0  0  0  0  0  0  0  0  0  0
   -1.6085    1.5752    3.2158 H   0  0  0  0  0  0  0  0  0  0  0  0
   -0.4234    0.6558    4.1813 H   0  0  0  0  0  0  0  0  0  0  0  0
    1.5203    1.0219   -0.3658 N   0  0  0  0  0  0  0  0  0  0  0  0
    0.1540    1.8276   -1.8480 N   0  0  0  0  0  0  0  0  0  0  0  0
   -1.8973    3.2149   -1.8209 C   0  0  0  0  0  0  0  0  0  0  0  0
   -1.4286    4.1991   -2.0466 H   0  0  0  0  0  0  0  0  0  0  0  0
   -2.9121    3.2361   -2.2958 H   0  0  0  0  0  0  0  0  0  0  0  0
   -1.9350    3.0853   -0.4284 O   0  0  0  0  0  0  0  0  0  0  0  0
   -2.1357    2.1383   -0.1883 H   0  0  0  0  0  0  0  0  0  0  0  0
  1 38  1  0  0  0  0
  2  3  1  0  0  0  0
  2 38  1  0  0  0  0
  4  2  2  0  0  0  0
  5  4  1  0  0  0  0
  6  7  1  0  0  0  0
  6 39  1  0  0  0  0
  6 40  1  0  0  0  0
  8  6  1  0  0  0  0
  9 17  1  0  0  0  0
 10  9  2  0  0  0  0
 10 11  1  0  0  0  0
 11 13  2  0  0  0  0
 12 11  1  0  0  0  0
 13 15  1  0  0  0  0
 13 14  1  0  0  0  0
 15 16  1  0  0  0  0
 17 28  1  0  0  0  0
 17 15  2  0  0  0  0
 18 10  1  0  0  0  0
 19 18  1  0  0  0  0
 20 23  1  0  0  0  0
 20 18  1  0  0  0  0
 20 21  1  0  0  0  0
 22 20  1  0  0  0  0
 24 18  1  0  0  0  0
 24 25  1  0  0  0  0
 24 27  1  0  0  0  0
 26 24  1  0  0  0  0
 28 30  1  0  0  0  0
 28 34  1  0  0  0  0
 29 28  1  0  0  0  0
 30 32  1  0  0  0  0
 30 31  1  0  0  0  0
 33 30  1  0  0  0  0
 34 36  1  0  0  0  0
 34 37  1  0  0  0  0
 35 34  1  0  0  0  0
 38  9  1  0  0  0  0
 39  4  1  0  0  0  0
 39  1  1  0  0  0  0
 40 43  1  0  0  0  0
 41 40  1  0  0  0  0
 42 40  1  0  0  0  0
 43 44  1  0  0  0  0
M  END
