4
 OpenBabel05122313113D

 20 21  0  0  0  0  0  0  0  0999 V2000
    2.4709   -0.7318   -0.0069 N   0  0  0  0  0  0  0  0  0  0  0  0
    2.7161    0.2855    0.0073 H   0  0  0  0  0  0  0  0  0  0  0  0
    4.8724    0.3772    0.0056 N   0  0  0  0  0  0  0  0  0  0  0  0
    1.1285   -1.0577   -0.0106 C   0  0  0  0  0  2  0  0  0  0  0  0
    0.8828   -2.4763   -0.0300 C   0  0  0  0  0  0  0  0  0  0  0  0
   -0.1646   -2.8073   -0.0340 H   0  0  0  0  0  0  0  0  0  0  0  0
    1.9183   -3.3980   -0.0435 C   0  0  0  0  0  0  0  0  0  0  0  0
    1.6967   -4.4766   -0.0583 H   0  0  0  0  0  0  0  0  0  0  0  0
    3.2698   -2.9663   -0.0384 C   0  0  0  0  0  0  0  0  0  0  0  0
    4.0929   -3.6913   -0.0492 H   0  0  0  0  0  0  0  0  0  0  0  0
    3.5253   -1.5998   -0.0197 C   0  0  0  0  0  0  0  0  0  0  0  0
    4.8695   -0.9719   -0.0121 C   0  0  0  0  0  0  0  0  0  0  0  0
    6.0667   -1.7201   -0.0224 C   0  0  0  0  0  0  0  0  0  0  0  0
    6.0472   -2.8186   -0.0368 H   0  0  0  0  0  0  0  0  0  0  0  0
    7.2863   -1.0343   -0.0139 C   0  0  0  0  0  0  0  0  0  0  0  0
    8.2346   -1.5926   -0.0216 H   0  0  0  0  0  0  0  0  0  0  0  0
    7.2825    0.3694    0.0046 C   0  0  0  0  0  0  0  0  0  0  0  0
    8.2197    0.9448    0.0119 H   0  0  0  0  0  0  0  0  0  0  0  0
    6.0411    1.0261    0.0137 C   0  0  0  0  0  0  0  0  0  0  0  0
    5.9839    2.1288    0.0283 H   0  0  0  0  0  0  0  0  0  0  0  0
  1  2  1  0  0  0  0
  3 19  1  0  0  0  0
  4  1  1  0  0  0  0
  5  4  1  0  0  0  0
  6  5  1  0  0  0  0
  7  9  1  0  0  0  0
  7  5  2  0  0  0  0
  8  7  1  0  0  0  0
  9 11  2  0  0  0  0
 10  9  1  0  0  0  0
 11 12  1  0  0  0  0
 11  1  1  0  0  0  0
 12  3  2  0  0  0  0
 13 15  2  0  0  0  0
 13 12  1  0  0  0  0
 14 13  1  0  0  0  0
 15 17  1  0  0  0  0
 16 15  1  0  0  0  0
 17 18  1  0  0  0  0
 17 19  2  0  0  0  0
 19 20  1  0  0  0  0
M  END
