1
 OpenBabel05122313113D

 43 46  0  0  1  0  0  0  0  0999 V2000
   -1.9338    0.9498   -0.2217 C   0  0  0  0  0  2  0  0  0  0  0  0
   -3.0609    1.5396    0.2119 N   0  0  1  0  0  0  0  0  0  0  0  0
   -3.0257    2.9946    0.0067 C   0  0  0  0  0  0  0  0  0  0  0  0
   -3.4602    3.5337    0.8699 H   0  0  0  0  0  0  0  0  0  0  0  0
   -3.6078    3.2622   -0.9025 H   0  0  0  0  0  0  0  0  0  0  0  0
   -1.5260    3.2514   -0.1708 C   0  0  0  0  0  0  0  0  0  0  0  0
   -1.2904    4.0144   -0.9368 H   0  0  0  0  0  0  0  0  0  0  0  0
   -1.0476    3.5549    0.7879 H   0  0  0  0  0  0  0  0  0  0  0  0
   -1.0414    1.9253   -0.5857 N   0  0  0  0  0  0  0  0  0  0  0  0
   -4.2529    0.8415    0.6977 C   0  0  0  0  0  0  0  0  0  0  0  0
   -4.0111   -0.2358    0.5903 H   0  0  0  0  0  0  0  0  0  0  0  0
   -5.4808    1.1248   -0.1785 C   0  0  0  0  0  0  0  0  0  0  0  0
   -5.2291    0.8604   -1.2252 H   0  0  0  0  0  0  0  0  0  0  0  0
   -5.7317    2.2096   -0.1419 H   0  0  0  0  0  0  0  0  0  0  0  0
   -6.6796    0.3061    0.3165 C   0  0  0  0  0  0  0  0  0  0  0  0
   -7.5723    0.5290   -0.3036 H   0  0  0  0  0  0  0  0  0  0  0  0
   -6.4537   -0.7722    0.1642 H   0  0  0  0  0  0  0  0  0  0  0  0
   -6.9716    0.5699    1.7995 C   0  0  0  0  0  0  0  0  0  0  0  0
   -7.8159   -0.0618    2.1459 H   0  0  0  0  0  0  0  0  0  0  0  0
   -7.2998    1.6268    1.9264 H   0  0  0  0  0  0  0  0  0  0  0  0
   -5.7317    0.3197    2.6685 C   0  0  0  0  0  0  0  0  0  0  0  0
   -5.4712   -0.7612    2.6319 H   0  0  0  0  0  0  0  0  0  0  0  0
   -5.9437    0.5548    3.7322 H   0  0  0  0  0  0  0  0  0  0  0  0
   -4.5246    1.1338    2.1811 C   0  0  0  0  0  0  0  0  0  0  0  0
   -4.7301    2.2195    2.3231 H   0  0  0  0  0  0  0  0  0  0  0  0
   -3.6186    0.8911    2.7747 H   0  0  0  0  0  0  0  0  0  0  0  0
    0.2965    1.7082   -1.0025 C   0  0  0  0  0  0  0  0  0  0  0  0
    1.3318    2.4741   -0.4739 C   0  0  0  0  0  0  0  0  0  0  0  0
    1.1259    3.2733    0.2531 H   0  0  0  0  0  0  0  0  0  0  0  0
    2.6885    2.2031   -0.8138 C   0  0  0  0  0  0  0  0  0  0  0  0
    3.7716    2.9412   -0.2523 C   0  0  0  0  0  0  0  0  0  0  0  0
    3.5476    3.7729    0.4344 H   0  0  0  0  0  0  0  0  0  0  0  0
    5.0857    2.6100   -0.5496 C   0  0  0  0  0  0  0  0  0  0  0  0
    5.9123    3.1776   -0.0970 H   0  0  0  0  0  0  0  0  0  0  0  0
    5.3747    1.5299   -1.4252 C   0  0  0  0  0  0  0  0  0  0  0  0
    6.4212    1.2643   -1.6357 H   0  0  0  0  0  0  0  0  0  0  0  0
    4.3420    0.8026   -1.9989 C   0  0  0  0  0  0  0  0  0  0  0  0
    4.5590   -0.0386   -2.6751 H   0  0  0  0  0  0  0  0  0  0  0  0
    2.9821    1.1168   -1.7160 C   0  0  0  0  0  0  0  0  0  0  0  0
    1.8927    0.3956   -2.2887 C   0  0  0  0  0  0  0  0  0  0  0  0
    2.1060   -0.4093   -3.0084 H   0  0  0  0  0  0  0  0  0  0  0  0
    0.5808    0.6893   -1.9628 C   0  0  0  0  0  0  0  0  0  0  0  0
   -0.2520    0.1362   -2.4191 H   0  0  0  0  0  0  0  0  0  0  0  0
  2  1  1  6  0  0  0
  2 10  1  0  0  0  0
  3  2  1  0  0  0  0
  3  4  1  0  0  0  0
  5  3  1  0  0  0  0
  6  3  1  0  0  0  0
  6  8  1  0  0  0  0
  7  6  1  0  0  0  0
  9  1  1  0  0  0  0
  9  6  1  0  0  0  0
 10 24  1  0  0  0  0
 11 10  1  0  0  0  0
 12 14  1  0  0  0  0
 12 15  1  0  0  0  0
 12 10  1  0  0  0  0
 13 12  1  0  0  0  0
 15 18  1  0  0  0  0
 16 15  1  0  0  0  0
 17 15  1  0  0  0  0
 18 20  1  0  0  0  0
 18 19  1  0  0  0  0
 18 21  1  0  0  0  0
 21 23  1  0  0  0  0
 22 21  1  0  0  0  0
 24 25  1  0  0  0  0
 24 21  1  0  0  0  0
 24 26  1  0  0  0  0
 27  9  1  0  0  0  0
 27 28  1  0  0  0  0
 28 29  1  0  0  0  0
 30 28  2  0  0  0  0
 30 31  1  0  0  0  0
 31 32  1  0  0  0  0
 33 31  2  0  0  0  0
 33 34  1  0  0  0  0
 35 33  1  0  0  0  0
 36 35  1  0  0  0  0
 37 39  1  0  0  0  0
 37 35  2  0  0  0  0
 38 37  1  0  0  0  0
 39 30  1  0  0  0  0
 40 42  1  0  0  0  0
 40 39  2  0  0  0  0
 41 40  1  0  0  0  0
 42 27  2  0  0  0  0
 43 42  1  0  0  0  0
M  END
