2
 OpenBabel05122313113D

 43 45  0  0  0  0  0  0  0  0999 V2000
   -0.0182    0.4459   -0.0058 O   0  0  0  0  0  0  0  0  0  0  0  0
    1.2042   -0.1892   -0.0243 C   0  0  0  0  0  2  0  0  0  0  0  0
    2.3081    0.6924   -0.0653 C   0  0  0  0  0  0  0  0  0  0  0  0
    3.3075    0.2515   -0.1799 H   0  0  0  0  0  0  0  0  0  0  0  0
    2.1792    2.0869   -0.0082 C   0  0  0  0  0  0  0  0  0  0  0  0
    3.3871    2.9326   -0.1471 C   0  0  0  0  0  0  0  0  0  0  0  0
    3.3799    4.0561   -1.0058 C   0  0  0  0  0  0  0  0  0  0  0  0
    2.4703    4.2983   -1.5762 H   0  0  0  0  0  0  0  0  0  0  0  0
    4.5312    4.8387   -1.1616 C   0  0  0  0  0  0  0  0  0  0  0  0
    4.5146    5.7026   -1.8430 H   0  0  0  0  0  0  0  0  0  0  0  0
    5.7040    4.5169   -0.4594 C   0  0  0  0  0  0  0  0  0  0  0  0
    6.6061    5.1355   -0.5788 H   0  0  0  0  0  0  0  0  0  0  0  0
    5.7240    3.3992    0.3911 C   0  0  0  0  0  0  0  0  0  0  0  0
    6.6397    3.1430    0.9447 H   0  0  0  0  0  0  0  0  0  0  0  0
    4.5785    2.6071    0.5405 C   0  0  0  0  0  0  0  0  0  0  0  0
    4.5926    1.7401    1.2180 H   0  0  0  0  0  0  0  0  0  0  0  0
    0.8722    2.6615    0.1085 C   0  0  0  0  0  0  0  0  0  0  0  0
   -0.2304    1.7865    0.0382 C   0  0  0  0  0  0  0  0  0  0  0  0
   -1.6210    2.1516    0.0350 C   0  0  0  0  0  0  0  0  0  0  0  0
   -1.8373    3.2280    0.0103 H   0  0  0  0  0  0  0  0  0  0  0  0
   -2.6333    1.2198    0.0170 C   0  0  0  0  0  0  0  0  0  0  0  0
   -2.3663    0.1507    0.0126 H   0  0  0  0  0  0  0  0  0  0  0  0
   -4.0275    1.5364   -0.0041 C   0  0  0  0  0  0  0  0  0  0  0  0
   -4.3118    2.6025   -0.0033 H   0  0  0  0  0  0  0  0  0  0  0  0
   -4.9885    0.5565   -0.0258 C   0  0  0  0  0  0  0  0  0  0  0  0
   -4.6326   -0.4894   -0.0270 H   0  0  0  0  0  0  0  0  0  0  0  0
   -6.4331    0.7282   -0.0486 C   0  0  0  0  0  0  0  0  0  0  0  0
   -7.0639    2.0001   -0.0522 C   0  0  0  0  0  0  0  0  0  0  0  0
   -6.4525    2.9144   -0.0374 H   0  0  0  0  0  0  0  0  0  0  0  0
   -8.4566    2.1067   -0.0751 C   0  0  0  0  0  0  0  0  0  0  0  0
   -8.9275    3.1014   -0.0779 H   0  0  0  0  0  0  0  0  0  0  0  0
   -9.2583    0.9502   -0.0950 C   0  0  0  0  0  0  0  0  0  0  0  0
  -10.3550    1.0395   -0.1131 H   0  0  0  0  0  0  0  0  0  0  0  0
   -8.6530   -0.3169   -0.0918 C   0  0  0  0  0  0  0  0  0  0  0  0
   -9.2735   -1.2255   -0.1074 H   0  0  0  0  0  0  0  0  0  0  0  0
   -7.2581   -0.4257   -0.0689 C   0  0  0  0  0  0  0  0  0  0  0  0
   -6.7826   -1.4190   -0.0667 H   0  0  0  0  0  0  0  0  0  0  0  0
    0.6439    4.1261    0.3904 C   0  0  0  0  0  0  0  0  0  0  0  0
   -0.2651    4.7535   -0.1429 O   0  0  0  0  0  0  0  0  0  0  0  0
    1.4985    4.7833    1.4658 C   0  0  0  0  0  0  0  0  0  0  0  0
    2.2878    4.1363    1.8862 H   0  0  0  0  0  0  0  0  0  0  0  0
    0.8049    5.0890    2.2765 H   0  0  0  0  0  0  0  0  0  0  0  0
    1.9554    5.7092    1.0660 H   0  0  0  0  0  0  0  0  0  0  0  0
  1 18  1  0  0  0  0
  2  1  1  0  0  0  0
  3  2  1  0  0  0  0
  3  5  2  0  0  0  0
  4  3  1  0  0  0  0
  5 17  1  0  0  0  0
  6  5  1  0  0  0  0
  6 15  1  0  0  0  0
  7  6  2  0  0  0  0
  8  7  1  0  0  0  0
  9  7  1  0  0  0  0
  9 11  2  0  0  0  0
 10  9  1  0  0  0  0
 11 13  1  0  0  0  0
 12 11  1  0  0  0  0
 13 15  2  0  0  0  0
 13 14  1  0  0  0  0
 15 16  1  0  0  0  0
 17 38  1  0  0  0  0
 18 17  2  0  0  0  0
 19 18  1  0  0  0  0
 20 19  1  0  0  0  0
 21 19  2  0  0  0  0
 22 21  1  0  0  0  0
 23 24  1  0  0  0  0
 23 21  1  0  0  0  0
 25 23  2  0  0  0  0
 26 25  1  0  0  0  0
 27 25  1  0  0  0  0
 28 27  1  0  0  0  0
 28 29  1  0  0  0  0
 30 28  2  0  0  0  0
 31 30  1  0  0  0  0
 32 34  2  0  0  0  0
 32 30  1  0  0  0  0
 33 32  1  0  0  0  0
 34 36  1  0  0  0  0
 35 34  1  0  0  0  0
 36 37  1  0  0  0  0
 36 27  2  0  0  0  0
 38 40  1  0  0  0  0
 39 38  2  0  0  0  0
 40 41  1  0  0  0  0
 40 42  1  0  0  0  0
 43 40  1  0  0  0  0
M  END
