2
 OpenBabel05122313113D

 39 41  0  0  0  0  0  0  0  0999 V2000
   -0.8059    0.4599   -1.6921 O   0  0  0  0  0  0  0  0  0  0  0  0
   -1.1256    0.4040   -0.3439 C   0  0  0  0  0  2  0  0  0  0  0  0
   -0.0772    0.8270    0.5068 C   0  0  0  0  0  0  0  0  0  0  0  0
   -0.2905    0.8730    1.5835 H   0  0  0  0  0  0  0  0  0  0  0  0
    1.1864    1.2140    0.0470 C   0  0  0  0  0  0  0  0  0  0  0  0
    2.2164    1.6781    1.0034 C   0  0  0  0  0  0  0  0  0  0  0  0
    3.0072    2.8156    0.7218 C   0  0  0  0  0  0  0  0  0  0  0  0
    2.8441    3.3773   -0.2097 H   0  0  0  0  0  0  0  0  0  0  0  0
    3.9751    3.2493    1.6362 C   0  0  0  0  0  0  0  0  0  0  0  0
    4.5750    4.1435    1.4097 H   0  0  0  0  0  0  0  0  0  0  0  0
    4.1779    2.5498    2.8371 C   0  0  0  0  0  0  0  0  0  0  0  0
    4.9458    2.8870    3.5495 H   0  0  0  0  0  0  0  0  0  0  0  0
    3.3953    1.4210    3.1277 C   0  0  0  0  0  0  0  0  0  0  0  0
    3.5511    0.8666    4.0652 H   0  0  0  0  0  0  0  0  0  0  0  0
    2.4153    0.9928    2.2228 C   0  0  0  0  0  0  0  0  0  0  0  0
    1.8143    0.0982    2.4463 H   0  0  0  0  0  0  0  0  0  0  0  0
    1.4406    1.1599   -1.3661 C   0  0  0  0  0  0  0  0  0  0  0  0
    0.3901    0.8088   -2.2008 C   0  0  0  0  0  0  0  0  0  0  0  0
    0.4313    0.7369   -3.6919 C   0  0  0  0  0  0  0  0  0  0  0  0
   -0.5874    0.5661   -4.0842 H   0  0  0  0  0  0  0  0  0  0  0  0
    1.0851   -0.0969   -4.0234 H   0  0  0  0  0  0  0  0  0  0  0  0
    0.8595    1.6692   -4.1047 H   0  0  0  0  0  0  0  0  0  0  0  0
    2.7936    1.4529   -1.9897 C   0  0  0  0  0  0  0  0  0  0  0  0
    2.9091    2.3481   -2.8305 O   0  0  0  0  0  0  0  0  0  0  0  0
    3.9401    0.6201   -1.5950 C   0  0  0  0  0  0  0  0  0  0  0  0
    4.8984    0.9732   -2.0081 H   0  0  0  0  0  0  0  0  0  0  0  0
    3.8532   -0.5058   -0.8332 C   0  0  0  0  0  0  0  0  0  0  0  0
    2.8532   -0.8078   -0.4765 H   0  0  0  0  0  0  0  0  0  0  0  0
    4.9412   -1.3821   -0.4134 C   0  0  0  0  0  0  0  0  0  0  0  0
    6.2946   -1.1577   -0.7707 C   0  0  0  0  0  0  0  0  0  0  0  0
    6.5574   -0.2945   -1.3995 H   0  0  0  0  0  0  0  0  0  0  0  0
    7.2995   -2.0228   -0.3302 C   0  0  0  0  0  0  0  0  0  0  0  0
    8.3454   -1.8354   -0.6162 H   0  0  0  0  0  0  0  0  0  0  0  0
    6.9794   -3.1308    0.4763 C   0  0  0  0  0  0  0  0  0  0  0  0
    7.7745   -3.8094    0.8204 H   0  0  0  0  0  0  0  0  0  0  0  0
    5.6444   -3.3681    0.8400 C   0  0  0  0  0  0  0  0  0  0  0  0
    5.3883   -4.2329    1.4701 H   0  0  0  0  0  0  0  0  0  0  0  0
    4.6367   -2.5024    0.3986 C   0  0  0  0  0  0  0  0  0  0  0  0
    3.5886   -2.6857    0.6832 H   0  0  0  0  0  0  0  0  0  0  0  0
  1  2  1  0  0  0  0
  2  3  1  0  0  0  0
  3  4  1  0  0  0  0
  5  3  2  0  0  0  0
  5  6  1  0  0  0  0
  6 15  1  0  0  0  0
  7  6  2  0  0  0  0
  7  9  1  0  0  0  0
  8  7  1  0  0  0  0
  9 11  2  0  0  0  0
 10  9  1  0  0  0  0
 11 13  1  0  0  0  0
 11 12  1  0  0  0  0
 13 14  1  0  0  0  0
 15 16  1  0  0  0  0
 15 13  2  0  0  0  0
 17  5  1  0  0  0  0
 18  1  1  0  0  0  0
 18 17  2  0  0  0  0
 19 18  1  0  0  0  0
 20 19  1  0  0  0  0
 21 19  1  0  0  0  0
 22 19  1  0  0  0  0
 23 25  1  0  0  0  0
 23 17  1  0  0  0  0
 24 23  2  0  0  0  0
 25 27  2  0  0  0  0
 26 25  1  0  0  0  0
 27 28  1  0  0  0  0
 27 29  1  0  0  0  0
 29 38  1  0  0  0  0
 30 29  2  0  0  0  0
 30 32  1  0  0  0  0
 31 30  1  0  0  0  0
 32 34  2  0  0  0  0
 33 32  1  0  0  0  0
 34 35  1  0  0  0  0
 34 36  1  0  0  0  0
 36 37  1  0  0  0  0
 38 39  1  0  0  0  0
 38 36  2  0  0  0  0
M  END
