2
 OpenBabel05122313113D

 39 41  0  0  0  0  0  0  0  0999 V2000
   -0.6267    0.2388   -0.0272 O   0  0  0  0  0  0  0  0  0  0  0  0
    0.7124   -0.0884   -0.0336 C   0  0  0  0  0  2  0  0  0  0  0  0
    1.5744    1.0322   -0.0659 C   0  0  0  0  0  0  0  0  0  0  0  0
    2.6507    0.8423   -0.1746 H   0  0  0  0  0  0  0  0  0  0  0  0
    1.1170    2.3544   -0.0063 C   0  0  0  0  0  0  0  0  0  0  0  0
    2.0874    3.4652   -0.1371 C   0  0  0  0  0  0  0  0  0  0  0  0
    3.3223    3.4295    0.5499 C   0  0  0  0  0  0  0  0  0  0  0  0
    3.5435    2.5872    1.2226 H   0  0  0  0  0  0  0  0  0  0  0  0
    4.2455    4.4731    0.4061 C   0  0  0  0  0  0  0  0  0  0  0  0
    5.1961    4.4398    0.9592 H   0  0  0  0  0  0  0  0  0  0  0  0
    3.9588    5.5585   -0.4381 C   0  0  0  0  0  0  0  0  0  0  0  0
    4.6872    6.3752   -0.5532 H   0  0  0  0  0  0  0  0  0  0  0  0
    2.7428    5.5952   -1.1396 C   0  0  0  0  0  0  0  0  0  0  0  0
    2.5202    6.4340   -1.8161 H   0  0  0  0  0  0  0  0  0  0  0  0
    1.8116    4.5597   -0.9892 C   0  0  0  0  0  0  0  0  0  0  0  0
    0.8703    4.5812   -1.5593 H   0  0  0  0  0  0  0  0  0  0  0  0
   -0.2918    2.5994    0.1053 C   0  0  0  0  0  0  0  0  0  0  0  0
   -0.8636    3.9643    0.4022 C   0  0  0  0  0  0  0  0  0  0  0  0
   -1.8964    4.3632   -0.1257 O   0  0  0  0  0  0  0  0  0  0  0  0
   -0.1887    4.7947    1.4853 C   0  0  0  0  0  0  0  0  0  0  0  0
    0.7209    4.3395    1.9141 H   0  0  0  0  0  0  0  0  0  0  0  0
   -0.9413    4.9393    2.2878 H   0  0  0  0  0  0  0  0  0  0  0  0
    0.0563    5.7989    1.0881 H   0  0  0  0  0  0  0  0  0  0  0  0
   -1.1508    1.4882    0.0209 C   0  0  0  0  0  0  0  0  0  0  0  0
   -2.5931    1.5159    0.0067 C   0  0  0  0  0  0  0  0  0  0  0  0
   -3.0424    2.5168   -0.0206 H   0  0  0  0  0  0  0  0  0  0  0  0
   -3.3474    0.3744   -0.0221 C   0  0  0  0  0  0  0  0  0  0  0  0
   -2.8170   -0.5906   -0.0274 H   0  0  0  0  0  0  0  0  0  0  0  0
   -4.7986    0.2850   -0.0550 C   0  0  0  0  0  0  0  0  0  0  0  0
   -5.6506    1.4195   -0.0502 C   0  0  0  0  0  0  0  0  0  0  0  0
   -5.2169    2.4301   -0.0205 H   0  0  0  0  0  0  0  0  0  0  0  0
   -7.0385    1.2643   -0.0829 C   0  0  0  0  0  0  0  0  0  0  0  0
   -7.6880    2.1526   -0.0790 H   0  0  0  0  0  0  0  0  0  0  0  0
   -7.6086   -0.0225   -0.1209 C   0  0  0  0  0  0  0  0  0  0  0  0
   -8.7027   -0.1386   -0.1464 H   0  0  0  0  0  0  0  0  0  0  0  0
   -6.7797   -1.1561   -0.1264 C   0  0  0  0  0  0  0  0  0  0  0  0
   -7.2212   -2.1635   -0.1569 H   0  0  0  0  0  0  0  0  0  0  0  0
   -5.3889   -1.0045   -0.0940 C   0  0  0  0  0  0  0  0  0  0  0  0
   -4.7307   -1.8876   -0.1002 H   0  0  0  0  0  0  0  0  0  0  0  0
  1 24  1  0  0  0  0
  2  1  1  0  0  0  0
  3  2  1  0  0  0  0
  3  5  2  0  0  0  0
  4  3  1  0  0  0  0
  5 17  1  0  0  0  0
  6  5  1  0  0  0  0
  6  7  1  0  0  0  0
  7  8  1  0  0  0  0
  9  7  2  0  0  0  0
  9 10  1  0  0  0  0
 11  9  1  0  0  0  0
 12 11  1  0  0  0  0
 13 15  1  0  0  0  0
 13 11  2  0  0  0  0
 14 13  1  0  0  0  0
 15  6  2  0  0  0  0
 16 15  1  0  0  0  0
 17 18  1  0  0  0  0
 18 20  1  0  0  0  0
 19 18  2  0  0  0  0
 20 21  1  0  0  0  0
 20 22  1  0  0  0  0
 23 20  1  0  0  0  0
 24 17  2  0  0  0  0
 25 24  1  0  0  0  0
 26 25  1  0  0  0  0
 27 25  2  0  0  0  0
 28 27  1  0  0  0  0
 29 30  1  0  0  0  0
 29 27  1  0  0  0  0
 30 31  1  0  0  0  0
 32 33  1  0  0  0  0
 32 30  2  0  0  0  0
 34 32  1  0  0  0  0
 35 34  1  0  0  0  0
 36 34  2  0  0  0  0
 36 38  1  0  0  0  0
 37 36  1  0  0  0  0
 38 29  2  0  0  0  0
 39 38  1  0  0  0  0
M  END
