9
 OpenBabel05122313113D

 14 13  0  0  0  0  0  0  0  0999 V2000
    2.0923    2.6847    0.6055 Cl  0  0  0  0  0  0  0  0  0  0  0  0
    4.2884    2.1806   -1.1973 Cl  0  0  0  0  0  0  0  0  0  0  0  0
    4.4967    1.4005    1.6122 Cl  0  0  0  0  0  0  0  0  0  0  0  0
    2.8797   -2.4968   -1.0248 Cl  0  0  0  0  0  0  0  0  0  0  0  0
    4.0968   -1.7887    1.5088 Cl  0  0  0  0  0  0  0  0  0  0  0  0
    5.2737   -0.8527   -0.9893 Cl  0  0  0  0  0  0  0  0  0  0  0  0
    2.2237    0.2679   -1.4257 O   0  0  0  0  0  0  0  0  0  0  0  0
    1.5032   -0.3870   -1.5952 H   0  0  0  0  0  0  0  0  0  0  0  0
    0.5049   -0.7097    0.5009 C   0  0  0  0  0  1  0  0  0  0  0  0
    1.6524   -0.1805    0.9074 C   0  0  0  0  0  3  0  0  0  0  0  0
    1.8736    0.0289    1.9657 H   0  0  0  0  0  0  0  0  0  0  0  0
    2.7208    0.1041   -0.1403 C   0  0  0  0  0  0  0  0  0  0  0  0
    3.4009    1.5081    0.1985 C   0  0  0  0  0  0  0  0  0  0  0  0
    3.7345   -1.1654   -0.1418 C   0  0  0  0  0  0  0  0  0  0  0  0
  2 13  1  0  0  0  0
  4 14  1  0  0  0  0
  6 14  1  0  0  0  0
  7 12  1  0  0  0  0
  8  7  1  0  0  0  0
  9 10  1  0  0  0  0
 10 11  1  0  0  0  0
 12 13  1  0  0  0  0
 12 10  1  0  0  0  0
 13  1  1  0  0  0  0
 13  3  1  0  0  0  0
 14 12  1  0  0  0  0
 14  5  1  0  0  0  0
M  END
