10
 OpenBabel05122313113D

 31 32  0  0  0  0  0  0  0  0999 V2000
    1.1480   -1.4835    0.4780 N   0  0  0  0  0  0  0  0  0  0  0  0
    3.3043   -0.8696   -0.5835 C   0  0  0  0  0  0  0  0  0  0  0  0
    4.6571   -0.6259   -0.3011 C   0  0  0  0  0  0  0  0  0  0  0  0
    5.3195    0.4251   -0.9556 C   0  0  0  0  0  0  0  0  0  0  0  0
    4.6311    1.2284   -1.8803 C   0  0  0  0  0  0  0  0  0  0  0  0
    3.2738    0.9912   -2.1540 C   0  0  0  0  0  0  0  0  0  0  0  0
    2.6149   -0.0650   -1.5061 C   0  0  0  0  0  0  0  0  0  0  0  0
    1.1537   -0.3961   -1.6665 C   0  0  0  0  0  0  0  0  0  0  0  0
    2.4966   -1.9711    0.0424 C   0  0  0  0  0  0  0  0  0  0  0  0
    0.4896   -0.6620   -0.3211 C   0  0  0  0  0  2  0  0  0  0  0  0
    0.7102   -1.9913    1.8475 C   0  0  0  0  0  0  0  0  0  0  0  0
   -0.7701   -1.7295    2.1337 C   0  0  0  0  0  0  0  0  0  0  0  0
    0.9233   -3.5199    1.8815 C   0  0  0  0  0  0  0  0  0  0  0  0
    1.5678   -1.2865    2.9126 C   0  0  0  0  0  0  0  0  0  0  0  0
    5.1954   -1.2538    0.4261 H   0  0  0  0  0  0  0  0  0  0  0  0
    6.3801    0.6210   -0.7403 H   0  0  0  0  0  0  0  0  0  0  0  0
    5.1559    2.0498   -2.3904 H   0  0  0  0  0  0  0  0  0  0  0  0
    2.7307    1.6248   -2.8724 H   0  0  0  0  0  0  0  0  0  0  0  0
    1.0498   -1.3381   -2.2603 H   0  0  0  0  0  0  0  0  0  0  0  0
    0.6036    0.3850   -2.2215 H   0  0  0  0  0  0  0  0  0  0  0  0
    2.3311   -2.7986   -0.6840 H   0  0  0  0  0  0  0  0  0  0  0  0
    3.0210   -2.4032    0.9092 H   0  0  0  0  0  0  0  0  0  0  0  0
   -1.4249   -2.2780    1.4321 H   0  0  0  0  0  0  0  0  0  0  0  0
   -1.0376   -0.6540    2.0937 H   0  0  0  0  0  0  0  0  0  0  0  0
   -0.9910   -2.0978    3.1543 H   0  0  0  0  0  0  0  0  0  0  0  0
    0.4061   -4.0116    1.0335 H   0  0  0  0  0  0  0  0  0  0  0  0
    0.4889   -3.9186    2.8177 H   0  0  0  0  0  0  0  0  0  0  0  0
    1.9865   -3.8228    1.8666 H   0  0  0  0  0  0  0  0  0  0  0  0
    1.3221   -0.2082    2.9616 H   0  0  0  0  0  0  0  0  0  0  0  0
    2.6545   -1.3888    2.7255 H   0  0  0  0  0  0  0  0  0  0  0  0
    1.3591   -1.7267    3.9066 H   0  0  0  0  0  0  0  0  0  0  0  0
  1 11  1  0  0  0  0
  2  3  1  0  0  0  0
  2  9  1  0  0  0  0
  3 15  1  0  0  0  0
  4 16  1  0  0  0  0
  4  3  2  0  0  0  0
  5  4  1  0  0  0  0
  6  5  2  0  0  0  0
  6  7  1  0  0  0  0
  7  2  2  0  0  0  0
  8  7  1  0  0  0  0
  8 10  1  0  0  0  0
  9  1  1  0  0  0  0
  9 22  1  0  0  0  0
 10  1  1  0  0  0  0
 11 13  1  0  0  0  0
 11 12  1  0  0  0  0
 11 14  1  0  0  0  0
 12 25  1  0  0  0  0
 13 27  1  0  0  0  0
 14 29  1  0  0  0  0
 14 31  1  0  0  0  0
 17  5  1  0  0  0  0
 18  6  1  0  0  0  0
 19  8  1  0  0  0  0
 20  8  1  0  0  0  0
 21  9  1  0  0  0  0
 23 12  1  0  0  0  0
 24 12  1  0  0  0  0
 26 13  1  0  0  0  0
 28 13  1  0  0  0  0
 30 14  1  0  0  0  0
M  END
