3
 OpenBabel05122313113D

 50 52  0  0  0  0  0  0  0  0999 V2000
   -1.4609   -2.1124   -0.0168 N   0  0  0  0  0  0  0  0  0  0  0  0
    0.6621   -2.5555    0.0328 N   0  0  0  0  0  0  0  0  0  0  0  0
   -0.2258   -1.4972    0.0026 C   0  0  0  0  0  2  0  0  0  0  0  0
   -1.3451   -3.4960    0.0056 C   0  0  0  0  0  0  0  0  0  0  0  0
   -2.2153   -4.1579   -0.0067 H   0  0  0  0  0  0  0  0  0  0  0  0
   -0.0083   -3.7791    0.0347 C   0  0  0  0  0  0  0  0  0  0  0  0
    0.5353   -4.7275    0.0543 H   0  0  0  0  0  0  0  0  0  0  0  0
   -2.7409   -1.3869   -0.0111 C   0  0  0  0  0  0  0  0  0  0  0  0
   -2.4578   -0.3187   -0.1273 H   0  0  0  0  0  0  0  0  0  0  0  0
   -3.6034   -1.7895   -1.2312 C   0  0  0  0  0  0  0  0  0  0  0  0
   -4.3682   -2.5273   -0.9112 H   0  0  0  0  0  0  0  0  0  0  0  0
   -2.9472   -2.3170   -1.9518 H   0  0  0  0  0  0  0  0  0  0  0  0
   -4.2481   -0.6094   -1.9818 C   0  0  0  0  0  0  0  0  0  0  0  0
   -3.4457   -0.1224   -2.5747 H   0  0  0  0  0  0  0  0  0  0  0  0
   -4.9791   -1.0168   -2.7139 H   0  0  0  0  0  0  0  0  0  0  0  0
   -4.9202    0.4785   -1.1375 C   0  0  0  0  0  0  0  0  0  0  0  0
   -5.2346    1.2918   -1.8258 H   0  0  0  0  0  0  0  0  0  0  0  0
   -4.1586    0.9524   -0.4819 H   0  0  0  0  0  0  0  0  0  0  0  0
   -6.1335    0.0771   -0.2908 C   0  0  0  0  0  0  0  0  0  0  0  0
   -6.9386   -0.3072   -0.9555 H   0  0  0  0  0  0  0  0  0  0  0  0
   -6.5415    1.0073    0.1630 H   0  0  0  0  0  0  0  0  0  0  0  0
   -5.8939   -0.9397    0.8433 C   0  0  0  0  0  0  0  0  0  0  0  0
   -5.8746   -1.9737    0.4383 H   0  0  0  0  0  0  0  0  0  0  0  0
   -6.7857   -0.9125    1.5039 H   0  0  0  0  0  0  0  0  0  0  0  0
   -4.6279   -0.7063    1.6966 C   0  0  0  0  0  0  0  0  0  0  0  0
   -4.3360    0.3666    1.6721 H   0  0  0  0  0  0  0  0  0  0  0  0
   -4.8691   -0.9092    2.7605 H   0  0  0  0  0  0  0  0  0  0  0  0
   -3.4018   -1.5697    1.3677 C   0  0  0  0  0  0  0  0  0  0  0  0
   -3.6758   -2.6439    1.4768 H   0  0  0  0  0  0  0  0  0  0  0  0
   -2.6146   -1.3561    2.1192 H   0  0  0  0  0  0  0  0  0  0  0  0
    2.0900   -2.4511    0.0611 C   0  0  0  0  0  0  0  0  0  0  0  0
    2.7894   -2.3995   -1.1640 C   0  0  0  0  0  0  0  0  0  0  0  0
    4.1865   -2.2462   -1.1074 C   0  0  0  0  0  0  0  0  0  0  0  0
    4.7514   -2.1898   -2.0517 H   0  0  0  0  0  0  0  0  0  0  0  0
    4.8742   -2.1416    0.1172 C   0  0  0  0  0  0  0  0  0  0  0  0
    4.1318   -2.1956    1.3132 C   0  0  0  0  0  0  0  0  0  0  0  0
    4.6539   -2.0997    2.2787 H   0  0  0  0  0  0  0  0  0  0  0  0
    2.7342   -2.3499    1.3135 C   0  0  0  0  0  0  0  0  0  0  0  0
    2.0452   -2.4244   -2.4720 C   0  0  0  0  0  0  0  0  0  0  0  0
    2.7446   -2.4471   -3.3286 H   0  0  0  0  0  0  0  0  0  0  0  0
    1.3953   -1.5275   -2.5723 H   0  0  0  0  0  0  0  0  0  0  0  0
    1.3743   -3.3049   -2.5455 H   0  0  0  0  0  0  0  0  0  0  0  0
    6.3755   -1.9981    0.1493 C   0  0  0  0  0  0  0  0  0  0  0  0
    6.8674   -2.9917    0.2272 H   0  0  0  0  0  0  0  0  0  0  0  0
    6.7100   -1.4017    1.0210 H   0  0  0  0  0  0  0  0  0  0  0  0
    6.7599   -1.5155   -0.7707 H   0  0  0  0  0  0  0  0  0  0  0  0
    1.9316   -2.3367    2.5868 C   0  0  0  0  0  0  0  0  0  0  0  0
    2.5914   -2.2966    3.4736 H   0  0  0  0  0  0  0  0  0  0  0  0
    1.2876   -3.2362    2.6722 H   0  0  0  0  0  0  0  0  0  0  0  0
    1.2489   -1.4594    2.6158 H   0  0  0  0  0  0  0  0  0  0  0  0
  1  8  1  0  0  0  0
  1  3  1  0  0  0  0
  1  4  1  0  0  0  0
  2  6  1  0  0  0  0
  2 31  1  0  0  0  0
  3  2  1  0  0  0  0
  4  6  2  0  0  0  0
  5  4  1  0  0  0  0
  6  7  1  0  0  0  0
  8 28  1  0  0  0  0
  9  8  1  0  0  0  0
 10 11  1  0  0  0  0
 10  8  1  0  0  0  0
 12 10  1  0  0  0  0
 13 10  1  0  0  0  0
 13 16  1  0  0  0  0
 14 13  1  0  0  0  0
 15 13  1  0  0  0  0
 16 18  1  0  0  0  0
 16 19  1  0  0  0  0
 17 16  1  0  0  0  0
 19 21  1  0  0  0  0
 19 22  1  0  0  0  0
 20 19  1  0  0  0  0
 22 24  1  0  0  0  0
 22 25  1  0  0  0  0
 23 22  1  0  0  0  0
 25 27  1  0  0  0  0
 26 25  1  0  0  0  0
 28 29  1  0  0  0  0
 28 25  1  0  0  0  0
 28 30  1  0  0  0  0
 31 38  1  0  0  0  0
 32 33  1  0  0  0  0
 32 31  2  0  0  0  0
 33 35  2  0  0  0  0
 34 33  1  0  0  0  0
 35 43  1  0  0  0  0
 35 36  1  0  0  0  0
 36 38  2  0  0  0  0
 36 37  1  0  0  0  0
 38 47  1  0  0  0  0
 39 32  1  0  0  0  0
 40 39  1  0  0  0  0
 41 39  1  0  0  0  0
 42 39  1  0  0  0  0
 43 44  1  0  0  0  0
 43 45  1  0  0  0  0
 46 43  1  0  0  0  0
 47 50  1  0  0  0  0
 47 49  1  0  0  0  0
 47 48  1  0  0  0  0
M  END
