2
 OpenBabel05122313113D

 29 30  0  0  0  0  0  0  0  0999 V2000
   -0.1199    2.5350   -0.1155 O   0  0  0  0  0  0  0  0  0  0  0  0
    1.3100    0.3346    0.0432 C   0  0  0  0  0  2  0  0  0  0  0  0
    1.9223   -0.5751    0.1457 H   0  0  0  0  0  0  0  0  0  0  0  0
   -1.1094    3.6096   -0.0088 C   0  0  0  0  0  0  0  0  0  0  0  0
   -0.8144    4.3817   -0.7528 H   0  0  0  0  0  0  0  0  0  0  0  0
   -2.4471    3.0086   -0.4136 C   0  0  0  0  0  0  0  0  0  0  0  0
   -2.3853    2.5397   -1.4139 H   0  0  0  0  0  0  0  0  0  0  0  0
   -3.2151    3.8074   -0.4326 H   0  0  0  0  0  0  0  0  0  0  0  0
   -2.7660    2.2383    0.3180 H   0  0  0  0  0  0  0  0  0  0  0  0
   -1.1079    4.1763    1.4060 C   0  0  0  0  0  0  0  0  0  0  0  0
   -1.3660    3.3708    2.1211 H   0  0  0  0  0  0  0  0  0  0  0  0
   -1.8555    4.9911    1.4825 H   0  0  0  0  0  0  0  0  0  0  0  0
   -0.1194    4.5880    1.6877 H   0  0  0  0  0  0  0  0  0  0  0  0
    1.2227    2.7720   -0.1246 C   0  0  0  0  0  0  0  0  0  0  0  0
    1.7994    4.0588   -0.2316 C   0  0  0  0  0  0  0  0  0  0  0  0
    1.1692    4.9541   -0.3052 H   0  0  0  0  0  0  0  0  0  0  0  0
    3.1823    4.1800   -0.2466 C   0  0  0  0  0  0  0  0  0  0  0  0
    3.6391    5.1782   -0.3305 H   0  0  0  0  0  0  0  0  0  0  0  0
    4.0357    3.0432   -0.1568 C   0  0  0  0  0  0  0  0  0  0  0  0
    3.4487    1.7283   -0.0533 C   0  0  0  0  0  0  0  0  0  0  0  0
    2.0077    1.5982   -0.0387 C   0  0  0  0  0  0  0  0  0  0  0  0
    4.3242    0.6082    0.0271 C   0  0  0  0  0  0  0  0  0  0  0  0
    3.9051   -0.4034    0.1012 H   0  0  0  0  0  0  0  0  0  0  0  0
    5.7031    0.7738    0.0103 C   0  0  0  0  0  0  0  0  0  0  0  0
    6.3545   -0.1114    0.0733 H   0  0  0  0  0  0  0  0  0  0  0  0
    6.2787    2.0672   -0.0889 C   0  0  0  0  0  0  0  0  0  0  0  0
    7.3728    2.1841   -0.1018 H   0  0  0  0  0  0  0  0  0  0  0  0
    5.4549    3.1791   -0.1710 C   0  0  0  0  0  0  0  0  0  0  0  0
    5.8848    4.1900   -0.2505 H   0  0  0  0  0  0  0  0  0  0  0  0
  1  4  1  0  0  0  0
  2  3  1  0  0  0  0
  4 10  1  0  0  0  0
  5  4  1  0  0  0  0
  6  4  1  0  0  0  0
  6  9  1  0  0  0  0
  7  6  1  0  0  0  0
  8  6  1  0  0  0  0
 10 12  1  0  0  0  0
 10 13  1  0  0  0  0
 10 11  1  0  0  0  0
 14  1  1  0  0  0  0
 14 21  1  0  0  0  0
 15 14  2  0  0  0  0
 16 15  1  0  0  0  0
 17 15  1  0  0  0  0
 17 19  2  0  0  0  0
 18 17  1  0  0  0  0
 19 20  1  0  0  0  0
 20 21  2  0  0  0  0
 20 22  1  0  0  0  0
 21  2  1  0  0  0  0
 22 23  1  0  0  0  0
 24 22  2  0  0  0  0
 24 25  1  0  0  0  0
 26 24  1  0  0  0  0
 27 26  1  0  0  0  0
 28 19  1  0  0  0  0
 28 26  2  0  0  0  0
 29 28  1  0  0  0  0
M  END
