1
 OpenBabel05122313113D

 10  9  0  0  0  0  0  0  0  0999 V2000
    0.0636    1.5137   -1.2022 C   0  0  0  0  0  3  0  0  0  0  0  0
   -0.0193    1.7690    0.1925 C   0  0  0  0  0  3  0  0  0  0  0  0
    0.7807    2.8223    0.9354 C   0  0  0  0  0  0  0  0  0  0  0  0
   -0.0420    3.9649    1.1428 O   0  0  0  0  0  0  0  0  0  0  0  0
    0.8411    2.0121   -1.8052 H   0  0  0  0  0  0  0  0  0  0  0  0
   -0.8193    1.1438   -1.7491 H   0  0  0  0  0  0  0  0  0  0  0  0
   -0.9846    1.5591    0.6894 H   0  0  0  0  0  0  0  0  0  0  0  0
    1.7298    3.0409    0.3997 H   0  0  0  0  0  0  0  0  0  0  0  0
    1.0524    2.4434    1.9417 H   0  0  0  0  0  0  0  0  0  0  0  0
   -0.2018    4.3567    0.2641 H   0  0  0  0  0  0  0  0  0  0  0  0
  1  2  1  0  0  0  0
  2  7  1  0  0  0  0
  2  3  1  0  0  0  0
  3  4  1  0  0  0  0
  3  9  1  0  0  0  0
  5  1  1  0  0  0  0
  6  1  1  0  0  0  0
  8  3  1  0  0  0  0
 10  4  1  0  0  0  0
M  END
