5
 OpenBabel05122313113D

  6  5  0  0  0  0  0  0  0  0999 V2000
   -1.2880   -0.4670   -1.4514 S   0  0  0  0  0  0  0  0  0  0  0  0
   -2.5898   -0.3873   -0.3051 C   0  0  0  0  0  0  0  0  0  0  0  0
   -4.1886   -0.4164   -0.7332 S   0  0  0  0  0  0  0  0  0  0  0  0
    0.2785    0.2384    2.9357 S   0  0  0  0  0  0  0  0  0  0  0  0
   -0.4034   -0.1038    1.4622 C   0  0  0  0  0  0  0  0  0  0  0  0
   -2.1570   -0.2176    1.4189 S   0  0  0  0  0  0  0  0  0  0  0  0
  1  2  2  0  0  0  0
  2  6  1  0  0  0  0
  3  2  1  0  0  0  0
  5  4  2  0  0  0  0
  6  5  1  0  0  0  0
M  END
