5
 OpenBabel05122313113D

 31 33  0  0  1  0  0  0  0  0999 V2000
   -0.7831   -1.8338   -0.5293 O   0  0  0  0  0  0  0  0  0  0  0  0
    1.1212   -2.9392   -0.1514 O   0  0  0  0  0  0  0  0  0  0  0  0
   -1.3576   -0.5670   -0.7304 C   0  0  1  0  0  3  0  0  0  0  0  0
   -0.7376    0.2890   -1.7120 C   0  0  0  0  0  3  0  0  0  0  0  0
    0.6795    0.2696   -1.6864 C   0  0  0  0  0  3  0  0  0  0  0  0
    1.2785   -0.5775   -0.6719 C   0  0  1  0  0  3  0  0  0  0  0  0
    0.5876   -1.8875   -0.4172 C   0  0  0  0  0  0  0  0  0  0  0  0
    2.7402   -0.5327   -0.3862 C   0  0  0  0  0  0  0  0  0  0  0  0
    3.6568    0.0615   -1.2787 C   0  0  0  0  0  0  0  0  0  0  0  0
    5.0244    0.1199   -0.9735 C   0  0  0  0  0  0  0  0  0  0  0  0
    5.5020   -0.4158    0.2311 C   0  0  0  0  0  0  0  0  0  0  0  0
    4.5999   -1.0129    1.1272 C   0  0  0  0  0  0  0  0  0  0  0  0
    3.2355   -1.0721    0.8227 C   0  0  0  0  0  0  0  0  0  0  0  0
   -2.8059   -0.5693   -0.4243 C   0  0  0  0  0  0  0  0  0  0  0  0
   -3.3569   -1.6206    0.3423 C   0  0  0  0  0  0  0  0  0  0  0  0
   -4.7230   -1.6350    0.6513 C   0  0  0  0  0  0  0  0  0  0  0  0
   -5.5656   -0.6088    0.1966 C   0  0  0  0  0  0  0  0  0  0  0  0
   -5.0284    0.4361   -0.5729 C   0  0  0  0  0  0  0  0  0  0  0  0
   -3.6626    0.4588   -0.8790 C   0  0  0  0  0  0  0  0  0  0  0  0
   -1.3028    0.9527   -2.3801 H   0  0  0  0  0  0  0  0  0  0  0  0
    1.2733    0.9072   -2.3553 H   0  0  0  0  0  0  0  0  0  0  0  0
    3.3096    0.4735   -2.2377 H   0  0  0  0  0  0  0  0  0  0  0  0
    5.7211    0.5845   -1.6875 H   0  0  0  0  0  0  0  0  0  0  0  0
    6.5748   -0.3691    0.4719 H   0  0  0  0  0  0  0  0  0  0  0  0
    4.9628   -1.4359    2.0761 H   0  0  0  0  0  0  0  0  0  0  0  0
    2.5370   -1.5375    1.5319 H   0  0  0  0  0  0  0  0  0  0  0  0
   -2.6986   -2.4284    0.6887 H   0  0  0  0  0  0  0  0  0  0  0  0
   -5.1334   -2.4605    1.2524 H   0  0  0  0  0  0  0  0  0  0  0  0
   -6.6386   -0.6219    0.4399 H   0  0  0  0  0  0  0  0  0  0  0  0
   -5.6787    1.2455   -0.9371 H   0  0  0  0  0  0  0  0  0  0  0  0
   -3.2660    1.2942   -1.4736 H   0  0  0  0  0  0  0  0  0  0  0  0
  1  7  1  0  0  0  0
  3  1  1  0  0  0  0
  3 14  1  6  0  0  0
  4  5  1  0  0  0  0
  4  3  1  0  0  0  0
  5  6  1  0  0  0  0
  6  7  1  0  0  0  0
  6  8  1  6  0  0  0
  7  2  2  0  0  0  0
  8 13  1  0  0  0  0
  9 10  1  0  0  0  0
  9  8  2  0  0  0  0
 10 11  2  0  0  0  0
 11 24  1  0  0  0  0
 11 12  1  0  0  0  0
 12 25  1  0  0  0  0
 13 12  2  0  0  0  0
 13 26  1  0  0  0  0
 14 15  1  0  0  0  0
 15 16  2  0  0  0  0
 15 27  1  0  0  0  0
 16 28  1  0  0  0  0
 17 29  1  0  0  0  0
 17 16  1  0  0  0  0
 18 17  2  0  0  0  0
 19 18  1  0  0  0  0
 19 14  2  0  0  0  0
 20  4  1  0  0  0  0
 21  5  1  0  0  0  0
 22  9  1  0  0  0  0
 23 10  1  0  0  0  0
 30 18  1  0  0  0  0
 31 19  1  0  0  0  0
M  END
