1
 OpenBabel05122313113D

 23 22  0  0  0  0  0  0  0  0999 V2000
   -1.1302    0.7537    0.1300 C   0  0  0  0  0  2  0  0  0  0  0  0
   -2.1888   -0.2787    0.3371 C   0  0  0  0  0  0  0  0  0  0  0  0
   -2.5934   -0.7022    1.5665 C   0  0  0  0  0  0  0  0  0  0  0  0
   -2.1422   -0.1343    2.8729 C   0  0  0  0  0  0  0  0  0  0  0  0
   -2.8080   -0.7941   -0.9352 C   0  0  0  0  0  0  0  0  0  0  0  0
   -2.7406   -0.1121   -1.9551 O   0  0  0  0  0  0  0  0  0  0  0  0
   -3.4872   -2.1492   -0.9308 C   0  0  0  0  0  0  0  0  0  0  0  0
   -1.5647    2.0005   -0.0255 N   0  0  0  0  0  0  0  0  0  0  0  0
   -2.9798    2.3877   -0.0673 C   0  0  0  0  0  0  0  0  0  0  0  0
   -0.6658    3.1169   -0.3134 C   0  0  0  0  0  0  0  0  0  0  0  0
   -3.3317   -1.5201    1.6134 H   0  0  0  0  0  0  0  0  0  0  0  0
   -1.7809   -0.9384    3.5472 H   0  0  0  0  0  0  0  0  0  0  0  0
   -2.9884    0.3579    3.4014 H   0  0  0  0  0  0  0  0  0  0  0  0
   -1.3303    0.6080    2.7486 H   0  0  0  0  0  0  0  0  0  0  0  0
   -3.8604   -2.3562   -1.9494 H   0  0  0  0  0  0  0  0  0  0  0  0
   -4.3346   -2.1845   -0.2168 H   0  0  0  0  0  0  0  0  0  0  0  0
   -2.7673   -2.9372   -0.6308 H   0  0  0  0  0  0  0  0  0  0  0  0
   -3.6129    1.5606    0.2936 H   0  0  0  0  0  0  0  0  0  0  0  0
   -3.2661    2.6318   -1.1102 H   0  0  0  0  0  0  0  0  0  0  0  0
   -3.1401    3.2800    0.5700 H   0  0  0  0  0  0  0  0  0  0  0  0
    0.3595    2.8596   -0.0053 H   0  0  0  0  0  0  0  0  0  0  0  0
   -1.0061    4.0163    0.2359 H   0  0  0  0  0  0  0  0  0  0  0  0
   -0.6721    3.3400   -1.4002 H   0  0  0  0  0  0  0  0  0  0  0  0
  1  2  1  0  0  0  0
  2  3  2  0  0  0  0
  3 11  1  0  0  0  0
  3  4  1  0  0  0  0
  4 13  1  0  0  0  0
  4 12  1  0  0  0  0
  5  7  1  0  0  0  0
  5  2  1  0  0  0  0
  6  5  2  0  0  0  0
  7 17  1  0  0  0  0
  7 16  1  0  0  0  0
  8  1  1  0  0  0  0
  9  8  1  0  0  0  0
  9 18  1  0  0  0  0
  9 20  1  0  0  0  0
 10  8  1  0  0  0  0
 10 21  1  0  0  0  0
 10 22  1  0  0  0  0
 14  4  1  0  0  0  0
 15  7  1  0  0  0  0
 19  9  1  0  0  0  0
 23 10  1  0  0  0  0
M  END
