7
 OpenBabel05122313113D

 77 81  0  0  1  0  0  0  0  0999 V2000
   -2.5674   -0.4307   -0.1704 O   0  0  0  0  0  0  0  0  0  0  0  0
   -1.5434    3.8437    0.6782 C   0  0  0  0  0  0  0  0  0  0  0  0
   -1.7840    4.2279   -0.7883 C   0  0  0  0  0  0  0  0  0  0  0  0
   -2.4466    2.9798   -1.3863 C   0  0  2  0  0  0  0  0  0  0  0  0
   -3.9308    2.7843   -0.9960 C   0  0  0  0  0  0  0  0  0  0  0  0
   -4.1441    1.2601   -0.9873 C   0  0  2  0  0  0  0  0  0  0  0  0
   -5.3326    0.7312   -0.1956 C   0  0  0  0  0  3  0  0  0  0  0  0
   -1.7086    1.7820   -0.7372 C   0  0  1  0  0  0  0  0  0  0  0  0
   -2.7730    0.7115   -0.5604 C   0  0  0  0  0  0  0  0  0  0  0  0
   -0.4764    1.2183   -1.4950 C   0  0  0  0  0  0  0  0  0  0  0  0
    0.5417    0.9181   -0.3956 C   0  0  2  0  0  0  0  0  0  0  0  0
    0.3914    2.1545    0.5037 C   0  0  1  0  0  0  0  0  0  0  0  0
   -1.1426    2.3454    0.6719 C   0  0  1  0  0  0  0  0  0  0  0  0
    1.2874    2.1020    1.7409 C   0  0  0  0  0  0  0  0  0  0  0  0
    2.7586    1.8496    1.3447 C   0  0  0  0  0  0  0  0  0  0  0  0
    2.9289    0.5869    0.4690 C   0  0  1  0  0  0  0  0  0  0  0  0
    2.0012    0.7430   -0.7769 C   0  0  1  0  0  0  0  0  0  0  0  0
    2.4304   -0.3888   -1.7121 C   0  0  0  0  0  0  0  0  0  0  0  0
    3.9629   -0.4792   -1.4900 C   0  0  0  0  0  0  0  0  0  0  0  0
    4.3070    0.4150   -0.2526 C   0  0  2  0  0  0  0  0  0  0  0  0
    2.5961   -0.6779    1.2851 C   0  0  0  0  0  0  0  0  0  0  0  0
   -1.6841    1.6195    1.9091 C   0  0  0  0  0  0  0  0  0  0  0  0
    5.5193   -0.1156    0.5464 C   0  0  2  0  0  0  0  0  0  0  0  0
    5.8209    0.7031    1.8084 C   0  0  0  0  0  0  0  0  0  0  0  0
    6.7656   -0.1919   -0.3635 C   0  0  0  0  0  0  0  0  0  0  0  0
    7.9634   -0.9483    0.2201 C   0  0  0  0  0  0  0  0  0  0  0  0
    9.1438   -1.0404   -0.7514 C   0  0  0  0  0  0  0  0  0  0  0  0
   10.3476   -1.8647   -0.2583 C   0  0  0  0  0  0  0  0  0  0  0  0
   10.9899   -1.2697    1.0018 C   0  0  0  0  0  0  0  0  0  0  0  0
   11.3875   -2.0211   -1.3749 C   0  0  0  0  0  0  0  0  0  0  0  0
   -0.7658    4.4660    1.1674 H   0  0  0  0  0  0  0  0  0  0  0  0
   -2.4727    3.9859    1.2686 H   0  0  0  0  0  0  0  0  0  0  0  0
   -2.3951    5.1462   -0.9080 H   0  0  0  0  0  0  0  0  0  0  0  0
   -0.8173    4.4158   -1.3021 H   0  0  0  0  0  0  0  0  0  0  0  0
   -2.3525    2.9464   -2.4928 H   0  0  0  0  0  0  0  0  0  0  0  0
   -4.1183    3.1803    0.0252 H   0  0  0  0  0  0  0  0  0  0  0  0
   -4.6239    3.3136   -1.6789 H   0  0  0  0  0  0  0  0  0  0  0  0
   -4.2292    0.9201   -2.0485 H   0  0  0  0  0  0  0  0  0  0  0  0
   -6.2935    0.9700   -0.6916 H   0  0  0  0  0  0  0  0  0  0  0  0
   -5.3563    1.1791    0.8202 H   0  0  0  0  0  0  0  0  0  0  0  0
   -0.7347    0.3357   -2.1130 H   0  0  0  0  0  0  0  0  0  0  0  0
   -0.0748    2.0005   -2.1762 H   0  0  0  0  0  0  0  0  0  0  0  0
    0.1837    0.0192    0.1536 H   0  0  0  0  0  0  0  0  0  0  0  0
    0.7525    3.0125   -0.1133 H   0  0  0  0  0  0  0  0  0  0  0  0
    1.2158    3.0505    2.3156 H   0  0  0  0  0  0  0  0  0  0  0  0
    0.9454    1.2997    2.4269 H   0  0  0  0  0  0  0  0  0  0  0  0
    3.3740    1.7877    2.2629 H   0  0  0  0  0  0  0  0  0  0  0  0
    3.1380    2.7255    0.7722 H   0  0  0  0  0  0  0  0  0  0  0  0
    2.3160    1.7003   -1.2596 H   0  0  0  0  0  0  0  0  0  0  0  0
    2.1607   -0.1880   -2.7680 H   0  0  0  0  0  0  0  0  0  0  0  0
    1.9243   -1.3353   -1.4299 H   0  0  0  0  0  0  0  0  0  0  0  0
    4.5213   -0.1451   -2.3861 H   0  0  0  0  0  0  0  0  0  0  0  0
    4.2779   -1.5275   -1.3046 H   0  0  0  0  0  0  0  0  0  0  0  0
    4.5839    1.4292   -0.6248 H   0  0  0  0  0  0  0  0  0  0  0  0
    3.2426   -0.7432    2.1829 H   0  0  0  0  0  0  0  0  0  0  0  0
    2.7519   -1.6062    0.7014 H   0  0  0  0  0  0  0  0  0  0  0  0
    1.5472   -0.6893    1.6384 H   0  0  0  0  0  0  0  0  0  0  0  0
   -2.7909    1.6791    1.9564 H   0  0  0  0  0  0  0  0  0  0  0  0
   -1.2905    2.0898    2.8324 H   0  0  0  0  0  0  0  0  0  0  0  0
   -1.4148    0.5459    1.9210 H   0  0  0  0  0  0  0  0  0  0  0  0
    5.2815   -1.1588    0.8599 H   0  0  0  0  0  0  0  0  0  0  0  0
    6.7493    0.3551    2.3026 H   0  0  0  0  0  0  0  0  0  0  0  0
    5.0123    0.6295    2.5597 H   0  0  0  0  0  0  0  0  0  0  0  0
    5.9557    1.7775    1.5619 H   0  0  0  0  0  0  0  0  0  0  0  0
    7.0756    0.8449   -0.6313 H   0  0  0  0  0  0  0  0  0  0  0  0
    6.4904   -0.6773   -1.3231 H   0  0  0  0  0  0  0  0  0  0  0  0
    8.2965   -0.4647    1.1624 H   0  0  0  0  0  0  0  0  0  0  0  0
    7.6417   -1.9761    0.5051 H   0  0  0  0  0  0  0  0  0  0  0  0
    9.4932   -0.0127   -1.0058 H   0  0  0  0  0  0  0  0  0  0  0  0
    8.7846   -1.4776   -1.7102 H   0  0  0  0  0  0  0  0  0  0  0  0
    9.9693   -2.8815    0.0001 H   0  0  0  0  0  0  0  0  0  0  0  0
   11.8598   -1.8737    1.3318 H   0  0  0  0  0  0  0  0  0  0  0  0
   10.2802   -1.2195    1.8515 H   0  0  0  0  0  0  0  0  0  0  0  0
   11.3546   -0.2380    0.8070 H   0  0  0  0  0  0  0  0  0  0  0  0
   11.7962   -1.0320   -1.6739 H   0  0  0  0  0  0  0  0  0  0  0  0
   10.9467   -2.4865   -2.2804 H   0  0  0  0  0  0  0  0  0  0  0  0
   12.2418   -2.6503   -1.0513 H   0  0  0  0  0  0  0  0  0  0  0  0
  2 31  1  0  0  0  0
  2 32  1  0  0  0  0
  3  2  1  0  0  0  0
  4 35  1  6  0  0  0
  4  5  1  0  0  0  0
  4  3  1  0  0  0  0
  4  8  1  0  0  0  0
  5  6  1  0  0  0  0
  5 36  1  0  0  0  0
  6 38  1  6  0  0  0
  6  9  1  0  0  0  0
  6  7  1  0  0  0  0
  7 40  1  0  0  0  0
  8  9  1  1  0  0  0
  8 13  1  0  0  0  0
  9  1  2  0  0  0  0
 10  8  1  0  0  0  0
 10 11  1  0  0  0  0
 11 43  1  1  0  0  0
 11 12  1  0  0  0  0
 12 44  1  6  0  0  0
 12 13  1  0  0  0  0
 12 14  1  0  0  0  0
 13  2  1  0  0  0  0
 13 22  1  1  0  0  0
 14 45  1  0  0  0  0
 14 46  1  0  0  0  0
 15 14  1  0  0  0  0
 15 47  1  0  0  0  0
 16 21  1  1  0  0  0
 16 15  1  0  0  0  0
 17 49  1  6  0  0  0
 17 11  1  0  0  0  0
 17 16  1  0  0  0  0
 18 19  1  0  0  0  0
 18 51  1  0  0  0  0
 18 17  1  0  0  0  0
 19 53  1  0  0  0  0
 19 20  1  0  0  0  0
 20 54  1  6  0  0  0
 20 16  1  0  0  0  0
 20 23  1  0  0  0  0
 21 57  1  0  0  0  0
 21 55  1  0  0  0  0
 22 60  1  0  0  0  0
 22 58  1  0  0  0  0
 22 59  1  0  0  0  0
 23 61  1  1  0  0  0
 23 24  1  0  0  0  0
 24 62  1  0  0  0  0
 24 63  1  0  0  0  0
 25 26  1  0  0  0  0
 25 23  1  0  0  0  0
 26 68  1  0  0  0  0
 26 67  1  0  0  0  0
 27 28  1  0  0  0  0
 27 26  1  0  0  0  0
 28 71  1  0  0  0  0
 28 29  1  0  0  0  0
 29 72  1  0  0  0  0
 29 73  1  0  0  0  0
 30 77  1  0  0  0  0
 30 28  1  0  0  0  0
 33  3  1  0  0  0  0
 34  3  1  0  0  0  0
 37  5  1  0  0  0  0
 39  7  1  0  0  0  0
 41 10  1  0  0  0  0
 42 10  1  0  0  0  0
 48 15  1  0  0  0  0
 50 18  1  0  0  0  0
 52 19  1  0  0  0  0
 56 21  1  0  0  0  0
 64 24  1  0  0  0  0
 65 25  1  0  0  0  0
 66 25  1  0  0  0  0
 69 27  1  0  0  0  0
 70 27  1  0  0  0  0
 74 29  1  0  0  0  0
 75 30  1  0  0  0  0
 76 30  1  0  0  0  0
M  END
