1
 OpenBabel05122313113D

 18 18  0  0  0  0  0  0  0  0999 V2000
   -1.4681   -0.4860   -1.0690 C   0  0  0  0  0  1  0  0  0  0  0  0
   -2.7234   -0.4337   -1.5338 C   0  0  0  0  0  0  0  0  0  0  0  0
   -2.8093   -0.4205   -2.6386 H   0  0  0  0  0  0  0  0  0  0  0  0
   -3.9493   -0.3505   -0.7402 C   0  0  0  0  0  0  0  0  0  0  0  0
   -5.1589   -0.1038   -1.3184 C   0  0  0  0  0  3  0  0  0  0  0  0
   -5.1988    0.0632   -2.4088 H   0  0  0  0  0  0  0  0  0  0  0  0
   -6.4568   -0.0357   -0.5599 C   0  0  0  0  0  0  0  0  0  0  0  0
   -7.2523   -0.5725   -1.1230 H   0  0  0  0  0  0  0  0  0  0  0  0
   -6.8078    1.0242   -0.5179 H   0  0  0  0  0  0  0  0  0  0  0  0
   -6.3395   -0.5981    0.8633 C   0  0  0  0  0  0  0  0  0  0  0  0
   -7.2330   -0.3237    1.4617 H   0  0  0  0  0  0  0  0  0  0  0  0
   -6.3170   -1.7094    0.8175 H   0  0  0  0  0  0  0  0  0  0  0  0
   -5.0541   -0.1059    1.5353 C   0  0  0  0  0  0  0  0  0  0  0  0
   -4.9947   -0.4579    2.5861 H   0  0  0  0  0  0  0  0  0  0  0  0
   -5.0666    1.0069    1.5769 H   0  0  0  0  0  0  0  0  0  0  0  0
   -3.8212   -0.5689    0.7545 C   0  0  0  0  0  0  0  0  0  0  0  0
   -2.9111   -0.0530    1.1226 H   0  0  0  0  0  0  0  0  0  0  0  0
   -3.6238   -1.6501    0.9368 H   0  0  0  0  0  0  0  0  0  0  0  0
  2  1  1  0  0  0  0
  2  4  2  0  0  0  0
  3  2  1  0  0  0  0
  4 16  1  0  0  0  0
  5  4  1  0  0  0  0
  5  7  1  0  0  0  0
  6  5  1  0  0  0  0
  7  9  1  0  0  0  0
  7 10  1  0  0  0  0
  8  7  1  0  0  0  0
 10 11  1  0  0  0  0
 10 13  1  0  0  0  0
 12 10  1  0  0  0  0
 13 15  1  0  0  0  0
 13 14  1  0  0  0  0
 16 18  1  0  0  0  0
 16 17  1  0  0  0  0
 16 13  1  0  0  0  0
M  END
