30
 OpenBabel05122313113D

 40 41  0  0  0  0  0  0  0  0999 V2000
   -0.3917    0.0418   -0.0841 P   0  0  0  0  0  0  0  0  0  0  0  0
   -1.4624   -0.6929    1.1872 C   0  0  0  0  0  0  0  0  0  0  0  0
   -2.1030   -1.9334    0.9930 C   0  0  0  0  0  0  0  0  0  0  0  0
   -2.0031   -2.4626    0.0343 H   0  0  0  0  0  0  0  0  0  0  0  0
   -2.8691   -2.4879    2.0298 C   0  0  0  0  0  0  0  0  0  0  0  0
   -3.3754   -3.4526    1.8746 H   0  0  0  0  0  0  0  0  0  0  0  0
   -2.9856   -1.8190    3.2582 C   0  0  0  0  0  0  0  0  0  0  0  0
   -3.5841   -2.2598    4.0698 H   0  0  0  0  0  0  0  0  0  0  0  0
   -2.3293   -0.5921    3.4565 C   0  0  0  0  0  0  0  0  0  0  0  0
   -2.4051   -0.0749    4.4247 H   0  0  0  0  0  0  0  0  0  0  0  0
   -1.5658   -0.0250    2.4281 C   0  0  0  0  0  0  0  0  0  0  0  0
   -1.0193    0.9182    2.5848 H   0  0  0  0  0  0  0  0  0  0  0  0
   -1.0396    1.7234   -0.3962 C   0  0  0  0  0  0  0  0  0  0  0  0
   -2.3935    2.0450   -0.1685 C   0  0  0  0  0  0  0  0  0  0  0  0
   -3.0609    1.3145    0.3142 H   0  0  0  0  0  0  0  0  0  0  0  0
   -2.8845    3.3068   -0.5370 C   0  0  0  0  0  0  0  0  0  0  0  0
   -3.9397    3.5574   -0.3504 H   0  0  0  0  0  0  0  0  0  0  0  0
   -2.0304    4.2480   -1.1326 C   0  0  0  0  0  0  0  0  0  0  0  0
   -2.4166    5.2390   -1.4156 H   0  0  0  0  0  0  0  0  0  0  0  0
   -0.6796    3.9315   -1.3546 C   0  0  0  0  0  0  0  0  0  0  0  0
   -0.0043    4.6749   -1.8040 H   0  0  0  0  0  0  0  0  0  0  0  0
   -0.1802    2.6758   -0.9842 C   0  0  0  0  0  0  0  0  0  0  0  0
    0.8861    2.4380   -1.1183 H   0  0  0  0  0  0  0  0  0  0  0  0
   -0.6621   -0.8822   -1.5240 N   0  0  0  0  0  0  0  0  0  0  0  0
    0.5075   -0.8999   -2.4082 C   0  0  0  0  0  0  0  0  0  0  0  0
    0.6383    0.0730   -2.9422 H   0  0  0  0  0  0  0  0  0  0  0  0
    0.3330   -1.6671   -3.1964 H   0  0  0  0  0  0  0  0  0  0  0  0
    1.7788   -1.2433   -1.6639 C   0  0  0  0  0  3  0  0  0  0  0  0
    2.7215   -0.9845   -2.1747 H   0  0  0  0  0  0  0  0  0  0  0  0
    1.8289   -2.1501   -0.5923 C   0  0  0  0  0  3  0  0  0  0  0  0
    0.9161   -2.6556   -0.2359 H   0  0  0  0  0  0  0  0  0  0  0  0
    2.7984   -2.5652   -0.2795 H   0  0  0  0  0  0  0  0  0  0  0  0
   -1.9531   -0.8208   -2.2011 C   0  0  0  0  0  0  0  0  0  0  0  0
   -1.9531   -0.0306   -2.9932 H   0  0  0  0  0  0  0  0  0  0  0  0
   -2.7246   -0.4844   -1.4735 H   0  0  0  0  0  0  0  0  0  0  0  0
   -2.4039   -2.1293   -2.7991 C   0  0  0  0  0  0  0  0  0  0  0  0
   -3.3079   -2.0559   -3.4300 H   0  0  0  0  0  0  0  0  0  0  0  0
   -1.8168   -3.3245   -2.6162 C   0  0  0  0  0  0  0  0  0  0  0  0
   -0.9136   -3.4273   -1.9933 H   0  0  0  0  0  0  0  0  0  0  0  0
   -2.2198   -4.2360   -3.0823 H   0  0  0  0  0  0  0  0  0  0  0  0
  1  2  1  0  0  0  0
  2 11  1  0  0  0  0
  3  2  2  0  0  0  0
  3  5  1  0  0  0  0
  4  3  1  0  0  0  0
  5  7  2  0  0  0  0
  6  5  1  0  0  0  0
  7  9  1  0  0  0  0
  7  8  1  0  0  0  0
  9 10  1  0  0  0  0
 11 12  1  0  0  0  0
 11  9  2  0  0  0  0
 13 14  1  0  0  0  0
 13  1  1  0  0  0  0
 14 15  1  0  0  0  0
 16 17  1  0  0  0  0
 16 14  2  0  0  0  0
 18 16  1  0  0  0  0
 19 18  1  0  0  0  0
 20 18  2  0  0  0  0
 20 22  1  0  0  0  0
 21 20  1  0  0  0  0
 22 13  2  0  0  0  0
 23 22  1  0  0  0  0
 24  1  1  0  0  0  0
 25 28  1  0  0  0  0
 25 24  1  0  0  0  0
 26 25  1  0  0  0  0
 27 25  1  0  0  0  0
 28 30  1  0  0  0  0
 29 28  1  0  0  0  0
 30 32  1  0  0  0  0
 30 31  1  0  0  0  0
 33 24  1  0  0  0  0
 33 35  1  0  0  0  0
 34 33  1  0  0  0  0
 36 38  2  0  0  0  0
 36 33  1  0  0  0  0
 37 36  1  0  0  0  0
 38 39  1  0  0  0  0
 40 38  1  0  0  0  0
M  END
