21
 OpenBabel05122313113D

 29 32  0  0  1  0  0  0  0  0999 V2000
   -2.1882    0.7175    2.0394 C   0  0  0  0  0  0  0  0  0  0  0  0
   -3.0609    1.2641    2.4229 H   0  0  0  0  0  0  0  0  0  0  0  0
   -1.0944    1.4249    1.5028 C   0  0  0  0  0  0  0  0  0  0  0  0
   -1.0736    2.5226    1.4580 H   0  0  0  0  0  0  0  0  0  0  0  0
   -0.0032    0.7166    0.8978 C   0  0  2  0  0  3  0  0  0  0  0  0
    1.0691    1.5079    0.2160 C   0  0  0  0  0  0  0  0  0  0  0  0
    1.1430    2.7203    0.3815 O   0  0  0  0  0  0  0  0  0  0  0  0
    2.0277    0.7785   -0.7058 C   0  0  1  0  0  0  0  0  0  0  0  0
    1.7800    1.1555   -1.7217 H   0  0  0  0  0  0  0  0  0  0  0  0
    3.5347    1.1295   -0.3955 C   0  0  1  0  0  0  0  0  0  0  0  0
    3.7895    2.1764   -0.6347 H   0  0  0  0  0  0  0  0  0  0  0  0
    3.7719    0.6765    1.0384 C   0  0  0  0  0  0  0  0  0  0  0  0
    3.8112    1.3465    1.9086 H   0  0  0  0  0  0  0  0  0  0  0  0
    4.2417    0.0000   -1.1743 C   0  0  0  0  0  0  0  0  0  0  0  0
    4.0185    0.0000   -2.2612 H   0  0  0  0  0  0  0  0  0  0  0  0
    5.3376   -0.0000   -1.0144 H   0  0  0  0  0  0  0  0  0  0  0  0
   -2.1882   -0.7175    2.0394 C   0  0  0  0  0  0  0  0  0  0  0  0
   -3.0609   -1.2641    2.4229 H   0  0  0  0  0  0  0  0  0  0  0  0
   -1.0944   -1.4249    1.5028 C   0  0  0  0  0  0  0  0  0  0  0  0
   -1.0736   -2.5226    1.4580 H   0  0  0  0  0  0  0  0  0  0  0  0
   -0.0032   -0.7166    0.8978 C   0  0  1  0  0  3  0  0  0  0  0  0
    1.0691   -1.5079    0.2160 C   0  0  0  0  0  0  0  0  0  0  0  0
    1.1429   -2.7203    0.3815 O   0  0  0  0  0  0  0  0  0  0  0  0
    2.0277   -0.7785   -0.7058 C   0  0  2  0  0  0  0  0  0  0  0  0
    1.7800   -1.1555   -1.7217 H   0  0  0  0  0  0  0  0  0  0  0  0
    3.5347   -1.1295   -0.3956 C   0  0  2  0  0  0  0  0  0  0  0  0
    3.7895   -2.1764   -0.6348 H   0  0  0  0  0  0  0  0  0  0  0  0
    3.7719   -0.6765    1.0384 C   0  0  0  0  0  0  0  0  0  0  0  0
    3.8112   -1.3466    1.9085 H   0  0  0  0  0  0  0  0  0  0  0  0
  1  2  1  0  0  0  0
  3  1  2  0  0  0  0
  4  3  1  0  0  0  0
  5  6  1  6  0  0  0
  5  3  1  0  0  0  0
  6  7  2  0  0  0  0
  8  9  1  6  0  0  0
  8 10  1  0  0  0  0
  8  6  1  0  0  0  0
 10 11  1  6  0  0  0
 10 12  1  0  0  0  0
 12 13  1  0  0  0  0
 14 16  1  0  0  0  0
 14 26  1  0  0  0  0
 14 10  1  0  0  0  0
 15 14  1  0  0  0  0
 17  1  1  0  0  0  0
 17 18  1  0  0  0  0
 19 17  2  0  0  0  0
 20 19  1  0  0  0  0
 21 22  1  6  0  0  0
 21  5  1  0  0  0  0
 21 19  1  0  0  0  0
 22 23  2  0  0  0  0
 24 25  1  6  0  0  0
 24  8  1  0  0  0  0
 24 26  1  0  0  0  0
 24 22  1  0  0  0  0
 26 27  1  6  0  0  0
 26 28  1  0  0  0  0
 28 12  2  0  0  0  0
 28 29  1  0  0  0  0
M  END
