26
 OpenBabel05122313113D

 32 35  0  0  1  0  0  0  0  0999 V2000
    1.4613   -1.4513   -1.4867 C   0  0  0  0  0  0  0  0  0  0  0  0
    1.4355   -2.5482   -1.4329 H   0  0  0  0  0  0  0  0  0  0  0  0
    2.6084   -0.7482   -1.9055 C   0  0  0  0  0  0  0  0  0  0  0  0
    3.5186   -1.2988   -2.1813 H   0  0  0  0  0  0  0  0  0  0  0  0
    2.6086    0.6866   -1.9321 C   0  0  0  0  0  0  0  0  0  0  0  0
    3.5178    1.2284   -2.2267 H   0  0  0  0  0  0  0  0  0  0  0  0
    1.4624    1.3994   -1.5278 C   0  0  0  0  0  0  0  0  0  0  0  0
    1.4370    2.4977   -1.5047 H   0  0  0  0  0  0  0  0  0  0  0  0
    0.3106    0.6981   -1.0381 C   0  0  2  0  0  3  0  0  0  0  0  0
   -0.8342    1.4856   -0.4904 C   0  0  0  0  0  0  0  0  0  0  0  0
   -0.9154    2.6874   -0.7191 O   0  0  0  0  0  0  0  0  0  0  0  0
   -1.8428    0.7803    0.4100 C   0  0  1  0  0  0  0  0  0  0  0  0
   -1.5710    1.1482    1.4252 H   0  0  0  0  0  0  0  0  0  0  0  0
   -3.2849    1.2926    0.1004 C   0  0  1  0  0  0  0  0  0  0  0  0
   -3.2582    2.3962    0.0516 H   0  0  0  0  0  0  0  0  0  0  0  0
   -3.7189    0.6622   -1.2022 C   0  0  0  0  0  0  0  0  0  0  0  0
   -4.0047    1.2700   -2.0741 H   0  0  0  0  0  0  0  0  0  0  0  0
   -3.7221   -0.6887   -1.1857 C   0  0  0  0  0  0  0  0  0  0  0  0
   -4.0110   -1.3164   -2.0423 H   0  0  0  0  0  0  0  0  0  0  0  0
   -3.2906   -1.2891    0.1319 C   0  0  1  0  0  0  0  0  0  0  0  0
   -3.2690   -2.3936    0.1099 H   0  0  0  0  0  0  0  0  0  0  0  0
   -1.8461   -0.7752    0.4273 C   0  0  1  0  0  0  0  0  0  0  0  0
   -1.5725   -1.1218    1.4498 H   0  0  0  0  0  0  0  0  0  0  0  0
   -0.8415   -1.5032   -0.4580 C   0  0  0  0  0  0  0  0  0  0  0  0
   -0.9315   -2.7065   -0.6710 O   0  0  0  0  0  0  0  0  0  0  0  0
    0.3137   -0.7329   -1.0141 C   0  0  2  0  0  3  0  0  0  0  0  0
   -4.2191    0.7929    1.2313 C   0  0  0  0  0  0  0  0  0  0  0  0
   -3.8710    1.2067    2.2002 H   0  0  0  0  0  0  0  0  0  0  0  0
   -5.2378    1.1925    1.0596 H   0  0  0  0  0  0  0  0  0  0  0  0
   -4.2215   -0.7578    1.2511 C   0  0  0  0  0  0  0  0  0  0  0  0
   -5.2417   -1.1584    1.0911 H   0  0  0  0  0  0  0  0  0  0  0  0
   -3.8732   -1.1480    2.2297 H   0  0  0  0  0  0  0  0  0  0  0  0
  1  2  1  0  0  0  0
  3  1  2  0  0  0  0
  4  3  1  0  0  0  0
  5  3  1  0  0  0  0
  5  7  2  0  0  0  0
  6  5  1  0  0  0  0
  7  8  1  0  0  0  0
  9  7  1  1  0  0  0
  9 26  1  0  0  0  0
  9 10  1  0  0  0  0
 10 12  1  0  0  0  0
 11 10  2  0  0  0  0
 12 22  1  0  0  0  0
 12 13  1  1  0  0  0
 14 15  1  6  0  0  0
 14 12  1  0  0  0  0
 14 27  1  0  0  0  0
 16 18  2  0  0  0  0
 16 14  1  0  0  0  0
 17 16  1  0  0  0  0
 18 20  1  0  0  0  0
 19 18  1  0  0  0  0
 20 21  1  6  0  0  0
 20 22  1  0  0  0  0
 20 30  1  0  0  0  0
 22 23  1  1  0  0  0
 24 22  1  0  0  0  0
 25 24  2  0  0  0  0
 26  1  1  1  0  0  0
 26 24  1  0  0  0  0
 27 30  1  0  0  0  0
 27 28  1  0  0  0  0
 29 27  1  0  0  0  0
 30 32  1  0  0  0  0
 31 30  1  0  0  0  0
M  END
