2
 OpenBabel05122313113D

 28 31  0  0  1  0  0  0  0  0999 V2000
   -0.4864   -1.4483   -0.7094 C   0  0  0  0  0  3  0  0  0  0  0  0
   -0.4864   -1.4484    0.7094 C   0  0  0  0  0  3  0  0  0  0  0  0
   -1.3036   -0.2915    1.3102 C   0  0  2  0  0  0  0  0  0  0  0  0
   -2.6999   -0.3261    0.7075 C   0  0  0  0  0  0  0  0  0  0  0  0
   -3.9083   -0.3556    1.4132 C   0  0  0  0  0  0  0  0  0  0  0  0
   -5.1216   -0.3859    0.7020 C   0  0  0  0  0  0  0  0  0  0  0  0
   -5.1216   -0.3859   -0.7020 C   0  0  0  0  0  0  0  0  0  0  0  0
   -3.9083   -0.3556   -1.4132 C   0  0  0  0  0  0  0  0  0  0  0  0
   -2.6999   -0.3261   -0.7075 C   0  0  0  0  0  0  0  0  0  0  0  0
   -1.3036   -0.2915   -1.3102 C   0  0  1  0  0  0  0  0  0  0  0  0
   -0.5716    0.9253   -0.7207 C   0  0  0  0  0  0  0  0  0  0  0  0
   -0.1810    2.0963   -1.4259 C   0  0  0  0  0  0  0  0  0  0  0  0
    0.2442    3.2083   -0.7102 C   0  0  0  0  0  0  0  0  0  0  0  0
    0.2442    3.2083    0.7102 C   0  0  0  0  0  0  0  0  0  0  0  0
   -0.1810    2.0963    1.4259 C   0  0  0  0  0  0  0  0  0  0  0  0
   -0.5716    0.9253    0.7207 C   0  0  0  0  0  0  0  0  0  0  0  0
   -0.2252   -2.3354   -1.3051 H   0  0  0  0  0  0  0  0  0  0  0  0
   -0.2252   -2.3354    1.3051 H   0  0  0  0  0  0  0  0  0  0  0  0
   -1.2982   -0.2881    2.4144 H   0  0  0  0  0  0  0  0  0  0  0  0
   -3.9064   -0.3550    2.5143 H   0  0  0  0  0  0  0  0  0  0  0  0
   -6.0753   -0.4099    1.2503 H   0  0  0  0  0  0  0  0  0  0  0  0
   -6.0753   -0.4099   -1.2503 H   0  0  0  0  0  0  0  0  0  0  0  0
   -3.9064   -0.3550   -2.5143 H   0  0  0  0  0  0  0  0  0  0  0  0
   -1.2982   -0.2881   -2.4144 H   0  0  0  0  0  0  0  0  0  0  0  0
   -0.2032    2.1015   -2.5255 H   0  0  0  0  0  0  0  0  0  0  0  0
    0.5811    4.1061   -1.2487 H   0  0  0  0  0  0  0  0  0  0  0  0
    0.5811    4.1061    1.2487 H   0  0  0  0  0  0  0  0  0  0  0  0
   -0.2032    2.1015    2.5255 H   0  0  0  0  0  0  0  0  0  0  0  0
  1  2  1  0  0  0  0
  2 18  1  0  0  0  0
  2  3  1  0  0  0  0
  3 19  1  1  0  0  0
  4  3  1  0  0  0  0
  4  5  1  0  0  0  0
  5 20  1  0  0  0  0
  6 21  1  0  0  0  0
  6  5  2  0  0  0  0
  7  6  1  0  0  0  0
  8  9  1  0  0  0  0
  8  7  2  0  0  0  0
  9  4  2  0  0  0  0
 10 24  1  6  0  0  0
 10 11  1  0  0  0  0
 10  1  1  0  0  0  0
 10  9  1  0  0  0  0
 11 16  1  0  0  0  0
 12 11  2  0  0  0  0
 12 13  1  0  0  0  0
 13 14  2  0  0  0  0
 14 27  1  0  0  0  0
 14 15  1  0  0  0  0
 15 28  1  0  0  0  0
 16  3  1  0  0  0  0
 16 15  2  0  0  0  0
 17  1  1  0  0  0  0
 22  7  1  0  0  0  0
 23  8  1  0  0  0  0
 25 12  1  0  0  0  0
 26 13  1  0  0  0  0
M  END
