1
 OpenBabel05122313113D

 41 43  0  0  0  0  0  0  0  0999 V2000
    0.7627    0.0001    0.0000 C   0  0  0  0  0  2  0  0  0  0  0  0
   -0.0679   -1.0840   -0.0817 N   0  0  0  0  0  0  0  0  0  0  0  0
   -1.4098   -0.6914   -0.0487 C   0  0  0  0  0  0  0  0  0  0  0  0
   -1.4098    0.6916    0.0485 C   0  0  0  0  0  0  0  0  0  0  0  0
   -0.0680    1.0842    0.0816 N   0  0  0  0  0  0  0  0  0  0  0  0
    0.4201   -2.4635    0.0204 C   0  0  0  0  0  0  0  0  0  0  0  0
    1.4505   -2.4529   -0.3872 H   0  0  0  0  0  0  0  0  0  0  0  0
   -0.2002   -3.1029   -0.6353 H   0  0  0  0  0  0  0  0  0  0  0  0
    0.4073   -2.9726    1.4581 C   0  0  0  0  0  0  0  0  0  0  0  0
    0.7953   -4.0095    1.4956 H   0  0  0  0  0  0  0  0  0  0  0  0
   -0.6193   -2.9729    1.8767 H   0  0  0  0  0  0  0  0  0  0  0  0
    1.0539   -2.3387    2.0971 H   0  0  0  0  0  0  0  0  0  0  0  0
    0.4202    2.4637   -0.0209 C   0  0  0  0  0  0  0  0  0  0  0  0
    1.4505    2.4532    0.3868 H   0  0  0  0  0  0  0  0  0  0  0  0
   -0.2002    3.1033    0.6346 H   0  0  0  0  0  0  0  0  0  0  0  0
    0.4075    2.9722   -1.4588 C   0  0  0  0  0  0  0  0  0  0  0  0
    0.7954    4.0091   -1.4966 H   0  0  0  0  0  0  0  0  0  0  0  0
   -0.6191    2.9725   -1.8774 H   0  0  0  0  0  0  0  0  0  0  0  0
    1.0541    2.3382   -2.0975 H   0  0  0  0  0  0  0  0  0  0  0  0
   -2.5609   -1.6088   -0.0860 C   0  0  0  0  0  0  0  0  0  0  0  0
   -3.5583   -1.5259    0.9125 C   0  0  0  0  0  0  0  0  0  0  0  0
   -3.4449   -0.7944    1.7257 H   0  0  0  0  0  0  0  0  0  0  0  0
   -4.6804   -2.3616    0.8813 C   0  0  0  0  0  0  0  0  0  0  0  0
   -5.4608   -2.3077    1.6535 H   0  0  0  0  0  0  0  0  0  0  0  0
   -4.8029   -3.2948   -0.1562 C   0  0  0  0  0  0  0  0  0  0  0  0
   -3.8358   -3.4003   -1.1641 C   0  0  0  0  0  0  0  0  0  0  0  0
   -3.9743   -4.1346   -1.9702 H   0  0  0  0  0  0  0  0  0  0  0  0
   -2.7228   -2.5513   -1.1277 C   0  0  0  0  0  0  0  0  0  0  0  0
   -1.9804   -2.6034   -1.9380 H   0  0  0  0  0  0  0  0  0  0  0  0
   -5.8738   -4.1041   -0.1882 F   0  0  0  0  0  0  0  0  0  0  0  0
   -2.5609    1.6089    0.0860 C   0  0  0  0  0  0  0  0  0  0  0  0
   -3.5586    1.5256   -0.9123 C   0  0  0  0  0  0  0  0  0  0  0  0
   -3.4453    0.7940   -1.7253 H   0  0  0  0  0  0  0  0  0  0  0  0
   -4.6808    2.3612   -0.8810 C   0  0  0  0  0  0  0  0  0  0  0  0
   -5.4614    2.3070   -1.6530 H   0  0  0  0  0  0  0  0  0  0  0  0
   -4.8031    3.2947    0.1563 C   0  0  0  0  0  0  0  0  0  0  0  0
   -3.8358    3.4004    1.1640 C   0  0  0  0  0  0  0  0  0  0  0  0
   -3.9743    4.1349    1.9700 H   0  0  0  0  0  0  0  0  0  0  0  0
   -2.7227    2.5516    1.1275 C   0  0  0  0  0  0  0  0  0  0  0  0
   -1.9802    2.6040    1.9377 H   0  0  0  0  0  0  0  0  0  0  0  0
   -5.8742    4.1038    0.1885 F   0  0  0  0  0  0  0  0  0  0  0  0
  1  5  1  0  0  0  0
  2  3  1  0  0  0  0
  2  1  1  0  0  0  0
  2  6  1  0  0  0  0
  3  4  2  0  0  0  0
  4  5  1  0  0  0  0
  4 31  1  0  0  0  0
  6  9  1  0  0  0  0
  7  6  1  0  0  0  0
  8  6  1  0  0  0  0
  9 10  1  0  0  0  0
  9 11  1  0  0  0  0
  9 12  1  0  0  0  0
 13  5  1  0  0  0  0
 13 14  1  0  0  0  0
 13 15  1  0  0  0  0
 16 13  1  0  0  0  0
 17 16  1  0  0  0  0
 18 16  1  0  0  0  0
 19 16  1  0  0  0  0
 20  3  1  0  0  0  0
 20 21  1  0  0  0  0
 21 22  1  0  0  0  0
 23 21  2  0  0  0  0
 23 24  1  0  0  0  0
 25 23  1  0  0  0  0
 26 28  1  0  0  0  0
 26 25  2  0  0  0  0
 27 26  1  0  0  0  0
 28 20  2  0  0  0  0
 29 28  1  0  0  0  0
 30 25  1  0  0  0  0
 31 39  1  0  0  0  0
 32 34  1  0  0  0  0
 32 31  2  0  0  0  0
 33 32  1  0  0  0  0
 34 36  2  0  0  0  0
 35 34  1  0  0  0  0
 36 41  1  0  0  0  0
 36 37  1  0  0  0  0
 37 38  1  0  0  0  0
 39 37  2  0  0  0  0
 39 40  1  0  0  0  0
M  END
