6
 OpenBabel05122313113D

 14 14  0  0  0  0  0  0  0  0999 V2000
    1.1537   -1.4059   -1.1310 C   0  0  0  0  0  0  0  0  0  0  0  0
    1.2775   -1.4241   -2.2188 H   0  0  0  0  0  0  0  0  0  0  0  0
    1.9389   -0.6141   -0.2226 C   0  0  0  0  0  0  0  0  0  0  0  0
    1.5014   -0.8824    1.1221 C   0  0  0  0  0  0  0  0  0  0  0  0
    1.9093   -0.4525    2.0425 H   0  0  0  0  0  0  0  0  0  0  0  0
    0.4925   -1.9193    1.0432 C   0  0  0  0  0  3  0  0  0  0  0  0
   -0.0029   -2.3908    1.8998 H   0  0  0  0  0  0  0  0  0  0  0  0
    0.2857   -2.2393   -0.3325 C   0  0  0  0  0  0  0  0  0  0  0  0
   -0.4036   -2.9986   -0.7202 H   0  0  0  0  0  0  0  0  0  0  0  0
    2.9062    0.2131   -0.6470 O   0  0  0  0  0  0  0  0  0  0  0  0
    3.4199    1.1399    0.3040 C   0  0  0  0  0  0  0  0  0  0  0  0
    2.6081    1.7887    0.6999 H   0  0  0  0  0  0  0  0  0  0  0  0
    4.1591    1.7620   -0.2318 H   0  0  0  0  0  0  0  0  0  0  0  0
    3.9232    0.6208    1.1484 H   0  0  0  0  0  0  0  0  0  0  0  0
  1  8  2  0  0  0  0
  1  3  1  0  0  0  0
  2  1  1  0  0  0  0
  3  4  2  0  0  0  0
  4  5  1  0  0  0  0
  6  4  1  0  0  0  0
  6  7  1  0  0  0  0
  8  6  1  0  0  0  0
  9  8  1  0  0  0  0
 10  3  1  0  0  0  0
 10 11  1  0  0  0  0
 11 12  1  0  0  0  0
 11 14  1  0  0  0  0
 13 11  1  0  0  0  0
M  END
