3
 OpenBabel05122313113D

 10  9  0  0  0  0  0  0  0  0999 V2000
   -2.0140    1.8776   -0.0153 O   0  0  0  0  0  0  0  0  0  0  0  0
   -2.8820   -0.1760   -0.0554 O   0  0  0  0  0  0  0  0  0  0  0  0
   -1.8266    0.6396    0.0283 C   0  0  0  0  0  3  0  0  0  0  0  0
   -4.1876    0.4298   -0.2554 C   0  0  0  0  0  0  0  0  0  0  0  0
   -4.1504    1.0473   -1.1768 H   0  0  0  0  0  0  0  0  0  0  0  0
   -4.3928    1.1181    0.5912 H   0  0  0  0  0  0  0  0  0  0  0  0
   -5.2004   -0.6911   -0.3503 C   0  0  0  0  0  0  0  0  0  0  0  0
   -4.9660   -1.3648   -1.1980 H   0  0  0  0  0  0  0  0  0  0  0  0
   -6.2146   -0.2734   -0.5076 H   0  0  0  0  0  0  0  0  0  0  0  0
   -5.2140   -1.2953    0.5785 H   0  0  0  0  0  0  0  0  0  0  0  0
  1  3  2  0  0  0  0
  2  3  1  0  0  0  0
  4  2  1  0  0  0  0
  4  6  1  0  0  0  0
  5  4  1  0  0  0  0
  7  4  1  0  0  0  0
  7 10  1  0  0  0  0
  8  7  1  0  0  0  0
  9  7  1  0  0  0  0
M  END
