25
 OpenBabel05122313113D

 70 73  0  0  1  0  0  0  0  0999 V2000
   -2.8579   -0.4967   -0.4563 C   0  0  0  0  0  0  0  0  0  0  0  0
   -2.7564    0.8671   -0.3737 C   0  0  0  0  0  0  0  0  0  0  0  0
   -4.0650    1.5838   -0.6970 C   0  0  2  0  0  0  0  0  0  0  0  0
   -5.1363    1.1036    0.3168 C   0  0  0  0  0  0  0  0  0  0  0  0
   -5.3134   -0.4266    0.1602 C   0  0  0  0  0  0  0  0  0  0  0  0
   -4.2568   -0.9708   -0.8417 C   0  0  1  0  0  0  0  0  0  0  0  0
   -4.5983   -0.3639   -2.2275 C   0  0  0  0  0  0  0  0  0  0  0  0
   -4.5757    1.1796   -2.1089 C   0  0  0  0  0  0  0  0  0  0  0  0
   -1.7504   -1.5021   -0.3107 C   0  0  0  0  0  0  0  0  0  0  0  0
   -0.7511   -1.6274   -1.3350 C   0  0  0  0  0  0  0  0  0  0  0  0
    0.2837   -2.5976   -1.2072 C   0  0  0  0  0  0  0  0  0  0  0  0
    0.3158   -3.4795   -0.0953 C   0  0  0  0  0  0  0  0  0  0  0  0
   -0.7235   -3.4212    0.8712 C   0  0  0  0  0  0  0  0  0  0  0  0
   -1.7392   -2.4325    0.7723 C   0  0  0  0  0  0  0  0  0  0  0  0
   -0.7824   -0.7837   -2.5834 C   0  0  0  0  0  0  0  0  0  0  0  0
    1.3306   -2.6556   -2.2924 C   0  0  0  0  0  0  0  0  0  0  0  0
    1.4729   -4.4483    0.0326 C   0  0  0  0  0  0  0  0  0  0  0  0
   -0.7835   -4.3680    2.0478 C   0  0  0  0  0  0  0  0  0  0  0  0
   -2.7984   -2.3784    1.8434 C   0  0  0  0  0  0  0  0  0  0  0  0
   -1.5605    1.6557    0.0769 C   0  0  0  0  0  0  0  0  0  0  0  0
   -0.8558    2.5129   -0.8228 C   0  0  0  0  0  0  0  0  0  0  0  0
    0.2529    3.2645   -0.3677 C   0  0  0  0  0  0  0  0  0  0  0  0
    0.6818    3.1918    0.9877 C   0  0  0  0  0  0  0  0  0  0  0  0
   -0.0361    2.3897    1.9076 C   0  0  2  0  0  3  0  0  0  0  0  0
   -1.1747    1.6348    1.4665 C   0  0  1  0  0  3  0  0  0  0  0  0
   -1.2591    2.5954   -2.2747 C   0  0  0  0  0  0  0  0  0  0  0  0
    1.0671    4.0929   -1.3298 C   0  0  0  0  0  0  0  0  0  0  0  0
    1.9229    3.9569    1.3746 C   0  0  0  0  0  0  0  0  0  0  0  0
    0.3277    2.2980    3.3705 C   0  0  0  0  0  0  0  0  0  0  0  0
   -2.0523    0.9899    2.5189 C   0  0  0  0  0  0  0  0  0  0  0  0
   -3.9333    2.6812   -0.6287 H   0  0  0  0  0  0  0  0  0  0  0  0
   -4.8234    1.3726    1.3448 H   0  0  0  0  0  0  0  0  0  0  0  0
   -6.0883    1.6399    0.1230 H   0  0  0  0  0  0  0  0  0  0  0  0
   -5.2284   -0.9428    1.1359 H   0  0  0  0  0  0  0  0  0  0  0  0
   -6.3225   -0.6732   -0.2305 H   0  0  0  0  0  0  0  0  0  0  0  0
   -4.2941   -2.0768   -0.8858 H   0  0  0  0  0  0  0  0  0  0  0  0
   -3.8681   -0.7229   -2.9794 H   0  0  0  0  0  0  0  0  0  0  0  0
   -5.5955   -0.7277   -2.5512 H   0  0  0  0  0  0  0  0  0  0  0  0
   -3.9452    1.6332   -2.8975 H   0  0  0  0  0  0  0  0  0  0  0  0
   -5.5916    1.6049   -2.2452 H   0  0  0  0  0  0  0  0  0  0  0  0
    0.1143   -0.1344   -2.6461 H   0  0  0  0  0  0  0  0  0  0  0  0
   -1.6758   -0.1417   -2.6160 H   0  0  0  0  0  0  0  0  0  0  0  0
   -0.7801   -1.4247   -3.4888 H   0  0  0  0  0  0  0  0  0  0  0  0
    1.8024   -1.6629   -2.4331 H   0  0  0  0  0  0  0  0  0  0  0  0
    0.8766   -2.9358   -3.2668 H   0  0  0  0  0  0  0  0  0  0  0  0
    2.1336   -3.3804   -2.0817 H   0  0  0  0  0  0  0  0  0  0  0  0
    1.4885   -4.9751    1.0021 H   0  0  0  0  0  0  0  0  0  0  0  0
    2.4440   -3.9226   -0.0700 H   0  0  0  0  0  0  0  0  0  0  0  0
    1.4524   -5.2250   -0.7609 H   0  0  0  0  0  0  0  0  0  0  0  0
   -0.0821   -5.2150    1.9607 H   0  0  0  0  0  0  0  0  0  0  0  0
   -1.7979   -4.7996    2.1636 H   0  0  0  0  0  0  0  0  0  0  0  0
   -0.5584   -3.8446    3.0028 H   0  0  0  0  0  0  0  0  0  0  0  0
   -3.4428   -3.2834    1.8258 H   0  0  0  0  0  0  0  0  0  0  0  0
   -3.4532   -1.5010    1.7242 H   0  0  0  0  0  0  0  0  0  0  0  0
   -2.3536   -2.3290    2.8579 H   0  0  0  0  0  0  0  0  0  0  0  0
   -1.5934    3.6185   -2.5466 H   0  0  0  0  0  0  0  0  0  0  0  0
   -2.0839    1.9039   -2.5075 H   0  0  0  0  0  0  0  0  0  0  0  0
   -0.4154    2.3408   -2.9466 H   0  0  0  0  0  0  0  0  0  0  0  0
    2.0565    3.6105   -1.4881 H   0  0  0  0  0  0  0  0  0  0  0  0
    1.2695    5.1063   -0.9293 H   0  0  0  0  0  0  0  0  0  0  0  0
    0.5848    4.2133   -2.3143 H   0  0  0  0  0  0  0  0  0  0  0  0
    1.8141    5.0391    1.1542 H   0  0  0  0  0  0  0  0  0  0  0  0
    2.7936    3.5952    0.7897 H   0  0  0  0  0  0  0  0  0  0  0  0
    2.1815    3.8597    2.4415 H   0  0  0  0  0  0  0  0  0  0  0  0
    1.2761    2.8063    3.6078 H   0  0  0  0  0  0  0  0  0  0  0  0
    0.4359    1.2414    3.6892 H   0  0  0  0  0  0  0  0  0  0  0  0
   -0.4623    2.7449    4.0111 H   0  0  0  0  0  0  0  0  0  0  0  0
   -1.4985    0.2707    3.1535 H   0  0  0  0  0  0  0  0  0  0  0  0
   -2.9003    0.4571    2.0618 H   0  0  0  0  0  0  0  0  0  0  0  0
   -2.4602    1.7654    3.2019 H   0  0  0  0  0  0  0  0  0  0  0  0
  1  2  2  0  0  0  0
  1  9  1  0  0  0  0
  2 20  1  0  0  0  0
  3 31  1  1  0  0  0
  3  2  1  0  0  0  0
  3  4  1  0  0  0  0
  4 32  1  0  0  0  0
  5  4  1  0  0  0  0
  5 34  1  0  0  0  0
  6 36  1  6  0  0  0
  6  1  1  0  0  0  0
  6  5  1  0  0  0  0
  7  8  1  0  0  0  0
  7  6  1  0  0  0  0
  8  3  1  0  0  0  0
  9 14  1  0  0  0  0
 10 11  1  0  0  0  0
 10  9  2  0  0  0  0
 11 12  2  0  0  0  0
 12 17  1  0  0  0  0
 12 13  1  0  0  0  0
 13 18  1  0  0  0  0
 14 13  2  0  0  0  0
 14 19  1  0  0  0  0
 15 10  1  0  0  0  0
 16 46  1  0  0  0  0
 16 11  1  0  0  0  0
 17 47  1  0  0  0  0
 18 51  1  0  0  0  0
 18 52  1  0  0  0  0
 19 55  1  0  0  0  0
 20 25  1  0  0  0  0
 21 22  1  0  0  0  0
 21 20  2  0  0  0  0
 22 23  2  0  0  0  0
 23 28  1  0  0  0  0
 23 24  1  0  0  0  0
 24 29  1  1  0  0  0
 25 24  1  0  0  0  0
 25 30  1  1  0  0  0
 26 21  1  0  0  0  0
 27 60  1  0  0  0  0
 27 22  1  0  0  0  0
 28 64  1  0  0  0  0
 29 65  1  0  0  0  0
 29 66  1  0  0  0  0
 29 67  1  0  0  0  0
 30 68  1  0  0  0  0
 30 70  1  0  0  0  0
 33  4  1  0  0  0  0
 35  5  1  0  0  0  0
 37  7  1  0  0  0  0
 38  7  1  0  0  0  0
 39  8  1  0  0  0  0
 40  8  1  0  0  0  0
 41 15  1  0  0  0  0
 42 15  1  0  0  0  0
 43 15  1  0  0  0  0
 44 16  1  0  0  0  0
 45 16  1  0  0  0  0
 48 17  1  0  0  0  0
 49 17  1  0  0  0  0
 50 18  1  0  0  0  0
 53 19  1  0  0  0  0
 54 19  1  0  0  0  0
 56 26  1  0  0  0  0
 57 26  1  0  0  0  0
 58 26  1  0  0  0  0
 59 27  1  0  0  0  0
 61 27  1  0  0  0  0
 62 28  1  0  0  0  0
 63 28  1  0  0  0  0
 69 30  1  0  0  0  0
M  END
