30
 OpenBabel05122313113D

 50 52  0  0  1  0  0  0  0  0999 V2000
   -1.3680    2.2150    0.0914 N   0  0  0  0  0  0  0  0  0  0  0  0
   -2.5943    3.0806    0.2896 C   0  0  0  0  0  0  0  0  0  0  0  0
   -2.6644    4.2202   -0.7401 C   0  0  0  0  0  0  0  0  0  0  0  0
   -1.7496    4.8443   -0.6998 H   0  0  0  0  0  0  0  0  0  0  0  0
   -2.7987    3.8534   -1.7735 H   0  0  0  0  0  0  0  0  0  0  0  0
   -3.5286    4.8714   -0.5031 H   0  0  0  0  0  0  0  0  0  0  0  0
   -2.6021    3.7074    1.6903 C   0  0  0  0  0  0  0  0  0  0  0  0
   -1.7483    4.3989    1.8318 H   0  0  0  0  0  0  0  0  0  0  0  0
   -3.5357    4.2915    1.8140 H   0  0  0  0  0  0  0  0  0  0  0  0
   -2.5727    2.9351    2.4795 H   0  0  0  0  0  0  0  0  0  0  0  0
   -3.7278    2.0377    0.1475 C   0  0  0  0  0  0  0  0  0  0  0  0
   -4.5977    2.4485   -0.4006 H   0  0  0  0  0  0  0  0  0  0  0  0
   -4.0831    1.7544    1.1542 H   0  0  0  0  0  0  0  0  0  0  0  0
   -3.1251    0.8135   -0.5854 C   0  0  2  0  0  0  0  0  0  0  0  0
   -3.2919    1.0029   -2.1114 C   0  0  0  0  0  0  0  0  0  0  0  0
   -2.9516    2.0080   -2.4166 H   0  0  0  0  0  0  0  0  0  0  0  0
   -2.6953    0.2715   -2.6864 H   0  0  0  0  0  0  0  0  0  0  0  0
   -4.3625    0.9011   -2.3802 H   0  0  0  0  0  0  0  0  0  0  0  0
   -3.6982   -0.5355   -0.1188 C   0  0  0  0  0  0  0  0  0  0  0  0
   -4.0093   -0.7668    1.2386 C   0  0  0  0  0  0  0  0  0  0  0  0
   -3.8303    0.0182    1.9861 H   0  0  0  0  0  0  0  0  0  0  0  0
   -4.5082   -2.0009    1.6728 C   0  0  0  0  0  0  0  0  0  0  0  0
   -4.7315   -2.1497    2.7400 H   0  0  0  0  0  0  0  0  0  0  0  0
   -4.7053   -3.0458    0.7570 C   0  0  0  0  0  0  0  0  0  0  0  0
   -5.0978   -4.0165    1.0964 H   0  0  0  0  0  0  0  0  0  0  0  0
   -4.3891   -2.8406   -0.5927 C   0  0  0  0  0  0  0  0  0  0  0  0
   -4.5257   -3.6518   -1.3240 H   0  0  0  0  0  0  0  0  0  0  0  0
   -3.8895   -1.6014   -1.0244 C   0  0  0  0  0  0  0  0  0  0  0  0
   -3.6289   -1.4771   -2.0824 H   0  0  0  0  0  0  0  0  0  0  0  0
   -1.6099    0.9314   -0.2548 C   0  0  0  0  0  2  0  0  0  0  0  0
   -0.0424    2.7708    0.1920 C   0  0  0  0  0  0  0  0  0  0  0  0
    0.6206    3.1382   -1.0125 C   0  0  0  0  0  0  0  0  0  0  0  0
    0.0180    2.8786   -2.3696 C   0  0  0  0  0  0  0  0  0  0  0  0
   -0.1569    1.7909   -2.5166 H   0  0  0  0  0  0  0  0  0  0  0  0
   -0.9537    3.3839   -2.5144 H   0  0  0  0  0  0  0  0  0  0  0  0
    0.7012    3.2229   -3.1683 H   0  0  0  0  0  0  0  0  0  0  0  0
    1.9395    3.6189   -0.9309 C   0  0  0  0  0  0  0  0  0  0  0  0
    2.4565    3.8920   -1.8647 H   0  0  0  0  0  0  0  0  0  0  0  0
    2.6338    3.7060    0.2904 C   0  0  0  0  0  0  0  0  0  0  0  0
    4.0782    4.1366    0.3363 C   0  0  0  0  0  0  0  0  0  0  0  0
    4.3259    4.8268   -0.4935 H   0  0  0  0  0  0  0  0  0  0  0  0
    4.3252    4.6376    1.2928 H   0  0  0  0  0  0  0  0  0  0  0  0
    4.7551    3.2588    0.2448 H   0  0  0  0  0  0  0  0  0  0  0  0
    1.9605    3.2988    1.4529 C   0  0  0  0  0  0  0  0  0  0  0  0
    2.4953    3.3169    2.4162 H   0  0  0  0  0  0  0  0  0  0  0  0
    0.6356    2.8172    1.4364 C   0  0  0  0  0  0  0  0  0  0  0  0
    0.0544    2.2855    2.7211 C   0  0  0  0  0  0  0  0  0  0  0  0
   -0.7478    1.5475    2.5440 H   0  0  0  0  0  0  0  0  0  0  0  0
    0.8441    1.7695    3.3007 H   0  0  0  0  0  0  0  0  0  0  0  0
   -0.3399    3.1004    3.3621 H   0  0  0  0  0  0  0  0  0  0  0  0
  1 31  1  0  0  0  0
  1  2  1  0  0  0  0
  2  7  1  0  0  0  0
  3  4  1  0  0  0  0
  3  6  1  0  0  0  0
  3  2  1  0  0  0  0
  5  3  1  0  0  0  0
  7  9  1  0  0  0  0
  7  8  1  0  0  0  0
  7 10  1  0  0  0  0
 11  2  1  0  0  0  0
 11 13  1  0  0  0  0
 12 11  1  0  0  0  0
 14 15  1  6  0  0  0
 14 30  1  0  0  0  0
 14 19  1  0  0  0  0
 14 11  1  0  0  0  0
 16 15  1  0  0  0  0
 17 15  1  0  0  0  0
 18 15  1  0  0  0  0
 19 20  1  0  0  0  0
 20 22  2  0  0  0  0
 20 21  1  0  0  0  0
 22 23  1  0  0  0  0
 24 25  1  0  0  0  0
 24 22  1  0  0  0  0
 26 24  2  0  0  0  0
 27 26  1  0  0  0  0
 28 26  1  0  0  0  0
 28 19  2  0  0  0  0
 29 28  1  0  0  0  0
 30  1  1  0  0  0  0
 31 46  1  0  0  0  0
 32 37  1  0  0  0  0
 32 31  2  0  0  0  0
 33 32  1  0  0  0  0
 34 33  1  0  0  0  0
 35 33  1  0  0  0  0
 36 33  1  0  0  0  0
 37 39  2  0  0  0  0
 38 37  1  0  0  0  0
 39 40  1  0  0  0  0
 39 44  1  0  0  0  0
 40 42  1  0  0  0  0
 41 40  1  0  0  0  0
 43 40  1  0  0  0  0
 44 45  1  0  0  0  0
 46 44  2  0  0  0  0
 46 47  1  0  0  0  0
 47 49  1  0  0  0  0
 47 50  1  0  0  0  0
 48 47  1  0  0  0  0
M  END
