18
 OpenBabel05122313113D

 18 19  0  0  1  0  0  0  0  0999 V2000
    3.6770   -2.2227    1.6395 F   0  0  0  0  0  0  0  0  0  0  0  0
    5.6360   -0.5927    0.7498 F   0  0  0  0  0  0  0  0  0  0  0  0
    5.1770    1.1216   -1.3322 F   0  0  0  0  0  0  0  0  0  0  0  0
    2.7667    1.2456   -2.5135 F   0  0  0  0  0  0  0  0  0  0  0  0
    1.1659   -2.9480    1.5686 F   0  0  0  0  0  0  0  0  0  0  0  0
    0.3447    0.3347   -2.7567 F   0  0  0  0  0  0  0  0  0  0  0  0
   -1.0830   -3.1953    0.1295 F   0  0  0  0  0  0  0  0  0  0  0  0
   -1.1888   -1.9611   -2.4180 F   0  0  0  0  0  0  0  0  0  0  0  0
    4.1977    0.3133   -0.9116 C   0  0  0  0  0  0  0  0  0  0  0  0
    4.4319   -0.5633    0.1666 C   0  0  0  0  0  0  0  0  0  0  0  0
    3.4076   -1.4046    0.6115 C   0  0  0  0  0  0  0  0  0  0  0  0
    2.1285   -1.3881    0.0037 C   0  0  0  0  0  0  0  0  0  0  0  0
    1.8813   -0.4804   -1.0920 C   0  0  0  0  0  0  0  0  0  0  0  0
    2.9398    0.3478   -1.5257 C   0  0  0  0  0  0  0  0  0  0  0  0
    1.0450   -2.2302    0.4339 C   0  0  0  0  0  0  0  0  0  0  0  0
   -0.1607   -2.2825   -0.2477 C   0  0  0  0  0  0  0  0  0  0  0  0
    0.5152   -0.3774   -1.5934 C   0  0  2  0  0  0  0  0  0  0  0  0
   -0.4406   -1.4508   -1.3909 C   0  0  1  0  0  0  0  0  0  0  0  0
  3  9  1  0  0  0  0
  4 14  1  0  0  0  0
  9 10  1  0  0  0  0
 10 11  2  0  0  0  0
 10  2  1  0  0  0  0
 11  1  1  0  0  0  0
 12 15  1  0  0  0  0
 12 11  1  0  0  0  0
 13 12  2  0  0  0  0
 14 13  1  0  0  0  0
 14  9  2  0  0  0  0
 15  5  1  0  0  0  0
 16  7  1  0  0  0  0
 16 15  2  0  0  0  0
 17  6  1  6  0  0  0
 17 18  1  0  0  0  0
 17 13  1  0  0  0  0
 18  8  1  6  0  0  0
 18 16  1  0  0  0  0
M  END
