1
 OpenBabel05122313113D

 25 25  0  0  0  0  0  0  0  0999 V2000
    1.1963    0.1919    0.2813 C   0  0  0  0  0  2  0  0  0  0  0  0
    1.2789    1.2807    0.4394 H   0  0  0  0  0  0  0  0  0  0  0  0
    2.4548   -0.5061    0.1079 C   0  0  0  0  0  0  0  0  0  0  0  0
    3.6825    0.1795    0.0215 C   0  0  0  0  0  0  0  0  0  0  0  0
    3.7212    1.2747    0.1039 H   0  0  0  0  0  0  0  0  0  0  0  0
    4.8618   -0.5426   -0.1824 C   0  0  0  0  0  0  0  0  0  0  0  0
    6.1439    0.1839   -0.2774 N   0  0  0  0  0  0  0  0  0  0  0  0
    7.1656   -0.4843   -0.4474 O   0  0  0  0  0  0  0  0  0  0  0  0
    6.1092    1.4119   -0.1810 O   0  0  0  0  0  0  0  0  0  0  0  0
    4.8589   -1.9417   -0.2991 C   0  0  0  0  0  0  0  0  0  0  0  0
    5.8139   -2.4594   -0.4587 H   0  0  0  0  0  0  0  0  0  0  0  0
    3.6506   -2.6430   -0.2093 C   0  0  0  0  0  0  0  0  0  0  0  0
    3.6532   -3.7365   -0.2982 H   0  0  0  0  0  0  0  0  0  0  0  0
    2.4525   -1.9315   -0.0096 C   0  0  0  0  0  0  0  0  0  0  0  0
    1.2195   -2.4796    0.0822 O   0  0  0  0  0  0  0  0  0  0  0  0
    1.0258   -3.9334    0.1537 C   0  0  0  0  0  0  0  0  0  0  0  0
    1.6786   -4.3748   -0.6305 H   0  0  0  0  0  0  0  0  0  0  0  0
    1.4176   -4.4258    1.5416 C   0  0  0  0  0  0  0  0  0  0  0  0
    2.4752   -4.2012    1.7812 H   0  0  0  0  0  0  0  0  0  0  0  0
    0.7758   -3.9352    2.2991 H   0  0  0  0  0  0  0  0  0  0  0  0
    1.2775   -5.5234    1.6017 H   0  0  0  0  0  0  0  0  0  0  0  0
   -0.4288   -4.1966   -0.1926 C   0  0  0  0  0  0  0  0  0  0  0  0
   -0.6935   -3.7561   -1.1722 H   0  0  0  0  0  0  0  0  0  0  0  0
   -0.6050   -5.2897   -0.2263 H   0  0  0  0  0  0  0  0  0  0  0  0
   -1.0944   -3.7593    0.5767 H   0  0  0  0  0  0  0  0  0  0  0  0
  1  2  1  0  0  0  0
  3  1  1  0  0  0  0
  4  5  1  0  0  0  0
  4  3  1  0  0  0  0
  6  4  2  0  0  0  0
  7  6  1  0  0  0  0
  7  9  2  0  0  0  0
  8  7  2  0  0  0  0
 10 12  2  0  0  0  0
 10  6  1  0  0  0  0
 11 10  1  0  0  0  0
 12 14  1  0  0  0  0
 13 12  1  0  0  0  0
 14 15  1  0  0  0  0
 14  3  2  0  0  0  0
 15 16  1  0  0  0  0
 16 18  1  0  0  0  0
 17 16  1  0  0  0  0
 18 21  1  0  0  0  0
 18 19  1  0  0  0  0
 18 20  1  0  0  0  0
 22 16  1  0  0  0  0
 22 25  1  0  0  0  0
 23 22  1  0  0  0  0
 24 22  1  0  0  0  0
M  END
