16
 OpenBabel05122313113D

 41 41  0  0  0  0  0  0  0  0999 V2000
    1.1875   -3.4540    0.0564 N   0  3  0  0  0  0  0  0  0  0  0  0
    1.1949    3.4516   -0.0564 N   0  3  0  0  0  0  0  0  0  0  0  0
    2.2084   -1.1281   -0.4574 C   0  0  0  0  0  0  0  0  0  0  0  0
    3.6199   -1.1144   -0.4751 C   0  0  0  0  0  0  0  0  0  0  0  0
    4.3319   -0.0047   -0.0001 C   0  0  0  0  0  0  0  0  0  0  0  0
    3.6225    1.1066    0.4749 C   0  0  0  0  0  0  0  0  0  0  0  0
    2.2110    1.1235    0.4573 C   0  0  0  0  0  0  0  0  0  0  0  0
    1.4616   -2.3255   -0.9771 C   0  0  0  0  0  0  0  0  0  0  0  0
    0.6800   -2.9089    1.3621 C   0  0  0  0  0  0  0  0  0  0  0  0
    0.1422   -4.3570   -0.5334 C   0  0  0  0  0  0  0  0  0  0  0  0
    2.4444   -4.2291    0.3098 C   0  0  0  0  0  0  0  0  0  0  0  0
    1.4668    2.3225    0.9771 C   0  0  0  0  0  0  0  0  0  0  0  0
    0.6853    2.9075   -1.3616 C   0  0  0  0  0  0  0  0  0  0  0  0
    0.1520    4.3572    0.5339 C   0  0  0  0  0  0  0  0  0  0  0  0
    2.4535    4.2237   -0.3105 C   0  0  0  0  0  0  0  0  0  0  0  0
    1.4607   -0.0015    0.0000 C   0  0  0  0  0  3  0  0  0  0  0  0
    4.1768   -1.9769   -0.8766 H   0  0  0  0  0  0  0  0  0  0  0  0
    5.4313   -0.0059   -0.0002 H   0  0  0  0  0  0  0  0  0  0  0  0
    4.1813    1.9681    0.8761 H   0  0  0  0  0  0  0  0  0  0  0  0
    1.9943   -2.8330   -1.8048 H   0  0  0  0  0  0  0  0  0  0  0  0
    0.4583   -2.0047   -1.3210 H   0  0  0  0  0  0  0  0  0  0  0  0
   -0.2156   -2.2851    1.1698 H   0  0  0  0  0  0  0  0  0  0  0  0
    1.4634   -2.2769    1.8138 H   0  0  0  0  0  0  0  0  0  0  0  0
    0.4383   -3.7623    2.0210 H   0  0  0  0  0  0  0  0  0  0  0  0
   -0.0204   -5.2139    0.1451 H   0  0  0  0  0  0  0  0  0  0  0  0
    0.4906   -4.7166   -1.5184 H   0  0  0  0  0  0  0  0  0  0  0  0
   -0.7953   -3.7831   -0.6498 H   0  0  0  0  0  0  0  0  0  0  0  0
    2.2349   -5.0226    1.0498 H   0  0  0  0  0  0  0  0  0  0  0  0
    3.2115   -3.5408    0.7061 H   0  0  0  0  0  0  0  0  0  0  0  0
    2.7919   -4.6797   -0.6373 H   0  0  0  0  0  0  0  0  0  0  0  0
    2.0008    2.8289    1.8047 H   0  0  0  0  0  0  0  0  0  0  0  0
    0.4629    2.0037    1.3213 H   0  0  0  0  0  0  0  0  0  0  0  0
   -0.2122    2.2865   -1.1689 H   0  0  0  0  0  0  0  0  0  0  0  0
    1.4666    2.2727   -1.8132 H   0  0  0  0  0  0  0  0  0  0  0  0
    0.4462    3.7613   -2.0209 H   0  0  0  0  0  0  0  0  0  0  0  0
    0.5018    4.7160    1.5187 H   0  0  0  0  0  0  0  0  0  0  0  0
   -0.7869    3.7857    0.6506 H   0  0  0  0  0  0  0  0  0  0  0  0
   -0.0086    5.2144   -0.1446 H   0  0  0  0  0  0  0  0  0  0  0  0
    2.2453    5.0176   -1.0503 H   0  0  0  0  0  0  0  0  0  0  0  0
    3.2187    3.5336   -0.7071 H   0  0  0  0  0  0  0  0  0  0  0  0
    2.8025    4.6736    0.6365 H   0  0  0  0  0  0  0  0  0  0  0  0
  1 11  1  0  0  0  0
  1  9  1  0  0  0  0
  2 14  1  0  0  0  0
  2 12  1  0  0  0  0
  3 16  1  0  0  0  0
  4  3  2  0  0  0  0
  4  5  1  0  0  0  0
  5  6  2  0  0  0  0
  6 19  1  0  0  0  0
  7  6  1  0  0  0  0
  7 12  1  0  0  0  0
  8  3  1  0  0  0  0
  8  1  1  0  0  0  0
  9 23  1  0  0  0  0
  9 24  1  0  0  0  0
 10  1  1  0  0  0  0
 10 25  1  0  0  0  0
 11 29  1  0  0  0  0
 11 28  1  0  0  0  0
 12 32  1  0  0  0  0
 12 31  1  0  0  0  0
 13 33  1  0  0  0  0
 13  2  1  0  0  0  0
 14 37  1  0  0  0  0
 14 36  1  0  0  0  0
 15  2  1  0  0  0  0
 15 41  1  0  0  0  0
 16  7  2  0  0  0  0
 17  4  1  0  0  0  0
 18  5  1  0  0  0  0
 20  8  1  0  0  0  0
 21  8  1  0  0  0  0
 22  9  1  0  0  0  0
 26 10  1  0  0  0  0
 27 10  1  0  0  0  0
 30 11  1  0  0  0  0
 34 13  1  0  0  0  0
 35 13  1  0  0  0  0
 38 14  1  0  0  0  0
 39 15  1  0  0  0  0
 40 15  1  0  0  0  0
M  CHG  2   1   1   2   1
M  END
