5
 OpenBabel05122313113D

 23 25  0  0  0  0  0  0  0  0999 V2000
   -1.5051    1.5397   -0.0417 S   0  0  0  0  0  0  0  0  0  0  0  0
   -5.4404    1.4766   -0.0144 S   0  0  0  0  0  0  0  0  0  0  0  0
   -3.4172   -2.2388    0.0231 S   0  0  0  0  0  0  0  0  0  0  0  0
    1.1305    2.0573   -0.0948 O   0  0  0  0  0  0  0  0  0  0  0  0
    1.1556    0.7215   -0.0476 C   0  0  0  0  0  2  0  0  0  0  0  0
   -0.2261    0.2862   -0.0263 C   0  0  0  0  0  0  0  0  0  0  0  0
   -0.7807   -1.0036   -0.0063 C   0  0  0  0  0  0  0  0  0  0  0  0
   -0.1806   -1.9188   -0.0005 H   0  0  0  0  0  0  0  0  0  0  0  0
   -2.1870   -0.9807   -0.0005 C   0  0  0  0  0  0  0  0  0  0  0  0
   -4.6736   -1.0141    0.0142 C   0  0  0  0  0  0  0  0  0  0  0  0
   -6.0966   -1.0642    0.0232 C   0  0  0  0  0  0  0  0  0  0  0  0
   -6.6996   -1.9809    0.0389 H   0  0  0  0  0  0  0  0  0  0  0  0
   -6.6376    0.2090    0.0095 C   0  0  0  0  0  0  0  0  0  0  0  0
   -7.6998    0.4832    0.0121 H   0  0  0  0  0  0  0  0  0  0  0  0
   -4.1565    0.3023   -0.0062 C   0  0  0  0  0  0  0  0  0  0  0  0
   -2.7385    0.3278   -0.0154 C   0  0  0  0  0  0  0  0  0  0  0  0
    2.2820    2.9156   -0.1880 C   0  0  0  0  0  0  0  0  0  0  0  0
    2.6486    2.8815   -1.2341 H   0  0  0  0  0  0  0  0  0  0  0  0
    3.0827    2.5287    0.4693 H   0  0  0  0  0  0  0  0  0  0  0  0
    1.8458    4.3114    0.2091 C   0  0  0  0  0  0  0  0  0  0  0  0
    2.7020    5.0083    0.1190 H   0  0  0  0  0  0  0  0  0  0  0  0
    1.4897    4.3320    1.2578 H   0  0  0  0  0  0  0  0  0  0  0  0
    1.0301    4.6764   -0.4455 H   0  0  0  0  0  0  0  0  0  0  0  0
  1  6  1  0  0  0  0
  1 16  1  0  0  0  0
  2 15  1  0  0  0  0
  2 13  1  0  0  0  0
  4  5  1  0  0  0  0
  5  6  1  0  0  0  0
  6  7  2  0  0  0  0
  7  9  1  0  0  0  0
  7  8  1  0  0  0  0
  9  3  1  0  0  0  0
 10  3  1  0  0  0  0
 10 11  1  0  0  0  0
 11 12  1  0  0  0  0
 13 14  1  0  0  0  0
 13 11  2  0  0  0  0
 15 10  2  0  0  0  0
 16 15  1  0  0  0  0
 16  9  2  0  0  0  0
 17  4  1  0  0  0  0
 17 20  1  0  0  0  0
 17 19  1  0  0  0  0
 18 17  1  0  0  0  0
 20 22  1  0  0  0  0
 21 20  1  0  0  0  0
 23 20  1  0  0  0  0
M  END
