7
 OpenBabel05122313113D

 32 34  0  0  0  0  0  0  0  0999 V2000
   -1.0670    1.4024   -0.1366 S   0  0  0  0  0  0  0  0  0  0  0  0
   -2.5271   -2.5748   -0.0214 S   0  0  0  0  0  0  0  0  0  0  0  0
   -4.9578    0.8944   -0.1809 S   0  0  0  0  0  0  0  0  0  0  0  0
    1.5092    2.2170   -0.1421 O   0  0  0  0  0  0  0  0  0  0  0  0
   -8.2503   -1.3244   -0.1519 O   0  0  0  0  0  0  0  0  0  0  0  0
   -7.8473    0.9254   -0.2302 O   0  0  0  0  0  0  0  0  0  0  0  0
    1.6702    0.8909   -0.0679 C   0  0  0  0  0  2  0  0  0  0  0  0
    0.3438    0.3064   -0.0695 C   0  0  0  0  0  0  0  0  0  0  0  0
   -0.0543   -1.0395   -0.0302 C   0  0  0  0  0  0  0  0  0  0  0  0
    0.6547   -1.8728    0.0092 H   0  0  0  0  0  0  0  0  0  0  0  0
   -1.4540   -1.1818   -0.0513 C   0  0  0  0  0  0  0  0  0  0  0  0
   -2.1518    0.0547   -0.1065 C   0  0  0  0  0  0  0  0  0  0  0  0
   -3.5571   -0.1313   -0.1231 C   0  0  0  0  0  0  0  0  0  0  0  0
   -3.9176   -1.5035   -0.0815 C   0  0  0  0  0  0  0  0  0  0  0  0
   -5.3162   -1.7180   -0.0958 C   0  0  0  0  0  0  0  0  0  0  0  0
   -5.8361   -2.6839   -0.0700 H   0  0  0  0  0  0  0  0  0  0  0  0
   -6.0091   -0.5128   -0.1486 C   0  0  0  0  0  0  0  0  0  0  0  0
   -7.4781   -0.3802   -0.1744 C   0  0  0  0  0  0  0  0  0  0  0  0
   -9.2687    1.1915   -0.2376 C   0  0  0  0  0  0  0  0  0  0  0  0
   -9.3648    2.1720   -0.7432 H   0  0  0  0  0  0  0  0  0  0  0  0
   -9.7702    0.4138   -0.8486 H   0  0  0  0  0  0  0  0  0  0  0  0
   -9.8354    1.2264    1.1720 C   0  0  0  0  0  0  0  0  0  0  0  0
  -10.9065    1.5110    1.1413 H   0  0  0  0  0  0  0  0  0  0  0  0
   -9.2983    1.9658    1.7987 H   0  0  0  0  0  0  0  0  0  0  0  0
   -9.7590    0.2298    1.6485 H   0  0  0  0  0  0  0  0  0  0  0  0
    2.6004    3.1551   -0.1919 C   0  0  0  0  0  0  0  0  0  0  0  0
    3.1121    3.0386   -1.1689 H   0  0  0  0  0  0  0  0  0  0  0  0
    3.3260    2.9024    0.6060 H   0  0  0  0  0  0  0  0  0  0  0  0
    2.0211    4.5442   -0.0202 C   0  0  0  0  0  0  0  0  0  0  0  0
    2.8337    5.2950   -0.0712 H   0  0  0  0  0  0  0  0  0  0  0  0
    1.5154    4.6454    0.9601 H   0  0  0  0  0  0  0  0  0  0  0  0
    1.2874    4.7715   -0.8184 H   0  0  0  0  0  0  0  0  0  0  0  0
  1 12  1  0  0  0  0
  1  8  1  0  0  0  0
  3 17  1  0  0  0  0
  3 13  1  0  0  0  0
  4  7  1  0  0  0  0
  6 18  1  0  0  0  0
  8  7  1  0  0  0  0
  8  9  2  0  0  0  0
  9 10  1  0  0  0  0
 11  9  1  0  0  0  0
 11  2  1  0  0  0  0
 12 11  2  0  0  0  0
 13 12  1  0  0  0  0
 13 14  2  0  0  0  0
 14  2  1  0  0  0  0
 15 14  1  0  0  0  0
 15 16  1  0  0  0  0
 17 15  2  0  0  0  0
 18  5  2  0  0  0  0
 18 17  1  0  0  0  0
 19  6  1  0  0  0  0
 19 22  1  0  0  0  0
 20 19  1  0  0  0  0
 21 19  1  0  0  0  0
 22 25  1  0  0  0  0
 22 24  1  0  0  0  0
 23 22  1  0  0  0  0
 26  4  1  0  0  0  0
 26 29  1  0  0  0  0
 26 28  1  0  0  0  0
 27 26  1  0  0  0  0
 29 31  1  0  0  0  0
 30 29  1  0  0  0  0
 32 29  1  0  0  0  0
M  END
