4
 OpenBabel05122313113D

 29 30  0  0  0  0  0  0  0  0999 V2000
    0.1216   -1.3537    2.2731 N   0  0  0  0  0  0  0  0  0  0  0  0
    1.4122   -1.1141    0.5503 N   0  0  0  0  0  0  0  0  0  0  0  0
    4.5442   -1.5961   -0.8136 O   0  0  0  0  0  0  0  0  0  0  0  0
    0.1425   -0.8579    0.9953 C   0  0  0  0  0  2  0  0  0  0  0  0
    1.3547   -1.8989    2.6166 C   0  0  0  0  0  0  0  0  0  0  0  0
    1.5435   -2.3432    3.5982 H   0  0  0  0  0  0  0  0  0  0  0  0
    2.1705   -1.7485    1.5269 C   0  0  0  0  0  0  0  0  0  0  0  0
    3.2110   -2.0333    1.3480 H   0  0  0  0  0  0  0  0  0  0  0  0
   -1.0200   -1.2352    3.1642 C   0  0  0  0  0  0  0  0  0  0  0  0
   -0.7970   -0.5309    3.9902 H   0  0  0  0  0  0  0  0  0  0  0  0
   -1.2932   -2.2246    3.5814 H   0  0  0  0  0  0  0  0  0  0  0  0
   -1.8599   -0.8285    2.5666 H   0  0  0  0  0  0  0  0  0  0  0  0
    1.9212   -0.6735   -0.7543 C   0  0  0  0  0  0  0  0  0  0  0  0
    1.0633   -0.1650   -1.2394 H   0  0  0  0  0  0  0  0  0  0  0  0
    2.1979   -1.5663   -1.3482 H   0  0  0  0  0  0  0  0  0  0  0  0
    3.0985    0.2667   -0.6363 C   0  0  0  0  0  0  0  0  0  0  0  0
    2.9005    1.6452   -0.4573 C   0  0  0  0  0  0  0  0  0  0  0  0
    1.8677    2.0237   -0.3768 H   0  0  0  0  0  0  0  0  0  0  0  0
    3.9902    2.5244   -0.3562 C   0  0  0  0  0  0  0  0  0  0  0  0
    3.8156    3.6010   -0.2149 H   0  0  0  0  0  0  0  0  0  0  0  0
    5.2946    2.0196   -0.4376 C   0  0  0  0  0  0  0  0  0  0  0  0
    6.1580    2.6988   -0.3664 H   0  0  0  0  0  0  0  0  0  0  0  0
    5.5206    0.6431   -0.6039 C   0  0  0  0  0  0  0  0  0  0  0  0
    6.5501    0.2648   -0.6556 H   0  0  0  0  0  0  0  0  0  0  0  0
    4.4240   -0.2355   -0.6910 C   0  0  0  0  0  0  0  0  0  0  0  0
    5.8379   -2.1498   -0.9662 C   0  0  0  0  0  0  0  0  0  0  0  0
    6.3553   -1.7468   -1.8651 H   0  0  0  0  0  0  0  0  0  0  0  0
    5.6998   -3.2403   -1.0878 H   0  0  0  0  0  0  0  0  0  0  0  0
    6.4778   -1.9635   -0.0746 H   0  0  0  0  0  0  0  0  0  0  0  0
  1  5  1  0  0  0  0
  1  9  1  0  0  0  0
  2  4  1  0  0  0  0
  2  7  1  0  0  0  0
  3 25  1  0  0  0  0
  4  1  1  0  0  0  0
  5  6  1  0  0  0  0
  7  5  2  0  0  0  0
  8  7  1  0  0  0  0
  9 11  1  0  0  0  0
  9 10  1  0  0  0  0
 12  9  1  0  0  0  0
 13 16  1  0  0  0  0
 13  2  1  0  0  0  0
 14 13  1  0  0  0  0
 15 13  1  0  0  0  0
 16 17  1  0  0  0  0
 17 18  1  0  0  0  0
 17 19  2  0  0  0  0
 19 20  1  0  0  0  0
 21 22  1  0  0  0  0
 21 19  1  0  0  0  0
 23 21  2  0  0  0  0
 24 23  1  0  0  0  0
 25 16  2  0  0  0  0
 25 23  1  0  0  0  0
 26  3  1  0  0  0  0
 26 29  1  0  0  0  0
 27 26  1  0  0  0  0
 28 26  1  0  0  0  0
M  END
