2
 OpenBabel05122313113D

 31 34  0  0  0  0  0  0  0  0999 V2000
   -0.2092   -1.6677   -1.7248 O   0  0  0  0  0  0  0  0  0  0  0  0
    0.2218   -0.6176   -0.9877 C   0  0  0  0  0  2  0  0  0  0  0  0
    1.6519   -0.8412   -0.7112 C   0  0  0  0  0  0  0  0  0  0  0  0
    2.6548   -0.0489   -0.1065 C   0  0  0  0  0  0  0  0  0  0  0  0
    2.4719    1.3818    0.2454 C   0  0  0  0  0  0  0  0  0  0  0  0
    2.2161    2.3217   -0.7768 C   0  0  0  0  0  0  0  0  0  0  0  0
    2.1749    3.6924   -0.4879 C   0  0  0  0  0  0  0  0  0  0  0  0
    2.3796    4.1426    0.8263 C   0  0  0  0  0  0  0  0  0  0  0  0
    2.6267    3.2156    1.8508 C   0  0  0  0  0  0  0  0  0  0  0  0
    2.6784    1.8454    1.5632 C   0  0  0  0  0  0  0  0  0  0  0  0
    3.9624   -0.6328    0.0799 C   0  0  0  0  0  0  0  0  0  0  0  0
    5.0573    0.1153    0.6205 C   0  0  0  0  0  0  0  0  0  0  0  0
    6.2997   -0.4656    0.8195 C   0  0  0  0  0  0  0  0  0  0  0  0
    6.5249   -1.8246    0.4773 C   0  0  0  0  0  0  0  0  0  0  0  0
    5.5054   -2.5725   -0.0909 C   0  0  0  0  0  0  0  0  0  0  0  0
    4.2208   -2.0030   -0.3174 C   0  0  0  0  0  0  0  0  0  0  0  0
    3.2029   -2.7472   -0.9790 C   0  0  0  0  0  0  0  0  0  0  0  0
    1.9766   -2.1616   -1.1838 C   0  0  0  0  0  0  0  0  0  0  0  0
    0.7919   -2.6989   -1.9056 C   0  0  0  0  0  0  0  0  0  0  0  0
    2.0859    1.9652   -1.8094 H   0  0  0  0  0  0  0  0  0  0  0  0
    1.9991    4.4183   -1.2967 H   0  0  0  0  0  0  0  0  0  0  0  0
    2.3496    5.2189    1.0517 H   0  0  0  0  0  0  0  0  0  0  0  0
    2.7767    3.5623    2.8839 H   0  0  0  0  0  0  0  0  0  0  0  0
    2.8697    1.1197    2.3678 H   0  0  0  0  0  0  0  0  0  0  0  0
    4.9107    1.1730    0.8727 H   0  0  0  0  0  0  0  0  0  0  0  0
    7.1211    0.1355    1.2364 H   0  0  0  0  0  0  0  0  0  0  0  0
    7.5145   -2.2756    0.6436 H   0  0  0  0  0  0  0  0  0  0  0  0
    5.6784   -3.6176   -0.3893 H   0  0  0  0  0  0  0  0  0  0  0  0
    3.4201   -3.7672   -1.3309 H   0  0  0  0  0  0  0  0  0  0  0  0
    0.9561   -2.8428   -2.9950 H   0  0  0  0  0  0  0  0  0  0  0  0
    0.3732   -3.6403   -1.4897 H   0  0  0  0  0  0  0  0  0  0  0  0
  1  2  1  0  0  0  0
  2  3  1  0  0  0  0
  3  4  1  0  0  0  0
  4 11  2  0  0  0  0
  4  5  1  0  0  0  0
  5 10  1  0  0  0  0
  6  7  1  0  0  0  0
  6  5  2  0  0  0  0
  7  8  2  0  0  0  0
  8 22  1  0  0  0  0
  8  9  1  0  0  0  0
  9 23  1  0  0  0  0
 10  9  2  0  0  0  0
 10 24  1  0  0  0  0
 11 12  1  0  0  0  0
 12 13  2  0  0  0  0
 12 25  1  0  0  0  0
 13 26  1  0  0  0  0
 14 27  1  0  0  0  0
 14 13  1  0  0  0  0
 15 14  2  0  0  0  0
 16 15  1  0  0  0  0
 16 11  1  0  0  0  0
 17 16  2  0  0  0  0
 18 17  1  0  0  0  0
 18  3  2  0  0  0  0
 19  1  1  0  0  0  0
 19 31  1  0  0  0  0
 19 18  1  0  0  0  0
 20  6  1  0  0  0  0
 21  7  1  0  0  0  0
 28 15  1  0  0  0  0
 29 17  1  0  0  0  0
 30 19  1  0  0  0  0
M  END
