2
 OpenBabel05122313113D

 24 23  0  0  0  0  0  0  0  0999 V2000
   -3.9626    1.4871   -0.0040 Si  0  0  0  0  0  0  0  0  0  0  0  0
   -1.7271   -1.0315   -0.0311 C   0  0  0  0  0  1  0  0  0  0  0  0
   -3.1165   -1.3530   -0.0370 C   0  0  0  0  0  0  0  0  0  0  0  0
   -4.1253   -0.4084   -0.0190 C   0  0  0  0  0  0  0  0  0  0  0  0
   -5.5591   -0.8950    0.0029 C   0  0  0  0  0  0  0  0  0  0  0  0
   -6.2947   -0.0696    0.0682 H   0  0  0  0  0  0  0  0  0  0  0  0
   -5.7483   -1.5746    0.8629 H   0  0  0  0  0  0  0  0  0  0  0  0
   -5.8054   -1.4809   -0.9109 H   0  0  0  0  0  0  0  0  0  0  0  0
   -3.4299   -2.8427   -0.0479 C   0  0  0  0  0  0  0  0  0  0  0  0
   -4.0735   -3.1069   -0.9129 H   0  0  0  0  0  0  0  0  0  0  0  0
   -3.9842   -3.1362    0.8685 H   0  0  0  0  0  0  0  0  0  0  0  0
   -2.5089   -3.4510   -0.1021 H   0  0  0  0  0  0  0  0  0  0  0  0
   -2.2425    2.2464   -0.1389 C   0  0  0  0  0  0  0  0  0  0  0  0
   -1.5660    1.9377    0.6785 H   0  0  0  0  0  0  0  0  0  0  0  0
   -2.3598    3.3501   -0.0928 H   0  0  0  0  0  0  0  0  0  0  0  0
   -1.7425    1.9982   -1.0936 H   0  0  0  0  0  0  0  0  0  0  0  0
   -4.7521    2.0853    1.6182 C   0  0  0  0  0  0  0  0  0  0  0  0
   -5.7798    1.6929    1.7562 H   0  0  0  0  0  0  0  0  0  0  0  0
   -4.8065    3.1938    1.6342 H   0  0  0  0  0  0  0  0  0  0  0  0
   -4.1443    1.7624    2.4884 H   0  0  0  0  0  0  0  0  0  0  0  0
   -4.9887    2.1305   -1.4694 C   0  0  0  0  0  0  0  0  0  0  0  0
   -4.5353    1.8112   -2.4305 H   0  0  0  0  0  0  0  0  0  0  0  0
   -5.0130    3.2401   -1.4591 H   0  0  0  0  0  0  0  0  0  0  0  0
   -6.0366    1.7695   -1.4508 H   0  0  0  0  0  0  0  0  0  0  0  0
  1 17  1  0  0  0  0
  3  2  1  0  0  0  0
  3  4  2  0  0  0  0
  4  1  1  0  0  0  0
  4  5  1  0  0  0  0
  5  6  1  0  0  0  0
  5  7  1  0  0  0  0
  8  5  1  0  0  0  0
  9  3  1  0  0  0  0
  9 11  1  0  0  0  0
 10  9  1  0  0  0  0
 12  9  1  0  0  0  0
 13 15  1  0  0  0  0
 13  1  1  0  0  0  0
 13 14  1  0  0  0  0
 16 13  1  0  0  0  0
 17 19  1  0  0  0  0
 17 18  1  0  0  0  0
 17 20  1  0  0  0  0
 21 23  1  0  0  0  0
 21 24  1  0  0  0  0
 21  1  1  0  0  0  0
 22 21  1  0  0  0  0
M  END
