3
 OpenBabel05122313113D

 22 24  0  0  0  0  0  0  0  0999 V2000
    0.3446    1.3176    1.7318 C   0  0  0  0  0  3  0  0  0  0  0  0
    0.7091    2.3232    1.9824 H   0  0  0  0  0  0  0  0  0  0  0  0
    1.0669    0.1767    2.1647 C   0  0  0  0  0  3  0  0  0  0  0  0
    1.9911    0.3210    2.7418 H   0  0  0  0  0  0  0  0  0  0  0  0
    0.6726   -1.1625    1.8105 C   0  0  0  0  0  0  0  0  0  0  0  0
    1.2900   -2.0164    2.1210 H   0  0  0  0  0  0  0  0  0  0  0  0
   -0.4638   -1.3313    0.9940 C   0  0  0  0  0  0  0  0  0  0  0  0
   -1.2343   -0.1761    0.6244 C   0  0  0  0  0  0  0  0  0  0  0  0
   -0.8757    1.1623    0.9711 C   0  0  0  0  0  0  0  0  0  0  0  0
   -1.7380    2.1916    0.4716 C   0  0  0  0  0  0  0  0  0  0  0  0
   -1.5201    3.2431    0.7095 H   0  0  0  0  0  0  0  0  0  0  0  0
   -2.8422    1.8566   -0.3021 C   0  0  0  0  0  0  0  0  0  0  0  0
   -3.4967    2.6625   -0.6679 H   0  0  0  0  0  0  0  0  0  0  0  0
   -3.1526    0.5083   -0.6669 C   0  0  0  0  0  0  0  0  0  0  0  0
   -4.0211    0.3048   -1.3113 H   0  0  0  0  0  0  0  0  0  0  0  0
   -2.3310   -0.5116   -0.2194 C   0  0  0  0  0  0  0  0  0  0  0  0
   -2.2960   -2.0055   -0.4748 C   0  0  0  0  0  0  0  0  0  0  0  0
   -2.0467   -2.1880   -1.5417 H   0  0  0  0  0  0  0  0  0  0  0  0
   -3.2748   -2.4927   -0.2906 H   0  0  0  0  0  0  0  0  0  0  0  0
   -1.1684   -2.5609    0.4549 C   0  0  0  0  0  0  0  0  0  0  0  0
   -1.5991   -3.1316    1.3050 H   0  0  0  0  0  0  0  0  0  0  0  0
   -0.4786   -3.2443   -0.0769 H   0  0  0  0  0  0  0  0  0  0  0  0
  1  2  1  0  0  0  0
  1  3  1  0  0  0  0
  3  4  1  0  0  0  0
  5  6  1  0  0  0  0
  5  3  1  0  0  0  0
  7  5  2  0  0  0  0
  8  9  1  0  0  0  0
  8  7  1  0  0  0  0
  9  1  1  0  0  0  0
 10 11  1  0  0  0  0
 10  9  2  0  0  0  0
 12 10  1  0  0  0  0
 13 12  1  0  0  0  0
 14 12  2  0  0  0  0
 14 16  1  0  0  0  0
 15 14  1  0  0  0  0
 16  8  2  0  0  0  0
 17 19  1  0  0  0  0
 17 16  1  0  0  0  0
 17 20  1  0  0  0  0
 18 17  1  0  0  0  0
 20  7  1  0  0  0  0
 20 21  1  0  0  0  0
 22 20  1  0  0  0  0
M  END
