4
 OpenBabel05122313113D

 29 30  0  0  0  0  0  0  0  0999 V2000
    4.9756   -0.2828   -1.0380 S   0  0  0  0  0  0  0  0  0  0  0  0
   -1.4145   -0.2208   -2.1027 N   0  0  0  0  0  0  0  0  0  0  0  0
    0.7063   -0.6542   -2.1038 N   0  0  0  0  0  0  0  0  0  0  0  0
   -0.2479    0.0909   -1.4629 C   0  0  0  0  0  2  0  0  0  0  0  0
   -1.1948   -1.1403   -3.1195 C   0  0  0  0  0  0  0  0  0  0  0  0
   -2.0058   -1.5137   -3.7507 H   0  0  0  0  0  0  0  0  0  0  0  0
    0.1460   -1.4194   -3.1220 C   0  0  0  0  0  0  0  0  0  0  0  0
    0.7438   -2.0878   -3.7480 H   0  0  0  0  0  0  0  0  0  0  0  0
   -2.6678    0.4882   -1.8923 C   0  0  0  0  0  0  0  0  0  0  0  0
   -2.8025    0.6967   -0.8175 H   0  0  0  0  0  0  0  0  0  0  0  0
   -3.5039   -0.1398   -2.2500 H   0  0  0  0  0  0  0  0  0  0  0  0
   -2.6310    1.4611   -2.4226 H   0  0  0  0  0  0  0  0  0  0  0  0
    2.1230   -0.5808   -1.7993 C   0  0  0  0  0  0  0  0  0  0  0  0
    2.2970    0.4292   -1.3657 H   0  0  0  0  0  0  0  0  0  0  0  0
    2.6898   -0.6048   -2.7554 H   0  0  0  0  0  0  0  0  0  0  0  0
    2.6257   -1.6534   -0.8571 C   0  0  0  0  0  0  0  0  0  0  0  0
    1.7891   -2.6759   -0.3886 C   0  0  0  0  0  0  0  0  0  0  0  0
    0.7507   -2.7042   -0.7460 H   0  0  0  0  0  0  0  0  0  0  0  0
    2.2475   -3.6377    0.5245 C   0  0  0  0  0  0  0  0  0  0  0  0
    1.5680   -4.4243    0.8844 H   0  0  0  0  0  0  0  0  0  0  0  0
    3.5743   -3.5814    0.9719 C   0  0  0  0  0  0  0  0  0  0  0  0
    3.9531   -4.3268    1.6876 H   0  0  0  0  0  0  0  0  0  0  0  0
    4.4359   -2.5767    0.5053 C   0  0  0  0  0  0  0  0  0  0  0  0
    5.4744   -2.5548    0.8619 H   0  0  0  0  0  0  0  0  0  0  0  0
    3.9753   -1.6076   -0.4095 C   0  0  0  0  0  0  0  0  0  0  0  0
    6.5425   -0.4844   -0.1516 C   0  0  0  0  0  0  0  0  0  0  0  0
    6.4036   -0.4021    0.9446 H   0  0  0  0  0  0  0  0  0  0  0  0
    7.1812    0.3512   -0.4946 H   0  0  0  0  0  0  0  0  0  0  0  0
    7.0389   -1.4421   -0.4038 H   0  0  0  0  0  0  0  0  0  0  0  0
  1 25  1  0  0  0  0
  1 26  1  0  0  0  0
  2  9  1  0  0  0  0
  2  4  1  0  0  0  0
  3 13  1  0  0  0  0
  3  4  1  0  0  0  0
  5  2  1  0  0  0  0
  6  5  1  0  0  0  0
  7  5  2  0  0  0  0
  7  3  1  0  0  0  0
  8  7  1  0  0  0  0
  9 10  1  0  0  0  0
 11  9  1  0  0  0  0
 12  9  1  0  0  0  0
 13 14  1  0  0  0  0
 13 16  1  0  0  0  0
 15 13  1  0  0  0  0
 16 25  2  0  0  0  0
 16 17  1  0  0  0  0
 17 19  2  0  0  0  0
 18 17  1  0  0  0  0
 19 20  1  0  0  0  0
 19 21  1  0  0  0  0
 21 22  1  0  0  0  0
 23 24  1  0  0  0  0
 23 21  2  0  0  0  0
 25 23  1  0  0  0  0
 26 27  1  0  0  0  0
 28 26  1  0  0  0  0
 29 26  1  0  0  0  0
M  END
