4
 OpenBabel05122313113D

 18 18  0  0  0  0  0  0  0  0999 V2000
    1.5437    0.1004   -2.4319 N   0  0  0  0  0  0  0  0  0  0  0  0
    0.6445   -0.0713   -2.8871 H   0  0  0  0  0  0  0  0  0  0  0  0
    2.2442    0.6231   -2.9731 H   0  0  0  0  0  0  0  0  0  0  0  0
    1.7558   -0.2903   -1.1736 C   0  0  0  0  0  2  0  0  0  0  0  0
    3.0611    0.1866   -0.6499 C   0  0  0  0  0  0  0  0  0  0  0  0
    3.8811   -0.6315    0.1629 C   0  0  0  0  0  0  0  0  0  0  0  0
    3.5548   -1.6545    0.3914 H   0  0  0  0  0  0  0  0  0  0  0  0
    5.1046   -0.1649    0.6485 C   0  0  0  0  0  0  0  0  0  0  0  0
    5.7266   -0.8333    1.2648 H   0  0  0  0  0  0  0  0  0  0  0  0
    5.5571    1.1443    0.3740 C   0  0  0  0  0  0  0  0  0  0  0  0
    4.7402    1.9622   -0.4303 C   0  0  0  0  0  0  0  0  0  0  0  0
    5.0614    2.9921   -0.6546 H   0  0  0  0  0  0  0  0  0  0  0  0
    3.5249    1.4924   -0.9446 C   0  0  0  0  0  0  0  0  0  0  0  0
    2.8982    2.1678   -1.5463 H   0  0  0  0  0  0  0  0  0  0  0  0
    6.8600    1.6445    0.9412 C   0  0  0  0  0  0  0  0  0  0  0  0
    6.7994    1.7505    2.0453 H   0  0  0  0  0  0  0  0  0  0  0  0
    7.1383    2.6313    0.5237 H   0  0  0  0  0  0  0  0  0  0  0  0
    7.6886    0.9363    0.7347 H   0  0  0  0  0  0  0  0  0  0  0  0
  1  4  1  0  0  0  0
  2  1  1  0  0  0  0
  3  1  1  0  0  0  0
  4  5  1  0  0  0  0
  5  6  1  0  0  0  0
  6  7  1  0  0  0  0
  6  8  2  0  0  0  0
  8  9  1  0  0  0  0
 10  8  1  0  0  0  0
 10 15  1  0  0  0  0
 11 10  2  0  0  0  0
 12 11  1  0  0  0  0
 13  5  2  0  0  0  0
 13 11  1  0  0  0  0
 14 13  1  0  0  0  0
 15 16  1  0  0  0  0
 17 15  1  0  0  0  0
 18 15  1  0  0  0  0
M  END
