12
 OpenBabel05122313113D

 26 27  0  0  0  0  0  0  0  0999 V2000
    2.6624   -1.0840   -0.7512 Se  0  0  0  0  0  0  0  0  0  0  0  0
    0.0368    2.5617    0.6039 N   0  0  0  0  0  0  0  0  0  0  0  0
    1.1912    1.3887   -0.7949 N   0  0  0  0  0  0  0  0  0  0  0  0
   -1.0520    3.0373    1.4426 C   0  0  0  0  0  0  0  0  0  0  0  0
   -1.2006    4.1259    1.3036 H   0  0  0  0  0  0  0  0  0  0  0  0
   -0.8388    2.8264    2.5096 H   0  0  0  0  0  0  0  0  0  0  0  0
   -1.9720    2.4991    1.1479 H   0  0  0  0  0  0  0  0  0  0  0  0
    1.3234    3.0871    0.6111 C   0  0  0  0  0  0  0  0  0  0  0  0
    1.6058    3.9446    1.2293 H   0  0  0  0  0  0  0  0  0  0  0  0
    2.0582    2.3391   -0.2702 C   0  0  0  0  0  0  0  0  0  0  0  0
    3.1126    2.3925   -0.5560 H   0  0  0  0  0  0  0  0  0  0  0  0
   -0.0648    1.5017   -0.2520 C   0  0  0  0  0  2  0  0  0  0  0  0
    1.5810    0.3115   -1.6760 C   0  0  0  0  0  0  0  0  0  0  0  0
    2.2092    0.6882   -2.5059 H   0  0  0  0  0  0  0  0  0  0  0  0
    0.6567   -0.1459   -2.0763 H   0  0  0  0  0  0  0  0  0  0  0  0
    1.3550   -1.3866    0.6384 C   0  0  0  0  0  0  0  0  0  0  0  0
    1.4820   -0.7085    1.8655 C   0  0  0  0  0  0  0  0  0  0  0  0
    2.3573   -0.0665    2.0454 H   0  0  0  0  0  0  0  0  0  0  0  0
    0.4807   -0.8457    2.8403 C   0  0  0  0  0  0  0  0  0  0  0  0
    0.5788   -0.3164    3.8008 H   0  0  0  0  0  0  0  0  0  0  0  0
   -0.6458   -1.6452    2.5870 C   0  0  0  0  0  0  0  0  0  0  0  0
   -1.4404   -1.7340    3.3430 H   0  0  0  0  0  0  0  0  0  0  0  0
   -0.7704   -2.3205    1.3626 C   0  0  0  0  0  0  0  0  0  0  0  0
   -1.6714   -2.9090    1.1385 H   0  0  0  0  0  0  0  0  0  0  0  0
    0.2354   -2.2015    0.3895 C   0  0  0  0  0  0  0  0  0  0  0  0
    0.1334   -2.7193   -0.5756 H   0  0  0  0  0  0  0  0  0  0  0  0
  1 16  1  0  0  0  0
  2  8  1  0  0  0  0
  2  4  1  0  0  0  0
  3 10  1  0  0  0  0
  3 12  1  0  0  0  0
  4  6  1  0  0  0  0
  5  4  1  0  0  0  0
  7  4  1  0  0  0  0
  8  9  1  0  0  0  0
 10  8  2  0  0  0  0
 11 10  1  0  0  0  0
 12  2  1  0  0  0  0
 13  3  1  0  0  0  0
 13  1  1  0  0  0  0
 14 13  1  0  0  0  0
 15 13  1  0  0  0  0
 16 17  1  0  0  0  0
 17 18  1  0  0  0  0
 17 19  2  0  0  0  0
 19 20  1  0  0  0  0
 21 19  1  0  0  0  0
 21 22  1  0  0  0  0
 23 21  2  0  0  0  0
 24 23  1  0  0  0  0
 25 16  2  0  0  0  0
 25 23  1  0  0  0  0
 26 25  1  0  0  0  0
M  END
