4
 OpenBabel05122313113D

 37 39  0  0  0  0  0  0  0  0999 V2000
   -3.5636   -0.1390   -0.7569 Si  0  0  0  0  0  0  0  0  0  0  0  0
   -1.9241   -0.7702    0.0399 C   0  0  0  0  0  0  0  0  0  0  0  0
   -1.2516   -2.0003   -0.5617 C   0  0  0  0  0  3  0  0  0  0  0  0
   -0.4682   -1.5904   -1.7005 C   0  0  0  0  0  3  0  0  0  0  0  0
   -0.1493   -0.2087   -1.4973 C   0  0  0  0  0  3  0  0  0  0  0  0
   -0.7512    0.1635   -0.2417 C   0  0  0  0  0  3  0  0  0  0  0  0
   -3.4742   -0.2256   -2.6441 C   0  0  0  0  0  0  0  0  0  0  0  0
   -5.0426   -1.1445   -0.1344 C   0  0  0  0  0  0  0  0  0  0  0  0
   -6.3607   -0.7583   -0.4743 C   0  0  0  0  0  0  0  0  0  0  0  0
   -7.4707   -1.4956   -0.0361 C   0  0  0  0  0  0  0  0  0  0  0  0
   -7.2839   -2.6415    0.7549 C   0  0  0  0  0  0  0  0  0  0  0  0
   -5.9853   -3.0417    1.1051 C   0  0  0  0  0  0  0  0  0  0  0  0
   -4.8781   -2.2980    0.6647 C   0  0  0  0  0  0  0  0  0  0  0  0
   -3.7443    1.6634   -0.1955 C   0  0  0  0  0  0  0  0  0  0  0  0
   -4.5620    2.0212    0.9004 C   0  0  0  0  0  0  0  0  0  0  0  0
   -4.5951    3.3397    1.3821 C   0  0  0  0  0  0  0  0  0  0  0  0
   -3.8033    4.3299    0.7789 C   0  0  0  0  0  0  0  0  0  0  0  0
   -2.9833    3.9961   -0.3114 C   0  0  0  0  0  0  0  0  0  0  0  0
   -2.9593    2.6782   -0.7930 C   0  0  0  0  0  0  0  0  0  0  0  0
   -2.1047   -0.8783    1.1294 H   0  0  0  0  0  0  0  0  0  0  0  0
   -1.6274   -3.0263   -0.4396 H   0  0  0  0  0  0  0  0  0  0  0  0
   -0.1658   -2.2136   -2.5524 H   0  0  0  0  0  0  0  0  0  0  0  0
    0.4360    0.4350   -2.1668 H   0  0  0  0  0  0  0  0  0  0  0  0
   -0.6744    1.1743    0.1786 H   0  0  0  0  0  0  0  0  0  0  0  0
   -3.3068   -1.2710   -2.9728 H   0  0  0  0  0  0  0  0  0  0  0  0
   -2.6440    0.3924   -3.0404 H   0  0  0  0  0  0  0  0  0  0  0  0
   -4.4212    0.1328   -3.0959 H   0  0  0  0  0  0  0  0  0  0  0  0
   -6.5244    0.1431   -1.0884 H   0  0  0  0  0  0  0  0  0  0  0  0
   -8.4878   -1.1755   -0.3110 H   0  0  0  0  0  0  0  0  0  0  0  0
   -8.1533   -3.2219    1.1004 H   0  0  0  0  0  0  0  0  0  0  0  0
   -5.8329   -3.9373    1.7271 H   0  0  0  0  0  0  0  0  0  0  0  0
   -3.8669   -2.6259    0.9544 H   0  0  0  0  0  0  0  0  0  0  0  0
   -5.1851    1.2526    1.3857 H   0  0  0  0  0  0  0  0  0  0  0  0
   -5.2419    3.5960    2.2357 H   0  0  0  0  0  0  0  0  0  0  0  0
   -3.8263    5.3635    1.1578 H   0  0  0  0  0  0  0  0  0  0  0  0
   -2.3574    4.7660   -0.7891 H   0  0  0  0  0  0  0  0  0  0  0  0
   -2.3067    2.4364   -1.6476 H   0  0  0  0  0  0  0  0  0  0  0  0
  1 14  1  0  0  0  0
  1  8  1  0  0  0  0
  1  2  1  0  0  0  0
  2 20  1  0  0  0  0
  3 21  1  0  0  0  0
  3  2  1  0  0  0  0
  4  5  1  0  0  0  0
  4  3  1  0  0  0  0
  5  6  1  0  0  0  0
  6  2  1  0  0  0  0
  6 24  1  0  0  0  0
  7  1  1  0  0  0  0
  8 13  1  0  0  0  0
  9  8  2  0  0  0  0
  9 10  1  0  0  0  0
 10 11  2  0  0  0  0
 11 30  1  0  0  0  0
 11 12  1  0  0  0  0
 12 31  1  0  0  0  0
 13 32  1  0  0  0  0
 13 12  2  0  0  0  0
 14 15  1  0  0  0  0
 15 16  2  0  0  0  0
 15 33  1  0  0  0  0
 16 34  1  0  0  0  0
 17 35  1  0  0  0  0
 17 16  1  0  0  0  0
 18 17  2  0  0  0  0
 19 18  1  0  0  0  0
 19 14  2  0  0  0  0
 22  4  1  0  0  0  0
 23  5  1  0  0  0  0
 25  7  1  0  0  0  0
 26  7  1  0  0  0  0
 27  7  1  0  0  0  0
 28  9  1  0  0  0  0
 29 10  1  0  0  0  0
 36 18  1  0  0  0  0
 37 19  1  0  0  0  0
M  END
