1
 OpenBabel05122313113D

 12 11  0  0  0  0  0  0  0  0999 V2000
    1.8765    0.6652   -0.1189 C   0  0  0  0  0  3  0  0  0  0  0  0
    3.0846    0.9418   -0.1984 C   0  0  0  0  0  0  0  0  0  0  0  0
    4.4945    1.1919   -0.2880 C   0  0  0  0  0  0  0  0  0  0  0  0
    5.1801   -0.0019   -0.3595 O   0  0  0  0  0  0  0  0  0  0  0  0
    6.6155    0.1053   -0.4356 C   0  0  0  0  0  0  0  0  0  0  0  0
    7.2418    0.2543    0.9427 C   0  0  0  0  0  0  0  0  0  0  0  0
    8.3480    0.2532    0.8636 H   0  0  0  0  0  0  0  0  0  0  0  0
    6.9407   -0.5797    1.6081 H   0  0  0  0  0  0  0  0  0  0  0  0
    6.9305    1.2106    1.4058 H   0  0  0  0  0  0  0  0  0  0  0  0
    6.8786    0.9698   -1.0791 H   0  0  0  0  0  0  0  0  0  0  0  0
    6.9422   -0.8306   -0.9313 H   0  0  0  0  0  0  0  0  0  0  0  0
    5.0488    2.2813   -0.3044 O   0  0  0  0  0  0  0  0  0  0  0  0
  2  1  3  0  0  0  0
  3  2  1  0  0  0  0
  4  3  1  0  0  0  0
  5  4  1  0  0  0  0
  5  6  1  0  0  0  0
  6  9  1  0  0  0  0
  6  8  1  0  0  0  0
  7  6  1  0  0  0  0
 10  5  1  0  0  0  0
 11  5  1  0  0  0  0
 12  3  2  0  0  0  0
M  END
