2
 OpenBabel05122313113D

 39 40  0  0  1  0  0  0  0  0999 V2000
    2.6002   -0.4951   -0.0000 Si  0  0  0  0  0  0  0  0  0  0  0  0
    0.9120   -1.3654   -0.0000 C   0  0  2  0  0  3  0  0  0  0  0  0
    0.0599   -1.5160   -1.1595 C   0  0  2  0  0  3  0  0  0  0  0  0
   -1.2701   -1.8309   -0.7131 C   0  0  0  0  0  0  0  0  0  0  0  0
    0.4399   -1.4956   -2.6140 C   0  0  0  0  0  0  0  0  0  0  0  0
    1.3661   -0.9281   -2.8076 H   0  0  0  0  0  0  0  0  0  0  0  0
   -0.3650   -1.0461   -3.2269 H   0  0  0  0  0  0  0  0  0  0  0  0
    0.6064   -2.5298   -2.9867 H   0  0  0  0  0  0  0  0  0  0  0  0
   -2.4090   -2.1881   -1.6151 C   0  0  0  0  0  0  0  0  0  0  0  0
   -3.3485   -2.3348   -1.0501 H   0  0  0  0  0  0  0  0  0  0  0  0
   -2.1910   -3.1271   -2.1665 H   0  0  0  0  0  0  0  0  0  0  0  0
   -2.5913   -1.3897   -2.3634 H   0  0  0  0  0  0  0  0  0  0  0  0
    1.8605    1.2412    0.0000 C   0  0  0  0  0  0  0  0  0  0  0  0
    1.2676    1.8687    1.1472 C   0  0  0  0  0  3  0  0  0  0  0  0
    1.4574    1.6046    2.1960 H   0  0  0  0  0  0  0  0  0  0  0  0
    0.3784    2.8973    0.7083 C   0  0  0  0  0  0  0  0  0  0  0  0
   -0.2259    3.5438    1.3549 H   0  0  0  0  0  0  0  0  0  0  0  0
    3.6599   -0.8197   -1.5290 C   0  0  0  0  0  0  0  0  0  0  0  0
    4.6830   -0.4325   -1.3452 H   0  0  0  0  0  0  0  0  0  0  0  0
    3.2755   -0.3223   -2.4397 H   0  0  0  0  0  0  0  0  0  0  0  0
    3.7379   -1.9058   -1.7388 H   0  0  0  0  0  0  0  0  0  0  0  0
    0.0599   -1.5161    1.1594 C   0  0  1  0  0  3  0  0  0  0  0  0
   -1.2702   -1.8310    0.7130 C   0  0  0  0  0  0  0  0  0  0  0  0
    1.2676    1.8687   -1.1472 C   0  0  0  0  0  0  0  0  0  0  0  0
    0.3784    2.8973   -0.7082 C   0  0  0  0  0  0  0  0  0  0  0  0
    1.4574    1.6046   -2.1960 H   0  0  0  0  0  0  0  0  0  0  0  0
   -0.2259    3.5438   -1.3548 H   0  0  0  0  0  0  0  0  0  0  0  0
    0.4399   -1.4958    2.6139 C   0  0  0  0  0  0  0  0  0  0  0  0
    1.3659   -0.9280    2.8076 H   0  0  0  0  0  0  0  0  0  0  0  0
   -0.3651   -1.0466    3.2269 H   0  0  0  0  0  0  0  0  0  0  0  0
    0.6067   -2.5300    2.9864 H   0  0  0  0  0  0  0  0  0  0  0  0
   -2.4090   -2.1882    1.6149 C   0  0  0  0  0  0  0  0  0  0  0  0
   -3.3485   -2.3349    1.0499 H   0  0  0  0  0  0  0  0  0  0  0  0
   -2.1910   -3.1272    2.1663 H   0  0  0  0  0  0  0  0  0  0  0  0
   -2.5913   -1.3899    2.3633 H   0  0  0  0  0  0  0  0  0  0  0  0
    3.6599   -0.8198    1.5289 C   0  0  0  0  0  0  0  0  0  0  0  0
    4.6830   -0.4326    1.3452 H   0  0  0  0  0  0  0  0  0  0  0  0
    3.2755   -0.3224    2.4397 H   0  0  0  0  0  0  0  0  0  0  0  0
    3.7379   -1.9059    1.7387 H   0  0  0  0  0  0  0  0  0  0  0  0
  1 13  1  0  0  0  0
  1 36  1  0  0  0  0
  2  1  1  1  0  0  0
  2 22  1  0  0  0  0
  3  5  1  6  0  0  0
  3  4  1  0  0  0  0
  3  2  1  0  0  0  0
  4 23  2  0  0  0  0
  6  5  1  0  0  0  0
  7  5  1  0  0  0  0
  8  5  1  0  0  0  0
  9 10  1  0  0  0  0
  9  4  1  0  0  0  0
 11  9  1  0  0  0  0
 12  9  1  0  0  0  0
 13 14  1  0  0  0  0
 14 15  1  0  0  0  0
 16 14  1  0  0  0  0
 16 17  1  0  0  0  0
 18 19  1  0  0  0  0
 18  1  1  0  0  0  0
 20 18  1  0  0  0  0
 21 18  1  0  0  0  0
 22 28  1  1  0  0  0
 23 22  1  0  0  0  0
 23 32  1  0  0  0  0
 24 25  1  0  0  0  0
 24 13  2  0  0  0  0
 25 16  2  0  0  0  0
 26 24  1  0  0  0  0
 27 25  1  0  0  0  0
 28 29  1  0  0  0  0
 28 31  1  0  0  0  0
 28 30  1  0  0  0  0
 32 34  1  0  0  0  0
 32 35  1  0  0  0  0
 33 32  1  0  0  0  0
 36 39  1  0  0  0  0
 36 38  1  0  0  0  0
 37 36  1  0  0  0  0
M  END
