3
 OpenBabel05122313113D

 17 18  0  0  0  0  0  0  0  0999 V2000
    2.0275    0.3340   -0.8808 O   0  0  0  0  0  0  0  0  0  0  0  0
    2.2279   -0.3158    1.1984 N   0  0  0  0  0  0  0  0  0  0  0  0
    1.4016   -0.3480    0.1210 C   0  0  0  0  0  2  0  0  0  0  0  0
    3.2563    0.7842   -0.4409 C   0  0  0  0  0  0  0  0  0  0  0  0
    4.2244    1.5107   -1.1308 C   0  0  0  0  0  0  0  0  0  0  0  0
    4.0874    1.8146   -2.1771 H   0  0  0  0  0  0  0  0  0  0  0  0
    5.3855    1.8193   -0.4012 C   0  0  0  0  0  0  0  0  0  0  0  0
    6.1889    2.3878   -0.8917 H   0  0  0  0  0  0  0  0  0  0  0  0
    5.5505    1.4147    0.9427 C   0  0  0  0  0  0  0  0  0  0  0  0
    6.4791    1.6774    1.4698 H   0  0  0  0  0  0  0  0  0  0  0  0
    4.5639    0.6823    1.6227 C   0  0  0  0  0  0  0  0  0  0  0  0
    4.6996    0.3651    2.6657 H   0  0  0  0  0  0  0  0  0  0  0  0
    3.4086    0.3775    0.8915 C   0  0  0  0  0  0  0  0  0  0  0  0
    1.9759   -0.9126    2.4998 C   0  0  0  0  0  0  0  0  0  0  0  0
    0.9504   -1.3119    2.5225 H   0  0  0  0  0  0  0  0  0  0  0  0
    2.0924   -0.1455    3.2898 H   0  0  0  0  0  0  0  0  0  0  0  0
    2.6898   -1.7390    2.6858 H   0  0  0  0  0  0  0  0  0  0  0  0
  1  4  1  0  0  0  0
  1  3  1  0  0  0  0
  2 14  1  0  0  0  0
  3  2  1  0  0  0  0
  4 13  1  0  0  0  0
  5  4  2  0  0  0  0
  5  7  1  0  0  0  0
  6  5  1  0  0  0  0
  7  9  2  0  0  0  0
  8  7  1  0  0  0  0
  9 10  1  0  0  0  0
  9 11  1  0  0  0  0
 11 12  1  0  0  0  0
 13  2  1  0  0  0  0
 13 11  2  0  0  0  0
 14 15  1  0  0  0  0
 14 17  1  0  0  0  0
 14 16  1  0  0  0  0
M  END
