1
 OpenBabel05122313113D

 13 12  0  0  1  0  0  0  0  0999 V2000
   -0.7076    2.5006   -1.0955 C   0  0  0  0  0  3  0  0  0  0  0  0
   -1.4149    2.9687   -0.3854 H   0  0  0  0  0  0  0  0  0  0  0  0
    1.7877    2.8841   -1.7686 C   0  0  0  0  0  0  0  0  0  0  0  0
    1.7664    3.9404   -2.1189 H   0  0  0  0  0  0  0  0  0  0  0  0
    1.6726    2.2370   -2.6589 H   0  0  0  0  0  0  0  0  0  0  0  0
    2.7918    2.6980   -1.3405 H   0  0  0  0  0  0  0  0  0  0  0  0
   -1.1466    2.6085   -2.5403 C   0  0  0  0  0  0  0  0  0  0  0  0
   -0.9978    3.6408   -2.9334 H   0  0  0  0  0  0  0  0  0  0  0  0
   -2.2223    2.3710   -2.6507 H   0  0  0  0  0  0  0  0  0  0  0  0
   -0.5885    1.9262   -3.2142 H   0  0  0  0  0  0  0  0  0  0  0  0
    0.6978    2.6255   -0.7393 C   0  0  1  0  0  3  0  0  0  0  0  0
    0.9485    3.1680    0.5670 C   0  0  0  0  0  0  0  0  0  0  0  0
    1.1563    3.5991    1.6460 N   0  0  0  0  0  0  0  0  0  0  0  0
  1 11  1  0  0  0  0
  1  2  1  0  0  0  0
  3  6  1  0  0  0  0
  3 11  1  0  0  0  0
  4  3  1  0  0  0  0
  5  3  1  0  0  0  0
  7  1  1  0  0  0  0
  8  7  1  0  0  0  0
  9  7  1  0  0  0  0
 10  7  1  0  0  0  0
 11 12  1  1  0  0  0
 12 13  3  0  0  0  0
M  END
