9
 OpenBabel05122313113D

 26 27  0  0  0  0  0  0  0  0999 V2000
   -1.3277    2.5343    1.9328 O   0  0  0  0  0  0  0  0  0  0  0  0
   -3.5031    2.6993    1.7562 O   0  0  0  0  0  0  0  0  0  0  0  0
   -5.5425   -1.4856    0.2593 O   0  0  0  0  0  0  0  0  0  0  0  0
   -4.5566   -2.6597   -1.3024 O   0  0  0  0  0  0  0  0  0  0  0  0
   -0.2424    1.9309   -0.5612 N   0  0  0  0  0  0  0  0  0  0  0  0
    1.8044    2.6306   -0.5516 N   0  0  0  0  0  0  0  0  0  0  0  0
   -2.4132    2.2328    1.4334 N   0  0  0  0  0  0  0  0  0  0  0  0
   -4.6220   -1.7105   -0.5241 N   0  0  0  0  0  0  0  0  0  0  0  0
    1.0620    1.4920   -0.4648 C   0  0  0  0  0  2  0  0  0  0  0  0
    0.9937    3.7549   -0.6977 C   0  0  0  0  0  0  0  0  0  0  0  0
    1.4043    4.7636   -0.8004 H   0  0  0  0  0  0  0  0  0  0  0  0
   -0.3012    3.3193   -0.6964 C   0  0  0  0  0  0  0  0  0  0  0  0
   -1.2437    3.8638   -0.7999 H   0  0  0  0  0  0  0  0  0  0  0  0
   -1.3418    1.0360   -0.5257 C   0  0  0  0  0  0  0  0  0  0  0  0
   -2.4166    1.1928    0.3781 C   0  0  0  0  0  0  0  0  0  0  0  0
   -3.5091    0.3152    0.3656 C   0  0  0  0  0  0  0  0  0  0  0  0
   -4.3489    0.4510    1.0581 H   0  0  0  0  0  0  0  0  0  0  0  0
   -3.4841   -0.7529   -0.5302 C   0  0  0  0  0  0  0  0  0  0  0  0
   -2.4290   -0.9462   -1.4338 C   0  0  0  0  0  0  0  0  0  0  0  0
   -2.4657   -1.7952   -2.1289 H   0  0  0  0  0  0  0  0  0  0  0  0
   -1.3624   -0.0409   -1.4361 C   0  0  0  0  0  0  0  0  0  0  0  0
   -0.5248   -0.1459   -2.1459 H   0  0  0  0  0  0  0  0  0  0  0  0
    3.2586    2.6419   -0.5498 C   0  0  0  0  0  0  0  0  0  0  0  0
    3.5987    1.6015   -0.3898 H   0  0  0  0  0  0  0  0  0  0  0  0
    3.6401    3.2936    0.2606 H   0  0  0  0  0  0  0  0  0  0  0  0
    3.6419    2.9973   -1.5263 H   0  0  0  0  0  0  0  0  0  0  0  0
  4  8  2  0  0  0  0
  5 14  1  0  0  0  0
  5  9  1  0  0  0  0
  6 23  1  0  0  0  0
  6  9  1  0  0  0  0
  7  2  2  0  0  0  0
  7  1  2  0  0  0  0
  8  3  2  0  0  0  0
 10 12  2  0  0  0  0
 10  6  1  0  0  0  0
 11 10  1  0  0  0  0
 12  5  1  0  0  0  0
 13 12  1  0  0  0  0
 14 15  1  0  0  0  0
 15  7  1  0  0  0  0
 16 15  2  0  0  0  0
 16 17  1  0  0  0  0
 18  8  1  0  0  0  0
 18 16  1  0  0  0  0
 19 18  2  0  0  0  0
 20 19  1  0  0  0  0
 21 19  1  0  0  0  0
 21 14  2  0  0  0  0
 22 21  1  0  0  0  0
 23 24  1  0  0  0  0
 23 25  1  0  0  0  0
 26 23  1  0  0  0  0
M  END
