2
 OpenBabel05122313113D

 14 14  0  0  1  0  0  0  0  0999 V2000
    3.9449   -1.3481    0.8596 O   0  0  0  0  0  0  0  0  0  0  0  0
    3.0713    0.3937   -0.3521 C   0  0  0  0  0  3  0  0  0  0  0  0
    2.9916    1.4872   -0.4784 H   0  0  0  0  0  0  0  0  0  0  0  0
    3.3857   -0.1437    0.9162 C   0  0  2  0  0  3  0  0  0  0  0  0
    3.9610   -1.7825   -0.5420 C   0  0  0  0  0  0  0  0  0  0  0  0
    3.0875   -2.4605   -0.6643 H   0  0  0  0  0  0  0  0  0  0  0  0
    4.8964   -2.3486   -0.6995 H   0  0  0  0  0  0  0  0  0  0  0  0
    3.8045   -0.4945   -1.3584 C   0  0  0  0  0  0  0  0  0  0  0  0
    3.2576   -0.6661   -2.3042 H   0  0  0  0  0  0  0  0  0  0  0  0
    4.7891   -0.0453   -1.6129 H   0  0  0  0  0  0  0  0  0  0  0  0
    3.2617    0.4664    2.2666 C   0  0  0  0  0  0  0  0  0  0  0  0
    4.2790    0.6231    2.6831 H   0  0  0  0  0  0  0  0  0  0  0  0
    2.7312   -0.2155    2.9600 H   0  0  0  0  0  0  0  0  0  0  0  0
    2.7329    1.4338    2.2129 H   0  0  0  0  0  0  0  0  0  0  0  0
  1  4  1  0  0  0  0
  2  4  1  0  0  0  0
  3  2  1  0  0  0  0
  4 11  1  6  0  0  0
  5  1  1  0  0  0  0
  6  5  1  0  0  0  0
  7  5  1  0  0  0  0
  8  5  1  0  0  0  0
  8  2  1  0  0  0  0
  9  8  1  0  0  0  0
 10  8  1  0  0  0  0
 11 12  1  0  0  0  0
 11 13  1  0  0  0  0
 14 11  1  0  0  0  0
M  END
