1
 OpenBabel05122313113D

 19 19  0  0  0  0  0  0  0  0999 V2000
   -2.8018    1.5293    0.0347 C   0  0  0  0  0  2  0  0  0  0  0  0
   -2.9796    2.8577    0.0449 N   0  0  0  0  0  0  0  0  0  0  0  0
   -3.9330    3.2313   -0.0633 H   0  0  0  0  0  0  0  0  0  0  0  0
   -1.9289    3.8617    0.1171 C   0  0  0  0  0  0  0  0  0  0  0  0
   -1.0128    3.4079    0.5347 H   0  0  0  0  0  0  0  0  0  0  0  0
   -2.2555    4.6929    0.7726 H   0  0  0  0  0  0  0  0  0  0  0  0
   -1.6859    4.2683   -0.8871 H   0  0  0  0  0  0  0  0  0  0  0  0
   -3.9516    0.8252   -0.1236 N   0  0  0  0  0  0  0  0  0  0  0  0
   -4.8119    1.3507   -0.3344 H   0  0  0  0  0  0  0  0  0  0  0  0
   -4.1591   -0.5701   -0.0894 C   0  0  0  0  0  0  0  0  0  0  0  0
   -5.3177   -1.0901   -0.7000 C   0  0  0  0  0  0  0  0  0  0  0  0
   -6.0356   -0.4282   -1.2107 H   0  0  0  0  0  0  0  0  0  0  0  0
   -5.5335   -2.4744   -0.6589 C   0  0  0  0  0  0  0  0  0  0  0  0
   -6.4376   -2.8976   -1.1323 H   0  0  0  0  0  0  0  0  0  0  0  0
   -4.6944   -3.3465   -0.0786 N   0  0  0  0  0  0  0  0  0  0  0  0
   -3.5977   -2.8346    0.5036 C   0  0  0  0  0  0  0  0  0  0  0  0
   -2.9063   -3.5511    0.9801 H   0  0  0  0  0  0  0  0  0  0  0  0
   -3.2875   -1.4679    0.5475 C   0  0  0  0  0  0  0  0  0  0  0  0
   -2.3800   -1.1179    1.0569 H   0  0  0  0  0  0  0  0  0  0  0  0
  1  2  1  0  0  0  0
  2  4  1  0  0  0  0
  3  2  1  0  0  0  0
  4  5  1  0  0  0  0
  4  6  1  0  0  0  0
  7  4  1  0  0  0  0
  8 10  1  0  0  0  0
  8  1  1  0  0  0  0
  9  8  1  0  0  0  0
 10 18  1  0  0  0  0
 11 13  1  0  0  0  0
 11 10  2  0  0  0  0
 12 11  1  0  0  0  0
 13 15  2  0  0  0  0
 14 13  1  0  0  0  0
 15 16  1  0  0  0  0
 16 18  2  0  0  0  0
 16 17  1  0  0  0  0
 18 19  1  0  0  0  0
M  END
