27
 OpenBabel05122313113D

 62 63  0  0  0  0  0  0  0  0999 V2000
    1.6994   -0.5634    1.1763 N   0  0  0  0  0  0  0  0  0  0  0  0
    0.0782    0.5661    2.0558 N   0  0  0  0  0  0  0  0  0  0  0  0
   -2.4271    0.9876    0.3676 N   0  0  0  0  0  0  0  0  0  0  0  0
   -3.5932   -1.0271    0.7511 N   0  0  0  0  0  0  0  0  0  0  0  0
   -4.4806   -1.5056    0.5668 H   0  0  0  0  0  0  0  0  0  0  0  0
   -4.2508    0.4933   -1.0027 N   0  0  0  0  0  0  0  0  0  0  0  0
    2.5762   -1.9946   -0.6074 C   0  0  0  0  0  0  0  0  0  0  0  0
    3.6448   -2.3583   -1.4451 C   0  0  0  0  0  0  0  0  0  0  0  0
    3.4973   -3.1797   -2.1644 H   0  0  0  0  0  0  0  0  0  0  0  0
    4.8822   -1.6914   -1.4026 C   0  0  0  0  0  0  0  0  0  0  0  0
    5.0352   -0.6295   -0.4922 C   0  0  0  0  0  0  0  0  0  0  0  0
    5.9933   -0.0870   -0.4525 H   0  0  0  0  0  0  0  0  0  0  0  0
    4.0026   -0.2267    0.3724 C   0  0  0  0  0  0  0  0  0  0  0  0
    2.7811   -0.9368    0.3057 C   0  0  0  0  0  0  0  0  0  0  0  0
    1.2367   -2.6759   -0.7135 C   0  0  0  0  0  0  0  0  0  0  0  0
    0.9895   -3.2687    0.1918 H   0  0  0  0  0  0  0  0  0  0  0  0
    1.2073   -3.3609   -1.5815 H   0  0  0  0  0  0  0  0  0  0  0  0
    0.4249   -1.9297   -0.8339 H   0  0  0  0  0  0  0  0  0  0  0  0
    6.0069   -2.0733   -2.3313 C   0  0  0  0  0  0  0  0  0  0  0  0
    5.8307   -3.0574   -2.8067 H   0  0  0  0  0  0  0  0  0  0  0  0
    6.9778   -2.1151   -1.7976 H   0  0  0  0  0  0  0  0  0  0  0  0
    6.1189   -1.3247   -3.1443 H   0  0  0  0  0  0  0  0  0  0  0  0
    4.1876    0.9512    1.2913 C   0  0  0  0  0  0  0  0  0  0  0  0
    3.6928    1.8509    0.8587 H   0  0  0  0  0  0  0  0  0  0  0  0
    5.2604    1.1836    1.4290 H   0  0  0  0  0  0  0  0  0  0  0  0
    3.7278    0.7839    2.2853 H   0  0  0  0  0  0  0  0  0  0  0  0
    0.9933    0.6061    1.0369 C   0  0  0  0  0  2  0  0  0  0  0  0
    1.2362   -1.3099    2.2565 C   0  0  0  0  0  0  0  0  0  0  0  0
    1.6885   -2.2628    2.5456 H   0  0  0  0  0  0  0  0  0  0  0  0
    0.2065   -0.5929    2.8106 C   0  0  0  0  0  0  0  0  0  0  0  0
   -0.4294   -0.8093    3.6741 H   0  0  0  0  0  0  0  0  0  0  0  0
   -0.9035    1.6232    2.2703 C   0  0  0  0  0  0  0  0  0  0  0  0
   -0.5041    2.5121    1.7416 H   0  0  0  0  0  0  0  0  0  0  0  0
   -0.9400    1.8657    3.3521 H   0  0  0  0  0  0  0  0  0  0  0  0
   -2.3174    1.2822    1.7904 C   0  0  0  0  0  0  0  0  0  0  0  0
   -2.7172    0.4139    2.3490 H   0  0  0  0  0  0  0  0  0  0  0  0
   -2.9597    2.1596    2.0613 H   0  0  0  0  0  0  0  0  0  0  0  0
   -2.1329    2.1070   -0.5157 C   0  0  0  0  0  0  0  0  0  0  0  0
   -2.2926    1.7913   -1.5606 H   0  0  0  0  0  0  0  0  0  0  0  0
   -1.0747    2.4285   -0.4017 H   0  0  0  0  0  0  0  0  0  0  0  0
   -2.8014    2.9794   -0.3268 H   0  0  0  0  0  0  0  0  0  0  0  0
   -3.4829    0.1406   -0.0266 C   0  0  0  0  0  0  0  0  0  0  0  0
   -2.4726   -1.9835    0.8110 C   0  0  0  0  0  0  0  0  0  0  0  0
   -1.5499   -1.3708    0.8706 H   0  0  0  0  0  0  0  0  0  0  0  0
   -2.3984   -2.8475   -0.4557 C   0  0  0  0  0  0  0  0  0  0  0  0
   -3.3222   -3.4536   -0.5712 H   0  0  0  0  0  0  0  0  0  0  0  0
   -1.5411   -3.5493   -0.4202 H   0  0  0  0  0  0  0  0  0  0  0  0
   -2.2900   -2.2153   -1.3600 H   0  0  0  0  0  0  0  0  0  0  0  0
   -2.5824   -2.8336    2.0773 C   0  0  0  0  0  0  0  0  0  0  0  0
   -2.6322   -2.1953    2.9817 H   0  0  0  0  0  0  0  0  0  0  0  0
   -1.7136   -3.5150    2.1757 H   0  0  0  0  0  0  0  0  0  0  0  0
   -3.4996   -3.4603    2.0571 H   0  0  0  0  0  0  0  0  0  0  0  0
   -5.2159   -0.4124   -1.5904 C   0  0  0  0  0  0  0  0  0  0  0  0
   -5.0814   -1.4720   -1.2415 H   0  0  0  0  0  0  0  0  0  0  0  0
   -5.0310   -0.4167   -3.1141 C   0  0  0  0  0  0  0  0  0  0  0  0
   -5.1543    0.6108   -3.5127 H   0  0  0  0  0  0  0  0  0  0  0  0
   -5.7685   -1.0820   -3.6080 H   0  0  0  0  0  0  0  0  0  0  0  0
   -4.0126   -0.7623   -3.3828 H   0  0  0  0  0  0  0  0  0  0  0  0
   -6.6349    0.0281   -1.1981 C   0  0  0  0  0  0  0  0  0  0  0  0
   -6.7749   -0.0116   -0.0984 H   0  0  0  0  0  0  0  0  0  0  0  0
   -7.4032   -0.6168   -1.6715 H   0  0  0  0  0  0  0  0  0  0  0  0
   -6.8050    1.0761   -1.5185 H   0  0  0  0  0  0  0  0  0  0  0  0
  1 28  1  0  0  0  0
  2 32  1  0  0  0  0
  2 30  1  0  0  0  0
  3 35  1  0  0  0  0
  4 43  1  0  0  0  0
  5  4  1  0  0  0  0
  6 42  2  0  0  0  0
  7 14  1  0  0  0  0
  8 10  1  0  0  0  0
  8  7  2  0  0  0  0
  9  8  1  0  0  0  0
 10 11  2  0  0  0  0
 11 12  1  0  0  0  0
 11 13  1  0  0  0  0
 13 23  1  0  0  0  0
 14 13  2  0  0  0  0
 14  1  1  0  0  0  0
 15  7  1  0  0  0  0
 15 16  1  0  0  0  0
 17 15  1  0  0  0  0
 18 15  1  0  0  0  0
 19 21  1  0  0  0  0
 19 10  1  0  0  0  0
 20 19  1  0  0  0  0
 22 19  1  0  0  0  0
 23 25  1  0  0  0  0
 23 26  1  0  0  0  0
 24 23  1  0  0  0  0
 27  1  1  0  0  0  0
 27  2  1  0  0  0  0
 28 29  1  0  0  0  0
 28 30  2  0  0  0  0
 30 31  1  0  0  0  0
 32 34  1  0  0  0  0
 33 32  1  0  0  0  0
 35 37  1  0  0  0  0
 35 32  1  0  0  0  0
 35 36  1  0  0  0  0
 38 40  1  0  0  0  0
 38 41  1  0  0  0  0
 38  3  1  0  0  0  0
 39 38  1  0  0  0  0
 42  3  1  0  0  0  0
 42  4  1  0  0  0  0
 43 44  1  0  0  0  0
 43 49  1  0  0  0  0
 45 47  1  0  0  0  0
 45 43  1  0  0  0  0
 46 45  1  0  0  0  0
 48 45  1  0  0  0  0
 49 51  1  0  0  0  0
 49 50  1  0  0  0  0
 52 49  1  0  0  0  0
 53 54  1  0  0  0  0
 53 59  1  0  0  0  0
 53  6  1  0  0  0  0
 55 53  1  0  0  0  0
 56 55  1  0  0  0  0
 57 55  1  0  0  0  0
 58 55  1  0  0  0  0
 59 60  1  0  0  0  0
 61 59  1  0  0  0  0
 62 59  1  0  0  0  0
M  END
