4
 OpenBabel05122313113D

 16 16  0  0  0  0  0  0  0  0999 V2000
   -6.6693   -0.2305    1.0357 O   0  0  0  0  0  0  0  0  0  0  0  0
   -6.7999   -1.2028   -0.9178 O   0  0  0  0  0  0  0  0  0  0  0  0
   -6.2010   -0.9182    0.1237 N   0  0  0  0  0  0  0  0  0  0  0  0
   -0.6553   -2.4259    0.5106 C   0  0  0  0  0  3  0  0  0  0  0  0
   -0.3757   -3.2403   -0.1844 H   0  0  0  0  0  0  0  0  0  0  0  0
   -0.3330   -2.6946    1.5338 H   0  0  0  0  0  0  0  0  0  0  0  0
   -2.1086   -2.1358    0.4571 C   0  0  0  0  0  0  0  0  0  0  0  0
   -2.8896   -2.5015   -0.6694 C   0  0  0  0  0  0  0  0  0  0  0  0
   -2.4176   -3.0684   -1.4866 H   0  0  0  0  0  0  0  0  0  0  0  0
   -4.2369   -2.1394   -0.7713 C   0  0  0  0  0  0  0  0  0  0  0  0
   -4.8487   -2.3960   -1.6463 H   0  0  0  0  0  0  0  0  0  0  0  0
   -4.8179   -1.4018    0.2719 C   0  0  0  0  0  0  0  0  0  0  0  0
   -4.0915   -1.0678    1.4274 C   0  0  0  0  0  0  0  0  0  0  0  0
   -4.5914   -0.5000    2.2234 H   0  0  0  0  0  0  0  0  0  0  0  0
   -2.7493   -1.4392    1.5162 C   0  0  0  0  0  0  0  0  0  0  0  0
   -2.1446   -1.1400    2.3868 H   0  0  0  0  0  0  0  0  0  0  0  0
  2  3  2  0  0  0  0
  3 12  1  0  0  0  0
  3  1  2  0  0  0  0
  4  6  1  0  0  0  0
  5  4  1  0  0  0  0
  7  4  1  0  0  0  0
  7 15  1  0  0  0  0
  8  7  2  0  0  0  0
  9  8  1  0  0  0  0
 10  8  1  0  0  0  0
 10 12  2  0  0  0  0
 11 10  1  0  0  0  0
 12 13  1  0  0  0  0
 13 15  2  0  0  0  0
 13 14  1  0  0  0  0
 15 16  1  0  0  0  0
M  END
