18
 OpenBabel05122313113D

 25 25  0  0  0  0  0  0  0  0999 V2000
    1.6505    1.5392    0.8097 S   0  0  0  0  0  0  0  0  0  0  0  0
    0.4675    2.3509   -1.5071 F   0  0  0  0  0  0  0  0  0  0  0  0
    3.0689    1.6544    1.2110 O   0  0  0  0  0  0  0  0  0  0  0  0
    1.1178   -0.0119    0.7107 N   0  0  0  0  0  2  0  0  0  0  0  0
    1.7600   -1.9894   -0.4907 C   0  0  0  0  0  0  0  0  0  0  0  0
    2.3176    3.3870   -1.0040 F   0  0  0  0  0  0  0  0  0  0  0  0
    0.6451    2.3858    1.4905 O   0  0  0  0  0  0  0  0  0  0  0  0
    2.1047   -1.0079    0.4633 C   0  0  0  0  0  0  0  0  0  0  0  0
    2.3867    1.3359   -1.7534 F   0  0  0  0  0  0  0  0  0  0  0  0
    3.3385   -1.1324    1.1436 C   0  0  0  0  0  0  0  0  0  0  0  0
    3.6045   -0.4044    1.9173 H   0  0  0  0  0  0  0  0  0  0  0  0
    4.2156   -2.1743    0.8135 C   0  0  0  0  0  0  0  0  0  0  0  0
    5.1762   -2.2492    1.3460 H   0  0  0  0  0  0  0  0  0  0  0  0
    3.8814   -3.1254   -0.1643 C   0  0  0  0  0  0  0  0  0  0  0  0
    4.5765   -3.9412   -0.4118 H   0  0  0  0  0  0  0  0  0  0  0  0
    2.6352   -3.0407   -0.8020 C   0  0  0  0  0  0  0  0  0  0  0  0
    2.3299   -3.7959   -1.5429 H   0  0  0  0  0  0  0  0  0  0  0  0
    0.3743   -1.9372   -1.0426 C   0  0  0  0  0  3  0  0  0  0  0  0
   -0.0329   -0.9690   -2.0178 C   0  0  0  0  0  3  0  0  0  0  0  0
   -0.9096   -1.1638   -2.6572 H   0  0  0  0  0  0  0  0  0  0  0  0
    0.7390   -0.3150   -2.4468 H   0  0  0  0  0  0  0  0  0  0  0  0
   -0.6095   -2.6637   -0.3153 C   0  0  0  0  0  3  0  0  0  0  0  0
   -0.2736   -3.2565    0.5494 H   0  0  0  0  0  0  0  0  0  0  0  0
   -1.5419   -2.9888   -0.7990 H   0  0  0  0  0  0  0  0  0  0  0  0
    1.7005    2.2003   -0.9788 C   0  0  0  0  0  0  0  0  0  0  0  0
  1  3  2  0  0  0  0
  1  7  2  0  0  0  0
  2 25  1  0  0  0  0
  4  1  1  0  0  0  0
  5  8  1  0  0  0  0
  6 25  1  0  0  0  0
  8  4  1  0  0  0  0
  8 10  2  0  0  0  0
  9 25  1  0  0  0  0
 10 11  1  0  0  0  0
 12 10  1  0  0  0  0
 12 13  1  0  0  0  0
 14 12  2  0  0  0  0
 15 14  1  0  0  0  0
 16  5  2  0  0  0  0
 16 14  1  0  0  0  0
 17 16  1  0  0  0  0
 18  5  1  0  0  0  0
 18 22  1  0  0  0  0
 19 18  1  0  0  0  0
 20 19  1  0  0  0  0
 21 19  1  0  0  0  0
 22 23  1  0  0  0  0
 24 22  1  0  0  0  0
 25  1  1  0  0  0  0
M  END
