3
 OpenBabel05122313113D

 21 21  0  0  0  0  0  0  0  0999 V2000
    2.4776    2.9435   -0.3993 O   0  0  0  0  0  0  0  0  0  0  0  0
    7.1068   -1.2031    0.2201 O   0  0  0  0  0  0  0  0  0  0  0  0
    2.3041    1.6508   -0.2384 C   0  0  0  0  0  2  0  0  0  0  0  0
    3.5418    0.9195   -0.1242 C   0  0  0  0  0  0  0  0  0  0  0  0
    3.5045   -0.4910    0.0509 C   0  0  0  0  0  0  0  0  0  0  0  0
    2.5236   -0.9918    0.0914 H   0  0  0  0  0  0  0  0  0  0  0  0
    4.6689   -1.2425    0.1701 C   0  0  0  0  0  0  0  0  0  0  0  0
    4.6052   -2.3297    0.3042 H   0  0  0  0  0  0  0  0  0  0  0  0
    5.9264   -0.5868    0.1160 C   0  0  0  0  0  0  0  0  0  0  0  0
    5.9836    0.8258   -0.0600 C   0  0  0  0  0  0  0  0  0  0  0  0
    6.9744    1.3004   -0.0976 H   0  0  0  0  0  0  0  0  0  0  0  0
    4.8191    1.5605   -0.1773 C   0  0  0  0  0  0  0  0  0  0  0  0
    4.8646    2.6500   -0.3123 H   0  0  0  0  0  0  0  0  0  0  0  0
    1.3738    3.8519   -0.5291 C   0  0  0  0  0  0  0  0  0  0  0  0
    1.4779    4.3683   -1.5024 H   0  0  0  0  0  0  0  0  0  0  0  0
    1.4492    4.5900    0.2922 H   0  0  0  0  0  0  0  0  0  0  0  0
    0.4109    3.3024   -0.4764 H   0  0  0  0  0  0  0  0  0  0  0  0
    7.1596   -2.6192    0.4007 C   0  0  0  0  0  0  0  0  0  0  0  0
    8.2311   -2.8783    0.4584 H   0  0  0  0  0  0  0  0  0  0  0  0
    6.6977   -3.1496   -0.4584 H   0  0  0  0  0  0  0  0  0  0  0  0
    6.6557   -2.9214    1.3427 H   0  0  0  0  0  0  0  0  0  0  0  0
  1  3  1  0  0  0  0
  2 18  1  0  0  0  0
  3  4  1  0  0  0  0
  4  5  1  0  0  0  0
  5  6  1  0  0  0  0
  5  7  2  0  0  0  0
  7  8  1  0  0  0  0
  9  7  1  0  0  0  0
  9  2  1  0  0  0  0
 10  9  2  0  0  0  0
 11 10  1  0  0  0  0
 12  4  2  0  0  0  0
 12 10  1  0  0  0  0
 13 12  1  0  0  0  0
 14 17  1  0  0  0  0
 14  1  1  0  0  0  0
 14 16  1  0  0  0  0
 15 14  1  0  0  0  0
 18 19  1  0  0  0  0
 18 21  1  0  0  0  0
 20 18  1  0  0  0  0
M  END
