1
 OpenBabel05122313113D

 16 16  0  0  0  0  0  0  0  0999 V2000
   -1.8195   -1.2286   -1.3269 C   0  0  0  0  0  1  0  0  0  0  0  0
   -2.9174   -1.6737   -1.6857 C   0  0  0  0  0  2  0  0  0  0  0  0
   -4.2446   -2.1582   -2.0496 C   0  0  0  0  0  0  0  0  0  0  0  0
   -4.2542   -3.2727   -2.0642 H   0  0  0  0  0  0  0  0  0  0  0  0
   -4.4840   -1.8594   -3.0967 H   0  0  0  0  0  0  0  0  0  0  0  0
   -5.3813   -1.6822   -1.1461 C   0  0  0  0  0  0  0  0  0  0  0  0
   -6.6974   -2.1189   -1.4003 C   0  0  0  0  0  0  0  0  0  0  0  0
   -6.8877   -2.7987   -2.2473 H   0  0  0  0  0  0  0  0  0  0  0  0
   -7.7627   -1.7005   -0.5908 C   0  0  0  0  0  0  0  0  0  0  0  0
   -8.7840   -2.0525   -0.8046 H   0  0  0  0  0  0  0  0  0  0  0  0
   -7.5281   -0.8350    0.4911 C   0  0  0  0  0  0  0  0  0  0  0  0
   -8.3632   -0.5059    1.1284 H   0  0  0  0  0  0  0  0  0  0  0  0
   -6.2213   -0.3956    0.7507 C   0  0  0  0  0  0  0  0  0  0  0  0
   -6.0254    0.2827    1.5963 H   0  0  0  0  0  0  0  0  0  0  0  0
   -5.1558   -0.8159   -0.0618 C   0  0  0  0  0  0  0  0  0  0  0  0
   -4.1266   -0.4768    0.1328 H   0  0  0  0  0  0  0  0  0  0  0  0
  2  1  1  0  0  0  0
  3  2  1  0  0  0  0
  3  6  1  0  0  0  0
  4  3  1  0  0  0  0
  5  3  1  0  0  0  0
  6 15  1  0  0  0  0
  7  6  2  0  0  0  0
  7  9  1  0  0  0  0
  8  7  1  0  0  0  0
  9 11  2  0  0  0  0
 10  9  1  0  0  0  0
 11 13  1  0  0  0  0
 11 12  1  0  0  0  0
 13 14  1  0  0  0  0
 15 16  1  0  0  0  0
 15 13  2  0  0  0  0
M  END
