4
 OpenBabel05122313113D

 30 32  0  0  1  0  0  0  0  0999 V2000
    1.0908   -2.8135   -0.5810 O   0  0  0  0  0  0  0  0  0  0  0  0
    0.7301   -2.3116   -1.3567 H   0  0  0  0  0  0  0  0  0  0  0  0
    3.1192   -0.1513    0.1890 N   0  0  0  0  0  0  0  0  0  0  0  0
    0.8629   -0.4947    0.2519 C   0  0  0  0  0  2  0  0  0  0  0  0
    1.5119   -1.8704    0.3729 C   0  0  1  0  0  0  0  0  0  0  0  0
    1.2823   -2.4663    1.7766 C   0  0  0  0  0  0  0  0  0  0  0  0
    0.1923   -2.5631    1.9384 H   0  0  0  0  0  0  0  0  0  0  0  0
    1.6937   -1.8171    2.5732 H   0  0  0  0  0  0  0  0  0  0  0  0
    1.7557   -3.4668    1.8235 H   0  0  0  0  0  0  0  0  0  0  0  0
    2.9912   -1.5168    0.2298 C   0  0  2  0  0  3  0  0  0  0  0  0
    4.1154   -2.3266    0.1642 C   0  0  0  0  0  0  0  0  0  0  0  0
    3.9800   -3.4172    0.1685 H   0  0  0  0  0  0  0  0  0  0  0  0
    5.3862   -1.7277    0.0857 C   0  0  0  0  0  0  0  0  0  0  0  0
    6.2910   -2.3490    0.0217 H   0  0  0  0  0  0  0  0  0  0  0  0
    5.4883   -0.3262    0.0984 C   0  0  0  0  0  0  0  0  0  0  0  0
    6.4658    0.1739    0.0605 H   0  0  0  0  0  0  0  0  0  0  0  0
    4.3352    0.4562    0.1530 C   0  0  0  0  0  0  0  0  0  0  0  0
    4.3323    1.5543    0.1620 H   0  0  0  0  0  0  0  0  0  0  0  0
    1.8139    0.4800    0.1875 C   0  0  2  0  0  3  0  0  0  0  0  0
    1.6825    1.9398    0.0414 C   0  0  0  0  0  0  0  0  0  0  0  0
    0.8772    2.6609    0.9499 C   0  0  0  0  0  0  0  0  0  0  0  0
    0.3818    2.1229    1.7729 H   0  0  0  0  0  0  0  0  0  0  0  0
    0.6928    4.0402    0.7831 C   0  0  0  0  0  0  0  0  0  0  0  0
    0.0560    4.5904    1.4917 H   0  0  0  0  0  0  0  0  0  0  0  0
    1.3082    4.7142   -0.2832 C   0  0  0  0  0  0  0  0  0  0  0  0
    1.1586    5.7968   -0.4120 H   0  0  0  0  0  0  0  0  0  0  0  0
    2.1021    4.0019   -1.1969 C   0  0  0  0  0  0  0  0  0  0  0  0
    2.5642    4.5211   -2.0500 H   0  0  0  0  0  0  0  0  0  0  0  0
    2.2861    2.6218   -1.0410 C   0  0  0  0  0  0  0  0  0  0  0  0
    2.8667    2.0614   -1.7903 H   0  0  0  0  0  0  0  0  0  0  0  0
  2  1  1  0  0  0  0
  3 10  1  0  0  0  0
  4  5  1  0  0  0  0
  5  1  1  6  0  0  0
  5  6  1  0  0  0  0
  6  9  1  0  0  0  0
  6  7  1  0  0  0  0
  6  8  1  0  0  0  0
 10 11  1  1  0  0  0
 10  5  1  0  0  0  0
 11 12  1  0  0  0  0
 13 15  1  0  0  0  0
 13 11  2  0  0  0  0
 14 13  1  0  0  0  0
 15 17  2  0  0  0  0
 16 15  1  0  0  0  0
 17 18  1  0  0  0  0
 17  3  1  0  0  0  0
 19 20  1  6  0  0  0
 19  3  1  0  0  0  0
 19  4  1  0  0  0  0
 20 21  1  0  0  0  0
 21 22  1  0  0  0  0
 23 21  2  0  0  0  0
 23 24  1  0  0  0  0
 25 23  1  0  0  0  0
 26 25  1  0  0  0  0
 27 29  1  0  0  0  0
 27 25  2  0  0  0  0
 28 27  1  0  0  0  0
 29 20  2  0  0  0  0
 30 29  1  0  0  0  0
M  END
