1
 OpenBabel05122313113D

  3  2  0  0  0  0  0  0  0  0999 V2000
    1.6072    0.0920    0.2133 C   0  0  0  0  0  0  0  0  0  0  0  0
    2.8030    0.1155   -0.1437 C   0  0  0  0  0  0  0  0  0  0  0  0
    4.7408   -0.0068   -0.6738 I   0  0  0  0  0  0  0  0  0  0  0  0
  2  1  3  0  0  0  0
  3  2  1  0  0  0  0
M  END
