1
 OpenBabel05122313113D

  4  3  0  0  0  0  0  0  0  0999 V2000
    0.9751   -1.3403   -0.0515 C   0  0  0  0  0  1  0  0  0  0  0  0
    1.8374   -2.2441   -0.4895 C   0  0  0  0  0  3  0  0  0  0  0  0
    1.5519   -3.1806   -0.9933 H   0  0  0  0  0  0  0  0  0  0  0  0
    3.9206   -2.0370   -0.1158 I   0  0  0  0  0  0  0  0  0  0  0  0
  2  4  1  0  0  0  0
  2  1  1  0  0  0  0
  3  2  1  0  0  0  0
M  END
