9
 OpenBabel05122313113D

 19 18  0  0  1  0  0  0  0  0999 V2000
   -1.2744   -0.3484   -2.0214 O   0  5  0  0  0  0  0  0  0  0  0  0
   -2.4419   -0.8983   -1.9667 C   0  0  0  0  0  0  0  0  0  0  0  0
   -3.5490   -0.3415   -1.8925 O   0  0  0  0  0  0  0  0  0  0  0  0
   -2.3704   -2.4646   -1.8517 C   0  0  0  0  0  0  0  0  0  0  0  0
   -3.3474   -2.8976   -2.1453 H   0  0  0  0  0  0  0  0  0  0  0  0
   -1.5878   -2.8440   -2.5354 H   0  0  0  0  0  0  0  0  0  0  0  0
   -2.0697   -2.7984   -0.4032 C   0  0  2  0  0  3  0  0  0  0  0  0
   -0.7817   -3.1910    0.0721 C   0  0  1  0  0  3  0  0  0  0  0  0
    0.3482   -2.8009   -0.7282 C   0  0  0  0  0  3  0  0  0  0  0  0
    0.2836   -2.7959   -1.8294 H   0  0  0  0  0  0  0  0  0  0  0  0
    1.3537   -3.0373   -0.3401 H   0  0  0  0  0  0  0  0  0  0  0  0
   -3.3154   -3.0244    0.4152 C   0  0  0  0  0  0  0  0  0  0  0  0
   -3.7505   -4.0181    0.1643 H   0  0  0  0  0  0  0  0  0  0  0  0
   -4.0822   -2.2694    0.1464 H   0  0  0  0  0  0  0  0  0  0  0  0
   -3.1498   -3.0072    1.5092 H   0  0  0  0  0  0  0  0  0  0  0  0
   -0.5774   -3.8639    1.4110 C   0  0  0  0  0  0  0  0  0  0  0  0
   -0.7667   -4.9575    1.3309 H   0  0  0  0  0  0  0  0  0  0  0  0
   -1.2515   -3.4704    2.1958 H   0  0  0  0  0  0  0  0  0  0  0  0
    0.4631   -3.7268    1.7639 H   0  0  0  0  0  0  0  0  0  0  0  0
  1  2  1  0  0  0  0
  2  3  2  0  0  0  0
  2  4  1  0  0  0  0
  5  4  1  0  0  0  0
  6  4  1  0  0  0  0
  7  4  1  6  0  0  0
  7  8  1  0  0  0  0
  7 12  1  0  0  0  0
  8  9  1  1  0  0  0
  8 16  1  0  0  0  0
  9 11  1  0  0  0  0
 10  9  1  0  0  0  0
 12 15  1  0  0  0  0
 13 12  1  0  0  0  0
 14 12  1  0  0  0  0
 16 19  1  0  0  0  0
 16 18  1  0  0  0  0
 17 16  1  0  0  0  0
M  CHG  1   1  -1
M  END
