4
 OpenBabel05122313113D

  9  8  0  0  0  0  0  0  0  0999 V2000
   -3.2507    1.9367    0.0000 Cl  0  0  0  0  0  0  0  0  0  0  0  0
   -1.3148    0.1367    0.0000 N   0  0  0  0  0  2  0  0  0  0  0  0
   -2.9765   -1.9986   -0.0000 F   0  0  0  0  0  0  0  0  0  0  0  0
   -0.1175    0.0764    0.0000 C   0  0  0  0  0  1  0  0  0  0  0  0
   -2.6494    0.3044    0.0000 C   0  0  0  0  0  0  0  0  0  0  0  0
   -3.5161   -0.7661   -0.0000 C   0  0  0  0  0  0  0  0  0  0  0  0
   -4.9239   -0.6809   -0.0000 C   0  0  0  0  0  0  0  0  0  0  0  0
   -6.1500   -0.6428   -0.0000 C   0  0  0  0  0  0  0  0  0  0  0  0
   -7.2309   -0.6002   -0.0000 H   0  0  0  0  0  0  0  0  0  0  0  0
  2  5  1  0  0  0  0
  3  6  1  0  0  0  0
  4  2  1  0  0  0  0
  5  1  1  0  0  0  0
  6  5  2  0  0  0  0
  7  6  1  0  0  0  0
  7  8  3  0  0  0  0
  8  9  1  0  0  0  0
M  END
