3
 OpenBabel05122313113D

 47 49  0  0  0  0  0  0  0  0999 V2000
    0.6855    1.8895   -0.0088 N   0  0  0  0  0  0  0  0  0  0  0  0
   -1.2365    1.3866    0.8652 N   0  0  0  0  0  0  0  0  0  0  0  0
   -0.2126    0.8648    0.1210 C   0  0  0  0  0  2  0  0  0  0  0  0
    0.2264    3.0379    0.6389 C   0  0  0  0  0  0  0  0  0  0  0  0
    0.7919    3.9732    0.6303 H   0  0  0  0  0  0  0  0  0  0  0  0
   -0.9828    2.7183    1.1942 C   0  0  0  0  0  0  0  0  0  0  0  0
   -1.6810    3.3091    1.7925 H   0  0  0  0  0  0  0  0  0  0  0  0
    1.8766    1.7996   -0.8080 C   0  0  0  0  0  0  0  0  0  0  0  0
    1.7123    1.5063   -2.1748 C   0  0  0  0  0  0  0  0  0  0  0  0
    0.6963    1.3339   -2.5646 H   0  0  0  0  0  0  0  0  0  0  0  0
    2.8374    1.4123   -3.0011 C   0  0  0  0  0  0  0  0  0  0  0  0
    2.7113    1.1816   -4.0694 H   0  0  0  0  0  0  0  0  0  0  0  0
    4.1164    1.6167   -2.4587 C   0  0  0  0  0  0  0  0  0  0  0  0
    5.0078    1.5526   -3.1013 H   0  0  0  0  0  0  0  0  0  0  0  0
    4.2628    1.8922   -1.0936 C   0  0  0  0  0  0  0  0  0  0  0  0
    5.2728    2.0289   -0.6778 H   0  0  0  0  0  0  0  0  0  0  0  0
    3.1520    1.9771   -0.2270 C   0  0  0  0  0  0  0  0  0  0  0  0
    3.3573    2.2179    1.2630 C   0  0  0  0  0  0  0  0  0  0  0  0
    2.3748    2.0870    1.7612 H   0  0  0  0  0  0  0  0  0  0  0  0
    4.3125    1.1810    1.8775 C   0  0  0  0  0  0  0  0  0  0  0  0
    3.9564    0.1495    1.6896 H   0  0  0  0  0  0  0  0  0  0  0  0
    4.3809    1.3241    2.9754 H   0  0  0  0  0  0  0  0  0  0  0  0
    5.3388    1.2761    1.4672 H   0  0  0  0  0  0  0  0  0  0  0  0
    3.8365    3.6542    1.5377 C   0  0  0  0  0  0  0  0  0  0  0  0
    4.8238    3.8412    1.0666 H   0  0  0  0  0  0  0  0  0  0  0  0
    3.9436    3.8327    2.6272 H   0  0  0  0  0  0  0  0  0  0  0  0
    3.1322    4.4096    1.1336 H   0  0  0  0  0  0  0  0  0  0  0  0
   -2.4171    0.6483    1.2270 C   0  0  0  0  0  0  0  0  0  0  0  0
   -2.2712   -0.4197    2.1296 C   0  0  0  0  0  0  0  0  0  0  0  0
   -1.2717   -0.6587    2.5179 H   0  0  0  0  0  0  0  0  0  0  0  0
   -3.3889   -1.1714    2.5074 C   0  0  0  0  0  0  0  0  0  0  0  0
   -3.2734   -2.0083    3.2120 H   0  0  0  0  0  0  0  0  0  0  0  0
   -4.6489   -0.8448    1.9816 C   0  0  0  0  0  0  0  0  0  0  0  0
   -5.5378   -1.4243    2.2738 H   0  0  0  0  0  0  0  0  0  0  0  0
   -4.7767    0.2137    1.0739 C   0  0  0  0  0  0  0  0  0  0  0  0
   -5.7671    0.4451    0.6540 H   0  0  0  0  0  0  0  0  0  0  0  0
   -3.6675    0.9807    0.6584 C   0  0  0  0  0  0  0  0  0  0  0  0
   -3.8376    2.0967   -0.3633 C   0  0  0  0  0  0  0  0  0  0  0  0
   -2.8239    2.3897   -0.7039 H   0  0  0  0  0  0  0  0  0  0  0  0
   -4.5977    1.6211   -1.6114 C   0  0  0  0  0  0  0  0  0  0  0  0
   -5.6459    1.3417   -1.3774 H   0  0  0  0  0  0  0  0  0  0  0  0
   -4.0801    0.7538   -2.0657 H   0  0  0  0  0  0  0  0  0  0  0  0
   -4.6336    2.4343   -2.3648 H   0  0  0  0  0  0  0  0  0  0  0  0
   -4.5119    3.3263    0.2716 C   0  0  0  0  0  0  0  0  0  0  0  0
   -5.5370    3.0814    0.6200 H   0  0  0  0  0  0  0  0  0  0  0  0
   -4.5940    4.1519   -0.4646 H   0  0  0  0  0  0  0  0  0  0  0  0
   -3.9489    3.7054    1.1488 H   0  0  0  0  0  0  0  0  0  0  0  0
  1  3  1  0  0  0  0
  1  4  1  0  0  0  0
  2  6  1  0  0  0  0
  2 28  1  0  0  0  0
  3  2  1  0  0  0  0
  4  6  2  0  0  0  0
  5  4  1  0  0  0  0
  6  7  1  0  0  0  0
  8 17  1  0  0  0  0
  8  1  1  0  0  0  0
  9  8  2  0  0  0  0
 10  9  1  0  0  0  0
 11 13  2  0  0  0  0
 11  9  1  0  0  0  0
 12 11  1  0  0  0  0
 13 15  1  0  0  0  0
 14 13  1  0  0  0  0
 15 16  1  0  0  0  0
 15 17  2  0  0  0  0
 17 18  1  0  0  0  0
 18 24  1  0  0  0  0
 18 19  1  0  0  0  0
 18 20  1  0  0  0  0
 20 22  1  0  0  0  0
 21 20  1  0  0  0  0
 23 20  1  0  0  0  0
 24 26  1  0  0  0  0
 25 24  1  0  0  0  0
 27 24  1  0  0  0  0
 28 29  1  0  0  0  0
 29 31  2  0  0  0  0
 29 30  1  0  0  0  0
 31 32  1  0  0  0  0
 33 34  1  0  0  0  0
 33 31  1  0  0  0  0
 35 33  2  0  0  0  0
 36 35  1  0  0  0  0
 37 35  1  0  0  0  0
 37 28  2  0  0  0  0
 38 44  1  0  0  0  0
 38 37  1  0  0  0  0
 39 38  1  0  0  0  0
 40 41  1  0  0  0  0
 40 38  1  0  0  0  0
 42 40  1  0  0  0  0
 43 40  1  0  0  0  0
 44 45  1  0  0  0  0
 44 47  1  0  0  0  0
 46 44  1  0  0  0  0
M  END
