2
 OpenBabel05122313113D

 30 30  0  0  0  0  0  0  0  0999 V2000
    3.4207   -0.0439   -0.0686 O   0  0  0  0  0  0  0  0  0  0  0  0
    1.2561    1.5513   -0.0638 C   0  0  0  0  0  2  0  0  0  0  0  0
    0.1481    2.3977   -0.0095 C   0  0  0  0  0  0  0  0  0  0  0  0
   -0.8354    3.1620    0.0345 C   0  0  0  0  0  0  0  0  0  0  0  0
   -1.9614    3.9172    0.0813 C   0  0  0  0  0  0  0  0  0  0  0  0
   -3.0071    4.5783    0.1150 C   0  0  0  0  0  0  0  0  0  0  0  0
   -4.2341    5.3500    0.1483 C   0  0  0  0  0  0  0  0  0  0  0  0
   -4.5674    5.5361    1.1919 H   0  0  0  0  0  0  0  0  0  0  0  0
   -5.0584    4.8194   -0.3750 H   0  0  0  0  0  0  0  0  0  0  0  0
   -4.1065    6.3384   -0.3425 H   0  0  0  0  0  0  0  0  0  0  0  0
    2.5984    2.1419   -0.2081 C   0  0  0  0  0  0  0  0  0  0  0  0
    2.8150    3.5302   -0.3602 C   0  0  0  0  0  0  0  0  0  0  0  0
    1.9403    4.1972   -0.3547 H   0  0  0  0  0  0  0  0  0  0  0  0
    4.1058    4.0458   -0.5193 C   0  0  0  0  0  0  0  0  0  0  0  0
    4.2560    5.1288   -0.6377 H   0  0  0  0  0  0  0  0  0  0  0  0
    5.2059    3.1730   -0.5288 C   0  0  0  0  0  0  0  0  0  0  0  0
    6.2247    3.5687   -0.6564 H   0  0  0  0  0  0  0  0  0  0  0  0
    5.0266    1.7885   -0.3749 C   0  0  0  0  0  0  0  0  0  0  0  0
    5.8982    1.1221   -0.3831 H   0  0  0  0  0  0  0  0  0  0  0  0
    3.7285    1.2796   -0.2143 C   0  0  0  0  0  0  0  0  0  0  0  0
    4.4687   -1.0496    0.1288 C   0  0  0  0  0  0  0  0  0  0  0  0
    5.2449   -0.8400   -0.6390 H   0  0  0  0  0  0  0  0  0  0  0  0
    3.8476   -2.4082   -0.1533 C   0  0  0  0  0  0  0  0  0  0  0  0
    4.6355   -3.1850   -0.1002 H   0  0  0  0  0  0  0  0  0  0  0  0
    3.3823   -2.4287   -1.1569 H   0  0  0  0  0  0  0  0  0  0  0  0
    3.0763   -2.6403    0.6082 H   0  0  0  0  0  0  0  0  0  0  0  0
    5.0410   -0.9308    1.5366 C   0  0  0  0  0  0  0  0  0  0  0  0
    5.4612    0.0749    1.7301 H   0  0  0  0  0  0  0  0  0  0  0  0
    5.8508   -1.6749    1.6743 H   0  0  0  0  0  0  0  0  0  0  0  0
    4.2389   -1.1224    2.2755 H   0  0  0  0  0  0  0  0  0  0  0  0
  1 21  1  0  0  0  0
  2  3  1  0  0  0  0
  3  4  3  0  0  0  0
  4  5  1  0  0  0  0
  5  6  3  0  0  0  0
  6  7  1  0  0  0  0
  7  8  1  0  0  0  0
  9  7  1  0  0  0  0
 10  7  1  0  0  0  0
 11  2  1  0  0  0  0
 12 13  1  0  0  0  0
 12 11  2  0  0  0  0
 14 12  1  0  0  0  0
 15 14  1  0  0  0  0
 16 14  2  0  0  0  0
 16 18  1  0  0  0  0
 17 16  1  0  0  0  0
 18 20  2  0  0  0  0
 19 18  1  0  0  0  0
 20 11  1  0  0  0  0
 20  1  1  0  0  0  0
 21 27  1  0  0  0  0
 22 21  1  0  0  0  0
 23 24  1  0  0  0  0
 23 21  1  0  0  0  0
 23 26  1  0  0  0  0
 25 23  1  0  0  0  0
 27 29  1  0  0  0  0
 27 28  1  0  0  0  0
 27 30  1  0  0  0  0
M  END
