2
 OpenBabel05122313113D

 81 87  0  0  0  0  0  0  0  0999 V2000
   -0.3519    0.8092   -1.0228 N   0  0  0  0  0  0  0  0  0  0  0  0
   -0.0000   -0.0372    0.0000 C   0  0  0  0  0  2  0  0  0  0  0  0
   -0.2223    2.1467   -0.6455 C   0  0  0  0  0  0  0  0  0  0  0  0
   -0.4740    2.9699   -1.3181 H   0  0  0  0  0  0  0  0  0  0  0  0
   -0.8968    0.3760   -2.2826 C   0  0  0  0  0  0  0  0  0  0  0  0
   -0.1596   -0.5070   -3.1123 C   0  0  0  0  0  0  0  0  0  0  0  0
   -0.7599   -0.9526   -4.3089 C   0  0  0  0  0  0  0  0  0  0  0  0
   -0.1936   -1.6474   -4.9460 H   0  0  0  0  0  0  0  0  0  0  0  0
   -2.0229   -0.4990   -4.7020 C   0  0  0  0  0  0  0  0  0  0  0  0
   -2.4672   -0.8514   -5.6447 H   0  0  0  0  0  0  0  0  0  0  0  0
   -2.7171    0.4077   -3.8943 C   0  0  0  0  0  0  0  0  0  0  0  0
   -3.7157    0.7639   -4.1869 H   0  0  0  0  0  0  0  0  0  0  0  0
   -2.1812    0.8465   -2.6658 C   0  0  0  0  0  0  0  0  0  0  0  0
    1.2187   -0.9753   -2.8036 C   0  0  0  0  0  0  0  0  0  0  0  0
    1.4846   -2.3604   -2.7195 C   0  0  0  0  0  0  0  0  0  0  0  0
    0.6605   -3.0818   -2.8203 H   0  0  0  0  0  0  0  0  0  0  0  0
    2.7758   -2.8261   -2.4501 C   0  0  0  0  0  0  0  0  0  0  0  0
    2.9384   -3.9094   -2.3424 H   0  0  0  0  0  0  0  0  0  0  0  0
    3.8520   -1.9319   -2.2788 C   0  0  0  0  0  0  0  0  0  0  0  0
    3.5857   -0.5535   -2.3944 C   0  0  0  0  0  0  0  0  0  0  0  0
    4.4174    0.1602   -2.2851 H   0  0  0  0  0  0  0  0  0  0  0  0
    2.2896   -0.0761   -2.6397 C   0  0  0  0  0  0  0  0  0  0  0  0
    2.1087    1.0074   -2.7150 H   0  0  0  0  0  0  0  0  0  0  0  0
    5.2350   -2.4416   -1.9635 C   0  0  0  0  0  0  0  0  0  0  0  0
    5.5615   -3.2090   -2.6952 H   0  0  0  0  0  0  0  0  0  0  0  0
    5.2598   -2.9234   -0.9633 H   0  0  0  0  0  0  0  0  0  0  0  0
    5.9836   -1.6257   -1.9633 H   0  0  0  0  0  0  0  0  0  0  0  0
   -2.9822    1.7834   -1.8312 C   0  0  0  0  0  0  0  0  0  0  0  0
   -3.2798    1.5097   -0.4787 C   0  0  0  0  0  0  0  0  0  0  0  0
   -2.9203    0.5780   -0.0168 H   0  0  0  0  0  0  0  0  0  0  0  0
   -4.0341    2.4122    0.2779 C   0  0  0  0  0  0  0  0  0  0  0  0
   -4.2517    2.1796    1.3324 H   0  0  0  0  0  0  0  0  0  0  0  0
   -4.5246    3.6139   -0.2761 C   0  0  0  0  0  0  0  0  0  0  0  0
   -4.2340    3.8763   -1.6285 C   0  0  0  0  0  0  0  0  0  0  0  0
   -4.6009    4.8068   -2.0900 H   0  0  0  0  0  0  0  0  0  0  0  0
   -3.4792    2.9769   -2.3951 C   0  0  0  0  0  0  0  0  0  0  0  0
   -3.2512    3.2118   -3.4464 H   0  0  0  0  0  0  0  0  0  0  0  0
   -5.3456    4.5676    0.5539 C   0  0  0  0  0  0  0  0  0  0  0  0
   -5.4998    5.5340    0.0361 H   0  0  0  0  0  0  0  0  0  0  0  0
   -4.8638    4.7739    1.5315 H   0  0  0  0  0  0  0  0  0  0  0  0
   -6.3482    4.1434    0.7754 H   0  0  0  0  0  0  0  0  0  0  0  0
    0.3519    0.8092    1.0228 N   0  0  0  0  0  0  0  0  0  0  0  0
    0.2223    2.1467    0.6455 C   0  0  0  0  0  0  0  0  0  0  0  0
    0.4740    2.9699    1.3182 H   0  0  0  0  0  0  0  0  0  0  0  0
    0.8967    0.3759    2.2826 C   0  0  0  0  0  0  0  0  0  0  0  0
    0.1596   -0.5071    3.1123 C   0  0  0  0  0  0  0  0  0  0  0  0
    0.7599   -0.9527    4.3088 C   0  0  0  0  0  0  0  0  0  0  0  0
    0.1936   -1.6476    4.9460 H   0  0  0  0  0  0  0  0  0  0  0  0
    2.0228   -0.4991    4.7020 C   0  0  0  0  0  0  0  0  0  0  0  0
    2.4671   -0.8516    5.6447 H   0  0  0  0  0  0  0  0  0  0  0  0
    2.7170    0.4077    3.8943 C   0  0  0  0  0  0  0  0  0  0  0  0
    3.7156    0.7639    4.1870 H   0  0  0  0  0  0  0  0  0  0  0  0
    2.1811    0.8465    2.6659 C   0  0  0  0  0  0  0  0  0  0  0  0
   -1.2187   -0.9755    2.8035 C   0  0  0  0  0  0  0  0  0  0  0  0
   -1.4846   -2.3606    2.7194 C   0  0  0  0  0  0  0  0  0  0  0  0
   -0.6604   -3.0819    2.8202 H   0  0  0  0  0  0  0  0  0  0  0  0
   -2.7757   -2.8264    2.4500 C   0  0  0  0  0  0  0  0  0  0  0  0
   -2.9383   -3.9097    2.3423 H   0  0  0  0  0  0  0  0  0  0  0  0
   -3.8520   -1.9322    2.2787 C   0  0  0  0  0  0  0  0  0  0  0  0
   -3.5857   -0.5538    2.3942 C   0  0  0  0  0  0  0  0  0  0  0  0
   -4.4175    0.1598    2.2850 H   0  0  0  0  0  0  0  0  0  0  0  0
   -2.2897   -0.0763    2.6396 C   0  0  0  0  0  0  0  0  0  0  0  0
   -2.1089    1.0072    2.7150 H   0  0  0  0  0  0  0  0  0  0  0  0
   -5.2349   -2.4420    1.9631 C   0  0  0  0  0  0  0  0  0  0  0  0
   -5.5609   -3.2104    2.6940 H   0  0  0  0  0  0  0  0  0  0  0  0
   -5.2598   -2.9225    0.9623 H   0  0  0  0  0  0  0  0  0  0  0  0
   -5.9838   -1.6263    1.9642 H   0  0  0  0  0  0  0  0  0  0  0  0
    2.9820    1.7835    1.8314 C   0  0  0  0  0  0  0  0  0  0  0  0
    3.2797    1.5098    0.4788 C   0  0  0  0  0  0  0  0  0  0  0  0
    2.9202    0.5781    0.0169 H   0  0  0  0  0  0  0  0  0  0  0  0
    4.0340    2.4123   -0.2777 C   0  0  0  0  0  0  0  0  0  0  0  0
    4.2516    2.1798   -1.3323 H   0  0  0  0  0  0  0  0  0  0  0  0
    4.5244    3.6141    0.2763 C   0  0  0  0  0  0  0  0  0  0  0  0
    4.2338    3.8763    1.6288 C   0  0  0  0  0  0  0  0  0  0  0  0
    4.6008    4.8069    2.0903 H   0  0  0  0  0  0  0  0  0  0  0  0
    3.4790    2.9769    2.3953 C   0  0  0  0  0  0  0  0  0  0  0  0
    3.2511    3.2118    3.4466 H   0  0  0  0  0  0  0  0  0  0  0  0
    5.3454    4.5678   -0.5537 C   0  0  0  0  0  0  0  0  0  0  0  0
    5.5003    5.5338   -0.0355 H   0  0  0  0  0  0  0  0  0  0  0  0
    4.8630    4.7749   -1.5309 H   0  0  0  0  0  0  0  0  0  0  0  0
    6.3476    4.1432   -0.7761 H   0  0  0  0  0  0  0  0  0  0  0  0
  1  3  1  0  0  0  0
  1  2  1  0  0  0  0
  2 42  1  0  0  0  0
  3 43  2  0  0  0  0
  4  3  1  0  0  0  0
  5  1  1  0  0  0  0
  6 14  1  0  0  0  0
  6  5  2  0  0  0  0
  7  6  1  0  0  0  0
  8  7  1  0  0  0  0
  9  7  2  0  0  0  0
  9 11  1  0  0  0  0
 10  9  1  0  0  0  0
 11 13  2  0  0  0  0
 12 11  1  0  0  0  0
 13  5  1  0  0  0  0
 13 28  1  0  0  0  0
 14 15  2  0  0  0  0
 14 22  1  0  0  0  0
 15 17  1  0  0  0  0
 16 15  1  0  0  0  0
 17 18  1  0  0  0  0
 17 19  2  0  0  0  0
 19 24  1  0  0  0  0
 20 21  1  0  0  0  0
 20 19  1  0  0  0  0
 22 20  2  0  0  0  0
 23 22  1  0  0  0  0
 24 27  1  0  0  0  0
 24 26  1  0  0  0  0
 25 24  1  0  0  0  0
 28 29  1  0  0  0  0
 29 30  1  0  0  0  0
 29 31  2  0  0  0  0
 31 32  1  0  0  0  0
 33 31  1  0  0  0  0
 33 38  1  0  0  0  0
 34 33  2  0  0  0  0
 35 34  1  0  0  0  0
 36 28  2  0  0  0  0
 36 34  1  0  0  0  0
 37 36  1  0  0  0  0
 38 41  1  0  0  0  0
 38 40  1  0  0  0  0
 39 38  1  0  0  0  0
 42 45  1  0  0  0  0
 43 42  1  0  0  0  0
 43 44  1  0  0  0  0
 45 53  2  0  0  0  0
 45 46  1  0  0  0  0
 46 47  2  0  0  0  0
 47 49  1  0  0  0  0
 47 48  1  0  0  0  0
 49 50  1  0  0  0  0
 51 52  1  0  0  0  0
 51 49  2  0  0  0  0
 53 51  1  0  0  0  0
 54 46  1  0  0  0  0
 55 54  1  0  0  0  0
 55 56  1  0  0  0  0
 57 55  2  0  0  0  0
 58 57  1  0  0  0  0
 59 60  2  0  0  0  0
 59 57  1  0  0  0  0
 60 62  1  0  0  0  0
 61 60  1  0  0  0  0
 62 63  1  0  0  0  0
 62 54  2  0  0  0  0
 64 67  1  0  0  0  0
 64 59  1  0  0  0  0
 64 65  1  0  0  0  0
 66 64  1  0  0  0  0
 68 76  1  0  0  0  0
 68 53  1  0  0  0  0
 69 68  2  0  0  0  0
 70 69  1  0  0  0  0
 71 73  2  0  0  0  0
 71 69  1  0  0  0  0
 72 71  1  0  0  0  0
 73 74  1  0  0  0  0
 74 75  1  0  0  0  0
 74 76  2  0  0  0  0
 76 77  1  0  0  0  0
 78 79  1  0  0  0  0
 78 73  1  0  0  0  0
 80 78  1  0  0  0  0
 81 78  1  0  0  0  0
M  END
