3
 OpenBabel05122313113D

 37 40  0  0  1  0  0  0  0  0999 V2000
    0.9454    1.1805   -0.2760 N   0  0  0  0  0  0  0  0  0  0  0  0
   -0.3721    2.7829    0.3572 N   0  0  0  0  0  0  0  0  0  0  0  0
   -0.3726    1.4652   -0.0208 C   0  0  0  0  0  2  0  0  0  0  0  0
    1.7416    2.3017   -0.0807 C   0  0  0  0  0  0  0  0  0  0  0  0
    0.9100    3.3108    0.3250 C   0  0  0  0  0  0  0  0  0  0  0  0
    1.4514   -0.1190   -0.8107 C   0  0  2  0  0  0  0  0  0  0  0  0
    0.7360   -1.3140   -0.2180 C   0  0  0  0  0  0  0  0  0  0  0  0
    0.0141   -2.1716   -1.0677 C   0  0  0  0  0  0  0  0  0  0  0  0
   -0.7576   -3.2182   -0.5512 C   0  0  0  0  0  0  0  0  0  0  0  0
   -0.8312   -3.4035    0.8387 C   0  0  0  0  0  0  0  0  0  0  0  0
   -0.0955   -2.5770    1.6906 C   0  0  0  0  0  0  0  0  0  0  0  0
    0.7368   -1.5470    1.1854 C   0  0  0  0  0  0  0  0  0  0  0  0
    1.5669   -0.8064    2.1256 C   0  0  0  0  0  0  0  0  0  0  0  0
    2.7838   -0.2270    1.8995 C   0  0  0  0  0  0  0  0  0  0  0  0
    3.5469   -0.1989    0.6556 C   0  0  0  0  0  0  0  0  0  0  0  0
    4.9624   -0.1559    0.7361 C   0  0  0  0  0  0  0  0  0  0  0  0
    5.7645   -0.2019   -0.4073 C   0  0  0  0  0  0  0  0  0  0  0  0
    5.1680   -0.2749   -1.6779 C   0  0  0  0  0  0  0  0  0  0  0  0
    3.7714   -0.2715   -1.7832 C   0  0  0  0  0  0  0  0  0  0  0  0
    2.9525   -0.2201   -0.6403 C   0  0  0  0  0  0  0  0  0  0  0  0
   -1.5591    3.5302    0.7424 C   0  0  0  0  0  0  0  0  0  0  0  0
    2.8227    2.2855   -0.2364 H   0  0  0  0  0  0  0  0  0  0  0  0
    1.1256    4.3478    0.5985 H   0  0  0  0  0  0  0  0  0  0  0  0
    1.2325   -0.1094   -1.8977 H   0  0  0  0  0  0  0  0  0  0  0  0
    0.0127   -1.9734   -2.1505 H   0  0  0  0  0  0  0  0  0  0  0  0
   -1.3515   -3.8480   -1.2283 H   0  0  0  0  0  0  0  0  0  0  0  0
   -1.4754   -4.1903    1.2575 H   0  0  0  0  0  0  0  0  0  0  0  0
   -0.1372   -2.7329    2.7797 H   0  0  0  0  0  0  0  0  0  0  0  0
    1.2188   -0.8283    3.1721 H   0  0  0  0  0  0  0  0  0  0  0  0
    3.3170    0.1660    2.7813 H   0  0  0  0  0  0  0  0  0  0  0  0
    5.4296   -0.1138    1.7323 H   0  0  0  0  0  0  0  0  0  0  0  0
    6.8605   -0.1832   -0.3099 H   0  0  0  0  0  0  0  0  0  0  0  0
    5.7894   -0.3104   -2.5849 H   0  0  0  0  0  0  0  0  0  0  0  0
    3.2960   -0.2867   -2.7766 H   0  0  0  0  0  0  0  0  0  0  0  0
   -2.4328    2.8615    0.6277 H   0  0  0  0  0  0  0  0  0  0  0  0
   -1.6844    4.4163    0.0895 H   0  0  0  0  0  0  0  0  0  0  0  0
   -1.4840    3.8588    1.7981 H   0  0  0  0  0  0  0  0  0  0  0  0
  1  4  1  0  0  0  0
  1  3  1  0  0  0  0
  2 21  1  0  0  0  0
  3  2  1  0  0  0  0
  4  5  2  0  0  0  0
  5  2  1  0  0  0  0
  5 23  1  0  0  0  0
  6 24  1  6  0  0  0
  6 20  1  0  0  0  0
  6  1  1  0  0  0  0
  6  7  1  0  0  0  0
  7 12  1  0  0  0  0
  8  9  1  0  0  0  0
  8  7  2  0  0  0  0
  9 10  2  0  0  0  0
 10 27  1  0  0  0  0
 10 11  1  0  0  0  0
 11 28  1  0  0  0  0
 12 11  2  0  0  0  0
 12 13  1  0  0  0  0
 13 29  1  0  0  0  0
 14 13  2  0  0  0  0
 14 30  1  0  0  0  0
 15 16  1  0  0  0  0
 15 14  1  0  0  0  0
 16 31  1  0  0  0  0
 17 32  1  0  0  0  0
 17 16  2  0  0  0  0
 18 17  1  0  0  0  0
 19 18  2  0  0  0  0
 19 20  1  0  0  0  0
 20 15  2  0  0  0  0
 21 37  1  0  0  0  0
 22  4  1  0  0  0  0
 25  8  1  0  0  0  0
 26  9  1  0  0  0  0
 33 18  1  0  0  0  0
 34 19  1  0  0  0  0
 35 21  1  0  0  0  0
 36 21  1  0  0  0  0
M  END
