1
 OpenBabel05122313113D

 30 32  0  0  1  0  0  0  0  0999 V2000
    0.4181   -0.3068   -1.6103 C   0  0  0  0  0  3  0  0  0  0  0  0
   -0.8953   -0.0581   -1.4221 C   0  0  0  0  0  0  0  0  0  0  0  0
   -1.6197    0.0061   -0.1224 C   0  0  1  0  0  0  0  0  0  0  0  0
   -2.9210    0.7757    0.0045 C   0  0  0  0  0  0  0  0  0  0  0  0
   -3.0289   -0.5467    0.0012 C   0  0  0  0  0  0  0  0  0  0  0  0
   -3.4608    2.1076    0.0545 C   0  0  0  0  0  0  0  0  0  0  0  0
   -2.5950    3.2219   -0.0791 C   0  0  0  0  0  0  0  0  0  0  0  0
   -3.0999    4.5265   -0.0309 C   0  0  0  0  0  0  0  0  0  0  0  0
   -4.4756    4.7456    0.1537 C   0  0  0  0  0  0  0  0  0  0  0  0
   -5.3457    3.6484    0.2891 C   0  0  0  0  0  0  0  0  0  0  0  0
   -4.8476    2.3426    0.2396 C   0  0  0  0  0  0  0  0  0  0  0  0
   -3.7714   -1.7780    0.0324 C   0  0  0  0  0  0  0  0  0  0  0  0
   -5.1887   -1.7855    0.0978 C   0  0  0  0  0  0  0  0  0  0  0  0
   -5.8907   -2.9942    0.1302 C   0  0  0  0  0  0  0  0  0  0  0  0
   -5.1959   -4.2171    0.0984 C   0  0  0  0  0  0  0  0  0  0  0  0
   -3.7923   -4.2223    0.0344 C   0  0  0  0  0  0  0  0  0  0  0  0
   -3.0820   -3.0164    0.0007 C   0  0  0  0  0  0  0  0  0  0  0  0
    0.8210   -0.3558   -2.6390 H   0  0  0  0  0  0  0  0  0  0  0  0
   -1.5289    0.1129   -2.3155 H   0  0  0  0  0  0  0  0  0  0  0  0
   -0.9498   -0.0575    0.7624 H   0  0  0  0  0  0  0  0  0  0  0  0
   -1.5209    3.0382   -0.2251 H   0  0  0  0  0  0  0  0  0  0  0  0
   -2.4157    5.3821   -0.1381 H   0  0  0  0  0  0  0  0  0  0  0  0
   -4.8718    5.7716    0.1922 H   0  0  0  0  0  0  0  0  0  0  0  0
   -6.4236    3.8168    0.4350 H   0  0  0  0  0  0  0  0  0  0  0  0
   -5.5270    1.4842    0.3486 H   0  0  0  0  0  0  0  0  0  0  0  0
   -5.7300   -0.8278    0.1188 H   0  0  0  0  0  0  0  0  0  0  0  0
   -6.9903   -2.9872    0.1798 H   0  0  0  0  0  0  0  0  0  0  0  0
   -5.7515   -5.1669    0.1239 H   0  0  0  0  0  0  0  0  0  0  0  0
   -3.2451   -5.1769    0.0109 H   0  0  0  0  0  0  0  0  0  0  0  0
   -1.9832   -3.0167   -0.0442 H   0  0  0  0  0  0  0  0  0  0  0  0
  1  2  2  0  0  0  0
  2  3  1  0  0  0  0
  3  5  1  0  0  0  0
  3  4  1  0  0  0  0
  3 20  1  1  0  0  0
  4  6  1  0  0  0  0
  5  4  2  0  0  0  0
  5 12  1  0  0  0  0
  6 11  1  0  0  0  0
  7  8  1  0  0  0  0
  7  6  2  0  0  0  0
  8  9  2  0  0  0  0
  9 23  1  0  0  0  0
  9 10  1  0  0  0  0
 10 24  1  0  0  0  0
 11 10  2  0  0  0  0
 11 25  1  0  0  0  0
 12 13  1  0  0  0  0
 13 26  1  0  0  0  0
 13 14  2  0  0  0  0
 14 27  1  0  0  0  0
 15 28  1  0  0  0  0
 15 14  1  0  0  0  0
 16 15  2  0  0  0  0
 17 12  2  0  0  0  0
 17 16  1  0  0  0  0
 18  1  1  0  0  0  0
 19  2  1  0  0  0  0
 21  7  1  0  0  0  0
 22  8  1  0  0  0  0
 29 16  1  0  0  0  0
 30 17  1  0  0  0  0
M  END
