8
 OpenBabel05122313113D

 45 47  0  0  1  0  0  0  0  0999 V2000
   -1.2365    0.3728   -0.8520 O   0  0  0  0  0  0  0  0  0  0  0  0
   -1.4319   -1.7797   -1.6043 O   0  0  0  0  0  0  0  0  0  0  0  0
   -3.8468    1.4350   -1.7525 O   0  0  0  0  0  0  0  0  0  0  0  0
    2.4425   -0.2015   -1.0660 C   0  0  0  0  0  3  0  0  0  0  0  0
    2.6742    0.3455   -1.9941 H   0  0  0  0  0  0  0  0  0  0  0  0
    1.0632   -0.5047   -0.8074 C   0  0  0  0  0  3  0  0  0  0  0  0
    0.7366   -1.4252   -0.3065 H   0  0  0  0  0  0  0  0  0  0  0  0
    0.1104    0.4901   -1.1654 C   0  0  2  0  0  3  0  0  0  0  0  0
    0.5736    1.7393   -1.6900 C   0  0  0  0  0  3  0  0  0  0  0  0
   -0.1791    2.5381   -1.7654 H   0  0  0  0  0  0  0  0  0  0  0  0
    1.3456    1.7479   -2.4739 H   0  0  0  0  0  0  0  0  0  0  0  0
   -1.9207   -0.7977   -1.0864 C   0  0  0  0  0  0  0  0  0  0  0  0
   -3.3183   -0.6725   -0.5549 C   0  0  1  0  0  0  0  0  0  0  0  0
   -4.0726    0.6455   -0.8622 C   0  0  0  0  0  0  0  0  0  0  0  0
   -5.2150    0.7005    0.1662 C   0  0  0  0  0  0  0  0  0  0  0  0
   -5.0985    1.6118    0.7868 H   0  0  0  0  0  0  0  0  0  0  0  0
   -6.1926    0.7861   -0.3498 H   0  0  0  0  0  0  0  0  0  0  0  0
   -5.0236   -0.6080    0.9525 C   0  0  1  0  0  0  0  0  0  0  0  0
   -5.5170   -0.6201    1.9443 H   0  0  0  0  0  0  0  0  0  0  0  0
   -5.4362   -1.7641    0.0139 C   0  0  0  0  0  0  0  0  0  0  0  0
   -6.4306   -1.5814   -0.4385 H   0  0  0  0  0  0  0  0  0  0  0  0
   -5.5029   -2.7262    0.5575 H   0  0  0  0  0  0  0  0  0  0  0  0
   -4.2945   -1.7811   -1.0436 C   0  0  0  0  0  0  0  0  0  0  0  0
   -3.7492   -2.7434   -1.0832 H   0  0  0  0  0  0  0  0  0  0  0  0
   -4.6442   -1.5734   -2.0736 H   0  0  0  0  0  0  0  0  0  0  0  0
   -3.4646   -0.7459    1.0180 C   0  0  0  0  0  0  0  0  0  0  0  0
   -2.7623    0.3993    1.7624 C   0  0  0  0  0  0  0  0  0  0  0  0
   -2.9252    1.3963    1.3123 H   0  0  0  0  0  0  0  0  0  0  0  0
   -1.6668    0.2376    1.7787 H   0  0  0  0  0  0  0  0  0  0  0  0
   -3.1115    0.4353    2.8147 H   0  0  0  0  0  0  0  0  0  0  0  0
   -2.9796   -2.0726    1.6151 C   0  0  0  0  0  0  0  0  0  0  0  0
   -3.4059   -2.9663    1.1241 H   0  0  0  0  0  0  0  0  0  0  0  0
   -3.2459   -2.1187    2.6911 H   0  0  0  0  0  0  0  0  0  0  0  0
   -1.8756   -2.1507    1.5449 H   0  0  0  0  0  0  0  0  0  0  0  0
    3.5635   -1.0267   -0.5777 C   0  0  0  0  0  0  0  0  0  0  0  0
    3.4109   -2.0479    0.3888 C   0  0  0  0  0  0  0  0  0  0  0  0
    2.4215   -2.2535    0.8230 H   0  0  0  0  0  0  0  0  0  0  0  0
    4.5099   -2.8057    0.8120 C   0  0  0  0  0  0  0  0  0  0  0  0
    4.3665   -3.5968    1.5636 H   0  0  0  0  0  0  0  0  0  0  0  0
    5.7887   -2.5587    0.2865 C   0  0  0  0  0  0  0  0  0  0  0  0
    6.6509   -3.1533    0.6239 H   0  0  0  0  0  0  0  0  0  0  0  0
    5.9577   -1.5454   -0.6709 C   0  0  0  0  0  0  0  0  0  0  0  0
    6.9550   -1.3415   -1.0895 H   0  0  0  0  0  0  0  0  0  0  0  0
    4.8579   -0.7914   -1.0973 C   0  0  0  0  0  0  0  0  0  0  0  0
    4.9951    0.0045   -1.8464 H   0  0  0  0  0  0  0  0  0  0  0  0
  2 12  2  0  0  0  0
  3 14  2  0  0  0  0
  4  6  1  0  0  0  0
  4 35  1  0  0  0  0
  5  4  1  0  0  0  0
  6  7  1  0  0  0  0
  8  9  1  1  0  0  0
  8  1  1  0  0  0  0
  8  6  1  0  0  0  0
 10  9  1  0  0  0  0
 11  9  1  0  0  0  0
 12  1  1  0  0  0  0
 13 12  1  6  0  0  0
 13 26  1  0  0  0  0
 14 13  1  0  0  0  0
 14 15  1  0  0  0  0
 15 16  1  0  0  0  0
 15 18  1  0  0  0  0
 17 15  1  0  0  0  0
 18 26  1  0  0  0  0
 18 19  1  1  0  0  0
 20 22  1  0  0  0  0
 20 18  1  0  0  0  0
 21 20  1  0  0  0  0
 23 13  1  0  0  0  0
 23 20  1  0  0  0  0
 24 23  1  0  0  0  0
 25 23  1  0  0  0  0
 26 31  1  0  0  0  0
 26 27  1  0  0  0  0
 27 29  1  0  0  0  0
 27 30  1  0  0  0  0
 28 27  1  0  0  0  0
 31 33  1  0  0  0  0
 32 31  1  0  0  0  0
 34 31  1  0  0  0  0
 35 36  1  0  0  0  0
 36 38  2  0  0  0  0
 36 37  1  0  0  0  0
 38 39  1  0  0  0  0
 40 41  1  0  0  0  0
 40 38  1  0  0  0  0
 42 40  2  0  0  0  0
 43 42  1  0  0  0  0
 44 42  1  0  0  0  0
 44 35  2  0  0  0  0
 45 44  1  0  0  0  0
M  END
