9
 OpenBabel05122313113D

 39 41  0  0  1  0  0  0  0  0999 V2000
    0.3063    0.1558    0.7892 O   0  0  0  0  0  0  0  0  0  0  0  0
    1.3703    2.1096    0.2834 O   0  0  0  0  0  0  0  0  0  0  0  0
    1.6184   -0.5232   -2.0490 O   0  0  0  0  0  0  0  0  0  0  0  0
   -1.3626    1.1145   -0.7608 C   0  0  0  0  0  3  0  0  0  0  0  0
   -2.1685    2.3880   -0.9217 C   0  0  0  0  0  0  0  0  0  0  0  0
   -3.2593    2.4776    0.1673 C   0  0  0  0  0  0  0  0  0  0  0  0
   -3.1949    1.2798    1.1007 C   0  0  0  0  0  3  0  0  0  0  0  0
   -1.9188    0.8062    1.5803 C   0  0  0  0  0  3  0  0  0  0  0  0
   -0.9379    0.7323    0.5549 C   0  0  1  0  0  3  0  0  0  0  0  0
    1.4080    0.9071    0.4341 C   0  0  0  0  0  0  0  0  0  0  0  0
    2.5745    0.0016    0.1851 C   0  0  1  0  0  0  0  0  0  0  0  0
    2.5548   -0.5288   -1.2791 C   0  0  0  0  0  0  0  0  0  0  0  0
    3.9729   -1.0603   -1.5260 C   0  0  0  0  0  0  0  0  0  0  0  0
    4.6759   -0.7793   -0.1847 C   0  0  1  0  0  0  0  0  0  0  0  0
    4.0276    0.5757    0.2682 C   0  0  0  0  0  0  0  0  0  0  0  0
    4.4219    1.0218    1.6815 C   0  0  0  0  0  0  0  0  0  0  0  0
    4.2920    1.7444   -0.6948 C   0  0  0  0  0  0  0  0  0  0  0  0
    2.6455   -1.3136    1.0308 C   0  0  0  0  0  0  0  0  0  0  0  0
    4.1109   -1.7947    0.8328 C   0  0  0  0  0  0  0  0  0  0  0  0
   -0.6710    0.8435   -1.5754 H   0  0  0  0  0  0  0  0  0  0  0  0
   -2.6163    2.4154   -1.9350 H   0  0  0  0  0  0  0  0  0  0  0  0
   -1.4672    3.2494   -0.8631 H   0  0  0  0  0  0  0  0  0  0  0  0
   -4.2678    2.5245   -0.2907 H   0  0  0  0  0  0  0  0  0  0  0  0
   -3.1500    3.4109    0.7645 H   0  0  0  0  0  0  0  0  0  0  0  0
   -4.0464    1.1717    1.7927 H   0  0  0  0  0  0  0  0  0  0  0  0
   -1.7128    0.4478    2.5993 H   0  0  0  0  0  0  0  0  0  0  0  0
    3.9357   -2.1326   -1.8067 H   0  0  0  0  0  0  0  0  0  0  0  0
    4.4136   -0.5180   -2.3864 H   0  0  0  0  0  0  0  0  0  0  0  0
    5.7812   -0.7564   -0.2480 H   0  0  0  0  0  0  0  0  0  0  0  0
    5.4998    1.2826    1.7103 H   0  0  0  0  0  0  0  0  0  0  0  0
    4.2430    0.2534    2.4567 H   0  0  0  0  0  0  0  0  0  0  0  0
    3.8503    1.9278    1.9657 H   0  0  0  0  0  0  0  0  0  0  0  0
    3.9518    1.5508   -1.7305 H   0  0  0  0  0  0  0  0  0  0  0  0
    5.3779    1.9680   -0.7305 H   0  0  0  0  0  0  0  0  0  0  0  0
    3.7557    2.6476   -0.3493 H   0  0  0  0  0  0  0  0  0  0  0  0
    1.8864   -2.0436    0.6913 H   0  0  0  0  0  0  0  0  0  0  0  0
    2.4132   -1.0863    2.0892 H   0  0  0  0  0  0  0  0  0  0  0  0
    4.6778   -1.7742    1.7832 H   0  0  0  0  0  0  0  0  0  0  0  0
    4.1669   -2.8312    0.4460 H   0  0  0  0  0  0  0  0  0  0  0  0
  2 10  2  0  0  0  0
  3 12  2  0  0  0  0
  4  9  1  0  0  0  0
  5 22  1  0  0  0  0
  5  4  1  0  0  0  0
  5  6  1  0  0  0  0
  6 24  1  0  0  0  0
  6  7  1  0  0  0  0
  7  8  1  0  0  0  0
  7 25  1  0  0  0  0
  8 26  1  0  0  0  0
  9  1  1  6  0  0  0
  9  8  1  0  0  0  0
 10  1  1  0  0  0  0
 11 15  1  0  0  0  0
 11 10  1  1  0  0  0
 11 18  1  0  0  0  0
 12 11  1  0  0  0  0
 13 12  1  0  0  0  0
 13 14  1  0  0  0  0
 14 29  1  6  0  0  0
 14 15  1  0  0  0  0
 14 19  1  0  0  0  0
 15 16  1  0  0  0  0
 16 30  1  0  0  0  0
 16 32  1  0  0  0  0
 16 31  1  0  0  0  0
 17 35  1  0  0  0  0
 17 15  1  0  0  0  0
 18 37  1  0  0  0  0
 19 18  1  0  0  0  0
 19 38  1  0  0  0  0
 20  4  1  0  0  0  0
 21  5  1  0  0  0  0
 23  6  1  0  0  0  0
 27 13  1  0  0  0  0
 28 13  1  0  0  0  0
 33 17  1  0  0  0  0
 34 17  1  0  0  0  0
 36 18  1  0  0  0  0
 39 19  1  0  0  0  0
M  END
