6
 OpenBabel05122313113D

 38 39  0  0  1  0  0  0  0  0999 V2000
    0.7925    1.1330   -0.0299 P   0  0  0  0  0  0  0  0  0  0  0  0
   -0.7438   -1.2595   -0.9490 O   0  0  0  0  0  0  0  0  0  0  0  0
   -0.7550    0.9382    0.2480 O   0  0  0  0  0  0  0  0  0  0  0  0
    0.9659    1.9887   -1.4223 O   0  0  0  0  0  0  0  0  0  0  0  0
    1.2138    2.3266    1.0329 O   0  0  0  0  0  0  0  0  0  0  0  0
    0.5182   -1.4120   -0.9831 C   0  0  0  0  0  2  0  0  0  0  0  0
   -2.7543    0.2909   -1.2518 C   0  0  1  0  0  0  0  0  0  0  0  0
   -3.5663   -0.9223   -1.7563 C   0  0  0  0  0  0  0  0  0  0  0  0
   -4.1696   -1.8114   -0.6491 C   0  0  0  0  0  0  0  0  0  0  0  0
   -3.2052   -2.1281    0.5126 C   0  0  0  0  0  0  0  0  0  0  0  0
   -2.3879   -0.9254    1.0350 C   0  0  2  0  0  0  0  0  0  0  0  0
   -3.2222    0.1710    1.7369 C   0  0  0  0  0  0  0  0  0  0  0  0
   -4.1899    0.9494    0.8211 C   0  0  0  0  0  0  0  0  0  0  0  0
   -3.5859    1.3778   -0.5328 C   0  0  0  0  0  0  0  0  0  0  0  0
    0.1653    3.1617   -1.6354 C   0  0  0  0  0  0  0  0  0  0  0  0
    0.9169    2.1633    2.4200 C   0  0  0  0  0  0  0  0  0  0  0  0
   -1.6312   -0.2211   -0.2060 B   0  0  1  0  0  0  0  0  0  0  0  0
    0.7977   -2.1870   -1.7419 H   0  0  0  0  0  0  0  0  0  0  0  0
   -2.2723    0.7662   -2.1380 H   0  0  0  0  0  0  0  0  0  0  0  0
   -2.8872   -1.5458   -2.3778 H   0  0  0  0  0  0  0  0  0  0  0  0
   -4.3824   -0.5896   -2.4379 H   0  0  0  0  0  0  0  0  0  0  0  0
   -4.5184   -2.7654   -1.1011 H   0  0  0  0  0  0  0  0  0  0  0  0
   -5.0864   -1.3341   -0.2488 H   0  0  0  0  0  0  0  0  0  0  0  0
   -2.4843   -2.9036    0.1714 H   0  0  0  0  0  0  0  0  0  0  0  0
   -3.7815   -2.5964    1.3430 H   0  0  0  0  0  0  0  0  0  0  0  0
   -1.6567   -1.3126    1.7783 H   0  0  0  0  0  0  0  0  0  0  0  0
   -2.5094    0.8934    2.1930 H   0  0  0  0  0  0  0  0  0  0  0  0
   -3.7982   -0.2631    2.5858 H   0  0  0  0  0  0  0  0  0  0  0  0
   -4.5507    1.8531    1.3591 H   0  0  0  0  0  0  0  0  0  0  0  0
   -5.0996    0.3417    0.6437 H   0  0  0  0  0  0  0  0  0  0  0  0
   -2.9183    2.2505   -0.3572 H   0  0  0  0  0  0  0  0  0  0  0  0
   -4.4035    1.7463   -1.1938 H   0  0  0  0  0  0  0  0  0  0  0  0
    0.3585    3.9188   -0.8483 H   0  0  0  0  0  0  0  0  0  0  0  0
    0.4546    3.5679   -2.6227 H   0  0  0  0  0  0  0  0  0  0  0  0
   -0.9147    2.9069   -1.6422 H   0  0  0  0  0  0  0  0  0  0  0  0
    1.2001    3.1073    2.9235 H   0  0  0  0  0  0  0  0  0  0  0  0
    1.5017    1.3297    2.8664 H   0  0  0  0  0  0  0  0  0  0  0  0
   -0.1640    1.9679    2.5805 H   0  0  0  0  0  0  0  0  0  0  0  0
  1  3  1  0  0  0  0
  1  5  1  0  0  0  0
  4  1  1  0  0  0  0
  5 16  1  0  0  0  0
  6  2  1  0  0  0  0
  7 19  1  6  0  0  0
  7 14  1  0  0  0  0
  7 17  1  0  0  0  0
  8  7  1  0  0  0  0
  8  9  1  0  0  0  0
  9 23  1  0  0  0  0
  9 10  1  0  0  0  0
 10 11  1  0  0  0  0
 10 25  1  0  0  0  0
 11 12  1  0  0  0  0
 11 26  1  1  0  0  0
 12 27  1  0  0  0  0
 12 28  1  0  0  0  0
 13 29  1  0  0  0  0
 13 12  1  0  0  0  0
 14 31  1  0  0  0  0
 14 13  1  0  0  0  0
 15  4  1  0  0  0  0
 15 33  1  0  0  0  0
 16 38  1  0  0  0  0
 16 37  1  0  0  0  0
 16 36  1  0  0  0  0
 17  2  1  6  0  0  0
 17  3  1  0  0  0  0
 17 11  1  0  0  0  0
 18  6  1  0  0  0  0
 20  8  1  0  0  0  0
 21  8  1  0  0  0  0
 22  9  1  0  0  0  0
 24 10  1  0  0  0  0
 30 13  1  0  0  0  0
 32 14  1  0  0  0  0
 34 15  1  0  0  0  0
 35 15  1  0  0  0  0
M  END
