6
 OpenBabel05122313113D

 21 22  0  0  1  0  0  0  0  0999 V2000
    0.1329    3.2950    0.8754 O   0  0  0  0  0  0  0  0  0  0  0  0
    0.4446   -0.3054   -2.1120 C   0  0  0  0  0  3  0  0  0  0  0  0
    0.3012   -1.0494   -2.9046 H   0  0  0  0  0  0  0  0  0  0  0  0
    1.5832   -0.2268   -1.2263 C   0  0  0  0  0  0  0  0  0  0  0  0
    1.3971    0.9336   -0.3692 C   0  0  0  0  0  0  0  0  0  0  0  0
   -0.4087    0.8052   -1.8409 C   0  0  0  0  0  3  0  0  0  0  0  0
   -1.3296    1.0450   -2.3849 H   0  0  0  0  0  0  0  0  0  0  0  0
   -0.4392    2.7651   -0.0763 C   0  0  0  0  0  0  0  0  0  0  0  0
    3.4901    0.4403    0.7327 C   0  0  0  0  0  0  0  0  0  0  0  0
    4.2622    0.6822    1.4787 H   0  0  0  0  0  0  0  0  0  0  0  0
    2.7227   -1.0623   -1.0516 C   0  0  0  0  0  0  0  0  0  0  0  0
    2.8576   -1.9515   -1.6851 H   0  0  0  0  0  0  0  0  0  0  0  0
    2.3771    1.2632    0.6106 C   0  0  0  0  0  0  0  0  0  0  0  0
    2.2226    2.1534    1.2336 H   0  0  0  0  0  0  0  0  0  0  0  0
    3.6582   -0.7187   -0.0833 C   0  0  0  0  0  0  0  0  0  0  0  0
    4.5504   -1.3472    0.0569 H   0  0  0  0  0  0  0  0  0  0  0  0
    0.1293    1.5552   -0.7277 C   0  0  2  0  0  3  0  0  0  0  0  0
   -1.7397    3.3150   -0.6313 C   0  0  0  0  0  0  0  0  0  0  0  0
   -1.9800    4.2579   -0.1088 H   0  0  0  0  0  0  0  0  0  0  0  0
   -2.5665    2.5929   -0.4717 H   0  0  0  0  0  0  0  0  0  0  0  0
   -1.6649    3.4999   -1.7222 H   0  0  0  0  0  0  0  0  0  0  0  0
  2  6  1  0  0  0  0
  2  4  1  0  0  0  0
  3  2  1  0  0  0  0
  4 11  2  0  0  0  0
  4  5  1  0  0  0  0
  5 13  2  0  0  0  0
  6 17  1  0  0  0  0
  7  6  1  0  0  0  0
  8  1  2  0  0  0  0
  9 10  1  0  0  0  0
 11 15  1  0  0  0  0
 12 11  1  0  0  0  0
 13  9  1  0  0  0  0
 13 14  1  0  0  0  0
 15 16  1  0  0  0  0
 15  9  2  0  0  0  0
 17  5  1  0  0  0  0
 17  8  1  6  0  0  0
 18 20  1  0  0  0  0
 18 19  1  0  0  0  0
 18  8  1  0  0  0  0
 21 18  1  0  0  0  0
M  END
