3
 OpenBabel05122313113D

 18 19  0  0  0  0  0  0  0  0999 V2000
    3.0258    0.7553   -0.0005 S   0  0  0  0  0  0  0  0  0  0  0  0
    3.5496   -1.7928    0.0011 N   0  0  0  0  0  0  0  0  0  0  0  0
    0.3240    0.0383   -0.0003 C   0  0  0  0  0  1  0  0  0  0  0  0
    1.6728   -0.3737    0.0000 C   0  0  0  0  0  0  0  0  0  0  0  0
    2.2012   -1.6787    0.0009 C   0  0  0  0  0  0  0  0  0  0  0  0
    1.5674   -2.5783    0.0014 H   0  0  0  0  0  0  0  0  0  0  0  0
    4.1479   -0.6110    0.0004 C   0  0  0  0  0  0  0  0  0  0  0  0
    5.6003   -0.4259    0.0004 C   0  0  0  0  0  0  0  0  0  0  0  0
    6.4376   -1.5673    0.0012 C   0  0  0  0  0  0  0  0  0  0  0  0
    5.9625   -2.5586    0.0018 H   0  0  0  0  0  0  0  0  0  0  0  0
    7.8287   -1.4225    0.0013 C   0  0  0  0  0  0  0  0  0  0  0  0
    8.4691   -2.3177    0.0019 H   0  0  0  0  0  0  0  0  0  0  0  0
    8.4101   -0.1426    0.0005 C   0  0  0  0  0  0  0  0  0  0  0  0
    9.5050   -0.0318    0.0005 H   0  0  0  0  0  0  0  0  0  0  0  0
    7.5866    0.9958   -0.0003 C   0  0  0  0  0  0  0  0  0  0  0  0
    8.0338    2.0012   -0.0009 H   0  0  0  0  0  0  0  0  0  0  0  0
    6.1939    0.8573   -0.0004 C   0  0  0  0  0  0  0  0  0  0  0  0
    5.5567    1.7560   -0.0010 H   0  0  0  0  0  0  0  0  0  0  0  0
  1  4  1  0  0  0  0
  1  7  1  0  0  0  0
  3  4  1  0  0  0  0
  4  5  2  0  0  0  0
  5  2  1  0  0  0  0
  5  6  1  0  0  0  0
  7  8  1  0  0  0  0
  7  2  2  0  0  0  0
  8  9  1  0  0  0  0
  9 11  2  0  0  0  0
  9 10  1  0  0  0  0
 11 12  1  0  0  0  0
 13 14  1  0  0  0  0
 13 11  1  0  0  0  0
 15 13  2  0  0  0  0
 16 15  1  0  0  0  0
 17 15  1  0  0  0  0
 17  8  2  0  0  0  0
 18 17  1  0  0  0  0
M  END
