5
 OpenBabel05122313113D

 16 15  0  0  0  0  0  0  0  0999 V2000
   -3.4623    0.6072    0.9757 O   0  0  0  0  0  0  0  0  0  0  0  0
   -4.0077   -0.7182   -0.7786 O   0  0  0  0  0  0  0  0  0  0  0  0
   -3.3057   -0.5116    0.2006 C   0  0  0  0  0  0  0  0  0  0  0  0
   -2.1992   -1.3506    0.6915 C   0  0  0  0  0  3  0  0  0  0  0  0
   -2.0523   -2.6981    0.2077 C   0  0  0  0  0  3  0  0  0  0  0  0
   -0.8279   -3.3561    0.5231 C   0  0  0  0  0  3  0  0  0  0  0  0
    0.1734   -2.6163    1.2342 C   0  0  0  0  0  3  0  0  0  0  0  0
    1.5505   -3.1849    1.4569 C   0  0  0  0  0  0  0  0  0  0  0  0
   -4.1509    1.1400    0.5232 H   0  0  0  0  0  0  0  0  0  0  0  0
   -1.8420   -1.0979    1.7013 H   0  0  0  0  0  0  0  0  0  0  0  0
   -2.8185   -3.1634   -0.4304 H   0  0  0  0  0  0  0  0  0  0  0  0
   -0.6167   -4.3515    0.0983 H   0  0  0  0  0  0  0  0  0  0  0  0
   -0.1641   -1.9445    2.0416 H   0  0  0  0  0  0  0  0  0  0  0  0
    2.2808   -2.3818    1.6835 H   0  0  0  0  0  0  0  0  0  0  0  0
    1.9226   -3.7532    0.5812 H   0  0  0  0  0  0  0  0  0  0  0  0
    1.5612   -3.8707    2.3331 H   0  0  0  0  0  0  0  0  0  0  0  0
  2  3  2  0  0  0  0
  3  4  1  0  0  0  0
  3  1  1  0  0  0  0
  4 10  1  0  0  0  0
  5  6  1  0  0  0  0
  5  4  1  0  0  0  0
  6  7  1  0  0  0  0
  7  8  1  0  0  0  0
  7 13  1  0  0  0  0
  8 14  1  0  0  0  0
  8 16  1  0  0  0  0
  9  1  1  0  0  0  0
 11  5  1  0  0  0  0
 12  6  1  0  0  0  0
 15  8  1  0  0  0  0
M  END
