3
 OpenBabel05122313113D

 31 32  0  0  1  0  0  0  0  0999 V2000
   -3.6872    1.1810   -0.3526 O   0  0  0  0  0  0  0  0  0  0  0  0
   -0.4190   -0.3784    0.5140 C   0  0  1  0  0  3  0  0  0  0  0  0
   -0.0779   -1.3168   -0.5269 C   0  0  0  0  0  3  0  0  0  0  0  0
   -0.6624   -1.3058   -1.4565 H   0  0  0  0  0  0  0  0  0  0  0  0
    0.9823   -2.2361   -0.3603 C   0  0  0  0  0  0  0  0  0  0  0  0
    1.2370   -2.9302   -1.1728 H   0  0  0  0  0  0  0  0  0  0  0  0
    1.7698   -2.2118    0.8340 C   0  0  0  0  0  0  0  0  0  0  0  0
    2.6272   -2.8899    0.9430 H   0  0  0  0  0  0  0  0  0  0  0  0
    1.4809   -1.2637    1.8436 C   0  0  0  0  0  0  0  0  0  0  0  0
    2.1130   -1.2031    2.7401 H   0  0  0  0  0  0  0  0  0  0  0  0
    0.3906   -0.3510    1.6823 C   0  0  0  0  0  0  0  0  0  0  0  0
    0.1741    0.3872    2.4666 H   0  0  0  0  0  0  0  0  0  0  0  0
   -1.5783    0.5223    0.3275 C   0  0  0  0  0  0  0  0  0  0  0  0
   -1.5809    1.8905    0.3629 C   0  0  0  0  0  0  0  0  0  0  0  0
   -2.9443    2.3564   -0.0601 C   0  0  0  0  0  0  0  0  0  0  0  0
   -3.4633    2.9448    0.7375 H   0  0  0  0  0  0  0  0  0  0  0  0
   -2.8915    3.0137   -0.9618 H   0  0  0  0  0  0  0  0  0  0  0  0
   -2.9289    0.0603   -0.0523 C   0  0  0  0  0  0  0  0  0  0  0  0
   -0.4973    2.8588    0.6842 C   0  0  0  0  0  0  0  0  0  0  0  0
   -0.7338    3.4212    1.6139 H   0  0  0  0  0  0  0  0  0  0  0  0
   -0.3893    3.6127   -0.1243 H   0  0  0  0  0  0  0  0  0  0  0  0
    0.4773    2.3577    0.8212 H   0  0  0  0  0  0  0  0  0  0  0  0
   -3.5095   -1.1763   -0.1044 C   0  0  0  0  0  0  0  0  0  0  0  0
   -4.9281   -1.3141   -0.5909 C   0  0  0  0  0  0  0  0  0  0  0  0
   -5.5946   -1.6854    0.2199 H   0  0  0  0  0  0  0  0  0  0  0  0
   -4.9912   -2.0663   -1.4087 H   0  0  0  0  0  0  0  0  0  0  0  0
   -5.3368   -0.3581   -0.9633 H   0  0  0  0  0  0  0  0  0  0  0  0
   -2.8512   -2.4533    0.3444 C   0  0  0  0  0  0  0  0  0  0  0  0
   -2.5451   -3.0982   -0.5109 H   0  0  0  0  0  0  0  0  0  0  0  0
   -3.5787   -3.0541    0.9324 H   0  0  0  0  0  0  0  0  0  0  0  0
   -1.9633   -2.3004    0.9823 H   0  0  0  0  0  0  0  0  0  0  0  0
  1 15  1  0  0  0  0
  1 18  1  0  0  0  0
  2 13  1  6  0  0  0
  2 11  1  0  0  0  0
  3  5  1  0  0  0  0
  3  2  1  0  0  0  0
  4  3  1  0  0  0  0
  5  7  2  0  0  0  0
  6  5  1  0  0  0  0
  7  8  1  0  0  0  0
  7  9  1  0  0  0  0
  9 10  1  0  0  0  0
 11  9  2  0  0  0  0
 11 12  1  0  0  0  0
 13 14  2  0  0  0  0
 14 19  1  0  0  0  0
 15 14  1  0  0  0  0
 15 16  1  0  0  0  0
 17 15  1  0  0  0  0
 18 13  1  0  0  0  0
 19 22  1  0  0  0  0
 19 20  1  0  0  0  0
 21 19  1  0  0  0  0
 23 18  2  0  0  0  0
 23 28  1  0  0  0  0
 24 23  1  0  0  0  0
 24 25  1  0  0  0  0
 26 24  1  0  0  0  0
 27 24  1  0  0  0  0
 28 30  1  0  0  0  0
 28 31  1  0  0  0  0
 29 28  1  0  0  0  0
M  END
