38
 OpenBabel05122313113D

 63 67  0  0  0  0  0  0  0  0999 V2000
   -3.4303    1.4198   -0.2445 N   0  0  0  0  0  0  0  0  0  0  0  0
   -1.1292    1.2311   -0.9714 N   0  0  0  0  0  0  0  0  0  0  0  0
    0.3437   -0.1515   -2.3050 N   0  0  0  0  0  0  0  0  0  0  0  0
    1.4974   -2.6990   -1.2875 N   0  0  0  0  0  0  0  0  0  0  0  0
   -4.7085    0.8455   -0.1554 C   0  0  0  0  0  0  0  0  0  0  0  0
   -4.9806   -0.2253    0.7282 C   0  0  0  0  0  0  0  0  0  0  0  0
   -4.1605   -0.6320    1.3369 H   0  0  0  0  0  0  0  0  0  0  0  0
   -6.2797   -0.7422    0.8365 C   0  0  0  0  0  0  0  0  0  0  0  0
   -6.4732   -1.5751    1.5303 H   0  0  0  0  0  0  0  0  0  0  0  0
   -7.3282   -0.2064    0.0719 C   0  0  0  0  0  0  0  0  0  0  0  0
   -8.3458   -0.6152    0.1587 H   0  0  0  0  0  0  0  0  0  0  0  0
    1.3511   -2.7723    0.8641 N   0  0  0  0  0  0  0  0  0  0  0  0
   -7.0656    0.8665   -0.7966 C   0  0  0  0  0  0  0  0  0  0  0  0
   -7.8800    1.3016   -1.3961 H   0  0  0  0  0  0  0  0  0  0  0  0
   -5.7736    1.3977   -0.9039 C   0  0  0  0  0  0  0  0  0  0  0  0
   -5.5637    2.2457   -1.5722 H   0  0  0  0  0  0  0  0  0  0  0  0
   -2.4601    0.8136   -0.8075 C   0  0  0  0  0  0  0  0  0  0  0  0
   -2.2041   -0.4877   -1.6068 C   0  0  0  0  0  0  0  0  0  0  0  0
   -3.0237   -0.5878   -2.8961 C   0  0  0  0  0  0  0  0  0  0  0  0
   -4.0973   -0.7159   -2.6500 H   0  0  0  0  0  0  0  0  0  0  0  0
   -2.7053   -1.4602   -3.5020 H   0  0  0  0  0  0  0  0  0  0  0  0
   -2.9191    0.3236   -3.5173 H   0  0  0  0  0  0  0  0  0  0  0  0
   -2.2609   -1.7672   -0.7636 C   0  0  0  0  0  0  0  0  0  0  0  0
   -3.3123   -2.0206   -0.5267 H   0  0  0  0  0  0  0  0  0  0  0  0
   -1.7045   -1.6525    0.1881 H   0  0  0  0  0  0  0  0  0  0  0  0
   -1.8185   -2.6178   -1.3186 H   0  0  0  0  0  0  0  0  0  0  0  0
   -0.7731    0.1089   -1.7501 C   0  0  0  0  0  0  0  0  0  0  0  0
    0.4983   -1.3413   -3.1062 C   0  0  0  0  0  0  0  0  0  0  0  0
    0.7139   -1.0407   -4.1562 H   0  0  0  0  0  0  0  0  0  0  0  0
   -0.4062   -1.9956   -3.1403 H   0  0  0  0  0  0  0  0  0  0  0  0
    1.7009   -2.1740   -2.6330 C   0  0  0  0  0  0  0  0  0  0  0  0
    1.8802   -3.0203   -3.3256 H   0  0  0  0  0  0  0  0  0  0  0  0
    2.6081   -1.5391   -2.6013 H   0  0  0  0  0  0  0  0  0  0  0  0
    0.7036   -3.7974   -0.9826 C   0  0  0  0  0  0  0  0  0  0  0  0
    0.2890   -4.4567   -1.7512 H   0  0  0  0  0  0  0  0  0  0  0  0
    0.6084   -3.8412    0.3845 C   0  0  0  0  0  0  0  0  0  0  0  0
    0.0830   -4.5375    1.0445 H   0  0  0  0  0  0  0  0  0  0  0  0
    1.9094   -2.0521   -0.1547 C   0  0  0  0  0  2  0  0  0  0  0  0
    1.3744   -2.3387    2.2672 C   0  0  0  0  0  0  0  0  0  0  0  0
    2.3143   -1.7695    2.4044 H   0  0  0  0  0  0  0  0  0  0  0  0
    1.4156   -3.2429    2.9052 H   0  0  0  0  0  0  0  0  0  0  0  0
    0.1660   -1.4871    2.6019 C   0  0  0  0  0  0  0  0  0  0  0  0
    0.1502   -0.1184    2.2647 C   0  0  0  0  0  0  0  0  0  0  0  0
    1.0347    0.3416    1.7935 H   0  0  0  0  0  0  0  0  0  0  0  0
   -0.9878    0.6606    2.5162 C   0  0  0  0  0  0  0  0  0  0  0  0
   -0.9867    1.7265    2.2460 H   0  0  0  0  0  0  0  0  0  0  0  0
   -2.1237    0.0797    3.1039 C   0  0  0  0  0  0  0  0  0  0  0  0
   -3.0163    0.6940    3.2953 H   0  0  0  0  0  0  0  0  0  0  0  0
   -2.1170   -1.2828    3.4427 C   0  0  0  0  0  0  0  0  0  0  0  0
   -3.0024   -1.7412    3.9092 H   0  0  0  0  0  0  0  0  0  0  0  0
   -0.9758   -2.0618    3.1922 C   0  0  0  0  0  0  0  0  0  0  0  0
   -0.9696   -3.1291    3.4673 H   0  0  0  0  0  0  0  0  0  0  0  0
   -0.4135    2.3501   -0.4965 C   0  0  0  0  0  0  0  0  0  0  0  0
   -1.1086    3.4088    0.1302 C   0  0  0  0  0  0  0  0  0  0  0  0
   -2.2017    3.3547    0.2185 H   0  0  0  0  0  0  0  0  0  0  0  0
   -0.3819    4.4927    0.6416 C   0  0  0  0  0  0  0  0  0  0  0  0
   -0.9226    5.3163    1.1329 H   0  0  0  0  0  0  0  0  0  0  0  0
    1.0188    4.5315    0.5382 C   0  0  0  0  0  0  0  0  0  0  0  0
    1.5810    5.3813    0.9536 H   0  0  0  0  0  0  0  0  0  0  0  0
    1.6989    3.4774   -0.0922 C   0  0  0  0  0  0  0  0  0  0  0  0
    2.7976    3.4658   -0.1625 H   0  0  0  0  0  0  0  0  0  0  0  0
    0.9906    2.3893   -0.6185 C   0  0  0  0  0  0  0  0  0  0  0  0
    1.5167    1.5648   -1.1182 H   0  0  0  0  0  0  0  0  0  0  0  0
  1  5  1  0  0  0  0
  2 17  1  0  0  0  0
  2 53  1  0  0  0  0
  3 27  2  0  0  0  0
  4 34  1  0  0  0  0
  4 38  1  0  0  0  0
  5  6  1  0  0  0  0
  6  8  2  0  0  0  0
  6  7  1  0  0  0  0
  8  9  1  0  0  0  0
 10 11  1  0  0  0  0
 10  8  1  0  0  0  0
 12 39  1  0  0  0  0
 13 10  2  0  0  0  0
 14 13  1  0  0  0  0
 15 13  1  0  0  0  0
 15  5  2  0  0  0  0
 16 15  1  0  0  0  0
 17  1  2  0  0  0  0
 18 17  1  0  0  0  0
 18 23  1  0  0  0  0
 19 20  1  0  0  0  0
 19 18  1  0  0  0  0
 21 19  1  0  0  0  0
 22 19  1  0  0  0  0
 23 24  1  0  0  0  0
 23 25  1  0  0  0  0
 26 23  1  0  0  0  0
 27 18  1  0  0  0  0
 27  2  1  0  0  0  0
 28 31  1  0  0  0  0
 28  3  1  0  0  0  0
 29 28  1  0  0  0  0
 30 28  1  0  0  0  0
 31 33  1  0  0  0  0
 31  4  1  0  0  0  0
 32 31  1  0  0  0  0
 34 36  2  0  0  0  0
 35 34  1  0  0  0  0
 36 12  1  0  0  0  0
 36 37  1  0  0  0  0
 38 12  1  0  0  0  0
 39 40  1  0  0  0  0
 39 42  1  0  0  0  0
 39 41  1  0  0  0  0
 42 51  1  0  0  0  0
 43 45  1  0  0  0  0
 43 42  2  0  0  0  0
 44 43  1  0  0  0  0
 45 47  2  0  0  0  0
 46 45  1  0  0  0  0
 47 48  1  0  0  0  0
 47 49  1  0  0  0  0
 49 50  1  0  0  0  0
 51 49  2  0  0  0  0
 51 52  1  0  0  0  0
 53 54  1  0  0  0  0
 54 55  1  0  0  0  0
 54 56  2  0  0  0  0
 56 57  1  0  0  0  0
 58 56  1  0  0  0  0
 58 59  1  0  0  0  0
 60 58  2  0  0  0  0
 61 60  1  0  0  0  0
 62 53  2  0  0  0  0
 62 60  1  0  0  0  0
 63 62  1  0  0  0  0
M  END
