3
 OpenBabel05122313113D

 32 34  0  0  1  0  0  0  0  0999 V2000
    1.2358    1.2650    0.5174 C   0  0  2  0  0  3  0  0  0  0  0  0
    1.3011    0.1568    1.4112 C   0  0  0  0  0  3  0  0  0  0  0  0
    1.6054   -1.1489    0.9233 C   0  0  0  0  0  3  0  0  0  0  0  0
    1.8019   -1.3748   -0.4708 C   0  0  1  0  0  3  0  0  0  0  0  0
    1.3446   -0.3515   -1.3496 C   0  0  0  0  0  0  0  0  0  0  0  0
    1.0855    0.9577   -0.8574 C   0  0  0  0  0  0  0  0  0  0  0  0
    1.5160    2.6678    0.9833 C   0  0  0  0  0  0  0  0  0  0  0  0
    3.0921    2.9790    0.9785 C   0  0  0  0  0  0  0  0  0  0  0  0
    2.5996   -2.5476   -0.9692 C   0  0  0  0  0  0  0  0  0  0  0  0
    4.1646   -2.1979   -1.0093 C   0  0  0  0  0  0  0  0  0  0  0  0
    3.9213    1.8180    0.4715 C   0  0  0  0  0  0  0  0  0  0  0  0
    4.3143    0.7777    1.3392 C   0  0  0  0  0  0  0  0  0  0  0  0
    4.5849   -0.5071    0.8460 C   0  0  0  0  0  0  0  0  0  0  0  0
    4.4645   -0.7925   -0.5300 C   0  0  0  0  0  0  0  0  0  0  0  0
    4.3526    0.3089   -1.4043 C   0  0  0  0  0  0  0  0  0  0  0  0
    4.0860    1.5944   -0.9115 C   0  0  0  0  0  0  0  0  0  0  0  0
    1.2485    0.3236    2.4969 H   0  0  0  0  0  0  0  0  0  0  0  0
    1.7837   -1.9654    1.6370 H   0  0  0  0  0  0  0  0  0  0  0  0
    1.3154   -0.5408   -2.4322 H   0  0  0  0  0  0  0  0  0  0  0  0
    0.8496    1.7629   -1.5689 H   0  0  0  0  0  0  0  0  0  0  0  0
    1.1212    2.8181    2.0072 H   0  0  0  0  0  0  0  0  0  0  0  0
    1.0021    3.3951    0.3246 H   0  0  0  0  0  0  0  0  0  0  0  0
    3.2616    3.8771    0.3521 H   0  0  0  0  0  0  0  0  0  0  0  0
    3.3950    3.2421    2.0111 H   0  0  0  0  0  0  0  0  0  0  0  0
    2.2595   -2.8340   -1.9828 H   0  0  0  0  0  0  0  0  0  0  0  0
    2.4331   -3.4231   -0.3128 H   0  0  0  0  0  0  0  0  0  0  0  0
    4.7006   -2.9393   -0.3846 H   0  0  0  0  0  0  0  0  0  0  0  0
    4.5220   -2.3319   -2.0493 H   0  0  0  0  0  0  0  0  0  0  0  0
    4.2853    0.9409    2.4287 H   0  0  0  0  0  0  0  0  0  0  0  0
    4.7631   -1.3302    1.5568 H   0  0  0  0  0  0  0  0  0  0  0  0
    4.3456    0.1373   -2.4929 H   0  0  0  0  0  0  0  0  0  0  0  0
    3.8758    2.4106   -1.6216 H   0  0  0  0  0  0  0  0  0  0  0  0
  1  6  1  6  0  0  0
  1  7  1  0  0  0  0
  1  2  1  0  0  0  0
  2 17  1  0  0  0  0
  3  2  1  0  0  0  0
  3 18  1  0  0  0  0
  4  5  1  1  0  0  0
  4  3  1  0  0  0  0
  5  6  2  0  0  0  0
  7 21  1  0  0  0  0
  8  7  1  0  0  0  0
  8 24  1  0  0  0  0
  9  4  1  0  0  0  0
  9 26  1  0  0  0  0
 10  9  1  0  0  0  0
 10 14  1  0  0  0  0
 10 27  1  0  0  0  0
 11  8  1  0  0  0  0
 11 12  1  0  0  0  0
 12 29  1  0  0  0  0
 13 12  2  0  0  0  0
 13 30  1  0  0  0  0
 14 13  1  0  0  0  0
 15 16  1  0  0  0  0
 15 14  2  0  0  0  0
 16 11  2  0  0  0  0
 19  5  1  0  0  0  0
 20  6  1  0  0  0  0
 22  7  1  0  0  0  0
 23  8  1  0  0  0  0
 25  9  1  0  0  0  0
 28 10  1  0  0  0  0
 31 15  1  0  0  0  0
 32 16  1  0  0  0  0
M  END
