15
 OpenBabel05122313113D

 30 29  0  0  0  0  0  0  0  0999 V2000
    1.3098    2.0186    0.1515 S   0  0  0  0  0  0  0  0  0  0  0  0
    0.8225   -1.4903   -0.4451 S   0  0  0  0  0  1  0  0  0  0  0  0
    4.8799    0.6517   -0.6885 O   0  0  0  0  0  0  0  0  0  0  0  0
    3.9572    2.6273   -0.0703 O   0  0  0  0  0  0  0  0  0  0  0  0
    3.6893   -1.8107   -2.0518 O   0  0  0  0  0  0  0  0  0  0  0  0
    4.0560   -1.9139    0.1933 O   0  0  0  0  0  0  0  0  0  0  0  0
   -1.3825    3.0126    1.0063 O   0  0  0  0  0  0  0  0  0  0  0  0
   -2.3498    2.1504   -0.8537 O   0  0  0  0  0  0  0  0  0  0  0  0
    2.4986    0.7946   -0.3122 C   0  0  0  0  0  0  0  0  0  0  0  0
    3.8896    1.3054   -0.3879 C   0  0  0  0  0  0  0  0  0  0  0  0
    5.2631    3.2030   -0.1165 C   0  0  0  0  0  0  0  0  0  0  0  0
    2.2749   -0.5496   -0.5396 C   0  0  0  0  0  0  0  0  0  0  0  0
    3.4331   -1.4570   -0.9198 C   0  0  0  0  0  0  0  0  0  0  0  0
    5.2279   -2.6935   -0.0610 C   0  0  0  0  0  0  0  0  0  0  0  0
   -0.2636    1.2484   -0.2451 C   0  0  0  0  0  3  0  0  0  0  0  0
   -1.3481    2.2345    0.0618 C   0  0  0  0  0  0  0  0  0  0  0  0
   -3.5192    2.9411   -0.5742 C   0  0  0  0  0  0  0  0  0  0  0  0
   -4.5383    2.6703   -1.6617 C   0  0  0  0  0  0  0  0  0  0  0  0
    5.9467    2.6963    0.5953 H   0  0  0  0  0  0  0  0  0  0  0  0
    5.6990    3.1148   -1.1325 H   0  0  0  0  0  0  0  0  0  0  0  0
    5.1390    4.2657    0.1587 H   0  0  0  0  0  0  0  0  0  0  0  0
    5.0026   -3.5522   -0.7253 H   0  0  0  0  0  0  0  0  0  0  0  0
    5.5846   -3.0465    0.9235 H   0  0  0  0  0  0  0  0  0  0  0  0
    6.0001   -2.0623   -0.5466 H   0  0  0  0  0  0  0  0  0  0  0  0
   -0.2980    0.9388   -1.3031 H   0  0  0  0  0  0  0  0  0  0  0  0
   -3.2279    4.0117   -0.5245 H   0  0  0  0  0  0  0  0  0  0  0  0
   -3.9040    2.6696    0.4325 H   0  0  0  0  0  0  0  0  0  0  0  0
   -4.8268    1.6009   -1.6620 H   0  0  0  0  0  0  0  0  0  0  0  0
   -5.4473    3.2817   -1.4947 H   0  0  0  0  0  0  0  0  0  0  0  0
   -4.1296    2.9254   -2.6599 H   0  0  0  0  0  0  0  0  0  0  0  0
  3 10  2  0  0  0  0
  5 13  2  0  0  0  0
  8 17  1  0  0  0  0
  8 16  1  0  0  0  0
  9  1  1  0  0  0  0
 10  9  1  0  0  0  0
 10  4  1  0  0  0  0
 11  4  1  0  0  0  0
 11 21  1  0  0  0  0
 11 19  1  0  0  0  0
 12  2  1  0  0  0  0
 12  9  2  0  0  0  0
 13 12  1  0  0  0  0
 13  6  1  0  0  0  0
 14  6  1  0  0  0  0
 14 23  1  0  0  0  0
 15 16  1  0  0  0  0
 15  1  1  0  0  0  0
 16  7  2  0  0  0  0
 17 26  1  0  0  0  0
 17 27  1  0  0  0  0
 18 29  1  0  0  0  0
 18 17  1  0  0  0  0
 20 11  1  0  0  0  0
 22 14  1  0  0  0  0
 24 14  1  0  0  0  0
 25 15  1  0  0  0  0
 28 18  1  0  0  0  0
 30 18  1  0  0  0  0
M  END
