4
 OpenBabel05122313113D

 35 36  0  0  0  0  0  0  0  0999 V2000
    0.9535   -3.1567   -2.3731 C   0  0  0  0  0  0  0  0  0  0  0  0
    1.5555   -1.8331   -1.9511 C   0  0  0  0  0  0  0  0  0  0  0  0
    0.4802   -0.9167   -1.6490 O   0  0  0  0  0  0  0  0  0  0  0  0
    0.6400    0.1636   -0.8985 C   0  0  0  0  0  2  0  0  0  0  0  0
   -0.6278    0.8755   -0.7570 C   0  0  0  0  0  0  0  0  0  0  0  0
   -1.9054    0.3848   -0.6985 C   0  0  0  0  0  0  0  0  0  0  0  0
   -3.0935    1.1930   -0.3812 C   0  0  0  0  0  0  0  0  0  0  0  0
   -2.9860    2.4471    0.2689 C   0  0  0  0  0  0  0  0  0  0  0  0
   -4.1286    3.2058    0.5408 C   0  0  0  0  0  0  0  0  0  0  0  0
   -5.3999    2.7293    0.1771 C   0  0  0  0  0  0  0  0  0  0  0  0
   -5.5206    1.4802   -0.4523 C   0  0  0  0  0  0  0  0  0  0  0  0
   -4.3811    0.7144   -0.7246 C   0  0  0  0  0  0  0  0  0  0  0  0
   -2.1982   -0.9503   -0.9422 O   0  0  0  0  0  0  0  0  0  0  0  0
   -1.8380   -1.8965   -0.0474 C   0  0  0  0  0  0  0  0  0  0  0  0
   -1.1672   -1.7701    1.1317 C   0  0  0  0  0  0  0  0  0  0  0  0
   -0.9975   -3.1064    1.7306 C   0  0  0  0  0  0  0  0  0  0  0  0
   -0.4510   -3.3858    2.7862 O   0  0  0  0  0  0  0  0  0  0  0  0
   -1.6323   -4.1331    0.7602 C   0  0  0  0  0  0  0  0  0  0  0  0
   -2.2467   -3.3054   -0.3804 C   0  0  0  0  0  0  0  0  0  0  0  0
    1.7600   -3.8377   -2.7086 H   0  0  0  0  0  0  0  0  0  0  0  0
    0.2398   -3.0244   -3.2099 H   0  0  0  0  0  0  0  0  0  0  0  0
    0.4275   -3.6412   -1.5279 H   0  0  0  0  0  0  0  0  0  0  0  0
    2.2044   -1.9416   -1.0627 H   0  0  0  0  0  0  0  0  0  0  0  0
    2.1555   -1.3764   -2.7645 H   0  0  0  0  0  0  0  0  0  0  0  0
   -0.5379    1.9507   -0.5572 H   0  0  0  0  0  0  0  0  0  0  0  0
   -2.0040    2.8097    0.6051 H   0  0  0  0  0  0  0  0  0  0  0  0
   -4.0279    4.1718    1.0577 H   0  0  0  0  0  0  0  0  0  0  0  0
   -6.2970    3.3278    0.3958 H   0  0  0  0  0  0  0  0  0  0  0  0
   -6.5132    1.0984   -0.7349 H   0  0  0  0  0  0  0  0  0  0  0  0
   -4.4722   -0.2605   -1.2228 H   0  0  0  0  0  0  0  0  0  0  0  0
   -0.7950   -0.8486    1.5936 H   0  0  0  0  0  0  0  0  0  0  0  0
   -0.8372   -4.8242    0.4114 H   0  0  0  0  0  0  0  0  0  0  0  0
   -2.3679   -4.7531    1.3094 H   0  0  0  0  0  0  0  0  0  0  0  0
   -3.3554   -3.3702   -0.4200 H   0  0  0  0  0  0  0  0  0  0  0  0
   -1.8845   -3.5821   -1.3923 H   0  0  0  0  0  0  0  0  0  0  0  0
  1  2  1  0  0  0  0
  1 22  1  0  0  0  0
  2  3  1  0  0  0  0
  2 23  1  0  0  0  0
  3  4  1  0  0  0  0
  4  5  1  0  0  0  0
  5  6  2  0  0  0  0
  5 25  1  0  0  0  0
  6  7  1  0  0  0  0
  7  8  1  0  0  0  0
  8  9  2  0  0  0  0
  8 26  1  0  0  0  0
  9 27  1  0  0  0  0
 10 28  1  0  0  0  0
 10  9  1  0  0  0  0
 11 10  2  0  0  0  0
 12 11  1  0  0  0  0
 12  7  2  0  0  0  0
 13  6  1  0  0  0  0
 13 14  1  0  0  0  0
 14 15  2  0  0  0  0
 15 31  1  0  0  0  0
 15 16  1  0  0  0  0
 16 17  2  0  0  0  0
 18 33  1  0  0  0  0
 18 16  1  0  0  0  0
 19 14  1  0  0  0  0
 19 18  1  0  0  0  0
 20  1  1  0  0  0  0
 21  1  1  0  0  0  0
 24  2  1  0  0  0  0
 29 11  1  0  0  0  0
 30 12  1  0  0  0  0
 32 18  1  0  0  0  0
 34 19  1  0  0  0  0
 35 19  1  0  0  0  0
M  END
