5
 OpenBabel05122313113D

 22 23  0  0  0  0  0  0  0  0999 V2000
   -0.8739   -1.4573   -1.0204 C   0  0  0  0  0  0  0  0  0  0  0  0
    0.1203   -0.9363   -1.9477 C   0  0  0  0  0  0  0  0  0  0  0  0
    1.2325   -1.8195   -1.9642 C   0  0  0  0  0  0  0  0  0  0  0  0
    0.9799   -2.8795   -1.0262 C   0  0  0  0  0  0  0  0  0  0  0  0
   -0.2945   -2.6611   -0.4390 C   0  0  0  0  0  3  0  0  0  0  0  0
   -2.0873   -0.7861   -0.5855 C   0  0  0  0  0  0  0  0  0  0  0  0
   -2.8051   -1.3323    0.5256 C   0  0  0  0  0  3  0  0  0  0  0  0
   -3.9472   -0.8830    1.1757 C   0  0  0  0  0  0  0  0  0  0  0  0
   -4.7517    0.2590    0.9217 C   0  0  0  0  0  0  0  0  0  0  0  0
   -4.6002    1.1897   -0.0975 C   0  0  0  0  0  0  0  0  0  0  0  0
   -3.6061    1.2091   -1.1107 C   0  0  0  0  0  0  0  0  0  0  0  0
   -2.5250    0.3630   -1.3200 C   0  0  0  0  0  0  0  0  0  0  0  0
    0.0251   -0.0287   -2.5532 H   0  0  0  0  0  0  0  0  0  0  0  0
    2.1346   -1.7028   -2.5758 H   0  0  0  0  0  0  0  0  0  0  0  0
    1.6501   -3.7181   -0.8038 H   0  0  0  0  0  0  0  0  0  0  0  0
   -0.7649   -3.3291    0.2910 H   0  0  0  0  0  0  0  0  0  0  0  0
   -2.3750   -2.2482    0.9562 H   0  0  0  0  0  0  0  0  0  0  0  0
   -4.2726   -1.5046    2.0255 H   0  0  0  0  0  0  0  0  0  0  0  0
   -5.6008    0.4100    1.6072 H   0  0  0  0  0  0  0  0  0  0  0  0
   -5.3454    2.0000   -0.1403 H   0  0  0  0  0  0  0  0  0  0  0  0
   -3.7076    2.0230   -1.8471 H   0  0  0  0  0  0  0  0  0  0  0  0
   -1.9159    0.6136   -2.1983 H   0  0  0  0  0  0  0  0  0  0  0  0
  1  6  1  0  0  0  0
  1  5  1  0  0  0  0
  2  1  2  0  0  0  0
  3  2  1  0  0  0  0
  3  4  2  0  0  0  0
  4 15  1  0  0  0  0
  4  5  1  0  0  0  0
  5 16  1  0  0  0  0
  6  7  1  0  0  0  0
  7 17  1  0  0  0  0
  7  8  1  0  0  0  0
  8 18  1  0  0  0  0
  9  8  2  0  0  0  0
  9 19  1  0  0  0  0
 10  9  1  0  0  0  0
 11 10  2  0  0  0  0
 12 11  1  0  0  0  0
 12  6  2  0  0  0  0
 13  2  1  0  0  0  0
 14  3  1  0  0  0  0
 20 10  1  0  0  0  0
 21 11  1  0  0  0  0
 22 12  1  0  0  0  0
M  END
