15
 OpenBabel05122313113D

 28 30  0  0  0  0  0  0  0  0999 V2000
   -2.5593   -1.3412    1.3274 C   0  0  0  0  0  0  0  0  0  0  0  0
   -2.9014   -0.7305    2.1763 H   0  0  0  0  0  0  0  0  0  0  0  0
   -3.4904   -1.9572    0.4906 C   0  0  0  0  0  0  0  0  0  0  0  0
   -3.0330   -2.7704   -0.5923 C   0  0  0  0  0  0  0  0  0  0  0  0
   -3.7812   -3.2470   -1.2446 H   0  0  0  0  0  0  0  0  0  0  0  0
   -1.6821   -2.9676   -0.8462 C   0  0  0  0  0  0  0  0  0  0  0  0
   -1.3562   -3.5889   -1.6934 H   0  0  0  0  0  0  0  0  0  0  0  0
    1.6762   -2.9705   -0.8461 C   0  0  0  0  0  0  0  0  0  0  0  0
    1.3493   -3.5913   -1.6931 H   0  0  0  0  0  0  0  0  0  0  0  0
    3.0274   -2.7754   -0.5923 C   0  0  0  0  0  0  0  0  0  0  0  0
    3.7749   -3.2532   -1.2444 H   0  0  0  0  0  0  0  0  0  0  0  0
    3.4861   -1.9626    0.4905 C   0  0  0  0  0  0  0  0  0  0  0  0
    2.5561   -1.3449    1.3271 C   0  0  0  0  0  0  0  0  0  0  0  0
    2.8991   -0.7347    2.1759 H   0  0  0  0  0  0  0  0  0  0  0  0
   -0.0014   -0.9619    1.7434 C   0  0  0  0  0  3  0  0  0  0  0  0
   -0.0011   -0.4417    2.7059 H   0  0  0  0  0  0  0  0  0  0  0  0
   -1.1671   -1.5199    1.0964 C   0  0  0  0  0  0  0  0  0  0  0  0
   -0.7276   -2.3368   -0.0156 C   0  0  0  0  0  0  0  0  0  0  0  0
    0.7228   -2.3380   -0.0156 C   0  0  0  0  0  0  0  0  0  0  0  0
    1.1635   -1.5217    1.0964 C   0  0  0  0  0  0  0  0  0  0  0  0
   -4.9700   -1.7547    0.6892 C   0  0  0  0  0  0  0  0  0  0  0  0
   -5.1891   -1.2086    1.6270 H   0  0  0  0  0  0  0  0  0  0  0  0
   -5.3990   -1.1697   -0.1523 H   0  0  0  0  0  0  0  0  0  0  0  0
   -5.5140   -2.7215    0.7171 H   0  0  0  0  0  0  0  0  0  0  0  0
    4.9660   -1.7625    0.6891 C   0  0  0  0  0  0  0  0  0  0  0  0
    5.1859   -1.2156    1.6263 H   0  0  0  0  0  0  0  0  0  0  0  0
    5.5083   -2.7302    0.7183 H   0  0  0  0  0  0  0  0  0  0  0  0
    5.3964   -1.1794   -0.1531 H   0  0  0  0  0  0  0  0  0  0  0  0
  1  2  1  0  0  0  0
  3 21  1  0  0  0  0
  3  1  2  0  0  0  0
  4  3  1  0  0  0  0
  5  4  1  0  0  0  0
  6  4  2  0  0  0  0
  6 18  1  0  0  0  0
  7  6  1  0  0  0  0
  8 10  2  0  0  0  0
  8 19  1  0  0  0  0
  9  8  1  0  0  0  0
 10 12  1  0  0  0  0
 11 10  1  0  0  0  0
 12 25  1  0  0  0  0
 12 13  2  0  0  0  0
 13 14  1  0  0  0  0
 15 16  1  0  0  0  0
 17  1  1  0  0  0  0
 17 15  1  0  0  0  0
 18 19  1  0  0  0  0
 18 17  2  0  0  0  0
 19 20  2  0  0  0  0
 20 13  1  0  0  0  0
 20 15  1  0  0  0  0
 21 24  1  0  0  0  0
 21 22  1  0  0  0  0
 23 21  1  0  0  0  0
 25 27  1  0  0  0  0
 25 26  1  0  0  0  0
 28 25  1  0  0  0  0
M  END
