3
 OpenBabel05122313113D

 12 11  0  0  0  0  0  0  0  0999 V2000
    0.5575    0.8960   -2.0165 C   0  0  0  0  0  3  0  0  0  0  0  0
    1.2176   -0.2698   -1.5266 C   0  0  0  0  0  3  0  0  0  0  0  0
    1.7856   -0.2184   -0.2255 C   0  0  0  0  0  3  0  0  0  0  0  0
    2.9338   -0.4271    0.4340 C   0  0  0  0  0  0  0  0  0  0  0  0
    4.2603   -0.6860   -0.2247 C   0  0  0  0  0  0  0  0  0  0  0  0
    1.0046    1.8849   -1.8404 H   0  0  0  0  0  0  0  0  0  0  0  0
   -0.0527    0.8071   -2.9300 H   0  0  0  0  0  0  0  0  0  0  0  0
    1.1235   -1.2312   -2.0656 H   0  0  0  0  0  0  0  0  0  0  0  0
    2.9258   -0.3827    1.5379 H   0  0  0  0  0  0  0  0  0  0  0  0
    4.6884   -1.6592    0.1010 H   0  0  0  0  0  0  0  0  0  0  0  0
    4.1752   -0.6960   -1.3290 H   0  0  0  0  0  0  0  0  0  0  0  0
    5.0056    0.0894    0.0571 H   0  0  0  0  0  0  0  0  0  0  0  0
  1  6  1  0  0  0  0
  1  2  1  0  0  0  0
  2  3  1  0  0  0  0
  3  4  2  0  0  0  0
  4  9  1  0  0  0  0
  5 12  1  0  0  0  0
  5 10  1  0  0  0  0
  5  4  1  0  0  0  0
  7  1  1  0  0  0  0
  8  2  1  0  0  0  0
 11  5  1  0  0  0  0
M  END
