3
 OpenBabel05122313113D

 18 19  0  0  0  0  0  0  0  0999 V2000
   -1.0740    1.4175   -0.3837 N   0  0  0  0  0  0  0  0  0  0  0  0
   -1.4598    2.7011   -0.6394 N   0  0  0  0  0  0  0  0  0  0  0  0
    0.2984    1.2608   -0.2791 C   0  0  0  0  0  3  0  0  0  0  0  0
    0.8101    2.5496   -0.4996 C   0  0  0  0  0  0  0  0  0  0  0  0
   -0.3144    3.3851   -0.7150 C   0  0  0  0  0  0  0  0  0  0  0  0
   -2.0948    0.4362   -0.2582 C   0  0  0  0  0  0  0  0  0  0  0  0
   -2.0820   -0.7152   -1.0640 C   0  0  0  0  0  0  0  0  0  0  0  0
   -3.0769   -1.6904   -0.9055 C   0  0  0  0  0  0  0  0  0  0  0  0
   -4.0992   -1.5075    0.0387 C   0  0  0  0  0  0  0  0  0  0  0  0
   -4.1305   -0.3361    0.8139 C   0  0  0  0  0  0  0  0  0  0  0  0
   -3.1326    0.6361    0.6691 C   0  0  0  0  0  0  0  0  0  0  0  0
    1.8656    2.8422   -0.4683 H   0  0  0  0  0  0  0  0  0  0  0  0
   -0.3425    4.4631   -0.9238 H   0  0  0  0  0  0  0  0  0  0  0  0
   -1.2998   -0.8229   -1.8262 H   0  0  0  0  0  0  0  0  0  0  0  0
   -3.0636   -2.5919   -1.5371 H   0  0  0  0  0  0  0  0  0  0  0  0
   -4.8798   -2.2730    0.1627 H   0  0  0  0  0  0  0  0  0  0  0  0
   -4.9371   -0.1821    1.5465 H   0  0  0  0  0  0  0  0  0  0  0  0
   -3.1352    1.5585    1.2661 H   0  0  0  0  0  0  0  0  0  0  0  0
  1  3  1  0  0  0  0
  1  6  1  0  0  0  0
  2  1  1  0  0  0  0
  4 12  1  0  0  0  0
  4  3  2  0  0  0  0
  5  2  2  0  0  0  0
  5  4  1  0  0  0  0
  6 11  1  0  0  0  0
  7  8  1  0  0  0  0
  7  6  2  0  0  0  0
  8  9  2  0  0  0  0
  9 16  1  0  0  0  0
  9 10  1  0  0  0  0
 10 17  1  0  0  0  0
 11 10  2  0  0  0  0
 11 18  1  0  0  0  0
 13  5  1  0  0  0  0
 14  7  1  0  0  0  0
 15  8  1  0  0  0  0
M  END
