16
 OpenBabel05122313113D

 46 50  0  0  1  0  0  0  0  0999 V2000
    0.9232    2.2120    0.0085 N   0  0  0  0  0  0  0  0  0  0  0  0
    0.0921    3.3136   -0.0174 N   0  0  0  0  0  0  0  0  0  0  0  0
   -1.0358    1.4394    0.3736 N   0  0  0  0  0  0  0  0  0  0  0  0
   -3.4210    2.6217   -0.1511 O   0  0  0  0  0  0  0  0  0  0  0  0
    2.8037    3.4188   -0.9755 C   0  0  0  0  0  0  0  0  0  0  0  0
    2.0817    4.0396   -1.5228 H   0  0  0  0  0  0  0  0  0  0  0  0
    4.1858    3.6091   -1.1100 C   0  0  0  0  0  0  0  0  0  0  0  0
    4.5611    4.3929   -1.7850 H   0  0  0  0  0  0  0  0  0  0  0  0
    5.0866    2.8020   -0.3959 C   0  0  0  0  0  0  0  0  0  0  0  0
    6.1707    2.9519   -0.5093 H   0  0  0  0  0  0  0  0  0  0  0  0
    4.5986    1.8116    0.4721 C   0  0  0  0  0  0  0  0  0  0  0  0
    5.2971    1.1883    1.0504 H   0  0  0  0  0  0  0  0  0  0  0  0
    3.2192    1.6167    0.6264 C   0  0  0  0  0  0  0  0  0  0  0  0
    2.8184    0.8454    1.3035 H   0  0  0  0  0  0  0  0  0  0  0  0
    2.3298    2.4112   -0.1181 C   0  0  0  0  0  0  0  0  0  0  0  0
    0.2703    1.0261    0.2295 C   0  0  0  0  0  2  0  0  0  0  0  0
   -1.0922    2.8087    0.2228 C   0  0  0  0  0  0  0  0  0  0  0  0
   -2.4171    3.4967    0.3236 C   0  0  0  0  0  0  0  0  0  0  0  0
   -2.6150    3.8034    1.3817 H   0  0  0  0  0  0  0  0  0  0  0  0
   -2.4217    4.4084   -0.3035 H   0  0  0  0  0  0  0  0  0  0  0  0
   -3.5337    1.4384    0.6339 C   0  0  2  0  0  0  0  0  0  0  0  0
   -3.9616    1.7204    1.6256 H   0  0  0  0  0  0  0  0  0  0  0  0
   -2.1817    0.6498    0.8343 C   0  0  1  0  0  0  0  0  0  0  0  0
   -1.9831    0.4568    1.9072 H   0  0  0  0  0  0  0  0  0  0  0  0
   -2.4440   -0.6963    0.1208 C   0  0  1  0  0  0  0  0  0  0  0  0
   -1.4962   -1.2137   -0.1391 H   0  0  0  0  0  0  0  0  0  0  0  0
   -3.3494   -1.4705    1.0999 C   0  0  0  0  0  0  0  0  0  0  0  0
   -3.4570   -2.5260    0.7852 H   0  0  0  0  0  0  0  0  0  0  0  0
   -2.9188   -1.4837    2.1198 H   0  0  0  0  0  0  0  0  0  0  0  0
   -4.6960   -0.6939    0.9985 C   0  0  0  0  0  0  0  0  0  0  0  0
   -5.0039   -0.2349    1.9602 H   0  0  0  0  0  0  0  0  0  0  0  0
   -5.5333   -1.3468    0.6827 H   0  0  0  0  0  0  0  0  0  0  0  0
   -4.4328    0.3976   -0.0813 C   0  0  2  0  0  0  0  0  0  0  0  0
   -3.4178   -0.3426   -1.0408 C   0  0  0  0  0  0  0  0  0  0  0  0
   -2.8045    0.5150   -2.1592 C   0  0  0  0  0  0  0  0  0  0  0  0
   -2.0838   -0.0945   -2.7421 H   0  0  0  0  0  0  0  0  0  0  0  0
   -2.2821    1.4166   -1.8036 H   0  0  0  0  0  0  0  0  0  0  0  0
   -3.5933    0.8522   -2.8624 H   0  0  0  0  0  0  0  0  0  0  0  0
   -4.0198   -1.5815   -1.7272 C   0  0  0  0  0  0  0  0  0  0  0  0
   -3.2117   -2.1829   -2.1931 H   0  0  0  0  0  0  0  0  0  0  0  0
   -4.7097   -1.2757   -2.5399 H   0  0  0  0  0  0  0  0  0  0  0  0
   -4.5825   -2.2483   -1.0486 H   0  0  0  0  0  0  0  0  0  0  0  0
   -5.6883    0.9933   -0.6966 C   0  0  0  0  0  0  0  0  0  0  0  0
   -6.3410    1.4381    0.0830 H   0  0  0  0  0  0  0  0  0  0  0  0
   -6.2767    0.2119   -1.2186 H   0  0  0  0  0  0  0  0  0  0  0  0
   -5.4414    1.7927   -1.4212 H   0  0  0  0  0  0  0  0  0  0  0  0
  1 16  1  0  0  0  0
  2  1  1  0  0  0  0
  2 17  2  0  0  0  0
  3 23  1  0  0  0  0
  4 18  1  0  0  0  0
  4 21  1  0  0  0  0
  5 15  1  0  0  0  0
  6  5  1  0  0  0  0
  7  5  2  0  0  0  0
  7  9  1  0  0  0  0
  8  7  1  0  0  0  0
  9 11  2  0  0  0  0
 10  9  1  0  0  0  0
 11 13  1  0  0  0  0
 11 12  1  0  0  0  0
 13 14  1  0  0  0  0
 15  1  1  0  0  0  0
 15 13  2  0  0  0  0
 16  3  1  0  0  0  0
 17 18  1  0  0  0  0
 17  3  1  0  0  0  0
 18 19  1  0  0  0  0
 20 18  1  0  0  0  0
 21 23  1  0  0  0  0
 21 22  1  1  0  0  0
 23 24  1  1  0  0  0
 25 26  1  6  0  0  0
 25 23  1  0  0  0  0
 25 27  1  0  0  0  0
 27 29  1  0  0  0  0
 28 27  1  0  0  0  0
 30 27  1  0  0  0  0
 30 31  1  0  0  0  0
 32 30  1  0  0  0  0
 33 43  1  6  0  0  0
 33 21  1  0  0  0  0
 33 30  1  0  0  0  0
 34 33  1  0  0  0  0
 34 25  1  0  0  0  0
 35 37  1  0  0  0  0
 35 34  1  0  0  0  0
 36 35  1  0  0  0  0
 38 35  1  0  0  0  0
 39 42  1  0  0  0  0
 39 34  1  0  0  0  0
 40 39  1  0  0  0  0
 41 39  1  0  0  0  0
 43 44  1  0  0  0  0
 45 43  1  0  0  0  0
 46 43  1  0  0  0  0
M  END
