1
 OpenBabel05122313113D

 11 10  0  0  0  0  0  0  0  0999 V2000
    3.6714   -0.5367    0.0116 C   0  0  0  0  0  3  0  0  0  0  0  0
    4.5145    0.5248   -0.0008 C   0  0  0  0  0  0  0  0  0  0  0  0
    5.6061    0.3137   -0.0027 H   0  0  0  0  0  0  0  0  0  0  0  0
    4.2110   -1.9484    0.0229 C   0  0  0  0  0  0  0  0  0  0  0  0
    5.3241   -1.9712    0.0207 H   0  0  0  0  0  0  0  0  0  0  0  0
    3.8583   -2.5269   -0.8585 H   0  0  0  0  0  0  0  0  0  0  0  0
    3.8618   -2.5115    0.9155 H   0  0  0  0  0  0  0  0  0  0  0  0
    4.1495    1.9814   -0.0136 C   0  0  0  0  0  0  0  0  0  0  0  0
    3.0484    2.1200   -0.0030 H   0  0  0  0  0  0  0  0  0  0  0  0
    4.5544    2.4974   -0.9127 H   0  0  0  0  0  0  0  0  0  0  0  0
    4.5708    2.5172    0.8660 H   0  0  0  0  0  0  0  0  0  0  0  0
  1  4  1  0  0  0  0
  2  1  2  0  0  0  0
  3  2  1  0  0  0  0
  4  7  1  0  0  0  0
  5  4  1  0  0  0  0
  6  4  1  0  0  0  0
  8  9  1  0  0  0  0
  8  2  1  0  0  0  0
  8 11  1  0  0  0  0
 10  8  1  0  0  0  0
M  END
