3
 OpenBabel05122313113D

 42 43  0  0  0  0  0  0  0  0999 V2000
   -2.7672    4.8458   -0.8050 C   0  0  0  0  0  0  0  0  0  0  0  0
   -3.5673    5.5700   -1.0225 H   0  0  0  0  0  0  0  0  0  0  0  0
   -0.6845    2.9805   -0.2372 C   0  0  0  0  0  3  0  0  0  0  0  0
   -1.4296    5.2735   -0.7152 C   0  0  0  0  0  0  0  0  0  0  0  0
   -1.1825    6.3372   -0.8618 H   0  0  0  0  0  0  0  0  0  0  0  0
   -0.4062    4.3506   -0.4440 C   0  0  0  0  0  0  0  0  0  0  0  0
    0.6333    4.7104   -0.3938 H   0  0  0  0  0  0  0  0  0  0  0  0
   -2.9138   -1.1970   -2.5306 C   0  0  0  0  0  0  0  0  0  0  0  0
   -3.2528   -0.1433   -2.6365 H   0  0  0  0  0  0  0  0  0  0  0  0
   -5.7571    0.6318    1.8668 C   0  0  0  0  0  0  0  0  0  0  0  0
   -5.6697    1.1028    0.8680 H   0  0  0  0  0  0  0  0  0  0  0  0
   -5.9328    1.4316    2.6155 H   0  0  0  0  0  0  0  0  0  0  0  0
   -6.6443   -0.0350    1.8573 H   0  0  0  0  0  0  0  0  0  0  0  0
   -3.5097    0.6056   -0.3939 N   0  0  0  0  0  0  0  0  0  0  0  0
   -2.0479    2.5668   -0.3219 C   0  0  0  0  0  0  0  0  0  0  0  0
   -2.3785    1.1501   -0.1109 C   0  0  0  0  0  0  0  0  0  0  0  0
   -1.5427    0.5408    0.3118 H   0  0  0  0  0  0  0  0  0  0  0  0
   -3.7090   -0.7656   -0.1513 C   0  0  0  0  0  0  0  0  0  0  0  0
   -4.2066   -1.1980    1.1133 C   0  0  0  0  0  0  0  0  0  0  0  0
   -4.2546   -3.4930    0.2570 C   0  0  0  0  0  0  0  0  0  0  0  0
   -4.4731   -4.5600    0.4170 H   0  0  0  0  0  0  0  0  0  0  0  0
   -4.4858   -0.1705    2.2053 C   0  0  0  0  0  0  0  0  0  0  0  0
   -3.6383    0.5489    2.2006 H   0  0  0  0  0  0  0  0  0  0  0  0
   -3.7617   -3.0513   -0.9776 C   0  0  0  0  0  0  0  0  0  0  0  0
   -3.5880   -3.7794   -1.7839 H   0  0  0  0  0  0  0  0  0  0  0  0
   -3.0729    3.4959   -0.6143 C   0  0  0  0  0  0  0  0  0  0  0  0
   -4.1080    3.1266   -0.6815 H   0  0  0  0  0  0  0  0  0  0  0  0
   -3.4819   -1.6924   -1.2064 C   0  0  0  0  0  0  0  0  0  0  0  0
   -3.4273   -1.9801   -3.7462 C   0  0  0  0  0  0  0  0  0  0  0  0
   -3.0372   -3.0193   -3.7644 H   0  0  0  0  0  0  0  0  0  0  0  0
   -3.0938   -1.4945   -4.6857 H   0  0  0  0  0  0  0  0  0  0  0  0
   -4.5343   -2.0329   -3.7600 H   0  0  0  0  0  0  0  0  0  0  0  0
   -4.4715   -2.5685    1.2897 C   0  0  0  0  0  0  0  0  0  0  0  0
   -4.8586   -2.9222    2.2563 H   0  0  0  0  0  0  0  0  0  0  0  0
   -1.3722   -1.1858   -2.5023 C   0  0  0  0  0  0  0  0  0  0  0  0
   -0.9772   -0.5372   -1.6956 H   0  0  0  0  0  0  0  0  0  0  0  0
   -0.9631   -0.8157   -3.4660 H   0  0  0  0  0  0  0  0  0  0  0  0
   -0.9736   -2.2064   -2.3263 H   0  0  0  0  0  0  0  0  0  0  0  0
   -4.5666   -0.7632    3.6158 C   0  0  0  0  0  0  0  0  0  0  0  0
   -5.4517   -1.4218    3.7375 H   0  0  0  0  0  0  0  0  0  0  0  0
   -4.6607    0.0474    4.3662 H   0  0  0  0  0  0  0  0  0  0  0  0
   -3.6646   -1.3577    3.8671 H   0  0  0  0  0  0  0  0  0  0  0  0
  1  4  2  0  0  0  0
  1 26  1  0  0  0  0
  2  1  1  0  0  0  0
  4  6  1  0  0  0  0
  5  4  1  0  0  0  0
  6  7  1  0  0  0  0
  6  3  2  0  0  0  0
  8 35  1  0  0  0  0
  8 28  1  0  0  0  0
  9  8  1  0  0  0  0
 10 22  1  0  0  0  0
 10 12  1  0  0  0  0
 11 10  1  0  0  0  0
 13 10  1  0  0  0  0
 14 18  1  0  0  0  0
 14 16  2  0  0  0  0
 15  3  1  0  0  0  0
 15 16  1  0  0  0  0
 16 17  1  0  0  0  0
 18 19  1  0  0  0  0
 19 33  2  0  0  0  0
 19 22  1  0  0  0  0
 20 21  1  0  0  0  0
 20 33  1  0  0  0  0
 22 39  1  0  0  0  0
 23 22  1  0  0  0  0
 24 20  2  0  0  0  0
 25 24  1  0  0  0  0
 26 15  2  0  0  0  0
 27 26  1  0  0  0  0
 28 24  1  0  0  0  0
 28 18  2  0  0  0  0
 29  8  1  0  0  0  0
 30 29  1  0  0  0  0
 31 29  1  0  0  0  0
 32 29  1  0  0  0  0
 33 34  1  0  0  0  0
 35 38  1  0  0  0  0
 35 36  1  0  0  0  0
 37 35  1  0  0  0  0
 39 40  1  0  0  0  0
 39 42  1  0  0  0  0
 39 41  1  0  0  0  0
M  END
