4
 OpenBabel05122313113D

 33 32  0  0  0  0  0  0  0  0999 V2000
    1.6918   -0.9581    0.7406 C   0  0  0  0  0  3  0  0  0  0  0  0
    1.7505   -0.1960   -0.4865 C   0  0  0  0  0  0  0  0  0  0  0  0
    1.2638    1.1506   -0.4459 C   0  0  0  0  0  0  0  0  0  0  0  0
    0.5773    1.5518    0.7575 C   0  0  0  0  0  2  0  0  0  0  0  0
    2.0695   -2.4196    0.8321 C   0  0  0  0  0  0  0  0  0  0  0  0
    3.5846   -2.6441    0.9504 C   0  0  0  0  0  0  0  0  0  0  0  0
    2.2081   -0.8158   -1.7896 C   0  0  0  0  0  0  0  0  0  0  0  0
    3.6566   -0.4482   -2.1582 C   0  0  0  0  0  0  0  0  0  0  0  0
    1.4674    2.1395   -1.5809 C   0  0  0  0  0  0  0  0  0  0  0  0
    2.7141    3.0192   -1.3811 C   0  0  0  0  0  0  0  0  0  0  0  0
    0.7562    2.8215    1.5127 C   0  0  0  0  0  0  0  0  0  0  0  0
    2.0913    2.8659    2.2815 C   0  0  0  0  0  0  0  0  0  0  0  0
    1.9807   -0.3829    1.6380 H   0  0  0  0  0  0  0  0  0  0  0  0
    1.5790   -2.8538    1.7284 H   0  0  0  0  0  0  0  0  0  0  0  0
    1.6536   -2.9831   -0.0256 H   0  0  0  0  0  0  0  0  0  0  0  0
    3.8083   -3.7192    1.0963 H   0  0  0  0  0  0  0  0  0  0  0  0
    4.0134   -2.0919    1.8116 H   0  0  0  0  0  0  0  0  0  0  0  0
    4.1226   -2.3131    0.0407 H   0  0  0  0  0  0  0  0  0  0  0  0
    1.5227   -0.5240   -2.6105 H   0  0  0  0  0  0  0  0  0  0  0  0
    2.1191   -1.9140   -1.7087 H   0  0  0  0  0  0  0  0  0  0  0  0
    3.9807   -1.0382   -3.0374 H   0  0  0  0  0  0  0  0  0  0  0  0
    4.3584   -0.6660   -1.3295 H   0  0  0  0  0  0  0  0  0  0  0  0
    3.7689    0.6216   -2.4173 H   0  0  0  0  0  0  0  0  0  0  0  0
    0.5774    2.7959   -1.6693 H   0  0  0  0  0  0  0  0  0  0  0  0
    1.5549    1.5945   -2.5414 H   0  0  0  0  0  0  0  0  0  0  0  0
    2.8857    3.6446   -2.2790 H   0  0  0  0  0  0  0  0  0  0  0  0
    3.6221    2.4084   -1.2139 H   0  0  0  0  0  0  0  0  0  0  0  0
    2.6069    3.7030   -0.5173 H   0  0  0  0  0  0  0  0  0  0  0  0
    0.7323    3.6637    0.7831 H   0  0  0  0  0  0  0  0  0  0  0  0
   -0.0895    2.9964    2.2080 H   0  0  0  0  0  0  0  0  0  0  0  0
    2.2122    3.8425    2.7890 H   0  0  0  0  0  0  0  0  0  0  0  0
    2.9546    2.7196    1.6035 H   0  0  0  0  0  0  0  0  0  0  0  0
    2.1392    2.0754    3.0568 H   0  0  0  0  0  0  0  0  0  0  0  0
  1  5  1  0  0  0  0
  1 13  1  0  0  0  0
  2  3  2  0  0  0  0
  2  1  1  0  0  0  0
  3  4  1  0  0  0  0
  4 11  1  0  0  0  0
  5  6  1  0  0  0  0
  5 14  1  0  0  0  0
  6 16  1  0  0  0  0
  6 17  1  0  0  0  0
  7 20  1  0  0  0  0
  7  2  1  0  0  0  0
  8  7  1  0  0  0  0
  8 22  1  0  0  0  0
  9 10  1  0  0  0  0
  9  3  1  0  0  0  0
 10 27  1  0  0  0  0
 10 28  1  0  0  0  0
 11 30  1  0  0  0  0
 11 12  1  0  0  0  0
 12 31  1  0  0  0  0
 12 33  1  0  0  0  0
 15  5  1  0  0  0  0
 18  6  1  0  0  0  0
 19  7  1  0  0  0  0
 21  8  1  0  0  0  0
 23  8  1  0  0  0  0
 24  9  1  0  0  0  0
 25  9  1  0  0  0  0
 26 10  1  0  0  0  0
 29 11  1  0  0  0  0
 32 12  1  0  0  0  0
M  END
