2
 OpenBabel05122313113D

 19 20  0  0  0  0  0  0  0  0999 V2000
   -0.1698    2.2374   -0.4041 P   0  0  0  0  0  0  0  0  0  0  0  0
   -0.7476    1.2356   -1.7680 C   0  0  0  0  0  3  0  0  0  0  0  0
   -1.6755    1.4445   -2.3178 H   0  0  0  0  0  0  0  0  0  0  0  0
    0.0653    0.1126   -2.0180 C   0  0  0  0  0  0  0  0  0  0  0  0
   -0.1393   -0.6384   -2.7947 H   0  0  0  0  0  0  0  0  0  0  0  0
    1.1821    0.0205   -1.1206 C   0  0  0  0  0  0  0  0  0  0  0  0
    2.2419   -1.0532   -1.1569 C   0  0  0  0  0  0  0  0  0  0  0  0
    2.5460   -1.2212   -2.2115 H   0  0  0  0  0  0  0  0  0  0  0  0
    1.7862   -2.0091   -0.8199 H   0  0  0  0  0  0  0  0  0  0  0  0
    3.4544   -0.6960   -0.2839 C   0  0  0  0  0  0  0  0  0  0  0  0
    4.0864   -1.5959   -0.1434 H   0  0  0  0  0  0  0  0  0  0  0  0
    4.0869    0.0525   -0.8105 H   0  0  0  0  0  0  0  0  0  0  0  0
    3.0194   -0.1216    1.0693 C   0  0  0  0  0  0  0  0  0  0  0  0
    3.8984    0.0486    1.7233 H   0  0  0  0  0  0  0  0  0  0  0  0
    2.3654   -0.8514    1.5940 H   0  0  0  0  0  0  0  0  0  0  0  0
    2.2477    1.1926    0.8871 C   0  0  0  0  0  0  0  0  0  0  0  0
    1.7940    1.5234    1.8440 H   0  0  0  0  0  0  0  0  0  0  0  0
    2.9464    2.0024    0.5767 H   0  0  0  0  0  0  0  0  0  0  0  0
    1.1830    1.0741   -0.1706 C   0  0  0  0  0  0  0  0  0  0  0  0
  1 19  2  0  0  0  0
  2  1  1  0  0  0  0
  3  2  1  0  0  0  0
  4  2  1  0  0  0  0
  4  6  2  0  0  0  0
  5  4  1  0  0  0  0
  6 19  1  0  0  0  0
  7  6  1  0  0  0  0
  7  9  1  0  0  0  0
  7 10  1  0  0  0  0
  8  7  1  0  0  0  0
 10 11  1  0  0  0  0
 10 13  1  0  0  0  0
 12 10  1  0  0  0  0
 13 15  1  0  0  0  0
 13 14  1  0  0  0  0
 16 13  1  0  0  0  0
 16 17  1  0  0  0  0
 18 16  1  0  0  0  0
 19 16  1  0  0  0  0
M  END
