24
 OpenBabel05122313113D

 31 33  0  0  1  0  0  0  0  0999 V2000
    4.7827   -2.6715    0.3195 O   0  0  0  0  0  0  0  0  0  0  0  0
    3.9608    2.7043   -0.3154 O   0  0  0  0  0  0  0  0  0  0  0  0
    2.0966   -1.5363   -0.3420 N   0  0  0  0  0  0  0  0  0  0  0  0
    1.2497   -0.5337   -0.6072 N   0  0  0  0  0  0  0  0  0  0  0  0
    1.7596    0.7120   -0.6068 N   0  0  0  0  0  0  0  0  0  0  0  0
   -0.0510   -0.8385   -0.8550 N   0  0  0  0  0  0  0  0  0  0  0  0
    4.5802   -1.4691    0.1771 C   0  0  0  0  0  0  0  0  0  0  0  0
    3.2591   -0.8945   -0.1518 C   0  0  0  0  0  0  0  0  0  0  0  0
    3.0497    0.4984   -0.3159 C   0  0  0  0  0  0  0  0  0  0  0  0
    4.1321    1.4965   -0.1721 C   0  0  0  0  0  0  0  0  0  0  0  0
    5.6815   -0.4469    0.3267 C   0  0  0  0  0  0  0  0  0  0  0  0
    5.4767    0.9067    0.1674 C   0  0  0  0  0  0  0  0  0  0  0  0
    7.0332   -1.0001    0.6639 C   0  0  0  0  0  0  0  0  0  0  0  0
    7.7822   -0.7259   -0.1089 H   0  0  0  0  0  0  0  0  0  0  0  0
    6.9839   -2.1014    0.7443 H   0  0  0  0  0  0  0  0  0  0  0  0
    7.4083   -0.5832    1.6224 H   0  0  0  0  0  0  0  0  0  0  0  0
    6.5948    1.8935    0.3233 C   0  0  0  0  0  0  0  0  0  0  0  0
    7.0432    1.8331    1.3375 H   0  0  0  0  0  0  0  0  0  0  0  0
    6.2224    2.9204    0.1546 H   0  0  0  0  0  0  0  0  0  0  0  0
    7.4167    1.6840   -0.3935 H   0  0  0  0  0  0  0  0  0  0  0  0
   -0.8407    0.1568   -1.1234 C   0  0  0  0  0  0  0  0  0  0  0  0
   -0.4701    1.1999   -1.1659 H   0  0  0  0  0  0  0  0  0  0  0  0
   -2.2463   -0.0937   -1.3757 C   0  0  2  0  0  3  0  0  0  0  0  0
   -3.2282    0.8947   -1.7507 C   0  0  0  0  0  3  0  0  0  0  0  0
   -3.0248    1.9596   -1.9191 H   0  0  0  0  0  0  0  0  0  0  0  0
   -4.4970    0.2502   -1.8629 C   0  0  0  0  0  3  0  0  0  0  0  0
   -5.4441    0.7255   -2.1415 H   0  0  0  0  0  0  0  0  0  0  0  0
   -4.3076   -1.1398   -1.5495 C   0  0  0  0  0  0  0  0  0  0  0  0
   -5.0946   -1.9035   -1.5292 H   0  0  0  0  0  0  0  0  0  0  0  0
   -2.9384   -1.3553   -1.2451 C   0  0  0  0  0  0  0  0  0  0  0  0
   -2.4625   -2.3000   -0.9591 H   0  0  0  0  0  0  0  0  0  0  0  0
  2 10  2  0  0  0  0
  3  8  2  0  0  0  0
  4  5  1  0  0  0  0
  4  3  1  0  0  0  0
  5  9  2  0  0  0  0
  6  4  1  0  0  0  0
  7  1  2  0  0  0  0
  7 11  1  0  0  0  0
  8  7  1  0  0  0  0
  9 10  1  0  0  0  0
  9  8  1  0  0  0  0
 10 12  1  0  0  0  0
 11 13  1  0  0  0  0
 12 17  1  0  0  0  0
 12 11  2  0  0  0  0
 13 15  1  0  0  0  0
 13 16  1  0  0  0  0
 14 13  1  0  0  0  0
 17 18  1  0  0  0  0
 19 17  1  0  0  0  0
 20 17  1  0  0  0  0
 21  6  2  0  0  0  0
 22 21  1  0  0  0  0
 23 30  1  0  0  0  0
 23 21  1  1  0  0  0
 24 23  1  0  0  0  0
 25 24  1  0  0  0  0
 26 24  1  0  0  0  0
 26 28  1  0  0  0  0
 27 26  1  0  0  0  0
 28 29  1  0  0  0  0
 28 30  2  0  0  0  0
 30 31  1  0  0  0  0
M  END
