23
 OpenBabel05122313113D

 61 66  0  0  1  0  0  0  0  0999 V2000
   -0.2510    5.1569   -0.0763 O   0  0  0  0  0  0  0  0  0  0  0  0
    1.8195    5.2061   -1.1171 O   0  0  0  0  0  0  0  0  0  0  0  0
    0.5628   -3.1426   -1.6018 O   0  0  0  0  0  0  0  0  0  0  0  0
    2.3709   -2.7020   -2.8837 O   0  0  0  0  0  0  0  0  0  0  0  0
    4.0235    0.2710    2.9270 O   0  0  0  0  0  0  0  0  0  0  0  0
    5.9534   -1.4775    2.1555 O   0  0  0  0  0  0  0  0  0  0  0  0
    6.1580   -2.2808   -0.3922 O   0  0  0  0  0  0  0  0  0  0  0  0
   -1.9223    0.2145   -1.3432 N   0  0  0  0  0  0  0  0  0  0  0  0
   -3.9295   -0.1410   -2.0672 N   0  0  0  0  0  0  0  0  0  0  0  0
   -0.7372    0.2099   -0.4595 C   0  0  2  0  0  0  0  0  0  0  0  0
    0.0633    1.4928   -0.6548 C   0  0  0  0  0  0  0  0  0  0  0  0
   -0.5542    2.6913   -0.1962 C   0  0  0  0  0  0  0  0  0  0  0  0
    0.1295    3.8783   -0.3930 C   0  0  0  0  0  0  0  0  0  0  0  0
    0.8842    5.9805   -0.3544 C   0  0  0  0  0  0  0  0  0  0  0  0
    1.3875    3.9101   -1.0254 C   0  0  0  0  0  0  0  0  0  0  0  0
    2.0054    2.7544   -1.4751 C   0  0  0  0  0  0  0  0  0  0  0  0
    1.3298    1.5176   -1.2898 C   0  0  0  0  0  0  0  0  0  0  0  0
    2.0732    0.2445   -1.6877 C   0  0  2  0  0  0  0  0  0  0  0  0
    1.0313   -0.8650   -1.8967 C   0  0  1  0  0  0  0  0  0  0  0  0
    1.4597   -2.2969   -2.1989 C   0  0  0  0  0  0  0  0  0  0  0  0
   -0.4631   -2.4043   -0.8950 C   0  0  0  0  0  0  0  0  0  0  0  0
    0.1475   -1.0208   -0.6670 C   0  0  2  0  0  0  0  0  0  0  0  0
   -3.1201   -0.3408   -0.9831 C   0  0  0  0  0  2  0  0  0  0  0  0
   -3.2550    0.5337   -3.0790 C   0  0  0  0  0  0  0  0  0  0  0  0
   -1.9834    0.7579   -2.6206 C   0  0  0  0  0  0  0  0  0  0  0  0
   -5.3318   -0.5165   -2.1212 C   0  0  0  0  0  0  0  0  0  0  0  0
    3.1402   -0.1405   -0.6577 C   0  0  0  0  0  0  0  0  0  0  0  0
    4.1800   -1.0025   -1.0479 C   0  0  0  0  0  0  0  0  0  0  0  0
    5.1328   -1.4367   -0.1055 C   0  0  0  0  0  0  0  0  0  0  0  0
    5.0540   -1.0037    1.2424 C   0  0  0  0  0  0  0  0  0  0  0  0
    4.0192   -0.1141    1.6185 C   0  0  0  0  0  0  0  0  0  0  0  0
    3.0629    0.3090    0.6735 C   0  0  0  0  0  0  0  0  0  0  0  0
    2.9887    1.1274    3.3713 C   0  0  0  0  0  0  0  0  0  0  0  0
    6.9624   -0.5532    2.5455 C   0  0  0  0  0  0  0  0  0  0  0  0
    6.2151   -2.8259   -1.6988 C   0  0  0  0  0  0  0  0  0  0  0  0
   -1.1722    0.2046    0.5624 H   0  0  0  0  0  0  0  0  0  0  0  0
   -1.5343    2.6521    0.3059 H   0  0  0  0  0  0  0  0  0  0  0  0
    0.5678    6.8674   -0.9435 H   0  0  0  0  0  0  0  0  0  0  0  0
    1.3615    6.3001    0.6044 H   0  0  0  0  0  0  0  0  0  0  0  0
    2.9973    2.7857   -1.9470 H   0  0  0  0  0  0  0  0  0  0  0  0
    2.5908    0.4236   -2.6532 H   0  0  0  0  0  0  0  0  0  0  0  0
    0.3947   -0.5799   -2.7689 H   0  0  0  0  0  0  0  0  0  0  0  0
   -1.3760   -2.3655   -1.5270 H   0  0  0  0  0  0  0  0  0  0  0  0
   -0.7021   -2.9543    0.0348 H   0  0  0  0  0  0  0  0  0  0  0  0
    0.8182   -1.0775    0.2175 H   0  0  0  0  0  0  0  0  0  0  0  0
   -3.7357    0.8102   -4.0219 H   0  0  0  0  0  0  0  0  0  0  0  0
   -1.1379    1.2866   -3.0687 H   0  0  0  0  0  0  0  0  0  0  0  0
   -5.5297   -1.1507   -3.0078 H   0  0  0  0  0  0  0  0  0  0  0  0
   -5.9751    0.3848   -2.1625 H   0  0  0  0  0  0  0  0  0  0  0  0
   -5.5660   -1.0801   -1.2000 H   0  0  0  0  0  0  0  0  0  0  0  0
    4.2172   -1.3563   -2.0848 H   0  0  0  0  0  0  0  0  0  0  0  0
    2.2628    1.0003    0.9650 H   0  0  0  0  0  0  0  0  0  0  0  0
    2.9957    2.1040    2.8366 H   0  0  0  0  0  0  0  0  0  0  0  0
    3.1699    1.3045    4.4477 H   0  0  0  0  0  0  0  0  0  0  0  0
    1.9838    0.6653    3.2455 H   0  0  0  0  0  0  0  0  0  0  0  0
    7.6184   -1.0804    3.2648 H   0  0  0  0  0  0  0  0  0  0  0  0
    7.5738   -0.2290    1.6732 H   0  0  0  0  0  0  0  0  0  0  0  0
    6.5294    0.3433    3.0408 H   0  0  0  0  0  0  0  0  0  0  0  0
    5.2772   -3.3611   -1.9660 H   0  0  0  0  0  0  0  0  0  0  0  0
    6.4035   -2.0425   -2.4677 H   0  0  0  0  0  0  0  0  0  0  0  0
    7.0594   -3.5402   -1.7011 H   0  0  0  0  0  0  0  0  0  0  0  0
  2 15  1  0  0  0  0
  2 14  1  0  0  0  0
  3 21  1  0  0  0  0
  4 20  2  0  0  0  0
  5 33  1  0  0  0  0
  6 34  1  0  0  0  0
  7 29  1  0  0  0  0
  8 23  1  0  0  0  0
  8 10  1  0  0  0  0
  9 23  1  0  0  0  0
 10 36  1  1  0  0  0
 11 10  1  0  0  0  0
 11 12  1  0  0  0  0
 12 37  1  0  0  0  0
 13 12  2  0  0  0  0
 13  1  1  0  0  0  0
 14  1  1  0  0  0  0
 14 39  1  0  0  0  0
 15 13  1  0  0  0  0
 16 17  1  0  0  0  0
 16 15  2  0  0  0  0
 17 11  2  0  0  0  0
 18 41  1  6  0  0  0
 18 17  1  0  0  0  0
 18 27  1  0  0  0  0
 19 42  1  6  0  0  0
 19 18  1  0  0  0  0
 19 22  1  0  0  0  0
 20 19  1  0  0  0  0
 20  3  1  0  0  0  0
 21 22  1  0  0  0  0
 21 44  1  0  0  0  0
 22 10  1  0  0  0  0
 22 45  1  1  0  0  0
 24 25  2  0  0  0  0
 24  9  1  0  0  0  0
 25  8  1  0  0  0  0
 26  9  1  0  0  0  0
 26 50  1  0  0  0  0
 27 32  1  0  0  0  0
 28 27  2  0  0  0  0
 28 29  1  0  0  0  0
 29 30  2  0  0  0  0
 30 31  1  0  0  0  0
 30  6  1  0  0  0  0
 31  5  1  0  0  0  0
 32 52  1  0  0  0  0
 32 31  2  0  0  0  0
 33 54  1  0  0  0  0
 34 58  1  0  0  0  0
 34 56  1  0  0  0  0
 35  7  1  0  0  0  0
 38 14  1  0  0  0  0
 40 16  1  0  0  0  0
 43 21  1  0  0  0  0
 46 24  1  0  0  0  0
 47 25  1  0  0  0  0
 48 26  1  0  0  0  0
 49 26  1  0  0  0  0
 51 28  1  0  0  0  0
 53 33  1  0  0  0  0
 55 33  1  0  0  0  0
 57 34  1  0  0  0  0
 59 35  1  0  0  0  0
 60 35  1  0  0  0  0
 61 35  1  0  0  0  0
M  END
