3
 OpenBabel05122313113D

 63 70  0  0  1  0  0  0  0  0999 V2000
    1.1476    1.2812   -0.1563 N   0  0  0  0  0  0  0  0  0  0  0  0
   -1.0684    1.3250   -0.1516 N   0  0  0  0  0  0  0  0  0  0  0  0
    0.0243    0.4975    0.0494 C   0  0  0  0  0  2  0  0  0  0  0  0
    0.7714    2.5572   -0.6051 C   0  0  0  0  0  0  0  0  0  0  0  0
    1.5085    3.6737   -1.0467 C   0  0  0  0  0  0  0  0  0  0  0  0
    2.6031    3.6705   -1.0746 H   0  0  0  0  0  0  0  0  0  0  0  0
    0.8092    4.8070   -1.4800 C   0  0  0  0  0  0  0  0  0  0  0  0
    1.3739    5.6819   -1.8341 H   0  0  0  0  0  0  0  0  0  0  0  0
   -0.5981    4.8333   -1.4803 C   0  0  0  0  0  0  0  0  0  0  0  0
   -1.1296    5.7282   -1.8355 H   0  0  0  0  0  0  0  0  0  0  0  0
   -1.3392    3.7274   -1.0457 C   0  0  0  0  0  0  0  0  0  0  0  0
   -2.4332    3.7646   -1.0744 H   0  0  0  0  0  0  0  0  0  0  0  0
   -0.6442    2.5847   -0.6029 C   0  0  0  0  0  0  0  0  0  0  0  0
    2.5780    0.9410    0.1548 C   0  0  1  0  0  0  0  0  0  0  0  0
    2.7243   -0.4291    0.8356 C   0  0  0  0  0  0  0  0  0  0  0  0
    2.2856   -1.2258    0.1937 H   0  0  0  0  0  0  0  0  0  0  0  0
    2.1332   -0.4496    1.7716 H   0  0  0  0  0  0  0  0  0  0  0  0
    4.2033   -0.7395    1.1354 C   0  0  1  0  0  0  0  0  0  0  0  0
    4.2520   -1.7457    1.6015 H   0  0  0  0  0  0  0  0  0  0  0  0
    5.0255   -0.7224   -0.1648 C   0  0  0  0  0  0  0  0  0  0  0  0
    6.0914   -0.9528    0.0484 H   0  0  0  0  0  0  0  0  0  0  0  0
    4.6580   -1.5060   -0.8623 H   0  0  0  0  0  0  0  0  0  0  0  0
    4.8996    0.6648   -0.8190 C   0  0  1  0  0  0  0  0  0  0  0  0
    5.4848    0.6930   -1.7626 H   0  0  0  0  0  0  0  0  0  0  0  0
    3.4193    0.9390   -1.1460 C   0  0  0  0  0  0  0  0  0  0  0  0
    3.0266    0.1535   -1.8238 H   0  0  0  0  0  0  0  0  0  0  0  0
    3.3250    1.9000   -1.6876 H   0  0  0  0  0  0  0  0  0  0  0  0
    3.1315    1.9856    1.1628 C   0  0  0  0  0  0  0  0  0  0  0  0
    2.5264    1.9226    2.0913 H   0  0  0  0  0  0  0  0  0  0  0  0
    3.0257    3.0182    0.7824 H   0  0  0  0  0  0  0  0  0  0  0  0
    5.4220    1.7455    0.1483 C   0  0  0  0  0  0  0  0  0  0  0  0
    5.3393    2.7505   -0.3207 H   0  0  0  0  0  0  0  0  0  0  0  0
    6.4998    1.5778    0.3583 H   0  0  0  0  0  0  0  0  0  0  0  0
    4.7588    0.3142    2.1087 C   0  0  0  0  0  0  0  0  0  0  0  0
    4.1996    0.2792    3.0671 H   0  0  0  0  0  0  0  0  0  0  0  0
    5.8250    0.1050    2.3423 H   0  0  0  0  0  0  0  0  0  0  0  0
    4.6167    1.7023    1.4622 C   0  0  2  0  0  0  0  0  0  0  0  0
    4.9923    2.4839    2.1561 H   0  0  0  0  0  0  0  0  0  0  0  0
   -2.5103    1.0386    0.1579 C   0  0  2  0  0  0  0  0  0  0  0  0
   -2.7016   -0.3210    0.8475 C   0  0  0  0  0  0  0  0  0  0  0  0
   -2.2851   -1.1275    0.2036 H   0  0  0  0  0  0  0  0  0  0  0  0
   -2.1118   -0.3561    1.7844 H   0  0  0  0  0  0  0  0  0  0  0  0
   -4.1891   -0.5867    1.1424 C   0  0  2  0  0  0  0  0  0  0  0  0
   -4.2690   -1.5879    1.6156 H   0  0  0  0  0  0  0  0  0  0  0  0
   -5.0012   -0.5568   -0.1641 C   0  0  0  0  0  0  0  0  0  0  0  0
   -6.0744   -0.7569    0.0427 H   0  0  0  0  0  0  0  0  0  0  0  0
   -4.6487   -1.3546   -0.8534 H   0  0  0  0  0  0  0  0  0  0  0  0
   -4.8332    0.8222   -0.8270 C   0  0  2  0  0  0  0  0  0  0  0  0
   -5.4127    0.8601   -1.7737 H   0  0  0  0  0  0  0  0  0  0  0  0
   -3.3444    1.0521   -1.1473 C   0  0  0  0  0  0  0  0  0  0  0  0
   -3.2187    2.0070   -1.6938 H   0  0  0  0  0  0  0  0  0  0  0  0
   -2.9695    0.2510   -1.8171 H   0  0  0  0  0  0  0  0  0  0  0  0
   -3.0368    2.1070    1.1548 C   0  0  0  0  0  0  0  0  0  0  0  0
   -2.8995    3.1334    0.7680 H   0  0  0  0  0  0  0  0  0  0  0  0
   -2.4391    2.0335    2.0872 H   0  0  0  0  0  0  0  0  0  0  0  0
   -4.7188    0.4904    2.1043 C   0  0  0  0  0  0  0  0  0  0  0  0
   -5.7922    0.3151    2.3332 H   0  0  0  0  0  0  0  0  0  0  0  0
   -4.1665    0.4461    3.0663 H   0  0  0  0  0  0  0  0  0  0  0  0
   -5.3292    1.9246    0.1297 C   0  0  0  0  0  0  0  0  0  0  0  0
   -5.2158    2.9230   -0.3466 H   0  0  0  0  0  0  0  0  0  0  0  0
   -6.4122    1.7893    0.3361 H   0  0  0  0  0  0  0  0  0  0  0  0
   -4.5316    1.8687    1.4479 C   0  0  2  0  0  0  0  0  0  0  0  0
   -4.8880    2.6662    2.1337 H   0  0  0  0  0  0  0  0  0  0  0  0
  1  3  1  0  0  0  0
  2  3  1  0  0  0  0
  4 13  1  0  0  0  0
  4  1  1  0  0  0  0
  5  4  2  0  0  0  0
  6  5  1  0  0  0  0
  7  5  1  0  0  0  0
  8  7  1  0  0  0  0
  9  7  2  0  0  0  0
  9 11  1  0  0  0  0
 10  9  1  0  0  0  0
 11 13  2  0  0  0  0
 12 11  1  0  0  0  0
 13  2  1  0  0  0  0
 14  1  1  6  0  0  0
 14 15  1  0  0  0  0
 14 28  1  0  0  0  0
 15 18  1  0  0  0  0
 15 17  1  0  0  0  0
 16 15  1  0  0  0  0
 18 19  1  1  0  0  0
 18 34  1  0  0  0  0
 20 21  1  0  0  0  0
 20 18  1  0  0  0  0
 22 20  1  0  0  0  0
 23 24  1  6  0  0  0
 23 20  1  0  0  0  0
 23 31  1  0  0  0  0
 25 23  1  0  0  0  0
 25 14  1  0  0  0  0
 26 25  1  0  0  0  0
 27 25  1  0  0  0  0
 28 37  1  0  0  0  0
 28 29  1  0  0  0  0
 30 28  1  0  0  0  0
 31 33  1  0  0  0  0
 31 37  1  0  0  0  0
 32 31  1  0  0  0  0
 34 36  1  0  0  0  0
 34 35  1  0  0  0  0
 37 34  1  0  0  0  0
 37 38  1  1  0  0  0
 39  2  1  6  0  0  0
 39 40  1  0  0  0  0
 39 53  1  0  0  0  0
 40 43  1  0  0  0  0
 40 42  1  0  0  0  0
 41 40  1  0  0  0  0
 43 44  1  1  0  0  0
 43 56  1  0  0  0  0
 45 46  1  0  0  0  0
 45 43  1  0  0  0  0
 47 45  1  0  0  0  0
 48 49  1  6  0  0  0
 48 45  1  0  0  0  0
 48 59  1  0  0  0  0
 50 48  1  0  0  0  0
 50 39  1  0  0  0  0
 51 50  1  0  0  0  0
 52 50  1  0  0  0  0
 53 62  1  0  0  0  0
 53 55  1  0  0  0  0
 54 53  1  0  0  0  0
 56 57  1  0  0  0  0
 56 58  1  0  0  0  0
 59 61  1  0  0  0  0
 59 62  1  0  0  0  0
 60 59  1  0  0  0  0
 62 56  1  0  0  0  0
 62 63  1  1  0  0  0
M  END
