19
 OpenBabel05122313113D

 34 36  0  0  1  0  0  0  0  0999 V2000
    0.3464    2.9624   -0.1306 N   0  0  0  0  0  0  0  0  0  0  0  0
   -0.2996    4.0587   -0.5440 C   0  0  0  0  0  0  0  0  0  0  0  0
    0.3109    4.8145   -1.0694 H   0  0  0  0  0  0  0  0  0  0  0  0
   -1.6727    4.2711   -0.3371 C   0  0  0  0  0  0  0  0  0  0  0  0
   -2.1582    5.1884   -0.7015 H   0  0  0  0  0  0  0  0  0  0  0  0
   -2.3910    3.2896    0.3604 C   0  0  0  0  0  0  0  0  0  0  0  0
   -3.4630    3.4203    0.5726 H   0  0  0  0  0  0  0  0  0  0  0  0
   -1.7261    2.1351    0.7910 C   0  0  0  0  0  0  0  0  0  0  0  0
   -2.2624    1.3560    1.3484 H   0  0  0  0  0  0  0  0  0  0  0  0
   -0.3501    1.9971    0.5030 C   0  0  0  0  0  0  0  0  0  0  0  0
    0.4465    0.8230    0.9693 C   0  0  2  0  0  3  0  0  0  0  0  0
   -0.0553   -0.5203    1.0349 C   0  0  0  0  0  0  0  0  0  0  0  0
    0.7964   -1.5478    1.5779 C   0  0  0  0  0  0  0  0  0  0  0  0
    0.4285   -2.5831    1.5807 H   0  0  0  0  0  0  0  0  0  0  0  0
    2.1087   -1.2652    2.0175 C   0  0  0  0  0  0  0  0  0  0  0  0
    2.7535   -2.0791    2.3762 H   0  0  0  0  0  0  0  0  0  0  0  0
    2.6175    0.0677    1.9184 C   0  0  0  0  0  0  0  0  0  0  0  0
    3.6553    0.2875    2.2040 H   0  0  0  0  0  0  0  0  0  0  0  0
    1.7997    1.0871    1.3891 C   0  0  0  0  0  3  0  0  0  0  0  0
    2.1760    2.1095    1.2521 H   0  0  0  0  0  0  0  0  0  0  0  0
   -1.4074   -0.9087    0.5452 C   0  0  0  0  0  0  0  0  0  0  0  0
   -2.2866   -1.6061    1.3966 C   0  0  0  0  0  0  0  0  0  0  0  0
   -1.9679   -1.8521    2.4215 H   0  0  0  0  0  0  0  0  0  0  0  0
   -3.5703   -1.9672    0.9609 C   0  0  0  0  0  0  0  0  0  0  0  0
   -4.2436   -2.5054    1.6467 H   0  0  0  0  0  0  0  0  0  0  0  0
   -4.0137   -1.6532   -0.3379 C   0  0  0  0  0  0  0  0  0  0  0  0
   -3.1223   -0.9630   -1.1888 C   0  0  0  0  0  0  0  0  0  0  0  0
   -3.4371   -0.7160   -2.2151 H   0  0  0  0  0  0  0  0  0  0  0  0
   -1.8432   -0.5986   -0.7611 C   0  0  0  0  0  0  0  0  0  0  0  0
   -1.1588   -0.0740   -1.4434 H   0  0  0  0  0  0  0  0  0  0  0  0
   -5.3813   -2.0607   -0.8230 C   0  0  0  0  0  0  0  0  0  0  0  0
   -5.3107   -2.8817   -1.5680 H   0  0  0  0  0  0  0  0  0  0  0  0
   -5.9019   -1.2191   -1.3240 H   0  0  0  0  0  0  0  0  0  0  0  0
   -6.0217   -2.4173    0.0067 H   0  0  0  0  0  0  0  0  0  0  0  0
  1 10  1  0  0  0  0
  2  4  1  0  0  0  0
  2  1  2  0  0  0  0
  3  2  1  0  0  0  0
  4  6  2  0  0  0  0
  5  4  1  0  0  0  0
  6  7  1  0  0  0  0
  6  8  1  0  0  0  0
  8  9  1  0  0  0  0
 10  8  2  0  0  0  0
 11 10  1  1  0  0  0
 11 12  1  0  0  0  0
 11 19  1  0  0  0  0
 12 13  2  0  0  0  0
 13 14  1  0  0  0  0
 13 15  1  0  0  0  0
 15 16  1  0  0  0  0
 17 15  2  0  0  0  0
 17 18  1  0  0  0  0
 19 17  1  0  0  0  0
 20 19  1  0  0  0  0
 21 12  1  0  0  0  0
 21 22  1  0  0  0  0
 22 23  1  0  0  0  0
 24 22  2  0  0  0  0
 24 25  1  0  0  0  0
 26 24  1  0  0  0  0
 27 29  1  0  0  0  0
 27 26  2  0  0  0  0
 28 27  1  0  0  0  0
 29 21  2  0  0  0  0
 30 29  1  0  0  0  0
 31 26  1  0  0  0  0
 31 34  1  0  0  0  0
 32 31  1  0  0  0  0
 33 31  1  0  0  0  0
M  END
