8
 OpenBabel05122313113D

 49 54  0  0  1  0  0  0  0  0999 V2000
    4.3835   -0.8820   -1.4963 O   0  0  0  0  0  0  0  0  0  0  0  0
    4.8209   -0.8397    0.7329 O   0  0  0  0  0  0  0  0  0  0  0  0
    1.1819    3.0892   -2.4277 O   0  0  0  0  0  0  0  0  0  0  0  0
   -1.0334    3.1975   -2.9405 O   0  0  0  0  0  0  0  0  0  0  0  0
   -1.6805    1.0491    1.1722 C   0  0  2  0  0  0  0  0  0  0  0  0
   -0.1039    0.6235    2.0260 C   0  0  1  0  0  0  0  0  0  0  0  0
    0.5005    0.8026   -0.7398 C   0  0  2  0  0  3  0  0  0  0  0  0
    1.8798    0.4757   -0.9345 C   0  0  0  0  0  3  0  0  0  0  0  0
    2.2836    0.4668   -1.9612 H   0  0  0  0  0  0  0  0  0  0  0  0
    2.7045   -0.1118    0.0683 C   0  0  0  0  0  3  0  0  0  0  0  0
    2.6274    0.1529    1.1287 H   0  0  0  0  0  0  0  0  0  0  0  0
    4.0281   -0.6433   -0.3488 C   0  0  0  0  0  0  0  0  0  0  0  0
    6.1437   -1.3472    0.4632 C   0  0  0  0  0  0  0  0  0  0  0  0
    6.6489   -0.6667   -0.2547 H   0  0  0  0  0  0  0  0  0  0  0  0
    6.0543   -2.3316   -0.0455 H   0  0  0  0  0  0  0  0  0  0  0  0
    6.8820   -1.4476    1.7817 C   0  0  0  0  0  0  0  0  0  0  0  0
    6.9621   -0.4552    2.2675 H   0  0  0  0  0  0  0  0  0  0  0  0
    7.9061   -1.8360    1.6145 H   0  0  0  0  0  0  0  0  0  0  0  0
    6.3603   -2.1320    2.4796 H   0  0  0  0  0  0  0  0  0  0  0  0
   -0.2333    1.1542   -2.0287 C   0  0  0  0  0  0  0  0  0  0  0  0
    0.1079    0.5039   -2.8615 H   0  0  0  0  0  0  0  0  0  0  0  0
   -1.3288    1.0304   -1.9456 H   0  0  0  0  0  0  0  0  0  0  0  0
    0.0758    2.5851   -2.4684 C   0  0  0  0  0  0  0  0  0  0  0  0
   -0.8836    4.5782   -3.3563 C   0  0  0  0  0  0  0  0  0  0  0  0
   -1.6279    4.7096   -4.1661 H   0  0  0  0  0  0  0  0  0  0  0  0
    0.1366    4.7145   -3.7676 H   0  0  0  0  0  0  0  0  0  0  0  0
   -1.1401    5.5245   -2.1958 C   0  0  0  0  0  0  0  0  0  0  0  0
   -2.1470    5.3643   -1.7626 H   0  0  0  0  0  0  0  0  0  0  0  0
   -1.0742    6.5749   -2.5444 H   0  0  0  0  0  0  0  0  0  0  0  0
   -0.3897    5.3785   -1.3948 H   0  0  0  0  0  0  0  0  0  0  0  0
   -0.0933    1.4979    0.5671 B   0  0  0  0  0  0  0  0  0  0  0  0
   -1.5413    2.6070    0.5637 B   0  0  0  0  0  0  0  0  0  0  0  0
   -2.0901    2.8365   -0.4828 H   0  0  0  0  0  0  0  0  0  0  0  0
   -2.4886    2.2557    2.0312 B   0  0  1  0  0  0  0  0  0  0  0  0
   -3.6943    2.2096    2.0087 H   0  0  0  0  0  0  0  0  0  0  0  0
   -1.5981    0.9385    2.8690 B   0  0  1  0  0  0  0  0  0  0  0  0
   -2.1274    0.0232    3.4374 H   0  0  0  0  0  0  0  0  0  0  0  0
   -1.4773    2.6178    3.4392 B   0  0  1  0  0  0  0  0  0  0  0  0
   -1.9781    2.9449    4.4887 H   0  0  0  0  0  0  0  0  0  0  0  0
   -0.0232    1.5739    3.4187 B   0  0  0  0  0  2  0  0  0  0  0  0
    0.4855    1.0810    4.3938 H   0  0  0  0  0  0  0  0  0  0  0  0
    0.9122    1.9887    1.9730 B   0  0  1  0  0  0  0  0  0  0  0  0
    2.0990    1.8123    1.9315 H   0  0  0  0  0  0  0  0  0  0  0  0
    0.0450    3.2282    1.0555 B   0  0  2  0  0  0  0  0  0  0  0  0
    0.6523    3.9998    0.3544 H   0  0  0  0  0  0  0  0  0  0  0  0
   -1.4177    3.6733    1.9888 B   0  0  2  0  0  0  0  0  0  0  0  0
   -1.8876    4.7867    1.9647 H   0  0  0  0  0  0  0  0  0  0  0  0
    0.0779    3.2731    2.8505 B   0  0  1  0  0  0  0  0  0  0  0  0
    0.7217    4.0856    3.4716 H   0  0  0  0  0  0  0  0  0  0  0  0
  1 12  2  0  0  0  0
  4 23  1  0  0  0  0
  5 32  1  6  0  0  0
  5 34  1  0  0  0  0
  5 36  1  0  0  0  0
  6 36  1  0  0  0  0
  6 40  1  1  0  0  0
  7  8  1  6  0  0  0
  7 31  1  0  0  0  0
  8 10  1  0  0  0  0
  9  8  1  0  0  0  0
 10 11  1  0  0  0  0
 12 10  1  0  0  0  0
 12  2  1  0  0  0  0
 13  2  1  0  0  0  0
 13 16  1  0  0  0  0
 14 13  1  0  0  0  0
 15 13  1  0  0  0  0
 16 17  1  0  0  0  0
 16 19  1  0  0  0  0
 18 16  1  0  0  0  0
 20 22  1  0  0  0  0
 20  7  1  0  0  0  0
 21 20  1  0  0  0  0
 23  3  2  0  0  0  0
 23 20  1  0  0  0  0
 24  4  1  0  0  0  0
 24 27  1  0  0  0  0
 25 24  1  0  0  0  0
 26 24  1  0  0  0  0
 27 28  1  0  0  0  0
 27 30  1  0  0  0  0
 29 27  1  0  0  0  0
 31  5  1  0  0  0  0
 31  6  1  0  0  0  0
 32 44  1  0  0  0  0
 33 32  1  0  0  0  0
 34 35  1  1  0  0  0
 34 38  1  0  0  0  0
 36 37  1  1  0  0  0
 36 38  1  0  0  0  0
 38 39  1  1  0  0  0
 40 41  1  0  0  0  0
 42 43  1  6  0  0  0
 42  6  1  0  0  0  0
 42 48  1  0  0  0  0
 44 45  1  6  0  0  0
 44 42  1  0  0  0  0
 44 46  1  0  0  0  0
 46 47  1  6  0  0  0
 46 34  1  0  0  0  0
 46 48  1  0  0  0  0
 48 38  1  0  0  0  0
 48 49  1  1  0  0  0
M  END
