4
 OpenBabel05122313113D

 66 66  0  0  1  0  0  0  0  0999 V2000
   -2.3766   -0.4446   -0.0322 P   0  0  0  0  0  0  0  0  0  0  0  0
    2.3766   -0.4446   -0.0322 P   0  0  0  0  0  0  0  0  0  0  0  0
   -0.0000    5.1105   -0.1830 O   0  0  0  0  0  0  0  0  0  0  0  0
    0.0000   -0.1696   -1.9463 C   0  0  0  0  0  3  0  0  0  0  0  0
    0.9068   -0.4426   -2.5080 H   0  0  0  0  0  0  0  0  0  0  0  0
   -0.9067   -0.4426   -2.5080 H   0  0  0  0  0  0  0  0  0  0  0  0
    0.0000    1.1089   -1.2099 C   0  0  2  0  0  3  0  0  0  0  0  0
   -1.2692    1.8490   -1.0418 C   0  0  0  0  0  0  0  0  0  0  0  0
   -1.2783    3.1734   -0.6872 C   0  0  0  0  0  0  0  0  0  0  0  0
   -0.0000    3.9096   -0.5026 C   0  0  0  0  0  0  0  0  0  0  0  0
    1.2783    3.1734   -0.6871 C   0  0  0  0  0  0  0  0  0  0  0  0
    1.2692    1.8491   -1.0417 C   0  0  0  0  0  0  0  0  0  0  0  0
   -2.5371    3.9640   -0.4433 C   0  0  0  0  0  0  0  0  0  0  0  0
   -3.2002    3.9844   -1.3325 H   0  0  0  0  0  0  0  0  0  0  0  0
   -2.2569    5.0032   -0.1895 H   0  0  0  0  0  0  0  0  0  0  0  0
   -3.1273    3.5484    0.4010 H   0  0  0  0  0  0  0  0  0  0  0  0
    2.5371    3.9640   -0.4432 C   0  0  0  0  0  0  0  0  0  0  0  0
    3.1272    3.5485    0.4011 H   0  0  0  0  0  0  0  0  0  0  0  0
    2.2569    5.0033   -0.1894 H   0  0  0  0  0  0  0  0  0  0  0  0
    3.2001    3.9845   -1.3325 H   0  0  0  0  0  0  0  0  0  0  0  0
   -2.5383    1.0421   -1.1669 C   0  0  0  0  0  0  0  0  0  0  0  0
   -2.6799    0.6696   -2.2031 H   0  0  0  0  0  0  0  0  0  0  0  0
   -3.4363    1.6322   -0.9122 H   0  0  0  0  0  0  0  0  0  0  0  0
   -3.2467    0.1549    1.5215 C   0  0  0  0  0  0  0  0  0  0  0  0
   -2.7314    1.1297    1.6711 H   0  0  0  0  0  0  0  0  0  0  0  0
   -3.5049   -1.7311   -0.8089 C   0  0  0  0  0  0  0  0  0  0  0  0
   -4.4903   -1.2222   -0.9059 H   0  0  0  0  0  0  0  0  0  0  0  0
   -3.6579   -2.9574    0.1020 C   0  0  0  0  0  0  0  0  0  0  0  0
   -4.2919   -3.7186   -0.3988 H   0  0  0  0  0  0  0  0  0  0  0  0
   -4.1390   -2.7104    1.0672 H   0  0  0  0  0  0  0  0  0  0  0  0
   -2.6712   -3.4181    0.3075 H   0  0  0  0  0  0  0  0  0  0  0  0
   -3.0277   -2.1457   -2.2072 C   0  0  0  0  0  0  0  0  0  0  0  0
   -2.0300   -2.6243   -2.1581 H   0  0  0  0  0  0  0  0  0  0  0  0
   -2.9780   -1.2940   -2.9149 H   0  0  0  0  0  0  0  0  0  0  0  0
   -3.7395   -2.8809   -2.6370 H   0  0  0  0  0  0  0  0  0  0  0  0
   -4.7487    0.3915    1.3423 C   0  0  0  0  0  0  0  0  0  0  0  0
   -5.3068   -0.5614    1.2367 H   0  0  0  0  0  0  0  0  0  0  0  0
   -4.9841    1.0230    0.4617 H   0  0  0  0  0  0  0  0  0  0  0  0
   -5.1571    0.9103    2.2345 H   0  0  0  0  0  0  0  0  0  0  0  0
   -2.9325   -0.7116    2.7478 C   0  0  0  0  0  0  0  0  0  0  0  0
   -3.3180   -0.2147    3.6623 H   0  0  0  0  0  0  0  0  0  0  0  0
   -1.8410   -0.8407    2.8734 H   0  0  0  0  0  0  0  0  0  0  0  0
   -3.4048   -1.7116    2.6898 H   0  0  0  0  0  0  0  0  0  0  0  0
    2.5383    1.0422   -1.1669 C   0  0  0  0  0  0  0  0  0  0  0  0
    3.4363    1.6322   -0.9121 H   0  0  0  0  0  0  0  0  0  0  0  0
    2.6799    0.6697   -2.2031 H   0  0  0  0  0  0  0  0  0  0  0  0
    3.2468    0.1549    1.5216 C   0  0  0  0  0  0  0  0  0  0  0  0
    2.7315    1.1297    1.6711 H   0  0  0  0  0  0  0  0  0  0  0  0
    3.5050   -1.7311   -0.8090 C   0  0  0  0  0  0  0  0  0  0  0  0
    4.4903   -1.2220   -0.9061 H   0  0  0  0  0  0  0  0  0  0  0  0
    3.0276   -2.1457   -2.2072 C   0  0  0  0  0  0  0  0  0  0  0  0
    3.7394   -2.8808   -2.6371 H   0  0  0  0  0  0  0  0  0  0  0  0
    2.9778   -1.2939   -2.9149 H   0  0  0  0  0  0  0  0  0  0  0  0
    2.0299   -2.6243   -2.1580 H   0  0  0  0  0  0  0  0  0  0  0  0
    3.6580   -2.9574    0.1019 C   0  0  0  0  0  0  0  0  0  0  0  0
    2.6714   -3.4181    0.3074 H   0  0  0  0  0  0  0  0  0  0  0  0
    4.1392   -2.7104    1.0670 H   0  0  0  0  0  0  0  0  0  0  0  0
    4.2920   -3.7185   -0.3990 H   0  0  0  0  0  0  0  0  0  0  0  0
    2.9325   -0.7115    2.7479 C   0  0  0  0  0  0  0  0  0  0  0  0
    3.4050   -1.7115    2.6899 H   0  0  0  0  0  0  0  0  0  0  0  0
    1.8410   -0.8408    2.8733 H   0  0  0  0  0  0  0  0  0  0  0  0
    3.3178   -0.2145    3.6624 H   0  0  0  0  0  0  0  0  0  0  0  0
    4.7488    0.3915    1.3423 C   0  0  0  0  0  0  0  0  0  0  0  0
    5.1571    0.9102    2.2346 H   0  0  0  0  0  0  0  0  0  0  0  0
    4.9841    1.0229    0.4617 H   0  0  0  0  0  0  0  0  0  0  0  0
    5.3069   -0.5614    1.2367 H   0  0  0  0  0  0  0  0  0  0  0  0
  1 24  1  0  0  0  0
  2 47  1  0  0  0  0
  5  4  1  0  0  0  0
  6  4  1  0  0  0  0
  7  4  1  6  0  0  0
  7  8  1  0  0  0  0
  7 12  1  0  0  0  0
  8  9  2  0  0  0  0
  9 10  1  0  0  0  0
  9 13  1  0  0  0  0
 10  3  2  0  0  0  0
 11 10  1  0  0  0  0
 11 17  1  0  0  0  0
 12 11  2  0  0  0  0
 13 15  1  0  0  0  0
 13 16  1  0  0  0  0
 14 13  1  0  0  0  0
 17 19  1  0  0  0  0
 17 18  1  0  0  0  0
 20 17  1  0  0  0  0
 21  8  1  0  0  0  0
 21 23  1  0  0  0  0
 21  1  1  0  0  0  0
 22 21  1  0  0  0  0
 24 25  1  0  0  0  0
 24 40  1  0  0  0  0
 26  1  1  0  0  0  0
 26 28  1  0  0  0  0
 27 26  1  0  0  0  0
 28 31  1  0  0  0  0
 28 30  1  0  0  0  0
 29 28  1  0  0  0  0
 32 33  1  0  0  0  0
 32 26  1  0  0  0  0
 34 32  1  0  0  0  0
 35 32  1  0  0  0  0
 36 24  1  0  0  0  0
 36 39  1  0  0  0  0
 37 36  1  0  0  0  0
 38 36  1  0  0  0  0
 40 42  1  0  0  0  0
 40 41  1  0  0  0  0
 43 40  1  0  0  0  0
 44 12  1  0  0  0  0
 44 45  1  0  0  0  0
 44  2  1  0  0  0  0
 46 44  1  0  0  0  0
 47 48  1  0  0  0  0
 47 59  1  0  0  0  0
 49  2  1  0  0  0  0
 49 55  1  0  0  0  0
 50 49  1  0  0  0  0
 51 54  1  0  0  0  0
 51 49  1  0  0  0  0
 52 51  1  0  0  0  0
 53 51  1  0  0  0  0
 55 56  1  0  0  0  0
 55 57  1  0  0  0  0
 58 55  1  0  0  0  0
 59 61  1  0  0  0  0
 59 62  1  0  0  0  0
 60 59  1  0  0  0  0
 63 47  1  0  0  0  0
 63 64  1  0  0  0  0
 65 63  1  0  0  0  0
 66 63  1  0  0  0  0
M  END
