10
 OpenBabel05122313113D

 34 34  0  0  1  0  0  0  0  0999 V2000
    2.2104   -1.7418    0.1048 F   0  0  0  0  0  0  0  0  0  0  0  0
    2.2200   -0.4603   -1.6938 F   0  0  0  0  0  0  0  0  0  0  0  0
    3.4980    0.4137    1.4806 F   0  0  0  0  0  0  0  0  0  0  0  0
    3.7551    1.3648   -0.4925 F   0  0  0  0  0  0  0  0  0  0  0  0
    4.8530   -1.7050    0.8314 F   0  0  0  0  0  0  0  0  0  0  0  0
    4.7740   -1.2788   -1.3345 F   0  0  0  0  0  0  0  0  0  0  0  0
    6.2329    0.7843    1.1232 F   0  0  0  0  0  0  0  0  0  0  0  0
    6.3623    0.8511   -1.0595 F   0  0  0  0  0  0  0  0  0  0  0  0
    7.1987   -0.8415    0.0310 F   0  0  0  0  0  0  0  0  0  0  0  0
    1.0592    0.3321    0.2194 C   0  0  1  0  0  3  0  0  0  0  0  0
    0.3695    0.0498    1.4793 C   0  0  0  0  0  0  0  0  0  0  0  0
   -0.5542    1.1323    1.7097 C   0  0  0  0  0  0  0  0  0  0  0  0
   -0.4406    2.0774    0.6091 C   0  0  0  0  0  0  0  0  0  0  0  0
    0.5699    1.5814   -0.3011 C   0  0  0  0  0  0  0  0  0  0  0  0
    2.2176   -0.4506   -0.3321 C   0  0  0  0  0  0  0  0  0  0  0  0
    3.5799    0.1731    0.1422 C   0  0  0  0  0  0  0  0  0  0  0  0
    4.8355   -0.7241   -0.1016 C   0  0  0  0  0  0  0  0  0  0  0  0
    6.1928    0.0466   -0.0008 C   0  0  0  0  0  0  0  0  0  0  0  0
    0.6449   -1.0946    2.4012 C   0  0  0  0  0  0  0  0  0  0  0  0
   -1.3251    1.3469    2.9747 C   0  0  0  0  0  0  0  0  0  0  0  0
   -0.9815    3.4717    0.5396 C   0  0  0  0  0  0  0  0  0  0  0  0
    0.9983    2.3156   -1.5299 C   0  0  0  0  0  0  0  0  0  0  0  0
    0.0332   -1.0259    3.3191 H   0  0  0  0  0  0  0  0  0  0  0  0
    1.7147   -1.1009    2.6893 H   0  0  0  0  0  0  0  0  0  0  0  0
    0.4244   -2.0547    1.8924 H   0  0  0  0  0  0  0  0  0  0  0  0
   -2.2224    1.9717    2.8128 H   0  0  0  0  0  0  0  0  0  0  0  0
   -1.6492    0.3906    3.4252 H   0  0  0  0  0  0  0  0  0  0  0  0
   -0.6870    1.8679    3.7206 H   0  0  0  0  0  0  0  0  0  0  0  0
   -1.4168    3.7022   -0.4514 H   0  0  0  0  0  0  0  0  0  0  0  0
   -1.7534    3.6632    1.3064 H   0  0  0  0  0  0  0  0  0  0  0  0
   -0.1591    4.2000    0.7112 H   0  0  0  0  0  0  0  0  0  0  0  0
    1.7505    1.7561   -2.1069 H   0  0  0  0  0  0  0  0  0  0  0  0
    1.4220    3.3015   -1.2462 H   0  0  0  0  0  0  0  0  0  0  0  0
    0.1221    2.4806   -2.1883 H   0  0  0  0  0  0  0  0  0  0  0  0
  2 15  1  0  0  0  0
  4 16  1  0  0  0  0
  6 17  1  0  0  0  0
  8 18  1  0  0  0  0
 10 15  1  1  0  0  0
 10 11  1  0  0  0  0
 11 12  2  0  0  0  0
 11 19  1  0  0  0  0
 12 20  1  0  0  0  0
 13 12  1  0  0  0  0
 14 10  1  0  0  0  0
 14 13  2  0  0  0  0
 15  1  1  0  0  0  0
 15 16  1  0  0  0  0
 16  3  1  0  0  0  0
 17 18  1  0  0  0  0
 17 16  1  0  0  0  0
 17  5  1  0  0  0  0
 18  9  1  0  0  0  0
 18  7  1  0  0  0  0
 19 24  1  0  0  0  0
 19 23  1  0  0  0  0
 20 27  1  0  0  0  0
 20 28  1  0  0  0  0
 21 13  1  0  0  0  0
 21 31  1  0  0  0  0
 21 30  1  0  0  0  0
 22 33  1  0  0  0  0
 22 14  1  0  0  0  0
 25 19  1  0  0  0  0
 26 20  1  0  0  0  0
 29 21  1  0  0  0  0
 32 22  1  0  0  0  0
 34 22  1  0  0  0  0
M  END
