1
 OpenBabel05122313113D

 42 44  0  0  1  0  0  0  0  0999 V2000
    1.4746    0.3325   -0.1693 C   0  0  0  0  0  3  0  0  0  0  0  0
    0.9998    1.6380    0.2260 C   0  0  0  0  0  0  0  0  0  0  0  0
   -0.3059    2.1693    0.4610 C   0  0  0  0  0  0  0  0  0  0  0  0
   -0.3870    3.5467    0.7303 C   0  0  0  0  0  0  0  0  0  0  0  0
   -1.3779    3.9818    0.9239 H   0  0  0  0  0  0  0  0  0  0  0  0
    0.7557    4.3762    0.7951 C   0  0  0  0  0  0  0  0  0  0  0  0
    0.6264    5.4454    1.0220 H   0  0  0  0  0  0  0  0  0  0  0  0
    2.0426    3.8756    0.5919 C   0  0  0  0  0  0  0  0  0  0  0  0
    2.9254    4.5278    0.6464 H   0  0  0  0  0  0  0  0  0  0  0  0
    2.1399    2.4995    0.3113 C   0  0  2  0  0  3  0  0  0  0  0  0
    4.5752    2.2283   -0.3033 C   0  0  0  0  0  0  0  0  0  0  0  0
    5.3636    1.5785    0.1233 H   0  0  0  0  0  0  0  0  0  0  0  0
    4.6935    3.2325    0.1418 H   0  0  0  0  0  0  0  0  0  0  0  0
    4.7192    2.3105   -1.4030 H   0  0  0  0  0  0  0  0  0  0  0  0
    3.7814   -0.6023   -0.5326 C   0  0  0  0  0  0  0  0  0  0  0  0
    4.5873   -0.2220   -1.1923 H   0  0  0  0  0  0  0  0  0  0  0  0
    3.2119   -1.3635   -1.1010 H   0  0  0  0  0  0  0  0  0  0  0  0
    4.3279   -1.1990    0.7616 C   0  0  0  0  0  0  0  0  0  0  0  0
    4.8634   -0.4474    1.3763 H   0  0  0  0  0  0  0  0  0  0  0  0
    5.0328   -2.0212    0.5293 H   0  0  0  0  0  0  0  0  0  0  0  0
    3.4945   -1.6146    1.3618 H   0  0  0  0  0  0  0  0  0  0  0  0
   -1.5483    1.3585    0.4193 C   0  0  0  0  0  0  0  0  0  0  0  0
   -1.6665    0.1754    1.1762 C   0  0  0  0  0  0  0  0  0  0  0  0
   -0.8277   -0.1542    1.8002 H   0  0  0  0  0  0  0  0  0  0  0  0
   -2.8864   -0.5394    1.1603 C   0  0  0  0  0  0  0  0  0  0  0  0
   -3.9630   -0.0759    0.3840 C   0  0  0  0  0  0  0  0  0  0  0  0
   -4.9025   -0.6436    0.3637 H   0  0  0  0  0  0  0  0  0  0  0  0
   -3.8371    1.0991   -0.3742 C   0  0  0  0  0  0  0  0  0  0  0  0
   -2.6308    1.8289   -0.3552 C   0  0  0  0  0  0  0  0  0  0  0  0
   -2.5023    2.7376   -0.9558 H   0  0  0  0  0  0  0  0  0  0  0  0
    3.2585    1.7466    0.0433 N   0  0  0  0  0  0  0  0  0  0  0  0
    2.8194    0.4722   -0.2960 N   0  0  0  0  0  0  0  0  0  0  0  0
   -2.0322   -2.2929    2.5415 C   0  0  0  0  0  0  0  0  0  0  0  0
   -1.2495   -2.6138    1.8205 H   0  0  0  0  0  0  0  0  0  0  0  0
   -2.4538   -3.1873    3.0367 H   0  0  0  0  0  0  0  0  0  0  0  0
   -1.5909   -1.6303    3.3202 H   0  0  0  0  0  0  0  0  0  0  0  0
   -4.8552    2.6157   -1.9059 C   0  0  0  0  0  0  0  0  0  0  0  0
   -4.6686    3.5321   -1.3005 H   0  0  0  0  0  0  0  0  0  0  0  0
   -5.8346    2.7145   -2.4101 H   0  0  0  0  0  0  0  0  0  0  0  0
   -4.0583    2.5356   -2.6796 H   0  0  0  0  0  0  0  0  0  0  0  0
   -3.1187   -1.6692    1.8708 O   0  0  0  0  0  0  0  0  0  0  0  0
   -4.9325    1.4559   -1.1034 O   0  0  0  0  0  0  0  0  0  0  0  0
  1  2  2  0  0  0  0
  2  3  1  0  0  0  0
  3  4  2  0  0  0  0
  4  6  1  0  0  0  0
  4  5  1  0  0  0  0
  6  7  1  0  0  0  0
  8  9  1  0  0  0  0
  8  6  2  0  0  0  0
 10  2  1  6  0  0  0
 10  8  1  0  0  0  0
 11 31  1  0  0  0  0
 11 12  1  0  0  0  0
 11 13  1  0  0  0  0
 14 11  1  0  0  0  0
 15 32  1  0  0  0  0
 15 18  1  0  0  0  0
 16 15  1  0  0  0  0
 17 15  1  0  0  0  0
 18 21  1  0  0  0  0
 18 19  1  0  0  0  0
 20 18  1  0  0  0  0
 22  3  1  0  0  0  0
 22 23  1  0  0  0  0
 23 24  1  0  0  0  0
 25 23  2  0  0  0  0
 25 41  1  0  0  0  0
 26 25  1  0  0  0  0
 27 26  1  0  0  0  0
 28 29  1  0  0  0  0
 28 26  2  0  0  0  0
 29 22  2  0  0  0  0
 30 29  1  0  0  0  0
 31 10  1  0  0  0  0
 32  1  1  0  0  0  0
 32 31  1  0  0  0  0
 33 35  1  0  0  0  0
 33 36  1  0  0  0  0
 34 33  1  0  0  0  0
 37 38  1  0  0  0  0
 37 42  1  0  0  0  0
 39 37  1  0  0  0  0
 40 37  1  0  0  0  0
 41 33  1  0  0  0  0
 42 28  1  0  0  0  0
M  END
