3
 OpenBabel05122313113D

 43 45  0  0  0  0  0  0  0  0999 V2000
    0.4938   -0.2579   -1.1419 C   0  0  0  0  0  3  0  0  0  0  0  0
    0.3286    0.3036   -2.0798 H   0  0  0  0  0  0  0  0  0  0  0  0
    1.2495   -1.4952   -1.2921 C   0  0  0  0  0  3  0  0  0  0  0  0
    2.2362   -1.3942   -2.3291 C   0  0  0  0  0  3  0  0  0  0  0  0
    2.0232   -0.8002   -3.2307 H   0  0  0  0  0  0  0  0  0  0  0  0
    2.9739   -2.2021   -2.4486 H   0  0  0  0  0  0  0  0  0  0  0  0
    1.6912   -2.1406   -0.0904 C   0  0  0  0  0  3  0  0  0  0  0  0
    2.4114   -2.9679   -0.1811 H   0  0  0  0  0  0  0  0  0  0  0  0
    1.0601   -2.1581    0.8065 H   0  0  0  0  0  0  0  0  0  0  0  0
   -0.9484    0.0154   -0.0897 P   0  0  0  0  0  4  0  0  0  0  0  0
   -0.9277    1.7044    0.5621 C   0  0  0  0  0  0  0  0  0  0  0  0
   -0.1675    2.7069   -0.0755 C   0  0  0  0  0  0  0  0  0  0  0  0
    0.4673    2.4685   -0.9395 H   0  0  0  0  0  0  0  0  0  0  0  0
   -0.2135    4.0226    0.4048 C   0  0  0  0  0  0  0  0  0  0  0  0
    0.3855    4.8017   -0.0890 H   0  0  0  0  0  0  0  0  0  0  0  0
   -1.0162    4.3429    1.5116 C   0  0  0  0  0  0  0  0  0  0  0  0
   -1.0453    5.3764    1.8874 H   0  0  0  0  0  0  0  0  0  0  0  0
   -1.7797    3.3470    2.1417 C   0  0  0  0  0  0  0  0  0  0  0  0
   -2.4075    3.5970    3.0095 H   0  0  0  0  0  0  0  0  0  0  0  0
   -1.7410    2.0269    1.6716 C   0  0  0  0  0  0  0  0  0  0  0  0
   -2.3349    1.2495    2.1753 H   0  0  0  0  0  0  0  0  0  0  0  0
   -2.3919   -0.1781   -1.1812 C   0  0  0  0  0  0  0  0  0  0  0  0
   -2.3626   -1.1599   -2.1962 C   0  0  0  0  0  0  0  0  0  0  0  0
   -1.4624   -1.7722   -2.3580 H   0  0  0  0  0  0  0  0  0  0  0  0
   -3.4892   -1.3509   -3.0084 C   0  0  0  0  0  0  0  0  0  0  0  0
   -3.4672   -2.1143   -3.8000 H   0  0  0  0  0  0  0  0  0  0  0  0
   -4.6373   -0.5653   -2.8160 C   0  0  0  0  0  0  0  0  0  0  0  0
   -5.5176   -0.7145   -3.4589 H   0  0  0  0  0  0  0  0  0  0  0  0
   -4.6618    0.4158   -1.8118 C   0  0  0  0  0  0  0  0  0  0  0  0
   -5.5577    1.0376   -1.6683 H   0  0  0  0  0  0  0  0  0  0  0  0
   -3.5427    0.6143   -0.9911 C   0  0  0  0  0  0  0  0  0  0  0  0
   -3.5630    1.3930   -0.2146 H   0  0  0  0  0  0  0  0  0  0  0  0
   -1.1209   -1.1501    1.2919 C   0  0  0  0  0  0  0  0  0  0  0  0
   -0.5071   -0.8854    2.5369 C   0  0  0  0  0  0  0  0  0  0  0  0
    0.0446    0.0493    2.7054 H   0  0  0  0  0  0  0  0  0  0  0  0
   -0.6056   -1.8288    3.5687 C   0  0  0  0  0  0  0  0  0  0  0  0
   -0.1290   -1.6227    4.5384 H   0  0  0  0  0  0  0  0  0  0  0  0
   -1.3100   -3.0275    3.3674 C   0  0  0  0  0  0  0  0  0  0  0  0
   -1.3838   -3.7637    4.1816 H   0  0  0  0  0  0  0  0  0  0  0  0
   -1.9296   -3.2833    2.1334 C   0  0  0  0  0  0  0  0  0  0  0  0
   -2.4924   -4.2155    1.9793 H   0  0  0  0  0  0  0  0  0  0  0  0
   -1.8413   -2.3478    1.0934 C   0  0  0  0  0  0  0  0  0  0  0  0
   -2.3391   -2.5470    0.1332 H   0  0  0  0  0  0  0  0  0  0  0  0
  1 10  1  0  0  0  0
  2  1  1  0  0  0  0
  3  1  1  0  0  0  0
  3  7  1  0  0  0  0
  4  3  1  0  0  0  0
  5  4  1  0  0  0  0
  6  4  1  0  0  0  0
  7  9  1  0  0  0  0
  8  7  1  0  0  0  0
 10 11  1  0  0  0  0
 10 33  1  0  0  0  0
 11 20  1  0  0  0  0
 12 14  1  0  0  0  0
 12 11  2  0  0  0  0
 13 12  1  0  0  0  0
 14 16  2  0  0  0  0
 15 14  1  0  0  0  0
 16 17  1  0  0  0  0
 16 18  1  0  0  0  0
 18 19  1  0  0  0  0
 20 18  2  0  0  0  0
 20 21  1  0  0  0  0
 22 31  1  0  0  0  0
 22 10  1  0  0  0  0
 23 22  2  0  0  0  0
 24 23  1  0  0  0  0
 25 27  2  0  0  0  0
 25 23  1  0  0  0  0
 26 25  1  0  0  0  0
 27 29  1  0  0  0  0
 28 27  1  0  0  0  0
 29 30  1  0  0  0  0
 29 31  2  0  0  0  0
 31 32  1  0  0  0  0
 33 34  1  0  0  0  0
 34 35  1  0  0  0  0
 34 36  2  0  0  0  0
 36 37  1  0  0  0  0
 38 36  1  0  0  0  0
 38 39  1  0  0  0  0
 40 38  2  0  0  0  0
 41 40  1  0  0  0  0
 42 33  2  0  0  0  0
 42 40  1  0  0  0  0
 43 42  1  0  0  0  0
M  END
