4
 OpenBabel05122313113D

 28 27  0  0  1  0  0  0  0  0999 V2000
   -2.5251    0.2620   -1.6612 S   0  0  0  0  0  1  0  0  0  0  0  0
   -1.6509    2.9385   -2.5189 S   0  0  0  0  0  0  0  0  0  0  0  0
   -0.0781    1.1356   -1.2227 N   0  0  0  0  0  0  0  0  0  0  0  0
    0.1061   -0.1251   -0.6484 C   0  0  0  0  0  2  0  0  0  0  0  0
   -1.3040    1.4802   -1.7882 C   0  0  0  0  0  0  0  0  0  0  0  0
    1.4154   -0.5403   -0.3512 C   0  0  1  0  0  3  0  0  0  0  0  0
    1.6991   -1.4574    0.7537 C   0  0  0  0  0  0  0  0  0  0  0  0
    1.0343   -1.6523    1.7741 O   0  0  0  0  0  0  0  0  0  0  0  0
    2.8959   -2.1059    0.5707 O   0  0  0  0  0  0  0  0  0  0  0  0
    3.3962   -2.8063    1.7074 C   0  0  0  0  0  0  0  0  0  0  0  0
    4.3487   -3.2680    1.3894 H   0  0  0  0  0  0  0  0  0  0  0  0
    2.6853   -3.5874    2.0456 H   0  0  0  0  0  0  0  0  0  0  0  0
    3.5732   -2.1079    2.5516 H   0  0  0  0  0  0  0  0  0  0  0  0
    2.5977   -0.1469   -1.1550 C   0  0  0  0  0  0  0  0  0  0  0  0
    2.6229   -0.1552   -2.5110 C   0  0  0  0  0  0  0  0  0  0  0  0
    1.7376   -0.4692   -3.0852 H   0  0  0  0  0  0  0  0  0  0  0  0
    3.5152    0.1755   -3.0609 H   0  0  0  0  0  0  0  0  0  0  0  0
    3.7848    0.3397   -0.3743 C   0  0  0  0  0  0  0  0  0  0  0  0
    3.7228    0.7756    0.7666 O   0  0  0  0  0  0  0  0  0  0  0  0
    4.9424    0.2884   -1.0785 O   0  0  0  0  0  0  0  0  0  0  0  0
    6.0887    0.8068   -0.3992 C   0  0  0  0  0  0  0  0  0  0  0  0
    6.9375    0.6953   -1.0975 H   0  0  0  0  0  0  0  0  0  0  0  0
    6.2811    0.2431    0.5363 H   0  0  0  0  0  0  0  0  0  0  0  0
    5.9450    1.8737   -0.1316 H   0  0  0  0  0  0  0  0  0  0  0  0
    0.9250    2.1971   -1.1253 C   0  0  0  0  0  0  0  0  0  0  0  0
    1.5844    1.9870   -0.2660 H   0  0  0  0  0  0  0  0  0  0  0  0
    0.3877    3.1529   -0.9821 H   0  0  0  0  0  0  0  0  0  0  0  0
    1.5284    2.2692   -2.0512 H   0  0  0  0  0  0  0  0  0  0  0  0
  2  5  2  0  0  0  0
  3 25  1  0  0  0  0
  3  4  1  0  0  0  0
  5  1  1  0  0  0  0
  5  3  1  0  0  0  0
  6  4  1  6  0  0  0
  6  7  1  0  0  0  0
  7  8  2  0  0  0  0
  9  7  1  0  0  0  0
  9 10  1  0  0  0  0
 10 12  1  0  0  0  0
 10 13  1  0  0  0  0
 11 10  1  0  0  0  0
 14 18  1  0  0  0  0
 14  6  1  0  0  0  0
 15 14  2  0  0  0  0
 16 15  1  0  0  0  0
 17 15  1  0  0  0  0
 18 19  2  0  0  0  0
 20 21  1  0  0  0  0
 20 18  1  0  0  0  0
 21 24  1  0  0  0  0
 21 23  1  0  0  0  0
 22 21  1  0  0  0  0
 25 27  1  0  0  0  0
 25 26  1  0  0  0  0
 28 25  1  0  0  0  0
M  END
