3
 OpenBabel05122313113D

 11 11  0  0  0  0  0  0  0  0999 V2000
   -0.0283    1.5599   -1.0921 C   0  0  0  0  0  0  0  0  0  0  0  0
   -1.4079    1.8911   -1.0049 C   0  0  0  0  0  0  0  0  0  0  0  0
   -2.1084    1.9159    0.2393 C   0  0  0  0  0  3  0  0  0  0  0  0
   -1.4524    1.5627    1.4536 C   0  0  0  0  0  3  0  0  0  0  0  0
   -0.0733    1.2126    1.4983 C   0  0  0  0  0  0  0  0  0  0  0  0
    0.6828    1.2008    0.1926 B   0  0  0  0  0  0  0  0  0  0  0  0
    0.3927    1.4786   -2.1060 H   0  0  0  0  0  0  0  0  0  0  0  0
   -1.9839    2.0923   -1.9223 H   0  0  0  0  0  0  0  0  0  0  0  0
   -3.1847    2.1349    0.2494 H   0  0  0  0  0  0  0  0  0  0  0  0
   -2.0598    1.5199    2.3718 H   0  0  0  0  0  0  0  0  0  0  0  0
    0.3191    0.8851    2.4734 H   0  0  0  0  0  0  0  0  0  0  0  0
  1  2  2  0  0  0  0
  1  6  1  0  0  0  0
  2  3  1  0  0  0  0
  3  9  1  0  0  0  0
  3  4  1  0  0  0  0
  4  5  1  0  0  0  0
  4 10  1  0  0  0  0
  5 11  1  0  0  0  0
  6  5  2  0  0  0  0
  7  1  1  0  0  0  0
  8  2  1  0  0  0  0
M  END
