3
 OpenBabel05122313113D

 51 52  0  0  1  0  0  0  0  0999 V2000
   -0.3888    2.2710   -0.2672 Si  0  0  0  0  0  0  0  0  0  0  0  0
    1.3105    1.5414    0.1419 C   0  0  1  0  0  3  0  0  0  0  0  0
    1.4768    0.8092    1.3945 C   0  0  1  0  0  3  0  0  0  0  0  0
    2.4391   -0.2416    1.1834 C   0  0  1  0  0  3  0  0  0  0  0  0
    2.8619   -0.1766   -0.1924 C   0  0  0  0  0  0  0  0  0  0  0  0
    2.2048    0.9385   -0.8137 C   0  0  0  0  0  0  0  0  0  0  0  0
    0.8725    1.1475    2.7269 C   0  0  0  0  0  0  0  0  0  0  0  0
    1.4157    1.9924    3.2018 H   0  0  0  0  0  0  0  0  0  0  0  0
   -0.1900    1.4379    2.6428 H   0  0  0  0  0  0  0  0  0  0  0  0
    0.9177    0.2858    3.4189 H   0  0  0  0  0  0  0  0  0  0  0  0
    2.9835   -1.1781    2.2189 C   0  0  0  0  0  0  0  0  0  0  0  0
    3.8770   -0.7449    2.7188 H   0  0  0  0  0  0  0  0  0  0  0  0
    2.2357   -1.4023    3.0034 H   0  0  0  0  0  0  0  0  0  0  0  0
    3.2871   -2.1430    1.7691 H   0  0  0  0  0  0  0  0  0  0  0  0
    3.9232   -1.0228   -0.8283 C   0  0  0  0  0  0  0  0  0  0  0  0
    4.9210   -0.5436   -0.7276 H   0  0  0  0  0  0  0  0  0  0  0  0
    3.9835   -2.0239   -0.3611 H   0  0  0  0  0  0  0  0  0  0  0  0
    3.7311   -1.1727   -1.9080 H   0  0  0  0  0  0  0  0  0  0  0  0
    2.5214    1.4164   -2.1984 C   0  0  0  0  0  0  0  0  0  0  0  0
    3.4784    1.9812   -2.1847 H   0  0  0  0  0  0  0  0  0  0  0  0
    2.6493    0.5778   -2.9106 H   0  0  0  0  0  0  0  0  0  0  0  0
    1.7512    2.0989   -2.5971 H   0  0  0  0  0  0  0  0  0  0  0  0
   -0.5414    3.0779   -1.9742 C   0  0  0  0  0  0  0  0  0  0  0  0
    0.1932    3.8990   -2.1050 H   0  0  0  0  0  0  0  0  0  0  0  0
   -0.4320    2.3642   -2.8124 H   0  0  0  0  0  0  0  0  0  0  0  0
   -1.5572    3.5193   -2.0491 H   0  0  0  0  0  0  0  0  0  0  0  0
   -0.9213    3.6127    0.9562 C   0  0  0  0  0  0  0  0  0  0  0  0
   -0.9298    3.3002    2.0156 H   0  0  0  0  0  0  0  0  0  0  0  0
   -0.2081    4.4582    0.8589 H   0  0  0  0  0  0  0  0  0  0  0  0
   -1.9302    3.9945    0.6975 H   0  0  0  0  0  0  0  0  0  0  0  0
   -1.3814    0.6511   -0.2225 C   0  0  1  0  0  3  0  0  0  0  0  0
   -2.5682    0.2928    0.6005 C   0  0  0  0  0  0  0  0  0  0  0  0
   -3.1289   -0.8695    0.1419 C   0  0  0  0  0  0  0  0  0  0  0  0
   -2.3598   -1.3880   -1.0547 C   0  0  2  0  0  0  0  0  0  0  0  0
   -1.9635   -2.4067   -0.8466 H   0  0  0  0  0  0  0  0  0  0  0  0
   -1.2213   -0.3864   -1.1948 C   0  0  2  0  0  3  0  0  0  0  0  0
   -3.0351    1.0938    1.7770 C   0  0  0  0  0  0  0  0  0  0  0  0
   -3.9494    0.6657    2.2291 H   0  0  0  0  0  0  0  0  0  0  0  0
   -2.2605    1.1265    2.5726 H   0  0  0  0  0  0  0  0  0  0  0  0
   -3.2553    2.1457    1.5026 H   0  0  0  0  0  0  0  0  0  0  0  0
   -4.2983   -1.6166    0.6934 C   0  0  0  0  0  0  0  0  0  0  0  0
   -4.7910   -1.0805    1.5266 H   0  0  0  0  0  0  0  0  0  0  0  0
   -5.0677   -1.8122   -0.0849 H   0  0  0  0  0  0  0  0  0  0  0  0
   -3.9806   -2.6113    1.0773 H   0  0  0  0  0  0  0  0  0  0  0  0
   -3.2056   -1.4481   -2.3411 C   0  0  0  0  0  0  0  0  0  0  0  0
   -4.0562   -2.1499   -2.2280 H   0  0  0  0  0  0  0  0  0  0  0  0
   -3.6142   -0.4466   -2.5858 H   0  0  0  0  0  0  0  0  0  0  0  0
   -2.5948   -1.7911   -3.1999 H   0  0  0  0  0  0  0  0  0  0  0  0
   -0.1211   -0.5086   -2.0845 C   0  0  0  0  0  3  0  0  0  0  0  0
   -0.0914   -1.3976   -2.7342 H   0  0  0  0  0  0  0  0  0  0  0  0
    0.3176    0.3853   -2.5463 H   0  0  0  0  0  0  0  0  0  0  0  0
  1 27  1  0  0  0  0
  2  1  1  6  0  0  0
  2  3  1  0  0  0  0
  3  7  1  1  0  0  0
  4  3  1  0  0  0  0
  4 11  1  1  0  0  0
  5  4  1  0  0  0  0
  6  5  2  0  0  0  0
  6  2  1  0  0  0  0
  7  8  1  0  0  0  0
  7 10  1  0  0  0  0
  9  7  1  0  0  0  0
 11 12  1  0  0  0  0
 11 13  1  0  0  0  0
 14 11  1  0  0  0  0
 15 16  1  0  0  0  0
 15 17  1  0  0  0  0
 15  5  1  0  0  0  0
 18 15  1  0  0  0  0
 19 20  1  0  0  0  0
 19  6  1  0  0  0  0
 21 19  1  0  0  0  0
 22 19  1  0  0  0  0
 23  1  1  0  0  0  0
 24 23  1  0  0  0  0
 25 23  1  0  0  0  0
 26 23  1  0  0  0  0
 27 28  1  0  0  0  0
 29 27  1  0  0  0  0
 30 27  1  0  0  0  0
 31  1  1  6  0  0  0
 31 32  1  0  0  0  0
 32 37  1  0  0  0  0
 33 32  2  0  0  0  0
 33 41  1  0  0  0  0
 34 35  1  1  0  0  0
 34 33  1  0  0  0  0
 36 49  1  1  0  0  0
 36 34  1  0  0  0  0
 36 31  1  0  0  0  0
 37 38  1  0  0  0  0
 37 39  1  0  0  0  0
 40 37  1  0  0  0  0
 41 44  1  0  0  0  0
 41 42  1  0  0  0  0
 43 41  1  0  0  0  0
 45 46  1  0  0  0  0
 45 34  1  0  0  0  0
 47 45  1  0  0  0  0
 48 45  1  0  0  0  0
 50 49  1  0  0  0  0
 51 49  1  0  0  0  0
M  END
