13
 OpenBabel05122313113D

 25 26  0  0  0  0  0  0  0  0999 V2000
    1.8216    1.6068    0.3055 C   0  0  0  0  0  0  0  0  0  0  0  0
    2.8407    1.1053   -0.4905 C   0  0  0  0  0  0  0  0  0  0  0  0
    3.5492    1.8090   -0.9548 H   0  0  0  0  0  0  0  0  0  0  0  0
    2.9822   -0.2809   -0.7419 C   0  0  0  0  0  0  0  0  0  0  0  0
    3.7942   -0.6277   -1.3993 H   0  0  0  0  0  0  0  0  0  0  0  0
    2.1345   -1.2170   -0.1579 C   0  0  0  0  0  0  0  0  0  0  0  0
    1.0837   -0.7519    0.7051 C   0  0  0  0  0  0  0  0  0  0  0  0
    0.3411   -1.7149    1.6220 C   0  0  0  0  0  0  0  0  0  0  0  0
    0.3258   -2.7265    1.1774 H   0  0  0  0  0  0  0  0  0  0  0  0
    0.8571   -1.8095    2.6102 H   0  0  0  0  0  0  0  0  0  0  0  0
   -1.0699   -1.1918    1.7385 C   0  0  0  0  0  3  0  0  0  0  0  0
   -1.8886   -1.8953    1.9505 H   0  0  0  0  0  0  0  0  0  0  0  0
   -1.2708    0.1803    2.0183 C   0  0  0  0  0  3  0  0  0  0  0  0
   -2.2255    0.5410    2.4316 H   0  0  0  0  0  0  0  0  0  0  0  0
   -0.3002    1.1302    1.5881 C   0  0  0  0  0  3  0  0  0  0  0  0
   -0.4583    2.2007    1.7620 H   0  0  0  0  0  0  0  0  0  0  0  0
    0.8982    0.6684    0.9033 C   0  0  0  0  0  0  0  0  0  0  0  0
    1.6387    3.0843    0.5076 C   0  0  0  0  0  0  0  0  0  0  0  0
    1.5970    3.3572    1.5828 H   0  0  0  0  0  0  0  0  0  0  0  0
    0.6891    3.4352    0.0483 H   0  0  0  0  0  0  0  0  0  0  0  0
    2.4649    3.6538    0.0419 H   0  0  0  0  0  0  0  0  0  0  0  0
    2.3277   -2.6904   -0.4021 C   0  0  0  0  0  0  0  0  0  0  0  0
    1.4104   -3.1511   -0.8256 H   0  0  0  0  0  0  0  0  0  0  0  0
    2.5638   -3.2406    0.5329 H   0  0  0  0  0  0  0  0  0  0  0  0
    3.1556   -2.8669   -1.1144 H   0  0  0  0  0  0  0  0  0  0  0  0
  1 18  1  0  0  0  0
  1 17  1  0  0  0  0
  2  1  2  0  0  0  0
  3  2  1  0  0  0  0
  4  2  1  0  0  0  0
  4  6  2  0  0  0  0
  5  4  1  0  0  0  0
  6  7  1  0  0  0  0
  7 17  2  0  0  0  0
  7  8  1  0  0  0  0
  8 11  1  0  0  0  0
  8 10  1  0  0  0  0
  9  8  1  0  0  0  0
 11 12  1  0  0  0  0
 11 13  1  0  0  0  0
 13 14  1  0  0  0  0
 15 16  1  0  0  0  0
 15 13  1  0  0  0  0
 17 15  1  0  0  0  0
 18 19  1  0  0  0  0
 20 18  1  0  0  0  0
 21 18  1  0  0  0  0
 22  6  1  0  0  0  0
 22 24  1  0  0  0  0
 23 22  1  0  0  0  0
 25 22  1  0  0  0  0
M  END
