2
 OpenBabel05122313113D

 17 17  0  0  0  0  0  0  0  0999 V2000
   -0.7488   -1.6873   -0.0139 N   0  0  0  0  0  0  0  0  0  0  0  0
   -1.6131   -0.7749   -0.0275 C   0  0  0  0  0  3  0  0  0  0  0  0
   -3.0665   -0.6856   -0.0314 C   0  0  0  0  0  0  0  0  0  0  0  0
   -3.8571   -1.8375    0.2023 C   0  0  0  0  0  0  0  0  0  0  0  0
   -3.3498   -2.7963    0.3874 H   0  0  0  0  0  0  0  0  0  0  0  0
   -5.2529   -1.7308    0.1942 C   0  0  0  0  0  0  0  0  0  0  0  0
   -5.8670   -2.6252    0.3798 H   0  0  0  0  0  0  0  0  0  0  0  0
   -5.8717   -0.4930   -0.0544 C   0  0  0  0  0  0  0  0  0  0  0  0
   -6.9701   -0.4190   -0.0621 H   0  0  0  0  0  0  0  0  0  0  0  0
   -5.0907    0.6501   -0.2958 C   0  0  0  0  0  0  0  0  0  0  0  0
   -5.5752    1.6178   -0.4959 H   0  0  0  0  0  0  0  0  0  0  0  0
   -3.6944    0.5546   -0.2794 C   0  0  0  0  0  0  0  0  0  0  0  0
   -3.0631    1.4349   -0.4669 H   0  0  0  0  0  0  0  0  0  0  0  0
   -0.4310   -3.2515   -0.0372 B   0  0  0  0  0  0  0  0  0  0  0  0
   -0.1813   -3.5815   -1.3697 F   0  0  0  0  0  0  0  0  0  0  0  0
    0.6955   -3.4429    0.7714 F   0  0  0  0  0  0  0  0  0  0  0  0
   -1.5494   -3.9179    0.4714 F   0  0  0  0  0  0  0  0  0  0  0  0
  2  1  2  0  0  0  0
  3  2  1  0  0  0  0
  3  4  1  0  0  0  0
  4  5  1  0  0  0  0
  6  4  2  0  0  0  0
  6  7  1  0  0  0  0
  8  6  1  0  0  0  0
  9  8  1  0  0  0  0
 10 12  1  0  0  0  0
 10  8  2  0  0  0  0
 11 10  1  0  0  0  0
 12  3  2  0  0  0  0
 13 12  1  0  0  0  0
 14  1  1  0  0  0  0
 14 17  1  0  0  0  0
 14 16  1  0  0  0  0
 15 14  1  0  0  0  0
M  END
