7
 OpenBabel05122313113D

 61 65  0  0  1  0  0  0  0  0999 V2000
   -4.5338    0.5887    0.4683 O   0  0  0  0  0  0  0  0  0  0  0  0
    6.2495    0.7361   -0.7655 O   0  0  0  0  0  0  0  0  0  0  0  0
   -1.3507    0.3737   -1.0785 C   0  0  0  0  0  3  0  0  0  0  0  0
   -2.5208    1.2476   -0.6506 C   0  0  1  0  0  0  0  0  0  0  0  0
   -3.2010    0.3950    0.3966 C   0  0  1  0  0  3  0  0  0  0  0  0
   -2.4494   -0.3394    1.3287 C   0  0  0  0  0  3  0  0  0  0  0  0
   -1.0369   -0.5950    1.1397 C   0  0  2  0  0  3  0  0  0  0  0  0
   -0.2241   -1.2101    2.2523 C   0  0  0  0  0  0  0  0  0  0  0  0
    1.1347   -1.7147    1.7654 C   0  0  0  0  0  0  0  0  0  0  0  0
    1.8149   -0.6262    0.9296 C   0  0  2  0  0  0  0  0  0  0  0  0
    1.0296   -0.3941   -0.3864 C   0  0  1  0  0  0  0  0  0  0  0  0
   -0.4583   -0.1775   -0.1070 C   0  0  1  0  0  3  0  0  0  0  0  0
    1.6463    0.7466   -1.2240 C   0  0  0  0  0  0  0  0  0  0  0  0
    3.1461    0.5301   -1.4888 C   0  0  0  0  0  0  0  0  0  0  0  0
    3.9225    0.2871   -0.1864 C   0  0  1  0  0  0  0  0  0  0  0  0
    3.2732   -0.8991    0.5697 C   0  0  1  0  0  0  0  0  0  0  0  0
    4.2954   -1.2515    1.6655 C   0  0  0  0  0  0  0  0  0  0  0  0
    5.6719   -0.9419    1.0103 C   0  0  0  0  0  0  0  0  0  0  0  0
    5.3492   -0.2745   -0.3619 C   0  0  2  0  0  0  0  0  0  0  0  0
    3.9868    1.5825    0.6459 C   0  0  0  0  0  0  0  0  0  0  0  0
    7.5134    0.2547   -1.1535 C   0  0  0  0  0  0  0  0  0  0  0  0
   -5.2912   -0.2167    1.3620 C   0  0  0  0  0  0  0  0  0  0  0  0
   -2.1568    2.6653   -0.2255 C   0  0  0  0  0  0  0  0  0  0  0  0
   -1.4299    2.9202    0.9558 C   0  0  0  0  0  0  0  0  0  0  0  0
   -1.0578    4.2280    1.2987 C   0  0  0  0  0  0  0  0  0  0  0  0
   -1.4038    5.3040    0.4648 C   0  0  0  0  0  0  0  0  0  0  0  0
   -2.1280    5.0624   -0.7126 C   0  0  0  0  0  0  0  0  0  0  0  0
   -2.5007    3.7526   -1.0513 C   0  0  0  0  0  0  0  0  0  0  0  0
   -0.9616    0.5381   -2.0934 H   0  0  0  0  0  0  0  0  0  0  0  0
   -3.2297    1.3223   -1.4992 H   0  0  0  0  0  0  0  0  0  0  0  0
   -2.9356   -0.7802    2.2104 H   0  0  0  0  0  0  0  0  0  0  0  0
   -0.8093   -2.0190    2.7368 H   0  0  0  0  0  0  0  0  0  0  0  0
   -0.0607   -0.4341    3.0360 H   0  0  0  0  0  0  0  0  0  0  0  0
    1.0057   -2.6331    1.1514 H   0  0  0  0  0  0  0  0  0  0  0  0
    1.7642   -1.9921    2.6349 H   0  0  0  0  0  0  0  0  0  0  0  0
    1.7756    0.3155    1.5261 H   0  0  0  0  0  0  0  0  0  0  0  0
    1.1482   -1.3267   -0.9812 H   0  0  0  0  0  0  0  0  0  0  0  0
    1.4713    1.7142   -0.7063 H   0  0  0  0  0  0  0  0  0  0  0  0
    1.1173    0.8271   -2.1945 H   0  0  0  0  0  0  0  0  0  0  0  0
    3.5715    1.3941   -2.0404 H   0  0  0  0  0  0  0  0  0  0  0  0
    3.2710   -0.3597   -2.1456 H   0  0  0  0  0  0  0  0  0  0  0  0
    3.2652   -1.7531   -0.1496 H   0  0  0  0  0  0  0  0  0  0  0  0
    4.2093   -2.3059    1.9933 H   0  0  0  0  0  0  0  0  0  0  0  0
    4.1323   -0.6241    2.5666 H   0  0  0  0  0  0  0  0  0  0  0  0
    6.2896   -1.8531    0.8893 H   0  0  0  0  0  0  0  0  0  0  0  0
    6.2640   -0.2273    1.6176 H   0  0  0  0  0  0  0  0  0  0  0  0
    5.3111   -1.0661   -1.1539 H   0  0  0  0  0  0  0  0  0  0  0  0
    4.6150    2.3221    0.1140 H   0  0  0  0  0  0  0  0  0  0  0  0
    4.4402    1.4242    1.6438 H   0  0  0  0  0  0  0  0  0  0  0  0
    2.9865    2.0289    0.8025 H   0  0  0  0  0  0  0  0  0  0  0  0
    8.1060    1.1188   -1.5129 H   0  0  0  0  0  0  0  0  0  0  0  0
    7.4389   -0.4937   -1.9809 H   0  0  0  0  0  0  0  0  0  0  0  0
    8.0694   -0.2249   -0.3125 H   0  0  0  0  0  0  0  0  0  0  0  0
   -6.3538    0.0129    1.1645 H   0  0  0  0  0  0  0  0  0  0  0  0
   -5.0605    0.0183    2.4238 H   0  0  0  0  0  0  0  0  0  0  0  0
   -5.1014   -1.2966    1.1757 H   0  0  0  0  0  0  0  0  0  0  0  0
   -1.1525    2.0841    1.6143 H   0  0  0  0  0  0  0  0  0  0  0  0
   -0.4919    4.4095    2.2255 H   0  0  0  0  0  0  0  0  0  0  0  0
   -1.1099    6.3299    0.7339 H   0  0  0  0  0  0  0  0  0  0  0  0
   -2.4070    5.8991   -1.3713 H   0  0  0  0  0  0  0  0  0  0  0  0
   -3.0704    3.5653   -1.9757 H   0  0  0  0  0  0  0  0  0  0  0  0
  1 22  1  0  0  0  0
  2 19  1  0  0  0  0
  3  4  1  0  0  0  0
  4 30  1  6  0  0  0
  4 23  1  0  0  0  0
  4  5  1  0  0  0  0
  5  1  1  1  0  0  0
  5  6  1  0  0  0  0
  6 31  1  0  0  0  0
  7  6  1  1  0  0  0
  7  8  1  0  0  0  0
  8 32  1  0  0  0  0
  8 33  1  0  0  0  0
  9  8  1  0  0  0  0
  9 35  1  0  0  0  0
 10 36  1  1  0  0  0
 10  9  1  0  0  0  0
 11 37  1  6  0  0  0
 11 12  1  0  0  0  0
 11 10  1  0  0  0  0
 12  3  1  6  0  0  0
 12  7  1  0  0  0  0
 13 38  1  0  0  0  0
 13 11  1  0  0  0  0
 14 13  1  0  0  0  0
 14 15  1  0  0  0  0
 15 16  1  0  0  0  0
 15 20  1  1  0  0  0
 16 42  1  6  0  0  0
 16 10  1  0  0  0  0
 16 17  1  0  0  0  0
 17 43  1  0  0  0  0
 17 44  1  0  0  0  0
 18 46  1  0  0  0  0
 18 17  1  0  0  0  0
 19 47  1  6  0  0  0
 19 15  1  0  0  0  0
 19 18  1  0  0  0  0
 20 50  1  0  0  0  0
 20 49  1  0  0  0  0
 21  2  1  0  0  0  0
 21 53  1  0  0  0  0
 22 55  1  0  0  0  0
 23 24  1  0  0  0  0
 24 25  2  0  0  0  0
 24 57  1  0  0  0  0
 25 58  1  0  0  0  0
 26 59  1  0  0  0  0
 26 25  1  0  0  0  0
 27 26  2  0  0  0  0
 28 27  1  0  0  0  0
 28 23  2  0  0  0  0
 29  3  1  0  0  0  0
 34  9  1  0  0  0  0
 39 13  1  0  0  0  0
 40 14  1  0  0  0  0
 41 14  1  0  0  0  0
 45 18  1  0  0  0  0
 48 20  1  0  0  0  0
 51 21  1  0  0  0  0
 52 21  1  0  0  0  0
 54 22  1  0  0  0  0
 56 22  1  0  0  0  0
 60 27  1  0  0  0  0
 61 28  1  0  0  0  0
M  END
