5
 OpenBabel05122313113D

 29 30  0  0  0  0  0  0  0  0999 V2000
   -2.8368   -0.5386    0.0154 N   0  3  0  0  0  0  0  0  0  0  0  0
   -1.2301    0.2740    0.0592 B   0  0  0  0  0  0  0  0  0  0  0  0
   -0.4010   -0.1032   -1.2537 C   0  0  0  0  0  3  0  0  0  0  0  0
    0.3573   -1.2930   -1.3459 C   0  0  0  0  0  3  0  0  0  0  0  0
    0.7290   -2.0334   -0.1740 C   0  0  0  0  0  3  0  0  0  0  0  0
    0.3824   -1.5111    1.1185 C   0  0  0  0  0  3  0  0  0  0  0  0
   -0.3627   -0.3170    1.2584 C   0  0  0  0  0  3  0  0  0  0  0  0
   -1.7794    1.8174    0.1389 C   0  0  0  0  0  0  0  0  0  0  0  0
   -3.2900    1.8346   -0.2044 C   0  0  0  0  0  0  0  0  0  0  0  0
   -3.6274    0.4531   -0.7663 C   0  0  0  0  0  0  0  0  0  0  0  0
   -3.3413   -0.6621    1.3982 C   0  0  0  0  0  0  0  0  0  0  0  0
   -2.8308   -1.8639   -0.6265 C   0  0  0  0  0  0  0  0  0  0  0  0
   -0.4642    0.4883   -2.1847 H   0  0  0  0  0  0  0  0  0  0  0  0
    0.7797   -1.6262   -2.3098 H   0  0  0  0  0  0  0  0  0  0  0  0
    1.3482   -2.9370   -0.2593 H   0  0  0  0  0  0  0  0  0  0  0  0
    0.8256   -2.0091    1.9983 H   0  0  0  0  0  0  0  0  0  0  0  0
   -0.3954    0.1009    2.2804 H   0  0  0  0  0  0  0  0  0  0  0  0
   -1.6007    2.2781    1.1324 H   0  0  0  0  0  0  0  0  0  0  0  0
   -1.2194    2.4489   -0.5787 H   0  0  0  0  0  0  0  0  0  0  0  0
   -3.5673    2.6125   -0.9443 H   0  0  0  0  0  0  0  0  0  0  0  0
   -3.9147    2.0398    0.6901 H   0  0  0  0  0  0  0  0  0  0  0  0
   -4.7097    0.1955   -0.7443 H   0  0  0  0  0  0  0  0  0  0  0  0
   -3.2781    0.3671   -1.8153 H   0  0  0  0  0  0  0  0  0  0  0  0
   -3.2831    0.3137    1.9112 H   0  0  0  0  0  0  0  0  0  0  0  0
   -2.7048   -1.3783    1.9487 H   0  0  0  0  0  0  0  0  0  0  0  0
   -4.3932   -1.0200    1.4030 H   0  0  0  0  0  0  0  0  0  0  0  0
   -3.8544   -2.2955   -0.6513 H   0  0  0  0  0  0  0  0  0  0  0  0
   -2.1602   -2.5382   -0.0626 H   0  0  0  0  0  0  0  0  0  0  0  0
   -2.4432   -1.7704   -1.6564 H   0  0  0  0  0  0  0  0  0  0  0  0
  1  2  1  0  0  0  0
  1 11  1  0  0  0  0
  2  8  1  0  0  0  0
  2  7  1  0  0  0  0
  3  2  1  0  0  0  0
  4  3  1  0  0  0  0
  4  5  1  0  0  0  0
  5  6  1  0  0  0  0
  6  7  1  0  0  0  0
  6 16  1  0  0  0  0
  7 17  1  0  0  0  0
  8 18  1  0  0  0  0
  9  8  1  0  0  0  0
  9 21  1  0  0  0  0
 10 22  1  0  0  0  0
 10  9  1  0  0  0  0
 10  1  1  0  0  0  0
 11 26  1  0  0  0  0
 11 24  1  0  0  0  0
 11 25  1  0  0  0  0
 12 28  1  0  0  0  0
 12  1  1  0  0  0  0
 13  3  1  0  0  0  0
 14  4  1  0  0  0  0
 15  5  1  0  0  0  0
 19  8  1  0  0  0  0
 20  9  1  0  0  0  0
 23 10  1  0  0  0  0
 27 12  1  0  0  0  0
 29 12  1  0  0  0  0
M  CHG  1   1   1
M  END
