6
 OpenBabel05122313113D

 54 57  0  0  1  0  0  0  0  0999 V2000
   -4.9689   -0.8512    0.1492 O   0  0  0  0  0  0  0  0  0  0  0  0
    5.7390    0.8480   -0.9799 O   0  0  0  0  0  0  0  0  0  0  0  0
   -1.6289   -1.3848   -1.5274 C   0  0  1  0  0  0  0  0  0  0  0  0
   -2.9714   -0.7101   -1.3013 C   0  0  0  0  0  3  0  0  0  0  0  0
   -3.6336   -0.9308   -0.0677 C   0  0  1  0  0  3  0  0  0  0  0  0
   -2.8271   -1.1249    1.1011 C   0  0  0  0  0  3  0  0  0  0  0  0
   -1.3995   -1.1657    0.9745 C   0  0  2  0  0  3  0  0  0  0  0  0
   -0.5809   -1.3660    2.2400 C   0  0  0  0  0  0  0  0  0  0  0  0
    0.8920   -1.6640    1.9583 C   0  0  0  0  0  0  0  0  0  0  0  0
    1.4404   -0.7003    0.9055 C   0  0  2  0  0  0  0  0  0  0  0  0
    0.7138   -0.9376   -0.4415 C   0  0  1  0  0  0  0  0  0  0  0  0
   -0.8011   -0.9807   -0.3062 C   0  0  1  0  0  3  0  0  0  0  0  0
    1.2293    0.0192   -1.5370 C   0  0  0  0  0  0  0  0  0  0  0  0
    2.7563   -0.0408   -1.7034 C   0  0  0  0  0  0  0  0  0  0  0  0
    3.4681    0.2049   -0.3653 C   0  0  1  0  0  0  0  0  0  0  0  0
    2.9449   -0.8204    0.6700 C   0  0  1  0  0  0  0  0  0  0  0  0
    3.9278   -0.6977    1.8489 C   0  0  0  0  0  0  0  0  0  0  0  0
    5.2883   -0.3640    1.1726 C   0  0  0  0  0  0  0  0  0  0  0  0
    4.9697   -0.1480   -0.3390 C   0  0  2  0  0  0  0  0  0  0  0  0
    3.2832    1.6684    0.0815 C   0  0  0  0  0  0  0  0  0  0  0  0
    7.0851    0.4917   -1.1786 C   0  0  0  0  0  0  0  0  0  0  0  0
   -5.8014   -0.4444   -0.9274 C   0  0  0  0  0  0  0  0  0  0  0  0
   -1.7003   -2.9015   -1.7698 C   0  0  0  0  0  0  0  0  0  0  0  0
   -1.1751   -0.9087   -2.4194 H   0  0  0  0  0  0  0  0  0  0  0  0
   -3.5638   -0.4078   -2.1764 H   0  0  0  0  0  0  0  0  0  0  0  0
   -3.3175   -1.2542    2.0749 H   0  0  0  0  0  0  0  0  0  0  0  0
   -1.0458   -2.2001    2.8065 H   0  0  0  0  0  0  0  0  0  0  0  0
   -0.6683   -0.4738    2.8939 H   0  0  0  0  0  0  0  0  0  0  0  0
    1.0122   -2.7080    1.5905 H   0  0  0  0  0  0  0  0  0  0  0  0
    1.4723   -1.5925    2.9003 H   0  0  0  0  0  0  0  0  0  0  0  0
    1.2215    0.3354    1.2482 H   0  0  0  0  0  0  0  0  0  0  0  0
    1.0121   -1.9682   -0.7648 H   0  0  0  0  0  0  0  0  0  0  0  0
    0.9165    1.0508   -1.2808 H   0  0  0  0  0  0  0  0  0  0  0  0
    0.7435   -0.2099   -2.5072 H   0  0  0  0  0  0  0  0  0  0  0  0
    3.0918    0.6947   -2.4639 H   0  0  0  0  0  0  0  0  0  0  0  0
    3.0479   -1.0465   -2.0816 H   0  0  0  0  0  0  0  0  0  0  0  0
    3.1131   -1.8269    0.2148 H   0  0  0  0  0  0  0  0  0  0  0  0
    3.9722   -1.6234    2.4555 H   0  0  0  0  0  0  0  0  0  0  0  0
    3.6116    0.1166    2.5333 H   0  0  0  0  0  0  0  0  0  0  0  0
    6.0369   -1.1659    1.3246 H   0  0  0  0  0  0  0  0  0  0  0  0
    5.7284    0.5706    1.5760 H   0  0  0  0  0  0  0  0  0  0  0  0
    5.1046   -1.1185   -0.8834 H   0  0  0  0  0  0  0  0  0  0  0  0
    3.7964    2.3347   -0.6376 H   0  0  0  0  0  0  0  0  0  0  0  0
    3.7214    1.8643    1.0792 H   0  0  0  0  0  0  0  0  0  0  0  0
    2.2179    1.9626    0.1281 H   0  0  0  0  0  0  0  0  0  0  0  0
    7.5694    1.3108   -1.7458 H   0  0  0  0  0  0  0  0  0  0  0  0
    7.1843   -0.4545   -1.7668 H   0  0  0  0  0  0  0  0  0  0  0  0
    7.6415    0.3538   -0.2204 H   0  0  0  0  0  0  0  0  0  0  0  0
   -6.8382   -0.4838   -0.5471 H   0  0  0  0  0  0  0  0  0  0  0  0
   -5.7052   -1.1240   -1.8021 H   0  0  0  0  0  0  0  0  0  0  0  0
   -5.5729    0.5963   -1.2437 H   0  0  0  0  0  0  0  0  0  0  0  0
   -2.3228   -3.1305   -2.6595 H   0  0  0  0  0  0  0  0  0  0  0  0
   -0.6921   -3.3299   -1.9451 H   0  0  0  0  0  0  0  0  0  0  0  0
   -2.1470   -3.4176   -0.8959 H   0  0  0  0  0  0  0  0  0  0  0  0
  2 19  1  0  0  0  0
  3 24  1  6  0  0  0
  3  4  1  0  0  0  0
  3 12  1  0  0  0  0
  4  5  1  0  0  0  0
  5  1  1  1  0  0  0
  5  6  1  0  0  0  0
  6 26  1  0  0  0  0
  7  6  1  1  0  0  0
  7  8  1  0  0  0  0
  8 27  1  0  0  0  0
  8 28  1  0  0  0  0
  9  8  1  0  0  0  0
  9 30  1  0  0  0  0
 10 31  1  1  0  0  0
 10  9  1  0  0  0  0
 11 32  1  6  0  0  0
 11 12  1  0  0  0  0
 11 10  1  0  0  0  0
 12  7  1  0  0  0  0
 13 33  1  0  0  0  0
 13 11  1  0  0  0  0
 14 13  1  0  0  0  0
 14 15  1  0  0  0  0
 15 19  1  0  0  0  0
 15 20  1  0  0  0  0
 15 16  1  0  0  0  0
 16 10  1  0  0  0  0
 16 17  1  0  0  0  0
 17 38  1  0  0  0  0
 17 39  1  0  0  0  0
 18 40  1  0  0  0  0
 18 41  1  0  0  0  0
 18 17  1  0  0  0  0
 19 18  1  0  0  0  0
 20 45  1  0  0  0  0
 20 44  1  0  0  0  0
 21  2  1  0  0  0  0
 21 48  1  0  0  0  0
 22 49  1  0  0  0  0
 22  1  1  0  0  0  0
 23  3  1  0  0  0  0
 23 54  1  0  0  0  0
 25  4  1  0  0  0  0
 29  9  1  0  0  0  0
 34 13  1  0  0  0  0
 35 14  1  0  0  0  0
 36 14  1  0  0  0  0
 37 16  1  0  0  0  0
 42 19  1  0  0  0  0
 43 20  1  0  0  0  0
 46 21  1  0  0  0  0
 47 21  1  0  0  0  0
 50 22  1  0  0  0  0
 51 22  1  0  0  0  0
 52 23  1  0  0  0  0
 53 23  1  0  0  0  0
M  END
