5
 OpenBabel05122313113D

 31 31  0  0  1  0  0  0  0  0999 V2000
   -1.1653    1.4346   -2.0568 S   0  0  0  0  0  1  0  0  0  0  0  0
    2.0950    1.9580    0.7042 N   0  0  0  0  0  4  0  0  0  0  0  0
   -3.6710    2.2401   -1.0300 C   0  0  0  0  0  0  0  0  0  0  0  0
   -2.2088    2.0047   -0.7641 C   0  0  1  0  0  3  0  0  0  0  0  0
   -1.6772    2.2279    0.5464 C   0  0  0  0  0  3  0  0  0  0  0  0
   -0.3106    1.9990    0.9720 C   0  0  0  0  0  3  0  0  0  0  0  0
    0.8662    2.0420    0.1862 C   0  0  0  0  0  0  0  0  0  0  0  0
    3.3358    1.9092   -0.0869 C   0  0  1  0  0  0  0  0  0  0  0  0
    4.3652    2.8807    0.4997 C   0  0  0  0  0  0  0  0  0  0  0  0
    3.8738    0.4880   -0.2088 C   0  0  0  0  0  0  0  0  0  0  0  0
    4.2405   -0.2494    0.9358 C   0  0  0  0  0  0  0  0  0  0  0  0
    4.7580   -1.5476    0.8130 C   0  0  0  0  0  0  0  0  0  0  0  0
    4.9238   -2.1224   -0.4584 C   0  0  0  0  0  0  0  0  0  0  0  0
    4.5695   -1.3928   -1.6033 C   0  0  0  0  0  0  0  0  0  0  0  0
    4.0439   -0.0966   -1.4772 C   0  0  0  0  0  0  0  0  0  0  0  0
    2.1952    1.8626    1.7208 H   0  0  0  0  0  0  0  0  0  0  0  0
   -4.0858    1.4549   -1.6898 H   0  0  0  0  0  0  0  0  0  0  0  0
   -3.7952    3.2065   -1.5617 H   0  0  0  0  0  0  0  0  0  0  0  0
   -4.2603    2.2933   -0.0933 H   0  0  0  0  0  0  0  0  0  0  0  0
   -2.4026    2.4785    1.3385 H   0  0  0  0  0  0  0  0  0  0  0  0
   -0.1669    1.9578    2.0673 H   0  0  0  0  0  0  0  0  0  0  0  0
    0.7924    2.2083   -0.9006 H   0  0  0  0  0  0  0  0  0  0  0  0
    3.0527    2.2531   -1.1025 H   0  0  0  0  0  0  0  0  0  0  0  0
    3.9661    3.9135    0.5270 H   0  0  0  0  0  0  0  0  0  0  0  0
    5.2852    2.8719   -0.1149 H   0  0  0  0  0  0  0  0  0  0  0  0
    4.6546    2.5860    1.5295 H   0  0  0  0  0  0  0  0  0  0  0  0
    4.1420    0.1949    1.9399 H   0  0  0  0  0  0  0  0  0  0  0  0
    5.0464   -2.1098    1.7139 H   0  0  0  0  0  0  0  0  0  0  0  0
    5.3395   -3.1364   -0.5553 H   0  0  0  0  0  0  0  0  0  0  0  0
    4.7063   -1.8326   -2.6026 H   0  0  0  0  0  0  0  0  0  0  0  0
    3.7695    0.4738   -2.3791 H   0  0  0  0  0  0  0  0  0  0  0  0
  2 16  1  0  0  0  0
  3  4  1  0  0  0  0
  3 19  1  0  0  0  0
  4  1  1  1  0  0  0
  4  5  1  0  0  0  0
  5  6  1  0  0  0  0
  5 20  1  0  0  0  0
  6 21  1  0  0  0  0
  7  2  2  0  0  0  0
  7  6  1  0  0  0  0
  8 23  1  6  0  0  0
  8  9  1  0  0  0  0
  8  2  1  0  0  0  0
  9 24  1  0  0  0  0
  9 26  1  0  0  0  0
 10  8  1  0  0  0  0
 10 11  1  0  0  0  0
 11 27  1  0  0  0  0
 12 11  2  0  0  0  0
 12 28  1  0  0  0  0
 13 12  1  0  0  0  0
 14 15  1  0  0  0  0
 14 13  2  0  0  0  0
 15 10  2  0  0  0  0
 17  3  1  0  0  0  0
 18  3  1  0  0  0  0
 22  7  1  0  0  0  0
 25  9  1  0  0  0  0
 29 13  1  0  0  0  0
 30 14  1  0  0  0  0
 31 15  1  0  0  0  0
M  END
