28
 OpenBabel05122313113D

 33 37  0  0  1  0  0  0  0  0999 V2000
    0.2616    0.8404   -1.2198 Se  0  0  0  0  0  1  0  0  0  0  0  0
    2.3622    2.1851    2.0235 O   0  0  0  0  0  0  0  0  0  0  0  0
    2.5989    2.2516   -0.2355 O   0  0  0  0  0  0  0  0  0  0  0  0
   -2.5992   -0.6188   -1.3354 B   0  0  0  0  0  0  0  0  0  0  0  0
   -2.1362   -1.3478   -2.1728 H   0  0  0  0  0  0  0  0  0  0  0  0
   -2.9379    1.1169   -1.5865 B   0  0  1  0  0  0  0  0  0  0  0  0
   -2.7319    1.5746   -2.6837 H   0  0  0  0  0  0  0  0  0  0  0  0
   -2.3953    2.0006   -0.1332 B   0  0  1  0  0  0  0  0  0  0  0  0
   -1.8024    3.0459   -0.2500 H   0  0  0  0  0  0  0  0  0  0  0  0
   -1.7069    0.8269    1.0299 B   0  0  0  0  0  0  0  0  0  0  0  0
   -3.5573   -1.1692    0.0636 B   0  0  0  0  0  0  0  0  0  0  0  0
   -3.8246   -2.3421    0.1365 H   0  0  0  0  0  0  0  0  0  0  0  0
   -4.2397    0.0076   -1.0974 B   0  0  0  0  0  0  0  0  0  0  0  0
   -5.1172   -0.3081   -1.8647 H   0  0  0  0  0  0  0  0  0  0  0  0
   -4.1174    1.6376   -0.3518 B   0  0  2  0  0  0  0  0  0  0  0  0
   -4.9088    2.5167   -0.5980 H   0  0  0  0  0  0  0  0  0  0  0  0
   -3.3562    1.4607    1.2609 B   0  0  0  0  0  2  0  0  0  0  0  0
   -3.5775    2.2010    2.1899 H   0  0  0  0  0  0  0  0  0  0  0  0
   -3.0172   -0.2719    1.5114 B   0  0  1  0  0  0  0  0  0  0  0  0
   -2.8994   -0.8395    2.5679 H   0  0  0  0  0  0  0  0  0  0  0  0
   -4.5003    0.2208    0.6652 B   0  0  2  0  0  0  0  0  0  0  0  0
   -5.5844    0.0489    1.1702 H   0  0  0  0  0  0  0  0  0  0  0  0
   -1.6044    0.5959   -0.6763 C   0  0  2  0  0  0  0  0  0  0  0  0
   -1.9297   -0.7148    0.2684 C   0  0  1  0  0  0  0  0  0  0  0  0
   -0.2852    1.0320    1.6968 C   0  0  0  0  0  0  0  0  0  0  0  0
   -0.2293    2.0121    2.2112 H   0  0  0  0  0  0  0  0  0  0  0  0
   -0.1438    0.2440    2.4686 H   0  0  0  0  0  0  0  0  0  0  0  0
    0.8397    0.9175    0.6778 C   0  0  2  0  0  3  0  0  0  0  0  0
    1.9864    1.8391    0.9161 C   0  0  0  0  0  0  0  0  0  0  0  0
    3.7238    3.1193   -0.0543 C   0  0  0  0  0  0  0  0  0  0  0  0
    3.4451    4.0040    0.5518 H   0  0  0  0  0  0  0  0  0  0  0  0
    4.0393    3.4278   -1.0669 H   0  0  0  0  0  0  0  0  0  0  0  0
    4.5527    2.5932    0.4628 H   0  0  0  0  0  0  0  0  0  0  0  0
  3 30  1  0  0  0  0
  3 29  1  0  0  0  0
  4 13  1  0  0  0  0
  5  4  1  0  0  0  0
  6  7  1  6  0  0  0
  6 13  1  0  0  0  0
  6 23  1  0  0  0  0
  6 15  1  0  0  0  0
  8  9  1  6  0  0  0
  8 17  1  0  0  0  0
 10 19  1  0  0  0  0
 10 25  1  0  0  0  0
 11 12  1  0  0  0  0
 11 21  1  0  0  0  0
 14 13  1  0  0  0  0
 15 16  1  6  0  0  0
 15  8  1  0  0  0  0
 15 21  1  0  0  0  0
 17 18  1  0  0  0  0
 19 20  1  1  0  0  0
 21 22  1  1  0  0  0
 21 19  1  0  0  0  0
 23  4  1  6  0  0  0
 23  8  1  0  0  0  0
 23 24  1  0  0  0  0
 24 11  1  1  0  0  0
 24 10  1  0  0  0  0
 24 19  1  0  0  0  0
 25 26  1  0  0  0  0
 25 27  1  0  0  0  0
 28  1  1  6  0  0  0
 28 29  1  0  0  0  0
 28 25  1  0  0  0  0
 29  2  2  0  0  0  0
 30 33  1  0  0  0  0
 30 31  1  0  0  0  0
 32 30  1  0  0  0  0
M  END
