7
 OpenBabel05122313113D

 37 39  0  0  0  0  0  0  0  0999 V2000
   -3.8292    1.4883   -1.1655 S   0  0  0  0  0  0  0  0  0  0  0  0
    1.8502    0.4438    0.6349 N   0  0  0  0  0  0  0  0  0  0  0  0
    0.0396    1.6223    0.2008 N   0  0  0  0  0  0  0  0  0  0  0  0
   -4.2896    0.6841   -2.3602 O   0  0  0  0  0  1  0  0  0  0  0  0
   -4.1797    2.9404   -1.2080 O   0  0  0  0  0  1  0  0  0  0  0  0
   -4.1160    0.8051    0.1491 O   0  0  0  0  0  1  0  0  0  0  0  0
    0.4908    0.3673    0.4969 C   0  0  0  0  0  2  0  0  0  0  0  0
    2.2794    1.7549    0.4259 C   0  0  0  0  0  0  0  0  0  0  0  0
    3.5460    2.3553    0.4585 C   0  0  0  0  0  0  0  0  0  0  0  0
    4.4495    1.7682    0.6692 H   0  0  0  0  0  0  0  0  0  0  0  0
    3.6086    3.7326    0.1924 C   0  0  0  0  0  0  0  0  0  0  0  0
    4.5868    4.2363    0.2052 H   0  0  0  0  0  0  0  0  0  0  0  0
    2.4470    4.4815   -0.0979 C   0  0  0  0  0  0  0  0  0  0  0  0
    2.5367    5.5583   -0.3061 H   0  0  0  0  0  0  0  0  0  0  0  0
    1.1781    3.8827   -0.1306 C   0  0  0  0  0  0  0  0  0  0  0  0
    0.2726    4.4617   -0.3583 H   0  0  0  0  0  0  0  0  0  0  0  0
    1.1104    2.5083    0.1374 C   0  0  0  0  0  0  0  0  0  0  0  0
    2.6861   -0.6883    1.0164 C   0  0  0  0  0  0  0  0  0  0  0  0
    2.0057   -1.5665    0.9970 H   0  0  0  0  0  0  0  0  0  0  0  0
    3.0262   -0.5497    2.0645 H   0  0  0  0  0  0  0  0  0  0  0  0
    3.8708   -0.8963    0.0975 C   0  0  0  0  0  0  0  0  0  0  0  0
    5.1699   -1.0173    0.6250 C   0  0  0  0  0  0  0  0  0  0  0  0
    5.3193   -0.9465    1.7149 H   0  0  0  0  0  0  0  0  0  0  0  0
    6.2709   -1.2212   -0.2225 C   0  0  0  0  0  0  0  0  0  0  0  0
    7.2819   -1.3135    0.2041 H   0  0  0  0  0  0  0  0  0  0  0  0
    6.0799   -1.2990   -1.6105 C   0  0  0  0  0  0  0  0  0  0  0  0
    6.9412   -1.4534   -2.2790 H   0  0  0  0  0  0  0  0  0  0  0  0
    4.7844   -1.1805   -2.1421 C   0  0  0  0  0  0  0  0  0  0  0  0
    4.6261   -1.2488   -3.2295 H   0  0  0  0  0  0  0  0  0  0  0  0
    3.6839   -0.9827   -1.2969 C   0  0  0  0  0  0  0  0  0  0  0  0
    2.6606   -0.9158   -1.7053 H   0  0  0  0  0  0  0  0  0  0  0  0
   -1.3836    1.9547    0.0223 C   0  0  0  0  0  0  0  0  0  0  0  0
   -1.4959    3.0508    0.1206 H   0  0  0  0  0  0  0  0  0  0  0  0
   -1.9378    1.4806    0.8594 H   0  0  0  0  0  0  0  0  0  0  0  0
   -1.9826    1.4610   -1.2883 C   0  0  0  0  0  0  0  0  0  0  0  0
   -1.6924    0.4107   -1.4859 H   0  0  0  0  0  0  0  0  0  0  0  0
   -1.7067    2.0840   -2.1613 H   0  0  0  0  0  0  0  0  0  0  0  0
  1  6  1  0  0  0  0
  2 18  1  0  0  0  0
  3  7  1  0  0  0  0
  4  1  1  0  0  0  0
  5  1  1  0  0  0  0
  7  2  1  0  0  0  0
  8  9  1  0  0  0  0
  8  2  1  0  0  0  0
  9 10  1  0  0  0  0
 11 12  1  0  0  0  0
 11  9  2  0  0  0  0
 13 11  1  0  0  0  0
 14 13  1  0  0  0  0
 15 13  2  0  0  0  0
 15 17  1  0  0  0  0
 16 15  1  0  0  0  0
 17  3  1  0  0  0  0
 17  8  2  0  0  0  0
 18 20  1  0  0  0  0
 19 18  1  0  0  0  0
 21 22  1  0  0  0  0
 21 18  1  0  0  0  0
 22 23  1  0  0  0  0
 24 25  1  0  0  0  0
 24 22  2  0  0  0  0
 26 24  1  0  0  0  0
 27 26  1  0  0  0  0
 28 26  2  0  0  0  0
 28 30  1  0  0  0  0
 29 28  1  0  0  0  0
 30 21  2  0  0  0  0
 31 30  1  0  0  0  0
 32 33  1  0  0  0  0
 32  3  1  0  0  0  0
 32 34  1  0  0  0  0
 35  1  1  0  0  0  0
 35 32  1  0  0  0  0
 36 35  1  0  0  0  0
 37 35  1  0  0  0  0
M  END
