3
 OpenBabel05122313113D

 39 39  0  0  0  0  0  0  0  0999 V2000
    1.2986   -0.3475   -0.4131 N   0  0  0  0  0  0  0  0  0  0  0  0
    0.1389    0.1857    0.1305 C   0  0  0  0  0  0  0  0  0  0  0  0
   -0.9677   -0.4182   -0.4680 C   0  0  0  0  0  3  0  0  0  0  0  0
   -0.4608   -1.3673   -1.4173 C   0  0  0  0  0  0  0  0  0  0  0  0
    0.9239   -1.2992   -1.3548 C   0  0  0  0  0  0  0  0  0  0  0  0
    2.9983   -0.0042    0.1400 Si  0  0  0  0  0  0  0  0  0  0  0  0
    3.3845   -1.2476    1.5380 C   0  0  0  0  0  0  0  0  0  0  0  0
    3.3466   -2.6984    1.0304 C   0  0  0  0  0  0  0  0  0  0  0  0
    2.4438   -1.0492    2.7379 C   0  0  0  0  0  0  0  0  0  0  0  0
    2.9707    1.7767    0.8266 C   0  0  0  0  0  0  0  0  0  0  0  0
    2.5533    2.8441   -0.1976 C   0  0  0  0  0  0  0  0  0  0  0  0
    4.2869    2.1478    1.5322 C   0  0  0  0  0  0  0  0  0  0  0  0
    4.1139   -0.3336   -1.3734 C   0  0  0  0  0  0  0  0  0  0  0  0
    5.6087   -0.2424   -1.0195 C   0  0  0  0  0  0  0  0  0  0  0  0
    3.7687    0.5085   -2.6119 C   0  0  0  0  0  0  0  0  0  0  0  0
    0.1855    0.9605    0.9031 H   0  0  0  0  0  0  0  0  0  0  0  0
   -1.0410   -2.0228   -2.0767 H   0  0  0  0  0  0  0  0  0  0  0  0
    1.6779   -1.8599   -1.9182 H   0  0  0  0  0  0  0  0  0  0  0  0
    4.4248   -1.0204    1.8679 H   0  0  0  0  0  0  0  0  0  0  0  0
    3.5671   -3.4131    1.8518 H   0  0  0  0  0  0  0  0  0  0  0  0
    2.3440   -2.9577    0.6296 H   0  0  0  0  0  0  0  0  0  0  0  0
    4.0869   -2.8842    0.2256 H   0  0  0  0  0  0  0  0  0  0  0  0
    2.6677   -1.7797    3.5445 H   0  0  0  0  0  0  0  0  0  0  0  0
    2.5300   -0.0356    3.1798 H   0  0  0  0  0  0  0  0  0  0  0  0
    1.3830   -1.1976    2.4453 H   0  0  0  0  0  0  0  0  0  0  0  0
    2.1808    1.7350    1.6125 H   0  0  0  0  0  0  0  0  0  0  0  0
    2.3902    3.8247    0.2985 H   0  0  0  0  0  0  0  0  0  0  0  0
    3.3394    2.9967   -0.9646 H   0  0  0  0  0  0  0  0  0  0  0  0
    1.6181    2.5753   -0.7286 H   0  0  0  0  0  0  0  0  0  0  0  0
    4.2030    3.1383    2.0281 H   0  0  0  0  0  0  0  0  0  0  0  0
    4.5744    1.4121    2.3109 H   0  0  0  0  0  0  0  0  0  0  0  0
    5.1298    2.2176    0.8140 H   0  0  0  0  0  0  0  0  0  0  0  0
    3.9011   -1.4001   -1.6203 H   0  0  0  0  0  0  0  0  0  0  0  0
    6.2382   -0.5610   -1.8775 H   0  0  0  0  0  0  0  0  0  0  0  0
    5.9054    0.7975   -0.7709 H   0  0  0  0  0  0  0  0  0  0  0  0
    5.8815   -0.8810   -0.1545 H   0  0  0  0  0  0  0  0  0  0  0  0
    4.3396    0.1583   -3.4984 H   0  0  0  0  0  0  0  0  0  0  0  0
    2.6906    0.4612   -2.8650 H   0  0  0  0  0  0  0  0  0  0  0  0
    4.0283    1.5758   -2.4607 H   0  0  0  0  0  0  0  0  0  0  0  0
  1  2  1  0  0  0  0
  1  6  1  0  0  0  0
  2 16  1  0  0  0  0
  3  2  2  0  0  0  0
  4  5  2  0  0  0  0
  4  3  1  0  0  0  0
  5  1  1  0  0  0  0
  6 10  1  0  0  0  0
  6  7  1  0  0  0  0
  7 19  1  0  0  0  0
  7  9  1  0  0  0  0
  8  7  1  0  0  0  0
  8 20  1  0  0  0  0
  9 24  1  0  0  0  0
  9 23  1  0  0  0  0
 10 12  1  0  0  0  0
 10 26  1  0  0  0  0
 11 27  1  0  0  0  0
 11 10  1  0  0  0  0
 12 30  1  0  0  0  0
 12 31  1  0  0  0  0
 13 14  1  0  0  0  0
 13  6  1  0  0  0  0
 14 35  1  0  0  0  0
 14 36  1  0  0  0  0
 15 39  1  0  0  0  0
 15 13  1  0  0  0  0
 17  4  1  0  0  0  0
 18  5  1  0  0  0  0
 21  8  1  0  0  0  0
 22  8  1  0  0  0  0
 25  9  1  0  0  0  0
 28 11  1  0  0  0  0
 29 11  1  0  0  0  0
 32 12  1  0  0  0  0
 33 13  1  0  0  0  0
 34 14  1  0  0  0  0
 37 15  1  0  0  0  0
 38 15  1  0  0  0  0
M  END
