5
 OpenBabel05122313113D

 26 28  0  0  1  0  0  0  0  0999 V2000
    0.3419    2.2111    1.2912 S   0  0  0  0  0  0  0  0  0  0  0  0
   -0.3105    3.1607   -0.0125 C   0  0  0  0  0  0  0  0  0  0  0  0
   -0.6000    2.4264   -1.1325 C   0  0  0  0  0  0  0  0  0  0  0  0
   -0.5553   -0.0697   -1.8681 C   0  0  0  0  0  3  0  0  0  0  0  0
   -0.2420   -1.3836   -1.4053 C   0  0  0  0  0  3  0  0  0  0  0  0
    0.2263   -1.5843   -0.0816 C   0  0  0  0  0  3  0  0  0  0  0  0
    1.0283   -0.5016    0.6426 C   0  0  2  0  0  0  0  0  0  0  0  0
    0.2101    0.7327    0.3462 C   0  0  0  0  0  0  0  0  0  0  0  0
   -0.2952    1.0222   -0.9628 C   0  0  0  0  0  0  0  0  0  0  0  0
    2.5044   -0.4435    0.2600 C   0  0  0  0  0  0  0  0  0  0  0  0
    2.9857    0.4210   -0.7411 C   0  0  0  0  0  0  0  0  0  0  0  0
    4.3426    0.4127   -1.0988 C   0  0  0  0  0  0  0  0  0  0  0  0
    5.2366   -0.4634   -0.4640 C   0  0  0  0  0  0  0  0  0  0  0  0
    4.7668   -1.3273    0.5384 C   0  0  0  0  0  0  0  0  0  0  0  0
    3.4119   -1.3121    0.8986 C   0  0  0  0  0  0  0  0  0  0  0  0
    0.3234   -2.6199    0.2768 H   0  0  0  0  0  0  0  0  0  0  0  0
   -0.5071   -2.2471   -2.0344 H   0  0  0  0  0  0  0  0  0  0  0  0
   -0.9594    0.1114   -2.8720 H   0  0  0  0  0  0  0  0  0  0  0  0
    0.9695   -0.7198    1.7289 H   0  0  0  0  0  0  0  0  0  0  0  0
   -1.0486    2.8452   -2.0429 H   0  0  0  0  0  0  0  0  0  0  0  0
   -0.4898    4.2328    0.1416 H   0  0  0  0  0  0  0  0  0  0  0  0
    2.2933    1.1154   -1.2404 H   0  0  0  0  0  0  0  0  0  0  0  0
    4.7048    1.0994   -1.8792 H   0  0  0  0  0  0  0  0  0  0  0  0
    6.3005   -0.4692   -0.7457 H   0  0  0  0  0  0  0  0  0  0  0  0
    5.4621   -2.0116    1.0484 H   0  0  0  0  0  0  0  0  0  0  0  0
    3.0483   -1.9850    1.6925 H   0  0  0  0  0  0  0  0  0  0  0  0
  2 21  1  0  0  0  0
  2  1  1  0  0  0  0
  3  9  1  0  0  0  0
  3  2  2  0  0  0  0
  4  5  1  0  0  0  0
  4  9  1  0  0  0  0
  5  6  1  0  0  0  0
  6 16  1  0  0  0  0
  6  7  1  0  0  0  0
  7 19  1  1  0  0  0
  8  7  1  0  0  0  0
  8  1  1  0  0  0  0
  9  8  2  0  0  0  0
 10  7  1  0  0  0  0
 10 15  1  0  0  0  0
 11 10  2  0  0  0  0
 12 11  1  0  0  0  0
 12 13  2  0  0  0  0
 13 14  1  0  0  0  0
 14 15  2  0  0  0  0
 14 25  1  0  0  0  0
 15 26  1  0  0  0  0
 17  5  1  0  0  0  0
 18  4  1  0  0  0  0
 20  3  1  0  0  0  0
 22 11  1  0  0  0  0
 23 12  1  0  0  0  0
 24 13  1  0  0  0  0
M  END
