7
 OpenBabel05122313113D

 31 32  0  0  1  0  0  0  0  0999 V2000
   -3.7962   -0.3879   -0.9347 O   0  0  0  0  0  0  0  0  0  0  0  0
   -2.0774   -1.5118    0.2443 C   0  0  0  0  0  3  0  0  0  0  0  0
   -2.8564   -1.7918    0.9705 H   0  0  0  0  0  0  0  0  0  0  0  0
   -2.5054   -0.6819   -0.8398 C   0  0  0  0  0  0  0  0  0  0  0  0
   -1.4570   -0.0777   -1.6172 C   0  0  0  0  0  0  0  0  0  0  0  0
   -1.6633    0.6568   -2.4057 H   0  0  0  0  0  0  0  0  0  0  0  0
   -0.1035   -0.4719   -1.3438 C   0  0  0  0  0  3  0  0  0  0  0  0
    0.7081    0.0754   -1.8459 H   0  0  0  0  0  0  0  0  0  0  0  0
    0.2273   -1.4747   -0.3916 C   0  0  1  0  0  3  0  0  0  0  0  0
   -0.8857   -2.4195    0.0329 C   0  0  0  0  0  0  0  0  0  0  0  0
   -0.6307   -2.9147    0.9869 H   0  0  0  0  0  0  0  0  0  0  0  0
   -1.0630   -3.2233   -0.7179 H   0  0  0  0  0  0  0  0  0  0  0  0
   -4.2385    0.6283   -1.8508 C   0  0  0  0  0  0  0  0  0  0  0  0
   -5.3351    0.6761   -1.7379 H   0  0  0  0  0  0  0  0  0  0  0  0
   -3.9853    0.3563   -2.8953 H   0  0  0  0  0  0  0  0  0  0  0  0
   -3.7970    1.6128   -1.5906 H   0  0  0  0  0  0  0  0  0  0  0  0
    1.6316   -1.7152   -0.0089 C   0  0  0  0  0  0  0  0  0  0  0  0
    2.6329   -0.6314   -0.2562 C   0  0  0  0  0  0  0  0  0  0  0  0
    3.0932    0.1419    0.8306 C   0  0  0  0  0  0  0  0  0  0  0  0
    2.7289   -0.0797    1.8459 H   0  0  0  0  0  0  0  0  0  0  0  0
    4.0145    1.1795    0.6235 C   0  0  0  0  0  0  0  0  0  0  0  0
    4.3687    1.7741    1.4788 H   0  0  0  0  0  0  0  0  0  0  0  0
    4.4880    1.4530   -0.6689 C   0  0  0  0  0  0  0  0  0  0  0  0
    5.2115    2.2657   -0.8305 H   0  0  0  0  0  0  0  0  0  0  0  0
    4.0495    0.6764   -1.7536 C   0  0  0  0  0  0  0  0  0  0  0  0
    4.4386    0.8710   -2.7642 H   0  0  0  0  0  0  0  0  0  0  0  0
    3.1271   -0.3612   -1.5508 C   0  0  0  0  0  0  0  0  0  0  0  0
    2.8097   -0.9871   -2.3999 H   0  0  0  0  0  0  0  0  0  0  0  0
    2.0036   -2.8773    0.5887 C   0  0  0  0  0  0  0  0  0  0  0  0
    3.0588   -3.0536    0.8451 H   0  0  0  0  0  0  0  0  0  0  0  0
    1.2941   -3.6875    0.8133 H   0  0  0  0  0  0  0  0  0  0  0  0
  1  4  1  0  0  0  0
  2  3  1  0  0  0  0
  4  2  1  0  0  0  0
  5  7  1  0  0  0  0
  5  4  2  0  0  0  0
  6  5  1  0  0  0  0
  7  9  1  0  0  0  0
  8  7  1  0  0  0  0
  9 17  1  6  0  0  0
  9 10  1  0  0  0  0
 10  2  1  0  0  0  0
 10 11  1  0  0  0  0
 12 10  1  0  0  0  0
 13 14  1  0  0  0  0
 13 16  1  0  0  0  0
 13  1  1  0  0  0  0
 15 13  1  0  0  0  0
 17 29  2  0  0  0  0
 18 17  1  0  0  0  0
 18 19  1  0  0  0  0
 19 20  1  0  0  0  0
 21 19  2  0  0  0  0
 21 22  1  0  0  0  0
 23 21  1  0  0  0  0
 24 23  1  0  0  0  0
 25 27  1  0  0  0  0
 25 23  2  0  0  0  0
 26 25  1  0  0  0  0
 27 18  2  0  0  0  0
 28 27  1  0  0  0  0
 29 31  1  0  0  0  0
 29 30  1  0  0  0  0
M  END
