3
 OpenBabel05122313113D

 22 23  0  0  0  0  0  0  0  0999 V2000
    2.0693    0.0983   -1.0821 O   0  0  0  0  0  0  0  0  0  0  0  0
    4.6098   -1.5956    0.6451 N   0  0  0  0  0  0  0  0  0  0  0  0
    0.0991   -1.5921    0.1436 C   0  0  0  0  0  3  0  0  0  0  0  0
   -0.7897   -2.5189    0.7060 C   0  0  0  0  0  0  0  0  0  0  0  0
   -1.8685   -2.4234    0.5154 H   0  0  0  0  0  0  0  0  0  0  0  0
   -0.3141   -3.5776    1.4977 C   0  0  0  0  0  0  0  0  0  0  0  0
   -1.0274   -4.2962    1.9316 H   0  0  0  0  0  0  0  0  0  0  0  0
    1.0627   -3.7165    1.7266 C   0  0  0  0  0  0  0  0  0  0  0  0
    1.4433   -4.5365    2.3540 H   0  0  0  0  0  0  0  0  0  0  0  0
    1.9586   -2.8206    1.1339 C   0  0  0  0  0  0  0  0  0  0  0  0
    3.0395   -2.9170    1.2994 H   0  0  0  0  0  0  0  0  0  0  0  0
    1.5029   -1.7495    0.3240 C   0  0  0  0  0  0  0  0  0  0  0  0
    2.4575   -0.8510   -0.3972 C   0  0  0  0  0  0  0  0  0  0  0  0
    3.9570   -1.1086   -0.4284 C   0  0  0  0  0  0  0  0  0  0  0  0
    4.6247   -0.7399   -1.6172 C   0  0  0  0  0  0  0  0  0  0  0  0
    4.0350   -0.3293   -2.4484 H   0  0  0  0  0  0  0  0  0  0  0  0
    6.0115   -0.9067   -1.6919 C   0  0  0  0  0  0  0  0  0  0  0  0
    6.5569   -0.6456   -2.6118 H   0  0  0  0  0  0  0  0  0  0  0  0
    6.6927   -1.4056   -0.5707 C   0  0  0  0  0  0  0  0  0  0  0  0
    7.7839   -1.5453   -0.5775 H   0  0  0  0  0  0  0  0  0  0  0  0
    5.9432   -1.7261    0.5723 C   0  0  0  0  0  0  0  0  0  0  0  0
    6.4455   -2.1128    1.4769 H   0  0  0  0  0  0  0  0  0  0  0  0
  1 13  2  0  0  0  0
  3 12  2  0  0  0  0
  3  4  1  0  0  0  0
  4  6  2  0  0  0  0
  5  4  1  0  0  0  0
  6  8  1  0  0  0  0
  6  7  1  0  0  0  0
  8  9  1  0  0  0  0
 10 11  1  0  0  0  0
 10  8  2  0  0  0  0
 12 10  1  0  0  0  0
 13 12  1  0  0  0  0
 14 13  1  0  0  0  0
 14  2  2  0  0  0  0
 15 14  1  0  0  0  0
 16 15  1  0  0  0  0
 17 15  2  0  0  0  0
 17 19  1  0  0  0  0
 18 17  1  0  0  0  0
 19 21  2  0  0  0  0
 20 19  1  0  0  0  0
 21  2  1  0  0  0  0
 21 22  1  0  0  0  0
M  END
