5
 OpenBabel05122313113D

 28 27  0  0  0  0  0  0  0  0999 V2000
    2.8503   -0.5989   -1.5339 Si  0  0  0  0  0  0  0  0  0  0  0  0
    4.3470    0.5138   -1.8882 C   0  0  0  0  0  0  0  0  0  0  0  0
    3.4822   -2.3658   -1.2343 C   0  0  0  0  0  0  0  0  0  0  0  0
    1.7295   -0.5846   -3.0586 C   0  0  0  0  0  0  0  0  0  0  0  0
    0.5883   -0.0005   -0.0001 C   0  0  0  0  0  1  0  0  0  0  0  0
    1.9201   -0.0006    0.0005 C   0  0  0  0  0  3  0  0  0  0  0  0
    4.0268    1.5610   -2.0656 H   0  0  0  0  0  0  0  0  0  0  0  0
    5.0777    0.5168   -1.0546 H   0  0  0  0  0  0  0  0  0  0  0  0
    4.8757    0.1616   -2.7984 H   0  0  0  0  0  0  0  0  0  0  0  0
    2.6446   -3.0682   -1.0465 H   0  0  0  0  0  0  0  0  0  0  0  0
    4.0447   -2.7361   -2.1170 H   0  0  0  0  0  0  0  0  0  0  0  0
    4.1558   -2.4076   -0.3555 H   0  0  0  0  0  0  0  0  0  0  0  0
    1.6520    0.4389   -3.4750 H   0  0  0  0  0  0  0  0  0  0  0  0
    2.1371   -1.2445   -3.8518 H   0  0  0  0  0  0  0  0  0  0  0  0
    0.7034   -0.9185   -2.8083 H   0  0  0  0  0  0  0  0  0  0  0  0
    2.8475    0.5997    1.5359 Si  0  0  0  0  0  0  0  0  0  0  0  0
    4.3469   -0.5090    1.8914 C   0  0  0  0  0  0  0  0  0  0  0  0
    4.0294   -1.5571    2.0686 H   0  0  0  0  0  0  0  0  0  0  0  0
    5.0783   -0.5101    1.0584 H   0  0  0  0  0  0  0  0  0  0  0  0
    4.8738   -0.1553    2.8020 H   0  0  0  0  0  0  0  0  0  0  0  0
    3.4752    2.3682    1.2371 C   0  0  0  0  0  0  0  0  0  0  0  0
    2.6361    3.0686    1.0486 H   0  0  0  0  0  0  0  0  0  0  0  0
    4.0360    2.7399    2.1203 H   0  0  0  0  0  0  0  0  0  0  0  0
    4.1495    2.4118    0.3589 H   0  0  0  0  0  0  0  0  0  0  0  0
    1.7252    0.5822    3.0593 C   0  0  0  0  0  0  0  0  0  0  0  0
    1.6504   -0.4414    3.4761 H   0  0  0  0  0  0  0  0  0  0  0  0
    2.1294    1.2437    3.8528 H   0  0  0  0  0  0  0  0  0  0  0  0
    0.6983    0.9125    2.8073 H   0  0  0  0  0  0  0  0  0  0  0  0
  1  3  1  0  0  0  0
  1  6  1  0  0  0  0
  2  1  1  0  0  0  0
  2  8  1  0  0  0  0
  3 10  1  0  0  0  0
  3 12  1  0  0  0  0
  4 15  1  0  0  0  0
  4  1  1  0  0  0  0
  5  6  1  0  0  0  0
  6 16  1  0  0  0  0
  7  2  1  0  0  0  0
  9  2  1  0  0  0  0
 11  3  1  0  0  0  0
 13  4  1  0  0  0  0
 14  4  1  0  0  0  0
 16 17  1  0  0  0  0
 16 25  1  0  0  0  0
 17 18  1  0  0  0  0
 17 20  1  0  0  0  0
 19 17  1  0  0  0  0
 21 16  1  0  0  0  0
 21 23  1  0  0  0  0
 22 21  1  0  0  0  0
 24 21  1  0  0  0  0
 25 26  1  0  0  0  0
 25 27  1  0  0  0  0
 28 25  1  0  0  0  0
M  END
