2
 OpenBabel05122313113D

  6  5  0  0  0  0  0  0  0  0999 V2000
    4.0612   -1.0014    0.0008 Se  0  0  0  0  0  0  0  0  0  0  0  0
    2.2815   -0.5153    0.0005 C   0  0  0  0  0  1  0  0  0  0  0  0
    4.8555    0.8098   -0.0011 C   0  0  0  0  0  0  0  0  0  0  0  0
    4.5330    1.3463   -0.9111 H   0  0  0  0  0  0  0  0  0  0  0  0
    5.9532    0.6743   -0.0008 H   0  0  0  0  0  0  0  0  0  0  0  0
    4.5328    1.3482    0.9076 H   0  0  0  0  0  0  0  0  0  0  0  0
  2  1  1  0  0  0  0
  3  5  1  0  0  0  0
  3  1  1  0  0  0  0
  3  6  1  0  0  0  0
  4  3  1  0  0  0  0
M  END
