5
 OpenBabel05122313113D

 13 13  0  0  0  0  0  0  0  0999 V2000
   -3.8184    2.7500   -1.0415 Br  0  0  0  0  0  0  0  0  0  0  0  0
   -8.6034    0.0413   -2.5421 Br  0  0  0  0  0  0  0  0  0  0  0  0
   -4.3171   -2.8731   -0.1683 Br  0  0  0  0  0  0  0  0  0  0  0  0
   -3.0261   -0.0852   -0.1469 N   0  0  0  0  0  2  0  0  0  0  0  0
   -1.9244   -0.0730    0.3157 C   0  0  0  0  0  1  0  0  0  0  0  0
   -4.2702   -0.0565   -0.6834 C   0  0  0  0  0  0  0  0  0  0  0  0
   -4.8373    1.1611   -1.1580 C   0  0  0  0  0  0  0  0  0  0  0  0
   -6.1229    1.1943   -1.7106 C   0  0  0  0  0  0  0  0  0  0  0  0
   -6.5424    2.1420   -2.0714 H   0  0  0  0  0  0  0  0  0  0  0  0
   -6.8597    0.0015   -1.7951 C   0  0  0  0  0  0  0  0  0  0  0  0
   -6.3362   -1.2201   -1.3404 C   0  0  0  0  0  0  0  0  0  0  0  0
   -6.9212   -2.1457   -1.4131 H   0  0  0  0  0  0  0  0  0  0  0  0
   -5.0499   -1.2435   -0.7897 C   0  0  0  0  0  0  0  0  0  0  0  0
  2 10  1  0  0  0  0
  4  5  1  0  0  0  0
  6  4  1  0  0  0  0
  7  1  1  0  0  0  0
  7  6  2  0  0  0  0
  8  7  1  0  0  0  0
  9  8  1  0  0  0  0
 10  8  2  0  0  0  0
 10 11  1  0  0  0  0
 11 13  2  0  0  0  0
 12 11  1  0  0  0  0
 13  6  1  0  0  0  0
 13  3  1  0  0  0  0
M  END
