3
 OpenBabel05122313113D

 34 35  0  0  1  0  0  0  0  0999 V2000
    0.9437    1.8864   -0.2662 N   0  0  0  0  0  0  0  0  0  0  0  0
   -0.8200    0.7007   -0.7082 N   0  0  0  0  0  0  0  0  0  0  0  0
    0.4698    0.5987   -0.2548 C   0  0  0  0  0  2  0  0  0  0  0  0
   -1.1463    2.0206   -0.9845 C   0  0  0  0  0  0  0  0  0  0  0  0
   -2.1428    2.3090   -1.3315 H   0  0  0  0  0  0  0  0  0  0  0  0
   -0.0363    2.7668   -0.7075 C   0  0  0  0  0  0  0  0  0  0  0  0
    0.1320    3.8447   -0.7814 H   0  0  0  0  0  0  0  0  0  0  0  0
   -3.0922   -0.1400   -0.2727 C   0  0  0  0  0  0  0  0  0  0  0  0
   -3.0738    0.2076    1.0951 C   0  0  0  0  0  0  0  0  0  0  0  0
   -2.1124    0.3166    1.6204 H   0  0  0  0  0  0  0  0  0  0  0  0
   -4.2669    0.4255    1.7945 C   0  0  0  0  0  0  0  0  0  0  0  0
   -4.2342    0.6941    2.8609 H   0  0  0  0  0  0  0  0  0  0  0  0
   -5.5016    0.2996    1.1362 C   0  0  0  0  0  0  0  0  0  0  0  0
   -6.4401    0.4697    1.6843 H   0  0  0  0  0  0  0  0  0  0  0  0
   -5.5308   -0.0428   -0.2224 C   0  0  0  0  0  0  0  0  0  0  0  0
   -6.4928   -0.1419   -0.7468 H   0  0  0  0  0  0  0  0  0  0  0  0
   -4.3335   -0.2603   -0.9245 C   0  0  0  0  0  0  0  0  0  0  0  0
   -4.3845   -0.5300   -1.9885 H   0  0  0  0  0  0  0  0  0  0  0  0
   -1.7713   -0.3996   -0.9903 C   0  0  1  0  0  0  0  0  0  0  0  0
   -1.3040   -1.2971   -0.5422 H   0  0  0  0  0  0  0  0  0  0  0  0
   -1.8718   -0.6245   -2.5002 C   0  0  0  0  0  0  0  0  0  0  0  0
   -2.3492    0.2330   -3.0137 H   0  0  0  0  0  0  0  0  0  0  0  0
   -2.4706   -1.5293   -2.7169 H   0  0  0  0  0  0  0  0  0  0  0  0
   -0.8657   -0.7665   -2.9397 H   0  0  0  0  0  0  0  0  0  0  0  0
    2.3084    2.3430    0.0859 C   0  0  0  0  0  0  0  0  0  0  0  0
    2.8488    1.4186    0.3576 H   0  0  0  0  0  0  0  0  0  0  0  0
    2.2762    3.2732    1.2990 C   0  0  0  0  0  0  0  0  0  0  0  0
    1.7456    4.2204    1.0746 H   0  0  0  0  0  0  0  0  0  0  0  0
    3.3100    3.5335    1.5974 H   0  0  0  0  0  0  0  0  0  0  0  0
    1.7812    2.7907    2.1635 H   0  0  0  0  0  0  0  0  0  0  0  0
    2.9967    2.9583   -1.1350 C   0  0  0  0  0  0  0  0  0  0  0  0
    2.9981    2.2592   -1.9950 H   0  0  0  0  0  0  0  0  0  0  0  0
    4.0472    3.2052   -0.8869 H   0  0  0  0  0  0  0  0  0  0  0  0
    2.5039    3.8975   -1.4571 H   0  0  0  0  0  0  0  0  0  0  0  0
  1  3  1  0  0  0  0
  1 25  1  0  0  0  0
  2  3  1  0  0  0  0
  4  2  1  0  0  0  0
  4  6  2  0  0  0  0
  5  4  1  0  0  0  0
  6  1  1  0  0  0  0
  7  6  1  0  0  0  0
  8  9  1  0  0  0  0
  9 10  1  0  0  0  0
  9 11  2  0  0  0  0
 11 12  1  0  0  0  0
 13 14  1  0  0  0  0
 13 11  1  0  0  0  0
 15 13  2  0  0  0  0
 16 15  1  0  0  0  0
 17  8  2  0  0  0  0
 17 15  1  0  0  0  0
 18 17  1  0  0  0  0
 19  2  1  0  0  0  0
 19 20  1  1  0  0  0
 19  8  1  0  0  0  0
 21 19  1  0  0  0  0
 22 21  1  0  0  0  0
 23 21  1  0  0  0  0
 24 21  1  0  0  0  0
 25 26  1  0  0  0  0
 25 27  1  0  0  0  0
 27 29  1  0  0  0  0
 27 30  1  0  0  0  0
 28 27  1  0  0  0  0
 31 33  1  0  0  0  0
 31 25  1  0  0  0  0
 32 31  1  0  0  0  0
 34 31  1  0  0  0  0
M  END
