5
 OpenBabel05122313113D

 15 14  0  0  0  0  0  0  0  0999 V2000
   -1.7240   -2.2934   -1.7684 O   0  0  0  0  0  0  0  0  0  0  0  0
    0.3667   -3.1904   -1.7014 O   0  0  0  0  0  0  0  0  0  0  0  0
   -1.3566   -2.6421    1.8726 O   0  0  0  0  0  0  0  0  0  0  0  0
    0.8915   -2.9253    1.6445 O   0  0  0  0  0  0  0  0  0  0  0  0
   -0.2932   -1.6546    0.0065 C   0  0  0  0  0  2  0  0  0  0  0  0
   -0.4916   -2.4567   -1.2404 C   0  0  0  0  0  0  0  0  0  0  0  0
   -1.9141   -2.8858   -3.0617 C   0  0  0  0  0  0  0  0  0  0  0  0
   -0.1713   -2.4665    1.2579 C   0  0  0  0  0  0  0  0  0  0  0  0
   -1.2897   -3.1897    3.1981 C   0  0  0  0  0  0  0  0  0  0  0  0
   -1.6221   -3.9544   -3.0578 H   0  0  0  0  0  0  0  0  0  0  0  0
   -2.9883   -2.7751   -3.2941 H   0  0  0  0  0  0  0  0  0  0  0  0
   -1.2981   -2.3428   -3.8067 H   0  0  0  0  0  0  0  0  0  0  0  0
   -0.7895   -2.4607    3.8670 H   0  0  0  0  0  0  0  0  0  0  0  0
   -2.3354   -3.3483    3.5156 H   0  0  0  0  0  0  0  0  0  0  0  0
   -0.7274   -4.1441    3.2070 H   0  0  0  0  0  0  0  0  0  0  0  0
  1  6  1  0  0  0  0
  2  6  2  0  0  0  0
  3  9  1  0  0  0  0
  5  8  1  0  0  0  0
  6  5  1  0  0  0  0
  7 10  1  0  0  0  0
  7  1  1  0  0  0  0
  8  4  2  0  0  0  0
  8  3  1  0  0  0  0
  9 15  1  0  0  0  0
  9 14  1  0  0  0  0
  9 13  1  0  0  0  0
 11  7  1  0  0  0  0
 12  7  1  0  0  0  0
M  END
