7
 OpenBabel05122313113D

 29 30  0  0  0  0  0  0  0  0999 V2000
   -7.0827   -2.0650   -0.2516 O   0  0  0  0  0  0  0  0  0  0  0  0
  -13.7599   -0.3422    0.3378 O   0  0  0  0  0  0  0  0  0  0  0  0
  -13.2818    1.7269   -0.1835 O   0  0  0  0  0  0  0  0  0  0  0  0
   -6.4501    0.1383    0.0431 N   0  0  0  0  0  0  0  0  0  0  0  0
   -6.8292    1.0621    0.2553 H   0  0  0  0  0  0  0  0  0  0  0  0
  -12.9718    0.5604    0.0582 N   0  0  0  0  0  0  0  0  0  0  0  0
    0.4680    0.0944    0.0264 C   0  0  0  0  0  1  0  0  0  0  0  0
   -0.7737    0.0937    0.0293 C   0  0  0  0  0  2  0  0  0  0  0  0
   -7.3720   -0.8768   -0.1078 C   0  0  0  0  0  0  0  0  0  0  0  0
   -2.1978    0.0887    0.0315 C   0  0  0  0  0  0  0  0  0  0  0  0
   -2.9317   -1.1050   -0.1974 C   0  0  0  0  0  0  0  0  0  0  0  0
   -2.3772   -2.0372   -0.3779 H   0  0  0  0  0  0  0  0  0  0  0  0
   -4.3281   -1.1262   -0.1981 C   0  0  0  0  0  0  0  0  0  0  0  0
   -4.8836   -2.0550   -0.3701 H   0  0  0  0  0  0  0  0  0  0  0  0
   -5.0459    0.0693    0.0338 C   0  0  0  0  0  0  0  0  0  0  0  0
   -4.3308    1.2675    0.2636 C   0  0  0  0  0  0  0  0  0  0  0  0
   -4.8834    2.2045    0.4443 H   0  0  0  0  0  0  0  0  0  0  0  0
   -2.9371    1.2792    0.2634 C   0  0  0  0  0  0  0  0  0  0  0  0
   -2.3937    2.2176    0.4435 H   0  0  0  0  0  0  0  0  0  0  0  0
   -8.8140   -0.4280   -0.0660 C   0  0  0  0  0  0  0  0  0  0  0  0
   -9.7746   -1.4199    0.2256 C   0  0  0  0  0  0  0  0  0  0  0  0
   -9.4158   -2.4433    0.4069 H   0  0  0  0  0  0  0  0  0  0  0  0
  -11.1345   -1.1044    0.2752 C   0  0  0  0  0  0  0  0  0  0  0  0
  -11.9031   -1.8524    0.5110 H   0  0  0  0  0  0  0  0  0  0  0  0
  -11.5285    0.2145    0.0103 C   0  0  0  0  0  0  0  0  0  0  0  0
  -10.6038    1.2171   -0.3078 C   0  0  0  0  0  0  0  0  0  0  0  0
  -10.9694    2.2288   -0.5276 H   0  0  0  0  0  0  0  0  0  0  0  0
   -9.2445    0.8875   -0.3460 C   0  0  0  0  0  0  0  0  0  0  0  0
   -8.5235    1.6683   -0.6342 H   0  0  0  0  0  0  0  0  0  0  0  0
  1  9  2  0  0  0  0
  3  6  2  0  0  0  0
  4  5  1  0  0  0  0
  6  2  2  0  0  0  0
  7  8  1  0  0  0  0
  8 10  1  0  0  0  0
  9 20  1  0  0  0  0
  9  4  1  0  0  0  0
 10 18  1  0  0  0  0
 11 10  2  0  0  0  0
 12 11  1  0  0  0  0
 13 11  1  0  0  0  0
 13 15  2  0  0  0  0
 14 13  1  0  0  0  0
 15  4  1  0  0  0  0
 15 16  1  0  0  0  0
 16 17  1  0  0  0  0
 18 16  2  0  0  0  0
 18 19  1  0  0  0  0
 20 21  1  0  0  0  0
 21 23  2  0  0  0  0
 21 22  1  0  0  0  0
 23 24  1  0  0  0  0
 25  6  1  0  0  0  0
 25 23  1  0  0  0  0
 26 25  2  0  0  0  0
 27 26  1  0  0  0  0
 28 26  1  0  0  0  0
 28 20  2  0  0  0  0
 29 28  1  0  0  0  0
M  END
