1
 OpenBabel05122313113D

 25 25  0  0  0  0  0  0  0  0999 V2000
    0.3573    0.3383   -0.0964 C   0  0  0  0  0  2  0  0  0  0  0  0
    1.7192   -0.2693   -0.0715 C   0  0  0  0  0  0  0  0  0  0  0  0
    2.3687   -0.6335   -1.2776 C   0  0  0  0  0  0  0  0  0  0  0  0
    1.8329   -0.4791   -2.2272 H   0  0  0  0  0  0  0  0  0  0  0  0
    3.6549   -1.1928   -1.2707 C   0  0  0  0  0  0  0  0  0  0  0  0
    4.1313   -1.4727   -2.2234 H   0  0  0  0  0  0  0  0  0  0  0  0
    4.3332   -1.4018   -0.0586 C   0  0  0  0  0  0  0  0  0  0  0  0
    5.3408   -1.8440   -0.0536 H   0  0  0  0  0  0  0  0  0  0  0  0
    3.7068   -1.0490    1.1476 C   0  0  0  0  0  0  0  0  0  0  0  0
    4.2224   -1.2175    2.1060 H   0  0  0  0  0  0  0  0  0  0  0  0
    2.4199   -0.4894    1.1415 C   0  0  0  0  0  0  0  0  0  0  0  0
    1.9245   -0.2367    2.0923 H   0  0  0  0  0  0  0  0  0  0  0  0
    0.4598    2.1095   -0.0002 P   0  0  0  0  0  4  0  0  0  0  0  0
    0.5658    2.6730    1.7407 C   0  0  0  0  0  0  0  0  0  0  0  0
    0.6944    3.7726    1.7922 H   0  0  0  0  0  0  0  0  0  0  0  0
    1.4257    2.1747    2.2274 H   0  0  0  0  0  0  0  0  0  0  0  0
   -0.3710    2.3784    2.2515 H   0  0  0  0  0  0  0  0  0  0  0  0
   -0.9176    3.0566   -0.7199 C   0  0  0  0  0  0  0  0  0  0  0  0
   -0.6524    4.1314   -0.6763 H   0  0  0  0  0  0  0  0  0  0  0  0
   -1.8435    2.8795   -0.1439 H   0  0  0  0  0  0  0  0  0  0  0  0
   -1.0823    2.7485   -1.7681 H   0  0  0  0  0  0  0  0  0  0  0  0
    1.9700    2.7818   -0.8024 C   0  0  0  0  0  0  0  0  0  0  0  0
    2.0231    3.8817   -0.6847 H   0  0  0  0  0  0  0  0  0  0  0  0
    1.9511    2.5235   -1.8791 H   0  0  0  0  0  0  0  0  0  0  0  0
    2.8623    2.3104   -0.3477 H   0  0  0  0  0  0  0  0  0  0  0  0
  1  2  1  0  0  0  0
  1 13  1  0  0  0  0
  2 11  1  0  0  0  0
  3  5  1  0  0  0  0
  3  2  2  0  0  0  0
  4  3  1  0  0  0  0
  5  7  2  0  0  0  0
  6  5  1  0  0  0  0
  7  8  1  0  0  0  0
  7  9  1  0  0  0  0
  9 10  1  0  0  0  0
 11  9  2  0  0  0  0
 11 12  1  0  0  0  0
 13 14  1  0  0  0  0
 14 15  1  0  0  0  0
 14 16  1  0  0  0  0
 14 17  1  0  0  0  0
 18 19  1  0  0  0  0
 18 20  1  0  0  0  0
 18 13  1  0  0  0  0
 21 18  1  0  0  0  0
 22 23  1  0  0  0  0
 22 25  1  0  0  0  0
 22 13  1  0  0  0  0
 24 22  1  0  0  0  0
M  END
