70
 OpenBabel05122313113D

 79 80  0  0  0  0  0  0  0  0999 V2000
    1.4436   -0.3333    1.0596 P   0  0  0  0  0  0  0  0  0  0  0  0
   -2.1065    0.3931   -0.0117 P   0  0  0  0  0  0  0  0  0  0  0  0
    0.5881    1.4233   -1.7921 Si  0  0  0  0  0  0  0  0  0  0  0  0
    2.6499    0.7618    0.1415 C   0  0  0  0  0  0  0  0  0  0  0  0
    2.3417    1.3810   -1.0963 C   0  0  0  0  0  0  0  0  0  0  0  0
    3.3463    2.1327   -1.7494 C   0  0  0  0  0  0  0  0  0  0  0  0
    3.1227    2.6105   -2.7158 H   0  0  0  0  0  0  0  0  0  0  0  0
    4.6229    2.2959   -1.1950 C   0  0  0  0  0  0  0  0  0  0  0  0
    5.3864    2.8855   -1.7252 H   0  0  0  0  0  0  0  0  0  0  0  0
    4.9121    1.7110    0.0459 C   0  0  0  0  0  0  0  0  0  0  0  0
    5.9029    1.8415    0.5074 H   0  0  0  0  0  0  0  0  0  0  0  0
    3.9346    0.9491    0.6994 C   0  0  0  0  0  0  0  0  0  0  0  0
    4.1873    0.4906    1.6661 H   0  0  0  0  0  0  0  0  0  0  0  0
    0.5754    2.2758   -3.4838 C   0  0  0  0  0  0  0  0  0  0  0  0
    1.2182    1.7285   -4.2035 H   0  0  0  0  0  0  0  0  0  0  0  0
    0.9137    3.3304   -3.4412 H   0  0  0  0  0  0  0  0  0  0  0  0
   -0.4580    2.2733   -3.8871 H   0  0  0  0  0  0  0  0  0  0  0  0
   -0.3688    2.5430   -0.5793 C   0  0  0  0  0  0  0  0  0  0  0  0
   -1.4637    2.1204    0.2165 C   0  0  0  0  0  0  0  0  0  0  0  0
   -2.0765    3.0321    1.1039 C   0  0  0  0  0  0  0  0  0  0  0  0
   -2.9376    2.7276    1.7138 H   0  0  0  0  0  0  0  0  0  0  0  0
   -1.5958    4.3437    1.2319 C   0  0  0  0  0  0  0  0  0  0  0  0
   -2.0795    5.0341    1.9394 H   0  0  0  0  0  0  0  0  0  0  0  0
   -0.5034    4.7662    0.4616 C   0  0  0  0  0  0  0  0  0  0  0  0
   -0.1158    5.7915    0.5616 H   0  0  0  0  0  0  0  0  0  0  0  0
    0.0922    3.8698   -0.4368 C   0  0  0  0  0  0  0  0  0  0  0  0
    0.9566    4.2080   -1.0324 H   0  0  0  0  0  0  0  0  0  0  0  0
    2.5328   -1.9028    1.3159 C   0  0  0  0  0  0  0  0  0  0  0  0
    1.7540   -2.6911    1.2962 H   0  0  0  0  0  0  0  0  0  0  0  0
    3.4995   -2.1407    0.1490 C   0  0  0  0  0  0  0  0  0  0  0  0
    4.4016   -1.5033    0.2243 H   0  0  0  0  0  0  0  0  0  0  0  0
    3.0274   -1.9407   -0.8309 H   0  0  0  0  0  0  0  0  0  0  0  0
    3.8337   -3.1986    0.1642 H   0  0  0  0  0  0  0  0  0  0  0  0
    3.2613   -2.0266    2.6585 C   0  0  0  0  0  0  0  0  0  0  0  0
    3.7634   -3.0161    2.6981 H   0  0  0  0  0  0  0  0  0  0  0  0
    2.5819   -1.9692    3.5277 H   0  0  0  0  0  0  0  0  0  0  0  0
    4.0565   -1.2634    2.7865 H   0  0  0  0  0  0  0  0  0  0  0  0
    1.4941    0.5630    2.7348 C   0  0  0  0  0  0  0  0  0  0  0  0
    2.5660    0.4788    3.0131 H   0  0  0  0  0  0  0  0  0  0  0  0
    1.1592    2.0513    2.5921 C   0  0  0  0  0  0  0  0  0  0  0  0
    0.1014    2.2010    2.3058 H   0  0  0  0  0  0  0  0  0  0  0  0
    1.7887    2.5613    1.8387 H   0  0  0  0  0  0  0  0  0  0  0  0
    1.3155    2.5583    3.5671 H   0  0  0  0  0  0  0  0  0  0  0  0
    0.6588   -0.0760    3.8449 C   0  0  0  0  0  0  0  0  0  0  0  0
    0.9125    0.4063    4.8125 H   0  0  0  0  0  0  0  0  0  0  0  0
    0.8081   -1.1659    3.9394 H   0  0  0  0  0  0  0  0  0  0  0  0
   -0.4181    0.0758    3.6618 H   0  0  0  0  0  0  0  0  0  0  0  0
   -3.1468    0.7686   -1.5761 C   0  0  0  0  0  0  0  0  0  0  0  0
   -2.3875    1.3073   -2.1834 H   0  0  0  0  0  0  0  0  0  0  0  0
   -4.2727    1.7694   -1.2766 C   0  0  0  0  0  0  0  0  0  0  0  0
   -4.6993    2.1235   -2.2378 H   0  0  0  0  0  0  0  0  0  0  0  0
   -3.9270    2.6616   -0.7198 H   0  0  0  0  0  0  0  0  0  0  0  0
   -5.1012    1.2953   -0.7129 H   0  0  0  0  0  0  0  0  0  0  0  0
   -3.6752   -0.4046   -2.4030 C   0  0  0  0  0  0  0  0  0  0  0  0
   -4.5037   -0.9282   -1.8886 H   0  0  0  0  0  0  0  0  0  0  0  0
   -2.9053   -1.1700   -2.6061 H   0  0  0  0  0  0  0  0  0  0  0  0
   -4.0707   -0.0113   -3.3634 H   0  0  0  0  0  0  0  0  0  0  0  0
   -3.3946    0.1693    1.3451 C   0  0  0  0  0  0  0  0  0  0  0  0
   -4.0290    1.0708    1.1987 H   0  0  0  0  0  0  0  0  0  0  0  0
   -2.8248    0.1912    2.7634 C   0  0  0  0  0  0  0  0  0  0  0  0
   -3.6616    0.2293    3.4913 H   0  0  0  0  0  0  0  0  0  0  0  0
   -2.1691    1.0615    2.9554 H   0  0  0  0  0  0  0  0  0  0  0  0
   -2.2448   -0.7328    2.9520 H   0  0  0  0  0  0  0  0  0  0  0  0
   -4.2605   -1.0745    1.1241 C   0  0  0  0  0  0  0  0  0  0  0  0
   -3.6453   -1.9950    1.1552 H   0  0  0  0  0  0  0  0  0  0  0  0
   -4.7903   -1.0594    0.1536 H   0  0  0  0  0  0  0  0  0  0  0  0
   -5.0237   -1.1277    1.9280 H   0  0  0  0  0  0  0  0  0  0  0  0
   -0.1869   -0.2585   -1.9377 C   0  0  0  0  0  3  0  0  0  0  0  0
   -1.0577   -0.3254   -2.6181 H   0  0  0  0  0  0  0  0  0  0  0  0
    0.4519   -1.4892   -1.7321 C   0  0  0  0  0  2  0  0  0  0  0  0
    1.0882   -2.5413   -2.2753 C   0  0  0  0  0  3  0  0  0  0  0  0
    1.7298   -2.4067   -3.6365 C   0  0  0  0  0  0  0  0  0  0  0  0
    1.5711   -1.4007   -4.0708 H   0  0  0  0  0  0  0  0  0  0  0  0
    1.3141   -3.1619   -4.3398 H   0  0  0  0  0  0  0  0  0  0  0  0
    2.8260   -2.5923   -3.5843 H   0  0  0  0  0  0  0  0  0  0  0  0
    1.1951   -3.8855   -1.6037 C   0  0  0  0  0  0  0  0  0  0  0  0
    0.7319   -3.8909   -0.5990 H   0  0  0  0  0  0  0  0  0  0  0  0
    2.2525   -4.2166   -1.5168 H   0  0  0  0  0  0  0  0  0  0  0  0
    0.6652   -4.6509   -2.2106 H   0  0  0  0  0  0  0  0  0  0  0  0
  1 28  1  0  0  0  0
  1 38  1  0  0  0  0
  2 19  1  0  0  0  0
  2 58  1  0  0  0  0
  3  5  1  0  0  0  0
  3 18  1  0  0  0  0
  4 12  1  0  0  0  0
  4  1  1  0  0  0  0
  5  4  2  0  0  0  0
  6  8  2  0  0  0  0
  6  5  1  0  0  0  0
  7  6  1  0  0  0  0
  8 10  1  0  0  0  0
  9  8  1  0  0  0  0
 10 11  1  0  0  0  0
 10 12  2  0  0  0  0
 12 13  1  0  0  0  0
 14 16  1  0  0  0  0
 14  3  1  0  0  0  0
 15 14  1  0  0  0  0
 17 14  1  0  0  0  0
 18 26  2  0  0  0  0
 18 19  1  0  0  0  0
 19 20  2  0  0  0  0
 20 22  1  0  0  0  0
 20 21  1  0  0  0  0
 22 23  1  0  0  0  0
 24 25  1  0  0  0  0
 24 22  2  0  0  0  0
 26 24  1  0  0  0  0
 27 26  1  0  0  0  0
 28 34  1  0  0  0  0
 29 28  1  0  0  0  0
 30 33  1  0  0  0  0
 30 31  1  0  0  0  0
 30 28  1  0  0  0  0
 32 30  1  0  0  0  0
 34 35  1  0  0  0  0
 34 37  1  0  0  0  0
 34 36  1  0  0  0  0
 38 39  1  0  0  0  0
 38 44  1  0  0  0  0
 40 38  1  0  0  0  0
 40 43  1  0  0  0  0
 41 40  1  0  0  0  0
 42 40  1  0  0  0  0
 44 46  1  0  0  0  0
 44 45  1  0  0  0  0
 47 44  1  0  0  0  0
 48 50  1  0  0  0  0
 48  2  1  0  0  0  0
 49 48  1  0  0  0  0
 50 52  1  0  0  0  0
 50 53  1  0  0  0  0
 51 50  1  0  0  0  0
 54 55  1  0  0  0  0
 54 48  1  0  0  0  0
 56 54  1  0  0  0  0
 57 54  1  0  0  0  0
 58 60  1  0  0  0  0
 59 58  1  0  0  0  0
 60 63  1  0  0  0  0
 60 62  1  0  0  0  0
 60 61  1  0  0  0  0
 64 65  1  0  0  0  0
 64 58  1  0  0  0  0
 64 67  1  0  0  0  0
 66 64  1  0  0  0  0
 68  3  1  0  0  0  0
 68 70  1  0  0  0  0
 69 68  1  0  0  0  0
 71 70  1  0  0  0  0
 71 76  1  0  0  0  0
 72 75  1  0  0  0  0
 72 71  1  0  0  0  0
 73 72  1  0  0  0  0
 74 72  1  0  0  0  0
 76 78  1  0  0  0  0
 76 77  1  0  0  0  0
 79 76  1  0  0  0  0
M  END
