4
 OpenBabel05122313113D

 46 45  0  0  0  0  0  0  0  0999 V2000
   -2.4814   -2.6034    0.8653 Si  0  0  0  0  0  0  0  0  0  0  0  0
   -2.9436    2.3525    0.8208 Si  0  0  0  0  0  0  0  0  0  0  0  0
   -2.3121   -0.7204    0.9144 C   0  0  0  0  0  2  0  0  0  0  0  0
   -2.4225    0.5385    0.9222 C   0  0  0  0  0  2  0  0  0  0  0  0
   -4.2144   -2.9506    1.5164 C   0  0  0  0  0  0  0  0  0  0  0  0
   -4.3873   -4.0448    1.5698 H   0  0  0  0  0  0  0  0  0  0  0  0
   -4.9930   -2.5080    0.8645 H   0  0  0  0  0  0  0  0  0  0  0  0
   -4.3382   -2.5357    2.5364 H   0  0  0  0  0  0  0  0  0  0  0  0
   -1.1511   -3.3133    1.9948 C   0  0  0  0  0  0  0  0  0  0  0  0
   -1.2722   -2.9383    3.0306 H   0  0  0  0  0  0  0  0  0  0  0  0
   -0.1347   -3.0486    1.6416 H   0  0  0  0  0  0  0  0  0  0  0  0
   -1.2264   -4.4195    2.0213 H   0  0  0  0  0  0  0  0  0  0  0  0
   -2.2506   -3.1401   -0.9672 C   0  0  0  0  0  0  0  0  0  0  0  0
   -2.5906   -4.6440   -1.0426 C   0  0  0  0  0  0  0  0  0  0  0  0
   -2.4564   -5.0120   -2.0830 H   0  0  0  0  0  0  0  0  0  0  0  0
   -3.6417   -4.8511   -0.7564 H   0  0  0  0  0  0  0  0  0  0  0  0
   -1.9314   -5.2564   -0.3929 H   0  0  0  0  0  0  0  0  0  0  0  0
   -3.2070   -2.3381   -1.8688 C   0  0  0  0  0  0  0  0  0  0  0  0
   -2.9755   -1.2528   -1.8520 H   0  0  0  0  0  0  0  0  0  0  0  0
   -4.2688   -2.4613   -1.5721 H   0  0  0  0  0  0  0  0  0  0  0  0
   -3.1202   -2.6812   -2.9226 H   0  0  0  0  0  0  0  0  0  0  0  0
   -0.7978   -2.9180   -1.4231 C   0  0  0  0  0  0  0  0  0  0  0  0
   -0.6723   -3.2446   -2.4784 H   0  0  0  0  0  0  0  0  0  0  0  0
   -0.0639   -3.4830   -0.8133 H   0  0  0  0  0  0  0  0  0  0  0  0
   -0.5101   -1.8442   -1.3797 H   0  0  0  0  0  0  0  0  0  0  0  0
   -1.4802    3.3949    1.3984 C   0  0  0  0  0  0  0  0  0  0  0  0
   -1.7733    4.4630    1.4528 H   0  0  0  0  0  0  0  0  0  0  0  0
   -0.6178    3.3137    0.7065 H   0  0  0  0  0  0  0  0  0  0  0  0
   -1.1513    3.0818    2.4099 H   0  0  0  0  0  0  0  0  0  0  0  0
   -4.4209    2.5400    1.9714 C   0  0  0  0  0  0  0  0  0  0  0  0
   -4.1254    2.3522    3.0227 H   0  0  0  0  0  0  0  0  0  0  0  0
   -5.2353    1.8370    1.7086 H   0  0  0  0  0  0  0  0  0  0  0  0
   -4.8214    3.5726    1.9085 H   0  0  0  0  0  0  0  0  0  0  0  0
   -3.3751    2.6528   -1.0272 C   0  0  0  0  0  0  0  0  0  0  0  0
   -4.6038    1.8061   -1.4076 C   0  0  0  0  0  0  0  0  0  0  0  0
   -4.8592    1.9596   -2.4786 H   0  0  0  0  0  0  0  0  0  0  0  0
   -5.4997    2.0814   -0.8152 H   0  0  0  0  0  0  0  0  0  0  0  0
   -4.4199    0.7211   -1.2629 H   0  0  0  0  0  0  0  0  0  0  0  0
   -2.1814    2.2693   -1.9201 C   0  0  0  0  0  0  0  0  0  0  0  0
   -1.9568    1.1835   -1.8573 H   0  0  0  0  0  0  0  0  0  0  0  0
   -1.2562    2.8239   -1.6586 H   0  0  0  0  0  0  0  0  0  0  0  0
   -2.4097    2.4968   -2.9842 H   0  0  0  0  0  0  0  0  0  0  0  0
   -3.6927    4.1535   -1.1913 C   0  0  0  0  0  0  0  0  0  0  0  0
   -3.9829    4.3686   -2.2426 H   0  0  0  0  0  0  0  0  0  0  0  0
   -2.8191    4.7952   -0.9549 H   0  0  0  0  0  0  0  0  0  0  0  0
   -4.5381    4.4763   -0.5491 H   0  0  0  0  0  0  0  0  0  0  0  0
  1  3  1  0  0  0  0
  1  5  1  0  0  0  0
  1  9  1  0  0  0  0
  2  4  1  0  0  0  0
  2 26  1  0  0  0  0
  2 30  1  0  0  0  0
  3  4  1  0  0  0  0
  5  6  1  0  0  0  0
  5  8  1  0  0  0  0
  7  5  1  0  0  0  0
  9 12  1  0  0  0  0
  9 10  1  0  0  0  0
 11  9  1  0  0  0  0
 13  1  1  0  0  0  0
 14 13  1  0  0  0  0
 14 16  1  0  0  0  0
 14 17  1  0  0  0  0
 15 14  1  0  0  0  0
 18 19  1  0  0  0  0
 18 20  1  0  0  0  0
 18 13  1  0  0  0  0
 21 18  1  0  0  0  0
 22 25  1  0  0  0  0
 22 13  1  0  0  0  0
 22 24  1  0  0  0  0
 23 22  1  0  0  0  0
 26 27  1  0  0  0  0
 26 29  1  0  0  0  0
 28 26  1  0  0  0  0
 30 31  1  0  0  0  0
 32 30  1  0  0  0  0
 33 30  1  0  0  0  0
 34  2  1  0  0  0  0
 35 38  1  0  0  0  0
 35 34  1  0  0  0  0
 35 37  1  0  0  0  0
 36 35  1  0  0  0  0
 39 40  1  0  0  0  0
 39 41  1  0  0  0  0
 39 34  1  0  0  0  0
 42 39  1  0  0  0  0
 43 34  1  0  0  0  0
 43 45  1  0  0  0  0
 43 46  1  0  0  0  0
 44 43  1  0  0  0  0
M  END
