11
 OpenBabel05122313113D

 25 26  0  0  1  0  0  0  0  0999 V2000
   -0.3714   -0.9600   -1.4041 O   0  5  0  0  0  0  0  0  0  0  0  0
   -3.3601    0.3178    0.3449 C   0  0  1  0  0  0  0  0  0  0  0  0
   -2.1508    0.3299   -0.5643 C   0  0  0  0  0  0  0  0  0  0  0  0
   -1.4850   -0.9353   -0.7506 C   0  0  0  0  0  0  0  0  0  0  0  0
   -2.1016   -2.1624   -0.1151 C   0  0  0  0  0  0  0  0  0  0  0  0
   -3.3684   -1.7876    0.6733 C   0  0  2  0  0  0  0  0  0  0  0  0
   -4.3223   -0.8412   -0.1518 C   0  0  0  0  0  0  0  0  0  0  0  0
   -3.0533   -0.5675    1.5837 C   0  0  0  0  0  0  0  0  0  0  0  0
   -4.4803   -1.0748   -1.6534 C   0  0  0  0  0  0  0  0  0  0  0  0
   -5.7153   -0.7394    0.4806 C   0  0  0  0  0  0  0  0  0  0  0  0
   -1.6768    1.4060   -1.4041 C   0  0  0  0  0  3  0  0  0  0  0  0
   -3.7869    1.3310    0.4878 H   0  0  0  0  0  0  0  0  0  0  0  0
   -1.3390   -2.6226    0.5465 H   0  0  0  0  0  0  0  0  0  0  0  0
   -2.3103   -2.8910   -0.9286 H   0  0  0  0  0  0  0  0  0  0  0  0
   -3.8313   -2.6841    1.1352 H   0  0  0  0  0  0  0  0  0  0  0  0
   -2.0321   -0.4963    2.0065 H   0  0  0  0  0  0  0  0  0  0  0  0
   -3.7932   -0.4369    2.3933 H   0  0  0  0  0  0  0  0  0  0  0  0
   -3.5199   -1.1328   -2.1996 H   0  0  0  0  0  0  0  0  0  0  0  0
   -5.0678   -0.2528   -2.1128 H   0  0  0  0  0  0  0  0  0  0  0  0
   -5.0306   -2.0205   -1.8403 H   0  0  0  0  0  0  0  0  0  0  0  0
   -5.6845   -0.5703    1.5738 H   0  0  0  0  0  0  0  0  0  0  0  0
   -6.2887   -1.6727    0.3016 H   0  0  0  0  0  0  0  0  0  0  0  0
   -6.2870    0.0966    0.0271 H   0  0  0  0  0  0  0  0  0  0  0  0
   -2.1576    2.3884   -1.2771 H   0  0  0  0  0  0  0  0  0  0  0  0
   -1.3947    1.1482   -2.4391 H   0  0  0  0  0  0  0  0  0  0  0  0
  1  4  1  0  0  0  0
  2 12  1  1  0  0  0
  2  8  1  0  0  0  0
  3  2  1  0  0  0  0
  4  3  2  0  0  0  0
  4  5  1  0  0  0  0
  5 13  1  0  0  0  0
  5  6  1  0  0  0  0
  6 15  1  1  0  0  0
  6  8  1  0  0  0  0
  7  2  1  0  0  0  0
  7 10  1  0  0  0  0
  7  6  1  0  0  0  0
  8 16  1  0  0  0  0
  8 17  1  0  0  0  0
  9  7  1  0  0  0  0
 10 21  1  0  0  0  0
 11 24  1  0  0  0  0
 11  3  1  0  0  0  0
 14  5  1  0  0  0  0
 18  9  1  0  0  0  0
 19  9  1  0  0  0  0
 20  9  1  0  0  0  0
 22 10  1  0  0  0  0
 23 10  1  0  0  0  0
 25 11  1  0  0  0  0
M  CHG  1   1  -1
M  END
