5
q = 0.0, confidence = 0.994

 34 35  0  0  0  0  0  0  0  0999 V2000
    0.4469    2.2186    2.0286 O   0  0  0  0  0  0  0  0  0  0  0  0
    2.5913   -0.4879   -1.0509 N   0  0  0  0  0  0  0  0  0  0  0  0
    2.3731    1.5036   -0.1580 N   0  0  0  0  0  0  0  0  0  0  0  0
   -0.5710    3.2699    0.2555 N   0  0  0  0  0  0  0  0  0  0  0  0
    1.6921    0.5162   -0.8199 C   0  0  0  0  0  2  0  0  0  0  0  0
    3.6949    1.1194    0.0671 C   0  0  0  0  0  0  0  0  0  0  0  0
    4.7697    1.7419    0.7168 C   0  0  0  0  0  0  0  0  0  0  0  0
    5.9788    1.0322    0.7776 C   0  0  0  0  0  0  0  0  0  0  0  0
    6.1129   -0.2523    0.2052 C   0  0  0  0  0  0  0  0  0  0  0  0
    5.0404   -0.8748   -0.4510 C   0  0  0  0  0  0  0  0  0  0  0  0
    3.8330   -0.1670   -0.5082 C   0  0  0  0  0  0  0  0  0  0  0  0
    1.8179    2.8225    0.1301 C   0  0  0  0  0  0  0  0  0  0  0  0
    0.4883    2.7269    0.9004 C   0  0  0  0  0  0  0  0  0  0  0  0
   -1.9287    3.1453    0.7732 C   0  0  0  0  0  0  0  0  0  0  0  0
   -2.9251    3.8962   -0.1039 C   0  0  0  0  0  0  0  0  0  0  0  0
   -4.3662    3.6581    0.3439 C   0  0  0  0  0  0  0  0  0  0  0  0
    2.3093   -1.7189   -1.7633 C   0  0  0  0  0  0  0  0  0  0  0  0
    4.6740    2.7406    1.1648 H   0  0  0  0  0  0  0  0  0  0  0  0
    6.8421    1.4889    1.2834 H   0  0  0  0  0  0  0  0  0  0  0  0
    7.0778   -0.7755    0.2755 H   0  0  0  0  0  0  0  0  0  0  0  0
    5.1403   -1.8753   -0.8938 H   0  0  0  0  0  0  0  0  0  0  0  0
    2.5356    3.3560    0.7801 H   0  0  0  0  0  0  0  0  0  0  0  0
    1.7016    3.3626   -0.8307 H   0  0  0  0  0  0  0  0  0  0  0  0
   -0.4677    3.3960   -0.7642 H   0  0  0  0  0  0  0  0  0  0  0  0
   -2.2093    2.0709    0.8079 H   0  0  0  0  0  0  0  0  0  0  0  0
   -1.9411    3.5094    1.8220 H   0  0  0  0  0  0  0  0  0  0  0  0
   -2.6836    4.9818   -0.1013 H   0  0  0  0  0  0  0  0  0  0  0  0
   -2.8042    3.5342   -1.1478 H   0  0  0  0  0  0  0  0  0  0  0  0
   -4.6208    2.5814    0.2651 H   0  0  0  0  0  0  0  0  0  0  0  0
   -5.0834    4.2224   -0.2844 H   0  0  0  0  0  0  0  0  0  0  0  0
   -4.5253    3.9659    1.3990 H   0  0  0  0  0  0  0  0  0  0  0  0
    2.5264   -2.5929   -1.1191 H   0  0  0  0  0  0  0  0  0  0  0  0
    2.9180   -1.7724   -2.6881 H   0  0  0  0  0  0  0  0  0  0  0  0
    1.2388   -1.7217   -2.0363 H   0  0  0  0  0  0  0  0  0  0  0  0
  2  5  1  0  0  0  0
  2 11  1  0  0  0  0
  3  6  1  0  0  0  0
  3 12  1  0  0  0  0
  4 14  1  0  0  0  0
  4 13  1  0  0  0  0
  5  3  1  0  0  0  0
  6  7  1  0  0  0  0
  7  8  2  0  0  0  0
  7 18  1  0  0  0  0
  8 19  1  0  0  0  0
  9 20  1  0  0  0  0
  9  8  1  0  0  0  0
 10  9  2  0  0  0  0
 11 10  1  0  0  0  0
 11  6  2  0  0  0  0
 12 22  1  0  0  0  0
 12 13  1  0  0  0  0
 13  1  2  0  0  0  0
 14 25  1  0  0  0  0
 14 26  1  0  0  0  0
 15 27  1  0  0  0  0
 15 16  1  0  0  0  0
 15 14  1  0  0  0  0
 16 31  1  0  0  0  0
 17 32  1  0  0  0  0
 17  2  1  0  0  0  0
 21 10  1  0  0  0  0
 23 12  1  0  0  0  0
 24  4  1  0  0  0  0
 28 15  1  0  0  0  0
 29 16  1  0  0  0  0
 30 16  1  0  0  0  0
 33 17  1  0  0  0  0
 34 17  1  0  0  0  0
M  END
