2
 OpenBabel05122313113D

 32 34  0  0  0  0  0  0  0  0999 V2000
   -1.0483   -0.4919   -1.2117 C   0  0  0  0  0  0  0  0  0  0  0  0
   -1.4543   -1.8766   -1.2466 C   0  0  0  0  0  3  0  0  0  0  0  0
   -0.8857   -2.7143   -0.8248 H   0  0  0  0  0  0  0  0  0  0  0  0
   -2.7402   -1.9707   -1.8342 C   0  0  0  0  0  0  0  0  0  0  0  0
   -3.3265   -2.8877   -1.9607 H   0  0  0  0  0  0  0  0  0  0  0  0
   -3.1707   -0.6497   -2.1575 C   0  0  0  0  0  0  0  0  0  0  0  0
   -4.1470   -0.3716   -2.5728 H   0  0  0  0  0  0  0  0  0  0  0  0
   -2.1384    0.2504   -1.7839 C   0  0  0  0  0  3  0  0  0  0  0  0
   -2.1939    1.3413   -1.8651 H   0  0  0  0  0  0  0  0  0  0  0  0
    0.2852    0.0348   -0.5945 B   0  0  0  0  0  0  0  0  0  0  0  0
    1.3926   -1.0204   -0.2085 C   0  0  0  0  0  0  0  0  0  0  0  0
    1.7894   -2.0533   -1.0795 C   0  0  0  0  0  0  0  0  0  0  0  0
    2.7716   -2.9963   -0.7401 C   0  0  0  0  0  0  0  0  0  0  0  0
    3.3965   -2.9082    0.5162 C   0  0  0  0  0  0  0  0  0  0  0  0
    3.0398   -1.8844    1.4116 C   0  0  0  0  0  0  0  0  0  0  0  0
    2.0661   -0.9501    1.0274 C   0  0  0  0  0  0  0  0  0  0  0  0
    1.2547   -2.1424   -2.3103 F   0  0  0  0  0  0  0  0  0  0  0  0
    3.1301   -3.9556   -1.5970 F   0  0  0  0  0  0  0  0  0  0  0  0
    4.3296   -3.7946    0.8575 F   0  0  0  0  0  0  0  0  0  0  0  0
    3.6400   -1.8031    2.6005 F   0  0  0  0  0  0  0  0  0  0  0  0
    1.7761    0.0268    1.8979 F   0  0  0  0  0  0  0  0  0  0  0  0
    0.6309    1.5629   -0.4340 C   0  0  0  0  0  0  0  0  0  0  0  0
    1.9441    2.0184   -0.6989 C   0  0  0  0  0  0  0  0  0  0  0  0
    2.3368    3.3563   -0.5472 C   0  0  0  0  0  0  0  0  0  0  0  0
    1.3968    4.2985   -0.0956 C   0  0  0  0  0  0  0  0  0  0  0  0
    0.0810    3.8950    0.1874 C   0  0  0  0  0  0  0  0  0  0  0  0
   -0.2781    2.5514    0.0008 C   0  0  0  0  0  0  0  0  0  0  0  0
    2.8818    1.1696   -1.1465 F   0  0  0  0  0  0  0  0  0  0  0  0
    3.5826    3.7416   -0.8285 F   0  0  0  0  0  0  0  0  0  0  0  0
    1.7512    5.5710    0.0594 F   0  0  0  0  0  0  0  0  0  0  0  0
   -0.8103    4.7877    0.6204 F   0  0  0  0  0  0  0  0  0  0  0  0
   -1.5477    2.2330    0.2939 F   0  0  0  0  0  0  0  0  0  0  0  0
  1 10  2  0  0  0  0
  2  1  1  0  0  0  0
  2  3  1  0  0  0  0
  4  2  1  0  0  0  0
  5  4  1  0  0  0  0
  6  4  2  0  0  0  0
  6  8  1  0  0  0  0
  7  6  1  0  0  0  0
  8  1  1  0  0  0  0
  9  8  1  0  0  0  0
 10 22  1  0  0  0  0
 10 11  1  0  0  0  0
 11 16  1  0  0  0  0
 12 13  1  0  0  0  0
 12 11  2  0  0  0  0
 13 14  2  0  0  0  0
 14 19  1  0  0  0  0
 14 15  1  0  0  0  0
 15 20  1  0  0  0  0
 16 15  2  0  0  0  0
 16 21  1  0  0  0  0
 17 12  1  0  0  0  0
 18 13  1  0  0  0  0
 22 27  1  0  0  0  0
 23 24  1  0  0  0  0
 23 22  2  0  0  0  0
 24 25  2  0  0  0  0
 25 30  1  0  0  0  0
 25 26  1  0  0  0  0
 26 31  1  0  0  0  0
 27 26  2  0  0  0  0
 27 32  1  0  0  0  0
 28 23  1  0  0  0  0
 29 24  1  0  0  0  0
M  END
