1
 OpenBabel05122313113D

 45 47  0  0  1  0  0  0  0  0999 V2000
    1.1617   -0.4172    0.3097 C   0  0  0  0  0  2  0  0  0  0  0  0
   -0.0529    0.5803    0.4073 C   0  0  0  0  0  0  0  0  0  0  0  0
   -0.8093   -0.7169    0.7753 C   0  0  0  0  0  0  0  0  0  0  0  0
    0.3748   -1.4953    0.7841 C   0  0  0  0  0  0  0  0  0  0  0  0
    0.7250   -2.9066    1.1371 C   0  0  0  0  0  0  0  0  0  0  0  0
   -2.1076   -1.0081    0.9289 N   0  0  0  0  0  0  0  0  0  0  0  0
   -2.5447   -2.3841    1.1619 C   0  0  0  0  0  0  0  0  0  0  0  0
   -3.1468    0.0391    1.0099 C   0  0  2  0  0  0  0  0  0  0  0  0
   -3.6632    0.1791    2.4436 C   0  0  0  0  0  0  0  0  0  0  0  0
   -4.2166   -0.1870   -0.0554 C   0  0  0  0  0  0  0  0  0  0  0  0
   -3.8119   -0.3854   -1.3931 C   0  0  0  0  0  0  0  0  0  0  0  0
   -4.7570   -0.5733   -2.4095 C   0  0  0  0  0  0  0  0  0  0  0  0
   -6.1287   -0.5675   -2.1061 C   0  0  0  0  0  0  0  0  0  0  0  0
   -6.5425   -0.3729   -0.7810 C   0  0  0  0  0  0  0  0  0  0  0  0
   -5.5932   -0.1848    0.2375 C   0  0  0  0  0  0  0  0  0  0  0  0
    0.1531    1.5873    1.5626 C   0  0  0  0  0  0  0  0  0  0  0  0
   -0.8201    2.7736    1.5938 C   0  0  0  0  0  0  0  0  0  0  0  0
   -0.8940    3.4707    0.2301 C   0  0  0  0  0  0  0  0  0  0  0  0
   -1.3114    2.4907   -0.8727 C   0  0  0  0  0  0  0  0  0  0  0  0
   -0.3668    1.2813   -0.9295 C   0  0  0  0  0  0  0  0  0  0  0  0
    1.7240   -2.9361    1.6132 H   0  0  0  0  0  0  0  0  0  0  0  0
    0.7832   -3.5613    0.2423 H   0  0  0  0  0  0  0  0  0  0  0  0
    0.0046   -3.3588    1.8446 H   0  0  0  0  0  0  0  0  0  0  0  0
   -1.9283   -3.0829    0.5695 H   0  0  0  0  0  0  0  0  0  0  0  0
   -3.5970   -2.4848    0.8346 H   0  0  0  0  0  0  0  0  0  0  0  0
   -2.4747   -2.6627    2.2341 H   0  0  0  0  0  0  0  0  0  0  0  0
   -2.6236    0.9775    0.7510 H   0  0  0  0  0  0  0  0  0  0  0  0
   -2.8128    0.3395    3.1346 H   0  0  0  0  0  0  0  0  0  0  0  0
   -4.2222   -0.7166    2.7802 H   0  0  0  0  0  0  0  0  0  0  0  0
   -4.3379    1.0527    2.5280 H   0  0  0  0  0  0  0  0  0  0  0  0
   -2.7385   -0.3981   -1.6366 H   0  0  0  0  0  0  0  0  0  0  0  0
   -4.4204   -0.7241   -3.4464 H   0  0  0  0  0  0  0  0  0  0  0  0
   -6.8729   -0.7151   -2.9030 H   0  0  0  0  0  0  0  0  0  0  0  0
   -7.6146   -0.3683   -0.5323 H   0  0  0  0  0  0  0  0  0  0  0  0
   -5.9404   -0.0327    1.2692 H   0  0  0  0  0  0  0  0  0  0  0  0
    0.1589    1.0394    2.5281 H   0  0  0  0  0  0  0  0  0  0  0  0
    1.1807    1.9910    1.4446 H   0  0  0  0  0  0  0  0  0  0  0  0
   -1.8379    2.4445    1.9012 H   0  0  0  0  0  0  0  0  0  0  0  0
   -0.4927    3.4899    2.3761 H   0  0  0  0  0  0  0  0  0  0  0  0
   -1.5930    4.3317    0.2697 H   0  0  0  0  0  0  0  0  0  0  0  0
    0.1084    3.8864   -0.0154 H   0  0  0  0  0  0  0  0  0  0  0  0
   -2.3667    2.1741   -0.7171 H   0  0  0  0  0  0  0  0  0  0  0  0
   -1.3051    2.9971   -1.8602 H   0  0  0  0  0  0  0  0  0  0  0  0
    0.6130    1.6416   -1.3068 H   0  0  0  0  0  0  0  0  0  0  0  0
   -0.7039    0.5326   -1.6772 H   0  0  0  0  0  0  0  0  0  0  0  0
  1  2  1  0  0  0  0
  1  4  1  0  0  0  0
  2  3  1  0  0  0  0
  2 16  1  0  0  0  0
  3  4  2  0  0  0  0
  3  6  1  0  0  0  0
  4  5  1  0  0  0  0
  5 21  1  0  0  0  0
  5 23  1  0  0  0  0
  6  8  1  0  0  0  0
  6  7  1  0  0  0  0
  7 26  1  0  0  0  0
  8 27  1  6  0  0  0
  8  9  1  0  0  0  0
  9 30  1  0  0  0  0
  9 29  1  0  0  0  0
  9 28  1  0  0  0  0
 10 15  1  0  0  0  0
 10  8  1  0  0  0  0
 11 10  2  0  0  0  0
 12 13  2  0  0  0  0
 12 11  1  0  0  0  0
 13 14  1  0  0  0  0
 14 34  1  0  0  0  0
 14 15  2  0  0  0  0
 15 35  1  0  0  0  0
 16 17  1  0  0  0  0
 16 36  1  0  0  0  0
 17 38  1  0  0  0  0
 17 39  1  0  0  0  0
 18 40  1  0  0  0  0
 18 17  1  0  0  0  0
 19 42  1  0  0  0  0
 19 18  1  0  0  0  0
 20 19  1  0  0  0  0
 20  2  1  0  0  0  0
 22  5  1  0  0  0  0
 24  7  1  0  0  0  0
 25  7  1  0  0  0  0
 31 11  1  0  0  0  0
 32 12  1  0  0  0  0
 33 13  1  0  0  0  0
 37 16  1  0  0  0  0
 41 18  1  0  0  0  0
 43 19  1  0  0  0  0
 44 20  1  0  0  0  0
 45 20  1  0  0  0  0
M  END
