1
 OpenBabel05122313113D

 31 31  0  0  0  0  0  0  0  0999 V2000
    1.7442    1.5441    1.3416 C   0  0  0  0  0  2  0  0  0  0  0  0
    2.5004    2.4351    0.4014 C   0  0  0  0  0  0  0  0  0  0  0  0
    2.2225    3.8106    0.3197 C   0  0  0  0  0  0  0  0  0  0  0  0
    1.4500    4.2433    0.9707 H   0  0  0  0  0  0  0  0  0  0  0  0
    2.9139    4.6282   -0.5854 C   0  0  0  0  0  0  0  0  0  0  0  0
    2.6819    5.7028   -0.6337 H   0  0  0  0  0  0  0  0  0  0  0  0
    3.8945    4.0775   -1.4267 C   0  0  0  0  0  0  0  0  0  0  0  0
    4.4314    4.7151   -2.1447 H   0  0  0  0  0  0  0  0  0  0  0  0
    4.1877    2.7122   -1.3532 C   0  0  0  0  0  0  0  0  0  0  0  0
    4.9518    2.2657   -2.0057 H   0  0  0  0  0  0  0  0  0  0  0  0
    3.5081    1.8726   -0.4371 C   0  0  0  0  0  0  0  0  0  0  0  0
    3.8074    0.4791   -0.3787 C   0  0  0  0  0  0  0  0  0  0  0  0
    4.0698   -0.7283   -0.3404 C   0  0  0  0  0  0  0  0  0  0  0  0
    2.5135    1.4002    2.4158 O   0  0  0  0  0  0  0  0  0  0  0  0
    2.1432    0.5681    3.5211 C   0  0  0  0  0  0  0  0  0  0  0  0
    3.0231    0.5535    4.1893 H   0  0  0  0  0  0  0  0  0  0  0  0
    1.9078   -0.4574    3.1819 H   0  0  0  0  0  0  0  0  0  0  0  0
    1.2719    0.9962    4.0513 H   0  0  0  0  0  0  0  0  0  0  0  0
    4.4977   -2.5249   -0.2867 Si  0  0  0  0  0  0  0  0  0  0  0  0
    3.2266   -3.4870   -1.3041 C   0  0  0  0  0  0  0  0  0  0  0  0
    3.4895   -4.5647   -1.3375 H   0  0  0  0  0  0  0  0  0  0  0  0
    3.1912   -3.1074   -2.3456 H   0  0  0  0  0  0  0  0  0  0  0  0
    2.2173   -3.3897   -0.8583 H   0  0  0  0  0  0  0  0  0  0  0  0
    6.2225   -2.7328   -1.0360 C   0  0  0  0  0  0  0  0  0  0  0  0
    6.5260   -3.8003   -1.0257 H   0  0  0  0  0  0  0  0  0  0  0  0
    6.9758   -2.1544   -0.4639 H   0  0  0  0  0  0  0  0  0  0  0  0
    6.2444   -2.3781   -2.0862 H   0  0  0  0  0  0  0  0  0  0  0  0
    4.4861   -3.1023    1.5126 C   0  0  0  0  0  0  0  0  0  0  0  0
    4.7669   -4.1738    1.5804 H   0  0  0  0  0  0  0  0  0  0  0  0
    3.4742   -2.9784    1.9460 H   0  0  0  0  0  0  0  0  0  0  0  0
    5.2047   -2.5168    2.1209 H   0  0  0  0  0  0  0  0  0  0  0  0
  1 14  1  0  0  0  0
  2  1  1  0  0  0  0
  3  2  1  0  0  0  0
  3  4  1  0  0  0  0
  5  3  2  0  0  0  0
  6  5  1  0  0  0  0
  7  9  2  0  0  0  0
  7  5  1  0  0  0  0
  8  7  1  0  0  0  0
  9 11  1  0  0  0  0
 10  9  1  0  0  0  0
 11 12  1  0  0  0  0
 11  2  2  0  0  0  0
 12 13  3  0  0  0  0
 13 19  1  0  0  0  0
 14 15  1  0  0  0  0
 15 18  1  0  0  0  0
 15 16  1  0  0  0  0
 17 15  1  0  0  0  0
 19 28  1  0  0  0  0
 20 23  1  0  0  0  0
 20 19  1  0  0  0  0
 21 20  1  0  0  0  0
 22 20  1  0  0  0  0
 24 25  1  0  0  0  0
 24 26  1  0  0  0  0
 24 19  1  0  0  0  0
 27 24  1  0  0  0  0
 28 29  1  0  0  0  0
 28 30  1  0  0  0  0
 28 31  1  0  0  0  0
M  END
