3
 OpenBabel05122313113D

 33 34  0  0  0  0  0  0  0  0999 V2000
    0.1056    0.0100    0.6661 C   0  0  0  0  0  0  0  0  0  0  0  0
   -0.2127    1.3025    0.1154 C   0  0  0  0  0  0  0  0  0  0  0  0
   -0.5527    1.1282   -1.2610 C   0  0  0  0  0  3  0  0  0  0  0  0
   -0.4482   -0.2760   -1.5730 C   0  0  0  0  0  0  0  0  0  0  0  0
   -0.0518   -0.9693   -0.3746 C   0  0  0  0  0  0  0  0  0  0  0  0
    0.2594   -2.4355   -0.2551 C   0  0  0  0  0  0  0  0  0  0  0  0
    1.7369   -2.7451   -0.4921 C   0  0  0  0  0  0  0  0  0  0  0  0
    2.5144   -2.1280    0.5496 O   0  0  0  0  0  0  0  0  0  0  0  0
    3.9659   -1.3987    0.1394 S   0  0  0  0  0  0  0  0  0  0  0  0
    4.8135   -1.6024    1.3181 O   0  0  0  0  0  1  0  0  0  0  0  0
    4.3464   -1.8514   -1.2129 O   0  0  0  0  0  1  0  0  0  0  0  0
    3.4949    0.3237    0.0581 C   0  0  0  0  0  0  0  0  0  0  0  0
    3.4446    1.0734    1.2423 C   0  0  0  0  0  0  0  0  0  0  0  0
    3.0653    2.4196    1.1723 C   0  0  0  0  0  0  0  0  0  0  0  0
    2.7394    3.0257   -0.0598 C   0  0  0  0  0  0  0  0  0  0  0  0
    2.8157    2.2442   -1.2327 C   0  0  0  0  0  0  0  0  0  0  0  0
    3.1920    0.8972   -1.1857 C   0  0  0  0  0  0  0  0  0  0  0  0
    2.2947    4.4632   -0.1263 C   0  0  0  0  0  0  0  0  0  0  0  0
    0.4457   -0.1987    1.6862 H   0  0  0  0  0  0  0  0  0  0  0  0
   -0.1807    2.2552    0.6558 H   0  0  0  0  0  0  0  0  0  0  0  0
   -0.8325    1.9237   -1.9618 H   0  0  0  0  0  0  0  0  0  0  0  0
   -0.6206   -0.7373   -2.5526 H   0  0  0  0  0  0  0  0  0  0  0  0
   -0.3359   -3.0122   -0.9919 H   0  0  0  0  0  0  0  0  0  0  0  0
   -0.0298   -2.8034    0.7495 H   0  0  0  0  0  0  0  0  0  0  0  0
    1.9097   -3.8418   -0.4560 H   0  0  0  0  0  0  0  0  0  0  0  0
    2.0758   -2.3864   -1.4862 H   0  0  0  0  0  0  0  0  0  0  0  0
    3.7172    0.6024    2.1976 H   0  0  0  0  0  0  0  0  0  0  0  0
    3.0286    3.0187    2.0955 H   0  0  0  0  0  0  0  0  0  0  0  0
    2.5793    2.7038   -2.2052 H   0  0  0  0  0  0  0  0  0  0  0  0
    3.2717    0.2918   -2.0996 H   0  0  0  0  0  0  0  0  0  0  0  0
    1.1928    4.5283   -0.2591 H   0  0  0  0  0  0  0  0  0  0  0  0
    2.7512    4.9915   -0.9869 H   0  0  0  0  0  0  0  0  0  0  0  0
    2.5501    5.0168    0.7974 H   0  0  0  0  0  0  0  0  0  0  0  0
  1 19  1  0  0  0  0
  2 20  1  0  0  0  0
  2  1  2  0  0  0  0
  3  2  1  0  0  0  0
  4  3  1  0  0  0  0
  4  5  2  0  0  0  0
  5  6  1  0  0  0  0
  5  1  1  0  0  0  0
  6 24  1  0  0  0  0
  7 25  1  0  0  0  0
  7  6  1  0  0  0  0
  7  8  1  0  0  0  0
  9  8  1  0  0  0  0
  9 10  1  0  0  0  0
 11  9  1  0  0  0  0
 12  9  1  0  0  0  0
 12 13  1  0  0  0  0
 13 27  1  0  0  0  0
 14 13  2  0  0  0  0
 14 28  1  0  0  0  0
 15 14  1  0  0  0  0
 16 17  1  0  0  0  0
 16 15  2  0  0  0  0
 17 12  2  0  0  0  0
 18 15  1  0  0  0  0
 18 33  1  0  0  0  0
 21  3  1  0  0  0  0
 22  4  1  0  0  0  0
 23  6  1  0  0  0  0
 26  7  1  0  0  0  0
 29 16  1  0  0  0  0
 30 17  1  0  0  0  0
 31 18  1  0  0  0  0
 32 18  1  0  0  0  0
M  END
