11
 OpenBabel05122313113D

 28 29  0  0  0  0  0  0  0  0999 V2000
   -0.7683    2.9154    0.0869 N   0  0  0  0  0  0  0  0  0  0  0  0
   -2.2322    1.3277   -0.1113 N   0  0  0  0  0  0  0  0  0  0  0  0
    0.4126    3.7135    0.3810 C   0  0  0  0  0  0  0  0  0  0  0  0
    0.7892    4.2088   -0.5339 H   0  0  0  0  0  0  0  0  0  0  0  0
    1.2120    3.0529    0.7532 H   0  0  0  0  0  0  0  0  0  0  0  0
    0.1514    4.4764    1.1422 H   0  0  0  0  0  0  0  0  0  0  0  0
   -1.9890    3.5239   -0.1681 C   0  0  0  0  0  0  0  0  0  0  0  0
   -2.0908    4.6104   -0.2402 H   0  0  0  0  0  0  0  0  0  0  0  0
   -2.9110    2.5249   -0.2918 C   0  0  0  0  0  0  0  0  0  0  0  0
   -3.9846    2.5648   -0.4924 H   0  0  0  0  0  0  0  0  0  0  0  0
   -0.8838    1.5393    0.1017 C   0  0  0  0  0  2  0  0  0  0  0  0
   -2.9391    0.0428   -0.0456 C   0  0  0  0  0  0  0  0  0  0  0  0
   -2.1384   -0.7158    0.0655 H   0  0  0  0  0  0  0  0  0  0  0  0
   -3.6962   -0.2709   -1.3425 C   0  0  0  0  0  0  0  0  0  0  0  0
   -2.9833   -0.2219   -2.1897 H   0  0  0  0  0  0  0  0  0  0  0  0
   -4.4860    0.4949   -1.5151 H   0  0  0  0  0  0  0  0  0  0  0  0
   -4.3344   -1.6622   -1.2506 C   0  0  0  0  0  0  0  0  0  0  0  0
   -4.8960   -1.8839   -2.1814 H   0  0  0  0  0  0  0  0  0  0  0  0
   -3.5170   -2.4147   -1.1906 H   0  0  0  0  0  0  0  0  0  0  0  0
   -5.2500   -1.7891   -0.0260 C   0  0  0  0  0  0  0  0  0  0  0  0
   -6.1253   -1.1115   -0.1494 H   0  0  0  0  0  0  0  0  0  0  0  0
   -5.6607   -2.8177    0.0472 H   0  0  0  0  0  0  0  0  0  0  0  0
   -4.5134   -1.4191    1.2687 C   0  0  0  0  0  0  0  0  0  0  0  0
   -3.7135   -2.1691    1.4620 H   0  0  0  0  0  0  0  0  0  0  0  0
   -5.2014   -1.4635    2.1385 H   0  0  0  0  0  0  0  0  0  0  0  0
   -3.8755   -0.0269    1.1710 C   0  0  0  0  0  0  0  0  0  0  0  0
   -4.6741    0.7426    1.0750 H   0  0  0  0  0  0  0  0  0  0  0  0
   -3.3140    0.2211    2.0966 H   0  0  0  0  0  0  0  0  0  0  0  0
  1 11  1  0  0  0  0
  1  3  1  0  0  0  0
  2 12  1  0  0  0  0
  2 11  1  0  0  0  0
  3  5  1  0  0  0  0
  3  6  1  0  0  0  0
  4  3  1  0  0  0  0
  7  1  1  0  0  0  0
  8  7  1  0  0  0  0
  9  7  2  0  0  0  0
  9  2  1  0  0  0  0
 10  9  1  0  0  0  0
 12 13  1  0  0  0  0
 12 26  1  0  0  0  0
 14 17  1  0  0  0  0
 14 12  1  0  0  0  0
 15 14  1  0  0  0  0
 16 14  1  0  0  0  0
 17 19  1  0  0  0  0
 17 20  1  0  0  0  0
 18 17  1  0  0  0  0
 20 22  1  0  0  0  0
 20 23  1  0  0  0  0
 21 20  1  0  0  0  0
 23 24  1  0  0  0  0
 23 25  1  0  0  0  0
 26 23  1  0  0  0  0
 26 28  1  0  0  0  0
 27 26  1  0  0  0  0
M  END
