2
 OpenBabel05122313113D

 34 35  0  0  0  0  0  0  0  0999 V2000
    0.1510    1.8952   -1.4944 B   0  0  0  0  0  0  0  0  0  0  0  0
   -1.0462    1.5094   -0.6296 C   0  0  0  0  0  3  0  0  0  0  0  0
   -1.8896    0.4204   -0.9498 C   0  0  0  0  0  3  0  0  0  0  0  0
   -1.6595   -0.4466   -2.0493 C   0  0  0  0  0  0  0  0  0  0  0  0
   -0.5018   -0.1956   -2.8540 C   0  0  0  0  0  0  0  0  0  0  0  0
    0.3835    0.8691   -2.6159 C   0  0  0  0  0  0  0  0  0  0  0  0
    1.0982    3.1075   -1.1633 C   0  0  0  0  0  0  0  0  0  0  0  0
    0.7628    4.0431   -0.1528 C   0  0  0  0  0  0  0  0  0  0  0  0
    1.6019    5.1208    0.1653 C   0  0  0  0  0  0  0  0  0  0  0  0
    2.8120    5.2930   -0.5262 C   0  0  0  0  0  0  0  0  0  0  0  0
    3.1699    4.3831   -1.5351 C   0  0  0  0  0  0  0  0  0  0  0  0
    2.3230    3.3102   -1.8449 C   0  0  0  0  0  0  0  0  0  0  0  0
   -2.7345   -1.4792   -2.4421 C   0  0  0  0  0  0  0  0  0  0  0  0
   -2.2864   -2.3782   -3.6078 C   0  0  0  0  0  0  0  0  0  0  0  0
   -3.1292   -2.3729   -1.2479 C   0  0  0  0  0  0  0  0  0  0  0  0
   -3.9731   -0.6664   -2.8967 C   0  0  0  0  0  0  0  0  0  0  0  0
   -1.3500    2.0745    0.2647 H   0  0  0  0  0  0  0  0  0  0  0  0
   -2.7674    0.2300   -0.3117 H   0  0  0  0  0  0  0  0  0  0  0  0
   -0.2874   -0.8979   -3.6722 H   0  0  0  0  0  0  0  0  0  0  0  0
    1.2625    0.9074   -3.2798 H   0  0  0  0  0  0  0  0  0  0  0  0
   -0.1865    3.9309    0.3959 H   0  0  0  0  0  0  0  0  0  0  0  0
    1.3121    5.8319    0.9546 H   0  0  0  0  0  0  0  0  0  0  0  0
    3.4760    6.1360   -0.2794 H   0  0  0  0  0  0  0  0  0  0  0  0
    4.1183    4.5107   -2.0799 H   0  0  0  0  0  0  0  0  0  0  0  0
    2.6305    2.5990   -2.6269 H   0  0  0  0  0  0  0  0  0  0  0  0
   -2.1008   -1.7948   -4.5321 H   0  0  0  0  0  0  0  0  0  0  0  0
   -3.0874   -3.1090   -3.8376 H   0  0  0  0  0  0  0  0  0  0  0  0
   -1.3686   -2.9432   -3.3548 H   0  0  0  0  0  0  0  0  0  0  0  0
   -3.9530   -3.0533   -1.5439 H   0  0  0  0  0  0  0  0  0  0  0  0
   -3.4887   -1.7772   -0.3855 H   0  0  0  0  0  0  0  0  0  0  0  0
   -2.2704   -2.9889   -0.9186 H   0  0  0  0  0  0  0  0  0  0  0  0
   -3.7212    0.0056   -3.7420 H   0  0  0  0  0  0  0  0  0  0  0  0
   -4.3788   -0.0428   -2.0750 H   0  0  0  0  0  0  0  0  0  0  0  0
   -4.7767   -1.3543   -3.2314 H   0  0  0  0  0  0  0  0  0  0  0  0
  1  7  1  0  0  0  0
  1  2  1  0  0  0  0
  2 17  1  0  0  0  0
  3  2  1  0  0  0  0
  3 18  1  0  0  0  0
  4  3  1  0  0  0  0
  5  6  1  0  0  0  0
  5  4  2  0  0  0  0
  6  1  2  0  0  0  0
  7  8  1  0  0  0  0
  8  9  2  0  0  0  0
  8 21  1  0  0  0  0
  9 22  1  0  0  0  0
 10 23  1  0  0  0  0
 10  9  1  0  0  0  0
 11 10  2  0  0  0  0
 12 11  1  0  0  0  0
 12  7  2  0  0  0  0
 13  4  1  0  0  0  0
 13 15  1  0  0  0  0
 14 28  1  0  0  0  0
 14 13  1  0  0  0  0
 15 31  1  0  0  0  0
 15 30  1  0  0  0  0
 16 13  1  0  0  0  0
 16 33  1  0  0  0  0
 19  5  1  0  0  0  0
 20  6  1  0  0  0  0
 24 11  1  0  0  0  0
 25 12  1  0  0  0  0
 26 14  1  0  0  0  0
 27 14  1  0  0  0  0
 29 15  1  0  0  0  0
 32 16  1  0  0  0  0
 34 16  1  0  0  0  0
M  END
