4
 OpenBabel05122313113D

 48 51  0  0  1  0  0  0  0  0999 V2000
    2.0628    1.7433   -1.0644 O   0  0  0  0  0  0  0  0  0  0  0  0
   -6.8143   -0.8203   -0.5718 O   0  0  0  0  0  0  0  0  0  0  0  0
   -3.9961   -0.6123   -0.2540 N   0  0  0  0  0  0  0  0  0  0  0  0
    1.6545    0.5844   -0.5918 C   0  0  0  0  0  2  0  0  0  0  0  0
    0.1324    0.4898   -0.7226 C   0  0  1  0  0  0  0  0  0  0  0  0
   -0.2233    1.6841   -1.6524 C   0  0  0  0  0  0  0  0  0  0  0  0
   -0.3464    1.3180   -2.6925 H   0  0  0  0  0  0  0  0  0  0  0  0
   -1.1674    2.1813   -1.3617 H   0  0  0  0  0  0  0  0  0  0  0  0
    0.9786    2.6166   -1.5848 C   0  0  2  0  0  0  0  0  0  0  0  0
    0.8579    3.4023   -0.8110 H   0  0  0  0  0  0  0  0  0  0  0  0
    1.4519    3.2248   -2.8889 C   0  0  0  0  0  0  0  0  0  0  0  0
    2.3923    3.7911   -2.7455 H   0  0  0  0  0  0  0  0  0  0  0  0
    0.6832    3.9219   -3.2778 H   0  0  0  0  0  0  0  0  0  0  0  0
    1.6255    2.4372   -3.6494 H   0  0  0  0  0  0  0  0  0  0  0  0
   -0.3377   -0.8342   -1.3545 C   0  0  0  0  0  0  0  0  0  0  0  0
   -0.0715   -1.6748   -0.6870 H   0  0  0  0  0  0  0  0  0  0  0  0
    0.1849   -1.0046   -2.3172 H   0  0  0  0  0  0  0  0  0  0  0  0
   -1.8523   -0.8158   -1.5577 C   0  0  0  0  0  0  0  0  0  0  0  0
   -2.1419   -0.1556   -2.4081 H   0  0  0  0  0  0  0  0  0  0  0  0
   -2.1782   -1.8309   -1.8664 H   0  0  0  0  0  0  0  0  0  0  0  0
   -2.5897   -0.4095   -0.3017 C   0  0  0  0  0  0  0  0  0  0  0  0
   -1.9352    0.1355    0.7649 C   0  0  0  0  0  0  0  0  0  0  0  0
   -2.5743    0.2863    2.1270 C   0  0  0  0  0  0  0  0  0  0  0  0
   -3.6332   -0.0312    2.0882 H   0  0  0  0  0  0  0  0  0  0  0  0
   -2.0571   -0.4345    2.8050 H   0  0  0  0  0  0  0  0  0  0  0  0
   -2.4051    1.6861    2.7331 C   0  0  0  0  0  0  0  0  0  0  0  0
   -2.8305    1.7159    3.7579 H   0  0  0  0  0  0  0  0  0  0  0  0
   -2.9754    2.4285    2.1299 H   0  0  0  0  0  0  0  0  0  0  0  0
   -0.9245    2.0759    2.7477 C   0  0  0  0  0  0  0  0  0  0  0  0
   -0.3647    1.3894    3.4210 H   0  0  0  0  0  0  0  0  0  0  0  0
   -0.7866    3.0976    3.1585 H   0  0  0  0  0  0  0  0  0  0  0  0
   -0.3291    1.9962    1.3395 C   0  0  0  0  0  0  0  0  0  0  0  0
   -0.8475    2.7459    0.7024 H   0  0  0  0  0  0  0  0  0  0  0  0
    0.7449    2.2738    1.3677 H   0  0  0  0  0  0  0  0  0  0  0  0
   -0.4879    0.5918    0.7081 C   0  0  2  0  0  0  0  0  0  0  0  0
    0.0999   -0.1018    1.3519 H   0  0  0  0  0  0  0  0  0  0  0  0
   -4.5859   -1.7230   -0.9894 C   0  0  0  0  0  0  0  0  0  0  0  0
   -3.9760   -2.6364   -0.8364 H   0  0  0  0  0  0  0  0  0  0  0  0
   -4.6429   -1.5268   -2.0920 H   0  0  0  0  0  0  0  0  0  0  0  0
   -6.0024   -1.9779   -0.4699 C   0  0  0  0  0  0  0  0  0  0  0  0
   -6.4971   -2.7709   -1.0662 H   0  0  0  0  0  0  0  0  0  0  0  0
   -5.9402   -2.3175    0.5943 H   0  0  0  0  0  0  0  0  0  0  0  0
   -6.2499    0.2518    0.1649 C   0  0  0  0  0  0  0  0  0  0  0  0
   -6.2122   -0.0035    1.2541 H   0  0  0  0  0  0  0  0  0  0  0  0
   -6.9218    1.1236    0.0314 H   0  0  0  0  0  0  0  0  0  0  0  0
   -4.8392    0.5819   -0.3185 C   0  0  0  0  0  0  0  0  0  0  0  0
   -4.9015    0.9772   -1.3670 H   0  0  0  0  0  0  0  0  0  0  0  0
   -4.3999    1.3783    0.3129 H   0  0  0  0  0  0  0  0  0  0  0  0
  1  4  1  0  0  0  0
  2 40  1  0  0  0  0
  2 43  1  0  0  0  0
  5  4  1  1  0  0  0
  5 35  1  0  0  0  0
  6  9  1  0  0  0  0
  6  8  1  0  0  0  0
  6  5  1  0  0  0  0
  7  6  1  0  0  0  0
  9  1  1  0  0  0  0
  9 10  1  1  0  0  0
 11 12  1  0  0  0  0
 11  9  1  0  0  0  0
 13 11  1  0  0  0  0
 14 11  1  0  0  0  0
 15  5  1  0  0  0  0
 15 16  1  0  0  0  0
 17 15  1  0  0  0  0
 18 15  1  0  0  0  0
 18 21  1  0  0  0  0
 19 18  1  0  0  0  0
 20 18  1  0  0  0  0
 21  3  1  0  0  0  0
 21 22  2  0  0  0  0
 22 23  1  0  0  0  0
 23 26  1  0  0  0  0
 23 25  1  0  0  0  0
 24 23  1  0  0  0  0
 26 29  1  0  0  0  0
 26 27  1  0  0  0  0
 28 26  1  0  0  0  0
 29 31  1  0  0  0  0
 29 30  1  0  0  0  0
 32 34  1  0  0  0  0
 32 29  1  0  0  0  0
 33 32  1  0  0  0  0
 35 22  1  0  0  0  0
 35 32  1  0  0  0  0
 35 36  1  1  0  0  0
 37 38  1  0  0  0  0
 37 40  1  0  0  0  0
 37  3  1  0  0  0  0
 39 37  1  0  0  0  0
 40 42  1  0  0  0  0
 41 40  1  0  0  0  0
 43 44  1  0  0  0  0
 45 43  1  0  0  0  0
 46  3  1  0  0  0  0
 46 43  1  0  0  0  0
 46 48  1  0  0  0  0
 47 46  1  0  0  0  0
M  END
