2
 OpenBabel05122313113D

 25 25  0  0  1  0  0  0  0  0999 V2000
   -0.8990   -1.5502    0.8819 N   0  0  0  0  0  0  0  0  0  0  0  0
   -1.6866    0.6212   -0.5262 C   0  0  0  0  0  3  0  0  0  0  0  0
   -2.1782    1.8657   -0.9819 C   0  0  0  0  0  0  0  0  0  0  0  0
   -3.5386    2.0704   -1.2709 C   0  0  0  0  0  0  0  0  0  0  0  0
   -4.4571    1.0241   -1.1148 C   0  0  0  0  0  0  0  0  0  0  0  0
   -3.9956   -0.2335   -0.6927 C   0  0  0  0  0  0  0  0  0  0  0  0
   -2.6336   -0.4388   -0.4176 C   0  0  0  0  0  0  0  0  0  0  0  0
   -2.0631   -1.7935   -0.0657 C   0  0  2  0  0  0  0  0  0  0  0  0
   -3.0749   -2.8361    0.4078 C   0  0  0  0  0  0  0  0  0  0  0  0
   -1.4059   -1.2256    2.2338 C   0  0  0  0  0  0  0  0  0  0  0  0
   -0.0140   -2.7357    0.9471 C   0  0  0  0  0  0  0  0  0  0  0  0
   -1.4869    2.7055   -1.1466 H   0  0  0  0  0  0  0  0  0  0  0  0
   -3.8778    3.0556   -1.6285 H   0  0  0  0  0  0  0  0  0  0  0  0
   -5.5249    1.1772   -1.3327 H   0  0  0  0  0  0  0  0  0  0  0  0
   -4.7123   -1.0628   -0.5929 H   0  0  0  0  0  0  0  0  0  0  0  0
   -1.5601   -2.1687   -0.9830 H   0  0  0  0  0  0  0  0  0  0  0  0
   -3.7190   -2.4709    1.2322 H   0  0  0  0  0  0  0  0  0  0  0  0
   -2.5871   -3.7775    0.7282 H   0  0  0  0  0  0  0  0  0  0  0  0
   -3.7394   -3.0985   -0.4379 H   0  0  0  0  0  0  0  0  0  0  0  0
   -1.9790   -2.0765    2.6593 H   0  0  0  0  0  0  0  0  0  0  0  0
   -2.0591   -0.3357    2.1714 H   0  0  0  0  0  0  0  0  0  0  0  0
   -0.5569   -1.0125    2.9045 H   0  0  0  0  0  0  0  0  0  0  0  0
    0.8306   -2.5150    1.6248 H   0  0  0  0  0  0  0  0  0  0  0  0
    0.3777   -2.9332   -0.0685 H   0  0  0  0  0  0  0  0  0  0  0  0
   -0.5573   -3.6256    1.3319 H   0  0  0  0  0  0  0  0  0  0  0  0
  1 11  1  0  0  0  0
  1 10  1  0  0  0  0
  2  7  1  0  0  0  0
  3  2  2  0  0  0  0
  4  5  2  0  0  0  0
  4  3  1  0  0  0  0
  5  6  1  0  0  0  0
  6 15  1  0  0  0  0
  6  7  2  0  0  0  0
  7  8  1  0  0  0  0
  8 16  1  6  0  0  0
  8  9  1  0  0  0  0
  8  1  1  0  0  0  0
  9 18  1  0  0  0  0
  9 17  1  0  0  0  0
 10 20  1  0  0  0  0
 10 22  1  0  0  0  0
 11 25  1  0  0  0  0
 11 23  1  0  0  0  0
 12  3  1  0  0  0  0
 13  4  1  0  0  0  0
 14  5  1  0  0  0  0
 19  9  1  0  0  0  0
 21 10  1  0  0  0  0
 24 11  1  0  0  0  0
M  END
