2
 OpenBabel05122313113D

 40 42  0  0  0  0  0  0  0  0999 V2000
    2.6747    0.9946   -0.6143 N   0  0  0  0  0  0  0  0  0  0  0  0
    1.4475    1.2234   -0.0522 C   0  0  0  0  0  2  0  0  0  0  0  0
    1.4861    2.5010    0.4346 N   0  0  0  0  0  0  0  0  0  0  0  0
    2.7224    3.0943    0.1748 C   0  0  0  0  0  0  0  0  0  0  0  0
    3.2451    4.3653    0.4513 C   0  0  0  0  0  0  0  0  0  0  0  0
    2.6479    5.1355    0.9591 H   0  0  0  0  0  0  0  0  0  0  0  0
    4.5666    4.6162    0.0488 C   0  0  0  0  0  0  0  0  0  0  0  0
    5.0095    5.6028    0.2499 H   0  0  0  0  0  0  0  0  0  0  0  0
    5.3401    3.6317   -0.6047 C   0  0  0  0  0  0  0  0  0  0  0  0
    6.3741    3.8658   -0.8977 H   0  0  0  0  0  0  0  0  0  0  0  0
    4.8191    2.3587   -0.8852 C   0  0  0  0  0  0  0  0  0  0  0  0
    5.4219    1.5847   -1.3799 H   0  0  0  0  0  0  0  0  0  0  0  0
    3.4975    2.1122   -0.4914 C   0  0  0  0  0  0  0  0  0  0  0  0
    3.0598   -0.2723   -1.2165 C   0  0  0  0  0  0  0  0  0  0  0  0
    2.1130   -0.8473   -1.3042 H   0  0  0  0  0  0  0  0  0  0  0  0
    3.4209   -0.0887   -2.2495 H   0  0  0  0  0  0  0  0  0  0  0  0
    4.0942   -1.0322   -0.4122 C   0  0  0  0  0  0  0  0  0  0  0  0
    5.1378   -1.7127   -1.0671 C   0  0  0  0  0  0  0  0  0  0  0  0
    5.2120   -1.6638   -2.1657 H   0  0  0  0  0  0  0  0  0  0  0  0
    6.0825   -2.4482   -0.3345 C   0  0  0  0  0  0  0  0  0  0  0  0
    6.8939   -2.9745   -0.8601 H   0  0  0  0  0  0  0  0  0  0  0  0
    5.9966   -2.5027    1.0652 C   0  0  0  0  0  0  0  0  0  0  0  0
    6.7392   -3.0739    1.6426 H   0  0  0  0  0  0  0  0  0  0  0  0
    4.9570   -1.8259    1.7242 C   0  0  0  0  0  0  0  0  0  0  0  0
    4.8775   -1.8696    2.8211 H   0  0  0  0  0  0  0  0  0  0  0  0
    4.0083   -1.0960    0.9932 C   0  0  0  0  0  0  0  0  0  0  0  0
    3.1847   -0.5849    1.5180 H   0  0  0  0  0  0  0  0  0  0  0  0
    0.3654    3.1281    1.1291 C   0  0  0  0  0  0  0  0  0  0  0  0
   -0.0358    2.3679    1.8317 H   0  0  0  0  0  0  0  0  0  0  0  0
    0.7747    3.9540    1.7457 H   0  0  0  0  0  0  0  0  0  0  0  0
   -0.7277    3.6343    0.1870 C   0  0  0  0  0  0  0  0  0  0  0  0
   -1.0586    2.7893   -0.4559 H   0  0  0  0  0  0  0  0  0  0  0  0
   -0.3008    4.3962   -0.5017 H   0  0  0  0  0  0  0  0  0  0  0  0
   -1.9215    4.2178    0.9471 C   0  0  0  0  0  0  0  0  0  0  0  0
   -2.3438    3.4334    1.6145 H   0  0  0  0  0  0  0  0  0  0  0  0
   -1.5700    5.0291    1.6243 H   0  0  0  0  0  0  0  0  0  0  0  0
   -3.0201    4.7465    0.0259 C   0  0  0  0  0  0  0  0  0  0  0  0
   -3.8752    5.1522    0.6023 H   0  0  0  0  0  0  0  0  0  0  0  0
   -2.6390    5.5567   -0.6303 H   0  0  0  0  0  0  0  0  0  0  0  0
   -3.4132    3.9417   -0.6269 H   0  0  0  0  0  0  0  0  0  0  0  0
  1 13  1  0  0  0  0
  1  2  1  0  0  0  0
  2  3  1  0  0  0  0
  3 28  1  0  0  0  0
  4  3  1  0  0  0  0
  4  5  1  0  0  0  0
  5  6  1  0  0  0  0
  7  8  1  0  0  0  0
  7  5  2  0  0  0  0
  9  7  1  0  0  0  0
 10  9  1  0  0  0  0
 11  9  2  0  0  0  0
 11 13  1  0  0  0  0
 12 11  1  0  0  0  0
 13  4  2  0  0  0  0
 14  1  1  0  0  0  0
 14 17  1  0  0  0  0
 15 14  1  0  0  0  0
 16 14  1  0  0  0  0
 17 26  1  0  0  0  0
 18 17  2  0  0  0  0
 18 20  1  0  0  0  0
 19 18  1  0  0  0  0
 20 22  2  0  0  0  0
 21 20  1  0  0  0  0
 22 23  1  0  0  0  0
 22 24  1  0  0  0  0
 24 25  1  0  0  0  0
 26 27  1  0  0  0  0
 26 24  2  0  0  0  0
 28 30  1  0  0  0  0
 28 29  1  0  0  0  0
 31 34  1  0  0  0  0
 31 28  1  0  0  0  0
 32 31  1  0  0  0  0
 33 31  1  0  0  0  0
 34 35  1  0  0  0  0
 34 36  1  0  0  0  0
 37 38  1  0  0  0  0
 37 34  1  0  0  0  0
 39 37  1  0  0  0  0
 40 37  1  0  0  0  0
M  END
