12
 OpenBabel05122313113D

 23 24  0  0  0  0  0  0  0  0999 V2000
   -6.7020   -0.7453    0.0438 Br  0  0  0  0  0  0  0  0  0  0  0  0
   -1.9846   -1.1086    0.0803 C   0  0  0  0  0  0  0  0  0  0  0  0
   -2.7323   -1.4241   -1.0821 C   0  0  0  0  0  0  0  0  0  0  0  0
   -2.1991   -1.7435   -1.9895 H   0  0  0  0  0  0  0  0  0  0  0  0
   -4.1284   -1.3183   -1.0973 C   0  0  0  0  0  0  0  0  0  0  0  0
   -4.6954   -1.5595   -2.0077 H   0  0  0  0  0  0  0  0  0  0  0  0
   -4.8036   -0.9018    0.0615 C   0  0  0  0  0  0  0  0  0  0  0  0
   -4.0917   -0.5978    1.2344 C   0  0  0  0  0  0  0  0  0  0  0  0
   -4.6305   -0.2817    2.1389 H   0  0  0  0  0  0  0  0  0  0  0  0
   -2.6959   -0.6953    1.2359 C   0  0  0  0  0  0  0  0  0  0  0  0
   -2.1301   -0.4485    2.1467 H   0  0  0  0  0  0  0  0  0  0  0  0
   -0.5420   -1.1325    0.0644 C   0  0  0  0  0  3  0  0  0  0  0  0
    0.5981   -1.7518    0.0321 C   0  0  0  0  0  3  0  0  0  0  0  0
    1.3868   -2.9562    0.0167 C   0  0  0  0  0  0  0  0  0  0  0  0
    2.1559   -3.3542    1.1397 C   0  0  0  0  0  0  0  0  0  0  0  0
    2.1296   -2.7537    2.0613 H   0  0  0  0  0  0  0  0  0  0  0  0
    2.9465   -4.5064    1.0550 C   0  0  0  0  0  0  0  0  0  0  0  0
    3.5429   -4.8241    1.9302 H   0  0  0  0  0  0  0  0  0  0  0  0
    3.0458   -5.2771   -0.0431 N   0  0  0  0  0  0  0  0  0  0  0  0
    2.3152   -4.9012   -1.1073 C   0  0  0  0  0  0  0  0  0  0  0  0
    2.3971   -5.5400   -2.0061 H   0  0  0  0  0  0  0  0  0  0  0  0
    1.4812   -3.7758   -1.1352 C   0  0  0  0  0  0  0  0  0  0  0  0
    0.9125   -3.5193   -2.0412 H   0  0  0  0  0  0  0  0  0  0  0  0
  1  7  1  0  0  0  0
  2 10  1  0  0  0  0
  3  2  2  0  0  0  0
  4  3  1  0  0  0  0
  5  3  1  0  0  0  0
  5  7  2  0  0  0  0
  6  5  1  0  0  0  0
  7  8  1  0  0  0  0
  8 10  2  0  0  0  0
  8  9  1  0  0  0  0
 10 11  1  0  0  0  0
 12  2  1  0  0  0  0
 13 12  2  0  0  0  0
 14 13  1  0  0  0  0
 14 15  1  0  0  0  0
 15 16  1  0  0  0  0
 17 15  2  0  0  0  0
 17 18  1  0  0  0  0
 19 17  1  0  0  0  0
 20 19  2  0  0  0  0
 21 20  1  0  0  0  0
 22 20  1  0  0  0  0
 22 14  2  0  0  0  0
 23 22  1  0  0  0  0
M  END
