2
 OpenBabel05122313113D

 20 22  0  0  1  0  0  0  0  0999 V2000
    0.9491   -2.2114   -2.3210 Br  0  0  0  0  0  0  0  0  0  0  0  0
    1.1408   -1.0462   -0.7808 C   0  0  2  0  0  3  0  0  0  0  0  0
    1.5340    1.3139   -2.6221 Br  0  0  0  0  0  0  0  0  0  0  0  0
    1.4084    0.4248   -0.9063 C   0  0  2  0  0  3  0  0  0  0  0  0
    3.0736    1.9450    0.4979 C   0  0  0  0  0  0  0  0  0  0  0  0
    2.9506    2.8706   -0.0848 H   0  0  0  0  0  0  0  0  0  0  0  0
    3.9293    1.9192    1.6407 C   0  0  0  0  0  0  0  0  0  0  0  0
    4.4426    2.8490    1.9324 H   0  0  0  0  0  0  0  0  0  0  0  0
    4.1477    0.7644    2.3915 C   0  0  0  0  0  0  0  0  0  0  0  0
    4.8202    0.7890    3.2630 H   0  0  0  0  0  0  0  0  0  0  0  0
    3.6763   -1.7495    2.6243 C   0  0  0  0  0  0  0  0  0  0  0  0
    4.3231   -1.8589    3.5086 H   0  0  0  0  0  0  0  0  0  0  0  0
    3.0327   -2.8629    2.0841 C   0  0  0  0  0  0  0  0  0  0  0  0
    3.1866   -3.8472    2.5536 H   0  0  0  0  0  0  0  0  0  0  0  0
    2.1893   -2.7823    0.9349 C   0  0  0  0  0  0  0  0  0  0  0  0
    1.7247   -3.6899    0.5200 H   0  0  0  0  0  0  0  0  0  0  0  0
    1.9897   -1.5407    0.3415 C   0  0  0  0  0  0  0  0  0  0  0  0
    2.4211    0.7739    0.1287 C   0  0  0  0  0  0  0  0  0  0  0  0
    3.5214   -0.4653    2.0136 C   0  0  0  0  0  0  0  0  0  0  0  0
    2.6778   -0.4126    0.8769 C   0  0  0  0  0  0  0  0  0  0  0  0
  2  1  1  6  0  0  0
  2 17  1  0  0  0  0
  4  3  1  6  0  0  0
  4  2  1  0  0  0  0
  4 18  1  0  0  0  0
  5  7  1  0  0  0  0
  6  5  1  0  0  0  0
  7  8  1  0  0  0  0
  7  9  2  0  0  0  0
  9 10  1  0  0  0  0
 11 12  1  0  0  0  0
 13 14  1  0  0  0  0
 13 11  1  0  0  0  0
 15 13  2  0  0  0  0
 16 15  1  0  0  0  0
 17 20  2  0  0  0  0
 17 15  1  0  0  0  0
 18  5  2  0  0  0  0
 18 20  1  0  0  0  0
 19  9  1  0  0  0  0
 19 11  2  0  0  0  0
 20 19  1  0  0  0  0
M  END
