3
 OpenBabel05122313113D

 17 18  0  0  1  0  0  0  0  0999 V2000
   -2.8223   -0.0890   -0.0054 N   0  0  0  0  0  0  0  0  0  0  0  0
   -2.7567    0.7473   -0.6131 H   0  0  0  0  0  0  0  0  0  0  0  0
   -1.6251   -0.5581    0.4572 C   0  0  0  0  0  3  0  0  0  0  0  0
   -1.7262   -1.7989    1.1933 C   0  0  0  0  0  0  0  0  0  0  0  0
   -0.7920   -2.2331    1.5724 H   0  0  0  0  0  0  0  0  0  0  0  0
   -2.9316   -2.4279    1.4102 C   0  0  0  0  0  0  0  0  0  0  0  0
   -2.9735   -3.3709    1.9789 H   0  0  0  0  0  0  0  0  0  0  0  0
   -4.1545   -1.8836    0.8949 C   0  0  0  0  0  0  0  0  0  0  0  0
   -5.4303   -2.4797    1.0644 C   0  0  0  0  0  0  0  0  0  0  0  0
   -5.5043   -3.4148    1.6406 H   0  0  0  0  0  0  0  0  0  0  0  0
   -6.5658   -1.8953    0.5090 C   0  0  0  0  0  0  0  0  0  0  0  0
   -7.5511   -2.3645    0.6450 H   0  0  0  0  0  0  0  0  0  0  0  0
   -6.4542   -0.6966   -0.2361 C   0  0  0  0  0  0  0  0  0  0  0  0
   -7.3541   -0.2423   -0.6770 H   0  0  0  0  0  0  0  0  0  0  0  0
   -5.2167   -0.0836   -0.4193 C   0  0  0  0  0  0  0  0  0  0  0  0
   -5.1205    0.8460   -1.0008 H   0  0  0  0  0  0  0  0  0  0  0  0
   -4.0613   -0.6693    0.1488 C   0  0  2  0  0  3  0  0  0  0  0  0
  1 17  1  0  0  0  0
  1  3  1  0  0  0  0
  2  1  1  0  0  0  0
  3  4  2  0  0  0  0
  4  6  1  0  0  0  0
  4  5  1  0  0  0  0
  6  7  1  0  0  0  0
  8  9  1  0  0  0  0
  8  6  2  0  0  0  0
  9 10  1  0  0  0  0
 11 12  1  0  0  0  0
 11  9  2  0  0  0  0
 13 11  1  0  0  0  0
 14 13  1  0  0  0  0
 15 13  2  0  0  0  0
 16 15  1  0  0  0  0
 17 15  1  6  0  0  0
 17  8  1  0  0  0  0
M  END
