4
 OpenBabel05122313113D

 43 44  0  0  1  0  0  0  0  0999 V2000
    1.5645    0.3443    0.0522 P   0  0  0  0  0  0  0  0  0  0  0  0
    0.1934    0.2263   -2.0119 C   0  0  0  0  0  3  0  0  0  0  0  0
    0.6712   -0.4382   -2.7467 H   0  0  0  0  0  0  0  0  0  0  0  0
   -1.2389    0.2284   -1.9921 C   0  0  0  0  0  3  0  0  0  0  0  0
   -1.8194   -0.3982   -2.6862 H   0  0  0  0  0  0  0  0  0  0  0  0
   -1.9077    0.9903   -0.9530 C   0  0  0  0  0  0  0  0  0  0  0  0
   -1.0174    1.7817   -0.1251 C   0  0  0  0  0  0  0  0  0  0  0  0
   -1.5810    2.3946    1.0497 C   0  0  0  0  0  0  0  0  0  0  0  0
   -0.9301    3.0148    1.6861 H   0  0  0  0  0  0  0  0  0  0  0  0
   -2.9286    2.2907    1.3347 C   0  0  0  0  0  0  0  0  0  0  0  0
   -3.3408    2.7832    2.2276 H   0  0  0  0  0  0  0  0  0  0  0  0
   -3.8102    1.6000    0.4432 C   0  0  0  0  0  0  0  0  0  0  0  0
   -4.8900    1.5877    0.6533 H   0  0  0  0  0  0  0  0  0  0  0  0
   -3.3203    0.9581   -0.6749 C   0  0  0  0  0  0  0  0  0  0  0  0
   -3.9893    0.4222   -1.3651 H   0  0  0  0  0  0  0  0  0  0  0  0
    0.1479    2.4370   -0.8677 C   0  0  0  0  0  0  0  0  0  0  0  0
   -0.2743    3.0445   -1.6979 H   0  0  0  0  0  0  0  0  0  0  0  0
    0.6959    3.1480   -0.2193 H   0  0  0  0  0  0  0  0  0  0  0  0
    1.0798    1.3737   -1.4490 C   0  0  1  0  0  0  0  0  0  0  0  0
    2.1301    1.9271   -2.4006 C   0  0  0  0  0  0  0  0  0  0  0  0
    1.6391    2.3868   -3.2834 H   0  0  0  0  0  0  0  0  0  0  0  0
    2.8176    1.1433   -2.7729 H   0  0  0  0  0  0  0  0  0  0  0  0
    2.7386    2.7130   -1.9100 H   0  0  0  0  0  0  0  0  0  0  0  0
    2.0400    1.4367    1.5011 C   0  0  0  0  0  0  0  0  0  0  0  0
    1.3067    2.2629    1.4042 H   0  0  0  0  0  0  0  0  0  0  0  0
    3.4445    2.0394    1.3676 C   0  0  0  0  0  0  0  0  0  0  0  0
    3.5936    2.8075    2.1537 H   0  0  0  0  0  0  0  0  0  0  0  0
    3.5986    2.5359    0.3887 H   0  0  0  0  0  0  0  0  0  0  0  0
    4.2442    1.2844    1.4979 H   0  0  0  0  0  0  0  0  0  0  0  0
    1.7670    0.7761    2.8577 C   0  0  0  0  0  0  0  0  0  0  0  0
    2.4008   -0.1129    3.0408 H   0  0  0  0  0  0  0  0  0  0  0  0
    0.7057    0.4712    2.9383 H   0  0  0  0  0  0  0  0  0  0  0  0
    1.9725    1.5015    3.6710 H   0  0  0  0  0  0  0  0  0  0  0  0
    3.0798   -0.6727   -0.3776 C   0  0  0  0  0  0  0  0  0  0  0  0
    3.8392    0.0967   -0.6412 H   0  0  0  0  0  0  0  0  0  0  0  0
    2.8733   -1.5923   -1.5865 C   0  0  0  0  0  0  0  0  0  0  0  0
    3.7799   -2.2136   -1.7317 H   0  0  0  0  0  0  0  0  0  0  0  0
    2.7085   -1.0351   -2.5272 H   0  0  0  0  0  0  0  0  0  0  0  0
    2.0120   -2.2735   -1.4380 H   0  0  0  0  0  0  0  0  0  0  0  0
    3.5991   -1.4631    0.8337 C   0  0  0  0  0  0  0  0  0  0  0  0
    2.8567   -2.1982    1.2014 H   0  0  0  0  0  0  0  0  0  0  0  0
    3.8835   -0.8167    1.6836 H   0  0  0  0  0  0  0  0  0  0  0  0
    4.5039   -2.0311    0.5373 H   0  0  0  0  0  0  0  0  0  0  0  0
  1 24  1  0  0  0  0
  2  4  1  0  0  0  0
  2 19  1  0  0  0  0
  3  2  1  0  0  0  0
  4  6  1  0  0  0  0
  5  4  1  0  0  0  0
  6 14  2  0  0  0  0
  6  7  1  0  0  0  0
  7  8  2  0  0  0  0
  8 10  1  0  0  0  0
  8  9  1  0  0  0  0
 10 11  1  0  0  0  0
 12 13  1  0  0  0  0
 12 10  2  0  0  0  0
 14 12  1  0  0  0  0
 15 14  1  0  0  0  0
 16 18  1  0  0  0  0
 16  7  1  0  0  0  0
 17 16  1  0  0  0  0
 19 20  1  6  0  0  0
 19 16  1  0  0  0  0
 19  1  1  0  0  0  0
 20 23  1  0  0  0  0
 21 20  1  0  0  0  0
 22 20  1  0  0  0  0
 24 30  1  0  0  0  0
 25 24  1  0  0  0  0
 26 29  1  0  0  0  0
 26 24  1  0  0  0  0
 26 27  1  0  0  0  0
 28 26  1  0  0  0  0
 30 32  1  0  0  0  0
 30 31  1  0  0  0  0
 30 33  1  0  0  0  0
 34  1  1  0  0  0  0
 34 40  1  0  0  0  0
 35 34  1  0  0  0  0
 36 39  1  0  0  0  0
 36 34  1  0  0  0  0
 37 36  1  0  0  0  0
 38 36  1  0  0  0  0
 40 41  1  0  0  0  0
 40 42  1  0  0  0  0
 43 40  1  0  0  0  0
M  END
