1
 OpenBabel05122313113D

 17 17  0  0  0  0  0  0  0  0999 V2000
   -1.0473    2.3418   -0.5117 C   0  0  0  0  0  3  0  0  0  0  0  0
   -0.4615    3.0664   -1.5723 C   0  0  0  0  0  0  0  0  0  0  0  0
   -0.4210    2.6239   -2.5829 H   0  0  0  0  0  0  0  0  0  0  0  0
    0.1226    4.3366   -1.3874 C   0  0  0  0  0  0  0  0  0  0  0  0
    0.1102    4.9201   -0.0929 C   0  0  0  0  0  0  0  0  0  0  0  0
   -0.5140    4.2164    0.9545 C   0  0  0  0  0  0  0  0  0  0  0  0
   -0.5295    4.6662    1.9609 H   0  0  0  0  0  0  0  0  0  0  0  0
   -1.0862    2.9509    0.7599 C   0  0  0  0  0  0  0  0  0  0  0  0
   -1.5281    2.4201    1.6156 H   0  0  0  0  0  0  0  0  0  0  0  0
    0.7995    5.0348   -2.5383 C   0  0  0  0  0  0  0  0  0  0  0  0
    0.4154    6.0662   -2.6851 H   0  0  0  0  0  0  0  0  0  0  0  0
    0.6619    4.4791   -3.4859 H   0  0  0  0  0  0  0  0  0  0  0  0
    1.8904    5.1237   -2.3541 H   0  0  0  0  0  0  0  0  0  0  0  0
    0.7941    6.2367    0.1700 C   0  0  0  0  0  0  0  0  0  0  0  0
    1.8939    6.1373    0.0504 H   0  0  0  0  0  0  0  0  0  0  0  0
    0.6017    6.5919    1.2007 H   0  0  0  0  0  0  0  0  0  0  0  0
    0.4668    7.0303   -0.5338 H   0  0  0  0  0  0  0  0  0  0  0  0
  1  8  1  0  0  0  0
  2  4  1  0  0  0  0
  2  1  2  0  0  0  0
  3  2  1  0  0  0  0
  4  5  2  0  0  0  0
  5 14  1  0  0  0  0
  5  6  1  0  0  0  0
  6  7  1  0  0  0  0
  8  6  2  0  0  0  0
  8  9  1  0  0  0  0
 10 13  1  0  0  0  0
 10  4  1  0  0  0  0
 11 10  1  0  0  0  0
 12 10  1  0  0  0  0
 14 16  1  0  0  0  0
 15 14  1  0  0  0  0
 17 14  1  0  0  0  0
M  END
