3
 OpenBabel05122313113D

 41 41  0  0  1  0  0  0  0  0999 V2000
   -2.3640    1.0974   -0.0732 N   0  0  0  0  0  0  0  0  0  0  0  0
   -2.3642   -1.0972    0.0731 N   0  0  0  0  0  0  0  0  0  0  0  0
   -1.5685    0.0000    0.0000 C   0  0  0  0  0  2  0  0  0  0  0  0
   -3.7739    0.7070   -0.3075 C   0  0  2  0  0  0  0  0  0  0  0  0
   -4.4620    1.3668    0.2554 H   0  0  0  0  0  0  0  0  0  0  0  0
   -3.7740   -0.7065    0.3073 C   0  0  2  0  0  0  0  0  0  0  0  0
   -4.4623   -1.3661   -0.2557 H   0  0  0  0  0  0  0  0  0  0  0  0
   -1.8407   -2.4921    0.1861 C   0  0  0  0  0  0  0  0  0  0  0  0
   -3.0048   -3.4903    0.0842 C   0  0  0  0  0  0  0  0  0  0  0  0
   -3.7338   -3.3867    0.9111 H   0  0  0  0  0  0  0  0  0  0  0  0
   -2.5966   -4.5178    0.1336 H   0  0  0  0  0  0  0  0  0  0  0  0
   -3.5431   -3.3915   -0.8797 H   0  0  0  0  0  0  0  0  0  0  0  0
   -0.8710   -2.7569   -0.9805 C   0  0  0  0  0  0  0  0  0  0  0  0
   -1.3657   -2.5796   -1.9562 H   0  0  0  0  0  0  0  0  0  0  0  0
   -0.5117   -3.8044   -0.9474 H   0  0  0  0  0  0  0  0  0  0  0  0
    0.0143   -2.0890   -0.9095 H   0  0  0  0  0  0  0  0  0  0  0  0
   -1.0982   -2.6633    1.5251 C   0  0  0  0  0  0  0  0  0  0  0  0
   -0.2536   -1.9444    1.5730 H   0  0  0  0  0  0  0  0  0  0  0  0
   -0.6871   -3.6886    1.6143 H   0  0  0  0  0  0  0  0  0  0  0  0
   -1.7675   -2.4771    2.3880 H   0  0  0  0  0  0  0  0  0  0  0  0
   -1.8401    2.4922   -0.1860 C   0  0  0  0  0  0  0  0  0  0  0  0
   -3.0040    3.4907   -0.0845 C   0  0  0  0  0  0  0  0  0  0  0  0
   -3.7328    3.3872   -0.9116 H   0  0  0  0  0  0  0  0  0  0  0  0
   -2.5955    4.5181   -0.1339 H   0  0  0  0  0  0  0  0  0  0  0  0
   -3.5426    3.3920    0.8793 H   0  0  0  0  0  0  0  0  0  0  0  0
   -1.0972    2.6632   -1.5248 C   0  0  0  0  0  0  0  0  0  0  0  0
   -0.2528    1.9441   -1.5725 H   0  0  0  0  0  0  0  0  0  0  0  0
   -0.6859    3.6884   -1.6140 H   0  0  0  0  0  0  0  0  0  0  0  0
   -1.7664    2.4771   -2.3879 H   0  0  0  0  0  0  0  0  0  0  0  0
   -0.8706    2.7567    0.9808 C   0  0  0  0  0  0  0  0  0  0  0  0
   -1.3656    2.5797    1.9564 H   0  0  0  0  0  0  0  0  0  0  0  0
   -0.5110    3.8041    0.9477 H   0  0  0  0  0  0  0  0  0  0  0  0
    0.0144    2.0884    0.9101 H   0  0  0  0  0  0  0  0  0  0  0  0
   -4.1373    0.6996   -1.7966 C   0  0  0  0  0  0  0  0  0  0  0  0
   -4.0481    1.7052   -2.2492 H   0  0  0  0  0  0  0  0  0  0  0  0
   -5.1830    0.3571   -1.9342 H   0  0  0  0  0  0  0  0  0  0  0  0
   -3.4665    0.0127   -2.3507 H   0  0  0  0  0  0  0  0  0  0  0  0
   -4.1376   -0.6990    1.7964 C   0  0  0  0  0  0  0  0  0  0  0  0
   -4.0488   -1.7046    2.2490 H   0  0  0  0  0  0  0  0  0  0  0  0
   -5.1833   -0.3562    1.9339 H   0  0  0  0  0  0  0  0  0  0  0  0
   -3.4667   -0.0123    2.3506 H   0  0  0  0  0  0  0  0  0  0  0  0
  1  3  1  0  0  0  0
  2  8  1  0  0  0  0
  2  6  1  0  0  0  0
  3  2  1  0  0  0  0
  4  1  1  0  0  0  0
  4  5  1  1  0  0  0
  4  6  1  0  0  0  0
  6  7  1  6  0  0  0
  6 38  1  0  0  0  0
  8 17  1  0  0  0  0
  9 11  1  0  0  0  0
  9  8  1  0  0  0  0
  9 10  1  0  0  0  0
 12  9  1  0  0  0  0
 13 15  1  0  0  0  0
 13 16  1  0  0  0  0
 13  8  1  0  0  0  0
 14 13  1  0  0  0  0
 17 18  1  0  0  0  0
 17 19  1  0  0  0  0
 17 20  1  0  0  0  0
 21 22  1  0  0  0  0
 21  1  1  0  0  0  0
 21 30  1  0  0  0  0
 22 25  1  0  0  0  0
 23 22  1  0  0  0  0
 24 22  1  0  0  0  0
 26 21  1  0  0  0  0
 27 26  1  0  0  0  0
 28 26  1  0  0  0  0
 29 26  1  0  0  0  0
 30 31  1  0  0  0  0
 32 30  1  0  0  0  0
 33 30  1  0  0  0  0
 34  4  1  0  0  0  0
 35 34  1  0  0  0  0
 36 34  1  0  0  0  0
 37 34  1  0  0  0  0
 38 40  1  0  0  0  0
 38 39  1  0  0  0  0
 38 41  1  0  0  0  0
M  END
