1
 OpenBabel05122313113D

 32 32  0  0  1  0  0  0  0  0999 V2000
    0.4588    0.5687    0.3268 C   0  0  0  0  0  3  0  0  0  0  0  0
    0.8361    1.8745   -0.1453 C   0  0  0  0  0  0  0  0  0  0  0  0
    0.1443    3.0250    0.1958 C   0  0  0  0  0  3  0  0  0  0  0  0
    0.4003    4.2763   -0.2450 N   0  0  0  0  0  0  0  0  0  0  0  0
   -0.3099    5.4277    0.2822 C   0  0  0  0  0  0  0  0  0  0  0  0
    1.4839    4.5131   -1.1859 C   0  0  0  0  0  0  0  0  0  0  0  0
   -1.7971    0.0574    1.2098 C   0  0  1  0  0  3  0  0  0  0  0  0
   -2.6516   -0.2989    0.0557 C   0  0  0  0  0  0  0  0  0  0  0  0
   -3.8985   -0.9306    0.2590 C   0  0  0  0  0  0  0  0  0  0  0  0
   -4.6790   -1.3128   -0.8385 C   0  0  0  0  0  0  0  0  0  0  0  0
   -4.2279   -1.0723   -2.1471 C   0  0  0  0  0  0  0  0  0  0  0  0
   -2.9928   -0.4371   -2.3542 C   0  0  0  0  0  0  0  0  0  0  0  0
   -2.2109   -0.0452   -1.2612 C   0  0  0  0  0  0  0  0  0  0  0  0
   -2.4051   -0.0892    2.4120 O   0  0  0  0  0  0  0  0  0  0  0  0
   -0.5857    0.4713    1.1371 N   0  0  0  0  0  2  0  0  0  0  0  0
   -1.5926    0.1371    3.5626 C   0  0  0  0  0  0  0  0  0  0  0  0
    1.7179    1.9349   -0.7946 H   0  0  0  0  0  0  0  0  0  0  0  0
   -0.7014    2.9441    0.8999 H   0  0  0  0  0  0  0  0  0  0  0  0
   -0.7536    6.0307   -0.5386 H   0  0  0  0  0  0  0  0  0  0  0  0
    0.3648    6.0892    0.8697 H   0  0  0  0  0  0  0  0  0  0  0  0
   -1.1264    5.0890    0.9465 H   0  0  0  0  0  0  0  0  0  0  0  0
    1.4556    5.5640   -1.5264 H   0  0  0  0  0  0  0  0  0  0  0  0
    1.3825    3.8509   -2.0704 H   0  0  0  0  0  0  0  0  0  0  0  0
    2.4754    4.3148   -0.7229 H   0  0  0  0  0  0  0  0  0  0  0  0
   -4.2346   -1.1306    1.2852 H   0  0  0  0  0  0  0  0  0  0  0  0
   -5.6450   -1.8130   -0.6719 H   0  0  0  0  0  0  0  0  0  0  0  0
   -4.8403   -1.3821   -3.0075 H   0  0  0  0  0  0  0  0  0  0  0  0
   -2.6289   -0.2469   -3.3749 H   0  0  0  0  0  0  0  0  0  0  0  0
   -1.2510    0.4598   -1.4314 H   0  0  0  0  0  0  0  0  0  0  0  0
   -2.2379   -0.0608    4.4373 H   0  0  0  0  0  0  0  0  0  0  0  0
   -1.2260    1.1858    3.5881 H   0  0  0  0  0  0  0  0  0  0  0  0
   -0.7099   -0.5353    3.5715 H   0  0  0  0  0  0  0  0  0  0  0  0
  1 15  1  0  0  0  0
  2  3  1  0  0  0  0
  2  1  2  0  0  0  0
  3 18  1  0  0  0  0
  4  3  1  0  0  0  0
  4  5  1  0  0  0  0
  5 20  1  0  0  0  0
  5 21  1  0  0  0  0
  6 24  1  0  0  0  0
  6  4  1  0  0  0  0
  7 15  1  1  0  0  0
  7 14  1  0  0  0  0
  8  9  1  0  0  0  0
  8  7  1  0  0  0  0
  9 25  1  0  0  0  0
 10 26  1  0  0  0  0
 10  9  2  0  0  0  0
 11 10  1  0  0  0  0
 12 11  2  0  0  0  0
 12 13  1  0  0  0  0
 13  8  2  0  0  0  0
 14 16  1  0  0  0  0
 16 32  1  0  0  0  0
 16 31  1  0  0  0  0
 16 30  1  0  0  0  0
 17  2  1  0  0  0  0
 19  5  1  0  0  0  0
 22  6  1  0  0  0  0
 23  6  1  0  0  0  0
 27 11  1  0  0  0  0
 28 12  1  0  0  0  0
 29 13  1  0  0  0  0
M  END
