20
 OpenBabel05122313113D

 29 29  0  0  1  0  0  0  0  0999 V2000
    1.3287    0.5325   -0.7776 O   0  0  0  0  0  0  0  0  0  0  0  0
    1.6506    0.3229    1.4671 O   0  0  0  0  0  0  0  0  0  0  0  0
    0.0005    0.9670   -0.6367 C   0  0  2  0  0  3  0  0  0  0  0  0
    2.0790    0.2401    0.3352 C   0  0  0  0  0  0  0  0  0  0  0  0
    3.4945   -0.1909   -0.0657 C   0  0  0  0  0  0  0  0  0  0  0  0
    4.1852    1.0041   -0.7593 C   0  0  0  0  0  0  0  0  0  0  0  0
    3.6358    1.3100   -1.6706 H   0  0  0  0  0  0  0  0  0  0  0  0
    5.2170    0.7217   -1.0520 H   0  0  0  0  0  0  0  0  0  0  0  0
    4.2511    1.8789   -0.0809 H   0  0  0  0  0  0  0  0  0  0  0  0
    4.2580   -0.5877    1.2053 C   0  0  0  0  0  0  0  0  0  0  0  0
    4.3039    0.2528    1.9244 H   0  0  0  0  0  0  0  0  0  0  0  0
    5.2928   -0.8878    0.9456 H   0  0  0  0  0  0  0  0  0  0  0  0
    3.7650   -1.4364    1.7181 H   0  0  0  0  0  0  0  0  0  0  0  0
    3.4087   -1.3861   -1.0387 C   0  0  0  0  0  0  0  0  0  0  0  0
    2.8736   -2.2410   -0.5801 H   0  0  0  0  0  0  0  0  0  0  0  0
    4.4308   -1.7209   -1.3086 H   0  0  0  0  0  0  0  0  0  0  0  0
    2.8755   -1.1084   -1.9681 H   0  0  0  0  0  0  0  0  0  0  0  0
   -0.8271    0.5716   -1.7461 C   0  0  0  0  0  3  0  0  0  0  0  0
   -0.4217    0.0246   -2.6098 H   0  0  0  0  0  0  0  0  0  0  0  0
   -2.2104    0.8504   -1.5681 C   0  0  0  0  0  3  0  0  0  0  0  0
   -2.9630    0.5095   -2.2948 H   0  0  0  0  0  0  0  0  0  0  0  0
   -2.5372    1.4841   -0.3186 C   0  0  0  0  0  3  0  0  0  0  0  0
   -3.6070    1.5375   -0.0584 H   0  0  0  0  0  0  0  0  0  0  0  0
   -1.6794    2.6192    0.2120 C   0  0  0  0  0  0  0  0  0  0  0  0
   -1.9092    2.7781    1.2844 H   0  0  0  0  0  0  0  0  0  0  0  0
   -1.9653    3.5629   -0.3050 H   0  0  0  0  0  0  0  0  0  0  0  0
   -0.1788    2.3220    0.0230 C   0  0  0  0  0  0  0  0  0  0  0  0
    0.3167    3.0893   -0.6129 H   0  0  0  0  0  0  0  0  0  0  0  0
    0.3508    2.3131    0.9939 H   0  0  0  0  0  0  0  0  0  0  0  0
  1  4  1  0  0  0  0
  3  1  1  6  0  0  0
  3 27  1  0  0  0  0
  4  2  2  0  0  0  0
  5  4  1  0  0  0  0
  5 10  1  0  0  0  0
  6  9  1  0  0  0  0
  6  5  1  0  0  0  0
  7  6  1  0  0  0  0
  8  6  1  0  0  0  0
 10 13  1  0  0  0  0
 10 11  1  0  0  0  0
 12 10  1  0  0  0  0
 14 15  1  0  0  0  0
 14  5  1  0  0  0  0
 16 14  1  0  0  0  0
 17 14  1  0  0  0  0
 18 20  1  0  0  0  0
 18  3  1  0  0  0  0
 19 18  1  0  0  0  0
 20 22  1  0  0  0  0
 21 20  1  0  0  0  0
 22 23  1  0  0  0  0
 22 24  1  0  0  0  0
 24 25  1  0  0  0  0
 26 24  1  0  0  0  0
 27 24  1  0  0  0  0
 27 29  1  0  0  0  0
 28 27  1  0  0  0  0
M  END
