9
 OpenBabel05122313113D

 26 26  0  0  1  0  0  0  0  0999 V2000
    2.2743   -0.4829    0.2816 O   0  0  0  0  0  0  0  0  0  0  0  0
    3.2657    1.5017   -0.2463 O   0  0  0  0  0  0  0  0  0  0  0  0
    1.0379    0.1540    0.1893 C   0  0  2  0  0  3  0  0  0  0  0  0
    3.3643    0.3198   -0.0034 C   0  0  0  0  0  0  0  0  0  0  0  0
    4.6295   -0.4940    0.0452 C   0  0  0  0  0  0  0  0  0  0  0  0
    5.4981    0.1602   -0.1400 H   0  0  0  0  0  0  0  0  0  0  0  0
    4.5874   -1.2976   -0.7169 H   0  0  0  0  0  0  0  0  0  0  0  0
    4.7254   -0.9910    1.0306 H   0  0  0  0  0  0  0  0  0  0  0  0
    0.2417    0.3660    1.3463 C   0  0  0  0  0  3  0  0  0  0  0  0
    0.5780    0.0409    2.3414 H   0  0  0  0  0  0  0  0  0  0  0  0
   -1.0318    0.9638    1.0306 C   0  0  0  0  0  3  0  0  0  0  0  0
   -1.7766    0.9926    1.8442 H   0  0  0  0  0  0  0  0  0  0  0  0
   -1.0535    2.1875    0.0994 C   0  0  0  0  0  0  0  0  0  0  0  0
   -0.3040    1.8156   -1.2100 C   0  0  0  0  0  0  0  0  0  0  0  0
   -1.0144    1.7399   -2.0584 H   0  0  0  0  0  0  0  0  0  0  0  0
    0.4265    2.6095   -1.4823 H   0  0  0  0  0  0  0  0  0  0  0  0
    0.4368    0.5045   -1.0649 C   0  0  0  0  0  3  0  0  0  0  0  0
    0.9618    0.1359   -1.9617 H   0  0  0  0  0  0  0  0  0  0  0  0
   -2.5010    2.6108   -0.1903 C   0  0  0  0  0  0  0  0  0  0  0  0
   -3.0756    1.7965   -0.6724 H   0  0  0  0  0  0  0  0  0  0  0  0
   -2.5232    3.4908   -0.8652 H   0  0  0  0  0  0  0  0  0  0  0  0
   -3.0262    2.8919    0.7459 H   0  0  0  0  0  0  0  0  0  0  0  0
   -0.3173    3.3411    0.8216 C   0  0  0  0  0  0  0  0  0  0  0  0
   -0.7655    3.5403    1.8170 H   0  0  0  0  0  0  0  0  0  0  0  0
   -0.3796    4.2772    0.2290 H   0  0  0  0  0  0  0  0  0  0  0  0
    0.7541    3.0948    0.9642 H   0  0  0  0  0  0  0  0  0  0  0  0
  2  4  2  0  0  0  0
  3  1  1  6  0  0  0
  3  9  1  0  0  0  0
  4  5  1  0  0  0  0
  4  1  1  0  0  0  0
  5  8  1  0  0  0  0
  6  5  1  0  0  0  0
  7  5  1  0  0  0  0
  9 10  1  0  0  0  0
 11  9  1  0  0  0  0
 11 12  1  0  0  0  0
 13 23  1  0  0  0  0
 13 11  1  0  0  0  0
 14 17  1  0  0  0  0
 14 13  1  0  0  0  0
 15 14  1  0  0  0  0
 16 14  1  0  0  0  0
 17  3  1  0  0  0  0
 18 17  1  0  0  0  0
 19 13  1  0  0  0  0
 19 22  1  0  0  0  0
 20 19  1  0  0  0  0
 21 19  1  0  0  0  0
 23 26  1  0  0  0  0
 23 24  1  0  0  0  0
 25 23  1  0  0  0  0
M  END
