3
 OpenBabel05122313113D

 20 20  0  0  0  0  0  0  0  0999 V2000
    5.7547    0.4850   -1.2847 O   0  0  0  0  0  0  0  0  0  0  0  0
    2.9891   -0.1046   -0.8629 N   0  0  0  0  0  0  0  0  0  0  0  0
    0.7898    0.1277    0.3085 C   0  0  0  0  0  3  0  0  0  0  0  0
    0.9829    1.1025    0.7972 H   0  0  0  0  0  0  0  0  0  0  0  0
    1.1738   -0.6722    0.9735 H   0  0  0  0  0  0  0  0  0  0  0  0
    1.5429    0.0374   -1.0229 C   0  0  0  0  0  0  0  0  0  0  0  0
    1.2037   -0.8551   -1.5893 H   0  0  0  0  0  0  0  0  0  0  0  0
    1.2923    0.9240   -1.6678 H   0  0  0  0  0  0  0  0  0  0  0  0
    3.6304    1.0422   -0.2320 C   0  0  0  0  0  0  0  0  0  0  0  0
    3.1662    1.2380    0.7557 H   0  0  0  0  0  0  0  0  0  0  0  0
    3.4992    1.9736   -0.8477 H   0  0  0  0  0  0  0  0  0  0  0  0
    5.1228    0.7777   -0.0515 C   0  0  0  0  0  0  0  0  0  0  0  0
    5.6302    1.6706    0.3668 H   0  0  0  0  0  0  0  0  0  0  0  0
    5.2572   -0.0697    0.6678 H   0  0  0  0  0  0  0  0  0  0  0  0
    5.1470   -0.6385   -1.8990 C   0  0  0  0  0  0  0  0  0  0  0  0
    5.2898   -1.5497   -1.2661 H   0  0  0  0  0  0  0  0  0  0  0  0
    5.6660   -0.7985   -2.8651 H   0  0  0  0  0  0  0  0  0  0  0  0
    3.6517   -0.4188   -2.1225 C   0  0  0  0  0  0  0  0  0  0  0  0
    3.5151    0.4019   -2.8795 H   0  0  0  0  0  0  0  0  0  0  0  0
    3.2003   -1.3393   -2.5514 H   0  0  0  0  0  0  0  0  0  0  0  0
  1 12  1  0  0  0  0
  2  9  1  0  0  0  0
  3  4  1  0  0  0  0
  3  5  1  0  0  0  0
  6  2  1  0  0  0  0
  6  3  1  0  0  0  0
  7  6  1  0  0  0  0
  8  6  1  0  0  0  0
  9 12  1  0  0  0  0
  9 10  1  0  0  0  0
 11  9  1  0  0  0  0
 12 13  1  0  0  0  0
 12 14  1  0  0  0  0
 15  1  1  0  0  0  0
 15 16  1  0  0  0  0
 17 15  1  0  0  0  0
 18 15  1  0  0  0  0
 18  2  1  0  0  0  0
 19 18  1  0  0  0  0
 20 18  1  0  0  0  0
M  END
