9
 OpenBabel05122313113D

 20 19  0  0  0  0  0  0  0  0999 V2000
    1.6195    0.5435    1.6847 F   0  0  0  0  0  0  0  0  0  0  0  0
    3.7690    0.5992    2.0346 F   0  0  0  0  0  0  0  0  0  0  0  0
    2.7776    2.2537    1.0204 F   0  0  0  0  0  0  0  0  0  0  0  0
    4.9531    1.6742   -0.2600 F   0  0  0  0  0  0  0  0  0  0  0  0
    3.7086    1.5632   -2.0524 F   0  0  0  0  0  0  0  0  0  0  0  0
    5.0350   -0.0851   -1.5219 F   0  0  0  0  0  0  0  0  0  0  0  0
    3.9930   -2.7570    1.7151 N   0  0  0  0  0  0  0  0  0  0  0  0
   -0.1911   -3.6703    2.4870 N   0  0  0  0  0  0  0  0  0  0  0  0
    1.1792   -1.4698   -0.0182 C   0  0  0  0  0  3  0  0  0  0  0  0
    2.3520   -0.8409   -0.6849 C   0  0  0  0  0  0  0  0  0  0  0  0
    3.0594    0.2241   -0.1962 C   0  0  0  0  0  0  0  0  0  0  0  0
    1.5051   -2.3186    1.0419 C   0  0  0  0  0  0  0  0  0  0  0  0
    2.8741   -2.5432    1.4240 C   0  0  0  0  0  0  0  0  0  0  0  0
    0.5590   -3.0520    1.8240 C   0  0  0  0  0  0  0  0  0  0  0  0
    2.7621   -1.5510   -1.9610 C   0  0  0  0  0  0  0  0  0  0  0  0
    2.8055    0.8979    1.1376 C   0  0  0  0  0  0  0  0  0  0  0  0
    4.1960    0.8373   -0.9963 C   0  0  0  0  0  0  0  0  0  0  0  0
    2.9796   -0.8502   -2.7887 H   0  0  0  0  0  0  0  0  0  0  0  0
    1.9672   -2.2461   -2.2820 H   0  0  0  0  0  0  0  0  0  0  0  0
    3.6830   -2.1330   -1.7581 H   0  0  0  0  0  0  0  0  0  0  0  0
  3 16  1  0  0  0  0
  5 17  1  0  0  0  0
  6 17  1  0  0  0  0
  9 12  2  0  0  0  0
 10 11  2  0  0  0  0
 10  9  1  0  0  0  0
 11 16  1  0  0  0  0
 12 13  1  0  0  0  0
 12 14  1  0  0  0  0
 13  7  3  0  0  0  0
 14  8  3  0  0  0  0
 15 20  1  0  0  0  0
 15 10  1  0  0  0  0
 16  1  1  0  0  0  0
 16  2  1  0  0  0  0
 17  4  1  0  0  0  0
 17 11  1  0  0  0  0
 18 15  1  0  0  0  0
 19 15  1  0  0  0  0
M  END
