3
 OpenBabel05122313113D

  5  4  0  0  0  0  0  0  0  0999 V2000
    3.9744   -2.0523    0.3622 Cl  0  0  0  0  0  0  0  0  0  0  0  0
    3.6014    2.2252   -0.1738 Cl  0  0  0  0  0  0  0  0  0  0  0  0
    3.3108   -0.4414    0.1628 C   0  0  0  0  0  2  0  0  0  0  0  0
    4.1727    0.5844    0.0338 C   0  0  0  0  0  3  0  0  0  0  0  0
    5.2686    0.4885    0.0443 H   0  0  0  0  0  0  0  0  0  0  0  0
  2  4  1  0  0  0  0
  3  1  1  0  0  0  0
  4  5  1  0  0  0  0
  4  3  1  0  0  0  0
M  END
