4
 OpenBabel05122313113D

 25 25  0  0  0  0  0  0  0  0999 V2000
    5.9975    2.2193   -0.6660 O   0  0  0  0  0  0  0  0  0  0  0  0
    7.2953    0.0233    0.2491 O   0  0  0  0  0  0  0  0  0  0  0  0
    5.9794   -2.1869    0.9499 O   0  0  0  0  0  0  0  0  0  0  0  0
    0.4364    0.0045    0.0473 C   0  0  0  0  0  3  0  0  0  0  0  0
    1.6731    0.0077    0.0720 C   0  0  0  0  0  0  0  0  0  0  0  0
    3.1005    0.0113    0.0989 C   0  0  0  0  0  0  0  0  0  0  0  0
    3.8152    1.1618   -0.3151 C   0  0  0  0  0  0  0  0  0  0  0  0
    3.2495    2.0379   -0.6537 H   0  0  0  0  0  0  0  0  0  0  0  0
    5.2202    1.1631   -0.2891 C   0  0  0  0  0  0  0  0  0  0  0  0
    5.9325    0.0223    0.1605 C   0  0  0  0  0  0  0  0  0  0  0  0
    5.2120   -1.1325    0.5600 C   0  0  0  0  0  0  0  0  0  0  0  0
    3.8060   -1.1349    0.5388 C   0  0  0  0  0  0  0  0  0  0  0  0
    3.2324   -2.0161    0.8499 H   0  0  0  0  0  0  0  0  0  0  0  0
    5.3511    3.3987   -1.1014 C   0  0  0  0  0  0  0  0  0  0  0  0
    4.7288    3.2235   -2.0080 H   0  0  0  0  0  0  0  0  0  0  0  0
    6.1512    4.1213   -1.3479 H   0  0  0  0  0  0  0  0  0  0  0  0
    4.7034    3.8333   -0.3071 H   0  0  0  0  0  0  0  0  0  0  0  0
    7.9861   -0.0805   -0.9912 C   0  0  0  0  0  0  0  0  0  0  0  0
    7.7297   -1.0271   -1.5182 H   0  0  0  0  0  0  0  0  0  0  0  0
    9.0676   -0.0847   -0.7547 H   0  0  0  0  0  0  0  0  0  0  0  0
    7.7643    0.7805   -1.6585 H   0  0  0  0  0  0  0  0  0  0  0  0
    5.3216   -3.3588    1.3859 C   0  0  0  0  0  0  0  0  0  0  0  0
    4.6806   -3.1698    2.2765 H   0  0  0  0  0  0  0  0  0  0  0  0
    6.1149   -4.0789    1.6609 H   0  0  0  0  0  0  0  0  0  0  0  0
    4.6891   -3.8063    0.5856 H   0  0  0  0  0  0  0  0  0  0  0  0
  1  9  1  0  0  0  0
  3 22  1  0  0  0  0
  4  5  3  0  0  0  0
  5  6  1  0  0  0  0
  6 12  1  0  0  0  0
  7  9  1  0  0  0  0
  7  6  2  0  0  0  0
  8  7  1  0  0  0  0
  9 10  2  0  0  0  0
 10  2  1  0  0  0  0
 10 11  1  0  0  0  0
 11  3  1  0  0  0  0
 12 11  2  0  0  0  0
 12 13  1  0  0  0  0
 14  1  1  0  0  0  0
 14 17  1  0  0  0  0
 15 14  1  0  0  0  0
 16 14  1  0  0  0  0
 18 20  1  0  0  0  0
 18  2  1  0  0  0  0
 19 18  1  0  0  0  0
 21 18  1  0  0  0  0
 22 24  1  0  0  0  0
 22 23  1  0  0  0  0
 25 22  1  0  0  0  0
M  END
