5
 OpenBabel05122313113D

 28 29  0  0  0  0  0  0  0  0999 V2000
   -4.8101    0.9186   -1.7535 O   0  0  0  0  0  0  0  0  0  0  0  0
    0.5374    2.2151   -0.7535 N   0  0  0  0  0  0  0  0  0  0  0  0
    0.7364    3.2181   -0.8579 H   0  0  0  0  0  0  0  0  0  0  0  0
    2.6792    2.0110    0.0051 N   0  0  0  0  0  0  0  0  0  0  0  0
    1.5012    1.4267   -0.2339 C   0  0  0  0  0  2  0  0  0  0  0  0
   -0.8018    1.8444   -1.0663 C   0  0  0  0  0  0  0  0  0  0  0  0
   -1.8322    2.7765   -0.8191 C   0  0  0  0  0  0  0  0  0  0  0  0
   -3.1608    2.4430   -1.0745 C   0  0  0  0  0  0  0  0  0  0  0  0
   -3.4937    1.1616   -1.5732 C   0  0  0  0  0  0  0  0  0  0  0  0
   -2.4609    0.2403   -1.8482 C   0  0  0  0  0  0  0  0  0  0  0  0
   -1.1266    0.5885   -1.6045 C   0  0  0  0  0  0  0  0  0  0  0  0
   -5.2030   -0.3200   -2.3305 C   0  0  0  0  0  0  0  0  0  0  0  0
    3.8761    1.5212    0.7060 C   0  0  0  0  0  0  0  0  0  0  0  0
    4.4522    2.9649    0.6603 C   0  0  0  0  0  0  0  0  0  0  0  0
    3.1552    3.4114   -0.0658 C   0  0  0  0  0  0  0  0  0  0  0  0
   -1.5897    3.7719   -0.4135 H   0  0  0  0  0  0  0  0  0  0  0  0
   -3.9741    3.1568   -0.8828 H   0  0  0  0  0  0  0  0  0  0  0  0
   -2.6838   -0.7554   -2.2512 H   0  0  0  0  0  0  0  0  0  0  0  0
   -0.3296   -0.1353   -1.8297 H   0  0  0  0  0  0  0  0  0  0  0  0
   -6.3058   -0.2955   -2.3938 H   0  0  0  0  0  0  0  0  0  0  0  0
   -4.8914   -1.1802   -1.6995 H   0  0  0  0  0  0  0  0  0  0  0  0
   -4.7825   -0.4431   -3.3523 H   0  0  0  0  0  0  0  0  0  0  0  0
    3.6494    1.1101    1.7119 H   0  0  0  0  0  0  0  0  0  0  0  0
    4.4409    0.7542    0.1363 H   0  0  0  0  0  0  0  0  0  0  0  0
    5.3736    3.0768    0.0617 H   0  0  0  0  0  0  0  0  0  0  0  0
    4.6062    3.4309    1.6498 H   0  0  0  0  0  0  0  0  0  0  0  0
    3.2801    3.7849   -1.1048 H   0  0  0  0  0  0  0  0  0  0  0  0
    2.5091    4.1206    0.4976 H   0  0  0  0  0  0  0  0  0  0  0  0
  1  9  1  0  0  0  0
  2  5  1  0  0  0  0
  3  2  1  0  0  0  0
  4 13  1  0  0  0  0
  5  4  1  0  0  0  0
  6  7  1  0  0  0  0
  6  2  1  0  0  0  0
  7 16  1  0  0  0  0
  8 17  1  0  0  0  0
  8  7  2  0  0  0  0
  9  8  1  0  0  0  0
 10 11  1  0  0  0  0
 10  9  2  0  0  0  0
 11  6  2  0  0  0  0
 12  1  1  0  0  0  0
 12 21  1  0  0  0  0
 13 23  1  0  0  0  0
 14 13  1  0  0  0  0
 14 26  1  0  0  0  0
 15  4  1  0  0  0  0
 15 28  1  0  0  0  0
 15 14  1  0  0  0  0
 18 10  1  0  0  0  0
 19 11  1  0  0  0  0
 20 12  1  0  0  0  0
 22 12  1  0  0  0  0
 24 13  1  0  0  0  0
 25 14  1  0  0  0  0
 27 15  1  0  0  0  0
M  END
