3
 OpenBabel05122313113D

 49 51  0  0  1  0  0  0  0  0999 V2000
    0.5353    1.2616   -0.0128 N   0  0  0  0  0  0  0  0  0  0  0  0
   -1.3897    1.7145   -1.2111 N   0  0  2  0  0  0  0  0  0  0  0  0
   -0.5862    0.7774   -0.5939 C   0  0  0  0  0  2  0  0  0  0  0  0
    0.6903    2.6697    0.4231 C   0  0  0  0  0  0  0  0  0  0  0  0
    1.6451    3.0520    0.0032 H   0  0  0  0  0  0  0  0  0  0  0  0
    0.8073    2.6615    1.5269 H   0  0  0  0  0  0  0  0  0  0  0  0
   -0.4674    3.5747   -0.0225 C   0  0  1  0  0  0  0  0  0  0  0  0
   -0.0695    4.6100   -0.0627 H   0  0  0  0  0  0  0  0  0  0  0  0
   -0.8286    3.0530   -1.4130 C   0  0  0  0  0  0  0  0  0  0  0  0
   -1.5865    3.6765   -1.9256 H   0  0  0  0  0  0  0  0  0  0  0  0
    0.0606    2.9793   -2.0727 H   0  0  0  0  0  0  0  0  0  0  0  0
   -2.7604    1.7719   -0.6759 C   0  0  0  0  0  0  0  0  0  0  0  0
   -3.1842    0.7472   -0.6702 H   0  0  0  0  0  0  0  0  0  0  0  0
   -3.3737    2.4084   -1.3468 H   0  0  0  0  0  0  0  0  0  0  0  0
   -2.6574    2.3410    0.7516 C   0  0  0  0  0  0  0  0  0  0  0  0
   -2.2396    1.5331    1.3911 H   0  0  0  0  0  0  0  0  0  0  0  0
   -3.6636    2.5726    1.1576 H   0  0  0  0  0  0  0  0  0  0  0  0
   -1.7607    3.5979    0.8363 C   0  0  0  0  0  0  0  0  0  0  0  0
   -1.5063    3.8052    1.8967 H   0  0  0  0  0  0  0  0  0  0  0  0
   -2.3468    4.4763    0.4875 H   0  0  0  0  0  0  0  0  0  0  0  0
    1.5787    0.3623    0.4288 C   0  0  0  0  0  0  0  0  0  0  0  0
    2.6330    0.0726   -0.4727 C   0  0  0  0  0  0  0  0  0  0  0  0
    3.6645   -0.7728   -0.0253 C   0  0  0  0  0  0  0  0  0  0  0  0
    4.4898   -1.0257   -0.7070 H   0  0  0  0  0  0  0  0  0  0  0  0
    3.6510   -1.3024    1.2705 C   0  0  0  0  0  0  0  0  0  0  0  0
    4.4663   -1.9632    1.6021 H   0  0  0  0  0  0  0  0  0  0  0  0
    2.5969   -1.0035    2.1408 C   0  0  0  0  0  0  0  0  0  0  0  0
    2.5863   -1.4390    3.1513 H   0  0  0  0  0  0  0  0  0  0  0  0
    1.5361   -0.1691    1.7418 C   0  0  0  0  0  0  0  0  0  0  0  0
    0.3894    0.1101    2.7056 C   0  0  0  0  0  0  0  0  0  0  0  0
   -0.3783    0.6876    2.1512 H   0  0  0  0  0  0  0  0  0  0  0  0
    0.8551    0.9610    3.9010 C   0  0  0  0  0  0  0  0  0  0  0  0
    1.6064    0.4165    4.5094 H   0  0  0  0  0  0  0  0  0  0  0  0
    0.0008    1.2054    4.5650 H   0  0  0  0  0  0  0  0  0  0  0  0
    1.3239    1.9135    3.5779 H   0  0  0  0  0  0  0  0  0  0  0  0
   -0.2864   -1.1896    3.1762 C   0  0  0  0  0  0  0  0  0  0  0  0
   -0.6223   -1.8053    2.3174 H   0  0  0  0  0  0  0  0  0  0  0  0
   -1.1717   -0.9568    3.8027 H   0  0  0  0  0  0  0  0  0  0  0  0
    0.4026   -1.8046    3.7910 H   0  0  0  0  0  0  0  0  0  0  0  0
    2.6188    0.5897   -1.9054 C   0  0  0  0  0  0  0  0  0  0  0  0
    1.9163    1.4489   -1.9398 H   0  0  0  0  0  0  0  0  0  0  0  0
    2.0615   -0.4929   -2.8489 C   0  0  0  0  0  0  0  0  0  0  0  0
    2.7266   -1.3808   -2.8586 H   0  0  0  0  0  0  0  0  0  0  0  0
    1.9822   -0.1105   -3.8873 H   0  0  0  0  0  0  0  0  0  0  0  0
    1.0584   -0.8337   -2.5201 H   0  0  0  0  0  0  0  0  0  0  0  0
    3.9879    1.1006   -2.3769 C   0  0  0  0  0  0  0  0  0  0  0  0
    4.4015    1.8636   -1.6868 H   0  0  0  0  0  0  0  0  0  0  0  0
    3.9024    1.5555   -3.3846 H   0  0  0  0  0  0  0  0  0  0  0  0
    4.7297    0.2797   -2.4558 H   0  0  0  0  0  0  0  0  0  0  0  0
  1  4  1  0  0  0  0
  1 21  1  0  0  0  0
  2 12  1  0  0  0  0
  2  3  1  1  0  0  0
  3  1  1  0  0  0  0
  4  6  1  0  0  0  0
  5  4  1  0  0  0  0
  7  8  1  6  0  0  0
  7  4  1  0  0  0  0
  7 18  1  0  0  0  0
  9  2  1  0  0  0  0
  9  7  1  0  0  0  0
 10  9  1  0  0  0  0
 11  9  1  0  0  0  0
 12 13  1  0  0  0  0
 12 15  1  0  0  0  0
 14 12  1  0  0  0  0
 15 18  1  0  0  0  0
 15 17  1  0  0  0  0
 15 16  1  0  0  0  0
 18 19  1  0  0  0  0
 20 18  1  0  0  0  0
 21 29  1  0  0  0  0
 22 23  1  0  0  0  0
 22 21  2  0  0  0  0
 23 25  2  0  0  0  0
 24 23  1  0  0  0  0
 25 26  1  0  0  0  0
 25 27  1  0  0  0  0
 27 28  1  0  0  0  0
 29 27  2  0  0  0  0
 29 30  1  0  0  0  0
 30 36  1  0  0  0  0
 30 32  1  0  0  0  0
 31 30  1  0  0  0  0
 32 33  1  0  0  0  0
 32 34  1  0  0  0  0
 35 32  1  0  0  0  0
 36 39  1  0  0  0  0
 36 38  1  0  0  0  0
 37 36  1  0  0  0  0
 40 22  1  0  0  0  0
 41 40  1  0  0  0  0
 42 45  1  0  0  0  0
 42 40  1  0  0  0  0
 43 42  1  0  0  0  0
 44 42  1  0  0  0  0
 46 40  1  0  0  0  0
 46 47  1  0  0  0  0
 48 46  1  0  0  0  0
 49 46  1  0  0  0  0
M  END
