10
 OpenBabel05122313113D

 26 26  0  0  1  0  0  0  0  0999 V2000
   -1.9048    0.1697    0.9915 C   0  0  2  0  0  0  0  0  0  0  0  0
   -1.6543   -1.1898    0.2893 C   0  0  1  0  0  0  0  0  0  0  0  0
   -1.9846   -1.1277   -1.2151 C   0  0  0  0  0  0  0  0  0  0  0  0
   -3.4082   -0.6215   -1.4656 C   0  0  0  0  0  0  0  0  0  0  0  0
   -3.6348    0.7479   -0.8148 C   0  0  0  0  0  0  0  0  0  0  0  0
   -3.3202    0.7086    0.6857 C   0  0  0  0  0  0  0  0  0  0  0  0
   -0.8256    1.1649    0.5983 C   0  0  0  0  0  0  0  0  0  0  0  0
    0.1482    1.6345    1.4810 C   0  0  0  0  0  0  0  0  0  0  0  0
   -0.2362   -1.6657    0.5182 C   0  0  0  0  0  3  0  0  0  0  0  0
    0.5352   -1.4635    1.6688 C   0  0  0  0  0  3  0  0  0  0  0  0
   -1.8289    0.0115    2.0881 H   0  0  0  0  0  0  0  0  0  0  0  0
   -2.3358   -1.9454    0.7510 H   0  0  0  0  0  0  0  0  0  0  0  0
   -1.2499   -0.4631   -1.7218 H   0  0  0  0  0  0  0  0  0  0  0  0
   -1.8401   -2.1344   -1.6596 H   0  0  0  0  0  0  0  0  0  0  0  0
   -4.1367   -1.3518   -1.0461 H   0  0  0  0  0  0  0  0  0  0  0  0
   -3.6085   -0.5720   -2.5555 H   0  0  0  0  0  0  0  0  0  0  0  0
   -4.6806    1.0851   -0.9679 H   0  0  0  0  0  0  0  0  0  0  0  0
   -2.9943    1.5045   -1.3191 H   0  0  0  0  0  0  0  0  0  0  0  0
   -3.4410    1.7132    1.1421 H   0  0  0  0  0  0  0  0  0  0  0  0
   -4.0533    0.0445    1.1936 H   0  0  0  0  0  0  0  0  0  0  0  0
   -0.9462    1.7009   -0.3590 H   0  0  0  0  0  0  0  0  0  0  0  0
    0.1632    1.3015    2.5320 H   0  0  0  0  0  0  0  0  0  0  0  0
    0.7530    2.5163    1.2230 H   0  0  0  0  0  0  0  0  0  0  0  0
    0.1514   -2.3917   -0.2181 H   0  0  0  0  0  0  0  0  0  0  0  0
    0.1226   -0.9786    2.5670 H   0  0  0  0  0  0  0  0  0  0  0  0
    1.4595   -2.0458    1.8002 H   0  0  0  0  0  0  0  0  0  0  0  0
  1 11  1  1  0  0  0
  2  9  1  0  0  0  0
  2 12  1  1  0  0  0
  2  1  1  0  0  0  0
  3  2  1  0  0  0  0
  4  3  1  0  0  0  0
  4 15  1  0  0  0  0
  4  5  1  0  0  0  0
  5  6  1  0  0  0  0
  6  1  1  0  0  0  0
  6 19  1  0  0  0  0
  6 20  1  0  0  0  0
  7  1  1  0  0  0  0
  7  8  2  0  0  0  0
  8 22  1  0  0  0  0
  9 10  1  0  0  0  0
 10 26  1  0  0  0  0
 10 25  1  0  0  0  0
 13  3  1  0  0  0  0
 14  3  1  0  0  0  0
 16  4  1  0  0  0  0
 17  5  1  0  0  0  0
 18  5  1  0  0  0  0
 21  7  1  0  0  0  0
 23  8  1  0  0  0  0
 24  9  1  0  0  0  0
M  END
