3
 OpenBabel05122313113D

  7  6  0  0  0  0  0  0  0  0999 V2000
   -1.8954    2.0467    1.3549 S   0  0  0  0  0  1  0  0  0  0  0  0
   -0.6991    1.9806   -1.4416 S   0  0  0  0  0  1  0  0  0  0  0  0
   -1.8070    2.6737   -0.2821 C   0  0  0  0  0  3  0  0  0  0  0  0
   -2.5142    3.9653   -0.6072 C   0  0  0  0  0  0  0  0  0  0  0  0
   -3.4782    4.0469   -0.0662 H   0  0  0  0  0  0  0  0  0  0  0  0
   -2.6722    4.0719   -1.6987 H   0  0  0  0  0  0  0  0  0  0  0  0
   -1.8799    4.8172   -0.2805 H   0  0  0  0  0  0  0  0  0  0  0  0
  2  3  1  0  0  0  0
  3  1  1  0  0  0  0
  4  3  1  0  0  0  0
  4  7  1  0  0  0  0
  4  5  1  0  0  0  0
  6  4  1  0  0  0  0
M  END
