7
 OpenBabel05122313113D

 19 19  0  0  0  0  0  0  0  0999 V2000
   -0.1489   -1.6506   -1.4604 P   0  0  0  0  0  0  0  0  0  0  0  0
   -1.2844   -2.0815   -0.1163 C   0  0  0  0  0  0  0  0  0  0  0  0
   -2.2277   -3.0774    0.1602 C   0  0  0  0  0  0  0  0  0  0  0  0
   -2.8762   -3.0351    1.4091 C   0  0  0  0  0  0  0  0  0  0  0  0
   -2.5528   -2.0187    2.3282 C   0  0  0  0  0  0  0  0  0  0  0  0
   -1.5921   -1.0312    2.0321 C   0  0  0  0  0  0  0  0  0  0  0  0
   -0.9315   -1.0336    0.7823 C   0  0  0  0  0  3  0  0  0  0  0  0
    0.8868   -3.1365   -1.8321 C   0  0  0  0  0  0  0  0  0  0  0  0
   -1.0926   -1.4815   -3.0412 C   0  0  0  0  0  0  0  0  0  0  0  0
   -2.4636   -3.8689   -0.5697 H   0  0  0  0  0  0  0  0  0  0  0  0
   -3.6328   -3.7913    1.6679 H   0  0  0  0  0  0  0  0  0  0  0  0
   -3.0695   -1.9922    3.3016 H   0  0  0  0  0  0  0  0  0  0  0  0
   -1.3820   -0.2535    2.7825 H   0  0  0  0  0  0  0  0  0  0  0  0
    1.4208   -3.4454   -0.9157 H   0  0  0  0  0  0  0  0  0  0  0  0
    1.6294   -2.9006   -2.6204 H   0  0  0  0  0  0  0  0  0  0  0  0
    0.2488   -3.9733   -2.1810 H   0  0  0  0  0  0  0  0  0  0  0  0
   -1.9087   -0.7495   -2.9050 H   0  0  0  0  0  0  0  0  0  0  0  0
   -1.5247   -2.4608   -3.3287 H   0  0  0  0  0  0  0  0  0  0  0  0
   -0.4218   -1.1257   -3.8485 H   0  0  0  0  0  0  0  0  0  0  0  0
  1  2  1  0  0  0  0
  2  3  2  0  0  0  0
  2  7  1  0  0  0  0
  3  4  1  0  0  0  0
  4 11  1  0  0  0  0
  4  5  2  0  0  0  0
  5 12  1  0  0  0  0
  6  5  1  0  0  0  0
  6 13  1  0  0  0  0
  7  6  2  0  0  0  0
  8  1  1  0  0  0  0
  8 14  1  0  0  0  0
  9 17  1  0  0  0  0
  9  1  1  0  0  0  0
 10  3  1  0  0  0  0
 15  8  1  0  0  0  0
 16  8  1  0  0  0  0
 18  9  1  0  0  0  0
 19  9  1  0  0  0  0
M  END
