2
q = 0.0, confidence = 0.992

 47 50  0  0  1  0  0  0  0  0999 V2000
    1.2495    0.2000   -0.8516 N   0  0  0  0  0  0  0  0  0  0  0  0
   -0.0901   -0.1000   -0.8094 C   0  0  0  0  0  2  0  0  0  0  0  0
   -0.7539    1.0680   -1.0898 N   0  0  0  0  0  0  0  0  0  0  0  0
    1.4481    1.5528   -1.1235 C   0  0  0  0  0  0  0  0  0  0  0  0
    2.6041    2.3418   -1.2326 C   0  0  0  0  0  0  0  0  0  0  0  0
    3.6045    1.9142   -1.0906 H   0  0  0  0  0  0  0  0  0  0  0  0
    2.4234    3.7059   -1.5002 C   0  0  0  0  0  0  0  0  0  0  0  0
    3.3064    4.3559   -1.5871 H   0  0  0  0  0  0  0  0  0  0  0  0
    1.1349    4.2658   -1.6458 C   0  0  0  0  0  0  0  0  0  0  0  0
    1.0336    5.3427   -1.8447 H   0  0  0  0  0  0  0  0  0  0  0  0
   -0.0209    3.4809   -1.5274 C   0  0  0  0  0  0  0  0  0  0  0  0
   -1.0203    3.9274   -1.6146 H   0  0  0  0  0  0  0  0  0  0  0  0
    0.1571    2.1134   -1.2693 C   0  0  0  0  0  0  0  0  0  0  0  0
    2.3187   -0.7933   -0.6332 C   0  0  2  0  0  0  0  0  0  0  0  0
    1.7589   -1.7080   -0.3344 H   0  0  0  0  0  0  0  0  0  0  0  0
    3.1808   -0.3749    0.5529 C   0  0  0  0  0  0  0  0  0  0  0  0
    2.5421   -0.0736    1.7739 C   0  0  0  0  0  0  0  0  0  0  0  0
    1.4445   -0.1437    1.8389 H   0  0  0  0  0  0  0  0  0  0  0  0
    3.2885    0.3078    2.8954 C   0  0  0  0  0  0  0  0  0  0  0  0
    2.7744    0.5376    3.8409 H   0  0  0  0  0  0  0  0  0  0  0  0
    4.6890    0.3919    2.8154 C   0  0  0  0  0  0  0  0  0  0  0  0
    5.2768    0.6918    3.6960 H   0  0  0  0  0  0  0  0  0  0  0  0
    5.3331    0.0866    1.6083 C   0  0  0  0  0  0  0  0  0  0  0  0
    6.4299    0.1447    1.5372 H   0  0  0  0  0  0  0  0  0  0  0  0
    4.5832   -0.2950    0.4829 C   0  0  0  0  0  0  0  0  0  0  0  0
    5.1055   -0.5324   -0.4552 H   0  0  0  0  0  0  0  0  0  0  0  0
    3.0524   -1.0967   -1.9386 C   0  0  0  0  0  0  0  0  0  0  0  0
    3.6050   -0.2201   -2.3301 H   0  0  0  0  0  0  0  0  0  0  0  0
    2.3223   -1.4188   -2.7058 H   0  0  0  0  0  0  0  0  0  0  0  0
    3.7732   -1.9229   -1.7874 H   0  0  0  0  0  0  0  0  0  0  0  0
   -2.2135    1.3142   -1.0886 C   0  0  2  0  0  0  0  0  0  0  0  0
   -2.3434    2.1558   -1.7988 H   0  0  0  0  0  0  0  0  0  0  0  0
   -2.6801    1.7984    0.2800 C   0  0  0  0  0  0  0  0  0  0  0  0
   -2.4842    1.0125    1.4328 C   0  0  0  0  0  0  0  0  0  0  0  0
   -1.9740    0.0379    1.3508 H   0  0  0  0  0  0  0  0  0  0  0  0
   -2.9365    1.4623    2.6809 C   0  0  0  0  0  0  0  0  0  0  0  0
   -2.7783    0.8377    3.5731 H   0  0  0  0  0  0  0  0  0  0  0  0
   -3.5935    2.6991    2.7929 C   0  0  0  0  0  0  0  0  0  0  0  0
   -3.9482    3.0496    3.7740 H   0  0  0  0  0  0  0  0  0  0  0  0
   -3.7966    3.4849    1.6489 C   0  0  0  0  0  0  0  0  0  0  0  0
   -4.3104    4.4550    1.7273 H   0  0  0  0  0  0  0  0  0  0  0  0
   -3.3394    3.0352    0.4001 C   0  0  0  0  0  0  0  0  0  0  0  0
   -3.5008    3.6548   -0.4975 H   0  0  0  0  0  0  0  0  0  0  0  0
   -3.0374    0.1426   -1.6249 C   0  0  0  0  0  0  0  0  0  0  0  0
   -3.0290   -0.7228   -0.9338 H   0  0  0  0  0  0  0  0  0  0  0  0
   -2.6559   -0.1964   -2.6081 H   0  0  0  0  0  0  0  0  0  0  0  0
   -4.0856    0.4783   -1.7433 H   0  0  0  0  0  0  0  0  0  0  0  0
  1  2  1  0  0  0  0
  1 14  1  0  0  0  0
  3 31  1  0  0  0  0
  3  2  1  0  0  0  0
  4  1  1  0  0  0  0
  5  4  1  0  0  0  0
  5  6  1  0  0  0  0
  7  5  2  0  0  0  0
  8  7  1  0  0  0  0
  9 11  2  0  0  0  0
  9  7  1  0  0  0  0
 10  9  1  0  0  0  0
 11 13  1  0  0  0  0
 12 11  1  0  0  0  0
 13  4  2  0  0  0  0
 13  3  1  0  0  0  0
 14 15  1  1  0  0  0
 14 16  1  0  0  0  0
 16 17  1  0  0  0  0
 17 18  1  0  0  0  0
 17 19  2  0  0  0  0
 19 20  1  0  0  0  0
 21 19  1  0  0  0  0
 21 22  1  0  0  0  0
 23 21  2  0  0  0  0
 24 23  1  0  0  0  0
 25 16  2  0  0  0  0
 25 23  1  0  0  0  0
 26 25  1  0  0  0  0
 27 30  1  0  0  0  0
 27 14  1  0  0  0  0
 28 27  1  0  0  0  0
 29 27  1  0  0  0  0
 31 32  1  6  0  0  0
 31 33  1  0  0  0  0
 33 42  2  0  0  0  0
 33 34  1  0  0  0  0
 34 36  2  0  0  0  0
 35 34  1  0  0  0  0
 36 38  1  0  0  0  0
 36 37  1  0  0  0  0
 38 39  1  0  0  0  0
 40 41  1  0  0  0  0
 40 38  2  0  0  0  0
 42 40  1  0  0  0  0
 43 42  1  0  0  0  0
 44 31  1  0  0  0  0
 44 45  1  0  0  0  0
 46 44  1  0  0  0  0
 47 44  1  0  0  0  0
M  END
