26
 OpenBabel05122313113D

 39 40  0  0  1  0  0  0  0  0999 V2000
   -4.9756   -1.8686   -0.8681 O   0  0  0  0  0  0  0  0  0  0  0  0
   -4.7455    0.1239    0.2571 O   0  0  0  0  0  0  0  0  0  0  0  0
    0.0238   -0.0534    2.2677 O   0  0  0  0  0  0  0  0  0  0  0  0
   -3.6302   -1.7807   -0.4388 C   0  0  0  0  0  0  0  0  0  0  0  0
   -2.9674   -2.1867   -1.2273 H   0  0  0  0  0  0  0  0  0  0  0  0
   -3.4489   -2.3475    0.5078 H   0  0  0  0  0  0  0  0  0  0  0  0
   -1.8387    1.4726    0.8724 C   0  0  1  0  0  0  0  0  0  0  0  0
   -1.4239    1.7848    1.8438 H   0  0  0  0  0  0  0  0  0  0  0  0
   -2.4063    0.0959    0.8130 C   0  0  2  0  0  0  0  0  0  0  0  0
   -2.4584   -0.4490    1.7699 H   0  0  0  0  0  0  0  0  0  0  0  0
   -0.9910    0.3295    0.2647 C   0  0  2  0  0  0  0  0  0  0  0  0
   -0.9198    0.3415   -0.8314 H   0  0  0  0  0  0  0  0  0  0  0  0
   -5.7101   -0.8741   -0.1484 C   0  0  0  0  0  0  0  0  0  0  0  0
    1.0555   -0.3707    3.2066 C   0  0  0  0  0  0  0  0  0  0  0  0
    0.5727   -0.3739    4.2005 H   0  0  0  0  0  0  0  0  0  0  0  0
    1.8439    0.4050    3.1718 H   0  0  0  0  0  0  0  0  0  0  0  0
    1.4952   -1.3616    2.9866 H   0  0  0  0  0  0  0  0  0  0  0  0
   -6.7252   -0.2562   -1.1015 C   0  0  0  0  0  0  0  0  0  0  0  0
   -7.4306   -1.0287   -1.4644 H   0  0  0  0  0  0  0  0  0  0  0  0
   -6.1982    0.1791   -1.9717 H   0  0  0  0  0  0  0  0  0  0  0  0
   -7.2985    0.5397   -0.5890 H   0  0  0  0  0  0  0  0  0  0  0  0
   -2.2930    2.5731   -0.0100 C   0  0  0  0  0  0  0  0  0  0  0  0
   -3.3283    2.5144   -0.3885 H   0  0  0  0  0  0  0  0  0  0  0  0
   -3.4552   -0.2753   -0.2018 C   0  0  2  0  0  0  0  0  0  0  0  0
   -3.2241    0.2270   -1.1743 H   0  0  0  0  0  0  0  0  0  0  0  0
    0.2217   -0.1386    0.9603 C   0  0  0  0  0  2  0  0  0  0  0  0
   -6.3441   -1.4633    1.1123 C   0  0  0  0  0  0  0  0  0  0  0  0
   -7.1108   -2.2161    0.8445 H   0  0  0  0  0  0  0  0  0  0  0  0
   -6.8199   -0.6632    1.7118 H   0  0  0  0  0  0  0  0  0  0  0  0
   -5.5705   -1.9488    1.7382 H   0  0  0  0  0  0  0  0  0  0  0  0
    0.4397    4.8572   -0.6002 O   0  0  0  0  0  0  0  0  0  0  0  0
    0.4966    3.0899    0.8271 O   0  0  0  0  0  0  0  0  0  0  0  0
   -0.1197    3.7996    0.0417 C   0  0  0  0  0  0  0  0  0  0  0  0
   -1.5358    3.6412   -0.3624 C   0  0  0  0  0  0  0  0  0  0  0  0
   -1.9485    4.4248   -1.0148 H   0  0  0  0  0  0  0  0  0  0  0  0
    1.8327    5.0637   -0.3435 C   0  0  0  0  0  0  0  0  0  0  0  0
    2.0986    6.0147   -0.8382 H   0  0  0  0  0  0  0  0  0  0  0  0
    2.4306    4.2318   -0.7685 H   0  0  0  0  0  0  0  0  0  0  0  0
    2.0328    5.1189    0.7453 H   0  0  0  0  0  0  0  0  0  0  0  0
  1  4  1  0  0  0  0
  1 13  1  0  0  0  0
  3 14  1  0  0  0  0
  4 24  1  0  0  0  0
  4  6  1  0  0  0  0
  5  4  1  0  0  0  0
  7  8  1  1  0  0  0
  9  7  1  0  0  0  0
  9 10  1  1  0  0  0
 11 12  1  6  0  0  0
 11  9  1  0  0  0  0
 11  7  1  0  0  0  0
 11 26  1  0  0  0  0
 13  2  1  0  0  0  0
 13 27  1  0  0  0  0
 14 15  1  0  0  0  0
 16 14  1  0  0  0  0
 17 14  1  0  0  0  0
 18 21  1  0  0  0  0
 18 13  1  0  0  0  0
 19 18  1  0  0  0  0
 20 18  1  0  0  0  0
 22  7  1  0  0  0  0
 23 22  1  0  0  0  0
 24 25  1  6  0  0  0
 24  2  1  0  0  0  0
 24  9  1  0  0  0  0
 26  3  1  0  0  0  0
 27 29  1  0  0  0  0
 27 30  1  0  0  0  0
 28 27  1  0  0  0  0
 31 36  1  0  0  0  0
 31 33  1  0  0  0  0
 33 32  2  0  0  0  0
 34 22  2  0  0  0  0
 34 33  1  0  0  0  0
 35 34  1  0  0  0  0
 36 39  1  0  0  0  0
 37 36  1  0  0  0  0
 38 36  1  0  0  0  0
M  END
