1
 OpenBabel05122313113D

 17 17  0  0  0  0  0  0  0  0999 V2000
   -0.0956   -0.8369   -1.9136 C   0  0  0  0  0  2  0  0  0  0  0  0
   -0.1398   -2.2855   -2.0398 C   0  0  0  0  0  0  0  0  0  0  0  0
   -0.2032   -2.9811   -3.2709 C   0  0  0  0  0  0  0  0  0  0  0  0
   -0.2427   -4.3826   -3.3159 C   0  0  0  0  0  0  0  0  0  0  0  0
   -0.2192   -5.1268   -2.1266 C   0  0  0  0  0  0  0  0  0  0  0  0
   -0.1568   -4.4732   -0.8799 C   0  0  0  0  0  0  0  0  0  0  0  0
   -0.1188   -3.0778   -0.8567 C   0  0  0  0  0  0  0  0  0  0  0  0
   -0.0826   -2.9528    1.5717 C   0  0  0  0  0  0  0  0  0  0  0  0
   -0.0576   -2.3188    0.2935 O   0  0  0  0  0  0  0  0  0  0  0  0
   -0.1267   -0.2984   -2.8755 H   0  0  0  0  0  0  0  0  0  0  0  0
   -0.2212   -2.3943   -4.2025 H   0  0  0  0  0  0  0  0  0  0  0  0
   -0.2921   -4.8981   -4.2866 H   0  0  0  0  0  0  0  0  0  0  0  0
   -0.2494   -6.2260   -2.1577 H   0  0  0  0  0  0  0  0  0  0  0  0
   -0.1380   -5.0571    0.0498 H   0  0  0  0  0  0  0  0  0  0  0  0
    0.8175   -3.5861    1.7038 H   0  0  0  0  0  0  0  0  0  0  0  0
   -0.0786   -2.1321    2.3096 H   0  0  0  0  0  0  0  0  0  0  0  0
   -1.0086   -3.5510    1.6846 H   0  0  0  0  0  0  0  0  0  0  0  0
  2  1  1  0  0  0  0
  2  7  1  0  0  0  0
  3  2  2  0  0  0  0
  4  3  1  0  0  0  0
  4  5  2  0  0  0  0
  5  6  1  0  0  0  0
  6  7  2  0  0  0  0
  6 14  1  0  0  0  0
  7  9  1  0  0  0  0
  8 17  1  0  0  0  0
  8 15  1  0  0  0  0
  8 16  1  0  0  0  0
  9  8  1  0  0  0  0
 10  1  1  0  0  0  0
 11  3  1  0  0  0  0
 12  4  1  0  0  0  0
 13  5  1  0  0  0  0
M  END
