5
 OpenBabel05122313113D

 55 58  0  0  1  0  0  0  0  0999 V2000
   -2.4180   -0.3500    0.4492 N   0  0  0  0  0  0  0  0  0  0  0  0
   -1.2682   -1.8446   -0.7401 N   0  0  0  0  0  0  0  0  0  0  0  0
    2.5132   -0.1727   -0.2374 N   0  0  0  0  0  0  0  0  0  0  0  0
    1.4901   -1.8017    0.9013 N   0  0  0  0  0  0  0  0  0  0  0  0
    0.0410    0.0826    0.1438 C   0  0  0  0  0  2  0  0  0  0  0  0
   -1.1400   -0.6600   -0.0086 C   0  0  1  0  0  3  0  0  0  0  0  0
   -2.7260    0.8173    1.2869 C   0  0  0  0  0  0  0  0  0  0  0  0
   -1.7548    1.3658    1.3295 H   0  0  0  0  0  0  0  0  0  0  0  0
   -3.7287    1.7501    0.6048 C   0  0  0  0  0  0  0  0  0  0  0  0
   -3.3607    2.0013   -0.4108 H   0  0  0  0  0  0  0  0  0  0  0  0
   -3.8092    2.6889    1.1888 H   0  0  0  0  0  0  0  0  0  0  0  0
   -4.7436    1.3128    0.5289 H   0  0  0  0  0  0  0  0  0  0  0  0
   -3.0999    0.3968    2.7105 C   0  0  0  0  0  0  0  0  0  0  0  0
   -4.0415   -0.1877    2.7456 H   0  0  0  0  0  0  0  0  0  0  0  0
   -3.2383    1.2966    3.3425 H   0  0  0  0  0  0  0  0  0  0  0  0
   -2.2974   -0.2193    3.1643 H   0  0  0  0  0  0  0  0  0  0  0  0
   -3.3210   -1.3279    0.0446 C   0  0  0  0  0  0  0  0  0  0  0  0
   -4.6975   -1.5004    0.2594 C   0  0  0  0  0  0  0  0  0  0  0  0
   -5.2847   -0.7745    0.8347 H   0  0  0  0  0  0  0  0  0  0  0  0
   -5.3116   -2.6377   -0.2961 C   0  0  0  0  0  0  0  0  0  0  0  0
   -6.3896   -2.7906   -0.1393 H   0  0  0  0  0  0  0  0  0  0  0  0
   -4.5800   -3.5777   -1.0452 C   0  0  0  0  0  0  0  0  0  0  0  0
   -5.0914   -4.4549   -1.4678 H   0  0  0  0  0  0  0  0  0  0  0  0
   -3.1987   -3.4158   -1.2584 C   0  0  0  0  0  0  0  0  0  0  0  0
   -2.6218   -4.1545   -1.8326 H   0  0  0  0  0  0  0  0  0  0  0  0
   -2.5877   -2.2850   -0.7051 C   0  0  0  0  0  0  0  0  0  0  0  0
   -0.2651   -2.3541   -1.6508 C   0  0  0  0  0  0  0  0  0  0  0  0
    0.4309   -3.0705   -1.1663 H   0  0  0  0  0  0  0  0  0  0  0  0
    0.3223   -1.5002   -2.0405 H   0  0  0  0  0  0  0  0  0  0  0  0
   -0.7704   -2.8569   -2.4970 H   0  0  0  0  0  0  0  0  0  0  0  0
    1.2634   -0.5856    0.2384 C   0  0  1  0  0  3  0  0  0  0  0  0
    2.6864    0.9517   -1.1703 C   0  0  0  0  0  0  0  0  0  0  0  0
    1.6926    1.4619   -1.1580 H   0  0  0  0  0  0  0  0  0  0  0  0
    3.7216    1.9607   -0.6694 C   0  0  0  0  0  0  0  0  0  0  0  0
    3.5299    2.2243    0.3890 H   0  0  0  0  0  0  0  0  0  0  0  0
    3.6481    2.8867   -1.2735 H   0  0  0  0  0  0  0  0  0  0  0  0
    4.7638    1.5935   -0.7479 H   0  0  0  0  0  0  0  0  0  0  0  0
    2.9379    0.4593   -2.5968 C   0  0  0  0  0  0  0  0  0  0  0  0
    3.8843   -0.1120   -2.6870 H   0  0  0  0  0  0  0  0  0  0  0  0
    2.9883    1.3249   -3.2860 H   0  0  0  0  0  0  0  0  0  0  0  0
    2.1042   -0.1861   -2.9372 H   0  0  0  0  0  0  0  0  0  0  0  0
    3.4827   -1.1191    0.0865 C   0  0  0  0  0  0  0  0  0  0  0  0
    4.8580   -1.2017   -0.1804 C   0  0  0  0  0  0  0  0  0  0  0  0
    5.3820   -0.4196   -0.7428 H   0  0  0  0  0  0  0  0  0  0  0  0
    5.5566   -2.3271    0.2976 C   0  0  0  0  0  0  0  0  0  0  0  0
    6.6348   -2.4092    0.0956 H   0  0  0  0  0  0  0  0  0  0  0  0
    4.9075   -3.3426    1.0216 C   0  0  0  0  0  0  0  0  0  0  0  0
    5.4820   -4.2084    1.3821 H   0  0  0  0  0  0  0  0  0  0  0  0
    3.5257   -3.2736    1.2840 C   0  0  0  0  0  0  0  0  0  0  0  0
    3.0110   -4.0755    1.8320 H   0  0  0  0  0  0  0  0  0  0  0  0
    2.8318   -2.1560    0.8074 C   0  0  0  0  0  0  0  0  0  0  0  0
    0.5320   -2.4573    1.7620 C   0  0  0  0  0  0  0  0  0  0  0  0
   -0.1566   -1.6934    2.1741 H   0  0  0  0  0  0  0  0  0  0  0  0
    1.0685   -2.9515    2.5950 H   0  0  0  0  0  0  0  0  0  0  0  0
   -0.0782   -3.2146    1.2258 H   0  0  0  0  0  0  0  0  0  0  0  0
  1  7  1  0  0  0  0
  2 26  1  0  0  0  0
  2  6  1  0  0  0  0
  3 42  1  0  0  0  0
  3 31  1  0  0  0  0
  4 52  1  0  0  0  0
  6  5  1  6  0  0  0
  6  1  1  0  0  0  0
  7  8  1  0  0  0  0
  7 13  1  0  0  0  0
  9 11  1  0  0  0  0
  9  7  1  0  0  0  0
 10  9  1  0  0  0  0
 12  9  1  0  0  0  0
 13 14  1  0  0  0  0
 13 16  1  0  0  0  0
 13 15  1  0  0  0  0
 17 18  1  0  0  0  0
 17  1  1  0  0  0  0
 18 19  1  0  0  0  0
 20 21  1  0  0  0  0
 20 18  2  0  0  0  0
 22 20  1  0  0  0  0
 23 22  1  0  0  0  0
 24 22  2  0  0  0  0
 24 26  1  0  0  0  0
 25 24  1  0  0  0  0
 26 17  2  0  0  0  0
 27 28  1  0  0  0  0
 27  2  1  0  0  0  0
 29 27  1  0  0  0  0
 30 27  1  0  0  0  0
 31  5  1  1  0  0  0
 31  4  1  0  0  0  0
 32 33  1  0  0  0  0
 32 34  1  0  0  0  0
 32  3  1  0  0  0  0
 34 35  1  0  0  0  0
 36 34  1  0  0  0  0
 37 34  1  0  0  0  0
 38 32  1  0  0  0  0
 39 38  1  0  0  0  0
 40 38  1  0  0  0  0
 41 38  1  0  0  0  0
 42 51  1  0  0  0  0
 43 42  2  0  0  0  0
 43 45  1  0  0  0  0
 44 43  1  0  0  0  0
 45 47  2  0  0  0  0
 46 45  1  0  0  0  0
 47 49  1  0  0  0  0
 47 48  1  0  0  0  0
 49 50  1  0  0  0  0
 51  4  1  0  0  0  0
 51 49  2  0  0  0  0
 52 53  1  0  0  0  0
 52 54  1  0  0  0  0
 55 52  1  0  0  0  0
M  END
