1
 OpenBabel05122313113D

 19 19  0  0  0  0  0  0  0  0999 V2000
   -1.1499    0.2732    0.0561 C   0  0  0  0  0  3  0  0  0  0  0  0
   -1.7217    0.8675   -1.0996 C   0  0  0  0  0  0  0  0  0  0  0  0
   -3.0689    1.2555   -1.1660 C   0  0  0  0  0  0  0  0  0  0  0  0
   -3.5135    1.7179   -2.0569 H   0  0  0  0  0  0  0  0  0  0  0  0
   -3.9121    1.0640   -0.0503 C   0  0  0  0  0  0  0  0  0  0  0  0
   -3.3950    0.4754    1.1132 C   0  0  0  0  0  0  0  0  0  0  0  0
   -4.0226    0.3001    1.9973 H   0  0  0  0  0  0  0  0  0  0  0  0
   -2.0350    0.0914    1.1327 C   0  0  0  0  0  0  0  0  0  0  0  0
   -1.6695   -0.3853    2.0582 H   0  0  0  0  0  0  0  0  0  0  0  0
   -6.0915    1.3106    0.8723 C   0  0  0  0  0  0  0  0  0  0  0  0
   -6.2118    0.2381    1.1517 H   0  0  0  0  0  0  0  0  0  0  0  0
   -7.0728    1.7073    0.5492 H   0  0  0  0  0  0  0  0  0  0  0  0
   -5.7583    1.8691    1.7777 H   0  0  0  0  0  0  0  0  0  0  0  0
   -1.4041    1.5141   -3.3927 C   0  0  0  0  0  0  0  0  0  0  0  0
   -2.2150    0.8529   -3.7747 H   0  0  0  0  0  0  0  0  0  0  0  0
   -0.5725    1.5239   -4.1233 H   0  0  0  0  0  0  0  0  0  0  0  0
   -1.8098    2.5476   -3.3015 H   0  0  0  0  0  0  0  0  0  0  0  0
   -0.8668    1.0417   -2.1765 O   0  0  0  0  0  0  0  0  0  0  0  0
   -5.2080    1.4815   -0.2125 O   0  0  0  0  0  0  0  0  0  0  0  0
  1  8  1  0  0  0  0
  2  1  2  0  0  0  0
  3  2  1  0  0  0  0
  3  5  2  0  0  0  0
  4  3  1  0  0  0  0
  5  6  1  0  0  0  0
  6  8  2  0  0  0  0
  6  7  1  0  0  0  0
  8  9  1  0  0  0  0
 10 11  1  0  0  0  0
 10 13  1  0  0  0  0
 12 10  1  0  0  0  0
 14 17  1  0  0  0  0
 14 18  1  0  0  0  0
 15 14  1  0  0  0  0
 16 14  1  0  0  0  0
 18  2  1  0  0  0  0
 19  5  1  0  0  0  0
 19 10  1  0  0  0  0
M  END
