4
 OpenBabel05122313113D

 40 42  0  0  1  0  0  0  0  0999 V2000
    1.3598    0.4207    0.0213 P   0  0  0  0  0  0  0  0  0  0  0  0
   -0.9535    0.6197   -2.8412 O   0  0  0  0  0  0  0  0  0  0  0  0
    0.2214   -0.5387   -0.9779 C   0  0  1  0  0  3  0  0  0  0  0  0
   -0.5656    0.4420   -1.6973 C   0  0  0  0  0  3  0  0  0  0  0  0
    0.1391   -2.0010   -1.1681 C   0  0  0  0  0  0  0  0  0  0  0  0
    0.3598   -2.9249   -0.1218 C   0  0  0  0  0  0  0  0  0  0  0  0
    0.6092   -2.5607    0.8843 H   0  0  0  0  0  0  0  0  0  0  0  0
    0.2430   -4.3006   -0.3495 C   0  0  0  0  0  0  0  0  0  0  0  0
    0.4170   -5.0022    0.4819 H   0  0  0  0  0  0  0  0  0  0  0  0
   -0.1005   -4.8109   -1.6203 C   0  0  0  0  0  0  0  0  0  0  0  0
   -0.3234   -3.8829   -2.6594 C   0  0  0  0  0  0  0  0  0  0  0  0
   -0.5950   -4.2504   -3.6615 H   0  0  0  0  0  0  0  0  0  0  0  0
   -0.2044   -2.5040   -2.4448 C   0  0  0  0  0  0  0  0  0  0  0  0
   -0.3905   -1.7963   -3.2666 H   0  0  0  0  0  0  0  0  0  0  0  0
   -0.1959   -6.2937   -1.8646 C   0  0  0  0  0  0  0  0  0  0  0  0
   -0.9137   -6.5306   -2.6738 H   0  0  0  0  0  0  0  0  0  0  0  0
   -0.5042   -6.8415   -0.9526 H   0  0  0  0  0  0  0  0  0  0  0  0
    0.7890   -6.7056   -2.1738 H   0  0  0  0  0  0  0  0  0  0  0  0
    2.3688   -0.5547    1.1794 C   0  0  0  0  0  0  0  0  0  0  0  0
    3.2938   -1.4968    0.6806 C   0  0  0  0  0  0  0  0  0  0  0  0
    3.3923   -1.6541   -0.4041 H   0  0  0  0  0  0  0  0  0  0  0  0
    4.0775   -2.2385    1.5746 C   0  0  0  0  0  0  0  0  0  0  0  0
    4.7908   -2.9814    1.1878 H   0  0  0  0  0  0  0  0  0  0  0  0
    3.9573   -2.0315    2.9597 C   0  0  0  0  0  0  0  0  0  0  0  0
    4.5810   -2.6112    3.6565 H   0  0  0  0  0  0  0  0  0  0  0  0
    3.0545   -1.0767    3.4556 C   0  0  0  0  0  0  0  0  0  0  0  0
    2.9806   -0.8974    4.5391 H   0  0  0  0  0  0  0  0  0  0  0  0
    2.2561   -0.3385    2.5671 C   0  0  0  0  0  0  0  0  0  0  0  0
    1.5474    0.4150    2.9434 H   0  0  0  0  0  0  0  0  0  0  0  0
    2.5515    1.3500   -1.0006 C   0  0  0  0  0  0  0  0  0  0  0  0
    2.4286    1.4237   -2.4034 C   0  0  0  0  0  0  0  0  0  0  0  0
    1.6315    0.8758   -2.9252 H   0  0  0  0  0  0  0  0  0  0  0  0
    3.3382    2.2006   -3.1366 C   0  0  0  0  0  0  0  0  0  0  0  0
    3.2468    2.2501   -4.2319 H   0  0  0  0  0  0  0  0  0  0  0  0
    4.3641    2.9015   -2.4827 C   0  0  0  0  0  0  0  0  0  0  0  0
    5.0751    3.5064   -3.0649 H   0  0  0  0  0  0  0  0  0  0  0  0
    4.4878    2.8245   -1.0858 C   0  0  0  0  0  0  0  0  0  0  0  0
    5.2949    3.3667   -0.5710 H   0  0  0  0  0  0  0  0  0  0  0  0
    3.5854    2.0509   -0.3419 C   0  0  0  0  0  0  0  0  0  0  0  0
    3.6944    1.9824    0.7520 H   0  0  0  0  0  0  0  0  0  0  0  0
  1 19  1  0  0  0  0
  2  4  2  0  0  0  0
  3  4  1  6  0  0  0
  3  1  1  0  0  0  0
  5  3  1  0  0  0  0
  5  6  1  0  0  0  0
  6  7  1  0  0  0  0
  8  6  2  0  0  0  0
  8  9  1  0  0  0  0
 10  8  1  0  0  0  0
 11 13  1  0  0  0  0
 11 10  2  0  0  0  0
 12 11  1  0  0  0  0
 13  5  2  0  0  0  0
 14 13  1  0  0  0  0
 15 10  1  0  0  0  0
 15 17  1  0  0  0  0
 16 15  1  0  0  0  0
 18 15  1  0  0  0  0
 19 28  1  0  0  0  0
 20 19  2  0  0  0  0
 20 22  1  0  0  0  0
 21 20  1  0  0  0  0
 22 24  2  0  0  0  0
 23 22  1  0  0  0  0
 24 26  1  0  0  0  0
 24 25  1  0  0  0  0
 26 27  1  0  0  0  0
 28 29  1  0  0  0  0
 28 26  2  0  0  0  0
 30 39  1  0  0  0  0
 30  1  1  0  0  0  0
 31 30  2  0  0  0  0
 32 31  1  0  0  0  0
 33 35  2  0  0  0  0
 33 31  1  0  0  0  0
 34 33  1  0  0  0  0
 35 37  1  0  0  0  0
 36 35  1  0  0  0  0
 37 38  1  0  0  0  0
 37 39  2  0  0  0  0
 39 40  1  0  0  0  0
M  END
