5
 OpenBabel05122313113D

 69 74  0  0  1  0  0  0  0  0999 V2000
    2.4376    0.7755   -0.0613 N   0  0  0  0  0  0  0  0  0  0  0  0
    1.0421    2.2050   -1.0502 N   0  0  0  0  0  0  0  0  0  0  0  0
   -2.5281    0.5648    0.2675 N   0  0  0  0  0  0  0  0  0  0  0  0
   -1.3085    2.2414    1.0969 N   0  0  0  0  0  0  0  0  0  0  0  0
   -0.0284    0.3120    0.1622 C   0  0  0  0  0  2  0  0  0  0  0  0
    3.8205   -1.3019   -0.1369 C   0  0  0  0  0  0  0  0  0  0  0  0
    3.2705   -1.5715   -1.0621 H   0  0  0  0  0  0  0  0  0  0  0  0
    4.7544   -0.7830   -0.4413 H   0  0  0  0  0  0  0  0  0  0  0  0
    4.1693   -2.5511    0.6815 C   0  0  0  0  0  0  0  0  0  0  0  0
    3.2349   -3.1285    0.8622 H   0  0  0  0  0  0  0  0  0  0  0  0
    4.8373   -3.2141    0.0940 H   0  0  0  0  0  0  0  0  0  0  0  0
    4.8125   -2.1874    2.0264 C   0  0  0  0  0  0  0  0  0  0  0  0
    5.7930   -1.6918    1.8419 H   0  0  0  0  0  0  0  0  0  0  0  0
    5.0327   -3.1042    2.6122 H   0  0  0  0  0  0  0  0  0  0  0  0
    3.9165   -1.2431    2.8397 C   0  0  0  0  0  0  0  0  0  0  0  0
    2.9789   -1.7767    3.1132 H   0  0  0  0  0  0  0  0  0  0  0  0
    4.4068   -0.9617    3.7948 H   0  0  0  0  0  0  0  0  0  0  0  0
    3.5528    0.0182    2.0433 C   0  0  0  0  0  0  0  0  0  0  0  0
    2.8371    0.6484    2.6131 H   0  0  0  0  0  0  0  0  0  0  0  0
    4.4626    0.6370    1.8792 H   0  0  0  0  0  0  0  0  0  0  0  0
    2.9269   -0.3750    0.6986 C   0  0  0  0  0  0  0  0  0  0  0  0
    2.0020   -0.9662    0.9184 H   0  0  0  0  0  0  0  0  0  0  0  0
    1.0899    1.0515   -0.2655 C   0  0  1  0  0  3  0  0  0  0  0  0
    3.2203    1.7585   -0.6608 C   0  0  0  0  0  0  0  0  0  0  0  0
    4.6072    1.9685   -0.7148 C   0  0  0  0  0  0  0  0  0  0  0  0
    5.3110    1.2790   -0.2330 H   0  0  0  0  0  0  0  0  0  0  0  0
    5.0725    3.0974   -1.4124 C   0  0  0  0  0  0  0  0  0  0  0  0
    6.1557    3.2806   -1.4661 H   0  0  0  0  0  0  0  0  0  0  0  0
    4.1862    3.9933   -2.0397 C   0  0  0  0  0  0  0  0  0  0  0  0
    4.5842    4.8650   -2.5794 H   0  0  0  0  0  0  0  0  0  0  0  0
    2.7950    3.7953   -1.9807 C   0  0  0  0  0  0  0  0  0  0  0  0
    2.0994    4.5007   -2.4568 H   0  0  0  0  0  0  0  0  0  0  0  0
    2.3322    2.6728   -1.2846 C   0  0  0  0  0  0  0  0  0  0  0  0
   -0.1283    2.6483   -1.7795 C   0  0  0  0  0  0  0  0  0  0  0  0
   -0.7442    3.3715   -1.2056 H   0  0  0  0  0  0  0  0  0  0  0  0
   -0.7485    1.7625   -2.0185 H   0  0  0  0  0  0  0  0  0  0  0  0
    0.1975    3.1217   -2.7248 H   0  0  0  0  0  0  0  0  0  0  0  0
   -3.7583   -1.6216    0.2019 C   0  0  0  0  0  0  0  0  0  0  0  0
   -4.7629   -1.1937    0.4081 H   0  0  0  0  0  0  0  0  0  0  0  0
   -3.3007   -1.8579    1.1844 H   0  0  0  0  0  0  0  0  0  0  0  0
   -3.9044   -2.8892   -0.6510 C   0  0  0  0  0  0  0  0  0  0  0  0
   -2.9058   -3.3716   -0.7400 H   0  0  0  0  0  0  0  0  0  0  0  0
   -4.5643   -3.6186   -0.1375 H   0  0  0  0  0  0  0  0  0  0  0  0
   -4.4390   -2.5674   -2.0532 C   0  0  0  0  0  0  0  0  0  0  0  0
   -5.4794   -2.1778   -1.9684 H   0  0  0  0  0  0  0  0  0  0  0  0
   -4.5020   -3.4938   -2.6613 H   0  0  0  0  0  0  0  0  0  0  0  0
   -3.5638   -1.5263   -2.7643 C   0  0  0  0  0  0  0  0  0  0  0  0
   -3.9837   -1.2784   -3.7612 H   0  0  0  0  0  0  0  0  0  0  0  0
   -2.5505   -1.9496   -2.9407 H   0  0  0  0  0  0  0  0  0  0  0  0
   -3.4125   -0.2496   -1.9253 C   0  0  0  0  0  0  0  0  0  0  0  0
   -2.7096    0.4542   -2.4183 H   0  0  0  0  0  0  0  0  0  0  0  0
   -4.3899    0.2754   -1.8392 H   0  0  0  0  0  0  0  0  0  0  0  0
   -2.8716   -0.6113   -0.5360 C   0  0  0  0  0  0  0  0  0  0  0  0
   -1.8902   -1.1246   -0.6944 H   0  0  0  0  0  0  0  0  0  0  0  0
   -1.2152    0.9943    0.4692 C   0  0  1  0  0  3  0  0  0  0  0  0
   -3.4196    1.5345    0.7219 C   0  0  0  0  0  0  0  0  0  0  0  0
   -4.8208    1.6108    0.7215 C   0  0  0  0  0  0  0  0  0  0  0  0
   -5.4385    0.8010    0.3146 H   0  0  0  0  0  0  0  0  0  0  0  0
   -5.4156    2.7654    1.2621 C   0  0  0  0  0  0  0  0  0  0  0  0
   -6.5126    2.8454    1.2694 H   0  0  0  0  0  0  0  0  0  0  0  0
   -4.6408    3.8151    1.7895 C   0  0  0  0  0  0  0  0  0  0  0  0
   -5.1380    4.7031    2.2065 H   0  0  0  0  0  0  0  0  0  0  0  0
   -3.2352    3.7513    1.7834 C   0  0  0  0  0  0  0  0  0  0  0  0
   -2.6267    4.5774    2.1777 H   0  0  0  0  0  0  0  0  0  0  0  0
   -2.6443    2.6031    1.2438 C   0  0  0  0  0  0  0  0  0  0  0  0
   -0.2032    2.9353    1.7206 C   0  0  0  0  0  0  0  0  0  0  0  0
    0.2761    3.6710    1.0411 H   0  0  0  0  0  0  0  0  0  0  0  0
    0.5617    2.1915    2.0178 H   0  0  0  0  0  0  0  0  0  0  0  0
   -0.5679    3.4616    2.6236 H   0  0  0  0  0  0  0  0  0  0  0  0
  1 21  1  0  0  0  0
  2 23  1  0  0  0  0
  3 55  1  0  0  0  0
  3 56  1  0  0  0  0
  4 65  1  0  0  0  0
  4 66  1  0  0  0  0
  6  9  1  0  0  0  0
  6 21  1  0  0  0  0
  7  6  1  0  0  0  0
  8  6  1  0  0  0  0
  9 10  1  0  0  0  0
  9 12  1  0  0  0  0
 11  9  1  0  0  0  0
 12 14  1  0  0  0  0
 12 15  1  0  0  0  0
 13 12  1  0  0  0  0
 15 16  1  0  0  0  0
 15 17  1  0  0  0  0
 18 19  1  0  0  0  0
 18 15  1  0  0  0  0
 20 18  1  0  0  0  0
 21 22  1  0  0  0  0
 21 18  1  0  0  0  0
 23  1  1  0  0  0  0
 23  5  1  6  0  0  0
 24  1  1  0  0  0  0
 25 24  1  0  0  0  0
 25 26  1  0  0  0  0
 27 25  2  0  0  0  0
 28 27  1  0  0  0  0
 29 31  2  0  0  0  0
 29 27  1  0  0  0  0
 30 29  1  0  0  0  0
 31 33  1  0  0  0  0
 32 31  1  0  0  0  0
 33  2  1  0  0  0  0
 33 24  2  0  0  0  0
 34 35  1  0  0  0  0
 34  2  1  0  0  0  0
 36 34  1  0  0  0  0
 37 34  1  0  0  0  0
 38 39  1  0  0  0  0
 38 40  1  0  0  0  0
 41 43  1  0  0  0  0
 41 38  1  0  0  0  0
 42 41  1  0  0  0  0
 44 45  1  0  0  0  0
 44 41  1  0  0  0  0
 46 44  1  0  0  0  0
 47 44  1  0  0  0  0
 47 50  1  0  0  0  0
 48 47  1  0  0  0  0
 49 47  1  0  0  0  0
 50 52  1  0  0  0  0
 50 53  1  0  0  0  0
 51 50  1  0  0  0  0
 53 38  1  0  0  0  0
 53  3  1  0  0  0  0
 54 53  1  0  0  0  0
 55  5  1  1  0  0  0
 55  4  1  0  0  0  0
 56 65  1  0  0  0  0
 57 56  2  0  0  0  0
 57 59  1  0  0  0  0
 58 57  1  0  0  0  0
 59 60  1  0  0  0  0
 59 61  2  0  0  0  0
 61 62  1  0  0  0  0
 63 61  1  0  0  0  0
 63 64  1  0  0  0  0
 65 63  2  0  0  0  0
 66 68  1  0  0  0  0
 66 69  1  0  0  0  0
 67 66  1  0  0  0  0
M  END
