23
 OpenBabel05122313113D

 32 32  0  0  1  0  0  0  0  0999 V2000
    0.5407   -0.0254   -1.4080 O   0  0  0  0  0  0  0  0  0  0  0  0
    1.4411   -0.0060    0.6891 O   0  0  0  0  0  0  0  0  0  0  0  0
   -0.6069    0.6895   -1.0204 C   0  0  2  0  0  3  0  0  0  0  0  0
    1.4926   -0.3483   -0.4740 C   0  0  0  0  0  0  0  0  0  0  0  0
    2.5573   -1.2251   -1.0981 C   0  0  0  0  0  0  0  0  0  0  0  0
    2.0827   -2.2232   -1.2280 H   0  0  0  0  0  0  0  0  0  0  0  0
    2.7612   -0.8578   -2.1257 H   0  0  0  0  0  0  0  0  0  0  0  0
    3.8275   -1.3271   -0.2547 C   0  0  0  0  0  0  0  0  0  0  0  0
    4.4593   -2.1471   -0.6576 H   0  0  0  0  0  0  0  0  0  0  0  0
    3.5436   -1.6235    0.7773 H   0  0  0  0  0  0  0  0  0  0  0  0
    4.6397   -0.0297   -0.2037 C   0  0  0  0  0  0  0  0  0  0  0  0
    4.9142    0.2758   -1.2395 H   0  0  0  0  0  0  0  0  0  0  0  0
    3.9990    0.7851    0.1994 H   0  0  0  0  0  0  0  0  0  0  0  0
    5.9086   -0.1361    0.6468 C   0  0  0  0  0  0  0  0  0  0  0  0
    5.6264   -0.4416    1.6787 H   0  0  0  0  0  0  0  0  0  0  0  0
    6.5448   -0.9608    0.2540 H   0  0  0  0  0  0  0  0  0  0  0  0
    6.7175    1.1604    0.6963 C   0  0  0  0  0  0  0  0  0  0  0  0
    6.1162    1.9932    1.1175 H   0  0  0  0  0  0  0  0  0  0  0  0
    7.0444    1.4715   -0.3182 H   0  0  0  0  0  0  0  0  0  0  0  0
    7.6266    1.0551    1.3221 H   0  0  0  0  0  0  0  0  0  0  0  0
   -1.7579    0.3460   -1.8148 C   0  0  0  0  0  3  0  0  0  0  0  0
   -1.6968   -0.3629   -2.6533 H   0  0  0  0  0  0  0  0  0  0  0  0
   -2.9760    0.9105   -1.3456 C   0  0  0  0  0  3  0  0  0  0  0  0
   -3.9435    0.6456   -1.7981 H   0  0  0  0  0  0  0  0  0  0  0  0
   -2.8419    1.7311   -0.1719 C   0  0  0  0  0  3  0  0  0  0  0  0
   -3.7763    2.0230    0.3350 H   0  0  0  0  0  0  0  0  0  0  0  0
   -1.7002    2.7263   -0.0607 C   0  0  0  0  0  0  0  0  0  0  0  0
   -1.5987    3.0470    0.9952 H   0  0  0  0  0  0  0  0  0  0  0  0
   -1.9613    3.6436   -0.6350 H   0  0  0  0  0  0  0  0  0  0  0  0
   -0.3762    2.1190   -0.5663 C   0  0  0  0  0  0  0  0  0  0  0  0
    0.0423    2.6959   -1.4210 H   0  0  0  0  0  0  0  0  0  0  0  0
    0.3905    2.1155    0.2305 H   0  0  0  0  0  0  0  0  0  0  0  0
  1  4  1  0  0  0  0
  3  1  1  6  0  0  0
  3 30  1  0  0  0  0
  4  2  2  0  0  0  0
  5  4  1  0  0  0  0
  5  8  1  0  0  0  0
  6  5  1  0  0  0  0
  7  5  1  0  0  0  0
  8 11  1  0  0  0  0
  8 10  1  0  0  0  0
  9  8  1  0  0  0  0
 11 13  1  0  0  0  0
 11 14  1  0  0  0  0
 12 11  1  0  0  0  0
 14 17  1  0  0  0  0
 14 15  1  0  0  0  0
 16 14  1  0  0  0  0
 17 18  1  0  0  0  0
 17 20  1  0  0  0  0
 19 17  1  0  0  0  0
 21 23  1  0  0  0  0
 21  3  1  0  0  0  0
 22 21  1  0  0  0  0
 23 25  1  0  0  0  0
 24 23  1  0  0  0  0
 25 27  1  0  0  0  0
 25 26  1  0  0  0  0
 27 28  1  0  0  0  0
 29 27  1  0  0  0  0
 30 27  1  0  0  0  0
 30 32  1  0  0  0  0
 31 30  1  0  0  0  0
M  END
