17
 OpenBabel05122313113D

 26 26  0  0  1  0  0  0  0  0999 V2000
   -1.2240   -0.9830   -0.9553 O   0  0  0  0  0  0  0  0  0  0  0  0
   -1.7527   -0.7832    1.2558 O   0  0  0  0  0  0  0  0  0  0  0  0
    0.1498   -1.1445   -0.6999 C   0  0  2  0  0  3  0  0  0  0  0  0
   -2.0927   -0.7945    0.0909 C   0  0  0  0  0  0  0  0  0  0  0  0
   -3.5024   -0.5793   -0.4126 C   0  0  0  0  0  0  0  0  0  0  0  0
   -3.4849   -0.4366   -1.5110 H   0  0  0  0  0  0  0  0  0  0  0  0
   -4.0670   -1.5188   -0.2178 H   0  0  0  0  0  0  0  0  0  0  0  0
   -4.1874    0.5918    0.3053 C   0  0  0  0  0  0  0  0  0  0  0  0
   -3.6108    1.5195    0.1009 H   0  0  0  0  0  0  0  0  0  0  0  0
   -4.1108    0.4198    1.3990 H   0  0  0  0  0  0  0  0  0  0  0  0
   -5.6452    0.7727   -0.1124 C   0  0  0  0  0  0  0  0  0  0  0  0
   -6.1129    1.6262    0.4176 H   0  0  0  0  0  0  0  0  0  0  0  0
   -6.2469   -0.1325    0.1140 H   0  0  0  0  0  0  0  0  0  0  0  0
   -5.7364    0.9661   -1.2016 H   0  0  0  0  0  0  0  0  0  0  0  0
    0.9669   -0.6157   -1.7611 C   0  0  0  0  0  3  0  0  0  0  0  0
    0.5297   -0.1874   -2.6748 H   0  0  0  0  0  0  0  0  0  0  0  0
    2.3581   -0.5953   -1.4672 C   0  0  0  0  0  3  0  0  0  0  0  0
    3.0822   -0.1229   -2.1480 H   0  0  0  0  0  0  0  0  0  0  0  0
    2.7033   -1.1156   -0.1714 C   0  0  0  0  0  3  0  0  0  0  0  0
    3.7357   -0.9383    0.1720 H   0  0  0  0  0  0  0  0  0  0  0  0
    2.0555   -2.3913    0.3382 C   0  0  0  0  0  0  0  0  0  0  0  0
    2.2263   -2.4753    1.4299 H   0  0  0  0  0  0  0  0  0  0  0  0
    2.5689   -3.2667   -0.1198 H   0  0  0  0  0  0  0  0  0  0  0  0
    0.5452   -2.4153    0.0282 C   0  0  0  0  0  0  0  0  0  0  0  0
    0.2690   -3.2857   -0.6079 H   0  0  0  0  0  0  0  0  0  0  0  0
   -0.0511   -2.4883    0.9568 H   0  0  0  0  0  0  0  0  0  0  0  0
  1  4  1  0  0  0  0
  3  1  1  6  0  0  0
  3 24  1  0  0  0  0
  4  2  2  0  0  0  0
  5  7  1  0  0  0  0
  5  4  1  0  0  0  0
  5  8  1  0  0  0  0
  6  5  1  0  0  0  0
  8 10  1  0  0  0  0
  9  8  1  0  0  0  0
 11 13  1  0  0  0  0
 11  8  1  0  0  0  0
 11 12  1  0  0  0  0
 14 11  1  0  0  0  0
 15 17  1  0  0  0  0
 15  3  1  0  0  0  0
 16 15  1  0  0  0  0
 17 19  1  0  0  0  0
 18 17  1  0  0  0  0
 19 20  1  0  0  0  0
 19 21  1  0  0  0  0
 21 22  1  0  0  0  0
 23 21  1  0  0  0  0
 24 21  1  0  0  0  0
 24 26  1  0  0  0  0
 25 24  1  0  0  0  0
M  END
