7
 OpenBabel05122313113D

 34 35  0  0  0  0  0  0  0  0999 V2000
   -2.7268   -4.2481   -0.7340 O   0  0  0  0  0  0  0  0  0  0  0  0
   -1.7297    1.0209    0.3729 N   0  0  0  0  0  0  0  0  0  0  0  0
   -1.7866   -1.1721    0.3664 N   0  0  0  0  0  0  0  0  0  0  0  0
   -1.4662   -2.8747   -2.0677 N   0  0  0  0  0  0  0  0  0  0  0  0
   -1.8309   -3.3155   -2.9130 H   0  0  0  0  0  0  0  0  0  0  0  0
   -0.7880   -2.1006   -2.1593 H   0  0  0  0  0  0  0  0  0  0  0  0
   -0.9493   -0.0954    0.3150 C   0  0  0  0  0  2  0  0  0  0  0  0
   -3.0779    0.6653    0.4440 C   0  0  0  0  0  0  0  0  0  0  0  0
   -4.2540    1.4242    0.5180 C   0  0  0  0  0  0  0  0  0  0  0  0
   -4.2322    2.5229    0.5172 H   0  0  0  0  0  0  0  0  0  0  0  0
   -5.4634    0.7152    0.5873 C   0  0  0  0  0  0  0  0  0  0  0  0
   -6.4088    1.2746    0.6449 H   0  0  0  0  0  0  0  0  0  0  0  0
   -5.4963   -0.6976    0.5788 C   0  0  0  0  0  0  0  0  0  0  0  0
   -6.4669   -1.2129    0.6271 H   0  0  0  0  0  0  0  0  0  0  0  0
   -4.3214   -1.4614    0.5036 C   0  0  0  0  0  0  0  0  0  0  0  0
   -4.3349   -2.5602    0.4736 H   0  0  0  0  0  0  0  0  0  0  0  0
   -3.1157   -0.7495    0.4404 C   0  0  0  0  0  0  0  0  0  0  0  0
   -1.2178    2.3864    0.3169 C   0  0  0  0  0  0  0  0  0  0  0  0
   -0.1824    2.3492    0.7130 H   0  0  0  0  0  0  0  0  0  0  0  0
   -1.8187    2.9935    1.0239 H   0  0  0  0  0  0  0  0  0  0  0  0
   -1.2396    2.9651   -1.1013 C   0  0  0  0  0  0  0  0  0  0  0  0
   -0.6853    2.2632   -1.7598 H   0  0  0  0  0  0  0  0  0  0  0  0
   -2.2880    2.9897   -1.4731 H   0  0  0  0  0  0  0  0  0  0  0  0
   -0.6206    4.3652   -1.1896 C   0  0  0  0  0  0  0  0  0  0  0  0
   -0.5624    4.6507   -2.2612 H   0  0  0  0  0  0  0  0  0  0  0  0
    0.4335    4.3166   -0.8356 H   0  0  0  0  0  0  0  0  0  0  0  0
   -1.3759    5.4504   -0.4171 C   0  0  0  0  0  0  0  0  0  0  0  0
   -2.4350    5.5133   -0.7455 H   0  0  0  0  0  0  0  0  0  0  0  0
   -0.9205    6.4489   -0.5735 H   0  0  0  0  0  0  0  0  0  0  0  0
   -1.3778    5.2647    0.6769 H   0  0  0  0  0  0  0  0  0  0  0  0
   -1.3688   -2.5647    0.3513 C   0  0  0  0  0  0  0  0  0  0  0  0
   -1.7454   -3.0793    1.2556 H   0  0  0  0  0  0  0  0  0  0  0  0
   -0.2599   -2.5648    0.3656 H   0  0  0  0  0  0  0  0  0  0  0  0
   -1.9240   -3.3266   -0.8738 C   0  0  0  0  0  0  0  0  0  0  0  0
  2  8  1  0  0  0  0
  3 17  1  0  0  0  0
  4 34  1  0  0  0  0
  5  4  1  0  0  0  0
  6  4  1  0  0  0  0
  7  3  1  0  0  0  0
  7  2  1  0  0  0  0
  8  9  1  0  0  0  0
  9 11  2  0  0  0  0
 10  9  1  0  0  0  0
 11 12  1  0  0  0  0
 13 11  1  0  0  0  0
 13 14  1  0  0  0  0
 15 13  2  0  0  0  0
 16 15  1  0  0  0  0
 17  8  2  0  0  0  0
 17 15  1  0  0  0  0
 18  2  1  0  0  0  0
 18 19  1  0  0  0  0
 18 20  1  0  0  0  0
 21 18  1  0  0  0  0
 22 21  1  0  0  0  0
 23 21  1  0  0  0  0
 24 21  1  0  0  0  0
 24 26  1  0  0  0  0
 24 27  1  0  0  0  0
 25 24  1  0  0  0  0
 27 30  1  0  0  0  0
 28 27  1  0  0  0  0
 29 27  1  0  0  0  0
 31 33  1  0  0  0  0
 31  3  1  0  0  0  0
 31 32  1  0  0  0  0
 34  1  2  0  0  0  0
 34 31  1  0  0  0  0
M  END
