6
 OpenBabel05122313113D

 27 28  0  0  0  0  0  0  0  0999 V2000
   -0.3638    2.8067   -0.6112 N   0  0  0  0  0  0  0  0  0  0  0  0
   -1.9506    1.3406   -0.3951 N   0  0  0  0  0  0  0  0  0  0  0  0
   -0.3416   -0.7206    1.8721 N   0  0  0  0  0  0  0  0  0  0  0  0
   -0.3732   -1.7496    1.8873 H   0  0  0  0  0  0  0  0  0  0  0  0
    0.2811   -0.4079    2.6381 H   0  0  0  0  0  0  0  0  0  0  0  0
   -0.5817    1.4898   -0.3045 C   0  0  0  0  0  2  0  0  0  0  0  0
   -1.5564    3.4602   -0.8859 C   0  0  0  0  0  0  0  0  0  0  0  0
   -1.5913    4.5239   -1.1390 H   0  0  0  0  0  0  0  0  0  0  0  0
   -2.5594    2.5436   -0.7511 C   0  0  0  0  0  0  0  0  0  0  0  0
   -3.6451    2.6378   -0.8399 H   0  0  0  0  0  0  0  0  0  0  0  0
    0.9354    3.4734   -0.6925 C   0  0  0  0  0  0  0  0  0  0  0  0
    1.5388    3.2110    0.1958 H   0  0  0  0  0  0  0  0  0  0  0  0
    0.7663    4.5643   -0.7179 H   0  0  0  0  0  0  0  0  0  0  0  0
    1.4679    3.1695   -1.6150 H   0  0  0  0  0  0  0  0  0  0  0  0
   -2.7154    0.1430   -0.2066 C   0  0  0  0  0  0  0  0  0  0  0  0
   -3.5815   -0.2600   -1.2385 C   0  0  0  0  0  0  0  0  0  0  0  0
   -3.6210    0.3231   -2.1702 H   0  0  0  0  0  0  0  0  0  0  0  0
   -4.3669   -1.4096   -1.0827 C   0  0  0  0  0  0  0  0  0  0  0  0
   -5.0389   -1.7250   -1.8941 H   0  0  0  0  0  0  0  0  0  0  0  0
   -4.2891   -2.1537    0.1046 C   0  0  0  0  0  0  0  0  0  0  0  0
   -4.9054   -3.0551    0.2346 H   0  0  0  0  0  0  0  0  0  0  0  0
   -3.4318   -1.7366    1.1324 C   0  0  0  0  0  0  0  0  0  0  0  0
   -3.3894   -2.3075    2.0735 H   0  0  0  0  0  0  0  0  0  0  0  0
   -2.6374   -0.5811    1.0024 C   0  0  0  0  0  0  0  0  0  0  0  0
   -1.7005   -0.1720    2.1057 C   0  0  0  0  0  0  0  0  0  0  0  0
   -1.5970    0.9290    2.1684 H   0  0  0  0  0  0  0  0  0  0  0  0
   -2.0944   -0.5277    3.0805 H   0  0  0  0  0  0  0  0  0  0  0  0
  1  6  1  0  0  0  0
  2  6  1  0  0  0  0
  2 15  1  0  0  0  0
  3  4  1  0  0  0  0
  3 25  1  0  0  0  0
  3  5  1  0  0  0  0
  7  9  2  0  0  0  0
  7  1  1  0  0  0  0
  8  7  1  0  0  0  0
  9  2  1  0  0  0  0
 10  9  1  0  0  0  0
 11  1  1  0  0  0  0
 11 12  1  0  0  0  0
 13 11  1  0  0  0  0
 14 11  1  0  0  0  0
 15 24  1  0  0  0  0
 16 18  1  0  0  0  0
 16 15  2  0  0  0  0
 17 16  1  0  0  0  0
 18 20  2  0  0  0  0
 19 18  1  0  0  0  0
 20 21  1  0  0  0  0
 20 22  1  0  0  0  0
 22 23  1  0  0  0  0
 24 22  2  0  0  0  0
 24 25  1  0  0  0  0
 25 26  1  0  0  0  0
 25 27  1  0  0  0  0
M  END
