1
 OpenBabel05122313113D

 19 21  0  0  0  0  0  0  0  0999 V2000
   -1.4006   -0.4685    1.1525 C   0  0  0  0  0  3  0  0  0  0  0  0
   -1.1835   -0.8470    2.5282 C   0  0  0  0  0  0  0  0  0  0  0  0
   -2.2017   -1.2474    3.4042 C   0  0  0  0  0  0  0  0  0  0  0  0
   -3.5679   -1.3190    2.9976 C   0  0  0  0  0  0  0  0  0  0  0  0
   -3.8028   -0.9702    1.6804 C   0  0  0  0  0  0  0  0  0  0  0  0
   -4.8090   -0.7994    0.5692 C   0  0  0  0  0  0  0  0  0  0  0  0
   -6.1291   -0.8805    0.1636 C   0  0  0  0  0  0  0  0  0  0  0  0
   -6.3891   -0.5380   -1.1981 C   0  0  0  0  0  0  0  0  0  0  0  0
   -5.3659   -0.1462   -2.0674 C   0  0  0  0  0  0  0  0  0  0  0  0
   -4.0048   -0.0648   -1.6428 C   0  0  0  0  0  0  0  0  0  0  0  0
   -3.7562   -0.3939   -0.3207 C   0  0  0  0  0  0  0  0  0  0  0  0
   -2.7435   -0.5612    0.7958 C   0  0  0  0  0  0  0  0  0  0  0  0
   -0.1516   -0.8298    2.9179 H   0  0  0  0  0  0  0  0  0  0  0  0
   -1.9378   -1.5175    4.4394 H   0  0  0  0  0  0  0  0  0  0  0  0
   -4.3567   -1.6351    3.6964 H   0  0  0  0  0  0  0  0  0  0  0  0
   -6.9463   -1.1898    0.8324 H   0  0  0  0  0  0  0  0  0  0  0  0
   -7.4227   -0.5853   -1.5740 H   0  0  0  0  0  0  0  0  0  0  0  0
   -5.6164    0.1058   -3.1096 H   0  0  0  0  0  0  0  0  0  0  0  0
   -3.2145    0.2415   -2.3419 H   0  0  0  0  0  0  0  0  0  0  0  0
  1  2  1  0  0  0  0
  2 13  1  0  0  0  0
  2  3  2  0  0  0  0
  3 14  1  0  0  0  0
  4  3  1  0  0  0  0
  4 15  1  0  0  0  0
  5  4  2  0  0  0  0
  6  5  1  0  0  0  0
  7  6  1  0  0  0  0
  7 16  1  0  0  0  0
  8  7  2  0  0  0  0
  9 10  2  0  0  0  0
  9  8  1  0  0  0  0
 10 11  1  0  0  0  0
 11  6  2  0  0  0  0
 11 12  1  0  0  0  0
 12  1  2  0  0  0  0
 12  5  1  0  0  0  0
 17  8  1  0  0  0  0
 18  9  1  0  0  0  0
 19 10  1  0  0  0  0
M  END
