1
 OpenBabel05122313113D

 35 37  0  0  0  0  0  0  0  0999 V2000
    0.1933    1.1357   -0.1998 C   0  0  0  0  0  3  0  0  0  0  0  0
    1.0569    3.1942   -0.1384 N   0  0  0  0  0  0  0  0  0  0  0  0
   -0.7597    2.1584   -0.1461 N   0  0  0  0  0  0  0  0  0  0  0  0
    1.4072    1.8601   -0.1723 C   0  0  0  0  0  0  0  0  0  0  0  0
   -0.2427    3.3952   -0.1234 N   0  0  0  0  0  2  0  0  0  0  0  0
    2.8169    1.4338   -0.0908 C   0  0  0  0  0  0  0  0  0  0  0  0
    3.5947    1.8249    1.0259 C   0  0  0  0  0  0  0  0  0  0  0  0
    3.1420    2.4288    1.8278 H   0  0  0  0  0  0  0  0  0  0  0  0
   -2.1460   -0.3374   -1.4494 S   0  0  0  0  0  0  0  0  0  0  0  0
   -2.1745    2.0515    0.0372 C   0  0  0  0  0  0  0  0  0  0  0  0
   -2.9113    0.9720   -0.4989 C   0  0  0  0  0  0  0  0  0  0  0  0
    1.9404    4.3562   -0.1604 C   0  0  0  0  0  0  0  0  0  0  0  0
    2.2153    4.6513    0.8700 H   0  0  0  0  0  0  0  0  0  0  0  0
    1.4025    5.1847   -0.6531 H   0  0  0  0  0  0  0  0  0  0  0  0
    2.8548    4.0956   -0.7216 H   0  0  0  0  0  0  0  0  0  0  0  0
    3.4058    0.6465   -1.1021 C   0  0  0  0  0  0  0  0  0  0  0  0
    2.7944    0.3201   -1.9552 H   0  0  0  0  0  0  0  0  0  0  0  0
    4.7484    0.2570   -0.9916 C   0  0  0  0  0  0  0  0  0  0  0  0
    5.1989   -0.3570   -1.7856 H   0  0  0  0  0  0  0  0  0  0  0  0
   -1.7452    0.5542   -2.9954 C   0  0  0  0  0  0  0  0  0  0  0  0
   -1.1588    1.4650   -2.7791 H   0  0  0  0  0  0  0  0  0  0  0  0
   -2.6983    0.7946   -3.5007 H   0  0  0  0  0  0  0  0  0  0  0  0
   -1.1285   -0.1472   -3.5866 H   0  0  0  0  0  0  0  0  0  0  0  0
   -4.2929    0.8864   -0.2570 C   0  0  0  0  0  0  0  0  0  0  0  0
   -4.8528    0.0386   -0.6792 H   0  0  0  0  0  0  0  0  0  0  0  0
   -2.8329    3.0411    0.7885 C   0  0  0  0  0  0  0  0  0  0  0  0
   -2.2476    3.8759    1.1958 H   0  0  0  0  0  0  0  0  0  0  0  0
    4.9346    1.4284    1.1302 C   0  0  0  0  0  0  0  0  0  0  0  0
    5.5283    1.7316    2.0053 H   0  0  0  0  0  0  0  0  0  0  0  0
    5.5141    0.6432    0.1195 C   0  0  0  0  0  0  0  0  0  0  0  0
    6.5668    0.3335    0.2000 H   0  0  0  0  0  0  0  0  0  0  0  0
   -4.9459    1.8718    0.4972 C   0  0  0  0  0  0  0  0  0  0  0  0
   -6.0278    1.7957    0.6784 H   0  0  0  0  0  0  0  0  0  0  0  0
   -4.2132    2.9518    1.0115 C   0  0  0  0  0  0  0  0  0  0  0  0
   -4.7155    3.7318    1.6019 H   0  0  0  0  0  0  0  0  0  0  0  0
  1  4  2  0  0  0  0
  1  3  1  0  0  0  0
  2  5  1  0  0  0  0
  3  5  1  0  0  0  0
  3 10  1  0  0  0  0
  4  2  1  0  0  0  0
  4  6  1  0  0  0  0
  6  7  1  0  0  0  0
  7 28  2  0  0  0  0
  7  8  1  0  0  0  0
  9 11  1  0  0  0  0
 10 26  1  0  0  0  0
 11 24  1  0  0  0  0
 11 10  2  0  0  0  0
 12  2  1  0  0  0  0
 12 13  1  0  0  0  0
 14 12  1  0  0  0  0
 15 12  1  0  0  0  0
 16 18  1  0  0  0  0
 16  6  2  0  0  0  0
 17 16  1  0  0  0  0
 18 30  2  0  0  0  0
 19 18  1  0  0  0  0
 20 21  1  0  0  0  0
 20  9  1  0  0  0  0
 22 20  1  0  0  0  0
 23 20  1  0  0  0  0
 24 32  2  0  0  0  0
 25 24  1  0  0  0  0
 26 34  2  0  0  0  0
 26 27  1  0  0  0  0
 28 29  1  0  0  0  0
 30 31  1  0  0  0  0
 30 28  1  0  0  0  0
 32 33  1  0  0  0  0
 32 34  1  0  0  0  0
 34 35  1  0  0  0  0
M  END
