3
 OpenBabel05122313113D

 32 35  0  0  1  0  0  0  0  0999 V2000
   -0.4836   -1.2524    1.0960 N   0  0  0  0  0  0  0  0  0  0  0  0
   -0.4836   -1.2523   -1.0960 N   0  0  0  0  0  0  0  0  0  0  0  0
    0.2689   -1.0078   -0.0000 C   0  0  0  0  0  2  0  0  0  0  0  0
   -2.3403    0.8614   -0.7078 C   0  0  0  0  0  0  0  0  0  0  0  0
   -2.3402    0.8614    0.7079 C   0  0  0  0  0  0  0  0  0  0  0  0
   -1.7654    1.9146   -1.4233 C   0  0  0  0  0  0  0  0  0  0  0  0
   -1.7576    1.9192   -2.5244 H   0  0  0  0  0  0  0  0  0  0  0  0
   -1.7654    1.9146    1.4232 C   0  0  0  0  0  0  0  0  0  0  0  0
   -1.7575    1.9193    2.5243 H   0  0  0  0  0  0  0  0  0  0  0  0
   -1.8742   -1.5703    0.7796 C   0  0  2  0  0  0  0  0  0  0  0  0
   -2.1657   -2.5435    1.2295 H   0  0  0  0  0  0  0  0  0  0  0  0
   -1.2001    2.9848   -0.7024 C   0  0  0  0  0  0  0  0  0  0  0  0
   -0.7500    3.8295   -1.2451 H   0  0  0  0  0  0  0  0  0  0  0  0
   -1.8742   -1.5703   -0.7795 C   0  0  1  0  0  0  0  0  0  0  0  0
   -2.1657   -2.5435   -1.2294 H   0  0  0  0  0  0  0  0  0  0  0  0
   -2.9333   -0.4642    1.1419 C   0  0  2  0  0  0  0  0  0  0  0  0
   -3.3095   -0.5205    2.1797 H   0  0  0  0  0  0  0  0  0  0  0  0
   -2.9334   -0.4642   -1.1418 C   0  0  1  0  0  0  0  0  0  0  0  0
   -3.3097   -0.5206   -2.1796 H   0  0  0  0  0  0  0  0  0  0  0  0
   -1.2000    2.9849    0.7023 C   0  0  0  0  0  0  0  0  0  0  0  0
   -0.7500    3.8295    1.2449 H   0  0  0  0  0  0  0  0  0  0  0  0
   -3.9528   -0.7145    0.0001 C   0  0  0  0  0  0  0  0  0  0  0  0
   -4.3726   -1.7419    0.0001 H   0  0  0  0  0  0  0  0  0  0  0  0
   -4.7801    0.0211    0.0001 H   0  0  0  0  0  0  0  0  0  0  0  0
   -0.0387   -1.1218   -2.4637 C   0  0  0  0  0  0  0  0  0  0  0  0
    1.0487   -0.9172   -2.4645 H   0  0  0  0  0  0  0  0  0  0  0  0
   -0.5552   -0.2842   -2.9794 H   0  0  0  0  0  0  0  0  0  0  0  0
   -0.2339   -2.0588   -3.0282 H   0  0  0  0  0  0  0  0  0  0  0  0
   -0.0386   -1.1217    2.4637 C   0  0  0  0  0  0  0  0  0  0  0  0
   -0.2343   -2.0585    3.0284 H   0  0  0  0  0  0  0  0  0  0  0  0
   -0.5547   -0.2837    2.9792 H   0  0  0  0  0  0  0  0  0  0  0  0
    1.0489   -0.9176    2.4645 H   0  0  0  0  0  0  0  0  0  0  0  0
  1 29  1  0  0  0  0
  2 14  1  0  0  0  0
  2  3  1  0  0  0  0
  3  1  1  0  0  0  0
  4  5  1  0  0  0  0
  5 16  1  0  0  0  0
  5  8  2  0  0  0  0
  6  4  2  0  0  0  0
  6 12  1  0  0  0  0
  7  6  1  0  0  0  0
  8  9  1  0  0  0  0
 10  1  1  0  0  0  0
 10 16  1  0  0  0  0
 10 11  1  1  0  0  0
 12 20  2  0  0  0  0
 13 12  1  0  0  0  0
 14 15  1  6  0  0  0
 14 10  1  0  0  0  0
 16 17  1  1  0  0  0
 18 19  1  6  0  0  0
 18 14  1  0  0  0  0
 18  4  1  0  0  0  0
 18 22  1  0  0  0  0
 20 21  1  0  0  0  0
 20  8  1  0  0  0  0
 22 24  1  0  0  0  0
 22 23  1  0  0  0  0
 22 16  1  0  0  0  0
 25  2  1  0  0  0  0
 26 25  1  0  0  0  0
 27 25  1  0  0  0  0
 28 25  1  0  0  0  0
 29 32  1  0  0  0  0
 29 31  1  0  0  0  0
 29 30  1  0  0  0  0
M  END
