3
 OpenBabel05122313113D

 10 10  0  0  0  0  0  0  0  0999 V2000
    3.6918   -0.5086   -1.1361 S   0  0  0  0  0  0  0  0  0  0  0  0
    2.6387    0.6145    1.3576 S   0  0  0  0  0  0  0  0  0  0  0  0
    2.1548    0.0326   -0.3221 C   0  0  0  0  0  3  0  0  0  0  0  0
    4.5798    0.9996   -0.5840 C   0  0  0  0  0  0  0  0  0  0  0  0
    4.3457    1.1960    0.9203 C   0  0  0  0  0  0  0  0  0  0  0  0
    1.8100    0.9268   -0.8777 H   0  0  0  0  0  0  0  0  0  0  0  0
    4.1867    1.8673   -1.1541 H   0  0  0  0  0  0  0  0  0  0  0  0
    5.6578    0.8866   -0.8183 H   0  0  0  0  0  0  0  0  0  0  0  0
    5.0619    0.5984    1.5186 H   0  0  0  0  0  0  0  0  0  0  0  0
    4.4542    2.2646    1.1986 H   0  0  0  0  0  0  0  0  0  0  0  0
  1  4  1  0  0  0  0
  1  3  1  0  0  0  0
  3  2  1  0  0  0  0
  4  5  1  0  0  0  0
  5 10  1  0  0  0  0
  5  2  1  0  0  0  0
  5  9  1  0  0  0  0
  6  3  1  0  0  0  0
  7  4  1  0  0  0  0
  8  4  1  0  0  0  0
M  END
