5
 OpenBabel05122313113D

  7  6  0  0  0  0  0  0  0  0999 V2000
   -0.3405   -2.0725   -2.1918 F   0  0  0  0  0  0  0  0  0  0  0  0
   -1.1100   -3.2606   -0.4855 F   0  0  0  0  0  0  0  0  0  0  0  0
    1.5774   -3.6457    0.3403 F   0  0  0  0  0  0  0  0  0  0  0  0
    0.9216   -4.4756   -1.5991 F   0  0  0  0  0  0  0  0  0  0  0  0
   -0.0706   -2.4257   -0.8821 C   0  0  0  0  0  3  0  0  0  0  0  0
    1.1872   -3.3156   -0.9330 C   0  0  0  0  0  0  0  0  0  0  0  0
    2.0259   -2.7962   -1.4427 H   0  0  0  0  0  0  0  0  0  0  0  0
  1  5  1  0  0  0  0
  4  6  1  0  0  0  0
  5  2  1  0  0  0  0
  6  5  1  0  0  0  0
  6  3  1  0  0  0  0
  7  6  1  0  0  0  0
M  END
