3
 OpenBabel05122313113D

 10 10  0  0  0  0  0  0  0  0999 V2000
   -0.0021    6.0570    0.1470 Br  0  0  0  0  0  0  0  0  0  0  0  0
   -0.0007    2.0454    1.2031 N   0  0  0  0  0  0  0  0  0  0  0  0
   -0.0005    1.3912    0.0292 C   0  0  0  0  0  3  0  0  0  0  0  0
   -0.0012    3.3879    1.2282 C   0  0  0  0  0  0  0  0  0  0  0  0
   -0.0014    4.1508    0.0526 C   0  0  0  0  0  0  0  0  0  0  0  0
   -0.0011    3.4972   -1.1902 C   0  0  0  0  0  0  0  0  0  0  0  0
   -0.0007    2.1000   -1.1976 C   0  0  0  0  0  0  0  0  0  0  0  0
   -0.0014    3.8813    2.2161 H   0  0  0  0  0  0  0  0  0  0  0  0
   -0.0013    4.0732   -2.1267 H   0  0  0  0  0  0  0  0  0  0  0  0
   -0.0004    1.5508   -2.1507 H   0  0  0  0  0  0  0  0  0  0  0  0
  2  4  1  0  0  0  0
  3  2  2  0  0  0  0
  4  8  1  0  0  0  0
  5  1  1  0  0  0  0
  5  4  2  0  0  0  0
  6  5  1  0  0  0  0
  7  6  2  0  0  0  0
  7  3  1  0  0  0  0
  9  6  1  0  0  0  0
 10  7  1  0  0  0  0
M  END
