6
 OpenBabel05122313113D

 33 33  0  0  1  0  0  0  0  0999 V2000
   -2.9747    1.1686    1.3183 N   0  0  0  0  0  0  0  0  0  0  0  0
   -2.2757    0.9986   -2.3967 C   0  0  0  0  0  0  0  0  0  0  0  0
   -2.4577   -0.0661   -2.6377 H   0  0  0  0  0  0  0  0  0  0  0  0
   -1.4331    1.3486   -3.0226 H   0  0  0  0  0  0  0  0  0  0  0  0
   -3.1793    1.5666   -2.7071 H   0  0  0  0  0  0  0  0  0  0  0  0
   -1.9614    1.2223   -0.9200 C   0  0  0  0  0  3  0  0  0  0  0  0
   -1.6222    2.2540   -0.7134 H   0  0  0  0  0  0  0  0  0  0  0  0
   -2.8542    0.6766    0.0716 C   0  0  2  0  0  3  0  0  0  0  0  0
   -3.7364   -0.4681   -0.3154 C   0  0  0  0  0  0  0  0  0  0  0  0
   -3.2435   -1.7855   -0.3833 C   0  0  0  0  0  0  0  0  0  0  0  0
   -2.1922   -1.9778   -0.1208 H   0  0  0  0  0  0  0  0  0  0  0  0
   -4.0826   -2.8325   -0.7927 C   0  0  0  0  0  0  0  0  0  0  0  0
   -3.6895   -3.8590   -0.8401 H   0  0  0  0  0  0  0  0  0  0  0  0
   -5.4162   -2.5716   -1.1429 C   0  0  0  0  0  0  0  0  0  0  0  0
   -6.0728   -3.3930   -1.4657 H   0  0  0  0  0  0  0  0  0  0  0  0
   -5.9102   -1.2584   -1.0845 C   0  0  0  0  0  0  0  0  0  0  0  0
   -6.9529   -1.0474   -1.3648 H   0  0  0  0  0  0  0  0  0  0  0  0
   -5.0763   -0.2086   -0.6737 C   0  0  0  0  0  0  0  0  0  0  0  0
   -5.4629    0.8215   -0.6349 H   0  0  0  0  0  0  0  0  0  0  0  0
   -2.1781    2.3228    1.7557 C   0  0  0  0  0  0  0  0  0  0  0  0
   -1.1619    2.2413    1.3120 H   0  0  0  0  0  0  0  0  0  0  0  0
   -2.0471    2.2318    2.8519 H   0  0  0  0  0  0  0  0  0  0  0  0
   -2.8282    3.6612    1.4101 C   0  0  0  0  0  0  0  0  0  0  0  0
   -2.9494    3.7849    0.3161 H   0  0  0  0  0  0  0  0  0  0  0  0
   -2.2006    4.4956    1.7800 H   0  0  0  0  0  0  0  0  0  0  0  0
   -3.8274    3.7548    1.8800 H   0  0  0  0  0  0  0  0  0  0  0  0
   -3.7523    0.4870    2.3689 C   0  0  0  0  0  0  0  0  0  0  0  0
   -4.6099   -0.0256    1.8970 H   0  0  0  0  0  0  0  0  0  0  0  0
   -4.1710    1.2778    3.0240 H   0  0  0  0  0  0  0  0  0  0  0  0
   -2.9159   -0.5052    3.1739 C   0  0  0  0  0  0  0  0  0  0  0  0
   -2.5614   -1.3321    2.5280 H   0  0  0  0  0  0  0  0  0  0  0  0
   -3.5262   -0.9426    3.9880 H   0  0  0  0  0  0  0  0  0  0  0  0
   -2.0305   -0.0234    3.6360 H   0  0  0  0  0  0  0  0  0  0  0  0
  1 20  1  0  0  0  0
  1 27  1  0  0  0  0
  2  6  1  0  0  0  0
  3  2  1  0  0  0  0
  4  2  1  0  0  0  0
  5  2  1  0  0  0  0
  6  7  1  0  0  0  0
  8  6  1  6  0  0  0
  8  1  1  0  0  0  0
  9  8  1  0  0  0  0
 10  9  1  0  0  0  0
 10 11  1  0  0  0  0
 12 10  2  0  0  0  0
 13 12  1  0  0  0  0
 14 16  2  0  0  0  0
 14 12  1  0  0  0  0
 15 14  1  0  0  0  0
 16 18  1  0  0  0  0
 17 16  1  0  0  0  0
 18 19  1  0  0  0  0
 18  9  2  0  0  0  0
 20 22  1  0  0  0  0
 21 20  1  0  0  0  0
 23 20  1  0  0  0  0
 23 25  1  0  0  0  0
 23 26  1  0  0  0  0
 24 23  1  0  0  0  0
 27 29  1  0  0  0  0
 27 30  1  0  0  0  0
 28 27  1  0  0  0  0
 30 33  1  0  0  0  0
 30 32  1  0  0  0  0
 31 30  1  0  0  0  0
M  END
