7
 OpenBabel05122313113D

 27 27  0  0  1  0  0  0  0  0999 V2000
   -4.2417   -0.0449    1.4957 O   0  0  0  0  0  0  0  0  0  0  0  0
   -3.2438   -2.3898    0.5552 O   0  0  0  0  0  0  0  0  0  0  0  0
   -2.3870    3.3354   -0.7960 O   0  0  0  0  0  0  0  0  0  0  0  0
   -2.8434    1.2919    0.1092 N   0  0  0  0  0  0  0  0  0  0  0  0
   -3.1331    2.3666   -0.7778 C   0  0  0  0  0  0  0  0  0  0  0  0
   -1.7626    1.4358    0.9539 C   0  0  0  0  0  3  0  0  0  0  0  0
   -1.4024   -0.9658    0.9964 C   0  0  0  0  0  3  0  0  0  0  0  0
   -3.6179    0.0372    0.2528 C   0  0  1  0  0  0  0  0  0  0  0  0
   -1.2099    0.3284    1.6029 C   0  0  0  0  0  3  0  0  0  0  0  0
   -2.6541   -1.1796    0.1327 C   0  0  2  0  0  0  0  0  0  0  0  0
   -4.3829   -2.7887   -0.1863 C   0  0  0  0  0  0  0  0  0  0  0  0
   -4.3524    2.2443   -1.6570 C   0  0  0  0  0  0  0  0  0  0  0  0
   -5.3171    0.8611    1.6863 C   0  0  0  0  0  0  0  0  0  0  0  0
   -4.3576    0.0204   -0.5765 H   0  0  0  0  0  0  0  0  0  0  0  0
   -2.4058   -1.2511   -0.9547 H   0  0  0  0  0  0  0  0  0  0  0  0
   -1.4727    2.4686    1.1871 H   0  0  0  0  0  0  0  0  0  0  0  0
   -1.2070   -1.8327    1.6432 H   0  0  0  0  0  0  0  0  0  0  0  0
   -0.6301    0.4757    2.5252 H   0  0  0  0  0  0  0  0  0  0  0  0
   -5.7365    0.6587    2.6888 H   0  0  0  0  0  0  0  0  0  0  0  0
   -4.4549    3.1898   -2.2165 H   0  0  0  0  0  0  0  0  0  0  0  0
   -4.6214   -3.8258    0.1154 H   0  0  0  0  0  0  0  0  0  0  0  0
   -5.2675   -2.1506    0.0350 H   0  0  0  0  0  0  0  0  0  0  0  0
   -4.9828    1.9228    1.6495 H   0  0  0  0  0  0  0  0  0  0  0  0
   -4.2246    1.4151   -2.3815 H   0  0  0  0  0  0  0  0  0  0  0  0
   -5.2773    2.0580   -1.0773 H   0  0  0  0  0  0  0  0  0  0  0  0
   -6.1182    0.7097    0.9256 H   0  0  0  0  0  0  0  0  0  0  0  0
   -4.1901   -2.7687   -1.2861 H   0  0  0  0  0  0  0  0  0  0  0  0
  1 13  1  0  0  0  0
  3  5  2  0  0  0  0
  4  8  1  0  0  0  0
  4  6  1  0  0  0  0
  5  4  1  0  0  0  0
  6 16  1  0  0  0  0
  6  9  1  0  0  0  0
  7  9  1  0  0  0  0
  7 17  1  0  0  0  0
  8 14  1  6  0  0  0
  8  1  1  0  0  0  0
  9 18  1  0  0  0  0
 10 15  1  6  0  0  0
 10  8  1  0  0  0  0
 10  2  1  0  0  0  0
 10  7  1  0  0  0  0
 11 22  1  0  0  0  0
 11 21  1  0  0  0  0
 11  2  1  0  0  0  0
 12 25  1  0  0  0  0
 12  5  1  0  0  0  0
 13 19  1  0  0  0  0
 20 12  1  0  0  0  0
 23 13  1  0  0  0  0
 24 12  1  0  0  0  0
 26 13  1  0  0  0  0
 27 11  1  0  0  0  0
M  END
