1
 OpenBabel05122313113D

 21 20  0  0  0  0  0  0  0  0999 V2000
   -1.6117   -1.5189    0.5645 C   0  0  0  0  0  3  0  0  0  0  0  0
   -2.0735   -0.1232    0.3980 C   0  0  0  0  0  3  0  0  0  0  0  0
   -3.0606    0.2753   -0.6807 C   0  0  0  0  0  0  0  0  0  0  0  0
   -4.5742    0.0536   -0.3850 C   0  0  0  0  0  0  0  0  0  0  0  0
   -5.3686    0.5377   -1.6119 C   0  0  0  0  0  0  0  0  0  0  0  0
   -5.0028    0.8704    0.8467 C   0  0  0  0  0  0  0  0  0  0  0  0
   -4.8762   -1.4350   -0.1433 C   0  0  0  0  0  0  0  0  0  0  0  0
   -1.8778   -2.2189   -0.2458 H   0  0  0  0  0  0  0  0  0  0  0  0
   -1.6918   -1.9885    1.5657 H   0  0  0  0  0  0  0  0  0  0  0  0
   -2.2598    0.4053    1.3585 H   0  0  0  0  0  0  0  0  0  0  0  0
   -2.7971   -0.2676   -1.6142 H   0  0  0  0  0  0  0  0  0  0  0  0
   -2.9442    1.3584   -0.9226 H   0  0  0  0  0  0  0  0  0  0  0  0
   -5.0823   -0.0305   -2.5213 H   0  0  0  0  0  0  0  0  0  0  0  0
   -6.4609    0.4095   -1.4610 H   0  0  0  0  0  0  0  0  0  0  0  0
   -5.1791    1.6130   -1.8141 H   0  0  0  0  0  0  0  0  0  0  0  0
   -4.4728    0.5332    1.7606 H   0  0  0  0  0  0  0  0  0  0  0  0
   -4.7864    1.9511    0.7061 H   0  0  0  0  0  0  0  0  0  0  0  0
   -6.0920    0.7681    1.0343 H   0  0  0  0  0  0  0  0  0  0  0  0
   -4.5689   -2.0507   -1.0141 H   0  0  0  0  0  0  0  0  0  0  0  0
   -4.3346   -1.8170    0.7440 H   0  0  0  0  0  0  0  0  0  0  0  0
   -5.9630   -1.5944    0.0188 H   0  0  0  0  0  0  0  0  0  0  0  0
  1  9  1  0  0  0  0
  2  1  1  0  0  0  0
  2 10  1  0  0  0  0
  3  4  1  0  0  0  0
  3  2  1  0  0  0  0
  4  7  1  0  0  0  0
  4  6  1  0  0  0  0
  5 14  1  0  0  0  0
  5  4  1  0  0  0  0
  6 18  1  0  0  0  0
  6 16  1  0  0  0  0
  7 21  1  0  0  0  0
  7 20  1  0  0  0  0
  8  1  1  0  0  0  0
 11  3  1  0  0  0  0
 12  3  1  0  0  0  0
 13  5  1  0  0  0  0
 15  5  1  0  0  0  0
 17  6  1  0  0  0  0
 19  7  1  0  0  0  0
M  END
