3
 OpenBabel05122313113D

 81 88  0  0  0  0  0  0  0  0999 V2000
   -1.1457    0.8167   -0.1999 N   0  0  0  0  0  0  0  0  0  0  0  0
    1.0624    0.8403   -0.1412 N   0  0  0  0  0  0  0  0  0  0  0  0
   -0.0306    0.0104   -0.2592 C   0  0  0  0  0  2  0  0  0  0  0  0
   -0.7709    2.1338    0.1123 C   0  0  0  0  0  0  0  0  0  0  0  0
    0.6439    2.1489    0.1511 C   0  0  0  0  0  0  0  0  0  0  0  0
    1.3468    3.3172    0.4981 C   0  0  0  0  0  0  0  0  0  0  0  0
    2.4390    3.3371    0.5589 H   0  0  0  0  0  0  0  0  0  0  0  0
    0.5983    4.4620    0.7939 C   0  0  0  0  0  0  0  0  0  0  0  0
    1.1262    5.3843    1.0772 H   0  0  0  0  0  0  0  0  0  0  0  0
   -0.8106    4.4472    0.7539 C   0  0  0  0  0  0  0  0  0  0  0  0
   -1.3730    5.3583    1.0058 H   0  0  0  0  0  0  0  0  0  0  0  0
   -1.5169    3.2869    0.4176 C   0  0  0  0  0  0  0  0  0  0  0  0
   -2.6109    3.2834    0.4161 H   0  0  0  0  0  0  0  0  0  0  0  0
    2.5020    0.4390   -0.1979 C   0  0  0  0  0  0  0  0  0  0  0  0
    3.0874    0.2754    1.2061 C   0  0  0  0  0  0  0  0  0  0  0  0
    2.6553   -0.5639    2.2339 C   0  0  0  0  0  0  0  0  0  0  0  0
    1.7636   -1.1988    2.1018 H   0  0  0  0  0  0  0  0  0  0  0  0
    3.3885   -0.5829    3.4357 C   0  0  0  0  0  0  0  0  0  0  0  0
    3.0643   -1.2367    4.2590 H   0  0  0  0  0  0  0  0  0  0  0  0
    4.5332    0.2207    3.5909 C   0  0  0  0  0  0  0  0  0  0  0  0
    5.0951    0.1884    4.5366 H   0  0  0  0  0  0  0  0  0  0  0  0
    4.9681    1.0634    2.5539 C   0  0  0  0  0  0  0  0  0  0  0  0
    5.8642    1.6895    2.6817 H   0  0  0  0  0  0  0  0  0  0  0  0
    4.2357    1.0911    1.3566 C   0  0  0  0  0  0  0  0  0  0  0  0
    4.4240    1.8692    0.1216 C   0  0  0  0  0  0  0  0  0  0  0  0
    5.3923    2.8211   -0.2350 C   0  0  0  0  0  0  0  0  0  0  0  0
    6.2116    3.0750    0.4544 H   0  0  0  0  0  0  0  0  0  0  0  0
    5.2954    3.4500   -1.4886 C   0  0  0  0  0  0  0  0  0  0  0  0
    6.0452    4.2012   -1.7794 H   0  0  0  0  0  0  0  0  0  0  0  0
    4.2519    3.1306   -2.3764 C   0  0  0  0  0  0  0  0  0  0  0  0
    4.1908    3.6370   -3.3513 H   0  0  0  0  0  0  0  0  0  0  0  0
    3.2848    2.1692   -2.0263 C   0  0  0  0  0  0  0  0  0  0  0  0
    2.4657    1.9201   -2.7183 H   0  0  0  0  0  0  0  0  0  0  0  0
    3.3765    1.5528   -0.7787 C   0  0  0  0  0  0  0  0  0  0  0  0
    2.7250   -0.8287   -1.0636 C   0  0  0  0  0  0  0  0  0  0  0  0
    2.1822   -1.6773   -0.5935 H   0  0  0  0  0  0  0  0  0  0  0  0
    2.2399   -0.6604   -2.0494 H   0  0  0  0  0  0  0  0  0  0  0  0
    4.1873   -1.2362   -1.2512 C   0  0  0  0  0  0  0  0  0  0  0  0
    4.7467   -0.4468   -1.7981 H   0  0  0  0  0  0  0  0  0  0  0  0
    4.6780   -1.3280   -0.2577 H   0  0  0  0  0  0  0  0  0  0  0  0
    4.3140   -2.5669   -2.0010 C   0  0  0  0  0  0  0  0  0  0  0  0
    3.8049   -2.4810   -2.9868 H   0  0  0  0  0  0  0  0  0  0  0  0
    3.7563   -3.3528   -1.4460 H   0  0  0  0  0  0  0  0  0  0  0  0
    5.7645   -3.0039   -2.2049 C   0  0  0  0  0  0  0  0  0  0  0  0
    5.8290   -3.9681   -2.7478 H   0  0  0  0  0  0  0  0  0  0  0  0
    6.2858   -3.1320   -1.2333 H   0  0  0  0  0  0  0  0  0  0  0  0
    6.3360   -2.2514   -2.7880 H   0  0  0  0  0  0  0  0  0  0  0  0
   -2.5731    0.3874   -0.3257 C   0  0  0  0  0  0  0  0  0  0  0  0
   -3.2266    0.2377    1.0491 C   0  0  0  0  0  0  0  0  0  0  0  0
   -2.8313   -0.5754    2.1119 C   0  0  0  0  0  0  0  0  0  0  0  0
   -1.9208   -1.1924    2.0362 H   0  0  0  0  0  0  0  0  0  0  0  0
   -3.6257   -0.5904    3.2741 C   0  0  0  0  0  0  0  0  0  0  0  0
   -3.3319   -1.2235    4.1245 H   0  0  0  0  0  0  0  0  0  0  0  0
   -4.7932    0.1912    3.3554 C   0  0  0  0  0  0  0  0  0  0  0  0
   -5.4031    0.1622    4.2710 H   0  0  0  0  0  0  0  0  0  0  0  0
   -5.1905    1.0076    2.2829 C   0  0  0  0  0  0  0  0  0  0  0  0
   -6.1048    1.6162    2.3532 H   0  0  0  0  0  0  0  0  0  0  0  0
   -4.3972    1.0314    1.1249 C   0  0  0  0  0  0  0  0  0  0  0  0
   -4.5353    1.7845   -0.1323 C   0  0  0  0  0  0  0  0  0  0  0  0
   -5.5012    2.7111   -0.5556 C   0  0  0  0  0  0  0  0  0  0  0  0
   -6.3608    2.9594    0.0852 H   0  0  0  0  0  0  0  0  0  0  0  0
   -5.3497    3.3222   -1.8125 C   0  0  0  0  0  0  0  0  0  0  0  0
   -6.0971    4.0536   -2.1551 H   0  0  0  0  0  0  0  0  0  0  0  0
   -4.2541    3.0104   -2.6380 C   0  0  0  0  0  0  0  0  0  0  0  0
   -4.1508    3.5027   -3.6166 H   0  0  0  0  0  0  0  0  0  0  0  0
   -3.2888    2.0740   -2.2213 C   0  0  0  0  0  0  0  0  0  0  0  0
   -2.4295    1.8301   -2.8647 H   0  0  0  0  0  0  0  0  0  0  0  0
   -3.4354    1.4748   -0.9706 C   0  0  0  0  0  0  0  0  0  0  0  0
   -2.7304   -0.9037   -1.1708 C   0  0  0  0  0  0  0  0  0  0  0  0
   -2.1805   -0.7615   -2.1262 H   0  0  0  0  0  0  0  0  0  0  0  0
   -2.2155   -1.7297   -0.6371 H   0  0  0  0  0  0  0  0  0  0  0  0
   -4.1763   -1.3232   -1.4504 C   0  0  0  0  0  0  0  0  0  0  0  0
   -4.7552   -1.3176   -0.5010 H   0  0  0  0  0  0  0  0  0  0  0  0
   -4.6651   -0.5804   -2.1148 H   0  0  0  0  0  0  0  0  0  0  0  0
   -4.2690   -2.7208   -2.0828 C   0  0  0  0  0  0  0  0  0  0  0  0
   -5.3160   -2.8763   -2.4213 H   0  0  0  0  0  0  0  0  0  0  0  0
   -3.6488   -2.7458   -3.0069 H   0  0  0  0  0  0  0  0  0  0  0  0
   -3.8619   -3.8692   -1.1548 C   0  0  0  0  0  0  0  0  0  0  0  0
   -4.0270   -4.8516   -1.6412 H   0  0  0  0  0  0  0  0  0  0  0  0
   -4.4617   -3.8554   -0.2204 H   0  0  0  0  0  0  0  0  0  0  0  0
   -2.7927   -3.8343   -0.8599 H   0  0  0  0  0  0  0  0  0  0  0  0
  1  4  1  0  0  0  0
  2  5  1  0  0  0  0
  3  1  1  0  0  0  0
  3  2  1  0  0  0  0
  4  5  2  0  0  0  0
  4 12  1  0  0  0  0
  5  6  1  0  0  0  0
  6  7  1  0  0  0  0
  6  8  2  0  0  0  0
  8  9  1  0  0  0  0
 10  8  1  0  0  0  0
 10 11  1  0  0  0  0
 12 10  2  0  0  0  0
 13 12  1  0  0  0  0
 14  2  1  0  0  0  0
 14 15  1  0  0  0  0
 15 24  2  0  0  0  0
 15 16  1  0  0  0  0
 16 18  2  0  0  0  0
 17 16  1  0  0  0  0
 18 20  1  0  0  0  0
 18 19  1  0  0  0  0
 20 21  1  0  0  0  0
 22 23  1  0  0  0  0
 22 20  2  0  0  0  0
 24 22  1  0  0  0  0
 25 24  1  0  0  0  0
 26 25  1  0  0  0  0
 26 27  1  0  0  0  0
 28 26  2  0  0  0  0
 29 28  1  0  0  0  0
 30 32  2  0  0  0  0
 30 28  1  0  0  0  0
 31 30  1  0  0  0  0
 32 34  1  0  0  0  0
 33 32  1  0  0  0  0
 34 14  1  0  0  0  0
 34 25  2  0  0  0  0
 35 36  1  0  0  0  0
 35 14  1  0  0  0  0
 37 35  1  0  0  0  0
 38 35  1  0  0  0  0
 38 40  1  0  0  0  0
 39 38  1  0  0  0  0
 41 43  1  0  0  0  0
 41 38  1  0  0  0  0
 42 41  1  0  0  0  0
 44 41  1  0  0  0  0
 44 46  1  0  0  0  0
 45 44  1  0  0  0  0
 47 44  1  0  0  0  0
 48  1  1  0  0  0  0
 48 49  1  0  0  0  0
 49 58  2  0  0  0  0
 49 50  1  0  0  0  0
 50 52  2  0  0  0  0
 51 50  1  0  0  0  0
 52 54  1  0  0  0  0
 52 53  1  0  0  0  0
 54 55  1  0  0  0  0
 56 57  1  0  0  0  0
 56 54  2  0  0  0  0
 58 56  1  0  0  0  0
 59 58  1  0  0  0  0
 60 59  1  0  0  0  0
 60 61  1  0  0  0  0
 62 60  2  0  0  0  0
 63 62  1  0  0  0  0
 64 66  2  0  0  0  0
 64 62  1  0  0  0  0
 65 64  1  0  0  0  0
 66 68  1  0  0  0  0
 67 66  1  0  0  0  0
 68 48  1  0  0  0  0
 68 59  2  0  0  0  0
 69 71  1  0  0  0  0
 69 48  1  0  0  0  0
 70 69  1  0  0  0  0
 72 69  1  0  0  0  0
 72 73  1  0  0  0  0
 74 72  1  0  0  0  0
 75 72  1  0  0  0  0
 75 78  1  0  0  0  0
 76 75  1  0  0  0  0
 77 75  1  0  0  0  0
 78 81  1  0  0  0  0
 78 80  1  0  0  0  0
 79 78  1  0  0  0  0
M  END
