2
 OpenBabel05122313113D

 17 17  0  0  1  0  0  0  0  0999 V2000
   -1.0273    1.2730   -0.5881 C   0  0  0  0  0  3  0  0  0  0  0  0
   -1.8023    0.0560   -0.4689 C   0  0  0  0  0  2  0  0  0  0  0  0
   -3.1370   -0.0102   -0.2429 C   0  0  2  0  0  3  0  0  0  0  0  0
   -3.9622    1.2711   -0.2435 C   0  0  0  0  0  0  0  0  0  0  0  0
   -3.1470    2.5517   -0.5102 C   0  0  0  0  0  0  0  0  0  0  0  0
   -1.7141    2.4656    0.0640 C   0  0  0  0  0  0  0  0  0  0  0  0
   -3.8749   -1.2745    0.1084 C   0  0  0  0  0  0  0  0  0  0  0  0
   -0.7199    1.5132   -1.6294 H   0  0  0  0  0  0  0  0  0  0  0  0
   -4.8039    1.1989   -0.9710 H   0  0  0  0  0  0  0  0  0  0  0  0
   -4.4622    1.3438    0.7532 H   0  0  0  0  0  0  0  0  0  0  0  0
   -3.0610    2.7139   -1.6068 H   0  0  0  0  0  0  0  0  0  0  0  0
   -3.6893    3.4342   -0.1061 H   0  0  0  0  0  0  0  0  0  0  0  0
   -1.1811    3.4267   -0.1144 H   0  0  0  0  0  0  0  0  0  0  0  0
   -1.7712    2.3288    1.1682 H   0  0  0  0  0  0  0  0  0  0  0  0
   -4.7203   -1.4620   -0.5915 H   0  0  0  0  0  0  0  0  0  0  0  0
   -4.3353   -1.2262    1.1241 H   0  0  0  0  0  0  0  0  0  0  0  0
   -3.2018   -2.1542    0.0746 H   0  0  0  0  0  0  0  0  0  0  0  0
  1  2  1  0  0  0  0
  1  6  1  0  0  0  0
  2  3  1  0  0  0  0
  3  7  1  1  0  0  0
  4  3  1  0  0  0  0
  4 10  1  0  0  0  0
  5  4  1  0  0  0  0
  5 12  1  0  0  0  0
  5  6  1  0  0  0  0
  6 14  1  0  0  0  0
  7 16  1  0  0  0  0
  8  1  1  0  0  0  0
  9  4  1  0  0  0  0
 11  5  1  0  0  0  0
 13  6  1  0  0  0  0
 15  7  1  0  0  0  0
 17  7  1  0  0  0  0
M  END
