23
 OpenBabel05122313113D

 25 25  0  0  0  0  0  0  0  0999 V2000
    1.8171   -0.8869    0.3317 N   0  0  0  0  0  0  0  0  0  0  0  0
    3.1052   -0.5994   -0.3278 C   0  0  0  0  0  0  0  0  0  0  0  0
    3.0227   -0.8919   -1.3934 H   0  0  0  0  0  0  0  0  0  0  0  0
    3.9009   -1.2498    0.1245 H   0  0  0  0  0  0  0  0  0  0  0  0
    3.5202    0.8673   -0.2197 C   0  0  0  0  0  0  0  0  0  0  0  0
    4.5232    0.9881   -0.6783 H   0  0  0  0  0  0  0  0  0  0  0  0
    2.8154    1.4817   -0.8147 H   0  0  0  0  0  0  0  0  0  0  0  0
    3.5178    1.3483    1.2342 C   0  0  0  0  0  0  0  0  0  0  0  0
    3.7287    2.4364    1.2883 H   0  0  0  0  0  0  0  0  0  0  0  0
    4.3302    0.8381    1.7994 H   0  0  0  0  0  0  0  0  0  0  0  0
    2.1709    1.0199    1.8859 C   0  0  0  0  0  0  0  0  0  0  0  0
    1.3668    1.6086    1.3940 H   0  0  0  0  0  0  0  0  0  0  0  0
    2.1669    1.2924    2.9616 H   0  0  0  0  0  0  0  0  0  0  0  0
    1.8497   -0.4660    1.7396 C   0  0  0  0  0  0  0  0  0  0  0  0
    2.6123   -1.0660    2.3047 H   0  0  0  0  0  0  0  0  0  0  0  0
    0.8649   -0.7051    2.1907 H   0  0  0  0  0  0  0  0  0  0  0  0
    1.4901   -2.3215    0.2184 C   0  0  0  0  0  0  0  0  0  0  0  0
    0.6665   -2.5255    0.9365 H   0  0  0  0  0  0  0  0  0  0  0  0
    2.3642   -2.9380    0.5501 H   0  0  0  0  0  0  0  0  0  0  0  0
    1.0215   -2.7191   -1.1847 C   0  0  0  0  0  0  0  0  0  0  0  0
    0.8747   -3.8249   -1.1814 H   0  0  0  0  0  0  0  0  0  0  0  0
    1.8465   -2.5452   -1.9108 H   0  0  0  0  0  0  0  0  0  0  0  0
   -0.2331   -1.9401   -1.5916 C   0  0  0  0  0  3  0  0  0  0  0  0
   -1.1120   -2.3876   -1.0766 H   0  0  0  0  0  0  0  0  0  0  0  0
   -0.4331   -2.0594   -2.6783 H   0  0  0  0  0  0  0  0  0  0  0  0
  1 14  1  0  0  0  0
  2  5  1  0  0  0  0
  2  4  1  0  0  0  0
  2  1  1  0  0  0  0
  3  2  1  0  0  0  0
  5  8  1  0  0  0  0
  6  5  1  0  0  0  0
  7  5  1  0  0  0  0
  8  9  1  0  0  0  0
  8 10  1  0  0  0  0
  8 11  1  0  0  0  0
 11 13  1  0  0  0  0
 12 11  1  0  0  0  0
 14 11  1  0  0  0  0
 14 16  1  0  0  0  0
 14 15  1  0  0  0  0
 17  1  1  0  0  0  0
 17 19  1  0  0  0  0
 17 18  1  0  0  0  0
 20 21  1  0  0  0  0
 20 17  1  0  0  0  0
 22 20  1  0  0  0  0
 23 20  1  0  0  0  0
 23 24  1  0  0  0  0
 25 23  1  0  0  0  0
M  END
