5
 OpenBabel05122313113D

 41 43  0  0  1  0  0  0  0  0999 V2000
   -0.4609   -2.0966    0.8725 S   0  0  0  0  0  0  0  0  0  0  0  0
    2.5372    2.7560   -0.7879 O   0  0  0  0  0  0  0  0  0  0  0  0
    0.4387   -0.7011    0.2165 C   0  0  2  0  0  3  0  0  0  0  0  0
    0.1683   -0.1115   -1.0346 C   0  0  0  0  0  3  0  0  0  0  0  0
    0.8829    1.0609   -1.4641 C   0  0  0  0  0  3  0  0  0  0  0  0
    1.8272    1.6263   -0.5499 C   0  0  2  0  0  3  0  0  0  0  0  0
    1.9452    1.0402    0.7433 C   0  0  0  0  0  3  0  0  0  0  0  0
    1.7977   -0.4590    0.8856 C   0  0  2  0  0  0  0  0  0  0  0  0
    2.1937    3.5505   -1.9169 C   0  0  0  0  0  0  0  0  0  0  0  0
   -2.1065   -1.8495    0.2227 C   0  0  0  0  0  0  0  0  0  0  0  0
   -3.0689   -1.2040    1.0229 C   0  0  0  0  0  0  0  0  0  0  0  0
   -4.3600   -0.9950    0.5257 C   0  0  0  0  0  0  0  0  0  0  0  0
   -4.7224   -1.4153   -0.7713 C   0  0  0  0  0  0  0  0  0  0  0  0
   -3.7554   -2.0852   -1.5479 C   0  0  0  0  0  0  0  0  0  0  0  0
   -2.4606   -2.3109   -1.0587 C   0  0  0  0  0  0  0  0  0  0  0  0
    2.9263   -1.3393    0.3509 C   0  0  0  0  0  0  0  0  0  0  0  0
    2.9760   -2.7006    0.7181 C   0  0  0  0  0  0  0  0  0  0  0  0
    3.9788   -3.5440    0.2214 C   0  0  0  0  0  0  0  0  0  0  0  0
    4.9612   -3.0362   -0.6448 C   0  0  0  0  0  0  0  0  0  0  0  0
    4.9311   -1.6809   -1.0041 C   0  0  0  0  0  0  0  0  0  0  0  0
    3.9207   -0.8393   -0.5111 C   0  0  0  0  0  0  0  0  0  0  0  0
   -6.0961   -1.1237   -1.3161 C   0  0  0  0  0  0  0  0  0  0  0  0
   -0.6594   -0.4842   -1.6558 H   0  0  0  0  0  0  0  0  0  0  0  0
    0.6886    1.4911   -2.4530 H   0  0  0  0  0  0  0  0  0  0  0  0
    2.5492    1.6005    1.4723 H   0  0  0  0  0  0  0  0  0  0  0  0
    1.6686   -0.6893    1.9639 H   0  0  0  0  0  0  0  0  0  0  0  0
    2.8334    4.4502   -1.8676 H   0  0  0  0  0  0  0  0  0  0  0  0
    1.1272    3.8600   -1.8847 H   0  0  0  0  0  0  0  0  0  0  0  0
    2.3951    3.0155   -2.8704 H   0  0  0  0  0  0  0  0  0  0  0  0
   -2.7901   -0.8562    2.0282 H   0  0  0  0  0  0  0  0  0  0  0  0
   -5.1024   -0.4780    1.1536 H   0  0  0  0  0  0  0  0  0  0  0  0
   -4.0231   -2.4405   -2.5556 H   0  0  0  0  0  0  0  0  0  0  0  0
   -1.7175   -2.8491   -1.6663 H   0  0  0  0  0  0  0  0  0  0  0  0
    2.2135   -3.1054    1.4025 H   0  0  0  0  0  0  0  0  0  0  0  0
    3.9981   -4.6040    0.5178 H   0  0  0  0  0  0  0  0  0  0  0  0
    5.7524   -3.6957   -1.0328 H   0  0  0  0  0  0  0  0  0  0  0  0
    5.7030   -1.2705   -1.6733 H   0  0  0  0  0  0  0  0  0  0  0  0
    3.9164    0.2236   -0.7929 H   0  0  0  0  0  0  0  0  0  0  0  0
   -6.3351   -1.7560   -2.1930 H   0  0  0  0  0  0  0  0  0  0  0  0
   -6.8813   -1.2791   -0.5493 H   0  0  0  0  0  0  0  0  0  0  0  0
   -6.1658   -0.0629   -1.6397 H   0  0  0  0  0  0  0  0  0  0  0  0
  3  1  1  6  0  0  0
  3  8  1  0  0  0  0
  4  3  1  0  0  0  0
  5  4  1  0  0  0  0
  5  6  1  0  0  0  0
  6  2  1  1  0  0  0
  6  7  1  0  0  0  0
  7  8  1  0  0  0  0
  7 25  1  0  0  0  0
  8 26  1  1  0  0  0
  9 28  1  0  0  0  0
  9 27  1  0  0  0  0
  9  2  1  0  0  0  0
 10  1  1  0  0  0  0
 10 11  1  0  0  0  0
 11 30  1  0  0  0  0
 12 11  2  0  0  0  0
 12 31  1  0  0  0  0
 13 12  1  0  0  0  0
 14 15  1  0  0  0  0
 14 13  2  0  0  0  0
 15 10  2  0  0  0  0
 16 17  1  0  0  0  0
 16  8  1  0  0  0  0
 17 34  1  0  0  0  0
 18 35  1  0  0  0  0
 18 17  2  0  0  0  0
 19 18  1  0  0  0  0
 20 19  2  0  0  0  0
 20 21  1  0  0  0  0
 21 16  2  0  0  0  0
 22 13  1  0  0  0  0
 22 40  1  0  0  0  0
 23  4  1  0  0  0  0
 24  5  1  0  0  0  0
 29  9  1  0  0  0  0
 32 14  1  0  0  0  0
 33 15  1  0  0  0  0
 36 19  1  0  0  0  0
 37 20  1  0  0  0  0
 38 21  1  0  0  0  0
 39 22  1  0  0  0  0
 41 22  1  0  0  0  0
M  END
