5
 OpenBabel05122313113D

 33 34  0  0  1  0  0  0  0  0999 V2000
   -1.8163   -1.4413    0.5135 S   0  0  0  0  0  0  0  0  0  0  0  0
    4.7500   -0.9917   -0.5501 O   0  0  0  0  0  0  0  0  0  0  0  0
    0.5864   -0.8984   -0.7349 C   0  0  2  0  0  3  0  0  0  0  0  0
   -1.3414    0.3002   -1.4879 O   0  0  0  0  0  0  0  0  0  0  0  0
    1.3767   -0.3560   -1.7907 C   0  0  0  0  0  3  0  0  0  0  0  0
    2.7942   -0.4448   -1.7453 C   0  0  0  0  0  0  0  0  0  0  0  0
    3.4001   -1.0509   -0.5879 C   0  0  0  0  0  0  0  0  0  0  0  0
    2.5586   -1.5090    0.4565 C   0  0  0  0  0  3  0  0  0  0  0  0
    1.1732   -2.0199    0.1053 C   0  0  0  0  0  0  0  0  0  0  0  0
   -3.4275   -0.7177    0.2953 C   0  0  0  0  0  0  0  0  0  0  0  0
   -4.5242   -1.5633    0.0539 C   0  0  0  0  0  0  0  0  0  0  0  0
   -5.8127   -1.0215   -0.0615 C   0  0  0  0  0  0  0  0  0  0  0  0
   -6.0335    0.3654    0.0423 C   0  0  0  0  0  0  0  0  0  0  0  0
   -4.9177    1.1981    0.2783 C   0  0  0  0  0  0  0  0  0  0  0  0
   -3.6291    0.6718    0.4128 C   0  0  0  0  0  0  0  0  0  0  0  0
   -7.4134    0.9550   -0.1016 C   0  0  0  0  0  0  0  0  0  0  0  0
    5.4141   -1.3833    0.6448 C   0  0  0  0  0  0  0  0  0  0  0  0
   -0.8519   -0.5291   -0.7406 C   0  0  0  0  0  0  0  0  0  0  0  0
    0.8761    0.2197   -2.5834 H   0  0  0  0  0  0  0  0  0  0  0  0
    3.4361   -0.0272   -2.5313 H   0  0  0  0  0  0  0  0  0  0  0  0
    3.0150   -1.8205    1.4060 H   0  0  0  0  0  0  0  0  0  0  0  0
    0.5861   -2.1436    1.0356 H   0  0  0  0  0  0  0  0  0  0  0  0
    1.1733   -3.0071   -0.4163 H   0  0  0  0  0  0  0  0  0  0  0  0
   -4.3646   -2.6473   -0.0457 H   0  0  0  0  0  0  0  0  0  0  0  0
   -6.6661   -1.6931   -0.2456 H   0  0  0  0  0  0  0  0  0  0  0  0
   -5.0643    2.2865    0.3661 H   0  0  0  0  0  0  0  0  0  0  0  0
   -2.7754    1.3359    0.6065 H   0  0  0  0  0  0  0  0  0  0  0  0
   -7.6732    1.5925    0.7687 H   0  0  0  0  0  0  0  0  0  0  0  0
   -8.1876    0.1690   -0.1926 H   0  0  0  0  0  0  0  0  0  0  0  0
   -7.4805    1.6012   -1.0022 H   0  0  0  0  0  0  0  0  0  0  0  0
    6.4958   -1.3027    0.4350 H   0  0  0  0  0  0  0  0  0  0  0  0
    5.1705   -2.4308    0.9252 H   0  0  0  0  0  0  0  0  0  0  0  0
    5.1583   -0.7060    1.4877 H   0  0  0  0  0  0  0  0  0  0  0  0
  2 17  1  0  0  0  0
  3 18  1  6  0  0  0
  3  9  1  0  0  0  0
  4 18  2  0  0  0  0
  5  6  1  0  0  0  0
  5  3  1  0  0  0  0
  6  7  2  0  0  0  0
  7  2  1  0  0  0  0
  7  8  1  0  0  0  0
  8 21  1  0  0  0  0
  9  8  1  0  0  0  0
  9 22  1  0  0  0  0
 10 15  1  0  0  0  0
 10  1  1  0  0  0  0
 11 10  2  0  0  0  0
 12 13  2  0  0  0  0
 12 11  1  0  0  0  0
 13 14  1  0  0  0  0
 14 26  1  0  0  0  0
 14 15  2  0  0  0  0
 15 27  1  0  0  0  0
 16 13  1  0  0  0  0
 16 28  1  0  0  0  0
 17 32  1  0  0  0  0
 17 33  1  0  0  0  0
 18  1  1  0  0  0  0
 19  5  1  0  0  0  0
 20  6  1  0  0  0  0
 23  9  1  0  0  0  0
 24 11  1  0  0  0  0
 25 12  1  0  0  0  0
 29 16  1  0  0  0  0
 30 16  1  0  0  0  0
 31 17  1  0  0  0  0
M  END
