1
 OpenBabel05122313113D

 74 78  0  0  1  0  0  0  0  0999 V2000
    1.0885   -0.4848    2.1298 C   0  0  1  0  0  3  0  0  0  0  0  0
    0.7826   -1.8992    2.2183 C   0  0  2  0  0  3  0  0  0  0  0  0
   -0.6398   -2.0159    2.5227 C   0  0  0  0  0  0  0  0  0  0  0  0
   -1.2040   -0.6998    2.6073 C   0  0  0  0  0  0  0  0  0  0  0  0
   -0.1377    0.2665    2.3503 C   0  0  1  0  0  3  0  0  0  0  0  0
    1.7265   -3.0523    2.1143 C   0  0  0  0  0  0  0  0  0  0  0  0
    1.9770   -3.4465    3.1220 H   0  0  0  0  0  0  0  0  0  0  0  0
    2.6723   -2.7728    1.6138 H   0  0  0  0  0  0  0  0  0  0  0  0
    1.2731   -3.8781    1.5326 H   0  0  0  0  0  0  0  0  0  0  0  0
   -1.3505   -3.3154    2.6986 C   0  0  0  0  0  0  0  0  0  0  0  0
   -0.9049   -3.8862    3.5393 H   0  0  0  0  0  0  0  0  0  0  0  0
   -1.2564   -3.9361    1.7831 H   0  0  0  0  0  0  0  0  0  0  0  0
   -2.4258   -3.1739    2.9110 H   0  0  0  0  0  0  0  0  0  0  0  0
   -2.6007   -0.3506    3.0080 C   0  0  0  0  0  0  0  0  0  0  0  0
   -2.6481   -0.1666    4.1025 H   0  0  0  0  0  0  0  0  0  0  0  0
   -3.3144   -1.1615    2.7734 H   0  0  0  0  0  0  0  0  0  0  0  0
   -2.9506    0.5701    2.5051 H   0  0  0  0  0  0  0  0  0  0  0  0
   -0.2507    1.7474    2.5193 C   0  0  0  0  0  0  0  0  0  0  0  0
    0.1800    2.0509    3.4973 H   0  0  0  0  0  0  0  0  0  0  0  0
   -1.3032    2.0822    2.4921 H   0  0  0  0  0  0  0  0  0  0  0  0
    0.2916    2.3008    1.7321 H   0  0  0  0  0  0  0  0  0  0  0  0
    2.4569    0.1037    1.8947 C   0  0  0  0  0  0  0  0  0  0  0  0
    3.1400   -0.7061    1.5634 H   0  0  0  0  0  0  0  0  0  0  0  0
    2.8566    0.4704    2.8611 H   0  0  0  0  0  0  0  0  0  0  0  0
    1.3194   -0.4633   -0.9915 P   0  0  1  0  0  0  0  0  0  0  0  0
    2.0790    1.1318   -0.4520 C   0  0  0  0  0  0  0  0  0  0  0  0
    2.5154    1.2443    0.8986 C   0  0  0  0  0  0  0  0  0  0  0  0
    3.0113    2.5046    1.2839 C   0  0  0  0  0  0  0  0  0  0  0  0
    3.4228    2.6718    2.5459 F   0  0  0  0  0  0  0  0  0  0  0  0
    3.0809    3.5731    0.5073 N   0  0  0  0  0  0  0  0  0  0  0  0
    2.6787    3.4648   -0.7383 C   0  0  0  0  0  0  0  0  0  0  0  0
    2.7135    4.5432   -1.5125 F   0  0  0  0  0  0  0  0  0  0  0  0
    2.1886    2.2576   -1.2786 C   0  0  0  0  0  0  0  0  0  0  0  0
    1.7875    2.2433   -2.5619 F   0  0  0  0  0  0  0  0  0  0  0  0
    0.4860   -0.3419   -2.6383 C   0  0  0  0  0  0  0  0  0  0  0  0
    1.1666    0.0768   -3.4024 H   0  0  0  0  0  0  0  0  0  0  0  0
    0.3164   -1.4151   -2.8654 H   0  0  0  0  0  0  0  0  0  0  0  0
   -0.8484    0.4054   -2.5562 C   0  0  0  0  0  0  0  0  0  0  0  0
   -1.5533    0.0218   -3.3191 H   0  0  0  0  0  0  0  0  0  0  0  0
   -0.7111    1.4863   -2.7484 H   0  0  0  0  0  0  0  0  0  0  0  0
   -1.6943    0.2284   -0.8835 P   0  0  0  0  0  0  0  0  0  0  0  0
   -3.3589   -0.4652   -1.1877 C   0  0  0  0  0  0  0  0  0  0  0  0
   -4.1779    0.1123   -2.1819 C   0  0  0  0  0  0  0  0  0  0  0  0
   -3.8097    0.9500   -2.7949 H   0  0  0  0  0  0  0  0  0  0  0  0
   -5.4792   -0.3687   -2.3806 C   0  0  0  0  0  0  0  0  0  0  0  0
   -6.1138    0.0801   -3.1591 H   0  0  0  0  0  0  0  0  0  0  0  0
   -5.9720   -1.4159   -1.5839 C   0  0  0  0  0  0  0  0  0  0  0  0
   -6.9943   -1.7909   -1.7418 H   0  0  0  0  0  0  0  0  0  0  0  0
   -5.1615   -1.9848   -0.5897 C   0  0  0  0  0  0  0  0  0  0  0  0
   -5.5445   -2.8094    0.0297 H   0  0  0  0  0  0  0  0  0  0  0  0
   -3.8546   -1.5142   -0.3909 C   0  0  0  0  0  0  0  0  0  0  0  0
   -3.2020   -1.9763    0.3628 H   0  0  0  0  0  0  0  0  0  0  0  0
    2.7628   -1.5619   -1.2081 C   0  0  0  0  0  0  0  0  0  0  0  0
    4.0759   -1.0429   -1.2415 C   0  0  0  0  0  0  0  0  0  0  0  0
    4.2555    0.0366   -1.1304 H   0  0  0  0  0  0  0  0  0  0  0  0
    5.1637   -1.9088   -1.4249 C   0  0  0  0  0  0  0  0  0  0  0  0
    6.1846   -1.4999   -1.4530 H   0  0  0  0  0  0  0  0  0  0  0  0
    4.9503   -3.2879   -1.5770 C   0  0  0  0  0  0  0  0  0  0  0  0
    5.8067   -3.9634   -1.7218 H   0  0  0  0  0  0  0  0  0  0  0  0
    3.6444   -3.8040   -1.5449 C   0  0  0  0  0  0  0  0  0  0  0  0
    3.4744   -4.8845   -1.6638 H   0  0  0  0  0  0  0  0  0  0  0  0
    2.5485   -2.9506   -1.3573 C   0  0  0  0  0  0  0  0  0  0  0  0
    1.5237   -3.3522   -1.3138 H   0  0  0  0  0  0  0  0  0  0  0  0
   -2.0597    1.9502   -0.3577 C   0  0  0  0  0  0  0  0  0  0  0  0
   -3.2372    2.2213    0.3736 C   0  0  0  0  0  0  0  0  0  0  0  0
   -3.9820    1.4268    0.5298 H   0  0  0  0  0  0  0  0  0  0  0  0
   -3.4751    3.5092    0.8771 C   0  0  0  0  0  0  0  0  0  0  0  0
   -4.3996    3.7108    1.4387 H   0  0  0  0  0  0  0  0  0  0  0  0
   -2.5484    4.5406    0.6535 C   0  0  0  0  0  0  0  0  0  0  0  0
   -2.7405    5.5504    1.0455 H   0  0  0  0  0  0  0  0  0  0  0  0
   -1.3853    4.2828   -0.0892 C   0  0  0  0  0  0  0  0  0  0  0  0
   -0.6628    5.0891   -0.2867 H   0  0  0  0  0  0  0  0  0  0  0  0
   -1.1412    2.9956   -0.5894 C   0  0  0  0  0  0  0  0  0  0  0  0
   -0.2304    2.8187   -1.1759 H   0  0  0  0  0  0  0  0  0  0  0  0
  1 22  1  1  0  0  0
  1  2  1  0  0  0  0
  1  5  1  0  0  0  0
  2  6  1  1  0  0  0
  2  3  1  0  0  0  0
  3  4  2  0  0  0  0
  3 10  1  0  0  0  0
  4 14  1  0  0  0  0
  5 18  1  1  0  0  0
  5  4  1  0  0  0  0
  6  7  1  0  0  0  0
  8  6  1  0  0  0  0
  9  6  1  0  0  0  0
 10 13  1  0  0  0  0
 10 11  1  0  0  0  0
 12 10  1  0  0  0  0
 14 15  1  0  0  0  0
 16 14  1  0  0  0  0
 17 14  1  0  0  0  0
 18 19  1  0  0  0  0
 20 18  1  0  0  0  0
 21 18  1  0  0  0  0
 22 24  1  0  0  0  0
 23 22  1  0  0  0  0
 25 35  1  6  0  0  0
 25 26  1  0  0  0  0
 26 27  1  0  0  0  0
 27 28  2  0  0  0  0
 27 22  1  0  0  0  0
 28 29  1  0  0  0  0
 30 28  1  0  0  0  0
 31 30  2  0  0  0  0
 32 31  1  0  0  0  0
 33 31  1  0  0  0  0
 33 26  2  0  0  0  0
 34 33  1  0  0  0  0
 35 38  1  0  0  0  0
 36 35  1  0  0  0  0
 37 35  1  0  0  0  0
 38 41  1  0  0  0  0
 39 38  1  0  0  0  0
 40 38  1  0  0  0  0
 41 64  1  0  0  0  0
 42 41  1  0  0  0  0
 42 51  1  0  0  0  0
 43 42  2  0  0  0  0
 44 43  1  0  0  0  0
 45 43  1  0  0  0  0
 45 47  2  0  0  0  0
 46 45  1  0  0  0  0
 47 49  1  0  0  0  0
 48 47  1  0  0  0  0
 49 51  2  0  0  0  0
 49 50  1  0  0  0  0
 51 52  1  0  0  0  0
 53 25  1  0  0  0  0
 54 53  1  0  0  0  0
 54 55  1  0  0  0  0
 56 54  2  0  0  0  0
 57 56  1  0  0  0  0
 58 60  2  0  0  0  0
 58 56  1  0  0  0  0
 59 58  1  0  0  0  0
 60 62  1  0  0  0  0
 61 60  1  0  0  0  0
 62 63  1  0  0  0  0
 62 53  2  0  0  0  0
 64 65  1  0  0  0  0
 65 66  1  0  0  0  0
 65 67  2  0  0  0  0
 67 68  1  0  0  0  0
 69 67  1  0  0  0  0
 69 70  1  0  0  0  0
 71 69  2  0  0  0  0
 72 71  1  0  0  0  0
 73 64  2  0  0  0  0
 73 71  1  0  0  0  0
 74 73  1  0  0  0  0
M  END
