4
 OpenBabel05122313113D

 28 27  0  0  1  0  0  0  0  0999 V2000
    3.2811    0.5087    2.1943 C   0  0  0  0  0  0  0  0  0  0  0  0
    1.8807    0.6285    1.6556 C   0  0  0  0  0  3  0  0  0  0  0  0
    1.4971    1.7126    0.8012 C   0  0  0  0  0  3  0  0  0  0  0  0
    0.2172    1.6578    0.1762 C   0  0  0  0  0  3  0  0  0  0  0  0
   -0.6041    0.5105    0.4497 C   0  0  0  0  0  3  0  0  0  0  0  0
   -1.8983    0.3061   -0.3051 C   0  0  1  0  0  0  0  0  0  0  0  0
   -2.3945   -1.1592   -0.2996 C   0  0  2  0  0  0  0  0  0  0  0  0
   -3.6119   -1.3245   -1.2224 C   0  0  0  0  0  0  0  0  0  0  0  0
   -2.7047   -1.6255    1.1013 C   0  0  0  0  0  0  0  0  0  0  0  0
   -2.0903   -2.6361    1.7401 C   0  0  0  0  0  0  0  0  0  0  0  0
   -2.9844    1.1389    0.2936 N   0  0  0  0  0  0  0  0  0  0  0  0
   -2.8559    2.3609    0.2839 N   0  0  0  0  0  4  0  0  0  0  0  0
   -2.8461    3.5140    0.3347 N   0  0  0  0  0  2  0  0  0  0  0  0
    4.0369    0.9187    1.4960 H   0  0  0  0  0  0  0  0  0  0  0  0
    3.3755    1.0563    3.1577 H   0  0  0  0  0  0  0  0  0  0  0  0
    3.5452   -0.5478    2.3984 H   0  0  0  0  0  0  0  0  0  0  0  0
    1.1020    0.1994    2.3083 H   0  0  0  0  0  0  0  0  0  0  0  0
    2.2122    2.5032    0.5213 H   0  0  0  0  0  0  0  0  0  0  0  0
   -0.0602    2.4116   -0.5776 H   0  0  0  0  0  0  0  0  0  0  0  0
   -0.6457    0.1189    1.4803 H   0  0  0  0  0  0  0  0  0  0  0  0
   -1.7676    0.6228   -1.3652 H   0  0  0  0  0  0  0  0  0  0  0  0
   -1.5540   -1.7649   -0.6985 H   0  0  0  0  0  0  0  0  0  0  0  0
   -3.9496   -2.3788   -1.2406 H   0  0  0  0  0  0  0  0  0  0  0  0
   -3.3651   -1.0209   -2.2605 H   0  0  0  0  0  0  0  0  0  0  0  0
   -4.4554   -0.6957   -0.8729 H   0  0  0  0  0  0  0  0  0  0  0  0
   -3.5164   -1.0718    1.6073 H   0  0  0  0  0  0  0  0  0  0  0  0
   -1.2728   -3.2067    1.2697 H   0  0  0  0  0  0  0  0  0  0  0  0
   -2.3847   -2.9315    2.7596 H   0  0  0  0  0  0  0  0  0  0  0  0
  1 16  1  0  0  0  0
  1 15  1  0  0  0  0
  2  1  1  0  0  0  0
  2 17  1  0  0  0  0
  3  2  1  0  0  0  0
  4  5  1  0  0  0  0
  4  3  1  0  0  0  0
  5 20  1  0  0  0  0
  6 21  1  6  0  0  0
  6  7  1  0  0  0  0
  6 11  1  0  0  0  0
  6  5  1  0  0  0  0
  7 22  1  6  0  0  0
  7  9  1  0  0  0  0
  8 25  1  0  0  0  0
  8  7  1  0  0  0  0
  9 26  1  0  0  0  0
  9 10  2  0  0  0  0
 10 28  1  0  0  0  0
 12 11  2  0  0  0  0
 12 13  2  0  0  0  0
 14  1  1  0  0  0  0
 18  3  1  0  0  0  0
 19  4  1  0  0  0  0
 23  8  1  0  0  0  0
 24  8  1  0  0  0  0
 27 10  1  0  0  0  0
M  END
