3
 OpenBabel05122313113D

 27 28  0  0  0  0  0  0  0  0999 V2000
   -4.2190    0.1235   -0.5311 O   0  0  0  0  0  0  0  0  0  0  0  0
   -1.3993    0.1344    0.2492 N   0  0  0  0  0  0  0  0  0  0  0  0
    1.0222    1.3030   -0.1274 C   0  0  0  0  0  3  0  0  0  0  0  0
    0.0284    2.0959    0.4932 C   0  0  0  0  0  0  0  0  0  0  0  0
    0.1449    3.4946    0.5917 C   0  0  0  0  0  0  0  0  0  0  0  0
   -0.6609    4.0830    1.0613 H   0  0  0  0  0  0  0  0  0  0  0  0
    1.2858    4.1368    0.0900 C   0  0  0  0  0  0  0  0  0  0  0  0
    1.3843    5.2305    0.1653 H   0  0  0  0  0  0  0  0  0  0  0  0
    2.2913    3.3716   -0.5235 C   0  0  0  0  0  0  0  0  0  0  0  0
    3.1856    3.8666   -0.9343 H   0  0  0  0  0  0  0  0  0  0  0  0
    2.1563    1.9776   -0.6318 C   0  0  0  0  0  0  0  0  0  0  0  0
    2.9484    1.4003   -1.1340 H   0  0  0  0  0  0  0  0  0  0  0  0
   -1.1579    1.3659    1.0499 C   0  0  0  0  0  0  0  0  0  0  0  0
   -0.9676    1.0399    2.0951 H   0  0  0  0  0  0  0  0  0  0  0  0
   -2.0571    2.0176    1.0890 H   0  0  0  0  0  0  0  0  0  0  0  0
   -2.4323   -0.7310    0.8896 C   0  0  0  0  0  0  0  0  0  0  0  0
   -2.1473   -0.9052    1.9463 H   0  0  0  0  0  0  0  0  0  0  0  0
   -2.4072   -1.7013    0.3570 H   0  0  0  0  0  0  0  0  0  0  0  0
   -3.8412   -0.1387    0.8074 C   0  0  0  0  0  0  0  0  0  0  0  0
   -4.5657   -0.8734    1.2131 H   0  0  0  0  0  0  0  0  0  0  0  0
   -3.9278    0.7895    1.4275 H   0  0  0  0  0  0  0  0  0  0  0  0
   -3.3094    1.0258   -1.1389 C   0  0  0  0  0  0  0  0  0  0  0  0
   -3.3639    2.0276   -0.6433 H   0  0  0  0  0  0  0  0  0  0  0  0
   -3.6364    1.1611   -2.1891 H   0  0  0  0  0  0  0  0  0  0  0  0
   -1.8821    0.4797   -1.1320 C   0  0  0  0  0  0  0  0  0  0  0  0
   -1.8449   -0.4572   -1.7199 H   0  0  0  0  0  0  0  0  0  0  0  0
   -1.1738    1.2038   -1.5795 H   0  0  0  0  0  0  0  0  0  0  0  0
  1 19  1  0  0  0  0
  2 16  1  0  0  0  0
  2 13  1  0  0  0  0
  3  4  1  0  0  0  0
  4  5  2  0  0  0  0
  4 13  1  0  0  0  0
  5  6  1  0  0  0  0
  7  8  1  0  0  0  0
  7  5  1  0  0  0  0
  9  7  2  0  0  0  0
 10  9  1  0  0  0  0
 11  9  1  0  0  0  0
 11  3  2  0  0  0  0
 12 11  1  0  0  0  0
 13 15  1  0  0  0  0
 13 14  1  0  0  0  0
 16 17  1  0  0  0  0
 18 16  1  0  0  0  0
 19 16  1  0  0  0  0
 19 20  1  0  0  0  0
 19 21  1  0  0  0  0
 22 25  1  0  0  0  0
 22 23  1  0  0  0  0
 22  1  1  0  0  0  0
 24 22  1  0  0  0  0
 25  2  1  0  0  0  0
 26 25  1  0  0  0  0
 27 25  1  0  0  0  0
M  END
