8
 OpenBabel05122313113D

 31 32  0  0  1  0  0  0  0  0999 V2000
   -4.3881    0.8486    0.7747 F   0  0  0  0  0  0  0  0  0  0  0  0
   -2.6707    3.0376    0.8176 O   0  0  0  0  0  0  0  0  0  0  0  0
   -2.7844   -2.2996   -0.0213 N   0  0  0  0  0  0  0  0  0  0  0  0
   -3.6298    1.1018   -0.3682 C   0  0  1  0  0  0  0  0  0  0  0  0
   -4.2631    1.6932   -1.0646 H   0  0  0  0  0  0  0  0  0  0  0  0
   -2.3690    1.9043    0.0200 C   0  0  2  0  0  0  0  0  0  0  0  0
   -1.9398    2.2440   -0.9562 H   0  0  0  0  0  0  0  0  0  0  0  0
   -1.3494    1.0692    0.8131 C   0  0  0  0  0  3  0  0  0  0  0  0
   -1.4907   -0.3941    0.8459 C   0  0  0  0  0  3  0  0  0  0  0  0
   -2.4224   -1.0163   -0.0162 C   0  0  2  0  0  3  0  0  0  0  0  0
   -3.2524   -0.2355   -1.0088 C   0  0  1  0  0  0  0  0  0  0  0  0
   -2.6608   -0.0270   -1.9289 H   0  0  0  0  0  0  0  0  0  0  0  0
   -4.4292   -1.1918   -1.3038 C   0  0  0  0  0  0  0  0  0  0  0  0
   -5.2589   -0.9645   -0.6061 H   0  0  0  0  0  0  0  0  0  0  0  0
   -4.8056   -1.1078   -2.3394 H   0  0  0  0  0  0  0  0  0  0  0  0
   -3.8584   -2.5829   -0.9915 C   0  0  0  0  0  0  0  0  0  0  0  0
   -4.5985   -3.2746   -0.5431 H   0  0  0  0  0  0  0  0  0  0  0  0
   -3.4257   -3.0878   -1.8845 H   0  0  0  0  0  0  0  0  0  0  0  0
   -3.5041    4.0057    0.2058 C   0  0  0  0  0  0  0  0  0  0  0  0
   -3.1461    4.2769   -0.8165 H   0  0  0  0  0  0  0  0  0  0  0  0
   -3.4746    4.9090    0.8442 H   0  0  0  0  0  0  0  0  0  0  0  0
   -4.5620    3.6675    0.1341 H   0  0  0  0  0  0  0  0  0  0  0  0
   -2.2763   -3.3312    0.8822 C   0  0  0  0  0  0  0  0  0  0  0  0
   -1.2327   -3.0690    1.1431 H   0  0  0  0  0  0  0  0  0  0  0  0
   -2.2247   -4.2782    0.3072 H   0  0  0  0  0  0  0  0  0  0  0  0
   -3.1396   -3.4893    2.1337 C   0  0  0  0  0  0  0  0  0  0  0  0
   -3.1677   -2.5502    2.7208 H   0  0  0  0  0  0  0  0  0  0  0  0
   -2.7269   -4.2892    2.7788 H   0  0  0  0  0  0  0  0  0  0  0  0
   -4.1820   -3.7668    1.8799 H   0  0  0  0  0  0  0  0  0  0  0  0
   -1.2030    1.5104    1.8126 H   0  0  0  0  0  0  0  0  0  0  0  0
   -1.1913   -0.9379    1.7547 H   0  0  0  0  0  0  0  0  0  0  0  0
  3 10  1  0  0  0  0
  3 23  1  0  0  0  0
  4  5  1  6  0  0  0
  4  6  1  0  0  0  0
  4  1  1  0  0  0  0
  6  7  1  6  0  0  0
  6  8  1  0  0  0  0
  6  2  1  0  0  0  0
  8  9  1  0  0  0  0
  8 30  1  0  0  0  0
  9 31  1  0  0  0  0
 10  9  1  1  0  0  0
 11 12  1  6  0  0  0
 11  4  1  0  0  0  0
 11 10  1  0  0  0  0
 13 11  1  0  0  0  0
 13 16  1  0  0  0  0
 13 14  1  0  0  0  0
 15 13  1  0  0  0  0
 16 17  1  0  0  0  0
 16  3  1  0  0  0  0
 18 16  1  0  0  0  0
 19  2  1  0  0  0  0
 19 21  1  0  0  0  0
 20 19  1  0  0  0  0
 22 19  1  0  0  0  0
 23 24  1  0  0  0  0
 23 26  1  0  0  0  0
 25 23  1  0  0  0  0
 26 27  1  0  0  0  0
 26 28  1  0  0  0  0
 29 26  1  0  0  0  0
M  END
