13
q = -1.0, confidence = 0.004

 37 39  0  0  1  0  0  0  0  0999 V2000
   -5.5585   -1.0634   -1.2860 N   0  0  0  0  0  0  0  0  0  0  0  0
    0.5325    3.7437    0.1054 N   0  0  0  0  0  0  0  0  0  0  0  0
   -2.2675    0.6827   -1.1905 C   0  0  1  0  0  0  0  0  0  0  0  0
   -1.8412    0.1903   -2.0890 H   0  0  0  0  0  0  0  0  0  0  0  0
   -2.3743    2.1837   -1.5309 C   0  0  0  0  0  0  0  0  0  0  0  0
   -2.9227    2.3052   -2.4857 H   0  0  0  0  0  0  0  0  0  0  0  0
   -2.9759    2.6936   -0.7489 H   0  0  0  0  0  0  0  0  0  0  0  0
   -1.0032    2.8694   -1.6401 C   0  0  0  0  0  0  0  0  0  0  0  0
   -0.4203    2.4234   -2.4776 H   0  0  0  0  0  0  0  0  0  0  0  0
   -1.1501    3.9362   -1.8916 H   0  0  0  0  0  0  0  0  0  0  0  0
   -0.2538    2.7421   -0.3359 C   0  0  2  0  0  3  0  0  0  0  0  0
   -0.4769    1.5816    0.4613 C   0  0  0  0  0  3  0  0  0  0  0  0
   -1.3194    0.4712    0.0159 C   0  0  0  0  0  3  0  0  0  0  0  0
   -3.6290    0.0846   -0.9541 C   0  0  0  0  0  0  0  0  0  0  0  0
   -4.3408   -0.7157   -1.8395 C   0  0  0  0  0  0  0  0  0  0  0  0
   -4.0646   -1.0573   -2.8445 H   0  0  0  0  0  0  0  0  0  0  0  0
   -5.6751   -0.4958   -0.0318 C   0  0  0  0  0  0  0  0  0  0  0  0
   -6.7207   -0.5660    0.9058 C   0  0  0  0  0  0  0  0  0  0  0  0
   -7.6363   -1.1402    0.6997 H   0  0  0  0  0  0  0  0  0  0  0  0
   -6.5571    0.1260    2.1094 C   0  0  0  0  0  0  0  0  0  0  0  0
   -7.3576    0.0937    2.8631 H   0  0  0  0  0  0  0  0  0  0  0  0
   -5.3826    0.8741    2.3723 C   0  0  0  0  0  0  0  0  0  0  0  0
   -5.2945    1.4155    3.3261 H   0  0  0  0  0  0  0  0  0  0  0  0
   -4.3439    0.9428    1.4399 C   0  0  0  0  0  0  0  0  0  0  0  0
   -3.4456    1.5413    1.6534 H   0  0  0  0  0  0  0  0  0  0  0  0
   -4.4725    0.2482    0.2123 C   0  0  0  0  0  0  0  0  0  0  0  0
    1.0822    3.7115    1.4616 C   0  0  0  0  0  0  0  0  0  0  0  0
    0.2820    3.8493    2.2187 H   0  0  0  0  0  0  0  0  0  0  0  0
    1.8194    4.5248    1.5734 H   0  0  0  0  0  0  0  0  0  0  0  0
    1.5916    2.7481    1.6539 H   0  0  0  0  0  0  0  0  0  0  0  0
    0.8257    4.9418   -0.6784 C   0  0  0  0  0  0  0  0  0  0  0  0
    0.6939    4.7561   -1.7574 H   0  0  0  0  0  0  0  0  0  0  0  0
    1.8804    5.2321   -0.5094 H   0  0  0  0  0  0  0  0  0  0  0  0
    0.1778    5.7937   -0.3787 H   0  0  0  0  0  0  0  0  0  0  0  0
   -6.2705   -1.6326   -1.7406 H   0  0  0  0  0  0  0  0  0  0  0  0
   -0.2409    1.6463    1.5324 H   0  0  0  0  0  0  0  0  0  0  0  0
   -1.8133   -0.0330    0.8617 H   0  0  0  0  0  0  0  0  0  0  0  0
  1 17  1  0  0  0  0
  2 27  1  0  0  0  0
  3  4  1  6  0  0  0
  3 14  1  0  0  0  0
  3 13  1  0  0  0  0
  5  3  1  0  0  0  0
  5  7  1  0  0  0  0
  6  5  1  0  0  0  0
  8  5  1  0  0  0  0
  8 11  1  0  0  0  0
  9  8  1  0  0  0  0
 10  8  1  0  0  0  0
 11  2  1  1  0  0  0
 11 12  1  0  0  0  0
 12 36  1  0  0  0  0
 13 12  1  0  0  0  0
 13 37  1  0  0  0  0
 14 26  1  0  0  0  0
 15  1  1  0  0  0  0
 15 14  2  0  0  0  0
 16 15  1  0  0  0  0
 17 26  2  0  0  0  0
 17 18  1  0  0  0  0
 18 20  2  0  0  0  0
 19 18  1  0  0  0  0
 20 22  1  0  0  0  0
 20 21  1  0  0  0  0
 22 23  1  0  0  0  0
 24 25  1  0  0  0  0
 24 22  2  0  0  0  0
 26 24  1  0  0  0  0
 27 29  1  0  0  0  0
 27 30  1  0  0  0  0
 27 28  1  0  0  0  0
 31 33  1  0  0  0  0
 31 34  1  0  0  0  0
 31  2  1  0  0  0  0
 32 31  1  0  0  0  0
 35  1  1  0  0  0  0
M  END
