6
q = -1.0, confidence = 0.024

 21 21  0  0  1  0  0  0  0  0999 V2000
    3.7806    0.3122    0.5104 N   0  0  0  0  0  0  0  0  0  0  0  0
    2.9239   -0.7240    0.4248 C   0  0  1  0  0  3  0  0  0  0  0  0
    3.2699   -1.8789   -0.4849 C   0  0  0  0  0  0  0  0  0  0  0  0
    2.4492   -3.1199   -0.2635 C   0  0  0  0  0  0  0  0  0  0  0  0
    1.3438   -3.1319    0.5104 C   0  0  0  0  0  0  0  0  0  0  0  0
    0.8476   -1.9211    1.1902 C   0  0  0  0  0  3  0  0  0  0  0  0
    1.7354   -0.7555    1.2099 C   0  0  0  0  0  3  0  0  0  0  0  0
    3.5761    1.3660    1.5064 C   0  0  0  0  0  0  0  0  0  0  0  0
    5.0005    0.3880   -0.2918 C   0  0  0  0  0  0  0  0  0  0  0  0
    4.3498   -2.1171   -0.3675 H   0  0  0  0  0  0  0  0  0  0  0  0
    3.1620   -1.5629   -1.5527 H   0  0  0  0  0  0  0  0  0  0  0  0
    2.7861   -4.0286   -0.7835 H   0  0  0  0  0  0  0  0  0  0  0  0
    0.7872   -4.0736    0.6404 H   0  0  0  0  0  0  0  0  0  0  0  0
    0.3262   -2.1059    2.1436 H   0  0  0  0  0  0  0  0  0  0  0  0
    1.6634   -0.0718    2.0661 H   0  0  0  0  0  0  0  0  0  0  0  0
    2.5545    1.7846    1.4295 H   0  0  0  0  0  0  0  0  0  0  0  0
    4.2995    2.1791    1.3260 H   0  0  0  0  0  0  0  0  0  0  0  0
    3.7283    0.9772    2.5349 H   0  0  0  0  0  0  0  0  0  0  0  0
    4.8608   -0.0943   -1.2752 H   0  0  0  0  0  0  0  0  0  0  0  0
    5.8605   -0.0941    0.2218 H   0  0  0  0  0  0  0  0  0  0  0  0
    5.2516    1.4505   -0.4657 H   0  0  0  0  0  0  0  0  0  0  0  0
  1  8  1  0  0  0  0
  2  1  1  1  0  0  0
  2  7  1  0  0  0  0
  3 10  1  0  0  0  0
  3  4  1  0  0  0  0
  3  2  1  0  0  0  0
  4  5  2  0  0  0  0
  5 13  1  0  0  0  0
  5  6  1  0  0  0  0
  6  7  1  0  0  0  0
  6 14  1  0  0  0  0
  7 15  1  0  0  0  0
  8 18  1  0  0  0  0
  9 20  1  0  0  0  0
  9  1  1  0  0  0  0
 11  3  1  0  0  0  0
 12  4  1  0  0  0  0
 16  8  1  0  0  0  0
 17  8  1  0  0  0  0
 19  9  1  0  0  0  0
 21  9  1  0  0  0  0
M  END
