2
 OpenBabel05122313113D

 21 21  0  0  1  0  0  0  0  0999 V2000
   -0.3020    1.2294    1.6823 C   0  0  0  0  0  0  0  0  0  0  0  0
    0.1746    0.0000    2.2051 C   0  0  0  0  0  3  0  0  0  0  0  0
   -0.3018   -1.2293    1.6823 C   0  0  0  0  0  0  0  0  0  0  0  0
   -1.2133   -1.2417    0.5835 C   0  0  0  0  0  0  0  0  0  0  0  0
   -1.6872   -0.0001    0.0275 C   0  0  2  0  0  3  0  0  0  0  0  0
   -1.2134    1.2416    0.5835 C   0  0  0  0  0  0  0  0  0  0  0  0
   -1.6952   -2.5663    0.0478 C   0  0  0  0  0  0  0  0  0  0  0  0
   -2.6814   -0.0001   -1.1035 C   0  0  0  0  0  0  0  0  0  0  0  0
   -1.6955    2.5662    0.0478 C   0  0  0  0  0  0  0  0  0  0  0  0
    0.0812    2.1808    2.0746 H   0  0  0  0  0  0  0  0  0  0  0  0
    0.9241    0.0001    3.0091 H   0  0  0  0  0  0  0  0  0  0  0  0
    0.0816   -2.1807    2.0746 H   0  0  0  0  0  0  0  0  0  0  0  0
   -1.1343   -3.4021    0.5058 H   0  0  0  0  0  0  0  0  0  0  0  0
   -2.7723   -2.7087    0.2746 H   0  0  0  0  0  0  0  0  0  0  0  0
   -1.5722   -2.6445   -1.0493 H   0  0  0  0  0  0  0  0  0  0  0  0
   -2.5724   -0.8912   -1.7473 H   0  0  0  0  0  0  0  0  0  0  0  0
   -3.7223   -0.0000   -0.7113 H   0  0  0  0  0  0  0  0  0  0  0  0
   -2.5723    0.8907   -1.7475 H   0  0  0  0  0  0  0  0  0  0  0  0
   -2.7726    2.7084    0.2745 H   0  0  0  0  0  0  0  0  0  0  0  0
   -1.5725    2.6443   -1.0493 H   0  0  0  0  0  0  0  0  0  0  0  0
   -1.1347    3.4021    0.5058 H   0  0  0  0  0  0  0  0  0  0  0  0
  1 10  1  0  0  0  0
  1  2  1  0  0  0  0
  2 11  1  0  0  0  0
  3 12  1  0  0  0  0
  3  2  1  0  0  0  0
  4  3  2  0  0  0  0
  5  8  1  1  0  0  0
  5  4  1  0  0  0  0
  5  6  1  0  0  0  0
  6  1  2  0  0  0  0
  7 14  1  0  0  0  0
  7 13  1  0  0  0  0
  7  4  1  0  0  0  0
  8 17  1  0  0  0  0
  9 19  1  0  0  0  0
  9 21  1  0  0  0  0
  9  6  1  0  0  0  0
 15  7  1  0  0  0  0
 16  8  1  0  0  0  0
 18  8  1  0  0  0  0
 20  9  1  0  0  0  0
M  END
