5
 OpenBabel05122313113D

 78 82  0  0  0  0  0  0  0  0999 V2000
    0.4319   -1.8934   -1.3248 N   0  0  0  0  0  0  0  0  0  0  0  0
    2.3087   -0.8978   -1.7095 N   0  0  0  0  0  0  0  0  0  0  0  0
   -1.5318    2.3814    0.1814 O   0  0  0  0  0  0  0  0  0  0  0  0
   -5.3666   -0.4537   -0.2658 O   0  0  0  0  0  0  0  0  0  0  0  0
    1.5808   -1.4787   -0.7071 C   0  0  0  0  0  2  0  0  0  0  0  0
    1.6310   -0.9452   -2.9238 C   0  0  0  0  0  0  0  0  0  0  0  0
    2.0590   -0.5340   -3.8423 H   0  0  0  0  0  0  0  0  0  0  0  0
    0.4369   -1.5701   -2.6759 C   0  0  0  0  0  0  0  0  0  0  0  0
   -0.4059   -1.7965   -3.3354 H   0  0  0  0  0  0  0  0  0  0  0  0
   -0.7548   -2.3354   -0.5967 C   0  0  0  0  0  0  0  0  0  0  0  0
   -0.3950   -2.7258    0.3788 H   0  0  0  0  0  0  0  0  0  0  0  0
   -1.2289   -3.1729   -1.1460 H   0  0  0  0  0  0  0  0  0  0  0  0
   -1.2428    0.0916   -0.1553 C   0  0  0  0  0  0  0  0  0  0  0  0
   -0.1658    0.2920   -0.0939 H   0  0  0  0  0  0  0  0  0  0  0  0
   -2.1322    1.1741    0.0093 C   0  0  0  0  0  0  0  0  0  0  0  0
   -3.5181    0.9627   -0.0264 C   0  0  0  0  0  0  0  0  0  0  0  0
   -4.2484    1.7714    0.1010 H   0  0  0  0  0  0  0  0  0  0  0  0
   -4.0095   -0.3452   -0.2445 C   0  0  0  0  0  0  0  0  0  0  0  0
   -3.1270   -1.4253   -0.4437 C   0  0  0  0  0  0  0  0  0  0  0  0
   -3.5011   -2.4383   -0.6412 H   0  0  0  0  0  0  0  0  0  0  0  0
   -1.7363   -1.1915   -0.3943 C   0  0  0  0  0  0  0  0  0  0  0  0
    3.5663   -0.2222   -1.5027 C   0  0  0  0  0  0  0  0  0  0  0  0
    3.5374    1.1507   -1.1525 C   0  0  0  0  0  0  0  0  0  0  0  0
    4.7768    1.7902   -0.9638 C   0  0  0  0  0  0  0  0  0  0  0  0
    4.7939    2.8541   -0.6838 H   0  0  0  0  0  0  0  0  0  0  0  0
    5.9816    1.0924   -1.1115 C   0  0  0  0  0  0  0  0  0  0  0  0
    6.9386    1.6125   -0.9539 H   0  0  0  0  0  0  0  0  0  0  0  0
    4.7653   -0.9575   -1.6488 C   0  0  0  0  0  0  0  0  0  0  0  0
    4.7630   -2.4515   -1.9437 C   0  0  0  0  0  0  0  0  0  0  0  0
    3.7306   -2.7354   -2.2338 H   0  0  0  0  0  0  0  0  0  0  0  0
    5.1150   -3.2431   -0.6705 C   0  0  0  0  0  0  0  0  0  0  0  0
    5.0602   -4.3348   -0.8594 H   0  0  0  0  0  0  0  0  0  0  0  0
    4.4211   -2.9996    0.1607 H   0  0  0  0  0  0  0  0  0  0  0  0
    6.1431   -3.0065   -0.3267 H   0  0  0  0  0  0  0  0  0  0  0  0
    5.6856   -2.8203   -3.1158 C   0  0  0  0  0  0  0  0  0  0  0  0
    5.6034   -3.9020   -3.3457 H   0  0  0  0  0  0  0  0  0  0  0  0
    6.7505   -2.6162   -2.8810 H   0  0  0  0  0  0  0  0  0  0  0  0
    5.4281   -2.2525   -4.0326 H   0  0  0  0  0  0  0  0  0  0  0  0
    2.2357    1.9046   -0.9085 C   0  0  0  0  0  0  0  0  0  0  0  0
    1.4026    1.2715   -1.2760 H   0  0  0  0  0  0  0  0  0  0  0  0
    2.0170    2.1214    0.6007 C   0  0  0  0  0  0  0  0  0  0  0  0
    1.0262    2.5829    0.7799 H   0  0  0  0  0  0  0  0  0  0  0  0
    2.7966    2.7890    1.0222 H   0  0  0  0  0  0  0  0  0  0  0  0
    2.0623    1.1624    1.1582 H   0  0  0  0  0  0  0  0  0  0  0  0
    2.1537    3.2332   -1.6763 C   0  0  0  0  0  0  0  0  0  0  0  0
    1.1637    3.7040   -1.5097 H   0  0  0  0  0  0  0  0  0  0  0  0
    2.2937    3.0865   -2.7665 H   0  0  0  0  0  0  0  0  0  0  0  0
    2.9200    3.9570   -1.3298 H   0  0  0  0  0  0  0  0  0  0  0  0
   -2.3302    3.5589    0.3251 C   0  0  0  0  0  0  0  0  0  0  0  0
   -2.9461    3.4836    1.2509 H   0  0  0  0  0  0  0  0  0  0  0  0
   -3.0231    3.6612   -0.5402 H   0  0  0  0  0  0  0  0  0  0  0  0
   -1.3802    4.7266    0.3914 C   0  0  0  0  0  0  0  0  0  0  0  0
   -1.1719    5.5500   -0.7304 C   0  0  0  0  0  0  0  0  0  0  0  0
   -1.7575    5.3746   -1.6469 H   0  0  0  0  0  0  0  0  0  0  0  0
   -0.2226    6.5832   -0.6907 C   0  0  0  0  0  0  0  0  0  0  0  0
   -0.0696    7.2220   -1.5737 H   0  0  0  0  0  0  0  0  0  0  0  0
    0.5345    6.7949    0.4718 C   0  0  0  0  0  0  0  0  0  0  0  0
    1.2823    7.6019    0.5036 H   0  0  0  0  0  0  0  0  0  0  0  0
    0.3348    5.9762    1.5958 C   0  0  0  0  0  0  0  0  0  0  0  0
    0.9269    6.1384    2.5091 H   0  0  0  0  0  0  0  0  0  0  0  0
   -0.6182    4.9492    1.5554 C   0  0  0  0  0  0  0  0  0  0  0  0
   -0.7677    4.3010    2.4330 H   0  0  0  0  0  0  0  0  0  0  0  0
   -5.9481   -1.7368   -0.4418 C   0  0  0  0  0  0  0  0  0  0  0  0
   -5.5662   -2.4332    0.3440 H   0  0  0  0  0  0  0  0  0  0  0  0
   -5.6531   -2.1684   -1.4268 H   0  0  0  0  0  0  0  0  0  0  0  0
   -7.4516   -1.6324   -0.3506 C   0  0  0  0  0  0  0  0  0  0  0  0
   -8.0678   -0.6030    0.3845 C   0  0  0  0  0  0  0  0  0  0  0  0
   -7.4394    0.1629    0.8607 H   0  0  0  0  0  0  0  0  0  0  0  0
   -9.4655   -0.5515    0.4953 C   0  0  0  0  0  0  0  0  0  0  0  0
   -9.9367    0.2610    1.0694 H   0  0  0  0  0  0  0  0  0  0  0  0
  -10.2619   -1.5294   -0.1208 C   0  0  0  0  0  0  0  0  0  0  0  0
  -11.3580   -1.4876   -0.0321 H   0  0  0  0  0  0  0  0  0  0  0  0
   -9.6525   -2.5583   -0.8564 C   0  0  0  0  0  0  0  0  0  0  0  0
  -10.2690   -3.3250   -1.3496 H   0  0  0  0  0  0  0  0  0  0  0  0
   -8.2558   -2.6054   -0.9742 C   0  0  0  0  0  0  0  0  0  0  0  0
   -7.7831   -3.4087   -1.5623 H   0  0  0  0  0  0  0  0  0  0  0  0
    5.9748   -0.2673   -1.4454 C   0  0  0  0  0  0  0  0  0  0  0  0
    6.9275   -0.8093   -1.5413 H   0  0  0  0  0  0  0  0  0  0  0  0
  1  5  1  0  0  0  0
  1 10  1  0  0  0  0
  2 22  1  0  0  0  0
  2  5  1  0  0  0  0
  3 49  1  0  0  0  0
  4 18  1  0  0  0  0
  6  8  2  0  0  0  0
  6  2  1  0  0  0  0
  7  6  1  0  0  0  0
  8  1  1  0  0  0  0
  9  8  1  0  0  0  0
 10 21  1  0  0  0  0
 10 11  1  0  0  0  0
 12 10  1  0  0  0  0
 13 14  1  0  0  0  0
 13 15  1  0  0  0  0
 15  3  1  0  0  0  0
 16 15  2  0  0  0  0
 16 17  1  0  0  0  0
 18 16  1  0  0  0  0
 19 21  1  0  0  0  0
 19 18  2  0  0  0  0
 20 19  1  0  0  0  0
 21 13  2  0  0  0  0
 22 23  1  0  0  0  0
 23 24  2  0  0  0  0
 23 39  1  0  0  0  0
 24 25  1  0  0  0  0
 26 24  1  0  0  0  0
 26 27  1  0  0  0  0
 28 22  2  0  0  0  0
 28 77  1  0  0  0  0
 29 28  1  0  0  0  0
 29 31  1  0  0  0  0
 30 29  1  0  0  0  0
 31 34  1  0  0  0  0
 31 33  1  0  0  0  0
 32 31  1  0  0  0  0
 35 37  1  0  0  0  0
 35 29  1  0  0  0  0
 36 35  1  0  0  0  0
 38 35  1  0  0  0  0
 39 41  1  0  0  0  0
 40 39  1  0  0  0  0
 41 42  1  0  0  0  0
 41 43  1  0  0  0  0
 41 44  1  0  0  0  0
 45 46  1  0  0  0  0
 45 48  1  0  0  0  0
 45 39  1  0  0  0  0
 47 45  1  0  0  0  0
 49 52  1  0  0  0  0
 49 50  1  0  0  0  0
 51 49  1  0  0  0  0
 52 61  1  0  0  0  0
 53 55  1  0  0  0  0
 53 52  2  0  0  0  0
 54 53  1  0  0  0  0
 55 57  2  0  0  0  0
 56 55  1  0  0  0  0
 57 58  1  0  0  0  0
 57 59  1  0  0  0  0
 59 60  1  0  0  0  0
 61 59  2  0  0  0  0
 61 62  1  0  0  0  0
 63 66  1  0  0  0  0
 63  4  1  0  0  0  0
 63 64  1  0  0  0  0
 65 63  1  0  0  0  0
 66 67  1  0  0  0  0
 67 69  2  0  0  0  0
 67 68  1  0  0  0  0
 69 70  1  0  0  0  0
 71 72  1  0  0  0  0
 71 69  1  0  0  0  0
 73 71  2  0  0  0  0
 74 73  1  0  0  0  0
 75 73  1  0  0  0  0
 75 66  2  0  0  0  0
 76 75  1  0  0  0  0
 77 26  2  0  0  0  0
 78 77  1  0  0  0  0
M  END
