6
 OpenBabel05122313113D

 45 48  0  0  0  0  0  0  0  0999 V2000
   -0.7900   -0.4717    0.7050 C   0  0  0  0  0  0  0  0  0  0  0  0
   -0.2012    0.3660    1.6970 C   0  0  0  0  0  0  0  0  0  0  0  0
    0.8423   -0.0588    2.5922 C   0  0  0  0  0  0  0  0  0  0  0  0
    1.3681   -1.3706    2.4678 C   0  0  0  0  0  0  0  0  0  0  0  0
    0.8630   -2.2464    1.4446 C   0  0  0  0  0  3  0  0  0  0  0  0
   -0.1667   -1.7713    0.5815 C   0  0  0  0  0  3  0  0  0  0  0  0
   -2.7727   -1.1131   -1.0689 C   0  0  0  0  0  0  0  0  0  0  0  0
   -2.9054   -2.4380   -0.5740 C   0  0  0  0  0  0  0  0  0  0  0  0
   -3.4668   -3.4793   -1.3283 C   0  0  0  0  0  0  0  0  0  0  0  0
   -3.9556   -3.2257   -2.6202 C   0  0  0  0  0  0  0  0  0  0  0  0
   -3.9051   -1.9156   -3.1164 C   0  0  0  0  0  0  0  0  0  0  0  0
   -3.3300   -0.8859   -2.3501 C   0  0  0  0  0  0  0  0  0  0  0  0
   -3.2828    0.2256    1.1093 C   0  0  0  0  0  0  0  0  0  0  0  0
   -4.4733    0.9301    0.8053 C   0  0  0  0  0  0  0  0  0  0  0  0
   -5.5054    1.0813    1.7408 C   0  0  0  0  0  0  0  0  0  0  0  0
   -5.3850    0.5193    3.0239 C   0  0  0  0  0  0  0  0  0  0  0  0
   -4.2255   -0.1966    3.3493 C   0  0  0  0  0  0  0  0  0  0  0  0
   -3.1947   -0.3382    2.4019 C   0  0  0  0  0  0  0  0  0  0  0  0
   -1.8539    1.5294   -0.7644 C   0  0  0  0  0  0  0  0  0  0  0  0
   -1.5490    1.7683   -2.1297 C   0  0  0  0  0  0  0  0  0  0  0  0
   -1.2534    3.0479   -2.6370 C   0  0  0  0  0  0  0  0  0  0  0  0
   -1.2261    4.1587   -1.7805 C   0  0  0  0  0  0  0  0  0  0  0  0
   -1.5351    3.9702   -0.4230 C   0  0  0  0  0  0  0  0  0  0  0  0
   -1.8572    2.6893    0.0578 C   0  0  0  0  0  0  0  0  0  0  0  0
   -2.1595    0.0508   -0.0899 B   0  0  0  0  0  0  0  0  0  0  0  0
   -0.5760    1.3952    1.7741 H   0  0  0  0  0  0  0  0  0  0  0  0
    1.2497    0.6260    3.3498 H   0  0  0  0  0  0  0  0  0  0  0  0
    2.1829   -1.6959    3.1302 H   0  0  0  0  0  0  0  0  0  0  0  0
    1.2807   -3.2546    1.3107 H   0  0  0  0  0  0  0  0  0  0  0  0
   -0.5137   -2.4334   -0.2245 H   0  0  0  0  0  0  0  0  0  0  0  0
   -2.6164   -2.6545    0.4685 H   0  0  0  0  0  0  0  0  0  0  0  0
   -3.5518   -4.4884   -0.8949 H   0  0  0  0  0  0  0  0  0  0  0  0
   -4.4044   -4.0342   -3.2171 H   0  0  0  0  0  0  0  0  0  0  0  0
   -4.3317   -1.6855   -4.1054 H   0  0  0  0  0  0  0  0  0  0  0  0
   -3.3605    0.1344   -2.7590 H   0  0  0  0  0  0  0  0  0  0  0  0
   -4.5925    1.3716   -0.1976 H   0  0  0  0  0  0  0  0  0  0  0  0
   -6.4148    1.6391    1.4678 H   0  0  0  0  0  0  0  0  0  0  0  0
   -6.1945    0.6345    3.7606 H   0  0  0  0  0  0  0  0  0  0  0  0
   -4.1211   -0.6537    4.3460 H   0  0  0  0  0  0  0  0  0  0  0  0
   -2.3059   -0.9224    2.6942 H   0  0  0  0  0  0  0  0  0  0  0  0
   -1.5652    0.9344   -2.8458 H   0  0  0  0  0  0  0  0  0  0  0  0
   -1.0549    3.1769   -3.7133 H   0  0  0  0  0  0  0  0  0  0  0  0
   -1.0018    5.1633   -2.1704 H   0  0  0  0  0  0  0  0  0  0  0  0
   -1.5601    4.8338    0.2605 H   0  0  0  0  0  0  0  0  0  0  0  0
   -2.1785    2.5899    1.1080 H   0  0  0  0  0  0  0  0  0  0  0  0
  1  2  2  0  0  0  0
  2 26  1  0  0  0  0
  2  3  1  0  0  0  0
  3 27  1  0  0  0  0
  4  3  2  0  0  0  0
  4 28  1  0  0  0  0
  5  4  1  0  0  0  0
  6  1  1  0  0  0  0
  6  5  1  0  0  0  0
  7  8  1  0  0  0  0
  7 25  1  0  0  0  0
  8 31  1  0  0  0  0
  9 32  1  0  0  0  0
  9  8  2  0  0  0  0
 10  9  1  0  0  0  0
 11 10  2  0  0  0  0
 11 12  1  0  0  0  0
 12  7  2  0  0  0  0
 13 18  1  0  0  0  0
 14 13  2  0  0  0  0
 14 15  1  0  0  0  0
 15 16  2  0  0  0  0
 16 17  1  0  0  0  0
 16 38  1  0  0  0  0
 17 39  1  0  0  0  0
 18 40  1  0  0  0  0
 18 17  2  0  0  0  0
 19 25  1  0  0  0  0
 19 24  1  0  0  0  0
 20 19  2  0  0  0  0
 21 20  1  0  0  0  0
 21 22  2  0  0  0  0
 22 23  1  0  0  0  0
 23 24  2  0  0  0  0
 23 44  1  0  0  0  0
 24 45  1  0  0  0  0
 25  1  1  0  0  0  0
 25 13  1  0  0  0  0
 29  5  1  0  0  0  0
 30  6  1  0  0  0  0
 33 10  1  0  0  0  0
 34 11  1  0  0  0  0
 35 12  1  0  0  0  0
 36 14  1  0  0  0  0
 37 15  1  0  0  0  0
 41 20  1  0  0  0  0
 42 21  1  0  0  0  0
 43 22  1  0  0  0  0
M  END
