2
 OpenBabel05122313113D

 60 64  0  0  0  0  0  0  0  0999 V2000
   -0.2576    3.3338   -0.2260 O   0  0  0  0  0  0  0  0  0  0  0  0
   -0.1346    0.5684   -0.9654 C   0  0  0  0  0  3  0  0  0  0  0  0
   -0.2550    0.6997   -2.0628 H   0  0  0  0  0  0  0  0  0  0  0  0
    0.6300    2.0873   -0.3135 P   0  0  0  0  0  0  0  0  0  0  0  0
    1.3439    1.7263    1.3392 C   0  0  0  0  0  0  0  0  0  0  0  0
    2.2750    0.6974    1.5787 C   0  0  0  0  0  0  0  0  0  0  0  0
    2.6035    0.0290    0.7647 H   0  0  0  0  0  0  0  0  0  0  0  0
    2.7779    0.4932    2.8708 C   0  0  0  0  0  0  0  0  0  0  0  0
    3.4937   -0.3235    3.0487 H   0  0  0  0  0  0  0  0  0  0  0  0
    2.3629    1.3234    3.9254 C   0  0  0  0  0  0  0  0  0  0  0  0
    2.7589    1.1627    4.9402 H   0  0  0  0  0  0  0  0  0  0  0  0
    1.4445    2.3583    3.6856 C   0  0  0  0  0  0  0  0  0  0  0  0
    1.1178    3.0090    4.5113 H   0  0  0  0  0  0  0  0  0  0  0  0
    0.9364    2.5641    2.3939 C   0  0  0  0  0  0  0  0  0  0  0  0
    0.2155    3.3662    2.1740 H   0  0  0  0  0  0  0  0  0  0  0  0
    2.0445    2.3501   -1.4494 C   0  0  0  0  0  0  0  0  0  0  0  0
    2.2575    3.6767   -1.8723 C   0  0  0  0  0  0  0  0  0  0  0  0
    1.5613    4.4557   -1.5244 H   0  0  0  0  0  0  0  0  0  0  0  0
    3.3312    3.9751   -2.7244 C   0  0  0  0  0  0  0  0  0  0  0  0
    3.4958    5.0121   -3.0554 H   0  0  0  0  0  0  0  0  0  0  0  0
    4.1922    2.9532   -3.1564 C   0  0  0  0  0  0  0  0  0  0  0  0
    5.0345    3.1889   -3.8249 H   0  0  0  0  0  0  0  0  0  0  0  0
    3.9779    1.6288   -2.7394 C   0  0  0  0  0  0  0  0  0  0  0  0
    4.6473    0.8242   -3.0795 H   0  0  0  0  0  0  0  0  0  0  0  0
    2.9064    1.3249   -1.8874 C   0  0  0  0  0  0  0  0  0  0  0  0
    2.7344    0.2791   -1.5730 H   0  0  0  0  0  0  0  0  0  0  0  0
   -1.6907    0.0655   -0.2649 P   0  0  0  0  0  4  0  0  0  0  0  0
   -1.9953   -1.6880   -0.6691 C   0  0  0  0  0  0  0  0  0  0  0  0
   -1.5788   -2.1924   -1.9197 C   0  0  0  0  0  0  0  0  0  0  0  0
   -1.0556   -1.5419   -2.6364 H   0  0  0  0  0  0  0  0  0  0  0  0
   -1.8058   -3.5363   -2.2390 C   0  0  0  0  0  0  0  0  0  0  0  0
   -1.4643   -3.9303   -3.2073 H   0  0  0  0  0  0  0  0  0  0  0  0
   -2.4431   -4.3825   -1.3161 C   0  0  0  0  0  0  0  0  0  0  0  0
   -2.6012   -5.4431   -1.5625 H   0  0  0  0  0  0  0  0  0  0  0  0
   -2.8686   -3.8795   -0.0778 C   0  0  0  0  0  0  0  0  0  0  0  0
   -3.3632   -4.5419    0.6481 H   0  0  0  0  0  0  0  0  0  0  0  0
   -2.6541   -2.5310    0.2471 C   0  0  0  0  0  0  0  0  0  0  0  0
   -2.9768   -2.1402    1.2235 H   0  0  0  0  0  0  0  0  0  0  0  0
   -3.1490    0.9903   -0.8644 C   0  0  0  0  0  0  0  0  0  0  0  0
   -3.0368    2.3806   -1.0838 C   0  0  0  0  0  0  0  0  0  0  0  0
   -2.0742    2.8963   -0.8937 H   0  0  0  0  0  0  0  0  0  0  0  0
   -4.1611    3.0941   -1.5276 C   0  0  0  0  0  0  0  0  0  0  0  0
   -4.0775    4.1782   -1.6980 H   0  0  0  0  0  0  0  0  0  0  0  0
   -5.3799    2.4360   -1.7576 C   0  0  0  0  0  0  0  0  0  0  0  0
   -6.2544    3.0033   -2.1114 H   0  0  0  0  0  0  0  0  0  0  0  0
   -5.4839    1.0519   -1.5428 C   0  0  0  0  0  0  0  0  0  0  0  0
   -6.4361    0.5324   -1.7282 H   0  0  0  0  0  0  0  0  0  0  0  0
   -4.3715    0.3246   -1.0965 C   0  0  0  0  0  0  0  0  0  0  0  0
   -4.4515   -0.7610   -0.9369 H   0  0  0  0  0  0  0  0  0  0  0  0
   -1.6375    0.2005    1.5455 C   0  0  0  0  0  0  0  0  0  0  0  0
   -0.7458   -0.6286    2.2601 C   0  0  0  0  0  0  0  0  0  0  0  0
   -0.1180   -1.3638    1.7252 H   0  0  0  0  0  0  0  0  0  0  0  0
   -0.6527   -0.5012    3.6509 C   0  0  0  0  0  0  0  0  0  0  0  0
    0.0521   -1.1378    4.2052 H   0  0  0  0  0  0  0  0  0  0  0  0
   -1.4409    0.4449    4.3270 C   0  0  0  0  0  0  0  0  0  0  0  0
   -1.3580    0.5458    5.4198 H   0  0  0  0  0  0  0  0  0  0  0  0
   -2.3267    1.2667    3.6139 C   0  0  0  0  0  0  0  0  0  0  0  0
   -2.9407    2.0104    4.1433 H   0  0  0  0  0  0  0  0  0  0  0  0
   -2.4289    1.1491    2.2197 C   0  0  0  0  0  0  0  0  0  0  0  0
   -3.1145    1.7980    1.6559 H   0  0  0  0  0  0  0  0  0  0  0  0
  2  4  1  0  0  0  0
  2 27  1  0  0  0  0
  3  2  1  0  0  0  0
  4  1  2  0  0  0  0
  4  5  1  0  0  0  0
  5  6  2  0  0  0  0
  5 14  1  0  0  0  0
  6  8  1  0  0  0  0
  7  6  1  0  0  0  0
  8  9  1  0  0  0  0
  8 10  2  0  0  0  0
 10 11  1  0  0  0  0
 12 10  1  0  0  0  0
 12 13  1  0  0  0  0
 14 12  2  0  0  0  0
 15 14  1  0  0  0  0
 16  4  1  0  0  0  0
 17 18  1  0  0  0  0
 17 16  1  0  0  0  0
 19 17  2  0  0  0  0
 20 19  1  0  0  0  0
 21 23  2  0  0  0  0
 21 19  1  0  0  0  0
 22 21  1  0  0  0  0
 23 25  1  0  0  0  0
 24 23  1  0  0  0  0
 25 26  1  0  0  0  0
 25 16  2  0  0  0  0
 27 50  1  0  0  0  0
 28 27  1  0  0  0  0
 28 37  1  0  0  0  0
 29 28  2  0  0  0  0
 30 29  1  0  0  0  0
 31 29  1  0  0  0  0
 31 33  2  0  0  0  0
 32 31  1  0  0  0  0
 33 35  1  0  0  0  0
 34 33  1  0  0  0  0
 35 37  2  0  0  0  0
 35 36  1  0  0  0  0
 37 38  1  0  0  0  0
 39 27  1  0  0  0  0
 40 41  1  0  0  0  0
 40 39  1  0  0  0  0
 42 40  2  0  0  0  0
 43 42  1  0  0  0  0
 44 46  2  0  0  0  0
 44 42  1  0  0  0  0
 45 44  1  0  0  0  0
 46 48  1  0  0  0  0
 47 46  1  0  0  0  0
 48 49  1  0  0  0  0
 48 39  2  0  0  0  0
 50 59  2  0  0  0  0
 50 51  1  0  0  0  0
 51 53  2  0  0  0  0
 52 51  1  0  0  0  0
 53 54  1  0  0  0  0
 53 55  1  0  0  0  0
 55 56  1  0  0  0  0
 57 58  1  0  0  0  0
 57 55  2  0  0  0  0
 59 57  1  0  0  0  0
 60 59  1  0  0  0  0
M  END
