2
 OpenBabel05122313113D

 26 26  0  0  0  0  0  0  0  0999 V2000
   -1.5341   -0.2534   -0.0391 N   0  0  0  0  0  0  0  0  0  0  0  0
   -0.9590   -0.2013   -1.3502 C   0  0  0  0  0  3  0  0  0  0  0  0
    0.2369   -0.9427   -1.5336 C   0  0  0  0  0  3  0  0  0  0  0  0
    0.9437   -1.5430   -0.4454 C   0  0  0  0  0  3  0  0  0  0  0  0
    2.3500   -2.0646   -0.6460 C   0  0  0  0  0  0  0  0  0  0  0  0
    3.2063   -2.0356    0.6219 C   0  0  0  0  0  0  0  0  0  0  0  0
   -2.0369   -1.5544    0.4865 C   0  0  0  0  0  0  0  0  0  0  0  0
   -2.6609    0.6791    0.2166 C   0  0  0  0  0  0  0  0  0  0  0  0
   -3.5184   -1.6073    0.0685 C   0  0  0  0  0  0  0  0  0  0  0  0
   -3.9497   -0.1221   -0.0593 C   0  0  0  0  0  0  0  0  0  0  0  0
   -1.4957    0.3024   -2.1684 H   0  0  0  0  0  0  0  0  0  0  0  0
    0.7283   -0.8459   -2.5168 H   0  0  0  0  0  0  0  0  0  0  0  0
    0.3923   -2.0671    0.3491 H   0  0  0  0  0  0  0  0  0  0  0  0
    2.8537   -1.4864   -1.4495 H   0  0  0  0  0  0  0  0  0  0  0  0
    2.2898   -3.1151   -1.0166 H   0  0  0  0  0  0  0  0  0  0  0  0
    2.7057   -2.5652    1.4590 H   0  0  0  0  0  0  0  0  0  0  0  0
    3.3890   -0.9946    0.9546 H   0  0  0  0  0  0  0  0  0  0  0  0
    4.1891   -2.5206    0.4560 H   0  0  0  0  0  0  0  0  0  0  0  0
   -1.9203   -1.5311    1.5894 H   0  0  0  0  0  0  0  0  0  0  0  0
   -1.4454   -2.3938    0.0873 H   0  0  0  0  0  0  0  0  0  0  0  0
   -2.5948    0.9869    1.2788 H   0  0  0  0  0  0  0  0  0  0  0  0
   -2.5430    1.5886   -0.3986 H   0  0  0  0  0  0  0  0  0  0  0  0
   -3.6211   -2.1304   -0.9026 H   0  0  0  0  0  0  0  0  0  0  0  0
   -4.1222   -2.1706    0.8059 H   0  0  0  0  0  0  0  0  0  0  0  0
   -4.7483    0.1533    0.6559 H   0  0  0  0  0  0  0  0  0  0  0  0
   -4.3387    0.0907   -1.0744 H   0  0  0  0  0  0  0  0  0  0  0  0
  1  8  1  0  0  0  0
  1  7  1  0  0  0  0
  2  1  1  0  0  0  0
  3  2  1  0  0  0  0
  3  4  1  0  0  0  0
  4 13  1  0  0  0  0
  5  4  1  0  0  0  0
  5  6  1  0  0  0  0
  6 17  1  0  0  0  0
  6 16  1  0  0  0  0
  7 19  1  0  0  0  0
  8 21  1  0  0  0  0
  9  7  1  0  0  0  0
  9 24  1  0  0  0  0
 10  9  1  0  0  0  0
 10  8  1  0  0  0  0
 10 25  1  0  0  0  0
 11  2  1  0  0  0  0
 12  3  1  0  0  0  0
 14  5  1  0  0  0  0
 15  5  1  0  0  0  0
 18  6  1  0  0  0  0
 20  7  1  0  0  0  0
 22  8  1  0  0  0  0
 23  9  1  0  0  0  0
 26 10  1  0  0  0  0
M  END
