2
 OpenBabel05122313113D

 29 29  0  0  0  0  0  0  0  0999 V2000
   -1.3281   -0.2263   -0.9061 N   0  0  0  0  0  0  0  0  0  0  0  0
   -0.3502    0.1222   -1.8848 C   0  0  0  0  0  3  0  0  0  0  0  0
    0.8982   -0.5507   -1.8208 C   0  0  0  0  0  3  0  0  0  0  0  0
    1.2954   -1.3623   -0.7121 C   0  0  0  0  0  3  0  0  0  0  0  0
    2.7359   -1.8054   -0.5712 C   0  0  0  0  0  0  0  0  0  0  0  0
    3.1690   -2.0433    0.8770 C   0  0  0  0  0  0  0  0  0  0  0  0
   -1.8073   -1.6313   -0.8215 C   0  0  0  0  0  0  0  0  0  0  0  0
   -2.4964    0.6808   -0.8077 C   0  0  0  0  0  0  0  0  0  0  0  0
   -2.4417   -1.8929    0.5421 C   0  0  0  0  0  0  0  0  0  0  0  0
   -3.1759    0.5264    0.5516 C   0  0  0  0  0  0  0  0  0  0  0  0
   -3.6048   -0.9256    0.7983 C   0  0  0  0  0  0  0  0  0  0  0  0
   -0.6266    0.7935   -2.7125 H   0  0  0  0  0  0  0  0  0  0  0  0
    1.6580   -0.2313   -2.5545 H   0  0  0  0  0  0  0  0  0  0  0  0
    0.5836   -2.0584   -0.2450 H   0  0  0  0  0  0  0  0  0  0  0  0
    3.4076   -1.0580   -1.0443 H   0  0  0  0  0  0  0  0  0  0  0  0
    2.8740   -2.7495   -1.1489 H   0  0  0  0  0  0  0  0  0  0  0  0
    4.1908   -2.4697    0.9277 H   0  0  0  0  0  0  0  0  0  0  0  0
    2.4834   -2.7480    1.3922 H   0  0  0  0  0  0  0  0  0  0  0  0
    3.1630   -1.0981    1.4550 H   0  0  0  0  0  0  0  0  0  0  0  0
   -2.5564   -1.7809   -1.6341 H   0  0  0  0  0  0  0  0  0  0  0  0
   -0.9740   -2.3209   -1.0346 H   0  0  0  0  0  0  0  0  0  0  0  0
   -2.1530    1.7184   -0.9661 H   0  0  0  0  0  0  0  0  0  0  0  0
   -3.2101    0.4257   -1.6272 H   0  0  0  0  0  0  0  0  0  0  0  0
   -1.6636   -1.7728    1.3257 H   0  0  0  0  0  0  0  0  0  0  0  0
   -2.7869   -2.9463    0.5874 H   0  0  0  0  0  0  0  0  0  0  0  0
   -2.4617    0.8551    1.3356 H   0  0  0  0  0  0  0  0  0  0  0  0
   -4.0482    1.2099    0.5994 H   0  0  0  0  0  0  0  0  0  0  0  0
   -4.4443   -1.1800    0.1130 H   0  0  0  0  0  0  0  0  0  0  0  0
   -3.9942   -1.0464    1.8297 H   0  0  0  0  0  0  0  0  0  0  0  0
  1  7  1  0  0  0  0
  1  8  1  0  0  0  0
  2  3  1  0  0  0  0
  2  1  1  0  0  0  0
  3  4  1  0  0  0  0
  4  5  1  0  0  0  0
  4 14  1  0  0  0  0
  5  6  1  0  0  0  0
  6 17  1  0  0  0  0
  6 18  1  0  0  0  0
  6 19  1  0  0  0  0
  7  9  1  0  0  0  0
  8 10  1  0  0  0  0
  9 25  1  0  0  0  0
  9 11  1  0  0  0  0
  9 24  1  0  0  0  0
 10 27  1  0  0  0  0
 10 11  1  0  0  0  0
 10 26  1  0  0  0  0
 11 29  1  0  0  0  0
 12  2  1  0  0  0  0
 13  3  1  0  0  0  0
 15  5  1  0  0  0  0
 16  5  1  0  0  0  0
 20  7  1  0  0  0  0
 21  7  1  0  0  0  0
 22  8  1  0  0  0  0
 23  8  1  0  0  0  0
 28 11  1  0  0  0  0
M  END
