3
 OpenBabel05122313113D

 61 65  0  0  1  0  0  0  0  0999 V2000
   -0.8787    0.6247   -1.3582 N   0  0  0  0  0  0  0  0  0  0  0  0
    0.8789   -0.6249   -1.3580 N   0  0  0  0  0  0  0  0  0  0  0  0
    0.0001    0.0000   -0.5152 C   0  0  0  0  0  2  0  0  0  0  0  0
   -0.5569    0.3986   -2.6944 C   0  0  0  0  0  0  0  0  0  0  0  0
   -1.1338    0.8316   -3.5164 H   0  0  0  0  0  0  0  0  0  0  0  0
    0.5572   -0.3990   -2.6943 C   0  0  0  0  0  0  0  0  0  0  0  0
    1.1342   -0.8321   -3.5162 H   0  0  0  0  0  0  0  0  0  0  0  0
   -1.9835    1.4169   -0.8926 C   0  0  0  0  0  0  0  0  0  0  0  0
   -1.6959    2.6359   -0.2633 C   0  0  0  0  0  0  0  0  0  0  0  0
   -0.6448    2.9388   -0.1564 H   0  0  0  0  0  0  0  0  0  0  0  0
   -2.7422    3.4286    0.2271 C   0  0  0  0  0  0  0  0  0  0  0  0
   -2.5192    4.3814    0.7290 H   0  0  0  0  0  0  0  0  0  0  0  0
   -4.0649    2.9921    0.0760 C   0  0  0  0  0  0  0  0  0  0  0  0
   -4.8963    3.6053    0.4549 H   0  0  0  0  0  0  0  0  0  0  0  0
   -4.3380    1.7619   -0.5428 C   0  0  0  0  0  0  0  0  0  0  0  0
   -5.3813    1.4284   -0.6277 H   0  0  0  0  0  0  0  0  0  0  0  0
   -3.3080    0.9356   -1.0316 C   0  0  0  0  0  0  0  0  0  0  0  0
   -3.5703   -0.4553   -1.5995 C   0  0  1  0  0  0  0  0  0  0  0  0
   -3.0589   -0.5201   -2.5842 H   0  0  0  0  0  0  0  0  0  0  0  0
   -2.9463   -1.5385   -0.7179 C   0  0  0  0  0  0  0  0  0  0  0  0
   -2.9576   -1.4340    0.6866 C   0  0  0  0  0  0  0  0  0  0  0  0
   -3.3720   -0.5329    1.1641 H   0  0  0  0  0  0  0  0  0  0  0  0
   -2.4076   -2.4472    1.4871 C   0  0  0  0  0  0  0  0  0  0  0  0
   -2.3889   -2.3253    2.5801 H   0  0  0  0  0  0  0  0  0  0  0  0
   -1.8543   -3.5914    0.8911 C   0  0  0  0  0  0  0  0  0  0  0  0
   -1.4204   -4.3841    1.5191 H   0  0  0  0  0  0  0  0  0  0  0  0
   -1.8420   -3.7089   -0.5088 C   0  0  0  0  0  0  0  0  0  0  0  0
   -1.4045   -4.5998   -0.9857 H   0  0  0  0  0  0  0  0  0  0  0  0
   -2.3759   -2.6842   -1.3056 C   0  0  0  0  0  0  0  0  0  0  0  0
   -2.3489   -2.7722   -2.4041 H   0  0  0  0  0  0  0  0  0  0  0  0
   -5.0560   -0.7644   -1.8442 C   0  0  0  0  0  0  0  0  0  0  0  0
   -5.5265   -0.0170   -2.5149 H   0  0  0  0  0  0  0  0  0  0  0  0
   -5.6237   -0.7906   -0.8926 H   0  0  0  0  0  0  0  0  0  0  0  0
   -5.1577   -1.7626   -2.3121 H   0  0  0  0  0  0  0  0  0  0  0  0
    1.9836   -1.4171   -0.8922 C   0  0  0  0  0  0  0  0  0  0  0  0
    1.6959   -2.6360   -0.2626 C   0  0  0  0  0  0  0  0  0  0  0  0
    0.6448   -2.9388   -0.1557 H   0  0  0  0  0  0  0  0  0  0  0  0
    2.7421   -3.4286    0.2280 C   0  0  0  0  0  0  0  0  0  0  0  0
    2.5191   -4.3813    0.7302 H   0  0  0  0  0  0  0  0  0  0  0  0
    4.0649   -2.9923    0.0768 C   0  0  0  0  0  0  0  0  0  0  0  0
    4.8962   -3.6055    0.4559 H   0  0  0  0  0  0  0  0  0  0  0  0
    4.3381   -1.7622   -0.5422 C   0  0  0  0  0  0  0  0  0  0  0  0
    5.3814   -1.4288   -0.6272 H   0  0  0  0  0  0  0  0  0  0  0  0
    3.3082   -0.9359   -1.0313 C   0  0  0  0  0  0  0  0  0  0  0  0
    3.5706    0.4548   -1.5994 C   0  0  2  0  0  0  0  0  0  0  0  0
    3.0593    0.5195   -2.5841 H   0  0  0  0  0  0  0  0  0  0  0  0
    5.0563    0.7638   -1.8440 C   0  0  0  0  0  0  0  0  0  0  0  0
    5.6240    0.7902   -0.8924 H   0  0  0  0  0  0  0  0  0  0  0  0
    5.1581    1.7619   -2.3121 H   0  0  0  0  0  0  0  0  0  0  0  0
    5.5268    0.0163   -2.5145 H   0  0  0  0  0  0  0  0  0  0  0  0
    2.9465    1.5382   -0.7179 C   0  0  0  0  0  0  0  0  0  0  0  0
    2.3762    2.6838   -1.3060 C   0  0  0  0  0  0  0  0  0  0  0  0
    2.3494    2.7716   -2.4044 H   0  0  0  0  0  0  0  0  0  0  0  0
    1.8422    3.7087   -0.5093 C   0  0  0  0  0  0  0  0  0  0  0  0
    1.4048    4.5995   -0.9864 H   0  0  0  0  0  0  0  0  0  0  0  0
    1.8544    3.5913    0.8906 C   0  0  0  0  0  0  0  0  0  0  0  0
    1.4203    4.3842    1.5184 H   0  0  0  0  0  0  0  0  0  0  0  0
    2.4075    2.4473    1.4868 C   0  0  0  0  0  0  0  0  0  0  0  0
    2.3887    2.3256    2.5799 H   0  0  0  0  0  0  0  0  0  0  0  0
    2.9576    1.4340    0.6865 C   0  0  0  0  0  0  0  0  0  0  0  0
    3.3719    0.5329    1.1642 H   0  0  0  0  0  0  0  0  0  0  0  0
  1  8  1  0  0  0  0
  1  3  1  0  0  0  0
  2 35  1  0  0  0  0
  2  3  1  0  0  0  0
  4  6  2  0  0  0  0
  4  1  1  0  0  0  0
  5  4  1  0  0  0  0
  6  2  1  0  0  0  0
  7  6  1  0  0  0  0
  8  9  1  0  0  0  0
  9 10  1  0  0  0  0
  9 11  2  0  0  0  0
 11 12  1  0  0  0  0
 13 11  1  0  0  0  0
 13 14  1  0  0  0  0
 15 13  2  0  0  0  0
 16 15  1  0  0  0  0
 17  8  2  0  0  0  0
 17 15  1  0  0  0  0
 18 19  1  6  0  0  0
 18 17  1  0  0  0  0
 18 20  1  0  0  0  0
 20 21  1  0  0  0  0
 21 22  1  0  0  0  0
 21 23  2  0  0  0  0
 23 24  1  0  0  0  0
 25 23  1  0  0  0  0
 25 26  1  0  0  0  0
 27 25  2  0  0  0  0
 28 27  1  0  0  0  0
 29 20  2  0  0  0  0
 29 27  1  0  0  0  0
 30 29  1  0  0  0  0
 31 18  1  0  0  0  0
 31 33  1  0  0  0  0
 32 31  1  0  0  0  0
 34 31  1  0  0  0  0
 35 36  1  0  0  0  0
 36 37  1  0  0  0  0
 36 38  2  0  0  0  0
 38 39  1  0  0  0  0
 40 38  1  0  0  0  0
 40 41  1  0  0  0  0
 42 40  2  0  0  0  0
 43 42  1  0  0  0  0
 44 35  2  0  0  0  0
 44 42  1  0  0  0  0
 45 46  1  6  0  0  0
 45 44  1  0  0  0  0
 45 51  1  0  0  0  0
 47 45  1  0  0  0  0
 47 48  1  0  0  0  0
 49 47  1  0  0  0  0
 50 47  1  0  0  0  0
 51 60  1  0  0  0  0
 52 51  2  0  0  0  0
 52 54  1  0  0  0  0
 53 52  1  0  0  0  0
 54 56  2  0  0  0  0
 55 54  1  0  0  0  0
 56 58  1  0  0  0  0
 56 57  1  0  0  0  0
 58 59  1  0  0  0  0
 60 61  1  0  0  0  0
 60 58  2  0  0  0  0
M  END
