3
 OpenBabel05122313113D

 39 42  0  0  0  0  0  0  0  0999 V2000
    1.1914    2.1561    0.4573 N   0  0  0  0  0  0  0  0  0  0  0  0
    3.3225    1.7369    0.5788 N   0  0  0  0  0  0  0  0  0  0  0  0
    2.1225    1.1769    0.3005 C   0  0  0  0  0  2  0  0  0  0  0  0
    1.8136    3.3462    0.8191 C   0  0  0  0  0  0  0  0  0  0  0  0
    1.2440    4.2582    1.0170 H   0  0  0  0  0  0  0  0  0  0  0  0
    3.1578    3.0792    0.8966 C   0  0  0  0  0  0  0  0  0  0  0  0
    4.0019    3.7228    1.1611 H   0  0  0  0  0  0  0  0  0  0  0  0
    4.5790    0.9951    0.5502 C   0  0  0  0  0  0  0  0  0  0  0  0
    4.4863    0.1106    1.2100 H   0  0  0  0  0  0  0  0  0  0  0  0
    5.3934    1.6500    0.9063 H   0  0  0  0  0  0  0  0  0  0  0  0
    4.7940    0.6587   -0.4825 H   0  0  0  0  0  0  0  0  0  0  0  0
   -0.2147    1.9395    0.2742 C   0  0  0  0  0  0  0  0  0  0  0  0
   -0.7994    0.8296    0.9132 C   0  0  0  0  0  0  0  0  0  0  0  0
   -0.2017    0.2089    1.5982 H   0  0  0  0  0  0  0  0  0  0  0  0
   -2.1292    0.5315    0.6273 C   0  0  0  0  0  0  0  0  0  0  0  0
   -2.8868    1.3591   -0.2408 C   0  0  0  0  0  0  0  0  0  0  0  0
   -2.3018    2.4921   -0.8329 C   0  0  0  0  0  0  0  0  0  0  0  0
   -2.8786    3.1345   -1.5147 H   0  0  0  0  0  0  0  0  0  0  0  0
   -0.9495    2.7725   -0.5870 C   0  0  0  0  0  0  0  0  0  0  0  0
   -0.4497    3.6104   -1.0942 H   0  0  0  0  0  0  0  0  0  0  0  0
   -2.9421   -0.6673    1.1015 C   0  0  0  0  0  0  0  0  0  0  0  0
   -4.2818   -0.4021    0.4157 C   0  0  0  0  0  0  0  0  0  0  0  0
   -4.2323    0.7847   -0.3618 C   0  0  0  0  0  0  0  0  0  0  0  0
   -5.3563    1.2166   -1.0856 C   0  0  0  0  0  0  0  0  0  0  0  0
   -5.3182    2.1355   -1.6907 H   0  0  0  0  0  0  0  0  0  0  0  0
   -6.5321    0.4528   -1.0255 C   0  0  0  0  0  0  0  0  0  0  0  0
   -7.4225    0.7752   -1.5862 H   0  0  0  0  0  0  0  0  0  0  0  0
   -6.5823   -0.7244   -0.2554 C   0  0  0  0  0  0  0  0  0  0  0  0
   -7.5121   -1.3122   -0.2208 H   0  0  0  0  0  0  0  0  0  0  0  0
   -5.4563   -1.1585    0.4685 C   0  0  0  0  0  0  0  0  0  0  0  0
   -5.5043   -2.0827    1.0652 H   0  0  0  0  0  0  0  0  0  0  0  0
   -3.0819   -0.6886    2.6378 C   0  0  0  0  0  0  0  0  0  0  0  0
   -2.0904   -0.8199    3.1165 H   0  0  0  0  0  0  0  0  0  0  0  0
   -3.7247   -1.5342    2.9559 H   0  0  0  0  0  0  0  0  0  0  0  0
   -3.5336    0.2508    3.0133 H   0  0  0  0  0  0  0  0  0  0  0  0
   -2.2924   -1.9784    0.5996 C   0  0  0  0  0  0  0  0  0  0  0  0
   -2.1609   -1.9689   -0.4997 H   0  0  0  0  0  0  0  0  0  0  0  0
   -2.9231   -2.8493    0.8697 H   0  0  0  0  0  0  0  0  0  0  0  0
   -1.2911   -2.1236    1.0525 H   0  0  0  0  0  0  0  0  0  0  0  0
  1  4  1  0  0  0  0
  2  6  1  0  0  0  0
  3  1  1  0  0  0  0
  3  2  1  0  0  0  0
  4  6  2  0  0  0  0
  4  5  1  0  0  0  0
  6  7  1  0  0  0  0
  8  2  1  0  0  0  0
  8 10  1  0  0  0  0
  8  9  1  0  0  0  0
 11  8  1  0  0  0  0
 12  1  1  0  0  0  0
 12 13  1  0  0  0  0
 13 14  1  0  0  0  0
 15 13  2  0  0  0  0
 15 21  1  0  0  0  0
 16 15  1  0  0  0  0
 17 19  1  0  0  0  0
 17 16  2  0  0  0  0
 18 17  1  0  0  0  0
 19 12  2  0  0  0  0
 20 19  1  0  0  0  0
 21 32  1  0  0  0  0
 22 30  1  0  0  0  0
 22 21  1  0  0  0  0
 23 16  1  0  0  0  0
 23 22  2  0  0  0  0
 24 26  2  0  0  0  0
 24 23  1  0  0  0  0
 25 24  1  0  0  0  0
 26 28  1  0  0  0  0
 27 26  1  0  0  0  0
 28 29  1  0  0  0  0
 28 30  2  0  0  0  0
 30 31  1  0  0  0  0
 32 34  1  0  0  0  0
 32 35  1  0  0  0  0
 32 33  1  0  0  0  0
 36 38  1  0  0  0  0
 36 39  1  0  0  0  0
 36 21  1  0  0  0  0
 37 36  1  0  0  0  0
M  END
