7
 OpenBabel05122313113D

 58 60  0  0  1  0  0  0  0  0999 V2000
    1.6170   -0.6578    0.3035 O   0  0  0  0  0  0  0  0  0  0  0  0
    4.7480   -1.7619    0.1962 O   0  0  0  0  0  0  0  0  0  0  0  0
    4.0342   -0.7972   -1.7222 O   0  0  0  0  0  0  0  0  0  0  0  0
   -0.1040   -2.4212   -0.1967 N   0  0  0  0  0  0  0  0  0  0  0  0
    0.3229    3.1330    1.8599 N   0  0  0  0  0  0  0  0  0  0  0  0
    0.5059   -1.0672   -0.3949 B   0  0  0  0  0  0  0  0  0  0  0  0
   -1.1000   -2.6093   -1.1789 C   0  0  0  0  0  3  0  0  0  0  0  0
   -1.5988   -3.5738   -1.3119 H   0  0  0  0  0  0  0  0  0  0  0  0
   -1.2307   -1.4426   -1.9862 C   0  0  0  0  0  3  0  0  0  0  0  0
   -1.9208   -1.3738   -2.8369 H   0  0  0  0  0  0  0  0  0  0  0  0
   -0.3588   -0.4253   -1.4881 C   0  0  0  0  0  0  0  0  0  0  0  0
   -0.3484    0.5952   -1.8878 H   0  0  0  0  0  0  0  0  0  0  0  0
    0.3570   -3.4880    0.7478 C   0  0  0  0  0  0  0  0  0  0  0  0
    1.7504   -3.9471    0.2756 C   0  0  0  0  0  0  0  0  0  0  0  0
    1.7048   -4.3174   -0.7690 H   0  0  0  0  0  0  0  0  0  0  0  0
    2.1134   -4.7751    0.9162 H   0  0  0  0  0  0  0  0  0  0  0  0
    2.4886   -3.1247    0.3316 H   0  0  0  0  0  0  0  0  0  0  0  0
   -0.6121   -4.6785    0.7534 C   0  0  0  0  0  0  0  0  0  0  0  0
   -1.6425   -4.3720    1.0193 H   0  0  0  0  0  0  0  0  0  0  0  0
   -0.2721   -5.4083    1.5132 H   0  0  0  0  0  0  0  0  0  0  0  0
   -0.6327   -5.2073   -0.2205 H   0  0  0  0  0  0  0  0  0  0  0  0
    0.4361   -2.8858    2.1597 C   0  0  0  0  0  0  0  0  0  0  0  0
    1.1020   -2.0031    2.1724 H   0  0  0  0  0  0  0  0  0  0  0  0
    0.8347   -3.6390    2.8674 H   0  0  0  0  0  0  0  0  0  0  0  0
   -0.5704   -2.5715    2.4987 H   0  0  0  0  0  0  0  0  0  0  0  0
    2.2316    0.5897   -0.0899 C   0  0  1  0  0  0  0  0  0  0  0  0
    2.1936    0.6583   -1.1973 H   0  0  0  0  0  0  0  0  0  0  0  0
    1.4873    1.7669    0.4604 C   0  0  0  0  0  0  0  0  0  0  0  0
    0.8768    2.8149   -0.3246 C   0  0  0  0  0  0  0  0  0  0  0  0
    0.8535    3.1277   -1.7020 C   0  0  0  0  0  0  0  0  0  0  0  0
    1.4187    2.5183   -2.4242 H   0  0  0  0  0  0  0  0  0  0  0  0
    0.0989    4.2221   -2.1367 C   0  0  0  0  0  0  0  0  0  0  0  0
    0.0669    4.4689   -3.2085 H   0  0  0  0  0  0  0  0  0  0  0  0
   -0.6309    5.0199   -1.2215 C   0  0  0  0  0  0  0  0  0  0  0  0
   -1.2208    5.8698   -1.5959 H   0  0  0  0  0  0  0  0  0  0  0  0
   -0.6181    4.7444    0.1511 C   0  0  0  0  0  0  0  0  0  0  0  0
   -1.1895    5.3626    0.8589 H   0  0  0  0  0  0  0  0  0  0  0  0
    0.1417    3.6439    0.5853 C   0  0  0  0  0  0  0  0  0  0  0  0
    1.1166    2.0060    1.7785 C   0  0  0  0  0  0  0  0  0  0  0  0
    1.3156    1.4134    2.6776 H   0  0  0  0  0  0  0  0  0  0  0  0
   -0.3478    3.6138    3.0477 C   0  0  0  0  0  0  0  0  0  0  0  0
   -1.4375    3.4089    2.9987 H   0  0  0  0  0  0  0  0  0  0  0  0
   -0.1879    4.7041    3.1730 H   0  0  0  0  0  0  0  0  0  0  0  0
    0.0625    3.0951    3.9329 H   0  0  0  0  0  0  0  0  0  0  0  0
    3.7414    0.4783    0.2808 C   0  0  0  0  0  0  0  0  0  0  0  0
    4.4923    1.6879   -0.3066 C   0  0  0  0  0  0  0  0  0  0  0  0
    5.5744    1.6256   -0.0760 H   0  0  0  0  0  0  0  0  0  0  0  0
    4.0949    2.6238    0.1344 H   0  0  0  0  0  0  0  0  0  0  0  0
    4.3739    1.7420   -1.4060 H   0  0  0  0  0  0  0  0  0  0  0  0
    3.9683    0.3767    1.7924 C   0  0  0  0  0  0  0  0  0  0  0  0
    3.3516   -0.4301    2.2323 H   0  0  0  0  0  0  0  0  0  0  0  0
    3.7176    1.3365    2.2826 H   0  0  0  0  0  0  0  0  0  0  0  0
    5.0276    0.1384    2.0057 H   0  0  0  0  0  0  0  0  0  0  0  0
    4.2396   -0.8171   -0.3782 C   0  0  0  0  0  0  0  0  0  0  0  0
    4.4102   -1.9881   -2.4214 C   0  0  0  0  0  0  0  0  0  0  0  0
    5.4665   -2.2524   -2.2154 H   0  0  0  0  0  0  0  0  0  0  0  0
    4.2637   -1.7740   -3.4951 H   0  0  0  0  0  0  0  0  0  0  0  0
    3.7716   -2.8404   -2.1110 H   0  0  0  0  0  0  0  0  0  0  0  0
  3 54  1  0  0  0  0
  4 13  1  0  0  0  0
  5 41  1  0  0  0  0
  6  4  1  0  0  0  0
  6  1  1  0  0  0  0
  7  4  1  0  0  0  0
  8  7  1  0  0  0  0
  9 11  1  0  0  0  0
  9  7  1  0  0  0  0
 10  9  1  0  0  0  0
 11  6  2  0  0  0  0
 12 11  1  0  0  0  0
 13 18  1  0  0  0  0
 13 22  1  0  0  0  0
 14 17  1  0  0  0  0
 14 13  1  0  0  0  0
 14 16  1  0  0  0  0
 15 14  1  0  0  0  0
 18 19  1  0  0  0  0
 18 20  1  0  0  0  0
 21 18  1  0  0  0  0
 22 23  1  0  0  0  0
 22 25  1  0  0  0  0
 22 24  1  0  0  0  0
 26 27  1  6  0  0  0
 26 45  1  0  0  0  0
 26  1  1  0  0  0  0
 26 28  1  0  0  0  0
 28 39  2  0  0  0  0
 29 28  1  0  0  0  0
 29 38  1  0  0  0  0
 30 29  2  0  0  0  0
 31 30  1  0  0  0  0
 32 30  1  0  0  0  0
 32 34  2  0  0  0  0
 33 32  1  0  0  0  0
 34 36  1  0  0  0  0
 35 34  1  0  0  0  0
 36 38  2  0  0  0  0
 36 37  1  0  0  0  0
 38  5  1  0  0  0  0
 39  5  1  0  0  0  0
 39 40  1  0  0  0  0
 41 43  1  0  0  0  0
 41 44  1  0  0  0  0
 42 41  1  0  0  0  0
 45 50  1  0  0  0  0
 46 47  1  0  0  0  0
 46 48  1  0  0  0  0
 46 45  1  0  0  0  0
 49 46  1  0  0  0  0
 50 53  1  0  0  0  0
 50 51  1  0  0  0  0
 50 52  1  0  0  0  0
 54  2  2  0  0  0  0
 54 45  1  0  0  0  0
 55 56  1  0  0  0  0
 55 58  1  0  0  0  0
 55  3  1  0  0  0  0
 57 55  1  0  0  0  0
M  END
