20
 OpenBabel05122313113D

 42 44  0  0  0  0  0  0  0  0999 V2000
   -0.9352   -0.1009   -0.0505 B   0  0  0  0  0  0  0  0  0  0  0  0
   -1.8843    1.4285   -2.3544 F   0  0  0  0  0  0  0  0  0  0  0  0
   -3.7665    0.7114   -4.1235 F   0  0  0  0  0  0  0  0  0  0  0  0
   -5.0565   -1.7035   -3.8807 F   0  0  0  0  0  0  0  0  0  0  0  0
   -4.4047   -3.3878   -1.8171 F   0  0  0  0  0  0  0  0  0  0  0  0
   -2.5278   -2.7110   -0.0444 F   0  0  0  0  0  0  0  0  0  0  0  0
    0.1536   -2.6471   -0.9708 F   0  0  0  0  0  0  0  0  0  0  0  0
    1.4658   -4.4754    0.4693 F   0  0  0  0  0  0  0  0  0  0  0  0
    1.8051   -4.1349    3.1841 F   0  0  0  0  0  0  0  0  0  0  0  0
    0.7978   -1.8865    4.3946 F   0  0  0  0  0  0  0  0  0  0  0  0
   -0.4867   -0.0329    2.9823 F   0  0  0  0  0  0  0  0  0  0  0  0
   -3.1665   -0.3780    1.6793 F   0  0  0  0  0  0  0  0  0  0  0  0
   -4.5480    1.5523    2.9610 F   0  0  0  0  0  0  0  0  0  0  0  0
   -3.7754    4.1799    2.7387 F   0  0  0  0  0  0  0  0  0  0  0  0
   -1.5916    4.8253    1.1998 F   0  0  0  0  0  0  0  0  0  0  0  0
   -0.2210    2.9475   -0.0897 F   0  0  0  0  0  0  0  0  0  0  0  0
    3.4587    1.3216    1.4981 C   0  0  0  0  0  3  0  0  0  0  0  0
    3.6481    2.3755    1.7631 H   0  0  0  0  0  0  0  0  0  0  0  0
    3.9008    0.6074    2.2141 H   0  0  0  0  0  0  0  0  0  0  0  0
    2.2153    1.0160    0.9430 C   0  0  0  0  0  2  0  0  0  0  0  0
    1.5100    0.7056   -0.0549 C   0  0  0  0  0  2  0  0  0  0  0  0
    0.4408    0.3847   -0.9596 C   0  0  0  0  0  0  0  0  0  0  0  0
    0.6946   -0.4818   -1.6024 H   0  0  0  0  0  0  0  0  0  0  0  0
    0.1887    1.2467   -1.6033 H   0  0  0  0  0  0  0  0  0  0  0  0
   -2.4555    0.2099   -2.1915 C   0  0  0  0  0  0  0  0  0  0  0  0
   -2.0607   -0.6231   -1.1275 C   0  0  0  0  0  0  0  0  0  0  0  0
   -2.7673   -1.8371   -1.0382 C   0  0  0  0  0  0  0  0  0  0  0  0
   -3.7679   -2.2176   -1.9499 C   0  0  0  0  0  0  0  0  0  0  0  0
   -4.1082   -1.3571   -3.0045 C   0  0  0  0  0  0  0  0  0  0  0  0
   -3.4449   -0.1264   -3.1284 C   0  0  0  0  0  0  0  0  0  0  0  0
   -1.2764    2.5222    0.6567 C   0  0  0  0  0  0  0  0  0  0  0  0
   -1.6198    1.1654    0.7400 C   0  0  0  0  0  0  0  0  0  0  0  0
   -2.7526    0.8963    1.5310 C   0  0  0  0  0  0  0  0  0  0  0  0
   -3.4862    1.8773    2.2130 C   0  0  0  0  0  0  0  0  0  0  0  0
   -3.0936    3.2215    2.1017 C   0  0  0  0  0  0  0  0  0  0  0  0
   -1.9781    3.5462    1.3182 C   0  0  0  0  0  0  0  0  0  0  0  0
    0.2406   -2.4303    0.3694 C   0  0  0  0  0  0  0  0  0  0  0  0
   -0.3143   -1.2663    0.9301 C   0  0  0  0  0  0  0  0  0  0  0  0
   -0.0806   -1.1255    2.3095 C   0  0  0  0  0  0  0  0  0  0  0  0
    0.6117   -2.0784    3.0822 C   0  0  0  0  0  0  0  0  0  0  0  0
    1.1334   -3.2261    2.4678 C   0  0  0  0  0  0  0  0  0  0  0  0
    0.9451   -3.4056    1.0878 C   0  0  0  0  0  0  0  0  0  0  0  0
  1 32  1  0  0  0  0
  1 38  1  0  0  0  0
  2 25  1  0  0  0  0
  3 30  1  0  0  0  0
  4 29  1  0  0  0  0
  7 37  1  0  0  0  0
  8 42  1  0  0  0  0
 15 36  1  0  0  0  0
 16 31  1  0  0  0  0
 17 18  1  0  0  0  0
 17 19  1  0  0  0  0
 20 17  1  0  0  0  0
 21 20  1  0  0  0  0
 22 21  1  0  0  0  0
 22  1  1  0  0  0  0
 23 22  1  0  0  0  0
 24 22  1  0  0  0  0
 25 26  1  0  0  0  0
 26 27  2  0  0  0  0
 26  1  1  0  0  0  0
 27  6  1  0  0  0  0
 28  5  1  0  0  0  0
 28 27  1  0  0  0  0
 29 28  2  0  0  0  0
 30 29  1  0  0  0  0
 30 25  2  0  0  0  0
 31 32  2  0  0  0  0
 31 36  1  0  0  0  0
 32 33  1  0  0  0  0
 33 12  1  0  0  0  0
 33 34  2  0  0  0  0
 34 13  1  0  0  0  0
 35 34  1  0  0  0  0
 35 14  1  0  0  0  0
 36 35  2  0  0  0  0
 37 38  2  0  0  0  0
 37 42  1  0  0  0  0
 38 39  1  0  0  0  0
 39 11  1  0  0  0  0
 39 40  2  0  0  0  0
 40 10  1  0  0  0  0
 41 40  1  0  0  0  0
 41  9  1  0  0  0  0
 42 41  2  0  0  0  0
M  END
