4
 OpenBabel05122313113D

 68 69  0  0  1  0  0  0  0  0999 V2000
    1.6822    0.3037   -0.0071 P   0  0  0  0  0  0  0  0  0  0  0  0
    1.9370    1.2943    1.0069 H   0  0  0  0  0  0  0  0  0  0  0  0
   -1.6057    0.3418    0.0756 P   0  0  2  0  0  0  0  0  0  0  0  0
   -0.8969   -1.4701    2.1838 C   0  0  0  0  0  3  0  0  0  0  0  0
   -1.9810   -1.2670    2.2554 H   0  0  0  0  0  0  0  0  0  0  0  0
   -0.6442   -2.4779    2.5539 H   0  0  0  0  0  0  0  0  0  0  0  0
    0.0567   -0.4223    2.4453 C   0  0  1  0  0  3  0  0  0  0  0  0
   -0.3937    0.9917    2.4424 C   0  0  0  0  0  0  0  0  0  0  0  0
   -1.6855    1.2705    1.7033 C   0  0  0  0  0  0  0  0  0  0  0  0
   -1.8641    2.3537    1.5812 H   0  0  0  0  0  0  0  0  0  0  0  0
   -2.5486    0.8584    2.2696 H   0  0  0  0  0  0  0  0  0  0  0  0
    1.3179   -0.7365    3.2225 C   0  0  0  0  0  0  0  0  0  0  0  0
    1.1826   -0.5036    4.3030 H   0  0  0  0  0  0  0  0  0  0  0  0
    2.1898   -0.1412    2.8767 H   0  0  0  0  0  0  0  0  0  0  0  0
    1.5839   -1.8055    3.1332 H   0  0  0  0  0  0  0  0  0  0  0  0
    0.3060    2.0115    3.0077 C   0  0  0  0  0  0  0  0  0  0  0  0
    1.2304    1.8412    3.5773 H   0  0  0  0  0  0  0  0  0  0  0  0
   -0.0458    3.0514    2.9248 H   0  0  0  0  0  0  0  0  0  0  0  0
    1.5080    1.4877   -1.4594 C   0  0  0  0  0  0  0  0  0  0  0  0
    2.5090    1.7498   -1.8599 H   0  0  0  0  0  0  0  0  0  0  0  0
    0.9670    0.9320   -2.2520 H   0  0  0  0  0  0  0  0  0  0  0  0
    0.7798    2.7405   -1.0278 C   0  0  0  0  0  0  0  0  0  0  0  0
   -0.5810    2.8014   -0.9581 C   0  0  0  0  0  0  0  0  0  0  0  0
   -1.4537    1.6155   -1.3009 C   0  0  0  0  0  0  0  0  0  0  0  0
   -1.0530    1.0377   -2.1595 H   0  0  0  0  0  0  0  0  0  0  0  0
   -2.4687    1.9606   -1.5861 H   0  0  0  0  0  0  0  0  0  0  0  0
    1.7042    3.8642   -0.6387 C   0  0  0  0  0  0  0  0  0  0  0  0
    2.2980    4.2089   -1.5136 H   0  0  0  0  0  0  0  0  0  0  0  0
    2.4388    3.5062    0.1157 H   0  0  0  0  0  0  0  0  0  0  0  0
    1.1886    4.7420   -0.2105 H   0  0  0  0  0  0  0  0  0  0  0  0
   -1.3553    4.0362   -0.5692 C   0  0  0  0  0  0  0  0  0  0  0  0
   -0.7295    4.8387   -0.1393 H   0  0  0  0  0  0  0  0  0  0  0  0
   -2.1517    3.7979    0.1673 H   0  0  0  0  0  0  0  0  0  0  0  0
   -1.8810    4.4572   -1.4553 H   0  0  0  0  0  0  0  0  0  0  0  0
    3.4517   -0.3197   -0.1774 C   0  0  0  0  0  0  0  0  0  0  0  0
    3.5258   -1.0817    0.6324 H   0  0  0  0  0  0  0  0  0  0  0  0
    4.5028    0.7705    0.0908 C   0  0  0  0  0  0  0  0  0  0  0  0
    4.3810    1.5910   -0.6529 H   0  0  0  0  0  0  0  0  0  0  0  0
    4.3277    1.2274    1.0875 H   0  0  0  0  0  0  0  0  0  0  0  0
    5.9339    0.2208   -0.0020 C   0  0  0  0  0  0  0  0  0  0  0  0
    6.6679    1.0382    0.1602 H   0  0  0  0  0  0  0  0  0  0  0  0
    6.0936   -0.5116    0.8211 H   0  0  0  0  0  0  0  0  0  0  0  0
    6.1849   -0.4722   -1.3469 C   0  0  0  0  0  0  0  0  0  0  0  0
    6.1276    0.2834   -2.1632 H   0  0  0  0  0  0  0  0  0  0  0  0
    7.2121   -0.8921   -1.3823 H   0  0  0  0  0  0  0  0  0  0  0  0
    5.1462   -1.5701   -1.6051 C   0  0  0  0  0  0  0  0  0  0  0  0
    5.2695   -2.3768   -0.8479 H   0  0  0  0  0  0  0  0  0  0  0  0
    5.3151   -2.0432   -2.5954 H   0  0  0  0  0  0  0  0  0  0  0  0
    3.7133   -1.0238   -1.5211 C   0  0  0  0  0  0  0  0  0  0  0  0
    2.9836   -1.8440   -1.6792 H   0  0  0  0  0  0  0  0  0  0  0  0
    3.5527   -0.2999   -2.3515 H   0  0  0  0  0  0  0  0  0  0  0  0
   -3.3879   -0.2363   -0.1435 C   0  0  0  0  0  0  0  0  0  0  0  0
   -3.4924   -1.0095    0.6524 H   0  0  0  0  0  0  0  0  0  0  0  0
   -4.4475    0.8540    0.1005 C   0  0  0  0  0  0  0  0  0  0  0  0
   -4.3080    1.3236    1.0953 H   0  0  0  0  0  0  0  0  0  0  0  0
   -4.3205    1.6672   -0.6494 H   0  0  0  0  0  0  0  0  0  0  0  0
   -5.8736    0.2933   -0.0152 C   0  0  0  0  0  0  0  0  0  0  0  0
   -6.6145    1.1057    0.1409 H   0  0  0  0  0  0  0  0  0  0  0  0
   -6.0395   -0.4430    0.8031 H   0  0  0  0  0  0  0  0  0  0  0  0
   -6.1019   -0.3942   -1.3662 C   0  0  0  0  0  0  0  0  0  0  0  0
   -7.1245   -0.8236   -1.4168 H   0  0  0  0  0  0  0  0  0  0  0  0
   -6.0417    0.3667   -2.1772 H   0  0  0  0  0  0  0  0  0  0  0  0
   -5.0486   -1.4794   -1.6169 C   0  0  0  0  0  0  0  0  0  0  0  0
   -5.1946   -1.9432   -2.6151 H   0  0  0  0  0  0  0  0  0  0  0  0
   -5.1780   -2.2956   -0.8707 H   0  0  0  0  0  0  0  0  0  0  0  0
   -3.6222   -0.9227   -1.5003 C   0  0  0  0  0  0  0  0  0  0  0  0
   -3.4511   -0.1891   -2.3202 H   0  0  0  0  0  0  0  0  0  0  0  0
   -2.8846   -1.7351   -1.6478 H   0  0  0  0  0  0  0  0  0  0  0  0
  1  2  1  0  0  0  0
  3 24  1  6  0  0  0
  3  9  1  0  0  0  0
  4  5  1  0  0  0  0
  4  6  1  0  0  0  0
  7  4  1  1  0  0  0
  7 12  1  0  0  0  0
  8  7  1  0  0  0  0
  8 16  2  0  0  0  0
  9 11  1  0  0  0  0
  9  8  1  0  0  0  0
 10  9  1  0  0  0  0
 12 13  1  0  0  0  0
 14 12  1  0  0  0  0
 15 12  1  0  0  0  0
 16 17  1  0  0  0  0
 18 16  1  0  0  0  0
 19 22  1  0  0  0  0
 19  1  1  0  0  0  0
 20 19  1  0  0  0  0
 21 19  1  0  0  0  0
 22 23  2  0  0  0  0
 22 27  1  0  0  0  0
 23 31  1  0  0  0  0
 24 23  1  0  0  0  0
 25 24  1  0  0  0  0
 26 24  1  0  0  0  0
 27 30  1  0  0  0  0
 27 29  1  0  0  0  0
 28 27  1  0  0  0  0
 31 32  1  0  0  0  0
 31 33  1  0  0  0  0
 34 31  1  0  0  0  0
 35  1  1  0  0  0  0
 35 37  1  0  0  0  0
 35 36  1  0  0  0  0
 37 39  1  0  0  0  0
 38 37  1  0  0  0  0
 40 37  1  0  0  0  0
 40 41  1  0  0  0  0
 40 42  1  0  0  0  0
 43 40  1  0  0  0  0
 44 43  1  0  0  0  0
 45 43  1  0  0  0  0
 46 49  1  0  0  0  0
 46 43  1  0  0  0  0
 46 47  1  0  0  0  0
 48 46  1  0  0  0  0
 49 35  1  0  0  0  0
 50 49  1  0  0  0  0
 51 49  1  0  0  0  0
 52  3  1  0  0  0  0
 52 54  1  0  0  0  0
 52 53  1  0  0  0  0
 54 55  1  0  0  0  0
 56 54  1  0  0  0  0
 57 54  1  0  0  0  0
 57 58  1  0  0  0  0
 57 59  1  0  0  0  0
 60 57  1  0  0  0  0
 61 60  1  0  0  0  0
 62 60  1  0  0  0  0
 63 66  1  0  0  0  0
 63 60  1  0  0  0  0
 63 65  1  0  0  0  0
 64 63  1  0  0  0  0
 66 52  1  0  0  0  0
 67 66  1  0  0  0  0
 68 66  1  0  0  0  0
M  END
