1
 OpenBabel05122313113D

  6  8  0  0  1  0  0  0  0  0999 V2000
    2.0611    0.0742    0.8661 C   0  0  0  0  0  0  0  0  0  0  0  0
    3.2085    0.4060    0.8372 N   0  0  0  0  0  0  0  0  0  0  0  0
    4.4650    0.8253    0.8020 C   0  0  2  0  0  0  0  0  0  0  0  0
    5.7478    0.2892    1.2380 C   0  0  2  0  0  0  0  0  0  0  0  0
    5.2599    1.6115   -0.0968 C   0  0  1  0  0  0  0  0  0  0  0  0
    6.0516    0.4110   -0.1844 C   0  0  2  0  0  0  0  0  0  0  0  0
  2  1  1  0  0  0  0
  3  2  1  6  0  0  0
  3  4  1  0  0  0  0
  5  3  1  0  0  0  0
  5  4  1  0  0  0  0
  6  5  1  0  0  0  0
  6  3  1  0  0  0  0
  6  4  1  0  0  0  0
M  END
