17
 OpenBabel05122313113D

 17 17  0  0  1  0  0  0  0  0999 V2000
    4.8849   -0.2467    1.0994 N   0  0  0  0  0  0  0  0  0  0  0  0
    4.8849   -0.2468   -1.0994 N   0  0  0  0  0  0  0  0  0  0  0  0
    2.6716   -0.1869    0.0000 C   0  0  0  0  0  0  0  0  0  0  0  0
    4.0625   -0.2272    0.0000 C   0  0  2  0  0  3  0  0  0  0  0  0
    6.2053   -0.2797   -0.6866 C   0  0  0  0  0  0  0  0  0  0  0  0
    7.0362   -0.2984   -1.3979 H   0  0  0  0  0  0  0  0  0  0  0  0
    6.2053   -0.2796    0.6866 C   0  0  0  0  0  0  0  0  0  0  0  0
    7.0362   -0.2981    1.3979 H   0  0  0  0  0  0  0  0  0  0  0  0
    4.4182   -0.2249    2.4787 C   0  0  0  0  0  0  0  0  0  0  0  0
    4.8232    0.6616    3.0036 H   0  0  0  0  0  0  0  0  0  0  0  0
    4.7384   -1.1443    3.0059 H   0  0  0  0  0  0  0  0  0  0  0  0
    3.3141   -0.1713    2.4686 H   0  0  0  0  0  0  0  0  0  0  0  0
    4.4182   -0.2252   -2.4787 C   0  0  0  0  0  0  0  0  0  0  0  0
    4.7385   -1.1447   -3.0058 H   0  0  0  0  0  0  0  0  0  0  0  0
    4.8232    0.6613   -3.0037 H   0  0  0  0  0  0  0  0  0  0  0  0
    3.3141   -0.1716   -2.4686 H   0  0  0  0  0  0  0  0  0  0  0  0
    1.4223   -0.1156    0.0000 C   0  0  0  0  0  3  0  0  0  0  0  0
  1  9  1  0  0  0  0
  2  5  1  0  0  0  0
  2  4  1  0  0  0  0
  3 17  3  0  0  0  0
  4  3  1  6  0  0  0
  4  1  1  0  0  0  0
  5  7  2  0  0  0  0
  6  5  1  0  0  0  0
  7  1  1  0  0  0  0
  7  8  1  0  0  0  0
  9 10  1  0  0  0  0
  9 11  1  0  0  0  0
 12  9  1  0  0  0  0
 13 16  1  0  0  0  0
 13  2  1  0  0  0  0
 14 13  1  0  0  0  0
 15 13  1  0  0  0  0
M  END
