5
 OpenBabel05122313113D

 31 31  0  0  1  0  0  0  0  0999 V2000
    1.2999   -0.4092    1.5235 C   0  0  0  0  0  3  0  0  0  0  0  0
    1.1866    0.2929    2.3639 H   0  0  0  0  0  0  0  0  0  0  0  0
    0.5028   -1.5780    1.6188 C   0  0  0  0  0  3  0  0  0  0  0  0
   -0.0989   -1.7708    2.5218 H   0  0  0  0  0  0  0  0  0  0  0  0
    0.2964   -2.4290    0.5093 C   0  0  0  0  0  3  0  0  0  0  0  0
   -0.3674   -3.2977    0.6341 H   0  0  0  0  0  0  0  0  0  0  0  0
    0.7741   -2.1605   -0.8234 C   0  0  0  0  0  3  0  0  0  0  0  0
    0.3273   -2.8093   -1.5948 H   0  0  0  0  0  0  0  0  0  0  0  0
    1.5002   -1.0697   -1.3043 C   0  0  0  0  0  3  0  0  0  0  0  0
    1.4931   -1.0026   -2.4066 H   0  0  0  0  0  0  0  0  0  0  0  0
    2.4922   -0.1205   -0.6808 C   0  0  2  0  0  0  0  0  0  0  0  0
    3.4787   -0.2492   -1.1908 H   0  0  0  0  0  0  0  0  0  0  0  0
    2.6440   -0.3801    0.8149 C   0  0  0  0  0  0  0  0  0  0  0  0
    3.2913    0.3994    1.2664 H   0  0  0  0  0  0  0  0  0  0  0  0
    3.1634   -1.3503    0.9617 H   0  0  0  0  0  0  0  0  0  0  0  0
    1.9807    1.3043   -0.9585 C   0  0  0  0  0  0  0  0  0  0  0  0
    1.8263    1.4205   -2.0523 H   0  0  0  0  0  0  0  0  0  0  0  0
    2.7589    2.0463   -0.6732 H   0  0  0  0  0  0  0  0  0  0  0  0
    0.6734    1.6388   -0.2209 C   0  0  2  0  0  3  0  0  0  0  0  0
   -0.5997    1.6144   -0.8775 C   0  0  1  0  0  3  0  0  0  0  0  0
   -0.8470    0.6538   -1.8990 C   0  0  0  0  0  3  0  0  0  0  0  0
   -0.0509    0.3365   -2.5835 H   0  0  0  0  0  0  0  0  0  0  0  0
   -1.8546    0.6449   -2.3424 H   0  0  0  0  0  0  0  0  0  0  0  0
    0.8614    2.5957    0.9407 C   0  0  0  0  0  0  0  0  0  0  0  0
    1.7894    2.3712    1.5009 H   0  0  0  0  0  0  0  0  0  0  0  0
    0.0212    2.5735    1.6592 H   0  0  0  0  0  0  0  0  0  0  0  0
    0.9575    3.6416    0.5698 H   0  0  0  0  0  0  0  0  0  0  0  0
   -1.7245    2.5465   -0.4813 C   0  0  0  0  0  0  0  0  0  0  0  0
   -1.7507    2.7874    0.5959 H   0  0  0  0  0  0  0  0  0  0  0  0
   -2.7079    2.1212   -0.7580 H   0  0  0  0  0  0  0  0  0  0  0  0
   -1.6030    3.5047   -1.0326 H   0  0  0  0  0  0  0  0  0  0  0  0
  1  3  1  0  0  0  0
  1  2  1  0  0  0  0
  3  4  1  0  0  0  0
  5  6  1  0  0  0  0
  5  3  1  0  0  0  0
  7  5  1  0  0  0  0
  8  7  1  0  0  0  0
  9  7  1  0  0  0  0
  9 11  1  0  0  0  0
 10  9  1  0  0  0  0
 11 12  1  6  0  0  0
 11 13  1  0  0  0  0
 13 15  1  0  0  0  0
 13 14  1  0  0  0  0
 13  1  1  0  0  0  0
 16 11  1  0  0  0  0
 16 18  1  0  0  0  0
 17 16  1  0  0  0  0
 19 16  1  6  0  0  0
 19 24  1  0  0  0  0
 20 21  1  1  0  0  0
 20 28  1  0  0  0  0
 20 19  1  0  0  0  0
 22 21  1  0  0  0  0
 23 21  1  0  0  0  0
 24 25  1  0  0  0  0
 24 26  1  0  0  0  0
 27 24  1  0  0  0  0
 28 29  1  0  0  0  0
 30 28  1  0  0  0  0
 31 28  1  0  0  0  0
M  END
