3
 OpenBabel05122313113D

 58 60  0  0  0  0  0  0  0  0999 V2000
   -1.1599   -2.1248    0.6043 N   0  0  0  0  0  0  0  0  0  0  0  0
    1.0364   -2.0876    0.4467 N   0  0  0  0  0  0  0  0  0  0  0  0
   -0.0888   -1.3162    0.2940 C   0  0  0  0  0  2  0  0  0  0  0  0
   -0.7580   -3.4213    1.1592 C   0  0  0  0  0  0  0  0  0  0  0  0
   -1.3560   -4.2440    0.7180 H   0  0  0  0  0  0  0  0  0  0  0  0
   -0.9118   -3.4374    2.2613 H   0  0  0  0  0  0  0  0  0  0  0  0
    0.7281   -3.4860    0.7836 C   0  0  0  0  0  0  0  0  0  0  0  0
    1.3718   -3.8364    1.6149 H   0  0  0  0  0  0  0  0  0  0  0  0
    0.9193   -4.1440   -0.0949 H   0  0  0  0  0  0  0  0  0  0  0  0
   -2.5338   -1.7693    0.4125 C   0  0  0  0  0  0  0  0  0  0  0  0
   -3.3163   -1.2870    1.4900 C   0  0  0  0  0  0  0  0  0  0  0  0
   -4.6378   -0.8846    1.2154 C   0  0  0  0  0  0  0  0  0  0  0  0
   -5.2473   -0.4841    2.0417 H   0  0  0  0  0  0  0  0  0  0  0  0
   -5.2015   -0.9916   -0.0675 C   0  0  0  0  0  0  0  0  0  0  0  0
   -4.4251   -1.5710   -1.0888 C   0  0  0  0  0  0  0  0  0  0  0  0
   -4.8637   -1.7084   -2.0902 H   0  0  0  0  0  0  0  0  0  0  0  0
   -3.0997   -1.9772   -0.8718 C   0  0  0  0  0  0  0  0  0  0  0  0
   -2.7947   -1.2705    2.9017 C   0  0  0  0  0  0  0  0  0  0  0  0
   -1.7455   -0.9202    2.9500 H   0  0  0  0  0  0  0  0  0  0  0  0
   -2.8451   -2.2888    3.3456 H   0  0  0  0  0  0  0  0  0  0  0  0
   -3.4047   -0.6047    3.5418 H   0  0  0  0  0  0  0  0  0  0  0  0
   -6.5980   -0.4969   -0.3479 C   0  0  0  0  0  0  0  0  0  0  0  0
   -7.1293   -1.1555   -1.0638 H   0  0  0  0  0  0  0  0  0  0  0  0
   -6.5719    0.5174   -0.8016 H   0  0  0  0  0  0  0  0  0  0  0  0
   -7.2034   -0.4284    0.5770 H   0  0  0  0  0  0  0  0  0  0  0  0
   -2.2972   -2.6138   -1.9751 C   0  0  0  0  0  0  0  0  0  0  0  0
   -2.9496   -2.9042   -2.8202 H   0  0  0  0  0  0  0  0  0  0  0  0
   -1.7576   -3.5175   -1.6255 H   0  0  0  0  0  0  0  0  0  0  0  0
   -1.5439   -1.8942   -2.3563 H   0  0  0  0  0  0  0  0  0  0  0  0
    2.3617   -1.7676    0.0181 C   0  0  0  0  0  0  0  0  0  0  0  0
    3.3013   -1.2910    0.9673 C   0  0  0  0  0  0  0  0  0  0  0  0
    4.6058   -1.0090    0.5188 C   0  0  0  0  0  0  0  0  0  0  0  0
    5.3507   -0.6310    1.2355 H   0  0  0  0  0  0  0  0  0  0  0  0
    4.9642   -1.1874   -0.8232 C   0  0  0  0  0  0  0  0  0  0  0  0
    5.9882   -0.9560   -1.1547 H   0  0  0  0  0  0  0  0  0  0  0  0
    4.0201   -1.6570   -1.7452 C   0  0  0  0  0  0  0  0  0  0  0  0
    4.3067   -1.7856   -2.8003 H   0  0  0  0  0  0  0  0  0  0  0  0
    2.7045   -1.9596   -1.3465 C   0  0  0  0  0  0  0  0  0  0  0  0
    2.9206   -1.0569    2.4209 C   0  0  0  0  0  0  0  0  0  0  0  0
    1.8194   -1.1587    2.4910 H   0  0  0  0  0  0  0  0  0  0  0  0
    3.5668   -2.1115    3.3366 C   0  0  0  0  0  0  0  0  0  0  0  0
    3.2930   -3.1430    3.0334 H   0  0  0  0  0  0  0  0  0  0  0  0
    3.2447   -1.9668    4.3882 H   0  0  0  0  0  0  0  0  0  0  0  0
    4.6748   -2.0433    3.3109 H   0  0  0  0  0  0  0  0  0  0  0  0
    3.2609    0.3705    2.8763 C   0  0  0  0  0  0  0  0  0  0  0  0
    4.3559    0.5537    2.8844 H   0  0  0  0  0  0  0  0  0  0  0  0
    2.8824    0.5435    3.9036 H   0  0  0  0  0  0  0  0  0  0  0  0
    2.7806    1.1194    2.2170 H   0  0  0  0  0  0  0  0  0  0  0  0
    1.6907   -2.4378   -2.3780 C   0  0  0  0  0  0  0  0  0  0  0  0
    0.7324   -2.6143   -1.8517 H   0  0  0  0  0  0  0  0  0  0  0  0
    2.1238   -3.7678   -3.0184 C   0  0  0  0  0  0  0  0  0  0  0  0
    3.0598   -3.6518   -3.6033 H   0  0  0  0  0  0  0  0  0  0  0  0
    1.3419   -4.1378   -3.7127 H   0  0  0  0  0  0  0  0  0  0  0  0
    2.3053   -4.5509   -2.2539 H   0  0  0  0  0  0  0  0  0  0  0  0
    1.4165   -1.3590   -3.4394 C   0  0  0  0  0  0  0  0  0  0  0  0
    1.0100   -0.4383   -2.9776 H   0  0  0  0  0  0  0  0  0  0  0  0
    0.6648   -1.7215   -4.1702 H   0  0  0  0  0  0  0  0  0  0  0  0
    2.3371   -1.1011   -4.0029 H   0  0  0  0  0  0  0  0  0  0  0  0
  1  4  1  0  0  0  0
  2  7  1  0  0  0  0
  3  2  1  0  0  0  0
  3  1  1  0  0  0  0
  4  6  1  0  0  0  0
  5  4  1  0  0  0  0
  7  4  1  0  0  0  0
  7  8  1  0  0  0  0
  9  7  1  0  0  0  0
 10  1  1  0  0  0  0
 10 11  1  0  0  0  0
 11 18  1  0  0  0  0
 12 11  2  0  0  0  0
 12 13  1  0  0  0  0
 14 12  1  0  0  0  0
 15 17  1  0  0  0  0
 15 14  2  0  0  0  0
 16 15  1  0  0  0  0
 17 10  2  0  0  0  0
 18 19  1  0  0  0  0
 18 20  1  0  0  0  0
 18 21  1  0  0  0  0
 22 14  1  0  0  0  0
 22 25  1  0  0  0  0
 23 22  1  0  0  0  0
 24 22  1  0  0  0  0
 26 28  1  0  0  0  0
 26 17  1  0  0  0  0
 27 26  1  0  0  0  0
 29 26  1  0  0  0  0
 30  2  1  0  0  0  0
 30 31  1  0  0  0  0
 31 39  1  0  0  0  0
 32 31  2  0  0  0  0
 32 33  1  0  0  0  0
 34 32  1  0  0  0  0
 35 34  1  0  0  0  0
 36 38  1  0  0  0  0
 36 34  2  0  0  0  0
 37 36  1  0  0  0  0
 38 30  2  0  0  0  0
 39 40  1  0  0  0  0
 39 45  1  0  0  0  0
 39 41  1  0  0  0  0
 41 43  1  0  0  0  0
 42 41  1  0  0  0  0
 44 41  1  0  0  0  0
 45 46  1  0  0  0  0
 45 47  1  0  0  0  0
 48 45  1  0  0  0  0
 49 50  1  0  0  0  0
 49 38  1  0  0  0  0
 51 49  1  0  0  0  0
 51 54  1  0  0  0  0
 52 51  1  0  0  0  0
 53 51  1  0  0  0  0
 55 56  1  0  0  0  0
 55 49  1  0  0  0  0
 57 55  1  0  0  0  0
 58 55  1  0  0  0  0
M  END
