7
 OpenBabel05122313113D

 33 32  0  0  1  0  0  0  0  0999 V2000
    3.0742    3.6985   -0.3425 Cl  0  0  0  0  0  0  0  0  0  0  0  0
    1.7460    0.3001    1.0793 O   0  0  0  0  0  0  0  0  0  0  0  0
    3.4037    0.6858   -0.4375 O   0  0  0  0  0  0  0  0  0  0  0  0
   -5.5858   -0.5065    0.8369 N   0  0  0  0  0  0  0  0  0  0  0  0
   -4.4834   -0.8211    0.5803 C   0  0  0  0  0  0  0  0  0  0  0  0
   -3.1369   -1.2031    0.2798 C   0  0  0  0  0  3  0  0  0  0  0  0
   -2.7001   -1.3207   -1.0951 C   0  0  0  0  0  3  0  0  0  0  0  0
   -1.3045   -1.4997   -1.3059 C   0  0  0  0  0  3  0  0  0  0  0  0
   -0.4407   -1.5257   -0.1624 C   0  0  0  0  0  3  0  0  0  0  0  0
    1.0601   -1.5883   -0.3418 C   0  0  1  0  0  0  0  0  0  0  0  0
    1.8768   -1.1357    0.8897 C   0  0  2  0  0  0  0  0  0  0  0  0
    1.5062   -1.7886    2.2108 C   0  0  0  0  0  0  0  0  0  0  0  0
    1.4703   -3.0308   -0.7604 C   0  0  0  0  0  0  0  0  0  0  0  0
    2.9453   -3.1945   -0.9965 C   0  0  0  0  0  0  0  0  0  0  0  0
    3.7215   -4.1274   -0.4181 C   0  0  0  0  0  0  0  0  0  0  0  0
    2.5973    1.0866    0.3721 C   0  0  0  0  0  0  0  0  0  0  0  0
    2.3822    2.5322    0.8058 C   0  0  0  0  0  0  0  0  0  0  0  0
   -2.6878   -1.8620    1.0424 H   0  0  0  0  0  0  0  0  0  0  0  0
   -3.3950   -1.1933   -1.9380 H   0  0  0  0  0  0  0  0  0  0  0  0
   -0.9026   -1.4806   -2.3322 H   0  0  0  0  0  0  0  0  0  0  0  0
   -0.8043   -2.0682    0.7270 H   0  0  0  0  0  0  0  0  0  0  0  0
    1.3629   -0.9155   -1.1722 H   0  0  0  0  0  0  0  0  0  0  0  0
    2.9414   -1.3358    0.6523 H   0  0  0  0  0  0  0  0  0  0  0  0
    2.1878   -1.4392    3.0098 H   0  0  0  0  0  0  0  0  0  0  0  0
    1.6032   -2.8894    2.1393 H   0  0  0  0  0  0  0  0  0  0  0  0
    0.4720   -1.5408    2.5191 H   0  0  0  0  0  0  0  0  0  0  0  0
    1.1181   -3.7647   -0.0043 H   0  0  0  0  0  0  0  0  0  0  0  0
    0.9195   -3.2677   -1.6978 H   0  0  0  0  0  0  0  0  0  0  0  0
    3.4025   -2.4729   -1.6988 H   0  0  0  0  0  0  0  0  0  0  0  0
    3.3066   -4.8584    0.2968 H   0  0  0  0  0  0  0  0  0  0  0  0
    4.7968   -4.2011   -0.6421 H   0  0  0  0  0  0  0  0  0  0  0  0
    2.8617    2.6742    1.7959 H   0  0  0  0  0  0  0  0  0  0  0  0
    1.3007    2.7290    0.9303 H   0  0  0  0  0  0  0  0  0  0  0  0
  1 17  1  0  0  0  0
  3 16  2  0  0  0  0
  5  4  3  0  0  0  0
  6  5  1  0  0  0  0
  6 18  1  0  0  0  0
  7  6  1  0  0  0  0
  8  7  1  0  0  0  0
  8  9  1  0  0  0  0
  9 21  1  0  0  0  0
 10 22  1  6  0  0  0
 10  9  1  0  0  0  0
 10 11  1  0  0  0  0
 11 23  1  6  0  0  0
 11  2  1  0  0  0  0
 11 12  1  0  0  0  0
 12 26  1  0  0  0  0
 12 24  1  0  0  0  0
 13 10  1  0  0  0  0
 13 27  1  0  0  0  0
 14 13  1  0  0  0  0
 14 15  2  0  0  0  0
 15 30  1  0  0  0  0
 16 17  1  0  0  0  0
 16  2  1  0  0  0  0
 17 33  1  0  0  0  0
 17 32  1  0  0  0  0
 19  7  1  0  0  0  0
 20  8  1  0  0  0  0
 25 12  1  0  0  0  0
 28 13  1  0  0  0  0
 29 14  1  0  0  0  0
 31 15  1  0  0  0  0
M  END
