3
 OpenBabel05122313113D

 75 78  0  0  1  0  0  0  0  0999 V2000
   -2.4353   -0.5710    0.4041 C   0  0  0  0  0  3  0  0  0  0  0  0
   -2.0352   -0.2030    1.3636 H   0  0  0  0  0  0  0  0  0  0  0  0
   -3.3244   -1.7085    0.4899 C   0  0  0  0  0  3  0  0  0  0  0  0
   -3.5244   -2.2587    1.4194 H   0  0  0  0  0  0  0  0  0  0  0  0
   -3.9517   -2.0256   -0.7552 C   0  0  2  0  0  3  0  0  0  0  0  0
   -3.6842   -1.0834   -1.8111 C   0  0  0  0  0  3  0  0  0  0  0  0
   -4.3508   -1.1738   -2.6850 H   0  0  0  0  0  0  0  0  0  0  0  0
   -2.2614   -0.6388   -2.0897 C   0  0  0  0  0  0  0  0  0  0  0  0
   -2.2781    0.3349   -2.6191 H   0  0  0  0  0  0  0  0  0  0  0  0
   -1.7691   -1.3587   -2.7819 H   0  0  0  0  0  0  0  0  0  0  0  0
   -1.4583   -0.5054   -0.7677 C   0  0  1  0  0  0  0  0  0  0  0  0
   -0.8094   -1.4024   -0.6623 H   0  0  0  0  0  0  0  0  0  0  0  0
   -4.8361   -3.0238   -0.9748 O   0  0  0  0  0  0  0  0  0  0  0  0
   -5.3848   -3.6771    0.1635 C   0  0  0  0  0  0  0  0  0  0  0  0
   -6.1497   -4.3790   -0.2151 H   0  0  0  0  0  0  0  0  0  0  0  0
   -5.8638   -2.9425    0.8481 H   0  0  0  0  0  0  0  0  0  0  0  0
   -4.6111   -4.2477    0.7216 H   0  0  0  0  0  0  0  0  0  0  0  0
   -0.5345    0.7038   -0.7396 C   0  0  0  0  0  0  0  0  0  0  0  0
    0.7615    0.6386   -1.2935 C   0  0  0  0  0  0  0  0  0  0  0  0
    1.6052    1.7696   -1.2241 C   0  0  0  0  0  0  0  0  0  0  0  0
    2.6187    1.6899   -1.6409 H   0  0  0  0  0  0  0  0  0  0  0  0
    1.1918    2.9649   -0.6220 C   0  0  0  0  0  0  0  0  0  0  0  0
   -0.1197    3.0338   -0.0671 C   0  0  0  0  0  0  0  0  0  0  0  0
   -0.9514    1.9076   -0.1347 C   0  0  0  0  0  0  0  0  0  0  0  0
   -1.9520    1.9522    0.3091 H   0  0  0  0  0  0  0  0  0  0  0  0
    1.3250   -0.6476   -1.8526 C   0  0  0  0  0  0  0  0  0  0  0  0
    0.5811   -1.1734   -2.4858 H   0  0  0  0  0  0  0  0  0  0  0  0
    2.1957   -0.4124   -2.5040 H   0  0  0  0  0  0  0  0  0  0  0  0
    1.7066   -1.5801   -0.8330 O   0  0  0  0  0  0  0  0  0  0  0  0
    3.0510   -1.4224    0.1972 Si  0  0  0  0  0  0  0  0  0  0  0  0
    4.4443   -0.5911   -0.7869 C   0  0  0  0  0  0  0  0  0  0  0  0
    4.8056   -1.1003   -2.0581 C   0  0  0  0  0  0  0  0  0  0  0  0
    4.2997   -1.9953   -2.4527 H   0  0  0  0  0  0  0  0  0  0  0  0
    5.7886   -0.4769   -2.8423 C   0  0  0  0  0  0  0  0  0  0  0  0
    6.0479   -0.8914   -3.8288 H   0  0  0  0  0  0  0  0  0  0  0  0
    6.4373    0.6756   -2.3710 C   0  0  0  0  0  0  0  0  0  0  0  0
    7.2096    1.1656   -2.9836 H   0  0  0  0  0  0  0  0  0  0  0  0
    6.0905    1.2022   -1.1169 C   0  0  0  0  0  0  0  0  0  0  0  0
    6.5894    2.1100   -0.7429 H   0  0  0  0  0  0  0  0  0  0  0  0
    5.1016    0.5777   -0.3395 C   0  0  0  0  0  0  0  0  0  0  0  0
    4.8237    1.0203    0.6292 H   0  0  0  0  0  0  0  0  0  0  0  0
    2.6316   -0.4135    1.7409 C   0  0  0  0  0  0  0  0  0  0  0  0
    3.6188   -0.0293    2.6804 C   0  0  0  0  0  0  0  0  0  0  0  0
    4.6740   -0.3007    2.5170 H   0  0  0  0  0  0  0  0  0  0  0  0
    3.2820    0.6992    3.8324 C   0  0  0  0  0  0  0  0  0  0  0  0
    4.0680    0.9905    4.5462 H   0  0  0  0  0  0  0  0  0  0  0  0
    1.9460    1.0585    4.0720 C   0  0  0  0  0  0  0  0  0  0  0  0
    1.6820    1.6372    4.9705 H   0  0  0  0  0  0  0  0  0  0  0  0
    0.9508    0.6749    3.1599 C   0  0  0  0  0  0  0  0  0  0  0  0
   -0.1000    0.9532    3.3372 H   0  0  0  0  0  0  0  0  0  0  0  0
    1.2925   -0.0571    2.0132 C   0  0  0  0  0  0  0  0  0  0  0  0
    0.5066   -0.3443    1.3020 H   0  0  0  0  0  0  0  0  0  0  0  0
    3.4294   -3.2359    0.7007 C   0  0  0  0  0  0  0  0  0  0  0  0
    3.7165   -4.0877   -0.5485 C   0  0  0  0  0  0  0  0  0  0  0  0
    3.8304   -5.1576   -0.2642 H   0  0  0  0  0  0  0  0  0  0  0  0
    4.6570   -3.7813   -1.0500 H   0  0  0  0  0  0  0  0  0  0  0  0
    2.8903   -4.0190   -1.2852 H   0  0  0  0  0  0  0  0  0  0  0  0
    4.6395   -3.2758    1.6503 C   0  0  0  0  0  0  0  0  0  0  0  0
    4.8738   -4.3272    1.9298 H   0  0  0  0  0  0  0  0  0  0  0  0
    4.4452   -2.7223    2.5913 H   0  0  0  0  0  0  0  0  0  0  0  0
    5.5494   -2.8468    1.1801 H   0  0  0  0  0  0  0  0  0  0  0  0
    2.1770   -3.7781    1.4178 C   0  0  0  0  0  0  0  0  0  0  0  0
    2.3426   -4.8314    1.7366 H   0  0  0  0  0  0  0  0  0  0  0  0
    1.2909   -3.7603    0.7511 H   0  0  0  0  0  0  0  0  0  0  0  0
    1.9326   -3.1863    2.3239 H   0  0  0  0  0  0  0  0  0  0  0  0
    1.9458    4.0905   -0.5127 O   0  0  0  0  0  0  0  0  0  0  0  0
    3.2633    4.0498   -1.0230 C   0  0  0  0  0  0  0  0  0  0  0  0
    3.7075    5.0428   -0.8237 H   0  0  0  0  0  0  0  0  0  0  0  0
    3.2804    3.8590   -2.1204 H   0  0  0  0  0  0  0  0  0  0  0  0
    3.8784    3.2667   -0.5259 H   0  0  0  0  0  0  0  0  0  0  0  0
   -0.4654    4.2168    0.5027 O   0  0  0  0  0  0  0  0  0  0  0  0
   -1.7736    4.3361    1.0289 C   0  0  0  0  0  0  0  0  0  0  0  0
   -1.8625    5.3685    1.4147 H   0  0  0  0  0  0  0  0  0  0  0  0
   -1.9531    3.6219    1.8650 H   0  0  0  0  0  0  0  0  0  0  0  0
   -2.5497    4.1676    0.2492 H   0  0  0  0  0  0  0  0  0  0  0  0
  1  3  1  0  0  0  0
  1  2  1  0  0  0  0
  3  4  1  0  0  0  0
  5 13  1  1  0  0  0
  5  3  1  0  0  0  0
  6  5  1  0  0  0  0
  7  6  1  0  0  0  0
  8  6  1  0  0  0  0
  8 11  1  0  0  0  0
  9  8  1  0  0  0  0
 10  8  1  0  0  0  0
 11 18  1  0  0  0  0
 11 12  1  1  0  0  0
 11  1  1  0  0  0  0
 13 14  1  0  0  0  0
 14 17  1  0  0  0  0
 14 16  1  0  0  0  0
 15 14  1  0  0  0  0
 18 24  1  0  0  0  0
 19 20  1  0  0  0  0
 19 18  2  0  0  0  0
 20 22  2  0  0  0  0
 21 20  1  0  0  0  0
 22 66  1  0  0  0  0
 22 23  1  0  0  0  0
 23 71  1  0  0  0  0
 24 23  2  0  0  0  0
 24 25  1  0  0  0  0
 26 19  1  0  0  0  0
 26 29  1  0  0  0  0
 27 26  1  0  0  0  0
 28 26  1  0  0  0  0
 29 30  1  0  0  0  0
 30 53  1  0  0  0  0
 30 42  1  0  0  0  0
 31 40  1  0  0  0  0
 31 30  1  0  0  0  0
 32 31  2  0  0  0  0
 33 32  1  0  0  0  0
 34 36  2  0  0  0  0
 34 32  1  0  0  0  0
 35 34  1  0  0  0  0
 36 38  1  0  0  0  0
 37 36  1  0  0  0  0
 38 39  1  0  0  0  0
 38 40  2  0  0  0  0
 40 41  1  0  0  0  0
 42 51  2  0  0  0  0
 42 43  1  0  0  0  0
 43 45  2  0  0  0  0
 44 43  1  0  0  0  0
 45 47  1  0  0  0  0
 45 46  1  0  0  0  0
 47 48  1  0  0  0  0
 49 50  1  0  0  0  0
 49 47  2  0  0  0  0
 51 49  1  0  0  0  0
 52 51  1  0  0  0  0
 53 62  1  0  0  0  0
 53 58  1  0  0  0  0
 54 55  1  0  0  0  0
 54 53  1  0  0  0  0
 56 54  1  0  0  0  0
 57 54  1  0  0  0  0
 58 59  1  0  0  0  0
 58 60  1  0  0  0  0
 61 58  1  0  0  0  0
 62 63  1  0  0  0  0
 62 65  1  0  0  0  0
 64 62  1  0  0  0  0
 67 68  1  0  0  0  0
 67 70  1  0  0  0  0
 67 66  1  0  0  0  0
 69 67  1  0  0  0  0
 71 72  1  0  0  0  0
 72 73  1  0  0  0  0
 72 74  1  0  0  0  0
 75 72  1  0  0  0  0
M  END
