3
 OpenBabel05122313113D

 38 40  0  0  1  0  0  0  0  0999 V2000
    0.6516    0.7686    0.1714 C   0  0  0  0  0  3  0  0  0  0  0  0
    0.3307    1.8025    0.3777 H   0  0  0  0  0  0  0  0  0  0  0  0
    1.2913    0.0809    1.2677 C   0  0  0  0  0  3  0  0  0  0  0  0
    1.3610    0.4998    2.2811 H   0  0  0  0  0  0  0  0  0  0  0  0
    1.9153   -1.1482    0.8942 C   0  0  1  0  0  3  0  0  0  0  0  0
    1.8389   -1.4306   -0.5188 C   0  0  0  0  0  3  0  0  0  0  0  0
    2.4717   -2.2634   -0.8638 H   0  0  0  0  0  0  0  0  0  0  0  0
    0.4462   -1.3754   -1.1177 C   0  0  2  0  0  0  0  0  0  0  0  0
    0.4975   -1.5456   -2.2205 H   0  0  0  0  0  0  0  0  0  0  0  0
   -0.1991    0.0145   -0.8465 C   0  0  1  0  0  0  0  0  0  0  0  0
   -0.1459    0.5905   -1.7956 H   0  0  0  0  0  0  0  0  0  0  0  0
    2.6154   -1.9701    1.7015 O   0  0  0  0  0  0  0  0  0  0  0  0
    3.0050   -1.4646    2.9721 C   0  0  0  0  0  0  0  0  0  0  0  0
    3.6488   -2.2350    3.4336 H   0  0  0  0  0  0  0  0  0  0  0  0
    2.1268   -1.2835    3.6291 H   0  0  0  0  0  0  0  0  0  0  0  0
    3.5810   -0.5190    2.8590 H   0  0  0  0  0  0  0  0  0  0  0  0
   -1.6758   -0.0659   -0.4747 C   0  0  0  0  0  0  0  0  0  0  0  0
   -2.3717   -1.2805   -0.5578 C   0  0  0  0  0  0  0  0  0  0  0  0
   -3.7528   -1.3258   -0.2729 C   0  0  0  0  0  0  0  0  0  0  0  0
   -4.4560   -0.1718    0.0941 C   0  0  0  0  0  0  0  0  0  0  0  0
   -3.7523    1.0691    0.1822 C   0  0  0  0  0  0  0  0  0  0  0  0
   -4.2752   -2.2911   -0.3335 H   0  0  0  0  0  0  0  0  0  0  0  0
   -2.3815    1.1009   -0.1008 C   0  0  0  0  0  0  0  0  0  0  0  0
   -1.8437    2.0567   -0.0452 H   0  0  0  0  0  0  0  0  0  0  0  0
   -1.6114   -2.5244   -0.9489 C   0  0  0  0  0  0  0  0  0  0  0  0
   -2.0533   -3.4227   -0.4710 H   0  0  0  0  0  0  0  0  0  0  0  0
   -1.6600   -2.6843   -2.0584 H   0  0  0  0  0  0  0  0  0  0  0  0
   -0.2659   -2.4577   -0.5195 O   0  0  0  0  0  0  0  0  0  0  0  0
   -5.7816   -0.1194    0.3919 O   0  0  0  0  0  0  0  0  0  0  0  0
   -6.5232   -1.3188    0.3155 C   0  0  0  0  0  0  0  0  0  0  0  0
   -6.5120   -1.7509   -0.7112 H   0  0  0  0  0  0  0  0  0  0  0  0
   -7.5645   -1.0622    0.5858 H   0  0  0  0  0  0  0  0  0  0  0  0
   -6.1448   -2.0890    1.0260 H   0  0  0  0  0  0  0  0  0  0  0  0
   -4.5024    2.1441    0.5459 O   0  0  0  0  0  0  0  0  0  0  0  0
   -3.8568    3.3953    0.6518 C   0  0  0  0  0  0  0  0  0  0  0  0
   -3.4197    3.7231   -0.3191 H   0  0  0  0  0  0  0  0  0  0  0  0
   -3.0463    3.3832    1.4162 H   0  0  0  0  0  0  0  0  0  0  0  0
   -4.6302    4.1230    0.9605 H   0  0  0  0  0  0  0  0  0  0  0  0
  1  2  1  0  0  0  0
  1  3  1  0  0  0  0
  3  4  1  0  0  0  0
  5  3  1  0  0  0  0
  5 12  1  6  0  0  0
  6  5  1  0  0  0  0
  7  6  1  0  0  0  0
  8  9  1  6  0  0  0
  8 10  1  0  0  0  0
  8 28  1  0  0  0  0
  8  6  1  0  0  0  0
 10 11  1  6  0  0  0
 10 17  1  0  0  0  0
 10  1  1  0  0  0  0
 12 13  1  0  0  0  0
 13 14  1  0  0  0  0
 13 15  1  0  0  0  0
 16 13  1  0  0  0  0
 17 23  1  0  0  0  0
 18 17  2  0  0  0  0
 18 19  1  0  0  0  0
 19 20  2  0  0  0  0
 20 21  1  0  0  0  0
 20 29  1  0  0  0  0
 21 34  1  0  0  0  0
 22 19  1  0  0  0  0
 23 24  1  0  0  0  0
 23 21  2  0  0  0  0
 25 18  1  0  0  0  0
 25 28  1  0  0  0  0
 25 26  1  0  0  0  0
 27 25  1  0  0  0  0
 30 29  1  0  0  0  0
 30 32  1  0  0  0  0
 30 33  1  0  0  0  0
 31 30  1  0  0  0  0
 34 35  1  0  0  0  0
 35 38  1  0  0  0  0
 35 37  1  0  0  0  0
 36 35  1  0  0  0  0
M  END
