6
 OpenBabel05122313113D

 17 17  0  0  0  0  0  0  0  0999 V2000
   -4.5800    1.7738    0.3134 O   0  0  0  0  0  0  0  0  0  0  0  0
   -5.4873   -0.0444   -0.5281 O   0  0  0  0  0  0  0  0  0  0  0  0
   -2.0176    0.5722    0.1359 N   0  0  0  0  0  0  0  0  0  0  0  0
   -1.6103   -1.3952   -0.7205 N   0  0  0  0  0  0  0  0  0  0  0  0
   -4.5249    0.6263   -0.1448 N   0  0  0  0  0  0  0  0  0  0  0  0
   -0.9975   -0.2934   -0.1512 C   0  0  0  0  0  2  0  0  0  0  0  0
   -3.2340    0.0081   -0.2507 C   0  0  0  0  0  0  0  0  0  0  0  0
   -2.9690   -1.2343   -0.7858 C   0  0  0  0  0  0  0  0  0  0  0  0
   -3.6645   -1.9715   -1.1957 H   0  0  0  0  0  0  0  0  0  0  0  0
   -1.8126    1.8243    0.8605 C   0  0  0  0  0  0  0  0  0  0  0  0
   -0.7374    1.8583    1.1187 H   0  0  0  0  0  0  0  0  0  0  0  0
   -2.4237    1.8313    1.7807 H   0  0  0  0  0  0  0  0  0  0  0  0
   -2.1027    2.6906    0.2389 H   0  0  0  0  0  0  0  0  0  0  0  0
   -0.8774   -2.6102   -1.0544 C   0  0  0  0  0  0  0  0  0  0  0  0
   -0.5030   -3.0678   -0.1172 H   0  0  0  0  0  0  0  0  0  0  0  0
   -0.0064   -2.3508   -1.6845 H   0  0  0  0  0  0  0  0  0  0  0  0
   -1.5478   -3.3048   -1.5927 H   0  0  0  0  0  0  0  0  0  0  0  0
  2  5  2  0  0  0  0
  3 10  1  0  0  0  0
  4  6  1  0  0  0  0
  5  1  2  0  0  0  0
  6  3  1  0  0  0  0
  7  5  1  0  0  0  0
  7  3  1  0  0  0  0
  8  4  1  0  0  0  0
  8  7  2  0  0  0  0
  9  8  1  0  0  0  0
 10 11  1  0  0  0  0
 10 12  1  0  0  0  0
 13 10  1  0  0  0  0
 14  4  1  0  0  0  0
 14 15  1  0  0  0  0
 16 14  1  0  0  0  0
 17 14  1  0  0  0  0
M  END
