4
 OpenBabel05122313113D

 29 28  0  0  0  0  0  0  0  0999 V2000
    1.6119   -0.1445   -2.5418 C   0  0  0  0  0  3  0  0  0  0  0  0
    1.2373    0.8638   -2.7853 H   0  0  0  0  0  0  0  0  0  0  0  0
    2.4092   -0.5242   -3.2016 H   0  0  0  0  0  0  0  0  0  0  0  0
    0.7026   -1.0960   -1.9458 C   0  0  0  0  0  3  0  0  0  0  0  0
    0.8036   -2.1848   -2.1077 H   0  0  0  0  0  0  0  0  0  0  0  0
   -0.1860   -0.5656   -0.9516 C   0  0  0  0  0  3  0  0  0  0  0  0
   -0.5392    0.4596   -1.1468 H   0  0  0  0  0  0  0  0  0  0  0  0
   -1.1474   -1.3765   -0.1251 C   0  0  0  0  0  0  0  0  0  0  0  0
   -0.7988   -2.4268   -0.0181 H   0  0  0  0  0  0  0  0  0  0  0  0
   -1.1699   -0.9442    0.8990 H   0  0  0  0  0  0  0  0  0  0  0  0
   -2.5693   -1.3291   -0.7105 C   0  0  0  0  0  0  0  0  0  0  0  0
   -2.6020   -1.9013   -1.6644 H   0  0  0  0  0  0  0  0  0  0  0  0
   -2.7952   -0.2751   -0.9835 H   0  0  0  0  0  0  0  0  0  0  0  0
   -3.6601   -1.8241    0.2404 C   0  0  0  0  0  0  0  0  0  0  0  0
   -3.4887   -2.8935    0.5000 H   0  0  0  0  0  0  0  0  0  0  0  0
   -3.5765   -1.2648    1.2000 H   0  0  0  0  0  0  0  0  0  0  0  0
   -5.0736   -1.6468   -0.3199 C   0  0  0  0  0  0  0  0  0  0  0  0
   -5.1709   -2.2187   -1.2706 H   0  0  0  0  0  0  0  0  0  0  0  0
   -5.2152   -0.5782   -0.6008 H   0  0  0  0  0  0  0  0  0  0  0  0
   -6.1880   -2.0641    0.6419 C   0  0  0  0  0  0  0  0  0  0  0  0
   -6.0600   -3.1361    0.9162 H   0  0  0  0  0  0  0  0  0  0  0  0
   -6.0792   -1.4993    1.5961 H   0  0  0  0  0  0  0  0  0  0  0  0
   -7.5987   -1.8474    0.0858 C   0  0  0  0  0  0  0  0  0  0  0  0
   -7.7040   -2.4103   -0.8686 H   0  0  0  0  0  0  0  0  0  0  0  0
   -7.7190   -0.7749   -0.1880 H   0  0  0  0  0  0  0  0  0  0  0  0
   -8.7088   -2.2598    1.0529 C   0  0  0  0  0  0  0  0  0  0  0  0
   -8.6351   -3.3361    1.3152 H   0  0  0  0  0  0  0  0  0  0  0  0
   -9.7162   -2.0894    0.6221 H   0  0  0  0  0  0  0  0  0  0  0  0
   -8.6498   -1.6868    2.0021 H   0  0  0  0  0  0  0  0  0  0  0  0
  1  4  1  0  0  0  0
  2  1  1  0  0  0  0
  3  1  1  0  0  0  0
  4  6  1  0  0  0  0
  5  4  1  0  0  0  0
  6  8  1  0  0  0  0
  7  6  1  0  0  0  0
  8  9  1  0  0  0  0
  8 10  1  0  0  0  0
 11  8  1  0  0  0  0
 11 14  1  0  0  0  0
 12 11  1  0  0  0  0
 13 11  1  0  0  0  0
 14 15  1  0  0  0  0
 14 16  1  0  0  0  0
 17 14  1  0  0  0  0
 17 20  1  0  0  0  0
 18 17  1  0  0  0  0
 19 17  1  0  0  0  0
 20 21  1  0  0  0  0
 20 22  1  0  0  0  0
 23 20  1  0  0  0  0
 23 26  1  0  0  0  0
 24 23  1  0  0  0  0
 25 23  1  0  0  0  0
 26 27  1  0  0  0  0
 26 29  1  0  0  0  0
 28 26  1  0  0  0  0
M  END
