1
 OpenBabel05122313113D

 23 23  0  0  0  0  0  0  0  0999 V2000
    2.1770   -0.8123   -0.7704 C   0  0  0  0  0  3  0  0  0  0  0  0
    2.0309   -1.8589   -0.4577 H   0  0  0  0  0  0  0  0  0  0  0  0
    3.4392   -0.2570   -0.1940 C   0  0  0  0  0  0  0  0  0  0  0  0
    3.9375    1.0341   -0.5419 C   0  0  0  0  0  0  0  0  0  0  0  0
    5.0993    1.5186    0.0825 C   0  0  0  0  0  0  0  0  0  0  0  0
    5.4676    2.5198   -0.1984 H   0  0  0  0  0  0  0  0  0  0  0  0
    5.7966    0.7804    1.0552 C   0  0  0  0  0  0  0  0  0  0  0  0
    5.2826   -0.4795    1.4036 C   0  0  0  0  0  0  0  0  0  0  0  0
    5.8003   -1.0774    2.1723 H   0  0  0  0  0  0  0  0  0  0  0  0
    4.1297   -1.0119    0.7988 C   0  0  0  0  0  0  0  0  0  0  0  0
    3.2224    1.9032   -1.5400 C   0  0  0  0  0  0  0  0  0  0  0  0
    3.6483    2.9249   -1.5647 H   0  0  0  0  0  0  0  0  0  0  0  0
    2.1395    1.9658   -1.2843 H   0  0  0  0  0  0  0  0  0  0  0  0
    3.2567    1.4702   -2.5593 H   0  0  0  0  0  0  0  0  0  0  0  0
    7.0608    1.3151    1.6808 C   0  0  0  0  0  0  0  0  0  0  0  0
    6.9976    2.4076    1.8610 H   0  0  0  0  0  0  0  0  0  0  0  0
    7.9395    1.1494    1.0198 H   0  0  0  0  0  0  0  0  0  0  0  0
    7.2809    0.8196    2.6471 H   0  0  0  0  0  0  0  0  0  0  0  0
    3.6357   -2.3701    1.2387 C   0  0  0  0  0  0  0  0  0  0  0  0
    4.3081   -2.8052    2.0033 H   0  0  0  0  0  0  0  0  0  0  0  0
    3.5814   -3.0845    0.3900 H   0  0  0  0  0  0  0  0  0  0  0  0
    2.6136   -2.3204    1.6715 H   0  0  0  0  0  0  0  0  0  0  0  0
    2.2666   -1.0080   -2.6316 Cl  0  0  0  0  0  0  0  0  0  0  0  0
  1  2  1  0  0  0  0
  1  3  1  0  0  0  0
  3 10  1  0  0  0  0
  4  3  2  0  0  0  0
  4  5  1  0  0  0  0
  5  7  2  0  0  0  0
  6  5  1  0  0  0  0
  7  8  1  0  0  0  0
  7 15  1  0  0  0  0
  8  9  1  0  0  0  0
 10 19  1  0  0  0  0
 10  8  2  0  0  0  0
 11 13  1  0  0  0  0
 11  4  1  0  0  0  0
 12 11  1  0  0  0  0
 14 11  1  0  0  0  0
 15 16  1  0  0  0  0
 15 18  1  0  0  0  0
 17 15  1  0  0  0  0
 19 22  1  0  0  0  0
 19 20  1  0  0  0  0
 21 19  1  0  0  0  0
 23  1  1  0  0  0  0
M  END
