29
 OpenBabel05122313113D

 45 47  0  0  0  0  0  0  0  0999 V2000
    1.3864    1.7475   -0.7157 N   0  0  0  0  0  0  0  0  0  0  0  0
    1.5894   -1.8703   -1.0820 N   0  0  0  0  0  0  0  0  0  0  0  0
    0.5612   -1.4448   -0.3035 C   0  0  0  0  0  2  0  0  0  0  0  0
    2.8953   -1.3198   -0.9475 C   0  0  0  0  0  0  0  0  0  0  0  0
    3.9435   -2.1760   -0.5566 C   0  0  0  0  0  0  0  0  0  0  0  0
    5.2456   -1.6959   -0.3804 C   0  0  0  0  0  0  0  0  0  0  0  0
    5.5154   -0.3345   -0.5763 C   0  0  0  0  0  0  0  0  0  0  0  0
    4.4805    0.5148   -0.9878 C   0  0  0  0  0  0  0  0  0  0  0  0
    3.1652    0.0548   -1.2032 C   0  0  0  0  0  0  0  0  0  0  0  0
    2.1584    1.0393   -1.7654 C   0  0  0  0  0  0  0  0  0  0  0  0
    0.6686    2.9454   -1.1703 C   0  0  0  0  0  0  0  0  0  0  0  0
   -0.0003    3.7402   -0.0303 C   0  0  0  0  0  0  0  0  0  0  0  0
    3.7111   -3.2325   -0.3531 H   0  0  0  0  0  0  0  0  0  0  0  0
    6.0432   -2.3834   -0.0615 H   0  0  0  0  0  0  0  0  0  0  0  0
    6.5291    0.0632   -0.4225 H   0  0  0  0  0  0  0  0  0  0  0  0
    4.7005    1.5765   -1.1865 H   0  0  0  0  0  0  0  0  0  0  0  0
    1.4272    0.5307   -2.4261 H   0  0  0  0  0  0  0  0  0  0  0  0
    2.7145    1.7826   -2.3840 H   0  0  0  0  0  0  0  0  0  0  0  0
   -0.0936    2.5874   -1.8922 H   0  0  0  0  0  0  0  0  0  0  0  0
    1.3483    3.6318   -1.7302 H   0  0  0  0  0  0  0  0  0  0  0  0
   -0.7445    4.4096   -0.5123 H   0  0  0  0  0  0  0  0  0  0  0  0
    2.0113    1.9662    0.0736 H   0  0  0  0  0  0  0  0  0  0  0  0
    1.5451   -2.8276   -1.4441 H   0  0  0  0  0  0  0  0  0  0  0  0
   -1.3866    1.7591    0.6881 N   0  0  0  0  0  0  0  0  0  0  0  0
   -2.1582    1.0681    1.7495 C   0  0  0  0  0  0  0  0  0  0  0  0
   -3.1659    0.0755    1.2037 C   0  0  0  0  0  0  0  0  0  0  0  0
   -2.8968   -1.3031    0.9691 C   0  0  0  0  0  0  0  0  0  0  0  0
   -1.5911   -1.8521    1.1115 N   0  0  0  0  0  0  0  0  0  0  0  0
   -0.5631   -1.4395    0.3259 C   0  0  0  0  0  2  0  0  0  0  0  0
   -1.5474   -2.8039    1.4879 H   0  0  0  0  0  0  0  0  0  0  0  0
   -3.9456   -2.1647    0.5920 C   0  0  0  0  0  0  0  0  0  0  0  0
   -5.2476   -1.6868    0.4090 C   0  0  0  0  0  0  0  0  0  0  0  0
   -5.5166   -0.3224    0.5840 C   0  0  0  0  0  0  0  0  0  0  0  0
   -4.4811    0.5327    0.9819 C   0  0  0  0  0  0  0  0  0  0  0  0
   -4.7006    1.5974    1.1642 H   0  0  0  0  0  0  0  0  0  0  0  0
   -6.5303    0.0733    0.4247 H   0  0  0  0  0  0  0  0  0  0  0  0
   -6.0457   -2.3788    0.1012 H   0  0  0  0  0  0  0  0  0  0  0  0
   -3.7138   -3.2243    0.4047 H   0  0  0  0  0  0  0  0  0  0  0  0
   -1.4268    0.5695    2.4176 H   0  0  0  0  0  0  0  0  0  0  0  0
   -2.7133    1.8214    2.3567 H   0  0  0  0  0  0  0  0  0  0  0  0
   -0.6683    2.9640    1.1228 C   0  0  0  0  0  0  0  0  0  0  0  0
    0.7433    4.4182    0.4405 H   0  0  0  0  0  0  0  0  0  0  0  0
    0.0944    2.6176    1.8499 H   0  0  0  0  0  0  0  0  0  0  0  0
   -1.3475    3.6595    1.6721 H   0  0  0  0  0  0  0  0  0  0  0  0
   -2.0118    1.9650   -0.1044 H   0  0  0  0  0  0  0  0  0  0  0  0
  1 22  1  0  0  0  0
  2  4  1  0  0  0  0
  2  3  1  0  0  0  0
  3 29  1  0  0  0  0
  4  5  1  0  0  0  0
  5  6  2  0  0  0  0
  5 13  1  0  0  0  0
  6 14  1  0  0  0  0
  7 15  1  0  0  0  0
  7  6  1  0  0  0  0
  8  7  2  0  0  0  0
  9  8  1  0  0  0  0
  9  4  2  0  0  0  0
 10  9  1  0  0  0  0
 10  1  1  0  0  0  0
 11  1  1  0  0  0  0
 11 12  1  0  0  0  0
 12 42  1  0  0  0  0
 12 41  1  0  0  0  0
 16  8  1  0  0  0  0
 17 10  1  0  0  0  0
 18 10  1  0  0  0  0
 19 11  1  0  0  0  0
 20 11  1  0  0  0  0
 21 12  1  0  0  0  0
 23  2  1  0  0  0  0
 24 41  1  0  0  0  0
 24 25  1  0  0  0  0
 25 40  1  0  0  0  0
 25 39  1  0  0  0  0
 26 25  1  0  0  0  0
 27 28  1  0  0  0  0
 27 26  2  0  0  0  0
 28 30  1  0  0  0  0
 29 28  1  0  0  0  0
 31 27  1  0  0  0  0
 32 33  1  0  0  0  0
 32 31  2  0  0  0  0
 33 34  2  0  0  0  0
 34 35  1  0  0  0  0
 34 26  1  0  0  0  0
 36 33  1  0  0  0  0
 37 32  1  0  0  0  0
 38 31  1  0  0  0  0
 41 44  1  0  0  0  0
 41 43  1  0  0  0  0
 45 24  1  0  0  0  0
M  END
