5
 OpenBabel05122313113D

 31 33  0  0  0  0  0  0  0  0999 V2000
    3.4529   -1.7484    0.0214 O   0  0  0  0  0  0  0  0  0  0  0  0
    3.4531    1.7480    0.0213 O   0  0  0  0  0  0  0  0  0  0  0  0
    1.2756   -1.0589    0.1360 N   0  0  0  0  0  0  0  0  0  0  0  0
    1.2758    1.0589    0.1362 N   0  0  0  0  0  0  0  0  0  0  0  0
    0.4212    0.0000    0.1421 C   0  0  0  0  0  2  0  0  0  0  0  0
    2.6202   -0.6856    0.0921 C   0  0  0  0  0  0  0  0  0  0  0  0
    2.6203    0.6854    0.0922 C   0  0  0  0  0  0  0  0  0  0  0  0
    1.1624   -2.5261   -0.0231 C   0  0  0  0  0  0  0  0  0  0  0  0
    2.6266   -2.8872    0.3817 C   0  0  0  0  0  0  0  0  0  0  0  0
    2.6989   -3.0478    1.4806 H   0  0  0  0  0  0  0  0  0  0  0  0
    3.0160   -3.7725   -0.1534 H   0  0  0  0  0  0  0  0  0  0  0  0
    1.1626    2.5259   -0.0236 C   0  0  0  0  0  0  0  0  0  0  0  0
    2.6269    2.8871    0.3810 C   0  0  0  0  0  0  0  0  0  0  0  0
    3.0164    3.7721   -0.1544 H   0  0  0  0  0  0  0  0  0  0  0  0
    2.6992    3.0482    1.4799 H   0  0  0  0  0  0  0  0  0  0  0  0
    0.8750   -2.8492   -1.4963 C   0  0  0  0  0  0  0  0  0  0  0  0
   -0.0613   -2.3519   -1.8194 H   0  0  0  0  0  0  0  0  0  0  0  0
    0.7804   -3.9445   -1.6351 H   0  0  0  0  0  0  0  0  0  0  0  0
    1.6961   -2.4803   -2.1427 H   0  0  0  0  0  0  0  0  0  0  0  0
    0.1203   -3.1242    0.9164 C   0  0  0  0  0  0  0  0  0  0  0  0
    0.1279   -4.2293    0.8402 H   0  0  0  0  0  0  0  0  0  0  0  0
   -0.8892   -2.7587    0.6359 H   0  0  0  0  0  0  0  0  0  0  0  0
    0.3122   -2.8346    1.9684 H   0  0  0  0  0  0  0  0  0  0  0  0
    0.8753    2.8485   -1.4969 C   0  0  0  0  0  0  0  0  0  0  0  0
    1.6963    2.4792   -2.1432 H   0  0  0  0  0  0  0  0  0  0  0  0
    0.7809    3.9437   -1.6362 H   0  0  0  0  0  0  0  0  0  0  0  0
   -0.0611    2.3512   -1.8198 H   0  0  0  0  0  0  0  0  0  0  0  0
    0.1206    3.1245    0.9157 C   0  0  0  0  0  0  0  0  0  0  0  0
   -0.8889    2.7591    0.6353 H   0  0  0  0  0  0  0  0  0  0  0  0
    0.1283    4.2297    0.8391 H   0  0  0  0  0  0  0  0  0  0  0  0
    0.3125    2.8354    1.9678 H   0  0  0  0  0  0  0  0  0  0  0  0
  1  6  1  0  0  0  0
  1  9  1  0  0  0  0
  2  7  1  0  0  0  0
  2 13  1  0  0  0  0
  3  5  1  0  0  0  0
  4  5  1  0  0  0  0
  6  7  2  0  0  0  0
  6  3  1  0  0  0  0
  7  4  1  0  0  0  0
  8  3  1  0  0  0  0
  8  9  1  0  0  0  0
  8 20  1  0  0  0  0
  9 10  1  0  0  0  0
 11  9  1  0  0  0  0
 12  4  1  0  0  0  0
 12 13  1  0  0  0  0
 12 28  1  0  0  0  0
 13 15  1  0  0  0  0
 14 13  1  0  0  0  0
 16  8  1  0  0  0  0
 17 16  1  0  0  0  0
 18 16  1  0  0  0  0
 19 16  1  0  0  0  0
 20 23  1  0  0  0  0
 21 20  1  0  0  0  0
 22 20  1  0  0  0  0
 24 12  1  0  0  0  0
 25 24  1  0  0  0  0
 26 24  1  0  0  0  0
 27 24  1  0  0  0  0
 28 31  1  0  0  0  0
 29 28  1  0  0  0  0
 30 28  1  0  0  0  0
M  END
