2
 OpenBabel05122313113D

 19 19  0  0  0  0  0  0  0  0999 V2000
    1.9446    1.1441   -1.0407 C   0  0  0  0  0  3  0  0  0  0  0  0
    1.7012   -0.0156   -1.8475 C   0  0  0  0  0  3  0  0  0  0  0  0
    1.8586   -1.3576   -1.4114 C   0  0  0  0  0  3  0  0  0  0  0  0
    2.7930   -1.7739   -0.2858 C   0  0  0  0  0  0  0  0  0  0  0  0
    1.9873   -1.3588    0.9279 C   0  0  0  0  0  3  0  0  0  0  0  0
    1.9193   -0.1021    1.5478 C   0  0  0  0  0  3  0  0  0  0  0  0
    2.8150    1.0978    1.3424 C   0  0  0  0  0  0  0  0  0  0  0  0
    3.1579    1.3415   -0.1285 C   0  0  0  0  0  0  0  0  0  0  0  0
    1.5717    2.0778   -1.4992 H   0  0  0  0  0  0  0  0  0  0  0  0
    1.1627    0.1211   -2.8020 H   0  0  0  0  0  0  0  0  0  0  0  0
    1.4852   -2.1422   -2.0891 H   0  0  0  0  0  0  0  0  0  0  0  0
    2.9357   -2.8696   -0.2858 H   0  0  0  0  0  0  0  0  0  0  0  0
    3.7973   -1.3142   -0.3488 H   0  0  0  0  0  0  0  0  0  0  0  0
    1.4819   -2.1898    1.4480 H   0  0  0  0  0  0  0  0  0  0  0  0
    1.3894   -0.1040    2.5186 H   0  0  0  0  0  0  0  0  0  0  0  0
    2.2838    1.9841    1.7496 H   0  0  0  0  0  0  0  0  0  0  0  0
    3.7320    0.9857    1.9646 H   0  0  0  0  0  0  0  0  0  0  0  0
    3.5396    2.3740   -0.2530 H   0  0  0  0  0  0  0  0  0  0  0  0
    3.9858    0.6832   -0.4544 H   0  0  0  0  0  0  0  0  0  0  0  0
  1  8  1  0  0  0  0
  2  3  1  0  0  0  0
  2  1  1  0  0  0  0
  3  4  1  0  0  0  0
  4  5  1  0  0  0  0
  5 14  1  0  0  0  0
  5  6  1  0  0  0  0
  6 15  1  0  0  0  0
  7  6  1  0  0  0  0
  7 16  1  0  0  0  0
  7 17  1  0  0  0  0
  8  7  1  0  0  0  0
  9  1  1  0  0  0  0
 10  2  1  0  0  0  0
 11  3  1  0  0  0  0
 12  4  1  0  0  0  0
 13  4  1  0  0  0  0
 18  8  1  0  0  0  0
 19  8  1  0  0  0  0
M  END
