5
 OpenBabel05122313113D

 24 24  0  0  0  0  0  0  0  0999 V2000
   -1.1108    1.1402   -0.7466 C   0  0  0  0  0  0  0  0  0  0  0  0
    0.2386    1.3979   -0.2735 C   0  0  0  0  0  0  0  0  0  0  0  0
    1.3275    0.6332   -0.8390 C   0  0  0  0  0  0  0  0  0  0  0  0
    1.0444   -0.4912   -1.6780 C   0  0  0  0  0  3  0  0  0  0  0  0
   -0.2916   -0.7747   -2.0611 C   0  0  0  0  0  3  0  0  0  0  0  0
   -1.3708    0.0219   -1.5948 C   0  0  0  0  0  0  0  0  0  0  0  0
   -2.0316    1.9544   -0.2586 O   0  0  0  0  0  0  0  0  0  0  0  0
    0.3568    2.4356    0.5461 O   0  0  0  0  0  0  0  0  0  0  0  0
    2.5518    1.0025   -0.4744 O   0  0  0  0  0  0  0  0  0  0  0  0
   -3.4202    1.7319   -0.5534 C   0  0  0  0  0  0  0  0  0  0  0  0
    1.3824    2.5249    1.5548 C   0  0  0  0  0  0  0  0  0  0  0  0
    3.6934    0.2175   -0.8599 C   0  0  0  0  0  0  0  0  0  0  0  0
    1.8601   -1.1281   -2.0409 H   0  0  0  0  0  0  0  0  0  0  0  0
   -0.4951   -1.6328   -2.7176 H   0  0  0  0  0  0  0  0  0  0  0  0
   -2.3981   -0.2280   -1.8856 H   0  0  0  0  0  0  0  0  0  0  0  0
   -3.7549    0.7569   -0.1428 H   0  0  0  0  0  0  0  0  0  0  0  0
   -3.6071    1.7805   -1.6453 H   0  0  0  0  0  0  0  0  0  0  0  0
   -3.9640    2.5488   -0.0490 H   0  0  0  0  0  0  0  0  0  0  0  0
    1.4919    1.5548    2.0808 H   0  0  0  0  0  0  0  0  0  0  0  0
    1.0224    3.2930    2.2618 H   0  0  0  0  0  0  0  0  0  0  0  0
    2.3501    2.8315    1.1184 H   0  0  0  0  0  0  0  0  0  0  0  0
    3.7884    0.1726   -1.9635 H   0  0  0  0  0  0  0  0  0  0  0  0
    4.5682    0.7402   -0.4367 H   0  0  0  0  0  0  0  0  0  0  0  0
    3.6294   -0.8030   -0.4298 H   0  0  0  0  0  0  0  0  0  0  0  0
  1  2  1  0  0  0  0
  1  7  1  0  0  0  0
  2  8  1  0  0  0  0
  3  9  1  0  0  0  0
  3  2  2  0  0  0  0
  4  3  1  0  0  0  0
  5  4  1  0  0  0  0
  5  6  1  0  0  0  0
  6  1  2  0  0  0  0
  8 11  1  0  0  0  0
 10  7  1  0  0  0  0
 10 16  1  0  0  0  0
 10 18  1  0  0  0  0
 11 19  1  0  0  0  0
 11 20  1  0  0  0  0
 12  9  1  0  0  0  0
 12 23  1  0  0  0  0
 12 24  1  0  0  0  0
 13  4  1  0  0  0  0
 14  5  1  0  0  0  0
 15  6  1  0  0  0  0
 17 10  1  0  0  0  0
 21 11  1  0  0  0  0
 22 12  1  0  0  0  0
M  END
