3
 OpenBabel05122313113D

 35 37  0  0  0  0  0  0  0  0999 V2000
   -1.2778    1.1083   -0.6640 N   0  0  0  0  0  0  0  0  0  0  0  0
   -3.4515    0.8967   -0.8473 N   0  0  0  0  0  0  0  0  0  0  0  0
    2.4114    1.6042   -1.4043 C   0  0  0  0  0  3  0  0  0  0  0  0
    3.1481    2.0555   -0.2521 C   0  0  0  0  0  3  0  0  0  0  0  0
    2.6341    2.8014    0.8689 C   0  0  0  0  0  0  0  0  0  0  0  0
    1.3243    3.0800    1.2202 C   0  0  0  0  0  0  0  0  0  0  0  0
    0.1329    2.5429    0.6515 C   0  0  0  0  0  0  0  0  0  0  0  0
    0.0280    1.6702   -0.4207 C   0  0  0  0  0  0  0  0  0  0  0  0
    1.0471    1.1719   -1.3257 C   0  0  0  0  0  3  0  0  0  0  0  0
   -2.4498    1.7784   -0.6297 C   0  0  0  0  0  3  0  0  0  0  0  0
   -1.5326   -0.2350   -0.9301 C   0  0  0  0  0  0  0  0  0  0  0  0
   -2.8986   -0.3602   -1.0381 C   0  0  0  0  0  0  0  0  0  0  0  0
   -4.8850    1.2214   -0.8971 C   0  0  0  0  0  0  0  0  0  0  0  0
   -5.7059    0.3077   -0.0146 C   0  0  0  0  0  0  0  0  0  0  0  0
   -5.4695    0.2607    1.3742 C   0  0  0  0  0  0  0  0  0  0  0  0
   -6.2215   -0.5940    2.1901 C   0  0  0  0  0  0  0  0  0  0  0  0
   -7.2199   -1.4074    1.6272 C   0  0  0  0  0  0  0  0  0  0  0  0
   -7.4610   -1.3648    0.2464 C   0  0  0  0  0  0  0  0  0  0  0  0
   -6.7032   -0.5124   -0.5725 C   0  0  0  0  0  0  0  0  0  0  0  0
    2.9366    1.4956   -2.3676 H   0  0  0  0  0  0  0  0  0  0  0  0
    4.2391    2.1082   -0.3873 H   0  0  0  0  0  0  0  0  0  0  0  0
    3.4086    3.1935    1.5476 H   0  0  0  0  0  0  0  0  0  0  0  0
    1.1786    3.6983    2.1192 H   0  0  0  0  0  0  0  0  0  0  0  0
   -0.7959    2.7499    1.2073 H   0  0  0  0  0  0  0  0  0  0  0  0
    0.6614    0.6710   -2.2275 H   0  0  0  0  0  0  0  0  0  0  0  0
   -2.5633    2.8566   -0.4867 H   0  0  0  0  0  0  0  0  0  0  0  0
   -0.7053   -0.9857   -0.9511 H   0  0  0  0  0  0  0  0  0  0  0  0
   -3.5229   -1.2435   -1.2012 H   0  0  0  0  0  0  0  0  0  0  0  0
   -5.2253    1.1535   -1.9504 H   0  0  0  0  0  0  0  0  0  0  0  0
   -4.9819    2.2801   -0.5838 H   0  0  0  0  0  0  0  0  0  0  0  0
   -4.6848    0.8927    1.8201 H   0  0  0  0  0  0  0  0  0  0  0  0
   -6.0282   -0.6267    3.2727 H   0  0  0  0  0  0  0  0  0  0  0  0
   -7.8093   -2.0786    2.2694 H   0  0  0  0  0  0  0  0  0  0  0  0
   -8.2394   -2.0018   -0.1994 H   0  0  0  0  0  0  0  0  0  0  0  0
   -6.8903   -0.4831   -1.6578 H   0  0  0  0  0  0  0  0  0  0  0  0
  1 10  1  0  0  0  0
  1  8  1  0  0  0  0
  2 10  1  0  0  0  0
  3  9  1  0  0  0  0
  3  4  1  0  0  0  0
  4  5  1  0  0  0  0
  5  6  2  0  0  0  0
  5 22  1  0  0  0  0
  6 23  1  0  0  0  0
  7 24  1  0  0  0  0
  7  6  1  0  0  0  0
  8  7  2  0  0  0  0
  9  8  1  0  0  0  0
 10 26  1  0  0  0  0
 11  1  1  0  0  0  0
 12 11  2  0  0  0  0
 12  2  1  0  0  0  0
 13  2  1  0  0  0  0
 13 30  1  0  0  0  0
 13 14  1  0  0  0  0
 14 15  1  0  0  0  0
 15 31  1  0  0  0  0
 15 16  2  0  0  0  0
 16 32  1  0  0  0  0
 17 16  1  0  0  0  0
 17 33  1  0  0  0  0
 18 17  2  0  0  0  0
 19 14  2  0  0  0  0
 19 18  1  0  0  0  0
 20  3  1  0  0  0  0
 21  4  1  0  0  0  0
 25  9  1  0  0  0  0
 27 11  1  0  0  0  0
 28 12  1  0  0  0  0
 29 13  1  0  0  0  0
 34 18  1  0  0  0  0
 35 19  1  0  0  0  0
M  END
