3
 OpenBabel05122313113D

 41 43  0  0  0  0  0  0  0  0999 V2000
   -0.5784    2.2266    0.2014 N   0  0  0  0  0  0  0  0  0  0  0  0
   -2.6023    1.4009    0.3121 N   0  0  0  0  0  0  0  0  0  0  0  0
    2.6436    1.3425   -1.6001 C   0  0  0  0  0  3  0  0  0  0  0  0
    3.7645    1.3381   -0.6942 C   0  0  0  0  0  3  0  0  0  0  0  0
    3.9331    2.1771    0.4669 C   0  0  0  0  0  0  0  0  0  0  0  0
    3.0004    2.9515    1.1329 C   0  0  0  0  0  0  0  0  0  0  0  0
    1.5858    2.9616    0.9546 C   0  0  0  0  0  0  0  0  0  0  0  0
    0.8488    2.2781    0.0015 C   0  0  0  0  0  0  0  0  0  0  0  0
    1.2975    1.5200   -1.1520 C   0  0  0  0  0  3  0  0  0  0  0  0
   -1.3346    1.1404   -0.0804 C   0  0  0  0  0  3  0  0  0  0  0  0
   -1.3901    3.2050    0.7692 C   0  0  0  0  0  0  0  0  0  0  0  0
   -2.6585    2.6819    0.8457 C   0  0  0  0  0  0  0  0  0  0  0  0
   -3.6870    0.4524    0.2463 C   0  0  0  0  0  0  0  0  0  0  0  0
   -4.7522    0.7023   -0.6458 C   0  0  0  0  0  0  0  0  0  0  0  0
   -5.7938   -0.2406   -0.6874 C   0  0  0  0  0  0  0  0  0  0  0  0
   -5.7849   -1.3962    0.1153 C   0  0  0  0  0  0  0  0  0  0  0  0
   -4.6969   -1.5999    0.9846 C   0  0  0  0  0  0  0  0  0  0  0  0
   -3.6260   -0.6936    1.0736 C   0  0  0  0  0  0  0  0  0  0  0  0
   -4.7736    1.9214   -1.5333 C   0  0  0  0  0  0  0  0  0  0  0  0
   -6.8944   -2.4123    0.0270 C   0  0  0  0  0  0  0  0  0  0  0  0
   -2.4604   -0.9541    1.9890 C   0  0  0  0  0  0  0  0  0  0  0  0
    2.8086    1.1054   -2.6640 H   0  0  0  0  0  0  0  0  0  0  0  0
    4.6978    0.9301   -1.1118 H   0  0  0  0  0  0  0  0  0  0  0  0
    4.9543    2.1868    0.8809 H   0  0  0  0  0  0  0  0  0  0  0  0
    3.3700    3.5388    1.9875 H   0  0  0  0  0  0  0  0  0  0  0  0
    1.0150    3.4733    1.7452 H   0  0  0  0  0  0  0  0  0  0  0  0
    0.5229    1.3229   -1.9103 H   0  0  0  0  0  0  0  0  0  0  0  0
   -0.9436    0.1553   -0.4488 H   0  0  0  0  0  0  0  0  0  0  0  0
   -1.0043    4.1891    1.0459 H   0  0  0  0  0  0  0  0  0  0  0  0
   -3.5906    3.1067    1.2277 H   0  0  0  0  0  0  0  0  0  0  0  0
   -6.6332   -0.0698   -1.3799 H   0  0  0  0  0  0  0  0  0  0  0  0
   -4.6736   -2.4996    1.6194 H   0  0  0  0  0  0  0  0  0  0  0  0
   -5.5140    1.8008   -2.3461 H   0  0  0  0  0  0  0  0  0  0  0  0
   -3.7842    2.1117   -1.9959 H   0  0  0  0  0  0  0  0  0  0  0  0
   -5.0486    2.8403   -0.9733 H   0  0  0  0  0  0  0  0  0  0  0  0
   -7.7955   -1.9963   -0.4631 H   0  0  0  0  0  0  0  0  0  0  0  0
   -7.1837   -2.7855    1.0297 H   0  0  0  0  0  0  0  0  0  0  0  0
   -6.5705   -3.2955   -0.5639 H   0  0  0  0  0  0  0  0  0  0  0  0
   -2.7162   -1.7233    2.7411 H   0  0  0  0  0  0  0  0  0  0  0  0
   -2.1383   -0.0390    2.5261 H   0  0  0  0  0  0  0  0  0  0  0  0
   -1.5780   -1.3254    1.4165 H   0  0  0  0  0  0  0  0  0  0  0  0
  1 11  1  0  0  0  0
  2 12  1  0  0  0  0
  3  9  1  0  0  0  0
  3  4  1  0  0  0  0
  4  5  1  0  0  0  0
  5 24  1  0  0  0  0
  5  6  2  0  0  0  0
  6 25  1  0  0  0  0
  7  6  1  0  0  0  0
  7 26  1  0  0  0  0
  8  1  1  0  0  0  0
  8  7  2  0  0  0  0
  9  8  1  0  0  0  0
 10  1  1  0  0  0  0
 10  2  1  0  0  0  0
 11 12  2  0  0  0  0
 11 29  1  0  0  0  0
 12 30  1  0  0  0  0
 13  2  1  0  0  0  0
 13 18  1  0  0  0  0
 14 13  2  0  0  0  0
 15 14  1  0  0  0  0
 15 16  2  0  0  0  0
 16 17  1  0  0  0  0
 17 18  2  0  0  0  0
 17 32  1  0  0  0  0
 18 21  1  0  0  0  0
 19 35  1  0  0  0  0
 19 14  1  0  0  0  0
 20 16  1  0  0  0  0
 20 37  1  0  0  0  0
 21 40  1  0  0  0  0
 21 39  1  0  0  0  0
 22  3  1  0  0  0  0
 23  4  1  0  0  0  0
 27  9  1  0  0  0  0
 28 10  1  0  0  0  0
 31 15  1  0  0  0  0
 33 19  1  0  0  0  0
 34 19  1  0  0  0  0
 36 20  1  0  0  0  0
 38 20  1  0  0  0  0
 41 21  1  0  0  0  0
M  END
