5
 OpenBabel05122313113D

 37 37  0  0  0  0  0  0  0  0999 V2000
   -4.0178    0.2719    0.0768 N   0  3  0  0  0  0  0  0  0  0  0  0
   -4.2466   -0.6662    0.4545 H   0  0  0  0  0  0  0  0  0  0  0  0
   -0.0454   -0.5098   -1.9129 C   0  0  0  0  0  0  0  0  0  0  0  0
   -0.3331    0.5190   -2.1516 H   0  0  0  0  0  0  0  0  0  0  0  0
    1.2273   -1.0780   -2.1886 C   0  0  0  0  0  3  0  0  0  0  0  0
    2.0454   -0.5759   -2.7145 H   0  0  0  0  0  0  0  0  0  0  0  0
    1.2169   -2.4262   -1.7091 C   0  0  0  0  0  0  0  0  0  0  0  0
    2.0313   -3.1527   -1.8004 H   0  0  0  0  0  0  0  0  0  0  0  0
   -0.0412   -2.6644   -1.1073 C   0  0  0  0  0  0  0  0  0  0  0  0
   -0.3500   -3.5875   -0.6037 H   0  0  0  0  0  0  0  0  0  0  0  0
   -0.8367   -1.4783   -1.2322 C   0  0  0  0  0  0  0  0  0  0  0  0
   -2.2403   -1.3361   -0.7158 C   0  0  0  0  0  0  0  0  0  0  0  0
   -2.2449   -1.7492    0.3190 H   0  0  0  0  0  0  0  0  0  0  0  0
   -2.9252   -1.9641   -1.3276 H   0  0  0  0  0  0  0  0  0  0  0  0
   -2.7157    0.1122   -0.6927 C   0  0  0  0  0  0  0  0  0  0  0  0
   -1.9497    0.7513   -0.2116 H   0  0  0  0  0  0  0  0  0  0  0  0
   -2.8805    0.5032   -1.7125 H   0  0  0  0  0  0  0  0  0  0  0  0
   -5.2077    0.6365   -0.8236 C   0  0  0  0  0  0  0  0  0  0  0  0
   -6.0725    0.6368   -0.1331 H   0  0  0  0  0  0  0  0  0  0  0  0
   -5.4329   -0.4617   -1.8595 C   0  0  0  0  0  0  0  0  0  0  0  0
   -4.6284   -0.5051   -2.6198 H   0  0  0  0  0  0  0  0  0  0  0  0
   -6.3789   -0.2539   -2.3954 H   0  0  0  0  0  0  0  0  0  0  0  0
   -5.5357   -1.4624   -1.3923 H   0  0  0  0  0  0  0  0  0  0  0  0
   -5.0525    2.0254   -1.4304 C   0  0  0  0  0  0  0  0  0  0  0  0
   -5.9719    2.2645   -1.9987 H   0  0  0  0  0  0  0  0  0  0  0  0
   -4.2059    2.0839   -2.1425 H   0  0  0  0  0  0  0  0  0  0  0  0
   -4.9237    2.8153   -0.6662 H   0  0  0  0  0  0  0  0  0  0  0  0
   -3.8388    1.1613    1.3276 C   0  0  0  0  0  0  0  0  0  0  0  0
   -3.3860    2.0953    0.9365 H   0  0  0  0  0  0  0  0  0  0  0  0
   -2.8680    0.4769    2.2858 C   0  0  0  0  0  0  0  0  0  0  0  0
   -1.8704    0.2779    1.8502 H   0  0  0  0  0  0  0  0  0  0  0  0
   -3.2870   -0.4773    2.6690 H   0  0  0  0  0  0  0  0  0  0  0  0
   -2.7098    1.1392    3.1580 H   0  0  0  0  0  0  0  0  0  0  0  0
   -5.1740    1.4603    2.0019 C   0  0  0  0  0  0  0  0  0  0  0  0
   -5.8544    2.0850    1.3940 H   0  0  0  0  0  0  0  0  0  0  0  0
   -4.9686    2.0208    2.9338 H   0  0  0  0  0  0  0  0  0  0  0  0
   -5.7029    0.5303    2.2981 H   0  0  0  0  0  0  0  0  0  0  0  0
  1  2  1  0  0  0  0
  1 28  1  0  0  0  0
  3 11  2  0  0  0  0
  4  3  1  0  0  0  0
  5  3  1  0  0  0  0
  5  7  1  0  0  0  0
  6  5  1  0  0  0  0
  7  9  2  0  0  0  0
  8  7  1  0  0  0  0
  9 10  1  0  0  0  0
 11  9  1  0  0  0  0
 11 12  1  0  0  0  0
 12 15  1  0  0  0  0
 12 13  1  0  0  0  0
 14 12  1  0  0  0  0
 15 16  1  0  0  0  0
 15  1  1  0  0  0  0
 17 15  1  0  0  0  0
 18 19  1  0  0  0  0
 18  1  1  0  0  0  0
 20 23  1  0  0  0  0
 20 18  1  0  0  0  0
 21 20  1  0  0  0  0
 22 20  1  0  0  0  0
 24 18  1  0  0  0  0
 24 27  1  0  0  0  0
 25 24  1  0  0  0  0
 26 24  1  0  0  0  0
 28 34  1  0  0  0  0
 28 30  1  0  0  0  0
 29 28  1  0  0  0  0
 30 32  1  0  0  0  0
 30 33  1  0  0  0  0
 31 30  1  0  0  0  0
 34 37  1  0  0  0  0
 34 36  1  0  0  0  0
 35 34  1  0  0  0  0
M  CHG  1   1   1
M  END
