9
 OpenBabel05122313113D

 50 51  0  0  1  0  0  0  0  0999 V2000
    5.7364   -0.0949   -0.2383 O   0  0  0  0  0  0  0  0  0  0  0  0
    5.3343   -1.6484    1.3726 O   0  0  0  0  0  0  0  0  0  0  0  0
   -0.8354    0.0301   -2.0452 O   0  0  0  0  0  0  0  0  0  0  0  0
   -1.3308    0.9287    1.1049 O   0  0  0  0  0  0  0  0  0  0  0  0
    7.0162    0.1438    0.3537 C   0  0  0  0  0  0  0  0  0  0  0  0
    4.9601   -1.0178    0.3989 C   0  0  0  0  0  0  0  0  0  0  0  0
    3.6196   -1.1448   -0.2242 C   0  0  0  0  0  3  0  0  0  0  0  0
    3.3192   -0.6070   -1.5256 C   0  0  0  0  0  3  0  0  0  0  0  0
    1.9534   -0.5709   -1.9131 C   0  0  0  0  0  3  0  0  0  0  0  0
    0.9819   -1.0738   -0.9787 C   0  0  0  0  0  3  0  0  0  0  0  0
   -0.4554   -0.7584   -1.1796 C   0  0  0  0  0  0  0  0  0  0  0  0
   -1.4507   -1.4720   -0.2679 C   0  0  2  0  0  0  0  0  0  0  0  0
   -1.8305   -2.8362   -0.8694 C   0  0  0  0  0  0  0  0  0  0  0  0
   -3.0057   -3.5099   -0.1891 C   0  0  0  0  0  0  0  0  0  0  0  0
   -3.8364   -2.8271    0.6423 C   0  0  0  0  0  0  0  0  0  0  0  0
   -3.6543   -1.3475    0.9158 C   0  0  0  0  0  0  0  0  0  0  0  0
   -2.7142   -0.6315   -0.0706 C   0  0  1  0  0  0  0  0  0  0  0  0
   -3.1457   -4.9675   -0.5413 C   0  0  0  0  0  0  0  0  0  0  0  0
   -4.9976   -3.4324    1.3865 C   0  0  0  0  0  0  0  0  0  0  0  0
   -2.3635    0.7599    0.4572 C   0  0  0  0  0  0  0  0  0  0  0  0
   -3.3061    1.8994    0.2184 C   0  0  0  0  0  0  0  0  0  0  0  0
   -4.5110    1.7696   -0.5057 C   0  0  0  0  0  0  0  0  0  0  0  0
   -5.3487    2.8781   -0.6913 C   0  0  0  0  0  0  0  0  0  0  0  0
   -4.9888    4.1279   -0.1621 C   0  0  0  0  0  0  0  0  0  0  0  0
   -3.7875    4.2682    0.5553 C   0  0  0  0  0  0  0  0  0  0  0  0
   -2.9543    3.1618    0.7450 C   0  0  0  0  0  0  0  0  0  0  0  0
    7.5103    0.9025   -0.2788 H   0  0  0  0  0  0  0  0  0  0  0  0
    6.9040    0.5227    1.3898 H   0  0  0  0  0  0  0  0  0  0  0  0
    7.6176   -0.7868    0.3879 H   0  0  0  0  0  0  0  0  0  0  0  0
    3.0924   -2.0362    0.1462 H   0  0  0  0  0  0  0  0  0  0  0  0
    4.1010   -0.1337   -2.1375 H   0  0  0  0  0  0  0  0  0  0  0  0
    1.6187   -0.0674   -2.8330 H   0  0  0  0  0  0  0  0  0  0  0  0
    1.1962   -1.9791   -0.3892 H   0  0  0  0  0  0  0  0  0  0  0  0
   -0.9680   -1.6312    0.7189 H   0  0  0  0  0  0  0  0  0  0  0  0
   -2.0588   -2.7106   -1.9541 H   0  0  0  0  0  0  0  0  0  0  0  0
   -0.9537   -3.5207   -0.8361 H   0  0  0  0  0  0  0  0  0  0  0  0
   -3.2674   -1.2137    1.9533 H   0  0  0  0  0  0  0  0  0  0  0  0
   -4.6504   -0.8530    0.9167 H   0  0  0  0  0  0  0  0  0  0  0  0
   -3.2154   -0.5318   -1.0544 H   0  0  0  0  0  0  0  0  0  0  0  0
   -3.1529   -5.0998   -1.6453 H   0  0  0  0  0  0  0  0  0  0  0  0
   -2.2757   -5.5518   -0.1683 H   0  0  0  0  0  0  0  0  0  0  0  0
   -4.0640   -5.4355   -0.1431 H   0  0  0  0  0  0  0  0  0  0  0  0
   -4.9215   -3.2046    2.4721 H   0  0  0  0  0  0  0  0  0  0  0  0
   -5.0715   -4.5296    1.2800 H   0  0  0  0  0  0  0  0  0  0  0  0
   -5.9606   -2.9903    1.0480 H   0  0  0  0  0  0  0  0  0  0  0  0
   -4.7989    0.7993   -0.9352 H   0  0  0  0  0  0  0  0  0  0  0  0
   -6.2860    2.7680   -1.2573 H   0  0  0  0  0  0  0  0  0  0  0  0
   -5.6459    4.9982   -0.3126 H   0  0  0  0  0  0  0  0  0  0  0  0
   -3.5026    5.2490    0.9656 H   0  0  0  0  0  0  0  0  0  0  0  0
   -2.0067    3.2378    1.2979 H   0  0  0  0  0  0  0  0  0  0  0  0
  1  5  1  0  0  0  0
  1  6  1  0  0  0  0
  3 11  2  0  0  0  0
  5 29  1  0  0  0  0
  5 28  1  0  0  0  0
  6  2  2  0  0  0  0
  7 30  1  0  0  0  0
  7  6  1  0  0  0  0
  8  7  1  0  0  0  0
  9  8  1  0  0  0  0
  9 10  1  0  0  0  0
 10 33  1  0  0  0  0
 11 10  1  0  0  0  0
 11 12  1  0  0  0  0
 12 17  1  0  0  0  0
 12 34  1  1  0  0  0
 13 36  1  0  0  0  0
 13 12  1  0  0  0  0
 13 14  1  0  0  0  0
 14 15  2  0  0  0  0
 15 16  1  0  0  0  0
 15 19  1  0  0  0  0
 16 38  1  0  0  0  0
 16 37  1  0  0  0  0
 17 39  1  6  0  0  0
 17 20  1  0  0  0  0
 17 16  1  0  0  0  0
 18 14  1  0  0  0  0
 18 41  1  0  0  0  0
 18 42  1  0  0  0  0
 19 43  1  0  0  0  0
 20  4  2  0  0  0  0
 21 20  1  0  0  0  0
 21 26  1  0  0  0  0
 22 21  2  0  0  0  0
 23 22  1  0  0  0  0
 23 24  2  0  0  0  0
 24 25  1  0  0  0  0
 25 26  2  0  0  0  0
 25 49  1  0  0  0  0
 26 50  1  0  0  0  0
 27  5  1  0  0  0  0
 31  8  1  0  0  0  0
 32  9  1  0  0  0  0
 35 13  1  0  0  0  0
 40 18  1  0  0  0  0
 44 19  1  0  0  0  0
 45 19  1  0  0  0  0
 46 22  1  0  0  0  0
 47 23  1  0  0  0  0
 48 24  1  0  0  0  0
M  END
