7
 OpenBabel05122313113D

 30 30  0  0  1  0  0  0  0  0999 V2000
   -3.9619   -3.7029    0.7065 O   0  0  0  0  0  0  0  0  0  0  0  0
    1.9280   -1.8699   -0.2612 O   0  0  0  0  0  0  0  0  0  0  0  0
    2.2567   -1.3835    1.9395 O   0  0  0  0  0  0  0  0  0  0  0  0
   -3.6340   -2.4245    0.1428 C   0  0  2  0  0  0  0  0  0  0  0  0
   -2.1221   -2.3661    0.1130 C   0  0  0  0  0  3  0  0  0  0  0  0
   -1.4437   -3.1759   -0.8592 C   0  0  0  0  0  3  0  0  0  0  0  0
   -0.0303   -3.0642   -0.9523 C   0  0  0  0  0  3  0  0  0  0  0  0
    0.5822   -2.1617   -0.0250 C   0  0  0  0  0  3  0  0  0  0  0  0
   -4.2681   -1.2966    0.9517 C   0  0  0  0  0  0  0  0  0  0  0  0
    2.6731   -1.4264    0.7907 C   0  0  0  0  0  0  0  0  0  0  0  0
    4.0307   -0.9954    0.3630 C   0  0  0  0  0  0  0  0  0  0  0  0
    4.9137   -0.5289    1.3567 C   0  0  0  0  0  0  0  0  0  0  0  0
    6.1873   -0.0671    1.0032 C   0  0  0  0  0  0  0  0  0  0  0  0
    6.5841   -0.0671   -0.3448 C   0  0  0  0  0  0  0  0  0  0  0  0
    5.7055   -0.5329   -1.3382 C   0  0  0  0  0  0  0  0  0  0  0  0
    4.4308   -0.9966   -0.9892 C   0  0  0  0  0  0  0  0  0  0  0  0
   -4.9296   -3.7160    0.8286 H   0  0  0  0  0  0  0  0  0  0  0  0
   -4.0115   -2.3671   -0.9089 H   0  0  0  0  0  0  0  0  0  0  0  0
   -1.6815   -2.2663    1.1212 H   0  0  0  0  0  0  0  0  0  0  0  0
   -1.9996   -3.7795   -1.5941 H   0  0  0  0  0  0  0  0  0  0  0  0
    0.5465   -3.5671   -1.7435 H   0  0  0  0  0  0  0  0  0  0  0  0
    0.3295   -2.1932    1.0451 H   0  0  0  0  0  0  0  0  0  0  0  0
   -4.0471   -0.3061    0.5108 H   0  0  0  0  0  0  0  0  0  0  0  0
   -3.8848   -1.2995    1.9916 H   0  0  0  0  0  0  0  0  0  0  0  0
   -5.3725   -1.4113    0.9848 H   0  0  0  0  0  0  0  0  0  0  0  0
    4.5688   -0.5303    2.4007 H   0  0  0  0  0  0  0  0  0  0  0  0
    6.8753    0.2981    1.7807 H   0  0  0  0  0  0  0  0  0  0  0  0
    7.5845    0.2982   -0.6238 H   0  0  0  0  0  0  0  0  0  0  0  0
    6.0162   -0.5298   -2.3940 H   0  0  0  0  0  0  0  0  0  0  0  0
    3.7273   -1.3422   -1.7590 H   0  0  0  0  0  0  0  0  0  0  0  0
  1 17  1  0  0  0  0
  2  8  1  0  0  0  0
  2 10  1  0  0  0  0
  4 18  1  6  0  0  0
  4  1  1  0  0  0  0
  4  9  1  0  0  0  0
  5  4  1  0  0  0  0
  5 19  1  0  0  0  0
  6  5  1  0  0  0  0
  7  6  1  0  0  0  0
  7  8  1  0  0  0  0
  8 22  1  0  0  0  0
  9 25  1  0  0  0  0
  9 24  1  0  0  0  0
 10  3  2  0  0  0  0
 11 10  1  0  0  0  0
 11 12  1  0  0  0  0
 12 26  1  0  0  0  0
 13 12  2  0  0  0  0
 13 27  1  0  0  0  0
 14 13  1  0  0  0  0
 15 16  1  0  0  0  0
 15 14  2  0  0  0  0
 16 11  2  0  0  0  0
 20  6  1  0  0  0  0
 21  7  1  0  0  0  0
 23  9  1  0  0  0  0
 28 14  1  0  0  0  0
 29 15  1  0  0  0  0
 30 16  1  0  0  0  0
M  END
