1
 OpenBabel05122313113D

 16 16  0  0  0  0  0  0  0  0999 V2000
    0.4835   -1.1061   -1.4479 C   0  0  0  0  0  1  0  0  0  0  0  0
    1.2172   -2.2966   -1.6794 C   0  0  0  0  0  0  0  0  0  0  0  0
    2.5837   -2.3453   -1.7438 C   0  0  0  0  0  0  0  0  0  0  0  0
    3.4106   -3.6057   -1.8769 C   0  0  0  0  0  0  0  0  0  0  0  0
    4.8140   -3.1032   -2.2644 C   0  0  0  0  0  0  0  0  0  0  0  0
    4.9196   -1.7587   -1.5228 C   0  0  0  0  0  0  0  0  0  0  0  0
    3.5109   -1.1522   -1.6719 C   0  0  0  0  0  0  0  0  0  0  0  0
    0.6517   -3.2459   -1.7574 H   0  0  0  0  0  0  0  0  0  0  0  0
    2.9716   -4.3437   -2.5789 H   0  0  0  0  0  0  0  0  0  0  0  0
    3.4551   -4.1033   -0.8794 H   0  0  0  0  0  0  0  0  0  0  0  0
    4.8606   -2.9332   -3.3618 H   0  0  0  0  0  0  0  0  0  0  0  0
    5.6212   -3.8172   -2.0063 H   0  0  0  0  0  0  0  0  0  0  0  0
    5.1328   -1.9377   -0.4474 H   0  0  0  0  0  0  0  0  0  0  0  0
    5.7214   -1.1020   -1.9142 H   0  0  0  0  0  0  0  0  0  0  0  0
    3.4247   -0.5708   -2.6169 H   0  0  0  0  0  0  0  0  0  0  0  0
    3.2267   -0.4551   -0.8585 H   0  0  0  0  0  0  0  0  0  0  0  0
  2  1  1  0  0  0  0
  3  2  2  0  0  0  0
  3  7  1  0  0  0  0
  4  3  1  0  0  0  0
  4 10  1  0  0  0  0
  5 12  1  0  0  0  0
  5  4  1  0  0  0  0
  5  6  1  0  0  0  0
  6 13  1  0  0  0  0
  7  6  1  0  0  0  0
  7 16  1  0  0  0  0
  8  2  1  0  0  0  0
  9  4  1  0  0  0  0
 11  5  1  0  0  0  0
 14  6  1  0  0  0  0
 15  7  1  0  0  0  0
M  END
