11
 OpenBabel05122313113D

 30 31  0  0  0  0  0  0  0  0999 V2000
   -0.7450    2.1513   -1.7760 F   0  0  0  0  0  0  0  0  0  0  0  0
   -3.0191    3.5689   -1.9926 F   0  0  0  0  0  0  0  0  0  0  0  0
   -5.0403    3.2445   -0.1672 F   0  0  0  0  0  0  0  0  0  0  0  0
   -4.7440    1.4606    1.8957 F   0  0  0  0  0  0  0  0  0  0  0  0
   -2.4680    0.0188    2.1291 F   0  0  0  0  0  0  0  0  0  0  0  0
   -0.8945   -0.8708   -2.1872 F   0  0  0  0  0  0  0  0  0  0  0  0
   -1.7011   -3.3625   -2.8332 F   0  0  0  0  0  0  0  0  0  0  0  0
   -1.7998   -5.3227   -0.9102 F   0  0  0  0  0  0  0  0  0  0  0  0
   -1.0532   -4.7373    1.6640 F   0  0  0  0  0  0  0  0  0  0  0  0
   -0.2215   -2.2847    2.3232 F   0  0  0  0  0  0  0  0  0  0  0  0
    2.0034    0.2071    2.3398 C   0  0  0  0  0  3  0  0  0  0  0  0
    0.5624    0.4924    1.8880 C   0  0  0  0  0  0  0  0  0  0  0  0
   -1.4912    1.0398    0.2090 C   0  0  0  0  0  0  0  0  0  0  0  0
   -1.6955    1.9542   -0.8360 C   0  0  0  0  0  0  0  0  0  0  0  0
   -2.8752    2.7049   -0.9810 C   0  0  0  0  0  0  0  0  0  0  0  0
   -3.9123    2.5390   -0.0494 C   0  0  0  0  0  0  0  0  0  0  0  0
   -3.7576    1.6269    1.0082 C   0  0  0  0  0  0  0  0  0  0  0  0
   -2.5612    0.8988    1.1092 C   0  0  0  0  0  0  0  0  0  0  0  0
   -0.5481   -1.4380    0.1004 C   0  0  0  0  0  0  0  0  0  0  0  0
   -0.9394   -1.7956   -1.2027 C   0  0  0  0  0  0  0  0  0  0  0  0
   -1.3578   -3.0831   -1.5711 C   0  0  0  0  0  0  0  0  0  0  0  0
   -1.4045   -4.0880   -0.5907 C   0  0  0  0  0  0  0  0  0  0  0  0
   -1.0244   -3.7845    0.7257 C   0  0  0  0  0  0  0  0  0  0  0  0
   -0.6041   -2.4798    1.0407 C   0  0  0  0  0  0  0  0  0  0  0  0
   -0.1599    0.1228    0.3794 B   0  0  0  0  0  0  0  0  0  0  0  0
    2.1562   -0.8541    2.6072 H   0  0  0  0  0  0  0  0  0  0  0  0
    2.3410    0.8569    3.1646 H   0  0  0  0  0  0  0  0  0  0  0  0
   -0.1219   -0.1609    2.4620 H   0  0  0  0  0  0  0  0  0  0  0  0
    0.2781    1.5356    2.1204 H   0  0  0  0  0  0  0  0  0  0  0  0
    0.5500    0.4597   -0.6733 H   0  0  0  0  0  0  0  0  0  0  0  0
  1 14  1  0  0  0  0
  2 15  1  0  0  0  0
  3 16  1  0  0  0  0
  6 20  1  0  0  0  0
  7 21  1  0  0  0  0
  8 22  1  0  0  0  0
 11 26  1  0  0  0  0
 11 27  1  0  0  0  0
 12 29  1  0  0  0  0
 12 11  1  0  0  0  0
 12 28  1  0  0  0  0
 13 25  1  0  0  0  0
 13 18  1  0  0  0  0
 14 13  2  0  0  0  0
 15 14  1  0  0  0  0
 15 16  2  0  0  0  0
 16 17  1  0  0  0  0
 17 18  2  0  0  0  0
 17  4  1  0  0  0  0
 18  5  1  0  0  0  0
 19 25  1  0  0  0  0
 19 24  1  0  0  0  0
 20 19  2  0  0  0  0
 21 20  1  0  0  0  0
 21 22  2  0  0  0  0
 22 23  1  0  0  0  0
 23 24  2  0  0  0  0
 23  9  1  0  0  0  0
 24 10  1  0  0  0  0
 25 12  1  0  0  0  0
 30 25  1  0  0  0  0
M  END
