2
 OpenBabel05122313113D

 12 12  0  0  1  0  0  0  0  0999 V2000
   -0.8172   -2.9658   -0.5068 C   0  0  1  0  0  3  0  0  0  0  0  0
    0.6730   -3.0211   -0.3715 C   0  0  2  0  0  3  0  0  0  0  0  0
    0.8173   -3.6273   -1.7812 C   0  0  0  0  0  0  0  0  0  0  0  0
   -0.7323   -3.5389   -1.9398 C   0  0  0  0  0  0  0  0  0  0  0  0
   -1.8256   -3.2872    0.4482 C   0  0  0  0  0  0  0  0  0  0  0  0
    1.4491   -3.3226    0.7861 C   0  0  0  0  0  0  0  0  0  0  0  0
   -2.6857   -3.5125    1.2212 N   0  0  0  0  0  0  0  0  0  0  0  0
    2.0988   -3.5046    1.7527 N   0  0  0  0  0  0  0  0  0  0  0  0
    1.4343   -3.0477   -2.4950 H   0  0  0  0  0  0  0  0  0  0  0  0
    1.1856   -4.6724   -1.7578 H   0  0  0  0  0  0  0  0  0  0  0  0
   -1.1156   -2.8762   -2.7399 H   0  0  0  0  0  0  0  0  0  0  0  0
   -1.2190   -4.5298   -2.0343 H   0  0  0  0  0  0  0  0  0  0  0  0
  1  2  1  0  0  0  0
  1  5  1  1  0  0  0
  2  6  1  1  0  0  0
  3 10  1  0  0  0  0
  3  2  1  0  0  0  0
  4  3  1  0  0  0  0
  4  1  1  0  0  0  0
  5  7  3  0  0  0  0
  6  8  3  0  0  0  0
  9  3  1  0  0  0  0
 11  4  1  0  0  0  0
 12  4  1  0  0  0  0
M  END
