1
 OpenBabel05122313113D

 17 17  0  0  1  0  0  0  0  0999 V2000
   -1.1120   -0.0730   -0.3786 C   0  0  0  0  0  2  0  0  0  0  0  0
   -2.0378   -0.0825    0.6391 C   0  0  2  0  0  3  0  0  0  0  0  0
   -1.5645   -0.1246   -1.8258 C   0  0  0  0  0  0  0  0  0  0  0  0
   -1.4103    0.8881   -2.2687 H   0  0  0  0  0  0  0  0  0  0  0  0
   -0.8878   -0.7819   -2.4154 H   0  0  0  0  0  0  0  0  0  0  0  0
   -1.5632   -0.0261    2.0222 C   0  0  0  0  0  0  0  0  0  0  0  0
   -0.4244    0.0123    2.0949 H   0  0  0  0  0  0  0  0  0  0  0  0
   -3.5360   -0.1533    0.4226 C   0  0  0  0  0  0  0  0  0  0  0  0
   -3.8910   -1.1775    0.6835 H   0  0  0  0  0  0  0  0  0  0  0  0
   -4.0341    0.5119    1.1593 H   0  0  0  0  0  0  0  0  0  0  0  0
   -3.0308   -0.5508   -2.0081 C   0  0  0  0  0  0  0  0  0  0  0  0
   -3.3499   -0.3726   -3.0564 H   0  0  0  0  0  0  0  0  0  0  0  0
   -3.1195   -1.6468   -1.8345 H   0  0  0  0  0  0  0  0  0  0  0  0
   -3.9336    0.1862   -1.0155 C   0  0  0  0  0  0  0  0  0  0  0  0
   -5.0006   -0.0616   -1.1927 H   0  0  0  0  0  0  0  0  0  0  0  0
   -3.8343    1.2829   -1.1813 H   0  0  0  0  0  0  0  0  0  0  0  0
   -2.2679   -0.0139    3.0277 O   0  0  0  0  0  0  0  0  0  0  0  0
  1  2  1  0  0  0  0
  2  6  1  1  0  0  0
  3  1  1  0  0  0  0
  4  3  1  0  0  0  0
  5  3  1  0  0  0  0
  6  7  1  0  0  0  0
  6 17  2  0  0  0  0
  8  2  1  0  0  0  0
  8  9  1  0  0  0  0
  8 10  1  0  0  0  0
 11 13  1  0  0  0  0
 11  3  1  0  0  0  0
 11 14  1  0  0  0  0
 12 11  1  0  0  0  0
 14  8  1  0  0  0  0
 15 14  1  0  0  0  0
 16 14  1  0  0  0  0
M  END
