4
 OpenBabel05122313113D

 50 51  0  0  1  0  0  0  0  0999 V2000
   -2.3432    1.3693    0.1410 N   0  0  0  0  0  0  0  0  0  0  0  0
   -2.3023    0.4222    0.5297 H   0  0  0  0  0  0  0  0  0  0  0  0
    0.9755    2.1413    1.0060 N   0  0  0  0  0  0  0  0  0  0  0  0
    1.8234    1.2748    0.3893 C   0  0  0  0  0  2  0  0  0  0  0  0
   -1.3740    3.4472    0.0488 O   0  0  0  0  0  0  0  0  0  0  0  0
   -4.4546   -3.1137    0.5536 C   0  0  0  0  0  0  0  0  0  0  0  0
   -4.6478   -4.0117    1.1602 H   0  0  0  0  0  0  0  0  0  0  0  0
   -3.1619   -2.8485    0.0775 C   0  0  0  0  0  0  0  0  0  0  0  0
   -2.3240   -3.5264    0.3008 H   0  0  0  0  0  0  0  0  0  0  0  0
   -1.4126    2.2958    0.4792 C   0  0  0  0  0  0  0  0  0  0  0  0
   -3.4257    1.6607   -0.7722 C   0  0  1  0  0  0  0  0  0  0  0  0
   -3.1236    2.5635   -1.3441 H   0  0  0  0  0  0  0  0  0  0  0  0
    2.7341    3.3251    0.4071 C   0  0  0  0  0  0  0  0  0  0  0  0
    3.4809    4.0971    0.2160 H   0  0  0  0  0  0  0  0  0  0  0  0
    1.5091    3.4180    1.0092 C   0  0  0  0  0  0  0  0  0  0  0  0
    0.9612    4.2711    1.4158 H   0  0  0  0  0  0  0  0  0  0  0  0
   -2.9189   -1.7044   -0.7002 C   0  0  0  0  0  0  0  0  0  0  0  0
   -1.9033   -1.5262   -1.0903 H   0  0  0  0  0  0  0  0  0  0  0  0
   -5.5043   -2.2329    0.2427 C   0  0  0  0  0  0  0  0  0  0  0  0
   -6.5243   -2.4430    0.6003 H   0  0  0  0  0  0  0  0  0  0  0  0
    2.9226    1.9931    0.0375 N   0  0  0  0  0  0  0  0  0  0  0  0
   -0.3562    1.8098    1.4900 C   0  0  0  0  0  0  0  0  0  0  0  0
   -0.5235    2.3419    2.4476 H   0  0  0  0  0  0  0  0  0  0  0  0
   -0.3913    0.7234    1.6956 H   0  0  0  0  0  0  0  0  0  0  0  0
   -3.6701    0.4815   -1.7478 C   0  0  0  0  0  0  0  0  0  0  0  0
   -4.5195    0.7702   -2.3970 H   0  0  0  0  0  0  0  0  0  0  0  0
   -2.7658    0.3684   -2.3772 H   0  0  0  0  0  0  0  0  0  0  0  0
   -5.2605   -1.0857   -0.5267 C   0  0  0  0  0  0  0  0  0  0  0  0
   -6.0857   -0.3981   -0.7692 H   0  0  0  0  0  0  0  0  0  0  0  0
    4.1368    1.5361   -0.7338 C   0  0  0  0  0  0  0  0  0  0  0  0
    4.3613    0.0285   -0.5666 C   0  0  0  0  0  0  0  0  0  0  0  0
    5.3344   -0.2296   -1.0263 H   0  0  0  0  0  0  0  0  0  0  0  0
    3.5911   -0.5721   -1.0884 H   0  0  0  0  0  0  0  0  0  0  0  0
    4.3861   -0.2718    0.4990 H   0  0  0  0  0  0  0  0  0  0  0  0
    5.3648    2.2765   -0.1747 C   0  0  0  0  0  0  0  0  0  0  0  0
    6.2707    1.8918   -0.6803 H   0  0  0  0  0  0  0  0  0  0  0  0
    5.4769    2.1022    0.9136 H   0  0  0  0  0  0  0  0  0  0  0  0
    5.3320    3.3671   -0.3623 H   0  0  0  0  0  0  0  0  0  0  0  0
    3.9022    1.8905   -2.2117 C   0  0  0  0  0  0  0  0  0  0  0  0
    4.7746    1.5721   -2.8153 H   0  0  0  0  0  0  0  0  0  0  0  0
    3.7685    2.9827   -2.3451 H   0  0  0  0  0  0  0  0  0  0  0  0
    2.9983    1.3757   -2.5935 H   0  0  0  0  0  0  0  0  0  0  0  0
   -4.6271    2.0256    1.2748 O   0  0  0  0  0  0  0  0  0  0  0  0
   -3.9617   -0.8034   -1.0047 C   0  0  0  0  0  0  0  0  0  0  0  0
   -5.7659    2.2926   -0.6685 O   0  0  0  0  0  0  0  0  0  0  0  0
   -4.7392    2.0337   -0.0703 C   0  0  0  0  0  0  0  0  0  0  0  0
   -5.8330    2.3332    1.9880 C   0  0  0  0  0  0  0  0  0  0  0  0
   -5.5625    2.3411    3.0585 H   0  0  0  0  0  0  0  0  0  0  0  0
   -6.6060    1.5630    1.7914 H   0  0  0  0  0  0  0  0  0  0  0  0
   -6.2338    3.3185    1.6774 H   0  0  0  0  0  0  0  0  0  0  0  0
  1 10  1  0  0  0  0
  1  2  1  0  0  0  0
  3 15  1  0  0  0  0
  3 22  1  0  0  0  0
  4  3  1  0  0  0  0
  5 10  2  0  0  0  0
  6  7  1  0  0  0  0
  8  9  1  0  0  0  0
  8  6  2  0  0  0  0
 10 22  1  0  0  0  0
 11 12  1  6  0  0  0
 11 46  1  0  0  0  0
 11  1  1  0  0  0  0
 13 15  2  0  0  0  0
 14 13  1  0  0  0  0
 15 16  1  0  0  0  0
 17  8  1  0  0  0  0
 18 17  1  0  0  0  0
 19  6  1  0  0  0  0
 19 20  1  0  0  0  0
 21  4  1  0  0  0  0
 21 13  1  0  0  0  0
 22 24  1  0  0  0  0
 22 23  1  0  0  0  0
 25 44  1  0  0  0  0
 25 11  1  0  0  0  0
 26 25  1  0  0  0  0
 27 25  1  0  0  0  0
 28 19  2  0  0  0  0
 29 28  1  0  0  0  0
 30 31  1  0  0  0  0
 30 35  1  0  0  0  0
 30 21  1  0  0  0  0
 31 34  1  0  0  0  0
 32 31  1  0  0  0  0
 33 31  1  0  0  0  0
 35 37  1  0  0  0  0
 36 35  1  0  0  0  0
 38 35  1  0  0  0  0
 39 30  1  0  0  0  0
 40 39  1  0  0  0  0
 41 39  1  0  0  0  0
 42 39  1  0  0  0  0
 43 47  1  0  0  0  0
 44 17  2  0  0  0  0
 44 28  1  0  0  0  0
 45 46  2  0  0  0  0
 46 43  1  0  0  0  0
 47 48  1  0  0  0  0
 49 47  1  0  0  0  0
 50 47  1  0  0  0  0
M  END
