4
 OpenBabel05122313113D

 38 40  0  0  1  0  0  0  0  0999 V2000
    0.9202   -0.7579   -1.6507 O   0  0  0  0  0  0  0  0  0  0  0  0
    3.1745    0.9468    1.3225 O   0  0  0  0  0  0  0  0  0  0  0  0
    2.2226    1.9659    1.7498 N   0  0  0  0  0  0  0  0  0  0  0  0
    0.2741   -0.2797   -0.5790 C   0  0  0  0  0  2  0  0  0  0  0  0
    0.2784   -1.5757   -2.6277 C   0  0  0  0  0  0  0  0  0  0  0  0
    1.2327    0.4150    0.2544 C   0  0  0  0  0  0  0  0  0  0  0  0
    2.5496    0.0783    0.4937 C   0  0  0  0  0  0  0  0  0  0  0  0
    0.9953    1.7601    0.9243 C   0  0  2  0  0  0  0  0  0  0  0  0
    2.0304    1.7423    3.1772 C   0  0  0  0  0  0  0  0  0  0  0  0
    3.3697   -1.0743    0.0959 C   0  0  0  0  0  0  0  0  0  0  0  0
    4.7521   -0.9036   -0.1360 C   0  0  0  0  0  0  0  0  0  0  0  0
    5.5470   -2.0002   -0.4956 C   0  0  0  0  0  0  0  0  0  0  0  0
    4.9774   -3.2776   -0.6127 C   0  0  0  0  0  0  0  0  0  0  0  0
    3.6062   -3.4567   -0.3601 C   0  0  0  0  0  0  0  0  0  0  0  0
    2.8047   -2.3656   -0.0070 C   0  0  0  0  0  0  0  0  0  0  0  0
    0.8254    2.9045   -0.0711 C   0  0  0  0  0  0  0  0  0  0  0  0
    0.1649    4.0786    0.3362 C   0  0  0  0  0  0  0  0  0  0  0  0
    0.0340    5.1654   -0.5386 C   0  0  0  0  0  0  0  0  0  0  0  0
    0.5634    5.0891   -1.8372 C   0  0  0  0  0  0  0  0  0  0  0  0
    1.2210    3.9211   -2.2524 C   0  0  0  0  0  0  0  0  0  0  0  0
    1.3511    2.8339   -1.3745 C   0  0  0  0  0  0  0  0  0  0  0  0
    1.0795   -1.9080   -3.3131 H   0  0  0  0  0  0  0  0  0  0  0  0
   -0.2095   -2.4532   -2.1622 H   0  0  0  0  0  0  0  0  0  0  0  0
   -0.4754   -0.9872   -3.1855 H   0  0  0  0  0  0  0  0  0  0  0  0
    0.1160    1.7540    1.6036 H   0  0  0  0  0  0  0  0  0  0  0  0
    3.0093    1.8189    3.6869 H   0  0  0  0  0  0  0  0  0  0  0  0
    1.3818    2.5577    3.5525 H   0  0  0  0  0  0  0  0  0  0  0  0
    1.5576    0.7612    3.4166 H   0  0  0  0  0  0  0  0  0  0  0  0
    5.1933    0.0987   -0.0388 H   0  0  0  0  0  0  0  0  0  0  0  0
    6.6214   -1.8553   -0.6840 H   0  0  0  0  0  0  0  0  0  0  0  0
    5.6037   -4.1383   -0.8919 H   0  0  0  0  0  0  0  0  0  0  0  0
    3.1578   -4.4593   -0.4285 H   0  0  0  0  0  0  0  0  0  0  0  0
    1.7380   -2.5148    0.2130 H   0  0  0  0  0  0  0  0  0  0  0  0
   -0.2632    4.1363    1.3496 H   0  0  0  0  0  0  0  0  0  0  0  0
   -0.4922    6.0741   -0.2090 H   0  0  0  0  0  0  0  0  0  0  0  0
    0.4573    5.9395   -2.5277 H   0  0  0  0  0  0  0  0  0  0  0  0
    1.6347    3.8536   -3.2703 H   0  0  0  0  0  0  0  0  0  0  0  0
    1.8593    1.9161   -1.7066 H   0  0  0  0  0  0  0  0  0  0  0  0
  1  4  1  0  0  0  0
  2  3  1  0  0  0  0
  3  9  1  0  0  0  0
  4  6  1  0  0  0  0
  5 23  1  0  0  0  0
  5  1  1  0  0  0  0
  6  7  2  0  0  0  0
  6  8  1  0  0  0  0
  7  2  1  0  0  0  0
  8 25  1  1  0  0  0
  8  3  1  0  0  0  0
  9 28  1  0  0  0  0
  9 27  1  0  0  0  0
  9 26  1  0  0  0  0
 10  7  1  0  0  0  0
 11 29  1  0  0  0  0
 11 10  2  0  0  0  0
 12 11  1  0  0  0  0
 13 12  2  0  0  0  0
 13 14  1  0  0  0  0
 14 15  2  0  0  0  0
 15 10  1  0  0  0  0
 15 33  1  0  0  0  0
 16 17  1  0  0  0  0
 16  8  1  0  0  0  0
 17 34  1  0  0  0  0
 18 35  1  0  0  0  0
 18 17  2  0  0  0  0
 19 18  1  0  0  0  0
 20 19  2  0  0  0  0
 20 21  1  0  0  0  0
 21 16  2  0  0  0  0
 22  5  1  0  0  0  0
 24  5  1  0  0  0  0
 30 12  1  0  0  0  0
 31 13  1  0  0  0  0
 32 14  1  0  0  0  0
 36 19  1  0  0  0  0
 37 20  1  0  0  0  0
 38 21  1  0  0  0  0
M  END
