1
 OpenBabel05122313113D

 65 66  0  0  0  0  0  0  0  0999 V2000
   -0.2501    0.1177    0.1631 C   0  0  0  0  0  2  0  0  0  0  0  0
    0.5334    1.1602    0.5083 N   0  0  0  0  0  0  0  0  0  0  0  0
    0.1018    2.0948    0.6072 H   0  0  0  0  0  0  0  0  0  0  0  0
   -1.5912    0.2754    0.3302 N   0  0  0  0  0  0  0  0  0  0  0  0
   -2.1643    1.3733    1.1047 C   0  0  0  0  0  0  0  0  0  0  0  0
   -1.4993    1.6311    1.9571 H   0  0  0  0  0  0  0  0  0  0  0  0
   -3.1192    1.0244    1.5411 H   0  0  0  0  0  0  0  0  0  0  0  0
   -2.4552    2.6761    0.3404 C   0  0  0  0  0  0  0  0  0  0  0  0
   -2.9495    2.4548   -0.6432 H   0  0  0  0  0  0  0  0  0  0  0  0
   -1.2353    3.3315    0.1360 O   0  0  0  0  0  0  0  0  0  0  0  0
   -1.3098    4.4932   -0.6852 C   0  0  0  0  0  0  0  0  0  0  0  0
   -0.2827    4.8918   -0.7750 H   0  0  0  0  0  0  0  0  0  0  0  0
   -1.6903    4.2384   -1.7006 H   0  0  0  0  0  0  0  0  0  0  0  0
   -1.9705    5.2575   -0.2272 H   0  0  0  0  0  0  0  0  0  0  0  0
   -3.2861    3.5207    1.1088 O   0  0  0  0  0  0  0  0  0  0  0  0
   -4.6720    3.3217    0.9182 C   0  0  0  0  0  0  0  0  0  0  0  0
   -5.1989    4.1057    1.4943 H   0  0  0  0  0  0  0  0  0  0  0  0
   -4.9613    3.4074   -0.1563 H   0  0  0  0  0  0  0  0  0  0  0  0
   -5.0194    2.3277    1.2878 H   0  0  0  0  0  0  0  0  0  0  0  0
   -2.4950   -0.8333   -0.0455 C   0  0  0  0  0  0  0  0  0  0  0  0
   -1.8779   -1.4722   -0.7146 H   0  0  0  0  0  0  0  0  0  0  0  0
   -2.8883   -1.6925    1.1652 C   0  0  0  0  0  0  0  0  0  0  0  0
   -1.9602   -2.0381    1.6665 H   0  0  0  0  0  0  0  0  0  0  0  0
   -3.4538   -1.0783    1.9029 H   0  0  0  0  0  0  0  0  0  0  0  0
   -3.7483   -2.8856    0.7288 C   0  0  0  0  0  0  0  0  0  0  0  0
   -3.1279   -3.5619    0.1003 H   0  0  0  0  0  0  0  0  0  0  0  0
   -4.0546   -3.4781    1.6154 H   0  0  0  0  0  0  0  0  0  0  0  0
   -4.9759   -2.4317   -0.0708 C   0  0  0  0  0  0  0  0  0  0  0  0
   -5.6483   -1.8393    0.5911 H   0  0  0  0  0  0  0  0  0  0  0  0
   -5.5653   -3.3096   -0.4074 H   0  0  0  0  0  0  0  0  0  0  0  0
   -4.5691   -1.5723   -1.2749 C   0  0  0  0  0  0  0  0  0  0  0  0
   -3.9818   -2.1936   -1.9865 H   0  0  0  0  0  0  0  0  0  0  0  0
   -5.4649   -1.2239   -1.8295 H   0  0  0  0  0  0  0  0  0  0  0  0
   -3.7183   -0.3675   -0.8462 C   0  0  0  0  0  0  0  0  0  0  0  0
   -4.3485    0.3139   -0.2303 H   0  0  0  0  0  0  0  0  0  0  0  0
   -3.3827    0.2120   -1.7320 H   0  0  0  0  0  0  0  0  0  0  0  0
    1.9663    1.1293    0.4235 C   0  0  0  0  0  0  0  0  0  0  0  0
    2.7158    0.4820    1.4370 C   0  0  0  0  0  0  0  0  0  0  0  0
    4.1194    0.5075    1.3286 C   0  0  0  0  0  0  0  0  0  0  0  0
    4.7260    0.0083    2.0993 H   0  0  0  0  0  0  0  0  0  0  0  0
    4.7539    1.1528    0.2619 C   0  0  0  0  0  0  0  0  0  0  0  0
    5.8526    1.1579    0.1975 H   0  0  0  0  0  0  0  0  0  0  0  0
    3.9923    1.7844   -0.7296 C   0  0  0  0  0  0  0  0  0  0  0  0
    4.4991    2.2747   -1.5741 H   0  0  0  0  0  0  0  0  0  0  0  0
    2.5876    1.7827   -0.6713 C   0  0  0  0  0  0  0  0  0  0  0  0
    2.0592   -0.2003    2.6305 C   0  0  0  0  0  0  0  0  0  0  0  0
    0.9676   -0.2217    2.4431 H   0  0  0  0  0  0  0  0  0  0  0  0
    1.7580    2.3768   -1.8034 C   0  0  0  0  0  0  0  0  0  0  0  0
    0.7326    2.5401   -1.4156 H   0  0  0  0  0  0  0  0  0  0  0  0
    2.2919    0.6130    3.9162 C   0  0  0  0  0  0  0  0  0  0  0  0
    1.7790    0.1398    4.7789 H   0  0  0  0  0  0  0  0  0  0  0  0
    3.3726    0.6765    4.1610 H   0  0  0  0  0  0  0  0  0  0  0  0
    1.9118    1.6499    3.8146 H   0  0  0  0  0  0  0  0  0  0  0  0
    2.5181   -1.6590    2.7849 C   0  0  0  0  0  0  0  0  0  0  0  0
    1.9643   -2.1517    3.6101 H   0  0  0  0  0  0  0  0  0  0  0  0
    2.3385   -2.2348    1.8544 H   0  0  0  0  0  0  0  0  0  0  0  0
    3.5991   -1.7266    3.0261 H   0  0  0  0  0  0  0  0  0  0  0  0
    2.2807    3.7343   -2.2936 C   0  0  0  0  0  0  0  0  0  0  0  0
    1.5885    4.1664   -3.0451 H   0  0  0  0  0  0  0  0  0  0  0  0
    2.3837    4.4584   -1.4595 H   0  0  0  0  0  0  0  0  0  0  0  0
    3.2721    3.6454   -2.7833 H   0  0  0  0  0  0  0  0  0  0  0  0
    1.6456    1.3585   -2.9537 C   0  0  0  0  0  0  0  0  0  0  0  0
    1.2309    0.3945   -2.5928 H   0  0  0  0  0  0  0  0  0  0  0  0
    0.9913    1.7438   -3.7632 H   0  0  0  0  0  0  0  0  0  0  0  0
    2.6440    1.1466   -3.3886 H   0  0  0  0  0  0  0  0  0  0  0  0
  1  4  1  0  0  0  0
  1  2  1  0  0  0  0
  2  3  1  0  0  0  0
  4  5  1  0  0  0  0
  5  7  1  0  0  0  0
  5  6  1  0  0  0  0
  8  5  1  0  0  0  0
  8 15  1  0  0  0  0
  9  8  1  0  0  0  0
 10  8  1  0  0  0  0
 11 14  1  0  0  0  0
 11 10  1  0  0  0  0
 12 11  1  0  0  0  0
 13 11  1  0  0  0  0
 16 15  1  0  0  0  0
 16 19  1  0  0  0  0
 16 17  1  0  0  0  0
 18 16  1  0  0  0  0
 20  4  1  0  0  0  0
 20 22  1  0  0  0  0
 21 20  1  0  0  0  0
 22 23  1  0  0  0  0
 22 24  1  0  0  0  0
 25 22  1  0  0  0  0
 25 27  1  0  0  0  0
 26 25  1  0  0  0  0
 28 29  1  0  0  0  0
 28 25  1  0  0  0  0
 30 28  1  0  0  0  0
 31 34  1  0  0  0  0
 31 28  1  0  0  0  0
 32 31  1  0  0  0  0
 33 31  1  0  0  0  0
 34 35  1  0  0  0  0
 34 20  1  0  0  0  0
 36 34  1  0  0  0  0
 37  2  1  0  0  0  0
 37 38  1  0  0  0  0
 38 46  1  0  0  0  0
 39 38  2  0  0  0  0
 39 40  1  0  0  0  0
 41 39  1  0  0  0  0
 42 41  1  0  0  0  0
 43 45  1  0  0  0  0
 43 41  2  0  0  0  0
 44 43  1  0  0  0  0
 45 37  2  0  0  0  0
 46 54  1  0  0  0  0
 46 50  1  0  0  0  0
 47 46  1  0  0  0  0
 48 49  1  0  0  0  0
 48 45  1  0  0  0  0
 50 52  1  0  0  0  0
 50 51  1  0  0  0  0
 53 50  1  0  0  0  0
 54 57  1  0  0  0  0
 54 55  1  0  0  0  0
 56 54  1  0  0  0  0
 58 48  1  0  0  0  0
 58 60  1  0  0  0  0
 59 58  1  0  0  0  0
 61 58  1  0  0  0  0
 62 63  1  0  0  0  0
 62 48  1  0  0  0  0
 64 62  1  0  0  0  0
 65 62  1  0  0  0  0
M  END
