1
 OpenBabel05122313113D

 65 69  0  0  1  0  0  0  0  0999 V2000
   -0.0100   -0.0495   -0.6962 C   0  0  0  0  0  2  0  0  0  0  0  0
   -1.2795    0.3099   -1.0158 N   0  0  0  0  0  0  0  0  0  0  0  0
   -1.5461    1.3106   -0.9272 H   0  0  0  0  0  0  0  0  0  0  0  0
    0.9276    0.9321   -0.8059 N   0  0  0  0  0  0  0  0  0  0  0  0
    0.6168    2.1616   -1.5400 C   0  0  0  0  0  0  0  0  0  0  0  0
   -0.0967    1.9110   -2.3514 H   0  0  0  0  0  0  0  0  0  0  0  0
    1.5371    2.5373   -2.0160 H   0  0  0  0  0  0  0  0  0  0  0  0
    0.0330    3.3140   -0.6966 C   0  0  0  0  0  0  0  0  0  0  0  0
    0.5179    3.3370    0.3064 H   0  0  0  0  0  0  0  0  0  0  0  0
   -1.3534    3.0610   -0.5525 O   0  0  0  0  0  0  0  0  0  0  0  0
   -2.0036    3.8668    0.4284 C   0  0  0  0  0  0  0  0  0  0  0  0
   -3.0575    3.5381    0.4702 H   0  0  0  0  0  0  0  0  0  0  0  0
   -1.5458    3.7165    1.4304 H   0  0  0  0  0  0  0  0  0  0  0  0
   -1.9454    4.9415    0.1573 H   0  0  0  0  0  0  0  0  0  0  0  0
    0.2873    4.5868   -1.2329 O   0  0  0  0  0  0  0  0  0  0  0  0
   -0.2168    4.8130   -2.5446 C   0  0  0  0  0  0  0  0  0  0  0  0
   -0.1339    5.8995   -2.7352 H   0  0  0  0  0  0  0  0  0  0  0  0
    0.3727    4.2767   -3.3228 H   0  0  0  0  0  0  0  0  0  0  0  0
   -1.2825    4.5100   -2.6332 H   0  0  0  0  0  0  0  0  0  0  0  0
    2.3200    0.7511   -0.2324 C   0  0  2  0  0  0  0  0  0  0  0  0
    2.2093    0.4693    1.2864 C   0  0  0  0  0  0  0  0  0  0  0  0
    1.7016    1.3306    1.7744 H   0  0  0  0  0  0  0  0  0  0  0  0
    1.5677   -0.4226    1.4449 H   0  0  0  0  0  0  0  0  0  0  0  0
    3.1875    2.0238   -0.4046 C   0  0  0  0  0  0  0  0  0  0  0  0
    3.3329    2.2546   -1.4806 H   0  0  0  0  0  0  0  0  0  0  0  0
    2.6994    2.9054    0.0608 H   0  0  0  0  0  0  0  0  0  0  0  0
    3.0617   -0.4022   -0.9483 C   0  0  0  0  0  0  0  0  0  0  0  0
    2.4576   -1.3315   -0.8758 H   0  0  0  0  0  0  0  0  0  0  0  0
    3.1558   -0.1540   -2.0279 H   0  0  0  0  0  0  0  0  0  0  0  0
    3.5991    0.2340    1.8989 C   0  0  2  0  0  0  0  0  0  0  0  0
    3.4789   -0.0003    2.9775 H   0  0  0  0  0  0  0  0  0  0  0  0
    4.4460    1.5065    1.7282 C   0  0  0  0  0  0  0  0  0  0  0  0
    5.4519    1.3702    2.1791 H   0  0  0  0  0  0  0  0  0  0  0  0
    3.9667    2.3595    2.2558 H   0  0  0  0  0  0  0  0  0  0  0  0
    4.5824    1.8157    0.2274 C   0  0  1  0  0  0  0  0  0  0  0  0
    5.1641    2.7512    0.0870 H   0  0  0  0  0  0  0  0  0  0  0  0
    5.2959    0.6465   -0.4748 C   0  0  0  0  0  0  0  0  0  0  0  0
    5.4426    0.8768   -1.5522 H   0  0  0  0  0  0  0  0  0  0  0  0
    6.3051    0.4988   -0.0346 H   0  0  0  0  0  0  0  0  0  0  0  0
    4.4461   -0.6260   -0.3139 C   0  0  1  0  0  0  0  0  0  0  0  0
    4.9388   -1.4782   -0.8270 H   0  0  0  0  0  0  0  0  0  0  0  0
    4.2742   -0.9528    1.1828 C   0  0  0  0  0  0  0  0  0  0  0  0
    5.2644   -1.1595    1.6419 H   0  0  0  0  0  0  0  0  0  0  0  0
    3.6586   -1.8691    1.3031 H   0  0  0  0  0  0  0  0  0  0  0  0
   -2.3574   -0.6116   -1.1357 C   0  0  0  0  0  0  0  0  0  0  0  0
   -2.3161   -1.5953   -2.1406 C   0  0  0  0  0  0  0  0  0  0  0  0
   -1.4270   -1.6536   -2.7842 H   0  0  0  0  0  0  0  0  0  0  0  0
   -3.3933   -2.4706   -2.3211 C   0  0  0  0  0  0  0  0  0  0  0  0
   -3.3438   -3.2444   -3.1012 H   0  0  0  0  0  0  0  0  0  0  0  0
   -4.5326   -2.3483   -1.5107 C   0  0  0  0  0  0  0  0  0  0  0  0
   -5.3862   -3.0287   -1.6473 H   0  0  0  0  0  0  0  0  0  0  0  0
   -4.5737   -1.3712   -0.5083 C   0  0  0  0  0  0  0  0  0  0  0  0
   -5.4466   -1.3044    0.1585 H   0  0  0  0  0  0  0  0  0  0  0  0
   -3.4861   -0.4988   -0.2843 C   0  0  0  0  0  0  0  0  0  0  0  0
   -3.5227    0.4450    0.8650 C   0  0  0  0  0  0  0  0  0  0  0  0
   -4.6570    1.2533    1.1012 C   0  0  0  0  0  0  0  0  0  0  0  0
   -5.4902    1.2314    0.3819 H   0  0  0  0  0  0  0  0  0  0  0  0
   -4.7291    2.0792    2.2338 C   0  0  0  0  0  0  0  0  0  0  0  0
   -5.6227    2.7000    2.4009 H   0  0  0  0  0  0  0  0  0  0  0  0
   -3.6668    2.1119    3.1510 C   0  0  0  0  0  0  0  0  0  0  0  0
   -3.7251    2.7538    4.0432 H   0  0  0  0  0  0  0  0  0  0  0  0
   -2.5327    1.3132    2.9264 C   0  0  0  0  0  0  0  0  0  0  0  0
   -1.7023    1.3176    3.6492 H   0  0  0  0  0  0  0  0  0  0  0  0
   -2.4575    0.4888    1.7955 C   0  0  0  0  0  0  0  0  0  0  0  0
   -1.5825   -0.1629    1.6455 H   0  0  0  0  0  0  0  0  0  0  0  0
  2  3  1  0  0  0  0
  2  1  1  0  0  0  0
  4  1  1  0  0  0  0
  5  4  1  0  0  0  0
  5  8  1  0  0  0  0
  6  5  1  0  0  0  0
  7  5  1  0  0  0  0
  8 10  1  0  0  0  0
  8  9  1  0  0  0  0
 10 11  1  0  0  0  0
 11 12  1  0  0  0  0
 11 13  1  0  0  0  0
 14 11  1  0  0  0  0
 15  8  1  0  0  0  0
 16 15  1  0  0  0  0
 17 16  1  0  0  0  0
 18 16  1  0  0  0  0
 19 16  1  0  0  0  0
 20  4  1  6  0  0  0
 20 21  1  0  0  0  0
 21 23  1  0  0  0  0
 21 22  1  0  0  0  0
 21 30  1  0  0  0  0
 24 20  1  0  0  0  0
 24 26  1  0  0  0  0
 24 35  1  0  0  0  0
 25 24  1  0  0  0  0
 27 28  1  0  0  0  0
 27 40  1  0  0  0  0
 27 20  1  0  0  0  0
 29 27  1  0  0  0  0
 30 31  1  1  0  0  0
 32 30  1  0  0  0  0
 32 33  1  0  0  0  0
 32 34  1  0  0  0  0
 35 36  1  6  0  0  0
 35 32  1  0  0  0  0
 37 40  1  0  0  0  0
 37 39  1  0  0  0  0
 37 35  1  0  0  0  0
 38 37  1  0  0  0  0
 40 41  1  6  0  0  0
 40 42  1  0  0  0  0
 42 44  1  0  0  0  0
 42 43  1  0  0  0  0
 42 30  1  0  0  0  0
 45  2  1  0  0  0  0
 45 54  1  0  0  0  0
 46 45  2  0  0  0  0
 47 46  1  0  0  0  0
 48 46  1  0  0  0  0
 48 50  2  0  0  0  0
 49 48  1  0  0  0  0
 50 52  1  0  0  0  0
 51 50  1  0  0  0  0
 52 54  2  0  0  0  0
 52 53  1  0  0  0  0
 54 55  1  0  0  0  0
 55 56  2  0  0  0  0
 55 64  1  0  0  0  0
 56 58  1  0  0  0  0
 57 56  1  0  0  0  0
 58 59  1  0  0  0  0
 58 60  2  0  0  0  0
 60 61  1  0  0  0  0
 62 60  1  0  0  0  0
 62 63  1  0  0  0  0
 64 62  2  0  0  0  0
 65 64  1  0  0  0  0
M  END
