11
 OpenBabel05122313113D

 39 44  0  0  1  0  0  0  0  0999 V2000
    1.9065    0.5605   -0.1762 C   0  0  2  0  0  0  0  0  0  0  0  0
    1.1376   -0.9130    0.0284 C   0  0  1  0  0  0  0  0  0  0  0  0
    0.9629    1.7396   -0.2588 C   0  0  0  0  0  0  0  0  0  0  0  0
    1.5960    3.1180   -0.2714 C   0  0  0  0  0  0  0  0  0  0  0  0
    2.6075    3.0669   -0.7219 H   0  0  0  0  0  0  0  0  0  0  0  0
    0.9945    3.7874   -0.9191 H   0  0  0  0  0  0  0  0  0  0  0  0
    1.6827    3.7418    1.1325 C   0  0  0  0  0  0  0  0  0  0  0  0
    2.1753    4.7345    1.0919 H   0  0  0  0  0  0  0  0  0  0  0  0
    2.2663    3.1029    1.8232 H   0  0  0  0  0  0  0  0  0  0  0  0
    0.6703    3.8779    1.5607 H   0  0  0  0  0  0  0  0  0  0  0  0
   -0.3857    1.5203   -0.2561 C   0  0  0  0  0  3  0  0  0  0  0  0
   -1.3341    2.6520   -0.4409 C   0  0  0  0  0  0  0  0  0  0  0  0
   -1.9813    3.2646    0.5832 C   0  0  0  0  0  0  0  0  0  0  0  0
   -1.8089    2.9771    1.6306 H   0  0  0  0  0  0  0  0  0  0  0  0
   -2.6736    4.1015    0.3989 H   0  0  0  0  0  0  0  0  0  0  0  0
   -1.5576    3.1076   -1.8688 C   0  0  0  0  0  0  0  0  0  0  0  0
   -2.2083    4.0025   -1.9152 H   0  0  0  0  0  0  0  0  0  0  0  0
   -2.0218    2.3139   -2.4875 H   0  0  0  0  0  0  0  0  0  0  0  0
   -0.5909    3.3470   -2.3588 H   0  0  0  0  0  0  0  0  0  0  0  0
    1.8596   -0.5328   -1.4929 B   0  0  2  0  0  0  0  0  0  0  0  0
    1.1767   -0.2455   -2.4374 H   0  0  0  0  0  0  0  0  0  0  0  0
    3.3232    0.4034   -1.1455 B   0  0  2  0  0  0  0  0  0  0  0  0
    3.6047    1.3113   -1.8888 H   0  0  0  0  0  0  0  0  0  0  0  0
    3.4363    0.5966    0.6101 B   0  0  0  0  0  0  0  0  0  0  0  0
    3.8068    1.6366    1.0923 H   0  0  0  0  0  0  0  0  0  0  0  0
    2.0372   -0.2163    1.3359 B   0  0  2  0  0  0  0  0  0  0  0  0
    1.4709    0.2835    2.2698 H   0  0  0  0  0  0  0  0  0  0  0  0
    2.0340   -2.1371   -0.7764 B   0  0  1  0  0  0  0  0  0  0  0  0
    1.4299   -3.0692   -1.2534 H   0  0  0  0  0  0  0  0  0  0  0  0
    3.4397   -1.3346   -1.5232 B   0  0  0  0  0  0  0  0  0  0  0  0
    3.8943   -1.7152   -2.5771 H   0  0  0  0  0  0  0  0  0  0  0  0
    4.4250   -0.6355   -0.2070 B   0  0  1  0  0  0  0  0  0  0  0  0
    5.6240   -0.5029   -0.2955 H   0  0  0  0  0  0  0  0  0  0  0  0
    3.6189   -1.0154    1.3442 B   0  0  0  0  0  0  0  0  0  0  0  0
    4.2061   -1.1629    2.3910 H   0  0  0  0  0  0  0  0  0  0  0  0
    2.1397   -1.9413    0.9713 B   0  0  2  0  0  0  0  0  0  0  0  0
    1.6087   -2.7352    1.7127 H   0  0  0  0  0  0  0  0  0  0  0  0
    3.6266   -2.2150    0.0211 B   0  0  1  0  0  0  0  0  0  0  0  0
    4.2309   -3.2599    0.0994 H   0  0  0  0  0  0  0  0  0  0  0  0
  1  3  1  6  0  0  0
  1  2  1  0  0  0  0
  1 26  1  0  0  0  0
  2 36  1  0  0  0  0
  3 11  2  0  0  0  0
  4  3  1  0  0  0  0
  4  7  1  0  0  0  0
  5  4  1  0  0  0  0
  6  4  1  0  0  0  0
  7 10  1  0  0  0  0
  7  9  1  0  0  0  0
  8  7  1  0  0  0  0
 12 11  1  0  0  0  0
 12 13  2  0  0  0  0
 13 14  1  0  0  0  0
 15 13  1  0  0  0  0
 16 12  1  0  0  0  0
 17 16  1  0  0  0  0
 18 16  1  0  0  0  0
 19 16  1  0  0  0  0
 20 28  1  0  0  0  0
 20  1  1  0  0  0  0
 20  2  1  0  0  0  0
 21 20  1  0  0  0  0
 22 32  1  0  0  0  0
 22 24  1  0  0  0  0
 23 22  1  0  0  0  0
 24 25  1  0  0  0  0
 26 34  1  0  0  0  0
 26 27  1  0  0  0  0
 28  2  1  0  0  0  0
 28 36  1  0  0  0  0
 29 28  1  0  0  0  0
 30 22  1  0  0  0  0
 30 38  1  0  0  0  0
 31 30  1  0  0  0  0
 32 38  1  0  0  0  0
 32 24  1  0  0  0  0
 33 32  1  0  0  0  0
 34 35  1  0  0  0  0
 36 26  1  0  0  0  0
 36 37  1  0  0  0  0
 38 39  1  0  0  0  0
 38 34  1  0  0  0  0
M  END
