16
 OpenBabel05122313113D

 47 52  0  0  1  0  0  0  0  0999 V2000
   -0.8652    3.7327    0.6355 N   0  0  0  0  0  0  0  0  0  0  0  0
   -1.8089    0.8074   -0.3162 C   0  0  2  0  0  0  0  0  0  0  0  0
   -1.7015   -0.8501   -0.0770 C   0  0  1  0  0  0  0  0  0  0  0  0
   -0.4611    1.4969   -0.3487 C   0  0  0  0  0  0  0  0  0  0  0  0
   -0.4760    2.9989   -0.5647 C   0  0  0  0  0  0  0  0  0  0  0  0
    0.5244    3.3272   -0.9479 H   0  0  0  0  0  0  0  0  0  0  0  0
   -1.2167    3.2384   -1.3547 H   0  0  0  0  0  0  0  0  0  0  0  0
    0.1139    3.6684    1.6990 C   0  0  0  0  0  0  0  0  0  0  0  0
    0.3311    2.6107    1.9490 H   0  0  0  0  0  0  0  0  0  0  0  0
   -0.2884    4.1576    2.6092 H   0  0  0  0  0  0  0  0  0  0  0  0
    1.0903    4.1615    1.4409 H   0  0  0  0  0  0  0  0  0  0  0  0
   -1.2950    5.0847    0.3446 C   0  0  0  0  0  0  0  0  0  0  0  0
   -2.1332    5.0688   -0.3816 H   0  0  0  0  0  0  0  0  0  0  0  0
   -0.4809    5.7321   -0.0822 H   0  0  0  0  0  0  0  0  0  0  0  0
   -1.6591    5.5728    1.2716 H   0  0  0  0  0  0  0  0  0  0  0  0
    0.6737    0.7578   -0.1715 C   0  0  0  0  0  3  0  0  0  0  0  0
    2.0253    1.3519   -0.3099 C   0  0  0  0  0  0  0  0  0  0  0  0
    2.5257    1.7046   -1.5904 C   0  0  0  0  0  0  0  0  0  0  0  0
    1.8722    1.5791   -2.4672 H   0  0  0  0  0  0  0  0  0  0  0  0
    3.8217    2.2117   -1.7531 C   0  0  0  0  0  0  0  0  0  0  0  0
    4.1783    2.4793   -2.7597 H   0  0  0  0  0  0  0  0  0  0  0  0
    4.6594    2.3898   -0.6392 C   0  0  0  0  0  0  0  0  0  0  0  0
    5.6767    2.7892   -0.7660 H   0  0  0  0  0  0  0  0  0  0  0  0
    4.1785    2.0632    0.6381 C   0  0  0  0  0  0  0  0  0  0  0  0
    4.8153    2.2172    1.5230 H   0  0  0  0  0  0  0  0  0  0  0  0
    2.8842    1.5465    0.7993 C   0  0  0  0  0  0  0  0  0  0  0  0
    2.5162    1.3203    1.8097 H   0  0  0  0  0  0  0  0  0  0  0  0
   -2.3145    0.1714    1.1806 B   0  0  2  0  0  0  0  0  0  0  0  0
   -1.6416    0.4194    2.1445 H   0  0  0  0  0  0  0  0  0  0  0  0
   -3.2426    1.4616    0.3898 B   0  0  2  0  0  0  0  0  0  0  0  0
   -3.1852    2.5644    0.8628 H   0  0  0  0  0  0  0  0  0  0  0  0
   -3.1208    1.2054   -1.3585 B   0  0  0  0  0  0  0  0  0  0  0  0
   -2.9892    2.1339   -2.1177 H   0  0  0  0  0  0  0  0  0  0  0  0
   -2.1312   -0.2389   -1.6337 B   0  0  1  0  0  0  0  0  0  0  0  0
   -1.3457   -0.2653   -2.5409 H   0  0  0  0  0  0  0  0  0  0  0  0
   -3.0747   -1.3809    0.8018 B   0  0  1  0  0  0  0  0  0  0  0  0
   -2.9412   -2.3084    1.5660 H   0  0  0  0  0  0  0  0  0  0  0  0
   -4.0827    0.0585    1.0991 B   0  0  0  0  0  0  0  0  0  0  0  0
   -4.7343    0.1696    2.1118 H   0  0  0  0  0  0  0  0  0  0  0  0
   -4.5903    0.6996   -0.4898 B   0  0  1  0  0  0  0  0  0  0  0  0
   -5.6333    1.2926   -0.6448 H   0  0  0  0  0  0  0  0  0  0  0  0
   -3.8946   -0.3518   -1.7551 B   0  0  0  0  0  2  0  0  0  0  0  0
   -4.4059   -0.5379   -2.8352 H   0  0  0  0  0  0  0  0  0  0  0  0
   -2.9618   -1.6335   -0.9388 B   0  0  2  0  0  0  0  0  0  0  0  0
   -2.7451   -2.7346   -1.3898 H   0  0  0  0  0  0  0  0  0  0  0  0
   -4.4953   -1.0630   -0.2296 B   0  0  0  0  0  0  0  0  0  0  0  0
   -5.4668   -1.7827   -0.1913 H   0  0  0  0  0  0  0  0  0  0  0  0
  1  8  1  0  0  0  0
  2  4  1  6  0  0  0
  2  3  1  0  0  0  0
  2 28  1  0  0  0  0
  3 36  1  0  0  0  0
  4 16  2  0  0  0  0
  5  4  1  0  0  0  0
  5  1  1  0  0  0  0
  6  5  1  0  0  0  0
  7  5  1  0  0  0  0
  8  9  1  0  0  0  0
  8 10  1  0  0  0  0
 11  8  1  0  0  0  0
 12  1  1  0  0  0  0
 12 15  1  0  0  0  0
 13 12  1  0  0  0  0
 14 12  1  0  0  0  0
 17 16  1  0  0  0  0
 17 26  1  0  0  0  0
 18 17  2  0  0  0  0
 19 18  1  0  0  0  0
 20 18  1  0  0  0  0
 20 22  2  0  0  0  0
 21 20  1  0  0  0  0
 22 24  1  0  0  0  0
 23 22  1  0  0  0  0
 24 26  2  0  0  0  0
 24 25  1  0  0  0  0
 26 27  1  0  0  0  0
 28 29  1  0  0  0  0
 30 31  1  0  0  0  0
 30 38  1  0  0  0  0
 32 40  1  0  0  0  0
 32 30  1  0  0  0  0
 33 32  1  0  0  0  0
 34 44  1  0  0  0  0
 34  2  1  0  0  0  0
 34  3  1  0  0  0  0
 35 34  1  0  0  0  0
 36 28  1  0  0  0  0
 36 37  1  0  0  0  0
 38 28  1  0  0  0  0
 38 39  1  0  0  0  0
 40 46  1  0  0  0  0
 40 30  1  0  0  0  0
 41 40  1  0  0  0  0
 42 46  1  0  0  0  0
 43 42  1  0  0  0  0
 44  3  1  0  0  0  0
 44 36  1  0  0  0  0
 45 44  1  0  0  0  0
 46 47  1  0  0  0  0
M  END
