1
 OpenBabel05122313113D

 27 28  0  0  0  0  0  0  0  0999 V2000
    1.2075    0.8335    0.0724 C   0  0  0  0  0  2  0  0  0  0  0  0
    0.8562    1.8710    0.8437 N   0  0  0  0  0  0  0  0  0  0  0  0
    1.5208    3.1857    0.8466 C   0  0  0  0  0  0  0  0  0  0  0  0
    2.0589    3.4751    2.2543 C   0  0  0  0  0  0  0  0  0  0  0  0
    1.0411    3.4165    3.2350 O   0  0  0  0  0  0  0  0  0  0  0  0
    0.4205    2.1403    3.2437 C   0  0  0  0  0  0  0  0  0  0  0  0
   -0.1789    1.8057    1.8771 C   0  0  0  0  0  0  0  0  0  0  0  0
    2.1357    1.1853   -1.0243 C   0  0  0  0  0  0  0  0  0  0  0  0
    3.4272    0.8182   -1.2153 C   0  0  0  0  0  0  0  0  0  0  0  0
    3.9411    1.2578   -2.5642 C   0  0  0  0  0  0  0  0  0  0  0  0
    2.8933    2.3005   -3.0172 C   0  0  0  0  0  0  0  0  0  0  0  0
    1.6063    1.9374   -2.2455 C   0  0  0  0  0  0  0  0  0  0  0  0
    0.7842    3.9664    0.5570 H   0  0  0  0  0  0  0  0  0  0  0  0
    2.3505    3.1709    0.1155 H   0  0  0  0  0  0  0  0  0  0  0  0
    2.8715    2.7411    2.4823 H   0  0  0  0  0  0  0  0  0  0  0  0
    2.4905    4.4954    2.2924 H   0  0  0  0  0  0  0  0  0  0  0  0
   -0.3737    2.1684    4.0156 H   0  0  0  0  0  0  0  0  0  0  0  0
    1.1510    1.3424    3.5232 H   0  0  0  0  0  0  0  0  0  0  0  0
   -0.6214    0.7955    1.8625 H   0  0  0  0  0  0  0  0  0  0  0  0
   -0.9661    2.5498    1.6233 H   0  0  0  0  0  0  0  0  0  0  0  0
    4.0082    0.2014   -0.5156 H   0  0  0  0  0  0  0  0  0  0  0  0
    4.9743    1.6639   -2.5376 H   0  0  0  0  0  0  0  0  0  0  0  0
    3.9716    0.3807   -3.2535 H   0  0  0  0  0  0  0  0  0  0  0  0
    2.7455    2.3253   -4.1150 H   0  0  0  0  0  0  0  0  0  0  0  0
    3.2311    3.3127   -2.7087 H   0  0  0  0  0  0  0  0  0  0  0  0
    0.9830    2.8183   -1.9822 H   0  0  0  0  0  0  0  0  0  0  0  0
    0.9448    1.2563   -2.8248 H   0  0  0  0  0  0  0  0  0  0  0  0
  1  2  1  0  0  0  0
  2  3  1  0  0  0  0
  2  7  1  0  0  0  0
  3  4  1  0  0  0  0
  4 16  1  0  0  0  0
  4 15  1  0  0  0  0
  4  5  1  0  0  0  0
  5  6  1  0  0  0  0
  6 18  1  0  0  0  0
  6 17  1  0  0  0  0
  7  6  1  0  0  0  0
  8  1  1  0  0  0  0
  9  8  2  0  0  0  0
  9 21  1  0  0  0  0
 10 22  1  0  0  0  0
 10  9  1  0  0  0  0
 11 25  1  0  0  0  0
 11 10  1  0  0  0  0
 11 12  1  0  0  0  0
 12 26  1  0  0  0  0
 12  8  1  0  0  0  0
 13  3  1  0  0  0  0
 14  3  1  0  0  0  0
 19  7  1  0  0  0  0
 20  7  1  0  0  0  0
 23 10  1  0  0  0  0
 24 11  1  0  0  0  0
 27 12  1  0  0  0  0
M  END
