3
 OpenBabel05122313113D

 26 25  0  0  0  0  0  0  0  0999 V2000
    2.4635   -0.9910    0.1457 Si  0  0  0  0  0  0  0  0  0  0  0  0
    0.9128   -1.8229    0.3133 O   0  0  0  0  0  0  0  0  0  0  0  0
    1.7051    0.6789    0.3971 C   0  0  0  0  0  3  0  0  0  0  0  0
    2.4843    1.8772   -0.1830 C   0  0  0  0  0  0  0  0  0  0  0  0
    1.7967    3.2159    0.1116 C   0  0  0  0  0  0  0  0  0  0  0  0
    3.9348    1.9192    0.3331 C   0  0  0  0  0  0  0  0  0  0  0  0
    3.1265   -1.3322   -1.5815 C   0  0  0  0  0  0  0  0  0  0  0  0
    3.5906   -1.7562    1.4550 C   0  0  0  0  0  0  0  0  0  0  0  0
    0.6778   -3.1661   -0.0965 C   0  0  0  0  0  0  0  0  0  0  0  0
    1.5966    0.8341    1.4971 H   0  0  0  0  0  0  0  0  0  0  0  0
    2.5245    1.7603   -1.2890 H   0  0  0  0  0  0  0  0  0  0  0  0
    0.7739    3.2418   -0.3051 H   0  0  0  0  0  0  0  0  0  0  0  0
    1.7283    3.3861    1.2085 H   0  0  0  0  0  0  0  0  0  0  0  0
    2.3620    4.0666   -0.3221 H   0  0  0  0  0  0  0  0  0  0  0  0
    3.9561    1.9885    1.4422 H   0  0  0  0  0  0  0  0  0  0  0  0
    4.4902    2.7926   -0.0691 H   0  0  0  0  0  0  0  0  0  0  0  0
    4.5058    1.0097    0.0478 H   0  0  0  0  0  0  0  0  0  0  0  0
    3.3494   -2.4075   -1.7370 H   0  0  0  0  0  0  0  0  0  0  0  0
    2.3908   -1.0028   -2.3416 H   0  0  0  0  0  0  0  0  0  0  0  0
    4.0692   -0.7716   -1.7484 H   0  0  0  0  0  0  0  0  0  0  0  0
    3.7482   -2.8419    1.2842 H   0  0  0  0  0  0  0  0  0  0  0  0
    3.1652   -1.6199    2.4700 H   0  0  0  0  0  0  0  0  0  0  0  0
    4.5868   -1.2683    1.4373 H   0  0  0  0  0  0  0  0  0  0  0  0
    1.3661   -3.8508    0.4433 H   0  0  0  0  0  0  0  0  0  0  0  0
    0.8177   -3.2865   -1.1914 H   0  0  0  0  0  0  0  0  0  0  0  0
   -0.3665   -3.4354    0.1525 H   0  0  0  0  0  0  0  0  0  0  0  0
  1  2  1  0  0  0  0
  1  3  1  0  0  0  0
  1  8  1  0  0  0  0
  3 10  1  0  0  0  0
  4  5  1  0  0  0  0
  4  6  1  0  0  0  0
  4  3  1  0  0  0  0
  5 13  1  0  0  0  0
  6 15  1  0  0  0  0
  7  1  1  0  0  0  0
  8 22  1  0  0  0  0
  9 26  1  0  0  0  0
  9  2  1  0  0  0  0
  9 24  1  0  0  0  0
 11  4  1  0  0  0  0
 12  5  1  0  0  0  0
 14  5  1  0  0  0  0
 16  6  1  0  0  0  0
 17  6  1  0  0  0  0
 18  7  1  0  0  0  0
 19  7  1  0  0  0  0
 20  7  1  0  0  0  0
 21  8  1  0  0  0  0
 23  8  1  0  0  0  0
 25  9  1  0  0  0  0
M  END
