7
 OpenBabel05122313113D

 18 18  0  0  1  0  0  0  0  0999 V2000
   -2.0082    0.2039    1.1312 C   0  0  1  0  0  3  0  0  0  0  0  0
   -1.8427    1.3086    0.2643 C   0  0  0  0  0  3  0  0  0  0  0  0
   -2.8725    1.6685   -0.7824 C   0  0  0  0  0  0  0  0  0  0  0  0
   -3.7096    0.4534   -1.1905 C   0  0  0  0  0  0  0  0  0  0  0  0
   -4.2889   -0.2263    0.0549 C   0  0  0  0  0  0  0  0  0  0  0  0
   -3.1865   -0.7477    0.9900 C   0  0  0  0  0  0  0  0  0  0  0  0
   -0.9091   -0.0741    2.0247 C   0  0  0  0  0  3  0  0  0  0  0  0
   -1.1969    2.1359    0.6182 H   0  0  0  0  0  0  0  0  0  0  0  0
   -2.3742    2.1246   -1.6621 H   0  0  0  0  0  0  0  0  0  0  0  0
   -3.5451    2.4553   -0.3658 H   0  0  0  0  0  0  0  0  0  0  0  0
   -4.5224    0.7625   -1.8796 H   0  0  0  0  0  0  0  0  0  0  0  0
   -3.0648   -0.2629   -1.7453 H   0  0  0  0  0  0  0  0  0  0  0  0
   -4.9619   -1.0619   -0.2264 H   0  0  0  0  0  0  0  0  0  0  0  0
   -4.9202    0.5117    0.5987 H   0  0  0  0  0  0  0  0  0  0  0  0
   -2.8259   -1.7404    0.6490 H   0  0  0  0  0  0  0  0  0  0  0  0
   -3.5985   -0.9136    2.0087 H   0  0  0  0  0  0  0  0  0  0  0  0
   -0.4665    0.7887    2.5542 H   0  0  0  0  0  0  0  0  0  0  0  0
   -0.9723   -0.9855    2.6421 H   0  0  0  0  0  0  0  0  0  0  0  0
  1  7  1  6  0  0  0
  2  8  1  0  0  0  0
  2  1  1  0  0  0  0
  3 10  1  0  0  0  0
  3  2  1  0  0  0  0
  4  3  1  0  0  0  0
  4  5  1  0  0  0  0
  5 14  1  0  0  0  0
  5  6  1  0  0  0  0
  6  1  1  0  0  0  0
  6 16  1  0  0  0  0
  7 17  1  0  0  0  0
  7 18  1  0  0  0  0
  9  3  1  0  0  0  0
 11  4  1  0  0  0  0
 12  4  1  0  0  0  0
 13  5  1  0  0  0  0
 15  6  1  0  0  0  0
M  END
