3
 OpenBabel05122313113D

 21 22  0  0  0  0  0  0  0  0999 V2000
   -0.3640    2.0027   -0.8863 O   0  0  0  0  0  0  0  0  0  0  0  0
    1.1176    1.2538    0.7660 N   0  0  0  0  0  0  0  0  0  0  0  0
   -1.6465    0.0743   -0.0103 C   0  0  0  0  0  3  0  0  0  0  0  0
   -1.5072    1.4438   -0.3179 C   0  0  0  0  0  0  0  0  0  0  0  0
   -2.5883    2.3298   -0.1723 C   0  0  0  0  0  0  0  0  0  0  0  0
   -2.4355    3.3866   -0.4355 H   0  0  0  0  0  0  0  0  0  0  0  0
   -3.8262    1.8598    0.2853 C   0  0  0  0  0  0  0  0  0  0  0  0
   -4.6684    2.5593    0.3954 H   0  0  0  0  0  0  0  0  0  0  0  0
   -3.9847    0.5016    0.5962 C   0  0  0  0  0  0  0  0  0  0  0  0
   -4.9535    0.1214    0.9534 H   0  0  0  0  0  0  0  0  0  0  0  0
   -2.9006   -0.3787    0.4465 C   0  0  0  0  0  0  0  0  0  0  0  0
   -3.0402   -1.4427    0.6918 H   0  0  0  0  0  0  0  0  0  0  0  0
    0.8595    2.0348   -0.2817 C   0  0  0  0  0  0  0  0  0  0  0  0
    1.8060    2.9155   -0.8514 C   0  0  0  0  0  0  0  0  0  0  0  0
    1.5242    3.5298   -1.7175 H   0  0  0  0  0  0  0  0  0  0  0  0
    3.0734    2.9662   -0.2702 C   0  0  0  0  0  0  0  0  0  0  0  0
    3.8401    3.6400   -0.6818 H   0  0  0  0  0  0  0  0  0  0  0  0
    3.3580    2.1528    0.8437 C   0  0  0  0  0  0  0  0  0  0  0  0
    4.3460    2.1634    1.3249 H   0  0  0  0  0  0  0  0  0  0  0  0
    2.3456    1.3135    1.3182 C   0  0  0  0  0  0  0  0  0  0  0  0
    2.5232    0.6397    2.1737 H   0  0  0  0  0  0  0  0  0  0  0  0
  1  4  1  0  0  0  0
  1 13  1  0  0  0  0
  2 20  1  0  0  0  0
  3 11  1  0  0  0  0
  4  5  1  0  0  0  0
  4  3  2  0  0  0  0
  5  7  2  0  0  0  0
  6  5  1  0  0  0  0
  7  8  1  0  0  0  0
  7  9  1  0  0  0  0
  9 10  1  0  0  0  0
 11  9  2  0  0  0  0
 11 12  1  0  0  0  0
 13  2  2  0  0  0  0
 14 13  1  0  0  0  0
 14 16  2  0  0  0  0
 15 14  1  0  0  0  0
 16 18  1  0  0  0  0
 17 16  1  0  0  0  0
 18 20  2  0  0  0  0
 18 19  1  0  0  0  0
 20 21  1  0  0  0  0
M  END
