1
 OpenBabel05122313113D

 40 42  0  0  0  0  0  0  0  0999 V2000
   -0.2088   -1.9750   -0.5331 C   0  0  0  0  0  2  0  0  0  0  0  0
   -1.3327   -2.6340   -0.9384 N   0  0  0  0  0  0  0  0  0  0  0  0
    0.8003   -2.8943   -0.6345 N   0  0  0  0  0  0  0  0  0  0  0  0
   -1.0391   -3.9455   -1.2836 C   0  0  0  0  0  0  0  0  0  0  0  0
   -1.8064   -4.6470   -1.6243 H   0  0  0  0  0  0  0  0  0  0  0  0
    0.3109   -4.1098   -1.0978 C   0  0  0  0  0  0  0  0  0  0  0  0
    0.9591   -4.9793   -1.2404 H   0  0  0  0  0  0  0  0  0  0  0  0
   -2.6604   -2.0179   -1.0170 C   0  0  0  0  0  0  0  0  0  0  0  0
   -3.1338   -2.3454   -1.9628 H   0  0  0  0  0  0  0  0  0  0  0  0
   -2.4905   -0.9228   -1.0913 H   0  0  0  0  0  0  0  0  0  0  0  0
   -3.5637   -2.3172    0.1604 C   0  0  0  0  0  0  0  0  0  0  0  0
   -4.8922   -2.7253   -0.0593 C   0  0  0  0  0  0  0  0  0  0  0  0
   -5.2472   -2.8926   -1.0889 H   0  0  0  0  0  0  0  0  0  0  0  0
   -5.7686   -2.9156    1.0217 C   0  0  0  0  0  0  0  0  0  0  0  0
   -6.8044   -3.2375    0.8366 H   0  0  0  0  0  0  0  0  0  0  0  0
   -5.3201   -2.7046    2.3341 C   0  0  0  0  0  0  0  0  0  0  0  0
   -6.0038   -2.8562    3.1827 H   0  0  0  0  0  0  0  0  0  0  0  0
   -3.9902   -2.3104    2.5618 C   0  0  0  0  0  0  0  0  0  0  0  0
   -3.6319   -2.1517    3.5900 H   0  0  0  0  0  0  0  0  0  0  0  0
   -3.1174   -2.1173    1.4820 C   0  0  0  0  0  0  0  0  0  0  0  0
   -2.0772   -1.8025    1.6637 H   0  0  0  0  0  0  0  0  0  0  0  0
    2.1764   -2.5791   -0.3818 C   0  0  0  0  0  0  0  0  0  0  0  0
    2.5765   -2.1011    0.8782 C   0  0  0  0  0  0  0  0  0  0  0  0
    1.8478   -2.0664    1.7016 H   0  0  0  0  0  0  0  0  0  0  0  0
    3.8883   -1.6748    1.0890 C   0  0  0  0  0  0  0  0  0  0  0  0
    4.1679   -1.3081    2.0842 H   0  0  0  0  0  0  0  0  0  0  0  0
    4.8557   -1.7160    0.0399 C   0  0  0  0  0  0  0  0  0  0  0  0
    4.4379   -2.2553   -1.2137 C   0  0  0  0  0  0  0  0  0  0  0  0
    5.1434   -2.3237   -2.0505 H   0  0  0  0  0  0  0  0  0  0  0  0
    3.1207   -2.6673   -1.4184 C   0  0  0  0  0  0  0  0  0  0  0  0
    2.8121   -3.0353   -2.4084 H   0  0  0  0  0  0  0  0  0  0  0  0
    6.1322   -1.2437    0.2257 N   0  0  0  0  0  0  0  0  0  0  0  0
    7.0850   -1.2747   -0.8686 C   0  0  0  0  0  0  0  0  0  0  0  0
    7.2349   -2.3068   -1.2522 H   0  0  0  0  0  0  0  0  0  0  0  0
    8.0626   -0.9060   -0.5114 H   0  0  0  0  0  0  0  0  0  0  0  0
    6.7673   -0.6318   -1.7209 H   0  0  0  0  0  0  0  0  0  0  0  0
    6.4835   -0.5757    1.4658 C   0  0  0  0  0  0  0  0  0  0  0  0
    5.8489    0.3213    1.6455 H   0  0  0  0  0  0  0  0  0  0  0  0
    7.5345   -0.2415    1.4142 H   0  0  0  0  0  0  0  0  0  0  0  0
    6.3882   -1.2517    2.3437 H   0  0  0  0  0  0  0  0  0  0  0  0
  2  1  1  0  0  0  0
  3  1  1  0  0  0  0
  3 22  1  0  0  0  0
  4  6  2  0  0  0  0
  4  2  1  0  0  0  0
  5  4  1  0  0  0  0
  6  3  1  0  0  0  0
  7  6  1  0  0  0  0
  8  2  1  0  0  0  0
  8 11  1  0  0  0  0
  9  8  1  0  0  0  0
 10  8  1  0  0  0  0
 11 20  1  0  0  0  0
 12 11  2  0  0  0  0
 12 14  1  0  0  0  0
 13 12  1  0  0  0  0
 14 16  2  0  0  0  0
 15 14  1  0  0  0  0
 16 18  1  0  0  0  0
 16 17  1  0  0  0  0
 18 19  1  0  0  0  0
 20 21  1  0  0  0  0
 20 18  2  0  0  0  0
 22 23  1  0  0  0  0
 23 25  2  0  0  0  0
 23 24  1  0  0  0  0
 25 26  1  0  0  0  0
 27 32  1  0  0  0  0
 27 25  1  0  0  0  0
 28 27  2  0  0  0  0
 29 28  1  0  0  0  0
 30 28  1  0  0  0  0
 30 22  2  0  0  0  0
 31 30  1  0  0  0  0
 32 37  1  0  0  0  0
 33 35  1  0  0  0  0
 33 32  1  0  0  0  0
 34 33  1  0  0  0  0
 36 33  1  0  0  0  0
 37 38  1  0  0  0  0
 37 40  1  0  0  0  0
 39 37  1  0  0  0  0
M  END
