4
 OpenBabel05122313113D

 11 11  0  0  0  0  0  0  0  0999 V2000
   -1.9772   -2.0239    0.0362 F   0  0  0  0  0  0  0  0  0  0  0  0
   -4.6044   -1.5348   -0.1430 F   0  0  0  0  0  0  0  0  0  0  0  0
   -5.5480    1.0254   -0.3540 F   0  0  0  0  0  0  0  0  0  0  0  0
   -1.4157    0.3198   -0.0428 C   0  0  0  0  0  3  0  0  0  0  0  0
   -2.3639   -0.7151   -0.0466 C   0  0  0  0  0  0  0  0  0  0  0  0
   -3.7482   -0.4992   -0.1481 C   0  0  0  0  0  0  0  0  0  0  0  0
   -4.2217    0.8184   -0.2563 C   0  0  0  0  0  0  0  0  0  0  0  0
   -3.3165    1.8829   -0.2717 C   0  0  0  0  0  0  0  0  0  0  0  0
   -3.7075    2.9058   -0.3733 H   0  0  0  0  0  0  0  0  0  0  0  0
   -1.9379    1.6300   -0.1655 C   0  0  0  0  0  0  0  0  0  0  0  0
   -1.2390    2.4775   -0.2106 H   0  0  0  0  0  0  0  0  0  0  0  0
  3  7  1  0  0  0  0
  5  4  1  0  0  0  0
  5  1  1  0  0  0  0
  6  2  1  0  0  0  0
  6  5  2  0  0  0  0
  7  6  1  0  0  0  0
  8  7  2  0  0  0  0
  8 10  1  0  0  0  0
  9  8  1  0  0  0  0
 10  4  2  0  0  0  0
 11 10  1  0  0  0  0
M  END
