3
 OpenBabel05122313113D

 54 55  0  0  0  0  0  0  0  0999 V2000
   -1.5531   -0.1076   -0.1009 N   0  0  0  0  0  0  0  0  0  0  0  0
   -3.8244    0.0956    0.1586 O   0  0  0  0  0  0  0  0  0  0  0  0
   -0.4519   -0.8119   -0.5168 C   0  0  0  0  0  2  0  0  0  0  0  0
   -0.7966   -2.1075   -1.2683 C   0  0  0  0  0  0  0  0  0  0  0  0
   -2.8752   -0.6574    0.0142 C   0  0  0  0  0  0  0  0  0  0  0  0
   -1.4419    1.3080    0.2484 C   0  0  0  0  0  0  0  0  0  0  0  0
   -1.1541    1.6759    1.5837 C   0  0  0  0  0  0  0  0  0  0  0  0
   -1.4564   -1.7298   -2.6156 C   0  0  0  0  0  0  0  0  0  0  0  0
   -2.4078   -1.1766   -2.4996 H   0  0  0  0  0  0  0  0  0  0  0  0
   -1.6708   -2.6542   -3.1890 H   0  0  0  0  0  0  0  0  0  0  0  0
   -0.7737   -1.1026   -3.2239 H   0  0  0  0  0  0  0  0  0  0  0  0
   -1.7399   -2.9234   -0.3587 C   0  0  0  0  0  0  0  0  0  0  0  0
   -2.0188   -3.8634   -0.8802 H   0  0  0  0  0  0  0  0  0  0  0  0
   -1.1422   -3.2088    0.5300 H   0  0  0  0  0  0  0  0  0  0  0  0
   -1.6480    2.2695   -0.7708 C   0  0  0  0  0  0  0  0  0  0  0  0
   -1.0863    0.6585    2.7098 C   0  0  0  0  0  0  0  0  0  0  0  0
   -0.9354   -0.3402    2.2561 H   0  0  0  0  0  0  0  0  0  0  0  0
    0.4453   -2.9627   -1.5762 C   0  0  0  0  0  0  0  0  0  0  0  0
    1.1719   -2.4044   -2.1982 H   0  0  0  0  0  0  0  0  0  0  0  0
    0.1334   -3.8718   -2.1315 H   0  0  0  0  0  0  0  0  0  0  0  0
    0.9550   -3.2741   -0.6454 H   0  0  0  0  0  0  0  0  0  0  0  0
   -1.1645    2.4798   -3.2695 C   0  0  0  0  0  0  0  0  0  0  0  0
   -1.1900    3.5890   -3.2766 H   0  0  0  0  0  0  0  0  0  0  0  0
   -1.4925    2.1385   -4.2726 H   0  0  0  0  0  0  0  0  0  0  0  0
   -0.1095    2.1694   -3.1307 H   0  0  0  0  0  0  0  0  0  0  0  0
   -2.0794    1.8938   -2.1825 C   0  0  0  0  0  0  0  0  0  0  0  0
   -2.0159    0.7944   -2.2675 H   0  0  0  0  0  0  0  0  0  0  0  0
   -3.0178   -2.1822    0.0900 C   0  0  0  0  0  0  0  0  0  0  0  0
    0.1070    0.8851    3.6472 C   0  0  0  0  0  0  0  0  0  0  0  0
    1.0486    0.9546    3.0684 H   0  0  0  0  0  0  0  0  0  0  0  0
    0.2072    0.0319    4.3467 H   0  0  0  0  0  0  0  0  0  0  0  0
   -0.0054    1.8079    4.2538 H   0  0  0  0  0  0  0  0  0  0  0  0
   -2.4202    0.6450    3.4810 C   0  0  0  0  0  0  0  0  0  0  0  0
   -2.5873    1.6122    3.9998 H   0  0  0  0  0  0  0  0  0  0  0  0
   -2.4182   -0.1567    4.2480 H   0  0  0  0  0  0  0  0  0  0  0  0
   -3.2805    0.4789    2.8030 H   0  0  0  0  0  0  0  0  0  0  0  0
   -1.0040    3.0477    1.8648 C   0  0  0  0  0  0  0  0  0  0  0  0
   -0.7682    3.3576    2.8935 H   0  0  0  0  0  0  0  0  0  0  0  0
   -4.2532   -2.5903   -0.7376 C   0  0  0  0  0  0  0  0  0  0  0  0
   -5.1337   -1.9934   -0.4330 H   0  0  0  0  0  0  0  0  0  0  0  0
   -4.4733   -3.6635   -0.5710 H   0  0  0  0  0  0  0  0  0  0  0  0
   -4.0921   -2.4400   -1.8227 H   0  0  0  0  0  0  0  0  0  0  0  0
   -1.1599    4.0171    0.8676 C   0  0  0  0  0  0  0  0  0  0  0  0
   -1.0363    5.0835    1.1103 H   0  0  0  0  0  0  0  0  0  0  0  0
   -3.5517    2.2844   -2.4082 C   0  0  0  0  0  0  0  0  0  0  0  0
   -4.1970    1.8317   -1.6312 H   0  0  0  0  0  0  0  0  0  0  0  0
   -3.8995    1.9412   -3.4046 H   0  0  0  0  0  0  0  0  0  0  0  0
   -3.6817    3.3859   -2.3665 H   0  0  0  0  0  0  0  0  0  0  0  0
   -1.4931    3.6281   -0.4340 C   0  0  0  0  0  0  0  0  0  0  0  0
   -1.6413    4.3932   -1.2110 H   0  0  0  0  0  0  0  0  0  0  0  0
   -3.2902   -2.4932    1.5840 C   0  0  0  0  0  0  0  0  0  0  0  0
   -2.4315   -2.1930    2.2163 H   0  0  0  0  0  0  0  0  0  0  0  0
   -3.4363   -3.5856    1.7058 H   0  0  0  0  0  0  0  0  0  0  0  0
   -4.1997   -1.9705    1.9379 H   0  0  0  0  0  0  0  0  0  0  0  0
  1  5  1  0  0  0  0
  1  6  1  0  0  0  0
  3  1  1  0  0  0  0
  4  3  1  0  0  0  0
  4 12  1  0  0  0  0
  5 28  1  0  0  0  0
  5  2  2  0  0  0  0
  6  7  1  0  0  0  0
  7 37  2  0  0  0  0
  7 16  1  0  0  0  0
  8  9  1  0  0  0  0
  8  4  1  0  0  0  0
 10  8  1  0  0  0  0
 11  8  1  0  0  0  0
 12 28  1  0  0  0  0
 12 14  1  0  0  0  0
 13 12  1  0  0  0  0
 15 49  1  0  0  0  0
 15  6  2  0  0  0  0
 16 33  1  0  0  0  0
 16 29  1  0  0  0  0
 17 16  1  0  0  0  0
 18  4  1  0  0  0  0
 18 21  1  0  0  0  0
 19 18  1  0  0  0  0
 20 18  1  0  0  0  0
 22 25  1  0  0  0  0
 22 26  1  0  0  0  0
 23 22  1  0  0  0  0
 24 22  1  0  0  0  0
 26 15  1  0  0  0  0
 27 26  1  0  0  0  0
 28 51  1  0  0  0  0
 29 32  1  0  0  0  0
 29 31  1  0  0  0  0
 30 29  1  0  0  0  0
 33 34  1  0  0  0  0
 33 35  1  0  0  0  0
 36 33  1  0  0  0  0
 37 38  1  0  0  0  0
 39 41  1  0  0  0  0
 39 40  1  0  0  0  0
 39 28  1  0  0  0  0
 42 39  1  0  0  0  0
 43 44  1  0  0  0  0
 43 37  1  0  0  0  0
 45 48  1  0  0  0  0
 45 26  1  0  0  0  0
 45 46  1  0  0  0  0
 47 45  1  0  0  0  0
 49 43  2  0  0  0  0
 50 49  1  0  0  0  0
 51 53  1  0  0  0  0
 51 54  1  0  0  0  0
 51 52  1  0  0  0  0
M  END
