5
 OpenBabel05122313113D

 67 71  0  0  0  0  0  0  0  0999 V2000
    8.1789   -0.5339   -0.1695 B   0  0  0  0  0  0  0  0  0  0  0  0
    9.0352   -0.9669    0.8514 F   0  0  0  0  0  0  0  0  0  0  0  0
    8.9114   -0.2027   -1.3172 F   0  0  0  0  0  0  0  0  0  0  0  0
   -2.7186   -1.1553    1.0918 O   0  0  0  0  0  0  0  0  0  0  0  0
   -3.4909   -0.2145    0.4963 C   0  0  0  0  0  3  0  0  0  0  0  0
   -2.7296    0.9627    0.2047 C   0  0  0  0  0  0  0  0  0  0  0  0
   -3.3073    1.8246   -0.1500 H   0  0  0  0  0  0  0  0  0  0  0  0
   -1.3427    1.1645    0.2454 C   0  0  0  0  0  0  0  0  0  0  0  0
   -0.4905    0.2279    0.7595 N   0  0  0  0  0  4  0  0  0  0  0  0
   -0.9803   -0.5404    1.2377 H   0  0  0  0  0  0  0  0  0  0  0  0
   -3.2217   -2.4589    1.4444 C   0  0  0  0  0  0  0  0  0  0  0  0
   -3.7911   -2.8653    0.5858 H   0  0  0  0  0  0  0  0  0  0  0  0
   -3.9238   -2.3445    2.2952 H   0  0  0  0  0  0  0  0  0  0  0  0
   -2.0364   -3.3321    1.8054 C   0  0  0  0  0  0  0  0  0  0  0  0
   -1.3385   -3.4317    0.9499 H   0  0  0  0  0  0  0  0  0  0  0  0
   -2.3871   -4.3456    2.0819 H   0  0  0  0  0  0  0  0  0  0  0  0
   -1.4789   -2.9196    2.6711 H   0  0  0  0  0  0  0  0  0  0  0  0
    7.1383   -1.6507   -0.5046 N   0  0  0  0  0  0  0  0  0  0  0  0
    5.7500   -1.5408   -0.3791 C   0  0  0  0  0  0  0  0  0  0  0  0
    5.1588   -2.7837   -0.8133 C   0  0  0  0  0  0  0  0  0  0  0  0
    6.2308   -3.6047   -1.1831 C   0  0  0  0  0  0  0  0  0  0  0  0
    6.1637   -4.6296   -1.5672 H   0  0  0  0  0  0  0  0  0  0  0  0
    7.4382   -2.8831   -0.9833 C   0  0  0  0  0  0  0  0  0  0  0  0
    3.7102   -3.1570   -0.8814 C   0  0  0  0  0  0  0  0  0  0  0  0
    3.1214   -2.4356   -1.4829 H   0  0  0  0  0  0  0  0  0  0  0  0
    3.2373   -3.1777    0.1215 H   0  0  0  0  0  0  0  0  0  0  0  0
    3.5945   -4.1602   -1.3345 H   0  0  0  0  0  0  0  0  0  0  0  0
    8.8392   -3.3241   -1.2333 C   0  0  0  0  0  0  0  0  0  0  0  0
    9.3300   -2.6515   -1.9657 H   0  0  0  0  0  0  0  0  0  0  0  0
    8.8657   -4.3624   -1.6102 H   0  0  0  0  0  0  0  0  0  0  0  0
    9.4379   -3.2521   -0.3027 H   0  0  0  0  0  0  0  0  0  0  0  0
    5.1662   -0.3466    0.0905 C   0  0  0  0  0  3  0  0  0  0  0  0
    7.3553    0.7038    0.3135 N   0  0  0  0  0  0  0  0  0  0  0  0
    5.9636    0.7664    0.4331 C   0  0  0  0  0  0  0  0  0  0  0  0
    5.6135    2.0734    0.9370 C   0  0  0  0  0  0  0  0  0  0  0  0
    6.8268    2.7540    1.0988 C   0  0  0  0  0  0  0  0  0  0  0  0
    6.9537    3.7793    1.4662 H   0  0  0  0  0  0  0  0  0  0  0  0
    7.8831    1.8884    0.7086 C   0  0  0  0  0  0  0  0  0  0  0  0
    4.2580    2.6342    1.2417 C   0  0  0  0  0  0  0  0  0  0  0  0
    4.3561    3.6338    1.7076 H   0  0  0  0  0  0  0  0  0  0  0  0
    3.6825    1.9857    1.9325 H   0  0  0  0  0  0  0  0  0  0  0  0
    3.6334    2.7423    0.3313 H   0  0  0  0  0  0  0  0  0  0  0  0
    9.3498    2.1507    0.7057 C   0  0  0  0  0  0  0  0  0  0  0  0
    9.8728    1.4213    1.3571 H   0  0  0  0  0  0  0  0  0  0  0  0
    9.5687    3.1770    1.0515 H   0  0  0  0  0  0  0  0  0  0  0  0
    9.7656    2.0052   -0.3118 H   0  0  0  0  0  0  0  0  0  0  0  0
   -0.7880    2.4571   -0.2323 C   0  0  0  0  0  0  0  0  0  0  0  0
   -1.2813    3.0548   -1.4129 C   0  0  0  0  0  0  0  0  0  0  0  0
   -2.0573    2.5388   -1.9984 H   0  0  0  0  0  0  0  0  0  0  0  0
   -0.7690    4.2841   -1.8514 C   0  0  0  0  0  0  0  0  0  0  0  0
   -1.1549    4.7344   -2.7781 H   0  0  0  0  0  0  0  0  0  0  0  0
    0.2344    4.9343   -1.1160 C   0  0  0  0  0  0  0  0  0  0  0  0
    0.6365    5.8981   -1.4627 H   0  0  0  0  0  0  0  0  0  0  0  0
    0.7212    4.3526    0.0673 C   0  0  0  0  0  0  0  0  0  0  0  0
    1.4981    4.8639    0.6557 H   0  0  0  0  0  0  0  0  0  0  0  0
    0.2182    3.1224    0.5055 C   0  0  0  0  0  0  0  0  0  0  0  0
    0.5978    2.6738    1.4351 H   0  0  0  0  0  0  0  0  0  0  0  0
    0.8910    0.0723    0.5450 C   0  0  0  0  0  0  0  0  0  0  0  0
    1.5259    0.4850   -0.6469 C   0  0  0  0  0  0  0  0  0  0  0  0
    0.9344    0.9255   -1.4600 H   0  0  0  0  0  0  0  0  0  0  0  0
    2.9082    0.3346   -0.7906 C   0  0  0  0  0  0  0  0  0  0  0  0
    3.3996    0.6710   -1.7157 H   0  0  0  0  0  0  0  0  0  0  0  0
    3.6866   -0.2457    0.2304 C   0  0  0  0  0  0  0  0  0  0  0  0
    3.0410   -0.7043    1.3953 C   0  0  0  0  0  0  0  0  0  0  0  0
    3.6364   -1.1694    2.1951 H   0  0  0  0  0  0  0  0  0  0  0  0
    1.6602   -0.5451    1.5548 C   0  0  0  0  0  0  0  0  0  0  0  0
    1.1679   -0.8765    2.4821 H   0  0  0  0  0  0  0  0  0  0  0  0
  1 33  1  0  0  0  0
  1  2  1  0  0  0  0
  3  1  1  0  0  0  0
  4 11  1  0  0  0  0
  5  4  1  0  0  0  0
  6  8  1  0  0  0  0
  6  5  2  0  0  0  0
  7  6  1  0  0  0  0
  8  9  2  0  0  0  0
  9 10  1  0  0  0  0
 11 14  1  0  0  0  0
 11 13  1  0  0  0  0
 12 11  1  0  0  0  0
 14 16  1  0  0  0  0
 14 17  1  0  0  0  0
 15 14  1  0  0  0  0
 18 19  1  0  0  0  0
 18  1  1  0  0  0  0
 19 32  1  0  0  0  0
 20 19  2  0  0  0  0
 21 23  2  0  0  0  0
 21 20  1  0  0  0  0
 22 21  1  0  0  0  0
 23 18  1  0  0  0  0
 24 20  1  0  0  0  0
 24 26  1  0  0  0  0
 25 24  1  0  0  0  0
 27 24  1  0  0  0  0
 28 23  1  0  0  0  0
 28 31  1  0  0  0  0
 29 28  1  0  0  0  0
 30 28  1  0  0  0  0
 32 63  1  0  0  0  0
 32 34  1  0  0  0  0
 33 34  1  0  0  0  0
 33 38  1  0  0  0  0
 34 35  2  0  0  0  0
 35 36  1  0  0  0  0
 35 39  1  0  0  0  0
 36 37  1  0  0  0  0
 38 36  2  0  0  0  0
 39 40  1  0  0  0  0
 39 41  1  0  0  0  0
 42 39  1  0  0  0  0
 43 38  1  0  0  0  0
 43 45  1  0  0  0  0
 43 44  1  0  0  0  0
 46 43  1  0  0  0  0
 47  8  1  0  0  0  0
 47 56  1  0  0  0  0
 48 47  2  0  0  0  0
 49 48  1  0  0  0  0
 50 48  1  0  0  0  0
 50 52  2  0  0  0  0
 51 50  1  0  0  0  0
 52 54  1  0  0  0  0
 53 52  1  0  0  0  0
 54 56  2  0  0  0  0
 54 55  1  0  0  0  0
 56 57  1  0  0  0  0
 58  9  1  0  0  0  0
 58 66  1  0  0  0  0
 59 58  2  0  0  0  0
 60 59  1  0  0  0  0
 61 59  1  0  0  0  0
 61 63  2  0  0  0  0
 62 61  1  0  0  0  0
 63 64  1  0  0  0  0
 64 66  2  0  0  0  0
 64 65  1  0  0  0  0
 66 67  1  0  0  0  0
M  END
