6
 OpenBabel05122313113D

 38 40  0  0  1  0  0  0  0  0999 V2000
    1.0339    1.0675    1.7745 O   0  0  0  0  0  0  0  0  0  0  0  0
    1.0569    0.0868    1.7335 H   0  0  0  0  0  0  0  0  0  0  0  0
   -1.0246    0.9187   -1.5257 N   0  0  0  0  0  0  0  0  0  0  0  0
    1.0403    1.1692   -1.0357 N   0  0  0  0  0  0  0  0  0  0  0  0
    0.6480    2.3777   -1.5327 N   0  0  0  0  0  0  0  0  0  0  0  0
    0.0459    0.2435   -0.9920 C   0  0  0  0  0  2  0  0  0  0  0  0
   -0.6183    2.1998   -1.8278 C   0  0  0  0  0  0  0  0  0  0  0  0
   -1.2765    2.9626   -2.2593 H   0  0  0  0  0  0  0  0  0  0  0  0
    2.3159    1.0332   -0.3376 C   0  0  2  0  0  0  0  0  0  0  0  0
    2.4821   -0.0648   -0.2726 H   0  0  0  0  0  0  0  0  0  0  0  0
    2.1707    1.5797    1.1066 C   0  0  2  0  0  0  0  0  0  0  0  0
    1.9897    2.6752    1.0245 H   0  0  0  0  0  0  0  0  0  0  0  0
    3.4830    1.3443    1.8646 C   0  0  0  0  0  0  0  0  0  0  0  0
    3.6400    0.2460    1.9640 H   0  0  0  0  0  0  0  0  0  0  0  0
    3.3716    1.7440    2.8927 H   0  0  0  0  0  0  0  0  0  0  0  0
    4.6756    1.9809    1.1387 C   0  0  0  0  0  0  0  0  0  0  0  0
    4.5494    3.0865    1.1323 H   0  0  0  0  0  0  0  0  0  0  0  0
    5.6145    1.7781    1.6935 H   0  0  0  0  0  0  0  0  0  0  0  0
    4.7883    1.4773   -0.3067 C   0  0  0  0  0  0  0  0  0  0  0  0
    5.6217    1.9861   -0.8328 H   0  0  0  0  0  0  0  0  0  0  0  0
    5.0388    0.3932   -0.2994 H   0  0  0  0  0  0  0  0  0  0  0  0
    3.4811    1.6878   -1.0819 C   0  0  0  0  0  0  0  0  0  0  0  0
    3.5503    1.2634   -2.1045 H   0  0  0  0  0  0  0  0  0  0  0  0
    3.2676    2.7712   -1.1977 H   0  0  0  0  0  0  0  0  0  0  0  0
   -2.3955    0.4178   -1.5415 C   0  0  0  0  0  0  0  0  0  0  0  0
   -2.3141   -0.6893   -1.5033 H   0  0  0  0  0  0  0  0  0  0  0  0
   -2.8651    0.6880   -2.5082 H   0  0  0  0  0  0  0  0  0  0  0  0
   -3.2173    0.9358   -0.3752 C   0  0  0  0  0  0  0  0  0  0  0  0
   -4.6030    1.1229   -0.5371 C   0  0  0  0  0  0  0  0  0  0  0  0
   -5.0688    0.9312   -1.5173 H   0  0  0  0  0  0  0  0  0  0  0  0
   -5.3949    1.5480    0.5397 C   0  0  0  0  0  0  0  0  0  0  0  0
   -6.4772    1.6902    0.3996 H   0  0  0  0  0  0  0  0  0  0  0  0
   -4.8054    1.7979    1.7887 C   0  0  0  0  0  0  0  0  0  0  0  0
   -5.4243    2.1349    2.6340 H   0  0  0  0  0  0  0  0  0  0  0  0
   -3.4229    1.6205    1.9529 C   0  0  0  0  0  0  0  0  0  0  0  0
   -2.9513    1.8166    2.9275 H   0  0  0  0  0  0  0  0  0  0  0  0
   -2.6280    1.1905    0.8796 C   0  0  0  0  0  0  0  0  0  0  0  0
   -1.5444    1.0616    1.0325 H   0  0  0  0  0  0  0  0  0  0  0  0
  2  1  1  0  0  0  0
  3  6  1  0  0  0  0
  4  6  1  0  0  0  0
  4  9  1  0  0  0  0
  5  4  1  0  0  0  0
  7  5  2  0  0  0  0
  7  3  1  0  0  0  0
  8  7  1  0  0  0  0
  9 10  1  1  0  0  0
  9 11  1  0  0  0  0
 11 12  1  6  0  0  0
 11  1  1  0  0  0  0
 11 13  1  0  0  0  0
 13 14  1  0  0  0  0
 13 15  1  0  0  0  0
 16 18  1  0  0  0  0
 16 13  1  0  0  0  0
 17 16  1  0  0  0  0
 19 21  1  0  0  0  0
 19 16  1  0  0  0  0
 20 19  1  0  0  0  0
 22  9  1  0  0  0  0
 22 19  1  0  0  0  0
 23 22  1  0  0  0  0
 24 22  1  0  0  0  0
 25  3  1  0  0  0  0
 25 26  1  0  0  0  0
 25 28  1  0  0  0  0
 27 25  1  0  0  0  0
 28 37  1  0  0  0  0
 29 28  2  0  0  0  0
 29 31  1  0  0  0  0
 30 29  1  0  0  0  0
 31 33  2  0  0  0  0
 32 31  1  0  0  0  0
 33 35  1  0  0  0  0
 33 34  1  0  0  0  0
 35 36  1  0  0  0  0
 37 38  1  0  0  0  0
 37 35  2  0  0  0  0
M  END
