6
 OpenBabel05122313113D

 38 39  0  0  0  0  0  0  0  0999 V2000
   -0.9569   -2.0235    0.7878 O   0  0  0  0  0  0  0  0  0  0  0  0
    1.5140   -0.4549   -1.6642 N   0  0  0  0  0  0  0  0  0  0  0  0
   -0.4945   -1.1722   -1.7174 N   0  0  0  0  0  0  0  0  0  0  0  0
    1.4679   -1.6914   -2.2726 C   0  0  0  0  0  0  0  0  0  0  0  0
    2.3495   -2.2105   -2.6654 H   0  0  0  0  0  0  0  0  0  0  0  0
    0.2418   -0.1168   -1.2768 C   0  0  0  0  0  2  0  0  0  0  0  0
    0.2416   -2.1555   -2.3146 N   0  0  0  0  0  0  0  0  0  0  0  0
   -1.8692   -1.4105   -1.3450 C   0  0  0  0  0  0  0  0  0  0  0  0
   -2.2373   -2.2639   -1.9467 H   0  0  0  0  0  0  0  0  0  0  0  0
   -2.4814   -0.5199   -1.5851 H   0  0  0  0  0  0  0  0  0  0  0  0
   -1.9668   -1.7559    0.1627 C   0  0  0  0  0  0  0  0  0  0  0  0
   -3.3636   -1.7109    0.7992 C   0  0  0  0  0  0  0  0  0  0  0  0
   -4.3901   -2.4388   -0.0934 C   0  0  0  0  0  0  0  0  0  0  0  0
   -4.1085   -3.4988   -0.2605 H   0  0  0  0  0  0  0  0  0  0  0  0
   -4.5167   -1.9501   -1.0804 H   0  0  0  0  0  0  0  0  0  0  0  0
   -5.3821   -2.4295    0.4015 H   0  0  0  0  0  0  0  0  0  0  0  0
   -3.7561   -0.2184    0.9442 C   0  0  0  0  0  0  0  0  0  0  0  0
   -4.7352   -0.1518    1.4611 H   0  0  0  0  0  0  0  0  0  0  0  0
   -3.8619    0.2895   -0.0351 H   0  0  0  0  0  0  0  0  0  0  0  0
   -3.0123    0.3525    1.5344 H   0  0  0  0  0  0  0  0  0  0  0  0
   -3.2953   -2.3668    2.1854 C   0  0  0  0  0  0  0  0  0  0  0  0
   -3.0030   -3.4332    2.1113 H   0  0  0  0  0  0  0  0  0  0  0  0
   -4.2844   -2.3081    2.6815 H   0  0  0  0  0  0  0  0  0  0  0  0
   -2.5475   -1.8599    2.8237 H   0  0  0  0  0  0  0  0  0  0  0  0
    2.7183    0.2757   -1.2808 C   0  0  0  0  0  0  0  0  0  0  0  0
    2.3839    1.3095   -1.0512 H   0  0  0  0  0  0  0  0  0  0  0  0
    3.3997    0.3272   -2.1532 H   0  0  0  0  0  0  0  0  0  0  0  0
    3.4156   -0.3420   -0.0825 C   0  0  0  0  0  0  0  0  0  0  0  0
    2.6852   -0.9926    0.9319 C   0  0  0  0  0  0  0  0  0  0  0  0
    1.5924   -1.1071    0.8532 H   0  0  0  0  0  0  0  0  0  0  0  0
    3.3508   -1.5099    2.0535 C   0  0  0  0  0  0  0  0  0  0  0  0
    2.7698   -2.0163    2.8388 H   0  0  0  0  0  0  0  0  0  0  0  0
    4.7432   -1.3827    2.1757 C   0  0  0  0  0  0  0  0  0  0  0  0
    5.2607   -1.7899    3.0574 H   0  0  0  0  0  0  0  0  0  0  0  0
    5.4741   -0.7380    1.1655 C   0  0  0  0  0  0  0  0  0  0  0  0
    6.5669   -0.6392    1.2497 H   0  0  0  0  0  0  0  0  0  0  0  0
    4.8129   -0.2239    0.0405 C   0  0  0  0  0  0  0  0  0  0  0  0
    5.3904    0.2783   -0.7524 H   0  0  0  0  0  0  0  0  0  0  0  0
  2 25  1  0  0  0  0
  2  6  1  0  0  0  0
  3  8  1  0  0  0  0
  3  6  1  0  0  0  0
  4  2  1  0  0  0  0
  5  4  1  0  0  0  0
  7  4  2  0  0  0  0
  7  3  1  0  0  0  0
  8 11  1  0  0  0  0
  9  8  1  0  0  0  0
 10  8  1  0  0  0  0
 11  1  2  0  0  0  0
 11 12  1  0  0  0  0
 12 17  1  0  0  0  0
 12 21  1  0  0  0  0
 13 16  1  0  0  0  0
 13 12  1  0  0  0  0
 14 13  1  0  0  0  0
 15 13  1  0  0  0  0
 17 18  1  0  0  0  0
 17 20  1  0  0  0  0
 19 17  1  0  0  0  0
 21 23  1  0  0  0  0
 21 24  1  0  0  0  0
 22 21  1  0  0  0  0
 25 26  1  0  0  0  0
 25 28  1  0  0  0  0
 27 25  1  0  0  0  0
 28 37  2  0  0  0  0
 28 29  1  0  0  0  0
 29 31  2  0  0  0  0
 30 29  1  0  0  0  0
 31 33  1  0  0  0  0
 31 32  1  0  0  0  0
 33 34  1  0  0  0  0
 35 36  1  0  0  0  0
 35 33  2  0  0  0  0
 37 35  1  0  0  0  0
 38 37  1  0  0  0  0
M  END
