10
 OpenBabel05122313113D

 33 32  0  0  1  0  0  0  0  0999 V2000
   -2.8650   -0.7446   -1.5380 O   0  0  0  0  0  0  0  0  0  0  0  0
   -4.9621    1.2925   -0.6018 O   0  0  0  0  0  0  0  0  0  0  0  0
   -3.4062   -0.6158    2.6859 O   0  0  0  0  0  0  0  0  0  0  0  0
    1.1615    3.8067    2.6720 N   0  0  0  0  0  0  0  0  0  0  0  0
   -0.0281    5.9263   -1.1247 N   0  0  0  0  0  0  0  0  0  0  0  0
   -4.5175   -0.5364    0.6833 N   0  0  0  0  0  0  0  0  0  0  0  0
   -0.0781    3.8010    0.3802 C   0  0  0  0  0  0  0  0  0  0  0  0
   -0.6849    2.6286   -0.0761 C   0  0  0  0  0  0  0  0  0  0  0  0
   -0.7160    1.3966    0.6383 C   0  0  0  0  0  3  0  0  0  0  0  0
   -1.4806    0.2039    0.2532 C   0  0  0  0  0  3  0  0  0  0  0  0
   -2.6535    0.3884   -0.6949 C   0  0  2  0  0  0  0  0  0  0  0  0
   -3.9296    0.6780    0.1531 C   0  0  1  0  0  0  0  0  0  0  0  0
    0.5965    3.8318    1.6401 C   0  0  0  0  0  0  0  0  0  0  0  0
   -0.0505    4.9739   -0.4334 C   0  0  0  0  0  0  0  0  0  0  0  0
   -3.3941   -0.4244   -2.8171 C   0  0  0  0  0  0  0  0  0  0  0  0
   -4.8090    2.6906   -0.7496 C   0  0  0  0  0  0  0  0  0  0  0  0
   -4.2546   -1.0728    1.9148 C   0  0  0  0  0  0  0  0  0  0  0  0
   -5.0578   -2.3195    2.2544 C   0  0  0  0  0  0  0  0  0  0  0  0
   -1.1341    2.6843   -1.0807 H   0  0  0  0  0  0  0  0  0  0  0  0
   -0.3712    1.4581    1.6846 H   0  0  0  0  0  0  0  0  0  0  0  0
   -5.1867   -0.9967    0.0649 H   0  0  0  0  0  0  0  0  0  0  0  0
   -1.7830   -0.3706    1.1426 H   0  0  0  0  0  0  0  0  0  0  0  0
   -2.4690    1.2712   -1.3445 H   0  0  0  0  0  0  0  0  0  0  0  0
   -3.6324    1.3105    1.0227 H   0  0  0  0  0  0  0  0  0  0  0  0
   -4.3828    0.0787   -2.7460 H   0  0  0  0  0  0  0  0  0  0  0  0
   -2.6886    0.2230   -3.3868 H   0  0  0  0  0  0  0  0  0  0  0  0
   -3.5159   -1.3786   -3.3681 H   0  0  0  0  0  0  0  0  0  0  0  0
   -3.8869    2.9675   -1.3125 H   0  0  0  0  0  0  0  0  0  0  0  0
   -4.7738    3.2060    0.2386 H   0  0  0  0  0  0  0  0  0  0  0  0
   -5.6848    3.0584   -1.3171 H   0  0  0  0  0  0  0  0  0  0  0  0
   -5.3803   -2.2509    3.3101 H   0  0  0  0  0  0  0  0  0  0  0  0
   -4.3944   -3.2045    2.1713 H   0  0  0  0  0  0  0  0  0  0  0  0
   -5.9418   -2.4764    1.6067 H   0  0  0  0  0  0  0  0  0  0  0  0
  1 11  1  0  0  0  0
  2 12  1  0  0  0  0
  5 14  3  0  0  0  0
  6 17  1  0  0  0  0
  7 13  1  0  0  0  0
  8  7  2  0  0  0  0
  8  9  1  0  0  0  0
  9 20  1  0  0  0  0
 10  9  1  0  0  0  0
 10 22  1  0  0  0  0
 11 23  1  6  0  0  0
 11 12  1  0  0  0  0
 11 10  1  0  0  0  0
 12  6  1  0  0  0  0
 12 24  1  1  0  0  0
 13  4  3  0  0  0  0
 14  7  1  0  0  0  0
 15 25  1  0  0  0  0
 15  1  1  0  0  0  0
 16  2  1  0  0  0  0
 16 29  1  0  0  0  0
 17 18  1  0  0  0  0
 17  3  2  0  0  0  0
 18 31  1  0  0  0  0
 19  8  1  0  0  0  0
 21  6  1  0  0  0  0
 26 15  1  0  0  0  0
 27 15  1  0  0  0  0
 28 16  1  0  0  0  0
 30 16  1  0  0  0  0
 32 18  1  0  0  0  0
 33 18  1  0  0  0  0
M  END
