3
 OpenBabel05122313113D

 21 21  0  0  0  0  0  0  0  0999 V2000
    2.2048    0.5059   -0.7673 N   0  0  0  0  0  0  0  0  0  0  0  0
    1.2422    2.0478    0.4060 N   0  0  0  0  0  0  0  0  0  0  0  0
    1.0404    0.7791   -0.0866 C   0  0  0  0  0  2  0  0  0  0  0  0
    2.4689    2.5564    0.0090 C   0  0  0  0  0  0  0  0  0  0  0  0
    2.7951    3.5654    0.2765 H   0  0  0  0  0  0  0  0  0  0  0  0
    3.0828    1.5813   -0.7279 C   0  0  0  0  0  0  0  0  0  0  0  0
    4.0538    1.5607   -1.2298 H   0  0  0  0  0  0  0  0  0  0  0  0
    0.3086    2.7899    1.2424 C   0  0  0  0  0  0  0  0  0  0  0  0
   -0.6555    2.9053    0.7090 H   0  0  0  0  0  0  0  0  0  0  0  0
    0.7460    3.7814    1.4581 H   0  0  0  0  0  0  0  0  0  0  0  0
    0.1340    2.2510    2.1924 H   0  0  0  0  0  0  0  0  0  0  0  0
    2.5564   -0.7833   -1.3509 C   0  0  0  0  0  0  0  0  0  0  0  0
    3.2292   -0.5872   -2.2112 H   0  0  0  0  0  0  0  0  0  0  0  0
    1.6245   -1.2204   -1.7485 H   0  0  0  0  0  0  0  0  0  0  0  0
    3.2195   -1.7404   -0.3519 C   0  0  0  0  0  0  0  0  0  0  0  0
    2.5147   -1.9093    0.4885 H   0  0  0  0  0  0  0  0  0  0  0  0
    3.3387   -2.7189   -0.8655 H   0  0  0  0  0  0  0  0  0  0  0  0
    4.5657   -1.2642    0.1923 C   0  0  0  0  0  0  0  0  0  0  0  0
    5.2956   -1.0786   -0.6239 H   0  0  0  0  0  0  0  0  0  0  0  0
    5.0085   -2.0200    0.8706 H   0  0  0  0  0  0  0  0  0  0  0  0
    4.4600   -0.3252    0.7724 H   0  0  0  0  0  0  0  0  0  0  0  0
  1  6  1  0  0  0  0
  1  3  1  0  0  0  0
  2  8  1  0  0  0  0
  3  2  1  0  0  0  0
  4  5  1  0  0  0  0
  4  2  1  0  0  0  0
  6  4  2  0  0  0  0
  7  6  1  0  0  0  0
  8 10  1  0  0  0  0
  8 11  1  0  0  0  0
  9  8  1  0  0  0  0
 12  1  1  0  0  0  0
 12 15  1  0  0  0  0
 13 12  1  0  0  0  0
 14 12  1  0  0  0  0
 15 18  1  0  0  0  0
 15 16  1  0  0  0  0
 17 15  1  0  0  0  0
 18 21  1  0  0  0  0
 18 20  1  0  0  0  0
 19 18  1  0  0  0  0
M  END
