38
 OpenBabel05122313113D

 41 46  0  0  1  0  0  0  0  0999 V2000
    3.7820    1.1923    0.0149 C   0  0  2  0  0  0  0  0  0  0  0  0
    2.8309    1.7349    0.0477 H   0  0  0  0  0  0  0  0  0  0  0  0
    3.6436   -0.4636    0.0330 C   0  0  1  0  0  0  0  0  0  0  0  0
    4.0979    0.3455   -1.4278 B   0  0  2  0  0  0  0  0  0  0  0  0
    3.2960    0.4016   -2.3202 H   0  0  0  0  0  0  0  0  0  0  0  0
    5.0720    1.7494   -0.9313 B   0  0  2  0  0  0  0  0  0  0  0  0
    4.9177    2.7756   -1.5454 H   0  0  0  0  0  0  0  0  0  0  0  0
    5.1415    1.7658    0.8464 B   0  0  2  0  0  0  0  0  0  0  0  0
    5.0338    2.8044    1.4497 H   0  0  0  0  0  0  0  0  0  0  0  0
    4.2070    0.3734    1.4423 B   0  0  0  0  0  0  0  0  0  0  0  0
    3.4624    0.4494    2.3834 H   0  0  0  0  0  0  0  0  0  0  0  0
    4.9330   -1.1252   -0.8959 B   0  0  1  0  0  0  0  0  0  0  0  0
    4.7427   -2.1514   -1.4934 H   0  0  0  0  0  0  0  0  0  0  0  0
    5.8672    0.2653   -1.5084 B   0  0  0  0  0  0  0  0  0  0  0  0
    6.4135    0.2219   -2.5848 H   0  0  0  0  0  0  0  0  0  0  0  0
    6.5221    1.1460   -0.0920 B   0  0  0  0  0  0  0  0  0  0  0  0
    7.5635    1.7569   -0.1387 H   0  0  0  0  0  0  0  0  0  0  0  0
    5.9795    0.2939    1.3882 B   0  0  0  0  0  0  0  0  0  0  0  0
    6.6080    0.2699    2.4195 H   0  0  0  0  0  0  0  0  0  0  0  0
    5.0043   -1.1061    0.8764 B   0  0  2  0  0  0  0  0  0  0  0  0
    4.8690   -2.1201    1.5070 H   0  0  0  0  0  0  0  0  0  0  0  0
    6.4331   -0.6340   -0.0712 B   0  0  0  0  0  0  0  0  0  0  0  0
    7.4064   -1.3496   -0.1019 H   0  0  0  0  0  0  0  0  0  0  0  0
    2.2009   -1.1316    0.1115 C   0  0  0  0  0  0  0  0  0  0  0  0
    2.1367   -2.0617    1.3378 C   0  0  0  0  0  0  0  0  0  0  0  0
    2.8203   -2.9189    1.2049 H   0  0  0  0  0  0  0  0  0  0  0  0
    1.1070   -2.4494    1.4403 H   0  0  0  0  0  0  0  0  0  0  0  0
    2.4182   -1.5469    2.2745 H   0  0  0  0  0  0  0  0  0  0  0  0
    1.9291   -1.9898   -1.1399 C   0  0  0  0  0  0  0  0  0  0  0  0
    2.6731   -2.8022   -1.2243 H   0  0  0  0  0  0  0  0  0  0  0  0
    1.9505   -1.4025   -2.0754 H   0  0  0  0  0  0  0  0  0  0  0  0
    0.9251   -2.4440   -1.0470 H   0  0  0  0  0  0  0  0  0  0  0  0
    1.1611   -0.0174    0.2252 C   0  0  0  0  0  0  0  0  0  0  0  0
    0.5562    0.4610    1.4319 C   0  0  0  0  0  0  0  0  0  0  0  0
    0.6502   -0.0034    2.4195 H   0  0  0  0  0  0  0  0  0  0  0  0
   -0.1807    1.6402    1.1408 C   0  0  0  0  0  0  0  0  0  0  0  0
   -0.7139    2.2530    1.8748 H   0  0  0  0  0  0  0  0  0  0  0  0
   -0.0587    1.8983   -0.2633 C   0  0  0  0  0  3  0  0  0  0  0  0
   -0.4815    2.7466   -0.8128 H   0  0  0  0  0  0  0  0  0  0  0  0
    0.7564    0.8720   -0.8197 C   0  0  0  0  0  0  0  0  0  0  0  0
    1.0279    0.7845   -1.8762 H   0  0  0  0  0  0  0  0  0  0  0  0
  1  3  1  0  0  0  0
  1  2  1  1  0  0  0
  1  8  1  0  0  0  0
  3 24  1  1  0  0  0
  3 20  1  0  0  0  0
  4  5  1  6  0  0  0
  4  6  1  0  0  0  0
  4 12  1  0  0  0  0
  6  7  1  6  0  0  0
  6  1  1  0  0  0  0
  6  8  1  0  0  0  0
  8 18  1  0  0  0  0
  8  9  1  1  0  0  0
 10 11  1  0  0  0  0
 12 13  1  6  0  0  0
 12  3  1  0  0  0  0
 12 20  1  0  0  0  0
 14  4  1  0  0  0  0
 14 16  1  0  0  0  0
 14 22  1  0  0  0  0
 15 14  1  0  0  0  0
 16 22  1  0  0  0  0
 17 16  1  0  0  0  0
 18 10  1  0  0  0  0
 18 19  1  0  0  0  0
 20 10  1  0  0  0  0
 20 21  1  1  0  0  0
 23 22  1  0  0  0  0
 24 33  1  0  0  0  0
 24 25  1  0  0  0  0
 25 27  1  0  0  0  0
 25 28  1  0  0  0  0
 26 25  1  0  0  0  0
 29 32  1  0  0  0  0
 29 24  1  0  0  0  0
 30 29  1  0  0  0  0
 31 29  1  0  0  0  0
 33 34  1  0  0  0  0
 34 35  1  0  0  0  0
 36 34  2  0  0  0  0
 36 37  1  0  0  0  0
 38 36  1  0  0  0  0
 39 38  1  0  0  0  0
 40 38  1  0  0  0  0
 40 33  2  0  0  0  0
 41 40  1  0  0  0  0
M  END
