5
 OpenBabel05122313113D

 14 13  0  0  0  0  0  0  0  0999 V2000
   -3.0069   -0.6002   -0.9265 O   0  0  0  0  0  0  0  0  0  0  0  0
    0.3946    1.2868   -2.1232 C   0  0  0  0  0  3  0  0  0  0  0  0
   -0.4530    1.9770   -2.2809 H   0  0  0  0  0  0  0  0  0  0  0  0
    1.3693    1.7688   -2.2841 H   0  0  0  0  0  0  0  0  0  0  0  0
    0.2571   -0.0906   -2.5012 C   0  0  0  0  0  3  0  0  0  0  0  0
    1.0506   -0.6618   -3.0097 H   0  0  0  0  0  0  0  0  0  0  0  0
   -0.9419   -0.7400   -2.1156 C   0  0  0  0  0  3  0  0  0  0  0  0
   -1.1118   -1.8106   -2.3020 H   0  0  0  0  0  0  0  0  0  0  0  0
   -1.9017    0.0541   -1.4133 C   0  0  0  0  0  3  0  0  0  0  0  0
   -2.0958    1.0965   -1.7253 H   0  0  0  0  0  0  0  0  0  0  0  0
   -4.2248    0.1390   -0.9551 C   0  0  0  0  0  0  0  0  0  0  0  0
   -4.1425    1.0899   -0.3831 H   0  0  0  0  0  0  0  0  0  0  0  0
   -4.9997   -0.4965   -0.4883 H   0  0  0  0  0  0  0  0  0  0  0  0
   -4.5282    0.3704   -1.9989 H   0  0  0  0  0  0  0  0  0  0  0  0
  3  2  1  0  0  0  0
  4  2  1  0  0  0  0
  5  2  1  0  0  0  0
  5  7  1  0  0  0  0
  6  5  1  0  0  0  0
  7  9  1  0  0  0  0
  8  7  1  0  0  0  0
  9  1  1  0  0  0  0
 10  9  1  0  0  0  0
 11  1  1  0  0  0  0
 11 13  1  0  0  0  0
 11 12  1  0  0  0  0
 14 11  1  0  0  0  0
M  END
