14
 OpenBabel05122313113D

 43 44  0  0  1  0  0  0  0  0999 V2000
    2.1676   -0.8386    0.4380 Si  0  0  2  0  0  0  0  0  0  0  0  0
    2.8276   -1.6185    2.0269 C   0  0  0  0  0  0  0  0  0  0  0  0
    3.1931   -0.8459    2.7328 H   0  0  0  0  0  0  0  0  0  0  0  0
    3.6783   -2.2852    1.7766 H   0  0  0  0  0  0  0  0  0  0  0  0
    2.0708   -2.2316    2.5525 H   0  0  0  0  0  0  0  0  0  0  0  0
    3.6739   -0.5069   -0.6834 C   0  0  0  0  0  0  0  0  0  0  0  0
    4.1848   -1.4958   -0.7366 H   0  0  0  0  0  0  0  0  0  0  0  0
    3.3651   -0.2544   -1.7169 H   0  0  0  0  0  0  0  0  0  0  0  0
    4.5936    0.5318   -0.1157 C   0  0  0  0  0  0  0  0  0  0  0  0
    5.0465    0.2896    0.8642 H   0  0  0  0  0  0  0  0  0  0  0  0
    4.8837    1.7226   -0.6725 C   0  0  0  0  0  0  0  0  0  0  0  0
    4.4694    2.0192   -1.6501 H   0  0  0  0  0  0  0  0  0  0  0  0
    5.5518    2.4403   -0.1726 H   0  0  0  0  0  0  0  0  0  0  0  0
    0.9932    0.6270    0.6948 C   0  0  2  0  0  3  0  0  0  0  0  0
   -0.0056    0.7010    1.7385 C   0  0  2  0  0  3  0  0  0  0  0  0
   -0.9658    1.7098    1.3821 C   0  0  0  0  0  0  0  0  0  0  0  0
   -0.6028    2.2363    0.1074 C   0  0  0  0  0  0  0  0  0  0  0  0
    0.5814    1.5531   -0.3374 C   0  0  1  0  0  3  0  0  0  0  0  0
   -0.0409   -0.0186    3.0579 C   0  0  0  0  0  0  0  0  0  0  0  0
    0.4071    0.6125    3.8562 H   0  0  0  0  0  0  0  0  0  0  0  0
    0.5178   -0.9699    3.0446 H   0  0  0  0  0  0  0  0  0  0  0  0
   -1.0825   -0.2449    3.3570 H   0  0  0  0  0  0  0  0  0  0  0  0
   -2.0824    2.1735    2.2632 C   0  0  0  0  0  0  0  0  0  0  0  0
   -2.7073    1.3211    2.5988 H   0  0  0  0  0  0  0  0  0  0  0  0
   -2.7469    2.8866    1.7406 H   0  0  0  0  0  0  0  0  0  0  0  0
   -1.6821    2.6787    3.1677 H   0  0  0  0  0  0  0  0  0  0  0  0
   -1.2598    3.3673   -0.6188 C   0  0  0  0  0  0  0  0  0  0  0  0
   -0.5831    4.2467   -0.6643 H   0  0  0  0  0  0  0  0  0  0  0  0
   -2.1962    3.6830   -0.1221 H   0  0  0  0  0  0  0  0  0  0  0  0
   -1.5155    3.0806   -1.6593 H   0  0  0  0  0  0  0  0  0  0  0  0
    1.2828    1.9008   -1.6199 C   0  0  0  0  0  0  0  0  0  0  0  0
    0.5551    2.1768   -2.4067 H   0  0  0  0  0  0  0  0  0  0  0  0
    1.8979    1.0716   -2.0102 H   0  0  0  0  0  0  0  0  0  0  0  0
    1.9641    2.7650   -1.4662 H   0  0  0  0  0  0  0  0  0  0  0  0
    0.8769   -1.9199   -0.4103 C   0  0  0  0  0  0  0  0  0  0  0  0
   -0.1766   -2.6035    0.2859 C   0  0  0  0  0  3  0  0  0  0  0  0
   -0.1772   -2.8716    1.3507 H   0  0  0  0  0  0  0  0  0  0  0  0
   -1.2385   -2.8769   -0.6298 C   0  0  0  0  0  0  0  0  0  0  0  0
   -2.1820   -3.3797   -0.3881 H   0  0  0  0  0  0  0  0  0  0  0  0
   -0.8767   -2.3393   -1.8893 C   0  0  0  0  0  0  0  0  0  0  0  0
   -1.4898   -2.3515   -2.7976 H   0  0  0  0  0  0  0  0  0  0  0  0
    0.4083   -1.7300   -1.7544 C   0  0  0  0  0  0  0  0  0  0  0  0
    0.9428   -1.2022   -2.5552 H   0  0  0  0  0  0  0  0  0  0  0  0
  1  6  1  6  0  0  0
  1  2  1  0  0  0  0
  2  5  1  0  0  0  0
  2  3  1  0  0  0  0
  4  2  1  0  0  0  0
  6  9  1  0  0  0  0
  7  6  1  0  0  0  0
  8  6  1  0  0  0  0
  9 10  1  0  0  0  0
 11 13  1  0  0  0  0
 11  9  2  0  0  0  0
 12 11  1  0  0  0  0
 14  1  1  6  0  0  0
 14 15  1  0  0  0  0
 15 19  1  1  0  0  0
 16 15  1  0  0  0  0
 16 23  1  0  0  0  0
 17 16  2  0  0  0  0
 18 31  1  1  0  0  0
 18 17  1  0  0  0  0
 18 14  1  0  0  0  0
 19 22  1  0  0  0  0
 19 20  1  0  0  0  0
 21 19  1  0  0  0  0
 23 24  1  0  0  0  0
 23 26  1  0  0  0  0
 25 23  1  0  0  0  0
 27 29  1  0  0  0  0
 27 17  1  0  0  0  0
 28 27  1  0  0  0  0
 30 27  1  0  0  0  0
 31 34  1  0  0  0  0
 32 31  1  0  0  0  0
 33 31  1  0  0  0  0
 35 36  1  0  0  0  0
 35  1  1  0  0  0  0
 36 37  1  0  0  0  0
 38 39  1  0  0  0  0
 38 36  1  0  0  0  0
 40 42  1  0  0  0  0
 40 38  2  0  0  0  0
 41 40  1  0  0  0  0
 42 35  2  0  0  0  0
 43 42  1  0  0  0  0
M  END
