2
 OpenBabel05122313113D

 23 24  0  0  0  0  0  0  0  0999 V2000
    1.5266    1.0678    0.7893 N   0  0  0  0  0  0  0  0  0  0  0  0
    0.2767    0.8233    1.4848 C   0  0  0  0  0  3  0  0  0  0  0  0
   -0.2816    2.0507    2.1864 C   0  0  0  0  0  0  0  0  0  0  0  0
    1.7908    2.2974    0.2864 C   0  0  0  0  0  0  0  0  0  0  0  0
    2.9143    2.5769   -0.5073 C   0  0  0  0  0  0  0  0  0  0  0  0
    3.8286    1.5768   -0.7857 C   0  0  0  0  0  0  0  0  0  0  0  0
    3.6114    0.2798   -0.2428 C   0  0  0  0  0  0  0  0  0  0  0  0
    4.5211   -0.7884   -0.4908 C   0  0  0  0  0  3  0  0  0  0  0  0
    4.3025   -2.0505    0.0362 C   0  0  0  0  0  0  0  0  0  0  0  0
    3.1597   -2.2840    0.8387 C   0  0  0  0  0  0  0  0  0  0  0  0
    2.2494   -1.2675    1.1020 C   0  0  0  0  0  0  0  0  0  0  0  0
    2.4544    0.0295    0.5700 C   0  0  0  0  0  0  0  0  0  0  0  0
    0.4602    0.0283    2.2245 H   0  0  0  0  0  0  0  0  0  0  0  0
   -1.0837    1.7213    2.8727 H   0  0  0  0  0  0  0  0  0  0  0  0
    0.4872    2.5843    2.7951 H   0  0  0  0  0  0  0  0  0  0  0  0
   -0.7488    2.7873    1.5014 H   0  0  0  0  0  0  0  0  0  0  0  0
    1.0388    3.0659    0.4914 H   0  0  0  0  0  0  0  0  0  0  0  0
    3.0350    3.5978   -0.8942 H   0  0  0  0  0  0  0  0  0  0  0  0
    4.7121    1.7621   -1.4133 H   0  0  0  0  0  0  0  0  0  0  0  0
    5.4014   -0.5843   -1.1186 H   0  0  0  0  0  0  0  0  0  0  0  0
    5.0078   -2.8688   -0.1694 H   0  0  0  0  0  0  0  0  0  0  0  0
    2.9754   -3.2853    1.2548 H   0  0  0  0  0  0  0  0  0  0  0  0
    1.3629   -1.4942    1.7020 H   0  0  0  0  0  0  0  0  0  0  0  0
  1  2  1  0  0  0  0
  2  3  1  0  0  0  0
  2 13  1  0  0  0  0
  3 15  1  0  0  0  0
  3 14  1  0  0  0  0
  4 17  1  0  0  0  0
  4  1  1  0  0  0  0
  5  4  2  0  0  0  0
  6  5  1  0  0  0  0
  6  7  2  0  0  0  0
  7 12  1  0  0  0  0
  8  7  1  0  0  0  0
  8  9  1  0  0  0  0
  9 10  2  0  0  0  0
 10 11  1  0  0  0  0
 10 22  1  0  0  0  0
 11 23  1  0  0  0  0
 12  1  1  0  0  0  0
 12 11  2  0  0  0  0
 16  3  1  0  0  0  0
 18  5  1  0  0  0  0
 19  6  1  0  0  0  0
 20  8  1  0  0  0  0
 21  9  1  0  0  0  0
M  END
