7
 OpenBabel05122313113D

 56 58  0  0  1  0  0  0  0  0999 V2000
   -1.7627    0.4419    1.0083 O   0  0  0  0  0  0  0  0  0  0  0  0
   -0.2726   -1.6516   -0.7892 O   0  0  0  0  0  0  0  0  0  0  0  0
   -2.5249   -1.9040   -0.8637 O   0  0  0  0  0  0  0  0  0  0  0  0
   -5.1619   -0.3508   -0.1003 O   0  0  0  0  0  0  0  0  0  0  0  0
   -5.4812    1.5105    1.2005 O   0  0  0  0  0  0  0  0  0  0  0  0
    1.9637    2.1271   -0.8155 N   0  0  0  0  0  0  0  0  0  0  0  0
    1.8080    1.0771   -0.0076 C   0  0  0  0  0  2  0  0  0  0  0  0
    0.5183    1.0904    0.7459 C   0  0  0  0  0  0  0  0  0  0  0  0
   -0.5970    0.4798    0.2736 C   0  0  0  0  0  0  0  0  0  0  0  0
   -0.7735   -0.3346   -0.9881 C   0  0  2  0  0  0  0  0  0  0  0  0
   -0.3098    0.1285   -1.8859 H   0  0  0  0  0  0  0  0  0  0  0  0
   -2.3207   -0.5221   -1.0884 C   0  0  2  0  0  0  0  0  0  0  0  0
   -2.7519   -0.1959   -2.0595 H   0  0  0  0  0  0  0  0  0  0  0  0
   -2.8594    0.3192    0.0819 C   0  0  1  0  0  0  0  0  0  0  0  0
   -3.1241    1.3364   -0.2936 H   0  0  0  0  0  0  0  0  0  0  0  0
   -4.0683   -0.2673    0.8088 C   0  0  1  0  0  0  0  0  0  0  0  0
   -3.8041   -1.2807    1.1730 H   0  0  0  0  0  0  0  0  0  0  0  0
   -4.5936    0.6604    1.9121 C   0  0  0  0  0  0  0  0  0  0  0  0
   -5.1158    0.0774    2.7066 H   0  0  0  0  0  0  0  0  0  0  0  0
   -3.8026    1.2762    2.3806 H   0  0  0  0  0  0  0  0  0  0  0  0
    0.5356    1.7227    2.1179 C   0  0  0  0  0  0  0  0  0  0  0  0
   -0.4882    2.0228    2.4119 H   0  0  0  0  0  0  0  0  0  0  0  0
    1.2075    2.6033    2.1605 H   0  0  0  0  0  0  0  0  0  0  0  0
    0.9045    1.0031    2.8791 H   0  0  0  0  0  0  0  0  0  0  0  0
    3.1763    2.3421   -1.6238 C   0  0  0  0  0  0  0  0  0  0  0  0
    2.8608    2.8055   -2.5811 H   0  0  0  0  0  0  0  0  0  0  0  0
    3.5943    1.3507   -1.8640 H   0  0  0  0  0  0  0  0  0  0  0  0
    4.2052    3.2177   -0.9128 C   0  0  0  0  0  0  0  0  0  0  0  0
    5.1246    3.2925   -1.5252 H   0  0  0  0  0  0  0  0  0  0  0  0
    4.4821    2.7782    0.0645 H   0  0  0  0  0  0  0  0  0  0  0  0
    3.8264    4.2450   -0.7376 H   0  0  0  0  0  0  0  0  0  0  0  0
    0.9835    3.2357   -0.9395 C   0  0  0  0  0  0  0  0  0  0  0  0
    1.5698    4.1766   -0.9796 H   0  0  0  0  0  0  0  0  0  0  0  0
    0.3742    3.2652   -0.0190 H   0  0  0  0  0  0  0  0  0  0  0  0
    0.0795    3.1236   -2.1634 C   0  0  0  0  0  0  0  0  0  0  0  0
   -0.5394    4.0379   -2.2582 H   0  0  0  0  0  0  0  0  0  0  0  0
   -0.6037    2.2576   -2.0739 H   0  0  0  0  0  0  0  0  0  0  0  0
    0.6592    3.0116   -3.1016 H   0  0  0  0  0  0  0  0  0  0  0  0
   -1.2972   -2.5876   -1.1338 C   0  0  0  0  0  0  0  0  0  0  0  0
   -1.1961   -2.9523   -2.6184 C   0  0  0  0  0  0  0  0  0  0  0  0
   -1.9924   -3.6693   -2.8975 H   0  0  0  0  0  0  0  0  0  0  0  0
   -0.2072   -3.4013   -2.8317 H   0  0  0  0  0  0  0  0  0  0  0  0
   -1.3043   -2.0491   -3.2513 H   0  0  0  0  0  0  0  0  0  0  0  0
   -1.1887   -3.7817   -0.2023 C   0  0  0  0  0  0  0  0  0  0  0  0
   -2.0201   -4.4877   -0.3884 H   0  0  0  0  0  0  0  0  0  0  0  0
   -1.2259   -3.4280    0.8445 H   0  0  0  0  0  0  0  0  0  0  0  0
   -0.2283   -4.3056   -0.3675 H   0  0  0  0  0  0  0  0  0  0  0  0
   -6.1127    0.6920    0.2178 C   0  0  0  0  0  0  0  0  0  0  0  0
   -6.3730    1.5421   -1.0186 C   0  0  0  0  0  0  0  0  0  0  0  0
   -6.8143    0.9215   -1.8215 H   0  0  0  0  0  0  0  0  0  0  0  0
   -5.4209    1.9746   -1.3805 H   0  0  0  0  0  0  0  0  0  0  0  0
   -7.0720    2.3667   -0.7795 H   0  0  0  0  0  0  0  0  0  0  0  0
   -7.3830    0.0382    0.7686 C   0  0  0  0  0  0  0  0  0  0  0  0
   -7.8003   -0.6681    0.0253 H   0  0  0  0  0  0  0  0  0  0  0  0
   -8.1451    0.8067    1.0033 H   0  0  0  0  0  0  0  0  0  0  0  0
   -7.1567   -0.5321    1.6901 H   0  0  0  0  0  0  0  0  0  0  0  0
  4 48  1  0  0  0  0
  4 16  1  0  0  0  0
  5 18  1  0  0  0  0
  6  7  1  0  0  0  0
  7  8  1  0  0  0  0
  8 21  1  0  0  0  0
  9  8  2  0  0  0  0
  9  1  1  0  0  0  0
 10 11  1  6  0  0  0
 10  2  1  0  0  0  0
 10  9  1  0  0  0  0
 12 13  1  6  0  0  0
 12 10  1  0  0  0  0
 12  3  1  0  0  0  0
 12 14  1  0  0  0  0
 14 15  1  6  0  0  0
 14 16  1  0  0  0  0
 14  1  1  0  0  0  0
 16 17  1  1  0  0  0
 16 18  1  0  0  0  0
 18 20  1  0  0  0  0
 18 19  1  0  0  0  0
 21 23  1  0  0  0  0
 21 22  1  0  0  0  0
 21 24  1  0  0  0  0
 25 28  1  0  0  0  0
 25  6  1  0  0  0  0
 26 25  1  0  0  0  0
 27 25  1  0  0  0  0
 28 31  1  0  0  0  0
 28 30  1  0  0  0  0
 29 28  1  0  0  0  0
 32  6  1  0  0  0  0
 32 34  1  0  0  0  0
 33 32  1  0  0  0  0
 35 37  1  0  0  0  0
 35 32  1  0  0  0  0
 36 35  1  0  0  0  0
 38 35  1  0  0  0  0
 39  3  1  0  0  0  0
 39  2  1  0  0  0  0
 39 44  1  0  0  0  0
 40 39  1  0  0  0  0
 41 40  1  0  0  0  0
 42 40  1  0  0  0  0
 43 40  1  0  0  0  0
 44 46  1  0  0  0  0
 45 44  1  0  0  0  0
 47 44  1  0  0  0  0
 48 53  1  0  0  0  0
 48  5  1  0  0  0  0
 49 52  1  0  0  0  0
 49 48  1  0  0  0  0
 50 49  1  0  0  0  0
 51 49  1  0  0  0  0
 53 55  1  0  0  0  0
 53 56  1  0  0  0  0
 54 53  1  0  0  0  0
M  END
