7
 OpenBabel05122313113D

 46 48  0  0  1  0  0  0  0  0999 V2000
   -1.2083    1.7966   -0.8491 O   0  0  0  0  0  0  0  0  0  0  0  0
    2.0305   -0.5362   -1.7177 O   0  0  0  0  0  0  0  0  0  0  0  0
    1.4043    2.0967    0.3343 O   0  0  0  0  0  0  0  0  0  0  0  0
    3.6597    1.9730    0.0871 O   0  0  0  0  0  0  0  0  0  0  0  0
    4.0695   -2.1516   -0.4106 O   0  0  0  0  0  0  0  0  0  0  0  0
    2.1106   -2.0994    0.7834 O   0  0  0  0  0  0  0  0  0  0  0  0
   -1.3952    0.4871   -0.6900 C   0  0  0  0  0  2  0  0  0  0  0  0
   -0.2264   -0.2277   -1.1563 C   0  0  0  0  0  0  0  0  0  0  0  0
   -0.3151   -1.3113   -1.3060 H   0  0  0  0  0  0  0  0  0  0  0  0
    1.0397    0.2777   -1.2944 C   0  0  0  0  0  0  0  0  0  0  0  0
    1.5915    1.6614   -1.0084 C   0  0  2  0  0  0  0  0  0  0  0  0
    1.1707    2.3956   -1.7288 H   0  0  0  0  0  0  0  0  0  0  0  0
    3.1350    1.4843   -1.1361 C   0  0  2  0  0  0  0  0  0  0  0  0
    3.5494    2.0449   -2.0016 H   0  0  0  0  0  0  0  0  0  0  0  0
    3.3324   -0.0382   -1.3224 C   0  0  1  0  0  0  0  0  0  0  0  0
    4.0167   -0.2842   -2.1572 H   0  0  0  0  0  0  0  0  0  0  0  0
    3.8220   -0.7946   -0.0752 C   0  0  1  0  0  0  0  0  0  0  0  0
    4.7627   -0.3096    0.2613 H   0  0  0  0  0  0  0  0  0  0  0  0
    2.7907   -0.8950    1.0668 C   0  0  0  0  0  0  0  0  0  0  0  0
    3.3163   -0.9243    2.0517 H   0  0  0  0  0  0  0  0  0  0  0  0
    2.0506   -0.0729    1.0912 H   0  0  0  0  0  0  0  0  0  0  0  0
    3.0573   -2.9915    0.2020 C   0  0  0  0  0  0  0  0  0  0  0  0
    3.7327   -3.8502    1.2732 C   0  0  0  0  0  0  0  0  0  0  0  0
    4.5350   -4.4650    0.8216 H   0  0  0  0  0  0  0  0  0  0  0  0
    2.9920   -4.5198    1.7519 H   0  0  0  0  0  0  0  0  0  0  0  0
    4.1883   -3.2090    2.0530 H   0  0  0  0  0  0  0  0  0  0  0  0
    2.3418   -3.8077   -0.8644 C   0  0  0  0  0  0  0  0  0  0  0  0
    3.0366   -4.5321   -1.3305 H   0  0  0  0  0  0  0  0  0  0  0  0
    1.9512   -3.1232   -1.6394 H   0  0  0  0  0  0  0  0  0  0  0  0
    1.4974   -4.3594   -0.4082 H   0  0  0  0  0  0  0  0  0  0  0  0
    2.6247    2.7472    0.7196 C   0  0  0  0  0  0  0  0  0  0  0  0
    2.7790    2.6483    2.2261 C   0  0  0  0  0  0  0  0  0  0  0  0
    3.7420    3.0961    2.5356 H   0  0  0  0  0  0  0  0  0  0  0  0
    2.7543    1.5906    2.5447 H   0  0  0  0  0  0  0  0  0  0  0  0
    1.9567    3.1928    2.7270 H   0  0  0  0  0  0  0  0  0  0  0  0
    2.6617    4.1925    0.2109 C   0  0  0  0  0  0  0  0  0  0  0  0
    3.6416    4.6502    0.4464 H   0  0  0  0  0  0  0  0  0  0  0  0
    1.8636    4.7924    0.6893 H   0  0  0  0  0  0  0  0  0  0  0  0
    2.5169    4.2373   -0.8863 H   0  0  0  0  0  0  0  0  0  0  0  0
   -2.1225    2.8017   -0.3734 C   0  0  0  0  0  0  0  0  0  0  0  0
   -2.5035    2.5061    0.6222 H   0  0  0  0  0  0  0  0  0  0  0  0
   -2.9831    2.8458   -1.0713 H   0  0  0  0  0  0  0  0  0  0  0  0
   -1.3707    4.1168   -0.3182 C   0  0  0  0  0  0  0  0  0  0  0  0
   -2.0392    4.9165    0.0565 H   0  0  0  0  0  0  0  0  0  0  0  0
   -1.0065    4.4147   -1.3220 H   0  0  0  0  0  0  0  0  0  0  0  0
   -0.4996    4.0296    0.3591 H   0  0  0  0  0  0  0  0  0  0  0  0
  1  7  1  0  0  0  0
  1 40  1  0  0  0  0
  2 15  1  0  0  0  0
  2 10  1  0  0  0  0
  3 31  1  0  0  0  0
  4 31  1  0  0  0  0
  5 17  1  0  0  0  0
  5 22  1  0  0  0  0
  6 19  1  0  0  0  0
  8  7  1  0  0  0  0
  9  8  1  0  0  0  0
 10  8  2  0  0  0  0
 10 11  1  0  0  0  0
 11 12  1  6  0  0  0
 11  3  1  0  0  0  0
 13 14  1  6  0  0  0
 13 11  1  0  0  0  0
 13  4  1  0  0  0  0
 15 16  1  6  0  0  0
 15 13  1  0  0  0  0
 15 17  1  0  0  0  0
 17 18  1  1  0  0  0
 17 19  1  0  0  0  0
 19 21  1  0  0  0  0
 19 20  1  0  0  0  0
 22  6  1  0  0  0  0
 22 23  1  0  0  0  0
 23 25  1  0  0  0  0
 23 26  1  0  0  0  0
 24 23  1  0  0  0  0
 27 30  1  0  0  0  0
 27 22  1  0  0  0  0
 28 27  1  0  0  0  0
 29 27  1  0  0  0  0
 31 32  1  0  0  0  0
 32 33  1  0  0  0  0
 32 34  1  0  0  0  0
 32 35  1  0  0  0  0
 36 37  1  0  0  0  0
 36 38  1  0  0  0  0
 36 31  1  0  0  0  0
 39 36  1  0  0  0  0
 40 43  1  0  0  0  0
 40 41  1  0  0  0  0
 42 40  1  0  0  0  0
 43 44  1  0  0  0  0
 43 46  1  0  0  0  0
 45 43  1  0  0  0  0
M  END
