6
 OpenBabel05122313113D

 20 22  0  0  0  0  0  0  0  0999 V2000
    3.9404   -1.0617    0.1450 B   0  0  0  0  0  0  0  0  0  0  0  0
    4.5574    0.1831   -0.0437 F   0  0  0  0  0  0  0  0  0  0  0  0
    4.8642   -2.0821    0.3079 F   0  0  0  0  0  0  0  0  0  0  0  0
    2.9840   -0.9629    1.3818 N   0  0  0  0  0  0  0  0  0  0  0  0
    2.9991   -1.3443   -1.0737 N   0  0  0  0  0  0  0  0  0  0  0  0
    0.9699   -0.5083    0.0401 C   0  0  0  0  0  2  0  0  0  0  0  0
    1.6425   -0.5801    1.2872 C   0  0  0  0  0  0  0  0  0  0  0  0
    1.1714   -0.3282    2.6103 C   0  0  0  0  0  0  0  0  0  0  0  0
    0.1517   -0.0095    2.8545 H   0  0  0  0  0  0  0  0  0  0  0  0
    2.2392   -0.5744    3.4866 C   0  0  0  0  0  0  0  0  0  0  0  0
    2.2367   -0.4993    4.5798 H   0  0  0  0  0  0  0  0  0  0  0  0
    3.3417   -0.9577    2.6835 C   0  0  0  0  0  0  0  0  0  0  0  0
    4.3658   -1.2183    2.9783 H   0  0  0  0  0  0  0  0  0  0  0  0
    1.6603   -0.9420   -1.1207 C   0  0  0  0  0  0  0  0  0  0  0  0
    1.1999   -1.1363   -2.4571 C   0  0  0  0  0  0  0  0  0  0  0  0
    0.1788   -0.9239   -2.7969 H   0  0  0  0  0  0  0  0  0  0  0  0
    2.2693   -1.6637   -3.1952 C   0  0  0  0  0  0  0  0  0  0  0  0
    2.2740   -1.9505   -4.2527 H   0  0  0  0  0  0  0  0  0  0  0  0
    3.3644   -1.7682   -2.3018 C   0  0  0  0  0  0  0  0  0  0  0  0
    4.3883   -2.1160   -2.4866 H   0  0  0  0  0  0  0  0  0  0  0  0
  1  3  1  0  0  0  0
  1  4  1  0  0  0  0
  2  1  1  0  0  0  0
  4 12  1  0  0  0  0
  5  1  1  0  0  0  0
  6  7  1  0  0  0  0
  7  4  1  0  0  0  0
  7  8  2  0  0  0  0
  8  9  1  0  0  0  0
  8 10  1  0  0  0  0
 10 11  1  0  0  0  0
 12 13  1  0  0  0  0
 12 10  2  0  0  0  0
 14  5  1  0  0  0  0
 14  6  1  0  0  0  0
 15 14  2  0  0  0  0
 16 15  1  0  0  0  0
 17 15  1  0  0  0  0
 17 19  2  0  0  0  0
 18 17  1  0  0  0  0
 19  5  1  0  0  0  0
 20 19  1  0  0  0  0
M  END
