5
 OpenBabel05122313113D

 43 45  0  0  0  0  0  0  0  0999 V2000
    1.1839    0.9668   -0.3058 N   0  0  0  0  0  0  0  0  0  0  0  0
   -0.4369    1.5300    1.0027 N   0  0  0  0  0  0  0  0  0  0  0  0
    6.9974    0.5291   -0.3560 O   0  0  0  0  0  0  0  0  0  0  0  0
   -5.4850   -0.2991   -0.9530 O   0  0  0  0  0  0  0  0  0  0  0  0
    0.0441    0.4820    0.2700 C   0  0  0  0  0  2  0  0  0  0  0  0
    1.4165    2.2843    0.0618 C   0  0  0  0  0  0  0  0  0  0  0  0
    2.2968    2.8409   -0.2724 H   0  0  0  0  0  0  0  0  0  0  0  0
    0.3800    2.6446    0.8847 C   0  0  0  0  0  0  0  0  0  0  0  0
    0.1618    3.5897    1.3905 H   0  0  0  0  0  0  0  0  0  0  0  0
    2.0902    0.1655   -1.1343 C   0  0  0  0  0  0  0  0  0  0  0  0
    2.3229    0.7416   -2.0518 H   0  0  0  0  0  0  0  0  0  0  0  0
    1.5130   -0.7330   -1.4308 H   0  0  0  0  0  0  0  0  0  0  0  0
    3.3581   -0.2182   -0.4001 C   0  0  0  0  0  0  0  0  0  0  0  0
    4.5872    0.3631   -0.7689 C   0  0  0  0  0  0  0  0  0  0  0  0
    4.6133    1.0712   -1.6093 H   0  0  0  0  0  0  0  0  0  0  0  0
    5.7660    0.0253   -0.0715 C   0  0  0  0  0  0  0  0  0  0  0  0
    5.7017   -0.8924    0.9987 C   0  0  0  0  0  0  0  0  0  0  0  0
    6.6329   -1.1419    1.5273 H   0  0  0  0  0  0  0  0  0  0  0  0
    4.4771   -1.4639    1.3566 C   0  0  0  0  0  0  0  0  0  0  0  0
    4.4389   -2.1846    2.1872 H   0  0  0  0  0  0  0  0  0  0  0  0
    3.3005   -1.1350    0.6634 C   0  0  0  0  0  0  0  0  0  0  0  0
    2.3377   -1.5895    0.9445 H   0  0  0  0  0  0  0  0  0  0  0  0
    7.1222    1.4425   -1.4284 C   0  0  0  0  0  0  0  0  0  0  0  0
    6.8110    0.9914   -2.3976 H   0  0  0  0  0  0  0  0  0  0  0  0
    8.1925    1.7136   -1.4869 H   0  0  0  0  0  0  0  0  0  0  0  0
    6.5256    2.3676   -1.2590 H   0  0  0  0  0  0  0  0  0  0  0  0
   -1.7136    1.4953    1.7352 C   0  0  0  0  0  0  0  0  0  0  0  0
   -1.6632    2.2887    2.5064 H   0  0  0  0  0  0  0  0  0  0  0  0
   -1.7656    0.5173    2.2507 H   0  0  0  0  0  0  0  0  0  0  0  0
   -2.9135    1.6891    0.8309 C   0  0  0  0  0  0  0  0  0  0  0  0
   -3.6506    0.5652    0.4106 C   0  0  0  0  0  0  0  0  0  0  0  0
   -3.3664   -0.4342    0.7709 H   0  0  0  0  0  0  0  0  0  0  0  0
   -4.7289    0.7201   -0.4873 C   0  0  0  0  0  0  0  0  0  0  0  0
   -5.0652    2.0143   -0.9477 C   0  0  0  0  0  0  0  0  0  0  0  0
   -5.9109    2.1144   -1.6432 H   0  0  0  0  0  0  0  0  0  0  0  0
   -4.3345    3.1243   -0.5168 C   0  0  0  0  0  0  0  0  0  0  0  0
   -4.6112    4.1268   -0.8776 H   0  0  0  0  0  0  0  0  0  0  0  0
   -3.2570    2.9728    0.3731 C   0  0  0  0  0  0  0  0  0  0  0  0
   -2.6871    3.8533    0.7084 H   0  0  0  0  0  0  0  0  0  0  0  0
   -5.2009   -1.6214   -0.5005 C   0  0  0  0  0  0  0  0  0  0  0  0
   -4.1661   -1.9482   -0.7430 H   0  0  0  0  0  0  0  0  0  0  0  0
   -5.9226   -2.2814   -1.0153 H   0  0  0  0  0  0  0  0  0  0  0  0
   -5.3495   -1.7116    0.5985 H   0  0  0  0  0  0  0  0  0  0  0  0
  1  6  1  0  0  0  0
  1  5  1  0  0  0  0
  2 27  1  0  0  0  0
  3 16  1  0  0  0  0
  4 40  1  0  0  0  0
  4 33  1  0  0  0  0
  5  2  1  0  0  0  0
  6  8  2  0  0  0  0
  7  6  1  0  0  0  0
  8  2  1  0  0  0  0
  8  9  1  0  0  0  0
 10 13  1  0  0  0  0
 10  1  1  0  0  0  0
 11 10  1  0  0  0  0
 12 10  1  0  0  0  0
 13 21  1  0  0  0  0
 14 13  2  0  0  0  0
 14 16  1  0  0  0  0
 15 14  1  0  0  0  0
 16 17  2  0  0  0  0
 17 19  1  0  0  0  0
 17 18  1  0  0  0  0
 19 20  1  0  0  0  0
 21 22  1  0  0  0  0
 21 19  2  0  0  0  0
 23 26  1  0  0  0  0
 23  3  1  0  0  0  0
 24 23  1  0  0  0  0
 25 23  1  0  0  0  0
 27 29  1  0  0  0  0
 27 28  1  0  0  0  0
 30 27  1  0  0  0  0
 31 32  1  0  0  0  0
 31 30  1  0  0  0  0
 33 31  2  0  0  0  0
 34 36  2  0  0  0  0
 34 33  1  0  0  0  0
 35 34  1  0  0  0  0
 36 38  1  0  0  0  0
 37 36  1  0  0  0  0
 38 39  1  0  0  0  0
 38 30  2  0  0  0  0
 40 43  1  0  0  0  0
 41 40  1  0  0  0  0
 42 40  1  0  0  0  0
M  END
