8
 OpenBabel05122313113D

 45 47  0  0  1  0  0  0  0  0999 V2000
    3.7255   -0.1491    1.4536 S   0  0  0  0  0  0  0  0  0  0  0  0
    3.2241    3.8620   -1.0745 O   0  0  0  0  0  0  0  0  0  0  0  0
    2.9589   -0.8323    2.5168 O   0  0  0  0  0  0  0  0  0  0  0  0
    4.6343    0.9835    1.7349 O   0  0  0  0  0  0  0  0  0  0  0  0
    2.5996    0.3946    0.3207 N   0  0  0  0  0  0  0  0  0  0  0  0
    1.2736   -0.2214    0.2469 C   0  0  0  0  0  0  0  0  0  0  0  0
    0.2258    0.8875    0.3530 C   0  0  2  0  0  3  0  0  0  0  0  0
   -0.2210    1.4617   -0.8704 C   0  0  0  0  0  3  0  0  0  0  0  0
   -0.4973    2.9178   -1.1328 C   0  0  0  0  0  0  0  0  0  0  0  0
    0.8083    3.5818   -1.6249 C   0  0  0  0  0  0  0  0  0  0  0  0
    1.8711    3.8206   -0.5607 C   0  0  1  0  0  0  0  0  0  0  0  0
    2.8893    2.8099   -0.1677 C   0  0  1  0  0  0  0  0  0  0  0  0
    3.0263    1.3790   -0.6720 C   0  0  0  0  0  0  0  0  0  0  0  0
    0.2501    1.6011    1.6836 C   0  0  0  0  0  0  0  0  0  0  0  0
    1.5484    4.9181    0.4342 C   0  0  0  0  0  0  0  0  0  0  0  0
    4.6830   -1.3885    0.5757 C   0  0  0  0  0  0  0  0  0  0  0  0
    5.9136   -1.0338    0.0049 C   0  0  0  0  0  0  0  0  0  0  0  0
    6.6228   -1.9932   -0.7327 C   0  0  0  0  0  0  0  0  0  0  0  0
    6.1244   -3.2998   -0.9043 C   0  0  0  0  0  0  0  0  0  0  0  0
    4.8879   -3.6292   -0.3037 C   0  0  0  0  0  0  0  0  0  0  0  0
    4.1653   -2.6878    0.4355 C   0  0  0  0  0  0  0  0  0  0  0  0
    6.8848   -4.3308   -1.6978 C   0  0  0  0  0  0  0  0  0  0  0  0
    1.1845   -0.9216    1.0983 H   0  0  0  0  0  0  0  0  0  0  0  0
    1.1468   -0.7912   -0.6953 H   0  0  0  0  0  0  0  0  0  0  0  0
    0.1197    0.9239   -1.7762 H   0  0  0  0  0  0  0  0  0  0  0  0
   -0.9098    3.4237   -0.2394 H   0  0  0  0  0  0  0  0  0  0  0  0
   -1.2681    3.0073   -1.9253 H   0  0  0  0  0  0  0  0  0  0  0  0
    0.5666    4.5688   -2.0753 H   0  0  0  0  0  0  0  0  0  0  0  0
    1.2553    2.9787   -2.4420 H   0  0  0  0  0  0  0  0  0  0  0  0
    3.3332    2.9163    0.8431 H   0  0  0  0  0  0  0  0  0  0  0  0
    4.0960    1.2115   -0.9250 H   0  0  0  0  0  0  0  0  0  0  0  0
    2.4587    1.2111   -1.6088 H   0  0  0  0  0  0  0  0  0  0  0  0
   -0.0178    0.8934    2.4937 H   0  0  0  0  0  0  0  0  0  0  0  0
    1.2843    1.9416    1.8920 H   0  0  0  0  0  0  0  0  0  0  0  0
   -0.4472    2.4533    1.7300 H   0  0  0  0  0  0  0  0  0  0  0  0
    2.3838    5.0618    1.1453 H   0  0  0  0  0  0  0  0  0  0  0  0
    1.3712    5.8773   -0.0945 H   0  0  0  0  0  0  0  0  0  0  0  0
    0.6357    4.6740    1.0139 H   0  0  0  0  0  0  0  0  0  0  0  0
    3.2128   -2.9530    0.9167 H   0  0  0  0  0  0  0  0  0  0  0  0
    4.4883   -4.6497   -0.4142 H   0  0  0  0  0  0  0  0  0  0  0  0
    7.5915   -1.7216   -1.1807 H   0  0  0  0  0  0  0  0  0  0  0  0
    6.3095   -0.0201    0.1617 H   0  0  0  0  0  0  0  0  0  0  0  0
    7.1257   -5.2179   -1.0758 H   0  0  0  0  0  0  0  0  0  0  0  0
    7.8347   -3.9246   -2.0944 H   0  0  0  0  0  0  0  0  0  0  0  0
    6.2847   -4.6967   -2.5570 H   0  0  0  0  0  0  0  0  0  0  0  0
  1  4  2  0  0  0  0
  1  3  2  0  0  0  0
  2 11  1  0  0  0  0
  2 12  1  0  0  0  0
  5  1  1  0  0  0  0
  6  5  1  0  0  0  0
  6  7  1  0  0  0  0
  6 23  1  0  0  0  0
  7 14  1  1  0  0  0
  8  7  1  0  0  0  0
  9  8  1  0  0  0  0
  9 26  1  0  0  0  0
 10  9  1  0  0  0  0
 10 11  1  0  0  0  0
 11 12  1  0  0  0  0
 11 15  1  1  0  0  0
 12 30  1  1  0  0  0
 13 12  1  0  0  0  0
 13  5  1  0  0  0  0
 14 35  1  0  0  0  0
 14 34  1  0  0  0  0
 14 33  1  0  0  0  0
 15 38  1  0  0  0  0
 15 36  1  0  0  0  0
 16  1  1  0  0  0  0
 17 42  1  0  0  0  0
 17 16  2  0  0  0  0
 18 17  1  0  0  0  0
 19 18  2  0  0  0  0
 19 20  1  0  0  0  0
 20 21  2  0  0  0  0
 21 16  1  0  0  0  0
 21 39  1  0  0  0  0
 22 43  1  0  0  0  0
 22 19  1  0  0  0  0
 24  6  1  0  0  0  0
 25  8  1  0  0  0  0
 27  9  1  0  0  0  0
 28 10  1  0  0  0  0
 29 10  1  0  0  0  0
 31 13  1  0  0  0  0
 32 13  1  0  0  0  0
 37 15  1  0  0  0  0
 40 20  1  0  0  0  0
 41 18  1  0  0  0  0
 44 22  1  0  0  0  0
 45 22  1  0  0  0  0
M  END
