1
 OpenBabel05122313113D

 18 18  0  0  0  0  0  0  0  0999 V2000
    2.0714   -0.0682   -1.3766 C   0  0  0  0  0  2  0  0  0  0  0  0
    2.1382   -0.2003   -2.7332 N   0  0  0  0  0  0  0  0  0  0  0  0
    1.2510   -0.2486   -3.2638 H   0  0  0  0  0  0  0  0  0  0  0  0
    3.3822   -0.0198   -0.9772 N   0  0  0  0  0  0  0  0  0  0  0  0
    4.2345   -0.1310   -2.0757 C   0  0  0  0  0  0  0  0  0  0  0  0
    5.3234   -0.1177   -1.9799 H   0  0  0  0  0  0  0  0  0  0  0  0
    3.4395   -0.2421   -3.1877 C   0  0  0  0  0  0  0  0  0  0  0  0
    3.6994   -0.3414   -4.2456 H   0  0  0  0  0  0  0  0  0  0  0  0
    3.8465    0.0828    0.4183 C   0  0  0  0  0  0  0  0  0  0  0  0
    2.9347    0.3166    0.9934 H   0  0  0  0  0  0  0  0  0  0  0  0
    4.8313    1.2410    0.5879 C   0  0  0  0  0  0  0  0  0  0  0  0
    5.7858    1.0580    0.0543 H   0  0  0  0  0  0  0  0  0  0  0  0
    5.0742    1.3707    1.6605 H   0  0  0  0  0  0  0  0  0  0  0  0
    4.3985    2.1893    0.2127 H   0  0  0  0  0  0  0  0  0  0  0  0
    4.4006   -1.2600    0.9027 C   0  0  0  0  0  0  0  0  0  0  0  0
    3.6494   -2.0652    0.7796 H   0  0  0  0  0  0  0  0  0  0  0  0
    4.6702   -1.1966    1.9752 H   0  0  0  0  0  0  0  0  0  0  0  0
    5.3123   -1.5484    0.3410 H   0  0  0  0  0  0  0  0  0  0  0  0
  1  4  1  0  0  0  0
  2  1  1  0  0  0  0
  3  2  1  0  0  0  0
  4  9  1  0  0  0  0
  5  6  1  0  0  0  0
  5  4  1  0  0  0  0
  7  2  1  0  0  0  0
  7  5  2  0  0  0  0
  8  7  1  0  0  0  0
  9 11  1  0  0  0  0
  9 15  1  0  0  0  0
  9 10  1  0  0  0  0
 11 13  1  0  0  0  0
 12 11  1  0  0  0  0
 14 11  1  0  0  0  0
 15 17  1  0  0  0  0
 16 15  1  0  0  0  0
 18 15  1  0  0  0  0
M  END
