1
 OpenBabel05122313113D

 35 35  0  0  1  0  0  0  0  0999 V2000
    0.6103    1.8876    0.2597 C   0  0  1  0  0  3  0  0  0  0  0  0
    1.5679    1.6737    1.3155 C   0  0  0  0  0  0  0  0  0  0  0  0
    1.3060    1.6060    2.3783 H   0  0  0  0  0  0  0  0  0  0  0  0
    2.8708    1.5863    0.7381 C   0  0  0  0  0  0  0  0  0  0  0  0
    3.8121    1.4488    1.2828 H   0  0  0  0  0  0  0  0  0  0  0  0
    2.7310    1.7396   -0.6898 C   0  0  0  0  0  0  0  0  0  0  0  0
    3.5488    1.7348   -1.4210 H   0  0  0  0  0  0  0  0  0  0  0  0
    1.3501    1.9296   -0.9906 C   0  0  0  0  0  0  0  0  0  0  0  0
    0.9488    2.1007   -1.9975 H   0  0  0  0  0  0  0  0  0  0  0  0
   -0.8553    1.9443    0.5189 C   0  0  0  0  0  0  0  0  0  0  0  0
   -3.1247    2.0743   -0.4564 C   0  0  0  0  0  0  0  0  0  0  0  0
   -3.5505    2.1310   -1.4756 H   0  0  0  0  0  0  0  0  0  0  0  0
   -3.3993    3.0111    0.0752 H   0  0  0  0  0  0  0  0  0  0  0  0
   -3.7456    0.9127    0.3419 C   0  0  0  0  0  0  0  0  0  0  0  0
   -3.5403    1.0723    1.4137 H   0  0  0  0  0  0  0  0  0  0  0  0
   -4.8392    0.8658    0.1842 H   0  0  0  0  0  0  0  0  0  0  0  0
   -2.6186   -1.1872    1.1739 C   0  0  0  0  0  0  0  0  0  0  0  0
   -2.0121   -2.0179    0.7637 H   0  0  0  0  0  0  0  0  0  0  0  0
   -1.9343   -0.4876    1.6927 H   0  0  0  0  0  0  0  0  0  0  0  0
   -3.7074   -1.6915    2.1019 C   0  0  0  0  0  0  0  0  0  0  0  0
   -3.2202   -2.1775    2.9693 H   0  0  0  0  0  0  0  0  0  0  0  0
   -4.3616   -2.4492    1.6292 H   0  0  0  0  0  0  0  0  0  0  0  0
   -4.3364   -0.8714    2.5013 H   0  0  0  0  0  0  0  0  0  0  0  0
   -3.9828   -1.2652   -0.9508 C   0  0  0  0  0  0  0  0  0  0  0  0
   -3.4326   -2.2188   -1.0695 H   0  0  0  0  0  0  0  0  0  0  0  0
   -4.9276   -1.4766   -0.4146 H   0  0  0  0  0  0  0  0  0  0  0  0
   -4.2270   -0.6169   -2.3021 C   0  0  0  0  0  0  0  0  0  0  0  0
   -3.2734   -0.3915   -2.8204 H   0  0  0  0  0  0  0  0  0  0  0  0
   -4.8374    0.3047   -2.2333 H   0  0  0  0  0  0  0  0  0  0  0  0
   -4.7870   -1.3273   -2.9402 H   0  0  0  0  0  0  0  0  0  0  0  0
   -1.6812    1.9433   -0.5959 N   0  0  0  0  0  0  0  0  0  0  0  0
   -1.2747    2.1430   -1.5114 H   0  0  0  0  0  0  0  0  0  0  0  0
   -3.1331   -0.4176   -0.0340 N   0  3  0  0  0  0  0  0  0  0  0  0
   -2.2744   -0.1807   -0.5798 H   0  0  0  0  0  0  0  0  0  0  0  0
   -1.3231    1.9093    1.6585 O   0  0  0  0  0  0  0  0  0  0  0  0
  1 10  1  6  0  0  0
  1  2  1  0  0  0  0
  2  3  1  0  0  0  0
  4  5  1  0  0  0  0
  4  2  2  0  0  0  0
  6  4  1  0  0  0  0
  7  6  1  0  0  0  0
  8  6  2  0  0  0  0
  8  1  1  0  0  0  0
  9  8  1  0  0  0  0
 10 35  2  0  0  0  0
 11 13  1  0  0  0  0
 11 14  1  0  0  0  0
 12 11  1  0  0  0  0
 14 15  1  0  0  0  0
 16 14  1  0  0  0  0
 17 19  1  0  0  0  0
 17 20  1  0  0  0  0
 18 17  1  0  0  0  0
 20 23  1  0  0  0  0
 20 21  1  0  0  0  0
 22 20  1  0  0  0  0
 24 26  1  0  0  0  0
 24 33  1  0  0  0  0
 25 24  1  0  0  0  0
 27 29  1  0  0  0  0
 27 24  1  0  0  0  0
 28 27  1  0  0  0  0
 30 27  1  0  0  0  0
 31 11  1  0  0  0  0
 31 10  1  0  0  0  0
 32 31  1  0  0  0  0
 33 14  1  0  0  0  0
 33 17  1  0  0  0  0
 34 33  1  0  0  0  0
M  CHG  1  33   1
M  END
