1
 OpenBabel05122313113D

 25 27  0  0  1  0  0  0  0  0999 V2000
    0.0234   -0.6209   -1.8147 C   0  0  0  0  0  3  0  0  0  0  0  0
    0.5466   -1.4319   -2.3342 H   0  0  0  0  0  0  0  0  0  0  0  0
   -1.3720   -0.3521   -1.9293 C   0  0  0  0  0  3  0  0  0  0  0  0
   -2.0856   -0.8995   -2.5551 H   0  0  0  0  0  0  0  0  0  0  0  0
   -1.6575    0.8306   -1.1435 C   0  0  0  0  0  0  0  0  0  0  0  0
   -2.8644    1.5596   -0.9229 C   0  0  0  0  0  0  0  0  0  0  0  0
   -3.7977    1.2346   -1.4058 H   0  0  0  0  0  0  0  0  0  0  0  0
   -2.8241    2.6838   -0.1163 C   0  0  0  0  0  0  0  0  0  0  0  0
   -3.7425    3.2656    0.0532 H   0  0  0  0  0  0  0  0  0  0  0  0
   -1.6087    3.1041    0.5060 C   0  0  0  0  0  0  0  0  0  0  0  0
   -1.6191    4.0045    1.1387 H   0  0  0  0  0  0  0  0  0  0  0  0
   -0.4231    2.4096    0.3355 C   0  0  0  0  0  0  0  0  0  0  0  0
    0.5219    2.7149    0.8013 H   0  0  0  0  0  0  0  0  0  0  0  0
   -0.4224    1.2501   -0.5026 C   0  0  0  0  0  0  0  0  0  0  0  0
    0.6313    0.3207   -0.9039 C   0  0  2  0  0  3  0  0  0  0  0  0
    2.0501    0.3555   -0.5049 C   0  0  0  0  0  0  0  0  0  0  0  0
    2.9718   -0.6087   -0.9800 C   0  0  0  0  0  0  0  0  0  0  0  0
    2.6463   -1.4112   -1.6564 H   0  0  0  0  0  0  0  0  0  0  0  0
    4.3039   -0.5386   -0.5644 C   0  0  0  0  0  0  0  0  0  0  0  0
    5.0342   -1.2818   -0.9191 H   0  0  0  0  0  0  0  0  0  0  0  0
    4.6918    0.4876    0.3111 C   0  0  0  0  0  0  0  0  0  0  0  0
    5.7285    0.5798    0.6662 H   0  0  0  0  0  0  0  0  0  0  0  0
    3.7097    1.4002    0.7252 C   0  0  0  0  0  0  0  0  0  0  0  0
    3.9714    2.2237    1.4136 H   0  0  0  0  0  0  0  0  0  0  0  0
    2.4301    1.3447    0.3341 N   0  0  0  0  0  0  0  0  0  0  0  0
  1 15  1  0  0  0  0
  2  1  1  0  0  0  0
  3  1  1  0  0  0  0
  3  5  1  0  0  0  0
  4  3  1  0  0  0  0
  5  6  2  0  0  0  0
  5 14  1  0  0  0  0
  6  8  1  0  0  0  0
  7  6  1  0  0  0  0
  8  9  1  0  0  0  0
  8 10  2  0  0  0  0
 10 11  1  0  0  0  0
 12 10  1  0  0  0  0
 12 13  1  0  0  0  0
 14 12  2  0  0  0  0
 15 16  1  6  0  0  0
 15 14  1  0  0  0  0
 16 25  1  0  0  0  0
 17 19  1  0  0  0  0
 17 16  2  0  0  0  0
 18 17  1  0  0  0  0
 19 21  2  0  0  0  0
 20 19  1  0  0  0  0
 21 22  1  0  0  0  0
 21 23  1  0  0  0  0
 23 24  1  0  0  0  0
 25 23  2  0  0  0  0
M  END
