3
 OpenBabel05122313113D

 21 22  0  0  0  0  0  0  0  0999 V2000
   -1.1102    1.6411   -0.3228 N   0  0  0  0  0  0  0  0  0  0  0  0
   -1.8019   -0.3864   -0.0256 N   0  0  0  0  0  0  0  0  0  0  0  0
   -0.6510    0.3649   -0.1502 C   0  0  0  0  0  2  0  0  0  0  0  0
   -1.8886   -1.7563    0.1595 C   0  0  0  0  0  0  0  0  0  0  0  0
   -0.9225   -2.2779    0.2135 H   0  0  0  0  0  0  0  0  0  0  0  0
   -3.1220   -2.3438    0.2595 C   0  0  0  0  0  0  0  0  0  0  0  0
   -3.1806   -3.4305    0.4071 H   0  0  0  0  0  0  0  0  0  0  0  0
   -4.3193   -1.5535    0.1724 C   0  0  0  0  0  0  0  0  0  0  0  0
   -5.2992   -2.0451    0.2544 H   0  0  0  0  0  0  0  0  0  0  0  0
   -4.2426   -0.1900   -0.0131 C   0  0  0  0  0  0  0  0  0  0  0  0
   -5.1418    0.4376   -0.0837 H   0  0  0  0  0  0  0  0  0  0  0  0
   -2.9620    0.4271   -0.1152 C   0  0  0  0  0  0  0  0  0  0  0  0
   -2.4906    1.7184   -0.3001 C   0  0  0  0  0  0  0  0  0  0  0  0
   -3.0304    2.6608   -0.4234 H   0  0  0  0  0  0  0  0  0  0  0  0
   -0.2173    2.7997   -0.4327 C   0  0  0  0  0  0  0  0  0  0  0  0
   -0.7461    3.5659   -1.0338 H   0  0  0  0  0  0  0  0  0  0  0  0
    0.6681    2.4626   -1.0072 H   0  0  0  0  0  0  0  0  0  0  0  0
    0.2003    3.3398    0.9317 C   0  0  0  0  0  0  0  0  0  0  0  0
   -0.6778    3.6593    1.5280 H   0  0  0  0  0  0  0  0  0  0  0  0
    0.8696    4.2128    0.8023 H   0  0  0  0  0  0  0  0  0  0  0  0
    0.7516    2.5627    1.4975 H   0  0  0  0  0  0  0  0  0  0  0  0
  1 13  1  0  0  0  0
  1  3  1  0  0  0  0
  2  4  1  0  0  0  0
  3  2  1  0  0  0  0
  4  5  1  0  0  0  0
  4  6  2  0  0  0  0
  6  7  1  0  0  0  0
  8  9  1  0  0  0  0
  8  6  1  0  0  0  0
 10  8  2  0  0  0  0
 11 10  1  0  0  0  0
 12  2  1  0  0  0  0
 12 10  1  0  0  0  0
 13 12  2  0  0  0  0
 14 13  1  0  0  0  0
 15  1  1  0  0  0  0
 15 18  1  0  0  0  0
 16 15  1  0  0  0  0
 17 15  1  0  0  0  0
 18 21  1  0  0  0  0
 18 19  1  0  0  0  0
 20 18  1  0  0  0  0
M  END
