21
 OpenBabel05122313113D

 23 24  0  0  0  0  0  0  0  0999 V2000
    3.2811   -2.3931    0.5498 S   0  0  0  0  0  0  0  0  0  0  0  0
    0.5609   -1.3419   -0.4047 S   0  0  0  0  0  0  0  0  0  0  0  0
    5.7270   -3.0998   -0.0668 O   0  0  0  0  0  0  0  0  0  0  0  0
    7.3159    2.8365   -0.8380 O   0  0  0  0  0  0  0  0  0  0  0  0
    6.1468    2.8814   -0.4561 N   0  0  0  0  0  0  0  0  0  0  0  0
    6.2735   -2.0337   -0.3736 N   0  0  0  0  0  0  0  0  0  0  0  0
    5.4965    3.9122   -0.2690 O   0  0  0  0  0  0  0  0  0  0  0  0
    7.4079   -1.9319   -0.8365 O   0  0  0  0  0  0  0  0  0  0  0  0
    5.4916   -0.8045   -0.1583 C   0  0  0  0  0  0  0  0  0  0  0  0
   -0.2567   -1.0674    2.0245 C   0  0  0  0  0  0  0  0  0  0  0  0
   -0.8803   -0.8252    2.8961 H   0  0  0  0  0  0  0  0  0  0  0  0
    4.1375   -0.8570    0.2805 C   0  0  0  0  0  0  0  0  0  0  0  0
    3.4851    0.3892    0.4821 C   0  0  0  0  0  0  0  0  0  0  0  0
    2.4440    0.3843    0.8326 H   0  0  0  0  0  0  0  0  0  0  0  0
    5.4626    1.5986   -0.2003 C   0  0  0  0  0  0  0  0  0  0  0  0
    6.1509    0.4059   -0.4036 C   0  0  0  0  0  0  0  0  0  0  0  0
    7.1917    0.3996   -0.7502 H   0  0  0  0  0  0  0  0  0  0  0  0
    1.6541   -1.8081    0.8843 C   0  0  0  0  0  0  0  0  0  0  0  0
    1.0574   -1.6105    2.1237 C   0  0  0  0  0  0  0  0  0  0  0  0
    1.5720   -1.8316    3.0699 H   0  0  0  0  0  0  0  0  0  0  0  0
   -0.6754   -0.8404    0.7155 C   0  0  0  0  0  3  0  0  0  0  0  0
    4.1300    1.5992    0.2484 C   0  0  0  0  0  0  0  0  0  0  0  0
    3.6242    2.5613    0.4065 H   0  0  0  0  0  0  0  0  0  0  0  0
  1 18  1  0  0  0  0
  2 21  1  0  0  0  0
  2 18  1  0  0  0  0
  4  5  2  0  0  0  0
  5  7  2  0  0  0  0
  5 15  1  0  0  0  0
  6  9  1  0  0  0  0
  6  3  2  0  0  0  0
  8  6  2  0  0  0  0
  9 12  1  0  0  0  0
 10 19  1  0  0  0  0
 10 11  1  0  0  0  0
 12 13  2  0  0  0  0
 12  1  1  0  0  0  0
 13 14  1  0  0  0  0
 15 22  2  0  0  0  0
 16 15  1  0  0  0  0
 16  9  2  0  0  0  0
 17 16  1  0  0  0  0
 18 19  2  0  0  0  0
 19 20  1  0  0  0  0
 21 10  2  0  0  0  0
 22 23  1  0  0  0  0
 22 13  1  0  0  0  0
M  END
