3
 OpenBabel05122313113D

 24 23  0  0  0  0  0  0  0  0999 V2000
    2.6143    0.8099   -0.2668 N   0  0  0  0  0  2  0  0  0  0  0  0
    4.1401    1.0821   -0.3597 B   0  0  0  0  0  0  0  0  0  0  0  0
    1.4625    0.5979   -0.1741 C   0  0  0  0  0  1  0  0  0  0  0  0
    4.5978    0.6699   -1.8892 C   0  0  0  0  0  0  0  0  0  0  0  0
    4.1051    1.3588   -2.6130 H   0  0  0  0  0  0  0  0  0  0  0  0
    5.6860    0.8907   -1.9726 H   0  0  0  0  0  0  0  0  0  0  0  0
    4.3382   -0.7783   -2.3124 C   0  0  0  0  0  0  0  0  0  0  0  0
    4.6808   -1.0063   -3.3458 H   0  0  0  0  0  0  0  0  0  0  0  0
    3.2520   -1.0151   -2.2783 H   0  0  0  0  0  0  0  0  0  0  0  0
    4.8450   -1.5017   -1.6374 H   0  0  0  0  0  0  0  0  0  0  0  0
    4.3456    2.6938   -0.1053 C   0  0  0  0  0  0  0  0  0  0  0  0
    5.4307    2.9147   -0.2265 H   0  0  0  0  0  0  0  0  0  0  0  0
    3.8425    3.2548   -0.9262 H   0  0  0  0  0  0  0  0  0  0  0  0
    3.8598    3.2297    1.2448 C   0  0  0  0  0  0  0  0  0  0  0  0
    4.0129    4.3248    1.3631 H   0  0  0  0  0  0  0  0  0  0  0  0
    4.3809    2.7369    2.0936 H   0  0  0  0  0  0  0  0  0  0  0  0
    2.7725    3.0409    1.3847 H   0  0  0  0  0  0  0  0  0  0  0  0
    4.8315    0.1324    0.8012 C   0  0  0  0  0  0  0  0  0  0  0  0
    4.3740    0.3571    1.7928 H   0  0  0  0  0  0  0  0  0  0  0  0
    4.5916   -0.9392    0.6072 H   0  0  0  0  0  0  0  0  0  0  0  0
    6.3515    0.2923    0.9029 C   0  0  0  0  0  0  0  0  0  0  0  0
    6.8075   -0.3563    1.6830 H   0  0  0  0  0  0  0  0  0  0  0  0
    6.6333    1.3387    1.1447 H   0  0  0  0  0  0  0  0  0  0  0  0
    6.8518    0.0457   -0.0577 H   0  0  0  0  0  0  0  0  0  0  0  0
  1  3  1  0  0  0  0
  2  1  1  0  0  0  0
  2 11  1  0  0  0  0
  2 18  1  0  0  0  0
  4  2  1  0  0  0  0
  5  4  1  0  0  0  0
  6  4  1  0  0  0  0
  7  9  1  0  0  0  0
  7  4  1  0  0  0  0
  7 10  1  0  0  0  0
  8  7  1  0  0  0  0
 11 14  1  0  0  0  0
 12 11  1  0  0  0  0
 13 11  1  0  0  0  0
 14 15  1  0  0  0  0
 14 17  1  0  0  0  0
 14 16  1  0  0  0  0
 18 21  1  0  0  0  0
 18 19  1  0  0  0  0
 20 18  1  0  0  0  0
 21 23  1  0  0  0  0
 21 22  1  0  0  0  0
 24 21  1  0  0  0  0
M  END
