6
 OpenBabel05122313113D

 29 30  0  0  0  0  0  0  0  0999 V2000
   -2.1228    0.9529   -1.1773 C   0  0  0  0  0  0  0  0  0  0  0  0
   -1.2680    1.7675   -1.9830 C   0  0  0  0  0  0  0  0  0  0  0  0
   -0.8647    1.4837   -2.9613 H   0  0  0  0  0  0  0  0  0  0  0  0
   -0.9881    2.9696   -1.2833 C   0  0  0  0  0  0  0  0  0  0  0  0
   -0.3932    3.8088   -1.6580 H   0  0  0  0  0  0  0  0  0  0  0  0
   -1.6775    2.9122   -0.0286 C   0  0  0  0  0  3  0  0  0  0  0  0
   -1.7085    3.6992    0.7319 H   0  0  0  0  0  0  0  0  0  0  0  0
   -2.3787    1.6796    0.0242 C   0  0  0  0  0  0  0  0  0  0  0  0
   -2.9960    1.3238    0.8553 H   0  0  0  0  0  0  0  0  0  0  0  0
   -2.6341   -0.4263   -1.5180 C   0  0  0  0  0  0  0  0  0  0  0  0
   -2.6022   -0.5502   -2.6188 H   0  0  0  0  0  0  0  0  0  0  0  0
   -1.9244   -1.1716   -1.1023 H   0  0  0  0  0  0  0  0  0  0  0  0
   -4.0295   -0.6923   -0.9960 C   0  0  0  0  0  0  0  0  0  0  0  0
   -5.1650   -0.3963   -1.7678 C   0  0  0  0  0  0  0  0  0  0  0  0
   -5.0376    0.0092   -2.7844 H   0  0  0  0  0  0  0  0  0  0  0  0
   -6.4661   -0.6071   -1.2807 C   0  0  0  0  0  0  0  0  0  0  0  0
   -7.3225   -0.3668   -1.9247 H   0  0  0  0  0  0  0  0  0  0  0  0
   -6.6456   -1.1243    0.0179 C   0  0  0  0  0  0  0  0  0  0  0  0
   -7.8576   -1.3706    0.5982 O   0  0  0  0  0  0  0  0  0  0  0  0
   -9.0236   -1.0839   -0.1652 C   0  0  0  0  0  0  0  0  0  0  0  0
   -9.0461   -0.0058   -0.4574 H   0  0  0  0  0  0  0  0  0  0  0  0
   -9.0258   -1.6732   -1.1144 H   0  0  0  0  0  0  0  0  0  0  0  0
  -10.2150   -1.4051    0.6136 C   0  0  0  0  0  0  0  0  0  0  0  0
  -11.2308   -1.6640    1.2396 C   0  0  0  0  0  0  0  0  0  0  0  0
  -12.1262   -1.8961    1.7992 H   0  0  0  0  0  0  0  0  0  0  0  0
   -5.5142   -1.4247    0.8062 C   0  0  0  0  0  0  0  0  0  0  0  0
   -5.6752   -1.8314    1.8150 H   0  0  0  0  0  0  0  0  0  0  0  0
   -4.2292   -1.2111    0.3028 C   0  0  0  0  0  0  0  0  0  0  0  0
   -3.3516   -1.4407    0.9274 H   0  0  0  0  0  0  0  0  0  0  0  0
  1  8  2  0  0  0  0
  2  4  2  0  0  0  0
  2  1  1  0  0  0  0
  3  2  1  0  0  0  0
  4  6  1  0  0  0  0
  5  4  1  0  0  0  0
  6  8  1  0  0  0  0
  6  7  1  0  0  0  0
  8  9  1  0  0  0  0
 10  1  1  0  0  0  0
 10 12  1  0  0  0  0
 10 13  1  0  0  0  0
 11 10  1  0  0  0  0
 13 28  1  0  0  0  0
 14 16  1  0  0  0  0
 14 13  2  0  0  0  0
 15 14  1  0  0  0  0
 16 18  2  0  0  0  0
 17 16  1  0  0  0  0
 18 19  1  0  0  0  0
 18 26  1  0  0  0  0
 20 19  1  0  0  0  0
 20 23  1  0  0  0  0
 21 20  1  0  0  0  0
 22 20  1  0  0  0  0
 23 24  3  0  0  0  0
 24 25  1  0  0  0  0
 26 27  1  0  0  0  0
 28 26  2  0  0  0  0
 28 29  1  0  0  0  0
M  END
