19
 OpenBabel05122313113D

 65 67  0  0  0  0  0  0  0  0999 V2000
   -1.6781   -0.2629   -0.0912 B   0  0  0  0  0  0  0  0  0  0  0  0
    0.1876    3.1195   -1.8872 P   0  0  0  0  0  4  0  0  0  0  0  0
   -0.9558    3.5034   -2.6608 H   0  0  0  0  0  0  0  0  0  0  0  0
   -0.4645   -1.4713    2.4869 F   0  0  0  0  0  0  0  0  0  0  0  0
    1.6379   -3.1269    2.5753 F   0  0  0  0  0  0  0  0  0  0  0  0
    2.9031   -3.8976    0.2827 F   0  0  0  0  0  0  0  0  0  0  0  0
    2.0148   -2.9853   -2.1434 F   0  0  0  0  0  0  0  0  0  0  0  0
   -0.0935   -1.3190   -2.2748 F   0  0  0  0  0  0  0  0  0  0  0  0
   -2.9749   -2.3863    1.3687 F   0  0  0  0  0  0  0  0  0  0  0  0
   -4.7809   -4.1672    0.4152 F   0  0  0  0  0  0  0  0  0  0  0  0
   -5.6092   -4.0166   -2.1979 F   0  0  0  0  0  0  0  0  0  0  0  0
   -4.6074   -2.0565   -3.8356 F   0  0  0  0  0  0  0  0  0  0  0  0
   -2.8199   -0.2817   -2.9077 F   0  0  0  0  0  0  0  0  0  0  0  0
    0.1141    1.0866    1.9130 F   0  0  0  0  0  0  0  0  0  0  0  0
   -0.6357    2.7533    3.8312 F   0  0  0  0  0  0  0  0  0  0  0  0
   -3.3057    3.2434    4.3182 F   0  0  0  0  0  0  0  0  0  0  0  0
   -5.2025    2.0110    2.7628 F   0  0  0  0  0  0  0  0  0  0  0  0
   -4.4934    0.3803    0.7775 F   0  0  0  0  0  0  0  0  0  0  0  0
   -0.0778    1.5821   -1.0840 C   0  0  0  0  0  3  0  0  0  0  0  0
   -1.3244    1.0269   -1.0131 C   0  0  0  0  0  0  0  0  0  0  0  0
   -2.1770    1.5468   -1.4969 H   0  0  0  0  0  0  0  0  0  0  0  0
    0.3259    4.4949   -0.6083 C   0  0  0  0  0  0  0  0  0  0  0  0
    1.3027    4.0757    0.5064 C   0  0  0  0  0  0  0  0  0  0  0  0
    1.3812    4.9068    1.2374 H   0  0  0  0  0  0  0  0  0  0  0  0
    2.3229    3.8636    0.1327 H   0  0  0  0  0  0  0  0  0  0  0  0
    0.9355    3.1910    1.0606 H   0  0  0  0  0  0  0  0  0  0  0  0
    0.7563    5.8214   -1.2515 C   0  0  0  0  0  0  0  0  0  0  0  0
    0.6897    6.6262   -0.4903 H   0  0  0  0  0  0  0  0  0  0  0  0
    0.1003    6.1110   -2.0972 H   0  0  0  0  0  0  0  0  0  0  0  0
    1.8037    5.7930   -1.6099 H   0  0  0  0  0  0  0  0  0  0  0  0
   -1.0964    4.6186   -0.0224 C   0  0  0  0  0  0  0  0  0  0  0  0
   -1.0781    5.3539    0.8085 H   0  0  0  0  0  0  0  0  0  0  0  0
   -1.4577    3.6549    0.3894 H   0  0  0  0  0  0  0  0  0  0  0  0
   -1.8277    4.9767   -0.7749 H   0  0  0  0  0  0  0  0  0  0  0  0
    1.5551    2.9715   -3.1667 C   0  0  0  0  0  0  0  0  0  0  0  0
    1.2841    1.6302   -3.8807 C   0  0  0  0  0  0  0  0  0  0  0  0
    2.0244    1.5113   -4.6987 H   0  0  0  0  0  0  0  0  0  0  0  0
    0.2707    1.5928   -4.3297 H   0  0  0  0  0  0  0  0  0  0  0  0
    1.3801    0.7642   -3.1994 H   0  0  0  0  0  0  0  0  0  0  0  0
    1.4593    4.1279   -4.1773 C   0  0  0  0  0  0  0  0  0  0  0  0
    2.2106    3.9634   -4.9772 H   0  0  0  0  0  0  0  0  0  0  0  0
    1.6694    5.1138   -3.7231 H   0  0  0  0  0  0  0  0  0  0  0  0
    0.4636    4.1701   -4.6634 H   0  0  0  0  0  0  0  0  0  0  0  0
    2.9325    2.9444   -2.4841 C   0  0  0  0  0  0  0  0  0  0  0  0
    3.7079    2.7331   -3.2489 H   0  0  0  0  0  0  0  0  0  0  0  0
    3.0062    2.1390   -1.7275 H   0  0  0  0  0  0  0  0  0  0  0  0
    3.1853    3.9113   -2.0068 H   0  0  0  0  0  0  0  0  0  0  0  0
   -0.3507   -1.2376    0.1064 C   0  0  0  0  0  0  0  0  0  0  0  0
    0.1093   -1.7940    1.3212 C   0  0  0  0  0  0  0  0  0  0  0  0
    1.1902   -2.6909    1.3950 C   0  0  0  0  0  0  0  0  0  0  0  0
    1.8379   -3.0959    0.2193 C   0  0  0  0  0  0  0  0  0  0  0  0
    1.3903   -2.6173   -1.0212 C   0  0  0  0  0  0  0  0  0  0  0  0
    0.3101   -1.7199   -1.0528 C   0  0  0  0  0  0  0  0  0  0  0  0
   -2.8281   -1.2455   -0.7120 C   0  0  0  0  0  0  0  0  0  0  0  0
   -3.3605   -2.2758    0.0803 C   0  0  0  0  0  0  0  0  0  0  0  0
   -4.2960   -3.2108   -0.3868 C   0  0  0  0  0  0  0  0  0  0  0  0
   -4.7208   -3.1362   -1.7242 C   0  0  0  0  0  0  0  0  0  0  0  0
   -4.2081   -2.1314   -2.5583 C   0  0  0  0  0  0  0  0  0  0  0  0
   -3.2756   -1.2150   -2.0402 C   0  0  0  0  0  0  0  0  0  0  0  0
   -2.1530    0.5808    1.2526 C   0  0  0  0  0  0  0  0  0  0  0  0
   -1.2386    1.2499    2.0829 C   0  0  0  0  0  0  0  0  0  0  0  0
   -1.5817    2.1394    3.1079 C   0  0  0  0  0  0  0  0  0  0  0  0
   -2.9401    2.4000    3.3487 C   0  0  0  0  0  0  0  0  0  0  0  0
   -3.9050    1.7656    2.5524 C   0  0  0  0  0  0  0  0  0  0  0  0
   -3.4993    0.8931    1.5242 C   0  0  0  0  0  0  0  0  0  0  0  0
  1 48  1  0  0  0  0
  1 60  1  0  0  0  0
  2 19  1  0  0  0  0
  2 22  1  0  0  0  0
  3  2  1  0  0  0  0
  7 52  1  0  0  0  0
  8 53  1  0  0  0  0
 11 57  1  0  0  0  0
 12 58  1  0  0  0  0
 13 59  1  0  0  0  0
 14 61  1  0  0  0  0
 18 65  1  0  0  0  0
 19 20  2  0  0  0  0
 20  1  1  0  0  0  0
 21 20  1  0  0  0  0
 22 31  1  0  0  0  0
 22 23  1  0  0  0  0
 23 26  1  0  0  0  0
 23 24  1  0  0  0  0
 25 23  1  0  0  0  0
 27 22  1  0  0  0  0
 27 28  1  0  0  0  0
 29 27  1  0  0  0  0
 30 27  1  0  0  0  0
 31 33  1  0  0  0  0
 31 32  1  0  0  0  0
 34 31  1  0  0  0  0
 35 44  1  0  0  0  0
 35  2  1  0  0  0  0
 36 39  1  0  0  0  0
 36 35  1  0  0  0  0
 37 36  1  0  0  0  0
 38 36  1  0  0  0  0
 40 42  1  0  0  0  0
 40 35  1  0  0  0  0
 41 40  1  0  0  0  0
 43 40  1  0  0  0  0
 44 47  1  0  0  0  0
 44 46  1  0  0  0  0
 45 44  1  0  0  0  0
 48 49  1  0  0  0  0
 49 50  2  0  0  0  0
 49  4  1  0  0  0  0
 50  5  1  0  0  0  0
 51  6  1  0  0  0  0
 51 50  1  0  0  0  0
 52 51  2  0  0  0  0
 53 52  1  0  0  0  0
 53 48  2  0  0  0  0
 54  1  1  0  0  0  0
 54 55  1  0  0  0  0
 55  9  1  0  0  0  0
 56 55  2  0  0  0  0
 56 10  1  0  0  0  0
 57 56  1  0  0  0  0
 58 59  1  0  0  0  0
 58 57  2  0  0  0  0
 59 54  2  0  0  0  0
 60 65  2  0  0  0  0
 60 61  1  0  0  0  0
 61 62  2  0  0  0  0
 62 63  1  0  0  0  0
 62 15  1  0  0  0  0
 63 16  1  0  0  0  0
 64 17  1  0  0  0  0
 64 63  2  0  0  0  0
 65 64  1  0  0  0  0
M  END
