31
 OpenBabel05122313113D

 35 37  0  0  1  0  0  0  0  0999 V2000
   -4.3122   -1.2638   -0.8478 O   0  0  0  0  0  0  0  0  0  0  0  0
   -4.4120    0.4744    0.6801 O   0  0  0  0  0  0  0  0  0  0  0  0
   -5.1964    0.8392   -1.6003 C   0  0  0  0  0  0  0  0  0  0  0  0
   -5.8159    1.7165   -1.3311 H   0  0  0  0  0  0  0  0  0  0  0  0
   -5.6447    0.3377   -2.4799 H   0  0  0  0  0  0  0  0  0  0  0  0
   -4.1831    1.1878   -1.8790 H   0  0  0  0  0  0  0  0  0  0  0  0
   -6.4667   -0.6031    0.0790 C   0  0  0  0  0  0  0  0  0  0  0  0
   -6.3276   -1.3444    0.8890 H   0  0  0  0  0  0  0  0  0  0  0  0
   -7.0424   -1.0711   -0.7426 H   0  0  0  0  0  0  0  0  0  0  0  0
   -7.0443    0.2526    0.4800 H   0  0  0  0  0  0  0  0  0  0  0  0
   -5.1066   -0.1329   -0.4259 C   0  0  0  0  0  0  0  0  0  0  0  0
   -3.1948   -0.5042    3.1675 C   0  0  0  0  0  0  0  0  0  0  0  0
   -4.1174    0.1025    3.2520 H   0  0  0  0  0  0  0  0  0  0  0  0
   -2.6261   -0.4227    4.1145 H   0  0  0  0  0  0  0  0  0  0  0  0
   -3.4899   -1.5657    3.0484 H   0  0  0  0  0  0  0  0  0  0  0  0
   -1.6131   -1.5728   -1.8090 C   0  0  0  0  0  0  0  0  0  0  0  0
   -1.4140   -0.4833   -1.8248 H   0  0  0  0  0  0  0  0  0  0  0  0
   -2.4416   -1.7703   -2.5160 H   0  0  0  0  0  0  0  0  0  0  0  0
   -0.7018   -2.0873   -2.1694 H   0  0  0  0  0  0  0  0  0  0  0  0
   -1.9909   -2.0643   -0.4056 C   0  0  2  0  0  0  0  0  0  0  0  0
   -2.1290   -3.1655   -0.4665 H   0  0  0  0  0  0  0  0  0  0  0  0
   -3.2910   -1.4457    0.1220 C   0  0  1  0  0  0  0  0  0  0  0  0
   -3.6663   -2.0851    0.9577 H   0  0  0  0  0  0  0  0  0  0  0  0
   -3.0855   -0.0282    0.6484 C   0  0  2  0  0  0  0  0  0  0  0  0
   -2.4705    0.5434   -0.0896 H   0  0  0  0  0  0  0  0  0  0  0  0
   -2.3447   -0.0126    1.9855 C   0  0  2  0  0  0  0  0  0  0  0  0
   -2.0353    1.0323    2.2056 H   0  0  0  0  0  0  0  0  0  0  0  0
   -1.1071   -0.8602    1.7549 C   0  0  0  0  0  0  0  0  0  0  0  0
    0.0398   -0.9751    2.5958 C   0  0  0  0  0  0  0  0  0  0  0  0
    0.2127   -0.3968    3.5140 H   0  0  0  0  0  0  0  0  0  0  0  0
    0.8919   -1.9814    2.0544 C   0  0  0  0  0  3  0  0  0  0  0  0
    1.8432   -2.3249    2.4799 H   0  0  0  0  0  0  0  0  0  0  0  0
    0.2904   -2.4777    0.8644 C   0  0  0  0  0  0  0  0  0  0  0  0
    0.6927   -3.2645    0.2158 H   0  0  0  0  0  0  0  0  0  0  0  0
   -0.9485   -1.7958    0.6728 C   0  0  0  0  0  0  0  0  0  0  0  0
  1 11  1  0  0  0  0
  1 22  1  0  0  0  0
  3  4  1  0  0  0  0
  3 11  1  0  0  0  0
  5  3  1  0  0  0  0
  6  3  1  0  0  0  0
  7 10  1  0  0  0  0
  7  8  1  0  0  0  0
  9  7  1  0  0  0  0
 11  7  1  0  0  0  0
 11  2  1  0  0  0  0
 12 13  1  0  0  0  0
 12 14  1  0  0  0  0
 15 12  1  0  0  0  0
 16 20  1  0  0  0  0
 17 16  1  0  0  0  0
 18 16  1  0  0  0  0
 19 16  1  0  0  0  0
 20 21  1  6  0  0  0
 20 22  1  0  0  0  0
 20 35  1  0  0  0  0
 22 24  1  0  0  0  0
 22 23  1  1  0  0  0
 24 25  1  6  0  0  0
 24  2  1  0  0  0  0
 24 26  1  0  0  0  0
 26 27  1  1  0  0  0
 26 12  1  0  0  0  0
 28 26  1  0  0  0  0
 28 29  2  0  0  0  0
 29 30  1  0  0  0  0
 31 32  1  0  0  0  0
 31 29  1  0  0  0  0
 33 31  1  0  0  0  0
 34 33  1  0  0  0  0
 35 33  2  0  0  0  0
 35 28  1  0  0  0  0
M  END
