32
 OpenBabel05122313113D

 63 70  0  0  0  0  0  0  0  0999 V2000
    1.1042   -0.7546   -0.0103 N   0  0  0  0  0  0  0  0  0  0  0  0
    0.7056   -2.1020   -0.0062 C   0  0  0  0  0  0  0  0  0  0  0  0
    1.4347   -3.3023   -0.0125 C   0  0  0  0  0  0  0  0  0  0  0  0
    2.5288   -3.3136   -0.0221 H   0  0  0  0  0  0  0  0  0  0  0  0
    0.7052   -4.4977   -0.0058 C   0  0  0  0  0  0  0  0  0  0  0  0
    1.2493   -5.4537   -0.0104 H   0  0  0  0  0  0  0  0  0  0  0  0
    2.5441   -0.3794   -0.0249 C   0  0  0  0  0  0  0  0  0  0  0  0
    3.2684   -1.0029   -1.2200 C   0  0  0  0  0  0  0  0  0  0  0  0
    2.9608   -0.8766   -2.5745 C   0  0  0  0  0  0  0  0  0  0  0  0
    2.0724   -0.3072   -2.8932 H   0  0  0  0  0  0  0  0  0  0  0  0
    3.8146   -1.4937   -3.5091 C   0  0  0  0  0  0  0  0  0  0  0  0
    3.5917   -1.4170   -4.5840 H   0  0  0  0  0  0  0  0  0  0  0  0
    4.9511   -2.2058   -3.0825 C   0  0  0  0  0  0  0  0  0  0  0  0
    5.6074   -2.6779   -3.8295 H   0  0  0  0  0  0  0  0  0  0  0  0
    5.2585   -2.3261   -1.7159 C   0  0  0  0  0  0  0  0  0  0  0  0
    6.1469   -2.8891   -1.3911 H   0  0  0  0  0  0  0  0  0  0  0  0
    4.4058   -1.7233   -0.7774 C   0  0  0  0  0  0  0  0  0  0  0  0
    4.4203   -1.7202    0.6965 C   0  0  0  0  0  0  0  0  0  0  0  0
    5.2914   -2.3191    1.6204 C   0  0  0  0  0  0  0  0  0  0  0  0
    6.1732   -2.8835    1.2805 H   0  0  0  0  0  0  0  0  0  0  0  0
    5.0112   -2.1929    2.9923 C   0  0  0  0  0  0  0  0  0  0  0  0
    5.6821   -2.6619    3.7282 H   0  0  0  0  0  0  0  0  0  0  0  0
    3.8835   -1.4786    3.4382 C   0  0  0  0  0  0  0  0  0  0  0  0
    3.6820   -1.3973    4.5171 H   0  0  0  0  0  0  0  0  0  0  0  0
    3.0112   -0.8654    2.5182 C   0  0  0  0  0  0  0  0  0  0  0  0
    2.1298   -0.2934    2.8515 H   0  0  0  0  0  0  0  0  0  0  0  0
    3.2919   -0.9977    1.1584 C   0  0  0  0  0  0  0  0  0  0  0  0
    2.8217    1.1334   -0.0316 C   0  0  0  0  0  0  0  0  0  0  0  0
    2.3997    1.6149   -0.9343 H   0  0  0  0  0  0  0  0  0  0  0  0
    3.9220    1.2592   -0.0449 H   0  0  0  0  0  0  0  0  0  0  0  0
    2.4205    1.6175    0.8791 H   0  0  0  0  0  0  0  0  0  0  0  0
    0.0000    0.0544    0.0001 C   0  0  0  0  0  2  0  0  0  0  0  0
   -1.1041   -0.7547    0.0104 N   0  0  0  0  0  0  0  0  0  0  0  0
   -0.7054   -2.1021    0.0066 C   0  0  0  0  0  0  0  0  0  0  0  0
   -1.4345   -3.3023    0.0131 C   0  0  0  0  0  0  0  0  0  0  0  0
   -2.5286   -3.3137    0.0227 H   0  0  0  0  0  0  0  0  0  0  0  0
   -0.7049   -4.4978    0.0066 C   0  0  0  0  0  0  0  0  0  0  0  0
   -1.2489   -5.4537    0.0114 H   0  0  0  0  0  0  0  0  0  0  0  0
   -2.5440   -0.3796    0.0249 C   0  0  0  0  0  0  0  0  0  0  0  0
   -3.2917   -0.9979   -1.1585 C   0  0  0  0  0  0  0  0  0  0  0  0
   -3.0108   -0.8655   -2.5183 C   0  0  0  0  0  0  0  0  0  0  0  0
   -2.1294   -0.2936   -2.8515 H   0  0  0  0  0  0  0  0  0  0  0  0
   -3.8829   -1.4788   -3.4384 C   0  0  0  0  0  0  0  0  0  0  0  0
   -3.6813   -1.3974   -4.5172 H   0  0  0  0  0  0  0  0  0  0  0  0
   -5.0108   -2.1931   -2.9927 C   0  0  0  0  0  0  0  0  0  0  0  0
   -5.6816   -2.6620   -3.7286 H   0  0  0  0  0  0  0  0  0  0  0  0
   -5.2911   -2.3193   -1.6208 C   0  0  0  0  0  0  0  0  0  0  0  0
   -6.1729   -2.8837   -1.2810 H   0  0  0  0  0  0  0  0  0  0  0  0
   -4.4201   -1.7204   -0.6967 C   0  0  0  0  0  0  0  0  0  0  0  0
   -4.4058   -1.7235    0.7771 C   0  0  0  0  0  0  0  0  0  0  0  0
   -5.2586   -2.3264    1.7155 C   0  0  0  0  0  0  0  0  0  0  0  0
   -6.1469   -2.8894    1.3906 H   0  0  0  0  0  0  0  0  0  0  0  0
   -4.9514   -2.2061    3.0822 C   0  0  0  0  0  0  0  0  0  0  0  0
   -5.6077   -2.6782    3.8291 H   0  0  0  0  0  0  0  0  0  0  0  0
   -3.8149   -1.4940    3.5089 C   0  0  0  0  0  0  0  0  0  0  0  0
   -3.5922   -1.4173    4.5838 H   0  0  0  0  0  0  0  0  0  0  0  0
   -2.9610   -0.8768    2.5744 C   0  0  0  0  0  0  0  0  0  0  0  0
   -2.0727   -0.3074    2.8933 H   0  0  0  0  0  0  0  0  0  0  0  0
   -3.2685   -1.0031    1.2199 C   0  0  0  0  0  0  0  0  0  0  0  0
   -2.8217    1.1333    0.0315 C   0  0  0  0  0  0  0  0  0  0  0  0
   -2.4204    1.6173   -0.8792 H   0  0  0  0  0  0  0  0  0  0  0  0
   -3.9220    1.2590    0.0446 H   0  0  0  0  0  0  0  0  0  0  0  0
   -2.3999    1.6148    0.9342 H   0  0  0  0  0  0  0  0  0  0  0  0
  1  2  1  0  0  0  0
  1 32  1  0  0  0  0
  2 34  1  0  0  0  0
  3  2  2  0  0  0  0
  3  5  1  0  0  0  0
  4  3  1  0  0  0  0
  5 37  2  0  0  0  0
  6  5  1  0  0  0  0
  7  1  1  0  0  0  0
  7 27  1  0  0  0  0
  8 17  1  0  0  0  0
  8  7  1  0  0  0  0
  9  8  2  0  0  0  0
 10  9  1  0  0  0  0
 11 13  2  0  0  0  0
 11  9  1  0  0  0  0
 12 11  1  0  0  0  0
 13 15  1  0  0  0  0
 14 13  1  0  0  0  0
 15 16  1  0  0  0  0
 15 17  2  0  0  0  0
 17 18  1  0  0  0  0
 18 27  2  0  0  0  0
 18 19  1  0  0  0  0
 19 21  2  0  0  0  0
 20 19  1  0  0  0  0
 21 23  1  0  0  0  0
 21 22  1  0  0  0  0
 23 24  1  0  0  0  0
 25 26  1  0  0  0  0
 25 23  2  0  0  0  0
 27 25  1  0  0  0  0
 28  7  1  0  0  0  0
 28 31  1  0  0  0  0
 29 28  1  0  0  0  0
 30 28  1  0  0  0  0
 32 33  1  0  0  0  0
 33 39  1  0  0  0  0
 34 33  1  0  0  0  0
 34 35  2  0  0  0  0
 35 36  1  0  0  0  0
 37 38  1  0  0  0  0
 37 35  1  0  0  0  0
 39 60  1  0  0  0  0
 39 59  1  0  0  0  0
 40 49  1  0  0  0  0
 40 39  1  0  0  0  0
 41 40  2  0  0  0  0
 42 41  1  0  0  0  0
 43 45  2  0  0  0  0
 43 41  1  0  0  0  0
 44 43  1  0  0  0  0
 45 47  1  0  0  0  0
 46 45  1  0  0  0  0
 47 48  1  0  0  0  0
 47 49  2  0  0  0  0
 49 50  1  0  0  0  0
 50 59  2  0  0  0  0
 50 51  1  0  0  0  0
 51 53  2  0  0  0  0
 52 51  1  0  0  0  0
 53 55  1  0  0  0  0
 53 54  1  0  0  0  0
 55 56  1  0  0  0  0
 57 58  1  0  0  0  0
 57 55  2  0  0  0  0
 59 57  1  0  0  0  0
 60 62  1  0  0  0  0
 60 63  1  0  0  0  0
 61 60  1  0  0  0  0
M  END
