1
 OpenBabel05122313113D

 57 61  0  0  1  0  0  0  0  0999 V2000
   -0.4642   -0.0441    0.8392 C   0  0  0  0  0  2  0  0  0  0  0  0
   -1.5586   -0.8745    0.9424 N   0  0  0  0  0  0  0  0  0  0  0  0
   -0.8692    1.1815    1.2978 N   0  0  0  0  0  0  0  0  0  0  0  0
   -2.6421   -0.2642    1.7483 C   0  0  2  0  0  0  0  0  0  0  0  0
   -3.6240   -0.5203    1.3053 H   0  0  0  0  0  0  0  0  0  0  0  0
   -2.3405    1.2288    1.5207 C   0  0  1  0  0  0  0  0  0  0  0  0
   -2.8217    1.5357    0.5643 H   0  0  0  0  0  0  0  0  0  0  0  0
   -1.5618   -2.2643    0.6434 C   0  0  0  0  0  0  0  0  0  0  0  0
   -2.6105   -2.8201   -0.1391 C   0  0  0  0  0  0  0  0  0  0  0  0
   -2.5991   -4.2108   -0.3691 C   0  0  0  0  0  0  0  0  0  0  0  0
   -3.3993   -4.6435   -0.9886 H   0  0  0  0  0  0  0  0  0  0  0  0
   -1.5770   -5.0323    0.1278 C   0  0  0  0  0  0  0  0  0  0  0  0
   -1.5871   -6.1113   -0.0871 H   0  0  0  0  0  0  0  0  0  0  0  0
   -0.5489   -4.4700    0.8961 C   0  0  0  0  0  0  0  0  0  0  0  0
    0.2528   -5.1026    1.3061 H   0  0  0  0  0  0  0  0  0  0  0  0
   -0.5534   -3.0945    1.1681 C   0  0  0  0  0  0  0  0  0  0  0  0
    0.2180   -2.6496    1.8177 H   0  0  0  0  0  0  0  0  0  0  0  0
   -3.7016   -1.9858   -0.7096 C   0  0  0  0  0  0  0  0  0  0  0  0
   -3.4178   -0.8261   -1.4666 C   0  0  0  0  0  0  0  0  0  0  0  0
   -2.3671   -0.5608   -1.6606 H   0  0  0  0  0  0  0  0  0  0  0  0
   -4.4638   -0.0428   -1.9741 C   0  0  0  0  0  0  0  0  0  0  0  0
   -4.2284    0.8630   -2.5520 H   0  0  0  0  0  0  0  0  0  0  0  0
   -5.8024   -0.4033   -1.7457 C   0  0  0  0  0  0  0  0  0  0  0  0
   -6.6184    0.2197   -2.1427 H   0  0  0  0  0  0  0  0  0  0  0  0
   -6.0936   -1.5635   -1.0117 C   0  0  0  0  0  0  0  0  0  0  0  0
   -7.1391   -1.8562   -0.8297 H   0  0  0  0  0  0  0  0  0  0  0  0
   -5.0504   -2.3485   -0.4984 C   0  0  0  0  0  0  0  0  0  0  0  0
   -5.2778   -3.2465    0.0969 H   0  0  0  0  0  0  0  0  0  0  0  0
   -0.0577    2.3332    1.4743 C   0  0  0  0  0  0  0  0  0  0  0  0
   -0.2677    3.4837    0.6688 C   0  0  0  0  0  0  0  0  0  0  0  0
    0.5052    4.6333    0.9445 C   0  0  0  0  0  0  0  0  0  0  0  0
    0.3584    5.5280    0.3204 H   0  0  0  0  0  0  0  0  0  0  0  0
    1.4845    4.6293    1.9472 C   0  0  0  0  0  0  0  0  0  0  0  0
    2.0875    5.5323    2.1259 H   0  0  0  0  0  0  0  0  0  0  0  0
    1.7049    3.4691    2.7077 C   0  0  0  0  0  0  0  0  0  0  0  0
    2.4838    3.4516    3.4844 H   0  0  0  0  0  0  0  0  0  0  0  0
    0.9224    2.3299    2.4834 C   0  0  0  0  0  0  0  0  0  0  0  0
    1.0775    1.4053    3.0584 H   0  0  0  0  0  0  0  0  0  0  0  0
   -1.2051    3.4801   -0.4870 C   0  0  0  0  0  0  0  0  0  0  0  0
   -2.1385    4.5263   -0.6566 C   0  0  0  0  0  0  0  0  0  0  0  0
   -2.2035    5.3172    0.1069 H   0  0  0  0  0  0  0  0  0  0  0  0
   -2.9861    4.5593   -1.7740 C   0  0  0  0  0  0  0  0  0  0  0  0
   -3.7127    5.3787   -1.8843 H   0  0  0  0  0  0  0  0  0  0  0  0
   -2.9054    3.5526   -2.7490 C   0  0  0  0  0  0  0  0  0  0  0  0
   -3.5633    3.5828   -3.6311 H   0  0  0  0  0  0  0  0  0  0  0  0
   -1.9783    2.5088   -2.5923 C   0  0  0  0  0  0  0  0  0  0  0  0
   -1.8942    1.7150   -3.3504 H   0  0  0  0  0  0  0  0  0  0  0  0
   -1.1409    2.4639   -1.4698 C   0  0  0  0  0  0  0  0  0  0  0  0
   -0.4254    1.6340   -1.3741 H   0  0  0  0  0  0  0  0  0  0  0  0
   -2.5674   -0.7547    3.1947 C   0  0  0  0  0  0  0  0  0  0  0  0
   -2.6727   -1.8571    3.2225 H   0  0  0  0  0  0  0  0  0  0  0  0
   -3.3812   -0.3201    3.8077 H   0  0  0  0  0  0  0  0  0  0  0  0
   -1.5926   -0.4934    3.6540 H   0  0  0  0  0  0  0  0  0  0  0  0
   -2.7615    2.1845    2.6241 C   0  0  0  0  0  0  0  0  0  0  0  0
   -2.2383    1.9730    3.5764 H   0  0  0  0  0  0  0  0  0  0  0  0
   -3.8536    2.1025    2.7925 H   0  0  0  0  0  0  0  0  0  0  0  0
   -2.5432    3.2314    2.3391 H   0  0  0  0  0  0  0  0  0  0  0  0
  1  2  1  0  0  0  0
  1  3  1  0  0  0  0
  2  4  1  0  0  0  0
  3 29  1  0  0  0  0
  3  6  1  0  0  0  0
  4  5  1  6  0  0  0
  4 50  1  0  0  0  0
  6  7  1  6  0  0  0
  6  4  1  0  0  0  0
  6 54  1  0  0  0  0
  8  2  1  0  0  0  0
  8 16  1  0  0  0  0
  9  8  2  0  0  0  0
 10  9  1  0  0  0  0
 10 12  2  0  0  0  0
 11 10  1  0  0  0  0
 12 14  1  0  0  0  0
 13 12  1  0  0  0  0
 14 16  2  0  0  0  0
 14 15  1  0  0  0  0
 16 17  1  0  0  0  0
 18 27  1  0  0  0  0
 18  9  1  0  0  0  0
 19 18  2  0  0  0  0
 20 19  1  0  0  0  0
 21 23  2  0  0  0  0
 21 19  1  0  0  0  0
 22 21  1  0  0  0  0
 23 25  1  0  0  0  0
 24 23  1  0  0  0  0
 25 26  1  0  0  0  0
 25 27  2  0  0  0  0
 27 28  1  0  0  0  0
 29 37  1  0  0  0  0
 30 31  1  0  0  0  0
 30 29  2  0  0  0  0
 31 33  2  0  0  0  0
 32 31  1  0  0  0  0
 33 34  1  0  0  0  0
 33 35  1  0  0  0  0
 35 36  1  0  0  0  0
 37 35  2  0  0  0  0
 37 38  1  0  0  0  0
 39 30  1  0  0  0  0
 40 39  1  0  0  0  0
 40 41  1  0  0  0  0
 42 40  2  0  0  0  0
 43 42  1  0  0  0  0
 44 46  2  0  0  0  0
 44 42  1  0  0  0  0
 45 44  1  0  0  0  0
 46 48  1  0  0  0  0
 47 46  1  0  0  0  0
 48 49  1  0  0  0  0
 48 39  2  0  0  0  0
 50 51  1  0  0  0  0
 50 53  1  0  0  0  0
 50 52  1  0  0  0  0
 54 56  1  0  0  0  0
 54 55  1  0  0  0  0
 57 54  1  0  0  0  0
M  END
