1
 OpenBabel05122313113D

 18 17  0  0  0  0  0  0  0  0999 V2000
   -0.7375    2.9537    0.0050 C   0  0  0  0  0  3  0  0  0  0  0  0
    0.7375    2.9537   -0.0051 C   0  0  0  0  0  3  0  0  0  0  0  0
   -1.4869    3.3682    1.2639 C   0  0  0  0  0  0  0  0  0  0  0  0
   -1.5024    3.3567   -1.2483 C   0  0  0  0  0  0  0  0  0  0  0  0
    1.5024    3.3567    1.2482 C   0  0  0  0  0  0  0  0  0  0  0  0
    1.4870    3.3682   -1.2641 C   0  0  0  0  0  0  0  0  0  0  0  0
   -2.5398    3.0186    1.2222 H   0  0  0  0  0  0  0  0  0  0  0  0
   -1.0427    2.9622    2.1922 H   0  0  0  0  0  0  0  0  0  0  0  0
   -1.5188    4.4798    1.3662 H   0  0  0  0  0  0  0  0  0  0  0  0
   -2.5381    2.9574   -1.2172 H   0  0  0  0  0  0  0  0  0  0  0  0
   -1.5829    4.4675   -1.3317 H   0  0  0  0  0  0  0  0  0  0  0  0
   -1.0359    2.9890   -2.1816 H   0  0  0  0  0  0  0  0  0  0  0  0
    2.5381    2.9575    1.2171 H   0  0  0  0  0  0  0  0  0  0  0  0
    1.5829    4.4675    1.3315 H   0  0  0  0  0  0  0  0  0  0  0  0
    1.0359    2.9890    2.1815 H   0  0  0  0  0  0  0  0  0  0  0  0
    2.5398    3.0186   -1.2224 H   0  0  0  0  0  0  0  0  0  0  0  0
    1.0427    2.9622   -2.1924 H   0  0  0  0  0  0  0  0  0  0  0  0
    1.5189    4.4798   -1.3663 H   0  0  0  0  0  0  0  0  0  0  0  0
  1  3  1  0  0  0  0
  2  1  1  0  0  0  0
  2  5  1  0  0  0  0
  3  9  1  0  0  0  0
  3  8  1  0  0  0  0
  4 10  1  0  0  0  0
  4  1  1  0  0  0  0
  5 14  1  0  0  0  0
  5 15  1  0  0  0  0
  6 16  1  0  0  0  0
  6  2  1  0  0  0  0
  7  3  1  0  0  0  0
 11  4  1  0  0  0  0
 12  4  1  0  0  0  0
 13  5  1  0  0  0  0
 17  6  1  0  0  0  0
 18  6  1  0  0  0  0
M  END
