9
 OpenBabel05122313113D

 46 48  0  0  1  0  0  0  0  0999 V2000
    5.8301   -1.2981    0.3509 Cl  0  0  0  0  0  0  0  0  0  0  0  0
   -3.5026    0.5423   -1.8641 O   0  0  0  0  0  0  0  0  0  0  0  0
   -3.4218   -1.7178   -1.8062 O   0  0  0  0  0  0  0  0  0  0  0  0
   -5.1148   -0.8011    0.6320 O   0  0  0  0  0  0  0  0  0  0  0  0
   -3.6705   -0.5183    2.3548 O   0  0  0  0  0  0  0  0  0  0  0  0
    0.9581    2.1320   -2.2175 C   0  0  0  0  0  3  0  0  0  0  0  0
   -0.0442    2.3024   -2.6405 H   0  0  0  0  0  0  0  0  0  0  0  0
    1.7709    2.6382   -2.7605 H   0  0  0  0  0  0  0  0  0  0  0  0
    1.2701    0.8988   -1.5552 C   0  0  0  0  0  3  0  0  0  0  0  0
    2.2593    0.4259   -1.6425 H   0  0  0  0  0  0  0  0  0  0  0  0
    0.3129    0.3785   -0.6297 C   0  0  1  0  0  3  0  0  0  0  0  0
   -0.9002    1.1417   -0.4984 C   0  0  0  0  0  3  0  0  0  0  0  0
   -1.3259    1.5745   -1.4157 H   0  0  0  0  0  0  0  0  0  0  0  0
   -1.9612    0.7685    0.5111 C   0  0  0  0  0  0  0  0  0  0  0  0
   -2.7050    1.5880    0.5486 H   0  0  0  0  0  0  0  0  0  0  0  0
   -1.5540    0.6620    1.5348 H   0  0  0  0  0  0  0  0  0  0  0  0
   -2.7173   -0.5576    0.1700 C   0  0  0  0  0  0  0  0  0  0  0  0
   -1.8879   -1.8409    0.4549 C   0  0  0  0  0  0  0  0  0  0  0  0
   -1.7120   -1.8846    1.5504 H   0  0  0  0  0  0  0  0  0  0  0  0
   -2.5174   -2.7147    0.1931 H   0  0  0  0  0  0  0  0  0  0  0  0
   -0.5407   -1.9599   -0.2606 C   0  0  2  0  0  0  0  0  0  0  0  0
   -0.6960   -1.8392   -1.3546 H   0  0  0  0  0  0  0  0  0  0  0  0
    0.1606   -3.3217   -0.0282 C   0  0  0  0  0  0  0  0  0  0  0  0
   -0.1264   -3.7414    0.9634 H   0  0  0  0  0  0  0  0  0  0  0  0
   -0.1241   -4.0812   -0.7847 H   0  0  0  0  0  0  0  0  0  0  0  0
    1.6330   -2.9873   -0.0283 C   0  0  0  0  0  0  0  0  0  0  0  0
    2.7370   -3.8492   -0.0855 C   0  0  0  0  0  0  0  0  0  0  0  0
    2.5968   -4.9344   -0.2076 H   0  0  0  0  0  0  0  0  0  0  0  0
    4.0355   -3.3251    0.0181 C   0  0  0  0  0  0  0  0  0  0  0  0
    4.9164   -3.9801   -0.0325 H   0  0  0  0  0  0  0  0  0  0  0  0
    4.2130   -1.9421    0.2009 C   0  0  0  0  0  0  0  0  0  0  0  0
    3.1169   -1.0641    0.2650 C   0  0  0  0  0  0  0  0  0  0  0  0
    3.2811    0.0103    0.4271 H   0  0  0  0  0  0  0  0  0  0  0  0
    1.8288   -1.5991    0.1240 C   0  0  0  0  0  0  0  0  0  0  0  0
    0.4978   -0.8823    0.1875 C   0  0  1  0  0  0  0  0  0  0  0  0
    0.2958   -0.6310    1.2531 H   0  0  0  0  0  0  0  0  0  0  0  0
   -3.2479   -0.4892   -1.2735 C   0  0  0  0  0  0  0  0  0  0  0  0
   -4.0261   -1.7397   -3.1065 C   0  0  0  0  0  0  0  0  0  0  0  0
   -5.0563   -1.3342   -3.0565 H   0  0  0  0  0  0  0  0  0  0  0  0
   -4.0425   -2.7986   -3.4191 H   0  0  0  0  0  0  0  0  0  0  0  0
   -3.4417   -1.1278   -3.8221 H   0  0  0  0  0  0  0  0  0  0  0  0
   -3.9826   -0.6401    1.0446 C   0  0  0  0  0  0  0  0  0  0  0  0
   -4.7802   -0.5811    3.2624 C   0  0  0  0  0  0  0  0  0  0  0  0
   -5.5096    0.2241    3.0440 H   0  0  0  0  0  0  0  0  0  0  0  0
   -4.3546   -0.4553    4.2734 H   0  0  0  0  0  0  0  0  0  0  0  0
   -5.3012   -1.5557    3.1774 H   0  0  0  0  0  0  0  0  0  0  0  0
  2 37  2  0  0  0  0
  3 37  1  0  0  0  0
  4 42  2  0  0  0  0
  5 43  1  0  0  0  0
  6  9  1  0  0  0  0
  7  6  1  0  0  0  0
  8  6  1  0  0  0  0
 10  9  1  0  0  0  0
 11  9  1  6  0  0  0
 11 12  1  0  0  0  0
 11 35  1  0  0  0  0
 12 14  1  0  0  0  0
 13 12  1  0  0  0  0
 14 15  1  0  0  0  0
 14 16  1  0  0  0  0
 17 18  1  0  0  0  0
 17 14  1  0  0  0  0
 17 42  1  0  0  0  0
 18 19  1  0  0  0  0
 20 18  1  0  0  0  0
 21 22  1  6  0  0  0
 21 23  1  0  0  0  0
 21 35  1  0  0  0  0
 21 18  1  0  0  0  0
 23 24  1  0  0  0  0
 25 23  1  0  0  0  0
 26 23  1  0  0  0  0
 26 34  1  0  0  0  0
 27 26  2  0  0  0  0
 27 29  1  0  0  0  0
 28 27  1  0  0  0  0
 29 31  2  0  0  0  0
 30 29  1  0  0  0  0
 31 32  1  0  0  0  0
 31  1  1  0  0  0  0
 32 33  1  0  0  0  0
 34 35  1  0  0  0  0
 34 32  2  0  0  0  0
 35 36  1  1  0  0  0
 37 17  1  0  0  0  0
 38 39  1  0  0  0  0
 38  3  1  0  0  0  0
 40 38  1  0  0  0  0
 41 38  1  0  0  0  0
 42  5  1  0  0  0  0
 43 45  1  0  0  0  0
 44 43  1  0  0  0  0
 46 43  1  0  0  0  0
M  END
