8
 OpenBabel05122313113D

 21 21  0  0  1  0  0  0  0  0999 V2000
   -5.2204    0.1689   -1.3508 O   0  0  0  0  0  0  0  0  0  0  0  0
   -4.9796   -1.5979    0.0449 O   0  0  0  0  0  0  0  0  0  0  0  0
   -3.6437    0.2971    0.4804 C   0  0  2  0  0  3  0  0  0  0  0  0
   -3.0261    1.5516    0.1107 C   0  0  0  0  0  0  0  0  0  0  0  0
   -1.9784    2.0520    0.9345 C   0  0  0  0  0  0  0  0  0  0  0  0
   -1.5046    1.3355    2.0707 C   0  0  0  0  0  0  0  0  0  0  0  0
   -2.1398    0.1335    2.4651 C   0  0  0  0  0  0  0  0  0  0  0  0
   -3.1760   -0.3944    1.6448 C   0  0  0  0  0  3  0  0  0  0  0  0
   -3.4341    2.3514   -1.0982 C   0  0  0  0  0  0  0  0  0  0  0  0
   -4.6800   -0.3427   -0.3836 C   0  0  0  0  0  0  0  0  0  0  0  0
   -5.9368   -2.2995   -0.7529 C   0  0  0  0  0  0  0  0  0  0  0  0
   -1.4653    2.9742    0.6305 H   0  0  0  0  0  0  0  0  0  0  0  0
   -0.6579    1.7322    2.6490 H   0  0  0  0  0  0  0  0  0  0  0  0
   -1.7921   -0.4262    3.3436 H   0  0  0  0  0  0  0  0  0  0  0  0
   -3.6286   -1.3644    1.8839 H   0  0  0  0  0  0  0  0  0  0  0  0
   -3.5178    1.7238   -2.0023 H   0  0  0  0  0  0  0  0  0  0  0  0
   -2.7033    3.1633   -1.2769 H   0  0  0  0  0  0  0  0  0  0  0  0
   -4.4364    2.7982   -0.9410 H   0  0  0  0  0  0  0  0  0  0  0  0
   -6.0723   -3.2843   -0.2718 H   0  0  0  0  0  0  0  0  0  0  0  0
   -5.5664   -2.4254   -1.7904 H   0  0  0  0  0  0  0  0  0  0  0  0
   -6.8989   -1.7497   -0.7938 H   0  0  0  0  0  0  0  0  0  0  0  0
  1 10  2  0  0  0  0
  3 10  1  6  0  0  0
  3  8  1  0  0  0  0
  4  3  1  0  0  0  0
  4  5  2  0  0  0  0
  5  6  1  0  0  0  0
  6  7  2  0  0  0  0
  6 13  1  0  0  0  0
  7 14  1  0  0  0  0
  8 15  1  0  0  0  0
  8  7  1  0  0  0  0
  9 18  1  0  0  0  0
  9  4  1  0  0  0  0
 10  2  1  0  0  0  0
 11 19  1  0  0  0  0
 11  2  1  0  0  0  0
 12  5  1  0  0  0  0
 16  9  1  0  0  0  0
 17  9  1  0  0  0  0
 20 11  1  0  0  0  0
 21 11  1  0  0  0  0
M  END
