4
 OpenBabel05122313113D

 14 14  0  0  1  0  0  0  0  0999 V2000
    2.2002    0.6275   -0.0190 O   0  0  0  0  0  0  0  0  0  0  0  0
    3.2039   -1.3527    0.3465 O   0  0  0  0  0  0  0  0  0  0  0  0
    2.2335   -0.7536   -0.0526 C   0  0  0  0  0  0  0  0  0  0  0  0
    0.3696   -0.6817   -1.7421 C   0  0  0  0  0  3  0  0  0  0  0  0
    0.3548    0.7329   -1.6223 C   0  0  0  0  0  3  0  0  0  0  0  0
    0.9821    1.2150   -0.4135 C   0  0  2  0  0  3  0  0  0  0  0  0
    0.9966   -1.3513   -0.6237 C   0  0  0  0  0  3  0  0  0  0  0  0
    0.9435    2.6547    0.0030 C   0  0  0  0  0  0  0  0  0  0  0  0
   -0.1725    1.3892   -2.3298 H   0  0  0  0  0  0  0  0  0  0  0  0
    0.9581   -2.4479   -0.5611 H   0  0  0  0  0  0  0  0  0  0  0  0
   -0.1039   -1.2147   -2.5792 H   0  0  0  0  0  0  0  0  0  0  0  0
    1.0549    2.7444    1.1007 H   0  0  0  0  0  0  0  0  0  0  0  0
    1.7885    3.2057   -0.4622 H   0  0  0  0  0  0  0  0  0  0  0  0
   -0.0059    3.1343   -0.2987 H   0  0  0  0  0  0  0  0  0  0  0  0
  3  1  1  0  0  0  0
  3  2  2  0  0  0  0
  4  5  1  0  0  0  0
  4  7  1  0  0  0  0
  5  6  1  0  0  0  0
  6  1  1  0  0  0  0
  6  8  1  6  0  0  0
  7 10  1  0  0  0  0
  7  3  1  0  0  0  0
  8 12  1  0  0  0  0
  9  5  1  0  0  0  0
 11  4  1  0  0  0  0
 13  8  1  0  0  0  0
 14  8  1  0  0  0  0
M  END
