12
 OpenBabel05122313113D

 39 41  0  0  0  0  0  0  0  0999 V2000
    2.0867    0.9038   -0.8909 C   0  0  0  0  0  0  0  0  0  0  0  0
    2.6913    0.8157   -2.1701 C   0  0  0  0  0  0  0  0  0  0  0  0
    2.1565    0.2904   -2.9758 H   0  0  0  0  0  0  0  0  0  0  0  0
    3.9428    1.3938   -2.4120 C   0  0  0  0  0  0  0  0  0  0  0  0
    4.3935    1.3173   -3.4133 H   0  0  0  0  0  0  0  0  0  0  0  0
    4.6217    2.0699   -1.3846 C   0  0  0  0  0  0  0  0  0  0  0  0
    5.6088    2.5173   -1.5747 H   0  0  0  0  0  0  0  0  0  0  0  0
    4.0312    2.1743   -0.1151 C   0  0  0  0  0  0  0  0  0  0  0  0
    4.5505    2.7120    0.6930 H   0  0  0  0  0  0  0  0  0  0  0  0
    2.7795    1.5967    0.1326 C   0  0  0  0  0  0  0  0  0  0  0  0
    2.3181    1.6900    1.1260 H   0  0  0  0  0  0  0  0  0  0  0  0
    0.8029    0.2110   -0.6188 C   0  0  0  0  0  3  0  0  0  0  0  0
   -0.4048    0.8124   -0.8595 C   0  0  0  0  0  0  0  0  0  0  0  0
   -1.6605    0.2121   -0.6341 C   0  0  0  0  0  0  0  0  0  0  0  0
   -2.8024   -0.2300   -0.4668 C   0  0  0  0  0  0  0  0  0  0  0  0
   -4.1396   -0.6767   -0.2844 C   0  0  0  0  0  0  0  0  0  0  0  0
   -4.4329   -1.9515    0.2675 C   0  0  0  0  0  0  0  0  0  0  0  0
   -3.6054   -2.6147    0.5611 H   0  0  0  0  0  0  0  0  0  0  0  0
   -5.7593   -2.3628    0.4400 C   0  0  0  0  0  0  0  0  0  0  0  0
   -5.9707   -3.3540    0.8689 H   0  0  0  0  0  0  0  0  0  0  0  0
   -6.8178   -1.5168    0.0684 C   0  0  0  0  0  0  0  0  0  0  0  0
   -7.8595   -1.8437    0.2051 H   0  0  0  0  0  0  0  0  0  0  0  0
   -6.5408   -0.2516   -0.4782 C   0  0  0  0  0  0  0  0  0  0  0  0
   -7.3669    0.4144   -0.7705 H   0  0  0  0  0  0  0  0  0  0  0  0
   -5.2191    0.1700   -0.6553 C   0  0  0  0  0  0  0  0  0  0  0  0
   -4.9889    1.1572   -1.0816 H   0  0  0  0  0  0  0  0  0  0  0  0
   -0.3467    2.6124   -1.4315 P   0  0  1  0  0  0  0  0  0  0  0  0
   -2.3713    2.9460   -1.9578 Cl  0  0  0  0  0  0  0  0  0  0  0  0
   -0.3311    3.3807    0.2578 C   0  0  0  0  0  0  0  0  0  0  0  0
    0.7360    4.2530    0.5495 C   0  0  0  0  0  0  0  0  0  0  0  0
    1.4753    4.4868   -0.2327 H   0  0  0  0  0  0  0  0  0  0  0  0
    0.8680    4.8043    1.8349 C   0  0  0  0  0  0  0  0  0  0  0  0
    1.7062    5.4827    2.0563 H   0  0  0  0  0  0  0  0  0  0  0  0
   -0.0691    4.4925    2.8313 C   0  0  0  0  0  0  0  0  0  0  0  0
    0.0329    4.9244    3.8386 H   0  0  0  0  0  0  0  0  0  0  0  0
   -1.1447    3.6335    2.5403 C   0  0  0  0  0  0  0  0  0  0  0  0
   -1.8852    3.3949    3.3192 H   0  0  0  0  0  0  0  0  0  0  0  0
   -1.2780    3.0795    1.2599 C   0  0  0  0  0  0  0  0  0  0  0  0
   -2.1219    2.4118    1.0277 H   0  0  0  0  0  0  0  0  0  0  0  0
  1 12  1  0  0  0  0
  1 10  1  0  0  0  0
  2  1  2  0  0  0  0
  3  2  1  0  0  0  0
  4  2  1  0  0  0  0
  4  6  2  0  0  0  0
  5  4  1  0  0  0  0
  6  8  1  0  0  0  0
  7  6  1  0  0  0  0
  8 10  2  0  0  0  0
  8  9  1  0  0  0  0
 10 11  1  0  0  0  0
 13 14  1  0  0  0  0
 13 12  2  0  0  0  0
 14 15  3  0  0  0  0
 15 16  1  0  0  0  0
 16 17  1  0  0  0  0
 17 19  2  0  0  0  0
 17 18  1  0  0  0  0
 19 20  1  0  0  0  0
 21 22  1  0  0  0  0
 21 19  1  0  0  0  0
 23 21  2  0  0  0  0
 24 23  1  0  0  0  0
 25 23  1  0  0  0  0
 25 16  2  0  0  0  0
 26 25  1  0  0  0  0
 27 28  1  6  0  0  0
 27 13  1  0  0  0  0
 27 29  1  0  0  0  0
 29 30  2  0  0  0  0
 29 38  1  0  0  0  0
 30 32  1  0  0  0  0
 31 30  1  0  0  0  0
 32 33  1  0  0  0  0
 32 34  2  0  0  0  0
 34 35  1  0  0  0  0
 36 34  1  0  0  0  0
 36 37  1  0  0  0  0
 38 36  2  0  0  0  0
 39 38  1  0  0  0  0
M  END
