6
 OpenBabel05122313113D

 48 52  0  0  1  0  0  0  0  0999 V2000
   -0.6645   -1.6985   -2.5117 O   0  0  0  0  0  0  0  0  0  0  0  0
   -2.7401   -1.9678   -0.8083 O   0  0  0  0  0  0  0  0  0  0  0  0
   -2.9759    0.7037   -0.6936 O   0  0  0  0  0  0  0  0  0  0  0  0
   -0.0882    0.4683    1.5180 O   0  0  0  0  0  0  0  0  0  0  0  0
    0.9395    2.2451   -0.3320 O   0  0  0  0  0  0  0  0  0  0  0  0
    0.3536    0.1296   -1.3565 C   0  0  0  0  0  3  0  0  0  0  0  0
    0.8023    0.3243   -2.3502 H   0  0  0  0  0  0  0  0  0  0  0  0
   -0.6378   -0.9892   -1.5152 C   0  0  0  0  0  0  0  0  0  0  0  0
   -1.5978   -1.2612   -0.3294 C   0  0  1  0  0  0  0  0  0  0  0  0
   -2.1372    0.0713    0.2874 C   0  0  1  0  0  0  0  0  0  0  0  0
   -0.9932    1.0955    0.5781 C   0  0  2  0  0  0  0  0  0  0  0  0
   -0.1941    1.4200   -0.7267 C   0  0  1  0  0  0  0  0  0  0  0  0
   -0.8897   -2.2374    0.6805 C   0  0  0  0  0  0  0  0  0  0  0  0
    0.1380   -2.4728    0.3361 H   0  0  0  0  0  0  0  0  0  0  0  0
   -0.7904   -1.7803    1.6799 H   0  0  0  0  0  0  0  0  0  0  0  0
   -1.7659   -3.5033    0.6565 C   0  0  0  0  0  0  0  0  0  0  0  0
   -1.1719   -4.4349    0.7337 H   0  0  0  0  0  0  0  0  0  0  0  0
   -2.4903   -3.4954    1.4969 H   0  0  0  0  0  0  0  0  0  0  0  0
   -2.5022   -3.3676   -0.6773 C   0  0  0  0  0  0  0  0  0  0  0  0
   -1.8806   -3.7306   -1.5258 H   0  0  0  0  0  0  0  0  0  0  0  0
   -3.4850   -3.8795   -0.7069 H   0  0  0  0  0  0  0  0  0  0  0  0
   -3.0576   -0.2187    1.5066 C   0  0  0  0  0  0  0  0  0  0  0  0
   -3.1978   -1.3101    1.6096 H   0  0  0  0  0  0  0  0  0  0  0  0
   -2.6212    0.1472    2.4530 H   0  0  0  0  0  0  0  0  0  0  0  0
   -4.3980    0.4475    1.1515 C   0  0  0  0  0  0  0  0  0  0  0  0
   -5.2707   -0.1121    1.5419 H   0  0  0  0  0  0  0  0  0  0  0  0
   -4.4542    1.4785    1.5579 H   0  0  0  0  0  0  0  0  0  0  0  0
   -4.3497    0.4756   -0.3778 C   0  0  0  0  0  0  0  0  0  0  0  0
   -4.6855   -0.4919   -0.8094 H   0  0  0  0  0  0  0  0  0  0  0  0
   -4.9375    1.2996   -0.8311 H   0  0  0  0  0  0  0  0  0  0  0  0
   -1.4772    2.3909    1.2833 C   0  0  0  0  0  0  0  0  0  0  0  0
   -1.0363    3.2718    0.7804 H   0  0  0  0  0  0  0  0  0  0  0  0
   -2.5747    2.5008    1.2289 H   0  0  0  0  0  0  0  0  0  0  0  0
   -0.9364    2.2912    2.7186 C   0  0  0  0  0  0  0  0  0  0  0  0
   -0.6899    3.2794    3.1538 H   0  0  0  0  0  0  0  0  0  0  0  0
   -1.6689    1.8016    3.3925 H   0  0  0  0  0  0  0  0  0  0  0  0
    0.2940    1.4077    2.5333 C   0  0  0  0  0  0  0  0  0  0  0  0
    1.1681    2.0031    2.1901 H   0  0  0  0  0  0  0  0  0  0  0  0
    0.5825    0.8248    3.4304 H   0  0  0  0  0  0  0  0  0  0  0  0
   -0.9398    2.2681   -1.7858 C   0  0  0  0  0  0  0  0  0  0  0  0
   -1.4790    1.6362   -2.5129 H   0  0  0  0  0  0  0  0  0  0  0  0
   -1.6956    2.9139   -1.2996 H   0  0  0  0  0  0  0  0  0  0  0  0
    0.1861    3.1139   -2.3928 C   0  0  0  0  0  0  0  0  0  0  0  0
    0.7629    2.5292   -3.1387 H   0  0  0  0  0  0  0  0  0  0  0  0
   -0.1806    4.0304   -2.8946 H   0  0  0  0  0  0  0  0  0  0  0  0
    1.0434    3.4078   -1.1636 C   0  0  0  0  0  0  0  0  0  0  0  0
    2.1154    3.5807   -1.3912 H   0  0  0  0  0  0  0  0  0  0  0  0
    0.6624    4.3020   -0.6139 H   0  0  0  0  0  0  0  0  0  0  0  0
  1  8  2  0  0  0  0
  2 19  1  0  0  0  0
  2  9  1  0  0  0  0
  3 28  1  0  0  0  0
  4 37  1  0  0  0  0
  7  6  1  0  0  0  0
  8  6  1  0  0  0  0
  9  8  1  6  0  0  0
  9 10  1  0  0  0  0
  9 13  1  0  0  0  0
 10  3  1  6  0  0  0
 10 11  1  0  0  0  0
 10 22  1  0  0  0  0
 11 31  1  0  0  0  0
 11  4  1  1  0  0  0
 12  6  1  6  0  0  0
 12  5  1  0  0  0  0
 12 11  1  0  0  0  0
 13 15  1  0  0  0  0
 14 13  1  0  0  0  0
 16 13  1  0  0  0  0
 16 17  1  0  0  0  0
 16 18  1  0  0  0  0
 19 16  1  0  0  0  0
 20 19  1  0  0  0  0
 21 19  1  0  0  0  0
 22 23  1  0  0  0  0
 22 24  1  0  0  0  0
 25 22  1  0  0  0  0
 25 26  1  0  0  0  0
 25 27  1  0  0  0  0
 28 25  1  0  0  0  0
 29 28  1  0  0  0  0
 30 28  1  0  0  0  0
 31 34  1  0  0  0  0
 32 31  1  0  0  0  0
 33 31  1  0  0  0  0
 34 35  1  0  0  0  0
 34 36  1  0  0  0  0
 37 34  1  0  0  0  0
 37 39  1  0  0  0  0
 38 37  1  0  0  0  0
 40 42  1  0  0  0  0
 40 12  1  0  0  0  0
 41 40  1  0  0  0  0
 43 40  1  0  0  0  0
 43 46  1  0  0  0  0
 44 43  1  0  0  0  0
 45 43  1  0  0  0  0
 46 48  1  0  0  0  0
 46  5  1  0  0  0  0
 47 46  1  0  0  0  0
M  END
