5
 OpenBabel05122313113D

 45 47  0  0  0  0  0  0  0  0999 V2000
   -3.9159   -2.2415    1.9614 O   0  0  0  0  0  0  0  0  0  0  0  0
    4.3039   -1.8833   -1.3718 O   0  0  0  0  0  0  0  0  0  0  0  0
   -0.3417   -1.8332   -0.1456 N   0  0  0  0  0  0  0  0  0  0  0  0
    1.2623   -1.1511   -1.4321 N   0  0  0  0  0  0  0  0  0  0  0  0
    0.2577   -0.6996   -0.6195 C   0  0  0  0  0  2  0  0  0  0  0  0
    0.2777   -2.9689   -0.6522 C   0  0  0  0  0  0  0  0  0  0  0  0
   -0.0503   -3.9780   -0.3866 H   0  0  0  0  0  0  0  0  0  0  0  0
    1.2985   -2.5379   -1.4598 C   0  0  0  0  0  0  0  0  0  0  0  0
    2.0702   -3.0809   -2.0111 H   0  0  0  0  0  0  0  0  0  0  0  0
   -1.4928   -1.8397    0.7572 C   0  0  0  0  0  0  0  0  0  0  0  0
   -1.2375   -1.2445    1.6561 H   0  0  0  0  0  0  0  0  0  0  0  0
   -1.6629   -2.8789    1.0941 H   0  0  0  0  0  0  0  0  0  0  0  0
   -2.7542   -1.2818    0.1033 C   0  0  0  0  0  0  0  0  0  0  0  0
   -2.6221   -0.1967   -0.0992 H   0  0  0  0  0  0  0  0  0  0  0  0
   -2.9221   -1.7550   -0.8897 H   0  0  0  0  0  0  0  0  0  0  0  0
   -3.9857   -1.5213    0.9679 C   0  0  0  0  0  0  0  0  0  0  0  0
   -5.2761   -0.8771    0.5623 C   0  0  0  0  0  0  0  0  0  0  0  0
   -6.4276   -1.1748    1.3238 C   0  0  0  0  0  0  0  0  0  0  0  0
   -6.3147   -1.8613    2.1760 H   0  0  0  0  0  0  0  0  0  0  0  0
   -7.6618   -0.6065    0.9940 C   0  0  0  0  0  0  0  0  0  0  0  0
   -8.5548   -0.8429    1.5923 H   0  0  0  0  0  0  0  0  0  0  0  0
   -7.7603    0.2701   -0.1013 C   0  0  0  0  0  0  0  0  0  0  0  0
   -8.7305    0.7211   -0.3602 H   0  0  0  0  0  0  0  0  0  0  0  0
   -6.6209    0.5751   -0.8631 C   0  0  0  0  0  0  0  0  0  0  0  0
   -6.6955    1.2668   -1.7155 H   0  0  0  0  0  0  0  0  0  0  0  0
   -5.3832    0.0049   -0.5348 C   0  0  0  0  0  0  0  0  0  0  0  0
   -4.4980    0.2624   -1.1341 H   0  0  0  0  0  0  0  0  0  0  0  0
    2.1919   -0.2594   -2.1291 C   0  0  0  0  0  0  0  0  0  0  0  0
    1.5972    0.5801   -2.5361 H   0  0  0  0  0  0  0  0  0  0  0  0
    2.6382   -0.8291   -2.9650 H   0  0  0  0  0  0  0  0  0  0  0  0
    3.2826    0.2773   -1.2069 C   0  0  0  0  0  0  0  0  0  0  0  0
    2.8156    0.7191   -0.3004 H   0  0  0  0  0  0  0  0  0  0  0  0
    3.8073    1.1210   -1.7064 H   0  0  0  0  0  0  0  0  0  0  0  0
    4.3187   -0.7773   -0.8322 C   0  0  0  0  0  0  0  0  0  0  0  0
    5.3584   -0.4274    0.1856 C   0  0  0  0  0  0  0  0  0  0  0  0
    6.3385   -1.3983    0.4895 C   0  0  0  0  0  0  0  0  0  0  0  0
    6.2853   -2.3627   -0.0370 H   0  0  0  0  0  0  0  0  0  0  0  0
    7.3362   -1.1278    1.4307 C   0  0  0  0  0  0  0  0  0  0  0  0
    8.0962   -1.8893    1.6626 H   0  0  0  0  0  0  0  0  0  0  0  0
    7.3672    0.1186    2.0817 C   0  0  0  0  0  0  0  0  0  0  0  0
    8.1513    0.3326    2.8240 H   0  0  0  0  0  0  0  0  0  0  0  0
    6.3976    1.0907    1.7876 C   0  0  0  0  0  0  0  0  0  0  0  0
    6.4196    2.0648    2.2987 H   0  0  0  0  0  0  0  0  0  0  0  0
    5.3965    0.8214    0.8443 C   0  0  0  0  0  0  0  0  0  0  0  0
    4.6414    1.5912    0.6296 H   0  0  0  0  0  0  0  0  0  0  0  0
  2 34  2  0  0  0  0
  3 10  1  0  0  0  0
  4  5  1  0  0  0  0
  5  3  1  0  0  0  0
  6  7  1  0  0  0  0
  6  3  1  0  0  0  0
  8  4  1  0  0  0  0
  8  6  2  0  0  0  0
  9  8  1  0  0  0  0
 10 12  1  0  0  0  0
 10 11  1  0  0  0  0
 13 10  1  0  0  0  0
 13 16  1  0  0  0  0
 14 13  1  0  0  0  0
 15 13  1  0  0  0  0
 16  1  2  0  0  0  0
 17 16  1  0  0  0  0
 17 18  1  0  0  0  0
 18 19  1  0  0  0  0
 20 18  2  0  0  0  0
 20 21  1  0  0  0  0
 22 20  1  0  0  0  0
 23 22  1  0  0  0  0
 24 26  1  0  0  0  0
 24 22  2  0  0  0  0
 25 24  1  0  0  0  0
 26 17  2  0  0  0  0
 27 26  1  0  0  0  0
 28  4  1  0  0  0  0
 28 31  1  0  0  0  0
 29 28  1  0  0  0  0
 30 28  1  0  0  0  0
 31 34  1  0  0  0  0
 31 32  1  0  0  0  0
 33 31  1  0  0  0  0
 34 35  1  0  0  0  0
 35 36  2  0  0  0  0
 35 44  1  0  0  0  0
 36 38  1  0  0  0  0
 37 36  1  0  0  0  0
 38 39  1  0  0  0  0
 38 40  2  0  0  0  0
 40 41  1  0  0  0  0
 42 40  1  0  0  0  0
 42 43  1  0  0  0  0
 44 42  2  0  0  0  0
 45 44  1  0  0  0  0
M  END
