5
 OpenBabel05122313113D

 15 15  0  0  0  0  0  0  0  0999 V2000
   -1.6066   -2.1233   -0.4315 P   0  0  0  0  0  0  0  0  0  0  0  0
   -2.2966   -1.0125    0.7840 C   0  0  0  0  0  0  0  0  0  0  0  0
   -2.5302    0.2936    0.3263 C   0  0  0  0  0  0  0  0  0  0  0  0
   -2.0975    0.4579   -1.0499 C   0  0  0  0  0  0  0  0  0  0  0  0
   -1.5777   -0.7393   -1.5746 C   0  0  0  0  0  3  0  0  0  0  0  0
   -3.1859    1.3785    1.1200 C   0  0  0  0  0  0  0  0  0  0  0  0
   -2.2516    1.7403   -1.8106 C   0  0  0  0  0  0  0  0  0  0  0  0
   -2.4892   -1.3139    1.8224 H   0  0  0  0  0  0  0  0  0  0  0  0
   -4.1555    1.6620    0.6582 H   0  0  0  0  0  0  0  0  0  0  0  0
   -3.3758    1.0545    2.1600 H   0  0  0  0  0  0  0  0  0  0  0  0
   -2.5440    2.2830    1.1475 H   0  0  0  0  0  0  0  0  0  0  0  0
   -3.3276    1.9779   -1.9505 H   0  0  0  0  0  0  0  0  0  0  0  0
   -1.7920    2.5815   -1.2540 H   0  0  0  0  0  0  0  0  0  0  0  0
   -1.7826    1.6777   -2.8108 H   0  0  0  0  0  0  0  0  0  0  0  0
   -1.2202   -0.8198   -2.6102 H   0  0  0  0  0  0  0  0  0  0  0  0
  1  2  2  0  0  0  0
  2  8  1  0  0  0  0
  3  2  1  0  0  0  0
  3  6  1  0  0  0  0
  4  3  2  0  0  0  0
  5  4  1  0  0  0  0
  5  1  1  0  0  0  0
  6 11  1  0  0  0  0
  6 10  1  0  0  0  0
  7 13  1  0  0  0  0
  7  4  1  0  0  0  0
  9  6  1  0  0  0  0
 12  7  1  0  0  0  0
 14  7  1  0  0  0  0
 15  5  1  0  0  0  0
M  END
