6
 OpenBabel05122313113D

 32 32  0  0  1  0  0  0  0  0999 V2000
    2.1691   -2.2496   -0.0852 Si  0  0  0  0  0  0  0  0  0  0  0  0
    2.1689    2.2496   -0.0852 Si  0  0  0  0  0  0  0  0  0  0  0  0
    1.2621   -0.7622   -0.8097 C   0  0  0  0  0  0  0  0  0  0  0  0
    0.3103   -0.7307   -1.9091 C   0  0  0  0  0  0  0  0  0  0  0  0
   -0.1334   -1.5116   -2.5423 H   0  0  0  0  0  0  0  0  0  0  0  0
    0.3102    0.7305   -1.9091 C   0  0  0  0  0  3  0  0  0  0  0  0
   -0.1336    1.5112   -2.5423 H   0  0  0  0  0  0  0  0  0  0  0  0
    1.2620    0.7622   -0.8097 C   0  0  2  0  0  3  0  0  0  0  0  0
    3.4529   -1.8037    1.2199 C   0  0  0  0  0  0  0  0  0  0  0  0
    3.9386   -2.7298    1.5920 H   0  0  0  0  0  0  0  0  0  0  0  0
    2.9703   -1.2847    2.0698 H   0  0  0  0  0  0  0  0  0  0  0  0
    4.2442   -1.1462    0.8085 H   0  0  0  0  0  0  0  0  0  0  0  0
    3.0444   -3.0973   -1.5450 C   0  0  0  0  0  0  0  0  0  0  0  0
    2.3207   -3.3919   -2.3330 H   0  0  0  0  0  0  0  0  0  0  0  0
    3.5752   -4.0139   -1.2127 H   0  0  0  0  0  0  0  0  0  0  0  0
    3.7916   -2.4211   -2.0093 H   0  0  0  0  0  0  0  0  0  0  0  0
    0.8774   -3.4349    0.6259 C   0  0  0  0  0  0  0  0  0  0  0  0
    0.1240   -3.7024   -0.1426 H   0  0  0  0  0  0  0  0  0  0  0  0
    0.3566   -2.9390    1.4686 H   0  0  0  0  0  0  0  0  0  0  0  0
    1.3475   -4.3721    0.9889 H   0  0  0  0  0  0  0  0  0  0  0  0
    3.4528    1.8037    1.2199 C   0  0  0  0  0  0  0  0  0  0  0  0
    4.2437    1.1457    0.8086 H   0  0  0  0  0  0  0  0  0  0  0  0
    2.9700    1.2852    2.0700 H   0  0  0  0  0  0  0  0  0  0  0  0
    3.9389    2.7298    1.5915 H   0  0  0  0  0  0  0  0  0  0  0  0
    3.0440    3.0974   -1.5450 C   0  0  0  0  0  0  0  0  0  0  0  0
    3.7913    2.4214   -2.0094 H   0  0  0  0  0  0  0  0  0  0  0  0
    3.5748    4.0141   -1.2126 H   0  0  0  0  0  0  0  0  0  0  0  0
    2.3203    3.3921   -2.3329 H   0  0  0  0  0  0  0  0  0  0  0  0
    0.8773    3.4348    0.6262 C   0  0  0  0  0  0  0  0  0  0  0  0
    0.1241    3.7029   -0.1423 H   0  0  0  0  0  0  0  0  0  0  0  0
    1.3477    4.3716    0.9897 H   0  0  0  0  0  0  0  0  0  0  0  0
    0.3563    2.9386    1.4686 H   0  0  0  0  0  0  0  0  0  0  0  0
  1 17  1  0  0  0  0
  1  9  1  0  0  0  0
  2 29  1  0  0  0  0
  2 21  1  0  0  0  0
  3  8  1  0  0  0  0
  3  1  1  0  0  0  0
  4  6  1  0  0  0  0
  4  3  2  0  0  0  0
  5  4  1  0  0  0  0
  6  8  1  0  0  0  0
  7  6  1  0  0  0  0
  8  2  1  6  0  0  0
  9 10  1  0  0  0  0
  9 11  1  0  0  0  0
 12  9  1  0  0  0  0
 13 15  1  0  0  0  0
 13  1  1  0  0  0  0
 14 13  1  0  0  0  0
 16 13  1  0  0  0  0
 17 20  1  0  0  0  0
 17 19  1  0  0  0  0
 18 17  1  0  0  0  0
 21 24  1  0  0  0  0
 21 23  1  0  0  0  0
 22 21  1  0  0  0  0
 25 27  1  0  0  0  0
 25  2  1  0  0  0  0
 26 25  1  0  0  0  0
 28 25  1  0  0  0  0
 29 31  1  0  0  0  0
 29 32  1  0  0  0  0
 30 29  1  0  0  0  0
M  END
