7
 OpenBabel05122313113D

 53 53  0  0  1  0  0  0  0  0999 V2000
    0.3033    0.1760   -3.4785 O   0  0  0  0  0  0  0  0  0  0  0  0
   -0.8748   -1.1347   -0.3272 C   0  0  1  0  0  3  0  0  0  0  0  0
   -1.0963   -0.3187   -1.5343 C   0  0  1  0  0  3  0  0  0  0  0  0
    0.1527   -0.3872   -2.2780 C   0  0  0  0  0  0  0  0  0  0  0  0
    1.1494   -1.0739   -1.5394 C   0  0  0  0  0  0  0  0  0  0  0  0
    2.1800   -1.2515   -1.8525 H   0  0  0  0  0  0  0  0  0  0  0  0
    0.5372   -1.5927   -0.3338 C   0  0  2  0  0  3  0  0  0  0  0  0
   -1.9073   -1.3617    0.7689 C   0  0  0  0  0  0  0  0  0  0  0  0
   -2.5545   -0.4712    0.7570 H   0  0  0  0  0  0  0  0  0  0  0  0
   -1.3845   -1.3025    1.7415 H   0  0  0  0  0  0  0  0  0  0  0  0
   -2.8571   -2.6262    0.8159 C   0  0  0  0  0  0  0  0  0  0  0  0
   -3.0152   -3.3067   -0.5540 C   0  0  0  0  0  0  0  0  0  0  0  0
   -3.4845   -2.6350   -1.2973 H   0  0  0  0  0  0  0  0  0  0  0  0
   -3.6588   -4.2061   -0.4668 H   0  0  0  0  0  0  0  0  0  0  0  0
   -2.0396   -3.6263   -0.9709 H   0  0  0  0  0  0  0  0  0  0  0  0
   -4.2364   -2.1475    1.3220 C   0  0  0  0  0  0  0  0  0  0  0  0
   -4.7137   -1.4293    0.6281 H   0  0  0  0  0  0  0  0  0  0  0  0
   -4.1399   -1.6428    2.3057 H   0  0  0  0  0  0  0  0  0  0  0  0
   -4.9269   -3.0063    1.4497 H   0  0  0  0  0  0  0  0  0  0  0  0
   -2.3701   -3.6664    1.8470 C   0  0  0  0  0  0  0  0  0  0  0  0
   -3.1083   -4.4902    1.9329 H   0  0  0  0  0  0  0  0  0  0  0  0
   -2.2657   -3.2087    2.8526 H   0  0  0  0  0  0  0  0  0  0  0  0
   -1.4002   -4.1236    1.5840 H   0  0  0  0  0  0  0  0  0  0  0  0
   -2.3662    0.2323   -2.2188 C   0  0  0  0  0  0  0  0  0  0  0  0
   -2.6716   -0.6989   -3.4218 C   0  0  0  0  0  0  0  0  0  0  0  0
   -1.8478   -0.6874   -4.1601 H   0  0  0  0  0  0  0  0  0  0  0  0
   -3.5954   -0.3610   -3.9351 H   0  0  0  0  0  0  0  0  0  0  0  0
   -2.8266   -1.7456   -3.0929 H   0  0  0  0  0  0  0  0  0  0  0  0
   -2.1454    1.6689   -2.7471 C   0  0  0  0  0  0  0  0  0  0  0  0
   -1.9954    2.3736   -1.9113 H   0  0  0  0  0  0  0  0  0  0  0  0
   -3.0458    1.9861   -3.3124 H   0  0  0  0  0  0  0  0  0  0  0  0
   -1.2681    1.7479   -3.4097 H   0  0  0  0  0  0  0  0  0  0  0  0
   -3.6182    0.2822   -1.3291 C   0  0  0  0  0  0  0  0  0  0  0  0
   -3.9578   -0.7205   -1.0203 H   0  0  0  0  0  0  0  0  0  0  0  0
   -4.4440    0.7396   -1.9105 H   0  0  0  0  0  0  0  0  0  0  0  0
   -3.4697    0.9047   -0.4281 H   0  0  0  0  0  0  0  0  0  0  0  0
    1.2565   -2.6650    0.5030 C   0  0  0  0  0  0  0  0  0  0  0  0
    0.7559   -4.0393   -0.0015 C   0  0  0  0  0  0  0  0  0  0  0  0
   -0.3392   -4.1464    0.0753 H   0  0  0  0  0  0  0  0  0  0  0  0
    1.2257   -4.8578    0.5819 H   0  0  0  0  0  0  0  0  0  0  0  0
    1.0278   -4.1791   -1.0672 H   0  0  0  0  0  0  0  0  0  0  0  0
    2.7803   -2.6425    0.2591 C   0  0  0  0  0  0  0  0  0  0  0  0
    3.0382   -2.8727   -0.7931 H   0  0  0  0  0  0  0  0  0  0  0  0
    3.2568   -3.4227    0.8857 H   0  0  0  0  0  0  0  0  0  0  0  0
    3.2351   -1.6738    0.5259 H   0  0  0  0  0  0  0  0  0  0  0  0
    1.0321   -2.4986    2.0181 C   0  0  0  0  0  0  0  0  0  0  0  0
    1.3893   -1.5058    2.3554 H   0  0  0  0  0  0  0  0  0  0  0  0
    1.6007   -3.2744    2.5696 H   0  0  0  0  0  0  0  0  0  0  0  0
   -0.0258   -2.5994    2.3109 H   0  0  0  0  0  0  0  0  0  0  0  0
    1.6196    0.2234   -4.0278 C   0  0  0  0  0  0  0  0  0  0  0  0
    2.0237   -0.7993   -4.1856 H   0  0  0  0  0  0  0  0  0  0  0  0
    2.2886    0.8051   -3.3624 H   0  0  0  0  0  0  0  0  0  0  0  0
    1.5287    0.7388   -5.0004 H   0  0  0  0  0  0  0  0  0  0  0  0
  1  4  1  0  0  0  0
  2  8  1  1  0  0  0
  3 24  1  6  0  0  0
  3  2  1  0  0  0  0
  4  5  2  0  0  0  0
  4  3  1  0  0  0  0
  5  7  1  0  0  0  0
  6  5  1  0  0  0  0
  7  2  1  0  0  0  0
  7 37  1  6  0  0  0
  8 11  1  0  0  0  0
  8 10  1  0  0  0  0
  9  8  1  0  0  0  0
 11 16  1  0  0  0  0
 11 20  1  0  0  0  0
 12 14  1  0  0  0  0
 12 11  1  0  0  0  0
 13 12  1  0  0  0  0
 15 12  1  0  0  0  0
 16 19  1  0  0  0  0
 16 18  1  0  0  0  0
 17 16  1  0  0  0  0
 20 21  1  0  0  0  0
 20 22  1  0  0  0  0
 23 20  1  0  0  0  0
 24 33  1  0  0  0  0
 25 28  1  0  0  0  0
 25 24  1  0  0  0  0
 26 25  1  0  0  0  0
 27 25  1  0  0  0  0
 29 24  1  0  0  0  0
 29 30  1  0  0  0  0
 31 29  1  0  0  0  0
 32 29  1  0  0  0  0
 33 34  1  0  0  0  0
 33 36  1  0  0  0  0
 35 33  1  0  0  0  0
 37 46  1  0  0  0  0
 38 39  1  0  0  0  0
 38 37  1  0  0  0  0
 38 40  1  0  0  0  0
 41 38  1  0  0  0  0
 42 37  1  0  0  0  0
 42 45  1  0  0  0  0
 42 44  1  0  0  0  0
 43 42  1  0  0  0  0
 46 49  1  0  0  0  0
 46 47  1  0  0  0  0
 46 48  1  0  0  0  0
 50  1  1  0  0  0  0
 50 52  1  0  0  0  0
 51 50  1  0  0  0  0
 53 50  1  0  0  0  0
M  END
