18
 OpenBabel05122313113D

 26 28  0  0  0  0  0  0  0  0999 V2000
   -1.5997    0.6019   -0.0925 N   0  0  0  0  0  0  0  0  0  0  0  0
   -2.7057   -0.2267   -0.1515 C   0  0  0  0  0  0  0  0  0  0  0  0
   -2.6520   -1.5331    0.4099 C   0  0  0  0  0  0  0  0  0  0  0  0
   -1.7524   -1.8262    0.9708 H   0  0  0  0  0  0  0  0  0  0  0  0
   -3.7480   -2.3838    0.3145 C   0  0  0  0  0  0  0  0  0  0  0  0
   -3.6867   -3.3890    0.7588 H   0  0  0  0  0  0  0  0  0  0  0  0
   -4.9397   -1.9732   -0.3332 C   0  0  0  0  0  0  0  0  0  0  0  0
   -5.7965   -2.6604   -0.4002 H   0  0  0  0  0  0  0  0  0  0  0  0
   -5.0224   -0.6970   -0.8745 C   0  0  0  0  0  0  0  0  0  0  0  0
   -5.9416   -0.3564   -1.3764 H   0  0  0  0  0  0  0  0  0  0  0  0
   -3.9208    0.1984   -0.7988 C   0  0  0  0  0  0  0  0  0  0  0  0
   -3.9612    1.5121   -1.3507 C   0  0  0  0  0  0  0  0  0  0  0  0
   -4.8826    1.8656   -1.8386 H   0  0  0  0  0  0  0  0  0  0  0  0
   -2.8454    2.3167   -1.2743 C   0  0  0  0  0  0  0  0  0  0  0  0
   -2.8565    3.3264   -1.7051 H   0  0  0  0  0  0  0  0  0  0  0  0
   -1.6536    1.8417   -0.6497 C   0  0  0  0  0  0  0  0  0  0  0  0
   -0.4018    2.5850   -0.6249 C   0  0  0  0  0  0  0  0  0  0  0  0
    0.7277    1.8933   -0.0621 C   0  0  0  0  0  3  0  0  0  0  0  0
    1.9892    2.5275   -0.1805 C   0  0  0  0  0  0  0  0  0  0  0  0
    2.8850    2.0191    0.1991 H   0  0  0  0  0  0  0  0  0  0  0  0
    2.1273    3.7901   -0.7685 C   0  0  0  0  0  0  0  0  0  0  0  0
    3.1256    4.2514   -0.8354 H   0  0  0  0  0  0  0  0  0  0  0  0
    1.0037    4.4759   -1.2731 C   0  0  0  0  0  0  0  0  0  0  0  0
    1.1136    5.4725   -1.7254 H   0  0  0  0  0  0  0  0  0  0  0  0
   -0.2502    3.8676   -1.2055 C   0  0  0  0  0  0  0  0  0  0  0  0
   -1.1241    4.3924   -1.6205 H   0  0  0  0  0  0  0  0  0  0  0  0
  2  1  1  0  0  0  0
  2  3  1  0  0  0  0
  3  4  1  0  0  0  0
  5  3  2  0  0  0  0
  5  6  1  0  0  0  0
  7  5  1  0  0  0  0
  8  7  1  0  0  0  0
  9 11  1  0  0  0  0
  9  7  2  0  0  0  0
 10  9  1  0  0  0  0
 11  2  2  0  0  0  0
 12 14  2  0  0  0  0
 12 11  1  0  0  0  0
 13 12  1  0  0  0  0
 14 16  1  0  0  0  0
 15 14  1  0  0  0  0
 16 17  1  0  0  0  0
 16  1  2  0  0  0  0
 17 18  1  0  0  0  0
 19 18  2  0  0  0  0
 19 20  1  0  0  0  0
 21 19  1  0  0  0  0
 22 21  1  0  0  0  0
 23 25  1  0  0  0  0
 23 21  2  0  0  0  0
 24 23  1  0  0  0  0
 25 17  2  0  0  0  0
 26 25  1  0  0  0  0
M  END
