2
 OpenBabel05122313113D

 15 15  0  0  0  0  0  0  0  0999 V2000
    1.1539   -1.5143    0.3177 P   0  0  0  0  0  2  0  0  0  0  0  0
    0.4938   -1.4725   -1.3505 C   0  0  0  0  0  3  0  0  0  0  0  0
    2.7821   -0.6550    0.1725 C   0  0  0  0  0  0  0  0  0  0  0  0
    3.6170   -0.7615   -0.9601 C   0  0  0  0  0  0  0  0  0  0  0  0
    4.8659   -0.1219   -0.9905 C   0  0  0  0  0  0  0  0  0  0  0  0
    5.3042    0.6286    0.1115 C   0  0  0  0  0  0  0  0  0  0  0  0
    4.4876    0.7302    1.2508 C   0  0  0  0  0  0  0  0  0  0  0  0
    3.2427    0.0882    1.2830 C   0  0  0  0  0  0  0  0  0  0  0  0
   -0.2122   -2.2763   -1.6280 H   0  0  0  0  0  0  0  0  0  0  0  0
    1.1138   -1.1363   -2.1991 H   0  0  0  0  0  0  0  0  0  0  0  0
    3.2887   -1.3532   -1.8286 H   0  0  0  0  0  0  0  0  0  0  0  0
    5.5027   -0.2117   -1.8843 H   0  0  0  0  0  0  0  0  0  0  0  0
    6.2826    1.1319    0.0849 H   0  0  0  0  0  0  0  0  0  0  0  0
    4.8243    1.3161    2.1201 H   0  0  0  0  0  0  0  0  0  0  0  0
    2.6032    0.1748    2.1768 H   0  0  0  0  0  0  0  0  0  0  0  0
  2  1  1  0  0  0  0
  3  1  1  0  0  0  0
  3  8  1  0  0  0  0
  4  3  2  0  0  0  0
  5  4  1  0  0  0  0
  5  6  2  0  0  0  0
  6  7  1  0  0  0  0
  7  8  2  0  0  0  0
  7 14  1  0  0  0  0
  8 15  1  0  0  0  0
  9  2  1  0  0  0  0
 10  2  1  0  0  0  0
 11  4  1  0  0  0  0
 12  5  1  0  0  0  0
 13  6  1  0  0  0  0
M  END
