12
 OpenBabel05122313113D

 38 40  0  0  1  0  0  0  0  0999 V2000
    2.6851   -2.9603    0.4037 N   0  0  0  0  0  0  0  0  0  0  0  0
    1.3185   -3.4185    0.2864 C   0  0  0  0  0  0  0  0  0  0  0  0
    0.6149   -2.6382   -0.8197 C   0  0  0  0  0  0  0  0  0  0  0  0
    0.6235   -1.1132   -0.5766 C   0  0  2  0  0  0  0  0  0  0  0  0
    2.4360    0.6819   -0.3371 C   0  0  0  0  0  0  0  0  0  0  0  0
    3.7033    1.1330    0.0618 C   0  0  0  0  0  0  0  0  0  0  0  0
    4.6216    0.2030    0.5931 C   0  0  0  0  0  0  0  0  0  0  0  0
    4.2637   -1.1376    0.7083 C   0  0  0  0  0  0  0  0  0  0  0  0
    2.9828   -1.6052    0.3138 C   0  0  0  0  0  0  0  0  0  0  0  0
    2.0523   -0.6708   -0.2149 C   0  0  0  0  0  0  0  0  0  0  0  0
   -0.2780   -0.7390    0.6187 C   0  0  0  0  0  3  0  0  0  0  0  0
   -0.4932    0.6581    0.9171 C   0  0  0  0  0  3  0  0  0  0  0  0
   -0.8092    1.4313   -0.2410 C   0  0  1  0  0  3  0  0  0  0  0  0
   -0.9706    0.6587   -1.4454 C   0  0  0  0  0  3  0  0  0  0  0  0
    0.0657   -0.3796   -1.8272 C   0  0  0  0  0  0  0  0  0  0  0  0
    3.2276    3.3809   -0.5556 C   0  0  0  0  0  0  0  0  0  0  0  0
   -1.2911    3.4114    0.9716 C   0  0  0  0  0  0  0  0  0  0  0  0
    4.1249    2.4344   -0.0209 O   0  0  0  0  0  0  0  0  0  0  0  0
   -1.0538    2.7625   -0.2726 O   0  0  0  0  0  0  0  0  0  0  0  0
    3.3011   -3.5052    1.0062 H   0  0  0  0  0  0  0  0  0  0  0  0
    0.7478   -3.3156    1.2453 H   0  0  0  0  0  0  0  0  0  0  0  0
    1.3188   -4.5005    0.0396 H   0  0  0  0  0  0  0  0  0  0  0  0
    1.1346   -2.8414   -1.7801 H   0  0  0  0  0  0  0  0  0  0  0  0
   -0.4279   -2.9939   -0.9255 H   0  0  0  0  0  0  0  0  0  0  0  0
    1.7144    1.3964   -0.7518 H   0  0  0  0  0  0  0  0  0  0  0  0
    5.6140    0.5573    0.9069 H   0  0  0  0  0  0  0  0  0  0  0  0
    4.9902   -1.8600    1.1140 H   0  0  0  0  0  0  0  0  0  0  0  0
   -0.1748   -1.4008    1.4939 H   0  0  0  0  0  0  0  0  0  0  0  0
   -0.4382    1.0860    1.9270 H   0  0  0  0  0  0  0  0  0  0  0  0
   -1.4478    1.2024   -2.2776 H   0  0  0  0  0  0  0  0  0  0  0  0
   -0.4041   -1.1155   -2.5112 H   0  0  0  0  0  0  0  0  0  0  0  0
    0.8912    0.0882   -2.4068 H   0  0  0  0  0  0  0  0  0  0  0  0
    3.7416    4.3600   -0.5248 H   0  0  0  0  0  0  0  0  0  0  0  0
    2.2832    3.4508    0.0343 H   0  0  0  0  0  0  0  0  0  0  0  0
    2.9540    3.1513   -1.6117 H   0  0  0  0  0  0  0  0  0  0  0  0
   -1.5834    4.4504    0.7341 H   0  0  0  0  0  0  0  0  0  0  0  0
   -0.3785    3.4254    1.6065 H   0  0  0  0  0  0  0  0  0  0  0  0
   -2.1163    2.9117    1.5253 H   0  0  0  0  0  0  0  0  0  0  0  0
  1 20  1  0  0  0  0
  2  1  1  0  0  0  0
  2 21  1  0  0  0  0
  3  4  1  0  0  0  0
  3  2  1  0  0  0  0
  4 10  1  1  0  0  0
  4 11  1  0  0  0  0
  5 10  2  0  0  0  0
  5  6  1  0  0  0  0
  6  7  2  0  0  0  0
  7  8  1  0  0  0  0
  7 26  1  0  0  0  0
  8 27  1  0  0  0  0
  9  1  1  0  0  0  0
  9  8  2  0  0  0  0
 10  9  1  0  0  0  0
 11 12  1  0  0  0  0
 11 28  1  0  0  0  0
 12 29  1  0  0  0  0
 13 19  1  1  0  0  0
 13 12  1  0  0  0  0
 14 13  1  0  0  0  0
 15 14  1  0  0  0  0
 15  4  1  0  0  0  0
 16 33  1  0  0  0  0
 16 18  1  0  0  0  0
 16 34  1  0  0  0  0
 17 38  1  0  0  0  0
 17 37  1  0  0  0  0
 18  6  1  0  0  0  0
 19 17  1  0  0  0  0
 22  2  1  0  0  0  0
 23  3  1  0  0  0  0
 24  3  1  0  0  0  0
 25  5  1  0  0  0  0
 30 14  1  0  0  0  0
 31 15  1  0  0  0  0
 32 15  1  0  0  0  0
 35 16  1  0  0  0  0
 36 17  1  0  0  0  0
M  END
