17
 OpenBabel05122313113D

 37 38  0  0  1  0  0  0  0  0999 V2000
    3.8468   -3.1502    0.7656 F   0  0  0  0  0  0  0  0  0  0  0  0
    2.4476   -2.7493    2.3944 F   0  0  0  0  0  0  0  0  0  0  0  0
    3.6896   -1.1427    1.5999 F   0  0  0  0  0  0  0  0  0  0  0  0
    2.6501    4.2530    2.5011 O   0  0  0  0  0  0  0  0  0  0  0  0
    5.5980    1.2886    0.0649 O   0  0  0  0  0  0  0  0  0  0  0  0
    3.2894    1.3394    0.2570 N   0  0  0  0  0  0  0  0  0  0  0  0
    2.0916    0.9264   -0.4995 C   0  0  1  0  0  0  0  0  0  0  0  0
    1.7357    1.8176   -1.0626 H   0  0  0  0  0  0  0  0  0  0  0  0
    2.6457   -0.1130   -1.5199 C   0  0  2  0  0  0  0  0  0  0  0  0
    2.1385    0.0671   -2.4880 H   0  0  0  0  0  0  0  0  0  0  0  0
    2.3547   -1.5971   -1.1774 C   0  0  0  0  0  0  0  0  0  0  0  0
    1.5731   -1.9438   -1.8765 H   0  0  0  0  0  0  0  0  0  0  0  0
    3.2385   -2.2231   -1.3973 H   0  0  0  0  0  0  0  0  0  0  0  0
    1.8517   -1.9435    0.2346 C   0  0  2  0  0  0  0  0  0  0  0  0
    1.3775   -2.9464    0.1563 H   0  0  0  0  0  0  0  0  0  0  0  0
    0.8556   -0.9363    0.7937 C   0  0  0  0  0  3  0  0  0  0  0  0
    0.9725    0.4553    0.4057 C   0  0  0  0  0  3  0  0  0  0  0  0
    4.4753    1.0136   -0.3500 C   0  0  0  0  0  0  0  0  0  0  0  0
    4.1484    0.2966   -1.6733 C   0  0  0  0  0  0  0  0  0  0  0  0
    3.2476    2.1148    1.4719 C   0  0  0  0  0  0  0  0  0  0  0  0
    4.2972    2.2140    1.8149 H   0  0  0  0  0  0  0  0  0  0  0  0
    2.6851    1.5589    2.2587 H   0  0  0  0  0  0  0  0  0  0  0  0
    2.6327    3.5111    1.2959 C   0  0  0  0  0  0  0  0  0  0  0  0
    3.2350    4.0832    0.5595 H   0  0  0  0  0  0  0  0  0  0  0  0
    1.5999    3.4283    0.8711 H   0  0  0  0  0  0  0  0  0  0  0  0
    5.1595   -0.8270   -1.9114 C   0  0  0  0  0  0  0  0  0  0  0  0
    6.1753   -0.3872   -1.9465 H   0  0  0  0  0  0  0  0  0  0  0  0
    4.9664   -1.3527   -2.8690 H   0  0  0  0  0  0  0  0  0  0  0  0
    5.1622   -1.5709   -1.0916 H   0  0  0  0  0  0  0  0  0  0  0  0
    4.2807    1.3537   -2.7921 C   0  0  0  0  0  0  0  0  0  0  0  0
    3.5536    2.1814   -2.6588 H   0  0  0  0  0  0  0  0  0  0  0  0
    4.0959    0.8926   -3.7843 H   0  0  0  0  0  0  0  0  0  0  0  0
    5.2978    1.7937   -2.7901 H   0  0  0  0  0  0  0  0  0  0  0  0
    2.9699   -2.2244    1.2400 C   0  0  0  0  0  0  0  0  0  0  0  0
    2.1274    3.7491    3.1519 H   0  0  0  0  0  0  0  0  0  0  0  0
    0.6367   -1.1310    1.8576 H   0  0  0  0  0  0  0  0  0  0  0  0
    0.7368    1.1926    1.1958 H   0  0  0  0  0  0  0  0  0  0  0  0
  1 34  1  0  0  0  0
  4 35  1  0  0  0  0
  6 20  1  0  0  0  0
  7  8  1  6  0  0  0
  7  6  1  0  0  0  0
  7 17  1  0  0  0  0
  9 10  1  6  0  0  0
  9 11  1  0  0  0  0
  9  7  1  0  0  0  0
 11 14  1  0  0  0  0
 12 11  1  0  0  0  0
 13 11  1  0  0  0  0
 14 15  1  6  0  0  0
 14 16  1  0  0  0  0
 14 34  1  0  0  0  0
 16 36  1  0  0  0  0
 17 16  1  0  0  0  0
 17 37  1  0  0  0  0
 18  5  2  0  0  0  0
 18  6  1  0  0  0  0
 19  9  1  0  0  0  0
 19 18  1  0  0  0  0
 20 21  1  0  0  0  0
 20 22  1  0  0  0  0
 23 20  1  0  0  0  0
 23  4  1  0  0  0  0
 24 23  1  0  0  0  0
 25 23  1  0  0  0  0
 26 19  1  0  0  0  0
 26 29  1  0  0  0  0
 27 26  1  0  0  0  0
 28 26  1  0  0  0  0
 30 33  1  0  0  0  0
 30 31  1  0  0  0  0
 30 19  1  0  0  0  0
 32 30  1  0  0  0  0
 34  3  1  0  0  0  0
 34  2  1  0  0  0  0
M  END
