3
 OpenBabel05122313113D

 14 14  0  0  0  0  0  0  0  0999 V2000
    3.2090   -1.9798    0.4073 F   0  0  0  0  0  0  0  0  0  0  0  0
    2.6179   -0.8412    2.2058 F   0  0  0  0  0  0  0  0  0  0  0  0
    2.4912   -0.8965    0.8247 C   0  0  0  0  0  3  0  0  0  0  0  0
    2.9758    0.3793    0.1894 C   0  0  0  0  0  0  0  0  0  0  0  0
    3.0930    0.4441   -1.2202 C   0  0  0  0  0  0  0  0  0  0  0  0
    2.8898   -0.4598   -1.8125 H   0  0  0  0  0  0  0  0  0  0  0  0
    3.4421    1.6482   -1.8412 C   0  0  0  0  0  0  0  0  0  0  0  0
    3.5289    1.6900   -2.9376 H   0  0  0  0  0  0  0  0  0  0  0  0
    3.6786    2.8029   -1.0712 C   0  0  0  0  0  0  0  0  0  0  0  0
    3.9456    3.7499   -1.5643 H   0  0  0  0  0  0  0  0  0  0  0  0
    3.5799    2.7395    0.3270 C   0  0  0  0  0  0  0  0  0  0  0  0
    3.7792    3.6355    0.9349 H   0  0  0  0  0  0  0  0  0  0  0  0
    3.2351    1.5343    0.9578 C   0  0  0  0  0  0  0  0  0  0  0  0
    3.1667    1.4722    2.0531 H   0  0  0  0  0  0  0  0  0  0  0  0
  1  3  1  0  0  0  0
  3  2  1  0  0  0  0
  4  3  1  0  0  0  0
  4 13  1  0  0  0  0
  5  4  2  0  0  0  0
  6  5  1  0  0  0  0
  7  5  1  0  0  0  0
  7  9  2  0  0  0  0
  8  7  1  0  0  0  0
  9 11  1  0  0  0  0
 10  9  1  0  0  0  0
 11 12  1  0  0  0  0
 11 13  2  0  0  0  0
 13 14  1  0  0  0  0
M  END
