10
 OpenBabel05122313113D

 60 63  0  0  1  0  0  0  0  0999 V2000
    2.7227   -0.0072    0.3289 N   0  0  1  0  0  0  0  0  0  0  0  0
   -2.7226   -0.0073    0.3290 N   0  0  2  0  0  0  0  0  0  0  0  0
    2.9208   -0.6391    1.6420 C   0  0  0  0  0  0  0  0  0  0  0  0
    3.9935   -0.5900    1.9528 H   0  0  0  0  0  0  0  0  0  0  0  0
    2.6632   -1.7094    1.5507 H   0  0  0  0  0  0  0  0  0  0  0  0
    2.0697   -0.0418    2.7770 C   0  0  0  0  0  0  0  0  0  0  0  0
    2.2914   -0.6169    3.7017 H   0  0  0  0  0  0  0  0  0  0  0  0
    2.3782    1.0023    2.9988 H   0  0  0  0  0  0  0  0  0  0  0  0
    0.6197   -0.0625    2.5579 C   0  0  0  0  0  2  0  0  0  0  0  0
   -0.6190   -0.0624    2.5577 C   0  0  0  0  0  2  0  0  0  0  0  0
   -2.0690   -0.0415    2.7770 C   0  0  0  0  0  0  0  0  0  0  0  0
   -2.3773    1.0027    2.9984 H   0  0  0  0  0  0  0  0  0  0  0  0
   -2.2906   -0.6163    3.7019 H   0  0  0  0  0  0  0  0  0  0  0  0
   -2.9203   -0.6390    1.6423 C   0  0  0  0  0  0  0  0  0  0  0  0
   -2.6627   -1.7093    1.5510 H   0  0  0  0  0  0  0  0  0  0  0  0
   -3.9930   -0.5900    1.9533 H   0  0  0  0  0  0  0  0  0  0  0  0
    3.2646    1.3676    0.3417 C   0  0  0  0  0  0  0  0  0  0  0  0
    4.3778    1.3300    0.4444 H   0  0  0  0  0  0  0  0  0  0  0  0
    2.8794    1.8720    1.2492 H   0  0  0  0  0  0  0  0  0  0  0  0
    2.9148    2.2625   -0.8658 C   0  0  0  0  0  0  0  0  0  0  0  0
    3.4066    3.2397   -0.6848 H   0  0  0  0  0  0  0  0  0  0  0  0
    3.3605    1.8609   -1.7978 H   0  0  0  0  0  0  0  0  0  0  0  0
    1.4283    2.4387   -1.0253 C   0  0  0  0  0  0  0  0  0  0  0  0
    0.7011    3.3467   -0.2260 C   0  0  0  0  0  0  0  0  0  0  0  0
    1.2440    4.0468    0.4286 H   0  0  0  0  0  0  0  0  0  0  0  0
   -0.7013    3.3467   -0.2260 C   0  0  0  0  0  0  0  0  0  0  0  0
   -1.2443    4.0467    0.4286 H   0  0  0  0  0  0  0  0  0  0  0  0
   -1.4284    2.4386   -1.0253 C   0  0  0  0  0  0  0  0  0  0  0  0
   -0.7048    1.5930   -1.8945 C   0  0  0  0  0  0  0  0  0  0  0  0
   -1.2463    0.9290   -2.5845 H   0  0  0  0  0  0  0  0  0  0  0  0
    0.7047    1.5930   -1.8945 C   0  0  0  0  0  0  0  0  0  0  0  0
    1.2463    0.9291   -2.5845 H   0  0  0  0  0  0  0  0  0  0  0  0
   -2.9149    2.2622   -0.8658 C   0  0  0  0  0  0  0  0  0  0  0  0
   -3.3606    1.8606   -1.7978 H   0  0  0  0  0  0  0  0  0  0  0  0
   -3.4068    3.2395   -0.6849 H   0  0  0  0  0  0  0  0  0  0  0  0
   -3.2647    1.3674    0.3417 C   0  0  0  0  0  0  0  0  0  0  0  0
   -2.8796    1.8719    1.2493 H   0  0  0  0  0  0  0  0  0  0  0  0
   -4.3779    1.3297    0.4443 H   0  0  0  0  0  0  0  0  0  0  0  0
    3.3589   -0.7899   -0.7516 C   0  0  0  0  0  0  0  0  0  0  0  0
    4.4715   -0.7665   -0.6342 H   0  0  0  0  0  0  0  0  0  0  0  0
    3.1391   -0.2670   -1.7030 H   0  0  0  0  0  0  0  0  0  0  0  0
    2.9231   -2.2621   -0.8926 C   0  0  0  0  0  0  0  0  0  0  0  0
    3.4099   -2.6403   -1.8157 H   0  0  0  0  0  0  0  0  0  0  0  0
    3.3335   -2.8762   -0.0663 H   0  0  0  0  0  0  0  0  0  0  0  0
    1.4276   -2.4452   -0.9750 C   0  0  0  0  0  0  0  0  0  0  0  0
    0.7019   -3.0078    0.0932 C   0  0  0  0  0  0  0  0  0  0  0  0
    1.2406   -3.4338    0.9539 H   0  0  0  0  0  0  0  0  0  0  0  0
   -0.7015   -3.0078    0.0933 C   0  0  0  0  0  0  0  0  0  0  0  0
   -1.2401   -3.4339    0.9541 H   0  0  0  0  0  0  0  0  0  0  0  0
   -1.4274   -2.4454   -0.9748 C   0  0  0  0  0  0  0  0  0  0  0  0
   -0.7007   -1.9830   -2.0944 C   0  0  0  0  0  0  0  0  0  0  0  0
   -1.2430   -1.6027   -2.9745 H   0  0  0  0  0  0  0  0  0  0  0  0
    0.7007   -1.9830   -2.0945 C   0  0  0  0  0  0  0  0  0  0  0  0
    1.2428   -1.6026   -2.9747 H   0  0  0  0  0  0  0  0  0  0  0  0
   -2.9230   -2.2624   -0.8921 C   0  0  0  0  0  0  0  0  0  0  0  0
   -3.3331   -2.8765   -0.0657 H   0  0  0  0  0  0  0  0  0  0  0  0
   -3.4099   -2.6408   -1.8151 H   0  0  0  0  0  0  0  0  0  0  0  0
   -3.3589   -0.7902   -0.7512 C   0  0  0  0  0  0  0  0  0  0  0  0
   -3.1394   -0.2674   -1.7028 H   0  0  0  0  0  0  0  0  0  0  0  0
   -4.4715   -0.7670   -0.6335 H   0  0  0  0  0  0  0  0  0  0  0  0
  1 39  1  6  0  0  0
  1 17  1  0  0  0  0
  1  3  1  0  0  0  0
  2 58  1  6  0  0  0
  2 36  1  0  0  0  0
  2 14  1  0  0  0  0
  3  4  1  0  0  0  0
  3  6  1  0  0  0  0
  5  3  1  0  0  0  0
  6  8  1  0  0  0  0
  6  7  1  0  0  0  0
  9  6  1  0  0  0  0
 10  9  1  0  0  0  0
 10 11  1  0  0  0  0
 11 12  1  0  0  0  0
 11 13  1  0  0  0  0
 14 16  1  0  0  0  0
 14 11  1  0  0  0  0
 15 14  1  0  0  0  0
 17 18  1  0  0  0  0
 17 19  1  0  0  0  0
 20 21  1  0  0  0  0
 20 17  1  0  0  0  0
 22 20  1  0  0  0  0
 23 20  1  0  0  0  0
 23 24  1  0  0  0  0
 24 26  2  0  0  0  0
 24 25  1  0  0  0  0
 26 27  1  0  0  0  0
 28 33  1  0  0  0  0
 28 26  1  0  0  0  0
 29 31  1  0  0  0  0
 29 28  2  0  0  0  0
 30 29  1  0  0  0  0
 31 23  2  0  0  0  0
 32 31  1  0  0  0  0
 33 35  1  0  0  0  0
 33 36  1  0  0  0  0
 34 33  1  0  0  0  0
 36 38  1  0  0  0  0
 36 37  1  0  0  0  0
 39 40  1  0  0  0  0
 41 39  1  0  0  0  0
 42 39  1  0  0  0  0
 42 44  1  0  0  0  0
 43 42  1  0  0  0  0
 45 42  1  0  0  0  0
 45 46  1  0  0  0  0
 46 48  2  0  0  0  0
 46 47  1  0  0  0  0
 48 49  1  0  0  0  0
 50 55  1  0  0  0  0
 50 48  1  0  0  0  0
 51 50  2  0  0  0  0
 52 51  1  0  0  0  0
 53 51  1  0  0  0  0
 53 45  2  0  0  0  0
 54 53  1  0  0  0  0
 55 58  1  0  0  0  0
 55 56  1  0  0  0  0
 57 55  1  0  0  0  0
 58 60  1  0  0  0  0
 59 58  1  0  0  0  0
M  END
