1
 OpenBabel05122313113D

 12 11  0  0  0  0  0  0  0  0999 V2000
   -0.8972    1.6144   -0.8485 C   0  0  0  0  0  3  0  0  0  0  0  0
   -2.0454    0.7189   -0.8243 C   0  0  0  0  0  3  0  0  0  0  0  0
   -3.3126    1.1321   -0.0927 C   0  0  0  0  0  0  0  0  0  0  0  0
   -4.1549    2.1396   -0.8902 C   0  0  0  0  0  0  0  0  0  0  0  0
   -0.9243    2.4623   -0.1379 H   0  0  0  0  0  0  0  0  0  0  0  0
   -0.4726    1.9167   -1.8228 H   0  0  0  0  0  0  0  0  0  0  0  0
   -2.2957    0.2829   -1.8088 H   0  0  0  0  0  0  0  0  0  0  0  0
   -3.0552    1.5881    0.8884 H   0  0  0  0  0  0  0  0  0  0  0  0
   -3.9407    0.2417    0.1387 H   0  0  0  0  0  0  0  0  0  0  0  0
   -5.0718    2.4441   -0.3421 H   0  0  0  0  0  0  0  0  0  0  0  0
   -3.5670    3.0549   -1.1103 H   0  0  0  0  0  0  0  0  0  0  0  0
   -4.4718    1.7120   -1.8647 H   0  0  0  0  0  0  0  0  0  0  0  0
  1  2  1  0  0  0  0
  1  5  1  0  0  0  0
  2  3  1  0  0  0  0
  3  9  1  0  0  0  0
  3  8  1  0  0  0  0
  4 10  1  0  0  0  0
  4  3  1  0  0  0  0
  6  1  1  0  0  0  0
  7  2  1  0  0  0  0
 11  4  1  0  0  0  0
 12  4  1  0  0  0  0
M  END
