7
 OpenBabel05122313113D

 29 30  0  0  1  0  0  0  0  0999 V2000
    0.7560    0.8947   -1.6718 C   0  0  0  0  0  0  0  0  0  0  0  0
   -0.4101    1.7200   -1.7192 C   0  0  0  0  0  0  0  0  0  0  0  0
   -0.5504    2.3750   -0.4554 C   0  0  0  0  0  0  0  0  0  0  0  0
    0.5318    1.9341    0.3829 C   0  0  0  0  0  0  0  0  0  0  0  0
    1.3361    0.9921   -0.3608 C   0  0  1  0  0  3  0  0  0  0  0  0
    0.5275   -1.2172    1.2924 C   0  0  0  0  0  3  0  0  0  0  0  0
   -0.5025   -2.0202    0.6998 C   0  0  0  0  0  3  0  0  0  0  0  0
   -0.1832   -2.0476   -0.6999 C   0  0  0  0  0  3  0  0  0  0  0  0
    1.3365   -2.0454   -0.8259 C   0  0  0  0  0  0  0  0  0  0  0  0
    1.8260   -1.2944    0.4520 C   0  0  1  0  0  0  0  0  0  0  0  0
    2.4573    0.1147    0.2077 C   0  0  0  0  0  0  0  0  0  0  0  0
    2.9454    0.6820    1.5520 C   0  0  0  0  0  0  0  0  0  0  0  0
    3.6560    0.0508   -0.7560 C   0  0  0  0  0  0  0  0  0  0  0  0
    1.1178    0.2724   -2.4971 H   0  0  0  0  0  0  0  0  0  0  0  0
   -1.0726    1.8409   -2.5848 H   0  0  0  0  0  0  0  0  0  0  0  0
   -1.3248    3.1024   -0.1869 H   0  0  0  0  0  0  0  0  0  0  0  0
    0.7219    2.2720    1.4066 H   0  0  0  0  0  0  0  0  0  0  0  0
    0.5653   -1.0218    2.3743 H   0  0  0  0  0  0  0  0  0  0  0  0
   -1.3527   -2.4945    1.2065 H   0  0  0  0  0  0  0  0  0  0  0  0
   -0.7975   -2.5964   -1.4298 H   0  0  0  0  0  0  0  0  0  0  0  0
    1.7146   -1.6131   -1.7711 H   0  0  0  0  0  0  0  0  0  0  0  0
    1.7024   -3.0969   -0.8057 H   0  0  0  0  0  0  0  0  0  0  0  0
    2.5860   -1.9161    0.9810 H   0  0  0  0  0  0  0  0  0  0  0  0
    2.1370    0.7153    2.3074 H   0  0  0  0  0  0  0  0  0  0  0  0
    3.3414    1.7102    1.4295 H   0  0  0  0  0  0  0  0  0  0  0  0
    3.7592    0.0490    1.9592 H   0  0  0  0  0  0  0  0  0  0  0  0
    3.3752   -0.3252   -1.7587 H   0  0  0  0  0  0  0  0  0  0  0  0
    4.4425   -0.6195   -0.3534 H   0  0  0  0  0  0  0  0  0  0  0  0
    4.1009    1.0574   -0.8900 H   0  0  0  0  0  0  0  0  0  0  0  0
  1  5  1  0  0  0  0
  2  1  2  0  0  0  0
  2  3  1  0  0  0  0
  3 16  1  0  0  0  0
  3  4  2  0  0  0  0
  4 17  1  0  0  0  0
  5 11  1  1  0  0  0
  5  4  1  0  0  0  0
  6 18  1  0  0  0  0
  7 19  1  0  0  0  0
  7  6  1  0  0  0  0
  8  7  1  0  0  0  0
  9 22  1  0  0  0  0
  9  8  1  0  0  0  0
  9 10  1  0  0  0  0
 10 23  1  1  0  0  0
 10  6  1  0  0  0  0
 11 10  1  0  0  0  0
 11 12  1  0  0  0  0
 12 26  1  0  0  0  0
 12 24  1  0  0  0  0
 13 28  1  0  0  0  0
 13 11  1  0  0  0  0
 14  1  1  0  0  0  0
 15  2  1  0  0  0  0
 20  8  1  0  0  0  0
 21  9  1  0  0  0  0
 25 12  1  0  0  0  0
 27 13  1  0  0  0  0
 29 13  1  0  0  0  0
M  END
