11
 OpenBabel05122313113D

 19 19  0  0  1  0  0  0  0  0999 V2000
   -1.6928   -0.7667    0.1949 S   0  0  0  0  0  0  0  0  0  0  0  0
   -4.3381   -0.5947    0.1059 F   0  0  0  0  0  0  0  0  0  0  0  0
   -3.3494    1.3171    0.4905 F   0  0  0  0  0  0  0  0  0  0  0  0
   -3.3155    0.4582   -1.5170 F   0  0  0  0  0  0  0  0  0  0  0  0
   -0.6154    1.7832    1.5227 O   0  0  0  0  0  0  0  0  0  0  0  0
   -0.0811    2.4111    2.0458 H   0  0  0  0  0  0  0  0  0  0  0  0
   -1.6908   -1.9232   -0.7245 O   0  0  0  0  0  0  0  0  0  0  0  0
   -1.6336   -0.9028    1.6582 O   0  0  0  0  0  0  0  0  0  0  0  0
    0.0288    1.4851    0.3822 C   0  0  0  0  0  0  0  0  0  0  0  0
   -0.4492    0.3866   -0.4088 C   0  0  1  0  0  3  0  0  0  0  0  0
    0.1684    0.0710   -1.6617 C   0  0  0  0  0  3  0  0  0  0  0  0
   -0.2228   -0.7885   -2.2237 H   0  0  0  0  0  0  0  0  0  0  0  0
    1.2722    0.8262   -2.1291 C   0  0  0  0  0  0  0  0  0  0  0  0
    1.7696    0.5551   -3.0692 H   0  0  0  0  0  0  0  0  0  0  0  0
    1.8146    1.8388   -1.2892 C   0  0  0  0  0  0  0  0  0  0  0  0
    2.7302    2.3671   -1.5899 H   0  0  0  0  0  0  0  0  0  0  0  0
    1.1874    2.1888   -0.0593 C   0  0  0  0  0  0  0  0  0  0  0  0
    1.6126    2.9812    0.5737 H   0  0  0  0  0  0  0  0  0  0  0  0
   -3.2966    0.1756   -0.2054 C   0  0  0  0  0  0  0  0  0  0  0  0
  1  8  2  0  0  0  0
  4 19  1  0  0  0  0
  5  6  1  0  0  0  0
  7  1  2  0  0  0  0
  9  5  1  0  0  0  0
 10  1  1  1  0  0  0
 10  9  1  0  0  0  0
 11 10  1  0  0  0  0
 12 11  1  0  0  0  0
 13 11  1  0  0  0  0
 13 15  2  0  0  0  0
 14 13  1  0  0  0  0
 15 17  1  0  0  0  0
 16 15  1  0  0  0  0
 17  9  2  0  0  0  0
 17 18  1  0  0  0  0
 19  2  1  0  0  0  0
 19  1  1  0  0  0  0
 19  3  1  0  0  0  0
M  END
