29
 OpenBabel05122313113D

 38 38  0  0  1  0  0  0  0  0999 V2000
   -1.8863   -0.0532   -0.5661 C   0  0  0  0  0  0  0  0  0  0  0  0
   -2.8316    1.1422   -0.2836 C   0  0  0  0  0  0  0  0  0  0  0  0
   -2.6024    1.7493    1.1211 C   0  0  0  0  0  0  0  0  0  0  0  0
   -1.5697    2.1141    1.2750 H   0  0  0  0  0  0  0  0  0  0  0  0
   -2.7972    1.0078    1.9192 H   0  0  0  0  0  0  0  0  0  0  0  0
   -3.2839    2.6117    1.2739 H   0  0  0  0  0  0  0  0  0  0  0  0
   -2.6581    2.2365   -1.3630 C   0  0  0  0  0  0  0  0  0  0  0  0
   -3.4369    3.0155   -1.2305 H   0  0  0  0  0  0  0  0  0  0  0  0
   -2.7776    1.8073   -2.3784 H   0  0  0  0  0  0  0  0  0  0  0  0
   -1.6771    2.7448   -1.3269 H   0  0  0  0  0  0  0  0  0  0  0  0
   -4.3095    0.6826   -0.3755 C   0  0  0  0  0  0  0  0  0  0  0  0
   -4.9551    1.5077   -0.0076 H   0  0  0  0  0  0  0  0  0  0  0  0
   -4.5713    0.5328   -1.4465 H   0  0  0  0  0  0  0  0  0  0  0  0
   -4.5781   -0.6122    0.3792 C   0  0  0  0  0  0  0  0  0  0  0  0
   -5.6594   -0.8584    0.3758 H   0  0  0  0  0  0  0  0  0  0  0  0
   -4.2847   -0.5024    1.4450 H   0  0  0  0  0  0  0  0  0  0  0  0
   -3.7711   -1.7310   -0.2682 C   0  0  0  0  0  0  0  0  0  0  0  0
   -3.7427   -2.6341    0.3814 H   0  0  0  0  0  0  0  0  0  0  0  0
   -4.2720   -2.0743   -1.2050 H   0  0  0  0  0  0  0  0  0  0  0  0
   -2.3520   -1.3451   -0.6116 C   0  0  0  0  0  0  0  0  0  0  0  0
   -1.4772   -2.5234   -0.9466 C   0  0  0  0  0  0  0  0  0  0  0  0
   -0.6802   -2.3012   -1.6810 H   0  0  0  0  0  0  0  0  0  0  0  0
   -2.0842   -3.3600   -1.3471 H   0  0  0  0  0  0  0  0  0  0  0  0
   -0.9693   -2.9060   -0.0345 H   0  0  0  0  0  0  0  0  0  0  0  0
   -0.4549    0.1810   -0.8688 C   0  0  0  0  0  3  0  0  0  0  0  0
   -0.0663   -0.4400   -1.6897 H   0  0  0  0  0  0  0  0  0  0  0  0
    0.2901    1.3607   -0.5619 C   0  0  0  0  0  3  0  0  0  0  0  0
   -0.1682    2.2099   -0.0384 H   0  0  0  0  0  0  0  0  0  0  0  0
    1.7037    1.4154   -0.7816 C   0  0  2  0  0  3  0  0  0  0  0  0
    2.4713    2.6796   -0.4905 C   0  0  0  0  0  0  0  0  0  0  0  0
    2.5582    3.2814   -1.4201 H   0  0  0  0  0  0  0  0  0  0  0  0
    3.4983    2.4825   -0.1321 H   0  0  0  0  0  0  0  0  0  0  0  0
    1.9512    3.2947    0.2694 H   0  0  0  0  0  0  0  0  0  0  0  0
    2.2921    0.2133   -1.3419 C   0  0  0  0  0  3  0  0  0  0  0  0
    1.7603   -0.3350   -2.1383 H   0  0  0  0  0  0  0  0  0  0  0  0
    3.7450   -0.0419   -1.3629 C   0  0  0  0  0  0  0  0  0  0  0  0
    4.3535    0.5405   -0.6057 H   0  0  0  0  0  0  0  0  0  0  0  0
    4.2826   -0.8455   -2.1088 O   0  0  0  0  0  0  0  0  0  0  0  0
  1  2  1  0  0  0  0
  2  3  1  0  0  0  0
  3  6  1  0  0  0  0
  3  4  1  0  0  0  0
  3  5  1  0  0  0  0
  7 10  1  0  0  0  0
  7  8  1  0  0  0  0
  7  2  1  0  0  0  0
  9  7  1  0  0  0  0
 11  2  1  0  0  0  0
 11 12  1  0  0  0  0
 11 14  1  0  0  0  0
 13 11  1  0  0  0  0
 14 16  1  0  0  0  0
 15 14  1  0  0  0  0
 17 14  1  0  0  0  0
 17 18  1  0  0  0  0
 19 17  1  0  0  0  0
 20  1  2  0  0  0  0
 20 17  1  0  0  0  0
 21 20  1  0  0  0  0
 21 24  1  0  0  0  0
 22 21  1  0  0  0  0
 23 21  1  0  0  0  0
 25  1  1  0  0  0  0
 25 27  1  0  0  0  0
 26 25  1  0  0  0  0
 27 28  1  0  0  0  0
 29 34  1  6  0  0  0
 29 27  1  0  0  0  0
 29 30  1  0  0  0  0
 30 32  1  0  0  0  0
 30 33  1  0  0  0  0
 31 30  1  0  0  0  0
 35 34  1  0  0  0  0
 36 34  1  0  0  0  0
 36 37  1  0  0  0  0
 38 36  2  0  0  0  0
M  END
