2
 OpenBabel05122313113D

 35 35  0  0  0  0  0  0  0  0999 V2000
   -2.6791   -1.5922    0.9014 Si  0  0  0  0  0  0  0  0  0  0  0  0
   -1.3054   -0.4537    0.3188 C   0  0  0  0  0  3  0  0  0  0  0  0
   -1.0141    0.7917   -0.0773 C   0  0  0  0  0  3  0  0  0  0  0  0
   -1.6799    2.0779   -0.2355 C   0  0  0  0  0  0  0  0  0  0  0  0
   -2.4750    2.5957    0.8172 C   0  0  0  0  0  0  0  0  0  0  0  0
   -3.1043    3.8404    0.6874 C   0  0  0  0  0  0  0  0  0  0  0  0
   -2.9716    4.5795   -0.5003 C   0  0  0  0  0  0  0  0  0  0  0  0
   -2.1930    4.0698   -1.5529 C   0  0  0  0  0  0  0  0  0  0  0  0
   -1.5384    2.8378   -1.4216 C   0  0  0  0  0  0  0  0  0  0  0  0
   -4.0346   -1.6369   -0.4724 C   0  0  0  0  0  0  0  0  0  0  0  0
   -3.4124   -2.1535   -1.7824 C   0  0  0  0  0  0  0  0  0  0  0  0
   -4.6015   -0.2236   -0.6945 C   0  0  0  0  0  0  0  0  0  0  0  0
   -5.1600   -2.5849   -0.0173 C   0  0  0  0  0  0  0  0  0  0  0  0
   -3.3570   -0.8651    2.5177 C   0  0  0  0  0  0  0  0  0  0  0  0
   -1.9829   -3.3104    1.2477 C   0  0  0  0  0  0  0  0  0  0  0  0
   -2.5839    2.0075    1.7406 H   0  0  0  0  0  0  0  0  0  0  0  0
   -3.7130    4.2330    1.5165 H   0  0  0  0  0  0  0  0  0  0  0  0
   -3.4759    5.5522   -0.6051 H   0  0  0  0  0  0  0  0  0  0  0  0
   -2.0885    4.6430   -2.4870 H   0  0  0  0  0  0  0  0  0  0  0  0
   -0.9083    2.4393   -2.2296 H   0  0  0  0  0  0  0  0  0  0  0  0
   -4.1825   -2.1925   -2.5854 H   0  0  0  0  0  0  0  0  0  0  0  0
   -2.5886   -1.4998   -2.1344 H   0  0  0  0  0  0  0  0  0  0  0  0
   -2.9944   -3.1746   -1.6716 H   0  0  0  0  0  0  0  0  0  0  0  0
   -5.3922   -0.2450   -1.4777 H   0  0  0  0  0  0  0  0  0  0  0  0
   -5.0615    0.1941    0.2249 H   0  0  0  0  0  0  0  0  0  0  0  0
   -3.8210    0.4881   -1.0303 H   0  0  0  0  0  0  0  0  0  0  0  0
   -5.9594   -2.6349   -0.7906 H   0  0  0  0  0  0  0  0  0  0  0  0
   -4.7929   -3.6198    0.1428 H   0  0  0  0  0  0  0  0  0  0  0  0
   -5.6370   -2.2444    0.9257 H   0  0  0  0  0  0  0  0  0  0  0  0
   -2.5262   -0.7149    3.2370 H   0  0  0  0  0  0  0  0  0  0  0  0
   -3.8577    0.1100    2.3557 H   0  0  0  0  0  0  0  0  0  0  0  0
   -4.0892   -1.5572    2.9825 H   0  0  0  0  0  0  0  0  0  0  0  0
   -1.1393   -3.2241    1.9618 H   0  0  0  0  0  0  0  0  0  0  0  0
   -2.7529   -3.9760    1.6876 H   0  0  0  0  0  0  0  0  0  0  0  0
   -1.5885   -3.7758    0.3237 H   0  0  0  0  0  0  0  0  0  0  0  0
  1 15  1  0  0  0  0
  1 14  1  0  0  0  0
  2  1  1  0  0  0  0
  3  2  2  0  0  0  0
  4  3  1  0  0  0  0
  4  5  1  0  0  0  0
  5 16  1  0  0  0  0
  6  5  2  0  0  0  0
  6 17  1  0  0  0  0
  7  6  1  0  0  0  0
  8  9  1  0  0  0  0
  8  7  2  0  0  0  0
  9  4  2  0  0  0  0
 10 13  1  0  0  0  0
 10  1  1  0  0  0  0
 11 23  1  0  0  0  0
 11 10  1  0  0  0  0
 12 10  1  0  0  0  0
 12 25  1  0  0  0  0
 13 28  1  0  0  0  0
 13 29  1  0  0  0  0
 14 32  1  0  0  0  0
 14 30  1  0  0  0  0
 15 34  1  0  0  0  0
 15 33  1  0  0  0  0
 18  7  1  0  0  0  0
 19  8  1  0  0  0  0
 20  9  1  0  0  0  0
 21 11  1  0  0  0  0
 22 11  1  0  0  0  0
 24 12  1  0  0  0  0
 26 12  1  0  0  0  0
 27 13  1  0  0  0  0
 31 14  1  0  0  0  0
 35 15  1  0  0  0  0
M  END
