1
 OpenBabel05122313113D

 16 16  0  0  0  0  0  0  0  0999 V2000
    0.8173    1.6212   -0.4652 C   0  0  0  0  0  2  0  0  0  0  0  0
    0.8779    3.6284   -1.5543 C   0  0  0  0  0  0  0  0  0  0  0  0
    0.8164    4.2997   -2.4155 H   0  0  0  0  0  0  0  0  0  0  0  0
    1.0375    3.8952   -0.2271 C   0  0  0  0  0  0  0  0  0  0  0  0
    1.1276    4.8419    0.3102 H   0  0  0  0  0  0  0  0  0  0  0  0
    0.6250    1.6181   -2.9942 C   0  0  0  0  0  0  0  0  0  0  0  0
    1.0604    0.6069   -2.9528 H   0  0  0  0  0  0  0  0  0  0  0  0
    1.1697    2.2302   -3.7387 H   0  0  0  0  0  0  0  0  0  0  0  0
   -0.4391    1.5186   -3.2771 H   0  0  0  0  0  0  0  0  0  0  0  0
    1.2113    2.5124    1.8228 C   0  0  0  0  0  0  0  0  0  0  0  0
    0.7173    1.6138    2.2189 H   0  0  0  0  0  0  0  0  0  0  0  0
    1.8765    3.3949    2.5897 C   0  0  0  0  0  0  0  0  0  0  0  0
    2.3629    4.2975    2.1898 H   0  0  0  0  0  0  0  0  0  0  0  0
    1.9404    3.2198    3.6722 H   0  0  0  0  0  0  0  0  0  0  0  0
    0.7631    2.2497   -1.6891 N   0  0  0  0  0  0  0  0  0  0  0  0
    1.0079    2.6684    0.4319 N   0  0  0  0  0  0  0  0  0  0  0  0
  1 16  1  0  0  0  0
  2  4  2  0  0  0  0
  3  2  1  0  0  0  0
  4  5  1  0  0  0  0
  4 16  1  0  0  0  0
  6  7  1  0  0  0  0
  6 15  1  0  0  0  0
  8  6  1  0  0  0  0
  9  6  1  0  0  0  0
 10 11  1  0  0  0  0
 10 12  2  0  0  0  0
 12 14  1  0  0  0  0
 13 12  1  0  0  0  0
 15  2  1  0  0  0  0
 15  1  1  0  0  0  0
 16 10  1  0  0  0  0
M  END
