3
 OpenBabel05122313113D

 51 55  0  0  0  0  0  0  0  0999 V2000
    1.1348    0.3928   -1.1428 N   0  0  0  0  0  0  0  0  0  0  0  0
   -0.8200   -0.4640   -1.6386 N   0  0  0  0  0  0  0  0  0  0  0  0
   -0.1643    0.3260   -0.7602 C   0  0  0  0  0  2  0  0  0  0  0  0
    0.0596   -1.0065   -2.6915 C   0  0  0  0  0  0  0  0  0  0  0  0
   -0.3650   -0.8237   -3.6982 H   0  0  0  0  0  0  0  0  0  0  0  0
    0.1676   -2.1065   -2.5641 H   0  0  0  0  0  0  0  0  0  0  0  0
    1.3780   -0.2532   -2.4493 C   0  0  0  0  0  0  0  0  0  0  0  0
    2.2575   -0.9243   -2.4068 H   0  0  0  0  0  0  0  0  0  0  0  0
    1.5693    0.5308   -3.2133 H   0  0  0  0  0  0  0  0  0  0  0  0
   -2.2268   -0.7052   -1.6313 C   0  0  0  0  0  0  0  0  0  0  0  0
   -2.9838   -0.1688   -2.6876 C   0  0  0  0  0  0  0  0  0  0  0  0
   -2.4713    0.4359   -3.4490 H   0  0  0  0  0  0  0  0  0  0  0  0
   -4.3700   -0.3472   -2.7372 C   0  0  0  0  0  0  0  0  0  0  0  0
   -4.9501    0.0875   -3.5644 H   0  0  0  0  0  0  0  0  0  0  0  0
   -5.0120   -1.0527   -1.7083 C   0  0  0  0  0  0  0  0  0  0  0  0
   -6.1025   -1.1970   -1.7297 H   0  0  0  0  0  0  0  0  0  0  0  0
   -4.2616   -1.5751   -0.6491 C   0  0  0  0  0  0  0  0  0  0  0  0
   -4.7641   -2.1445    0.1470 H   0  0  0  0  0  0  0  0  0  0  0  0
   -2.8569   -1.4272   -0.5861 C   0  0  0  0  0  0  0  0  0  0  0  0
   -2.1223   -2.0214    0.5608 C   0  0  0  0  0  0  0  0  0  0  0  0
   -2.6323   -1.8698    1.8697 C   0  0  0  0  0  0  0  0  0  0  0  0
   -3.5321   -1.2549    2.0213 H   0  0  0  0  0  0  0  0  0  0  0  0
   -1.9956   -2.4632    2.9684 C   0  0  0  0  0  0  0  0  0  0  0  0
   -2.4065   -2.3217    3.9797 H   0  0  0  0  0  0  0  0  0  0  0  0
   -0.8331   -3.2273    2.7812 C   0  0  0  0  0  0  0  0  0  0  0  0
   -0.3311   -3.6962    3.6407 H   0  0  0  0  0  0  0  0  0  0  0  0
   -0.3200   -3.3928    1.4848 C   0  0  0  0  0  0  0  0  0  0  0  0
    0.5766   -4.0102    1.3251 H   0  0  0  0  0  0  0  0  0  0  0  0
   -0.9536   -2.7944    0.3868 C   0  0  0  0  0  0  0  0  0  0  0  0
   -0.5509   -2.9534   -0.6238 H   0  0  0  0  0  0  0  0  0  0  0  0
    2.0853    1.2839   -0.5638 C   0  0  0  0  0  0  0  0  0  0  0  0
    1.7526    2.6469   -0.4387 C   0  0  0  0  0  0  0  0  0  0  0  0
    0.7621    2.9855   -0.7850 H   0  0  0  0  0  0  0  0  0  0  0  0
    2.6738    3.5449    0.1164 C   0  0  0  0  0  0  0  0  0  0  0  0
    2.4014    4.6059    0.2203 H   0  0  0  0  0  0  0  0  0  0  0  0
    3.9395    3.0904    0.5192 C   0  0  0  0  0  0  0  0  0  0  0  0
    4.6696    3.7908    0.9523 H   0  0  0  0  0  0  0  0  0  0  0  0
    4.2747    1.7379    0.3738 C   0  0  0  0  0  0  0  0  0  0  0  0
    5.2575    1.3746    0.7103 H   0  0  0  0  0  0  0  0  0  0  0  0
    3.3555    0.8042   -0.1542 C   0  0  0  0  0  0  0  0  0  0  0  0
    3.7319   -0.6312   -0.2504 C   0  0  0  0  0  0  0  0  0  0  0  0
    2.8879   -1.6493    0.2513 C   0  0  0  0  0  0  0  0  0  0  0  0
    1.9320   -1.3797    0.7243 H   0  0  0  0  0  0  0  0  0  0  0  0
    3.2695   -2.9948    0.1585 C   0  0  0  0  0  0  0  0  0  0  0  0
    2.6081   -3.7756    0.5631 H   0  0  0  0  0  0  0  0  0  0  0  0
    4.4922   -3.3525   -0.4331 C   0  0  0  0  0  0  0  0  0  0  0  0
    4.7843   -4.4111   -0.5042 H   0  0  0  0  0  0  0  0  0  0  0  0
    5.3402   -2.3499   -0.9279 C   0  0  0  0  0  0  0  0  0  0  0  0
    6.3006   -2.6180   -1.3939 H   0  0  0  0  0  0  0  0  0  0  0  0
    4.9632   -1.0022   -0.8353 C   0  0  0  0  0  0  0  0  0  0  0  0
    5.6220   -0.2177   -1.2383 H   0  0  0  0  0  0  0  0  0  0  0  0
  1  3  1  0  0  0  0
  1 31  1  0  0  0  0
  2 10  1  0  0  0  0
  2  3  1  0  0  0  0
  4  6  1  0  0  0  0
  4  7  1  0  0  0  0
  4  2  1  0  0  0  0
  5  4  1  0  0  0  0
  7  8  1  0  0  0  0
  7  1  1  0  0  0  0
  9  7  1  0  0  0  0
 10 19  1  0  0  0  0
 11 10  2  0  0  0  0
 12 11  1  0  0  0  0
 13 11  1  0  0  0  0
 13 15  2  0  0  0  0
 14 13  1  0  0  0  0
 15 17  1  0  0  0  0
 16 15  1  0  0  0  0
 17 19  2  0  0  0  0
 17 18  1  0  0  0  0
 19 20  1  0  0  0  0
 20 21  1  0  0  0  0
 21 22  1  0  0  0  0
 21 23  2  0  0  0  0
 23 24  1  0  0  0  0
 25 23  1  0  0  0  0
 25 26  1  0  0  0  0
 27 25  2  0  0  0  0
 28 27  1  0  0  0  0
 29 20  2  0  0  0  0
 29 27  1  0  0  0  0
 30 29  1  0  0  0  0
 31 32  2  0  0  0  0
 31 40  1  0  0  0  0
 32 34  1  0  0  0  0
 33 32  1  0  0  0  0
 34 35  1  0  0  0  0
 34 36  2  0  0  0  0
 36 37  1  0  0  0  0
 38 36  1  0  0  0  0
 38 39  1  0  0  0  0
 40 38  2  0  0  0  0
 41 40  1  0  0  0  0
 41 42  1  0  0  0  0
 42 43  1  0  0  0  0
 44 42  2  0  0  0  0
 44 45  1  0  0  0  0
 46 44  1  0  0  0  0
 47 46  1  0  0  0  0
 48 50  1  0  0  0  0
 48 46  2  0  0  0  0
 49 48  1  0  0  0  0
 50 41  2  0  0  0  0
 51 50  1  0  0  0  0
M  END
