3
 OpenBabel05122313113D

 57 59  0  0  0  0  0  0  0  0999 V2000
   -2.8541    3.3166    0.3010 O   0  0  0  0  0  0  0  0  0  0  0  0
   -1.4242    1.5203    0.2332 N   0  0  0  0  0  0  0  0  0  0  0  0
   -0.1478    0.9550    0.1415 C   0  0  0  0  0  2  0  0  0  0  0  0
    0.8879    1.8118    0.3099 N   0  0  0  0  0  0  0  0  0  0  0  0
   -1.7149    2.9051    0.1538 C   0  0  0  0  0  0  0  0  0  0  0  0
   -0.5222    3.7923   -0.2034 C   0  0  0  0  0  0  0  0  0  0  0  0
    0.6967    3.2450    0.5467 C   0  0  0  0  0  0  0  0  0  0  0  0
    1.6176    3.7715    0.2245 H   0  0  0  0  0  0  0  0  0  0  0  0
    0.5814    3.4284    1.6407 H   0  0  0  0  0  0  0  0  0  0  0  0
   -0.3363    3.7201   -1.7355 C   0  0  0  0  0  0  0  0  0  0  0  0
   -1.2483    4.0929   -2.2416 H   0  0  0  0  0  0  0  0  0  0  0  0
   -0.1425    2.6888   -2.0921 H   0  0  0  0  0  0  0  0  0  0  0  0
    0.5131    4.3655   -2.0400 H   0  0  0  0  0  0  0  0  0  0  0  0
   -0.8015    5.2315    0.2414 C   0  0  0  0  0  0  0  0  0  0  0  0
   -0.9339    5.2980    1.3401 H   0  0  0  0  0  0  0  0  0  0  0  0
   -1.7319    5.6008   -0.2280 H   0  0  0  0  0  0  0  0  0  0  0  0
    0.0367    5.8941   -0.0532 H   0  0  0  0  0  0  0  0  0  0  0  0
    2.2298    1.2908    0.4921 C   0  0  0  0  0  0  0  0  0  0  0  0
    2.6286    0.9080    1.7969 C   0  0  0  0  0  0  0  0  0  0  0  0
    3.9032    0.3399    1.9686 C   0  0  0  0  0  0  0  0  0  0  0  0
    4.2037    0.0111    2.9767 H   0  0  0  0  0  0  0  0  0  0  0  0
    4.8004    0.1903    0.8975 C   0  0  0  0  0  0  0  0  0  0  0  0
    4.4147    0.6963   -0.3570 C   0  0  0  0  0  0  0  0  0  0  0  0
    5.1246    0.6494   -1.1984 H   0  0  0  0  0  0  0  0  0  0  0  0
    3.1507    1.2696   -0.5860 C   0  0  0  0  0  0  0  0  0  0  0  0
    2.8225    1.8497   -1.9312 C   0  0  0  0  0  0  0  0  0  0  0  0
    1.9832    1.3031   -2.4123 H   0  0  0  0  0  0  0  0  0  0  0  0
    3.7028    1.8067   -2.5999 H   0  0  0  0  0  0  0  0  0  0  0  0
    2.5093    2.9107   -1.8520 H   0  0  0  0  0  0  0  0  0  0  0  0
    6.1316   -0.4920    1.0835 C   0  0  0  0  0  0  0  0  0  0  0  0
    6.0575   -1.5722    0.8312 H   0  0  0  0  0  0  0  0  0  0  0  0
    6.4856   -0.4247    2.1309 H   0  0  0  0  0  0  0  0  0  0  0  0
    6.9098   -0.0590    0.4242 H   0  0  0  0  0  0  0  0  0  0  0  0
    1.7526    1.1475    3.0009 C   0  0  0  0  0  0  0  0  0  0  0  0
    1.9768    0.4272    3.8111 H   0  0  0  0  0  0  0  0  0  0  0  0
    0.6764    1.0731    2.7630 H   0  0  0  0  0  0  0  0  0  0  0  0
    1.9252    2.1643    3.4156 H   0  0  0  0  0  0  0  0  0  0  0  0
   -2.5668    0.6390    0.4098 C   0  0  0  0  0  0  0  0  0  0  0  0
   -2.8776    0.2123    1.7200 C   0  0  0  0  0  0  0  0  0  0  0  0
   -3.9482   -0.6819    1.8946 C   0  0  0  0  0  0  0  0  0  0  0  0
   -4.1864   -1.0313    2.9122 H   0  0  0  0  0  0  0  0  0  0  0  0
   -4.7221   -1.1303    0.8095 C   0  0  0  0  0  0  0  0  0  0  0  0
   -4.4408   -0.6031   -0.4633 C   0  0  0  0  0  0  0  0  0  0  0  0
   -5.0736   -0.8913   -1.3181 H   0  0  0  0  0  0  0  0  0  0  0  0
   -3.3887    0.3033   -0.6902 C   0  0  0  0  0  0  0  0  0  0  0  0
   -3.2032    0.9351   -2.0396 C   0  0  0  0  0  0  0  0  0  0  0  0
   -3.8934    0.4895   -2.7806 H   0  0  0  0  0  0  0  0  0  0  0  0
   -2.1661    0.8132   -2.4131 H   0  0  0  0  0  0  0  0  0  0  0  0
   -3.4218    2.0220   -1.9800 H   0  0  0  0  0  0  0  0  0  0  0  0
   -5.8205   -2.1442    1.0059 C   0  0  0  0  0  0  0  0  0  0  0  0
   -6.2668   -2.0747    2.0176 H   0  0  0  0  0  0  0  0  0  0  0  0
   -5.4278   -3.1781    0.8930 H   0  0  0  0  0  0  0  0  0  0  0  0
   -6.6299   -2.0209    0.2596 H   0  0  0  0  0  0  0  0  0  0  0  0
   -2.0975    0.7063    2.9105 C   0  0  0  0  0  0  0  0  0  0  0  0
   -1.9520    1.8047    2.8748 H   0  0  0  0  0  0  0  0  0  0  0  0
   -1.0895    0.2437    2.9628 H   0  0  0  0  0  0  0  0  0  0  0  0
   -2.6203    0.4590    3.8535 H   0  0  0  0  0  0  0  0  0  0  0  0
  2 38  1  0  0  0  0
  3  2  1  0  0  0  0
  3  4  1  0  0  0  0
  4 18  1  0  0  0  0
  4  7  1  0  0  0  0
  5  2  1  0  0  0  0
  5  1  2  0  0  0  0
  6  5  1  0  0  0  0
  6 14  1  0  0  0  0
  6  7  1  0  0  0  0
  7  9  1  0  0  0  0
  8  7  1  0  0  0  0
 10  6  1  0  0  0  0
 11 10  1  0  0  0  0
 12 10  1  0  0  0  0
 13 10  1  0  0  0  0
 14 15  1  0  0  0  0
 16 14  1  0  0  0  0
 17 14  1  0  0  0  0
 18 19  1  0  0  0  0
 19 20  2  0  0  0  0
 19 34  1  0  0  0  0
 20 21  1  0  0  0  0
 22 30  1  0  0  0  0
 22 20  1  0  0  0  0
 23 22  2  0  0  0  0
 24 23  1  0  0  0  0
 25 23  1  0  0  0  0
 25 18  2  0  0  0  0
 26 29  1  0  0  0  0
 26 25  1  0  0  0  0
 27 26  1  0  0  0  0
 28 26  1  0  0  0  0
 30 32  1  0  0  0  0
 31 30  1  0  0  0  0
 33 30  1  0  0  0  0
 34 37  1  0  0  0  0
 34 35  1  0  0  0  0
 36 34  1  0  0  0  0
 38 39  1  0  0  0  0
 39 40  2  0  0  0  0
 39 54  1  0  0  0  0
 40 41  1  0  0  0  0
 42 50  1  0  0  0  0
 42 40  1  0  0  0  0
 43 42  2  0  0  0  0
 44 43  1  0  0  0  0
 45 43  1  0  0  0  0
 45 38  2  0  0  0  0
 46 49  1  0  0  0  0
 46 45  1  0  0  0  0
 47 46  1  0  0  0  0
 48 46  1  0  0  0  0
 50 51  1  0  0  0  0
 52 50  1  0  0  0  0
 53 50  1  0  0  0  0
 54 56  1  0  0  0  0
 54 57  1  0  0  0  0
 55 54  1  0  0  0  0
M  END
