1
 OpenBabel05122313113D

 54 54  0  0  0  0  0  0  0  0999 V2000
    6.3088   -0.0272   -0.0438 C   0  0  0  0  0  1  0  0  0  0  0  0
    3.8550   -0.7340   -0.2152 C   0  0  0  0  0  0  0  0  0  0  0  0
    2.8373    0.1283    0.2417 C   0  0  0  0  0  0  0  0  0  0  0  0
    3.1091    1.1039    0.6688 H   0  0  0  0  0  0  0  0  0  0  0  0
    1.4958   -0.2559    0.1516 C   0  0  0  0  0  0  0  0  0  0  0  0
    0.7200    0.4309    0.5133 H   0  0  0  0  0  0  0  0  0  0  0  0
    1.1554   -1.5130   -0.3990 C   0  0  0  0  0  0  0  0  0  0  0  0
    2.1831   -2.3736   -0.8565 C   0  0  0  0  0  0  0  0  0  0  0  0
    1.8963   -3.3459   -1.2812 H   0  0  0  0  0  0  0  0  0  0  0  0
    3.5179   -1.9935   -0.7679 C   0  0  0  0  0  0  0  0  0  0  0  0
    4.3171   -2.6596   -1.1218 H   0  0  0  0  0  0  0  0  0  0  0  0
   -1.1998   -1.1674   -0.0876 C   0  0  0  0  0  0  0  0  0  0  0  0
   -1.1953   -0.1963   -0.6353 H   0  0  0  0  0  0  0  0  0  0  0  0
   -1.0855   -0.9394    0.9977 H   0  0  0  0  0  0  0  0  0  0  0  0
   -2.4899   -1.9269   -0.3464 C   0  0  0  0  0  0  0  0  0  0  0  0
   -2.4406   -2.9018    0.1844 H   0  0  0  0  0  0  0  0  0  0  0  0
   -2.5510   -2.1648   -1.4301 H   0  0  0  0  0  0  0  0  0  0  0  0
   -3.7307   -1.1464    0.0944 C   0  0  0  0  0  0  0  0  0  0  0  0
   -3.7621   -0.1662   -0.4330 H   0  0  0  0  0  0  0  0  0  0  0  0
   -3.6514   -0.9014    1.1779 H   0  0  0  0  0  0  0  0  0  0  0  0
   -5.0427   -1.8942   -0.1583 C   0  0  0  0  0  0  0  0  0  0  0  0
   -5.0177   -2.8735    0.3708 H   0  0  0  0  0  0  0  0  0  0  0  0
   -5.1236   -2.1413   -1.2408 H   0  0  0  0  0  0  0  0  0  0  0  0
   -6.2875   -1.1130    0.2744 C   0  0  0  0  0  0  0  0  0  0  0  0
   -6.3089   -0.1337   -0.2532 H   0  0  0  0  0  0  0  0  0  0  0  0
   -6.1997   -0.8652    1.3566 H   0  0  0  0  0  0  0  0  0  0  0  0
   -7.6092   -1.8491    0.0152 C   0  0  0  0  0  0  0  0  0  0  0  0
   -7.6357   -2.8132    0.5720 H   0  0  0  0  0  0  0  0  0  0  0  0
   -7.6854   -2.1212   -1.0617 H   0  0  0  0  0  0  0  0  0  0  0  0
  -10.7131   -1.7727   -0.0589 C   0  0  0  0  0  0  0  0  0  0  0  0
  -11.6215   -1.1837    0.1828 H   0  0  0  0  0  0  0  0  0  0  0  0
  -10.7930   -2.7497    0.4613 H   0  0  0  0  0  0  0  0  0  0  0  0
  -10.7133   -1.9654   -1.1511 H   0  0  0  0  0  0  0  0  0  0  0  0
   -9.2010   -0.4638    2.3065 C   0  0  0  0  0  0  0  0  0  0  0  0
   -8.3087    0.1148    2.6213 H   0  0  0  0  0  0  0  0  0  0  0  0
   -9.2316   -1.3968    2.9066 H   0  0  0  0  0  0  0  0  0  0  0  0
  -10.1002    0.1317    2.5676 H   0  0  0  0  0  0  0  0  0  0  0  0
   -8.7211    3.1419    0.9355 C   0  0  0  0  0  0  0  0  0  0  0  0
   -8.9106    2.7183    1.9429 H   0  0  0  0  0  0  0  0  0  0  0  0
   -9.0439    4.2036    0.9468 H   0  0  0  0  0  0  0  0  0  0  0  0
   -7.6263    3.1203    0.7577 H   0  0  0  0  0  0  0  0  0  0  0  0
   -9.3041    2.8935   -2.0992 C   0  0  0  0  0  0  0  0  0  0  0  0
   -8.2192    2.8813   -2.3292 H   0  0  0  0  0  0  0  0  0  0  0  0
   -9.6558    3.9440   -2.1605 H   0  0  0  0  0  0  0  0  0  0  0  0
   -9.8243    2.3104   -2.8860 H   0  0  0  0  0  0  0  0  0  0  0  0
  -11.4855    2.1292   -0.0285 C   0  0  0  0  0  0  0  0  0  0  0  0
  -12.0278    1.5201   -0.7805 H   0  0  0  0  0  0  0  0  0  0  0  0
  -11.9169    3.1516   -0.0438 H   0  0  0  0  0  0  0  0  0  0  0  0
  -11.6887    1.6949    0.9724 H   0  0  0  0  0  0  0  0  0  0  0  0
    5.1725   -0.3535   -0.1238 N   0  0  0  0  0  2  0  0  0  0  0  0
   -0.1056   -1.9764   -0.5291 O   0  0  0  0  0  0  0  0  0  0  0  0
   -9.0354    0.5860   -0.4208 O   0  0  0  0  0  0  0  0  0  0  0  0
   -9.1523   -0.8487    0.4559 Si  0  0  0  0  0  0  0  0  0  0  0  0
   -9.6326    2.1628   -0.3965 Si  0  0  0  0  0  0  0  0  0  0  0  0
  2 50  1  0  0  0  0
  2  3  1  0  0  0  0
  3  4  1  0  0  0  0
  5  3  2  0  0  0  0
  5  6  1  0  0  0  0
  7  5  1  0  0  0  0
  8 10  1  0  0  0  0
  8  7  2  0  0  0  0
  9  8  1  0  0  0  0
 10  2  2  0  0  0  0
 11 10  1  0  0  0  0
 12 14  1  0  0  0  0
 13 12  1  0  0  0  0
 15 12  1  0  0  0  0
 15 18  1  0  0  0  0
 15 16  1  0  0  0  0
 17 15  1  0  0  0  0
 18 20  1  0  0  0  0
 19 18  1  0  0  0  0
 21 18  1  0  0  0  0
 21 24  1  0  0  0  0
 21 22  1  0  0  0  0
 23 21  1  0  0  0  0
 24 26  1  0  0  0  0
 25 24  1  0  0  0  0
 27 24  1  0  0  0  0
 27 53  1  0  0  0  0
 27 28  1  0  0  0  0
 29 27  1  0  0  0  0
 30 31  1  0  0  0  0
 30 53  1  0  0  0  0
 30 32  1  0  0  0  0
 33 30  1  0  0  0  0
 34 37  1  0  0  0  0
 34 35  1  0  0  0  0
 34 36  1  0  0  0  0
 38 40  1  0  0  0  0
 38 39  1  0  0  0  0
 41 38  1  0  0  0  0
 42 54  1  0  0  0  0
 43 42  1  0  0  0  0
 44 42  1  0  0  0  0
 45 42  1  0  0  0  0
 46 49  1  0  0  0  0
 47 46  1  0  0  0  0
 48 46  1  0  0  0  0
 50  1  1  0  0  0  0
 51  7  1  0  0  0  0
 51 12  1  0  0  0  0
 52 54  1  0  0  0  0
 52 53  1  0  0  0  0
 53 34  1  0  0  0  0
 54 46  1  0  0  0  0
 54 38  1  0  0  0  0
M  END
