8
 OpenBabel05122313113D

 27 27  0  0  1  0  0  0  0  0999 V2000
   -3.3587   -0.2905   -1.6604 O   0  0  0  0  0  0  0  0  0  0  0  0
    3.8586   -0.4144   -0.9458 O   0  0  0  0  0  0  0  0  0  0  0  0
    3.1530   -2.2482    0.1985 O   0  0  0  0  0  0  0  0  0  0  0  0
   -4.2311   -1.1699   -1.0431 N   0  0  0  0  0  0  0  0  0  0  0  0
    4.5214   -2.5399    0.5029 C   0  0  0  0  0  0  0  0  0  0  0  0
    2.9536   -1.1283   -0.5424 C   0  0  0  0  0  0  0  0  0  0  0  0
    1.5049   -0.9016   -0.7754 C   0  0  0  0  0  3  0  0  0  0  0  0
    1.1167    0.0717   -1.7586 C   0  0  0  0  0  3  0  0  0  0  0  0
   -0.2485    0.4646   -1.7809 C   0  0  0  0  0  3  0  0  0  0  0  0
   -1.1217   -0.1178   -0.8003 C   0  0  0  0  0  3  0  0  0  0  0  0
   -2.5298    0.3925   -0.6435 C   0  0  2  0  0  0  0  0  0  0  0  0
   -3.2033    0.0324    0.6898 C   0  0  0  0  0  0  0  0  0  0  0  0
   -4.1765   -1.0356    0.2418 C   0  0  0  0  0  0  0  0  0  0  0  0
   -5.0274   -1.8502    1.1565 C   0  0  0  0  0  0  0  0  0  0  0  0
    4.5098   -3.4491    1.1297 H   0  0  0  0  0  0  0  0  0  0  0  0
    5.1036   -2.7165   -0.4242 H   0  0  0  0  0  0  0  0  0  0  0  0
    4.9921   -1.6971    1.0488 H   0  0  0  0  0  0  0  0  0  0  0  0
    0.8616   -1.7661   -0.5542 H   0  0  0  0  0  0  0  0  0  0  0  0
    1.8782    0.5668   -2.3803 H   0  0  0  0  0  0  0  0  0  0  0  0
   -0.5814    1.2858   -2.4355 H   0  0  0  0  0  0  0  0  0  0  0  0
   -1.0343   -1.1993   -0.5967 H   0  0  0  0  0  0  0  0  0  0  0  0
   -2.5856    1.4751   -0.8759 H   0  0  0  0  0  0  0  0  0  0  0  0
   -3.7416    0.8869    1.1534 H   0  0  0  0  0  0  0  0  0  0  0  0
   -2.4853   -0.3442    1.4467 H   0  0  0  0  0  0  0  0  0  0  0  0
   -5.6757   -1.1987    1.7808 H   0  0  0  0  0  0  0  0  0  0  0  0
   -5.6671   -2.5368    0.5720 H   0  0  0  0  0  0  0  0  0  0  0  0
   -4.4047   -2.4469    1.8567 H   0  0  0  0  0  0  0  0  0  0  0  0
  1  4  1  0  0  0  0
  1 11  1  0  0  0  0
  2  6  2  0  0  0  0
  3  5  1  0  0  0  0
  4 13  2  0  0  0  0
  5 17  1  0  0  0  0
  5 15  1  0  0  0  0
  6  3  1  0  0  0  0
  7 18  1  0  0  0  0
  7  6  1  0  0  0  0
  8  7  1  0  0  0  0
  9  8  1  0  0  0  0
  9 10  1  0  0  0  0
 10 11  1  0  0  0  0
 10 21  1  0  0  0  0
 11 22  1  6  0  0  0
 11 12  1  0  0  0  0
 12 23  1  0  0  0  0
 12 24  1  0  0  0  0
 13 12  1  0  0  0  0
 13 14  1  0  0  0  0
 14 25  1  0  0  0  0
 14 27  1  0  0  0  0
 16  5  1  0  0  0  0
 19  8  1  0  0  0  0
 20  9  1  0  0  0  0
 26 14  1  0  0  0  0
M  END
