2
 OpenBabel05122313113D

 26 27  0  0  0  0  0  0  0  0999 V2000
    1.2869    0.3440    2.0233 N   0  0  0  0  0  4  0  0  0  0  0  0
    1.5735    0.1447   -0.9579 C   0  0  0  0  0  3  0  0  0  0  0  0
    1.8319    0.1034   -2.3338 C   0  0  0  0  0  0  0  0  0  0  0  0
    3.0437    0.5675   -2.8990 C   0  0  0  0  0  0  0  0  0  0  0  0
    4.0365    1.0928   -2.0889 C   0  0  0  0  0  0  0  0  0  0  0  0
    3.8454    1.1641   -0.6813 C   0  0  0  0  0  0  0  0  0  0  0  0
    4.8710    1.7032    0.1493 C   0  0  0  0  0  0  0  0  0  0  0  0
    4.7221    1.7884    1.5222 C   0  0  0  0  0  0  0  0  0  0  0  0
    3.5232    1.3287    2.1171 C   0  0  0  0  0  0  0  0  0  0  0  0
    2.5075    0.7998    1.3326 C   0  0  0  0  0  0  0  0  0  0  0  0
    2.6009    0.6844   -0.0974 C   0  0  0  0  0  0  0  0  0  0  0  0
    1.5073   -0.8439    2.8864 C   0  0  0  0  0  0  0  0  0  0  0  0
    0.5352    1.4421    2.6788 C   0  0  0  0  0  0  0  0  0  0  0  0
    0.6010   -0.0197    1.1750 H   0  0  0  0  0  0  0  0  0  0  0  0
    1.0634   -0.3085   -3.0051 H   0  0  0  0  0  0  0  0  0  0  0  0
    3.1906    0.5077   -3.9886 H   0  0  0  0  0  0  0  0  0  0  0  0
    4.9836    1.4595   -2.5129 H   0  0  0  0  0  0  0  0  0  0  0  0
    5.7971    2.0536   -0.3324 H   0  0  0  0  0  0  0  0  0  0  0  0
    5.5209    2.2052    2.1527 H   0  0  0  0  0  0  0  0  0  0  0  0
    3.4017    1.3917    3.2090 H   0  0  0  0  0  0  0  0  0  0  0  0
    2.2402   -0.6135    3.6823 H   0  0  0  0  0  0  0  0  0  0  0  0
    1.8587   -1.6728    2.2413 H   0  0  0  0  0  0  0  0  0  0  0  0
    0.5389   -1.1357    3.3349 H   0  0  0  0  0  0  0  0  0  0  0  0
    1.1065    1.8528    3.5326 H   0  0  0  0  0  0  0  0  0  0  0  0
   -0.4355    1.0429    3.0298 H   0  0  0  0  0  0  0  0  0  0  0  0
    0.3448    2.2296    1.9270 H   0  0  0  0  0  0  0  0  0  0  0  0
  1 13  1  0  0  0  0
  1 12  1  0  0  0  0
  2 11  1  0  0  0  0
  3  2  2  0  0  0  0
  4  3  1  0  0  0  0
  4  5  2  0  0  0  0
  5  6  1  0  0  0  0
  6 11  2  0  0  0  0
  6  7  1  0  0  0  0
  7  8  2  0  0  0  0
  8  9  1  0  0  0  0
  8 19  1  0  0  0  0
  9 20  1  0  0  0  0
 10  1  1  0  0  0  0
 10  9  2  0  0  0  0
 11 10  1  0  0  0  0
 12 23  1  0  0  0  0
 12 21  1  0  0  0  0
 13 25  1  0  0  0  0
 13 24  1  0  0  0  0
 14  1  1  0  0  0  0
 15  3  1  0  0  0  0
 16  4  1  0  0  0  0
 17  5  1  0  0  0  0
 18  7  1  0  0  0  0
 22 12  1  0  0  0  0
 26 13  1  0  0  0  0
M  END
