2
 OpenBabel05122313113D

 17 18  0  0  1  0  0  0  0  0999 V2000
   -3.2003   -0.9174    3.8604 N   0  0  0  0  0  0  0  0  0  0  0  0
   -1.2806    0.0395    0.9726 C   0  0  0  0  0  3  0  0  0  0  0  0
   -2.5366    0.5262    1.7767 C   0  0  2  0  0  0  0  0  0  0  0  0
   -2.7252    1.6177    1.8734 H   0  0  0  0  0  0  0  0  0  0  0  0
   -2.9370   -0.2462    2.9296 C   0  0  0  0  0  0  0  0  0  0  0  0
   -2.4893   -0.1277    0.4272 C   0  0  0  0  0  0  0  0  0  0  0  0
   -3.4216   -0.4797   -0.6128 C   0  0  0  0  0  0  0  0  0  0  0  0
   -4.7526    0.0095   -0.5508 C   0  0  0  0  0  0  0  0  0  0  0  0
   -5.0464    0.6244    0.3136 H   0  0  0  0  0  0  0  0  0  0  0  0
   -5.6730   -0.2828   -1.5638 C   0  0  0  0  0  0  0  0  0  0  0  0
   -6.6998    0.1091   -1.4962 H   0  0  0  0  0  0  0  0  0  0  0  0
   -5.2961   -1.0783   -2.6602 C   0  0  0  0  0  0  0  0  0  0  0  0
   -6.0226   -1.3114   -3.4532 H   0  0  0  0  0  0  0  0  0  0  0  0
   -3.9868   -1.5854   -2.7256 C   0  0  0  0  0  0  0  0  0  0  0  0
   -3.6863   -2.2281   -3.5679 H   0  0  0  0  0  0  0  0  0  0  0  0
   -3.0593   -1.2940   -1.7185 C   0  0  0  0  0  0  0  0  0  0  0  0
   -2.0515   -1.7284   -1.7596 H   0  0  0  0  0  0  0  0  0  0  0  0
  2  3  1  0  0  0  0
  3  4  1  1  0  0  0
  3  5  1  0  0  0  0
  5  1  3  0  0  0  0
  6  2  2  0  0  0  0
  6  3  1  0  0  0  0
  7  8  1  0  0  0  0
  7  6  1  0  0  0  0
  8  9  1  0  0  0  0
 10 11  1  0  0  0  0
 10  8  2  0  0  0  0
 12 10  1  0  0  0  0
 13 12  1  0  0  0  0
 14 12  2  0  0  0  0
 14 16  1  0  0  0  0
 15 14  1  0  0  0  0
 16  7  2  0  0  0  0
 17 16  1  0  0  0  0
M  END
