6
 OpenBabel05122313113D

 27 27  0  0  0  0  0  0  0  0999 V2000
    2.2914    0.2728   -0.0633 O   0  0  0  0  0  0  0  0  0  0  0  0
    3.1890   -0.7290   -0.6291 C   0  0  0  0  0  0  0  0  0  0  0  0
    4.1983   -0.6072   -0.1836 H   0  0  0  0  0  0  0  0  0  0  0  0
    3.2474   -0.5316   -1.7263 H   0  0  0  0  0  0  0  0  0  0  0  0
    2.5795   -2.0632   -0.3158 C   0  0  0  0  0  0  0  0  0  0  0  0
    1.1551   -2.0943   -0.2729 C   0  0  0  0  0  3  0  0  0  0  0  0
    0.5529   -3.3196    0.0960 C   0  0  0  0  0  0  0  0  0  0  0  0
   -0.5445   -3.3776    0.1790 H   0  0  0  0  0  0  0  0  0  0  0  0
    1.3249   -4.4595    0.3778 C   0  0  0  0  0  0  0  0  0  0  0  0
    0.8252   -5.4002    0.6604 H   0  0  0  0  0  0  0  0  0  0  0  0
    2.7282   -4.4064    0.3180 C   0  0  0  0  0  0  0  0  0  0  0  0
    3.3314   -5.2977    0.5474 H   0  0  0  0  0  0  0  0  0  0  0  0
    3.3549   -3.1950   -0.0176 C   0  0  0  0  0  0  0  0  0  0  0  0
    4.4558   -3.1316   -0.0385 H   0  0  0  0  0  0  0  0  0  0  0  0
    2.7319    1.6381   -0.1687 C   0  0  0  0  0  0  0  0  0  0  0  0
    1.8229    2.2435    0.0112 H   0  0  0  0  0  0  0  0  0  0  0  0
    3.0708    1.8256   -1.2110 H   0  0  0  0  0  0  0  0  0  0  0  0
    3.8071    1.9811    0.8573 C   0  0  0  0  0  0  0  0  0  0  0  0
    4.7398    1.4133    0.6470 H   0  0  0  0  0  0  0  0  0  0  0  0
    3.4481    1.6479    1.8537 H   0  0  0  0  0  0  0  0  0  0  0  0
    4.1252    3.4836    0.8994 C   0  0  0  0  0  0  0  0  0  0  0  0
    3.2013    4.0420    1.1692 H   0  0  0  0  0  0  0  0  0  0  0  0
    4.8382    3.6645    1.7312 H   0  0  0  0  0  0  0  0  0  0  0  0
    4.7072    4.0508   -0.3987 C   0  0  0  0  0  0  0  0  0  0  0  0
    5.6142    3.4920   -0.7122 H   0  0  0  0  0  0  0  0  0  0  0  0
    4.9965    5.1139   -0.2780 H   0  0  0  0  0  0  0  0  0  0  0  0
    3.9836    4.0050   -1.2387 H   0  0  0  0  0  0  0  0  0  0  0  0
  2  5  1  0  0  0  0
  2  3  1  0  0  0  0
  2  1  1  0  0  0  0
  4  2  1  0  0  0  0
  5  6  2  0  0  0  0
  5 13  1  0  0  0  0
  6  7  1  0  0  0  0
  7  8  1  0  0  0  0
  7  9  2  0  0  0  0
  9 10  1  0  0  0  0
 11  9  1  0  0  0  0
 11 12  1  0  0  0  0
 13 11  2  0  0  0  0
 14 13  1  0  0  0  0
 15  1  1  0  0  0  0
 15 16  1  0  0  0  0
 15 18  1  0  0  0  0
 17 15  1  0  0  0  0
 18 21  1  0  0  0  0
 18 20  1  0  0  0  0
 19 18  1  0  0  0  0
 21 22  1  0  0  0  0
 21 23  1  0  0  0  0
 24 26  1  0  0  0  0
 24 21  1  0  0  0  0
 25 24  1  0  0  0  0
 27 24  1  0  0  0  0
M  END
