4
 OpenBabel05122313113D

 31 33  0  0  1  0  0  0  0  0999 V2000
    1.5637    5.5800   -1.7534 F   0  0  0  0  0  0  0  0  0  0  0  0
    1.5932   -1.8926    0.3023 N   0  0  0  0  0  0  0  0  0  0  0  0
    3.2737   -0.5460   -0.1848 N   0  0  0  0  0  0  0  0  0  0  0  0
    1.0016   -0.6596    0.0150 C   0  0  0  0  0  3  0  0  0  0  0  0
    2.9782   -1.8228    0.1795 C   0  0  2  0  0  3  0  0  0  0  0  0
    2.0715    0.1818   -0.2919 C   0  0  0  0  0  0  0  0  0  0  0  0
    0.9735   -3.0679    0.6558 C   0  0  0  0  0  0  0  0  0  0  0  0
   -0.1214   -3.0056    0.7188 H   0  0  0  0  0  0  0  0  0  0  0  0
    1.7359   -4.1952    0.8815 C   0  0  0  0  0  0  0  0  0  0  0  0
    1.2309   -5.1292    1.1616 H   0  0  0  0  0  0  0  0  0  0  0  0
    3.1509   -4.1465    0.7474 C   0  0  0  0  0  0  0  0  0  0  0  0
    3.7506   -5.0505    0.9240 H   0  0  0  0  0  0  0  0  0  0  0  0
    3.7817   -2.9564    0.3948 C   0  0  0  0  0  0  0  0  0  0  0  0
    4.8720   -2.8889    0.2865 H   0  0  0  0  0  0  0  0  0  0  0  0
    4.6277   -0.0851   -0.4853 C   0  0  0  0  0  0  0  0  0  0  0  0
    4.5231    0.8358   -1.0900 H   0  0  0  0  0  0  0  0  0  0  0  0
    5.1059   -0.8447   -1.1390 H   0  0  0  0  0  0  0  0  0  0  0  0
    5.4766    0.1683    0.7597 C   0  0  0  0  0  0  0  0  0  0  0  0
    5.6049   -0.7519    1.3630 H   0  0  0  0  0  0  0  0  0  0  0  0
    5.0160    0.9342    1.4138 H   0  0  0  0  0  0  0  0  0  0  0  0
    6.4825    0.5265    0.4640 H   0  0  0  0  0  0  0  0  0  0  0  0
    1.9946    1.5944   -0.6810 C   0  0  0  0  0  0  0  0  0  0  0  0
    2.8169    2.5899   -0.1054 C   0  0  0  0  0  0  0  0  0  0  0  0
    3.5460    2.3211    0.6718 H   0  0  0  0  0  0  0  0  0  0  0  0
    2.6793    3.9355   -0.4672 C   0  0  0  0  0  0  0  0  0  0  0  0
    3.3027    4.7203   -0.0160 H   0  0  0  0  0  0  0  0  0  0  0  0
    1.7016    4.2880   -1.4055 C   0  0  0  0  0  0  0  0  0  0  0  0
    0.8628    3.3278   -1.9856 C   0  0  0  0  0  0  0  0  0  0  0  0
    0.1057    3.6417   -2.7183 H   0  0  0  0  0  0  0  0  0  0  0  0
    1.0117    1.9855   -1.6220 C   0  0  0  0  0  0  0  0  0  0  0  0
    0.3636    1.2162   -2.0697 H   0  0  0  0  0  0  0  0  0  0  0  0
  1 27  1  0  0  0  0
  2  7  1  0  0  0  0
  3  5  1  0  0  0  0
  4  2  1  0  0  0  0
  5  2  1  0  0  0  0
  5 13  1  6  0  0  0
  6  3  1  0  0  0  0
  6  4  2  0  0  0  0
  7  8  1  0  0  0  0
  7  9  2  0  0  0  0
  9 10  1  0  0  0  0
 11  9  1  0  0  0  0
 11 12  1  0  0  0  0
 13 11  2  0  0  0  0
 14 13  1  0  0  0  0
 15  3  1  0  0  0  0
 15 18  1  0  0  0  0
 16 15  1  0  0  0  0
 17 15  1  0  0  0  0
 18 19  1  0  0  0  0
 18 20  1  0  0  0  0
 21 18  1  0  0  0  0
 22  6  1  0  0  0  0
 22 23  1  0  0  0  0
 23 24  1  0  0  0  0
 25 23  2  0  0  0  0
 25 26  1  0  0  0  0
 27 25  1  0  0  0  0
 28 30  1  0  0  0  0
 28 27  2  0  0  0  0
 29 28  1  0  0  0  0
 30 22  2  0  0  0  0
 31 30  1  0  0  0  0
M  END
