2
 OpenBabel05122313113D

 15 14  0  0  0  0  0  0  0  0999 V2000
    1.8055    0.2355   -1.2075 S   0  0  0  0  0  1  0  0  0  0  0  0
    0.7483    0.4021    1.8067 C   0  0  0  0  0  3  0  0  0  0  0  0
    2.0826    0.2517    2.0592 C   0  0  0  0  0  0  0  0  0  0  0  0
    3.1918   -0.0512    1.1770 C   0  0  0  0  0  0  0  0  0  0  0  0
    3.2039   -0.0760   -0.1911 C   0  0  0  0  0  0  0  0  0  0  0  0
   -0.1596    0.8260    2.9351 C   0  0  0  0  0  0  0  0  0  0  0  0
    4.4586   -0.3742   -0.9730 C   0  0  0  0  0  0  0  0  0  0  0  0
    2.3841    0.3881    3.1186 H   0  0  0  0  0  0  0  0  0  0  0  0
    4.1563   -0.2570    1.6732 H   0  0  0  0  0  0  0  0  0  0  0  0
    0.3780    0.8546    3.9093 H   0  0  0  0  0  0  0  0  0  0  0  0
   -0.5814    1.8435    2.7718 H   0  0  0  0  0  0  0  0  0  0  0  0
   -1.0392    0.1599    3.0513 H   0  0  0  0  0  0  0  0  0  0  0  0
    4.3485   -1.3037   -1.5730 H   0  0  0  0  0  0  0  0  0  0  0  0
    4.6881    0.4383   -1.6957 H   0  0  0  0  0  0  0  0  0  0  0  0
    5.3286   -0.4933   -0.2967 H   0  0  0  0  0  0  0  0  0  0  0  0
  1  5  1  0  0  0  0
  2  3  2  0  0  0  0
  2  6  1  0  0  0  0
  3  8  1  0  0  0  0
  4  9  1  0  0  0  0
  4  3  1  0  0  0  0
  5  4  2  0  0  0  0
  6 12  1  0  0  0  0
  6 10  1  0  0  0  0
  7 15  1  0  0  0  0
  7  5  1  0  0  0  0
 11  6  1  0  0  0  0
 13  7  1  0  0  0  0
 14  7  1  0  0  0  0
M  END
