1
 OpenBabel05122313113D

 19 19  0  0  0  0  0  0  0  0999 V2000
    2.0200   -0.5735   -0.0003 C   0  0  0  0  0  2  0  0  0  0  0  0
    2.6067   -1.7648    0.0002 N   0  0  0  0  0  0  0  0  0  0  0  0
    3.6523   -1.7579    0.0001 H   0  0  0  0  0  0  0  0  0  0  0  0
    1.8860   -3.0224    0.0013 C   0  0  0  0  0  0  0  0  0  0  0  0
    0.7972   -2.8179    0.0013 H   0  0  0  0  0  0  0  0  0  0  0  0
    2.1424   -3.6179    0.9018 H   0  0  0  0  0  0  0  0  0  0  0  0
    2.1422   -3.6194   -0.8982 H   0  0  0  0  0  0  0  0  0  0  0  0
    2.8497    0.5284   -0.0010 N   0  0  0  0  0  0  0  0  0  0  0  0
    2.3440    1.4153   -0.0014 H   0  0  0  0  0  0  0  0  0  0  0  0
    4.2431    0.6344   -0.0005 C   0  0  0  0  0  0  0  0  0  0  0  0
    4.8377    1.9206   -0.0004 C   0  0  0  0  0  0  0  0  0  0  0  0
    4.2096    2.8240   -0.0007 H   0  0  0  0  0  0  0  0  0  0  0  0
    6.2290    2.0061    0.0000 C   0  0  0  0  0  0  0  0  0  0  0  0
    6.7184    2.9916    0.0001 H   0  0  0  0  0  0  0  0  0  0  0  0
    6.9951    0.8254    0.0004 C   0  0  0  0  0  0  0  0  0  0  0  0
    8.0936    0.8537    0.0007 H   0  0  0  0  0  0  0  0  0  0  0  0
    6.3154   -0.3964    0.0003 C   0  0  0  0  0  0  0  0  0  0  0  0
    6.8698   -1.3500    0.0006 H   0  0  0  0  0  0  0  0  0  0  0  0
    4.9742   -0.4971   -0.0002 N   0  0  0  0  0  0  0  0  0  0  0  0
  1  2  1  0  0  0  0
  2  4  1  0  0  0  0
  3  2  1  0  0  0  0
  4  6  1  0  0  0  0
  5  4  1  0  0  0  0
  7  4  1  0  0  0  0
  8 10  1  0  0  0  0
  8  1  1  0  0  0  0
  9  8  1  0  0  0  0
 10 11  2  0  0  0  0
 10 19  1  0  0  0  0
 11 13  1  0  0  0  0
 12 11  1  0  0  0  0
 13 14  1  0  0  0  0
 13 15  2  0  0  0  0
 15 16  1  0  0  0  0
 17 15  1  0  0  0  0
 17 18  1  0  0  0  0
 19 17  2  0  0  0  0
M  END
