1
 OpenBabel05122313113D

 67 69  0  0  1  0  0  0  0  0999 V2000
    0.5674   -0.6118   -0.9138 C   0  0  0  0  0  2  0  0  0  0  0  0
    0.5167    0.4534   -0.0778 N   0  0  0  0  0  0  0  0  0  0  0  0
    1.8239    1.1442    0.0301 C   0  0  1  0  0  0  0  0  0  0  0  0
    2.0466    1.3129    1.1027 H   0  0  0  0  0  0  0  0  0  0  0  0
    2.7925    0.0916   -0.5788 C   0  0  2  0  0  0  0  0  0  0  0  0
    3.4811    0.5821   -1.2989 H   0  0  0  0  0  0  0  0  0  0  0  0
    1.8469   -0.7605   -1.3243 N   0  0  0  0  0  0  0  0  0  0  0  0
   -0.6455    0.8003    0.7646 C   0  0  0  0  0  0  0  0  0  0  0  0
   -0.2511    1.5486    1.4754 H   0  0  0  0  0  0  0  0  0  0  0  0
   -1.1003   -0.4121    1.5821 C   0  0  0  0  0  0  0  0  0  0  0  0
   -0.5439   -0.6864    2.8588 C   0  0  0  0  0  0  0  0  0  0  0  0
   -0.9046   -1.8899    3.4995 C   0  0  0  0  0  0  0  0  0  0  0  0
   -0.4792   -2.1093    4.4918 H   0  0  0  0  0  0  0  0  0  0  0  0
   -1.7821   -2.8084    2.9017 C   0  0  0  0  0  0  0  0  0  0  0  0
   -2.0273   -3.7479    3.4200 H   0  0  0  0  0  0  0  0  0  0  0  0
   -2.3506   -2.5173    1.6555 C   0  0  0  0  0  0  0  0  0  0  0  0
   -3.0307   -3.2186    1.1505 H   0  0  0  0  0  0  0  0  0  0  0  0
   -2.0222   -1.3127    1.0158 C   0  0  0  0  0  0  0  0  0  0  0  0
   -2.5203   -1.0687    0.0641 H   0  0  0  0  0  0  0  0  0  0  0  0
    0.3917    0.2755    3.5543 C   0  0  0  0  0  0  0  0  0  0  0  0
    1.3409    0.4265    2.9996 H   0  0  0  0  0  0  0  0  0  0  0  0
    0.6604   -0.0960    4.5615 H   0  0  0  0  0  0  0  0  0  0  0  0
   -0.0670    1.2787    3.6821 H   0  0  0  0  0  0  0  0  0  0  0  0
   -1.8072    1.4626    0.0242 C   0  0  0  0  0  0  0  0  0  0  0  0
   -2.7089    2.2738    0.7652 C   0  0  0  0  0  0  0  0  0  0  0  0
   -3.7973    2.8612    0.0921 C   0  0  0  0  0  0  0  0  0  0  0  0
   -4.4943    3.4929    0.6654 H   0  0  0  0  0  0  0  0  0  0  0  0
   -4.0123    2.6552   -1.2784 C   0  0  0  0  0  0  0  0  0  0  0  0
   -4.8761    3.1210   -1.7762 H   0  0  0  0  0  0  0  0  0  0  0  0
   -3.1244    1.8494   -2.0022 C   0  0  0  0  0  0  0  0  0  0  0  0
   -3.2823    1.6622   -3.0746 H   0  0  0  0  0  0  0  0  0  0  0  0
   -2.0291    1.2646   -1.3499 C   0  0  0  0  0  0  0  0  0  0  0  0
   -1.3454    0.6157   -1.9192 H   0  0  0  0  0  0  0  0  0  0  0  0
   -2.5175    2.5106    2.2417 C   0  0  0  0  0  0  0  0  0  0  0  0
   -2.5031    1.5563    2.8086 H   0  0  0  0  0  0  0  0  0  0  0  0
   -3.3272    3.1418    2.6537 H   0  0  0  0  0  0  0  0  0  0  0  0
   -1.5550    3.0261    2.4538 H   0  0  0  0  0  0  0  0  0  0  0  0
    1.8766    2.5442   -0.6747 C   0  0  0  0  0  0  0  0  0  0  0  0
    0.8809    3.5163   -0.0124 C   0  0  0  0  0  0  0  0  0  0  0  0
    1.0428    3.5782    1.0845 H   0  0  0  0  0  0  0  0  0  0  0  0
   -0.1713    3.2320   -0.1998 H   0  0  0  0  0  0  0  0  0  0  0  0
    1.0218    4.5361   -0.4240 H   0  0  0  0  0  0  0  0  0  0  0  0
    1.5423    2.4197   -2.1707 C   0  0  0  0  0  0  0  0  0  0  0  0
    1.5513    3.4196   -2.6495 H   0  0  0  0  0  0  0  0  0  0  0  0
    0.5346    1.9851   -2.3177 H   0  0  0  0  0  0  0  0  0  0  0  0
    2.2746    1.7869   -2.7118 H   0  0  0  0  0  0  0  0  0  0  0  0
    3.2899    3.1325   -0.4960 C   0  0  0  0  0  0  0  0  0  0  0  0
    3.5545    3.2337    0.5768 H   0  0  0  0  0  0  0  0  0  0  0  0
    3.3352    4.1431   -0.9491 H   0  0  0  0  0  0  0  0  0  0  0  0
    4.0744    2.5204   -0.9842 H   0  0  0  0  0  0  0  0  0  0  0  0
    3.6822   -0.7089    0.4422 C   0  0  0  0  0  0  0  0  0  0  0  0
    4.3838    0.2694    1.4053 C   0  0  0  0  0  0  0  0  0  0  0  0
    3.6767    0.7905    2.0807 H   0  0  0  0  0  0  0  0  0  0  0  0
    4.9630    1.0401    0.8577 H   0  0  0  0  0  0  0  0  0  0  0  0
    5.0935   -0.2879    2.0490 H   0  0  0  0  0  0  0  0  0  0  0  0
    4.7942   -1.4634   -0.3169 C   0  0  0  0  0  0  0  0  0  0  0  0
    5.4070   -0.7676   -0.9273 H   0  0  0  0  0  0  0  0  0  0  0  0
    4.3993   -2.2479   -0.9872 H   0  0  0  0  0  0  0  0  0  0  0  0
    5.4743   -1.9620    0.4032 H   0  0  0  0  0  0  0  0  0  0  0  0
    2.8260   -1.7065    1.2408 C   0  0  0  0  0  0  0  0  0  0  0  0
    3.4474   -2.2318    1.9939 H   0  0  0  0  0  0  0  0  0  0  0  0
    2.3699   -2.4729    0.5840 H   0  0  0  0  0  0  0  0  0  0  0  0
    1.9951   -1.2091    1.7764 H   0  0  0  0  0  0  0  0  0  0  0  0
    2.2299   -1.7173   -2.3415 C   0  0  0  0  0  0  0  0  0  0  0  0
    2.6279   -2.6631   -1.9158 H   0  0  0  0  0  0  0  0  0  0  0  0
    3.0002   -1.2803   -3.0098 H   0  0  0  0  0  0  0  0  0  0  0  0
    1.3280   -1.9647   -2.9341 H   0  0  0  0  0  0  0  0  0  0  0  0
  1  2  1  0  0  0  0
  2  3  1  0  0  0  0
  2  8  1  0  0  0  0
  3  4  1  1  0  0  0
  5  6  1  6  0  0  0
  5  3  1  0  0  0  0
  5 51  1  0  0  0  0
  7  1  1  0  0  0  0
  7  5  1  0  0  0  0
  8  9  1  0  0  0  0
  8 10  1  0  0  0  0
 10 11  1  0  0  0  0
 11 12  2  0  0  0  0
 11 20  1  0  0  0  0
 12 13  1  0  0  0  0
 14 15  1  0  0  0  0
 14 12  1  0  0  0  0
 16 14  2  0  0  0  0
 17 16  1  0  0  0  0
 18 10  2  0  0  0  0
 18 16  1  0  0  0  0
 19 18  1  0  0  0  0
 20 23  1  0  0  0  0
 20 22  1  0  0  0  0
 21 20  1  0  0  0  0
 24  8  1  0  0  0  0
 24 25  1  0  0  0  0
 25 34  1  0  0  0  0
 26 27  1  0  0  0  0
 26 25  2  0  0  0  0
 28 26  1  0  0  0  0
 29 28  1  0  0  0  0
 30 32  1  0  0  0  0
 30 28  2  0  0  0  0
 31 30  1  0  0  0  0
 32 24  2  0  0  0  0
 33 32  1  0  0  0  0
 34 37  1  0  0  0  0
 34 36  1  0  0  0  0
 34 35  1  0  0  0  0
 38 47  1  0  0  0  0
 38 39  1  0  0  0  0
 38  3  1  0  0  0  0
 39 40  1  0  0  0  0
 41 39  1  0  0  0  0
 42 39  1  0  0  0  0
 43 38  1  0  0  0  0
 44 43  1  0  0  0  0
 45 43  1  0  0  0  0
 46 43  1  0  0  0  0
 47 48  1  0  0  0  0
 49 47  1  0  0  0  0
 50 47  1  0  0  0  0
 51 60  1  0  0  0  0
 51 52  1  0  0  0  0
 52 55  1  0  0  0  0
 52 53  1  0  0  0  0
 54 52  1  0  0  0  0
 56 59  1  0  0  0  0
 56 51  1  0  0  0  0
 57 56  1  0  0  0  0
 58 56  1  0  0  0  0
 60 63  1  0  0  0  0
 60 61  1  0  0  0  0
 62 60  1  0  0  0  0
 64 65  1  0  0  0  0
 64  7  1  0  0  0  0
 66 64  1  0  0  0  0
 67 64  1  0  0  0  0
M  END
