1
 OpenBabel05122313113D

 33 34  0  0  0  0  0  0  0  0999 V2000
   -1.1660    0.0468    0.7132 C   0  0  0  0  0  3  0  0  0  0  0  0
   -1.4383   -1.0701    1.4952 N   0  0  0  0  0  0  0  0  0  0  0  0
   -2.7340   -1.2650    1.7773 N   0  0  0  0  0  2  0  0  0  0  0  0
   -3.3265   -0.2412    1.1856 N   0  0  0  0  0  0  0  0  0  0  0  0
   -2.4507    0.5940    0.5373 C   0  0  0  0  0  0  0  0  0  0  0  0
   -2.8635    1.8426   -0.1654 C   0  0  0  0  0  0  0  0  0  0  0  0
   -3.7358    1.6445   -0.8270 H   0  0  0  0  0  0  0  0  0  0  0  0
   -2.0147    2.1165   -0.8223 H   0  0  0  0  0  0  0  0  0  0  0  0
   -3.1600    3.0249    0.7770 C   0  0  0  0  0  0  0  0  0  0  0  0
   -4.0770    2.8261    1.3782 H   0  0  0  0  0  0  0  0  0  0  0  0
   -2.3122    3.1058    1.4879 H   0  0  0  0  0  0  0  0  0  0  0  0
   -3.3132    4.3468    0.0225 C   0  0  0  0  0  0  0  0  0  0  0  0
   -2.3648    4.5395   -0.5249 H   0  0  0  0  0  0  0  0  0  0  0  0
   -4.1050    4.2483   -0.7548 H   0  0  0  0  0  0  0  0  0  0  0  0
   -3.6264    5.5283    0.9401 C   0  0  0  0  0  0  0  0  0  0  0  0
   -4.5802    5.3762    1.4884 H   0  0  0  0  0  0  0  0  0  0  0  0
   -3.7149    6.4765    0.3725 H   0  0  0  0  0  0  0  0  0  0  0  0
   -2.8273    5.6641    1.6977 H   0  0  0  0  0  0  0  0  0  0  0  0
   -4.7763   -0.1629    1.2140 C   0  0  0  0  0  0  0  0  0  0  0  0
   -5.1790   -0.3562    0.2000 H   0  0  0  0  0  0  0  0  0  0  0  0
   -5.0935    0.8415    1.5496 H   0  0  0  0  0  0  0  0  0  0  0  0
   -5.1452   -0.9308    1.9151 H   0  0  0  0  0  0  0  0  0  0  0  0
   -0.5100   -2.0646    1.9410 C   0  0  0  0  0  0  0  0  0  0  0  0
    0.8089   -1.6974    2.2547 C   0  0  0  0  0  0  0  0  0  0  0  0
    1.1095   -0.6401    2.1823 H   0  0  0  0  0  0  0  0  0  0  0  0
    1.7279   -2.6939    2.6107 C   0  0  0  0  0  0  0  0  0  0  0  0
    2.7656   -2.4076    2.8376 H   0  0  0  0  0  0  0  0  0  0  0  0
    1.3303   -4.0382    2.6827 C   0  0  0  0  0  0  0  0  0  0  0  0
    2.0578   -4.8156    2.9603 H   0  0  0  0  0  0  0  0  0  0  0  0
   -0.0024   -4.3871    2.4089 C   0  0  0  0  0  0  0  0  0  0  0  0
   -0.3247   -5.4371    2.4756 H   0  0  0  0  0  0  0  0  0  0  0  0
   -0.9283   -3.4041    2.0353 C   0  0  0  0  0  0  0  0  0  0  0  0
   -1.9720   -3.6585    1.8082 H   0  0  0  0  0  0  0  0  0  0  0  0
  1  2  1  0  0  0  0
  2  3  1  0  0  0  0
  2 23  1  0  0  0  0
  4 19  1  0  0  0  0
  4  3  1  0  0  0  0
  5  1  2  0  0  0  0
  5  4  1  0  0  0  0
  6  5  1  0  0  0  0
  6  9  1  0  0  0  0
  7  6  1  0  0  0  0
  8  6  1  0  0  0  0
  9 10  1  0  0  0  0
  9 11  1  0  0  0  0
 12  9  1  0  0  0  0
 12 15  1  0  0  0  0
 13 12  1  0  0  0  0
 14 12  1  0  0  0  0
 15 16  1  0  0  0  0
 15 18  1  0  0  0  0
 17 15  1  0  0  0  0
 19 21  1  0  0  0  0
 19 22  1  0  0  0  0
 20 19  1  0  0  0  0
 23 32  2  0  0  0  0
 23 24  1  0  0  0  0
 24 26  2  0  0  0  0
 25 24  1  0  0  0  0
 26 28  1  0  0  0  0
 26 27  1  0  0  0  0
 28 29  1  0  0  0  0
 30 31  1  0  0  0  0
 30 28  2  0  0  0  0
 32 30  1  0  0  0  0
 33 32  1  0  0  0  0
M  END
