14
 OpenBabel05122313113D

 26 28  0  0  1  0  0  0  0  0999 V2000
    1.7333    2.1601    0.0007 S   0  0  0  0  0  0  0  0  0  0  0  0
    0.7638    0.7470    0.0002 N   0  0  0  0  0  0  0  0  0  0  0  0
    1.4521    2.7981   -1.2973 O   0  0  0  0  0  0  0  0  0  0  0  0
    1.4512    2.7977    1.2986 O   0  0  0  0  0  0  0  0  0  0  0  0
    0.8037   -0.2266    1.1157 C   0  0  2  0  0  0  0  0  0  0  0  0
    2.0153   -1.0807    0.7092 C   0  0  0  0  0  0  0  0  0  0  0  0
    2.9720   -1.7920    1.4264 C   0  0  0  0  0  0  0  0  0  0  0  0
    3.9614   -2.4960    0.6997 C   0  0  0  0  0  0  0  0  0  0  0  0
    3.9613   -2.4955   -0.7022 C   0  0  0  0  0  0  0  0  0  0  0  0
    2.9717   -1.7910   -1.4283 C   0  0  0  0  0  0  0  0  0  0  0  0
    2.0151   -1.0802   -0.7104 C   0  0  0  0  0  0  0  0  0  0  0  0
    0.8035   -0.2258   -1.1161 C   0  0  1  0  0  0  0  0  0  0  0  0
   -0.4040   -1.1095   -0.7234 C   0  0  0  0  0  3  0  0  0  0  0  0
   -0.4038   -1.1101    0.7226 C   0  0  0  0  0  3  0  0  0  0  0  0
    3.4805    1.6908    0.0012 C   0  0  0  0  0  0  0  0  0  0  0  0
    0.8065    0.2465    2.1127 H   0  0  0  0  0  0  0  0  0  0  0  0
    2.9742   -1.7994    2.5273 H   0  0  0  0  0  0  0  0  0  0  0  0
    4.7430   -3.0481    1.2430 H   0  0  0  0  0  0  0  0  0  0  0  0
    4.7428   -3.0472   -1.2461 H   0  0  0  0  0  0  0  0  0  0  0  0
    2.9737   -1.7976   -2.5291 H   0  0  0  0  0  0  0  0  0  0  0  0
    0.8062    0.2480   -2.1127 H   0  0  0  0  0  0  0  0  0  0  0  0
   -0.5436   -2.0225   -1.3221 H   0  0  0  0  0  0  0  0  0  0  0  0
   -0.5433   -2.0235    1.3207 H   0  0  0  0  0  0  0  0  0  0  0  0
    3.7063    1.1087   -0.9094 H   0  0  0  0  0  0  0  0  0  0  0  0
    4.0229    2.6551    0.0014 H   0  0  0  0  0  0  0  0  0  0  0  0
    3.7058    1.1087    0.9119 H   0  0  0  0  0  0  0  0  0  0  0  0
  1 15  1  0  0  0  0
  1  4  2  0  0  0  0
  2  1  1  0  0  0  0
  2  5  1  0  0  0  0
  3  1  2  0  0  0  0
  5 16  1  1  0  0  0
  6  5  1  0  0  0  0
  6  7  1  0  0  0  0
  7 17  1  0  0  0  0
  8 18  1  0  0  0  0
  8  7  2  0  0  0  0
  9  8  1  0  0  0  0
 10 11  1  0  0  0  0
 10  9  2  0  0  0  0
 11  6  2  0  0  0  0
 12 21  1  6  0  0  0
 12 13  1  0  0  0  0
 12 11  1  0  0  0  0
 12  2  1  0  0  0  0
 13 14  1  0  0  0  0
 14  5  1  0  0  0  0
 14 23  1  0  0  0  0
 15 25  1  0  0  0  0
 15 26  1  0  0  0  0
 19  9  1  0  0  0  0
 20 10  1  0  0  0  0
 22 13  1  0  0  0  0
 24 15  1  0  0  0  0
M  END
