3
 OpenBabel05122313113D

 33 36  0  0  1  0  0  0  0  0999 V2000
    0.5647   -0.1070    0.0266 N   0  0  0  0  0  0  0  0  0  0  0  0
    0.1571    0.8490    1.0890 C   0  0  2  0  0  0  0  0  0  0  0  0
   -1.3075    1.1057    0.6814 C   0  0  0  0  0  3  0  0  0  0  0  0
   -1.3041    1.0404   -0.7632 C   0  0  0  0  0  3  0  0  0  0  0  0
    0.1631    0.7522   -1.1304 C   0  0  1  0  0  0  0  0  0  0  0  0
    0.9151    2.0411   -0.7804 C   0  0  0  0  0  0  0  0  0  0  0  0
    1.4922    3.0513   -1.5426 C   0  0  0  0  0  0  0  0  0  0  0  0
    2.0839    4.1413   -0.8627 C   0  0  0  0  0  0  0  0  0  0  0  0
    2.0751    4.2072    0.5376 C   0  0  0  0  0  0  0  0  0  0  0  0
    1.4759    3.1838    1.3085 C   0  0  0  0  0  0  0  0  0  0  0  0
    0.9101    2.1056    0.6359 C   0  0  0  0  0  0  0  0  0  0  0  0
    1.8496   -0.7022    0.0388 C   0  0  0  0  0  0  0  0  0  0  0  0
    2.7264   -0.5805    1.1336 C   0  0  0  0  0  0  0  0  0  0  0  0
    3.9640   -1.2394    1.1239 C   0  0  0  0  0  0  0  0  0  0  0  0
    4.3725   -2.0305    0.0346 C   0  0  0  0  0  0  0  0  0  0  0  0
    3.4833   -2.1442   -1.0555 C   0  0  0  0  0  0  0  0  0  0  0  0
    2.2427   -1.5021   -1.0566 C   0  0  0  0  0  0  0  0  0  0  0  0
    5.7019   -2.7412    0.0259 C   0  0  0  0  0  0  0  0  0  0  0  0
    0.3322    0.4823    2.1151 H   0  0  0  0  0  0  0  0  0  0  0  0
   -1.8403    1.8836    1.2483 H   0  0  0  0  0  0  0  0  0  0  0  0
   -1.8356    1.7636   -1.3993 H   0  0  0  0  0  0  0  0  0  0  0  0
    0.3661    0.2997   -2.1160 H   0  0  0  0  0  0  0  0  0  0  0  0
    1.5008    3.0058   -2.6423 H   0  0  0  0  0  0  0  0  0  0  0  0
    2.5628    4.9456   -1.4414 H   0  0  0  0  0  0  0  0  0  0  0  0
    2.5470    5.0623    1.0448 H   0  0  0  0  0  0  0  0  0  0  0  0
    1.4720    3.2402    2.4079 H   0  0  0  0  0  0  0  0  0  0  0  0
    2.4568    0.0437    1.9955 H   0  0  0  0  0  0  0  0  0  0  0  0
    4.6359   -1.1244    1.9890 H   0  0  0  0  0  0  0  0  0  0  0  0
    3.7658   -2.7623   -1.9225 H   0  0  0  0  0  0  0  0  0  0  0  0
    1.5624   -1.6322   -1.9102 H   0  0  0  0  0  0  0  0  0  0  0  0
    6.3020   -2.4954    0.9232 H   0  0  0  0  0  0  0  0  0  0  0  0
    5.5696   -3.8435    0.0009 H   0  0  0  0  0  0  0  0  0  0  0  0
    6.3007   -2.4706   -0.8685 H   0  0  0  0  0  0  0  0  0  0  0  0
  1 12  1  0  0  0  0
  1  2  1  0  0  0  0
  2 19  1  1  0  0  0
  3  2  1  0  0  0  0
  3 20  1  0  0  0  0
  4  3  1  0  0  0  0
  5 22  1  6  0  0  0
  5  6  1  0  0  0  0
  5  4  1  0  0  0  0
  5  1  1  0  0  0  0
  6 11  1  0  0  0  0
  7  8  1  0  0  0  0
  7  6  2  0  0  0  0
  8  9  2  0  0  0  0
  9 25  1  0  0  0  0
  9 10  1  0  0  0  0
 10 26  1  0  0  0  0
 11  2  1  0  0  0  0
 11 10  2  0  0  0  0
 12 13  1  0  0  0  0
 13 27  1  0  0  0  0
 14 13  2  0  0  0  0
 14 28  1  0  0  0  0
 15 14  1  0  0  0  0
 16 15  2  0  0  0  0
 17 16  1  0  0  0  0
 17 12  2  0  0  0  0
 18 15  1  0  0  0  0
 18 31  1  0  0  0  0
 21  4  1  0  0  0  0
 23  7  1  0  0  0  0
 24  8  1  0  0  0  0
 29 16  1  0  0  0  0
 30 17  1  0  0  0  0
 32 18  1  0  0  0  0
 33 18  1  0  0  0  0
M  END
