3
 OpenBabel05122313113D

 26 26  0  0  0  0  0  0  0  0999 V2000
   -1.4159    1.6353    0.1770 N   0  0  0  0  0  0  0  0  0  0  0  0
   -1.6536   -0.5907   -0.3219 N   0  0  0  0  0  0  0  0  0  0  0  0
   -0.8293    0.4601   -0.0807 C   0  0  0  0  0  2  0  0  0  0  0  0
   -0.7904    2.9096    0.5400 C   0  0  0  0  0  0  0  0  0  0  0  0
   -1.3200    3.3698    1.9015 C   0  0  0  0  0  0  0  0  0  0  0  0
   -1.0073    3.9459   -0.5661 C   0  0  0  0  0  0  0  0  0  0  0  0
   -3.0693   -0.6403   -0.2679 C   0  0  0  0  0  0  0  0  0  0  0  0
   -3.8730    0.2529   -1.0099 C   0  0  0  0  0  0  0  0  0  0  0  0
   -5.2713    0.1602   -0.9371 C   0  0  0  0  0  0  0  0  0  0  0  0
   -5.8784   -0.8290   -0.1485 C   0  0  0  0  0  0  0  0  0  0  0  0
   -5.0774   -1.7336    0.5685 C   0  0  0  0  0  0  0  0  0  0  0  0
   -3.6810   -1.6392    0.5177 C   0  0  0  0  0  0  0  0  0  0  0  0
   -2.4460    1.6543    0.1994 H   0  0  0  0  0  0  0  0  0  0  0  0
   -1.1578   -1.5012   -0.2156 H   0  0  0  0  0  0  0  0  0  0  0  0
    0.2920    2.7077    0.6322 H   0  0  0  0  0  0  0  0  0  0  0  0
   -0.8437    4.3250    2.1974 H   0  0  0  0  0  0  0  0  0  0  0  0
   -1.1055    2.6172    2.6855 H   0  0  0  0  0  0  0  0  0  0  0  0
   -2.4175    3.5391    1.8700 H   0  0  0  0  0  0  0  0  0  0  0  0
   -0.5197    4.9043   -0.2999 H   0  0  0  0  0  0  0  0  0  0  0  0
   -2.0889    4.1468   -0.7192 H   0  0  0  0  0  0  0  0  0  0  0  0
   -0.5743    3.5963   -1.5231 H   0  0  0  0  0  0  0  0  0  0  0  0
   -3.4023    0.9916   -1.6759 H   0  0  0  0  0  0  0  0  0  0  0  0
   -5.8903    0.8578   -1.5214 H   0  0  0  0  0  0  0  0  0  0  0  0
   -6.9749   -0.9017   -0.0999 H   0  0  0  0  0  0  0  0  0  0  0  0
   -5.5450   -2.5184    1.1820 H   0  0  0  0  0  0  0  0  0  0  0  0
   -3.0443   -2.3334    1.0871 H   0  0  0  0  0  0  0  0  0  0  0  0
  1 13  1  0  0  0  0
  1  4  1  0  0  0  0
  2  7  1  0  0  0  0
  2 14  1  0  0  0  0
  2  3  1  0  0  0  0
  3  1  1  0  0  0  0
  4 15  1  0  0  0  0
  4  5  1  0  0  0  0
  5 16  1  0  0  0  0
  5 17  1  0  0  0  0
  6 19  1  0  0  0  0
  6  4  1  0  0  0  0
  7 12  1  0  0  0  0
  8  9  1  0  0  0  0
  8  7  2  0  0  0  0
  9 10  2  0  0  0  0
 10 24  1  0  0  0  0
 10 11  1  0  0  0  0
 11 25  1  0  0  0  0
 12 11  2  0  0  0  0
 12 26  1  0  0  0  0
 18  5  1  0  0  0  0
 20  6  1  0  0  0  0
 21  6  1  0  0  0  0
 22  8  1  0  0  0  0
 23  9  1  0  0  0  0
M  END
