7
 OpenBabel05122313113D

 19 19  0  0  1  0  0  0  0  0999 V2000
   -3.3100   -0.5069   -0.6167 F   0  0  0  0  0  0  0  0  0  0  0  0
   -1.9142   -2.1738   -0.4886 F   0  0  0  0  0  0  0  0  0  0  0  0
   -2.2320   -0.8836    1.2462 F   0  0  0  0  0  0  0  0  0  0  0  0
    0.2885    3.1328    0.4312 O   0  0  0  0  0  0  0  0  0  0  0  0
   -1.8750    1.8527    0.8306 O   0  0  0  0  0  0  0  0  0  0  0  0
   -0.9988    0.0324   -0.5772 C   0  0  1  0  0  3  0  0  0  0  0  0
   -0.2116   -0.4137   -1.7058 C   0  0  0  0  0  3  0  0  0  0  0  0
    0.9225    0.3915   -1.9960 C   0  0  0  0  0  3  0  0  0  0  0  0
    1.1165    1.5025   -1.1116 C   0  0  0  0  0  3  0  0  0  0  0  0
   -0.0474    2.3844   -0.7060 C   0  0  1  0  0  0  0  0  0  0  0  0
   -1.3305    1.5160   -0.4433 C   0  0  2  0  0  0  0  0  0  0  0  0
   -2.1090   -0.8881   -0.1171 C   0  0  0  0  0  0  0  0  0  0  0  0
   -0.4257   -1.3481   -2.2431 H   0  0  0  0  0  0  0  0  0  0  0  0
    1.6536    0.0860   -2.7599 H   0  0  0  0  0  0  0  0  0  0  0  0
    2.0833    2.0305   -1.1479 H   0  0  0  0  0  0  0  0  0  0  0  0
   -0.2575    3.0741   -1.5644 H   0  0  0  0  0  0  0  0  0  0  0  0
   -2.1159    1.7719   -1.1881 H   0  0  0  0  0  0  0  0  0  0  0  0
   -0.5042    3.0453    1.0138 H   0  0  0  0  0  0  0  0  0  0  0  0
   -1.6882    1.1234    1.4538 H   0  0  0  0  0  0  0  0  0  0  0  0
  1 12  1  0  0  0  0
  2 12  1  0  0  0  0
  4 18  1  0  0  0  0
  5 19  1  0  0  0  0
  6 11  1  0  0  0  0
  6 12  1  6  0  0  0
  7  6  1  0  0  0  0
  8  7  1  0  0  0  0
  8  9  1  0  0  0  0
  9 10  1  0  0  0  0
 10 16  1  6  0  0  0
 10 11  1  0  0  0  0
 10  4  1  0  0  0  0
 11 17  1  6  0  0  0
 11  5  1  0  0  0  0
 12  3  1  0  0  0  0
 13  7  1  0  0  0  0
 14  8  1  0  0  0  0
 15  9  1  0  0  0  0
M  END
