4
 OpenBabel05122313113D

 27 29  0  0  0  0  0  0  0  0999 V2000
    1.0256    1.7058   -0.0340 N   0  0  0  0  0  0  0  0  0  0  0  0
    2.2314    2.2940   -0.3008 N   0  0  0  0  0  0  0  0  0  0  0  0
    2.3968    0.0644   -0.0456 N   0  0  0  0  0  0  0  0  0  0  0  0
    1.0455    0.3473    0.1028 C   0  0  0  0  0  2  0  0  0  0  0  0
    3.0798    1.2773   -0.3127 C   0  0  0  0  0  0  0  0  0  0  0  0
    4.4814    1.2689   -0.5466 C   0  0  0  0  0  0  0  0  0  0  0  0
    4.9858    2.2215   -0.7521 H   0  0  0  0  0  0  0  0  0  0  0  0
    5.1348    0.0562   -0.5001 C   0  0  0  0  0  0  0  0  0  0  0  0
    6.2188    0.0075   -0.6790 H   0  0  0  0  0  0  0  0  0  0  0  0
    4.4235   -1.1469   -0.1999 C   0  0  0  0  0  0  0  0  0  0  0  0
    4.9652   -2.0999   -0.1318 H   0  0  0  0  0  0  0  0  0  0  0  0
    3.0640   -1.1612    0.0454 C   0  0  0  0  0  0  0  0  0  0  0  0
    2.3007   -2.3726    0.4531 C   0  0  0  0  0  0  0  0  0  0  0  0
    2.9374   -3.2719    0.3667 H   0  0  0  0  0  0  0  0  0  0  0  0
    1.3748   -2.4934   -0.1522 H   0  0  0  0  0  0  0  0  0  0  0  0
    1.9342   -2.2628    1.4973 H   0  0  0  0  0  0  0  0  0  0  0  0
   -0.1386    2.5281    0.0647 C   0  0  0  0  0  0  0  0  0  0  0  0
   -1.1142    2.2371    1.0341 C   0  0  0  0  0  0  0  0  0  0  0  0
   -0.9502    1.4120    1.7448 H   0  0  0  0  0  0  0  0  0  0  0  0
   -2.2735    3.0259    1.0812 C   0  0  0  0  0  0  0  0  0  0  0  0
   -3.0406    2.8076    1.8394 H   0  0  0  0  0  0  0  0  0  0  0  0
   -2.4477    4.0940    0.1864 C   0  0  0  0  0  0  0  0  0  0  0  0
   -3.3603    4.7073    0.2306 H   0  0  0  0  0  0  0  0  0  0  0  0
   -1.4473    4.3906   -0.7546 C   0  0  0  0  0  0  0  0  0  0  0  0
   -1.5737    5.2340   -1.4497 H   0  0  0  0  0  0  0  0  0  0  0  0
   -0.2849    3.6098   -0.8189 C   0  0  0  0  0  0  0  0  0  0  0  0
    0.5125    3.8203   -1.5447 H   0  0  0  0  0  0  0  0  0  0  0  0
  1 17  1  0  0  0  0
  1  4  1  0  0  0  0
  2  1  1  0  0  0  0
  3 12  1  0  0  0  0
  3  4  1  0  0  0  0
  5  2  2  0  0  0  0
  5  3  1  0  0  0  0
  6  8  2  0  0  0  0
  6  5  1  0  0  0  0
  7  6  1  0  0  0  0
  8 10  1  0  0  0  0
  9  8  1  0  0  0  0
 10 11  1  0  0  0  0
 10 12  2  0  0  0  0
 12 13  1  0  0  0  0
 13 16  1  0  0  0  0
 14 13  1  0  0  0  0
 15 13  1  0  0  0  0
 17 18  1  0  0  0  0
 18 20  2  0  0  0  0
 18 19  1  0  0  0  0
 20 21  1  0  0  0  0
 22 23  1  0  0  0  0
 22 20  1  0  0  0  0
 24 22  2  0  0  0  0
 25 24  1  0  0  0  0
 26 24  1  0  0  0  0
 26 17  2  0  0  0  0
 27 26  1  0  0  0  0
M  END
