1
 OpenBabel05122313113D

 34 35  0  0  1  0  0  0  0  0999 V2000
   -0.6276    1.4011    0.2516 C   0  0  0  0  0  3  0  0  0  0  0  0
   -1.4710    0.5029    0.7607 C   0  0  0  0  0  3  0  0  0  0  0  0
   -2.8904    0.2634    1.1448 C   0  0  1  0  0  0  0  0  0  0  0  0
   -3.2276    0.8021    2.5435 C   0  0  0  0  0  0  0  0  0  0  0  0
   -3.8400    0.8701    0.0585 C   0  0  1  0  0  0  0  0  0  0  0  0
   -3.3087    0.7987   -1.2537 O   0  0  0  0  0  0  0  0  0  0  0  0
   -0.4430    2.7888   -0.1314 C   0  0  0  0  0  0  0  0  0  0  0  0
   -1.5025    3.5531   -0.6802 C   0  0  0  0  0  0  0  0  0  0  0  0
   -1.2921    4.8869   -1.0499 C   0  0  0  0  0  0  0  0  0  0  0  0
   -0.0341    5.4863   -0.8642 C   0  0  0  0  0  0  0  0  0  0  0  0
    1.0229    4.7357   -0.3235 C   0  0  0  0  0  0  0  0  0  0  0  0
    0.8276    3.3943    0.0269 C   0  0  0  0  0  0  0  0  0  0  0  0
   -5.2179    0.2325    0.1571 C   0  0  0  0  0  0  0  0  0  0  0  0
   -5.4219   -1.0806   -0.3136 C   0  0  0  0  0  0  0  0  0  0  0  0
   -6.6810   -1.6867   -0.2095 C   0  0  0  0  0  0  0  0  0  0  0  0
   -7.7556   -0.9897    0.3693 C   0  0  0  0  0  0  0  0  0  0  0  0
   -7.5629    0.3179    0.8394 C   0  0  0  0  0  0  0  0  0  0  0  0
   -6.3005    0.9236    0.7309 C   0  0  0  0  0  0  0  0  0  0  0  0
   -3.0625   -0.8344    1.1542 H   0  0  0  0  0  0  0  0  0  0  0  0
   -3.0169    1.8888    2.6126 H   0  0  0  0  0  0  0  0  0  0  0  0
   -2.6424    0.2780    3.3219 H   0  0  0  0  0  0  0  0  0  0  0  0
   -4.3023    0.6395    2.7590 H   0  0  0  0  0  0  0  0  0  0  0  0
   -3.9436    1.9562    0.2789 H   0  0  0  0  0  0  0  0  0  0  0  0
   -2.8617   -0.0698   -1.3902 H   0  0  0  0  0  0  0  0  0  0  0  0
   -2.4677    3.0623   -0.8671 H   0  0  0  0  0  0  0  0  0  0  0  0
   -2.1183    5.4654   -1.4910 H   0  0  0  0  0  0  0  0  0  0  0  0
    0.1240    6.5375   -1.1498 H   0  0  0  0  0  0  0  0  0  0  0  0
    2.0128    5.1964   -0.1848 H   0  0  0  0  0  0  0  0  0  0  0  0
    1.6560    2.7958    0.4304 H   0  0  0  0  0  0  0  0  0  0  0  0
   -4.5853   -1.6324   -0.7727 H   0  0  0  0  0  0  0  0  0  0  0  0
   -6.8265   -2.7117   -0.5835 H   0  0  0  0  0  0  0  0  0  0  0  0
   -8.7444   -1.4664    0.4498 H   0  0  0  0  0  0  0  0  0  0  0  0
   -8.4011    0.8732    1.2877 H   0  0  0  0  0  0  0  0  0  0  0  0
   -6.1520    1.9548    1.0904 H   0  0  0  0  0  0  0  0  0  0  0  0
  1  2  2  0  0  0  0
  2  3  1  0  0  0  0
  3 19  1  1  0  0  0
  3  4  1  0  0  0  0
  4 20  1  0  0  0  0
  4 22  1  0  0  0  0
  4 21  1  0  0  0  0
  5 13  1  0  0  0  0
  5 23  1  1  0  0  0
  5  3  1  0  0  0  0
  6  5  1  0  0  0  0
  7 12  1  0  0  0  0
  7  1  1  0  0  0  0
  8  7  2  0  0  0  0
  9 10  2  0  0  0  0
  9  8  1  0  0  0  0
 10 11  1  0  0  0  0
 11 28  1  0  0  0  0
 11 12  2  0  0  0  0
 12 29  1  0  0  0  0
 13 18  1  0  0  0  0
 14 15  1  0  0  0  0
 14 13  2  0  0  0  0
 15 16  2  0  0  0  0
 16 32  1  0  0  0  0
 16 17  1  0  0  0  0
 17 33  1  0  0  0  0
 18 17  2  0  0  0  0
 18 34  1  0  0  0  0
 24  6  1  0  0  0  0
 25  8  1  0  0  0  0
 26  9  1  0  0  0  0
 27 10  1  0  0  0  0
 30 14  1  0  0  0  0
 31 15  1  0  0  0  0
M  END
