5
 OpenBabel05122313113D

 53 54  0  0  0  0  0  0  0  0999 V2000
    2.4754   -0.6387    2.7864 O   0  0  0  0  0  0  0  0  0  0  0  0
   -0.6820   -1.8133    1.7392 N   0  0  0  0  0  0  0  0  0  0  0  0
   -1.9473   -2.6029    0.1608 N   0  0  0  0  0  0  0  0  0  0  0  0
    1.5546   -0.2823    0.7055 N   0  0  0  0  0  0  0  0  0  0  0  0
   -1.4894   -1.4415    0.7016 C   0  0  0  0  0  2  0  0  0  0  0  0
   -0.6246   -3.1976    1.8366 C   0  0  0  0  0  0  0  0  0  0  0  0
   -0.0213   -3.7011    2.5972 H   0  0  0  0  0  0  0  0  0  0  0  0
   -1.4297   -3.6956    0.8452 C   0  0  0  0  0  0  0  0  0  0  0  0
   -1.6766   -4.7271    0.5804 H   0  0  0  0  0  0  0  0  0  0  0  0
   -2.8672   -2.6758   -0.9924 C   0  0  0  0  0  0  0  0  0  0  0  0
   -2.9738   -1.6186   -1.3103 H   0  0  0  0  0  0  0  0  0  0  0  0
   -4.2296   -3.2116   -0.5508 C   0  0  0  0  0  0  0  0  0  0  0  0
   -4.1622   -4.2619   -0.1988 H   0  0  0  0  0  0  0  0  0  0  0  0
   -4.9376   -3.1868   -1.4023 H   0  0  0  0  0  0  0  0  0  0  0  0
   -4.6472   -2.5930    0.2677 H   0  0  0  0  0  0  0  0  0  0  0  0
   -2.2268   -3.4620   -2.1360 C   0  0  0  0  0  0  0  0  0  0  0  0
   -1.2559   -3.0063   -2.4104 H   0  0  0  0  0  0  0  0  0  0  0  0
   -2.8881   -3.4326   -3.0239 H   0  0  0  0  0  0  0  0  0  0  0  0
   -2.0702   -4.5279   -1.8696 H   0  0  0  0  0  0  0  0  0  0  0  0
    0.0889   -0.8942    2.5697 C   0  0  0  0  0  0  0  0  0  0  0  0
    0.2187   -1.3377    3.5724 H   0  0  0  0  0  0  0  0  0  0  0  0
   -0.5056    0.0383    2.6670 H   0  0  0  0  0  0  0  0  0  0  0  0
    1.5056   -0.5977    2.0319 C   0  0  0  0  0  0  0  0  0  0  0  0
    2.7591   -0.0838   -0.0367 C   0  0  0  0  0  0  0  0  0  0  0  0
    3.1747   -1.1199   -0.9136 C   0  0  0  0  0  0  0  0  0  0  0  0
    2.3854   -2.4224   -0.9784 C   0  0  0  0  0  0  0  0  0  0  0  0
    1.3240   -2.1646   -0.7860 H   0  0  0  0  0  0  0  0  0  0  0  0
    2.8473   -3.3761    0.1402 C   0  0  0  0  0  0  0  0  0  0  0  0
    3.8913   -3.7085   -0.0380 H   0  0  0  0  0  0  0  0  0  0  0  0
    2.2013   -4.2780    0.1819 H   0  0  0  0  0  0  0  0  0  0  0  0
    2.8259   -2.8829    1.1323 H   0  0  0  0  0  0  0  0  0  0  0  0
    2.4237   -3.1015   -2.3513 C   0  0  0  0  0  0  0  0  0  0  0  0
    2.0988   -2.4053   -3.1500 H   0  0  0  0  0  0  0  0  0  0  0  0
    1.7416   -3.9763   -2.3625 H   0  0  0  0  0  0  0  0  0  0  0  0
    3.4361   -3.4769   -2.6083 H   0  0  0  0  0  0  0  0  0  0  0  0
    4.3460   -0.9201   -1.6638 C   0  0  0  0  0  0  0  0  0  0  0  0
    4.6920   -1.7050   -2.3520 H   0  0  0  0  0  0  0  0  0  0  0  0
    5.0830    0.2669   -1.5421 C   0  0  0  0  0  0  0  0  0  0  0  0
    6.0033    0.4034   -2.1308 H   0  0  0  0  0  0  0  0  0  0  0  0
    4.6470    1.2812   -0.6827 C   0  0  0  0  0  0  0  0  0  0  0  0
    5.2270    2.2136   -0.6040 H   0  0  0  0  0  0  0  0  0  0  0  0
    3.4690    1.1343    0.0761 C   0  0  0  0  0  0  0  0  0  0  0  0
    2.9863    2.2558    0.9851 C   0  0  0  0  0  0  0  0  0  0  0  0
    1.9607    1.9864    1.3117 H   0  0  0  0  0  0  0  0  0  0  0  0
    2.8880    3.5998    0.2456 C   0  0  0  0  0  0  0  0  0  0  0  0
    3.8840    3.9694   -0.0755 H   0  0  0  0  0  0  0  0  0  0  0  0
    2.4469    4.3741    0.9064 H   0  0  0  0  0  0  0  0  0  0  0  0
    2.2521    3.5185   -0.6596 H   0  0  0  0  0  0  0  0  0  0  0  0
    3.8663    2.3574    2.2435 C   0  0  0  0  0  0  0  0  0  0  0  0
    3.8802    1.3887    2.7790 H   0  0  0  0  0  0  0  0  0  0  0  0
    3.4800    3.1374    2.9320 H   0  0  0  0  0  0  0  0  0  0  0  0
    4.9095    2.6278    1.9758 H   0  0  0  0  0  0  0  0  0  0  0  0
    0.6867   -0.2889    0.1433 H   0  0  0  0  0  0  0  0  0  0  0  0
  2  6  1  0  0  0  0
  2 20  1  0  0  0  0
  3  5  1  0  0  0  0
  3  8  1  0  0  0  0
  4 23  1  0  0  0  0
  5  2  1  0  0  0  0
  6  7  1  0  0  0  0
  8  6  2  0  0  0  0
  9  8  1  0  0  0  0
 10 12  1  0  0  0  0
 10  3  1  0  0  0  0
 11 10  1  0  0  0  0
 12 13  1  0  0  0  0
 12 15  1  0  0  0  0
 14 12  1  0  0  0  0
 16 19  1  0  0  0  0
 16 10  1  0  0  0  0
 17 16  1  0  0  0  0
 18 16  1  0  0  0  0
 20 22  1  0  0  0  0
 20 21  1  0  0  0  0
 23 20  1  0  0  0  0
 23  1  2  0  0  0  0
 24 42  1  0  0  0  0
 24  4  1  0  0  0  0
 25 24  2  0  0  0  0
 26 25  1  0  0  0  0
 26 27  1  0  0  0  0
 26 28  1  0  0  0  0
 28 30  1  0  0  0  0
 28 31  1  0  0  0  0
 29 28  1  0  0  0  0
 32 26  1  0  0  0  0
 33 32  1  0  0  0  0
 34 32  1  0  0  0  0
 35 32  1  0  0  0  0
 36 38  2  0  0  0  0
 36 25  1  0  0  0  0
 37 36  1  0  0  0  0
 38 40  1  0  0  0  0
 39 38  1  0  0  0  0
 40 41  1  0  0  0  0
 40 42  2  0  0  0  0
 42 43  1  0  0  0  0
 43 44  1  0  0  0  0
 43 49  1  0  0  0  0
 45 47  1  0  0  0  0
 45 43  1  0  0  0  0
 46 45  1  0  0  0  0
 48 45  1  0  0  0  0
 49 50  1  0  0  0  0
 49 51  1  0  0  0  0
 52 49  1  0  0  0  0
 53  4  1  0  0  0  0
M  END
