2
 OpenBabel05122313113D

 19 19  0  0  0  0  0  0  0  0999 V2000
    3.1064    0.3158    0.0000 N   0  0  0  0  0  0  0  0  0  0  0  0
    2.0148   -0.5225    0.0000 C   0  0  0  0  0  2  0  0  0  0  0  0
    2.5949   -1.7431   -0.0003 N   0  0  0  0  0  0  0  0  0  0  0  0
    3.9621   -1.7206   -0.0001 N   0  0  0  0  0  0  0  0  0  0  0  0
    3.1218    1.7130   -0.0003 N   0  0  0  0  0  0  0  0  0  0  0  0
    4.2575   -0.4436    0.0002 C   0  0  0  0  0  0  0  0  0  0  0  0
    5.2640   -0.0097    0.0002 H   0  0  0  0  0  0  0  0  0  0  0  0
    1.9328   -3.0393    0.0009 C   0  0  0  0  0  0  0  0  0  0  0  0
    0.8409   -2.8762   -0.0085 H   0  0  0  0  0  0  0  0  0  0  0  0
    2.2392   -3.6110   -0.8953 H   0  0  0  0  0  0  0  0  0  0  0  0
    2.2246   -3.6028    0.9073 H   0  0  0  0  0  0  0  0  0  0  0  0
    2.5752    2.2767    1.2292 C   0  0  0  0  0  0  0  0  0  0  0  0
    3.0737    1.8201    2.1052 H   0  0  0  0  0  0  0  0  0  0  0  0
    2.7891    3.3625    1.2366 H   0  0  0  0  0  0  0  0  0  0  0  0
    1.4692    2.1313    1.3289 H   0  0  0  0  0  0  0  0  0  0  0  0
    2.5752    2.2763   -1.2299 C   0  0  0  0  0  0  0  0  0  0  0  0
    1.4692    2.1310   -1.3296 H   0  0  0  0  0  0  0  0  0  0  0  0
    2.7892    3.3621   -1.2377 H   0  0  0  0  0  0  0  0  0  0  0  0
    3.0738    1.8193   -2.1057 H   0  0  0  0  0  0  0  0  0  0  0  0
  1  6  1  0  0  0  0
  2  1  1  0  0  0  0
  3  4  1  0  0  0  0
  3  2  1  0  0  0  0
  3  8  1  0  0  0  0
  4  6  2  0  0  0  0
  5  1  1  0  0  0  0
  5 12  1  0  0  0  0
  7  6  1  0  0  0  0
  8 11  1  0  0  0  0
  9  8  1  0  0  0  0
 10  8  1  0  0  0  0
 12 14  1  0  0  0  0
 12 15  1  0  0  0  0
 12 13  1  0  0  0  0
 16  5  1  0  0  0  0
 17 16  1  0  0  0  0
 18 16  1  0  0  0  0
 19 16  1  0  0  0  0
M  END
