4
 OpenBabel05122313113D

 23 24  0  0  0  0  0  0  0  0999 V2000
    2.4231   -0.9491   -0.1352 O   0  0  0  0  0  0  0  0  0  0  0  0
    0.5587   -2.1785   -0.2178 O   0  0  0  0  0  0  0  0  0  0  0  0
    1.0216   -1.0468   -0.2692 C   0  0  0  0  0  0  0  0  0  0  0  0
    0.2987    0.2044   -0.4361 C   0  0  0  0  0  3  0  0  0  0  0  0
    1.0436    1.3688   -0.4796 C   0  0  0  0  0  0  0  0  0  0  0  0
    2.4755    1.4208   -0.3567 C   0  0  0  0  0  0  0  0  0  0  0  0
    3.1684    2.7528   -0.4979 C   0  0  0  0  0  0  0  0  0  0  0  0
    3.1304    0.2137   -0.1625 C   0  0  0  0  0  0  0  0  0  0  0  0
    4.5776   -0.0303   -0.0139 C   0  0  0  0  0  0  0  0  0  0  0  0
    5.4489    0.9062    0.5915 C   0  0  0  0  0  0  0  0  0  0  0  0
    6.8171    0.6309    0.7183 C   0  0  0  0  0  0  0  0  0  0  0  0
    7.3440   -0.5822    0.2489 C   0  0  0  0  0  0  0  0  0  0  0  0
    6.4857   -1.5292   -0.3346 C   0  0  0  0  0  0  0  0  0  0  0  0
    5.1181   -1.2621   -0.4589 C   0  0  0  0  0  0  0  0  0  0  0  0
    2.5530    3.4317   -1.1209 H   0  0  0  0  0  0  0  0  0  0  0  0
    3.3135    3.2606    0.4803 H   0  0  0  0  0  0  0  0  0  0  0  0
    4.1640    2.6614   -0.9728 H   0  0  0  0  0  0  0  0  0  0  0  0
    0.5264    2.3310   -0.6404 H   0  0  0  0  0  0  0  0  0  0  0  0
    5.0508    1.8422    1.0034 H   0  0  0  0  0  0  0  0  0  0  0  0
    7.4761    1.3690    1.2003 H   0  0  0  0  0  0  0  0  0  0  0  0
    8.4195   -0.7940    0.3469 H   0  0  0  0  0  0  0  0  0  0  0  0
    6.8870   -2.4881   -0.6965 H   0  0  0  0  0  0  0  0  0  0  0  0
    4.4426   -2.0053   -0.9046 H   0  0  0  0  0  0  0  0  0  0  0  0
  3  2  2  0  0  0  0
  3  1  1  0  0  0  0
  4  3  1  0  0  0  0
  5  4  2  0  0  0  0
  5  6  1  0  0  0  0
  6  8  2  0  0  0  0
  7  6  1  0  0  0  0
  7 16  1  0  0  0  0
  8  1  1  0  0  0  0
  8  9  1  0  0  0  0
  9 10  1  0  0  0  0
 10 11  2  0  0  0  0
 10 19  1  0  0  0  0
 11 20  1  0  0  0  0
 12 21  1  0  0  0  0
 12 11  1  0  0  0  0
 13 12  2  0  0  0  0
 14 13  1  0  0  0  0
 14  9  2  0  0  0  0
 15  7  1  0  0  0  0
 17  7  1  0  0  0  0
 18  5  1  0  0  0  0
 22 13  1  0  0  0  0
 23 14  1  0  0  0  0
M  END
