2
 OpenBabel05122313113D

 34 33  0  0  0  0  0  0  0  0999 V2000
   -3.1928    0.1605   -0.2364 P   0  0  0  0  0  4  0  0  0  0  0  0
   -1.9168    0.0288   -1.4636 C   0  0  0  0  0  3  0  0  0  0  0  0
   -2.9418    1.6880    0.7818 C   0  0  0  0  0  0  0  0  0  0  0  0
   -3.9394    1.8312    1.9364 C   0  0  0  0  0  0  0  0  0  0  0  0
   -2.8776    2.9476   -0.0893 C   0  0  0  0  0  0  0  0  0  0  0  0
   -4.9264    0.2905   -0.9675 C   0  0  0  0  0  0  0  0  0  0  0  0
   -4.9984   -0.3187   -2.3740 C   0  0  0  0  0  0  0  0  0  0  0  0
   -6.0421   -0.2436   -0.0587 C   0  0  0  0  0  0  0  0  0  0  0  0
   -3.1732   -1.3010    0.9082 C   0  0  0  0  0  0  0  0  0  0  0  0
   -1.9289   -1.2921    1.8042 C   0  0  0  0  0  0  0  0  0  0  0  0
   -3.2864   -2.6084    0.1084 C   0  0  0  0  0  0  0  0  0  0  0  0
   -2.1333   -0.8593   -2.0933 H   0  0  0  0  0  0  0  0  0  0  0  0
   -1.9437    0.9472   -2.0868 H   0  0  0  0  0  0  0  0  0  0  0  0
   -1.9220    1.5247    1.1898 H   0  0  0  0  0  0  0  0  0  0  0  0
   -5.0537    1.3916   -1.0689 H   0  0  0  0  0  0  0  0  0  0  0  0
   -4.0792   -1.1723    1.5390 H   0  0  0  0  0  0  0  0  0  0  0  0
   -3.6238    2.6719    2.5875 H   0  0  0  0  0  0  0  0  0  0  0  0
   -4.9604    2.0687    1.5742 H   0  0  0  0  0  0  0  0  0  0  0  0
   -3.9988    0.9262    2.5729 H   0  0  0  0  0  0  0  0  0  0  0  0
   -2.6408    3.8198    0.5529 H   0  0  0  0  0  0  0  0  0  0  0  0
   -2.0745    2.8821   -0.8471 H   0  0  0  0  0  0  0  0  0  0  0  0
   -3.8431    3.1586   -0.5955 H   0  0  0  0  0  0  0  0  0  0  0  0
   -5.9987   -0.1264   -2.8141 H   0  0  0  0  0  0  0  0  0  0  0  0
   -4.2377    0.1113   -3.0527 H   0  0  0  0  0  0  0  0  0  0  0  0
   -4.8476   -1.4170   -2.3544 H   0  0  0  0  0  0  0  0  0  0  0  0
   -7.0307   -0.0050   -0.5028 H   0  0  0  0  0  0  0  0  0  0  0  0
   -5.9890   -1.3459    0.0450 H   0  0  0  0  0  0  0  0  0  0  0  0
   -6.0202    0.1961    0.9563 H   0  0  0  0  0  0  0  0  0  0  0  0
   -1.9044   -2.2159    2.4174 H   0  0  0  0  0  0  0  0  0  0  0  0
   -1.0058   -1.2673    1.1806 H   0  0  0  0  0  0  0  0  0  0  0  0
   -1.8988   -0.4267    2.4945 H   0  0  0  0  0  0  0  0  0  0  0  0
   -3.3603   -3.4622    0.8133 H   0  0  0  0  0  0  0  0  0  0  0  0
   -4.1840   -2.6359   -0.5408 H   0  0  0  0  0  0  0  0  0  0  0  0
   -2.3790   -2.7504   -0.5161 H   0  0  0  0  0  0  0  0  0  0  0  0
  1  3  1  0  0  0  0
  1  9  1  0  0  0  0
  2  1  1  0  0  0  0
  3 14  1  0  0  0  0
  3  4  1  0  0  0  0
  4 19  1  0  0  0  0
  4 17  1  0  0  0  0
  5 20  1  0  0  0  0
  5  3  1  0  0  0  0
  6  1  1  0  0  0  0
  6  8  1  0  0  0  0
  7 25  1  0  0  0  0
  7  6  1  0  0  0  0
  8 27  1  0  0  0  0
  8 28  1  0  0  0  0
  9 16  1  0  0  0  0
  9 10  1  0  0  0  0
 10 29  1  0  0  0  0
 10 31  1  0  0  0  0
 11 32  1  0  0  0  0
 11  9  1  0  0  0  0
 12  2  1  0  0  0  0
 13  2  1  0  0  0  0
 15  6  1  0  0  0  0
 18  4  1  0  0  0  0
 21  5  1  0  0  0  0
 22  5  1  0  0  0  0
 23  7  1  0  0  0  0
 24  7  1  0  0  0  0
 26  8  1  0  0  0  0
 30 10  1  0  0  0  0
 33 11  1  0  0  0  0
 34 11  1  0  0  0  0
M  END
