2
 OpenBabel05122313113D

 23 23  0  0  1  0  0  0  0  0999 V2000
    1.5654    0.2811   -1.7016 S   0  0  0  0  0  0  0  0  0  0  0  0
    1.1659    1.6000   -0.5465 C   0  0  1  0  0  3  0  0  0  0  0  0
    1.4077    1.1603    0.8065 C   0  0  2  0  0  3  0  0  0  0  0  0
    1.7332   -0.2555    0.8432 C   0  0  1  0  0  3  0  0  0  0  0  0
    2.5783   -0.7055   -0.3508 C   0  0  1  0  0  0  0  0  0  0  0  0
    0.8828    2.9860   -1.0307 C   0  0  0  0  0  0  0  0  0  0  0  0
    0.3598    2.9727   -2.0060 H   0  0  0  0  0  0  0  0  0  0  0  0
    1.8208    3.5667   -1.1584 H   0  0  0  0  0  0  0  0  0  0  0  0
    0.2445    3.5278   -0.3056 H   0  0  0  0  0  0  0  0  0  0  0  0
    1.2901    2.0672    1.9963 C   0  0  0  0  0  0  0  0  0  0  0  0
    0.9858    1.5108    2.9020 H   0  0  0  0  0  0  0  0  0  0  0  0
    0.5607    2.8821    1.8296 H   0  0  0  0  0  0  0  0  0  0  0  0
    2.2717    2.5389    2.2159 H   0  0  0  0  0  0  0  0  0  0  0  0
    1.9251   -1.0162    2.1281 C   0  0  0  0  0  0  0  0  0  0  0  0
    1.6957   -2.0911    1.9943 H   0  0  0  0  0  0  0  0  0  0  0  0
    1.2757   -0.6318    2.9366 H   0  0  0  0  0  0  0  0  0  0  0  0
    2.9783   -0.9489    2.4768 H   0  0  0  0  0  0  0  0  0  0  0  0
    2.5158   -2.1746   -0.7273 C   0  0  0  0  0  0  0  0  0  0  0  0
    1.4705   -2.5167   -0.8333 H   0  0  0  0  0  0  0  0  0  0  0  0
    3.0160   -2.7650    0.0653 H   0  0  0  0  0  0  0  0  0  0  0  0
    3.0682   -2.3531   -1.6691 H   0  0  0  0  0  0  0  0  0  0  0  0
    3.9027   -0.3284   -0.2931 O   0  0  0  0  0  0  0  0  0  0  0  0
    3.9595    0.5680    0.0942 H   0  0  0  0  0  0  0  0  0  0  0  0
  1  2  1  0  0  0  0
  1  5  1  0  0  0  0
  2  6  1  6  0  0  0
  2  3  1  0  0  0  0
  3  4  1  0  0  0  0
  3 10  1  1  0  0  0
  4 14  1  1  0  0  0
  5 22  1  1  0  0  0
  5  4  1  0  0  0  0
  6  9  1  0  0  0  0
  7  6  1  0  0  0  0
  8  6  1  0  0  0  0
 10 13  1  0  0  0  0
 10 11  1  0  0  0  0
 12 10  1  0  0  0  0
 14 17  1  0  0  0  0
 14 16  1  0  0  0  0
 15 14  1  0  0  0  0
 18  5  1  0  0  0  0
 18 20  1  0  0  0  0
 19 18  1  0  0  0  0
 21 18  1  0  0  0  0
 22 23  1  0  0  0  0
M  END
