19
 OpenBabel05122313113D

 51 55  0  0  1  0  0  0  0  0999 V2000
   -0.5008    1.2830   -0.4938 N   0  0  0  0  0  0  0  0  0  0  0  0
   -0.6311   -0.8761   -0.8822 N   0  0  0  0  0  0  0  0  0  0  0  0
    0.8803    0.9377   -0.8438 C   0  0  2  0  0  0  0  0  0  0  0  0
    0.7712   -0.5821   -1.1870 C   0  0  1  0  0  0  0  0  0  0  0  0
    1.9423    1.1317    0.3013 C   0  0  1  0  0  0  0  0  0  0  0  0
    1.8031   -1.3936   -0.3263 C   0  0  2  0  0  0  0  0  0  0  0  0
    1.4756   -1.1227    1.1263 C   0  0  0  0  0  0  0  0  0  0  0  0
    1.1195   -2.0740    2.0894 C   0  0  0  0  0  0  0  0  0  0  0  0
    0.8315   -1.6569    3.4009 C   0  0  0  0  0  0  0  0  0  0  0  0
    0.9007   -0.2966    3.7405 C   0  0  0  0  0  0  0  0  0  0  0  0
    1.2568    0.6598    2.7733 C   0  0  0  0  0  0  0  0  0  0  0  0
    1.5425    0.2474    1.4658 C   0  0  0  0  0  0  0  0  0  0  0  0
    3.1569   -0.7791   -0.6294 C   0  0  0  0  0  0  0  0  0  0  0  0
    4.2573   -1.4232   -1.2068 C   0  0  0  0  0  0  0  0  0  0  0  0
    5.4432   -0.6999   -1.4304 C   0  0  0  0  0  0  0  0  0  0  0  0
    5.5204    0.6585   -1.0847 C   0  0  0  0  0  0  0  0  0  0  0  0
    4.4124    1.3095   -0.5119 C   0  0  0  0  0  0  0  0  0  0  0  0
    3.2346    0.5894   -0.2808 C   0  0  0  0  0  0  0  0  0  0  0  0
   -1.3354    0.2177   -0.5199 C   0  0  0  0  0  2  0  0  0  0  0  0
   -0.9916    2.6458   -0.2404 C   0  0  0  0  0  0  0  0  0  0  0  0
   -0.8107    3.0892    1.2153 C   0  0  0  0  0  0  0  0  0  0  0  0
   -0.4078    3.6457   -1.2401 C   0  0  0  0  0  0  0  0  0  0  0  0
   -1.2352   -2.1906   -1.1680 C   0  0  0  0  0  0  0  0  0  0  0  0
   -1.9848   -2.7502    0.0460 C   0  0  0  0  0  0  0  0  0  0  0  0
   -2.1362   -2.1256   -2.4082 C   0  0  0  0  0  0  0  0  0  0  0  0
    1.2177    1.5293   -1.7181 H   0  0  0  0  0  0  0  0  0  0  0  0
    0.9830   -0.7797   -2.2600 H   0  0  0  0  0  0  0  0  0  0  0  0
    2.0295    2.1975    0.5818 H   0  0  0  0  0  0  0  0  0  0  0  0
    1.7668   -2.4706   -0.5779 H   0  0  0  0  0  0  0  0  0  0  0  0
    1.0730   -3.1409    1.8205 H   0  0  0  0  0  0  0  0  0  0  0  0
    0.5540   -2.4000    4.1634 H   0  0  0  0  0  0  0  0  0  0  0  0
    0.6780    0.0240    4.7693 H   0  0  0  0  0  0  0  0  0  0  0  0
    1.3163    1.7247    3.0437 H   0  0  0  0  0  0  0  0  0  0  0  0
    4.1948   -2.4889   -1.4776 H   0  0  0  0  0  0  0  0  0  0  0  0
    6.3144   -1.2030   -1.8764 H   0  0  0  0  0  0  0  0  0  0  0  0
    6.4520    1.2173   -1.2605 H   0  0  0  0  0  0  0  0  0  0  0  0
    4.4708    2.3755   -0.2413 H   0  0  0  0  0  0  0  0  0  0  0  0
   -2.0852    2.5587   -0.4244 H   0  0  0  0  0  0  0  0  0  0  0  0
   -1.3531    4.0403    1.3885 H   0  0  0  0  0  0  0  0  0  0  0  0
   -1.2211    2.3248    1.9030 H   0  0  0  0  0  0  0  0  0  0  0  0
    0.2539    3.2596    1.4719 H   0  0  0  0  0  0  0  0  0  0  0  0
   -0.8932    4.6323   -1.1090 H   0  0  0  0  0  0  0  0  0  0  0  0
    0.6823    3.7949   -1.0919 H   0  0  0  0  0  0  0  0  0  0  0  0
   -0.5775    3.3175   -2.2849 H   0  0  0  0  0  0  0  0  0  0  0  0
   -0.3740   -2.8578   -1.3860 H   0  0  0  0  0  0  0  0  0  0  0  0
   -2.3026   -3.7933   -0.1521 H   0  0  0  0  0  0  0  0  0  0  0  0
   -1.3508   -2.7324    0.9530 H   0  0  0  0  0  0  0  0  0  0  0  0
   -2.8996   -2.1502    0.2462 H   0  0  0  0  0  0  0  0  0  0  0  0
   -2.4903   -3.1383   -2.6859 H   0  0  0  0  0  0  0  0  0  0  0  0
   -3.0261   -1.4982   -2.1865 H   0  0  0  0  0  0  0  0  0  0  0  0
   -1.6028   -1.6903   -3.2770 H   0  0  0  0  0  0  0  0  0  0  0  0
  1 20  1  0  0  0  0
  2 19  1  0  0  0  0
  3 26  1  6  0  0  0
  3  1  1  0  0  0  0
  3  5  1  0  0  0  0
  4 27  1  6  0  0  0
  4  2  1  0  0  0  0
  4  3  1  0  0  0  0
  4  6  1  0  0  0  0
  5 28  1  1  0  0  0
  5 12  1  0  0  0  0
  6 29  1  6  0  0  0
  6  7  1  0  0  0  0
  7 12  2  0  0  0  0
  7  8  1  0  0  0  0
  8  9  2  0  0  0  0
  9 10  1  0  0  0  0
  9 31  1  0  0  0  0
 10 32  1  0  0  0  0
 11 33  1  0  0  0  0
 11 10  2  0  0  0  0
 12 11  1  0  0  0  0
 13  6  1  0  0  0  0
 13 18  1  0  0  0  0
 14 13  2  0  0  0  0
 15 14  1  0  0  0  0
 15 16  2  0  0  0  0
 16 17  1  0  0  0  0
 17 18  2  0  0  0  0
 17 37  1  0  0  0  0
 18  5  1  0  0  0  0
 19  1  1  0  0  0  0
 20 21  1  0  0  0  0
 21 39  1  0  0  0  0
 21 41  1  0  0  0  0
 21 40  1  0  0  0  0
 22 42  1  0  0  0  0
 22 43  1  0  0  0  0
 22 20  1  0  0  0  0
 23  2  1  0  0  0  0
 23 24  1  0  0  0  0
 24 48  1  0  0  0  0
 24 47  1  0  0  0  0
 25 50  1  0  0  0  0
 25 23  1  0  0  0  0
 30  8  1  0  0  0  0
 34 14  1  0  0  0  0
 35 15  1  0  0  0  0
 36 16  1  0  0  0  0
 38 20  1  0  0  0  0
 44 22  1  0  0  0  0
 45 23  1  0  0  0  0
 46 24  1  0  0  0  0
 49 25  1  0  0  0  0
 51 25  1  0  0  0  0
M  END
