9
 OpenBabel05122313113D

 54 58  0  0  0  0  0  0  0  0999 V2000
    0.2441   -1.4251    1.4649 N   0  0  0  0  0  0  0  0  0  0  0  0
   -0.4582   -2.4962    0.8043 C   0  0  0  0  0  0  0  0  0  0  0  0
    1.5270   -0.6054    3.3776 C   0  0  0  0  0  0  0  0  0  0  0  0
    0.6502   -0.2376    3.9501 H   0  0  0  0  0  0  0  0  0  0  0  0
    2.3266   -0.8661    4.0983 H   0  0  0  0  0  0  0  0  0  0  0  0
    1.1428   -1.8261    2.5582 C   0  0  0  0  0  0  0  0  0  0  0  0
    0.6030   -2.5733    3.1758 H   0  0  0  0  0  0  0  0  0  0  0  0
    2.0459   -2.3260    2.1431 H   0  0  0  0  0  0  0  0  0  0  0  0
    0.0303   -0.1451    1.0563 C   0  0  0  0  0  2  0  0  0  0  0  0
    0.2532   -3.3436   -0.0827 C   0  0  0  0  0  0  0  0  0  0  0  0
   -1.8210   -4.6030   -0.4469 C   0  0  0  0  0  0  0  0  0  0  0  0
   -2.3532   -5.4225   -0.9533 H   0  0  0  0  0  0  0  0  0  0  0  0
   -1.8181   -2.7171    1.0834 C   0  0  0  0  0  0  0  0  0  0  0  0
   -2.3254   -2.0455    1.7918 H   0  0  0  0  0  0  0  0  0  0  0  0
    2.2722   -1.9281   -0.7041 C   0  0  0  0  0  0  0  0  0  0  0  0
    1.6272   -1.0476   -0.8269 H   0  0  0  0  0  0  0  0  0  0  0  0
    2.5689   -4.2908   -0.2393 C   0  0  0  0  0  0  0  0  0  0  0  0
    2.1453   -5.2662    0.0455 H   0  0  0  0  0  0  0  0  0  0  0  0
    1.7079   -3.1752   -0.3501 C   0  0  0  0  0  0  0  0  0  0  0  0
    4.4960   -2.9143   -0.7886 C   0  0  0  0  0  0  0  0  0  0  0  0
    5.5794   -2.8086   -0.9517 H   0  0  0  0  0  0  0  0  0  0  0  0
   -0.4585   -4.3997   -0.6980 C   0  0  0  0  0  0  0  0  0  0  0  0
    0.0754   -5.0513   -1.4062 H   0  0  0  0  0  0  0  0  0  0  0  0
    3.9486   -4.1632   -0.4563 C   0  0  0  0  0  0  0  0  0  0  0  0
    4.6003   -5.0448   -0.3557 H   0  0  0  0  0  0  0  0  0  0  0  0
   -2.5012   -3.7661    0.4526 C   0  0  0  0  0  0  0  0  0  0  0  0
   -3.5690   -3.9256    0.6652 H   0  0  0  0  0  0  0  0  0  0  0  0
    3.6516   -1.7995   -0.9167 C   0  0  0  0  0  0  0  0  0  0  0  0
    4.0643   -0.8176   -1.1881 H   0  0  0  0  0  0  0  0  0  0  0  0
    0.9237    0.7996    1.4687 N   0  0  0  0  0  0  0  0  0  0  0  0
    0.7161    2.1854    1.1268 C   0  0  0  0  0  0  0  0  0  0  0  0
    2.0030    0.4805    2.4220 C   0  0  0  0  0  0  0  0  0  0  0  0
    2.2580    1.4113    2.9632 H   0  0  0  0  0  0  0  0  0  0  0  0
    2.9087    0.1441    1.8727 H   0  0  0  0  0  0  0  0  0  0  0  0
    1.6315    2.8913    0.3054 C   0  0  0  0  0  0  0  0  0  0  0  0
    0.1671    4.8622    0.4417 C   0  0  0  0  0  0  0  0  0  0  0  0
   -0.0405    5.9059    0.1612 H   0  0  0  0  0  0  0  0  0  0  0  0
   -0.4396    2.8273    1.6131 C   0  0  0  0  0  0  0  0  0  0  0  0
   -1.1307    2.2566    2.2505 H   0  0  0  0  0  0  0  0  0  0  0  0
    2.9760    2.0883   -1.6639 C   0  0  0  0  0  0  0  0  0  0  0  0
    2.0893    2.2576   -2.2925 H   0  0  0  0  0  0  0  0  0  0  0  0
    4.0457    2.1311    0.5104 C   0  0  0  0  0  0  0  0  0  0  0  0
    4.0117    2.3589    1.5855 H   0  0  0  0  0  0  0  0  0  0  0  0
    2.8868    2.3195   -0.2732 C   0  0  0  0  0  0  0  0  0  0  0  0
    5.3213    1.4737   -1.4551 C   0  0  0  0  0  0  0  0  0  0  0  0
    6.2669    1.1469   -1.9136 H   0  0  0  0  0  0  0  0  0  0  0  0
    1.3248    4.2310   -0.0300 C   0  0  0  0  0  0  0  0  0  0  0  0
    2.0263    4.7768   -0.6789 H   0  0  0  0  0  0  0  0  0  0  0  0
    5.2499    1.7085   -0.0730 C   0  0  0  0  0  0  0  0  0  0  0  0
    6.1435    1.5769    0.5561 H   0  0  0  0  0  0  0  0  0  0  0  0
   -0.7142    4.1586    1.2750 C   0  0  0  0  0  0  0  0  0  0  0  0
   -1.6262    4.6379    1.6611 H   0  0  0  0  0  0  0  0  0  0  0  0
    4.1795    1.6662   -2.2491 C   0  0  0  0  0  0  0  0  0  0  0  0
    4.2247    1.4899   -3.3345 H   0  0  0  0  0  0  0  0  0  0  0  0
  1  6  1  0  0  0  0
  2 13  1  0  0  0  0
  2  1  1  0  0  0  0
  3  4  1  0  0  0  0
  3  5  1  0  0  0  0
  6  7  1  0  0  0  0
  6  3  1  0  0  0  0
  8  6  1  0  0  0  0
  9  1  1  0  0  0  0
  9 30  1  0  0  0  0
 10  2  2  0  0  0  0
 11 26  1  0  0  0  0
 12 11  1  0  0  0  0
 13 14  1  0  0  0  0
 15 19  1  0  0  0  0
 16 15  1  0  0  0  0
 17 18  1  0  0  0  0
 19 17  2  0  0  0  0
 19 10  1  0  0  0  0
 20 24  2  0  0  0  0
 21 20  1  0  0  0  0
 22 11  2  0  0  0  0
 22 10  1  0  0  0  0
 23 22  1  0  0  0  0
 24 25  1  0  0  0  0
 24 17  1  0  0  0  0
 26 27  1  0  0  0  0
 26 13  2  0  0  0  0
 28 20  1  0  0  0  0
 28 15  2  0  0  0  0
 29 28  1  0  0  0  0
 30 32  1  0  0  0  0
 31 30  1  0  0  0  0
 31 38  1  0  0  0  0
 32 33  1  0  0  0  0
 32  3  1  0  0  0  0
 34 32  1  0  0  0  0
 35 31  2  0  0  0  0
 36 51  1  0  0  0  0
 37 36  1  0  0  0  0
 38 39  1  0  0  0  0
 40 44  1  0  0  0  0
 41 40  1  0  0  0  0
 42 43  1  0  0  0  0
 44 35  1  0  0  0  0
 44 42  2  0  0  0  0
 45 49  2  0  0  0  0
 46 45  1  0  0  0  0
 47 35  1  0  0  0  0
 47 36  2  0  0  0  0
 48 47  1  0  0  0  0
 49 42  1  0  0  0  0
 49 50  1  0  0  0  0
 51 38  2  0  0  0  0
 51 52  1  0  0  0  0
 53 40  2  0  0  0  0
 53 45  1  0  0  0  0
 54 53  1  0  0  0  0
M  END
