2
 OpenBabel05122313113D

 11 10  0  0  0  0  0  0  0  0999 V2000
    0.7729   -1.3883   -1.3852 C   0  0  0  0  0  3  0  0  0  0  0  0
    1.4944   -1.2544   -0.1450 C   0  0  0  0  0  3  0  0  0  0  0  0
    0.7722   -1.7045    1.0062 C   0  0  0  0  0  3  0  0  0  0  0  0
    2.8066   -0.5354    0.0462 C   0  0  0  0  0  0  0  0  0  0  0  0
    3.3440   -0.4186    1.1280 O   0  0  0  0  0  0  0  0  0  0  0  0
    3.3842   -0.0277   -1.0744 O   0  0  0  0  0  0  0  0  0  0  0  0
    1.1935   -0.9999   -2.3291 H   0  0  0  0  0  0  0  0  0  0  0  0
    0.1892   -2.3141   -1.5272 H   0  0  0  0  0  0  0  0  0  0  0  0
    1.2411   -1.5524    1.9890 H   0  0  0  0  0  0  0  0  0  0  0  0
    0.1467   -2.6059    0.8991 H   0  0  0  0  0  0  0  0  0  0  0  0
    2.8181   -0.2275   -1.8460 H   0  0  0  0  0  0  0  0  0  0  0  0
  1  2  1  0  0  0  0
  2  4  1  0  0  0  0
  2  3  1  0  0  0  0
  3  9  1  0  0  0  0
  4  5  2  0  0  0  0
  6  4  1  0  0  0  0
  7  1  1  0  0  0  0
  8  1  1  0  0  0  0
 10  3  1  0  0  0  0
 11  6  1  0  0  0  0
M  END
