10
 OpenBabel05122313113D

 13 12  0  0  0  0  0  0  0  0999 V2000
   -5.8545    0.6856   -0.2421 Br  0  0  0  0  0  0  0  0  0  0  0  0
   -1.2005   -2.3787    1.2512 F   0  0  0  0  0  0  0  0  0  0  0  0
   -1.3042   -2.4990   -0.9577 F   0  0  0  0  0  0  0  0  0  0  0  0
   -1.2266    0.3431   -1.0235 F   0  0  0  0  0  0  0  0  0  0  0  0
   -1.3567    0.3153    1.1842 F   0  0  0  0  0  0  0  0  0  0  0  0
   -3.5013   -0.8546   -1.3473 F   0  0  0  0  0  0  0  0  0  0  0  0
   -3.6719   -1.4591    0.7687 F   0  0  0  0  0  0  0  0  0  0  0  0
   -3.8790    1.0699    1.5853 F   0  0  0  0  0  0  0  0  0  0  0  0
   -3.3969    1.8546   -0.3946 F   0  0  0  0  0  0  0  0  0  0  0  0
   -0.8333   -1.7205    0.0898 C   0  0  0  0  0  0  0  0  0  0  0  0
   -1.6453   -0.4008    0.0517 C   0  0  0  0  0  0  0  0  0  0  0  0
   -3.2020   -0.5100   -0.0737 C   0  0  0  0  0  0  0  0  0  0  0  0
   -3.9494    0.8226    0.2697 C   0  0  0  0  0  0  0  0  0  0  0  0
  1 13  1  0  0  0  0
  3 10  1  0  0  0  0
  4 11  1  0  0  0  0
  6 12  1  0  0  0  0
  9 13  1  0  0  0  0
 10  2  1  0  0  0  0
 11 10  1  0  0  0  0
 11  5  1  0  0  0  0
 12 11  1  0  0  0  0
 12 13  1  0  0  0  0
 12  7  1  0  0  0  0
 13  8  1  0  0  0  0
M  END
