2
 OpenBabel05122313113D

 18 18  0  0  0  0  0  0  0  0999 V2000
    1.9908   -0.2610   -0.0003 N   0  0  0  0  0  2  0  0  0  0  0  0
    0.8045   -0.2203   -0.0005 C   0  0  0  0  0  1  0  0  0  0  0  0
    3.3639   -0.2268   -0.0001 C   0  0  0  0  0  0  0  0  0  0  0  0
    4.0912   -1.4369    0.0001 C   0  0  0  0  0  0  0  0  0  0  0  0
    5.4842   -1.4086    0.0004 C   0  0  0  0  0  0  0  0  0  0  0  0
    6.1713   -0.1686    0.0005 C   0  0  0  0  0  0  0  0  0  0  0  0
    5.4206    1.0334    0.0003 C   0  0  0  0  0  0  0  0  0  0  0  0
    4.0198    1.0368   -0.0000 C   0  0  0  0  0  0  0  0  0  0  0  0
    7.5981   -0.1283    0.0008 C   0  0  0  0  0  0  0  0  0  0  0  0
    8.8233   -0.0942    0.0011 C   0  0  0  0  0  0  0  0  0  0  0  0
    3.2225    2.3104   -0.0003 C   0  0  0  0  0  0  0  0  0  0  0  0
    3.5435   -2.3896    0.0000 H   0  0  0  0  0  0  0  0  0  0  0  0
    5.9575    1.9932    0.0004 H   0  0  0  0  0  0  0  0  0  0  0  0
    3.8835    3.1964   -0.0003 H   0  0  0  0  0  0  0  0  0  0  0  0
    2.5600    2.3698   -0.8889 H   0  0  0  0  0  0  0  0  0  0  0  0
    6.0581   -2.3456    0.0006 H   0  0  0  0  0  0  0  0  0  0  0  0
    9.9042   -0.0644    0.0014 H   0  0  0  0  0  0  0  0  0  0  0  0
    2.5597    2.3700    0.8881 H   0  0  0  0  0  0  0  0  0  0  0  0
  1  3  1  0  0  0  0
  2  1  1  0  0  0  0
  3  8  2  0  0  0  0
  3  4  1  0  0  0  0
  4  5  2  0  0  0  0
  5  6  1  0  0  0  0
  5 16  1  0  0  0  0
  6  9  1  0  0  0  0
  7 13  1  0  0  0  0
  7  6  2  0  0  0  0
  8  7  1  0  0  0  0
  9 10  3  0  0  0  0
 10 17  1  0  0  0  0
 11 14  1  0  0  0  0
 11  8  1  0  0  0  0
 11 18  1  0  0  0  0
 12  4  1  0  0  0  0
 15 11  1  0  0  0  0
M  END
