3
 OpenBabel05122313113D

 31 31  0  0  1  0  0  0  0  0999 V2000
    0.8699   -1.3980    1.6061 S   0  0  0  0  0  1  0  0  0  0  0  0
    2.5315   -1.6957    0.2704 Si  0  0  0  0  0  0  0  0  0  0  0  0
    2.2503   -0.0541   -0.6164 C   0  0  1  0  0  3  0  0  0  0  0  0
    1.5952    0.1871   -1.8681 C   0  0  0  0  0  0  0  0  0  0  0  0
    1.0470    1.5123   -1.8455 C   0  0  0  0  0  0  0  0  0  0  0  0
    1.4802    2.1449   -0.6340 C   0  0  0  0  0  0  0  0  0  0  0  0
    2.1715    1.1742    0.1505 C   0  0  0  0  0  0  0  0  0  0  0  0
    1.6349   -0.6720   -3.0933 C   0  0  0  0  0  0  0  0  0  0  0  0
    0.6879   -0.6309   -3.6652 H   0  0  0  0  0  0  0  0  0  0  0  0
    1.8411   -1.7297   -2.8576 H   0  0  0  0  0  0  0  0  0  0  0  0
    2.4480   -0.3046   -3.7576 H   0  0  0  0  0  0  0  0  0  0  0  0
    0.3298    2.1536   -2.9941 C   0  0  0  0  0  0  0  0  0  0  0  0
   -0.1783    3.0913   -2.6978 H   0  0  0  0  0  0  0  0  0  0  0  0
   -0.4353    1.4721   -3.4162 H   0  0  0  0  0  0  0  0  0  0  0  0
    1.0349    2.4055   -3.8161 H   0  0  0  0  0  0  0  0  0  0  0  0
    1.5129    3.6193   -0.3746 C   0  0  0  0  0  0  0  0  0  0  0  0
    1.3386    3.8780    0.6865 H   0  0  0  0  0  0  0  0  0  0  0  0
    0.7926    4.1824   -0.9930 H   0  0  0  0  0  0  0  0  0  0  0  0
    2.5269    3.9969   -0.6309 H   0  0  0  0  0  0  0  0  0  0  0  0
    2.8551    1.4626    1.4564 C   0  0  0  0  0  0  0  0  0  0  0  0
    2.4536    2.3747    1.9358 H   0  0  0  0  0  0  0  0  0  0  0  0
    3.9436    1.6230    1.2991 H   0  0  0  0  0  0  0  0  0  0  0  0
    2.7295    0.6260    2.1704 H   0  0  0  0  0  0  0  0  0  0  0  0
    4.2052   -1.8251    1.1405 C   0  0  0  0  0  0  0  0  0  0  0  0
    5.0179   -1.9150    0.3889 H   0  0  0  0  0  0  0  0  0  0  0  0
    4.2275   -2.7342    1.7763 H   0  0  0  0  0  0  0  0  0  0  0  0
    4.4212   -0.9507    1.7826 H   0  0  0  0  0  0  0  0  0  0  0  0
    2.2857   -3.2434   -0.7768 C   0  0  0  0  0  0  0  0  0  0  0  0
    1.2817   -3.2331   -1.2457 H   0  0  0  0  0  0  0  0  0  0  0  0
    2.3520   -4.1297   -0.1126 H   0  0  0  0  0  0  0  0  0  0  0  0
    3.0628   -3.3473   -1.5620 H   0  0  0  0  0  0  0  0  0  0  0  0
  2 24  1  0  0  0  0
  2  1  1  0  0  0  0
  3  7  1  0  0  0  0
  3  2  1  1  0  0  0
  4  5  2  0  0  0  0
  4  3  1  0  0  0  0
  5  6  1  0  0  0  0
  6 16  1  0  0  0  0
  6  7  2  0  0  0  0
  7 20  1  0  0  0  0
  8 10  1  0  0  0  0
  8  4  1  0  0  0  0
  9  8  1  0  0  0  0
 11  8  1  0  0  0  0
 12 13  1  0  0  0  0
 12  5  1  0  0  0  0
 14 12  1  0  0  0  0
 15 12  1  0  0  0  0
 16 17  1  0  0  0  0
 18 16  1  0  0  0  0
 19 16  1  0  0  0  0
 20 21  1  0  0  0  0
 20 23  1  0  0  0  0
 22 20  1  0  0  0  0
 24 26  1  0  0  0  0
 24 27  1  0  0  0  0
 25 24  1  0  0  0  0
 28 30  1  0  0  0  0
 28  2  1  0  0  0  0
 29 28  1  0  0  0  0
 31 28  1  0  0  0  0
M  END
