1
 OpenBabel05122313113D

 56 60  0  0  1  0  0  0  0  0999 V2000
    0.6786   -0.6108   -0.9269 C   0  0  2  0  0  3  0  0  0  0  0  0
    0.7533   -0.5192   -2.4492 C   0  0  0  0  0  0  0  0  0  0  0  0
   -0.4185   -1.5323   -0.6142 O   0  0  0  0  0  0  0  0  0  0  0  0
   -1.2703   -0.4770   -0.2674 B   0  0  0  0  0  0  0  0  0  0  0  0
   -2.6485   -0.5948    0.0535 N   0  0  0  0  0  0  0  0  0  0  0  0
   -0.0808    0.6404   -0.2713 C   0  0  0  0  0  0  0  0  0  0  0  0
   -3.2415   -1.9890    0.0032 C   0  0  0  0  0  0  0  0  0  0  0  0
   -4.6550   -2.0429    0.6285 C   0  0  0  0  0  0  0  0  0  0  0  0
   -5.5706   -0.9046    0.2113 C   0  0  0  0  0  0  0  0  0  0  0  0
   -4.9042    0.3854    0.6599 C   0  0  0  0  0  0  0  0  0  0  0  0
   -3.5222    0.6325    0.0144 C   0  0  0  0  0  0  0  0  0  0  0  0
   -2.8792    1.7799    0.8141 C   0  0  0  0  0  0  0  0  0  0  0  0
   -3.7148    1.0854   -1.4496 C   0  0  0  0  0  0  0  0  0  0  0  0
   -2.3846   -2.9599    0.8449 C   0  0  0  0  0  0  0  0  0  0  0  0
   -3.3004   -2.4847   -1.4580 C   0  0  0  0  0  0  0  0  0  0  0  0
    0.0190    1.9906   -0.9466 C   0  0  0  0  0  0  0  0  0  0  0  0
   -0.2804    2.3994   -2.2576 C   0  0  0  0  0  0  0  0  0  0  0  0
   -0.0658    3.7348   -2.6425 C   0  0  0  0  0  0  0  0  0  0  0  0
    0.4443    4.6772   -1.7313 C   0  0  0  0  0  0  0  0  0  0  0  0
    0.7302    4.2958   -0.4124 C   0  0  0  0  0  0  0  0  0  0  0  0
    0.5133    2.9633   -0.0248 C   0  0  0  0  0  0  0  0  0  0  0  0
    0.6679    2.3274    1.2832 C   0  0  0  0  0  0  0  0  0  0  0  0
    1.0677    2.8621    2.5203 C   0  0  0  0  0  0  0  0  0  0  0  0
    1.0547    2.0338    3.6530 C   0  0  0  0  0  0  0  0  0  0  0  0
    0.6102    0.7005    3.5517 C   0  0  0  0  0  0  0  0  0  0  0  0
    0.2056    0.1677    2.3158 C   0  0  0  0  0  0  0  0  0  0  0  0
    0.2770    0.9666    1.1664 C   0  0  0  0  0  0  0  0  0  0  0  0
    1.4826    0.2371   -2.7947 H   0  0  0  0  0  0  0  0  0  0  0  0
   -0.2414   -0.2613   -2.8726 H   0  0  0  0  0  0  0  0  0  0  0  0
    1.0299   -1.4995   -2.8797 H   0  0  0  0  0  0  0  0  0  0  0  0
   -4.5526   -2.0159    1.7355 H   0  0  0  0  0  0  0  0  0  0  0  0
   -5.0862   -3.0338    0.3778 H   0  0  0  0  0  0  0  0  0  0  0  0
   -6.5687   -1.0145    0.6835 H   0  0  0  0  0  0  0  0  0  0  0  0
   -5.7422   -0.9071   -0.8864 H   0  0  0  0  0  0  0  0  0  0  0  0
   -5.5330    1.2728    0.4416 H   0  0  0  0  0  0  0  0  0  0  0  0
   -4.7783    0.3518    1.7644 H   0  0  0  0  0  0  0  0  0  0  0  0
   -2.5773    1.4358    1.8218 H   0  0  0  0  0  0  0  0  0  0  0  0
   -3.6174    2.5987    0.9303 H   0  0  0  0  0  0  0  0  0  0  0  0
   -1.9991    2.2115    0.3093 H   0  0  0  0  0  0  0  0  0  0  0  0
   -4.2298    0.3162   -2.0568 H   0  0  0  0  0  0  0  0  0  0  0  0
   -2.7334    1.2896   -1.9181 H   0  0  0  0  0  0  0  0  0  0  0  0
   -4.3137    2.0178   -1.4980 H   0  0  0  0  0  0  0  0  0  0  0  0
   -2.2425   -2.5515    1.8658 H   0  0  0  0  0  0  0  0  0  0  0  0
   -2.9178   -3.9276    0.9358 H   0  0  0  0  0  0  0  0  0  0  0  0
   -1.3932   -3.1503    0.4023 H   0  0  0  0  0  0  0  0  0  0  0  0
   -2.2922   -2.4574   -1.9124 H   0  0  0  0  0  0  0  0  0  0  0  0
   -3.6684   -3.5302   -1.4979 H   0  0  0  0  0  0  0  0  0  0  0  0
   -3.9794   -1.8632   -2.0743 H   0  0  0  0  0  0  0  0  0  0  0  0
   -0.6936    1.6949   -2.9907 H   0  0  0  0  0  0  0  0  0  0  0  0
   -0.3087    4.0450   -3.6701 H   0  0  0  0  0  0  0  0  0  0  0  0
    0.6053    5.7180   -2.0506 H   0  0  0  0  0  0  0  0  0  0  0  0
    1.1092    5.0322    0.3128 H   0  0  0  0  0  0  0  0  0  0  0  0
    1.3743    3.9162    2.6022 H   0  0  0  0  0  0  0  0  0  0  0  0
    1.3661    2.4344    4.6296 H   0  0  0  0  0  0  0  0  0  0  0  0
    0.5683    0.0689    4.4520 H   0  0  0  0  0  0  0  0  0  0  0  0
   -0.1708   -0.8619    2.2631 H   0  0  0  0  0  0  0  0  0  0  0  0
  1  2  1  6  0  0  0
  1  3  1  0  0  0  0
  1  6  1  0  0  0  0
  3  4  1  0  0  0  0
  4  5  1  0  0  0  0
  6  4  1  0  0  0  0
  6 27  1  0  0  0  0
  7  5  1  0  0  0  0
  7  8  1  0  0  0  0
  7 14  1  0  0  0  0
  8 31  1  0  0  0  0
  9  8  1  0  0  0  0
  9 10  1  0  0  0  0
  9 33  1  0  0  0  0
 10 36  1  0  0  0  0
 11  5  1  0  0  0  0
 11 10  1  0  0  0  0
 11 12  1  0  0  0  0
 12 38  1  0  0  0  0
 12 37  1  0  0  0  0
 13 11  1  0  0  0  0
 14 44  1  0  0  0  0
 14 43  1  0  0  0  0
 15  7  1  0  0  0  0
 16  6  1  0  0  0  0
 16 21  1  0  0  0  0
 17 16  2  0  0  0  0
 18 17  1  0  0  0  0
 18 19  2  0  0  0  0
 19 20  1  0  0  0  0
 20 21  2  0  0  0  0
 20 52  1  0  0  0  0
 21 22  1  0  0  0  0
 22 23  1  0  0  0  0
 23 53  1  0  0  0  0
 23 24  2  0  0  0  0
 24 54  1  0  0  0  0
 25 24  1  0  0  0  0
 25 55  1  0  0  0  0
 26 25  2  0  0  0  0
 27 22  2  0  0  0  0
 27 26  1  0  0  0  0
 28  2  1  0  0  0  0
 29  2  1  0  0  0  0
 30  2  1  0  0  0  0
 32  8  1  0  0  0  0
 34  9  1  0  0  0  0
 35 10  1  0  0  0  0
 39 12  1  0  0  0  0
 40 13  1  0  0  0  0
 41 13  1  0  0  0  0
 42 13  1  0  0  0  0
 45 14  1  0  0  0  0
 46 15  1  0  0  0  0
 47 15  1  0  0  0  0
 48 15  1  0  0  0  0
 49 17  1  0  0  0  0
 50 18  1  0  0  0  0
 51 19  1  0  0  0  0
 56 26  1  0  0  0  0
M  END
