43
 OpenBabel05122313113D

 50 50  0  0  0  0  0  0  0  0999 V2000
   -0.3379    1.4590    0.7388 P   0  0  0  0  0  0  0  0  0  0  0  0
    0.4495    3.1571    0.9683 C   0  0  0  0  0  0  0  0  0  0  0  0
   -0.2046    3.7156    1.6695 H   0  0  0  0  0  0  0  0  0  0  0  0
    0.4908    3.9062   -0.3683 C   0  0  0  0  0  0  0  0  0  0  0  0
    1.1421    4.8014   -0.2879 H   0  0  0  0  0  0  0  0  0  0  0  0
   -0.5139    4.2378   -0.6904 H   0  0  0  0  0  0  0  0  0  0  0  0
    0.9003    3.2640   -1.1706 H   0  0  0  0  0  0  0  0  0  0  0  0
    1.8330    3.0139    1.6108 C   0  0  0  0  0  0  0  0  0  0  0  0
    2.5142    2.4389    0.9553 H   0  0  0  0  0  0  0  0  0  0  0  0
    1.8010    2.4611    2.5688 H   0  0  0  0  0  0  0  0  0  0  0  0
    2.2724    4.0170    1.7915 H   0  0  0  0  0  0  0  0  0  0  0  0
   -1.0228    0.9554    2.4487 C   0  0  0  0  0  0  0  0  0  0  0  0
   -0.2728    0.2029    2.7660 H   0  0  0  0  0  0  0  0  0  0  0  0
   -2.3933    0.2736    2.3663 C   0  0  0  0  0  0  0  0  0  0  0  0
   -2.6497   -0.1187    3.3725 H   0  0  0  0  0  0  0  0  0  0  0  0
   -2.3929   -0.5879    1.6775 H   0  0  0  0  0  0  0  0  0  0  0  0
   -3.1934    0.9778    2.0622 H   0  0  0  0  0  0  0  0  0  0  0  0
   -1.0460    2.0885    3.4793 C   0  0  0  0  0  0  0  0  0  0  0  0
   -1.7594    2.8948    3.2082 H   0  0  0  0  0  0  0  0  0  0  0  0
   -0.0515    2.5408    3.6530 H   0  0  0  0  0  0  0  0  0  0  0  0
   -1.3890    1.6746    4.4506 H   0  0  0  0  0  0  0  0  0  0  0  0
   -1.9126    1.8724   -0.1566 C   0  0  0  0  0  0  0  0  0  0  0  0
   -2.6455    2.9929    0.2971 C   0  0  0  0  0  0  0  0  0  0  0  0
   -2.2328    3.6328    1.0908 H   0  0  0  0  0  0  0  0  0  0  0  0
   -3.9021    3.3106   -0.2340 C   0  0  0  0  0  0  0  0  0  0  0  0
   -4.4493    4.1891    0.1400 H   0  0  0  0  0  0  0  0  0  0  0  0
   -4.4545    2.4970   -1.2341 C   0  0  0  0  0  0  0  0  0  0  0  0
   -5.4452    2.7273   -1.6550 H   0  0  0  0  0  0  0  0  0  0  0  0
   -3.7368    1.3868   -1.6948 C   0  0  0  0  0  0  0  0  0  0  0  0
   -4.1640    0.7381   -2.4745 H   0  0  0  0  0  0  0  0  0  0  0  0
   -2.4662    1.0596   -1.1786 C   0  0  0  0  0  0  0  0  0  0  0  0
   -1.7224   -0.1331   -1.7342 C   0  0  0  0  0  0  0  0  0  0  0  0
   -0.7230    0.2114   -2.0435 H   0  0  0  0  0  0  0  0  0  0  0  0
   -2.2563   -0.5046   -2.6282 H   0  0  0  0  0  0  0  0  0  0  0  0
   -1.5103   -1.2657   -0.7528 C   0  0  0  0  0  0  0  0  0  0  0  0
   -2.5973   -2.2628   -0.5845 C   0  0  0  0  0  0  0  0  0  0  0  0
   -2.5942   -3.2295    0.1645 O   0  0  0  0  0  0  0  0  0  0  0  0
   -3.6735   -1.9720   -1.3827 O   0  0  0  0  0  0  0  0  0  0  0  0
   -4.7796   -2.8649   -1.2476 C   0  0  0  0  0  0  0  0  0  0  0  0
   -4.4904   -3.9014   -1.5168 H   0  0  0  0  0  0  0  0  0  0  0  0
   -5.5627   -2.4926   -1.9327 H   0  0  0  0  0  0  0  0  0  0  0  0
   -5.1541   -2.8777   -0.2036 H   0  0  0  0  0  0  0  0  0  0  0  0
   -0.3717   -1.3606   -0.0000 C   0  0  0  0  0  3  0  0  0  0  0  0
   -0.1250   -2.5373    0.8885 C   0  0  0  0  0  0  0  0  0  0  0  0
    0.5126   -3.5213    0.5365 O   0  0  0  0  0  0  0  0  0  0  0  0
   -0.6115   -2.3655    2.1323 O   0  0  0  0  0  0  0  0  0  0  0  0
   -0.3279   -3.4241    3.0497 C   0  0  0  0  0  0  0  0  0  0  0  0
   -0.7409   -4.3825    2.6765 H   0  0  0  0  0  0  0  0  0  0  0  0
   -0.8103   -3.1392    4.0019 H   0  0  0  0  0  0  0  0  0  0  0  0
    0.7668   -3.5287    3.1900 H   0  0  0  0  0  0  0  0  0  0  0  0
  1  2  1  0  0  0  0
  1 12  1  0  0  0  0
  2  8  1  0  0  0  0
  2  3  1  0  0  0  0
  4  5  1  0  0  0  0
  4  2  1  0  0  0  0
  6  4  1  0  0  0  0
  7  4  1  0  0  0  0
  8 11  1  0  0  0  0
  8 10  1  0  0  0  0
  9  8  1  0  0  0  0
 12 13  1  0  0  0  0
 12 18  1  0  0  0  0
 14 12  1  0  0  0  0
 14 15  1  0  0  0  0
 16 14  1  0  0  0  0
 17 14  1  0  0  0  0
 18 20  1  0  0  0  0
 18 21  1  0  0  0  0
 19 18  1  0  0  0  0
 22 23  1  0  0  0  0
 22  1  1  0  0  0  0
 23 24  1  0  0  0  0
 25 26  1  0  0  0  0
 25 23  2  0  0  0  0
 27 25  1  0  0  0  0
 28 27  1  0  0  0  0
 29 27  2  0  0  0  0
 29 31  1  0  0  0  0
 30 29  1  0  0  0  0
 31 22  2  0  0  0  0
 32 31  1  0  0  0  0
 32 35  1  0  0  0  0
 33 32  1  0  0  0  0
 34 32  1  0  0  0  0
 35 36  1  0  0  0  0
 35 43  2  0  0  0  0
 36 37  2  0  0  0  0
 38 39  1  0  0  0  0
 38 36  1  0  0  0  0
 39 42  1  0  0  0  0
 40 39  1  0  0  0  0
 41 39  1  0  0  0  0
 43 44  1  0  0  0  0
 44 46  1  0  0  0  0
 45 44  2  0  0  0  0
 46 47  1  0  0  0  0
 47 50  1  0  0  0  0
 47 49  1  0  0  0  0
 48 47  1  0  0  0  0
M  END
