1
 OpenBabel05122313113D

 20 20  0  0  0  0  0  0  0  0999 V2000
   -0.7662    0.4776    2.4855 C   0  0  0  0  0  3  0  0  0  0  0  0
   -1.9046    0.5685    2.8913 O   0  0  0  0  0  0  0  0  0  0  0  0
    0.3851    1.3632    3.0356 C   0  0  0  0  0  0  0  0  0  0  0  0
    1.3686    1.7763    1.9840 C   0  0  0  0  0  0  0  0  0  0  0  0
    2.3622    0.9531    1.5641 C   0  0  0  0  0  0  0  0  0  0  0  0
    3.2182    1.1263    0.3863 C   0  0  0  0  0  0  0  0  0  0  0  0
    3.2407    2.3057   -0.3986 C   0  0  0  0  0  0  0  0  0  0  0  0
    4.0083    2.3768   -1.5667 C   0  0  0  0  0  0  0  0  0  0  0  0
    4.7782    1.2757   -1.9842 C   0  0  0  0  0  0  0  0  0  0  0  0
    4.7798    0.1038   -1.2104 C   0  0  0  0  0  0  0  0  0  0  0  0
    4.0130    0.0328   -0.0392 C   0  0  0  0  0  0  0  0  0  0  0  0
   -0.0783    2.2181    3.5668 H   0  0  0  0  0  0  0  0  0  0  0  0
    0.8631    0.6910    3.7819 H   0  0  0  0  0  0  0  0  0  0  0  0
    1.1578    2.7184    1.4503 H   0  0  0  0  0  0  0  0  0  0  0  0
    2.4990    0.0017    2.1085 H   0  0  0  0  0  0  0  0  0  0  0  0
    2.6427    3.1748   -0.0891 H   0  0  0  0  0  0  0  0  0  0  0  0
    4.0097    3.3042   -2.1605 H   0  0  0  0  0  0  0  0  0  0  0  0
    5.3801    1.3363   -2.9036 H   0  0  0  0  0  0  0  0  0  0  0  0
    5.3842   -0.7624   -1.5212 H   0  0  0  0  0  0  0  0  0  0  0  0
    4.0020   -0.8915    0.5600 H   0  0  0  0  0  0  0  0  0  0  0  0
  1  2  2  0  0  0  0
  1  3  1  0  0  0  0
  3 12  1  0  0  0  0
  3 13  1  0  0  0  0
  4  3  1  0  0  0  0
  5  4  2  0  0  0  0
  5 15  1  0  0  0  0
  6  5  1  0  0  0  0
  7 16  1  0  0  0  0
  7  6  2  0  0  0  0
  8  7  1  0  0  0  0
  9  8  2  0  0  0  0
  9 10  1  0  0  0  0
 10 11  2  0  0  0  0
 11  6  1  0  0  0  0
 11 20  1  0  0  0  0
 14  4  1  0  0  0  0
 17  8  1  0  0  0  0
 18  9  1  0  0  0  0
 19 10  1  0  0  0  0
M  END
