32
 OpenBabel05122313113D

 55 58  0  0  0  0  0  0  0  0999 V2000
    0.2514    1.2743   -0.2792 P   0  0  0  0  0  0  0  0  0  0  0  0
   -1.3640   -1.6198   -2.6902 O   0  0  0  0  0  0  0  0  0  0  0  0
   -0.8398   -3.4221   -1.4139 O   0  0  0  0  0  0  0  0  0  0  0  0
   -4.2636   -0.0650   -0.0142 O   0  0  0  0  0  0  0  0  0  0  0  0
   -3.6555   -1.9558   -1.1041 O   0  0  0  0  0  0  0  0  0  0  0  0
   -1.0892    1.6389   -1.4908 C   0  0  0  0  0  0  0  0  0  0  0  0
   -2.2954    2.2464   -1.0925 C   0  0  0  0  0  0  0  0  0  0  0  0
   -2.4813    2.4700   -0.0326 H   0  0  0  0  0  0  0  0  0  0  0  0
   -0.8671    1.3458   -2.8520 C   0  0  0  0  0  0  0  0  0  0  0  0
    0.0700    0.8543   -3.1540 H   0  0  0  0  0  0  0  0  0  0  0  0
   -0.4065    1.8602    1.3333 C   0  0  0  0  0  0  0  0  0  0  0  0
   -1.3943    1.0956    2.0689 C   0  0  0  0  0  0  0  0  0  0  0  0
   -2.0714   -0.0999    1.6088 C   0  0  0  0  0  0  0  0  0  0  0  0
   -2.9291   -0.7606    2.5049 C   0  0  0  0  0  0  0  0  0  0  0  0
   -3.4179   -1.6839    2.1590 H   0  0  0  0  0  0  0  0  0  0  0  0
   -3.2015   -0.3038    3.8095 C   0  0  0  0  0  0  0  0  0  0  0  0
   -3.8850   -0.8717    4.4583 H   0  0  0  0  0  0  0  0  0  0  0  0
   -2.6082    0.8645    4.2500 C   0  0  0  0  0  0  0  0  0  0  0  0
   -2.8091    1.2611    5.2569 H   0  0  0  0  0  0  0  0  0  0  0  0
   -1.7022    1.5699    3.4108 C   0  0  0  0  0  0  0  0  0  0  0  0
   -1.0717    2.7369    3.9371 C   0  0  0  0  0  0  0  0  0  0  0  0
   -1.3404    3.0554    4.9562 H   0  0  0  0  0  0  0  0  0  0  0  0
   -0.1362    3.4357    3.2025 C   0  0  0  0  0  0  0  0  0  0  0  0
    0.3578    4.3282    3.6143 H   0  0  0  0  0  0  0  0  0  0  0  0
   -3.0600    2.2502   -3.4022 C   0  0  0  0  0  0  0  0  0  0  0  0
   -3.8328    2.4854   -4.1502 H   0  0  0  0  0  0  0  0  0  0  0  0
    0.1954    2.9836    1.9027 C   0  0  0  0  0  0  0  0  0  0  0  0
    0.9578    3.5320    1.3329 H   0  0  0  0  0  0  0  0  0  0  0  0
   -2.0279   -0.7777    0.2705 C   0  0  0  0  0  0  0  0  0  0  0  0
   -3.2780    2.5473   -2.0484 C   0  0  0  0  0  0  0  0  0  0  0  0
   -4.2220    3.0132   -1.7268 H   0  0  0  0  0  0  0  0  0  0  0  0
   -0.9244   -1.2640   -0.3842 C   0  0  0  0  0  3  0  0  0  0  0  0
   -1.0679   -2.2243   -1.5268 C   0  0  0  0  0  0  0  0  0  0  0  0
   -1.3947   -2.4719   -3.8352 C   0  0  0  0  0  0  0  0  0  0  0  0
   -1.6475   -1.8206   -4.6915 H   0  0  0  0  0  0  0  0  0  0  0  0
   -2.1613   -3.2630   -3.7117 H   0  0  0  0  0  0  0  0  0  0  0  0
   -0.4040   -2.9449   -3.9903 H   0  0  0  0  0  0  0  0  0  0  0  0
   -1.8528    1.6522   -3.7992 C   0  0  0  0  0  0  0  0  0  0  0  0
   -1.6770    1.4138   -4.8594 H   0  0  0  0  0  0  0  0  0  0  0  0
   -3.3672   -1.0420   -0.3476 C   0  0  0  0  0  0  0  0  0  0  0  0
   -5.5293   -0.1588   -0.6666 C   0  0  0  0  0  0  0  0  0  0  0  0
   -6.1557    0.6457   -0.2402 H   0  0  0  0  0  0  0  0  0  0  0  0
   -5.9973   -1.1493   -0.4949 H   0  0  0  0  0  0  0  0  0  0  0  0
   -5.4157   -0.0155   -1.7613 H   0  0  0  0  0  0  0  0  0  0  0  0
    1.5247    2.4971   -0.8088 C   0  0  0  0  0  0  0  0  0  0  0  0
    2.8669    2.0940   -0.9266 C   0  0  0  0  0  0  0  0  0  0  0  0
    3.1269    1.0479   -0.7140 H   0  0  0  0  0  0  0  0  0  0  0  0
    3.8423    3.0072   -1.3556 C   0  0  0  0  0  0  0  0  0  0  0  0
    4.8890    2.6809   -1.4532 H   0  0  0  0  0  0  0  0  0  0  0  0
    3.4817    4.3246   -1.6761 C   0  0  0  0  0  0  0  0  0  0  0  0
    4.2468    5.0392   -2.0161 H   0  0  0  0  0  0  0  0  0  0  0  0
    2.1378    4.7260   -1.5823 C   0  0  0  0  0  0  0  0  0  0  0  0
    1.8479    5.7532   -1.8510 H   0  0  0  0  0  0  0  0  0  0  0  0
    1.1599    3.8152   -1.1598 C   0  0  0  0  0  0  0  0  0  0  0  0
    0.1045    4.1239   -1.1088 H   0  0  0  0  0  0  0  0  0  0  0  0
  1 11  1  0  0  0  0
  2 33  1  0  0  0  0
  5 40  2  0  0  0  0
  6  7  1  0  0  0  0
  6  1  1  0  0  0  0
  7  8  1  0  0  0  0
  9  6  2  0  0  0  0
 10  9  1  0  0  0  0
 11 27  2  0  0  0  0
 11 12  1  0  0  0  0
 12 20  1  0  0  0  0
 13 12  2  0  0  0  0
 13 14  1  0  0  0  0
 14 16  2  0  0  0  0
 15 14  1  0  0  0  0
 16 18  1  0  0  0  0
 16 17  1  0  0  0  0
 18 19  1  0  0  0  0
 20 21  1  0  0  0  0
 20 18  2  0  0  0  0
 21 22  1  0  0  0  0
 23 24  1  0  0  0  0
 23 21  2  0  0  0  0
 25 30  1  0  0  0  0
 26 25  1  0  0  0  0
 27 23  1  0  0  0  0
 28 27  1  0  0  0  0
 29 13  1  0  0  0  0
 30 31  1  0  0  0  0
 30  7  2  0  0  0  0
 32 29  2  0  0  0  0
 33  3  2  0  0  0  0
 33 32  1  0  0  0  0
 34 36  1  0  0  0  0
 34  2  1  0  0  0  0
 35 34  1  0  0  0  0
 37 34  1  0  0  0  0
 38 25  2  0  0  0  0
 38  9  1  0  0  0  0
 39 38  1  0  0  0  0
 40  4  1  0  0  0  0
 40 29  1  0  0  0  0
 41 43  1  0  0  0  0
 41 42  1  0  0  0  0
 41  4  1  0  0  0  0
 44 41  1  0  0  0  0
 45  1  1  0  0  0  0
 46 45  1  0  0  0  0
 46 47  1  0  0  0  0
 48 46  2  0  0  0  0
 49 48  1  0  0  0  0
 50 52  2  0  0  0  0
 50 48  1  0  0  0  0
 51 50  1  0  0  0  0
 52 54  1  0  0  0  0
 53 52  1  0  0  0  0
 54 55  1  0  0  0  0
 54 45  2  0  0  0  0
M  END
