1
 OpenBabel05122313113D

 26 29  0  0  0  0  0  0  0  0999 V2000
    2.1261   -0.0000   -1.9285 C   0  0  0  0  0  3  0  0  0  0  0  0
    3.1586   -0.0001   -2.3073 H   0  0  0  0  0  0  0  0  0  0  0  0
    1.4799    1.2350   -1.6622 C   0  0  0  0  0  3  0  0  0  0  0  0
    2.0065    2.1830   -1.8396 H   0  0  0  0  0  0  0  0  0  0  0  0
    0.1400    1.2576   -1.1544 C   0  0  0  0  0  0  0  0  0  0  0  0
   -0.5595    2.4889   -0.8839 C   0  0  0  0  0  0  0  0  0  0  0  0
   -0.0546    3.4396   -1.1074 H   0  0  0  0  0  0  0  0  0  0  0  0
   -1.8304    2.4722   -0.3672 C   0  0  0  0  0  0  0  0  0  0  0  0
   -2.3553    3.4208   -0.1772 H   0  0  0  0  0  0  0  0  0  0  0  0
   -2.5148    1.2404   -0.0653 C   0  0  0  0  0  0  0  0  0  0  0  0
   -3.8232    1.2172    0.4691 C   0  0  0  0  0  0  0  0  0  0  0  0
   -4.3361    2.1691    0.6735 H   0  0  0  0  0  0  0  0  0  0  0  0
   -4.4654    0.0000    0.7358 C   0  0  0  0  0  0  0  0  0  0  0  0
   -5.4830    0.0000    1.1526 H   0  0  0  0  0  0  0  0  0  0  0  0
   -3.8232   -1.2172    0.4691 C   0  0  0  0  0  0  0  0  0  0  0  0
   -4.3361   -2.1691    0.6735 H   0  0  0  0  0  0  0  0  0  0  0  0
   -2.5148   -1.2404   -0.0653 C   0  0  0  0  0  0  0  0  0  0  0  0
   -1.8304   -2.4722   -0.3672 C   0  0  0  0  0  3  0  0  0  0  0  0
   -2.3553   -3.4208   -0.1772 H   0  0  0  0  0  0  0  0  0  0  0  0
   -0.5595   -2.4889   -0.8839 C   0  0  0  0  0  0  0  0  0  0  0  0
   -0.0546   -3.4397   -1.1074 H   0  0  0  0  0  0  0  0  0  0  0  0
    0.1400   -1.2576   -1.1544 C   0  0  0  0  0  0  0  0  0  0  0  0
    1.4799   -1.2351   -1.6622 C   0  0  0  0  0  3  0  0  0  0  0  0
    2.0064   -2.1831   -1.8395 H   0  0  0  0  0  0  0  0  0  0  0  0
   -1.8526    0.0000   -0.3248 C   0  0  0  0  0  0  0  0  0  0  0  0
   -0.5260   -0.0000   -0.8731 C   0  0  0  0  0  0  0  0  0  0  0  0
  1  3  1  0  0  0  0
  1 23  1  0  0  0  0
  2  1  1  0  0  0  0
  3  5  1  0  0  0  0
  4  3  1  0  0  0  0
  5  6  2  0  0  0  0
  5 26  1  0  0  0  0
  6  8  1  0  0  0  0
  7  6  1  0  0  0  0
  8  9  1  0  0  0  0
  8 10  2  0  0  0  0
 10 11  1  0  0  0  0
 11 12  1  0  0  0  0
 11 13  2  0  0  0  0
 13 14  1  0  0  0  0
 15 16  1  0  0  0  0
 15 13  1  0  0  0  0
 17 15  2  0  0  0  0
 18 19  1  0  0  0  0
 18 17  1  0  0  0  0
 20 18  1  0  0  0  0
 21 20  1  0  0  0  0
 22 20  2  0  0  0  0
 22 26  1  0  0  0  0
 23 22  1  0  0  0  0
 24 23  1  0  0  0  0
 25 10  1  0  0  0  0
 25 17  1  0  0  0  0
 26 25  2  0  0  0  0
M  END
