8
 OpenBabel05122313113D

 39 40  0  0  0  0  0  0  0  0999 V2000
   -3.0641   -1.3944    0.5509 C   0  0  0  0  0  0  0  0  0  0  0  0
   -4.1145   -1.7279    0.6311 H   0  0  0  0  0  0  0  0  0  0  0  0
   -2.6129   -1.2882    1.5571 H   0  0  0  0  0  0  0  0  0  0  0  0
   -2.4781   -2.1317   -0.0308 H   0  0  0  0  0  0  0  0  0  0  0  0
   -3.0356   -0.1042   -0.1236 N   0  0  0  0  0  0  0  0  0  0  0  0
   -1.3370    3.9712   -0.6264 C   0  0  0  0  0  0  0  0  0  0  0  0
   -8.3651   -0.8794    0.0936 Si  0  0  0  0  0  0  0  0  0  0  0  0
   -1.8934    0.5661   -0.4234 C   0  0  0  0  0  2  0  0  0  0  0  0
   -1.4112    6.3948   -0.3374 C   0  0  0  0  0  0  0  0  0  0  0  0
   -1.5449    7.3985   -0.7691 H   0  0  0  0  0  0  0  0  0  0  0  0
   -0.9919    4.9577    1.5744 C   0  0  0  0  0  0  0  0  0  0  0  0
   -0.7913    4.8289    2.6490 H   0  0  0  0  0  0  0  0  0  0  0  0
   -4.1710    0.6213   -0.5343 C   0  0  0  0  0  0  0  0  0  0  0  0
   -1.1554    6.2443    1.0339 C   0  0  0  0  0  0  0  0  0  0  0  0
   -1.0858    7.1306    1.6830 H   0  0  0  0  0  0  0  0  0  0  0  0
   -1.0801    3.8255    0.7525 C   0  0  0  0  0  0  0  0  0  0  0  0
   -0.9486    2.8213    1.1899 H   0  0  0  0  0  0  0  0  0  0  0  0
   -1.4003    2.7569   -1.5293 C   0  0  0  0  0  0  0  0  0  0  0  0
   -1.7227    3.0447   -2.5494 H   0  0  0  0  0  0  0  0  0  0  0  0
   -0.4099    2.2654   -1.6260 H   0  0  0  0  0  0  0  0  0  0  0  0
   -6.6458   -0.2473   -0.1807 C   0  0  0  0  0  0  0  0  0  0  0  0
   -3.6824    1.7808   -1.1117 C   0  0  0  0  0  0  0  0  0  0  0  0
   -4.2167    2.6263   -1.5525 H   0  0  0  0  0  0  0  0  0  0  0  0
   -1.5046    5.2618   -1.1615 C   0  0  0  0  0  0  0  0  0  0  0  0
   -1.7087    5.3814   -2.2380 H   0  0  0  0  0  0  0  0  0  0  0  0
   -5.4950    0.1710   -0.3538 C   0  0  0  0  0  0  0  0  0  0  0  0
   -2.3058    1.7165   -1.0412 N   0  0  0  0  0  0  0  0  0  0  0  0
   -9.1780   -1.1634   -1.5880 C   0  0  0  0  0  0  0  0  0  0  0  0
  -10.2117   -1.5462   -1.4588 H   0  0  0  0  0  0  0  0  0  0  0  0
   -8.6076   -1.9027   -2.1853 H   0  0  0  0  0  0  0  0  0  0  0  0
   -9.2302   -0.2204   -2.1686 H   0  0  0  0  0  0  0  0  0  0  0  0
   -9.3247    0.4100    1.0862 C   0  0  0  0  0  0  0  0  0  0  0  0
   -8.8414    0.5972    2.0660 H   0  0  0  0  0  0  0  0  0  0  0  0
  -10.3620    0.0623    1.2722 H   0  0  0  0  0  0  0  0  0  0  0  0
   -9.3773    1.3734    0.5402 H   0  0  0  0  0  0  0  0  0  0  0  0
   -8.2291   -2.5011    1.0538 C   0  0  0  0  0  0  0  0  0  0  0  0
   -7.7291   -2.3436    2.0307 H   0  0  0  0  0  0  0  0  0  0  0  0
   -7.6453   -3.2524    0.4846 H   0  0  0  0  0  0  0  0  0  0  0  0
   -9.2373   -2.9228    1.2466 H   0  0  0  0  0  0  0  0  0  0  0  0
  1  2  1  0  0  0  0
  1  3  1  0  0  0  0
  4  1  1  0  0  0  0
  5  1  1  0  0  0  0
  6 16  1  0  0  0  0
  7 36  1  0  0  0  0
  7 32  1  0  0  0  0
  8  5  1  0  0  0  0
  9 14  2  0  0  0  0
 10  9  1  0  0  0  0
 11 12  1  0  0  0  0
 13 26  1  0  0  0  0
 13  5  1  0  0  0  0
 14 11  1  0  0  0  0
 14 15  1  0  0  0  0
 16 17  1  0  0  0  0
 16 11  2  0  0  0  0
 18 27  1  0  0  0  0
 18  6  1  0  0  0  0
 19 18  1  0  0  0  0
 20 18  1  0  0  0  0
 21  7  1  0  0  0  0
 22 27  1  0  0  0  0
 22 13  2  0  0  0  0
 23 22  1  0  0  0  0
 24  6  2  0  0  0  0
 24  9  1  0  0  0  0
 25 24  1  0  0  0  0
 26 21  3  0  0  0  0
 27  8  1  0  0  0  0
 28 29  1  0  0  0  0
 28  7  1  0  0  0  0
 30 28  1  0  0  0  0
 31 28  1  0  0  0  0
 32 34  1  0  0  0  0
 32 33  1  0  0  0  0
 35 32  1  0  0  0  0
 36 39  1  0  0  0  0
 36 37  1  0  0  0  0
 38 36  1  0  0  0  0
M  END
