4
 OpenBabel05122313113D

 46 48  0  0  0  0  0  0  0  0999 V2000
   -0.5422   -0.2479    0.1631 N   0  0  0  0  0  0  0  0  0  0  0  0
   -0.5553    1.0949    0.3528 N   0  0  0  0  0  0  0  0  0  0  0  0
   -0.7428   -2.9552   -0.2438 C   0  0  0  0  0  0  0  0  0  0  0  0
    0.5930   -0.9216   -0.0402 C   0  0  0  0  0  2  0  0  0  0  0  0
   -1.7208    1.6829    0.3738 C   0  0  0  0  0  0  0  0  0  0  0  0
   -1.7306    3.1546    0.4634 C   0  0  0  0  0  0  0  0  0  0  0  0
   -2.9060    3.8487    0.8292 C   0  0  0  0  0  0  0  0  0  0  0  0
   -3.8235    3.2846    1.0546 H   0  0  0  0  0  0  0  0  0  0  0  0
   -2.9008    5.2472    0.9193 C   0  0  0  0  0  0  0  0  0  0  0  0
   -3.8180    5.7798    1.2127 H   0  0  0  0  0  0  0  0  0  0  0  0
   -1.7277    5.9653    0.6381 C   0  0  0  0  0  0  0  0  0  0  0  0
   -1.7256    7.0639    0.7054 H   0  0  0  0  0  0  0  0  0  0  0  0
   -0.5575    5.2805    0.2618 C   0  0  0  0  0  0  0  0  0  0  0  0
    0.3588    5.8427    0.0271 H   0  0  0  0  0  0  0  0  0  0  0  0
   -0.5525    3.8855    0.1727 C   0  0  0  0  0  0  0  0  0  0  0  0
    0.3458    3.3361   -0.1471 H   0  0  0  0  0  0  0  0  0  0  0  0
   -2.9994    0.9172    0.2335 C   0  0  0  0  0  0  0  0  0  0  0  0
   -3.7852    1.0697   -0.9291 C   0  0  0  0  0  0  0  0  0  0  0  0
   -3.4878    1.8116   -1.6855 H   0  0  0  0  0  0  0  0  0  0  0  0
   -4.9259    0.2768   -1.1200 C   0  0  0  0  0  0  0  0  0  0  0  0
   -5.5295    0.4011   -2.0318 H   0  0  0  0  0  0  0  0  0  0  0  0
   -5.2962   -0.6739   -0.1548 C   0  0  0  0  0  0  0  0  0  0  0  0
   -6.1892   -1.2979   -0.3099 H   0  0  0  0  0  0  0  0  0  0  0  0
   -4.5276   -0.8250    1.0094 C   0  0  0  0  0  0  0  0  0  0  0  0
   -4.8154   -1.5648    1.7710 H   0  0  0  0  0  0  0  0  0  0  0  0
   -3.3851   -0.0343    1.2052 C   0  0  0  0  0  0  0  0  0  0  0  0
   -2.7875   -0.1467    2.1234 H   0  0  0  0  0  0  0  0  0  0  0  0
    0.5039   -2.2444   -0.2489 N   0  0  0  0  0  0  0  0  0  0  0  0
   -1.0748   -3.7384    0.8881 C   0  0  0  0  0  0  0  0  0  0  0  0
   -2.3359   -4.3654    0.8962 C   0  0  0  0  0  0  0  0  0  0  0  0
   -2.6200   -4.9787    1.7652 H   0  0  0  0  0  0  0  0  0  0  0  0
   -3.2256   -4.2078   -0.1746 C   0  0  0  0  0  0  0  0  0  0  0  0
   -4.2103   -4.6982   -0.1445 H   0  0  0  0  0  0  0  0  0  0  0  0
   -2.8673   -3.4337   -1.2867 C   0  0  0  0  0  0  0  0  0  0  0  0
   -3.5652   -3.3219   -2.1302 H   0  0  0  0  0  0  0  0  0  0  0  0
   -1.6143   -2.7958   -1.3523 C   0  0  0  0  0  0  0  0  0  0  0  0
   -1.2063   -1.9855   -2.5559 C   0  0  0  0  0  0  0  0  0  0  0  0
   -1.1323   -0.8992   -2.3367 H   0  0  0  0  0  0  0  0  0  0  0  0
   -1.9331   -2.1124   -3.3794 H   0  0  0  0  0  0  0  0  0  0  0  0
   -0.2029   -2.2847   -2.9198 H   0  0  0  0  0  0  0  0  0  0  0  0
   -0.1033   -3.9010    2.0277 C   0  0  0  0  0  0  0  0  0  0  0  0
   -0.6192   -4.2403    2.9456 H   0  0  0  0  0  0  0  0  0  0  0  0
    0.4535   -2.9685    2.2508 H   0  0  0  0  0  0  0  0  0  0  0  0
    0.6676   -4.6650    1.7855 H   0  0  0  0  0  0  0  0  0  0  0  0
   -1.4430   -0.7676    0.1427 H   0  0  0  0  0  0  0  0  0  0  0  0
    1.3895   -2.7499   -0.1137 H   0  0  0  0  0  0  0  0  0  0  0  0
  1  2  1  0  0  0  0
  2  5  2  0  0  0  0
  3 29  1  0  0  0  0
  4  1  1  0  0  0  0
  5  6  1  0  0  0  0
  6  7  1  0  0  0  0
  7  9  2  0  0  0  0
  7  8  1  0  0  0  0
  9 10  1  0  0  0  0
 11 12  1  0  0  0  0
 11  9  1  0  0  0  0
 13 11  2  0  0  0  0
 14 13  1  0  0  0  0
 15 13  1  0  0  0  0
 15  6  2  0  0  0  0
 16 15  1  0  0  0  0
 17  5  1  0  0  0  0
 17 26  1  0  0  0  0
 18 17  2  0  0  0  0
 19 18  1  0  0  0  0
 20 18  1  0  0  0  0
 20 22  2  0  0  0  0
 21 20  1  0  0  0  0
 22 24  1  0  0  0  0
 23 22  1  0  0  0  0
 24 26  2  0  0  0  0
 24 25  1  0  0  0  0
 26 27  1  0  0  0  0
 28  3  1  0  0  0  0
 28 46  1  0  0  0  0
 28  4  1  0  0  0  0
 29 30  2  0  0  0  0
 29 41  1  0  0  0  0
 30 31  1  0  0  0  0
 32 33  1  0  0  0  0
 32 30  1  0  0  0  0
 34 32  2  0  0  0  0
 35 34  1  0  0  0  0
 36 34  1  0  0  0  0
 36  3  2  0  0  0  0
 37 38  1  0  0  0  0
 37 36  1  0  0  0  0
 39 37  1  0  0  0  0
 40 37  1  0  0  0  0
 41 43  1  0  0  0  0
 41 42  1  0  0  0  0
 44 41  1  0  0  0  0
 45  1  1  0  0  0  0
M  END
