1
 OpenBabel05122313113D

 16 15  0  0  0  0  0  0  0  0999 V2000
    1.3745   -0.1020    0.0731 C   0  0  0  0  0  3  0  0  0  0  0  0
    1.2266    0.9894    0.1235 H   0  0  0  0  0  0  0  0  0  0  0  0
    1.6125   -0.4555    1.0931 H   0  0  0  0  0  0  0  0  0  0  0  0
    2.5053   -0.4026   -0.9034 C   0  0  0  0  0  0  0  0  0  0  0  0
    2.2807    0.0328   -1.8975 H   0  0  0  0  0  0  0  0  0  0  0  0
    2.6483   -1.4901   -1.0603 H   0  0  0  0  0  0  0  0  0  0  0  0
    3.8942    0.1589   -0.5500 C   0  0  0  0  0  0  0  0  0  0  0  0
    4.7146   -0.0452   -1.6479 F   0  0  0  0  0  0  0  0  0  0  0  0
    3.8767    1.6982   -0.3149 C   0  0  0  0  0  0  0  0  0  0  0  0
    5.1092    2.2120   -0.3490 F   0  0  0  0  0  0  0  0  0  0  0  0
    3.1421    2.2962   -1.2792 F   0  0  0  0  0  0  0  0  0  0  0  0
    3.3189    2.0061    0.8812 F   0  0  0  0  0  0  0  0  0  0  0  0
    4.5805   -0.6061    0.6162 C   0  0  0  0  0  0  0  0  0  0  0  0
    3.8658   -0.5126    1.7656 F   0  0  0  0  0  0  0  0  0  0  0  0
    4.6682   -1.9168    0.2967 F   0  0  0  0  0  0  0  0  0  0  0  0
    5.8135   -0.1484    0.8530 F   0  0  0  0  0  0  0  0  0  0  0  0
  1  2  1  0  0  0  0
  1  3  1  0  0  0  0
  4  7  1  0  0  0  0
  4  1  1  0  0  0  0
  5  4  1  0  0  0  0
  6  4  1  0  0  0  0
  7  9  1  0  0  0  0
  7 13  1  0  0  0  0
  8  7  1  0  0  0  0
  9 12  1  0  0  0  0
 10  9  1  0  0  0  0
 11  9  1  0  0  0  0
 13 16  1  0  0  0  0
 13 14  1  0  0  0  0
 15 13  1  0  0  0  0
M  END
