3
 OpenBabel05122313113D

 70 75  0  0  1  0  0  0  0  0999 V2000
   -1.3358    0.7384    2.6020 C   0  0  0  0  0  0  0  0  0  0  0  0
   -2.4227    0.8410    2.5049 H   0  0  0  0  0  0  0  0  0  0  0  0
   -0.3486    1.6275    2.0134 C   0  0  2  0  0  3  0  0  0  0  0  0
    0.9630    1.1365    2.4330 C   0  0  0  0  0  0  0  0  0  0  0  0
    0.7701   -0.0832    3.1905 C   0  0  0  0  0  0  0  0  0  0  0  0
   -0.6675   -0.3138    3.2948 C   0  0  0  0  0  0  0  0  0  0  0  0
   -0.6117    2.8717    1.2261 C   0  0  0  0  0  0  0  0  0  0  0  0
   -0.8504    3.6938    1.9323 H   0  0  0  0  0  0  0  0  0  0  0  0
    0.3375    3.1843    0.7384 H   0  0  0  0  0  0  0  0  0  0  0  0
    2.2826    1.8167    2.2484 C   0  0  0  0  0  0  0  0  0  0  0  0
    2.2734    2.7286    2.8797 H   0  0  0  0  0  0  0  0  0  0  0  0
    3.0670    1.1665    2.6881 H   0  0  0  0  0  0  0  0  0  0  0  0
    1.8046   -0.9349    3.8492 C   0  0  0  0  0  0  0  0  0  0  0  0
    2.8074   -0.7940    3.4084 H   0  0  0  0  0  0  0  0  0  0  0  0
    1.5437   -2.0062    3.7464 H   0  0  0  0  0  0  0  0  0  0  0  0
    1.8656   -0.7070    4.9346 H   0  0  0  0  0  0  0  0  0  0  0  0
   -1.3080   -1.4554    4.0082 C   0  0  0  0  0  0  0  0  0  0  0  0
   -0.9230   -2.4221    3.6235 H   0  0  0  0  0  0  0  0  0  0  0  0
   -2.4060   -1.4445    3.8815 H   0  0  0  0  0  0  0  0  0  0  0  0
   -1.0788   -1.4072    5.0930 H   0  0  0  0  0  0  0  0  0  0  0  0
   -1.5541    0.0287   -0.5553 P   0  0  1  0  0  0  0  0  0  0  0  0
   -0.7099   -0.3039   -2.1686 C   0  0  0  0  0  0  0  0  0  0  0  0
   -0.5994   -1.3995   -2.2527 H   0  0  0  0  0  0  0  0  0  0  0  0
   -1.3324    0.0539   -3.0110 H   0  0  0  0  0  0  0  0  0  0  0  0
   -2.1291    1.7805   -0.6684 C   0  0  0  0  0  0  0  0  0  0  0  0
   -1.7070    2.8621    0.1626 C   0  0  0  0  0  0  0  0  0  0  0  0
    3.3709    1.0857   -2.5741 F   0  0  0  0  0  0  0  0  0  0  0  0
   -1.9258    5.1771    0.6687 F   0  0  0  0  0  0  0  0  0  0  0  0
   -2.2974    4.1212   -0.0680 C   0  0  0  0  0  0  0  0  0  0  0  0
   -3.7865    5.5557   -1.2240 F   0  0  0  0  0  0  0  0  0  0  0  0
   -3.2677    4.3491   -1.0595 C   0  0  0  0  0  0  0  0  0  0  0  0
   -4.5790    3.4675   -2.8277 F   0  0  0  0  0  0  0  0  0  0  0  0
   -3.6706    3.2854   -1.8792 C   0  0  0  0  0  0  0  0  0  0  0  0
   -3.5037    1.0268   -2.4705 F   0  0  0  0  0  0  0  0  0  0  0  0
   -3.0925    2.0251   -1.6697 C   0  0  0  0  0  0  0  0  0  0  0  0
   -3.0789   -0.9819   -0.4421 C   0  0  0  0  0  0  0  0  0  0  0  0
   -4.0651    0.6054    1.0568 F   0  0  0  0  0  0  0  0  0  0  0  0
   -4.1249   -0.5791    0.4157 C   0  0  0  0  0  0  0  0  0  0  0  0
   -6.2231   -0.9455    1.4557 F   0  0  0  0  0  0  0  0  0  0  0  0
   -5.2591   -1.3688    0.6441 C   0  0  0  0  0  0  0  0  0  0  0  0
   -6.4289   -3.3798    0.2143 F   0  0  0  0  0  0  0  0  0  0  0  0
   -5.3649   -2.6197    0.0086 C   0  0  0  0  0  0  0  0  0  0  0  0
   -4.4409   -4.2281   -1.4616 F   0  0  0  0  0  0  0  0  0  0  0  0
   -4.3425   -3.0528   -0.8530 C   0  0  0  0  0  0  0  0  0  0  0  0
   -2.2848   -2.7151   -1.8986 F   0  0  0  0  0  0  0  0  0  0  0  0
   -3.2143   -2.2423   -1.0632 C   0  0  0  0  0  0  0  0  0  0  0  0
    1.5453   -0.0043   -0.5242 P   0  0  2  0  0  0  0  0  0  0  0  0
    0.6511    0.3804   -2.1256 C   0  0  0  0  0  0  0  0  0  0  0  0
    0.5471    1.4862   -2.1146 H   0  0  0  0  0  0  0  0  0  0  0  0
    1.2726    0.1054   -2.9945 H   0  0  0  0  0  0  0  0  0  0  0  0
    2.6629    1.4460   -0.3193 C   0  0  0  0  0  0  0  0  0  0  0  0
    2.7768    2.2189    0.8685 C   0  0  0  0  0  0  0  0  0  0  0  0
    3.7153    4.1375    1.9196 F   0  0  0  0  0  0  0  0  0  0  0  0
    3.5736    3.3791    0.8245 C   0  0  0  0  0  0  0  0  0  0  0  0
    5.0193    4.8715   -0.3154 F   0  0  0  0  0  0  0  0  0  0  0  0
    4.2799    3.7736   -0.3259 C   0  0  0  0  0  0  0  0  0  0  0  0
    4.8752    3.3156   -2.5746 F   0  0  0  0  0  0  0  0  0  0  0  0
    4.2050    2.9806   -1.4805 C   0  0  0  0  0  0  0  0  0  0  0  0
    3.4073    1.8256   -1.4543 C   0  0  0  0  0  0  0  0  0  0  0  0
    2.6771   -1.4168   -0.7913 C   0  0  0  0  0  0  0  0  0  0  0  0
    1.5779   -2.2546   -2.7439 F   0  0  0  0  0  0  0  0  0  0  0  0
    2.5242   -2.3836   -1.8022 C   0  0  0  0  0  0  0  0  0  0  0  0
    3.1835   -4.4141   -2.8321 F   0  0  0  0  0  0  0  0  0  0  0  0
    3.3430   -3.5221   -1.8617 C   0  0  0  0  0  0  0  0  0  0  0  0
    5.1026   -4.7944   -0.9235 F   0  0  0  0  0  0  0  0  0  0  0  0
    4.3287   -3.7213   -0.8777 C   0  0  0  0  0  0  0  0  0  0  0  0
    5.4158   -2.9680    1.0943 F   0  0  0  0  0  0  0  0  0  0  0  0
    4.4935   -2.7798    0.1561 C   0  0  0  0  0  0  0  0  0  0  0  0
    3.8129   -0.7852    1.2055 F   0  0  0  0  0  0  0  0  0  0  0  0
    3.6638   -1.6528    0.1851 C   0  0  0  0  0  0  0  0  0  0  0  0
  1  6  2  0  0  0  0
  2  1  1  0  0  0  0
  3  4  1  1  0  0  0
  3  1  1  0  0  0  0
  4  5  2  0  0  0  0
  5  6  1  0  0  0  0
  5 13  1  0  0  0  0
  6 17  1  0  0  0  0
  7  8  1  0  0  0  0
  7  3  1  0  0  0  0
  9  7  1  0  0  0  0
 10  4  1  0  0  0  0
 10 12  1  0  0  0  0
 10 11  1  0  0  0  0
 13 16  1  0  0  0  0
 14 13  1  0  0  0  0
 15 13  1  0  0  0  0
 17 20  1  0  0  0  0
 18 17  1  0  0  0  0
 19 17  1  0  0  0  0
 21 36  1  6  0  0  0
 22 48  1  0  0  0  0
 22 21  1  0  0  0  0
 23 22  1  0  0  0  0
 24 22  1  0  0  0  0
 25 21  1  0  0  0  0
 25 26  1  0  0  0  0
 26  7  1  0  0  0  0
 27 59  1  0  0  0  0
 29 26  2  0  0  0  0
 29 28  1  0  0  0  0
 30 31  1  0  0  0  0
 31 29  1  0  0  0  0
 32 33  1  0  0  0  0
 33 35  1  0  0  0  0
 33 31  2  0  0  0  0
 34 35  1  0  0  0  0
 35 25  2  0  0  0  0
 36 38  1  0  0  0  0
 38 40  2  0  0  0  0
 38 37  1  0  0  0  0
 40 39  1  0  0  0  0
 42 41  1  0  0  0  0
 42 40  1  0  0  0  0
 43 44  1  0  0  0  0
 44 42  2  0  0  0  0
 45 46  1  0  0  0  0
 46 44  1  0  0  0  0
 46 36  2  0  0  0  0
 47 60  1  6  0  0  0
 47 51  1  0  0  0  0
 48 49  1  0  0  0  0
 48 47  1  0  0  0  0
 50 48  1  0  0  0  0
 51 52  1  0  0  0  0
 52 10  1  0  0  0  0
 54 52  2  0  0  0  0
 54 53  1  0  0  0  0
 56 55  1  0  0  0  0
 56 54  1  0  0  0  0
 57 58  1  0  0  0  0
 58 59  1  0  0  0  0
 58 56  2  0  0  0  0
 59 51  2  0  0  0  0
 60 70  1  0  0  0  0
 61 62  1  0  0  0  0
 62 60  2  0  0  0  0
 63 64  1  0  0  0  0
 64 62  1  0  0  0  0
 64 66  2  0  0  0  0
 65 66  1  0  0  0  0
 66 68  1  0  0  0  0
 68 70  2  0  0  0  0
 68 67  1  0  0  0  0
 70 69  1  0  0  0  0
M  END
