2
 OpenBabel05122313113D

 11 11  0  0  0  0  0  0  0  0999 V2000
   -0.0011    6.0438    0.0001 Br  0  0  0  0  0  0  0  0  0  0  0  0
   -0.0003    1.3118    0.0004 C   0  0  0  0  0  3  0  0  0  0  0  0
    0.2568    2.0364   -1.1812 C   0  0  0  0  0  0  0  0  0  0  0  0
    0.2571    3.4412   -1.1923 C   0  0  0  0  0  0  0  0  0  0  0  0
   -0.0008    4.1320    0.0002 C   0  0  0  0  0  0  0  0  0  0  0  0
    0.4815    1.5053   -2.1196 H   0  0  0  0  0  0  0  0  0  0  0  0
    0.4668    3.9941   -2.1191 H   0  0  0  0  0  0  0  0  0  0  0  0
   -0.2577    2.0365    1.1819 C   0  0  0  0  0  0  0  0  0  0  0  0
   -0.2584    3.4412    1.1928 C   0  0  0  0  0  0  0  0  0  0  0  0
   -0.4822    1.5054    2.1204 H   0  0  0  0  0  0  0  0  0  0  0  0
   -0.4683    3.9942    2.1196 H   0  0  0  0  0  0  0  0  0  0  0  0
  1  5  1  0  0  0  0
  2  8  1  0  0  0  0
  3  2  2  0  0  0  0
  4  3  1  0  0  0  0
  4  5  2  0  0  0  0
  5  9  1  0  0  0  0
  6  3  1  0  0  0  0
  7  4  1  0  0  0  0
  8  9  2  0  0  0  0
  8 10  1  0  0  0  0
  9 11  1  0  0  0  0
M  END
