7
 OpenBabel05122313113D

 24 25  0  0  0  0  0  0  0  0999 V2000
   -1.8345   -2.7735   -1.4184 O   0  0  0  0  0  0  0  0  0  0  0  0
   -1.7249   -1.5378   -1.4802 C   0  0  0  0  0  0  0  0  0  0  0  0
   -2.8975   -0.6423   -1.1398 C   0  0  0  0  0  0  0  0  0  0  0  0
   -2.8282    0.7553   -1.5240 C   0  0  0  0  0  0  0  0  0  0  0  0
   -1.6779    1.3061   -2.0107 C   0  0  0  0  0  0  0  0  0  0  0  0
   -0.4209    0.5592   -2.0893 C   0  0  0  0  0  3  0  0  0  0  0  0
   -0.4587   -0.8777   -1.8576 C   0  0  0  0  0  3  0  0  0  0  0  0
   -3.9726   -1.2572   -0.5420 C   0  0  0  0  0  0  0  0  0  0  0  0
   -5.1741   -0.6464    0.0150 C   0  0  0  0  0  0  0  0  0  0  0  0
   -5.1659    0.6287    0.6393 C   0  0  0  0  0  0  0  0  0  0  0  0
   -6.3408    1.1725    1.1727 C   0  0  0  0  0  0  0  0  0  0  0  0
   -6.3094    2.1570    1.6651 H   0  0  0  0  0  0  0  0  0  0  0  0
   -7.5513    0.4623    1.1027 C   0  0  0  0  0  0  0  0  0  0  0  0
   -8.4731    0.8942    1.5215 H   0  0  0  0  0  0  0  0  0  0  0  0
   -7.5713   -0.8146    0.5160 C   0  0  0  0  0  0  0  0  0  0  0  0
   -8.5109   -1.3869    0.4732 H   0  0  0  0  0  0  0  0  0  0  0  0
   -6.3966   -1.3665   -0.0075 C   0  0  0  0  0  0  0  0  0  0  0  0
   -3.7440    1.3620   -1.4633 H   0  0  0  0  0  0  0  0  0  0  0  0
   -1.6933    2.3511   -2.3626 H   0  0  0  0  0  0  0  0  0  0  0  0
    0.2899    0.9223   -2.8521 H   0  0  0  0  0  0  0  0  0  0  0  0
    0.2400   -1.5308   -2.4077 H   0  0  0  0  0  0  0  0  0  0  0  0
   -3.8997   -2.3583   -0.4966 H   0  0  0  0  0  0  0  0  0  0  0  0
   -4.2088    1.1572    0.7531 H   0  0  0  0  0  0  0  0  0  0  0  0
   -6.4126   -2.3700   -0.4609 H   0  0  0  0  0  0  0  0  0  0  0  0
  2  1  2  0  0  0  0
  2  3  1  0  0  0  0
  3  8  2  0  0  0  0
  4 18  1  0  0  0  0
  4  3  1  0  0  0  0
  5  4  2  0  0  0  0
  6  5  1  0  0  0  0
  6  7  1  0  0  0  0
  7  2  1  0  0  0  0
  8 22  1  0  0  0  0
  8  9  1  0  0  0  0
  9 10  1  0  0  0  0
 10 23  1  0  0  0  0
 10 11  2  0  0  0  0
 11 12  1  0  0  0  0
 13 11  1  0  0  0  0
 13 14  1  0  0  0  0
 15 13  2  0  0  0  0
 16 15  1  0  0  0  0
 17  9  2  0  0  0  0
 17 15  1  0  0  0  0
 19  5  1  0  0  0  0
 20  6  1  0  0  0  0
 21  7  1  0  0  0  0
 24 17  1  0  0  0  0
M  END
