7
 OpenBabel05122313113D

 19 19  0  0  1  0  0  0  0  0999 V2000
    3.0259   -2.4952    0.0413 O   0  0  0  0  0  0  0  0  0  0  0  0
    2.8395   -1.2802    0.1919 C   0  0  0  0  0  0  0  0  0  0  0  0
    3.7907   -0.2901   -0.5149 C   0  0  1  0  0  0  0  0  0  0  0  0
    3.7489    1.1089    0.0357 C   0  0  0  0  0  0  0  0  0  0  0  0
    2.7818    1.5389    0.8766 C   0  0  0  0  0  0  0  0  0  0  0  0
    1.6747    0.6767    1.3295 C   0  0  0  0  0  3  0  0  0  0  0  0
    1.7433   -0.7492    1.0265 C   0  0  0  0  0  3  0  0  0  0  0  0
    5.2212   -0.8659   -0.5950 C   0  0  0  0  0  0  0  0  0  0  0  0
    5.9119   -0.9871    0.7637 C   0  0  0  0  0  0  0  0  0  0  0  0
    3.4075   -0.2444   -1.5639 H   0  0  0  0  0  0  0  0  0  0  0  0
    4.5471    1.7994   -0.2865 H   0  0  0  0  0  0  0  0  0  0  0  0
    2.8199    2.5762    1.2509 H   0  0  0  0  0  0  0  0  0  0  0  0
    1.2776    0.9393    2.3266 H   0  0  0  0  0  0  0  0  0  0  0  0
    1.3676   -1.4754    1.7679 H   0  0  0  0  0  0  0  0  0  0  0  0
    5.8184   -0.2183   -1.2730 H   0  0  0  0  0  0  0  0  0  0  0  0
    5.1532   -1.8638   -1.0717 H   0  0  0  0  0  0  0  0  0  0  0  0
    6.9461   -1.3731    0.6585 H   0  0  0  0  0  0  0  0  0  0  0  0
    5.9661   -0.0070    1.2819 H   0  0  0  0  0  0  0  0  0  0  0  0
    5.3602   -1.6862    1.4245 H   0  0  0  0  0  0  0  0  0  0  0  0
  1  2  2  0  0  0  0
  2  7  1  0  0  0  0
  3 10  1  6  0  0  0
  3  4  1  0  0  0  0
  3  2  1  0  0  0  0
  4  5  2  0  0  0  0
  5 12  1  0  0  0  0
  5  6  1  0  0  0  0
  6 13  1  0  0  0  0
  7  6  1  0  0  0  0
  7 14  1  0  0  0  0
  8  3  1  0  0  0  0
  8  9  1  0  0  0  0
  9 18  1  0  0  0  0
  9 19  1  0  0  0  0
 11  4  1  0  0  0  0
 15  8  1  0  0  0  0
 16  8  1  0  0  0  0
 17  9  1  0  0  0  0
M  END
