2
 OpenBabel05122313113D

 16 16  0  0  0  0  0  0  0  0999 V2000
    0.9958   -0.6324    2.4409 O   0  0  0  0  0  0  0  0  0  0  0  0
    1.2367   -0.5919    1.2503 C   0  0  0  0  0  3  0  0  0  0  0  0
    2.5518   -0.9975    0.6609 C   0  0  0  0  0  0  0  0  0  0  0  0
    3.5940   -1.3660    1.5389 C   0  0  0  0  0  0  0  0  0  0  0  0
    3.4021   -1.3389    2.6217 H   0  0  0  0  0  0  0  0  0  0  0  0
    4.8354   -1.7561    1.0305 C   0  0  0  0  0  0  0  0  0  0  0  0
    5.6416   -2.0423    1.7247 H   0  0  0  0  0  0  0  0  0  0  0  0
    5.0778   -1.7889   -0.3609 C   0  0  0  0  0  0  0  0  0  0  0  0
    4.0266   -1.4242   -1.2294 C   0  0  0  0  0  0  0  0  0  0  0  0
    4.1923   -1.4458   -2.3178 H   0  0  0  0  0  0  0  0  0  0  0  0
    2.7814   -1.0321   -0.7292 C   0  0  0  0  0  0  0  0  0  0  0  0
    1.9655   -0.7430   -1.4125 H   0  0  0  0  0  0  0  0  0  0  0  0
    6.4305   -2.1708   -0.9014 C   0  0  0  0  0  0  0  0  0  0  0  0
    7.0775   -1.2725   -1.0023 H   0  0  0  0  0  0  0  0  0  0  0  0
    6.3558   -2.6311   -1.9061 H   0  0  0  0  0  0  0  0  0  0  0  0
    6.9568   -2.8766   -0.2293 H   0  0  0  0  0  0  0  0  0  0  0  0
  2  1  2  0  0  0  0
  3  2  1  0  0  0  0
  3  4  1  0  0  0  0
  4  5  1  0  0  0  0
  6  4  2  0  0  0  0
  6  7  1  0  0  0  0
  8  6  1  0  0  0  0
  9 11  1  0  0  0  0
  9  8  2  0  0  0  0
 10  9  1  0  0  0  0
 11  3  2  0  0  0  0
 12 11  1  0  0  0  0
 13  8  1  0  0  0  0
 13 16  1  0  0  0  0
 14 13  1  0  0  0  0
 15 13  1  0  0  0  0
M  END
