3
 OpenBabel05122313113D

 25 26  0  0  0  0  0  0  0  0999 V2000
   -0.3657    1.6452    0.0001 N   0  0  0  0  0  4  0  0  0  0  0  0
   -1.8367    1.6219    0.0002 N   0  0  0  0  0  0  0  0  0  0  0  0
    0.1757    0.2044    0.0000 C   0  0  0  0  0  3  0  0  0  0  0  0
   -0.9835   -0.5283   -0.0000 C   0  0  0  0  0  0  0  0  0  0  0  0
   -1.0176   -1.6224   -0.0001 H   0  0  0  0  0  0  0  0  0  0  0  0
   -2.1448    0.3411    0.0001 C   0  0  0  0  0  0  0  0  0  0  0  0
   -3.5567   -0.0811    0.0000 C   0  0  0  0  0  0  0  0  0  0  0  0
   -4.5856    0.8890   -0.0002 C   0  0  0  0  0  0  0  0  0  0  0  0
   -4.3063    1.9523   -0.0004 H   0  0  0  0  0  0  0  0  0  0  0  0
   -5.9275    0.4961   -0.0002 C   0  0  0  0  0  0  0  0  0  0  0  0
   -6.7210    1.2585   -0.0004 H   0  0  0  0  0  0  0  0  0  0  0  0
   -6.2637   -0.8694   -0.0000 C   0  0  0  0  0  0  0  0  0  0  0  0
   -7.3203   -1.1771   -0.0000 H   0  0  0  0  0  0  0  0  0  0  0  0
   -5.2496   -1.8395    0.0002 C   0  0  0  0  0  0  0  0  0  0  0  0
   -5.5077   -2.9089    0.0004 H   0  0  0  0  0  0  0  0  0  0  0  0
   -3.9034   -1.4495    0.0002 C   0  0  0  0  0  0  0  0  0  0  0  0
   -3.1174   -2.2178    0.0004 H   0  0  0  0  0  0  0  0  0  0  0  0
    0.0466    2.3782    1.2374 C   0  0  0  0  0  0  0  0  0  0  0  0
   -0.4638    3.3570    1.2380 H   0  0  0  0  0  0  0  0  0  0  0  0
    1.1424    2.4960    1.2357 H   0  0  0  0  0  0  0  0  0  0  0  0
   -0.2690    1.7769    2.1076 H   0  0  0  0  0  0  0  0  0  0  0  0
    0.0465    2.3783   -1.2372 C   0  0  0  0  0  0  0  0  0  0  0  0
   -0.2692    1.7770   -2.1074 H   0  0  0  0  0  0  0  0  0  0  0  0
    1.1423    2.4962   -1.2356 H   0  0  0  0  0  0  0  0  0  0  0  0
   -0.4640    3.3571   -1.2377 H   0  0  0  0  0  0  0  0  0  0  0  0
  1  2  1  0  0  0  0
  1 18  1  0  0  0  0
  3  1  1  0  0  0  0
  4  3  2  0  0  0  0
  4  6  1  0  0  0  0
  5  4  1  0  0  0  0
  6  2  2  0  0  0  0
  7  6  1  0  0  0  0
  7 16  1  0  0  0  0
  8  7  2  0  0  0  0
  9  8  1  0  0  0  0
 10  8  1  0  0  0  0
 10 12  2  0  0  0  0
 11 10  1  0  0  0  0
 12 14  1  0  0  0  0
 13 12  1  0  0  0  0
 14 16  2  0  0  0  0
 14 15  1  0  0  0  0
 16 17  1  0  0  0  0
 18 19  1  0  0  0  0
 18 21  1  0  0  0  0
 20 18  1  0  0  0  0
 22 24  1  0  0  0  0
 22  1  1  0  0  0  0
 23 22  1  0  0  0  0
 25 22  1  0  0  0  0
M  END
