5
 OpenBabel05122313113D

 33 34  0  0  1  0  0  0  0  0999 V2000
   -0.1625   -1.8881    0.6051 S   0  0  0  0  0  0  0  0  0  0  0  0
    2.2896    0.4848    0.0185 N   0  0  0  0  0  0  0  0  0  0  0  0
    3.2055    0.9134    0.2070 H   0  0  0  0  0  0  0  0  0  0  0  0
    4.7453   -0.4625   -0.0678 O   0  0  0  0  0  0  0  0  0  0  0  0
   -0.8384   -0.3826    0.1317 C   0  0  0  0  0  3  0  0  0  0  0  0
   -0.1533    0.8431   -0.0631 C   0  0  0  0  0  0  0  0  0  0  0  0
   -0.8214    1.6816   -0.3033 H   0  0  0  0  0  0  0  0  0  0  0  0
    4.0461   -2.5637   -0.5891 O   0  0  0  0  0  0  0  0  0  0  0  0
    1.1884    1.2676    0.0056 C   0  0  2  0  0  3  0  0  0  0  0  0
    2.3659   -0.9334   -0.2112 C   0  0  2  0  0  0  0  0  0  0  0  0
    1.9146   -1.1967   -1.1947 H   0  0  0  0  0  0  0  0  0  0  0  0
    1.6497   -1.7563    0.8799 C   0  0  0  0  0  0  0  0  0  0  0  0
    1.8671   -1.3201    1.8751 H   0  0  0  0  0  0  0  0  0  0  0  0
    2.0026   -2.8064    0.8667 H   0  0  0  0  0  0  0  0  0  0  0  0
    3.8609   -1.2765   -0.2783 C   0  0  0  0  0  0  0  0  0  0  0  0
    5.4219   -3.0343   -0.6483 C   0  0  0  0  0  0  0  0  0  0  0  0
    5.3813   -3.9001   -1.3360 H   0  0  0  0  0  0  0  0  0  0  0  0
    6.0446   -2.2356   -1.0984 H   0  0  0  0  0  0  0  0  0  0  0  0
    5.9301   -3.4242    0.7276 C   0  0  0  0  0  0  0  0  0  0  0  0
    6.9506   -3.8481    0.6415 H   0  0  0  0  0  0  0  0  0  0  0  0
    5.2786   -4.1900    1.1931 H   0  0  0  0  0  0  0  0  0  0  0  0
    5.9836   -2.5415    1.3941 H   0  0  0  0  0  0  0  0  0  0  0  0
    1.4727    2.7281    0.0272 C   0  0  0  0  0  0  0  0  0  0  0  0
    2.6442    3.2455   -0.5738 C   0  0  0  0  0  0  0  0  0  0  0  0
    3.3325    2.5700   -1.1051 H   0  0  0  0  0  0  0  0  0  0  0  0
    2.9171    4.6188   -0.5392 C   0  0  0  0  0  0  0  0  0  0  0  0
    3.8264    5.0062   -1.0226 H   0  0  0  0  0  0  0  0  0  0  0  0
    2.0256    5.4981    0.0957 C   0  0  0  0  0  0  0  0  0  0  0  0
    2.2396    6.5772    0.1220 H   0  0  0  0  0  0  0  0  0  0  0  0
    0.8587    4.9958    0.6947 C   0  0  0  0  0  0  0  0  0  0  0  0
    0.1587    5.6784    1.1992 H   0  0  0  0  0  0  0  0  0  0  0  0
    0.5819    3.6236    0.6635 C   0  0  0  0  0  0  0  0  0  0  0  0
   -0.3236    3.2355    1.1529 H   0  0  0  0  0  0  0  0  0  0  0  0
  1 12  1  0  0  0  0
  2  3  1  0  0  0  0
  5  1  1  0  0  0  0
  6  9  1  0  0  0  0
  6  5  2  0  0  0  0
  7  6  1  0  0  0  0
  8 15  1  0  0  0  0
  9  2  1  0  0  0  0
  9 23  1  6  0  0  0
 10 11  1  6  0  0  0
 10  2  1  0  0  0  0
 10 12  1  0  0  0  0
 12 13  1  0  0  0  0
 14 12  1  0  0  0  0
 15 10  1  0  0  0  0
 15  4  2  0  0  0  0
 16  8  1  0  0  0  0
 16 19  1  0  0  0  0
 17 16  1  0  0  0  0
 18 16  1  0  0  0  0
 19 21  1  0  0  0  0
 19 22  1  0  0  0  0
 20 19  1  0  0  0  0
 23 32  1  0  0  0  0
 24 26  1  0  0  0  0
 24 23  2  0  0  0  0
 25 24  1  0  0  0  0
 26 28  2  0  0  0  0
 27 26  1  0  0  0  0
 28 29  1  0  0  0  0
 28 30  1  0  0  0  0
 30 31  1  0  0  0  0
 32 30  2  0  0  0  0
 32 33  1  0  0  0  0
M  END
