2
 OpenBabel05122313113D

 57 58  0  0  1  0  0  0  0  0999 V2000
   -4.2658   -0.6302    0.3196 Si  0  0  0  0  0  0  0  0  0  0  0  0
    1.1802    0.8937   -0.9184 C   0  0  0  0  0  2  0  0  0  0  0  0
    1.5644    1.8714   -1.7292 O   0  0  0  0  0  0  0  0  0  0  0  0
   -2.7790    0.0112   -0.2191 O   0  0  0  0  0  0  0  0  0  0  0  0
    0.2753    2.0241    2.4515 O   0  0  0  0  0  0  0  0  0  0  0  0
   -0.2472    1.2155   -0.5063 C   0  0  2  0  0  0  0  0  0  0  0  0
   -0.5528    0.4943    0.2716 H   0  0  0  0  0  0  0  0  0  0  0  0
    0.6003    2.7340    1.3258 C   0  0  0  0  0  0  0  0  0  0  0  0
   -3.9577    2.9950   -0.5032 O   0  0  0  0  0  0  0  0  0  0  0  0
   -2.1230   -0.1769   -1.4516 C   0  0  0  0  0  0  0  0  0  0  0  0
   -2.8419   -0.3182   -2.2901 H   0  0  0  0  0  0  0  0  0  0  0  0
   -1.4825   -1.0845   -1.4236 H   0  0  0  0  0  0  0  0  0  0  0  0
   -1.2484    1.0542   -1.7087 C   0  0  1  0  0  0  0  0  0  0  0  0
   -0.6775    0.8801   -2.6456 H   0  0  0  0  0  0  0  0  0  0  0  0
   -2.7643    2.7530   -0.6162 C   0  0  0  0  0  0  0  0  0  0  0  0
   -2.1173    2.3249   -1.9320 C   0  0  2  0  0  0  0  0  0  0  0  0
   -1.3977    3.1402   -2.1760 H   0  0  0  0  0  0  0  0  0  0  0  0
    1.8036    3.3779    1.5204 C   0  0  0  0  0  0  0  0  0  0  0  0
    2.3163    4.0161    0.7926 H   0  0  0  0  0  0  0  0  0  0  0  0
   -1.7936    2.9085    0.5474 C   0  0  0  0  0  0  0  0  0  0  0  0
   -2.1186    2.2109    1.3459 H   0  0  0  0  0  0  0  0  0  0  0  0
   -1.9075    3.9325    0.9610 H   0  0  0  0  0  0  0  0  0  0  0  0
   -0.3333    2.6249    0.1634 C   0  0  2  0  0  0  0  0  0  0  0  0
    0.0131    3.3772   -0.5731 H   0  0  0  0  0  0  0  0  0  0  0  0
   -3.8053   -3.3020   -0.5507 C   0  0  0  0  0  0  0  0  0  0  0  0
   -4.6708   -3.2221   -1.2407 H   0  0  0  0  0  0  0  0  0  0  0  0
   -3.6759   -4.3809   -0.3092 H   0  0  0  0  0  0  0  0  0  0  0  0
   -2.8967   -2.9868   -1.1036 H   0  0  0  0  0  0  0  0  0  0  0  0
    2.2431    3.0356    2.8454 C   0  0  0  0  0  0  0  0  0  0  0  0
    3.1630    3.3573    3.3450 H   0  0  0  0  0  0  0  0  0  0  0  0
   -4.0131   -2.4867    0.7403 C   0  0  0  0  0  0  0  0  0  0  0  0
   -5.5717   -0.3605   -1.0153 C   0  0  0  0  0  0  0  0  0  0  0  0
   -6.5565   -0.7612   -0.6991 H   0  0  0  0  0  0  0  0  0  0  0  0
   -5.3072   -0.8447   -1.9770 H   0  0  0  0  0  0  0  0  0  0  0  0
   -5.6813    0.7297   -1.1889 H   0  0  0  0  0  0  0  0  0  0  0  0
   -3.1262    2.2134   -3.0702 C   0  0  0  0  0  0  0  0  0  0  0  0
   -2.6379    1.8815   -4.0084 H   0  0  0  0  0  0  0  0  0  0  0  0
   -3.6096    3.1920   -3.2527 H   0  0  0  0  0  0  0  0  0  0  0  0
   -3.9382    1.5029   -2.8240 H   0  0  0  0  0  0  0  0  0  0  0  0
    1.2755    2.2098    3.3639 C   0  0  0  0  0  0  0  0  0  0  0  0
    1.1496    1.6925    4.3197 H   0  0  0  0  0  0  0  0  0  0  0  0
   -4.6418    0.4140    1.8353 C   0  0  0  0  0  0  0  0  0  0  0  0
   -5.6135    0.1402    2.2929 H   0  0  0  0  0  0  0  0  0  0  0  0
   -4.6901    1.4787    1.5258 H   0  0  0  0  0  0  0  0  0  0  0  0
   -3.8530    0.3071    2.6069 H   0  0  0  0  0  0  0  0  0  0  0  0
    2.8739    1.9201   -2.3048 C   0  0  0  0  0  0  0  0  0  0  0  0
    2.9649    2.9194   -2.7680 H   0  0  0  0  0  0  0  0  0  0  0  0
    2.9803    1.1347   -3.0770 H   0  0  0  0  0  0  0  0  0  0  0  0
    3.6468    1.7832   -1.5251 H   0  0  0  0  0  0  0  0  0  0  0  0
   -2.7694   -2.6245    1.6390 C   0  0  0  0  0  0  0  0  0  0  0  0
   -1.8536   -2.2596    1.1318 H   0  0  0  0  0  0  0  0  0  0  0  0
   -2.6007   -3.6903    1.9110 H   0  0  0  0  0  0  0  0  0  0  0  0
   -2.8705   -2.0542    2.5854 H   0  0  0  0  0  0  0  0  0  0  0  0
   -5.2597   -3.0055    1.4820 C   0  0  0  0  0  0  0  0  0  0  0  0
   -6.1801   -2.9105    0.8679 H   0  0  0  0  0  0  0  0  0  0  0  0
   -5.4320   -2.4637    2.4349 H   0  0  0  0  0  0  0  0  0  0  0  0
   -5.1433   -4.0839    1.7321 H   0  0  0  0  0  0  0  0  0  0  0  0
  1 31  1  0  0  0  0
  1 42  1  0  0  0  0
  2  6  1  0  0  0  0
  3  2  1  0  0  0  0
  4  1  1  0  0  0  0
  5 40  1  0  0  0  0
  6 23  1  0  0  0  0
  6  7  1  1  0  0  0
  8 18  2  0  0  0  0
  8  5  1  0  0  0  0
 10 12  1  0  0  0  0
 10  4  1  0  0  0  0
 11 10  1  0  0  0  0
 13 14  1  6  0  0  0
 13 10  1  0  0  0  0
 13  6  1  0  0  0  0
 15  9  2  0  0  0  0
 15 20  1  0  0  0  0
 16 17  1  6  0  0  0
 16 13  1  0  0  0  0
 16 15  1  0  0  0  0
 18 29  1  0  0  0  0
 19 18  1  0  0  0  0
 20 22  1  0  0  0  0
 20 21  1  0  0  0  0
 23 24  1  6  0  0  0
 23 20  1  0  0  0  0
 23  8  1  0  0  0  0
 25 27  1  0  0  0  0
 25 31  1  0  0  0  0
 26 25  1  0  0  0  0
 28 25  1  0  0  0  0
 29 30  1  0  0  0  0
 29 40  2  0  0  0  0
 31 54  1  0  0  0  0
 31 50  1  0  0  0  0
 32 33  1  0  0  0  0
 32  1  1  0  0  0  0
 34 32  1  0  0  0  0
 35 32  1  0  0  0  0
 36 39  1  0  0  0  0
 36 16  1  0  0  0  0
 37 36  1  0  0  0  0
 38 36  1  0  0  0  0
 40 41  1  0  0  0  0
 42 43  1  0  0  0  0
 42 45  1  0  0  0  0
 44 42  1  0  0  0  0
 46  3  1  0  0  0  0
 46 49  1  0  0  0  0
 47 46  1  0  0  0  0
 48 46  1  0  0  0  0
 50 52  1  0  0  0  0
 50 53  1  0  0  0  0
 51 50  1  0  0  0  0
 54 57  1  0  0  0  0
 54 56  1  0  0  0  0
 55 54  1  0  0  0  0
M  END
