8
 OpenBabel05122313113D

 27 27  0  0  1  0  0  0  0  0999 V2000
    2.9704   -1.5353    2.7582 O   0  0  0  0  0  0  0  0  0  0  0  0
    3.8109    2.2115    0.0908 O   0  0  0  0  0  0  0  0  0  0  0  0
    5.2968    1.5544   -1.4883 O   0  0  0  0  0  0  0  0  0  0  0  0
    2.5756   -1.8783    0.5293 N   0  0  0  0  0  0  0  0  0  0  0  0
    2.2310   -2.6973   -0.5611 C   0  0  0  0  0  0  0  0  0  0  0  0
    1.5287   -2.1908   -1.6121 C   0  0  0  0  0  0  0  0  0  0  0  0
    1.0219   -0.8095   -1.6138 C   0  0  0  0  0  3  0  0  0  0  0  0
    1.5060    0.0640   -0.5560 C   0  0  0  0  0  3  0  0  0  0  0  0
    2.6869   -0.4351    0.2600 C   0  0  2  0  0  0  0  0  0  0  0  0
    2.7472   -2.3239    1.8338 C   0  0  0  0  0  0  0  0  0  0  0  0
    2.6302   -3.8172    2.0628 C   0  0  0  0  0  0  0  0  0  0  0  0
    2.8302   -4.0095    3.1309 H   0  0  0  0  0  0  0  0  0  0  0  0
    3.3498   -4.3937    1.4462 H   0  0  0  0  0  0  0  0  0  0  0  0
    1.6050   -4.1529    1.8094 H   0  0  0  0  0  0  0  0  0  0  0  0
    4.0236   -0.1544   -0.4547 C   0  0  0  0  0  0  0  0  0  0  0  0
    4.3267    1.3229   -0.5628 C   0  0  0  0  0  0  0  0  0  0  0  0
    5.6921    2.9232   -1.6235 C   0  0  0  0  0  0  0  0  0  0  0  0
    4.8339    3.5556   -1.9302 H   0  0  0  0  0  0  0  0  0  0  0  0
    6.4798    2.9418   -2.3980 H   0  0  0  0  0  0  0  0  0  0  0  0
    6.0834    3.3215   -0.6651 H   0  0  0  0  0  0  0  0  0  0  0  0
    2.5541   -3.7457   -0.5192 H   0  0  0  0  0  0  0  0  0  0  0  0
    1.3328   -2.8509   -2.4714 H   0  0  0  0  0  0  0  0  0  0  0  0
    0.8237   -0.3799   -2.6109 H   0  0  0  0  0  0  0  0  0  0  0  0
    1.6032    1.1368   -0.8013 H   0  0  0  0  0  0  0  0  0  0  0  0
    2.7334    0.0619    1.2436 H   0  0  0  0  0  0  0  0  0  0  0  0
    4.8569   -0.6139    0.1213 H   0  0  0  0  0  0  0  0  0  0  0  0
    4.0492   -0.6120   -1.4645 H   0  0  0  0  0  0  0  0  0  0  0  0
  3 16  1  0  0  0  0
  4 10  1  0  0  0  0
  5 21  1  0  0  0  0
  5  4  1  0  0  0  0
  6  5  2  0  0  0  0
  7  6  1  0  0  0  0
  7  8  1  0  0  0  0
  8  9  1  0  0  0  0
  9  4  1  0  0  0  0
  9 25  1  1  0  0  0
 10 11  1  0  0  0  0
 10  1  2  0  0  0  0
 11 12  1  0  0  0  0
 13 11  1  0  0  0  0
 14 11  1  0  0  0  0
 15 26  1  0  0  0  0
 15  9  1  0  0  0  0
 16 15  1  0  0  0  0
 16  2  2  0  0  0  0
 17  3  1  0  0  0  0
 17 20  1  0  0  0  0
 18 17  1  0  0  0  0
 19 17  1  0  0  0  0
 22  6  1  0  0  0  0
 23  7  1  0  0  0  0
 24  8  1  0  0  0  0
 27 15  1  0  0  0  0
M  END
