3
 OpenBabel05122313113D

 24 24  0  0  1  0  0  0  0  0999 V2000
    2.2499    1.0980   -0.6693 N   0  0  0  0  0  0  0  0  0  0  0  0
    2.1449   -1.0840   -0.6865 N   0  0  0  0  0  0  0  0  0  0  0  0
    0.1909    0.0828   -1.7135 C   0  0  0  0  0  3  0  0  0  0  0  0
    0.0066    1.0120   -2.2764 H   0  0  0  0  0  0  0  0  0  0  0  0
   -0.0030   -0.7974   -2.3476 H   0  0  0  0  0  0  0  0  0  0  0  0
    1.4799    0.0449   -1.0856 C   0  0  1  0  0  3  0  0  0  0  0  0
    3.3643    0.6309    0.0470 C   0  0  0  0  0  0  0  0  0  0  0  0
    3.2972   -0.7424    0.0386 C   0  0  0  0  0  0  0  0  0  0  0  0
    1.9496    2.4992   -0.8894 C   0  0  0  0  0  0  0  0  0  0  0  0
    1.0684    2.5842   -1.5472 H   0  0  0  0  0  0  0  0  0  0  0  0
    1.7140    3.0113    0.0637 H   0  0  0  0  0  0  0  0  0  0  0  0
    2.8065    3.0059   -1.3761 H   0  0  0  0  0  0  0  0  0  0  0  0
    4.3523    1.5595    0.6612 C   0  0  0  0  0  0  0  0  0  0  0  0
    5.1387    0.9891    1.1884 H   0  0  0  0  0  0  0  0  0  0  0  0
    4.8544    2.1990   -0.0958 H   0  0  0  0  0  0  0  0  0  0  0  0
    3.8771    2.2376    1.4013 H   0  0  0  0  0  0  0  0  0  0  0  0
    4.1747   -1.7592    0.6794 C   0  0  0  0  0  0  0  0  0  0  0  0
    5.0290   -1.2645    1.1766 H   0  0  0  0  0  0  0  0  0  0  0  0
    3.6253   -2.3346    1.4550 H   0  0  0  0  0  0  0  0  0  0  0  0
    4.5891   -2.4845   -0.0522 H   0  0  0  0  0  0  0  0  0  0  0  0
    1.6410   -2.4199   -0.9298 C   0  0  0  0  0  0  0  0  0  0  0  0
    1.6562   -2.6595   -2.0126 H   0  0  0  0  0  0  0  0  0  0  0  0
    2.2639   -3.1538   -0.3913 H   0  0  0  0  0  0  0  0  0  0  0  0
    0.5963   -2.4993   -0.5671 H   0  0  0  0  0  0  0  0  0  0  0  0
  1  7  1  0  0  0  0
  2  8  1  0  0  0  0
  4  3  1  0  0  0  0
  5  3  1  0  0  0  0
  6  3  1  1  0  0  0
  6  2  1  0  0  0  0
  6  1  1  0  0  0  0
  7 13  1  0  0  0  0
  8  7  2  0  0  0  0
  8 17  1  0  0  0  0
  9  1  1  0  0  0  0
  9 11  1  0  0  0  0
 10  9  1  0  0  0  0
 12  9  1  0  0  0  0
 13 14  1  0  0  0  0
 13 16  1  0  0  0  0
 15 13  1  0  0  0  0
 17 18  1  0  0  0  0
 17 19  1  0  0  0  0
 20 17  1  0  0  0  0
 21  2  1  0  0  0  0
 21 24  1  0  0  0  0
 21 23  1  0  0  0  0
 22 21  1  0  0  0  0
M  END
