17
 OpenBabel05122313113D

 46 49  0  0  0  0  0  0  0  0999 V2000
    0.6068    0.1851   -0.1224 P   0  0  0  0  0  0  0  0  0  0  0  0
    1.6939    1.5394   -0.1214 C   0  0  0  0  0  0  0  0  0  0  0  0
    3.0775    1.2878   -0.0213 C   0  0  0  0  0  0  0  0  0  0  0  0
    3.7369    2.1710   -0.0515 H   0  0  0  0  0  0  0  0  0  0  0  0
    3.7010    0.0165    0.0231 C   0  0  0  0  0  0  0  0  0  0  0  0
    2.9660   -1.1945   -0.0559 C   0  0  0  0  0  0  0  0  0  0  0  0
    3.5382   -2.1365   -0.0298 H   0  0  0  0  0  0  0  0  0  0  0  0
    1.5699   -1.2642   -0.1389 C   0  0  0  0  0  0  0  0  0  0  0  0
    0.6912   -2.4332   -0.2865 C   0  0  0  0  0  0  0  0  0  0  0  0
    1.1932   -3.7462   -0.4345 C   0  0  0  0  0  0  0  0  0  0  0  0
    2.2795   -3.9191   -0.3612 H   0  0  0  0  0  0  0  0  0  0  0  0
    0.3513   -4.8356   -0.7005 C   0  0  0  0  0  0  0  0  0  0  0  0
   -1.0287   -4.5726   -0.8491 C   0  0  0  0  0  0  0  0  0  0  0  0
   -1.7121   -5.4005   -1.1009 H   0  0  0  0  0  0  0  0  0  0  0  0
   -1.5456   -3.2787   -0.6956 C   0  0  0  0  0  0  0  0  0  0  0  0
   -2.6225   -3.1148   -0.8519 H   0  0  0  0  0  0  0  0  0  0  0  0
   -0.7224   -2.1820   -0.3672 C   0  0  0  0  0  3  0  0  0  0  0  0
    1.1149    2.8954   -0.2608 C   0  0  0  0  0  0  0  0  0  0  0  0
    0.0240    3.0949   -1.1399 C   0  0  0  0  0  0  0  0  0  0  0  0
   -0.3579    2.2449   -1.7307 H   0  0  0  0  0  0  0  0  0  0  0  0
   -0.5866    4.3526   -1.2847 C   0  0  0  0  0  0  0  0  0  0  0  0
   -0.0867    5.4316   -0.5234 C   0  0  0  0  0  0  0  0  0  0  0  0
   -0.5534    6.4252   -0.6176 H   0  0  0  0  0  0  0  0  0  0  0  0
    0.9995    5.2518    0.3458 C   0  0  0  0  0  0  0  0  0  0  0  0
    1.3757    6.1025    0.9346 H   0  0  0  0  0  0  0  0  0  0  0  0
    1.6029    3.9928    0.4806 C   0  0  0  0  0  0  0  0  0  0  0  0
    2.4368    3.8499    1.1845 H   0  0  0  0  0  0  0  0  0  0  0  0
    5.1842   -0.0460    0.1202 C   0  0  0  0  0  0  0  0  0  0  0  0
    5.9226   -1.0187   -0.5929 C   0  0  0  0  0  0  0  0  0  0  0  0
    5.3931   -1.7203   -1.2551 H   0  0  0  0  0  0  0  0  0  0  0  0
    7.3196   -1.0762   -0.4990 C   0  0  0  0  0  0  0  0  0  0  0  0
    7.8726   -1.8356   -1.0727 H   0  0  0  0  0  0  0  0  0  0  0  0
    8.0135   -0.1622    0.3099 C   0  0  0  0  0  0  0  0  0  0  0  0
    9.1106   -0.2072    0.3831 H   0  0  0  0  0  0  0  0  0  0  0  0
    7.2954    0.8103    1.0239 C   0  0  0  0  0  0  0  0  0  0  0  0
    7.8276    1.5262    1.6688 H   0  0  0  0  0  0  0  0  0  0  0  0
    5.8984    0.8672    0.9302 C   0  0  0  0  0  0  0  0  0  0  0  0
    5.3435    1.6151    1.5167 H   0  0  0  0  0  0  0  0  0  0  0  0
    0.8928   -6.2361   -0.8457 C   0  0  0  0  0  0  0  0  0  0  0  0
    0.5717   -6.6990   -1.8021 H   0  0  0  0  0  0  0  0  0  0  0  0
    0.5278   -6.8988   -0.0321 H   0  0  0  0  0  0  0  0  0  0  0  0
    1.9998   -6.2510   -0.8169 H   0  0  0  0  0  0  0  0  0  0  0  0
   -1.7330    4.5370   -2.2479 C   0  0  0  0  0  0  0  0  0  0  0  0
   -2.5715    5.0939   -1.7812 H   0  0  0  0  0  0  0  0  0  0  0  0
   -2.1159    3.5621   -2.6060 H   0  0  0  0  0  0  0  0  0  0  0  0
   -1.4158    5.1228   -3.1367 H   0  0  0  0  0  0  0  0  0  0  0  0
  1  2  1  0  0  0  0
  2  3  2  0  0  0  0
  3  5  1  0  0  0  0
  4  3  1  0  0  0  0
  5 28  1  0  0  0  0
  6  7  1  0  0  0  0
  6  5  2  0  0  0  0
  8  1  2  0  0  0  0
  8  6  1  0  0  0  0
  9  8  1  0  0  0  0
 10 11  1  0  0  0  0
 10  9  2  0  0  0  0
 12 10  1  0  0  0  0
 13 12  2  0  0  0  0
 13 15  1  0  0  0  0
 14 13  1  0  0  0  0
 15 17  2  0  0  0  0
 16 15  1  0  0  0  0
 17  9  1  0  0  0  0
 18  2  1  0  0  0  0
 18 26  1  0  0  0  0
 19 18  2  0  0  0  0
 20 19  1  0  0  0  0
 21 19  1  0  0  0  0
 21 22  2  0  0  0  0
 22 24  1  0  0  0  0
 23 22  1  0  0  0  0
 24 26  2  0  0  0  0
 24 25  1  0  0  0  0
 26 27  1  0  0  0  0
 28 37  1  0  0  0  0
 29 31  1  0  0  0  0
 29 28  2  0  0  0  0
 30 29  1  0  0  0  0
 31 33  2  0  0  0  0
 32 31  1  0  0  0  0
 33 34  1  0  0  0  0
 33 35  1  0  0  0  0
 35 36  1  0  0  0  0
 37 35  2  0  0  0  0
 37 38  1  0  0  0  0
 39 42  1  0  0  0  0
 39 12  1  0  0  0  0
 39 41  1  0  0  0  0
 40 39  1  0  0  0  0
 43 44  1  0  0  0  0
 43 21  1  0  0  0  0
 45 43  1  0  0  0  0
 46 43  1  0  0  0  0
M  END
