1
 OpenBabel05122313113D

 11 11  0  0  0  0  0  0  0  0999 V2000
    0.8854   -0.1127   -0.3014 C   0  0  0  0  0  3  0  0  0  0  0  0
    1.5780   -1.3437   -0.2260 C   0  0  0  0  0  0  0  0  0  0  0  0
    1.0341   -2.2956   -0.2634 H   0  0  0  0  0  0  0  0  0  0  0  0
    2.9697   -1.4389   -0.0957 C   0  0  0  0  0  0  0  0  0  0  0  0
    3.7649   -0.2759   -0.0512 C   0  0  0  0  0  0  0  0  0  0  0  0
    3.1172    0.9771   -0.1373 C   0  0  0  0  0  0  0  0  0  0  0  0
    1.7067    1.0433   -0.2595 C   0  0  0  0  0  0  0  0  0  0  0  0
    3.7031   -3.0098    0.0231 Cl  0  0  0  0  0  0  0  0  0  0  0  0
    5.4805   -0.3788    0.1085 Cl  0  0  0  0  0  0  0  0  0  0  0  0
    4.0710    2.4205   -0.0625 Cl  0  0  0  0  0  0  0  0  0  0  0  0
    1.0141    2.6512   -0.2931 Cl  0  0  0  0  0  0  0  0  0  0  0  0
  1  7  2  0  0  0  0
  1  2  1  0  0  0  0
  2  4  2  0  0  0  0
  3  2  1  0  0  0  0
  4  5  1  0  0  0  0
  4  8  1  0  0  0  0
  5  9  1  0  0  0  0
  6 10  1  0  0  0  0
  6  5  2  0  0  0  0
  7  6  1  0  0  0  0
 11  7  1  0  0  0  0
M  END
