2
 OpenBabel05122313113D

 47 50  0  0  0  0  0  0  0  0999 V2000
   -0.5510    1.3803   -0.0670 O   0  0  0  0  0  0  0  0  0  0  0  0
   -1.0309    0.0811    0.0439 C   0  0  0  0  0  2  0  0  0  0  0  0
   -0.0127   -0.8732    0.2691 C   0  0  0  0  0  0  0  0  0  0  0  0
   -0.3358   -1.9006    0.4863 H   0  0  0  0  0  0  0  0  0  0  0  0
    1.3576   -0.5784    0.3048 C   0  0  0  0  0  0  0  0  0  0  0  0
    2.3022   -1.6391    0.7254 C   0  0  0  0  0  0  0  0  0  0  0  0
    2.1568   -2.9614    0.2498 C   0  0  0  0  0  0  0  0  0  0  0  0
    1.3707   -3.1895   -0.4862 H   0  0  0  0  0  0  0  0  0  0  0  0
    3.0232   -3.9755    0.6825 C   0  0  0  0  0  0  0  0  0  0  0  0
    2.9072   -4.9964    0.2891 H   0  0  0  0  0  0  0  0  0  0  0  0
    4.0322   -3.6884    1.6153 C   0  0  0  0  0  0  0  0  0  0  0  0
    4.7078   -4.4852    1.9608 H   0  0  0  0  0  0  0  0  0  0  0  0
    4.1742   -2.3802    2.1087 C   0  0  0  0  0  0  0  0  0  0  0  0
    4.9552   -2.1523    2.8498 H   0  0  0  0  0  0  0  0  0  0  0  0
    3.3270   -1.3606    1.6582 C   0  0  0  0  0  0  0  0  0  0  0  0
    3.4359   -0.3394    2.0511 H   0  0  0  0  0  0  0  0  0  0  0  0
    1.7615    0.7717    0.0023 C   0  0  0  0  0  0  0  0  0  0  0  0
    0.7440    1.7124   -0.1018 C   0  0  0  0  0  0  0  0  0  0  0  0
    1.0177    3.1752   -0.2131 C   0  0  0  0  0  0  0  0  0  0  0  0
    0.1276    3.7346    0.1393 H   0  0  0  0  0  0  0  0  0  0  0  0
    1.1603    3.4295   -1.2889 H   0  0  0  0  0  0  0  0  0  0  0  0
    2.2983    3.5538    0.5691 C   0  0  0  0  0  0  0  0  0  0  0  0
    2.6904    4.9989    0.2221 C   0  0  0  0  0  0  0  0  0  0  0  0
    1.8837    5.7061    0.5023 H   0  0  0  0  0  0  0  0  0  0  0  0
    2.8877    5.1117   -0.8633 H   0  0  0  0  0  0  0  0  0  0  0  0
    3.6083    5.2971    0.7682 H   0  0  0  0  0  0  0  0  0  0  0  0
    2.0562    3.4367    2.0911 C   0  0  0  0  0  0  0  0  0  0  0  0
    1.2666    4.1425    2.4239 H   0  0  0  0  0  0  0  0  0  0  0  0
    2.9845    3.6716    2.6486 H   0  0  0  0  0  0  0  0  0  0  0  0
    1.7436    2.4111    2.3741 H   0  0  0  0  0  0  0  0  0  0  0  0
    3.3964    2.6019    0.1210 C   0  0  0  0  0  0  0  0  0  0  0  0
    4.4110    3.0106    0.0132 H   0  0  0  0  0  0  0  0  0  0  0  0
    3.1511    1.2852   -0.1615 C   0  0  0  0  0  0  0  0  0  0  0  0
    4.1336    0.3759   -0.5713 N   0  0  0  0  0  0  0  0  0  0  0  0
    3.8705   -0.3968   -1.7892 C   0  0  0  0  0  0  0  0  0  0  0  0
    3.9727    0.2610   -2.6887 H   0  0  0  0  0  0  0  0  0  0  0  0
    2.8314   -0.7784   -1.7774 H   0  0  0  0  0  0  0  0  0  0  0  0
    4.8480   -1.5640   -1.9011 C   0  0  0  0  0  0  0  0  0  0  0  0
    4.6458   -2.2957   -1.0820 H   0  0  0  0  0  0  0  0  0  0  0  0
    4.7136   -2.0788   -2.8731 H   0  0  0  0  0  0  0  0  0  0  0  0
    6.1943   -1.1184   -1.8487 O   0  0  0  0  0  0  0  0  0  0  0  0
    6.4352   -0.4470   -0.6262 C   0  0  0  0  0  0  0  0  0  0  0  0
    7.4976   -0.1312   -0.6307 H   0  0  0  0  0  0  0  0  0  0  0  0
    6.2737   -1.1401    0.2363 H   0  0  0  0  0  0  0  0  0  0  0  0
    5.5286    0.7738   -0.4582 C   0  0  0  0  0  0  0  0  0  0  0  0
    5.6924    1.2236    0.5429 H   0  0  0  0  0  0  0  0  0  0  0  0
    5.7986    1.5460   -1.2239 H   0  0  0  0  0  0  0  0  0  0  0  0
  1  2  1  0  0  0  0
  2  3  1  0  0  0  0
  3  5  2  0  0  0  0
  3  4  1  0  0  0  0
  5  6  1  0  0  0  0
  6 15  1  0  0  0  0
  7  9  1  0  0  0  0
  7  6  2  0  0  0  0
  8  7  1  0  0  0  0
  9 11  2  0  0  0  0
 10  9  1  0  0  0  0
 11 12  1  0  0  0  0
 11 13  1  0  0  0  0
 13 14  1  0  0  0  0
 15 16  1  0  0  0  0
 15 13  2  0  0  0  0
 17  5  1  0  0  0  0
 18  1  1  0  0  0  0
 18 17  2  0  0  0  0
 19 18  1  0  0  0  0
 19 20  1  0  0  0  0
 19 22  1  0  0  0  0
 21 19  1  0  0  0  0
 22 27  1  0  0  0  0
 23 24  1  0  0  0  0
 23 22  1  0  0  0  0
 23 26  1  0  0  0  0
 25 23  1  0  0  0  0
 27 30  1  0  0  0  0
 27 28  1  0  0  0  0
 27 29  1  0  0  0  0
 31 22  1  0  0  0  0
 32 31  1  0  0  0  0
 33 17  1  0  0  0  0
 33 31  2  0  0  0  0
 34 45  1  0  0  0  0
 34 33  1  0  0  0  0
 35 37  1  0  0  0  0
 35 34  1  0  0  0  0
 36 35  1  0  0  0  0
 38 41  1  0  0  0  0
 38 35  1  0  0  0  0
 38 39  1  0  0  0  0
 40 38  1  0  0  0  0
 41 42  1  0  0  0  0
 42 45  1  0  0  0  0
 42 44  1  0  0  0  0
 43 42  1  0  0  0  0
 45 46  1  0  0  0  0
 47 45  1  0  0  0  0
M  END
