33
 OpenBabel05122313113D

 48 49  0  0  0  0  0  0  0  0999 V2000
    1.9868    0.1860    1.2241 N   0  0  0  0  0  0  0  0  0  0  0  0
    2.5500    0.6971    1.9128 H   0  0  0  0  0  0  0  0  0  0  0  0
    1.3970    2.2127    0.2646 N   0  0  0  0  0  0  0  0  0  0  0  0
    2.0942   -1.2491    1.2847 C   0  0  0  0  0  0  0  0  0  0  0  0
    0.9915   -2.0113    1.7435 C   0  0  0  0  0  0  0  0  0  0  0  0
   -0.2692   -1.3324    2.2609 C   0  0  0  0  0  0  0  0  0  0  0  0
   -0.4018   -0.4068    1.6676 H   0  0  0  0  0  0  0  0  0  0  0  0
   -1.5419   -2.1670    2.0828 C   0  0  0  0  0  0  0  0  0  0  0  0
   -1.6451   -2.5219    1.0384 H   0  0  0  0  0  0  0  0  0  0  0  0
   -2.4378   -1.5618    2.3297 H   0  0  0  0  0  0  0  0  0  0  0  0
   -1.5544   -3.0544    2.7484 H   0  0  0  0  0  0  0  0  0  0  0  0
   -0.0796   -0.9066    3.7286 C   0  0  0  0  0  0  0  0  0  0  0  0
    0.0824   -1.7911    4.3784 H   0  0  0  0  0  0  0  0  0  0  0  0
   -0.9731   -0.3640    4.1014 H   0  0  0  0  0  0  0  0  0  0  0  0
    0.7987   -0.2397    3.8466 H   0  0  0  0  0  0  0  0  0  0  0  0
    1.1348   -3.4102    1.7769 C   0  0  0  0  0  0  0  0  0  0  0  0
    0.2930   -4.0331    2.1109 H   0  0  0  0  0  0  0  0  0  0  0  0
    2.3358   -4.0201    1.3952 C   0  0  0  0  0  0  0  0  0  0  0  0
    2.4249   -5.1169    1.4201 H   0  0  0  0  0  0  0  0  0  0  0  0
    3.4253   -3.2417    0.9867 C   0  0  0  0  0  0  0  0  0  0  0  0
    4.3643   -3.7329    0.6956 H   0  0  0  0  0  0  0  0  0  0  0  0
    3.3311   -1.8398    0.9249 C   0  0  0  0  0  0  0  0  0  0  0  0
    4.5176   -0.9696    0.5332 C   0  0  0  0  0  0  0  0  0  0  0  0
    4.0992   -0.1063   -0.0251 H   0  0  0  0  0  0  0  0  0  0  0  0
    5.2424   -0.4494    1.7896 C   0  0  0  0  0  0  0  0  0  0  0  0
    4.5631    0.0974    2.4789 H   0  0  0  0  0  0  0  0  0  0  0  0
    6.0650    0.2422    1.5132 H   0  0  0  0  0  0  0  0  0  0  0  0
    5.6804   -1.2869    2.3715 H   0  0  0  0  0  0  0  0  0  0  0  0
    5.4945   -1.6570   -0.4251 C   0  0  0  0  0  0  0  0  0  0  0  0
    6.0241   -2.5099    0.0484 H   0  0  0  0  0  0  0  0  0  0  0  0
    6.2683   -0.9359   -0.7572 H   0  0  0  0  0  0  0  0  0  0  0  0
    4.9610   -2.0185   -1.3255 H   0  0  0  0  0  0  0  0  0  0  0  0
    1.4041    0.8681    0.2205 C   0  0  0  0  0  2  0  0  0  0  0  0
    1.0063    3.0024   -0.9138 C   0  0  0  0  0  0  0  0  0  0  0  0
    0.3478    3.8296   -0.5643 H   0  0  0  0  0  0  0  0  0  0  0  0
    0.4206    2.3429   -1.5844 H   0  0  0  0  0  0  0  0  0  0  0  0
    2.2556    3.5414   -1.6185 C   0  0  0  0  0  0  0  0  0  0  0  0
    1.9476    4.1730   -2.4769 H   0  0  0  0  0  0  0  0  0  0  0  0
    2.8000    2.6642   -2.0307 H   0  0  0  0  0  0  0  0  0  0  0  0
    3.1479    4.3320   -0.6513 C   0  0  0  0  0  0  0  0  0  0  0  0
    2.6380    5.2791   -0.3615 H   0  0  0  0  0  0  0  0  0  0  0  0
    4.0936    4.6269   -1.1501 H   0  0  0  0  0  0  0  0  0  0  0  0
    3.4489    3.5251    0.6212 C   0  0  0  0  0  0  0  0  0  0  0  0
    4.0885    2.6495    0.3755 H   0  0  0  0  0  0  0  0  0  0  0  0
    4.0022    4.1385    1.3624 H   0  0  0  0  0  0  0  0  0  0  0  0
    2.1416    3.0172    1.2430 C   0  0  0  0  0  0  0  0  0  0  0  0
    2.3072    2.4473    2.1785 H   0  0  0  0  0  0  0  0  0  0  0  0
    1.4930    3.8755    1.5256 H   0  0  0  0  0  0  0  0  0  0  0  0
  1  4  1  0  0  0  0
  1  2  1  0  0  0  0
  3 46  1  0  0  0  0
  4  5  1  0  0  0  0
  5 16  2  0  0  0  0
  5  6  1  0  0  0  0
  6 12  1  0  0  0  0
  7  6  1  0  0  0  0
  8  6  1  0  0  0  0
  8 10  1  0  0  0  0
  8 11  1  0  0  0  0
  9  8  1  0  0  0  0
 12 15  1  0  0  0  0
 12 14  1  0  0  0  0
 12 13  1  0  0  0  0
 16 17  1  0  0  0  0
 18 19  1  0  0  0  0
 18 16  1  0  0  0  0
 20 18  2  0  0  0  0
 21 20  1  0  0  0  0
 22 20  1  0  0  0  0
 22  4  2  0  0  0  0
 23 22  1  0  0  0  0
 23 25  1  0  0  0  0
 24 23  1  0  0  0  0
 25 28  1  0  0  0  0
 25 26  1  0  0  0  0
 27 25  1  0  0  0  0
 29 30  1  0  0  0  0
 29 23  1  0  0  0  0
 31 29  1  0  0  0  0
 32 29  1  0  0  0  0
 33  3  1  0  0  0  0
 33  1  1  0  0  0  0
 34 35  1  0  0  0  0
 34  3  1  0  0  0  0
 36 34  1  0  0  0  0
 37 34  1  0  0  0  0
 37 40  1  0  0  0  0
 38 37  1  0  0  0  0
 39 37  1  0  0  0  0
 40 41  1  0  0  0  0
 40 43  1  0  0  0  0
 42 40  1  0  0  0  0
 43 46  1  0  0  0  0
 43 45  1  0  0  0  0
 44 43  1  0  0  0  0
 46 48  1  0  0  0  0
 46 47  1  0  0  0  0
M  END
