38
 OpenBabel05122313113D

 38 40  0  0  0  0  0  0  0  0999 V2000
   -0.3687    4.5090    0.1095 O   0  0  0  0  0  0  0  0  0  0  0  0
   -2.4767    0.6802   -0.3749 C   0  0  0  0  0  0  0  0  0  0  0  0
    0.7204    3.6766    0.4356 C   0  0  0  0  0  0  0  0  0  0  0  0
    1.5045    4.2337    1.0080 H   0  0  0  0  0  0  0  0  0  0  0  0
    1.2131    3.2690   -0.4821 H   0  0  0  0  0  0  0  0  0  0  0  0
   -4.2646    2.6534    0.4065 C   0  0  0  0  0  0  0  0  0  0  0  0
   -4.9905    3.4274    0.6964 H   0  0  0  0  0  0  0  0  0  0  0  0
   -2.0331    1.7993    0.3699 C   0  0  0  0  0  0  0  0  0  0  0  0
   -1.4480   -2.8462    0.7339 C   0  0  0  0  0  0  0  0  0  0  0  0
   -0.5693   -2.3037    1.1190 H   0  0  0  0  0  0  0  0  0  0  0  0
   -1.3547   -1.3775   -1.3276 C   0  0  0  0  0  0  0  0  0  0  0  0
   -0.2929   -1.6036   -1.5567 H   0  0  0  0  0  0  0  0  0  0  0  0
   -1.8890   -1.2393   -2.2892 H   0  0  0  0  0  0  0  0  0  0  0  0
    0.2223    2.5210    1.2896 C   0  0  0  0  0  0  0  0  0  0  0  0
    1.0865    1.9224    1.6381 H   0  0  0  0  0  0  0  0  0  0  0  0
   -0.3206    2.9063    2.1762 H   0  0  0  0  0  0  0  0  0  0  0  0
   -2.9186    2.8124    0.7649 C   0  0  0  0  0  0  0  0  0  0  0  0
   -2.5592    3.7035    1.2950 H   0  0  0  0  0  0  0  0  0  0  0  0
   -3.1341   -4.5821    0.9855 C   0  0  0  0  0  0  0  0  0  0  0  0
   -3.5823   -5.3964    1.5746 H   0  0  0  0  0  0  0  0  0  0  0  0
   -3.6698   -4.2418   -0.2654 C   0  0  0  0  0  0  0  0  0  0  0  0
   -4.5397   -4.7870   -0.6618 H   0  0  0  0  0  0  0  0  0  0  0  0
   -2.0212   -3.8826    1.4826 C   0  0  0  0  0  0  0  0  0  0  0  0
   -1.5920   -4.1516    2.4595 H   0  0  0  0  0  0  0  0  0  0  0  0
   -1.9842   -2.4955   -0.5213 C   0  0  0  0  0  0  0  0  0  0  0  0
   -3.0969   -3.2008   -1.0135 C   0  0  0  0  0  0  0  0  0  0  0  0
   -3.5166   -2.9364   -1.9979 H   0  0  0  0  0  0  0  0  0  0  0  0
   -0.0309    5.5470   -0.7825 C   0  0  0  0  0  0  0  0  0  0  0  0
    0.7384    6.2341   -0.3538 H   0  0  0  0  0  0  0  0  0  0  0  0
   -0.9515    6.1275   -0.9844 H   0  0  0  0  0  0  0  0  0  0  0  0
    0.3634    5.1531   -1.7500 H   0  0  0  0  0  0  0  0  0  0  0  0
   -3.8240    0.5209   -0.7307 C   0  0  0  0  0  0  0  0  0  0  0  0
   -4.1702   -0.3587   -1.2893 H   0  0  0  0  0  0  0  0  0  0  0  0
   -0.6635    1.6138    0.5674 N   0  0  0  0  0  0  0  0  0  0  0  0
   -1.3463   -0.0997   -0.6180 N   0  0  0  0  0  0  0  0  0  0  0  0
   -4.7105    1.5280   -0.3236 C   0  0  0  0  0  0  0  0  0  0  0  0
   -5.7764    1.4404   -0.5803 H   0  0  0  0  0  0  0  0  0  0  0  0
   -0.2382    0.4594   -0.0377 C   0  0  0  0  0  2  0  0  0  0  0  0
  1  3  1  0  0  0  0
  2  8  1  0  0  0  0
  3  4  1  0  0  0  0
  3 14  1  0  0  0  0
  5  3  1  0  0  0  0
  6  7  1  0  0  0  0
  6 17  1  0  0  0  0
  8 34  1  0  0  0  0
  8 17  2  0  0  0  0
  9 10  1  0  0  0  0
  9 23  1  0  0  0  0
 11 35  1  0  0  0  0
 11 25  1  0  0  0  0
 12 11  1  0  0  0  0
 13 11  1  0  0  0  0
 14 15  1  0  0  0  0
 14 16  1  0  0  0  0
 17 18  1  0  0  0  0
 19 23  2  0  0  0  0
 19 20  1  0  0  0  0
 21 19  1  0  0  0  0
 22 21  1  0  0  0  0
 23 24  1  0  0  0  0
 25  9  2  0  0  0  0
 26 25  1  0  0  0  0
 26 21  2  0  0  0  0
 27 26  1  0  0  0  0
 28 29  1  0  0  0  0
 28  1  1  0  0  0  0
 30 28  1  0  0  0  0
 31 28  1  0  0  0  0
 32  2  2  0  0  0  0
 32 36  1  0  0  0  0
 33 32  1  0  0  0  0
 34 14  1  0  0  0  0
 35  2  1  0  0  0  0
 35 38  1  0  0  0  0
 36  6  2  0  0  0  0
 37 36  1  0  0  0  0
 38 34  1  0  0  0  0
M  END
