24
 OpenBabel05122313113D

 24 23  0  0  0  0  0  0  0  0999 V2000
    1.5776    0.9666    0.0339 N   0  0  0  0  0  2  0  0  0  0  0  0
    7.9014    0.7251   -0.2045 C   0  0  0  0  0  0  0  0  0  0  0  0
    8.0418    1.2808    0.7508 H   0  0  0  0  0  0  0  0  0  0  0  0
    7.9571    1.4913   -1.0090 H   0  0  0  0  0  0  0  0  0  0  0  0
    9.0540   -0.2735   -0.3830 C   0  0  0  0  0  0  0  0  0  0  0  0
    8.9222   -0.8112   -1.3486 H   0  0  0  0  0  0  0  0  0  0  0  0
   10.0021    0.2968   -0.4854 H   0  0  0  0  0  0  0  0  0  0  0  0
    6.5039    0.0967   -0.2188 C   0  0  0  0  0  0  0  0  0  0  0  0
    6.4136   -0.6491    0.6009 H   0  0  0  0  0  0  0  0  0  0  0  0
    6.3678   -0.4762   -1.1639 H   0  0  0  0  0  0  0  0  0  0  0  0
    3.9824    0.4908   -0.0958 C   0  0  0  0  0  0  0  0  0  0  0  0
    3.8242   -0.0723   -1.0400 H   0  0  0  0  0  0  0  0  0  0  0  0
    3.8854   -0.2454    0.7302 H   0  0  0  0  0  0  0  0  0  0  0  0
    5.3757    1.1230   -0.0820 C   0  0  0  0  0  0  0  0  0  0  0  0
    5.5139    1.6977    0.8616 H   0  0  0  0  0  0  0  0  0  0  0  0
    5.4537    1.8699   -0.9040 H   0  0  0  0  0  0  0  0  0  0  0  0
    9.1988   -1.2882    0.7538 C   0  0  0  0  0  0  0  0  0  0  0  0
    9.3325   -0.7793    1.7318 H   0  0  0  0  0  0  0  0  0  0  0  0
   10.0775   -1.9458    0.5984 H   0  0  0  0  0  0  0  0  0  0  0  0
    8.3108   -1.9470    0.8423 H   0  0  0  0  0  0  0  0  0  0  0  0
    2.8727    1.5427    0.0455 C   0  0  0  0  0  0  0  0  0  0  0  0
    2.9914    2.1102    0.9943 H   0  0  0  0  0  0  0  0  0  0  0  0
    2.9294    2.2835   -0.7817 H   0  0  0  0  0  0  0  0  0  0  0  0
    0.5224    0.4376    0.0180 C   0  0  0  0  0  1  0  0  0  0  0  0
  1 21  1  0  0  0  0
  2  3  1  0  0  0  0
  4  2  1  0  0  0  0
  5  2  1  0  0  0  0
  5 17  1  0  0  0  0
  6  5  1  0  0  0  0
  7  5  1  0  0  0  0
  8  2  1  0  0  0  0
  8 14  1  0  0  0  0
  8  9  1  0  0  0  0
 10  8  1  0  0  0  0
 11 14  1  0  0  0  0
 11 21  1  0  0  0  0
 11 13  1  0  0  0  0
 12 11  1  0  0  0  0
 14 15  1  0  0  0  0
 16 14  1  0  0  0  0
 17 20  1  0  0  0  0
 17 18  1  0  0  0  0
 19 17  1  0  0  0  0
 21 22  1  0  0  0  0
 23 21  1  0  0  0  0
 24  1  1  0  0  0  0
M  END
