3
q = -1.0, confidence = 0.0

 35 37  0  0  1  0  0  0  0  0999 V2000
    4.4912    0.4242    0.6588 O   0  0  0  0  0  0  0  0  0  0  0  0
    4.3516   -1.2724   -0.9126 O   0  0  0  0  0  0  0  0  0  0  0  0
   -0.1845   -2.5704    0.9165 C   0  0  0  0  0  3  0  0  0  0  0  0
   -0.5911   -3.3626    0.2752 H   0  0  0  0  0  0  0  0  0  0  0  0
   -0.7772   -2.0713    2.1127 C   0  0  0  0  0  0  0  0  0  0  0  0
   -1.7171   -2.4251    2.5571 H   0  0  0  0  0  0  0  0  0  0  0  0
    0.0864   -1.0731    2.6514 C   0  0  0  0  0  0  0  0  0  0  0  0
   -0.0710   -0.5083    3.5811 H   0  0  0  0  0  0  0  0  0  0  0  0
    1.2249   -0.9560    1.7991 C   0  0  0  0  0  0  0  0  0  0  0  0
    1.0529   -1.8872    0.7139 C   0  0  0  0  0  0  0  0  0  0  0  0
    2.0569   -2.1082   -0.4105 C   0  0  2  0  0  0  0  0  0  0  0  0
    2.2051   -3.2031   -0.5296 H   0  0  0  0  0  0  0  0  0  0  0  0
    3.3674   -1.4903    0.0877 C   0  0  2  0  0  0  0  0  0  0  0  0
    3.7763   -2.1469    0.8936 H   0  0  0  0  0  0  0  0  0  0  0  0
    3.1681   -0.0877    0.6564 C   0  0  1  0  0  0  0  0  0  0  0  0
    2.5286    0.4992   -0.0490 H   0  0  0  0  0  0  0  0  0  0  0  0
    2.4653   -0.1057    2.0142 C   0  0  2  0  0  0  0  0  0  0  0  0
    2.1582    0.9335    2.2635 H   0  0  0  0  0  0  0  0  0  0  0  0
    3.3519   -0.6177    3.1602 C   0  0  0  0  0  0  0  0  0  0  0  0
    2.8097   -0.5600    4.1245 H   0  0  0  0  0  0  0  0  0  0  0  0
    4.2740   -0.0086    3.2323 H   0  0  0  0  0  0  0  0  0  0  0  0
    3.6472   -1.6751    3.0094 H   0  0  0  0  0  0  0  0  0  0  0  0
    1.6046   -1.5547   -1.7703 C   0  0  0  0  0  0  0  0  0  0  0  0
    1.4209   -0.4604   -1.7346 H   0  0  0  0  0  0  0  0  0  0  0  0
    0.6694   -2.0441   -2.1041 H   0  0  0  0  0  0  0  0  0  0  0  0
    2.3890   -1.7190   -2.5339 H   0  0  0  0  0  0  0  0  0  0  0  0
    5.1606   -0.1574   -0.4773 C   0  0  0  0  0  0  0  0  0  0  0  0
    5.2316    0.8450   -1.6266 C   0  0  0  0  0  0  0  0  0  0  0  0
    5.6603    0.3655   -2.5281 H   0  0  0  0  0  0  0  0  0  0  0  0
    5.8604    1.7121   -1.3464 H   0  0  0  0  0  0  0  0  0  0  0  0
    4.2147    1.2055   -1.8754 H   0  0  0  0  0  0  0  0  0  0  0  0
    6.5284   -0.6465   -0.0120 C   0  0  0  0  0  0  0  0  0  0  0  0
    6.4024   -1.4099    0.7795 H   0  0  0  0  0  0  0  0  0  0  0  0
    7.1166    0.1956    0.4020 H   0  0  0  0  0  0  0  0  0  0  0  0
    7.0867   -1.0929   -0.8574 H   0  0  0  0  0  0  0  0  0  0  0  0
  2 27  1  0  0  0  0
  2 13  1  0  0  0  0
  3  5  1  0  0  0  0
  4  3  1  0  0  0  0
  5  6  1  0  0  0  0
  5  7  2  0  0  0  0
  7  8  1  0  0  0  0
  9 17  1  0  0  0  0
  9  7  1  0  0  0  0
 10  3  1  0  0  0  0
 10  9  2  0  0  0  0
 11 12  1  6  0  0  0
 11 13  1  0  0  0  0
 11 10  1  0  0  0  0
 13 15  1  0  0  0  0
 13 14  1  1  0  0  0
 15 16  1  6  0  0  0
 15  1  1  0  0  0  0
 15 17  1  0  0  0  0
 17 18  1  1  0  0  0
 17 19  1  0  0  0  0
 19 21  1  0  0  0  0
 19 20  1  0  0  0  0
 22 19  1  0  0  0  0
 23 24  1  0  0  0  0
 23 11  1  0  0  0  0
 25 23  1  0  0  0  0
 26 23  1  0  0  0  0
 27 32  1  0  0  0  0
 27  1  1  0  0  0  0
 28 30  1  0  0  0  0
 28 27  1  0  0  0  0
 29 28  1  0  0  0  0
 31 28  1  0  0  0  0
 32 34  1  0  0  0  0
 32 33  1  0  0  0  0
 35 32  1  0  0  0  0
M  END
