4
 OpenBabel05122313113D

 66 70  0  0  1  0  0  0  0  0999 V2000
    0.0307   -1.9063   -0.3257 Si  0  0  1  0  0  0  0  0  0  0  0  0
    0.0558   -2.2542   -2.6836 Si  0  0  0  0  0  0  0  0  0  0  0  0
    1.2767   -0.6058    0.2599 C   0  0  2  0  0  3  0  0  0  0  0  0
    0.7083    0.6903   -0.0806 C   0  0  2  0  0  3  0  0  0  0  0  0
   -0.7514    0.6683   -0.0872 C   0  0  2  0  0  3  0  0  0  0  0  0
   -1.2974   -0.6476    0.1989 C   0  0  1  0  0  3  0  0  0  0  0  0
    2.7268   -0.8957    0.3759 C   0  0  0  0  0  0  0  0  0  0  0  0
    3.6540   -0.4803   -0.6095 C   0  0  0  0  0  0  0  0  0  0  0  0
    3.3087    0.1233   -1.4595 H   0  0  0  0  0  0  0  0  0  0  0  0
    5.0068   -0.8379   -0.5200 C   0  0  0  0  0  0  0  0  0  0  0  0
    5.7075   -0.5001   -1.2990 H   0  0  0  0  0  0  0  0  0  0  0  0
    5.4683   -1.6178    0.5518 C   0  0  0  0  0  0  0  0  0  0  0  0
    6.5316   -1.8928    0.6218 H   0  0  0  0  0  0  0  0  0  0  0  0
    4.5596   -2.0427    1.5341 C   0  0  0  0  0  0  0  0  0  0  0  0
    4.9070   -2.6524    2.3822 H   0  0  0  0  0  0  0  0  0  0  0  0
    3.2071   -1.6871    1.4457 C   0  0  0  0  0  0  0  0  0  0  0  0
    2.4994   -2.0145    2.2222 H   0  0  0  0  0  0  0  0  0  0  0  0
    1.4927    1.8516   -0.5849 C   0  0  0  0  0  0  0  0  0  0  0  0
    1.2442    2.2796   -1.9087 C   0  0  0  0  0  0  0  0  0  0  0  0
    0.4438    1.7958   -2.4883 H   0  0  0  0  0  0  0  0  0  0  0  0
    2.0017    3.3080   -2.4851 C   0  0  0  0  0  0  0  0  0  0  0  0
    1.7907    3.6269   -3.5171 H   0  0  0  0  0  0  0  0  0  0  0  0
    3.0210    3.9298   -1.7468 C   0  0  0  0  0  0  0  0  0  0  0  0
    3.6145    4.7406   -2.1955 H   0  0  0  0  0  0  0  0  0  0  0  0
    3.2771    3.5103   -0.4322 C   0  0  0  0  0  0  0  0  0  0  0  0
    4.0748    3.9898    0.1550 H   0  0  0  0  0  0  0  0  0  0  0  0
    2.5231    2.4779    0.1440 C   0  0  0  0  0  0  0  0  0  0  0  0
    2.7438    2.1559    1.1692 H   0  0  0  0  0  0  0  0  0  0  0  0
   -1.5500    1.8650   -0.4761 C   0  0  0  0  0  0  0  0  0  0  0  0
   -2.5721    1.7296   -1.4402 C   0  0  0  0  0  0  0  0  0  0  0  0
   -2.7998    0.7361   -1.8496 H   0  0  0  0  0  0  0  0  0  0  0  0
   -3.2933    2.8489   -1.8790 C   0  0  0  0  0  0  0  0  0  0  0  0
   -4.0856    2.7233   -2.6324 H   0  0  0  0  0  0  0  0  0  0  0  0
   -3.0096    4.1207   -1.3580 C   0  0  0  0  0  0  0  0  0  0  0  0
   -3.5796    4.9985   -1.6982 H   0  0  0  0  0  0  0  0  0  0  0  0
   -1.9957    4.2658   -0.3971 C   0  0  0  0  0  0  0  0  0  0  0  0
   -1.7666    5.2581    0.0197 H   0  0  0  0  0  0  0  0  0  0  0  0
   -1.2713    3.1492    0.0382 C   0  0  0  0  0  0  0  0  0  0  0  0
   -0.4774    3.2679    0.7887 H   0  0  0  0  0  0  0  0  0  0  0  0
   -2.7370   -0.9527    0.3409 C   0  0  0  0  0  0  0  0  0  0  0  0
   -3.2167   -2.1881   -0.1575 C   0  0  0  0  0  0  0  0  0  0  0  0
   -2.5063   -2.8927   -0.6197 H   0  0  0  0  0  0  0  0  0  0  0  0
   -4.5741   -2.5311   -0.0882 C   0  0  0  0  0  0  0  0  0  0  0  0
   -4.9142   -3.4974   -0.4905 H   0  0  0  0  0  0  0  0  0  0  0  0
   -5.4910   -1.6468    0.4989 C   0  0  0  0  0  0  0  0  0  0  0  0
   -6.5568   -1.9131    0.5637 H   0  0  0  0  0  0  0  0  0  0  0  0
   -5.0334   -0.4209    1.0121 C   0  0  0  0  0  0  0  0  0  0  0  0
   -5.7419    0.2781    1.4821 H   0  0  0  0  0  0  0  0  0  0  0  0
   -3.6791   -0.0769    0.9344 C   0  0  0  0  0  0  0  0  0  0  0  0
   -3.3499    0.8870    1.3425 H   0  0  0  0  0  0  0  0  0  0  0  0
    0.1544   -3.5820    0.5396 C   0  0  0  0  0  0  0  0  0  0  0  0
    1.1949   -3.9484    0.4101 H   0  0  0  0  0  0  0  0  0  0  0  0
   -0.5169   -4.3208    0.0579 H   0  0  0  0  0  0  0  0  0  0  0  0
   -0.0707   -3.5556    1.6207 H   0  0  0  0  0  0  0  0  0  0  0  0
   -1.3142   -1.2162   -3.4969 C   0  0  0  0  0  0  0  0  0  0  0  0
   -1.3456   -1.4034   -4.5909 H   0  0  0  0  0  0  0  0  0  0  0  0
   -1.1378   -0.1322   -3.3437 H   0  0  0  0  0  0  0  0  0  0  0  0
   -2.3114   -1.4609   -3.0770 H   0  0  0  0  0  0  0  0  0  0  0  0
    1.7241   -1.7209   -3.4198 C   0  0  0  0  0  0  0  0  0  0  0  0
    2.5754   -2.2425   -2.9383 H   0  0  0  0  0  0  0  0  0  0  0  0
    1.8776   -0.6307   -3.2848 H   0  0  0  0  0  0  0  0  0  0  0  0
    1.7529   -1.9378   -4.5085 H   0  0  0  0  0  0  0  0  0  0  0  0
   -0.2536   -4.0909   -3.0709 C   0  0  0  0  0  0  0  0  0  0  0  0
   -0.2455   -4.2682   -4.1671 H   0  0  0  0  0  0  0  0  0  0  0  0
   -1.2380   -4.4257   -2.6830 H   0  0  0  0  0  0  0  0  0  0  0  0
    0.5263   -4.7351   -2.6157 H   0  0  0  0  0  0  0  0  0  0  0  0
  1  6  1  0  0  0  0
  1  3  1  0  0  0  0
  1 51  1  1  0  0  0
  2  1  1  0  0  0  0
  3  7  1  6  0  0  0
  4 18  1  6  0  0  0
  4  3  1  0  0  0  0
  5 29  1  6  0  0  0
  5  4  1  0  0  0  0
  5  6  1  0  0  0  0
  6 40  1  6  0  0  0
  7 16  1  0  0  0  0
  8 10  1  0  0  0  0
  8  7  2  0  0  0  0
  9  8  1  0  0  0  0
 10 12  2  0  0  0  0
 11 10  1  0  0  0  0
 12 13  1  0  0  0  0
 12 14  1  0  0  0  0
 14 15  1  0  0  0  0
 16 14  2  0  0  0  0
 16 17  1  0  0  0  0
 18 27  1  0  0  0  0
 19 18  2  0  0  0  0
 20 19  1  0  0  0  0
 21 19  1  0  0  0  0
 21 23  2  0  0  0  0
 22 21  1  0  0  0  0
 23 25  1  0  0  0  0
 24 23  1  0  0  0  0
 25 27  2  0  0  0  0
 25 26  1  0  0  0  0
 27 28  1  0  0  0  0
 29 38  1  0  0  0  0
 30 29  2  0  0  0  0
 31 30  1  0  0  0  0
 32 30  1  0  0  0  0
 32 34  2  0  0  0  0
 33 32  1  0  0  0  0
 34 36  1  0  0  0  0
 35 34  1  0  0  0  0
 36 37  1  0  0  0  0
 36 38  2  0  0  0  0
 38 39  1  0  0  0  0
 40 49  1  0  0  0  0
 41 43  1  0  0  0  0
 41 40  2  0  0  0  0
 42 41  1  0  0  0  0
 43 45  2  0  0  0  0
 44 43  1  0  0  0  0
 45 46  1  0  0  0  0
 45 47  1  0  0  0  0
 47 48  1  0  0  0  0
 49 47  2  0  0  0  0
 49 50  1  0  0  0  0
 51 54  1  0  0  0  0
 52 51  1  0  0  0  0
 53 51  1  0  0  0  0
 55 57  1  0  0  0  0
 55 58  1  0  0  0  0
 55  2  1  0  0  0  0
 56 55  1  0  0  0  0
 59 61  1  0  0  0  0
 59 60  1  0  0  0  0
 59  2  1  0  0  0  0
 62 59  1  0  0  0  0
 63  2  1  0  0  0  0
 63 65  1  0  0  0  0
 63 66  1  0  0  0  0
 64 63  1  0  0  0  0
M  END
