5
 OpenBabel05122313113D

 37 36  0  0  0  0  0  0  0  0999 V2000
    2.5941   -0.4998    0.9851 Si  0  0  0  0  0  0  0  0  0  0  0  0
    4.0898   -0.4192   -0.8659 Si  0  0  0  0  0  0  0  0  0  0  0  0
    0.7200    2.9484    0.2740 Si  0  0  0  0  0  0  0  0  0  0  0  0
    0.1833    1.1631    0.1123 C   0  0  0  0  0  3  0  0  0  0  0  0
    0.9097    0.0971    0.4652 C   0  0  0  0  0  3  0  0  0  0  0  0
    2.4847   -2.3194    1.5520 C   0  0  0  0  0  0  0  0  0  0  0  0
    1.8631   -2.4184    2.4655 H   0  0  0  0  0  0  0  0  0  0  0  0
    3.4936   -2.7173    1.7859 H   0  0  0  0  0  0  0  0  0  0  0  0
    2.0403   -2.9643    0.7679 H   0  0  0  0  0  0  0  0  0  0  0  0
    3.2953    0.4632    2.4796 C   0  0  0  0  0  0  0  0  0  0  0  0
    3.4573    1.5357    2.2567 H   0  0  0  0  0  0  0  0  0  0  0  0
    4.2642    0.0298    2.8039 H   0  0  0  0  0  0  0  0  0  0  0  0
    2.5916    0.3993    3.3362 H   0  0  0  0  0  0  0  0  0  0  0  0
    4.7469   -2.1752   -1.2088 C   0  0  0  0  0  0  0  0  0  0  0  0
    3.9211   -2.8824   -1.4302 H   0  0  0  0  0  0  0  0  0  0  0  0
    5.3049   -2.5737   -0.3369 H   0  0  0  0  0  0  0  0  0  0  0  0
    5.4334   -2.1734   -2.0817 H   0  0  0  0  0  0  0  0  0  0  0  0
    5.5826    0.6971   -0.4797 C   0  0  0  0  0  0  0  0  0  0  0  0
    6.3137    0.6660   -1.3150 H   0  0  0  0  0  0  0  0  0  0  0  0
    6.1026    0.3643    0.4420 H   0  0  0  0  0  0  0  0  0  0  0  0
    5.2765    1.7527   -0.3351 H   0  0  0  0  0  0  0  0  0  0  0  0
    3.2307    0.2076   -2.4443 C   0  0  0  0  0  0  0  0  0  0  0  0
    3.9812    0.4936   -3.2107 H   0  0  0  0  0  0  0  0  0  0  0  0
    2.5932    1.0877   -2.2294 H   0  0  0  0  0  0  0  0  0  0  0  0
    2.5826   -0.5777   -2.8825 H   0  0  0  0  0  0  0  0  0  0  0  0
    2.5577    3.1906   -0.1471 C   0  0  0  0  0  0  0  0  0  0  0  0
    3.1961    2.4321    0.3442 H   0  0  0  0  0  0  0  0  0  0  0  0
    2.9009    4.1935    0.1825 H   0  0  0  0  0  0  0  0  0  0  0  0
    2.7309    3.1184   -1.2399 H   0  0  0  0  0  0  0  0  0  0  0  0
    0.4556    3.4193    2.0998 C   0  0  0  0  0  0  0  0  0  0  0  0
   -0.6128    3.3510    2.3919 H   0  0  0  0  0  0  0  0  0  0  0  0
    0.7979    4.4546    2.3069 H   0  0  0  0  0  0  0  0  0  0  0  0
    1.0237    2.7256    2.7525 H   0  0  0  0  0  0  0  0  0  0  0  0
   -0.1794    4.2421   -0.7988 C   0  0  0  0  0  0  0  0  0  0  0  0
    0.0071    4.0758   -1.8800 H   0  0  0  0  0  0  0  0  0  0  0  0
    0.2315    5.2432   -0.5490 H   0  0  0  0  0  0  0  0  0  0  0  0
   -1.2746    4.2858   -0.6443 H   0  0  0  0  0  0  0  0  0  0  0  0
  1  6  1  0  0  0  0
  1 10  1  0  0  0  0
  2 18  1  0  0  0  0
  2  1  1  0  0  0  0
  3 30  1  0  0  0  0
  4  3  1  0  0  0  0
  4  5  2  0  0  0  0
  5  1  1  0  0  0  0
  6  8  1  0  0  0  0
  6  7  1  0  0  0  0
  9  6  1  0  0  0  0
 10 12  1  0  0  0  0
 10 13  1  0  0  0  0
 11 10  1  0  0  0  0
 14  2  1  0  0  0  0
 14 16  1  0  0  0  0
 15 14  1  0  0  0  0
 17 14  1  0  0  0  0
 18 21  1  0  0  0  0
 18 20  1  0  0  0  0
 19 18  1  0  0  0  0
 22 24  1  0  0  0  0
 22  2  1  0  0  0  0
 23 22  1  0  0  0  0
 25 22  1  0  0  0  0
 26 28  1  0  0  0  0
 26  3  1  0  0  0  0
 26 27  1  0  0  0  0
 29 26  1  0  0  0  0
 30 32  1  0  0  0  0
 30 31  1  0  0  0  0
 30 33  1  0  0  0  0
 34 37  1  0  0  0  0
 34 36  1  0  0  0  0
 34  3  1  0  0  0  0
 35 34  1  0  0  0  0
M  END
