3
 OpenBabel05122313113D

 23 22  0  0  0  0  0  0  0  0999 V2000
    4.7762   -3.0565   -1.3167 O   0  0  0  0  0  0  0  0  0  0  0  0
    3.3420   -4.0851    0.1045 O   0  0  0  0  0  0  0  0  0  0  0  0
   -0.6663   -2.6948   -0.5525 C   0  0  0  0  0  3  0  0  0  0  0  0
    0.6531   -2.6504   -0.0264 C   0  0  0  0  0  3  0  0  0  0  0  0
    1.6592   -1.8868   -0.6663 C   0  0  0  0  0  3  0  0  0  0  0  0
    3.0790   -1.7147   -0.1474 C   0  0  0  0  0  0  0  0  0  0  0  0
    3.7503   -0.5318   -0.8560 C   0  0  0  0  0  0  0  0  0  0  0  0
    3.7374   -0.6624   -1.9551 H   0  0  0  0  0  0  0  0  0  0  0  0
    4.8082   -0.4400   -0.5466 H   0  0  0  0  0  0  0  0  0  0  0  0
    3.2246    0.4071   -0.6027 H   0  0  0  0  0  0  0  0  0  0  0  0
    3.1392   -1.5397    1.3829 C   0  0  0  0  0  0  0  0  0  0  0  0
    2.5742   -0.6353    1.6819 H   0  0  0  0  0  0  0  0  0  0  0  0
    4.1889   -1.4112    1.7118 H   0  0  0  0  0  0  0  0  0  0  0  0
    2.7288   -2.4160    1.9182 H   0  0  0  0  0  0  0  0  0  0  0  0
    3.8465   -3.0077   -0.5387 C   0  0  0  0  0  0  0  0  0  0  0  0
    3.9894   -5.3372   -0.1803 C   0  0  0  0  0  0  0  0  0  0  0  0
    3.9309   -5.5695   -1.2621 H   0  0  0  0  0  0  0  0  0  0  0  0
    3.4532   -6.0999    0.4108 H   0  0  0  0  0  0  0  0  0  0  0  0
    5.0572   -5.2989    0.1124 H   0  0  0  0  0  0  0  0  0  0  0  0
   -1.4673   -3.1804    0.0250 H   0  0  0  0  0  0  0  0  0  0  0  0
   -0.8348   -2.6404   -1.6427 H   0  0  0  0  0  0  0  0  0  0  0  0
    0.8362   -3.0192    0.9970 H   0  0  0  0  0  0  0  0  0  0  0  0
    1.5624   -1.7546   -1.7621 H   0  0  0  0  0  0  0  0  0  0  0  0
  1 15  2  0  0  0  0
  3  4  1  0  0  0  0
  3 20  1  0  0  0  0
  4 22  1  0  0  0  0
  5  6  1  0  0  0  0
  5  4  1  0  0  0  0
  6 11  1  0  0  0  0
  7 10  1  0  0  0  0
  7  9  1  0  0  0  0
  7  6  1  0  0  0  0
  8  7  1  0  0  0  0
 11 12  1  0  0  0  0
 11 13  1  0  0  0  0
 11 14  1  0  0  0  0
 15  6  1  0  0  0  0
 15  2  1  0  0  0  0
 16  2  1  0  0  0  0
 16 19  1  0  0  0  0
 16 18  1  0  0  0  0
 17 16  1  0  0  0  0
 21  3  1  0  0  0  0
 23  5  1  0  0  0  0
M  END
