2
 OpenBabel05122313113D

 26 27  0  0  1  0  0  0  0  0999 V2000
    1.0241    3.3956   -0.1034 Cl  0  0  0  0  0  0  0  0  0  0  0  0
   -0.1745    0.9949    0.0615 C   0  0  0  0  0  2  0  0  0  0  0  0
   -1.4492    1.6600    0.1000 C   0  0  1  0  0  3  0  0  0  0  0  0
   -2.3867    1.4524   -0.8035 N   0  0  0  0  0  0  0  0  0  0  0  0
   -2.1874    0.7952   -1.5940 H   0  0  0  0  0  0  0  0  0  0  0  0
   -3.6889    2.0312   -0.4659 C   0  0  0  0  0  0  0  0  0  0  0  0
   -4.3670    1.2164   -0.1288 H   0  0  0  0  0  0  0  0  0  0  0  0
   -4.1457    2.5054   -1.3563 H   0  0  0  0  0  0  0  0  0  0  0  0
   -3.3316    3.0222    0.6631 C   0  0  0  0  0  0  0  0  0  0  0  0
   -3.1684    4.0320    0.2369 H   0  0  0  0  0  0  0  0  0  0  0  0
   -4.1321    3.1002    1.4213 H   0  0  0  0  0  0  0  0  0  0  0  0
   -2.0057    2.4773    1.2321 C   0  0  0  0  0  0  0  0  0  0  0  0
   -1.2872    3.2419    1.5799 H   0  0  0  0  0  0  0  0  0  0  0  0
   -2.1393    1.7562    2.0719 H   0  0  0  0  0  0  0  0  0  0  0  0
    1.0305    1.6213    0.0564 C   0  0  1  0  0  3  0  0  0  0  0  0
    2.3707    1.0125    0.0668 C   0  0  0  0  0  0  0  0  0  0  0  0
    3.4128    1.5460   -0.7273 C   0  0  0  0  0  0  0  0  0  0  0  0
    3.2202    2.4372   -1.3415 H   0  0  0  0  0  0  0  0  0  0  0  0
    4.6719    0.9361   -0.7468 C   0  0  0  0  0  0  0  0  0  0  0  0
    5.4684    1.3528   -1.3812 H   0  0  0  0  0  0  0  0  0  0  0  0
    4.9165   -0.2044    0.0359 C   0  0  0  0  0  0  0  0  0  0  0  0
    5.9074   -0.6831    0.0190 H   0  0  0  0  0  0  0  0  0  0  0  0
    3.8949   -0.7266    0.8451 C   0  0  0  0  0  0  0  0  0  0  0  0
    4.0823   -1.6086    1.4755 H   0  0  0  0  0  0  0  0  0  0  0  0
    2.6294   -0.1278    0.8649 C   0  0  0  0  0  0  0  0  0  0  0  0
    1.8430   -0.5228    1.5247 H   0  0  0  0  0  0  0  0  0  0  0  0
  3  2  1  1  0  0  0
  3 12  1  0  0  0  0
  4  6  1  0  0  0  0
  4  3  1  0  0  0  0
  5  4  1  0  0  0  0
  6  7  1  0  0  0  0
  6  9  1  0  0  0  0
  8  6  1  0  0  0  0
  9 12  1  0  0  0  0
  9 11  1  0  0  0  0
 10  9  1  0  0  0  0
 12 13  1  0  0  0  0
 12 14  1  0  0  0  0
 15  1  1  6  0  0  0
 15  2  1  0  0  0  0
 15 16  1  0  0  0  0
 16 25  1  0  0  0  0
 17 16  2  0  0  0  0
 18 17  1  0  0  0  0
 19 17  1  0  0  0  0
 19 21  2  0  0  0  0
 20 19  1  0  0  0  0
 21 23  1  0  0  0  0
 22 21  1  0  0  0  0
 23 25  2  0  0  0  0
 23 24  1  0  0  0  0
 25 26  1  0  0  0  0
M  END
