2
q = 0.0, confidence = 0.654

 28 27  0  0  0  0  0  0  0  0999 V2000
   -0.7345   -1.9042   -0.4125 N   0  0  0  0  0  0  0  0  0  0  0  0
   -1.4641   -1.0902    0.2558 C   0  0  0  0  0  3  0  0  0  0  0  0
   -2.8747   -1.1217    0.7215 C   0  0  0  0  0  0  0  0  0  0  0  0
   -2.8660   -1.6451    1.7122 H   0  0  0  0  0  0  0  0  0  0  0  0
   -3.5206   -1.7639    0.0726 H   0  0  0  0  0  0  0  0  0  0  0  0
   -3.4777    0.2680    0.8618 C   0  0  0  0  0  0  0  0  0  0  0  0
   -2.7049    1.3656    1.1433 C   0  0  0  0  0  0  0  0  0  0  0  0
   -1.2373    1.3140    1.4290 C   0  0  0  0  0  3  0  0  0  0  0  0
   -1.0913    0.6728    2.3188 H   0  0  0  0  0  0  0  0  0  0  0  0
   -0.8658    2.3256    1.6999 H   0  0  0  0  0  0  0  0  0  0  0  0
   -4.9763    0.2736    0.7073 C   0  0  0  0  0  0  0  0  0  0  0  0
   -5.4640   -0.3709    1.4748 H   0  0  0  0  0  0  0  0  0  0  0  0
   -5.2851   -0.1487   -0.2775 H   0  0  0  0  0  0  0  0  0  0  0  0
   -5.4285    1.2779    0.7968 H   0  0  0  0  0  0  0  0  0  0  0  0
   -3.3254    2.7404    1.2930 C   0  0  0  0  0  0  0  0  0  0  0  0
   -4.3036    2.8619    0.7894 H   0  0  0  0  0  0  0  0  0  0  0  0
   -2.6429    3.5202    0.8961 H   0  0  0  0  0  0  0  0  0  0  0  0
   -3.4677    2.9869    2.3686 H   0  0  0  0  0  0  0  0  0  0  0  0
   -1.1635   -3.2170   -0.9546 C   0  0  0  0  0  0  0  0  0  0  0  0
   -2.0888   -3.0202   -1.5446 H   0  0  0  0  0  0  0  0  0  0  0  0
   -0.1165   -3.8144   -1.8925 C   0  0  0  0  0  0  0  0  0  0  0  0
    0.1671   -3.1007   -2.6886 H   0  0  0  0  0  0  0  0  0  0  0  0
   -0.5105   -4.7295   -2.3778 H   0  0  0  0  0  0  0  0  0  0  0  0
    0.8025   -4.0882   -1.3402 H   0  0  0  0  0  0  0  0  0  0  0  0
   -1.5312   -4.1973    0.1674 C   0  0  0  0  0  0  0  0  0  0  0  0
   -2.3019   -3.7825    0.8440 H   0  0  0  0  0  0  0  0  0  0  0  0
   -0.6418   -4.4542    0.7771 H   0  0  0  0  0  0  0  0  0  0  0  0
   -1.9272   -5.1393   -0.2629 H   0  0  0  0  0  0  0  0  0  0  0  0
  1  2  2  0  0  0  0
  2  3  1  0  0  0  0
  3  6  1  0  0  0  0
  3  4  1  0  0  0  0
  5  3  1  0  0  0  0
  6  7  2  0  0  0  0
  7 15  1  0  0  0  0
  7  8  1  0  0  0  0
  8 10  1  0  0  0  0
  8  9  1  0  0  0  0
 11 14  1  0  0  0  0
 11  6  1  0  0  0  0
 11 12  1  0  0  0  0
 13 11  1  0  0  0  0
 15 18  1  0  0  0  0
 16 15  1  0  0  0  0
 17 15  1  0  0  0  0
 19  1  1  0  0  0  0
 19 25  1  0  0  0  0
 20 19  1  0  0  0  0
 21 24  1  0  0  0  0
 21 19  1  0  0  0  0
 22 21  1  0  0  0  0
 23 21  1  0  0  0  0
 25 27  1  0  0  0  0
 25 26  1  0  0  0  0
 28 25  1  0  0  0  0
M  END
