7
 OpenBabel05122313113D

 32 33  0  0  1  0  0  0  0  0999 V2000
   -2.8502   -2.6286   -0.4704 I   0  0  0  0  0  0  0  0  0  0  0  0
   -1.3149    1.7944    0.9748 O   0  0  0  0  0  0  0  0  0  0  0  0
   -2.8720    0.5612   -0.1343 N   0  0  0  0  0  0  0  0  0  0  0  0
   -1.3902   -1.9558    0.9306 C   0  0  0  0  0  0  0  0  0  0  0  0
   -0.6498   -2.9923    1.5732 C   0  0  0  0  0  0  0  0  0  0  0  0
   -0.8193   -4.0363    1.2800 H   0  0  0  0  0  0  0  0  0  0  0  0
    0.3533   -2.6678    2.5244 C   0  0  0  0  0  3  0  0  0  0  0  0
    0.9519   -3.4723    2.9739 H   0  0  0  0  0  0  0  0  0  0  0  0
    0.5687   -1.3061    2.9000 C   0  0  0  0  0  0  0  0  0  0  0  0
    1.3537   -1.0394    3.6205 H   0  0  0  0  0  0  0  0  0  0  0  0
   -0.1411   -0.2889    2.2379 C   0  0  0  0  0  0  0  0  0  0  0  0
    0.0646    0.7634    2.4672 H   0  0  0  0  0  0  0  0  0  0  0  0
   -1.1520   -0.5755    1.2433 C   0  0  2  0  0  3  0  0  0  0  0  0
   -1.8477    0.5714    0.6415 C   0  0  0  0  0  0  0  0  0  0  0  0
   -3.2103    1.9529   -0.4375 C   0  0  2  0  0  0  0  0  0  0  0  0
   -3.1909    2.0879   -1.5419 H   0  0  0  0  0  0  0  0  0  0  0  0
   -2.0604    2.7722    0.2172 C   0  0  0  0  0  0  0  0  0  0  0  0
   -1.3780    3.2215   -0.5339 H   0  0  0  0  0  0  0  0  0  0  0  0
   -2.4022    3.5615    0.9164 H   0  0  0  0  0  0  0  0  0  0  0  0
   -4.6558    2.3053    0.0321 C   0  0  0  0  0  0  0  0  0  0  0  0
   -4.7938    2.1023    1.5501 C   0  0  0  0  0  0  0  0  0  0  0  0
   -4.1027    2.7539    2.1239 H   0  0  0  0  0  0  0  0  0  0  0  0
   -4.5818    1.0500    1.8254 H   0  0  0  0  0  0  0  0  0  0  0  0
   -5.8245    2.3422    1.8816 H   0  0  0  0  0  0  0  0  0  0  0  0
   -5.6359    1.3732   -0.7016 C   0  0  0  0  0  0  0  0  0  0  0  0
   -5.4034    0.3133   -0.4821 H   0  0  0  0  0  0  0  0  0  0  0  0
   -5.5710    1.5140   -1.8008 H   0  0  0  0  0  0  0  0  0  0  0  0
   -6.6808    1.5823   -0.3936 H   0  0  0  0  0  0  0  0  0  0  0  0
   -4.9581    3.7664   -0.3413 C   0  0  0  0  0  0  0  0  0  0  0  0
   -4.2925    4.4805    0.1866 H   0  0  0  0  0  0  0  0  0  0  0  0
   -6.0012    4.0284   -0.0702 H   0  0  0  0  0  0  0  0  0  0  0  0
   -4.8411    3.9344   -1.4325 H   0  0  0  0  0  0  0  0  0  0  0  0
  1  4  1  0  0  0  0
  3 14  2  0  0  0  0
  4 13  1  0  0  0  0
  4  5  2  0  0  0  0
  5  7  1  0  0  0  0
  6  5  1  0  0  0  0
  7  9  1  0  0  0  0
  7  8  1  0  0  0  0
  9 10  1  0  0  0  0
 11 12  1  0  0  0  0
 11  9  2  0  0  0  0
 13 14  1  1  0  0  0
 13 11  1  0  0  0  0
 14  2  1  0  0  0  0
 15 16  1  6  0  0  0
 15  3  1  0  0  0  0
 15 20  1  0  0  0  0
 15 17  1  0  0  0  0
 17 19  1  0  0  0  0
 17  2  1  0  0  0  0
 18 17  1  0  0  0  0
 20 21  1  0  0  0  0
 21 23  1  0  0  0  0
 21 24  1  0  0  0  0
 21 22  1  0  0  0  0
 25 26  1  0  0  0  0
 25 28  1  0  0  0  0
 25 20  1  0  0  0  0
 27 25  1  0  0  0  0
 29 31  1  0  0  0  0
 29 20  1  0  0  0  0
 29 30  1  0  0  0  0
 32 29  1  0  0  0  0
M  END
