1
 OpenBabel05122313113D

 34 35  0  0  0  0  0  0  0  0999 V2000
    1.9340    1.4926   -0.1453 C   0  0  0  0  0  2  0  0  0  0  0  0
    3.2544    1.1717   -0.3303 N   0  0  0  0  0  0  0  0  0  0  0  0
    4.0560    2.2986   -0.3662 C   0  0  0  0  0  0  0  0  0  0  0  0
    3.2197    3.3719   -0.1944 C   0  0  0  0  0  0  0  0  0  0  0  0
    1.9403    2.8626   -0.0594 N   0  0  0  0  0  0  0  0  0  0  0  0
    0.7659    3.7061    0.1408 C   0  0  0  0  0  0  0  0  0  0  0  0
    0.1814    3.3300    1.0010 H   0  0  0  0  0  0  0  0  0  0  0  0
    1.1030    4.7403    0.3341 H   0  0  0  0  0  0  0  0  0  0  0  0
    0.1164    3.6759   -0.7545 H   0  0  0  0  0  0  0  0  0  0  0  0
    3.4312    4.4443   -0.1485 H   0  0  0  0  0  0  0  0  0  0  0  0
    5.1415    2.2361   -0.4830 H   0  0  0  0  0  0  0  0  0  0  0  0
    3.7776   -0.1995   -0.5077 C   0  0  0  0  0  0  0  0  0  0  0  0
    3.1402   -0.8626    0.1062 H   0  0  0  0  0  0  0  0  0  0  0  0
    3.6033   -0.4912   -1.5594 H   0  0  0  0  0  0  0  0  0  0  0  0
    5.2297   -0.3173   -0.1159 C   0  0  0  0  0  0  0  0  0  0  0  0
    5.5811   -0.3361    1.2606 C   0  0  0  0  0  0  0  0  0  0  0  0
    6.9370   -0.4398    1.6152 C   0  0  0  0  0  0  0  0  0  0  0  0
    7.2050   -0.4548    2.6844 H   0  0  0  0  0  0  0  0  0  0  0  0
    7.9565   -0.5246    0.6488 C   0  0  0  0  0  0  0  0  0  0  0  0
    7.5849   -0.4930   -0.7062 C   0  0  0  0  0  0  0  0  0  0  0  0
    8.3678   -0.5488   -1.4800 H   0  0  0  0  0  0  0  0  0  0  0  0
    6.2394   -0.3890   -1.1082 C   0  0  0  0  0  0  0  0  0  0  0  0
    5.9032   -0.3495   -2.5814 C   0  0  0  0  0  0  0  0  0  0  0  0
    5.2958   -1.2254   -2.8919 H   0  0  0  0  0  0  0  0  0  0  0  0
    5.3172    0.5534   -2.8527 H   0  0  0  0  0  0  0  0  0  0  0  0
    6.8231   -0.3487   -3.1966 H   0  0  0  0  0  0  0  0  0  0  0  0
    9.4002   -0.6702    1.0601 C   0  0  0  0  0  0  0  0  0  0  0  0
   10.0903   -0.4014    0.2368 H   0  0  0  0  0  0  0  0  0  0  0  0
    9.6409   -0.0346    1.9359 H   0  0  0  0  0  0  0  0  0  0  0  0
    9.6264   -1.7184    1.3519 H   0  0  0  0  0  0  0  0  0  0  0  0
    4.5248   -0.2286    2.3318 C   0  0  0  0  0  0  0  0  0  0  0  0
    4.9662   -0.3341    3.3408 H   0  0  0  0  0  0  0  0  0  0  0  0
    4.0010    0.7497    2.2919 H   0  0  0  0  0  0  0  0  0  0  0  0
    3.7322   -0.9965    2.2184 H   0  0  0  0  0  0  0  0  0  0  0  0
  1  5  1  0  0  0  0
  2  1  1  0  0  0  0
  3  2  1  0  0  0  0
  3  4  2  0  0  0  0
  4 10  1  0  0  0  0
  4  5  1  0  0  0  0
  5  6  1  0  0  0  0
  6  8  1  0  0  0  0
  6  7  1  0  0  0  0
  9  6  1  0  0  0  0
 11  3  1  0  0  0  0
 12  2  1  0  0  0  0
 12 15  1  0  0  0  0
 12 13  1  0  0  0  0
 14 12  1  0  0  0  0
 15 16  1  0  0  0  0
 16 17  2  0  0  0  0
 16 31  1  0  0  0  0
 17 18  1  0  0  0  0
 19 27  1  0  0  0  0
 19 17  1  0  0  0  0
 20 19  2  0  0  0  0
 21 20  1  0  0  0  0
 22 20  1  0  0  0  0
 22 15  2  0  0  0  0
 23 22  1  0  0  0  0
 24 23  1  0  0  0  0
 25 23  1  0  0  0  0
 26 23  1  0  0  0  0
 27 30  1  0  0  0  0
 27 29  1  0  0  0  0
 28 27  1  0  0  0  0
 31 32  1  0  0  0  0
 33 31  1  0  0  0  0
 34 31  1  0  0  0  0
M  END
