35
 OpenBabel05122313113D

 60 66  0  0  1  0  0  0  0  0999 V2000
   -0.3957   -0.0231   -0.1354 N   0  0  2  0  0  0  0  0  0  0  0  0
   -0.0702   -2.2645    0.0291 C   0  0  0  0  0  0  0  0  0  0  0  0
    0.5133   -3.5436    0.0756 C   0  0  0  0  0  0  0  0  0  0  0  0
    1.6052   -3.6486   -0.0127 H   0  0  0  0  0  0  0  0  0  0  0  0
   -0.3306   -4.6495    0.2420 C   0  0  0  0  0  0  0  0  0  0  0  0
    0.0953   -5.6630    0.2811 H   0  0  0  0  0  0  0  0  0  0  0  0
   -1.7249   -4.4746    0.3640 C   0  0  0  0  0  0  0  0  0  0  0  0
   -2.3709   -5.3553    0.4993 H   0  0  0  0  0  0  0  0  0  0  0  0
   -2.3069   -3.1954    0.3166 C   0  0  0  0  0  0  0  0  0  0  0  0
   -3.3951   -3.0718    0.4125 H   0  0  0  0  0  0  0  0  0  0  0  0
   -1.4608   -2.0978    0.1457 C   0  0  0  0  0  0  0  0  0  0  0  0
   -1.7881   -0.6121    0.0604 C   0  0  0  0  0  0  0  0  0  0  0  0
   -2.6763   -0.4536   -1.1817 C   0  0  0  0  0  0  0  0  0  0  0  0
   -2.0966   -0.2272   -2.4454 C   0  0  0  0  0  0  0  0  0  0  0  0
   -1.0117   -0.0732   -2.5226 H   0  0  0  0  0  0  0  0  0  0  0  0
   -2.8826   -0.2043   -3.6056 C   0  0  0  0  0  0  0  0  0  0  0  0
   -2.4048   -0.0156   -4.5788 H   0  0  0  0  0  0  0  0  0  0  0  0
   -4.2657   -0.4276   -3.5287 C   0  0  0  0  0  0  0  0  0  0  0  0
   -4.8845   -0.4062   -4.4382 H   0  0  0  0  0  0  0  0  0  0  0  0
   -4.8480   -0.6948   -2.2814 C   0  0  0  0  0  0  0  0  0  0  0  0
   -5.9278   -0.8940   -2.2060 H   0  0  0  0  0  0  0  0  0  0  0  0
   -4.0607   -0.7167   -1.1198 C   0  0  0  0  0  0  0  0  0  0  0  0
   -4.5363   -0.9524   -0.1579 H   0  0  0  0  0  0  0  0  0  0  0  0
   -2.3593   -0.1369    1.4170 C   0  0  0  0  0  0  0  0  0  0  0  0
   -3.4866    0.6958    1.5496 C   0  0  0  0  0  0  0  0  0  0  0  0
   -4.0232    1.0453    0.6576 H   0  0  0  0  0  0  0  0  0  0  0  0
   -3.9264    1.1126    2.8166 C   0  0  0  0  0  0  0  0  0  0  0  0
   -4.8092    1.7651    2.8938 H   0  0  0  0  0  0  0  0  0  0  0  0
   -3.2424    0.7111    3.9724 C   0  0  0  0  0  0  0  0  0  0  0  0
   -3.5860    1.0413    4.9642 H   0  0  0  0  0  0  0  0  0  0  0  0
   -2.1135   -0.1149    3.8517 C   0  0  0  0  0  0  0  0  0  0  0  0
   -1.5624   -0.4357    4.7484 H   0  0  0  0  0  0  0  0  0  0  0  0
   -1.6818   -0.5372    2.5879 C   0  0  0  0  0  0  0  0  0  0  0  0
   -0.7938   -1.1821    2.5093 H   0  0  0  0  0  0  0  0  0  0  0  0
    0.5722   -0.9550   -0.1004 C   0  0  0  0  0  2  0  0  0  0  0  0
   -0.0967    1.4614   -0.1858 C   0  0  1  0  0  0  0  0  0  0  0  0
   -1.3591    2.3347   -0.3672 C   0  0  0  0  0  0  0  0  0  0  0  0
   -1.8781    2.0781   -1.3107 H   0  0  0  0  0  0  0  0  0  0  0  0
   -2.0657    2.1637    0.4620 H   0  0  0  0  0  0  0  0  0  0  0  0
    0.5881    1.8645    1.1458 C   0  0  0  0  0  0  0  0  0  0  0  0
   -0.1058    1.6565    1.9865 H   0  0  0  0  0  0  0  0  0  0  0  0
    1.4893    1.2319    1.2905 H   0  0  0  0  0  0  0  0  0  0  0  0
    0.8481    1.7701   -1.3756 C   0  0  0  0  0  0  0  0  0  0  0  0
    1.7603    1.1422   -1.3061 H   0  0  0  0  0  0  0  0  0  0  0  0
    0.3400    1.5064   -2.3271 H   0  0  0  0  0  0  0  0  0  0  0  0
   -0.9756    3.8314   -0.3793 C   0  0  2  0  0  0  0  0  0  0  0  0
   -1.9093    4.4205   -0.5000 H   0  0  0  0  0  0  0  0  0  0  0  0
   -0.0209    4.1207   -1.5492 C   0  0  0  0  0  0  0  0  0  0  0  0
   -0.5172    3.8900   -2.5164 H   0  0  0  0  0  0  0  0  0  0  0  0
    0.2457    5.1991   -1.5693 H   0  0  0  0  0  0  0  0  0  0  0  0
    1.2409    3.2581   -1.3804 C   0  0  1  0  0  0  0  0  0  0  0  0
    1.9371    3.4320   -2.2274 H   0  0  0  0  0  0  0  0  0  0  0  0
   -0.2932    4.2052    0.9490 C   0  0  0  0  0  0  0  0  0  0  0  0
   -0.9875    4.0306    1.7990 H   0  0  0  0  0  0  0  0  0  0  0  0
   -0.0367    5.2861    0.9542 H   0  0  0  0  0  0  0  0  0  0  0  0
    0.9767    3.3521    1.1191 C   0  0  2  0  0  0  0  0  0  0  0  0
    1.4764    3.6041    2.0781 H   0  0  0  0  0  0  0  0  0  0  0  0
    1.9421    3.6075   -0.0536 C   0  0  0  0  0  0  0  0  0  0  0  0
    2.2607    4.6716   -0.0614 H   0  0  0  0  0  0  0  0  0  0  0  0
    2.8584    2.9916    0.0658 H   0  0  0  0  0  0  0  0  0  0  0  0
  1 35  1  1  0  0  0
  1 12  1  0  0  0  0
  2  3  2  0  0  0  0
  2 11  1  0  0  0  0
  3  5  1  0  0  0  0
  4  3  1  0  0  0  0
  5  6  1  0  0  0  0
  5  7  2  0  0  0  0
  7  8  1  0  0  0  0
  9  7  1  0  0  0  0
  9 10  1  0  0  0  0
 11  9  2  0  0  0  0
 12 11  1  0  0  0  0
 12 24  1  0  0  0  0
 13 22  1  0  0  0  0
 13 12  1  0  0  0  0
 14 13  2  0  0  0  0
 15 14  1  0  0  0  0
 16 18  2  0  0  0  0
 16 14  1  0  0  0  0
 17 16  1  0  0  0  0
 18 20  1  0  0  0  0
 19 18  1  0  0  0  0
 20 21  1  0  0  0  0
 20 22  2  0  0  0  0
 22 23  1  0  0  0  0
 24 25  2  0  0  0  0
 24 33  1  0  0  0  0
 25 27  1  0  0  0  0
 26 25  1  0  0  0  0
 27 28  1  0  0  0  0
 27 29  2  0  0  0  0
 29 30  1  0  0  0  0
 31 29  1  0  0  0  0
 31 32  1  0  0  0  0
 33 31  2  0  0  0  0
 34 33  1  0  0  0  0
 35  2  1  0  0  0  0
 36 43  1  6  0  0  0
 36  1  1  0  0  0  0
 36 40  1  0  0  0  0
 37 36  1  0  0  0  0
 37 39  1  0  0  0  0
 38 37  1  0  0  0  0
 40 42  1  0  0  0  0
 40 41  1  0  0  0  0
 43 44  1  0  0  0  0
 45 43  1  0  0  0  0
 46 47  1  6  0  0  0
 46 37  1  0  0  0  0
 46 53  1  0  0  0  0
 48 51  1  0  0  0  0
 48 46  1  0  0  0  0
 49 48  1  0  0  0  0
 50 48  1  0  0  0  0
 51 52  1  6  0  0  0
 51 43  1  0  0  0  0
 51 58  1  0  0  0  0
 53 55  1  0  0  0  0
 53 56  1  0  0  0  0
 53 54  1  0  0  0  0
 56 40  1  0  0  0  0
 56 57  1  1  0  0  0
 58 60  1  0  0  0  0
 58 56  1  0  0  0  0
 59 58  1  0  0  0  0
M  END
