3
 OpenBabel05122313113D

 11 11  0  0  0  0  0  0  0  0999 V2000
    1.1215   -0.0168    2.2991 F   0  0  0  0  0  0  0  0  0  0  0  0
    5.4826    0.0019    0.5312 F   0  0  0  0  0  0  0  0  0  0  0  0
    1.3069   -0.0010   -0.0958 C   0  0  0  0  0  3  0  0  0  0  0  0
    1.9071   -0.0079    1.1771 C   0  0  0  0  0  0  0  0  0  0  0  0
    3.2870   -0.0070    1.4251 C   0  0  0  0  0  0  0  0  0  0  0  0
    3.6795   -0.0125    2.4513 H   0  0  0  0  0  0  0  0  0  0  0  0
    4.1488    0.0008    0.3229 C   0  0  0  0  0  0  0  0  0  0  0  0
    3.6446    0.0071   -0.9812 C   0  0  0  0  0  0  0  0  0  0  0  0
    4.3390    0.0127   -1.8337 H   0  0  0  0  0  0  0  0  0  0  0  0
    2.2483    0.0060   -1.1587 C   0  0  0  0  0  0  0  0  0  0  0  0
    1.8653    0.0107   -2.1920 H   0  0  0  0  0  0  0  0  0  0  0  0
  3  4  1  0  0  0  0
  4  5  2  0  0  0  0
  4  1  1  0  0  0  0
  5  6  1  0  0  0  0
  7  2  1  0  0  0  0
  7  5  1  0  0  0  0
  8  7  2  0  0  0  0
  9  8  1  0  0  0  0
 10  8  1  0  0  0  0
 10  3  2  0  0  0  0
 11 10  1  0  0  0  0
M  END
