8
 OpenBabel05122313113D

 13 15  0  0  1  0  0  0  0  0999 V2000
   -3.1060   -2.2765   -1.5721 C   0  0  0  0  0  0  0  0  0  0  0  0
   -2.5200   -3.1925   -1.7630 H   0  0  0  0  0  0  0  0  0  0  0  0
   -3.5091   -1.2038   -2.3764 C   0  0  0  0  0  0  0  0  0  0  0  0
   -3.3665   -0.9539   -3.4405 H   0  0  0  0  0  0  0  0  0  0  0  0
   -4.5752   -0.7064   -1.4034 C   0  0  2  0  0  0  0  0  0  0  0  0
   -3.9358    0.1604   -0.3214 C   0  0  0  0  0  3  0  0  0  0  0  0
   -4.0742    1.2344   -0.1213 H   0  0  0  0  0  0  0  0  0  0  0  0
   -3.5386   -0.9233    0.4886 C   0  0  0  0  0  3  0  0  0  0  0  0
   -3.2788   -0.9971    1.5574 H   0  0  0  0  0  0  0  0  0  0  0  0
   -4.0999   -1.9973   -0.4459 C   0  0  2  0  0  0  0  0  0  0  0  0
   -5.5168   -1.7672   -0.8997 C   0  0  0  0  0  0  0  0  0  0  0  0
   -5.9201   -2.4663   -1.6503 H   0  0  0  0  0  0  0  0  0  0  0  0
   -6.2409   -1.4646   -0.1260 H   0  0  0  0  0  0  0  0  0  0  0  0
  2  1  1  0  0  0  0
  3  1  2  0  0  0  0
  4  3  1  0  0  0  0
  5  3  1  6  0  0  0
  5 11  1  0  0  0  0
  5 10  1  0  0  0  0
  5  6  1  0  0  0  0
  6  7  1  0  0  0  0
  6  8  1  0  0  0  0
  8  9  1  0  0  0  0
 10  1  1  6  0  0  0
 10  8  1  0  0  0  0
 11 10  1  0  0  0  0
 11 13  1  0  0  0  0
 12 11  1  0  0  0  0
M  END
