4
 OpenBabel05122313113D

 36 37  0  0  0  0  0  0  0  0999 V2000
   -2.0782    2.3567    1.0424 O   0  0  0  0  0  0  0  0  0  0  0  0
    2.0819    1.8632    0.2853 N   0  0  0  0  0  0  0  0  0  0  0  0
    0.1438    2.1389   -0.6335 N   0  0  0  0  0  0  0  0  0  0  0  0
    0.9046    1.2143    0.0295 C   0  0  0  0  0  2  0  0  0  0  0  0
    0.8180    3.3415   -0.7752 C   0  0  0  0  0  0  0  0  0  0  0  0
    2.0520    3.1642   -0.2049 C   0  0  0  0  0  0  0  0  0  0  0  0
    3.2607    1.2042    0.8432 C   0  0  0  0  0  0  0  0  0  0  0  0
    3.9159    0.2506   -0.1573 C   0  0  0  0  0  0  0  0  0  0  0  0
    5.0807   -0.5364    0.4452 C   0  0  0  0  0  0  0  0  0  0  0  0
    5.7116   -1.5106   -0.5501 C   0  0  0  0  0  0  0  0  0  0  0  0
   -1.1870    1.8266   -1.1145 C   0  0  0  0  0  0  0  0  0  0  0  0
   -2.1734    1.6404    0.0504 C   0  0  0  0  0  0  0  0  0  0  0  0
   -3.2817    0.6510   -0.1092 C   0  0  0  0  0  0  0  0  0  0  0  0
   -3.2395   -0.4173   -1.0334 C   0  0  0  0  0  0  0  0  0  0  0  0
   -4.3038   -1.3276   -1.0994 C   0  0  0  0  0  0  0  0  0  0  0  0
   -5.4180   -1.1787   -0.2571 C   0  0  0  0  0  0  0  0  0  0  0  0
   -5.4631   -0.1211    0.6686 C   0  0  0  0  0  0  0  0  0  0  0  0
   -4.3988    0.7828    0.7465 C   0  0  0  0  0  0  0  0  0  0  0  0
    0.3678    4.2126   -1.2588 H   0  0  0  0  0  0  0  0  0  0  0  0
    2.8995    3.8475   -0.0997 H   0  0  0  0  0  0  0  0  0  0  0  0
    3.9631    1.9963    1.1738 H   0  0  0  0  0  0  0  0  0  0  0  0
    2.9411    0.6462    1.7450 H   0  0  0  0  0  0  0  0  0  0  0  0
    4.2572    0.8277   -1.0447 H   0  0  0  0  0  0  0  0  0  0  0  0
    3.1311   -0.4484   -0.5211 H   0  0  0  0  0  0  0  0  0  0  0  0
    4.7153   -1.0975    1.3347 H   0  0  0  0  0  0  0  0  0  0  0  0
    5.8542    0.1660    0.8301 H   0  0  0  0  0  0  0  0  0  0  0  0
    6.5411   -2.0859   -0.0923 H   0  0  0  0  0  0  0  0  0  0  0  0
    6.1204   -0.9754   -1.4323 H   0  0  0  0  0  0  0  0  0  0  0  0
    4.9606   -2.2360   -0.9253 H   0  0  0  0  0  0  0  0  0  0  0  0
   -1.5537    2.6790   -1.7235 H   0  0  0  0  0  0  0  0  0  0  0  0
   -1.1120    0.9388   -1.7722 H   0  0  0  0  0  0  0  0  0  0  0  0
   -2.3506   -0.5843   -1.6620 H   0  0  0  0  0  0  0  0  0  0  0  0
   -4.2562   -2.1669   -1.8096 H   0  0  0  0  0  0  0  0  0  0  0  0
   -6.2528   -1.8940   -0.3169 H   0  0  0  0  0  0  0  0  0  0  0  0
   -6.3332   -0.0064    1.3330 H   0  0  0  0  0  0  0  0  0  0  0  0
   -4.3995    1.6127    1.4688 H   0  0  0  0  0  0  0  0  0  0  0  0
  2  7  1  0  0  0  0
  3  4  1  0  0  0  0
  4  2  1  0  0  0  0
  5  3  1  0  0  0  0
  5  6  2  0  0  0  0
  6 20  1  0  0  0  0
  6  2  1  0  0  0  0
  7 21  1  0  0  0  0
  7 22  1  0  0  0  0
  8  9  1  0  0  0  0
  8  7  1  0  0  0  0
  9 26  1  0  0  0  0
  9 25  1  0  0  0  0
 10 27  1  0  0  0  0
 10  9  1  0  0  0  0
 11  3  1  0  0  0  0
 11 12  1  0  0  0  0
 12  1  2  0  0  0  0
 13 12  1  0  0  0  0
 13 18  1  0  0  0  0
 14 13  2  0  0  0  0
 15 14  1  0  0  0  0
 15 16  2  0  0  0  0
 16 17  1  0  0  0  0
 17 18  2  0  0  0  0
 17 35  1  0  0  0  0
 18 36  1  0  0  0  0
 19  5  1  0  0  0  0
 23  8  1  0  0  0  0
 24  8  1  0  0  0  0
 28 10  1  0  0  0  0
 29 10  1  0  0  0  0
 30 11  1  0  0  0  0
 31 11  1  0  0  0  0
 32 14  1  0  0  0  0
 33 15  1  0  0  0  0
 34 16  1  0  0  0  0
M  END
