1
 OpenBabel05122313113D

 37 39  0  0  1  0  0  0  0  0999 V2000
    1.1233   -1.7232   -0.5336 C   0  0  0  0  0  3  0  0  0  0  0  0
    0.7477   -3.0808   -0.4967 C   0  0  0  0  0  0  0  0  0  0  0  0
    2.9957   -3.0294   -0.6264 N   0  0  0  0  0  2  0  0  0  0  0  0
    1.9219   -3.8029   -0.5574 N   0  0  0  0  0  0  0  0  0  0  0  0
    2.4928   -1.7960   -0.6132 N   0  0  0  0  0  0  0  0  0  0  0  0
   -1.6312   -2.9808   -1.1535 C   0  0  0  0  0  0  0  0  0  0  0  0
   -1.3617   -2.1293   -1.7978 H   0  0  0  0  0  0  0  0  0  0  0  0
    4.1610   -0.4391    0.6089 C   0  0  0  0  0  0  0  0  0  0  0  0
    3.4760   -0.5854    1.8334 C   0  0  0  0  0  0  0  0  0  0  0  0
    2.4170   -0.8907    1.8450 H   0  0  0  0  0  0  0  0  0  0  0  0
    3.4082   -0.6390   -0.7010 C   0  0  1  0  0  0  0  0  0  0  0  0
    2.6985    0.2116   -0.8148 H   0  0  0  0  0  0  0  0  0  0  0  0
    2.1089   -5.2448   -0.5811 C   0  0  0  0  0  0  0  0  0  0  0  0
    3.0499   -5.4591   -1.1171 H   0  0  0  0  0  0  0  0  0  0  0  0
    1.2537   -5.7097   -1.1040 H   0  0  0  0  0  0  0  0  0  0  0  0
    2.1721   -5.6485    0.4484 H   0  0  0  0  0  0  0  0  0  0  0  0
    4.2530   -0.7337   -1.9677 C   0  0  0  0  0  0  0  0  0  0  0  0
    3.5866   -0.8740   -2.8403 H   0  0  0  0  0  0  0  0  0  0  0  0
    4.9758   -1.5710   -1.9149 H   0  0  0  0  0  0  0  0  0  0  0  0
    4.8072    0.2112   -2.1224 H   0  0  0  0  0  0  0  0  0  0  0  0
   -0.6093   -3.6309   -0.4210 C   0  0  0  0  0  0  0  0  0  0  0  0
   -0.9497   -4.7238    0.4060 C   0  0  0  0  0  0  0  0  0  0  0  0
   -0.1809   -5.2091    1.0245 H   0  0  0  0  0  0  0  0  0  0  0  0
   -2.2801   -5.1574    0.4958 C   0  0  0  0  0  0  0  0  0  0  0  0
   -2.5338   -6.0007    1.1557 H   0  0  0  0  0  0  0  0  0  0  0  0
    5.4582    0.1138    3.0618 C   0  0  0  0  0  0  0  0  0  0  0  0
    5.9624    0.3324    4.0155 H   0  0  0  0  0  0  0  0  0  0  0  0
   -3.2879   -4.5041   -0.2304 C   0  0  0  0  0  0  0  0  0  0  0  0
   -4.3328   -4.8400   -0.1496 H   0  0  0  0  0  0  0  0  0  0  0  0
    4.1188   -0.3106    3.0477 C   0  0  0  0  0  0  0  0  0  0  0  0
    3.5591   -0.4215    3.9890 H   0  0  0  0  0  0  0  0  0  0  0  0
   -2.9582   -3.4155   -1.0553 C   0  0  0  0  0  0  0  0  0  0  0  0
   -3.7438   -2.8982   -1.6269 H   0  0  0  0  0  0  0  0  0  0  0  0
    5.5049   -0.0225    0.6312 C   0  0  0  0  0  0  0  0  0  0  0  0
    6.0623    0.0977   -0.3083 H   0  0  0  0  0  0  0  0  0  0  0  0
    6.1484    0.2544    1.8489 C   0  0  0  0  0  0  0  0  0  0  0  0
    7.1996    0.5811    1.8455 H   0  0  0  0  0  0  0  0  0  0  0  0
  1  2  2  0  0  0  0
  2 21  1  0  0  0  0
  3  5  1  0  0  0  0
  3  4  1  0  0  0  0
  4  2  1  0  0  0  0
  5  1  1  0  0  0  0
  6 32  2  0  0  0  0
  6 21  1  0  0  0  0
  7  6  1  0  0  0  0
  8 34  2  0  0  0  0
  8  9  1  0  0  0  0
  9 10  1  0  0  0  0
  9 30  2  0  0  0  0
 11 12  1  6  0  0  0
 11  5  1  0  0  0  0
 11  8  1  0  0  0  0
 13  4  1  0  0  0  0
 13 16  1  0  0  0  0
 14 13  1  0  0  0  0
 15 13  1  0  0  0  0
 17 19  1  0  0  0  0
 17 11  1  0  0  0  0
 18 17  1  0  0  0  0
 20 17  1  0  0  0  0
 21 22  2  0  0  0  0
 22 24  1  0  0  0  0
 22 23  1  0  0  0  0
 24 25  1  0  0  0  0
 26 27  1  0  0  0  0
 28 29  1  0  0  0  0
 28 24  2  0  0  0  0
 30 26  1  0  0  0  0
 30 31  1  0  0  0  0
 32 28  1  0  0  0  0
 33 32  1  0  0  0  0
 34 36  1  0  0  0  0
 35 34  1  0  0  0  0
 36 26  2  0  0  0  0
 37 36  1  0  0  0  0
M  END
