6
 OpenBabel05122313113D

 38 42  0  0  0  0  0  0  0  0999 V2000
   -2.2025   -0.5743   -1.0565 C   0  0  0  0  0  0  0  0  0  0  0  0
   -1.7323    0.4637   -1.9348 C   0  0  0  0  0  0  0  0  0  0  0  0
   -0.4872    0.0398   -2.4835 C   0  0  0  0  0  0  0  0  0  0  0  0
    0.1090    0.5918   -3.2146 H   0  0  0  0  0  0  0  0  0  0  0  0
   -0.1678   -1.2507   -1.9568 C   0  0  0  0  0  0  0  0  0  0  0  0
   -1.2134   -1.6050   -1.0320 C   0  0  0  0  0  3  0  0  0  0  0  0
   -1.2858   -2.5401   -0.4671 H   0  0  0  0  0  0  0  0  0  0  0  0
    0.9871   -2.0768   -2.3525 C   0  0  0  0  0  0  0  0  0  0  0  0
    2.0703   -1.5165   -3.0686 C   0  0  0  0  0  0  0  0  0  0  0  0
    2.0924   -0.4348   -3.2636 H   0  0  0  0  0  0  0  0  0  0  0  0
    3.1344   -2.3168   -3.5015 C   0  0  0  0  0  0  0  0  0  0  0  0
    3.9669   -1.8561   -4.0538 H   0  0  0  0  0  0  0  0  0  0  0  0
    3.1558   -3.6902   -3.2106 C   0  0  0  0  0  0  0  0  0  0  0  0
    3.9948   -4.3171   -3.5480 H   0  0  0  0  0  0  0  0  0  0  0  0
    2.0977   -4.2571   -2.4806 C   0  0  0  0  0  0  0  0  0  0  0  0
    2.1015   -5.3330   -2.2487 H   0  0  0  0  0  0  0  0  0  0  0  0
    1.0222   -3.4616   -2.0625 C   0  0  0  0  0  0  0  0  0  0  0  0
    0.1811   -3.9261   -1.5263 H   0  0  0  0  0  0  0  0  0  0  0  0
   -3.5103   -0.4854   -0.4354 C   0  0  0  0  0  0  0  0  0  0  0  0
   -4.0277   -1.5415    0.3474 C   0  0  0  0  0  0  0  0  0  0  0  0
   -3.4141   -2.4377    0.5161 H   0  0  0  0  0  0  0  0  0  0  0  0
   -5.3011   -1.4591    0.9086 C   0  0  0  0  0  0  0  0  0  0  0  0
   -5.6865   -2.2894    1.5187 H   0  0  0  0  0  0  0  0  0  0  0  0
   -6.0819   -0.3080    0.6901 C   0  0  0  0  0  0  0  0  0  0  0  0
   -7.0892   -0.2317    1.1266 H   0  0  0  0  0  0  0  0  0  0  0  0
   -5.5857    0.7396   -0.0877 C   0  0  0  0  0  0  0  0  0  0  0  0
   -6.2225    1.6198   -0.2481 H   0  0  0  0  0  0  0  0  0  0  0  0
   -4.2970    0.6884   -0.6734 C   0  0  0  0  0  0  0  0  0  0  0  0
   -3.7769    1.7879   -1.5089 C   0  0  0  0  0  0  0  0  0  0  0  0
   -4.5066    2.9849   -1.7137 C   0  0  0  0  0  0  0  0  0  0  0  0
   -5.4864    3.1160   -1.2349 H   0  0  0  0  0  0  0  0  0  0  0  0
   -4.0079    4.0218   -2.5026 C   0  0  0  0  0  0  0  0  0  0  0  0
   -4.6006    4.9398   -2.6332 H   0  0  0  0  0  0  0  0  0  0  0  0
   -2.7478    3.9003   -3.1206 C   0  0  0  0  0  0  0  0  0  0  0  0
   -2.3473    4.7217   -3.7332 H   0  0  0  0  0  0  0  0  0  0  0  0
   -2.0054    2.7344   -2.9409 C   0  0  0  0  0  0  0  0  0  0  0  0
   -1.0098    2.6406   -3.3978 H   0  0  0  0  0  0  0  0  0  0  0  0
   -2.5010    1.6757   -2.1473 C   0  0  0  0  0  0  0  0  0  0  0  0
  1  6  1  0  0  0  0
  1 19  1  0  0  0  0
  2  1  2  0  0  0  0
  3  5  2  0  0  0  0
  3  2  1  0  0  0  0
  4  3  1  0  0  0  0
  5  6  1  0  0  0  0
  6  7  1  0  0  0  0
  8 17  1  0  0  0  0
  8  5  1  0  0  0  0
  9  8  2  0  0  0  0
 10  9  1  0  0  0  0
 11 13  2  0  0  0  0
 11  9  1  0  0  0  0
 12 11  1  0  0  0  0
 13 15  1  0  0  0  0
 14 13  1  0  0  0  0
 15 16  1  0  0  0  0
 15 17  2  0  0  0  0
 17 18  1  0  0  0  0
 19 20  1  0  0  0  0
 20 21  1  0  0  0  0
 20 22  2  0  0  0  0
 22 23  1  0  0  0  0
 24 22  1  0  0  0  0
 24 25  1  0  0  0  0
 26 24  2  0  0  0  0
 27 26  1  0  0  0  0
 28 19  2  0  0  0  0
 28 26  1  0  0  0  0
 29 28  1  0  0  0  0
 30 29  1  0  0  0  0
 30 31  1  0  0  0  0
 32 30  2  0  0  0  0
 33 32  1  0  0  0  0
 34 36  2  0  0  0  0
 34 32  1  0  0  0  0
 35 34  1  0  0  0  0
 36 38  1  0  0  0  0
 37 36  1  0  0  0  0
 38  2  1  0  0  0  0
 38 29  2  0  0  0  0
M  END
