12
 OpenBabel05122313113D

 22 22  0  0  1  0  0  0  0  0999 V2000
   -0.4931    1.7335    0.0917 C   0  0  0  0  0  0  0  0  0  0  0  0
   -1.0169    1.0105    1.2212 C   0  0  1  0  0  3  0  0  0  0  0  0
   -1.3418    2.5562   -0.8330 C   0  0  0  0  0  0  0  0  0  0  0  0
   -1.5624    3.5492   -0.3830 H   0  0  0  0  0  0  0  0  0  0  0  0
   -2.3125    2.0720   -1.0628 H   0  0  0  0  0  0  0  0  0  0  0  0
   -0.8223    2.7420   -1.7931 H   0  0  0  0  0  0  0  0  0  0  0  0
   -2.4357    0.9935    1.7028 C   0  0  0  0  0  0  0  0  0  0  0  0
   -2.6570    1.9370    2.2451 H   0  0  0  0  0  0  0  0  0  0  0  0
   -2.6245    0.1494    2.3933 H   0  0  0  0  0  0  0  0  0  0  0  0
   -3.1478    0.9156    0.8591 H   0  0  0  0  0  0  0  0  0  0  0  0
    1.2436    0.5574    1.1607 N   0  0  0  0  0  0  0  0  0  0  0  0
    0.0322    0.2707    1.8111 C   0  0  0  0  0  3  0  0  0  0  0  0
   -0.0053   -0.3901    2.6841 H   0  0  0  0  0  0  0  0  0  0  0  0
    1.0352    1.5786    0.1019 B   0  0  0  0  0  0  0  0  0  0  0  0
    2.5052   -0.0214    1.6079 C   0  0  0  0  0  0  0  0  0  0  0  0
    2.9489    0.6016    2.4120 H   0  0  0  0  0  0  0  0  0  0  0  0
    3.2099   -0.0616    0.7574 H   0  0  0  0  0  0  0  0  0  0  0  0
    2.3454   -1.0512    1.9802 H   0  0  0  0  0  0  0  0  0  0  0  0
    2.1856    2.2800   -0.7027 C   0  0  0  0  0  0  0  0  0  0  0  0
    2.6066    3.1221   -0.1103 H   0  0  0  0  0  0  0  0  0  0  0  0
    1.8094    2.7069   -1.6534 H   0  0  0  0  0  0  0  0  0  0  0  0
    3.0233    1.5990   -0.9543 H   0  0  0  0  0  0  0  0  0  0  0  0
  1 14  2  0  0  0  0
  1  2  1  0  0  0  0
  2  7  1  6  0  0  0
  2 12  1  0  0  0  0
  3  4  1  0  0  0  0
  3  1  1  0  0  0  0
  5  3  1  0  0  0  0
  6  3  1  0  0  0  0
  7  8  1  0  0  0  0
  7  9  1  0  0  0  0
 10  7  1  0  0  0  0
 11 15  1  0  0  0  0
 11 12  1  0  0  0  0
 12 13  1  0  0  0  0
 14 11  1  0  0  0  0
 15 18  1  0  0  0  0
 15 16  1  0  0  0  0
 17 15  1  0  0  0  0
 19 20  1  0  0  0  0
 19 14  1  0  0  0  0
 21 19  1  0  0  0  0
 22 19  1  0  0  0  0
M  END
