20
 OpenBabel05122313113D

 42 43  0  0  0  0  0  0  0  0999 V2000
    0.2952    1.1575    0.2537 N   0  0  0  0  0  0  0  0  0  0  0  0
    2.7733   -0.7192    0.2956 N   0  0  0  0  0  0  0  0  0  0  0  0
    1.1309    2.3030    0.3489 C   0  0  0  0  0  0  0  0  0  0  0  0
    1.8767    2.5199    1.5328 C   0  0  0  0  0  0  0  0  0  0  0  0
    2.6811    3.6731    1.5982 C   0  0  0  0  0  0  0  0  0  0  0  0
    3.2713    3.8534    2.5101 H   0  0  0  0  0  0  0  0  0  0  0  0
    2.7352    4.5823    0.5335 C   0  0  0  0  0  0  0  0  0  0  0  0
    3.3721    5.4767    0.6042 H   0  0  0  0  0  0  0  0  0  0  0  0
    1.9639    4.3580   -0.6147 C   0  0  0  0  0  0  0  0  0  0  0  0
    1.9885    5.0777   -1.4477 H   0  0  0  0  0  0  0  0  0  0  0  0
    1.1399    3.2236   -0.7265 C   0  0  0  0  0  0  0  0  0  0  0  0
    1.8044    1.5431    2.6722 C   0  0  0  0  0  0  0  0  0  0  0  0
    0.7513    1.3644    2.9727 H   0  0  0  0  0  0  0  0  0  0  0  0
    2.3610    1.9146    3.5530 H   0  0  0  0  0  0  0  0  0  0  0  0
    2.2306    0.5642    2.3679 H   0  0  0  0  0  0  0  0  0  0  0  0
    0.2865    2.9797   -1.9394 C   0  0  0  0  0  0  0  0  0  0  0  0
    0.5815    2.0525   -2.4717 H   0  0  0  0  0  0  0  0  0  0  0  0
    0.3568    3.8192   -2.6562 H   0  0  0  0  0  0  0  0  0  0  0  0
   -0.7764    2.8441   -1.6495 H   0  0  0  0  0  0  0  0  0  0  0  0
    0.5309   -0.0534   -0.1212 C   0  0  0  0  0  3  0  0  0  0  0  0
    1.8216   -0.6159   -0.5676 C   0  0  0  0  0  0  0  0  0  0  0  0
    4.0531   -1.1935   -0.0516 C   0  0  0  0  0  0  0  0  0  0  0  0
    4.4176   -2.5258    0.2725 C   0  0  0  0  0  0  0  0  0  0  0  0
    5.7312   -2.9459   -0.0015 C   0  0  0  0  0  0  0  0  0  0  0  0
    6.0192   -3.9805    0.2436 H   0  0  0  0  0  0  0  0  0  0  0  0
    6.6672   -2.0715   -0.5709 C   0  0  0  0  0  0  0  0  0  0  0  0
    7.6929   -2.4144   -0.7726 H   0  0  0  0  0  0  0  0  0  0  0  0
    6.2919   -0.7557   -0.8752 C   0  0  0  0  0  0  0  0  0  0  0  0
    7.0249   -0.0616   -1.3161 H   0  0  0  0  0  0  0  0  0  0  0  0
    4.9878   -0.2897   -0.6272 C   0  0  0  0  0  0  0  0  0  0  0  0
    3.4003   -3.4516    0.8852 C   0  0  0  0  0  0  0  0  0  0  0  0
    2.5819   -3.6937    0.1728 H   0  0  0  0  0  0  0  0  0  0  0  0
    2.9155   -2.9861    1.7685 H   0  0  0  0  0  0  0  0  0  0  0  0
    3.8621   -4.4068    1.1996 H   0  0  0  0  0  0  0  0  0  0  0  0
    4.5836    1.1275   -0.9430 C   0  0  0  0  0  0  0  0  0  0  0  0
    4.1044    1.6234   -0.0735 H   0  0  0  0  0  0  0  0  0  0  0  0
    3.8398    1.1762   -1.7670 H   0  0  0  0  0  0  0  0  0  0  0  0
    5.4582    1.7306   -1.2523 H   0  0  0  0  0  0  0  0  0  0  0  0
    1.8604   -1.0504   -2.0103 C   0  0  0  0  0  0  0  0  0  0  0  0
    2.8616   -1.4319   -2.2845 H   0  0  0  0  0  0  0  0  0  0  0  0
    1.5863   -0.2064   -2.6766 H   0  0  0  0  0  0  0  0  0  0  0  0
    1.0963   -1.8370   -2.1772 H   0  0  0  0  0  0  0  0  0  0  0  0
  1  3  1  0  0  0  0
  3  4  1  0  0  0  0
  4  5  2  0  0  0  0
  4 12  1  0  0  0  0
  5  6  1  0  0  0  0
  7  8  1  0  0  0  0
  7  5  1  0  0  0  0
  9  7  2  0  0  0  0
 10  9  1  0  0  0  0
 11  9  1  0  0  0  0
 11  3  2  0  0  0  0
 12 13  1  0  0  0  0
 12 14  1  0  0  0  0
 15 12  1  0  0  0  0
 16 19  1  0  0  0  0
 16 11  1  0  0  0  0
 17 16  1  0  0  0  0
 18 16  1  0  0  0  0
 20  1  2  0  0  0  0
 21 20  1  0  0  0  0
 21  2  2  0  0  0  0
 22 23  1  0  0  0  0
 22  2  1  0  0  0  0
 23 31  1  0  0  0  0
 24 25  1  0  0  0  0
 24 23  2  0  0  0  0
 26 24  1  0  0  0  0
 27 26  1  0  0  0  0
 28 30  1  0  0  0  0
 28 26  2  0  0  0  0
 29 28  1  0  0  0  0
 30 22  2  0  0  0  0
 31 34  1  0  0  0  0
 31 33  1  0  0  0  0
 32 31  1  0  0  0  0
 35 30  1  0  0  0  0
 35 36  1  0  0  0  0
 37 35  1  0  0  0  0
 38 35  1  0  0  0  0
 39 21  1  0  0  0  0
 40 39  1  0  0  0  0
 41 39  1  0  0  0  0
 42 39  1  0  0  0  0
M  END
