1
 OpenBabel05122313113D

 37 39  0  0  1  0  0  0  0  0999 V2000
   -0.8293   -0.4064   -0.5362 C   0  0  0  0  0  2  0  0  0  0  0  0
   -1.5639    0.5365   -1.1751 N   0  0  0  0  0  0  0  0  0  0  0  0
   -1.2324    1.0223   -2.5050 C   0  0  0  0  0  0  0  0  0  0  0  0
   -0.1400    1.1906   -2.5636 H   0  0  0  0  0  0  0  0  0  0  0  0
   -1.7623    1.9769   -2.6878 H   0  0  0  0  0  0  0  0  0  0  0  0
   -1.5052    0.2700   -3.2759 H   0  0  0  0  0  0  0  0  0  0  0  0
   -2.9682    0.4988   -0.7410 C   0  0  1  0  0  0  0  0  0  0  0  0
   -3.5519   -0.0659   -1.5041 H   0  0  0  0  0  0  0  0  0  0  0  0
   -2.8966   -0.3656    0.5631 C   0  0  2  0  0  0  0  0  0  0  0  0
   -2.9740    0.2906    1.4598 H   0  0  0  0  0  0  0  0  0  0  0  0
   -1.5343   -0.9133    0.4855 N   0  0  0  0  0  0  0  0  0  0  0  0
   -1.0347   -1.8236    1.4903 C   0  0  0  0  0  0  0  0  0  0  0  0
    0.0037   -2.0952    1.2256 H   0  0  0  0  0  0  0  0  0  0  0  0
   -1.6515   -2.7444    1.5234 H   0  0  0  0  0  0  0  0  0  0  0  0
   -1.0445   -1.3416    2.4916 H   0  0  0  0  0  0  0  0  0  0  0  0
   -3.6221    1.8456   -0.5260 C   0  0  0  0  0  0  0  0  0  0  0  0
   -2.8711    2.9959   -0.2198 C   0  0  0  0  0  0  0  0  0  0  0  0
   -1.7735    2.9312   -0.2018 H   0  0  0  0  0  0  0  0  0  0  0  0
   -3.5120    4.2161    0.0437 C   0  0  0  0  0  0  0  0  0  0  0  0
   -2.9116    5.1102    0.2709 H   0  0  0  0  0  0  0  0  0  0  0  0
   -4.9132    4.2975    0.0132 C   0  0  0  0  0  0  0  0  0  0  0  0
   -5.4162    5.2540    0.2204 H   0  0  0  0  0  0  0  0  0  0  0  0
   -5.6691    3.1548   -0.2941 C   0  0  0  0  0  0  0  0  0  0  0  0
   -6.7676    3.2127   -0.3286 H   0  0  0  0  0  0  0  0  0  0  0  0
   -5.0271    1.9383   -0.5686 C   0  0  0  0  0  0  0  0  0  0  0  0
   -5.6208    1.0440   -0.8159 H   0  0  0  0  0  0  0  0  0  0  0  0
   -3.9629   -1.4375    0.6197 C   0  0  0  0  0  0  0  0  0  0  0  0
   -5.0452   -1.3253    1.5096 C   0  0  0  0  0  0  0  0  0  0  0  0
   -5.0946   -0.4658    2.1971 H   0  0  0  0  0  0  0  0  0  0  0  0
   -6.0578   -2.2983    1.5203 C   0  0  0  0  0  0  0  0  0  0  0  0
   -6.9035   -2.2020    2.2181 H   0  0  0  0  0  0  0  0  0  0  0  0
   -5.9859   -3.3937    0.6464 C   0  0  0  0  0  0  0  0  0  0  0  0
   -6.7757   -4.1602    0.6577 H   0  0  0  0  0  0  0  0  0  0  0  0
   -4.9021   -3.5122   -0.2411 C   0  0  0  0  0  0  0  0  0  0  0  0
   -4.8399   -4.3721   -0.9250 H   0  0  0  0  0  0  0  0  0  0  0  0
   -3.8949   -2.5377   -0.2618 C   0  0  0  0  0  0  0  0  0  0  0  0
   -3.0431   -2.6285   -0.9596 H   0  0  0  0  0  0  0  0  0  0  0  0
  1 11  1  0  0  0  0
  2  7  1  0  0  0  0
  2  1  1  0  0  0  0
  3  2  1  0  0  0  0
  4  3  1  0  0  0  0
  5  3  1  0  0  0  0
  6  3  1  0  0  0  0
  7  8  1  6  0  0  0
  7 16  1  0  0  0  0
  7  9  1  0  0  0  0
  9 27  1  0  0  0  0
  9 10  1  1  0  0  0
 11  9  1  0  0  0  0
 11 12  1  0  0  0  0
 12 14  1  0  0  0  0
 12 15  1  0  0  0  0
 13 12  1  0  0  0  0
 16 17  1  0  0  0  0
 17 18  1  0  0  0  0
 17 19  2  0  0  0  0
 19 20  1  0  0  0  0
 21 19  1  0  0  0  0
 21 22  1  0  0  0  0
 23 21  2  0  0  0  0
 24 23  1  0  0  0  0
 25 16  2  0  0  0  0
 25 23  1  0  0  0  0
 26 25  1  0  0  0  0
 27 28  1  0  0  0  0
 28 30  2  0  0  0  0
 28 29  1  0  0  0  0
 30 31  1  0  0  0  0
 32 33  1  0  0  0  0
 32 30  1  0  0  0  0
 34 32  2  0  0  0  0
 35 34  1  0  0  0  0
 36 34  1  0  0  0  0
 36 27  2  0  0  0  0
 37 36  1  0  0  0  0
M  END
