2
 OpenBabel05122313113D

 18 18  0  0  0  0  0  0  0  0999 V2000
    2.2369    1.4736    0.0924 N   0  0  0  0  0  0  0  0  0  0  0  0
    1.5281    0.2570   -0.0258 C   0  0  0  0  0  2  0  0  0  0  0  0
    3.7702   -0.0653    0.1387 N   0  0  0  0  0  0  0  0  0  0  0  0
    3.5563    1.2460    0.1755 C   0  0  0  0  0  3  0  0  0  0  0  0
    4.3453    2.0035    0.2527 H   0  0  0  0  0  0  0  0  0  0  0  0
    2.5361   -0.6793    0.0165 N   0  0  0  0  0  0  0  0  0  0  0  0
    1.6223    2.8009    0.1564 C   0  0  0  0  0  0  0  0  0  0  0  0
    2.4084    3.5643    0.0203 H   0  0  0  0  0  0  0  0  0  0  0  0
    1.1320    2.9278    1.1389 H   0  0  0  0  0  0  0  0  0  0  0  0
    0.8611    2.8507   -0.6533 H   0  0  0  0  0  0  0  0  0  0  0  0
    5.0351   -0.7849    0.1399 C   0  0  0  0  0  0  0  0  0  0  0  0
    5.1853   -1.2978   -0.8301 H   0  0  0  0  0  0  0  0  0  0  0  0
    5.0553   -1.5216    0.9649 H   0  0  0  0  0  0  0  0  0  0  0  0
    5.8434   -0.0474    0.2908 H   0  0  0  0  0  0  0  0  0  0  0  0
    2.4215   -2.1286    0.0763 C   0  0  0  0  0  0  0  0  0  0  0  0
    1.4277   -2.3721   -0.3585 H   0  0  0  0  0  0  0  0  0  0  0  0
    2.5219   -2.4820    1.1224 H   0  0  0  0  0  0  0  0  0  0  0  0
    3.1874   -2.5955   -0.5687 H   0  0  0  0  0  0  0  0  0  0  0  0
  1  7  1  0  0  0  0
  1  4  1  0  0  0  0
  2  6  1  0  0  0  0
  2  1  1  0  0  0  0
  3 11  1  0  0  0  0
  3  4  1  0  0  0  0
  4  5  1  0  0  0  0
  6 15  1  0  0  0  0
  6  3  1  0  0  0  0
  7  9  1  0  0  0  0
  8  7  1  0  0  0  0
 10  7  1  0  0  0  0
 11 14  1  0  0  0  0
 11 13  1  0  0  0  0
 12 11  1  0  0  0  0
 15 17  1  0  0  0  0
 16 15  1  0  0  0  0
 18 15  1  0  0  0  0
M  END
