8
 OpenBabel05122313113D

 43 43  0  0  0  0  0  0  0  0999 V2000
   -1.9222    0.4499   -0.0105 P   0  0  0  0  0  0  0  0  0  0  0  0
   -1.5359    2.2314   -0.2204 C   0  0  0  0  0  0  0  0  0  0  0  0
   -0.5681    2.3398   -1.3705 C   0  0  0  0  0  0  0  0  0  0  0  0
   -1.1068    2.1741   -2.3298 H   0  0  0  0  0  0  0  0  0  0  0  0
   -0.1408    3.3648   -1.4250 H   0  0  0  0  0  0  0  0  0  0  0  0
    0.5504    1.3021   -1.2315 C   0  0  0  0  0  3  0  0  0  0  0  0
    1.0243    1.0555   -2.1984 H   0  0  0  0  0  0  0  0  0  0  0  0
    1.3837    1.3215   -0.0575 C   0  0  0  0  0  3  0  0  0  0  0  0
    1.0323    1.9476    0.7815 H   0  0  0  0  0  0  0  0  0  0  0  0
    2.8513    1.0911   -0.0449 C   0  0  0  0  0  0  0  0  0  0  0  0
    3.6262    0.9740   -1.2208 C   0  0  0  0  0  0  0  0  0  0  0  0
    3.1447    1.0932   -2.2037 H   0  0  0  0  0  0  0  0  0  0  0  0
    5.0055    0.7228   -1.1567 C   0  0  0  0  0  0  0  0  0  0  0  0
    5.5872    0.6367   -2.0879 H   0  0  0  0  0  0  0  0  0  0  0  0
    5.6461    0.5942    0.0855 C   0  0  0  0  0  0  0  0  0  0  0  0
    6.7282    0.3991    0.1358 H   0  0  0  0  0  0  0  0  0  0  0  0
    4.8909    0.7275    1.2647 C   0  0  0  0  0  0  0  0  0  0  0  0
    5.3824    0.6338    2.2457 H   0  0  0  0  0  0  0  0  0  0  0  0
    3.5150    0.9765    1.2010 C   0  0  0  0  0  0  0  0  0  0  0  0
    2.9137    1.0474    2.1204 H   0  0  0  0  0  0  0  0  0  0  0  0
   -1.8441    3.2232    0.6374 C   0  0  0  0  0  0  0  0  0  0  0  0
   -2.5054    3.0742    1.5037 H   0  0  0  0  0  0  0  0  0  0  0  0
   -1.4153    4.2311    0.5063 H   0  0  0  0  0  0  0  0  0  0  0  0
   -2.9375    0.0620   -1.5591 C   0  0  0  0  0  0  0  0  0  0  0  0
   -2.1293    0.0351   -2.3220 H   0  0  0  0  0  0  0  0  0  0  0  0
   -3.9455    1.1427   -1.9693 C   0  0  0  0  0  0  0  0  0  0  0  0
   -4.3172    0.9354   -2.9949 H   0  0  0  0  0  0  0  0  0  0  0  0
   -3.5002    2.1568   -1.9683 H   0  0  0  0  0  0  0  0  0  0  0  0
   -4.8257    1.1640   -1.2993 H   0  0  0  0  0  0  0  0  0  0  0  0
   -3.5817   -1.3277   -1.5078 C   0  0  0  0  0  0  0  0  0  0  0  0
   -4.4387   -1.3530   -0.8055 H   0  0  0  0  0  0  0  0  0  0  0  0
   -2.8665   -2.1120   -1.1968 H   0  0  0  0  0  0  0  0  0  0  0  0
   -3.9724   -1.6028   -2.5098 H   0  0  0  0  0  0  0  0  0  0  0  0
   -2.9990    0.2679    1.5079 C   0  0  0  0  0  0  0  0  0  0  0  0
   -2.3909    0.8327    2.2480 H   0  0  0  0  0  0  0  0  0  0  0  0
   -4.3963    0.8895    1.3970 C   0  0  0  0  0  0  0  0  0  0  0  0
   -5.0631    0.2842    0.7505 H   0  0  0  0  0  0  0  0  0  0  0  0
   -4.3824    1.9218    0.9979 H   0  0  0  0  0  0  0  0  0  0  0  0
   -4.8657    0.9224    2.4026 H   0  0  0  0  0  0  0  0  0  0  0  0
   -3.0477   -1.1861    1.9959 C   0  0  0  0  0  0  0  0  0  0  0  0
   -3.5905   -1.2313    2.9630 H   0  0  0  0  0  0  0  0  0  0  0  0
   -2.0233   -1.5696    2.1625 H   0  0  0  0  0  0  0  0  0  0  0  0
   -3.5795   -1.8504    1.2861 H   0  0  0  0  0  0  0  0  0  0  0  0
  1 34  1  0  0  0  0
  2  1  1  0  0  0  0
  2 21  2  0  0  0  0
  3  6  1  0  0  0  0
  3  2  1  0  0  0  0
  4  3  1  0  0  0  0
  5  3  1  0  0  0  0
  6  8  1  0  0  0  0
  7  6  1  0  0  0  0
  8 10  1  0  0  0  0
  8  9  1  0  0  0  0
 10 19  1  0  0  0  0
 11 13  1  0  0  0  0
 11 10  2  0  0  0  0
 12 11  1  0  0  0  0
 13 15  2  0  0  0  0
 14 13  1  0  0  0  0
 15 16  1  0  0  0  0
 15 17  1  0  0  0  0
 17 18  1  0  0  0  0
 19 17  2  0  0  0  0
 19 20  1  0  0  0  0
 21 22  1  0  0  0  0
 23 21  1  0  0  0  0
 24 30  1  0  0  0  0
 24  1  1  0  0  0  0
 25 24  1  0  0  0  0
 26 28  1  0  0  0  0
 26 24  1  0  0  0  0
 26 29  1  0  0  0  0
 27 26  1  0  0  0  0
 30 32  1  0  0  0  0
 30 31  1  0  0  0  0
 33 30  1  0  0  0  0
 34 40  1  0  0  0  0
 34 35  1  0  0  0  0
 36 34  1  0  0  0  0
 36 39  1  0  0  0  0
 37 36  1  0  0  0  0
 38 36  1  0  0  0  0
 40 42  1  0  0  0  0
 40 41  1  0  0  0  0
 43 40  1  0  0  0  0
M  END
