12
 OpenBabel05122313113D

 26 27  0  0  1  0  0  0  0  0999 V2000
   -2.6740   -0.1774    0.3855 N   0  0  0  0  0  0  0  0  0  0  0  0
   -4.7983   -0.2001   -0.1394 N   0  0  0  0  0  0  0  0  0  0  0  0
   -0.2587    0.3599    0.1648 C   0  0  2  0  0  3  0  0  0  0  0  0
    0.0874    0.4431   -1.2304 C   0  0  0  0  0  0  0  0  0  0  0  0
   -0.4121   -0.2137   -1.9582 H   0  0  0  0  0  0  0  0  0  0  0  0
    1.1130    1.3145   -1.6685 C   0  0  0  0  0  0  0  0  0  0  0  0
    1.4065    1.3281   -2.7267 H   0  0  0  0  0  0  0  0  0  0  0  0
    1.8273    2.1046   -0.7135 C   0  0  0  0  0  0  0  0  0  0  0  0
    2.6691    2.7286   -1.0450 H   0  0  0  0  0  0  0  0  0  0  0  0
    1.4828    2.0618    0.6592 C   0  0  0  0  0  0  0  0  0  0  0  0
    2.0556    2.6429    1.3941 H   0  0  0  0  0  0  0  0  0  0  0  0
    0.4556    1.1707    1.0991 C   0  0  0  0  0  3  0  0  0  0  0  0
    0.2425    1.0773    2.1748 H   0  0  0  0  0  0  0  0  0  0  0  0
   -1.2801   -0.6366    0.6370 C   0  0  0  0  0  0  0  0  0  0  0  0
   -1.1697   -1.6070    0.1157 H   0  0  0  0  0  0  0  0  0  0  0  0
   -1.1739   -0.8211    1.7246 H   0  0  0  0  0  0  0  0  0  0  0  0
   -3.6814   -0.9509   -0.0610 C   0  0  0  0  0  3  0  0  0  0  0  0
   -3.6057   -2.0141   -0.3150 H   0  0  0  0  0  0  0  0  0  0  0  0
   -4.4921    1.0885    0.2666 C   0  0  0  0  0  0  0  0  0  0  0  0
   -5.2414    1.8865    0.2847 H   0  0  0  0  0  0  0  0  0  0  0  0
   -3.1555    1.1024    0.5952 C   0  0  0  0  0  0  0  0  0  0  0  0
   -2.5091    1.9134    0.9448 H   0  0  0  0  0  0  0  0  0  0  0  0
   -6.1131   -0.6627   -0.5884 C   0  0  0  0  0  0  0  0  0  0  0  0
   -6.4251   -0.0912   -1.4829 H   0  0  0  0  0  0  0  0  0  0  0  0
   -6.8543   -0.5205    0.2205 H   0  0  0  0  0  0  0  0  0  0  0  0
   -6.0546   -1.7353   -0.8434 H   0  0  0  0  0  0  0  0  0  0  0  0
  1 21  1  0  0  0  0
  1 14  1  0  0  0  0
  2 17  1  0  0  0  0
  2 19  1  0  0  0  0
  3 14  1  1  0  0  0
  3 12  1  0  0  0  0
  4  3  1  0  0  0  0
  5  4  1  0  0  0  0
  6  4  2  0  0  0  0
  6  8  1  0  0  0  0
  7  6  1  0  0  0  0
  8 10  2  0  0  0  0
  9  8  1  0  0  0  0
 10 12  1  0  0  0  0
 10 11  1  0  0  0  0
 12 13  1  0  0  0  0
 14 16  1  0  0  0  0
 15 14  1  0  0  0  0
 17  1  1  0  0  0  0
 18 17  1  0  0  0  0
 19 20  1  0  0  0  0
 19 21  2  0  0  0  0
 21 22  1  0  0  0  0
 23  2  1  0  0  0  0
 23 25  1  0  0  0  0
 24 23  1  0  0  0  0
 26 23  1  0  0  0  0
M  END
