3
 OpenBabel05122313113D

 26 26  0  0  0  0  0  0  0  0999 V2000
    1.9818    0.3284    1.6087 N   0  0  0  0  0  0  0  0  0  0  0  0
    2.2065   -0.3040   -0.5858 N   0  0  0  0  0  0  0  0  0  0  0  0
    1.3862    0.0134    0.4506 C   0  0  0  0  0  2  0  0  0  0  0  0
    1.2968    0.6630    2.8456 C   0  0  0  0  0  0  0  0  0  0  0  0
    3.6416   -0.2121   -0.5673 C   0  0  0  0  0  0  0  0  0  0  0  0
    4.2543    0.9041   -1.1894 C   0  0  0  0  0  0  0  0  0  0  0  0
    5.6588    0.9888   -1.1496 C   0  0  0  0  0  0  0  0  0  0  0  0
    6.4211    0.0038   -0.5078 C   0  0  0  0  0  0  0  0  0  0  0  0
    5.7941   -1.0960    0.0930 C   0  0  0  0  0  0  0  0  0  0  0  0
    4.3931   -1.2333    0.0670 C   0  0  0  0  0  0  0  0  0  0  0  0
    3.4239    1.9515   -1.8844 C   0  0  0  0  0  0  0  0  0  0  0  0
    3.7216   -2.4482    0.6569 C   0  0  0  0  0  0  0  0  0  0  0  0
    3.0108    0.3670    1.6150 H   0  0  0  0  0  0  0  0  0  0  0  0
    1.7406   -0.3775   -1.4935 H   0  0  0  0  0  0  0  0  0  0  0  0
    1.5837   -0.0369    3.6564 H   0  0  0  0  0  0  0  0  0  0  0  0
    1.5396    1.6969    3.1646 H   0  0  0  0  0  0  0  0  0  0  0  0
    0.2061    0.5926    2.6734 H   0  0  0  0  0  0  0  0  0  0  0  0
    6.1563    1.8466   -1.6270 H   0  0  0  0  0  0  0  0  0  0  0  0
    7.5174    0.0906   -0.4809 H   0  0  0  0  0  0  0  0  0  0  0  0
    6.3988   -1.8758    0.5806 H   0  0  0  0  0  0  0  0  0  0  0  0
    2.5932    2.3182   -1.2478 H   0  0  0  0  0  0  0  0  0  0  0  0
    4.0428    2.8188   -2.1798 H   0  0  0  0  0  0  0  0  0  0  0  0
    2.9561    1.5522   -2.8103 H   0  0  0  0  0  0  0  0  0  0  0  0
    2.9949   -2.1848    1.4536 H   0  0  0  0  0  0  0  0  0  0  0  0
    3.1625   -3.0069   -0.1229 H   0  0  0  0  0  0  0  0  0  0  0  0
    4.4660   -3.1378    1.0959 H   0  0  0  0  0  0  0  0  0  0  0  0
  1 13  1  0  0  0  0
  1  4  1  0  0  0  0
  2  5  1  0  0  0  0
  2  3  1  0  0  0  0
  3  1  1  0  0  0  0
  4 16  1  0  0  0  0
  4 15  1  0  0  0  0
  5 10  1  0  0  0  0
  6  7  1  0  0  0  0
  6  5  2  0  0  0  0
  7  8  2  0  0  0  0
  8 19  1  0  0  0  0
  8  9  1  0  0  0  0
  9 20  1  0  0  0  0
 10  9  2  0  0  0  0
 10 12  1  0  0  0  0
 11 21  1  0  0  0  0
 11  6  1  0  0  0  0
 12 26  1  0  0  0  0
 12 24  1  0  0  0  0
 14  2  1  0  0  0  0
 17  4  1  0  0  0  0
 18  7  1  0  0  0  0
 22 11  1  0  0  0  0
 23 11  1  0  0  0  0
 25 12  1  0  0  0  0
M  END
