1
 OpenBabel05122313113D

 32 32  0  0  1  0  0  0  0  0999 V2000
   -1.8475    1.9515   -0.7519 C   0  0  0  0  0  3  0  0  0  0  0  0
   -0.6387    2.5444   -0.2175 C   0  0  1  0  0  3  0  0  0  0  0  0
   -0.3256    2.1684    1.1253 C   0  0  1  0  0  3  0  0  0  0  0  0
    1.1253    2.0000    1.5409 C   0  0  0  0  0  0  0  0  0  0  0  0
    1.3028    0.4773    1.3272 C   0  0  2  0  0  3  0  0  0  0  0  0
    0.2435    3.3824   -1.1084 C   0  0  0  0  0  0  0  0  0  0  0  0
   -1.3716    2.2015    2.2235 C   0  0  0  0  0  0  0  0  0  0  0  0
    1.0764   -0.2201    2.6696 C   0  0  0  0  0  0  0  0  0  0  0  0
    2.5903    0.0567    0.6633 C   0  0  0  0  0  0  0  0  0  0  0  0
    3.2887   -1.1120    1.0631 C   0  0  0  0  0  0  0  0  0  0  0  0
    4.4832   -1.5141    0.4428 C   0  0  0  0  0  0  0  0  0  0  0  0
    5.0410   -0.7518   -0.5913 C   0  0  0  0  0  0  0  0  0  0  0  0
    4.3836    0.4252   -0.9881 C   0  0  0  0  0  0  0  0  0  0  0  0
    3.1898    0.8166   -0.3745 C   0  0  0  0  0  0  0  0  0  0  0  0
   -2.0659    2.1446   -1.8160 H   0  0  0  0  0  0  0  0  0  0  0  0
   -2.7522    1.9337   -0.1219 H   0  0  0  0  0  0  0  0  0  0  0  0
    1.8092    2.5902    0.9049 H   0  0  0  0  0  0  0  0  0  0  0  0
    1.3226    2.3077    2.5926 H   0  0  0  0  0  0  0  0  0  0  0  0
    1.2839    3.4620   -0.7441 H   0  0  0  0  0  0  0  0  0  0  0  0
    0.2714    3.0078   -2.1498 H   0  0  0  0  0  0  0  0  0  0  0  0
   -0.1761    4.4116   -1.1334 H   0  0  0  0  0  0  0  0  0  0  0  0
   -2.4058    2.2294    1.8330 H   0  0  0  0  0  0  0  0  0  0  0  0
   -1.2946    1.3572    2.9356 H   0  0  0  0  0  0  0  0  0  0  0  0
   -1.2175    3.1276    2.8242 H   0  0  0  0  0  0  0  0  0  0  0  0
    0.1371    0.1091    3.1482 H   0  0  0  0  0  0  0  0  0  0  0  0
    1.0319   -1.3199    2.5996 H   0  0  0  0  0  0  0  0  0  0  0  0
    1.9029    0.0329    3.3742 H   0  0  0  0  0  0  0  0  0  0  0  0
    2.9083   -1.7187    1.8952 H   0  0  0  0  0  0  0  0  0  0  0  0
    4.9867   -2.4312    0.7876 H   0  0  0  0  0  0  0  0  0  0  0  0
    5.9766   -1.0641   -1.0790 H   0  0  0  0  0  0  0  0  0  0  0  0
    4.8006    1.0452   -1.7966 H   0  0  0  0  0  0  0  0  0  0  0  0
    2.6932    1.7261   -0.7381 H   0  0  0  0  0  0  0  0  0  0  0  0
  1 16  1  0  0  0  0
  2  1  1  6  0  0  0
  2  3  1  0  0  0  0
  3  4  1  1  0  0  0
  3  7  1  0  0  0  0
  4 18  1  0  0  0  0
  5  4  1  1  0  0  0
  5  8  1  0  0  0  0
  6 19  1  0  0  0  0
  6  2  1  0  0  0  0
  7 24  1  0  0  0  0
  7 23  1  0  0  0  0
  8 25  1  0  0  0  0
  8 27  1  0  0  0  0
  9 10  1  0  0  0  0
  9  5  1  0  0  0  0
 10 28  1  0  0  0  0
 11 29  1  0  0  0  0
 11 10  2  0  0  0  0
 12 11  1  0  0  0  0
 13 12  2  0  0  0  0
 13 14  1  0  0  0  0
 14  9  2  0  0  0  0
 15  1  1  0  0  0  0
 17  4  1  0  0  0  0
 20  6  1  0  0  0  0
 21  6  1  0  0  0  0
 22  7  1  0  0  0  0
 26  8  1  0  0  0  0
 30 12  1  0  0  0  0
 31 13  1  0  0  0  0
 32 14  1  0  0  0  0
M  END
