4
 OpenBabel05122313113D

 21 20  0  0  0  0  0  0  0  0999 V2000
    2.2805   -0.4875   -2.0467 N   0  0  0  0  0  0  0  0  0  0  0  0
    3.5831   -0.7883   -2.4542 N   0  0  0  0  0  0  0  0  0  0  0  0
    2.8667   -1.0145    0.0846 N   0  0  0  0  0  0  0  0  0  0  0  0
    1.9154   -0.5693   -0.7345 C   0  0  0  0  0  2  0  0  0  0  0  0
    2.8658   -1.1375    1.5681 C   0  0  0  0  0  0  0  0  0  0  0  0
    2.7780    0.2584    2.2076 C   0  0  0  0  0  0  0  0  0  0  0  0
    1.6988   -2.0184    2.0373 C   0  0  0  0  0  0  0  0  0  0  0  0
    4.2027   -1.8049    1.9267 C   0  0  0  0  0  0  0  0  0  0  0  0
    1.5971   -0.0941   -2.7005 H   0  0  0  0  0  0  0  0  0  0  0  0
    3.5829   -1.5342   -3.1625 H   0  0  0  0  0  0  0  0  0  0  0  0
    4.0439    0.0410   -2.8536 H   0  0  0  0  0  0  0  0  0  0  0  0
    3.7619   -1.1972   -0.4008 H   0  0  0  0  0  0  0  0  0  0  0  0
    2.8329    0.1758    3.3107 H   0  0  0  0  0  0  0  0  0  0  0  0
    3.6122    0.9038    1.8674 H   0  0  0  0  0  0  0  0  0  0  0  0
    1.8241    0.7546    1.9416 H   0  0  0  0  0  0  0  0  0  0  0  0
    1.7457   -2.1498    3.1356 H   0  0  0  0  0  0  0  0  0  0  0  0
    0.7259   -1.5458    1.7913 H   0  0  0  0  0  0  0  0  0  0  0  0
    1.7408   -3.0213    1.5671 H   0  0  0  0  0  0  0  0  0  0  0  0
    4.2862   -2.8105    1.4664 H   0  0  0  0  0  0  0  0  0  0  0  0
    5.0613   -1.1882    1.5900 H   0  0  0  0  0  0  0  0  0  0  0  0
    4.2862   -1.9241    3.0233 H   0  0  0  0  0  0  0  0  0  0  0  0
  1  4  1  0  0  0  0
  2  1  1  0  0  0  0
  3  5  1  0  0  0  0
  4  3  1  0  0  0  0
  5  8  1  0  0  0  0
  5  7  1  0  0  0  0
  5  6  1  0  0  0  0
  6 13  1  0  0  0  0
  7 16  1  0  0  0  0
  8 21  1  0  0  0  0
  9  1  1  0  0  0  0
 10  2  1  0  0  0  0
 11  2  1  0  0  0  0
 12  3  1  0  0  0  0
 14  6  1  0  0  0  0
 15  6  1  0  0  0  0
 17  7  1  0  0  0  0
 18  7  1  0  0  0  0
 19  8  1  0  0  0  0
 20  8  1  0  0  0  0
M  END
