7
 OpenBabel05122313113D

 38 39  0  0  0  0  0  0  0  0999 V2000
   -2.2886    3.6398   -0.1847 O   0  0  0  0  0  0  0  0  0  0  0  0
   -1.9843   -3.4385    0.2799 O   0  0  0  0  0  0  0  0  0  0  0  0
   -0.1469    2.9158   -0.1118 O   0  0  0  0  0  0  0  0  0  0  0  0
    0.0900   -2.5356    0.1301 O   0  0  0  0  0  0  0  0  0  0  0  0
    0.3649    0.2052    0.0258 N   0  0  0  0  0  2  0  0  0  0  0  0
   -7.6398   -0.1382    0.0530 N   0  0  0  0  0  4  0  0  0  0  0  0
    1.5540    0.1255    0.0380 C   0  0  0  0  0  1  0  0  0  0  0  0
   -8.8310   -0.1898    0.0577 C   0  0  0  0  0  3  0  0  0  0  0  0
   -0.9852    0.1502    0.0263 C   0  0  0  0  0  0  0  0  0  0  0  0
   -1.8544    1.2862   -0.0399 C   0  0  0  0  0  0  0  0  0  0  0  0
   -3.1930    0.7910   -0.0102 C   0  0  0  0  0  0  0  0  0  0  0  0
   -4.3505    1.5916   -0.0586 C   0  0  0  0  0  0  0  0  0  0  0  0
   -4.1428    2.6710   -0.1260 H   0  0  0  0  0  0  0  0  0  0  0  0
   -5.6960    1.2175   -0.0341 C   0  0  0  0  0  0  0  0  0  0  0  0
   -6.4303    2.0357   -0.0841 H   0  0  0  0  0  0  0  0  0  0  0  0
   -6.2571   -0.0784    0.0474 C   0  0  0  0  0  0  0  0  0  0  0  0
   -5.5859   -1.3215    0.1239 C   0  0  0  0  0  0  0  0  0  0  0  0
   -6.2469   -2.1996    0.1800 H   0  0  0  0  0  0  0  0  0  0  0  0
   -4.2134   -1.5791    0.1379 C   0  0  0  0  0  0  0  0  0  0  0  0
   -3.9141   -2.6366    0.2065 H   0  0  0  0  0  0  0  0  0  0  0  0
   -3.1287   -0.6823    0.0799 C   0  0  0  0  0  0  0  0  0  0  0  0
   -1.7523   -1.0601    0.0989 C   0  0  0  0  0  0  0  0  0  0  0  0
   -1.4852    2.7149   -0.1196 C   0  0  0  0  0  0  0  0  0  0  0  0
   -1.2617   -2.4523    0.1792 C   0  0  0  0  0  0  0  0  0  0  0  0
    0.2635    4.3024   -0.1827 C   0  0  0  0  0  0  0  0  0  0  0  0
   -0.1971    4.8494    0.6668 H   0  0  0  0  0  0  0  0  0  0  0  0
   -0.1570    4.7472   -1.1092 H   0  0  0  0  0  0  0  0  0  0  0  0
    0.6481   -3.8723    0.1898 C   0  0  0  0  0  0  0  0  0  0  0  0
    0.0693   -4.4622    0.9283 H   0  0  0  0  0  0  0  0  0  0  0  0
    1.6756   -3.7221    0.5713 H   0  0  0  0  0  0  0  0  0  0  0  0
    1.7749    4.3598   -0.1518 C   0  0  0  0  0  0  0  0  0  0  0  0
    2.1049    5.4163   -0.2015 H   0  0  0  0  0  0  0  0  0  0  0  0
    2.2168    3.8237   -1.0136 H   0  0  0  0  0  0  0  0  0  0  0  0
    2.1761    3.9204    0.7817 H   0  0  0  0  0  0  0  0  0  0  0  0
    0.6440   -4.5460   -1.1720 C   0  0  0  0  0  0  0  0  0  0  0  0
    1.1394   -5.5352   -1.0982 H   0  0  0  0  0  0  0  0  0  0  0  0
    1.1963   -3.9408   -1.9166 H   0  0  0  0  0  0  0  0  0  0  0  0
   -0.3922   -4.7076   -1.5261 H   0  0  0  0  0  0  0  0  0  0  0  0
  1 23  2  0  0  0  0
  4 24  1  0  0  0  0
  4 28  1  0  0  0  0
  5  9  1  0  0  0  0
  5  7  1  0  0  0  0
  6  8  3  0  0  0  0
  9 22  1  0  0  0  0
 10 11  1  0  0  0  0
 10  9  2  0  0  0  0
 11 21  1  0  0  0  0
 12 14  1  0  0  0  0
 12 11  2  0  0  0  0
 13 12  1  0  0  0  0
 14 16  2  0  0  0  0
 15 14  1  0  0  0  0
 16  6  1  0  0  0  0
 16 17  1  0  0  0  0
 17 19  2  0  0  0  0
 17 18  1  0  0  0  0
 19 20  1  0  0  0  0
 21 22  2  0  0  0  0
 21 19  1  0  0  0  0
 22 24  1  0  0  0  0
 23  3  1  0  0  0  0
 23 10  1  0  0  0  0
 24  2  2  0  0  0  0
 25 31  1  0  0  0  0
 25  3  1  0  0  0  0
 25 26  1  0  0  0  0
 27 25  1  0  0  0  0
 28 30  1  0  0  0  0
 28 29  1  0  0  0  0
 31 34  1  0  0  0  0
 32 31  1  0  0  0  0
 33 31  1  0  0  0  0
 35 36  1  0  0  0  0
 35 28  1  0  0  0  0
 37 35  1  0  0  0  0
 38 35  1  0  0  0  0
M  END
