1
 OpenBabel05122313113D

 43 45  0  0  0  0  0  0  0  0999 V2000
    2.1224    0.0048   -0.0347 C   0  0  0  0  0  3  0  0  0  0  0  0
    2.4147    1.3438   -0.5333 N   0  0  0  0  0  0  0  0  0  0  0  0
    1.4068    2.2567   -0.5872 N   0  0  0  0  0  0  0  0  0  0  0  0
    2.6532   -0.1517    1.3237 N   0  0  0  0  0  0  0  0  0  0  0  0
    3.4581    0.8022    1.8494 N   0  0  0  0  0  0  0  0  0  0  0  0
    2.7707   -0.9757   -0.9276 N   0  0  0  0  0  0  0  0  0  0  0  0
    3.7135   -1.8298   -0.4692 N   0  0  0  0  0  0  0  0  0  0  0  0
    4.9013    1.1127   -1.0246 C   0  0  0  0  0  0  0  0  0  0  0  0
    5.1000    0.6041   -0.0621 H   0  0  0  0  0  0  0  0  0  0  0  0
    5.7274    1.8171   -1.2362 H   0  0  0  0  0  0  0  0  0  0  0  0
    4.8953    0.3381   -1.8197 H   0  0  0  0  0  0  0  0  0  0  0  0
    3.6153    1.8668   -0.9672 C   0  0  0  0  0  0  0  0  0  0  0  0
    3.3396    3.1860   -1.3218 C   0  0  0  0  0  0  0  0  0  0  0  0
    4.0597    3.9114   -1.7172 H   0  0  0  0  0  0  0  0  0  0  0  0
    1.9554    3.3821   -1.0618 C   0  0  0  0  0  0  0  0  0  0  0  0
    1.1360    4.6240   -1.2393 C   0  0  0  0  0  0  0  0  0  0  0  0
    0.0665    4.3716   -1.3769 H   0  0  0  0  0  0  0  0  0  0  0  0
    1.4718    5.2036   -2.1216 H   0  0  0  0  0  0  0  0  0  0  0  0
    1.2158    5.2935   -0.3561 H   0  0  0  0  0  0  0  0  0  0  0  0
    1.6110   -2.3990    1.8864 C   0  0  0  0  0  0  0  0  0  0  0  0
    0.6095   -2.1414    1.4719 H   0  0  0  0  0  0  0  0  0  0  0  0
    1.4672   -3.0097    2.7972 H   0  0  0  0  0  0  0  0  0  0  0  0
    2.1323   -3.0102    1.1211 H   0  0  0  0  0  0  0  0  0  0  0  0
    2.4066   -1.1811    2.2090 C   0  0  0  0  0  0  0  0  0  0  0  0
    3.0968   -0.8443    3.3723 C   0  0  0  0  0  0  0  0  0  0  0  0
    3.1361   -1.4370    4.2933 H   0  0  0  0  0  0  0  0  0  0  0  0
    3.7337    0.3969    3.0966 C   0  0  0  0  0  0  0  0  0  0  0  0
    4.6068    1.2271    3.9865 C   0  0  0  0  0  0  0  0  0  0  0  0
    4.9164    2.1450    3.4519 H   0  0  0  0  0  0  0  0  0  0  0  0
    5.5208    0.6764    4.2928 H   0  0  0  0  0  0  0  0  0  0  0  0
    4.0791    1.5260    4.9163 H   0  0  0  0  0  0  0  0  0  0  0  0
    1.5500   -0.3025   -3.0470 C   0  0  0  0  0  0  0  0  0  0  0  0
    0.5406   -0.3307   -2.5776 H   0  0  0  0  0  0  0  0  0  0  0  0
    1.4678   -0.6878   -4.0803 H   0  0  0  0  0  0  0  0  0  0  0  0
    1.8422    0.7671   -3.0923 H   0  0  0  0  0  0  0  0  0  0  0  0
    2.5296   -1.1233   -2.2772 C   0  0  0  0  0  0  0  0  0  0  0  0
    3.3872   -2.1419   -2.6975 C   0  0  0  0  0  0  0  0  0  0  0  0
    3.4762   -2.5312   -3.7181 H   0  0  0  0  0  0  0  0  0  0  0  0
    4.0962   -2.5517   -1.5345 C   0  0  0  0  0  0  0  0  0  0  0  0
    5.1351   -3.6209   -1.3904 C   0  0  0  0  0  0  0  0  0  0  0  0
    5.5078   -3.6387   -0.3489 H   0  0  0  0  0  0  0  0  0  0  0  0
    5.9973   -3.4470   -2.0671 H   0  0  0  0  0  0  0  0  0  0  0  0
    4.7281   -4.6252   -1.6324 H   0  0  0  0  0  0  0  0  0  0  0  0
  1  4  1  0  0  0  0
  2  1  1  0  0  0  0
  3  2  1  0  0  0  0
  4  5  1  0  0  0  0
  4 24  1  0  0  0  0
  5 27  2  0  0  0  0
  6  7  1  0  0  0  0
  6  1  1  0  0  0  0
  8 12  1  0  0  0  0
  8  9  1  0  0  0  0
 10  8  1  0  0  0  0
 11  8  1  0  0  0  0
 12  2  1  0  0  0  0
 13 15  1  0  0  0  0
 13 12  2  0  0  0  0
 14 13  1  0  0  0  0
 15  3  2  0  0  0  0
 16 15  1  0  0  0  0
 16 19  1  0  0  0  0
 17 16  1  0  0  0  0
 18 16  1  0  0  0  0
 20 24  1  0  0  0  0
 20 22  1  0  0  0  0
 21 20  1  0  0  0  0
 23 20  1  0  0  0  0
 24 25  2  0  0  0  0
 25 26  1  0  0  0  0
 27 25  1  0  0  0  0
 27 28  1  0  0  0  0
 28 30  1  0  0  0  0
 28 31  1  0  0  0  0
 29 28  1  0  0  0  0
 32 33  1  0  0  0  0
 32 36  1  0  0  0  0
 34 32  1  0  0  0  0
 35 32  1  0  0  0  0
 36  6  1  0  0  0  0
 37 36  2  0  0  0  0
 37 39  1  0  0  0  0
 38 37  1  0  0  0  0
 39 40  1  0  0  0  0
 39  7  2  0  0  0  0
 40 41  1  0  0  0  0
 42 40  1  0  0  0  0
 43 40  1  0  0  0  0
M  END
