6
 OpenBabel05122313113D

 48 51  0  0  1  0  0  0  0  0999 V2000
   -0.9483    3.1794   -0.7425 Si  0  0  0  0  0  0  0  0  0  0  0  0
   -2.1063   -2.6067   -0.8229 Si  0  0  0  0  0  0  0  0  0  0  0  0
   -0.6068    1.3163   -0.6349 C   0  0  1  0  0  3  0  0  0  0  0  0
   -1.6059    0.2664   -1.0855 C   0  0  0  0  0  0  0  0  0  0  0  0
   -1.0172   -1.0604   -0.6515 C   0  0  2  0  0  3  0  0  0  0  0  0
    0.3921   -0.8273   -0.4835 C   0  0  1  0  0  3  0  0  0  0  0  0
    1.7012   -1.5092   -0.4202 C   0  0  0  0  0  0  0  0  0  0  0  0
    2.1399   -2.8270   -0.3662 C   0  0  0  0  0  0  0  0  0  0  0  0
    1.4311   -3.6654   -0.3530 H   0  0  0  0  0  0  0  0  0  0  0  0
    3.5428   -3.0840   -0.3184 C   0  0  0  0  0  0  0  0  0  0  0  0
    3.8824   -4.1300   -0.2779 H   0  0  0  0  0  0  0  0  0  0  0  0
    4.4905   -2.0625   -0.3221 C   0  0  0  0  0  0  0  0  0  0  0  0
    5.5643   -2.3036   -0.2893 H   0  0  0  0  0  0  0  0  0  0  0  0
    4.0739   -0.6960   -0.3721 C   0  0  0  0  0  0  0  0  0  0  0  0
    2.6789   -0.4653   -0.4197 C   0  0  0  0  0  0  0  0  0  0  0  0
    4.9104    0.4630   -0.3950 C   0  0  0  0  0  0  0  0  0  0  0  0
    6.0047    0.3441   -0.3692 H   0  0  0  0  0  0  0  0  0  0  0  0
    4.3472    1.7364   -0.4582 C   0  0  0  0  0  0  0  0  0  0  0  0
    5.0092    2.6151   -0.4817 H   0  0  0  0  0  0  0  0  0  0  0  0
    2.9364    1.9454   -0.4903 C   0  0  0  0  0  0  0  0  0  0  0  0
    2.5372    2.9687   -0.5359 H   0  0  0  0  0  0  0  0  0  0  0  0
    2.0957    0.8386   -0.4624 C   0  0  0  0  0  0  0  0  0  0  0  0
    0.6377    0.6175   -0.4907 C   0  0  1  0  0  3  0  0  0  0  0  0
   -0.0505    4.1106    0.6404 C   0  0  0  0  0  0  0  0  0  0  0  0
    1.0291    3.8744    0.7124 H   0  0  0  0  0  0  0  0  0  0  0  0
   -0.5063    3.8851    1.6254 H   0  0  0  0  0  0  0  0  0  0  0  0
   -0.1474    5.2031    0.4694 H   0  0  0  0  0  0  0  0  0  0  0  0
   -0.3147    3.7437   -2.4355 C   0  0  0  0  0  0  0  0  0  0  0  0
   -0.4822    4.8313   -2.5790 H   0  0  0  0  0  0  0  0  0  0  0  0
   -0.8471    3.2042   -3.2450 H   0  0  0  0  0  0  0  0  0  0  0  0
    0.7706    3.5445   -2.5511 H   0  0  0  0  0  0  0  0  0  0  0  0
   -2.8016    3.4757   -0.5843 C   0  0  0  0  0  0  0  0  0  0  0  0
   -3.1611    3.2090    0.4300 H   0  0  0  0  0  0  0  0  0  0  0  0
   -3.3494    2.8454   -1.3112 H   0  0  0  0  0  0  0  0  0  0  0  0
   -3.0409    4.5439   -0.7644 H   0  0  0  0  0  0  0  0  0  0  0  0
   -2.5097   -2.7829   -2.6602 C   0  0  0  0  0  0  0  0  0  0  0  0
   -3.2025   -3.6318   -2.8348 H   0  0  0  0  0  0  0  0  0  0  0  0
   -1.5933   -2.9564   -3.2605 H   0  0  0  0  0  0  0  0  0  0  0  0
   -2.9909   -1.8505   -3.0168 H   0  0  0  0  0  0  0  0  0  0  0  0
   -1.2423   -4.1724   -0.1994 C   0  0  0  0  0  0  0  0  0  0  0  0
   -0.8199   -4.0522    0.8177 H   0  0  0  0  0  0  0  0  0  0  0  0
   -0.4338   -4.4936   -0.8869 H   0  0  0  0  0  0  0  0  0  0  0  0
   -1.9834   -4.9977   -0.1589 H   0  0  0  0  0  0  0  0  0  0  0  0
   -3.6785   -2.3007    0.1750 C   0  0  0  0  0  0  0  0  0  0  0  0
   -4.4258   -3.0982   -0.0159 H   0  0  0  0  0  0  0  0  0  0  0  0
   -4.1207   -1.3283   -0.1200 H   0  0  0  0  0  0  0  0  0  0  0  0
   -3.4698   -2.2788    1.2637 H   0  0  0  0  0  0  0  0  0  0  0  0
   -2.7092    0.4483   -1.5960 O   0  0  0  0  0  0  0  0  0  0  0  0
  1 32  1  0  0  0  0
  1 24  1  0  0  0  0
  2 40  1  0  0  0  0
  2 44  1  0  0  0  0
  3  1  1  6  0  0  0
  3 23  1  0  0  0  0
  4  5  1  0  0  0  0
  4  3  1  0  0  0  0
  5  2  1  6  0  0  0
  5  6  1  0  0  0  0
  6  7  1  6  0  0  0
  7 15  2  0  0  0  0
  7  8  1  0  0  0  0
  8  9  1  0  0  0  0
  8 10  2  0  0  0  0
 10 11  1  0  0  0  0
 12 10  1  0  0  0  0
 12 13  1  0  0  0  0
 14 12  2  0  0  0  0
 15 14  1  0  0  0  0
 16 14  1  0  0  0  0
 16 17  1  0  0  0  0
 18 16  2  0  0  0  0
 19 18  1  0  0  0  0
 20 22  2  0  0  0  0
 20 18  1  0  0  0  0
 21 20  1  0  0  0  0
 22 15  1  0  0  0  0
 23  6  1  0  0  0  0
 23 22  1  6  0  0  0
 24 25  1  0  0  0  0
 24 26  1  0  0  0  0
 27 24  1  0  0  0  0
 28  1  1  0  0  0  0
 29 28  1  0  0  0  0
 30 28  1  0  0  0  0
 31 28  1  0  0  0  0
 32 33  1  0  0  0  0
 34 32  1  0  0  0  0
 35 32  1  0  0  0  0
 36  2  1  0  0  0  0
 37 36  1  0  0  0  0
 38 36  1  0  0  0  0
 39 36  1  0  0  0  0
 40 43  1  0  0  0  0
 40 41  1  0  0  0  0
 42 40  1  0  0  0  0
 44 47  1  0  0  0  0
 45 44  1  0  0  0  0
 46 44  1  0  0  0  0
 48  4  2  0  0  0  0
M  END
