1
 OpenBabel05122313113D

 29 31  0  0  0  0  0  0  0  0999 V2000
   -1.1907    1.0905   -0.3161 C   0  0  0  0  0  2  0  0  0  0  0  0
   -0.4396    2.2169   -0.5108 N   0  0  0  0  0  0  0  0  0  0  0  0
   -1.2539    3.3314   -0.6924 C   0  0  0  0  0  0  0  0  0  0  0  0
   -0.8417    4.3252   -0.8876 H   0  0  0  0  0  0  0  0  0  0  0  0
   -2.5463    2.8856   -0.6253 C   0  0  0  0  0  0  0  0  0  0  0  0
   -3.4961    3.4097   -0.7600 H   0  0  0  0  0  0  0  0  0  0  0  0
   -2.4893    1.5080   -0.4000 N   0  0  0  0  0  0  0  0  0  0  0  0
   -3.6317    0.6662   -0.2215 C   0  0  0  0  0  0  0  0  0  0  0  0
   -3.6856   -0.5857   -0.8596 C   0  0  0  0  0  0  0  0  0  0  0  0
   -2.8484   -0.9138   -1.4964 H   0  0  0  0  0  0  0  0  0  0  0  0
   -4.8059   -1.4041   -0.6716 C   0  0  0  0  0  0  0  0  0  0  0  0
   -4.8773   -2.3881   -1.1563 H   0  0  0  0  0  0  0  0  0  0  0  0
   -6.9345   -1.7419    0.3120 F   0  0  0  0  0  0  0  0  0  0  0  0
   -5.8576   -0.9565    0.1383 C   0  0  0  0  0  0  0  0  0  0  0  0
   -5.8150    0.2913    0.7729 C   0  0  0  0  0  0  0  0  0  0  0  0
   -6.6532    0.6032    1.4116 H   0  0  0  0  0  0  0  0  0  0  0  0
   -4.6879    1.1038    0.5958 C   0  0  0  0  0  0  0  0  0  0  0  0
   -4.6180    2.0698    1.1163 H   0  0  0  0  0  0  0  0  0  0  0  0
    0.9920    2.2105   -0.4386 C   0  0  0  0  0  0  0  0  0  0  0  0
    1.7184    1.3735   -1.3045 C   0  0  0  0  0  0  0  0  0  0  0  0
    1.1878    0.7632   -2.0507 H   0  0  0  0  0  0  0  0  0  0  0  0
    3.1079    1.2861   -1.1709 C   0  0  0  0  0  0  0  0  0  0  0  0
    3.7018    0.6235   -1.8147 H   0  0  0  0  0  0  0  0  0  0  0  0
    5.0751    1.9121   -0.0155 F   0  0  0  0  0  0  0  0  0  0  0  0
    3.7448    2.0335   -0.1728 C   0  0  0  0  0  0  0  0  0  0  0  0
    3.0333    2.8865    0.6798 C   0  0  0  0  0  0  0  0  0  0  0  0
    3.5713    3.4485    1.4560 H   0  0  0  0  0  0  0  0  0  0  0  0
    1.6405    2.9684    0.5482 C   0  0  0  0  0  0  0  0  0  0  0  0
    1.0501    3.5850    1.2408 H   0  0  0  0  0  0  0  0  0  0  0  0
  2 19  1  0  0  0  0
  2  1  1  0  0  0  0
  3  5  2  0  0  0  0
  3  2  1  0  0  0  0
  4  3  1  0  0  0  0
  5  7  1  0  0  0  0
  6  5  1  0  0  0  0
  7  1  1  0  0  0  0
  7  8  1  0  0  0  0
  8 17  1  0  0  0  0
  9 11  1  0  0  0  0
  9  8  2  0  0  0  0
 10  9  1  0  0  0  0
 11 14  2  0  0  0  0
 12 11  1  0  0  0  0
 14 13  1  0  0  0  0
 14 15  1  0  0  0  0
 15 16  1  0  0  0  0
 17 15  2  0  0  0  0
 17 18  1  0  0  0  0
 19 28  1  0  0  0  0
 20 22  1  0  0  0  0
 20 19  2  0  0  0  0
 21 20  1  0  0  0  0
 22 25  2  0  0  0  0
 23 22  1  0  0  0  0
 25 24  1  0  0  0  0
 25 26  1  0  0  0  0
 26 27  1  0  0  0  0
 28 26  2  0  0  0  0
 28 29  1  0  0  0  0
M  END
