2
 OpenBabel05122313113D

 34 38  0  0  1  0  0  0  0  0999 V2000
   -1.2993   -0.6622    0.7139 C   0  0  2  0  0  3  0  0  0  0  0  0
   -1.2993   -0.6622   -0.7137 C   0  0  1  0  0  3  0  0  0  0  0  0
   -0.0912   -0.8485   -1.4544 C   0  0  0  0  0  0  0  0  0  0  0  0
    1.0952   -1.0657   -0.7197 C   0  0  0  0  0  0  0  0  0  0  0  0
    1.0952   -1.0656    0.7198 C   0  0  0  0  0  0  0  0  0  0  0  0
   -0.0912   -0.8485    1.4545 C   0  0  0  0  0  0  0  0  0  0  0  0
   -2.7523   -0.5726    1.1371 C   0  0  2  0  0  0  0  0  0  0  0  0
   -3.3610   -1.9679    0.7813 C   0  0  0  0  0  0  0  0  0  0  0  0
   -3.3610   -1.9679   -0.7812 C   0  0  0  0  0  0  0  0  0  0  0  0
   -2.7523   -0.5725   -1.1369 C   0  0  1  0  0  0  0  0  0  0  0  0
   -3.3421    0.2946    0.0001 C   0  0  0  0  0  0  0  0  0  0  0  0
    2.4814   -1.5341   -1.1383 C   0  0  1  0  0  0  0  0  0  0  0  0
    3.5427   -0.4582   -0.7799 C   0  0  0  0  0  0  0  0  0  0  0  0
    3.5426   -0.4580    0.7798 C   0  0  0  0  0  0  0  0  0  0  0  0
    2.4815   -1.5339    1.1383 C   0  0  2  0  0  0  0  0  0  0  0  0
    2.7274   -2.5667    0.0001 C   0  0  0  0  0  0  0  0  0  0  0  0
   -0.0871   -0.8286   -2.5537 H   0  0  0  0  0  0  0  0  0  0  0  0
   -0.0870   -0.8285    2.5539 H   0  0  0  0  0  0  0  0  0  0  0  0
   -2.9251   -0.2342    2.1750 H   0  0  0  0  0  0  0  0  0  0  0  0
   -4.3892   -2.0469    1.1869 H   0  0  0  0  0  0  0  0  0  0  0  0
   -2.7692   -2.7984    1.2133 H   0  0  0  0  0  0  0  0  0  0  0  0
   -2.7692   -2.7983   -1.2133 H   0  0  0  0  0  0  0  0  0  0  0  0
   -4.3892   -2.0468   -1.1868 H   0  0  0  0  0  0  0  0  0  0  0  0
   -2.9251   -0.2341   -2.1748 H   0  0  0  0  0  0  0  0  0  0  0  0
   -2.9554    1.3306    0.0001 H   0  0  0  0  0  0  0  0  0  0  0  0
   -4.4506    0.3051    0.0001 H   0  0  0  0  0  0  0  0  0  0  0  0
    2.5364   -1.9062   -2.1780 H   0  0  0  0  0  0  0  0  0  0  0  0
    3.2970    0.5270   -1.2143 H   0  0  0  0  0  0  0  0  0  0  0  0
    4.5289   -0.7651   -1.1820 H   0  0  0  0  0  0  0  0  0  0  0  0
    4.5289   -0.7647    1.1820 H   0  0  0  0  0  0  0  0  0  0  0  0
    3.2968    0.5272    1.2139 H   0  0  0  0  0  0  0  0  0  0  0  0
    2.5365   -1.9059    2.1781 H   0  0  0  0  0  0  0  0  0  0  0  0
    3.7579   -2.9771    0.0001 H   0  0  0  0  0  0  0  0  0  0  0  0
    1.9971   -3.4005    0.0002 H   0  0  0  0  0  0  0  0  0  0  0  0
  1  7  1  0  0  0  0
  1  6  1  6  0  0  0
  2  3  1  1  0  0  0
  2  1  1  0  0  0  0
  3  4  2  0  0  0  0
  4  5  1  0  0  0  0
  5 15  1  0  0  0  0
  5  6  2  0  0  0  0
  6 18  1  0  0  0  0
  7 19  1  1  0  0  0
  8  7  1  0  0  0  0
  8 20  1  0  0  0  0
  8 21  1  0  0  0  0
  9  8  1  0  0  0  0
 10 24  1  6  0  0  0
 10  9  1  0  0  0  0
 10  2  1  0  0  0  0
 10 11  1  0  0  0  0
 11 25  1  0  0  0  0
 11  7  1  0  0  0  0
 12 27  1  6  0  0  0
 12 13  1  0  0  0  0
 12  4  1  0  0  0  0
 12 16  1  0  0  0  0
 13 14  1  0  0  0  0
 14 15  1  0  0  0  0
 14 30  1  0  0  0  0
 14 31  1  0  0  0  0
 15 32  1  1  0  0  0
 16 33  1  0  0  0  0
 16 34  1  0  0  0  0
 16 15  1  0  0  0  0
 17  3  1  0  0  0  0
 22  9  1  0  0  0  0
 23  9  1  0  0  0  0
 26 11  1  0  0  0  0
 28 13  1  0  0  0  0
 29 13  1  0  0  0  0
M  END
