3
 OpenBabel05122313113D

 38 39  0  0  1  0  0  0  0  0999 V2000
   -1.3026    0.3181    1.3621 B   0  0  0  0  0  0  0  0  0  0  0  0
   -1.4098   -0.4525    2.3153 H   0  0  0  0  0  0  0  0  0  0  0  0
    0.0333    1.0714    1.2791 C   0  0  0  0  0  3  0  0  0  0  0  0
    0.7252    0.9319    2.1295 H   0  0  0  0  0  0  0  0  0  0  0  0
    0.6047    1.7361    0.1403 C   0  0  0  0  0  3  0  0  0  0  0  0
   -0.0622    2.1960   -0.6036 H   0  0  0  0  0  0  0  0  0  0  0  0
   -2.7076    0.7257    0.7836 C   0  0  1  0  0  3  0  0  0  0  0  0
   -3.7940   -0.1080    0.7260 N   0  0  0  0  0  0  0  0  0  0  0  0
   -4.8876    0.5265    0.1411 C   0  0  0  0  0  0  0  0  0  0  0  0
   -4.4817    1.8090   -0.1596 C   0  0  0  0  0  0  0  0  0  0  0  0
   -3.1516    1.9104    0.2586 N   0  0  0  0  0  0  0  0  0  0  0  0
   -3.8209   -1.4789    1.2051 C   0  0  0  0  0  0  0  0  0  0  0  0
   -2.7972   -1.7619    1.5004 H   0  0  0  0  0  0  0  0  0  0  0  0
   -4.1576   -2.1561    0.3994 H   0  0  0  0  0  0  0  0  0  0  0  0
   -4.4934   -1.5677    2.0828 H   0  0  0  0  0  0  0  0  0  0  0  0
   -6.1817   -0.1696   -0.0963 C   0  0  0  0  0  0  0  0  0  0  0  0
   -6.9137    0.5201   -0.5553 H   0  0  0  0  0  0  0  0  0  0  0  0
   -6.6267   -0.5559    0.8446 H   0  0  0  0  0  0  0  0  0  0  0  0
   -6.0565   -1.0346   -0.7818 H   0  0  0  0  0  0  0  0  0  0  0  0
   -5.2140    2.9371   -0.7992 C   0  0  0  0  0  0  0  0  0  0  0  0
   -6.2284    2.6139   -1.0975 H   0  0  0  0  0  0  0  0  0  0  0  0
   -4.6958    3.3011   -1.7112 H   0  0  0  0  0  0  0  0  0  0  0  0
   -5.3295    3.8066   -0.1171 H   0  0  0  0  0  0  0  0  0  0  0  0
   -2.3844    3.1405    0.2016 C   0  0  0  0  0  0  0  0  0  0  0  0
   -1.5282    3.0522    0.8921 H   0  0  0  0  0  0  0  0  0  0  0  0
   -3.0212    3.9931    0.5057 H   0  0  0  0  0  0  0  0  0  0  0  0
   -2.0005    3.3274   -0.8216 H   0  0  0  0  0  0  0  0  0  0  0  0
    1.9581    2.3534    0.1665 C   0  0  0  0  0  0  0  0  0  0  0  0
    2.5613    2.7786    1.3724 C   0  0  0  0  0  0  0  0  0  0  0  0
    2.0111    2.6618    2.3184 H   0  0  0  0  0  0  0  0  0  0  0  0
    3.8388    3.3599    1.3819 C   0  0  0  0  0  0  0  0  0  0  0  0
    4.2831    3.6821    2.3367 H   0  0  0  0  0  0  0  0  0  0  0  0
    4.5466    3.5362    0.1836 C   0  0  0  0  0  0  0  0  0  0  0  0
    5.5500    3.9884    0.1901 H   0  0  0  0  0  0  0  0  0  0  0  0
    3.9527    3.1383   -1.0279 C   0  0  0  0  0  0  0  0  0  0  0  0
    4.4928    3.2771   -1.9775 H   0  0  0  0  0  0  0  0  0  0  0  0
    2.6763    2.5619   -1.0368 C   0  0  0  0  0  0  0  0  0  0  0  0
    2.2250    2.2419   -1.9880 H   0  0  0  0  0  0  0  0  0  0  0  0
  1  2  1  0  0  0  0
  3  1  1  0  0  0  0
  3  4  1  0  0  0  0
  5 28  1  0  0  0  0
  5  3  1  0  0  0  0
  6  5  1  0  0  0  0
  7  1  1  1  0  0  0
  8  7  1  0  0  0  0
  8 12  1  0  0  0  0
  9  8  1  0  0  0  0
 10  9  2  0  0  0  0
 10 11  1  0  0  0  0
 11  7  1  0  0  0  0
 12 13  1  0  0  0  0
 12 15  1  0  0  0  0
 14 12  1  0  0  0  0
 16  9  1  0  0  0  0
 16 18  1  0  0  0  0
 17 16  1  0  0  0  0
 19 16  1  0  0  0  0
 20 10  1  0  0  0  0
 20 23  1  0  0  0  0
 21 20  1  0  0  0  0
 22 20  1  0  0  0  0
 24 11  1  0  0  0  0
 24 26  1  0  0  0  0
 24 25  1  0  0  0  0
 27 24  1  0  0  0  0
 28 29  1  0  0  0  0
 29 31  2  0  0  0  0
 29 30  1  0  0  0  0
 31 32  1  0  0  0  0
 33 34  1  0  0  0  0
 33 31  1  0  0  0  0
 35 33  2  0  0  0  0
 36 35  1  0  0  0  0
 37 35  1  0  0  0  0
 37 28  2  0  0  0  0
 38 37  1  0  0  0  0
M  END
