3
 OpenBabel05122313113D

 33 33  0  0  1  0  0  0  0  0999 V2000
    1.1519    0.0365   -1.3999 B   0  0  0  0  0  0  0  0  0  0  0  0
    1.0399   -0.8424   -2.2499 H   0  0  0  0  0  0  0  0  0  0  0  0
    0.1011    1.1526   -1.4411 C   0  0  0  0  0  3  0  0  0  0  0  0
   -0.6122    1.2023   -2.2817 H   0  0  0  0  0  0  0  0  0  0  0  0
   -0.1837    2.0859   -0.3829 C   0  0  0  0  0  3  0  0  0  0  0  0
    0.6065    2.4038    0.3130 H   0  0  0  0  0  0  0  0  0  0  0  0
   -1.3444    3.0068   -0.4549 C   0  0  0  0  0  0  0  0  0  0  0  0
   -1.4367    4.0485    0.6489 C   0  0  0  0  0  0  0  0  0  0  0  0
   -1.3955    3.5686    1.6482 H   0  0  0  0  0  0  0  0  0  0  0  0
   -2.3721    4.6268    0.5398 H   0  0  0  0  0  0  0  0  0  0  0  0
   -0.5702    4.7409    0.5933 H   0  0  0  0  0  0  0  0  0  0  0  0
   -2.2011    2.9565   -1.3461 O   0  0  0  0  0  0  0  0  0  0  0  0
    2.6093    0.0840   -0.8066 C   0  0  1  0  0  3  0  0  0  0  0  0
    3.3805   -1.0207   -0.5590 N   0  0  0  0  0  0  0  0  0  0  0  0
    4.6146   -0.6654   -0.0198 C   0  0  0  0  0  0  0  0  0  0  0  0
    4.6295    0.7113    0.0502 C   0  0  0  0  0  0  0  0  0  0  0  0
    3.3991    1.1455   -0.4524 N   0  0  0  0  0  0  0  0  0  0  0  0
    2.9747   -2.3922   -0.8118 C   0  0  0  0  0  0  0  0  0  0  0  0
    3.6179   -2.8456   -1.5932 H   0  0  0  0  0  0  0  0  0  0  0  0
    1.9290   -2.3805   -1.1625 H   0  0  0  0  0  0  0  0  0  0  0  0
    3.0322   -2.9840    0.1199 H   0  0  0  0  0  0  0  0  0  0  0  0
    5.6227   -1.6767    0.4001 C   0  0  0  0  0  0  0  0  0  0  0  0
    6.5304   -1.1804    0.7899 H   0  0  0  0  0  0  0  0  0  0  0  0
    5.9317   -2.3321   -0.4410 H   0  0  0  0  0  0  0  0  0  0  0  0
    5.2256   -2.3340    1.2025 H   0  0  0  0  0  0  0  0  0  0  0  0
    5.6757    1.6507    0.5409 C   0  0  0  0  0  0  0  0  0  0  0  0
    6.0588    2.3139   -0.2640 H   0  0  0  0  0  0  0  0  0  0  0  0
    6.5377    1.0870    0.9429 H   0  0  0  0  0  0  0  0  0  0  0  0
    5.2947    2.3052    1.3526 H   0  0  0  0  0  0  0  0  0  0  0  0
    3.0685    2.5433   -0.6606 C   0  0  0  0  0  0  0  0  0  0  0  0
    2.2005    2.5994   -1.3397 H   0  0  0  0  0  0  0  0  0  0  0  0
    3.9307    3.0682   -1.1154 H   0  0  0  0  0  0  0  0  0  0  0  0
    2.8107    3.0424    0.2952 H   0  0  0  0  0  0  0  0  0  0  0  0
  2  1  1  0  0  0  0
  3  1  1  0  0  0  0
  3  5  1  0  0  0  0
  4  3  1  0  0  0  0
  5  6  1  0  0  0  0
  7  5  1  0  0  0  0
  7  8  1  0  0  0  0
  8  9  1  0  0  0  0
 10  8  1  0  0  0  0
 11  8  1  0  0  0  0
 12  7  2  0  0  0  0
 13  1  1  6  0  0  0
 13 14  1  0  0  0  0
 13 17  1  0  0  0  0
 14 15  1  0  0  0  0
 15 16  2  0  0  0  0
 15 22  1  0  0  0  0
 16 26  1  0  0  0  0
 17 16  1  0  0  0  0
 18 14  1  0  0  0  0
 18 21  1  0  0  0  0
 19 18  1  0  0  0  0
 20 18  1  0  0  0  0
 22 23  1  0  0  0  0
 22 25  1  0  0  0  0
 24 22  1  0  0  0  0
 26 28  1  0  0  0  0
 26 29  1  0  0  0  0
 27 26  1  0  0  0  0
 30 17  1  0  0  0  0
 30 33  1  0  0  0  0
 31 30  1  0  0  0  0
 32 30  1  0  0  0  0
M  END
