5
 OpenBabel05122313113D

 50 51  0  0  1  0  0  0  0  0999 V2000
   -3.5291   -0.2353    0.5477 N   0  0  0  0  0  0  0  0  0  0  0  0
   -2.9190    1.8108    0.0953 N   0  0  0  0  0  0  0  0  0  0  0  0
   -1.0443    0.2219    1.1805 B   0  0  0  0  0  0  0  0  0  0  0  0
   -1.1790   -0.5966    2.0889 H   0  0  0  0  0  0  0  0  0  0  0  0
    0.3074    0.9524    1.2571 C   0  0  0  0  0  3  0  0  0  0  0  0
    0.9053    0.7147    2.1561 H   0  0  0  0  0  0  0  0  0  0  0  0
    1.0304    1.6709    0.2449 C   0  0  0  0  0  3  0  0  0  0  0  0
    0.4807    2.2282   -0.5256 H   0  0  0  0  0  0  0  0  0  0  0  0
    2.4029    2.2013    0.4612 C   0  0  0  0  0  0  0  0  0  0  0  0
    2.9059    2.4800    1.7526 C   0  0  0  0  0  0  0  0  0  0  0  0
    2.2612    2.3116    2.6284 H   0  0  0  0  0  0  0  0  0  0  0  0
    4.2036    2.9833    1.9343 C   0  0  0  0  0  0  0  0  0  0  0  0
    4.5682    3.1927    2.9522 H   0  0  0  0  0  0  0  0  0  0  0  0
    5.0324    3.2251    0.8287 C   0  0  0  0  0  0  0  0  0  0  0  0
    6.0513    3.6161    0.9706 H   0  0  0  0  0  0  0  0  0  0  0  0
    4.5404    2.9725   -0.4649 C   0  0  0  0  0  0  0  0  0  0  0  0
    5.1764    3.1645   -1.3431 H   0  0  0  0  0  0  0  0  0  0  0  0
    3.2440    2.4744   -0.6455 C   0  0  0  0  0  0  0  0  0  0  0  0
    2.8705    2.2683   -1.6600 H   0  0  0  0  0  0  0  0  0  0  0  0
   -2.4565    0.6222    0.5927 C   0  0  1  0  0  3  0  0  0  0  0  0
   -4.6533    0.4131    0.0369 C   0  0  0  0  0  0  0  0  0  0  0  0
   -4.2654    1.7045   -0.2638 C   0  0  0  0  0  0  0  0  0  0  0  0
   -3.4467   -1.6254    1.0510 C   0  0  0  0  0  0  0  0  0  0  0  0
   -2.3578   -1.8141    1.0770 H   0  0  0  0  0  0  0  0  0  0  0  0
   -3.9751   -1.7053    2.4857 C   0  0  0  0  0  0  0  0  0  0  0  0
   -3.4333   -0.9956    3.1410 H   0  0  0  0  0  0  0  0  0  0  0  0
   -3.8269   -2.7283    2.8857 H   0  0  0  0  0  0  0  0  0  0  0  0
   -5.0594   -1.4766    2.5392 H   0  0  0  0  0  0  0  0  0  0  0  0
   -4.0643   -2.6675    0.1157 C   0  0  0  0  0  0  0  0  0  0  0  0
   -5.1678   -2.7136    0.1798 H   0  0  0  0  0  0  0  0  0  0  0  0
   -3.6802   -3.6647    0.4094 H   0  0  0  0  0  0  0  0  0  0  0  0
   -3.7550   -2.4814   -0.9292 H   0  0  0  0  0  0  0  0  0  0  0  0
   -5.9982   -0.2077   -0.1461 C   0  0  0  0  0  0  0  0  0  0  0  0
   -6.7409    0.5753   -0.3864 H   0  0  0  0  0  0  0  0  0  0  0  0
   -6.3489   -0.7237    0.7697 H   0  0  0  0  0  0  0  0  0  0  0  0
   -6.0118   -0.9480   -0.9715 H   0  0  0  0  0  0  0  0  0  0  0  0
   -5.0911    2.8025   -0.8482 C   0  0  0  0  0  0  0  0  0  0  0  0
   -4.5888    3.2929   -1.7049 H   0  0  0  0  0  0  0  0  0  0  0  0
   -5.3349    3.5934   -0.1091 H   0  0  0  0  0  0  0  0  0  0  0  0
   -6.0469    2.3917   -1.2221 H   0  0  0  0  0  0  0  0  0  0  0  0
   -2.0488    2.9926   -0.0504 C   0  0  0  0  0  0  0  0  0  0  0  0
   -1.1408    2.7019    0.5091 H   0  0  0  0  0  0  0  0  0  0  0  0
   -2.6129    4.2411    0.6334 C   0  0  0  0  0  0  0  0  0  0  0  0
   -3.4458    4.7074    0.0733 H   0  0  0  0  0  0  0  0  0  0  0  0
   -1.8072    4.9974    0.7118 H   0  0  0  0  0  0  0  0  0  0  0  0
   -2.9599    4.0100    1.6599 H   0  0  0  0  0  0  0  0  0  0  0  0
   -1.6592    3.2139   -1.5157 C   0  0  0  0  0  0  0  0  0  0  0  0
   -1.2372    2.2891   -1.9555 H   0  0  0  0  0  0  0  0  0  0  0  0
   -0.8894    4.0079   -1.5828 H   0  0  0  0  0  0  0  0  0  0  0  0
   -2.5215    3.5330   -2.1350 H   0  0  0  0  0  0  0  0  0  0  0  0
  1 20  1  0  0  0  0
  1 23  1  0  0  0  0
  2 20  1  0  0  0  0
  3  5  1  0  0  0  0
  3  4  1  0  0  0  0
  5  6  1  0  0  0  0
  7  9  1  0  0  0  0
  7  5  1  0  0  0  0
  8  7  1  0  0  0  0
  9 10  1  0  0  0  0
 10 12  2  0  0  0  0
 10 11  1  0  0  0  0
 12 13  1  0  0  0  0
 14 15  1  0  0  0  0
 14 12  1  0  0  0  0
 16 14  2  0  0  0  0
 17 16  1  0  0  0  0
 18 16  1  0  0  0  0
 18  9  2  0  0  0  0
 19 18  1  0  0  0  0
 20  3  1  1  0  0  0
 21  1  1  0  0  0  0
 22 21  2  0  0  0  0
 22  2  1  0  0  0  0
 23 24  1  0  0  0  0
 23 25  1  0  0  0  0
 25 28  1  0  0  0  0
 25 27  1  0  0  0  0
 25 26  1  0  0  0  0
 29 30  1  0  0  0  0
 29 31  1  0  0  0  0
 29 23  1  0  0  0  0
 32 29  1  0  0  0  0
 33 21  1  0  0  0  0
 33 35  1  0  0  0  0
 34 33  1  0  0  0  0
 36 33  1  0  0  0  0
 37 22  1  0  0  0  0
 37 39  1  0  0  0  0
 38 37  1  0  0  0  0
 40 37  1  0  0  0  0
 41  2  1  0  0  0  0
 41 42  1  0  0  0  0
 41 43  1  0  0  0  0
 43 45  1  0  0  0  0
 43 46  1  0  0  0  0
 44 43  1  0  0  0  0
 47 41  1  0  0  0  0
 48 47  1  0  0  0  0
 49 47  1  0  0  0  0
 50 47  1  0  0  0  0
M  END
