3
 OpenBabel05122313113D

 32 33  0  0  0  0  0  0  0  0999 V2000
    1.0093    1.6429   -2.5080 O   0  0  0  0  0  0  0  0  0  0  0  0
   -1.3936    2.0629   -0.9247 C   0  0  0  0  0  3  0  0  0  0  0  0
   -0.0617    2.2360   -0.4382 C   0  0  0  0  0  3  0  0  0  0  0  0
   -1.4829    1.9158   -2.0152 H   0  0  0  0  0  0  0  0  0  0  0  0
    0.1419    2.7195    0.5310 H   0  0  0  0  0  0  0  0  0  0  0  0
    1.0961    1.9261   -1.2971 C   0  0  0  0  0  0  0  0  0  0  0  0
    2.4097    1.8901   -0.5855 C   0  0  0  0  0  0  0  0  0  0  0  0
    2.4064    2.1305    0.4903 H   0  0  0  0  0  0  0  0  0  0  0  0
    3.5409    1.4980   -1.2242 C   0  0  0  0  0  0  0  0  0  0  0  0
    3.4218    1.2722   -2.2989 H   0  0  0  0  0  0  0  0  0  0  0  0
    4.8591    1.2622   -0.6380 C   0  0  0  0  0  0  0  0  0  0  0  0
    5.8844    0.7134   -1.4474 C   0  0  0  0  0  0  0  0  0  0  0  0
    5.6693    0.5152   -2.5093 H   0  0  0  0  0  0  0  0  0  0  0  0
    7.1483    0.4181   -0.9198 C   0  0  0  0  0  0  0  0  0  0  0  0
    7.9267   -0.0092   -1.5705 H   0  0  0  0  0  0  0  0  0  0  0  0
    7.4224    0.6675    0.4342 C   0  0  0  0  0  0  0  0  0  0  0  0
    8.4142    0.4373    0.8519 H   0  0  0  0  0  0  0  0  0  0  0  0
    6.4197    1.2186    1.2528 C   0  0  0  0  0  0  0  0  0  0  0  0
    6.6282    1.4233    2.3143 H   0  0  0  0  0  0  0  0  0  0  0  0
    5.1575    1.5122    0.7263 C   0  0  0  0  0  0  0  0  0  0  0  0
    4.3864    1.9483    1.3790 H   0  0  0  0  0  0  0  0  0  0  0  0
   -2.6175    2.5033   -0.2304 C   0  0  0  0  0  0  0  0  0  0  0  0
   -2.6223    2.9744    1.1070 C   0  0  0  0  0  0  0  0  0  0  0  0
   -1.6728    3.0473    1.6582 H   0  0  0  0  0  0  0  0  0  0  0  0
   -3.8158    3.3358    1.7446 C   0  0  0  0  0  0  0  0  0  0  0  0
   -3.7869    3.6968    2.7846 H   0  0  0  0  0  0  0  0  0  0  0  0
   -5.0452    3.2393    1.0705 C   0  0  0  0  0  0  0  0  0  0  0  0
   -5.9818    3.5213    1.5745 H   0  0  0  0  0  0  0  0  0  0  0  0
   -5.0593    2.7885   -0.2605 C   0  0  0  0  0  0  0  0  0  0  0  0
   -6.0121    2.7200   -0.8087 H   0  0  0  0  0  0  0  0  0  0  0  0
   -3.8647    2.4331   -0.9002 C   0  0  0  0  0  0  0  0  0  0  0  0
   -3.8838    2.0840   -1.9448 H   0  0  0  0  0  0  0  0  0  0  0  0
  1  6  2  0  0  0  0
  2  3  1  0  0  0  0
  2 22  1  0  0  0  0
  3  5  1  0  0  0  0
  4  2  1  0  0  0  0
  6  7  1  0  0  0  0
  6  3  1  0  0  0  0
  7  8  1  0  0  0  0
  9 11  1  0  0  0  0
  9  7  2  0  0  0  0
 10  9  1  0  0  0  0
 11 20  1  0  0  0  0
 12 14  1  0  0  0  0
 12 11  2  0  0  0  0
 13 12  1  0  0  0  0
 14 16  2  0  0  0  0
 15 14  1  0  0  0  0
 16 17  1  0  0  0  0
 16 18  1  0  0  0  0
 18 19  1  0  0  0  0
 20 18  2  0  0  0  0
 20 21  1  0  0  0  0
 22 23  1  0  0  0  0
 23 24  1  0  0  0  0
 23 25  2  0  0  0  0
 25 26  1  0  0  0  0
 27 28  1  0  0  0  0
 27 25  1  0  0  0  0
 29 27  2  0  0  0  0
 30 29  1  0  0  0  0
 31 29  1  0  0  0  0
 31 22  2  0  0  0  0
 32 31  1  0  0  0  0
M  END
