8
 OpenBabel05122313113D

 14 14  0  0  0  0  0  0  0  0999 V2000
   -0.2890    1.8916    2.4810 F   0  0  0  0  0  0  0  0  0  0  0  0
   -1.5294    4.2803    2.3732 F   0  0  0  0  0  0  0  0  0  0  0  0
   -0.0096    4.8422   -2.1213 F   0  0  0  0  0  0  0  0  0  0  0  0
    1.2172    2.4859   -1.9951 F   0  0  0  0  0  0  0  0  0  0  0  0
   -1.0653    6.7762    1.1265 F   0  0  0  0  0  0  0  0  0  0  0  0
   -2.8684    5.7964    0.3889 F   0  0  0  0  0  0  0  0  0  0  0  0
   -1.4382    6.6477   -1.0145 F   0  0  0  0  0  0  0  0  0  0  0  0
    0.4955    2.1271    0.2457 C   0  0  0  0  0  0  0  0  0  0  0  0
   -0.2142    2.6091    1.3461 C   0  0  0  0  0  0  0  0  0  0  0  0
   -0.8614    3.8523    1.2946 C   0  0  0  0  0  0  0  0  0  0  0  0
   -0.8196    4.6464    0.1300 C   0  0  0  0  0  0  0  0  0  0  0  0
   -0.1031    4.1550   -0.9789 C   0  0  0  0  0  0  0  0  0  0  0  0
    0.5431    2.9064   -0.9100 C   0  0  0  0  0  0  0  0  0  0  0  0
   -1.5478    5.9759    0.1466 C   0  0  0  0  0  0  0  0  0  0  0  0
  3 12  1  0  0  0  0
  4 13  1  0  0  0  0
  7 14  1  0  0  0  0
  8  9  1  0  0  0  0
  9  1  1  0  0  0  0
 10  9  2  0  0  0  0
 10  2  1  0  0  0  0
 11 14  1  0  0  0  0
 11 10  1  0  0  0  0
 12 13  1  0  0  0  0
 12 11  2  0  0  0  0
 13  8  2  0  0  0  0
 14  6  1  0  0  0  0
 14  5  1  0  0  0  0
M  END
