3
 OpenBabel05122313113D

 16 17  0  0  0  0  0  0  0  0999 V2000
    2.1284    0.0049    0.2328 O   0  0  0  0  0  0  0  0  0  0  0  0
    3.4109    3.3039   -1.8653 O   0  0  0  0  0  0  0  0  0  0  0  0
    1.2014    0.7419   -0.4935 C   0  0  0  0  0  3  0  0  0  0  0  0
    1.6362    1.8397   -1.2114 C   0  0  0  0  0  0  0  0  0  0  0  0
    0.8986    2.3813   -1.8203 H   0  0  0  0  0  0  0  0  0  0  0  0
    3.0152    2.3059   -1.2439 C   0  0  0  0  0  0  0  0  0  0  0  0
    3.9465    1.4597   -0.4415 C   0  0  0  0  0  0  0  0  0  0  0  0
    3.4521    0.3388    0.2565 C   0  0  0  0  0  0  0  0  0  0  0  0
    4.3082   -0.4809    1.0183 C   0  0  0  0  0  0  0  0  0  0  0  0
    3.8825   -1.3442    1.5513 H   0  0  0  0  0  0  0  0  0  0  0  0
    5.6702   -0.1722    1.0771 C   0  0  0  0  0  0  0  0  0  0  0  0
    6.3450   -0.8088    1.6703 H   0  0  0  0  0  0  0  0  0  0  0  0
    6.1836    0.9462    0.3844 C   0  0  0  0  0  0  0  0  0  0  0  0
    7.2580    1.1787    0.4383 H   0  0  0  0  0  0  0  0  0  0  0  0
    5.3236    1.7510   -0.3659 C   0  0  0  0  0  0  0  0  0  0  0  0
    5.6709    2.6336   -0.9251 H   0  0  0  0  0  0  0  0  0  0  0  0
  1  8  1  0  0  0  0
  2  6  2  0  0  0  0
  3  1  1  0  0  0  0
  4  3  2  0  0  0  0
  5  4  1  0  0  0  0
  6  4  1  0  0  0  0
  6  7  1  0  0  0  0
  7 15  2  0  0  0  0
  7  8  1  0  0  0  0
  8  9  2  0  0  0  0
  9 11  1  0  0  0  0
  9 10  1  0  0  0  0
 11 12  1  0  0  0  0
 13 14  1  0  0  0  0
 13 11  2  0  0  0  0
 15 13  1  0  0  0  0
 16 15  1  0  0  0  0
M  END
