4
 OpenBabel05122313113D

 17 18  0  0  0  0  0  0  0  0999 V2000
   -2.1457    0.0415    0.3437 O   0  0  0  0  0  0  0  0  0  0  0  0
   -3.6202   -2.9137   -2.1100 O   0  0  0  0  0  0  0  0  0  0  0  0
   -2.9126   -3.3085   -2.6589 H   0  0  0  0  0  0  0  0  0  0  0  0
   -1.2315   -0.6280   -0.4355 C   0  0  0  0  0  3  0  0  0  0  0  0
   -1.7471   -1.6513   -1.2759 C   0  0  0  0  0  0  0  0  0  0  0  0
   -1.0196   -2.1311   -1.9515 H   0  0  0  0  0  0  0  0  0  0  0  0
   -3.0975   -1.9761   -1.3111 C   0  0  0  0  0  0  0  0  0  0  0  0
   -4.0224   -1.2747   -0.4521 C   0  0  0  0  0  0  0  0  0  0  0  0
   -3.4797   -0.2502    0.3628 C   0  0  0  0  0  0  0  0  0  0  0  0
   -4.2962    0.5024    1.2230 C   0  0  0  0  0  0  0  0  0  0  0  0
   -3.8383    1.2877    1.8408 H   0  0  0  0  0  0  0  0  0  0  0  0
   -5.6648    0.2257    1.2671 C   0  0  0  0  0  0  0  0  0  0  0  0
   -6.3129    0.8087    1.9383 H   0  0  0  0  0  0  0  0  0  0  0  0
   -6.2244   -0.7918    0.4618 C   0  0  0  0  0  0  0  0  0  0  0  0
   -7.3038   -0.9950    0.5091 H   0  0  0  0  0  0  0  0  0  0  0  0
   -5.4125   -1.5367   -0.3921 C   0  0  0  0  0  3  0  0  0  0  0  0
   -5.8290   -2.3299   -1.0283 H   0  0  0  0  0  0  0  0  0  0  0  0
  1  9  1  0  0  0  0
  2  7  1  0  0  0  0
  3  2  1  0  0  0  0
  4  1  1  0  0  0  0
  5  4  2  0  0  0  0
  6  5  1  0  0  0  0
  7  5  1  0  0  0  0
  7  8  2  0  0  0  0
  8 16  1  0  0  0  0
  8  9  1  0  0  0  0
  9 10  2  0  0  0  0
 10 12  1  0  0  0  0
 10 11  1  0  0  0  0
 12 13  1  0  0  0  0
 14 15  1  0  0  0  0
 14 12  2  0  0  0  0
 16 14  1  0  0  0  0
 17 16  1  0  0  0  0
M  END
