3
 OpenBabel05122313113D

 47 50  0  0  0  0  0  0  0  0999 V2000
   -1.4071    0.6963   -0.0004 N   0  0  0  0  0  0  0  0  0  0  0  0
    0.6102    1.5739   -0.0007 N   0  0  0  0  0  0  0  0  0  0  0  0
   -0.0699    0.3839   -0.0005 C   0  0  0  0  0  2  0  0  0  0  0  0
   -2.4616   -0.3290   -0.0006 C   0  0  0  0  0  0  0  0  0  0  0  0
   -1.8940   -1.2856   -0.0011 H   0  0  0  0  0  0  0  0  0  0  0  0
   -3.3115   -0.2922   -1.2791 C   0  0  0  0  0  0  0  0  0  0  0  0
   -2.6429   -0.3701   -2.1611 H   0  0  0  0  0  0  0  0  0  0  0  0
   -3.8394    0.6823   -1.3609 H   0  0  0  0  0  0  0  0  0  0  0  0
   -4.3391   -1.4322   -1.2670 C   0  0  0  0  0  0  0  0  0  0  0  0
   -4.9723   -1.3777   -2.1764 H   0  0  0  0  0  0  0  0  0  0  0  0
   -3.8018   -2.4051   -1.3180 H   0  0  0  0  0  0  0  0  0  0  0  0
   -5.2040   -1.3984   -0.0001 C   0  0  0  0  0  0  0  0  0  0  0  0
   -5.9202   -2.2458   -0.0002 H   0  0  0  0  0  0  0  0  0  0  0  0
   -5.8185   -0.4695    0.0004 H   0  0  0  0  0  0  0  0  0  0  0  0
   -4.3383   -1.4331    1.2663 C   0  0  0  0  0  0  0  0  0  0  0  0
   -3.8010   -2.4060    1.3163 H   0  0  0  0  0  0  0  0  0  0  0  0
   -4.9710   -1.3792    2.1761 H   0  0  0  0  0  0  0  0  0  0  0  0
   -3.3107   -0.2931    1.2786 C   0  0  0  0  0  0  0  0  0  0  0  0
   -3.8385    0.6814    1.3613 H   0  0  0  0  0  0  0  0  0  0  0  0
   -2.6415   -0.3717    2.1600 H   0  0  0  0  0  0  0  0  0  0  0  0
   -1.5862    2.0806    0.0000 C   0  0  0  0  0  0  0  0  0  0  0  0
   -2.7268    2.9021    0.0007 C   0  0  0  0  0  0  0  0  0  0  0  0
   -3.7401    2.4816    0.0009 H   0  0  0  0  0  0  0  0  0  0  0  0
   -2.5264    4.2894    0.0010 C   0  0  0  0  0  0  0  0  0  0  0  0
   -3.4010    4.9563    0.0015 H   0  0  0  0  0  0  0  0  0  0  0  0
   -1.2292    4.8472    0.0008 C   0  0  0  0  0  0  0  0  0  0  0  0
   -1.1104    5.9406    0.0011 H   0  0  0  0  0  0  0  0  0  0  0  0
   -0.0877    4.0341    0.0002 C   0  0  0  0  0  0  0  0  0  0  0  0
    0.9195    4.4732    0.0001 H   0  0  0  0  0  0  0  0  0  0  0  0
   -0.2844    2.6445   -0.0001 C   0  0  0  0  0  0  0  0  0  0  0  0
    2.0774    1.7210   -0.0008 C   0  0  0  0  0  0  0  0  0  0  0  0
    2.2558    2.8168   -0.0016 H   0  0  0  0  0  0  0  0  0  0  0  0
    2.7105    1.1437    1.2750 C   0  0  0  0  0  0  0  0  0  0  0  0
    2.4654    0.0598    1.3269 H   0  0  0  0  0  0  0  0  0  0  0  0
    2.2505    1.6215    2.1651 H   0  0  0  0  0  0  0  0  0  0  0  0
    4.2319    1.3335    1.2645 C   0  0  0  0  0  0  0  0  0  0  0  0
    4.6698    0.8752    2.1749 H   0  0  0  0  0  0  0  0  0  0  0  0
    4.4717    2.4204    1.3165 H   0  0  0  0  0  0  0  0  0  0  0  0
    4.8620    0.7356   -0.0000 C   0  0  0  0  0  0  0  0  0  0  0  0
    5.9592    0.9011   -0.0001 H   0  0  0  0  0  0  0  0  0  0  0  0
    4.7066   -0.3659    0.0006 H   0  0  0  0  0  0  0  0  0  0  0  0
    4.2321    1.3319   -1.2653 C   0  0  0  0  0  0  0  0  0  0  0  0
    4.6701    0.8725   -2.1751 H   0  0  0  0  0  0  0  0  0  0  0  0
    4.4718    2.4188   -1.3186 H   0  0  0  0  0  0  0  0  0  0  0  0
    2.7107    1.1421   -1.2758 C   0  0  0  0  0  0  0  0  0  0  0  0
    2.2508    1.6187   -2.1666 H   0  0  0  0  0  0  0  0  0  0  0  0
    2.4657    0.0581   -1.3264 H   0  0  0  0  0  0  0  0  0  0  0  0
  1 21  1  0  0  0  0
  2  3  1  0  0  0  0
  2 30  1  0  0  0  0
  3  1  1  0  0  0  0
  4  1  1  0  0  0  0
  4 18  1  0  0  0  0
  5  4  1  0  0  0  0
  6  9  1  0  0  0  0
  6  4  1  0  0  0  0
  7  6  1  0  0  0  0
  8  6  1  0  0  0  0
  9 12  1  0  0  0  0
 10  9  1  0  0  0  0
 11  9  1  0  0  0  0
 12 14  1  0  0  0  0
 12 15  1  0  0  0  0
 13 12  1  0  0  0  0
 15 18  1  0  0  0  0
 15 16  1  0  0  0  0
 15 17  1  0  0  0  0
 18 19  1  0  0  0  0
 18 20  1  0  0  0  0
 21 22  1  0  0  0  0
 22 23  1  0  0  0  0
 22 24  2  0  0  0  0
 24 25  1  0  0  0  0
 26 24  1  0  0  0  0
 26 27  1  0  0  0  0
 28 26  2  0  0  0  0
 29 28  1  0  0  0  0
 30 21  2  0  0  0  0
 30 28  1  0  0  0  0
 31  2  1  0  0  0  0
 31 33  1  0  0  0  0
 32 31  1  0  0  0  0
 33 34  1  0  0  0  0
 33 35  1  0  0  0  0
 36 33  1  0  0  0  0
 36 38  1  0  0  0  0
 36 37  1  0  0  0  0
 39 41  1  0  0  0  0
 39 36  1  0  0  0  0
 40 39  1  0  0  0  0
 42 39  1  0  0  0  0
 43 42  1  0  0  0  0
 44 42  1  0  0  0  0
 45 42  1  0  0  0  0
 45 31  1  0  0  0  0
 46 45  1  0  0  0  0
 47 45  1  0  0  0  0
M  END
