2
 OpenBabel05122313113D

 32 32  0  0  0  0  0  0  0  0999 V2000
    8.5394   -0.5513   -0.0607 N   0  0  0  0  0  0  0  0  0  0  0  0
   -2.5065    1.1502    0.0209 C   0  0  0  0  0  3  0  0  0  0  0  0
   -3.3302    2.2136    0.0429 O   0  0  0  0  0  0  0  0  0  0  0  0
   -1.1432    1.6256    0.0144 C   0  0  0  0  0  0  0  0  0  0  0  0
   -1.1334    3.1440   -0.0243 C   0  0  0  0  0  0  0  0  0  0  0  0
   -0.7064    3.5173   -0.9797 H   0  0  0  0  0  0  0  0  0  0  0  0
   -0.5245    3.5793    0.7944 H   0  0  0  0  0  0  0  0  0  0  0  0
   -2.6201    3.4858    0.1140 C   0  0  0  0  0  0  0  0  0  0  0  0
   -2.8796    3.9461    1.0893 H   0  0  0  0  0  0  0  0  0  0  0  0
   -3.0209    4.1285   -0.6941 H   0  0  0  0  0  0  0  0  0  0  0  0
   -0.0144    0.8248    0.0202 C   0  0  0  0  0  0  0  0  0  0  0  0
   -0.1696   -0.2646    0.0433 H   0  0  0  0  0  0  0  0  0  0  0  0
    1.3289    1.2799    0.0006 C   0  0  0  0  0  0  0  0  0  0  0  0
    1.5255    2.3659   -0.0240 H   0  0  0  0  0  0  0  0  0  0  0  0
    2.4132    0.4144    0.0087 C   0  0  0  0  0  3  0  0  0  0  0  0
    2.1975   -0.6700    0.0321 H   0  0  0  0  0  0  0  0  0  0  0  0
    3.7786    0.8003   -0.0119 C   0  0  0  0  0  0  0  0  0  0  0  0
    4.0103    1.8803   -0.0356 H   0  0  0  0  0  0  0  0  0  0  0  0
    4.8275   -0.1042   -0.0047 C   0  0  0  0  0  0  0  0  0  0  0  0
    4.5687   -1.1796    0.0164 H   0  0  0  0  0  0  0  0  0  0  0  0
    6.2109    0.2272   -0.0194 C   0  0  0  0  0  0  0  0  0  0  0  0
    6.4852    1.2939   -0.0368 H   0  0  0  0  0  0  0  0  0  0  0  0
    7.1949   -0.7457   -0.0058 C   0  0  0  0  0  0  0  0  0  0  0  0
    6.8916   -1.8052    0.0445 H   0  0  0  0  0  0  0  0  0  0  0  0
    9.4630   -1.6480    0.1613 C   0  0  0  0  0  0  0  0  0  0  0  0
    8.9228   -2.6109    0.0952 H   0  0  0  0  0  0  0  0  0  0  0  0
    9.9438   -1.5904    1.1646 H   0  0  0  0  0  0  0  0  0  0  0  0
   10.2671   -1.6467   -0.6046 H   0  0  0  0  0  0  0  0  0  0  0  0
    9.0853    0.7913   -0.1204 C   0  0  0  0  0  0  0  0  0  0  0  0
    8.5840    1.3788   -0.9169 H   0  0  0  0  0  0  0  0  0  0  0  0
   10.1651    0.7416   -0.3532 H   0  0  0  0  0  0  0  0  0  0  0  0
    8.9571    1.3376    0.8420 H   0  0  0  0  0  0  0  0  0  0  0  0
  1 23  1  0  0  0  0
  1 25  1  0  0  0  0
  2  3  1  0  0  0  0
  3  8  1  0  0  0  0
  4 11  1  0  0  0  0
  4  2  2  0  0  0  0
  5  4  1  0  0  0  0
  5  8  1  0  0  0  0
  5  7  1  0  0  0  0
  6  5  1  0  0  0  0
  8  9  1  0  0  0  0
 10  8  1  0  0  0  0
 11 12  1  0  0  0  0
 13 15  1  0  0  0  0
 13 11  2  0  0  0  0
 14 13  1  0  0  0  0
 15 16  1  0  0  0  0
 17 19  2  0  0  0  0
 17 15  1  0  0  0  0
 18 17  1  0  0  0  0
 19 20  1  0  0  0  0
 21 23  2  0  0  0  0
 21 19  1  0  0  0  0
 22 21  1  0  0  0  0
 23 24  1  0  0  0  0
 25 27  1  0  0  0  0
 26 25  1  0  0  0  0
 28 25  1  0  0  0  0
 29  1  1  0  0  0  0
 29 32  1  0  0  0  0
 30 29  1  0  0  0  0
 31 29  1  0  0  0  0
M  END
