1
 OpenBabel05122313113D

 13 12  0  0  0  0  0  0  0  0999 V2000
   -2.0659   -0.0953   -0.0000 C   0  0  0  0  0  2  0  0  0  0  0  0
   -2.8170    0.6923    0.7778 N   0  0  0  0  0  0  0  0  0  0  0  0
   -3.8394    0.6179    0.7228 H   0  0  0  0  0  0  0  0  0  0  0  0
   -2.3139    1.6755    1.7244 C   0  0  0  0  0  0  0  0  0  0  0  0
   -1.2080    1.6632    1.6987 H   0  0  0  0  0  0  0  0  0  0  0  0
   -2.6496    1.4385    2.7543 H   0  0  0  0  0  0  0  0  0  0  0  0
   -2.6662    2.6932    1.4602 H   0  0  0  0  0  0  0  0  0  0  0  0
   -2.7039   -0.9486   -0.8198 N   0  0  0  0  0  0  0  0  0  0  0  0
   -2.1110   -1.5400   -1.4014 H   0  0  0  0  0  0  0  0  0  0  0  0
   -4.1469   -1.1017   -0.9457 C   0  0  0  0  0  0  0  0  0  0  0  0
   -4.6080   -1.4198    0.0146 H   0  0  0  0  0  0  0  0  0  0  0  0
   -4.3674   -1.8782   -1.6990 H   0  0  0  0  0  0  0  0  0  0  0  0
   -4.6287   -0.1575   -1.2806 H   0  0  0  0  0  0  0  0  0  0  0  0
  1  2  1  0  0  0  0
  2  4  1  0  0  0  0
  3  2  1  0  0  0  0
  4  6  1  0  0  0  0
  5  4  1  0  0  0  0
  7  4  1  0  0  0  0
  8  1  1  0  0  0  0
  9  8  1  0  0  0  0
 10  8  1  0  0  0  0
 10 11  1  0  0  0  0
 12 10  1  0  0  0  0
 13 10  1  0  0  0  0
M  END
