1
 OpenBabel05122313113D

 42 44  0  0  1  0  0  0  0  0999 V2000
   -0.3880   -2.3023   -1.5125 C   0  0  0  0  0  3  0  0  0  0  0  0
   -0.0565   -2.7929   -2.4425 H   0  0  0  0  0  0  0  0  0  0  0  0
   -0.7123   -3.0399   -0.7575 H   0  0  0  0  0  0  0  0  0  0  0  0
   -1.4480   -1.3108   -1.8284 C   0  0  0  0  0  0  0  0  0  0  0  0
   -1.6474   -0.7903   -2.9132 O   0  0  0  0  0  0  0  0  0  0  0  0
   -2.1947   -0.9925   -0.7162 O   0  0  0  0  0  0  0  0  0  0  0  0
   -3.1264    0.0834   -0.8829 C   0  0  2  0  0  0  0  0  0  0  0  0
   -3.6279    0.0113   -1.8653 H   0  0  0  0  0  0  0  0  0  0  0  0
   -2.3810    1.4085   -0.7080 C   0  0  2  0  0  0  0  0  0  0  0  0
   -1.3873    1.4003   -1.2079 H   0  0  0  0  0  0  0  0  0  0  0  0
   -2.3376    1.6100    0.8201 C   0  0  1  0  0  0  0  0  0  0  0  0
   -1.4003    1.3354    1.3413 H   0  0  0  0  0  0  0  0  0  0  0  0
   -4.0832    0.1098    0.3118 C   0  0  1  0  0  0  0  0  0  0  0  0
   -5.0029    0.6637    0.0110 H   0  0  0  0  0  0  0  0  0  0  0  0
   -4.4913   -1.2626    0.8522 C   0  0  1  0  0  0  0  0  0  0  0  0
   -3.5828   -1.7887    1.2086 H   0  0  0  0  0  0  0  0  0  0  0  0
   -5.5866   -1.1566    1.9184 C   0  0  0  0  0  0  0  0  0  0  0  0
   -5.5613   -2.0338    2.6075 H   0  0  0  0  0  0  0  0  0  0  0  0
   -5.5239   -0.2271    2.5156 H   0  0  0  0  0  0  0  0  0  0  0  0
   -6.5454   -2.0044    0.0312 C   0  0  0  0  0  0  0  0  0  0  0  0
   -3.2319    3.5148   -0.1474 C   0  0  0  0  0  0  0  0  0  0  0  0
   -2.4982    4.7562   -0.6457 C   0  0  0  0  0  0  0  0  0  0  0  0
   -1.4639    4.4890   -0.9368 H   0  0  0  0  0  0  0  0  0  0  0  0
   -2.4602    5.5277    0.1479 H   0  0  0  0  0  0  0  0  0  0  0  0
   -3.0166    5.1773   -1.5283 H   0  0  0  0  0  0  0  0  0  0  0  0
   -4.6887    3.7799    0.2233 C   0  0  0  0  0  0  0  0  0  0  0  0
   -5.1366    2.8654    0.6549 H   0  0  0  0  0  0  0  0  0  0  0  0
   -5.2639    4.0779   -0.6746 H   0  0  0  0  0  0  0  0  0  0  0  0
   -4.7522    4.5901    0.9751 H   0  0  0  0  0  0  0  0  0  0  0  0
   -7.0021   -3.4295    0.3554 C   0  0  0  0  0  0  0  0  0  0  0  0
   -6.5088   -3.7906    1.2786 H   0  0  0  0  0  0  0  0  0  0  0  0
   -6.7272   -4.1148   -0.4695 H   0  0  0  0  0  0  0  0  0  0  0  0
   -8.0996   -3.4624    0.5007 H   0  0  0  0  0  0  0  0  0  0  0  0
   -7.2402   -1.4226   -1.1933 C   0  0  0  0  0  0  0  0  0  0  0  0
   -6.8510   -0.4067   -1.3951 H   0  0  0  0  0  0  0  0  0  0  0  0
   -8.3326   -1.3603   -1.0238 H   0  0  0  0  0  0  0  0  0  0  0  0
   -7.0511   -2.0602   -2.0778 H   0  0  0  0  0  0  0  0  0  0  0  0
   -3.1881    2.4872   -1.1518 O   0  0  0  0  0  0  0  0  0  0  0  0
   -2.5123    2.9952    0.9858 O   0  0  0  0  0  0  0  0  0  0  0  0
   -3.3958    0.8245    1.3527 O   0  0  0  0  0  0  0  0  0  0  0  0
   -5.1155   -2.0236   -0.1787 O   0  0  0  0  0  0  0  0  0  0  0  0
   -6.7712   -1.1267    1.1346 O   0  0  0  0  0  0  0  0  0  0  0  0
  1  3  1  0  0  0  0
  2  1  1  0  0  0  0
  4  1  1  0  0  0  0
  4  6  1  0  0  0  0
  5  4  2  0  0  0  0
  7  8  1  6  0  0  0
  7  6  1  0  0  0  0
  7  9  1  0  0  0  0
  7 13  1  0  0  0  0
  9 10  1  6  0  0  0
  9 11  1  0  0  0  0
 11 39  1  0  0  0  0
 11 12  1  1  0  0  0
 11 40  1  0  0  0  0
 13 14  1  6  0  0  0
 13 15  1  0  0  0  0
 13 40  1  0  0  0  0
 15 16  1  1  0  0  0
 15 17  1  0  0  0  0
 17 19  1  0  0  0  0
 17 18  1  0  0  0  0
 20 30  1  0  0  0  0
 20 42  1  0  0  0  0
 21 26  1  0  0  0  0
 21 39  1  0  0  0  0
 22 21  1  0  0  0  0
 22 24  1  0  0  0  0
 23 22  1  0  0  0  0
 25 22  1  0  0  0  0
 26 27  1  0  0  0  0
 26 29  1  0  0  0  0
 28 26  1  0  0  0  0
 30 33  1  0  0  0  0
 30 31  1  0  0  0  0
 32 30  1  0  0  0  0
 34 36  1  0  0  0  0
 34 20  1  0  0  0  0
 35 34  1  0  0  0  0
 37 34  1  0  0  0  0
 38  9  1  0  0  0  0
 38 21  1  0  0  0  0
 41 20  1  0  0  0  0
 41 15  1  0  0  0  0
 42 17  1  0  0  0  0
M  END
