1
 OpenBabel05122313113D

 24 25  0  0  0  0  0  0  0  0999 V2000
    0.6560    1.3369    0.0111 C   0  0  0  0  0  0  0  0  0  0  0  0
    1.8761    2.1101   -0.0055 C   0  0  0  0  0  0  0  0  0  0  0  0
    2.6249    2.3199    1.1731 C   0  0  0  0  0  0  0  0  0  0  0  0
    2.1574    1.8620    2.3445 F   0  0  0  0  0  0  0  0  0  0  0  0
    3.8667    2.9710    1.1550 C   0  0  0  0  0  0  0  0  0  0  0  0
    4.5563    3.1524    2.2873 F   0  0  0  0  0  0  0  0  0  0  0  0
    4.3935    3.4286   -0.0656 C   0  0  0  0  0  0  0  0  0  0  0  0
    5.5761    4.0513   -0.0937 F   0  0  0  0  0  0  0  0  0  0  0  0
    3.6738    3.2282   -1.2569 C   0  0  0  0  0  0  0  0  0  0  0  0
    4.1781    3.6607   -2.4181 F   0  0  0  0  0  0  0  0  0  0  0  0
    2.4316    2.5777   -1.2165 C   0  0  0  0  0  0  0  0  0  0  0  0
    1.7772    2.3712   -2.3683 F   0  0  0  0  0  0  0  0  0  0  0  0
   -0.6563    1.3368   -0.0120 C   0  0  0  0  0  0  0  0  0  0  0  0
   -1.8765    2.1099    0.0045 C   0  0  0  0  0  0  0  0  0  0  0  0
   -2.6260    2.3188   -1.1737 C   0  0  0  0  0  0  0  0  0  0  0  0
   -2.1591    1.8600   -2.3450 F   0  0  0  0  0  0  0  0  0  0  0  0
   -3.8678    2.9699   -1.1555 C   0  0  0  0  0  0  0  0  0  0  0  0
   -4.5580    3.1504   -2.2875 F   0  0  0  0  0  0  0  0  0  0  0  0
   -4.3939    3.4284    0.0651 C   0  0  0  0  0  0  0  0  0  0  0  0
   -5.5765    4.0512    0.0934 F   0  0  0  0  0  0  0  0  0  0  0  0
   -3.6735    3.2290    1.2561 C   0  0  0  0  0  0  0  0  0  0  0  0
   -4.1771    3.6624    2.4173 F   0  0  0  0  0  0  0  0  0  0  0  0
   -2.4313    2.5784    1.2155 C   0  0  0  0  0  0  0  0  0  0  0  0
   -1.7763    2.3729    2.3671 F   0  0  0  0  0  0  0  0  0  0  0  0
  2  1  1  0  0  0  0
  2  3  1  0  0  0  0
  3  4  1  0  0  0  0
  5  3  2  0  0  0  0
  5  6  1  0  0  0  0
  7  5  1  0  0  0  0
  8  7  1  0  0  0  0
  9 11  1  0  0  0  0
  9  7  2  0  0  0  0
 10  9  1  0  0  0  0
 11  2  2  0  0  0  0
 12 11  1  0  0  0  0
 13 14  1  0  0  0  0
 13  1  2  0  0  0  0
 14 23  1  0  0  0  0
 15 17  1  0  0  0  0
 15 14  2  0  0  0  0
 16 15  1  0  0  0  0
 17 19  2  0  0  0  0
 18 17  1  0  0  0  0
 19 20  1  0  0  0  0
 19 21  1  0  0  0  0
 21 22  1  0  0  0  0
 23 21  2  0  0  0  0
 23 24  1  0  0  0  0
M  END
