6
 OpenBabel05122313113D

 38 39  0  0  1  0  0  0  0  0999 V2000
    1.8992   -1.0964    1.6480 O   0  0  0  0  0  0  0  0  0  0  0  0
    0.8647   -0.1289   -0.1436 N   0  0  0  0  0  0  0  0  0  0  0  0
   -0.3908   -0.5363    0.4091 C   0  0  1  0  0  3  0  0  0  0  0  0
   -1.0882   -1.6591   -0.1460 C   0  0  0  0  0  0  0  0  0  0  0  0
   -2.3427   -2.0403    0.4202 C   0  0  0  0  0  0  0  0  0  0  0  0
   -2.8810   -1.3275    1.5199 C   0  0  0  0  0  3  0  0  0  0  0  0
   -2.1601   -0.2496    2.1030 C   0  0  0  0  0  0  0  0  0  0  0  0
   -0.9237    0.1747    1.5432 C   0  0  0  0  0  0  0  0  0  0  0  0
   -0.1658    1.3189    2.1538 C   0  0  0  0  0  0  0  0  0  0  0  0
   -0.4995   -2.4559   -1.2821 C   0  0  0  0  0  0  0  0  0  0  0  0
    0.8894    0.5412   -1.4414 C   0  0  0  0  0  0  0  0  0  0  0  0
    1.9888   -0.4246    0.6187 C   0  0  0  0  0  0  0  0  0  0  0  0
    3.3101    0.1326    0.1576 C   0  0  0  0  0  0  0  0  0  0  0  0
    4.3957   -0.7470   -0.0914 C   0  0  0  0  0  0  0  0  0  0  0  0
    5.6395   -0.1804   -0.4285 C   0  0  0  0  0  0  0  0  0  0  0  0
    5.8211    1.2095   -0.4970 C   0  0  0  0  0  0  0  0  0  0  0  0
    4.7461    2.0701   -0.2323 C   0  0  0  0  0  0  0  0  0  0  0  0
    3.4938    1.5273    0.0863 C   0  0  0  0  0  0  0  0  0  0  0  0
    4.2247   -2.2413    0.0051 C   0  0  0  0  0  0  0  0  0  0  0  0
   -2.9050   -2.8698   -0.0295 H   0  0  0  0  0  0  0  0  0  0  0  0
   -3.8669   -1.6043    1.9189 H   0  0  0  0  0  0  0  0  0  0  0  0
   -2.5905    0.3098    2.9444 H   0  0  0  0  0  0  0  0  0  0  0  0
   -0.8293    1.9470    2.7761 H   0  0  0  0  0  0  0  0  0  0  0  0
    0.6490    0.9134    2.7879 H   0  0  0  0  0  0  0  0  0  0  0  0
    0.2976    1.9610    1.3821 H   0  0  0  0  0  0  0  0  0  0  0  0
   -0.8364   -3.5081   -1.2242 H   0  0  0  0  0  0  0  0  0  0  0  0
   -0.8076   -2.0651   -2.2729 H   0  0  0  0  0  0  0  0  0  0  0  0
    0.6063   -2.4399   -1.2378 H   0  0  0  0  0  0  0  0  0  0  0  0
    1.9173    0.5250   -1.8447 H   0  0  0  0  0  0  0  0  0  0  0  0
    0.2211    0.0233   -2.1543 H   0  0  0  0  0  0  0  0  0  0  0  0
    0.5455    1.5938   -1.3641 H   0  0  0  0  0  0  0  0  0  0  0  0
    2.6438    2.1961    0.2931 H   0  0  0  0  0  0  0  0  0  0  0  0
    4.8794    3.1614   -0.2762 H   0  0  0  0  0  0  0  0  0  0  0  0
    6.8085    1.6204   -0.7567 H   0  0  0  0  0  0  0  0  0  0  0  0
    6.4877   -0.8514   -0.6369 H   0  0  0  0  0  0  0  0  0  0  0  0
    3.4135   -2.6019   -0.6622 H   0  0  0  0  0  0  0  0  0  0  0  0
    5.1557   -2.7716   -0.2706 H   0  0  0  0  0  0  0  0  0  0  0  0
    3.9309   -2.5311    1.0331 H   0  0  0  0  0  0  0  0  0  0  0  0
  2 12  1  0  0  0  0
  3  2  1  1  0  0  0
  3  8  1  0  0  0  0
  4  3  1  0  0  0  0
  4  5  2  0  0  0  0
  5  6  1  0  0  0  0
  6 21  1  0  0  0  0
  6  7  1  0  0  0  0
  7 22  1  0  0  0  0
  8  7  2  0  0  0  0
  8  9  1  0  0  0  0
  9 23  1  0  0  0  0
  9 24  1  0  0  0  0
 10 28  1  0  0  0  0
 10 26  1  0  0  0  0
 10  4  1  0  0  0  0
 11 31  1  0  0  0  0
 11  2  1  0  0  0  0
 12  1  2  0  0  0  0
 13 12  1  0  0  0  0
 14 19  1  0  0  0  0
 14 13  2  0  0  0  0
 15 14  1  0  0  0  0
 16 15  2  0  0  0  0
 16 17  1  0  0  0  0
 17 18  2  0  0  0  0
 18 13  1  0  0  0  0
 18 32  1  0  0  0  0
 19 38  1  0  0  0  0
 20  5  1  0  0  0  0
 25  9  1  0  0  0  0
 27 10  1  0  0  0  0
 29 11  1  0  0  0  0
 30 11  1  0  0  0  0
 33 17  1  0  0  0  0
 34 16  1  0  0  0  0
 35 15  1  0  0  0  0
 36 19  1  0  0  0  0
 37 19  1  0  0  0  0
M  END
