11
 OpenBabel05122313113D

 53 55  0  0  1  0  0  0  0  0999 V2000
    1.0317   -1.6653   -0.3721 N   0  0  0  0  0  0  0  0  0  0  0  0
   -0.8505   -1.7108    0.6968 N   0  0  0  0  0  0  0  0  0  0  0  0
    4.7242   -1.0030   -1.2158 C   0  0  0  0  0  0  0  0  0  0  0  0
    6.0613   -1.4609   -0.6192 C   0  0  0  0  0  0  0  0  0  0  0  0
    6.1089   -1.2478    0.8977 C   0  0  0  0  0  0  0  0  0  0  0  0
    4.9197   -1.9316    1.5815 C   0  0  0  0  0  0  0  0  0  0  0  0
    3.5845   -1.4699    0.9868 C   0  0  0  0  0  0  0  0  0  0  0  0
    3.5164   -1.6785   -0.5374 C   0  0  0  0  0  0  0  0  0  0  0  0
    2.1841   -1.1848   -1.1479 C   0  0  1  0  0  0  0  0  0  0  0  0
    1.9949   -1.5392   -2.6246 C   0  0  0  0  0  0  0  0  0  0  0  0
    0.0284   -0.8422    0.0872 C   0  0  0  0  0  2  0  0  0  0  0  0
    0.7786   -2.9974   -0.0675 C   0  0  0  0  0  0  0  0  0  0  0  0
   -0.4094   -3.0260    0.6128 C   0  0  0  0  0  0  0  0  0  0  0  0
   -2.1165   -1.5950    2.7973 C   0  0  0  0  0  0  0  0  0  0  0  0
   -2.1205   -1.2900    1.2974 C   0  0  2  0  0  0  0  0  0  0  0  0
   -3.3326   -1.8734    0.5353 C   0  0  0  0  0  0  0  0  0  0  0  0
   -3.2092   -1.6584   -0.9830 C   0  0  0  0  0  0  0  0  0  0  0  0
   -4.4291   -2.1799   -1.7488 C   0  0  0  0  0  0  0  0  0  0  0  0
   -5.7304   -1.5604   -1.2276 C   0  0  0  0  0  0  0  0  0  0  0  0
   -5.8739   -1.7868    0.2814 C   0  0  0  0  0  0  0  0  0  0  0  0
   -4.6525   -1.2679    1.0515 C   0  0  0  0  0  0  0  0  0  0  0  0
    4.6232    0.0997   -1.0939 H   0  0  0  0  0  0  0  0  0  0  0  0
    4.7142   -1.1977   -2.3071 H   0  0  0  0  0  0  0  0  0  0  0  0
    6.2059   -2.5428   -0.8398 H   0  0  0  0  0  0  0  0  0  0  0  0
    6.8995   -0.9287   -1.1158 H   0  0  0  0  0  0  0  0  0  0  0  0
    6.0757   -0.1559    1.1143 H   0  0  0  0  0  0  0  0  0  0  0  0
    7.0682   -1.6204    1.3144 H   0  0  0  0  0  0  0  0  0  0  0  0
    4.9346   -1.7416    2.6753 H   0  0  0  0  0  0  0  0  0  0  0  0
    5.0122   -3.0345    1.4571 H   0  0  0  0  0  0  0  0  0  0  0  0
    2.7419   -1.9895    1.4857 H   0  0  0  0  0  0  0  0  0  0  0  0
    3.4424   -0.3867    1.1968 H   0  0  0  0  0  0  0  0  0  0  0  0
    3.5993   -2.7752   -0.7344 H   0  0  0  0  0  0  0  0  0  0  0  0
    2.1278   -0.0784   -1.0343 H   0  0  0  0  0  0  0  0  0  0  0  0
    1.0218   -1.1400   -2.9725 H   0  0  0  0  0  0  0  0  0  0  0  0
    2.7923   -1.0892   -3.2464 H   0  0  0  0  0  0  0  0  0  0  0  0
    2.0169   -2.6384   -2.7782 H   0  0  0  0  0  0  0  0  0  0  0  0
    1.4595   -3.8067   -0.3456 H   0  0  0  0  0  0  0  0  0  0  0  0
   -0.9694   -3.8653    1.0349 H   0  0  0  0  0  0  0  0  0  0  0  0
   -2.9845   -1.1297    3.3013 H   0  0  0  0  0  0  0  0  0  0  0  0
   -1.1948   -1.1999    3.2679 H   0  0  0  0  0  0  0  0  0  0  0  0
   -2.1595   -2.6870    2.9918 H   0  0  0  0  0  0  0  0  0  0  0  0
   -2.1165   -0.1891    1.1415 H   0  0  0  0  0  0  0  0  0  0  0  0
   -3.3683   -2.9732    0.7323 H   0  0  0  0  0  0  0  0  0  0  0  0
   -2.2859   -2.1365   -1.3665 H   0  0  0  0  0  0  0  0  0  0  0  0
   -3.0735   -0.5732   -1.1835 H   0  0  0  0  0  0  0  0  0  0  0  0
   -4.3045   -1.9740   -2.8321 H   0  0  0  0  0  0  0  0  0  0  0  0
   -4.4871   -3.2878   -1.6450 H   0  0  0  0  0  0  0  0  0  0  0  0
   -5.7204   -0.4663   -1.4332 H   0  0  0  0  0  0  0  0  0  0  0  0
   -6.6083   -1.9736   -1.7675 H   0  0  0  0  0  0  0  0  0  0  0  0
   -6.7965   -1.3034    0.6662 H   0  0  0  0  0  0  0  0  0  0  0  0
   -5.9890   -2.8770    0.4777 H   0  0  0  0  0  0  0  0  0  0  0  0
   -4.7812   -1.4702    2.1349 H   0  0  0  0  0  0  0  0  0  0  0  0
   -4.5930   -0.1601    0.9425 H   0  0  0  0  0  0  0  0  0  0  0  0
  1 12  1  0  0  0  0
  1 11  1  0  0  0  0
  2 15  1  0  0  0  0
  3 22  1  0  0  0  0
  3  4  1  0  0  0  0
  3  8  1  0  0  0  0
  4  5  1  0  0  0  0
  5 26  1  0  0  0  0
  5 27  1  0  0  0  0
  5  6  1  0  0  0  0
  6 28  1  0  0  0  0
  7 31  1  0  0  0  0
  7 30  1  0  0  0  0
  7  6  1  0  0  0  0
  8  7  1  0  0  0  0
  9 33  1  1  0  0  0
  9  8  1  0  0  0  0
  9  1  1  0  0  0  0
 10  9  1  0  0  0  0
 11  2  1  0  0  0  0
 12 13  2  0  0  0  0
 13  2  1  0  0  0  0
 13 38  1  0  0  0  0
 14 41  1  0  0  0  0
 14 40  1  0  0  0  0
 14 39  1  0  0  0  0
 15 42  1  6  0  0  0
 15 14  1  0  0  0  0
 16 43  1  0  0  0  0
 16 21  1  0  0  0  0
 16 15  1  0  0  0  0
 17 16  1  0  0  0  0
 18 47  1  0  0  0  0
 18 19  1  0  0  0  0
 18 17  1  0  0  0  0
 19 20  1  0  0  0  0
 20 51  1  0  0  0  0
 20 50  1  0  0  0  0
 20 21  1  0  0  0  0
 21 52  1  0  0  0  0
 23  3  1  0  0  0  0
 24  4  1  0  0  0  0
 25  4  1  0  0  0  0
 29  6  1  0  0  0  0
 32  8  1  0  0  0  0
 34 10  1  0  0  0  0
 35 10  1  0  0  0  0
 36 10  1  0  0  0  0
 37 12  1  0  0  0  0
 44 17  1  0  0  0  0
 45 17  1  0  0  0  0
 46 18  1  0  0  0  0
 48 19  1  0  0  0  0
 49 19  1  0  0  0  0
 53 21  1  0  0  0  0
M  END
