11
 OpenBabel05122313113D

 50 52  0  0  0  0  0  0  0  0999 V2000
   -2.6584    2.6235   -1.0641 O   0  0  0  0  0  0  0  0  0  0  0  0
    0.1037    0.3588   -3.9359 O   0  0  0  0  0  0  0  0  0  0  0  0
   -4.6796    0.3071    0.3741 O   0  0  0  0  0  0  0  0  0  0  0  0
   -0.4846    0.9424   -1.0586 N   0  0  0  0  0  0  0  0  0  0  0  0
    0.5195    0.7679   -1.1865 H   0  0  0  0  0  0  0  0  0  0  0  0
   -0.6250   -1.2790   -1.8777 N   0  0  0  0  0  0  0  0  0  0  0  0
   -2.4981   -0.2303   -0.9279 N   0  0  0  0  0  0  0  0  0  0  0  0
   -2.8869    0.6937   -0.7131 H   0  0  0  0  0  0  0  0  0  0  0  0
   -1.1812   -0.2359   -1.3328 C   0  0  0  0  0  0  0  0  0  0  0  0
   -0.7145    1.8334    0.0277 C   0  0  0  0  0  0  0  0  0  0  0  0
    0.1952    1.8409    1.1110 C   0  0  0  0  0  3  0  0  0  0  0  0
    0.0320    2.8090    2.1271 C   0  0  0  0  0  0  0  0  0  0  0  0
    0.7313    2.8304    2.9780 H   0  0  0  0  0  0  0  0  0  0  0  0
   -1.0369    3.7172    2.0894 C   0  0  0  0  0  0  0  0  0  0  0  0
   -1.1612    4.4582    2.8946 H   0  0  0  0  0  0  0  0  0  0  0  0
   -1.9678    3.6825    1.0379 C   0  0  0  0  0  0  0  0  0  0  0  0
   -2.8063    4.3908    1.0243 H   0  0  0  0  0  0  0  0  0  0  0  0
   -1.8022    2.7481    0.0005 C   0  0  0  0  0  0  0  0  0  0  0  0
   -3.7924    3.4683   -1.1271 C   0  0  0  0  0  0  0  0  0  0  0  0
   -4.3410    3.1837   -2.0437 H   0  0  0  0  0  0  0  0  0  0  0  0
   -4.4595    3.3301   -0.2473 H   0  0  0  0  0  0  0  0  0  0  0  0
   -3.5011    4.5399   -1.1929 H   0  0  0  0  0  0  0  0  0  0  0  0
    0.7047   -1.2362   -2.2978 C   0  0  0  0  0  0  0  0  0  0  0  0
    1.6882   -2.0606   -1.7136 C   0  0  0  0  0  0  0  0  0  0  0  0
    1.3980   -2.7187   -0.8840 H   0  0  0  0  0  0  0  0  0  0  0  0
    3.0196   -2.0540   -2.1589 C   0  0  0  0  0  0  0  0  0  0  0  0
    3.7489   -2.7062   -1.6550 H   0  0  0  0  0  0  0  0  0  0  0  0
    3.3940   -1.2200   -3.2204 C   0  0  0  0  0  0  0  0  0  0  0  0
    4.4326   -1.2087   -3.5847 H   0  0  0  0  0  0  0  0  0  0  0  0
    2.4352   -0.3944   -3.8398 C   0  0  0  0  0  0  0  0  0  0  0  0
    2.7332    0.2434   -4.6836 H   0  0  0  0  0  0  0  0  0  0  0  0
    1.1001   -0.4011   -3.3955 C   0  0  0  0  0  0  0  0  0  0  0  0
    0.4319    1.2663   -4.9630 C   0  0  0  0  0  0  0  0  0  0  0  0
   -0.5038    1.7931   -5.2279 H   0  0  0  0  0  0  0  0  0  0  0  0
    1.1865    2.0170   -4.6313 H   0  0  0  0  0  0  0  0  0  0  0  0
    0.8253    0.7516   -5.8694 H   0  0  0  0  0  0  0  0  0  0  0  0
   -3.3880   -1.2933   -0.7759 C   0  0  0  0  0  0  0  0  0  0  0  0
   -3.1850   -2.6053   -1.2428 C   0  0  0  0  0  0  0  0  0  0  0  0
   -2.2648   -2.8109   -1.8036 H   0  0  0  0  0  0  0  0  0  0  0  0
   -4.1429   -3.6012   -0.9849 C   0  0  0  0  0  0  0  0  0  0  0  0
   -3.9667   -4.6219   -1.3558 H   0  0  0  0  0  0  0  0  0  0  0  0
   -5.3111   -3.3033   -0.2744 C   0  0  0  0  0  0  0  0  0  0  0  0
   -6.0620   -4.0829   -0.0779 H   0  0  0  0  0  0  0  0  0  0  0  0
   -5.5340   -1.9937    0.1938 C   0  0  0  0  0  0  0  0  0  0  0  0
   -6.4502   -1.7616    0.7533 H   0  0  0  0  0  0  0  0  0  0  0  0
   -4.5825   -0.9964   -0.0520 C   0  0  0  0  0  0  0  0  0  0  0  0
   -5.7786    0.6701    1.1846 C   0  0  0  0  0  0  0  0  0  0  0  0
   -5.6333    1.7330    1.4549 H   0  0  0  0  0  0  0  0  0  0  0  0
   -6.7462    0.5603    0.6453 H   0  0  0  0  0  0  0  0  0  0  0  0
   -5.8197    0.0629    2.1164 H   0  0  0  0  0  0  0  0  0  0  0  0
  1 18  1  0  0  0  0
  2 32  1  0  0  0  0
  3 47  1  0  0  0  0
  4 10  1  0  0  0  0
  5  4  1  0  0  0  0
  6  9  2  0  0  0  0
  7 37  1  0  0  0  0
  7  8  1  0  0  0  0
  9  4  1  0  0  0  0
  9  7  1  0  0  0  0
 10 11  1  0  0  0  0
 11 12  2  0  0  0  0
 12 13  1  0  0  0  0
 14 12  1  0  0  0  0
 14 15  1  0  0  0  0
 16 14  2  0  0  0  0
 17 16  1  0  0  0  0
 18 10  2  0  0  0  0
 18 16  1  0  0  0  0
 19  1  1  0  0  0  0
 19 21  1  0  0  0  0
 20 19  1  0  0  0  0
 22 19  1  0  0  0  0
 23  6  1  0  0  0  0
 23 24  1  0  0  0  0
 24 25  1  0  0  0  0
 26 24  2  0  0  0  0
 26 27  1  0  0  0  0
 28 26  1  0  0  0  0
 29 28  1  0  0  0  0
 30 32  1  0  0  0  0
 30 28  2  0  0  0  0
 31 30  1  0  0  0  0
 32 23  2  0  0  0  0
 33 35  1  0  0  0  0
 33  2  1  0  0  0  0
 34 33  1  0  0  0  0
 36 33  1  0  0  0  0
 37 46  1  0  0  0  0
 38 40  1  0  0  0  0
 38 37  2  0  0  0  0
 39 38  1  0  0  0  0
 40 42  2  0  0  0  0
 41 40  1  0  0  0  0
 42 43  1  0  0  0  0
 42 44  1  0  0  0  0
 44 45  1  0  0  0  0
 46 44  2  0  0  0  0
 46  3  1  0  0  0  0
 47 48  1  0  0  0  0
 47 50  1  0  0  0  0
 49 47  1  0  0  0  0
M  END
