1
 OpenBabel05122313113D

 54 59  0  0  1  0  0  0  0  0999 V2000
    0.3297    0.9516    0.1901 C   0  0  2  0  0  3  0  0  0  0  0  0
   -0.8795    0.4081    0.8097 C   0  0  0  0  0  0  0  0  0  0  0  0
   -0.6382   -0.9460    1.1809 C   0  0  0  0  0  0  0  0  0  0  0  0
    0.7230   -1.2796    0.8233 C   0  0  0  0  0  0  0  0  0  0  0  0
    1.3222   -0.1126    0.2471 C   0  0  0  0  0  0  0  0  0  0  0  0
   -2.1007    1.0643    1.3866 C   0  0  1  0  0  0  0  0  0  0  0  0
   -3.3802    0.1264    1.3753 C   0  0  0  0  0  0  0  0  0  0  0  0
   -2.6806   -0.6334    2.5592 C   0  0  1  0  0  0  0  0  0  0  0  0
   -1.6467   -1.6600    2.0356 C   0  0  0  0  0  0  0  0  0  0  0  0
   -1.9836    0.7114    2.9145 C   0  0  0  0  0  0  0  0  0  0  0  0
   -3.7768   -0.6803    0.1444 C   0  0  0  0  0  0  0  0  0  0  0  0
   -4.6146    0.9169    1.8392 C   0  0  0  0  0  0  0  0  0  0  0  0
    2.7989   -0.1797   -0.0180 C   0  0  1  0  0  0  0  0  0  0  0  0
    3.4685   -0.6773    1.3426 C   0  0  0  0  0  0  0  0  0  0  0  0
    3.0541   -2.1221    0.8616 C   0  0  1  0  0  0  0  0  0  0  0  0
    1.5826   -2.4602    1.1814 C   0  0  0  0  0  0  0  0  0  0  0  0
    3.1458   -1.5864   -0.5905 C   0  0  0  0  0  0  0  0  0  0  0  0
    2.9269   -0.1568    2.6744 C   0  0  0  0  0  0  0  0  0  0  0  0
    4.9894   -0.4828    1.3239 C   0  0  0  0  0  0  0  0  0  0  0  0
    0.5652    2.3721   -0.1478 C   0  0  0  0  0  0  0  0  0  0  0  0
   -0.3449    3.1113   -0.9352 C   0  0  0  0  0  0  0  0  0  0  0  0
   -0.1253    4.4709   -1.1926 C   0  0  0  0  0  0  0  0  0  0  0  0
    1.0097    5.1167   -0.6751 C   0  0  0  0  0  0  0  0  0  0  0  0
    1.9206    4.3933    0.1095 C   0  0  0  0  0  0  0  0  0  0  0  0
    1.6982    3.0344    0.3753 C   0  0  0  0  0  0  0  0  0  0  0  0
   -2.2234    2.1197    1.0756 H   0  0  0  0  0  0  0  0  0  0  0  0
   -3.3425   -1.0942    3.3208 H   0  0  0  0  0  0  0  0  0  0  0  0
    3.2059    0.7219   -0.5137 H   0  0  0  0  0  0  0  0  0  0  0  0
    3.7265   -2.9531    1.1568 H   0  0  0  0  0  0  0  0  0  0  0  0
   -1.2196    2.6058   -1.3686 H   0  0  0  0  0  0  0  0  0  0  0  0
   -0.8420    5.0286   -1.8142 H   0  0  0  0  0  0  0  0  0  0  0  0
    1.1840    6.1827   -0.8852 H   0  0  0  0  0  0  0  0  0  0  0  0
    2.8098    4.8915    0.5247 H   0  0  0  0  0  0  0  0  0  0  0  0
    2.3994    2.4791    1.0154 H   0  0  0  0  0  0  0  0  0  0  0  0
   -1.1160   -2.1375    2.8880 H   0  0  0  0  0  0  0  0  0  0  0  0
   -2.1291   -2.4853    1.4681 H   0  0  0  0  0  0  0  0  0  0  0  0
   -2.6096    1.3598    3.5523 H   0  0  0  0  0  0  0  0  0  0  0  0
   -0.9587    0.6730    3.3366 H   0  0  0  0  0  0  0  0  0  0  0  0
   -2.9839   -1.3435   -0.2478 H   0  0  0  0  0  0  0  0  0  0  0  0
   -4.1026   -0.0125   -0.6780 H   0  0  0  0  0  0  0  0  0  0  0  0
   -4.6428   -1.3259    0.4007 H   0  0  0  0  0  0  0  0  0  0  0  0
   -4.9698    1.5783    1.0225 H   0  0  0  0  0  0  0  0  0  0  0  0
   -5.4418    0.2208    2.0875 H   0  0  0  0  0  0  0  0  0  0  0  0
   -4.4321    1.5516    2.7269 H   0  0  0  0  0  0  0  0  0  0  0  0
    1.4540   -2.6871    2.2628 H   0  0  0  0  0  0  0  0  0  0  0  0
    1.2552   -3.3663    0.6275 H   0  0  0  0  0  0  0  0  0  0  0  0
    4.1699   -1.6258   -1.0016 H   0  0  0  0  0  0  0  0  0  0  0  0
    2.4448   -2.0214   -1.3265 H   0  0  0  0  0  0  0  0  0  0  0  0
    1.8247   -0.2103    2.7551 H   0  0  0  0  0  0  0  0  0  0  0  0
    3.2230    0.9014    2.8322 H   0  0  0  0  0  0  0  0  0  0  0  0
    3.3550   -0.7435    3.5136 H   0  0  0  0  0  0  0  0  0  0  0  0
    5.2443    0.5919    1.4318 H   0  0  0  0  0  0  0  0  0  0  0  0
    5.4561   -1.0239    2.1728 H   0  0  0  0  0  0  0  0  0  0  0  0
    5.4639   -0.8477    0.3934 H   0  0  0  0  0  0  0  0  0  0  0  0
  1 20  1  1  0  0  0
  1  5  1  0  0  0  0
  1  2  1  0  0  0  0
  2  3  2  0  0  0  0
  2  6  1  0  0  0  0
  3  9  1  0  0  0  0
  4  3  1  0  0  0  0
  4 16  1  0  0  0  0
  5  4  2  0  0  0  0
  6 26  1  6  0  0  0
  6 10  1  0  0  0  0
  7  6  1  0  0  0  0
  7 12  1  0  0  0  0
  7  8  1  0  0  0  0
  8 10  1  0  0  0  0
  8 27  1  1  0  0  0
  9  8  1  0  0  0  0
  9 35  1  0  0  0  0
 10 38  1  0  0  0  0
 10 37  1  0  0  0  0
 11 41  1  0  0  0  0
 11  7  1  0  0  0  0
 12 43  1  0  0  0  0
 12 44  1  0  0  0  0
 13 28  1  6  0  0  0
 13  5  1  0  0  0  0
 13 14  1  0  0  0  0
 14 18  1  0  0  0  0
 15 29  1  1  0  0  0
 15 16  1  0  0  0  0
 15 14  1  0  0  0  0
 16 45  1  0  0  0  0
 17 13  1  0  0  0  0
 17 15  1  0  0  0  0
 18 49  1  0  0  0  0
 18 50  1  0  0  0  0
 18 51  1  0  0  0  0
 19 14  1  0  0  0  0
 19 52  1  0  0  0  0
 19 53  1  0  0  0  0
 20 25  1  0  0  0  0
 21 20  2  0  0  0  0
 22 21  1  0  0  0  0
 22 23  2  0  0  0  0
 23 24  1  0  0  0  0
 24 25  2  0  0  0  0
 24 33  1  0  0  0  0
 25 34  1  0  0  0  0
 30 21  1  0  0  0  0
 31 22  1  0  0  0  0
 32 23  1  0  0  0  0
 36  9  1  0  0  0  0
 39 11  1  0  0  0  0
 40 11  1  0  0  0  0
 42 12  1  0  0  0  0
 46 16  1  0  0  0  0
 47 17  1  0  0  0  0
 48 17  1  0  0  0  0
 54 19  1  0  0  0  0
M  END
