3
 OpenBabel05122313113D

 56 61  0  0  1  0  0  0  0  0999 V2000
   -3.6977   -4.3791   -1.8988 Cl  0  0  0  0  0  0  0  0  0  0  0  0
    2.3756   -1.6038   -0.2311 O   0  0  0  0  0  0  0  0  0  0  0  0
   -0.4455    0.6922   -0.3819 C   0  0  0  0  0  2  0  0  0  0  0  0
    0.9352    0.4347   -0.2376 C   0  0  0  0  0  0  0  0  0  0  0  0
    1.6859    1.2217   -0.1160 H   0  0  0  0  0  0  0  0  0  0  0  0
    1.2304   -0.9428   -0.3139 C   0  0  0  0  0  0  0  0  0  0  0  0
    0.0069   -1.6927   -0.4998 C   0  0  0  0  0  0  0  0  0  0  0  0
   -1.1377   -0.6896   -0.5152 C   0  0  2  0  0  0  0  0  0  0  0  0
   -0.1131   -3.0632   -0.5316 C   0  0  0  0  0  0  0  0  0  0  0  0
    0.7939   -3.6525   -0.3166 H   0  0  0  0  0  0  0  0  0  0  0  0
   -1.3120   -3.7827   -0.8129 C   0  0  0  0  0  0  0  0  0  0  0  0
   -1.3564   -4.8444   -0.5264 H   0  0  0  0  0  0  0  0  0  0  0  0
   -2.3709   -3.2908   -1.5575 C   0  0  0  0  0  0  0  0  0  0  0  0
   -2.4298   -2.0217   -2.2457 C   0  0  0  0  0  0  0  0  0  0  0  0
   -3.0066   -2.0145   -3.1848 H   0  0  0  0  0  0  0  0  0  0  0  0
   -1.8142   -0.8719   -1.8518 C   0  0  0  0  0  0  0  0  0  0  0  0
   -1.8221   -0.0130   -2.5401 H   0  0  0  0  0  0  0  0  0  0  0  0
   -2.0549   -0.8780    0.7078 C   0  0  0  0  0  0  0  0  0  0  0  0
   -1.4636   -1.0248    1.9782 C   0  0  0  0  0  0  0  0  0  0  0  0
   -0.3667   -1.0463    2.0688 H   0  0  0  0  0  0  0  0  0  0  0  0
   -2.2498   -1.1329    3.1288 C   0  0  0  0  0  0  0  0  0  0  0  0
   -1.7612   -1.2423    4.1101 H   0  0  0  0  0  0  0  0  0  0  0  0
   -3.6580   -1.0897    3.0567 C   0  0  0  0  0  0  0  0  0  0  0  0
   -4.2413   -0.9537    1.7836 C   0  0  0  0  0  0  0  0  0  0  0  0
   -5.3386   -0.9270    1.6915 H   0  0  0  0  0  0  0  0  0  0  0  0
   -3.4565   -0.8503    0.6254 C   0  0  0  0  0  0  0  0  0  0  0  0
   -3.9483   -0.7460   -0.3508 H   0  0  0  0  0  0  0  0  0  0  0  0
   -4.5003   -1.1497    4.3048 C   0  0  0  0  0  0  0  0  0  0  0  0
   -5.5390   -1.4644    4.0841 H   0  0  0  0  0  0  0  0  0  0  0  0
   -4.5537   -0.1511    4.7898 H   0  0  0  0  0  0  0  0  0  0  0  0
   -4.0766   -1.8501    5.0523 H   0  0  0  0  0  0  0  0  0  0  0  0
    3.6753   -0.9700    0.0352 C   0  0  2  0  0  0  0  0  0  0  0  0
    4.6533   -2.1534    0.0985 C   0  0  0  0  0  0  0  0  0  0  0  0
    4.6081   -2.7079   -0.8619 H   0  0  0  0  0  0  0  0  0  0  0  0
    4.3240   -2.8490    0.8983 H   0  0  0  0  0  0  0  0  0  0  0  0
    3.6845   -0.2355    1.3865 C   0  0  0  0  0  0  0  0  0  0  0  0
    3.3732   -0.9421    2.1845 H   0  0  0  0  0  0  0  0  0  0  0  0
    2.9644    0.6053    1.3926 H   0  0  0  0  0  0  0  0  0  0  0  0
    4.0891   -0.0336   -1.1120 C   0  0  0  0  0  0  0  0  0  0  0  0
    3.3826    0.8133   -1.2109 H   0  0  0  0  0  0  0  0  0  0  0  0
    4.0615   -0.5978   -2.0676 H   0  0  0  0  0  0  0  0  0  0  0  0
    5.1097    0.2973    1.6516 C   0  0  1  0  0  0  0  0  0  0  0  0
    5.1107    0.8422    2.6185 H   0  0  0  0  0  0  0  0  0  0  0  0
    6.0989   -0.8815    1.7138 C   0  0  0  0  0  0  0  0  0  0  0  0
    5.8254   -1.5671    2.5440 H   0  0  0  0  0  0  0  0  0  0  0  0
    7.1232   -0.5088    1.9264 H   0  0  0  0  0  0  0  0  0  0  0  0
    6.0795   -1.6365    0.3707 C   0  0  2  0  0  0  0  0  0  0  0  0
    6.7748   -2.5007    0.4129 H   0  0  0  0  0  0  0  0  0  0  0  0
    6.4991   -0.6809   -0.7625 C   0  0  0  0  0  0  0  0  0  0  0  0
    6.5168   -1.2205   -1.7334 H   0  0  0  0  0  0  0  0  0  0  0  0
    7.5287   -0.3057   -0.5825 H   0  0  0  0  0  0  0  0  0  0  0  0
    5.5109    0.4990   -0.8296 C   0  0  2  0  0  0  0  0  0  0  0  0
    5.8018    1.1882   -1.6494 H   0  0  0  0  0  0  0  0  0  0  0  0
    5.5125    1.2564    0.5135 C   0  0  0  0  0  0  0  0  0  0  0  0
    4.8090    2.1155    0.4705 H   0  0  0  0  0  0  0  0  0  0  0  0
    6.5215    1.6758    0.7109 H   0  0  0  0  0  0  0  0  0  0  0  0
  1 13  1  0  0  0  0
  3  4  1  0  0  0  0
  4  5  1  0  0  0  0
  6  4  2  0  0  0  0
  6  2  1  0  0  0  0
  7  6  1  0  0  0  0
  8  7  1  0  0  0  0
  8  3  1  0  0  0  0
  8 18  1  1  0  0  0
  9  7  2  0  0  0  0
  9 10  1  0  0  0  0
 11  9  1  0  0  0  0
 11 12  1  0  0  0  0
 13 11  2  0  0  0  0
 14 16  2  0  0  0  0
 14 13  1  0  0  0  0
 15 14  1  0  0  0  0
 16  8  1  0  0  0  0
 17 16  1  0  0  0  0
 18 19  1  0  0  0  0
 19 20  1  0  0  0  0
 19 21  2  0  0  0  0
 21 22  1  0  0  0  0
 23 21  1  0  0  0  0
 23 28  1  0  0  0  0
 24 23  2  0  0  0  0
 25 24  1  0  0  0  0
 26 18  2  0  0  0  0
 26 24  1  0  0  0  0
 27 26  1  0  0  0  0
 28 30  1  0  0  0  0
 28 31  1  0  0  0  0
 29 28  1  0  0  0  0
 32  2  1  6  0  0  0
 32 33  1  0  0  0  0
 32 36  1  0  0  0  0
 33 47  1  0  0  0  0
 33 35  1  0  0  0  0
 34 33  1  0  0  0  0
 36 38  1  0  0  0  0
 36 42  1  0  0  0  0
 36 37  1  0  0  0  0
 39 52  1  0  0  0  0
 39 32  1  0  0  0  0
 40 39  1  0  0  0  0
 41 39  1  0  0  0  0
 42 44  1  0  0  0  0
 42 43  1  1  0  0  0
 44 46  1  0  0  0  0
 44 45  1  0  0  0  0
 47 48  1  1  0  0  0
 47 44  1  0  0  0  0
 49 51  1  0  0  0  0
 49 47  1  0  0  0  0
 50 49  1  0  0  0  0
 52 53  1  6  0  0  0
 52 49  1  0  0  0  0
 52 54  1  0  0  0  0
 54 56  1  0  0  0  0
 54 42  1  0  0  0  0
 55 54  1  0  0  0  0
M  END
