2
 OpenBabel05122313113D

 65 70  0  0  1  0  0  0  0  0999 V2000
    3.0059   -1.6091    0.9199 O   0  0  0  0  0  0  0  0  0  0  0  0
    0.0457    0.4842    0.5896 C   0  0  0  0  0  2  0  0  0  0  0  0
    1.3897    0.1816    0.2796 C   0  0  0  0  0  0  0  0  0  0  0  0
    2.0110    0.8085   -0.3680 H   0  0  0  0  0  0  0  0  0  0  0  0
    1.8366   -0.9858    0.9337 C   0  0  0  0  0  0  0  0  0  0  0  0
    0.7577   -1.5439    1.7245 C   0  0  0  0  0  0  0  0  0  0  0  0
   -0.4577   -0.6548    1.5147 C   0  0  1  0  0  0  0  0  0  0  0  0
   -0.8526   -0.1531    2.8835 C   0  0  0  0  0  0  0  0  0  0  0  0
   -0.8590    0.9380    3.0341 H   0  0  0  0  0  0  0  0  0  0  0  0
   -1.2437   -0.9661    3.9088 C   0  0  0  0  0  0  0  0  0  0  0  0
   -1.6513   -0.4761    4.8099 H   0  0  0  0  0  0  0  0  0  0  0  0
   -1.1567   -2.4037    3.9603 C   0  0  0  0  0  0  0  0  0  0  0  0
   -1.7901   -2.9033    4.7124 H   0  0  0  0  0  0  0  0  0  0  0  0
   -0.2299   -3.1959    3.3060 C   0  0  0  0  0  0  0  0  0  0  0  0
   -0.1913   -4.2608    3.5873 H   0  0  0  0  0  0  0  0  0  0  0  0
    0.7990   -2.7220    2.4338 C   0  0  0  0  0  0  0  0  0  0  0  0
    1.7103   -3.3352    2.3310 H   0  0  0  0  0  0  0  0  0  0  0  0
   -1.5760   -1.3887    0.7519 C   0  0  0  0  0  0  0  0  0  0  0  0
   -2.9319   -1.2645    1.0880 C   0  0  0  0  0  0  0  0  0  0  0  0
   -3.2259   -0.6815    1.9710 H   0  0  0  0  0  0  0  0  0  0  0  0
   -3.9264   -1.8702    0.3028 C   0  0  0  0  0  0  0  0  0  0  0  0
   -4.9749   -1.7341    0.6001 H   0  0  0  0  0  0  0  0  0  0  0  0
   -3.6069   -2.6244   -0.8409 C   0  0  0  0  0  0  0  0  0  0  0  0
   -2.2360   -2.7608   -1.1560 C   0  0  0  0  0  0  0  0  0  0  0  0
   -1.9332   -3.3413   -2.0408 H   0  0  0  0  0  0  0  0  0  0  0  0
   -1.2431   -2.1537   -0.3834 C   0  0  0  0  0  0  0  0  0  0  0  0
   -0.1875   -2.2660   -0.6751 H   0  0  0  0  0  0  0  0  0  0  0  0
   -4.6703   -3.2583   -1.7521 C   0  0  0  0  0  0  0  0  0  0  0  0
   -6.0986   -2.9985   -1.2436 C   0  0  0  0  0  0  0  0  0  0  0  0
   -6.3309   -1.9153   -1.2059 H   0  0  0  0  0  0  0  0  0  0  0  0
   -6.2603   -3.4226   -0.2319 H   0  0  0  0  0  0  0  0  0  0  0  0
   -6.8322   -3.4731   -1.9261 H   0  0  0  0  0  0  0  0  0  0  0  0
   -4.4463   -4.7856   -1.8213 C   0  0  0  0  0  0  0  0  0  0  0  0
   -3.4408   -5.0373   -2.2133 H   0  0  0  0  0  0  0  0  0  0  0  0
   -5.1958   -5.2571   -2.4905 H   0  0  0  0  0  0  0  0  0  0  0  0
   -4.5424   -5.2462   -0.8172 H   0  0  0  0  0  0  0  0  0  0  0  0
   -4.5374   -2.6479   -3.1668 C   0  0  0  0  0  0  0  0  0  0  0  0
   -3.5460   -2.8614   -3.6135 H   0  0  0  0  0  0  0  0  0  0  0  0
   -4.6557   -1.5467   -3.1334 H   0  0  0  0  0  0  0  0  0  0  0  0
   -5.3108   -3.0662   -3.8440 H   0  0  0  0  0  0  0  0  0  0  0  0
    4.1456   -1.1981    0.0877 C   0  0  1  0  0  0  0  0  0  0  0  0
    4.6779    0.1838    0.5026 C   0  0  0  0  0  0  0  0  0  0  0  0
    4.9107    0.1710    1.5879 H   0  0  0  0  0  0  0  0  0  0  0  0
    3.9162    0.9706    0.3402 H   0  0  0  0  0  0  0  0  0  0  0  0
    5.2174   -2.2590    0.3817 C   0  0  0  0  0  0  0  0  0  0  0  0
    5.4319   -2.2603    1.4706 H   0  0  0  0  0  0  0  0  0  0  0  0
    4.8127   -3.2597    0.1228 H   0  0  0  0  0  0  0  0  0  0  0  0
    3.7962   -1.2354   -1.4098 C   0  0  0  0  0  0  0  0  0  0  0  0
    2.9995   -0.5067   -1.6546 H   0  0  0  0  0  0  0  0  0  0  0  0
    3.4099   -2.2445   -1.6657 H   0  0  0  0  0  0  0  0  0  0  0  0
    6.1500   -1.9688   -1.9342 C   0  0  0  0  0  0  0  0  0  0  0  0
    5.7922   -2.9763   -2.2364 H   0  0  0  0  0  0  0  0  0  0  0  0
    7.0606   -1.7562   -2.5332 H   0  0  0  0  0  0  0  0  0  0  0  0
    6.4904   -1.9527   -0.4315 C   0  0  1  0  0  0  0  0  0  0  0  0
    7.2555   -2.7256   -0.2092 H   0  0  0  0  0  0  0  0  0  0  0  0
    7.0225   -0.5606   -0.0403 C   0  0  0  0  0  0  0  0  0  0  0  0
    7.9442   -0.3302   -0.6153 H   0  0  0  0  0  0  0  0  0  0  0  0
    7.2994   -0.5434    1.0354 H   0  0  0  0  0  0  0  0  0  0  0  0
    5.9418    0.4989   -0.3267 C   0  0  1  0  0  0  0  0  0  0  0  0
    6.3141    1.5042   -0.0394 H   0  0  0  0  0  0  0  0  0  0  0  0
    5.5830    0.4852   -1.8263 C   0  0  0  0  0  0  0  0  0  0  0  0
    6.4762    0.7466   -2.4320 H   0  0  0  0  0  0  0  0  0  0  0  0
    4.8102    1.2536   -2.0434 H   0  0  0  0  0  0  0  0  0  0  0  0
    5.0675   -0.9124   -2.2247 C   0  0  2  0  0  0  0  0  0  0  0  0
    4.8099   -0.9229   -3.3042 H   0  0  0  0  0  0  0  0  0  0  0  0
  1  5  1  0  0  0  0
  2  7  1  0  0  0  0
  3  2  1  0  0  0  0
  3  5  2  0  0  0  0
  4  3  1  0  0  0  0
  5  6  1  0  0  0  0
  6 16  2  0  0  0  0
  7 18  1  6  0  0  0
  7  6  1  0  0  0  0
  7  8  1  0  0  0  0
  8  9  1  0  0  0  0
  8 10  2  0  0  0  0
 10 12  1  0  0  0  0
 10 11  1  0  0  0  0
 12 13  1  0  0  0  0
 14 15  1  0  0  0  0
 14 12  2  0  0  0  0
 16 14  1  0  0  0  0
 17 16  1  0  0  0  0
 18 19  1  0  0  0  0
 19 20  1  0  0  0  0
 21 22  1  0  0  0  0
 21 19  2  0  0  0  0
 23 21  1  0  0  0  0
 24 23  2  0  0  0  0
 24 26  1  0  0  0  0
 25 24  1  0  0  0  0
 26 18  2  0  0  0  0
 27 26  1  0  0  0  0
 28 29  1  0  0  0  0
 28 23  1  0  0  0  0
 29 30  1  0  0  0  0
 29 31  1  0  0  0  0
 32 29  1  0  0  0  0
 33 28  1  0  0  0  0
 33 36  1  0  0  0  0
 34 33  1  0  0  0  0
 35 33  1  0  0  0  0
 37 39  1  0  0  0  0
 37 28  1  0  0  0  0
 38 37  1  0  0  0  0
 40 37  1  0  0  0  0
 41 45  1  0  0  0  0
 41 42  1  0  0  0  0
 41  1  1  1  0  0  0
 42 43  1  0  0  0  0
 44 42  1  0  0  0  0
 45 46  1  0  0  0  0
 47 45  1  0  0  0  0
 48 41  1  0  0  0  0
 49 48  1  0  0  0  0
 50 48  1  0  0  0  0
 51 54  1  0  0  0  0
 52 51  1  0  0  0  0
 53 51  1  0  0  0  0
 54 55  1  1  0  0  0
 54 56  1  0  0  0  0
 54 45  1  0  0  0  0
 56 58  1  0  0  0  0
 57 56  1  0  0  0  0
 59 56  1  0  0  0  0
 59 60  1  1  0  0  0
 59 42  1  0  0  0  0
 61 59  1  0  0  0  0
 62 61  1  0  0  0  0
 63 61  1  0  0  0  0
 64 65  1  6  0  0  0
 64 51  1  0  0  0  0
 64 61  1  0  0  0  0
 64 48  1  0  0  0  0
M  END
