3
 OpenBabel05122313113D

 34 35  0  0  1  0  0  0  0  0999 V2000
    1.4854    4.5967   -0.6057 O   0  0  0  0  0  0  0  0  0  0  0  0
    5.1555    1.5680   -0.0625 O   0  0  0  0  0  0  0  0  0  0  0  0
    0.7958   -0.0716   -1.6960 C   0  0  2  0  0  3  0  0  0  0  0  0
   -0.6388   -0.0861   -1.5978 C   0  0  0  0  0  0  0  0  0  0  0  0
   -1.2650    0.7294   -1.2182 H   0  0  0  0  0  0  0  0  0  0  0  0
   -1.1276   -1.3237   -2.1073 C   0  0  0  0  0  0  0  0  0  0  0  0
    0.0122   -2.1087   -2.5074 C   0  0  0  0  0  0  0  0  0  0  0  0
    1.1773   -1.3300   -2.2622 C   0  0  0  0  0  0  0  0  0  0  0  0
    2.2020   -1.6528   -2.4747 H   0  0  0  0  0  0  0  0  0  0  0  0
   -2.5628   -1.7102   -2.2922 C   0  0  0  0  0  0  0  0  0  0  0  0
   -3.2372   -1.0808   -1.6813 H   0  0  0  0  0  0  0  0  0  0  0  0
   -2.7353   -2.7686   -2.0158 H   0  0  0  0  0  0  0  0  0  0  0  0
   -2.8541   -1.5868   -3.3576 H   0  0  0  0  0  0  0  0  0  0  0  0
   -0.0316   -3.4700   -3.1305 C   0  0  0  0  0  0  0  0  0  0  0  0
   -0.3843   -3.4111   -4.1822 H   0  0  0  0  0  0  0  0  0  0  0  0
   -0.7232   -4.1376   -2.5790 H   0  0  0  0  0  0  0  0  0  0  0  0
    0.9700   -3.9406   -3.1293 H   0  0  0  0  0  0  0  0  0  0  0  0
    1.6977    1.0215   -1.2901 C   0  0  0  0  0  0  0  0  0  0  0  0
    1.2125    2.3344   -1.1798 C   0  0  0  0  0  0  0  0  0  0  0  0
    0.1811    2.5852   -1.4594 H   0  0  0  0  0  0  0  0  0  0  0  0
    2.0554    3.3583   -0.6966 C   0  0  0  0  0  0  0  0  0  0  0  0
    3.3825    3.0803   -0.3343 C   0  0  0  0  0  0  0  0  0  0  0  0
    4.0689    3.8429    0.0527 H   0  0  0  0  0  0  0  0  0  0  0  0
    3.8685    1.7580   -0.4634 C   0  0  0  0  0  0  0  0  0  0  0  0
    3.0402    0.7321   -0.9444 C   0  0  0  0  0  0  0  0  0  0  0  0
    3.3920   -0.3056   -0.9874 H   0  0  0  0  0  0  0  0  0  0  0  0
    2.2776    5.6679   -0.1279 C   0  0  0  0  0  0  0  0  0  0  0  0
    2.6336    5.4899    0.9117 H   0  0  0  0  0  0  0  0  0  0  0  0
    1.6313    6.5653   -0.1394 H   0  0  0  0  0  0  0  0  0  0  0  0
    3.1611    5.8496   -0.7793 H   0  0  0  0  0  0  0  0  0  0  0  0
    5.7147    0.2719   -0.2037 C   0  0  0  0  0  0  0  0  0  0  0  0
    5.1631   -0.4879    0.3929 H   0  0  0  0  0  0  0  0  0  0  0  0
    6.7539    0.3394    0.1672 H   0  0  0  0  0  0  0  0  0  0  0  0
    5.7269   -0.0561   -1.2668 H   0  0  0  0  0  0  0  0  0  0  0  0
  1 27  1  0  0  0  0
  3  4  1  0  0  0  0
  3 18  1  1  0  0  0
  4  5  1  0  0  0  0
  6  4  2  0  0  0  0
  7  8  2  0  0  0  0
  7  6  1  0  0  0  0
  8  3  1  0  0  0  0
  9  8  1  0  0  0  0
 10  6  1  0  0  0  0
 10 12  1  0  0  0  0
 10 11  1  0  0  0  0
 13 10  1  0  0  0  0
 14 17  1  0  0  0  0
 14 16  1  0  0  0  0
 14  7  1  0  0  0  0
 15 14  1  0  0  0  0
 18 19  2  0  0  0  0
 18 25  1  0  0  0  0
 19 21  1  0  0  0  0
 20 19  1  0  0  0  0
 21  1  1  0  0  0  0
 21 22  2  0  0  0  0
 22 23  1  0  0  0  0
 24 22  1  0  0  0  0
 24  2  1  0  0  0  0
 25 24  2  0  0  0  0
 26 25  1  0  0  0  0
 27 28  1  0  0  0  0
 29 27  1  0  0  0  0
 30 27  1  0  0  0  0
 31  2  1  0  0  0  0
 31 33  1  0  0  0  0
 31 32  1  0  0  0  0
 34 31  1  0  0  0  0
M  END
