2
 OpenBabel05122313113D

 18 18  0  0  1  0  0  0  0  0999 V2000
   -1.7164   -0.0937   -1.3862 C   0  0  2  0  0  3  0  0  0  0  0  0
   -1.8421   -1.4901   -1.0071 C   0  0  0  0  0  3  0  0  0  0  0  0
   -2.6590   -1.9091   -0.4065 H   0  0  0  0  0  0  0  0  0  0  0  0
   -0.6963   -2.2123   -1.4882 C   0  0  0  0  0  0  0  0  0  0  0  0
   -0.5112   -3.2868   -1.3678 H   0  0  0  0  0  0  0  0  0  0  0  0
    0.1532   -1.2906   -2.2031 C   0  0  0  0  0  0  0  0  0  0  0  0
    1.0739   -1.5400   -2.7428 H   0  0  0  0  0  0  0  0  0  0  0  0
   -0.4862   -0.0074   -2.1562 C   0  0  0  0  0  3  0  0  0  0  0  0
   -0.0889    0.9117   -2.6051 H   0  0  0  0  0  0  0  0  0  0  0  0
   -1.8197    1.0872    0.0691 Si  0  0  0  0  0  3  0  0  0  0  0  0
   -3.2916    0.8273    1.2343 C   0  0  0  0  0  0  0  0  0  0  0  0
   -4.2080    1.3270    0.8570 H   0  0  0  0  0  0  0  0  0  0  0  0
   -3.0646    1.2554    2.2331 H   0  0  0  0  0  0  0  0  0  0  0  0
   -3.5039   -0.2508    1.3731 H   0  0  0  0  0  0  0  0  0  0  0  0
   -1.7037    2.9215   -0.3899 C   0  0  0  0  0  0  0  0  0  0  0  0
   -0.9524    3.0891   -1.1856 H   0  0  0  0  0  0  0  0  0  0  0  0
   -1.4145    3.5395    0.4841 H   0  0  0  0  0  0  0  0  0  0  0  0
   -2.6873    3.2872   -0.7515 H   0  0  0  0  0  0  0  0  0  0  0  0
  1  2  1  0  0  0  0
  1 10  1  1  0  0  0
  2  3  1  0  0  0  0
  4  5  1  0  0  0  0
  4  2  1  0  0  0  0
  6  8  1  0  0  0  0
  6  4  2  0  0  0  0
  7  6  1  0  0  0  0
  8  1  1  0  0  0  0
  9  8  1  0  0  0  0
 10 11  1  0  0  0  0
 11 14  1  0  0  0  0
 11 13  1  0  0  0  0
 12 11  1  0  0  0  0
 15 10  1  0  0  0  0
 15 17  1  0  0  0  0
 16 15  1  0  0  0  0
 18 15  1  0  0  0  0
M  END
