3
 OpenBabel05122313113D

 10  9  0  0  0  0  0  0  0  0999 V2000
   -0.3155   -2.1493    0.6002 S   0  0  0  0  0  1  0  0  0  0  0  0
    1.2187    0.0082    2.5640 O   0  0  0  0  0  0  0  0  0  0  0  0
   -0.8838   -0.8627    1.6991 C   0  0  0  0  0  3  0  0  0  0  0  0
   -1.7747   -1.2096    2.2528 H   0  0  0  0  0  0  0  0  0  0  0  0
    0.0010   -0.0558    2.5660 C   0  0  0  0  0  0  0  0  0  0  0  0
   -0.7719    0.6894    3.4147 O   0  0  0  0  0  0  0  0  0  0  0  0
   -0.0414    1.5363    4.3121 C   0  0  0  0  0  0  0  0  0  0  0  0
    0.5324    2.3048    3.7545 H   0  0  0  0  0  0  0  0  0  0  0  0
    0.6740    0.9459    4.9182 H   0  0  0  0  0  0  0  0  0  0  0  0
   -0.7958    2.0170    4.9599 H   0  0  0  0  0  0  0  0  0  0  0  0
  1  3  1  0  0  0  0
  2  5  2  0  0  0  0
  3  4  1  0  0  0  0
  3  5  1  0  0  0  0
  5  6  1  0  0  0  0
  6  7  1  0  0  0  0
  7  9  1  0  0  0  0
  7 10  1  0  0  0  0
  8  7  1  0  0  0  0
M  END
