5
 OpenBabel05122313113D

 41 43  0  0  0  0  0  0  0  0999 V2000
   -3.7508    2.6610   -0.8966 S   0  0  0  0  0  0  0  0  0  0  0  0
   -3.7509   -2.6608    0.8968 S   0  0  0  0  0  0  0  0  0  0  0  0
    0.9872    1.0715   -0.1437 N   0  0  0  0  0  0  0  0  0  0  0  0
    0.9872   -1.0717    0.1433 N   0  0  0  0  0  0  0  0  0  0  0  0
    1.8219   -0.0001   -0.0003 C   0  0  0  0  0  2  0  0  0  0  0  0
    1.4619   -2.4317    0.3475 C   0  0  0  0  0  0  0  0  0  0  0  0
    1.4523   -3.0059   -0.6004 H   0  0  0  0  0  0  0  0  0  0  0  0
    0.8191   -2.9462    1.0861 H   0  0  0  0  0  0  0  0  0  0  0  0
    2.5021   -2.3813    0.7189 H   0  0  0  0  0  0  0  0  0  0  0  0
   -0.3585   -0.6892    0.0936 C   0  0  0  0  0  0  0  0  0  0  0  0
   -0.3584    0.6892   -0.0938 C   0  0  0  0  0  0  0  0  0  0  0  0
    1.4620    2.4315   -0.3481 C   0  0  0  0  0  0  0  0  0  0  0  0
    1.4526    3.0058    0.5998 H   0  0  0  0  0  0  0  0  0  0  0  0
    0.8191    2.9460   -1.0865 H   0  0  0  0  0  0  0  0  0  0  0  0
    2.5021    2.3810   -0.7197 H   0  0  0  0  0  0  0  0  0  0  0  0
   -2.8008    0.2758   -2.0438 C   0  0  0  0  0  0  0  0  0  0  0  0
   -1.8363   -0.1794   -2.3399 H   0  0  0  0  0  0  0  0  0  0  0  0
   -3.3202    0.6248   -2.9583 H   0  0  0  0  0  0  0  0  0  0  0  0
   -3.4136   -0.5332   -1.5916 H   0  0  0  0  0  0  0  0  0  0  0  0
   -2.5649    1.3965   -1.0824 C   0  0  0  0  0  0  0  0  0  0  0  0
   -1.4839    1.6165   -0.2275 C   0  0  0  0  0  0  0  0  0  0  0  0
   -1.6346    2.8197    0.5528 C   0  0  0  0  0  0  0  0  0  0  0  0
   -0.9010    3.1565    1.2982 H   0  0  0  0  0  0  0  0  0  0  0  0
   -2.8080    3.5034    0.3124 C   0  0  0  0  0  0  0  0  0  0  0  0
   -3.2998    4.7742    0.9323 C   0  0  0  0  0  0  0  0  0  0  0  0
   -2.5726    5.1302    1.6872 H   0  0  0  0  0  0  0  0  0  0  0  0
   -4.2775    4.6392    1.4399 H   0  0  0  0  0  0  0  0  0  0  0  0
   -3.4298    5.5804    0.1803 H   0  0  0  0  0  0  0  0  0  0  0  0
   -2.8006   -0.2757    2.0439 C   0  0  0  0  0  0  0  0  0  0  0  0
   -1.8360    0.1794    2.3400 H   0  0  0  0  0  0  0  0  0  0  0  0
   -3.3200   -0.6246    2.9585 H   0  0  0  0  0  0  0  0  0  0  0  0
   -3.4133    0.5334    1.5918 H   0  0  0  0  0  0  0  0  0  0  0  0
   -2.5649   -1.3964    1.0825 C   0  0  0  0  0  0  0  0  0  0  0  0
   -1.4840   -1.6165    0.2275 C   0  0  0  0  0  0  0  0  0  0  0  0
   -1.6349   -2.8197   -0.5528 C   0  0  0  0  0  0  0  0  0  0  0  0
   -0.9013   -3.1565   -1.2983 H   0  0  0  0  0  0  0  0  0  0  0  0
   -2.8083   -3.5033   -0.3123 C   0  0  0  0  0  0  0  0  0  0  0  0
   -3.3003   -4.7740   -0.9322 C   0  0  0  0  0  0  0  0  0  0  0  0
   -4.2775   -4.6386   -1.4406 H   0  0  0  0  0  0  0  0  0  0  0  0
   -3.4314   -5.5799   -0.1801 H   0  0  0  0  0  0  0  0  0  0  0  0
   -2.5726   -5.1306   -1.6864 H   0  0  0  0  0  0  0  0  0  0  0  0
  1 24  1  0  0  0  0
  2 33  1  0  0  0  0
  3 11  1  0  0  0  0
  3  5  1  0  0  0  0
  4  6  1  0  0  0  0
  5  4  1  0  0  0  0
  6  9  1  0  0  0  0
  6  8  1  0  0  0  0
  7  6  1  0  0  0  0
 10  4  1  0  0  0  0
 10 34  1  0  0  0  0
 11 10  2  0  0  0  0
 12  3  1  0  0  0  0
 12 13  1  0  0  0  0
 14 12  1  0  0  0  0
 15 12  1  0  0  0  0
 16 19  1  0  0  0  0
 16 20  1  0  0  0  0
 17 16  1  0  0  0  0
 18 16  1  0  0  0  0
 20  1  1  0  0  0  0
 20 21  2  0  0  0  0
 21 11  1  0  0  0  0
 21 22  1  0  0  0  0
 22 23  1  0  0  0  0
 24 22  2  0  0  0  0
 24 25  1  0  0  0  0
 25 27  1  0  0  0  0
 25 26  1  0  0  0  0
 28 25  1  0  0  0  0
 29 30  1  0  0  0  0
 29 31  1  0  0  0  0
 32 29  1  0  0  0  0
 33 29  1  0  0  0  0
 34 33  2  0  0  0  0
 35 37  2  0  0  0  0
 35 34  1  0  0  0  0
 36 35  1  0  0  0  0
 37  2  1  0  0  0  0
 38 37  1  0  0  0  0
 38 40  1  0  0  0  0
 39 38  1  0  0  0  0
 41 38  1  0  0  0  0
M  END
