3
 OpenBabel05122313113D

 35 36  0  0  1  0  0  0  0  0999 V2000
    4.8059   -2.0637   -0.5700 O   0  0  0  0  0  0  0  0  0  0  0  0
    5.9996   -0.3616    0.3204 O   0  0  0  0  0  0  0  0  0  0  0  0
    1.1879   -0.2782    0.7589 C   0  0  0  0  0  3  0  0  0  0  0  0
    0.7151    1.0544    1.0255 C   0  0  0  0  0  3  0  0  0  0  0  0
    1.4206    2.2234    0.4782 C   0  0  0  0  0  0  0  0  0  0  0  0
    1.1014    3.5300    0.9121 C   0  0  0  0  0  0  0  0  0  0  0  0
    1.7734    4.6509    0.4037 C   0  0  0  0  0  0  0  0  0  0  0  0
    2.7916    4.4758   -0.5453 C   0  0  0  0  0  0  0  0  0  0  0  0
    3.1344    3.1787   -0.9637 C   0  0  0  0  0  0  0  0  0  0  0  0
    2.4645    2.0474   -0.4697 C   0  0  0  0  0  0  0  0  0  0  0  0
    2.8292    0.6588   -0.9409 C   0  0  0  0  0  0  0  0  0  0  0  0
    2.5184   -0.4811    0.0538 C   0  0  1  0  0  0  0  0  0  0  0  0
    3.6924   -0.7352    1.0823 C   0  0  0  0  0  0  0  0  0  0  0  0
    4.9629   -0.9971    0.2652 C   0  0  0  0  0  0  0  0  0  0  0  0
    5.9378   -2.3723   -1.3868 C   0  0  0  0  0  0  0  0  0  0  0  0
    3.9483    0.4599    2.0091 C   0  0  0  0  0  0  0  0  0  0  0  0
    3.4113   -2.0037    1.9196 C   0  0  0  0  0  0  0  0  0  0  0  0
    0.9969   -1.0202    1.5528 H   0  0  0  0  0  0  0  0  0  0  0  0
    0.2166    1.2642    1.9870 H   0  0  0  0  0  0  0  0  0  0  0  0
    0.3135    3.6581    1.6717 H   0  0  0  0  0  0  0  0  0  0  0  0
    1.5074    5.6597    0.7556 H   0  0  0  0  0  0  0  0  0  0  0  0
    3.3321    5.3453   -0.9495 H   0  0  0  0  0  0  0  0  0  0  0  0
    3.9528    3.0372   -1.6881 H   0  0  0  0  0  0  0  0  0  0  0  0
    3.9019    0.6463   -1.2267 H   0  0  0  0  0  0  0  0  0  0  0  0
    2.2746    0.4642   -1.8814 H   0  0  0  0  0  0  0  0  0  0  0  0
    2.4756   -1.4225   -0.5270 H   0  0  0  0  0  0  0  0  0  0  0  0
    5.6548   -3.2572   -1.9849 H   0  0  0  0  0  0  0  0  0  0  0  0
    6.8288   -2.5941   -0.7649 H   0  0  0  0  0  0  0  0  0  0  0  0
    6.1897   -1.5218   -2.0531 H   0  0  0  0  0  0  0  0  0  0  0  0
    3.0347    0.6944    2.5883 H   0  0  0  0  0  0  0  0  0  0  0  0
    4.2431    1.3621    1.4425 H   0  0  0  0  0  0  0  0  0  0  0  0
    4.7683    0.2314    2.7181 H   0  0  0  0  0  0  0  0  0  0  0  0
    3.1358   -2.8605    1.2744 H   0  0  0  0  0  0  0  0  0  0  0  0
    4.3060   -2.2869    2.5107 H   0  0  0  0  0  0  0  0  0  0  0  0
    2.5867   -1.8229    2.6364 H   0  0  0  0  0  0  0  0  0  0  0  0
  1 14  1  0  0  0  0
  3  4  1  0  0  0  0
  3 18  1  0  0  0  0
  4 19  1  0  0  0  0
  5  6  1  0  0  0  0
  5  4  1  0  0  0  0
  6 20  1  0  0  0  0
  7 21  1  0  0  0  0
  7  6  2  0  0  0  0
  8  7  1  0  0  0  0
  9  8  2  0  0  0  0
  9 10  1  0  0  0  0
 10  5  2  0  0  0  0
 11 10  1  0  0  0  0
 11 12  1  0  0  0  0
 12 26  1  6  0  0  0
 12  3  1  0  0  0  0
 12 13  1  0  0  0  0
 13 17  1  0  0  0  0
 13 16  1  0  0  0  0
 14  2  2  0  0  0  0
 14 13  1  0  0  0  0
 15 28  1  0  0  0  0
 15  1  1  0  0  0  0
 16 30  1  0  0  0  0
 16 32  1  0  0  0  0
 17 34  1  0  0  0  0
 17 35  1  0  0  0  0
 22  8  1  0  0  0  0
 23  9  1  0  0  0  0
 24 11  1  0  0  0  0
 25 11  1  0  0  0  0
 27 15  1  0  0  0  0
 29 15  1  0  0  0  0
 31 16  1  0  0  0  0
 33 17  1  0  0  0  0
M  END
