5
 OpenBabel05122313113D

 26 27  0  0  0  0  0  0  0  0999 V2000
   -2.2073    0.8558    0.1350 N   0  0  0  0  0  0  0  0  0  0  0  0
   -2.1152   -0.9816    1.2798 N   0  0  0  0  0  0  0  0  0  0  0  0
   -0.4281    2.1216   -0.6642 N   0  0  0  0  0  0  0  0  0  0  0  0
   -2.6895    2.8997   -0.8977 N   0  0  0  0  0  0  0  0  0  0  0  0
   -1.3344   -0.0712    0.6563 C   0  0  0  0  0  2  0  0  0  0  0  0
   -3.4654   -0.6326    1.1656 C   0  0  0  0  0  0  0  0  0  0  0  0
   -4.2651   -1.2325    1.6089 H   0  0  0  0  0  0  0  0  0  0  0  0
   -3.5286    0.5266    0.4430 C   0  0  0  0  0  0  0  0  0  0  0  0
   -4.3610    1.1582    0.1220 H   0  0  0  0  0  0  0  0  0  0  0  0
   -1.7585    2.0266   -0.5151 C   0  0  0  0  0  0  0  0  0  0  0  0
   -2.2311    4.0227   -1.4745 C   0  0  0  0  0  0  0  0  0  0  0  0
   -2.9892    4.7571   -1.7956 H   0  0  0  0  0  0  0  0  0  0  0  0
   -0.8602    4.2594   -1.6629 C   0  0  0  0  0  0  0  0  0  0  0  0
   -0.4923    5.1850   -2.1262 H   0  0  0  0  0  0  0  0  0  0  0  0
    0.0162    3.2499   -1.2387 C   0  0  0  0  0  0  0  0  0  0  0  0
    1.1084    3.3431   -1.3615 H   0  0  0  0  0  0  0  0  0  0  0  0
   -1.5746   -2.1063    2.0774 C   0  0  0  0  0  0  0  0  0  0  0  0
   -0.5005   -2.1244    1.7961 H   0  0  0  0  0  0  0  0  0  0  0  0
   -2.2329   -3.4252    1.6756 C   0  0  0  0  0  0  0  0  0  0  0  0
   -3.3066   -3.4523    1.9521 H   0  0  0  0  0  0  0  0  0  0  0  0
   -1.7391   -4.2616    2.2066 H   0  0  0  0  0  0  0  0  0  0  0  0
   -2.1478   -3.6118    0.5866 H   0  0  0  0  0  0  0  0  0  0  0  0
   -1.6864   -1.7875    3.5690 C   0  0  0  0  0  0  0  0  0  0  0  0
   -1.1724   -0.8328    3.7934 H   0  0  0  0  0  0  0  0  0  0  0  0
   -1.2126   -2.5952    4.1603 H   0  0  0  0  0  0  0  0  0  0  0  0
   -2.7465   -1.7118    3.8865 H   0  0  0  0  0  0  0  0  0  0  0  0
  1  8  1  0  0  0  0
  1  5  1  0  0  0  0
  2 17  1  0  0  0  0
  3 10  1  0  0  0  0
  4 10  2  0  0  0  0
  5  2  1  0  0  0  0
  6  2  1  0  0  0  0
  6  7  1  0  0  0  0
  8  6  2  0  0  0  0
  9  8  1  0  0  0  0
 10  1  1  0  0  0  0
 11  4  1  0  0  0  0
 12 11  1  0  0  0  0
 13 11  2  0  0  0  0
 13 15  1  0  0  0  0
 14 13  1  0  0  0  0
 15  3  2  0  0  0  0
 16 15  1  0  0  0  0
 17 23  1  0  0  0  0
 18 17  1  0  0  0  0
 19 20  1  0  0  0  0
 19 17  1  0  0  0  0
 19 21  1  0  0  0  0
 22 19  1  0  0  0  0
 23 24  1  0  0  0  0
 23 26  1  0  0  0  0
 23 25  1  0  0  0  0
M  END
