2
 OpenBabel05122313113D

 11 11  0  0  0  0  0  0  0  0999 V2000
   -3.9566   -0.7900    0.9964 S   0  0  0  0  0  0  0  0  0  0  0  0
   -1.4777   -0.6854   -1.0779 C   0  0  0  0  0  1  0  0  0  0  0  0
   -2.7368   -0.7846   -1.5306 C   0  0  0  0  0  3  0  0  0  0  0  0
   -2.8407   -0.8857   -2.6285 H   0  0  0  0  0  0  0  0  0  0  0  0
   -3.9629   -0.7094   -0.7581 C   0  0  0  0  0  0  0  0  0  0  0  0
   -5.2664   -0.5537   -1.2264 C   0  0  0  0  0  0  0  0  0  0  0  0
   -5.5009   -0.4825   -2.2975 H   0  0  0  0  0  0  0  0  0  0  0  0
   -6.2367   -0.4853   -0.1823 C   0  0  0  0  0  0  0  0  0  0  0  0
   -7.3152   -0.3636   -0.3550 H   0  0  0  0  0  0  0  0  0  0  0  0
   -5.6811   -0.5891    1.0781 C   0  0  0  0  0  0  0  0  0  0  0  0
   -6.1838   -0.5740    2.0524 H   0  0  0  0  0  0  0  0  0  0  0  0
  1 10  1  0  0  0  0
  3  2  1  0  0  0  0
  3  5  1  0  0  0  0
  4  3  1  0  0  0  0
  5  1  1  0  0  0  0
  6  5  2  0  0  0  0
  6  8  1  0  0  0  0
  7  6  1  0  0  0  0
  8 10  2  0  0  0  0
  9  8  1  0  0  0  0
 10 11  1  0  0  0  0
M  END
