7
 OpenBabel05122313113D

 19 20  0  0  0  0  0  0  0  0999 V2000
    3.5324   -0.9137   -0.5883 S   0  0  0  0  0  0  0  0  0  0  0  0
    2.0572    1.5681    0.0332 C   0  0  0  0  0  0  0  0  0  0  0  0
    2.4279    0.1985    0.1717 C   0  0  0  0  0  0  0  0  0  0  0  0
    3.0847   -2.1610    0.5608 C   0  0  0  0  0  0  0  0  0  0  0  0
    2.1478   -1.7692    1.4877 C   0  0  0  0  0  0  0  0  0  0  0  0
    1.7556   -0.3925    1.2963 C   0  0  0  0  0  0  0  0  0  0  0  0
    0.9697    0.6536    1.8956 C   0  0  0  0  0  3  0  0  0  0  0  0
    1.1920    1.8571    1.1486 C   0  0  0  0  0  0  0  0  0  0  0  0
    0.6752    3.2172    1.5119 C   0  0  0  0  0  0  0  0  0  0  0  0
    2.5577    2.5368   -0.9909 C   0  0  0  0  0  0  0  0  0  0  0  0
    3.5600   -3.1464    0.4739 H   0  0  0  0  0  0  0  0  0  0  0  0
    1.7903   -2.4234    2.2914 H   0  0  0  0  0  0  0  0  0  0  0  0
    0.4025    0.5975    2.8303 H   0  0  0  0  0  0  0  0  0  0  0  0
    1.4789    3.8172    1.9901 H   0  0  0  0  0  0  0  0  0  0  0  0
   -0.1641    3.1497    2.2311 H   0  0  0  0  0  0  0  0  0  0  0  0
    0.3202    3.7707    0.6213 H   0  0  0  0  0  0  0  0  0  0  0  0
    3.4161    3.1249   -0.6007 H   0  0  0  0  0  0  0  0  0  0  0  0
    1.7605    3.2454   -1.2888 H   0  0  0  0  0  0  0  0  0  0  0  0
    2.8936    2.0073   -1.9035 H   0  0  0  0  0  0  0  0  0  0  0  0
  1  3  1  0  0  0  0
  1  4  1  0  0  0  0
  2  3  1  0  0  0  0
  2  8  2  0  0  0  0
  3  6  2  0  0  0  0
  4  5  2  0  0  0  0
  5 12  1  0  0  0  0
  6  5  1  0  0  0  0
  6  7  1  0  0  0  0
  7 13  1  0  0  0  0
  8  9  1  0  0  0  0
  8  7  1  0  0  0  0
  9 14  1  0  0  0  0
  9 15  1  0  0  0  0
 10 17  1  0  0  0  0
 10  2  1  0  0  0  0
 11  4  1  0  0  0  0
 16  9  1  0  0  0  0
 18 10  1  0  0  0  0
 19 10  1  0  0  0  0
M  END
