6
 OpenBabel05122313113D

 15 16  0  0  1  0  0  0  0  0999 V2000
   -5.4433   -0.3330   -1.2856 O   0  0  0  0  0  0  0  0  0  0  0  0
   -4.6655   -0.2276   -0.3679 C   0  0  0  0  0  0  0  0  0  0  0  0
   -4.4354   -1.0298    0.9735 C   0  0  0  0  0  0  0  0  0  0  0  0
   -5.2920   -0.9325    1.6740 H   0  0  0  0  0  0  0  0  0  0  0  0
   -4.1636   -2.0988    0.8662 H   0  0  0  0  0  0  0  0  0  0  0  0
   -3.3035   -0.0368    1.2116 C   0  0  1  0  0  3  0  0  0  0  0  0
   -2.2362    0.2785    2.0863 C   0  0  0  0  0  0  0  0  0  0  0  0
   -2.0101   -0.3061    2.9880 H   0  0  0  0  0  0  0  0  0  0  0  0
   -1.4074    1.3745    1.6954 C   0  0  0  0  0  0  0  0  0  0  0  0
   -0.5362    1.6381    2.3130 H   0  0  0  0  0  0  0  0  0  0  0  0
   -1.6762    2.1568    0.5224 C   0  0  0  0  0  0  0  0  0  0  0  0
   -0.9836    2.9667    0.2566 H   0  0  0  0  0  0  0  0  0  0  0  0
   -2.7378    1.8124   -0.3622 C   0  0  0  0  0  0  0  0  0  0  0  0
   -2.8863    2.3564   -1.3054 H   0  0  0  0  0  0  0  0  0  0  0  0
   -3.5687    0.7255    0.0269 C   0  0  1  0  0  3  0  0  0  0  0  0
  1  2  2  0  0  0  0
  2  3  1  0  0  0  0
  3  6  1  0  0  0  0
  3  4  1  0  0  0  0
  5  3  1  0  0  0  0
  6  7  1  6  0  0  0
  7  8  1  0  0  0  0
  9  7  2  0  0  0  0
  9 10  1  0  0  0  0
 11  9  1  0  0  0  0
 12 11  1  0  0  0  0
 13 15  1  0  0  0  0
 13 11  2  0  0  0  0
 14 13  1  0  0  0  0
 15  2  1  6  0  0  0
 15  6  1  0  0  0  0
M  END
