11
 OpenBabel05122313113D

 34 35  0  0  0  0  0  0  0  0999 V2000
    1.0150   -2.4657    0.1675 C   0  0  0  0  0  0  0  0  0  0  0  0
    0.3682   -2.8166    0.9941 H   0  0  0  0  0  0  0  0  0  0  0  0
    0.9984   -3.2834   -0.5884 H   0  0  0  0  0  0  0  0  0  0  0  0
    2.4462   -2.2174    0.6369 C   0  0  0  0  0  0  0  0  0  0  0  0
    2.9180   -3.1802    0.9190 H   0  0  0  0  0  0  0  0  0  0  0  0
    2.4363   -1.5837    1.5484 H   0  0  0  0  0  0  0  0  0  0  0  0
    3.2597   -1.5221   -0.4607 C   0  0  0  0  0  0  0  0  0  0  0  0
    3.2538   -2.1617   -1.3739 H   0  0  0  0  0  0  0  0  0  0  0  0
    4.3180   -1.4217   -0.1560 H   0  0  0  0  0  0  0  0  0  0  0  0
    2.6681   -0.1695   -0.7879 C   0  0  0  0  0  0  0  0  0  0  0  0
    0.4950    0.9595   -1.5208 C   0  0  0  0  0  3  0  0  0  0  0  0
    1.0650    1.8360   -1.8541 H   0  0  0  0  0  0  0  0  0  0  0  0
   -0.9098    0.9735   -1.6963 C   0  0  0  0  0  3  0  0  0  0  0  0
   -1.3877    1.8599   -2.1290 H   0  0  0  0  0  0  0  0  0  0  0  0
   -1.6918   -0.1444   -1.2819 C   0  0  0  0  0  0  0  0  0  0  0  0
   -1.0430   -1.2503   -0.6435 C   0  0  0  0  0  0  0  0  0  0  0  0
    0.3866   -1.2530   -0.4766 C   0  0  0  0  0  0  0  0  0  0  0  0
    1.1884   -0.1591   -0.9541 C   0  0  0  0  0  0  0  0  0  0  0  0
    3.4078    0.9648   -0.9058 C   0  0  0  0  0  0  0  0  0  0  0  0
    2.8748    1.9148   -1.0799 H   0  0  0  0  0  0  0  0  0  0  0  0
    4.8923    1.1098   -0.7905 C   0  0  0  0  0  0  0  0  0  0  0  0
    5.1552    1.8254    0.0186 H   0  0  0  0  0  0  0  0  0  0  0  0
    5.3207    1.5365   -1.7239 H   0  0  0  0  0  0  0  0  0  0  0  0
    5.4171    0.1573   -0.5883 H   0  0  0  0  0  0  0  0  0  0  0  0
   -2.8268   -2.2206    0.6402 C   0  0  0  0  0  0  0  0  0  0  0  0
   -2.5726   -1.5131    1.4592 H   0  0  0  0  0  0  0  0  0  0  0  0
   -3.0173   -3.2270    1.0581 H   0  0  0  0  0  0  0  0  0  0  0  0
   -3.7283   -1.8547    0.1112 H   0  0  0  0  0  0  0  0  0  0  0  0
   -3.7545    0.9143   -1.8600 C   0  0  0  0  0  0  0  0  0  0  0  0
   -3.6265    1.7422   -1.1314 H   0  0  0  0  0  0  0  0  0  0  0  0
   -4.8178    0.6146   -1.8849 H   0  0  0  0  0  0  0  0  0  0  0  0
   -3.4531    1.2534   -2.8745 H   0  0  0  0  0  0  0  0  0  0  0  0
   -1.7108   -2.3639   -0.2438 O   0  0  0  0  0  0  0  0  0  0  0  0
   -3.0299   -0.2436   -1.4574 O   0  0  0  0  0  0  0  0  0  0  0  0
  1  4  1  0  0  0  0
  1  2  1  0  0  0  0
  3  1  1  0  0  0  0
  4  5  1  0  0  0  0
  4  6  1  0  0  0  0
  7  9  1  0  0  0  0
  7  4  1  0  0  0  0
  8  7  1  0  0  0  0
 10  7  1  0  0  0  0
 11 18  1  0  0  0  0
 12 11  1  0  0  0  0
 13 11  1  0  0  0  0
 13 15  1  0  0  0  0
 14 13  1  0  0  0  0
 15 16  2  0  0  0  0
 16 17  1  0  0  0  0
 16 33  1  0  0  0  0
 17  1  1  0  0  0  0
 18 10  1  0  0  0  0
 18 17  2  0  0  0  0
 19 21  1  0  0  0  0
 19 10  2  0  0  0  0
 20 19  1  0  0  0  0
 21 24  1  0  0  0  0
 21 22  1  0  0  0  0
 23 21  1  0  0  0  0
 25 27  1  0  0  0  0
 25 26  1  0  0  0  0
 28 25  1  0  0  0  0
 29 34  1  0  0  0  0
 29 30  1  0  0  0  0
 31 29  1  0  0  0  0
 32 29  1  0  0  0  0
 33 25  1  0  0  0  0
 34 15  1  0  0  0  0
M  END
