3
 OpenBabel05122313113D

 27 28  0  0  1  0  0  0  0  0999 V2000
    5.4509   -1.5220    0.8029 O   0  0  0  0  0  0  0  0  0  0  0  0
    2.1977   -1.5896   -0.0286 N   0  0  0  0  0  0  0  0  0  0  0  0
    1.1881   -1.0668    0.8778 C   0  0  2  0  0  3  0  0  0  0  0  0
    1.4082    0.3638    1.0904 C   0  0  0  0  0  3  0  0  0  0  0  0
    2.7178    0.6943    0.3743 C   0  0  2  0  0  0  0  0  0  0  0  0
    2.9936   -0.6179   -0.3457 C   0  0  0  0  0  0  0  0  0  0  0  0
    4.2409   -0.7464   -1.1548 C   0  0  0  0  0  0  0  0  0  0  0  0
    5.4351   -0.4902   -0.1892 C   0  0  1  0  0  0  0  0  0  0  0  0
    5.2493    0.8898    0.4983 C   0  0  0  0  0  0  0  0  0  0  0  0
    3.9357    0.9807    1.2850 C   0  0  0  0  0  0  0  0  0  0  0  0
    6.7717   -0.5604   -0.9243 C   0  0  0  0  0  0  0  0  0  0  0  0
    0.7941   -2.0323    1.9754 C   0  0  0  0  0  0  0  0  0  0  0  0
    4.5287   -1.8390    0.8946 H   0  0  0  0  0  0  0  0  0  0  0  0
    1.2690    0.7855    2.1023 H   0  0  0  0  0  0  0  0  0  0  0  0
    2.6447    1.5194   -0.3714 H   0  0  0  0  0  0  0  0  0  0  0  0
    4.3224   -1.7585   -1.5979 H   0  0  0  0  0  0  0  0  0  0  0  0
    4.2527    0.0030   -1.9743 H   0  0  0  0  0  0  0  0  0  0  0  0
    5.2876    1.6877   -0.2765 H   0  0  0  0  0  0  0  0  0  0  0  0
    6.1123    1.0548    1.1765 H   0  0  0  0  0  0  0  0  0  0  0  0
    3.8350    1.9750    1.7714 H   0  0  0  0  0  0  0  0  0  0  0  0
    3.9548    0.2252    2.0991 H   0  0  0  0  0  0  0  0  0  0  0  0
    7.6061   -0.4532   -0.2026 H   0  0  0  0  0  0  0  0  0  0  0  0
    6.8556    0.2429   -1.6831 H   0  0  0  0  0  0  0  0  0  0  0  0
    6.8778   -1.5412   -1.4282 H   0  0  0  0  0  0  0  0  0  0  0  0
    1.6827   -2.2939    2.5927 H   0  0  0  0  0  0  0  0  0  0  0  0
    0.0302   -1.6011    2.6487 H   0  0  0  0  0  0  0  0  0  0  0  0
    0.3915   -2.9791    1.5637 H   0  0  0  0  0  0  0  0  0  0  0  0
  1 13  1  0  0  0  0
  2  3  1  0  0  0  0
  3  4  1  0  0  0  0
  3 12  1  1  0  0  0
  4 14  1  0  0  0  0
  5 15  1  6  0  0  0
  5  4  1  0  0  0  0
  5 10  1  0  0  0  0
  6  2  2  0  0  0  0
  6  5  1  0  0  0  0
  7  6  1  0  0  0  0
  7  8  1  0  0  0  0
  8  9  1  0  0  0  0
  8  1  1  1  0  0  0
  9 19  1  0  0  0  0
  9 10  1  0  0  0  0
 10 20  1  0  0  0  0
 10 21  1  0  0  0  0
 11 22  1  0  0  0  0
 11  8  1  0  0  0  0
 12 25  1  0  0  0  0
 12 26  1  0  0  0  0
 16  7  1  0  0  0  0
 17  7  1  0  0  0  0
 18  9  1  0  0  0  0
 23 11  1  0  0  0  0
 24 11  1  0  0  0  0
 27 12  1  0  0  0  0
M  END
