1
 OpenBabel05122313113D

 54 55  0  0  1  0  0  0  0  0999 V2000
    1.6832   -0.5912   -1.5999 C   0  0  0  0  0  3  0  0  0  0  0  0
    2.8181   -1.4281   -1.8314 C   0  0  0  0  0  0  0  0  0  0  0  0
    3.2457   -2.3497   -0.8481 C   0  0  0  0  0  0  0  0  0  0  0  0
    2.5161   -2.4517    0.3779 C   0  0  0  0  0  0  0  0  0  0  0  0
    1.3902   -1.6297    0.6036 C   0  0  0  0  0  0  0  0  0  0  0  0
    0.9465   -0.6713   -0.3802 C   0  0  1  0  0  3  0  0  0  0  0  0
   -0.2231    0.1897   -0.0752 C   0  0  0  0  0  0  0  0  0  0  0  0
   -1.3780   -0.4614    0.6272 C   0  0  0  0  0  0  0  0  0  0  0  0
   -2.8569   -1.1292   -0.3861 Si  0  0  0  0  0  0  0  0  0  0  0  0
   -2.9767   -3.0447   -0.2002 C   0  0  0  0  0  0  0  0  0  0  0  0
   -1.6576   -3.6815   -0.6729 C   0  0  0  0  0  0  0  0  0  0  0  0
   -4.1447   -3.5585   -1.0638 C   0  0  0  0  0  0  0  0  0  0  0  0
   -3.2280   -3.4105    1.2738 C   0  0  0  0  0  0  0  0  0  0  0  0
   -0.3100    1.5067   -0.4538 C   0  0  0  0  0  0  0  0  0  0  0  0
    0.6600    2.0372   -1.2554 O   0  0  0  0  0  0  0  0  0  0  0  0
    1.1214    3.3594   -0.9472 C   0  0  0  0  0  0  0  0  0  0  0  0
   -1.4646    2.3840   -0.1199 C   0  0  0  0  0  0  0  0  0  0  0  0
   -1.8680    2.6105    1.2125 C   0  0  0  0  0  0  0  0  0  0  0  0
   -2.9766    3.4216    1.4906 C   0  0  0  0  0  0  0  0  0  0  0  0
   -3.6929    4.0235    0.4427 C   0  0  0  0  0  0  0  0  0  0  0  0
   -3.2824    3.8274   -0.8861 C   0  0  0  0  0  0  0  0  0  0  0  0
   -2.1702    3.0208   -1.1651 C   0  0  0  0  0  0  0  0  0  0  0  0
   -1.4647   -0.5319    1.9454 C   0  0  0  0  0  0  0  0  0  0  0  0
   -1.5963   -0.6113    3.1152 O   0  0  0  0  0  0  0  0  0  0  0  0
   -4.4312   -0.2779    0.2224 C   0  0  0  0  0  0  0  0  0  0  0  0
   -2.5013   -0.6554   -2.1799 C   0  0  0  0  0  0  0  0  0  0  0  0
    1.3978    0.1611   -2.3439 H   0  0  0  0  0  0  0  0  0  0  0  0
    3.3920   -1.3112   -2.7613 H   0  0  0  0  0  0  0  0  0  0  0  0
    4.1498   -2.9529   -1.0067 H   0  0  0  0  0  0  0  0  0  0  0  0
    2.8602   -3.1329    1.1681 H   0  0  0  0  0  0  0  0  0  0  0  0
    0.8648   -1.6860    1.5660 H   0  0  0  0  0  0  0  0  0  0  0  0
   -1.4500   -3.4650   -1.7412 H   0  0  0  0  0  0  0  0  0  0  0  0
   -0.7912   -3.3159   -0.0843 H   0  0  0  0  0  0  0  0  0  0  0  0
   -1.6967   -4.7881   -0.5617 H   0  0  0  0  0  0  0  0  0  0  0  0
   -4.2361   -4.6641   -0.9739 H   0  0  0  0  0  0  0  0  0  0  0  0
   -4.0007   -3.3293   -2.1399 H   0  0  0  0  0  0  0  0  0  0  0  0
   -5.1169   -3.1236   -0.7519 H   0  0  0  0  0  0  0  0  0  0  0  0
   -3.3119   -4.5142    1.3896 H   0  0  0  0  0  0  0  0  0  0  0  0
   -2.4015   -3.0786    1.9351 H   0  0  0  0  0  0  0  0  0  0  0  0
   -4.1692   -2.9679    1.6605 H   0  0  0  0  0  0  0  0  0  0  0  0
    1.4157    3.4303    0.1201 H   0  0  0  0  0  0  0  0  0  0  0  0
    2.0128    3.5236   -1.5793 H   0  0  0  0  0  0  0  0  0  0  0  0
    0.3508    4.1268   -1.1693 H   0  0  0  0  0  0  0  0  0  0  0  0
   -1.2937    2.1580    2.0336 H   0  0  0  0  0  0  0  0  0  0  0  0
   -3.2814    3.5880    2.5348 H   0  0  0  0  0  0  0  0  0  0  0  0
   -4.5667    4.6554    0.6627 H   0  0  0  0  0  0  0  0  0  0  0  0
   -3.8334    4.3046   -1.7107 H   0  0  0  0  0  0  0  0  0  0  0  0
   -1.8438    2.8640   -2.2050 H   0  0  0  0  0  0  0  0  0  0  0  0
   -4.6079   -0.4725    1.2998 H   0  0  0  0  0  0  0  0  0  0  0  0
   -5.3261   -0.6171   -0.3383 H   0  0  0  0  0  0  0  0  0  0  0  0
   -4.3320    0.8192    0.0908 H   0  0  0  0  0  0  0  0  0  0  0  0
   -2.4860    0.4464   -2.2895 H   0  0  0  0  0  0  0  0  0  0  0  0
   -1.5244   -1.0501   -2.5231 H   0  0  0  0  0  0  0  0  0  0  0  0
   -3.2929   -1.0559   -2.8455 H   0  0  0  0  0  0  0  0  0  0  0  0
  1  6  1  0  0  0  0
  2  1  1  0  0  0  0
  2  3  2  0  0  0  0
  3  4  1  0  0  0  0
  4  5  2  0  0  0  0
  4 30  1  0  0  0  0
  5 31  1  0  0  0  0
  6  7  1  1  0  0  0
  6  5  1  0  0  0  0
  7  8  1  0  0  0  0
  8 23  2  0  0  0  0
  9 10  1  0  0  0  0
  9 25  1  0  0  0  0
  9  8  1  0  0  0  0
 10 13  1  0  0  0  0
 11 34  1  0  0  0  0
 11 10  1  0  0  0  0
 11 33  1  0  0  0  0
 12 35  1  0  0  0  0
 12 37  1  0  0  0  0
 12 10  1  0  0  0  0
 13 38  1  0  0  0  0
 13 40  1  0  0  0  0
 13 39  1  0  0  0  0
 14 17  1  0  0  0  0
 14  7  2  0  0  0  0
 15 16  1  0  0  0  0
 15 14  1  0  0  0  0
 16 41  1  0  0  0  0
 17 18  1  0  0  0  0
 18 19  2  0  0  0  0
 18 44  1  0  0  0  0
 19 45  1  0  0  0  0
 20 46  1  0  0  0  0
 20 19  1  0  0  0  0
 21 20  2  0  0  0  0
 22 21  1  0  0  0  0
 22 17  2  0  0  0  0
 23 24  2  0  0  0  0
 25 49  1  0  0  0  0
 26  9  1  0  0  0  0
 27  1  1  0  0  0  0
 28  2  1  0  0  0  0
 29  3  1  0  0  0  0
 32 11  1  0  0  0  0
 36 12  1  0  0  0  0
 42 16  1  0  0  0  0
 43 16  1  0  0  0  0
 47 21  1  0  0  0  0
 48 22  1  0  0  0  0
 50 25  1  0  0  0  0
 51 25  1  0  0  0  0
 52 26  1  0  0  0  0
 53 26  1  0  0  0  0
 54 26  1  0  0  0  0
M  END
