1
 OpenBabel05122313113D

 15 15  0  0  0  0  0  0  0  0999 V2000
   -0.4196   -0.7696    0.0000 C   0  0  0  0  0  1  0  0  0  0  0  0
   -2.9307   -1.0907    0.0000 C   0  0  0  0  0  0  0  0  0  0  0  0
   -3.5847    0.1787    0.0001 C   0  0  0  0  0  0  0  0  0  0  0  0
   -4.9924    0.2239    0.0001 C   0  0  0  0  0  0  0  0  0  0  0  0
   -5.7378   -0.9617   -0.0000 C   0  0  0  0  0  0  0  0  0  0  0  0
   -5.0920   -2.2106   -0.0001 C   0  0  0  0  0  0  0  0  0  0  0  0
   -3.6944   -2.2751   -0.0001 C   0  0  0  0  0  0  0  0  0  0  0  0
   -1.5624   -1.1228    0.0000 N   0  0  0  0  0  2  0  0  0  0  0  0
   -2.7522    1.3058    0.0001 N   0  0  0  0  0  0  0  0  0  0  0  0
   -3.2260    2.4461    0.0003 N   0  0  0  0  0  4  0  0  0  0  0  0
   -3.5207    3.5575    0.0004 N   0  0  0  0  0  2  0  0  0  0  0  0
   -5.4997    1.2007    0.0001 H   0  0  0  0  0  0  0  0  0  0  0  0
   -6.8364   -0.9080   -0.0000 H   0  0  0  0  0  0  0  0  0  0  0  0
   -5.6810   -3.1389   -0.0002 H   0  0  0  0  0  0  0  0  0  0  0  0
   -3.1654   -3.2381   -0.0001 H   0  0  0  0  0  0  0  0  0  0  0  0
  1  8  1  0  0  0  0
  2  8  1  0  0  0  0
  2  3  1  0  0  0  0
  3  9  1  0  0  0  0
  4  3  2  0  0  0  0
  4 12  1  0  0  0  0
  5  4  1  0  0  0  0
  6  7  1  0  0  0  0
  6  5  2  0  0  0  0
  7  2  2  0  0  0  0
  9 10  2  0  0  0  0
 10 11  2  0  0  0  0
 13  5  1  0  0  0  0
 14  6  1  0  0  0  0
 15  7  1  0  0  0  0
M  END
