7
 OpenBabel05122313113D

 24 23  0  0  0  0  0  0  0  0999 V2000
    2.3697   -0.7752    0.6672 O   0  0  0  0  0  0  0  0  0  0  0  0
    2.3007   -1.9249   -1.3013 O   0  0  0  0  0  0  0  0  0  0  0  0
   -0.3536   -1.2933    1.0781 N   0  0  0  0  0  0  0  0  0  0  0  0
   -1.1993   -2.1375    1.9511 C   0  0  0  0  0  0  0  0  0  0  0  0
   -0.3272   -2.9207    2.9355 C   0  0  0  0  0  0  0  0  0  0  0  0
   -2.2320   -1.2525    2.6465 C   0  0  0  0  0  0  0  0  0  0  0  0
    0.3359   -1.8373   -0.0389 C   0  0  0  0  0  3  0  0  0  0  0  0
    1.7586   -1.4553   -0.1534 C   0  0  0  0  0  0  0  0  0  0  0  0
    3.5892   -1.3862   -1.6626 C   0  0  0  0  0  0  0  0  0  0  0  0
    3.4400   -0.0119   -2.2985 C   0  0  0  0  0  0  0  0  0  0  0  0
    0.2377   -0.6522    1.6433 H   0  0  0  0  0  0  0  0  0  0  0  0
   -1.7248   -2.8480    1.2782 H   0  0  0  0  0  0  0  0  0  0  0  0
   -0.9452   -3.6080    3.5468 H   0  0  0  0  0  0  0  0  0  0  0  0
    0.2032   -2.2322    3.6260 H   0  0  0  0  0  0  0  0  0  0  0  0
    0.4335   -3.5232    2.4004 H   0  0  0  0  0  0  0  0  0  0  0  0
   -2.8579   -1.8477    3.3397 H   0  0  0  0  0  0  0  0  0  0  0  0
   -2.8979   -0.7751    1.9006 H   0  0  0  0  0  0  0  0  0  0  0  0
   -1.7274   -0.4540    3.2286 H   0  0  0  0  0  0  0  0  0  0  0  0
    0.0801   -2.8656   -0.3399 H   0  0  0  0  0  0  0  0  0  0  0  0
    4.0117   -2.1228   -2.3734 H   0  0  0  0  0  0  0  0  0  0  0  0
    4.2333   -1.3453   -0.7600 H   0  0  0  0  0  0  0  0  0  0  0  0
    4.4267    0.3612   -2.6404 H   0  0  0  0  0  0  0  0  0  0  0  0
    3.0301    0.7130   -1.5675 H   0  0  0  0  0  0  0  0  0  0  0  0
    2.7566   -0.0559   -3.1695 H   0  0  0  0  0  0  0  0  0  0  0  0
  2  8  1  0  0  0  0
  3 11  1  0  0  0  0
  3  4  1  0  0  0  0
  4  6  1  0  0  0  0
  4  5  1  0  0  0  0
  5 13  1  0  0  0  0
  5 14  1  0  0  0  0
  6 18  1  0  0  0  0
  6 16  1  0  0  0  0
  7  3  1  0  0  0  0
  8  7  1  0  0  0  0
  8  1  2  0  0  0  0
  9  2  1  0  0  0  0
  9 21  1  0  0  0  0
 10  9  1  0  0  0  0
 10 23  1  0  0  0  0
 12  4  1  0  0  0  0
 15  5  1  0  0  0  0
 17  6  1  0  0  0  0
 19  7  1  0  0  0  0
 20  9  1  0  0  0  0
 22 10  1  0  0  0  0
 24 10  1  0  0  0  0
M  END
