3
 OpenBabel05122313113D

 43 45  0  0  0  0  0  0  0  0999 V2000
    0.9826   -0.3308    0.9865 N   0  0  0  0  0  0  0  0  0  0  0  0
   -0.8649   -1.3816    0.5831 N   0  0  0  0  0  0  0  0  0  0  0  0
   -0.2969   -0.1355    0.5408 C   0  0  0  0  0  2  0  0  0  0  0  0
    1.2126   -1.6640    1.2990 C   0  0  0  0  0  0  0  0  0  0  0  0
    2.1866   -2.0173    1.6497 H   0  0  0  0  0  0  0  0  0  0  0  0
    0.0428   -2.3310    1.0432 C   0  0  0  0  0  0  0  0  0  0  0  0
   -0.2233   -3.3877    1.1361 H   0  0  0  0  0  0  0  0  0  0  0  0
   -2.2210   -1.6544    0.1841 C   0  0  0  0  0  0  0  0  0  0  0  0
   -2.4789   -1.9698   -1.1667 C   0  0  0  0  0  0  0  0  0  0  0  0
   -3.8104   -2.2389   -1.5273 C   0  0  0  0  0  0  0  0  0  0  0  0
   -4.0334   -2.4866   -2.5774 H   0  0  0  0  0  0  0  0  0  0  0  0
   -4.8604   -2.1875   -0.5916 C   0  0  0  0  0  0  0  0  0  0  0  0
   -4.5548   -1.8549    0.7415 C   0  0  0  0  0  0  0  0  0  0  0  0
   -5.3661   -1.7988    1.4846 H   0  0  0  0  0  0  0  0  0  0  0  0
   -3.2411   -1.5765    1.1557 C   0  0  0  0  0  0  0  0  0  0  0  0
   -2.9289   -1.1607    2.5687 C   0  0  0  0  0  0  0  0  0  0  0  0
   -2.1309   -1.7846    3.0212 H   0  0  0  0  0  0  0  0  0  0  0  0
   -3.8263   -1.2254    3.2118 H   0  0  0  0  0  0  0  0  0  0  0  0
   -2.5649   -0.1111    2.5887 H   0  0  0  0  0  0  0  0  0  0  0  0
   -1.3693   -1.9667   -2.1845 C   0  0  0  0  0  0  0  0  0  0  0  0
   -0.9689   -0.9383   -2.3130 H   0  0  0  0  0  0  0  0  0  0  0  0
   -1.7288   -2.3210   -3.1684 H   0  0  0  0  0  0  0  0  0  0  0  0
   -0.5164   -2.6047   -1.8747 H   0  0  0  0  0  0  0  0  0  0  0  0
   -6.2852   -2.4376   -1.0165 C   0  0  0  0  0  0  0  0  0  0  0  0
   -6.3400   -3.1305   -1.8789 H   0  0  0  0  0  0  0  0  0  0  0  0
   -6.7729   -1.4887   -1.3276 H   0  0  0  0  0  0  0  0  0  0  0  0
   -6.8909   -2.8597   -0.1907 H   0  0  0  0  0  0  0  0  0  0  0  0
    1.9546    0.7598    1.1523 C   0  0  0  0  0  0  0  0  0  0  0  0
    1.5529    1.6145    0.5644 H   0  0  0  0  0  0  0  0  0  0  0  0
    1.9579    1.0816    2.2174 H   0  0  0  0  0  0  0  0  0  0  0  0
    3.2986    0.3936    0.7278 C   0  0  0  0  0  0  0  0  0  0  0  0
    4.4357    0.0836    0.3848 C   0  0  0  0  0  0  0  0  0  0  0  0
    5.7554   -0.2748   -0.0300 C   0  0  0  0  0  0  0  0  0  0  0  0
    6.0422   -0.4940   -1.4011 C   0  0  0  0  0  0  0  0  0  0  0  0
    5.2361   -0.3812   -2.1403 H   0  0  0  0  0  0  0  0  0  0  0  0
    7.3353   -0.8469   -1.8038 C   0  0  0  0  0  0  0  0  0  0  0  0
    7.5462   -1.0143   -2.8708 H   0  0  0  0  0  0  0  0  0  0  0  0
    8.3610   -0.9844   -0.8538 C   0  0  0  0  0  0  0  0  0  0  0  0
    9.3767   -1.2602   -1.1750 H   0  0  0  0  0  0  0  0  0  0  0  0
    8.0878   -0.7674    0.5070 C   0  0  0  0  0  0  0  0  0  0  0  0
    8.8893   -0.8726    1.2537 H   0  0  0  0  0  0  0  0  0  0  0  0
    6.7975   -0.4167    0.9207 C   0  0  0  0  0  0  0  0  0  0  0  0
    6.5784   -0.2454    1.9846 H   0  0  0  0  0  0  0  0  0  0  0  0
  1 28  1  0  0  0  0
  1  4  1  0  0  0  0
  2  6  1  0  0  0  0
  3  2  1  0  0  0  0
  3  1  1  0  0  0  0
  4  5  1  0  0  0  0
  6  7  1  0  0  0  0
  6  4  2  0  0  0  0
  8  2  1  0  0  0  0
  8 15  1  0  0  0  0
  9  8  2  0  0  0  0
 10  9  1  0  0  0  0
 10 12  2  0  0  0  0
 11 10  1  0  0  0  0
 12 13  1  0  0  0  0
 13 15  2  0  0  0  0
 13 14  1  0  0  0  0
 15 16  1  0  0  0  0
 16 19  1  0  0  0  0
 16 17  1  0  0  0  0
 16 18  1  0  0  0  0
 20 23  1  0  0  0  0
 20  9  1  0  0  0  0
 21 20  1  0  0  0  0
 22 20  1  0  0  0  0
 24 12  1  0  0  0  0
 24 27  1  0  0  0  0
 25 24  1  0  0  0  0
 26 24  1  0  0  0  0
 28 30  1  0  0  0  0
 29 28  1  0  0  0  0
 31 28  1  0  0  0  0
 32 31  3  0  0  0  0
 33 32  1  0  0  0  0
 33 42  1  0  0  0  0
 34 33  2  0  0  0  0
 35 34  1  0  0  0  0
 36 34  1  0  0  0  0
 36 38  2  0  0  0  0
 37 36  1  0  0  0  0
 38 40  1  0  0  0  0
 39 38  1  0  0  0  0
 40 42  2  0  0  0  0
 40 41  1  0  0  0  0
 42 43  1  0  0  0  0
M  END
