1
 OpenBabel05122313113D

 38 40  0  0  0  0  0  0  0  0999 V2000
   -0.2232   -0.3418   -0.6413 C   0  0  0  0  0  2  0  0  0  0  0  0
   -0.8810   -1.1271   -1.6494 C   0  0  0  0  0  0  0  0  0  0  0  0
   -0.3171   -1.9034   -2.7944 C   0  0  0  0  0  0  0  0  0  0  0  0
   -2.1330   -0.9048   -1.0640 C   0  0  0  0  0  0  0  0  0  0  0  0
   -3.3826   -1.2938   -1.1981 O   0  0  0  0  0  0  0  0  0  0  0  0
   -3.7160   -2.2554   -2.2354 C   0  0  0  0  0  0  0  0  0  0  0  0
   -3.3408   -3.6690   -1.8293 C   0  0  0  0  0  0  0  0  0  0  0  0
   -1.6228    0.0556    0.0014 C   0  0  0  0  0  0  0  0  0  0  0  0
   -1.7362   -0.3958    1.4449 C   0  0  0  0  0  0  0  0  0  0  0  0
   -1.5113    0.5119    2.5012 C   0  0  0  0  0  0  0  0  0  0  0  0
   -1.5122    0.0736    3.8327 C   0  0  0  0  0  0  0  0  0  0  0  0
   -1.7401   -1.2780    4.1339 C   0  0  0  0  0  0  0  0  0  0  0  0
   -1.9617   -2.1904    3.0912 C   0  0  0  0  0  0  0  0  0  0  0  0
   -1.9546   -1.7523    1.7595 C   0  0  0  0  0  0  0  0  0  0  0  0
   -2.1046    1.4741   -0.2769 C   0  0  0  0  0  0  0  0  0  0  0  0
   -3.2968    1.9417    0.3149 C   0  0  0  0  0  0  0  0  0  0  0  0
   -3.7905    3.2189    0.0150 C   0  0  0  0  0  0  0  0  0  0  0  0
   -3.1002    4.0512   -0.8812 C   0  0  0  0  0  0  0  0  0  0  0  0
   -1.9207    3.5899   -1.4848 C   0  0  0  0  0  0  0  0  0  0  0  0
   -1.4334    2.3073   -1.1922 C   0  0  0  0  0  0  0  0  0  0  0  0
   -1.0676   -2.1428   -3.5705 H   0  0  0  0  0  0  0  0  0  0  0  0
    0.4971   -1.3234   -3.2727 H   0  0  0  0  0  0  0  0  0  0  0  0
    0.1371   -2.8553   -2.4483 H   0  0  0  0  0  0  0  0  0  0  0  0
   -3.2273   -1.9442   -3.1813 H   0  0  0  0  0  0  0  0  0  0  0  0
   -4.8098   -2.1466   -2.3620 H   0  0  0  0  0  0  0  0  0  0  0  0
   -3.6719   -4.3835   -2.6091 H   0  0  0  0  0  0  0  0  0  0  0  0
   -2.2455   -3.7817   -1.7077 H   0  0  0  0  0  0  0  0  0  0  0  0
   -3.8316   -3.9467   -0.8757 H   0  0  0  0  0  0  0  0  0  0  0  0
   -1.3279    1.5718    2.2750 H   0  0  0  0  0  0  0  0  0  0  0  0
   -1.3264    0.7958    4.6421 H   0  0  0  0  0  0  0  0  0  0  0  0
   -1.7380   -1.6215    5.1793 H   0  0  0  0  0  0  0  0  0  0  0  0
   -2.1348   -3.2540    3.3154 H   0  0  0  0  0  0  0  0  0  0  0  0
   -2.1127   -2.4819    0.9507 H   0  0  0  0  0  0  0  0  0  0  0  0
   -3.8384    1.2959    1.0220 H   0  0  0  0  0  0  0  0  0  0  0  0
   -4.7216    3.5681    0.4870 H   0  0  0  0  0  0  0  0  0  0  0  0
   -3.4832    5.0572   -1.1103 H   0  0  0  0  0  0  0  0  0  0  0  0
   -1.3723    4.2319   -2.1908 H   0  0  0  0  0  0  0  0  0  0  0  0
   -0.5136    1.9481   -1.6758 H   0  0  0  0  0  0  0  0  0  0  0  0
  1  8  1  0  0  0  0
  2  4  2  0  0  0  0
  2  1  1  0  0  0  0
  3 23  1  0  0  0  0
  3  2  1  0  0  0  0
  4  8  1  0  0  0  0
  5  4  1  0  0  0  0
  6  7  1  0  0  0  0
  6  5  1  0  0  0  0
  7 27  1  0  0  0  0
  7 28  1  0  0  0  0
  8  9  1  0  0  0  0
  9 14  2  0  0  0  0
  9 10  1  0  0  0  0
 10 11  2  0  0  0  0
 11 12  1  0  0  0  0
 11 30  1  0  0  0  0
 12 31  1  0  0  0  0
 13 32  1  0  0  0  0
 13 12  2  0  0  0  0
 14 13  1  0  0  0  0
 15  8  1  0  0  0  0
 15 16  1  0  0  0  0
 16 34  1  0  0  0  0
 17 16  2  0  0  0  0
 17 35  1  0  0  0  0
 18 17  1  0  0  0  0
 19 20  1  0  0  0  0
 19 18  2  0  0  0  0
 20 15  2  0  0  0  0
 21  3  1  0  0  0  0
 22  3  1  0  0  0  0
 24  6  1  0  0  0  0
 25  6  1  0  0  0  0
 26  7  1  0  0  0  0
 29 10  1  0  0  0  0
 33 14  1  0  0  0  0
 36 18  1  0  0  0  0
 37 19  1  0  0  0  0
 38 20  1  0  0  0  0
M  END
