5
 OpenBabel05122313113D

 35 37  0  0  0  0  0  0  0  0999 V2000
    1.2373    0.0081   -0.5886 C   0  0  0  0  0  0  0  0  0  0  0  0
    0.6942    1.2010   -1.1404 C   0  0  0  0  0  3  0  0  0  0  0  0
   -0.3659    1.1770   -2.1022 C   0  0  0  0  0  0  0  0  0  0  0  0
   -0.8964   -0.0470   -2.5927 C   0  0  0  0  0  0  0  0  0  0  0  0
   -0.4162   -1.2645   -2.0125 C   0  0  0  0  0  3  0  0  0  0  0  0
    0.5901   -1.2180   -1.0107 C   0  0  0  0  0  0  0  0  0  0  0  0
    3.3698    1.3986    0.1996 C   0  0  0  0  0  0  0  0  0  0  0  0
    3.0427    2.5574    0.9447 C   0  0  0  0  0  0  0  0  0  0  0  0
    3.6837    3.7910    0.7389 C   0  0  0  0  0  0  0  0  0  0  0  0
    4.6938    3.9022   -0.2300 C   0  0  0  0  0  0  0  0  0  0  0  0
    5.0513    2.7677   -0.9769 C   0  0  0  0  0  0  0  0  0  0  0  0
    4.3977    1.5433   -0.7610 C   0  0  0  0  0  0  0  0  0  0  0  0
    3.4243   -1.3367    0.1800 C   0  0  0  0  0  0  0  0  0  0  0  0
    3.9621   -2.0451    1.2807 C   0  0  0  0  0  0  0  0  0  0  0  0
    4.7480   -3.1980    1.1203 C   0  0  0  0  0  0  0  0  0  0  0  0
    5.0247   -3.6880   -0.1663 C   0  0  0  0  0  0  0  0  0  0  0  0
    4.5077   -3.0103   -1.2821 C   0  0  0  0  0  0  0  0  0  0  0  0
    3.7227   -1.8589   -1.1036 C   0  0  0  0  0  0  0  0  0  0  0  0
    2.5423    0.0094    0.4013 B   0  0  0  0  0  0  0  0  0  0  0  0
    2.1307    0.0001    1.5760 H   0  0  0  0  0  0  0  0  0  0  0  0
    1.1287    2.1650   -0.8361 H   0  0  0  0  0  0  0  0  0  0  0  0
   -0.7459    2.1244   -2.5158 H   0  0  0  0  0  0  0  0  0  0  0  0
   -1.6700   -0.0555   -3.3705 H   0  0  0  0  0  0  0  0  0  0  0  0
   -0.8119   -2.2327   -2.3508 H   0  0  0  0  0  0  0  0  0  0  0  0
    0.9453   -2.1674   -0.5853 H   0  0  0  0  0  0  0  0  0  0  0  0
    2.2631    2.4870    1.7232 H   0  0  0  0  0  0  0  0  0  0  0  0
    3.4022    4.6679    1.3446 H   0  0  0  0  0  0  0  0  0  0  0  0
    5.2061    4.8632   -0.3943 H   0  0  0  0  0  0  0  0  0  0  0  0
    5.8511    2.8375   -1.7319 H   0  0  0  0  0  0  0  0  0  0  0  0
    4.7044    0.6636   -1.3502 H   0  0  0  0  0  0  0  0  0  0  0  0
    3.7576   -1.6697    2.2977 H   0  0  0  0  0  0  0  0  0  0  0  0
    5.1482   -3.7197    2.0048 H   0  0  0  0  0  0  0  0  0  0  0  0
    5.6393   -4.5922   -0.2989 H   0  0  0  0  0  0  0  0  0  0  0  0
    4.7187   -3.3819   -2.2979 H   0  0  0  0  0  0  0  0  0  0  0  0
    3.3254   -1.3486   -1.9983 H   0  0  0  0  0  0  0  0  0  0  0  0
  1 19  1  0  0  0  0
  2 21  1  0  0  0  0
  2  1  1  0  0  0  0
  3  2  1  0  0  0  0
  4  3  2  0  0  0  0
  4  5  1  0  0  0  0
  5  6  1  0  0  0  0
  6  1  2  0  0  0  0
  6 25  1  0  0  0  0
  7 19  1  0  0  0  0
  7  8  1  0  0  0  0
  8 26  1  0  0  0  0
  9  8  2  0  0  0  0
  9 27  1  0  0  0  0
 10  9  1  0  0  0  0
 11 12  1  0  0  0  0
 11 10  2  0  0  0  0
 12  7  2  0  0  0  0
 13 19  1  0  0  0  0
 13 14  1  0  0  0  0
 14 31  1  0  0  0  0
 15 14  2  0  0  0  0
 15 32  1  0  0  0  0
 16 15  1  0  0  0  0
 17 18  1  0  0  0  0
 17 16  2  0  0  0  0
 18 13  2  0  0  0  0
 19 20  1  0  0  0  0
 22  3  1  0  0  0  0
 23  4  1  0  0  0  0
 24  5  1  0  0  0  0
 28 10  1  0  0  0  0
 29 11  1  0  0  0  0
 30 12  1  0  0  0  0
 33 16  1  0  0  0  0
 34 17  1  0  0  0  0
 35 18  1  0  0  0  0
M  END
