3
 OpenBabel05122313113D

 41 43  0  0  0  0  0  0  0  0999 V2000
   -0.6998   -0.2335    0.0435 N   0  0  0  0  0  0  0  0  0  0  0  0
   -1.8620    0.4476    0.0404 N   0  0  0  0  0  0  0  0  0  0  0  0
    0.5323    0.3419    0.0660 C   0  0  0  0  0  2  0  0  0  0  0  0
   -2.9863   -0.2232   -0.0224 C   0  0  0  0  0  0  0  0  0  0  0  0
    0.6712    6.1841   -0.1966 C   0  0  0  0  0  0  0  0  0  0  0  0
    0.0494    2.5199   -1.1226 C   0  0  0  0  0  0  0  0  0  0  0  0
    0.1112    3.9154   -1.1883 C   0  0  0  0  0  0  0  0  0  0  0  0
    0.6126    4.6799   -0.1116 C   0  0  0  0  0  0  0  0  0  0  0  0
    1.0539    3.9884    1.0329 C   0  0  0  0  0  0  0  0  0  0  0  0
    1.0177    2.5877    1.0975 C   0  0  0  0  0  0  0  0  0  0  0  0
    0.5183    1.8315    0.0192 C   0  0  0  0  0  0  0  0  0  0  0  0
   -5.4881   -0.0422   -0.2560 C   0  0  0  0  0  0  0  0  0  0  0  0
   -6.6686    0.7136   -0.2228 C   0  0  0  0  0  0  0  0  0  0  0  0
   -6.6245    2.0807    0.0895 C   0  0  0  0  0  0  0  0  0  0  0  0
   -5.3864    2.6902    0.3657 C   0  0  0  0  0  0  0  0  0  0  0  0
   -4.2068    1.9419    0.3352 C   0  0  0  0  0  0  0  0  0  0  0  0
   -4.2394    0.5594    0.0255 C   0  0  0  0  0  0  0  0  0  0  0  0
   -2.4126   -2.3953   -1.1852 C   0  0  0  0  0  0  0  0  0  0  0  0
   -2.3853   -3.7969   -1.2219 C   0  0  0  0  0  0  0  0  0  0  0  0
   -2.9839   -4.5387   -0.1925 C   0  0  0  0  0  0  0  0  0  0  0  0
   -3.6092   -3.8743    0.8755 C   0  0  0  0  0  0  0  0  0  0  0  0
   -3.6305   -2.4735    0.9196 C   0  0  0  0  0  0  0  0  0  0  0  0
   -3.0301   -1.7159   -0.1106 C   0  0  0  0  0  0  0  0  0  0  0  0
    1.0084    6.6348    0.7568 H   0  0  0  0  0  0  0  0  0  0  0  0
   -0.3212    6.6142   -0.4453 H   0  0  0  0  0  0  0  0  0  0  0  0
    1.3710    6.5162   -0.9926 H   0  0  0  0  0  0  0  0  0  0  0  0
   -0.3563    1.9466   -1.9693 H   0  0  0  0  0  0  0  0  0  0  0  0
   -0.2473    4.4294   -2.0947 H   0  0  0  0  0  0  0  0  0  0  0  0
    1.4362    4.5595    1.8940 H   0  0  0  0  0  0  0  0  0  0  0  0
    1.3691    2.0623    1.9979 H   0  0  0  0  0  0  0  0  0  0  0  0
   -5.5303   -1.1103   -0.5143 H   0  0  0  0  0  0  0  0  0  0  0  0
   -7.6311    0.2291   -0.4472 H   0  0  0  0  0  0  0  0  0  0  0  0
   -7.5521    2.6725    0.1183 H   0  0  0  0  0  0  0  0  0  0  0  0
   -5.3446    3.7623    0.6122 H   0  0  0  0  0  0  0  0  0  0  0  0
   -3.2333    2.4056    0.5501 H   0  0  0  0  0  0  0  0  0  0  0  0
   -1.9451   -1.8200   -1.9989 H   0  0  0  0  0  0  0  0  0  0  0  0
   -1.8806   -4.3071   -2.0552 H   0  0  0  0  0  0  0  0  0  0  0  0
   -2.9583   -5.6385   -0.2188 H   0  0  0  0  0  0  0  0  0  0  0  0
   -4.0761   -4.4526    1.6872 H   0  0  0  0  0  0  0  0  0  0  0  0
   -4.1083   -1.9519    1.7627 H   0  0  0  0  0  0  0  0  0  0  0  0
   -0.7265   -1.2671    0.0398 H   0  0  0  0  0  0  0  0  0  0  0  0
  1  3  1  0  0  0  0
  2  1  1  0  0  0  0
  4 17  1  0  0  0  0
  4  2  2  0  0  0  0
  5  8  1  0  0  0  0
  5 24  1  0  0  0  0
  6 11  1  0  0  0  0
  7  6  2  0  0  0  0
  7  8  1  0  0  0  0
  8  9  2  0  0  0  0
  9 10  1  0  0  0  0
  9 29  1  0  0  0  0
 10 30  1  0  0  0  0
 11  3  1  0  0  0  0
 11 10  2  0  0  0  0
 12 13  2  0  0  0  0
 12 17  1  0  0  0  0
 13 14  1  0  0  0  0
 14 33  1  0  0  0  0
 14 15  2  0  0  0  0
 15 34  1  0  0  0  0
 16 15  1  0  0  0  0
 16 35  1  0  0  0  0
 17 16  2  0  0  0  0
 18 23  1  0  0  0  0
 19 18  2  0  0  0  0
 19 20  1  0  0  0  0
 20 21  2  0  0  0  0
 21 22  1  0  0  0  0
 21 39  1  0  0  0  0
 22 40  1  0  0  0  0
 23  4  1  0  0  0  0
 23 22  2  0  0  0  0
 25  5  1  0  0  0  0
 26  5  1  0  0  0  0
 27  6  1  0  0  0  0
 28  7  1  0  0  0  0
 31 12  1  0  0  0  0
 32 13  1  0  0  0  0
 36 18  1  0  0  0  0
 37 19  1  0  0  0  0
 38 20  1  0  0  0  0
 41  1  1  0  0  0  0
M  END
