14
 OpenBabel05122313113D

 42 42  0  0  1  0  0  0  0  0999 V2000
   -0.2375   -1.2613   -0.5557 C   0  0  0  0  0  0  0  0  0  0  0  0
   -0.7100   -2.5407   -0.2712 N   0  0  0  0  0  0  0  0  0  0  0  0
   -0.2634   -3.2506    0.9077 C   0  0  0  0  0  0  0  0  0  0  0  0
   -1.1100   -3.3750   -1.3904 C   0  0  0  0  0  0  0  0  0  0  0  0
    1.0214   -0.6701   -0.2246 C   0  0  0  0  0  0  0  0  0  0  0  0
    4.2670   -2.7575    0.2694 C   0  0  0  0  0  0  0  0  0  0  0  0
    3.0438   -2.1747   -0.4370 C   0  0  0  0  0  0  0  0  0  0  0  0
    2.2125   -1.2546    0.4756 C   0  0  0  0  0  0  0  0  0  0  0  0
    1.0819    0.6118   -0.9021 C   0  0  0  0  0  0  0  0  0  0  0  0
    3.3396    3.4447   -0.7002 C   0  0  0  0  0  0  0  0  0  0  0  0
    2.0773    2.7445   -1.1589 C   0  0  0  0  0  0  0  0  0  0  0  0
    2.2069    1.3471   -0.8540 O   0  0  0  0  0  0  0  0  0  0  0  0
   -0.1313    0.8703   -1.5831 C   0  0  0  0  0  0  0  0  0  0  0  0
   -1.0235   -0.2658   -1.3241 C   0  0  2  0  0  3  0  0  0  0  0  0
   -2.4163   -0.0441   -1.1050 C   0  0  0  0  0  3  0  0  0  0  0  0
   -3.3628   -1.1015   -0.5961 C   0  0  0  0  0  0  0  0  0  0  0  0
   -3.1235    1.0934   -1.8011 C   0  0  0  0  0  0  0  0  0  0  0  0
   -0.1881   -2.5496    1.7596 H   0  0  0  0  0  0  0  0  0  0  0  0
   -1.0154   -4.0238    1.1710 H   0  0  0  0  0  0  0  0  0  0  0  0
    0.7176   -3.7703    0.7778 H   0  0  0  0  0  0  0  0  0  0  0  0
   -1.4720   -2.7441   -2.2231 H   0  0  0  0  0  0  0  0  0  0  0  0
   -0.2675   -4.0011   -1.7763 H   0  0  0  0  0  0  0  0  0  0  0  0
   -1.9329   -4.0581   -1.0890 H   0  0  0  0  0  0  0  0  0  0  0  0
    4.8566   -3.4114   -0.4041 H   0  0  0  0  0  0  0  0  0  0  0  0
    4.9407   -1.9541    0.6333 H   0  0  0  0  0  0  0  0  0  0  0  0
    3.9717   -3.3629    1.1519 H   0  0  0  0  0  0  0  0  0  0  0  0
    2.3954   -2.9956   -0.8155 H   0  0  0  0  0  0  0  0  0  0  0  0
    3.3573   -1.5992   -1.3344 H   0  0  0  0  0  0  0  0  0  0  0  0
    1.9044   -1.8061    1.3845 H   0  0  0  0  0  0  0  0  0  0  0  0
    2.8486   -0.4152    0.8247 H   0  0  0  0  0  0  0  0  0  0  0  0
    3.2838    4.5254   -0.9368 H   0  0  0  0  0  0  0  0  0  0  0  0
    3.4656    3.3309    0.3945 H   0  0  0  0  0  0  0  0  0  0  0  0
    4.2324    3.0230   -1.2030 H   0  0  0  0  0  0  0  0  0  0  0  0
    1.9144    2.8701   -2.2538 H   0  0  0  0  0  0  0  0  0  0  0  0
    1.1794    3.1374   -0.6306 H   0  0  0  0  0  0  0  0  0  0  0  0
   -0.3666    1.7582   -2.1759 H   0  0  0  0  0  0  0  0  0  0  0  0
   -3.8509   -1.6200   -1.4530 H   0  0  0  0  0  0  0  0  0  0  0  0
   -2.8653   -1.8589    0.0309 H   0  0  0  0  0  0  0  0  0  0  0  0
   -4.1733   -0.6263   -0.0085 H   0  0  0  0  0  0  0  0  0  0  0  0
   -3.6875    0.6980   -2.6760 H   0  0  0  0  0  0  0  0  0  0  0  0
   -3.8679    1.5635   -1.1280 H   0  0  0  0  0  0  0  0  0  0  0  0
   -2.4479    1.8889   -2.1607 H   0  0  0  0  0  0  0  0  0  0  0  0
  1  2  1  0  0  0  0
  1  5  2  0  0  0  0
  2  3  1  0  0  0  0
  3 19  1  0  0  0  0
  3 18  1  0  0  0  0
  4 23  1  0  0  0  0
  4  2  1  0  0  0  0
  5  8  1  0  0  0  0
  6 25  1  0  0  0  0
  6 26  1  0  0  0  0
  7  6  1  0  0  0  0
  7  8  1  0  0  0  0
  8 30  1  0  0  0  0
  8 29  1  0  0  0  0
  9 12  1  0  0  0  0
  9  5  1  0  0  0  0
 10 32  1  0  0  0  0
 11 12  1  0  0  0  0
 11 10  1  0  0  0  0
 11 35  1  0  0  0  0
 13 14  1  0  0  0  0
 13  9  2  0  0  0  0
 14 15  1  1  0  0  0
 14  1  1  0  0  0  0
 15 16  1  0  0  0  0
 16 39  1  0  0  0  0
 16 38  1  0  0  0  0
 17 41  1  0  0  0  0
 17 15  1  0  0  0  0
 20  3  1  0  0  0  0
 21  4  1  0  0  0  0
 22  4  1  0  0  0  0
 24  6  1  0  0  0  0
 27  7  1  0  0  0  0
 28  7  1  0  0  0  0
 31 10  1  0  0  0  0
 33 10  1  0  0  0  0
 34 11  1  0  0  0  0
 36 13  1  0  0  0  0
 37 16  1  0  0  0  0
 40 17  1  0  0  0  0
 42 17  1  0  0  0  0
M  END
