1
 OpenBabel05122313113D

 29 31  0  0  0  0  0  0  0  0999 V2000
   -1.5426    0.2376   -0.3670 C   0  0  0  0  0  3  0  0  0  0  0  0
   -1.0471    1.5195    0.1033 C   0  0  0  0  0  0  0  0  0  0  0  0
   -1.0933    2.8176   -0.4770 C   0  0  0  0  0  0  0  0  0  0  0  0
   -0.5139    3.8781    0.2054 C   0  0  0  0  0  0  0  0  0  0  0  0
    0.1439    3.6891    1.4549 C   0  0  0  0  0  0  0  0  0  0  0  0
    0.2191    2.4326    2.0392 C   0  0  0  0  0  0  0  0  0  0  0  0
   -0.3872    1.3344    1.3750 C   0  0  0  0  0  0  0  0  0  0  0  0
   -0.5672   -0.0582    1.7571 C   0  0  0  0  0  0  0  0  0  0  0  0
   -0.1885   -0.7860    2.9184 C   0  0  0  0  0  0  0  0  0  0  0  0
   -0.6902   -2.0697    3.1006 C   0  0  0  0  0  0  0  0  0  0  0  0
   -1.5728   -2.6522    2.1430 C   0  0  0  0  0  0  0  0  0  0  0  0
   -1.9138   -1.9878    0.9714 C   0  0  0  0  0  0  0  0  0  0  0  0
   -1.3934   -0.6818    0.7393 C   0  0  0  0  0  0  0  0  0  0  0  0
   -2.4274    0.0386   -1.5731 C   0  0  0  0  0  0  0  0  0  0  0  0
   -3.8834    0.2547   -1.2400 C   0  0  0  0  0  0  0  0  0  0  0  0
   -4.8516   -0.6663   -1.3809 C   0  0  0  0  0  0  0  0  0  0  0  0
   -1.5865    2.9742   -1.4466 H   0  0  0  0  0  0  0  0  0  0  0  0
   -0.5567    4.8884   -0.2288 H   0  0  0  0  0  0  0  0  0  0  0  0
    0.5989    4.5540    1.9597 H   0  0  0  0  0  0  0  0  0  0  0  0
    0.7315    2.2845    3.0000 H   0  0  0  0  0  0  0  0  0  0  0  0
    0.4660   -0.3208    3.6698 H   0  0  0  0  0  0  0  0  0  0  0  0
   -0.4252   -2.6373    4.0049 H   0  0  0  0  0  0  0  0  0  0  0  0
   -1.9925   -3.6503    2.3410 H   0  0  0  0  0  0  0  0  0  0  0  0
   -2.6081   -2.4401    0.2484 H   0  0  0  0  0  0  0  0  0  0  0  0
   -2.1045    0.7475   -2.3665 H   0  0  0  0  0  0  0  0  0  0  0  0
   -2.2928   -0.9783   -1.9974 H   0  0  0  0  0  0  0  0  0  0  0  0
   -4.1326    1.2470   -0.8220 H   0  0  0  0  0  0  0  0  0  0  0  0
   -4.6348   -1.6686   -1.7890 H   0  0  0  0  0  0  0  0  0  0  0  0
   -5.8958   -0.4548   -1.1035 H   0  0  0  0  0  0  0  0  0  0  0  0
  1  2  1  0  0  0  0
  1 13  1  0  0  0  0
  2  7  1  0  0  0  0
  3  2  2  0  0  0  0
  3  4  1  0  0  0  0
  4  5  2  0  0  0  0
  5 19  1  0  0  0  0
  5  6  1  0  0  0  0
  6 20  1  0  0  0  0
  7  8  1  0  0  0  0
  7  6  2  0  0  0  0
  8  9  1  0  0  0  0
  9 10  2  0  0  0  0
  9 21  1  0  0  0  0
 10 22  1  0  0  0  0
 11 23  1  0  0  0  0
 11 10  1  0  0  0  0
 12 11  2  0  0  0  0
 13 12  1  0  0  0  0
 13  8  2  0  0  0  0
 14 15  1  0  0  0  0
 14  1  1  0  0  0  0
 15 27  1  0  0  0  0
 16 15  2  0  0  0  0
 16 29  1  0  0  0  0
 17  3  1  0  0  0  0
 18  4  1  0  0  0  0
 24 12  1  0  0  0  0
 25 14  1  0  0  0  0
 26 14  1  0  0  0  0
 28 16  1  0  0  0  0
M  END
