3
 OpenBabel05122313113D

 45 46  0  0  0  0  0  0  0  0999 V2000
    1.1291    0.9250   -0.8640 N   0  0  0  0  0  0  0  0  0  0  0  0
    1.2562   -1.1337   -0.1164 N   0  0  0  0  0  0  0  0  0  0  0  0
    0.3929   -0.1050   -0.3637 C   0  0  0  0  0  2  0  0  0  0  0  0
    2.4976    0.5192   -1.1648 C   0  0  0  0  0  0  0  0  0  0  0  0
    3.2195    1.3253   -0.9394 H   0  0  0  0  0  0  0  0  0  0  0  0
    2.5936    0.2682   -2.2492 H   0  0  0  0  0  0  0  0  0  0  0  0
    2.6879   -0.7133   -0.2674 C   0  0  0  0  0  0  0  0  0  0  0  0
    3.2607   -0.2882    1.1131 C   0  0  0  0  0  0  0  0  0  0  0  0
    2.6072    0.4998    1.5421 H   0  0  0  0  0  0  0  0  0  0  0  0
    3.2037   -1.1538    1.8000 H   0  0  0  0  0  0  0  0  0  0  0  0
    4.7171    0.1879    1.0283 C   0  0  0  0  0  0  0  0  0  0  0  0
    4.7742    1.1470    0.4667 H   0  0  0  0  0  0  0  0  0  0  0  0
    5.0909    0.4166    2.0476 H   0  0  0  0  0  0  0  0  0  0  0  0
    5.6098   -0.8541    0.3444 C   0  0  0  0  0  0  0  0  0  0  0  0
    5.6674   -1.7627    0.9853 H   0  0  0  0  0  0  0  0  0  0  0  0
    6.6480   -0.4744    0.2479 H   0  0  0  0  0  0  0  0  0  0  0  0
    5.0517   -1.2474   -1.0286 C   0  0  0  0  0  0  0  0  0  0  0  0
    5.6842   -2.0296   -1.4967 H   0  0  0  0  0  0  0  0  0  0  0  0
    5.0938   -0.3715   -1.7138 H   0  0  0  0  0  0  0  0  0  0  0  0
    3.6066   -1.7572   -0.9218 C   0  0  0  0  0  0  0  0  0  0  0  0
    3.2076   -2.0285   -1.9204 H   0  0  0  0  0  0  0  0  0  0  0  0
    3.6055   -2.6823   -0.3102 H   0  0  0  0  0  0  0  0  0  0  0  0
    0.6458    2.1942   -1.3858 C   0  0  0  0  0  0  0  0  0  0  0  0
   -0.3924    2.3162   -1.0328 H   0  0  0  0  0  0  0  0  0  0  0  0
    0.6048    2.1421   -2.4988 H   0  0  0  0  0  0  0  0  0  0  0  0
    1.4909    3.3981   -0.9531 C   0  0  0  0  0  0  0  0  0  0  0  0
    2.5075    3.3373   -1.4035 H   0  0  0  0  0  0  0  0  0  0  0  0
    1.0296    4.3018   -1.4065 H   0  0  0  0  0  0  0  0  0  0  0  0
    1.6066    3.5784    0.5631 C   0  0  0  0  0  0  0  0  0  0  0  0
    2.0026    2.6408    1.0120 H   0  0  0  0  0  0  0  0  0  0  0  0
    0.5910    3.7038    0.9937 H   0  0  0  0  0  0  0  0  0  0  0  0
    2.4955    4.7560    0.9613 C   0  0  0  0  0  0  0  0  0  0  0  0
    3.5302    4.6319    0.5772 H   0  0  0  0  0  0  0  0  0  0  0  0
    2.5590    4.8655    2.0624 H   0  0  0  0  0  0  0  0  0  0  0  0
    2.1067    5.7125    0.5536 H   0  0  0  0  0  0  0  0  0  0  0  0
    0.8091   -2.4767    0.2902 C   0  0  0  0  0  0  0  0  0  0  0  0
   -0.2623   -2.3192    0.5091 H   0  0  0  0  0  0  0  0  0  0  0  0
    1.4396   -3.0060    1.5818 C   0  0  0  0  0  0  0  0  0  0  0  0
    2.5185   -3.2374    1.4764 H   0  0  0  0  0  0  0  0  0  0  0  0
    0.9317   -3.9501    1.8623 H   0  0  0  0  0  0  0  0  0  0  0  0
    1.3052   -2.2935    2.4181 H   0  0  0  0  0  0  0  0  0  0  0  0
    0.8670   -3.4966   -0.8581 C   0  0  0  0  0  0  0  0  0  0  0  0
    0.4476   -3.0617   -1.7858 H   0  0  0  0  0  0  0  0  0  0  0  0
    0.2519   -4.3805   -0.5961 H   0  0  0  0  0  0  0  0  0  0  0  0
    1.8930   -3.8537   -1.0689 H   0  0  0  0  0  0  0  0  0  0  0  0
  1  3  1  0  0  0  0
  2 36  1  0  0  0  0
  3  2  1  0  0  0  0
  4  5  1  0  0  0  0
  4  1  1  0  0  0  0
  4  7  1  0  0  0  0
  6  4  1  0  0  0  0
  7  2  1  0  0  0  0
  7  8  1  0  0  0  0
  8  9  1  0  0  0  0
  8 10  1  0  0  0  0
 11  8  1  0  0  0  0
 11 13  1  0  0  0  0
 12 11  1  0  0  0  0
 14 15  1  0  0  0  0
 14 11  1  0  0  0  0
 16 14  1  0  0  0  0
 17 20  1  0  0  0  0
 17 14  1  0  0  0  0
 18 17  1  0  0  0  0
 19 17  1  0  0  0  0
 20 22  1  0  0  0  0
 20  7  1  0  0  0  0
 21 20  1  0  0  0  0
 23 24  1  0  0  0  0
 23 26  1  0  0  0  0
 23  1  1  0  0  0  0
 25 23  1  0  0  0  0
 26 29  1  0  0  0  0
 27 26  1  0  0  0  0
 28 26  1  0  0  0  0
 29 32  1  0  0  0  0
 29 31  1  0  0  0  0
 29 30  1  0  0  0  0
 32 34  1  0  0  0  0
 33 32  1  0  0  0  0
 35 32  1  0  0  0  0
 36 37  1  0  0  0  0
 36 38  1  0  0  0  0
 38 40  1  0  0  0  0
 38 41  1  0  0  0  0
 39 38  1  0  0  0  0
 42 44  1  0  0  0  0
 42 36  1  0  0  0  0
 43 42  1  0  0  0  0
 45 42  1  0  0  0  0
M  END
