3
 OpenBabel05122313113D

 45 46  0  0  0  0  0  0  0  0999 V2000
   -1.0236    1.3638   -0.7371 N   0  0  0  0  0  0  0  0  0  0  0  0
   -1.7908   -0.5350    0.0246 N   0  0  0  0  0  0  0  0  0  0  0  0
   -0.6444    0.1403   -0.2805 C   0  0  0  0  0  2  0  0  0  0  0  0
   -2.4753    1.4889   -0.8563 C   0  0  0  0  0  0  0  0  0  0  0  0
   -2.7892    1.3328   -1.9167 H   0  0  0  0  0  0  0  0  0  0  0  0
   -2.8233    2.4905   -0.5374 H   0  0  0  0  0  0  0  0  0  0  0  0
   -2.9698    0.3653    0.0633 C   0  0  0  0  0  0  0  0  0  0  0  0
   -3.2473    0.8860    1.4984 C   0  0  0  0  0  0  0  0  0  0  0  0
   -2.4829    1.6234    1.8145 H   0  0  0  0  0  0  0  0  0  0  0  0
   -3.1763    0.0304    2.2005 H   0  0  0  0  0  0  0  0  0  0  0  0
   -4.6888    1.4470    1.4458 C   0  0  0  0  0  0  0  0  0  0  0  0
   -5.2674    1.1295    2.3353 H   0  0  0  0  0  0  0  0  0  0  0  0
   -4.6986    2.5549    1.4520 H   0  0  0  0  0  0  0  0  0  0  0  0
   -5.3122    0.8918    0.1303 C   0  0  0  0  0  0  0  0  0  0  0  0
   -5.3825    1.6936   -0.6338 H   0  0  0  0  0  0  0  0  0  0  0  0
   -6.3394    0.5030    0.2705 H   0  0  0  0  0  0  0  0  0  0  0  0
   -4.3374   -0.1982   -0.3462 C   0  0  0  0  0  0  0  0  0  0  0  0
   -4.5256   -1.1389    0.2098 H   0  0  0  0  0  0  0  0  0  0  0  0
   -4.4065   -0.4268   -1.4283 H   0  0  0  0  0  0  0  0  0  0  0  0
   -0.1822    2.4348   -1.2372 C   0  0  0  0  0  0  0  0  0  0  0  0
   -0.5429    2.7159   -2.2534 H   0  0  0  0  0  0  0  0  0  0  0  0
    0.8382    2.0307   -1.3637 H   0  0  0  0  0  0  0  0  0  0  0  0
   -0.1550    3.6689   -0.3290 C   0  0  0  0  0  0  0  0  0  0  0  0
   -1.1780    4.0982   -0.2394 H   0  0  0  0  0  0  0  0  0  0  0  0
    0.1392    3.3489    0.6929 H   0  0  0  0  0  0  0  0  0  0  0  0
    0.8102    4.7462   -0.8300 C   0  0  0  0  0  0  0  0  0  0  0  0
    0.5212    5.0509   -1.8607 H   0  0  0  0  0  0  0  0  0  0  0  0
    1.8264    4.3037   -0.9151 H   0  0  0  0  0  0  0  0  0  0  0  0
    0.8640    5.9725    0.0807 C   0  0  0  0  0  0  0  0  0  0  0  0
   -0.1330    6.4513    0.1776 H   0  0  0  0  0  0  0  0  0  0  0  0
    1.5667    6.7375   -0.3057 H   0  0  0  0  0  0  0  0  0  0  0  0
    1.2005    5.6942    1.1008 H   0  0  0  0  0  0  0  0  0  0  0  0
   -1.8815   -1.9220    0.4387 C   0  0  0  0  0  0  0  0  0  0  0  0
   -2.5154   -1.9906    1.3504 H   0  0  0  0  0  0  0  0  0  0  0  0
   -0.8657   -2.2351    0.7418 H   0  0  0  0  0  0  0  0  0  0  0  0
   -2.4169   -2.9035   -0.6351 C   0  0  0  0  0  0  0  0  0  0  0  0
   -3.5087   -2.7287   -0.7476 H   0  0  0  0  0  0  0  0  0  0  0  0
   -1.7745   -2.6930   -2.0098 C   0  0  0  0  0  0  0  0  0  0  0  0
   -0.6815   -2.8693   -1.9816 H   0  0  0  0  0  0  0  0  0  0  0  0
   -1.9352   -1.6620   -2.3833 H   0  0  0  0  0  0  0  0  0  0  0  0
   -2.2092   -3.3936   -2.7509 H   0  0  0  0  0  0  0  0  0  0  0  0
   -2.2279   -4.3385   -0.1275 C   0  0  0  0  0  0  0  0  0  0  0  0
   -2.6866   -5.0699   -0.8224 H   0  0  0  0  0  0  0  0  0  0  0  0
   -2.6931   -4.4846    0.8695 H   0  0  0  0  0  0  0  0  0  0  0  0
   -1.1503   -4.5876   -0.0397 H   0  0  0  0  0  0  0  0  0  0  0  0
  1  3  1  0  0  0  0
  2  7  1  0  0  0  0
  2 33  1  0  0  0  0
  3  2  1  0  0  0  0
  4  1  1  0  0  0  0
  4  6  1  0  0  0  0
  4  7  1  0  0  0  0
  5  4  1  0  0  0  0
  7  8  1  0  0  0  0
  8  9  1  0  0  0  0
  8 10  1  0  0  0  0
 11 13  1  0  0  0  0
 11  8  1  0  0  0  0
 11 12  1  0  0  0  0
 14 16  1  0  0  0  0
 14 11  1  0  0  0  0
 15 14  1  0  0  0  0
 17  7  1  0  0  0  0
 17 14  1  0  0  0  0
 17 18  1  0  0  0  0
 19 17  1  0  0  0  0
 20  1  1  0  0  0  0
 20 23  1  0  0  0  0
 21 20  1  0  0  0  0
 22 20  1  0  0  0  0
 23 24  1  0  0  0  0
 23 25  1  0  0  0  0
 26 23  1  0  0  0  0
 26 29  1  0  0  0  0
 27 26  1  0  0  0  0
 28 26  1  0  0  0  0
 29 30  1  0  0  0  0
 29 32  1  0  0  0  0
 31 29  1  0  0  0  0
 33 35  1  0  0  0  0
 33 34  1  0  0  0  0
 36 42  1  0  0  0  0
 36 33  1  0  0  0  0
 37 36  1  0  0  0  0
 38 39  1  0  0  0  0
 38 36  1  0  0  0  0
 40 38  1  0  0  0  0
 41 38  1  0  0  0  0
 42 45  1  0  0  0  0
 42 44  1  0  0  0  0
 43 42  1  0  0  0  0
M  END
