4
 OpenBabel05122313113D

 26 26  0  0  0  0  0  0  0  0999 V2000
    3.4124   -0.8166   -1.3444 I   0  0  0  0  0  0  0  0  0  0  0  0
    1.0496   -0.8768    1.4194 N   0  0  0  0  0  0  0  0  0  0  0  0
    0.9687    0.9427    0.0450 N   0  0  0  0  0  0  0  0  0  0  0  0
    0.3373   -0.1491    0.5542 C   0  0  0  0  0  2  0  0  0  0  0  0
    0.6681   -2.1038    2.1230 C   0  0  0  0  0  0  0  0  0  0  0  0
    1.4864   -3.2908    1.6072 C   0  0  0  0  0  0  0  0  0  0  0  0
    0.8105   -1.8915    3.6330 C   0  0  0  0  0  0  0  0  0  0  0  0
    2.2460    1.4326    0.4311 C   0  0  0  0  0  0  0  0  0  0  0  0
    2.3183    2.5764    1.2546 C   0  0  0  0  0  0  0  0  0  0  0  0
    3.5553    3.1060    1.6401 C   0  0  0  0  0  0  0  0  0  0  0  0
    4.7421    2.4848    1.2199 C   0  0  0  0  0  0  0  0  0  0  0  0
    4.6926    1.3484    0.3991 C   0  0  0  0  0  0  0  0  0  0  0  0
    3.4505    0.8299   -0.0058 C   0  0  0  0  0  0  0  0  0  0  0  0
    2.0053   -0.5551    1.6327 H   0  0  0  0  0  0  0  0  0  0  0  0
    0.3109    1.6378   -0.3602 H   0  0  0  0  0  0  0  0  0  0  0  0
   -0.3980   -2.2747    1.8873 H   0  0  0  0  0  0  0  0  0  0  0  0
    1.1855   -4.2212    2.1279 H   0  0  0  0  0  0  0  0  0  0  0  0
    1.3287   -3.4349    0.5214 H   0  0  0  0  0  0  0  0  0  0  0  0
    2.5714   -3.1347    1.7836 H   0  0  0  0  0  0  0  0  0  0  0  0
    0.5128   -2.8074    4.1802 H   0  0  0  0  0  0  0  0  0  0  0  0
    1.8624   -1.6647    3.9089 H   0  0  0  0  0  0  0  0  0  0  0  0
    0.1704   -1.0565    3.9790 H   0  0  0  0  0  0  0  0  0  0  0  0
    1.3733    3.0362    1.5822 H   0  0  0  0  0  0  0  0  0  0  0  0
    3.5921    4.0018    2.2772 H   0  0  0  0  0  0  0  0  0  0  0  0
    5.7196    2.8885    1.5235 H   0  0  0  0  0  0  0  0  0  0  0  0
    5.6211    0.8724    0.0533 H   0  0  0  0  0  0  0  0  0  0  0  0
  1 13  1  0  0  0  0
  2 14  1  0  0  0  0
  2  5  1  0  0  0  0
  3  8  1  0  0  0  0
  3  4  1  0  0  0  0
  4  2  1  0  0  0  0
  5  7  1  0  0  0  0
  6 19  1  0  0  0  0
  6  5  1  0  0  0  0
  6 17  1  0  0  0  0
  7 21  1  0  0  0  0
  7 22  1  0  0  0  0
  7 20  1  0  0  0  0
  8  9  1  0  0  0  0
  9 23  1  0  0  0  0
  9 10  2  0  0  0  0
 10 24  1  0  0  0  0
 11 25  1  0  0  0  0
 11 10  1  0  0  0  0
 12 11  2  0  0  0  0
 13 12  1  0  0  0  0
 13  8  2  0  0  0  0
 15  3  1  0  0  0  0
 16  5  1  0  0  0  0
 18  6  1  0  0  0  0
 26 12  1  0  0  0  0
M  END
