11
 OpenBabel05122313113D

 38 42  0  0  1  0  0  0  0  0999 V2000
   -1.2791   -0.2194   -0.5932 C   0  0  2  0  0  3  0  0  0  0  0  0
   -3.2386   -1.9421   -0.6105 C   0  0  0  0  0  0  0  0  0  0  0  0
   -2.4826   -2.7394   -0.6494 H   0  0  0  0  0  0  0  0  0  0  0  0
   -4.1296   -2.1544   -0.0002 H   0  0  0  0  0  0  0  0  0  0  0  0
   -2.7271   -0.5146   -0.5990 C   0  0  0  0  0  0  0  0  0  0  0  0
   -3.3309    0.2077   -0.0277 H   0  0  0  0  0  0  0  0  0  0  0  0
    0.7661    0.9325   -0.4360 C   0  0  2  0  0  3  0  0  0  0  0  0
    2.6951   -1.7764   -2.2811 C   0  0  0  0  0  0  0  0  0  0  0  0
    1.8690   -1.8631   -3.0018 H   0  0  0  0  0  0  0  0  0  0  0  0
    3.6923   -1.6084   -2.7171 H   0  0  0  0  0  0  0  0  0  0  0  0
   -0.6769    1.0744   -0.3496 C   0  0  1  0  0  3  0  0  0  0  0  0
    1.6665    2.1115   -0.3876 C   0  0  0  0  0  0  0  0  0  0  0  0
    1.1216    3.0337   -0.1361 H   0  0  0  0  0  0  0  0  0  0  0  0
    2.5643   -2.5766   -1.0169 C   0  0  0  0  0  0  0  0  0  0  0  0
    3.4718   -2.9832   -0.5449 H   0  0  0  0  0  0  0  0  0  0  0  0
    1.6566   -3.1887   -0.9185 H   0  0  0  0  0  0  0  0  0  0  0  0
    2.3845   -1.0704   -0.9613 C   0  0  0  0  0  0  0  0  0  0  0  0
    3.2272   -0.5236   -0.5164 H   0  0  0  0  0  0  0  0  0  0  0  0
    1.0555   -0.4566   -0.7376 C   0  0  2  0  0  3  0  0  0  0  0  0
    2.7859    2.2731   -1.4101 C   0  0  0  0  0  0  0  0  0  0  0  0
    2.9663    1.4221   -2.0851 H   0  0  0  0  0  0  0  0  0  0  0  0
    2.9137    3.2622   -1.8757 H   0  0  0  0  0  0  0  0  0  0  0  0
   -0.3730   -2.1921   -1.7438 O   0  0  0  0  0  0  0  0  0  0  0  0
   -0.2257   -1.1134   -1.1618 C   0  0  0  0  0  0  0  0  0  0  0  0
   -1.3936    2.3787   -0.2011 C   0  0  0  0  0  0  0  0  0  0  0  0
   -1.4116    2.8029    0.8155 H   0  0  0  0  0  0  0  0  0  0  0  0
   -1.2974    3.3986   -1.3259 C   0  0  0  0  0  0  0  0  0  0  0  0
   -1.2016    4.4600   -1.0505 H   0  0  0  0  0  0  0  0  0  0  0  0
   -0.7268    3.1070   -2.2216 H   0  0  0  0  0  0  0  0  0  0  0  0
   -3.3872   -1.0996   -1.8461 C   0  0  0  0  0  0  0  0  0  0  0  0
   -4.3803   -0.7105   -2.1200 H   0  0  0  0  0  0  0  0  0  0  0  0
   -2.7241   -1.3432   -2.6894 H   0  0  0  0  0  0  0  0  0  0  0  0
    3.1198    2.0994    0.0440 C   0  0  0  0  0  0  0  0  0  0  0  0
    3.4649    2.9760    0.6132 H   0  0  0  0  0  0  0  0  0  0  0  0
    3.5655    1.1538    0.3826 H   0  0  0  0  0  0  0  0  0  0  0  0
   -2.5986    2.6891   -1.0650 C   0  0  0  0  0  0  0  0  0  0  0  0
   -2.9150    1.9250   -1.7908 H   0  0  0  0  0  0  0  0  0  0  0  0
   -3.4260    3.2503   -0.6052 H   0  0  0  0  0  0  0  0  0  0  0  0
  1  5  1  6  0  0  0
  1 11  1  0  0  0  0
  2  5  1  0  0  0  0
  2  4  1  0  0  0  0
  3  2  1  0  0  0  0
  5  6  1  0  0  0  0
  7 12  1  6  0  0  0
  7 11  1  0  0  0  0
  8 14  1  0  0  0  0
  8 17  1  0  0  0  0
  9  8  1  0  0  0  0
 10  8  1  0  0  0  0
 11 25  1  6  0  0  0
 12 13  1  0  0  0  0
 12 33  1  0  0  0  0
 14 17  1  0  0  0  0
 14 16  1  0  0  0  0
 14 15  1  0  0  0  0
 17 18  1  0  0  0  0
 19 17  1  6  0  0  0
 19  7  1  0  0  0  0
 20 12  1  0  0  0  0
 20 33  1  0  0  0  0
 21 20  1  0  0  0  0
 22 20  1  0  0  0  0
 23 24  2  0  0  0  0
 24 19  1  0  0  0  0
 24  1  1  0  0  0  0
 25 26  1  0  0  0  0
 27 36  1  0  0  0  0
 27 28  1  0  0  0  0
 27 25  1  0  0  0  0
 29 27  1  0  0  0  0
 30  2  1  0  0  0  0
 30  5  1  0  0  0  0
 31 30  1  0  0  0  0
 32 30  1  0  0  0  0
 33 35  1  0  0  0  0
 33 34  1  0  0  0  0
 36 38  1  0  0  0  0
 36 25  1  0  0  0  0
 37 36  1  0  0  0  0
M  END
