1
 OpenBabel05122313113D

 21 22  0  0  0  0  0  0  0  0999 V2000
    0.5141    0.0001    0.0001 C   0  0  0  0  0  3  0  0  0  0  0  0
    1.2581    0.0427    1.2051 C   0  0  0  0  0  0  0  0  0  0  0  0
    2.6605    0.0437    1.2061 C   0  0  0  0  0  0  0  0  0  0  0  0
    3.3976    0.0001    0.0002 C   0  0  0  0  0  0  0  0  0  0  0  0
    2.6606   -0.0435   -1.2057 C   0  0  0  0  0  0  0  0  0  0  0  0
    1.2581   -0.0425   -1.2048 C   0  0  0  0  0  0  0  0  0  0  0  0
    4.8808    0.0002    0.0002 C   0  0  0  0  0  0  0  0  0  0  0  0
    5.6124    0.7023    0.9869 C   0  0  0  0  0  0  0  0  0  0  0  0
    7.0138    0.7011    0.9886 C   0  0  0  0  0  0  0  0  0  0  0  0
    7.7234    0.0002    0.0003 C   0  0  0  0  0  0  0  0  0  0  0  0
    7.0138   -0.7008   -0.9880 C   0  0  0  0  0  0  0  0  0  0  0  0
    5.6125   -0.7019   -0.9864 C   0  0  0  0  0  0  0  0  0  0  0  0
    0.7299    0.0663    2.1730 H   0  0  0  0  0  0  0  0  0  0  0  0
    3.1983    0.0497    2.1674 H   0  0  0  0  0  0  0  0  0  0  0  0
    3.1983   -0.0495   -2.1671 H   0  0  0  0  0  0  0  0  0  0  0  0
    0.7300   -0.0661   -2.1728 H   0  0  0  0  0  0  0  0  0  0  0  0
    5.0691    1.2798    1.7500 H   0  0  0  0  0  0  0  0  0  0  0  0
    7.5576    1.2624    1.7640 H   0  0  0  0  0  0  0  0  0  0  0  0
    8.8239    0.0002    0.0003 H   0  0  0  0  0  0  0  0  0  0  0  0
    7.5577   -1.2620   -1.7635 H   0  0  0  0  0  0  0  0  0  0  0  0
    5.0692   -1.2795   -1.7496 H   0  0  0  0  0  0  0  0  0  0  0  0
  1  2  1  0  0  0  0
  2  3  2  0  0  0  0
  2 13  1  0  0  0  0
  3 14  1  0  0  0  0
  4  7  1  0  0  0  0
  4  3  1  0  0  0  0
  5  6  1  0  0  0  0
  5  4  2  0  0  0  0
  6  1  2  0  0  0  0
  7  8  1  0  0  0  0
  8  9  2  0  0  0  0
  8 17  1  0  0  0  0
  9 18  1  0  0  0  0
 10 19  1  0  0  0  0
 10  9  1  0  0  0  0
 11 12  1  0  0  0  0
 11 10  2  0  0  0  0
 12  7  2  0  0  0  0
 15  5  1  0  0  0  0
 16  6  1  0  0  0  0
 20 11  1  0  0  0  0
 21 12  1  0  0  0  0
M  END
