5
 OpenBabel05122313113D

 58 60  0  0  1  0  0  0  0  0999 V2000
   -1.1886    1.6903   -0.1190 C   0  0  1  0  0  3  0  0  0  0  0  0
   -1.9123    0.7820    0.6996 C   0  0  0  0  0  0  0  0  0  0  0  0
   -1.9546    0.8239    1.7918 H   0  0  0  0  0  0  0  0  0  0  0  0
   -2.5462   -0.2069   -0.1143 C   0  0  0  0  0  0  0  0  0  0  0  0
   -1.3685    1.2552   -1.4779 C   0  0  0  0  0  3  0  0  0  0  0  0
   -0.9853    1.7544   -2.3739 H   0  0  0  0  0  0  0  0  0  0  0  0
   -2.1933    0.0983   -1.4631 C   0  0  0  0  0  3  0  0  0  0  0  0
   -2.4861   -0.4794   -2.3462 H   0  0  0  0  0  0  0  0  0  0  0  0
   -3.5511   -1.2582    0.3484 C   0  0  0  0  0  0  0  0  0  0  0  0
   -3.7144   -1.2108    1.8785 C   0  0  0  0  0  0  0  0  0  0  0  0
   -4.0812   -0.2210    2.2200 H   0  0  0  0  0  0  0  0  0  0  0  0
   -2.7533   -1.4253    2.3847 H   0  0  0  0  0  0  0  0  0  0  0  0
   -4.4538   -1.9710    2.2013 H   0  0  0  0  0  0  0  0  0  0  0  0
   -3.1414   -2.6833   -0.0715 C   0  0  0  0  0  0  0  0  0  0  0  0
   -3.9280   -3.4021    0.2378 H   0  0  0  0  0  0  0  0  0  0  0  0
   -2.1849   -2.9738    0.4028 H   0  0  0  0  0  0  0  0  0  0  0  0
   -3.0054   -2.7674   -1.1670 H   0  0  0  0  0  0  0  0  0  0  0  0
   -4.9060   -0.9054   -0.3122 C   0  0  0  0  0  0  0  0  0  0  0  0
   -5.2295    0.1209   -0.0435 H   0  0  0  0  0  0  0  0  0  0  0  0
   -5.6900   -1.6144    0.0255 H   0  0  0  0  0  0  0  0  0  0  0  0
   -4.8464   -0.9674   -1.4175 H   0  0  0  0  0  0  0  0  0  0  0  0
   -0.4293    2.9017    0.3433 C   0  0  2  0  0  0  0  0  0  0  0  0
    0.0565    2.9014    1.8251 C   0  0  0  0  0  0  0  0  0  0  0  0
    0.0659    1.8823    2.2584 H   0  0  0  0  0  0  0  0  0  0  0  0
   -0.4868    3.5754    2.5164 H   0  0  0  0  0  0  0  0  0  0  0  0
   -1.1953    4.1788   -0.0147 C   0  0  0  0  0  0  0  0  0  0  0  0
   -1.3529    4.2674   -1.1083 H   0  0  0  0  0  0  0  0  0  0  0  0
   -0.6629    5.0873    0.3325 H   0  0  0  0  0  0  0  0  0  0  0  0
   -2.1927    4.1651    0.4699 H   0  0  0  0  0  0  0  0  0  0  0  0
    2.4048   -0.6918   -0.1423 C   0  0  0  0  0  0  0  0  0  0  0  0
    2.0250    0.5057    0.5482 C   0  0  0  0  0  3  0  0  0  0  0  0
    2.1115    0.6542    1.6288 H   0  0  0  0  0  0  0  0  0  0  0  0
    1.5327    1.4663   -0.3816 C   0  0  0  0  0  0  0  0  0  0  0  0
    1.5511    0.8264   -1.6683 C   0  0  0  0  0  0  0  0  0  0  0  0
    1.2619    1.2770   -2.6230 H   0  0  0  0  0  0  0  0  0  0  0  0
    2.1012   -0.4748   -1.5144 C   0  0  0  0  0  0  0  0  0  0  0  0
    2.2442   -1.1971   -2.3241 H   0  0  0  0  0  0  0  0  0  0  0  0
    3.1850   -1.8773    0.4187 C   0  0  0  0  0  0  0  0  0  0  0  0
    3.3645   -1.7479    1.9417 C   0  0  0  0  0  0  0  0  0  0  0  0
    3.9254   -0.8283    2.2079 H   0  0  0  0  0  0  0  0  0  0  0  0
    3.9411   -2.6130    2.3269 H   0  0  0  0  0  0  0  0  0  0  0  0
    2.3848   -1.7265    2.4559 H   0  0  0  0  0  0  0  0  0  0  0  0
    4.5816   -1.8406   -0.2502 C   0  0  0  0  0  0  0  0  0  0  0  0
    4.5096   -1.9753   -1.3482 H   0  0  0  0  0  0  0  0  0  0  0  0
    5.2168   -2.6569    0.1518 H   0  0  0  0  0  0  0  0  0  0  0  0
    5.0949   -0.8766   -0.0563 H   0  0  0  0  0  0  0  0  0  0  0  0
    2.5052   -3.2209    0.0874 C   0  0  0  0  0  0  0  0  0  0  0  0
    1.5181   -3.2946    0.5811 H   0  0  0  0  0  0  0  0  0  0  0  0
    3.1436   -4.0588    0.4357 H   0  0  0  0  0  0  0  0  0  0  0  0
    2.3421   -3.3408   -1.0014 H   0  0  0  0  0  0  0  0  0  0  0  0
    1.1029    2.8942   -0.1004 C   0  0  2  0  0  0  0  0  0  0  0  0
    1.4557    3.3494    1.3455 C   0  0  0  0  0  0  0  0  0  0  0  0
    1.5812    4.4493    1.3894 H   0  0  0  0  0  0  0  0  0  0  0  0
    2.3416    2.8840    1.8192 H   0  0  0  0  0  0  0  0  0  0  0  0
    1.5326    3.8239   -1.2330 C   0  0  0  0  0  0  0  0  0  0  0  0
    2.6302    3.7689   -1.3833 H   0  0  0  0  0  0  0  0  0  0  0  0
    1.2730    4.8765   -1.0084 H   0  0  0  0  0  0  0  0  0  0  0  0
    1.0504    3.5592   -2.1957 H   0  0  0  0  0  0  0  0  0  0  0  0
  1  5  1  6  0  0  0
  1 22  1  0  0  0  0
  1  2  1  0  0  0  0
  2  3  1  0  0  0  0
  4  9  1  0  0  0  0
  4  2  2  0  0  0  0
  5  7  1  0  0  0  0
  6  5  1  0  0  0  0
  7  4  1  0  0  0  0
  8  7  1  0  0  0  0
  9 10  1  0  0  0  0
 10 13  1  0  0  0  0
 10 11  1  0  0  0  0
 10 12  1  0  0  0  0
 14 15  1  0  0  0  0
 14  9  1  0  0  0  0
 14 16  1  0  0  0  0
 17 14  1  0  0  0  0
 18 19  1  0  0  0  0
 18 20  1  0  0  0  0
 18  9  1  0  0  0  0
 21 18  1  0  0  0  0
 22 26  1  6  0  0  0
 22 23  1  0  0  0  0
 23 24  1  0  0  0  0
 23 25  1  0  0  0  0
 26 28  1  0  0  0  0
 26 29  1  0  0  0  0
 27 26  1  0  0  0  0
 30 38  1  0  0  0  0
 30 31  1  0  0  0  0
 31 32  1  0  0  0  0
 33 51  1  0  0  0  0
 33 31  1  0  0  0  0
 34 36  1  0  0  0  0
 34 33  2  0  0  0  0
 35 34  1  0  0  0  0
 36 30  2  0  0  0  0
 37 36  1  0  0  0  0
 38 39  1  0  0  0  0
 39 40  1  0  0  0  0
 39 41  1  0  0  0  0
 39 42  1  0  0  0  0
 43 46  1  0  0  0  0
 43 45  1  0  0  0  0
 43 38  1  0  0  0  0
 44 43  1  0  0  0  0
 47 38  1  0  0  0  0
 47 49  1  0  0  0  0
 47 48  1  0  0  0  0
 50 47  1  0  0  0  0
 51 55  1  6  0  0  0
 51 22  1  0  0  0  0
 51 52  1  0  0  0  0
 52 53  1  0  0  0  0
 52 54  1  0  0  0  0
 52 23  1  0  0  0  0
 55 57  1  0  0  0  0
 56 55  1  0  0  0  0
 58 55  1  0  0  0  0
M  END
