5
 OpenBabel05122313113D

 40 43  0  0  0  0  0  0  0  0999 V2000
    3.3066   -1.8317    0.0002 O   0  0  0  0  0  0  0  0  0  0  0  0
    2.6832    0.3584   -0.0005 N   0  0  0  0  0  0  0  0  0  0  0  0
    1.0146   -1.3908   -0.0003 N   0  0  0  0  0  0  0  0  0  0  0  0
   -1.1356   -1.5018   -0.0002 N   0  0  0  0  0  0  0  0  0  0  0  0
   -0.1186   -0.5948   -0.0003 C   0  0  0  0  0  2  0  0  0  0  0  0
    0.6942   -2.7550   -0.0003 C   0  0  0  0  0  0  0  0  0  0  0  0
    1.4630   -3.5311   -0.0004 H   0  0  0  0  0  0  0  0  0  0  0  0
   -0.6704   -2.8173   -0.0002 C   0  0  0  0  0  0  0  0  0  0  0  0
   -1.3511   -3.6734   -0.0003 H   0  0  0  0  0  0  0  0  0  0  0  0
    2.3142   -0.8842   -0.0002 C   0  0  0  0  0  0  0  0  0  0  0  0
    4.4656   -1.0745    0.0002 C   0  0  0  0  0  0  0  0  0  0  0  0
    4.0768    0.2867   -0.0002 C   0  0  0  0  0  0  0  0  0  0  0  0
    5.0565    1.2930   -0.0003 C   0  0  0  0  0  0  0  0  0  0  0  0
    4.7685    2.3533   -0.0006 H   0  0  0  0  0  0  0  0  0  0  0  0
    6.3969    0.8794    0.0001 C   0  0  0  0  0  0  0  0  0  0  0  0
    7.1935    1.6381    0.0000 H   0  0  0  0  0  0  0  0  0  0  0  0
    6.7563   -0.4883    0.0004 C   0  0  0  0  0  0  0  0  0  0  0  0
    7.8212   -0.7641    0.0007 H   0  0  0  0  0  0  0  0  0  0  0  0
    5.7883   -1.5089    0.0005 C   0  0  0  0  0  0  0  0  0  0  0  0
    6.0567   -2.5740    0.0008 H   0  0  0  0  0  0  0  0  0  0  0  0
   -2.5255   -1.1197   -0.0001 C   0  0  0  0  0  0  0  0  0  0  0  0
   -3.1734   -0.9281   -1.2386 C   0  0  0  0  0  0  0  0  0  0  0  0
   -2.4204   -1.0682   -2.5350 C   0  0  0  0  0  0  0  0  0  0  0  0
   -1.6404   -0.2808   -2.6145 H   0  0  0  0  0  0  0  0  0  0  0  0
   -3.0983   -0.9673   -3.4027 H   0  0  0  0  0  0  0  0  0  0  0  0
   -1.8988   -2.0443   -2.6139 H   0  0  0  0  0  0  0  0  0  0  0  0
   -4.5277   -0.5544   -1.2091 C   0  0  0  0  0  0  0  0  0  0  0  0
   -5.0525   -0.3968   -2.1647 H   0  0  0  0  0  0  0  0  0  0  0  0
   -5.2216   -0.3624    0.0003 C   0  0  0  0  0  0  0  0  0  0  0  0
   -6.6611    0.0848    0.0005 C   0  0  0  0  0  0  0  0  0  0  0  0
   -7.2015   -0.2733    0.8985 H   0  0  0  0  0  0  0  0  0  0  0  0
   -7.2014   -0.2724   -0.8980 H   0  0  0  0  0  0  0  0  0  0  0  0
   -6.7244    1.1942    0.0010 H   0  0  0  0  0  0  0  0  0  0  0  0
   -4.5274   -0.5545    1.2095 C   0  0  0  0  0  0  0  0  0  0  0  0
   -5.0520   -0.3970    2.1652 H   0  0  0  0  0  0  0  0  0  0  0  0
   -3.1731   -0.9282    1.2386 C   0  0  0  0  0  0  0  0  0  0  0  0
   -2.4199   -1.0684    2.5349 C   0  0  0  0  0  0  0  0  0  0  0  0
   -1.8980   -2.0443    2.6134 H   0  0  0  0  0  0  0  0  0  0  0  0
   -3.0976   -0.9678    3.4028 H   0  0  0  0  0  0  0  0  0  0  0  0
   -1.6401   -0.2808    2.6144 H   0  0  0  0  0  0  0  0  0  0  0  0
  1 11  1  0  0  0  0
  2 10  2  0  0  0  0
  2 12  1  0  0  0  0
  3  6  1  0  0  0  0
  3  5  1  0  0  0  0
  3 10  1  0  0  0  0
  4 21  1  0  0  0  0
  5  4  1  0  0  0  0
  6  8  2  0  0  0  0
  7  6  1  0  0  0  0
  8  4  1  0  0  0  0
  9  8  1  0  0  0  0
 10  1  1  0  0  0  0
 11 19  1  0  0  0  0
 12 11  2  0  0  0  0
 13 12  1  0  0  0  0
 13 15  2  0  0  0  0
 14 13  1  0  0  0  0
 15 17  1  0  0  0  0
 16 15  1  0  0  0  0
 17 19  2  0  0  0  0
 17 18  1  0  0  0  0
 19 20  1  0  0  0  0
 21 36  1  0  0  0  0
 22 27  1  0  0  0  0
 22 21  2  0  0  0  0
 23 22  1  0  0  0  0
 24 23  1  0  0  0  0
 25 23  1  0  0  0  0
 26 23  1  0  0  0  0
 27 29  2  0  0  0  0
 28 27  1  0  0  0  0
 29 30  1  0  0  0  0
 29 34  1  0  0  0  0
 30 33  1  0  0  0  0
 30 31  1  0  0  0  0
 32 30  1  0  0  0  0
 34 36  2  0  0  0  0
 34 35  1  0  0  0  0
 36 37  1  0  0  0  0
 37 38  1  0  0  0  0
 37 40  1  0  0  0  0
 37 39  1  0  0  0  0
M  END
