8
 OpenBabel05122313113D

 40 46  0  0  1  0  0  0  0  0999 V2000
   -1.9231    0.3488   -0.0000 C   0  0  2  0  0  0  0  0  0  0  0  0
   -0.5064   -0.6549   -0.0000 C   0  0  1  0  0  0  0  0  0  0  0  0
   -1.6625    1.8940   -0.0000 C   0  0  0  0  0  0  0  0  0  0  0  0
   -2.2792    2.5678   -1.2430 C   0  0  0  0  0  0  0  0  0  0  0  0
   -1.9751    3.6325   -1.2718 H   0  0  0  0  0  0  0  0  0  0  0  0
   -3.3829    2.5223   -1.2012 H   0  0  0  0  0  0  0  0  0  0  0  0
   -1.9569    2.0856   -2.1832 H   0  0  0  0  0  0  0  0  0  0  0  0
   -0.1456    2.1373   -0.0000 C   0  0  2  0  0  3  0  0  0  0  0  0
    0.6967    2.2581   -1.1682 C   0  0  0  0  0  3  0  0  0  0  0  0
    0.3606    2.2455   -2.2101 H   0  0  0  0  0  0  0  0  0  0  0  0
    2.0615    2.4539   -0.7119 C   0  0  0  0  0  0  0  0  0  0  0  0
    2.9411    2.5735   -1.3564 H   0  0  0  0  0  0  0  0  0  0  0  0
   -1.4869   -0.5167   -1.4118 B   0  0  1  0  0  0  0  0  0  0  0  0
   -1.0535    0.0751   -2.3671 H   0  0  0  0  0  0  0  0  0  0  0  0
   -3.1871   -0.3863   -0.8860 B   0  0  1  0  0  0  0  0  0  0  0  0
   -3.9352    0.3237   -1.5099 H   0  0  0  0  0  0  0  0  0  0  0  0
   -0.8659   -2.0804   -0.8813 B   0  0  2  0  0  0  0  0  0  0  0  0
    0.0162   -2.6081   -1.5140 H   0  0  0  0  0  0  0  0  0  0  0  0
   -2.5494   -1.9454   -1.4441 B   0  0  0  0  0  0  0  0  0  0  0  0
   -2.8973   -2.4153   -2.5038 H   0  0  0  0  0  0  0  0  0  0  0  0
   -3.6018   -1.8719   -0.0000 B   0  0  0  0  0  0  0  0  0  0  0  0
   -4.7361   -2.2940   -0.0000 H   0  0  0  0  0  0  0  0  0  0  0  0
   -2.1653   -2.9234   -0.0000 B   0  0  0  0  0  0  0  0  0  0  0  0
   -2.2307   -4.1326   -0.0000 H   0  0  0  0  0  0  0  0  0  0  0  0
   -2.2792    2.5678    1.2430 C   0  0  0  0  0  0  0  0  0  0  0  0
   -1.9751    3.6325    1.2717 H   0  0  0  0  0  0  0  0  0  0  0  0
   -3.3829    2.5223    1.2011 H   0  0  0  0  0  0  0  0  0  0  0  0
   -1.9569    2.0856    2.1832 H   0  0  0  0  0  0  0  0  0  0  0  0
    0.6967    2.2582    1.1681 C   0  0  0  0  0  3  0  0  0  0  0  0
    0.3606    2.2455    2.2100 H   0  0  0  0  0  0  0  0  0  0  0  0
    2.0615    2.4539    0.7119 C   0  0  0  0  0  0  0  0  0  0  0  0
    2.9411    2.5735    1.3563 H   0  0  0  0  0  0  0  0  0  0  0  0
   -1.4869   -0.5166    1.4118 B   0  0  2  0  0  0  0  0  0  0  0  0
   -1.0535    0.0751    2.3670 H   0  0  0  0  0  0  0  0  0  0  0  0
   -3.1871   -0.3863    0.8859 B   0  0  1  0  0  0  0  0  0  0  0  0
   -3.9352    0.3237    1.5098 H   0  0  0  0  0  0  0  0  0  0  0  0
   -0.8659   -2.0804    0.8813 B   0  0  2  0  0  0  0  0  0  0  0  0
    0.0162   -2.6081    1.5139 H   0  0  0  0  0  0  0  0  0  0  0  0
   -2.5494   -1.9454    1.4441 B   0  0  1  0  0  0  0  0  0  0  0  0
   -2.8974   -2.4153    2.5038 H   0  0  0  0  0  0  0  0  0  0  0  0
  1  3  1  1  0  0  0
  1 35  1  0  0  0  0
  2 37  1  0  0  0  0
  2 33  1  0  0  0  0
  3  8  1  0  0  0  0
  3 25  1  0  0  0  0
  4  6  1  0  0  0  0
  4  3  1  0  0  0  0
  5  4  1  0  0  0  0
  7  4  1  0  0  0  0
  8 29  1  0  0  0  0
  9 11  1  0  0  0  0
  9  8  1  0  0  0  0
 10  9  1  0  0  0  0
 11 31  2  0  0  0  0
 12 11  1  0  0  0  0
 13 17  1  0  0  0  0
 13  1  1  0  0  0  0
 13  2  1  0  0  0  0
 14 13  1  0  0  0  0
 15  1  1  0  0  0  0
 15 35  1  0  0  0  0
 16 15  1  0  0  0  0
 17  2  1  0  0  0  0
 17 37  1  0  0  0  0
 18 17  1  0  0  0  0
 19 15  1  0  0  0  0
 19 23  1  0  0  0  0
 20 19  1  0  0  0  0
 21 23  1  0  0  0  0
 21 39  1  0  0  0  0
 22 21  1  0  0  0  0
 23 24  1  0  0  0  0
 25 26  1  0  0  0  0
 25 28  1  0  0  0  0
 27 25  1  0  0  0  0
 29 30  1  0  0  0  0
 31 29  1  0  0  0  0
 31 32  1  0  0  0  0
 33 39  1  0  0  0  0
 33 34  1  0  0  0  0
 35 39  1  0  0  0  0
 35 36  1  0  0  0  0
 37 33  1  0  0  0  0
 37 38  1  0  0  0  0
 39 40  1  0  0  0  0
M  END
