12
 OpenBabel05122313113D

 40 47  0  0  1  0  0  0  0  0999 V2000
   -0.8288   -0.6832   -0.0602 C   0  0  1  0  0  0  0  0  0  0  0  0
   -2.2083    0.4355    0.0472 C   0  0  2  0  0  0  0  0  0  0  0  0
   -1.8397    1.9512    0.0957 C   0  0  0  0  0  0  0  0  0  0  0  0
   -2.2612    2.5987    1.4300 C   0  0  0  0  0  0  0  0  0  0  0  0
   -1.8961    3.6438    1.4597 H   0  0  0  0  0  0  0  0  0  0  0  0
   -1.8543    2.0598    2.3041 H   0  0  0  0  0  0  0  0  0  0  0  0
   -3.3622    2.6132    1.5252 H   0  0  0  0  0  0  0  0  0  0  0  0
   -2.5388    2.7381   -1.0341 C   0  0  0  0  0  0  0  0  0  0  0  0
   -3.6302    2.7840   -0.8628 H   0  0  0  0  0  0  0  0  0  0  0  0
   -2.3694    2.2834   -2.0267 H   0  0  0  0  0  0  0  0  0  0  0  0
   -2.1443    3.7730   -1.0533 H   0  0  0  0  0  0  0  0  0  0  0  0
   -0.3265    2.0865   -0.0848 C   0  0  2  0  0  3  0  0  0  0  0  0
    0.6494    2.2913    0.9625 C   0  0  0  0  0  3  0  0  0  0  0  0
    0.4286    2.4210    2.0284 H   0  0  0  0  0  0  0  0  0  0  0  0
    1.9578    2.4129    0.3329 C   0  0  0  0  0  0  0  0  0  0  0  0
    2.9064    2.6284    0.8391 H   0  0  0  0  0  0  0  0  0  0  0  0
    1.7819    2.2481   -1.0726 C   0  0  0  0  0  0  0  0  0  0  0  0
    2.5832    2.2923   -1.8226 H   0  0  0  0  0  0  0  0  0  0  0  0
    0.3749    2.0493   -1.3584 C   0  0  0  0  0  3  0  0  0  0  0  0
   -0.0822    1.9762   -2.3508 H   0  0  0  0  0  0  0  0  0  0  0  0
   -1.7686   -0.5177    1.3881 B   0  0  1  0  0  0  0  0  0  0  0  0
   -1.2737    0.0020    2.3524 H   0  0  0  0  0  0  0  0  0  0  0  0
   -1.3309   -2.1102    0.7715 B   0  0  1  0  0  0  0  0  0  0  0  0
   -0.4911   -2.7906    1.3096 H   0  0  0  0  0  0  0  0  0  0  0  0
   -1.4246   -2.0348   -0.9706 B   0  0  1  0  0  0  0  0  0  0  0  0
   -0.6683   -2.6614   -1.6689 H   0  0  0  0  0  0  0  0  0  0  0  0
   -1.9102   -0.4023   -1.4046 B   0  0  2  0  0  0  0  0  0  0  0  0
   -1.5083    0.1777   -2.3798 H   0  0  0  0  0  0  0  0  0  0  0  0
   -3.4811   -0.2266    0.9715 B   0  0  1  0  0  0  0  0  0  0  0  0
   -4.1256    0.5177    1.6666 H   0  0  0  0  0  0  0  0  0  0  0  0
   -2.9565   -1.8527    1.4395 B   0  0  0  0  0  0  0  0  0  0  0  0
   -3.2825   -2.3327    2.5018 H   0  0  0  0  0  0  0  0  0  0  0  0
   -2.7466   -2.7999   -0.0579 B   0  0  2  0  0  0  0  0  0  0  0  0
   -2.9063   -3.9993   -0.1009 H   0  0  0  0  0  0  0  0  0  0  0  0
   -3.1059   -1.7312   -1.4411 B   0  0  2  0  0  0  0  0  0  0  0  0
   -3.5374   -2.1260   -2.5005 H   0  0  0  0  0  0  0  0  0  0  0  0
   -3.5719   -0.1537   -0.7927 B   0  0  2  0  0  0  0  0  0  0  0  0
   -4.2839    0.6403   -1.3530 H   0  0  0  0  0  0  0  0  0  0  0  0
   -4.0762   -1.6316    0.0598 B   0  0  2  0  0  0  0  0  0  0  0  0
   -5.2426   -1.9504    0.1054 H   0  0  0  0  0  0  0  0  0  0  0  0
  1 23  1  0  0  0  0
  1 21  1  0  0  0  0
  2  3  1  0  0  0  0
  2 21  1  0  0  0  0
  3  4  1  0  0  0  0
  4  5  1  0  0  0  0
  4  7  1  0  0  0  0
  4  6  1  0  0  0  0
  8  9  1  0  0  0  0
  8  3  1  0  0  0  0
 10  8  1  0  0  0  0
 11  8  1  0  0  0  0
 12  3  1  0  0  0  0
 12 13  1  0  0  0  0
 13 14  1  0  0  0  0
 15 16  1  0  0  0  0
 15 13  1  0  0  0  0
 17 15  2  0  0  0  0
 18 17  1  0  0  0  0
 19 17  1  0  0  0  0
 19 12  1  0  0  0  0
 20 19  1  0  0  0  0
 21 22  1  1  0  0  0
 23 24  1  1  0  0  0
 23 21  1  0  0  0  0
 25 26  1  6  0  0  0
 25  1  1  0  0  0  0
 25 23  1  0  0  0  0
 27 28  1  6  0  0  0
 27 25  1  0  0  0  0
 27  1  1  0  0  0  0
 27  2  1  0  0  0  0
 29 31  1  0  0  0  0
 29 30  1  1  0  0  0
 31 32  1  0  0  0  0
 33 34  1  6  0  0  0
 33 39  1  0  0  0  0
 33 31  1  0  0  0  0
 35 36  1  6  0  0  0
 35 37  1  0  0  0  0
 35 33  1  0  0  0  0
 35 39  1  0  0  0  0
 37 38  1  6  0  0  0
 37  2  1  0  0  0  0
 37 29  1  0  0  0  0
 39 40  1  1  0  0  0
 39 29  1  0  0  0  0
M  END
