4
q = 1.0, confidence = 0.444

 39 39  0  0  0  0  0  0  0  0999 V2000
    0.8819   -1.2229    2.3572 N   0  0  0  0  0  0  0  0  0  0  0  0
   -0.5718    0.3190    1.8768 N   0  0  0  0  0  0  0  0  0  0  0  0
   -3.4200    0.4392    0.1117 N   0  3  0  0  0  0  0  0  0  0  0  0
    0.5186   -0.3419    1.3965 C   0  0  0  0  0  2  0  0  0  0  0  0
    2.0199   -2.1347    2.2345 C   0  0  0  0  0  0  0  0  0  0  0  0
    0.0348   -1.1132    3.4518 C   0  0  0  0  0  0  0  0  0  0  0  0
   -0.8847   -0.1389    3.1522 C   0  0  0  0  0  0  0  0  0  0  0  0
   -1.2419    1.3769    1.1240 C   0  0  0  0  0  0  0  0  0  0  0  0
   -1.9838    0.8857   -0.1220 C   0  0  0  0  0  0  0  0  0  0  0  0
   -3.6457   -1.0489   -0.2537 C   0  0  0  0  0  0  0  0  0  0  0  0
   -5.1264   -1.4137   -0.2570 C   0  0  0  0  0  0  0  0  0  0  0  0
   -2.8584   -1.9103    0.7280 C   0  0  0  0  0  0  0  0  0  0  0  0
   -4.4365    1.4295   -0.4950 C   0  0  0  0  0  0  0  0  0  0  0  0
   -4.2898    2.7950    0.1700 C   0  0  0  0  0  0  0  0  0  0  0  0
   -4.3431    1.4723   -2.0148 C   0  0  0  0  0  0  0  0  0  0  0  0
    1.9033   -2.7365    1.3126 H   0  0  0  0  0  0  0  0  0  0  0  0
    2.9599   -1.5532    2.1788 H   0  0  0  0  0  0  0  0  0  0  0  0
    2.0460   -2.7985    3.1158 H   0  0  0  0  0  0  0  0  0  0  0  0
    0.1611   -1.7235    4.3513 H   0  0  0  0  0  0  0  0  0  0  0  0
   -3.5922    0.4828    1.1325 H   0  0  0  0  0  0  0  0  0  0  0  0
   -1.7042    0.2756    3.7471 H   0  0  0  0  0  0  0  0  0  0  0  0
   -0.4480    2.0838    0.7964 H   0  0  0  0  0  0  0  0  0  0  0  0
   -1.9029    1.9341    1.8167 H   0  0  0  0  0  0  0  0  0  0  0  0
   -2.0120    1.7026   -0.8627 H   0  0  0  0  0  0  0  0  0  0  0  0
   -1.4354    0.0491   -0.6004 H   0  0  0  0  0  0  0  0  0  0  0  0
   -3.2167   -1.1546   -1.2714 H   0  0  0  0  0  0  0  0  0  0  0  0
   -5.6035   -1.2252    0.7274 H   0  0  0  0  0  0  0  0  0  0  0  0
   -5.2072   -2.5008   -0.4486 H   0  0  0  0  0  0  0  0  0  0  0  0
   -5.7110   -0.9067   -1.0464 H   0  0  0  0  0  0  0  0  0  0  0  0
   -3.0253   -2.9744    0.4757 H   0  0  0  0  0  0  0  0  0  0  0  0
   -3.2083   -1.7585    1.7713 H   0  0  0  0  0  0  0  0  0  0  0  0
   -1.7659   -1.7497    0.6627 H   0  0  0  0  0  0  0  0  0  0  0  0
   -5.4162    1.0083   -0.2008 H   0  0  0  0  0  0  0  0  0  0  0  0
   -5.1162    3.4453   -0.1760 H   0  0  0  0  0  0  0  0  0  0  0  0
   -3.3443    3.3079   -0.0963 H   0  0  0  0  0  0  0  0  0  0  0  0
   -4.3694    2.7358    1.2754 H   0  0  0  0  0  0  0  0  0  0  0  0
   -3.3956    1.9196   -2.3752 H   0  0  0  0  0  0  0  0  0  0  0  0
   -5.1638    2.1103   -2.3952 H   0  0  0  0  0  0  0  0  0  0  0  0
   -4.4589    0.4752   -2.4806 H   0  0  0  0  0  0  0  0  0  0  0  0
  1  6  1  0  0  0  0
  2  7  1  0  0  0  0
  3 20  1  0  0  0  0
  4  2  1  0  0  0  0
  4  1  1  0  0  0  0
  5  1  1  0  0  0  0
  5 18  1  0  0  0  0
  6 19  1  0  0  0  0
  7  6  2  0  0  0  0
  7 21  1  0  0  0  0
  8 23  1  0  0  0  0
  8  2  1  0  0  0  0
  9  3  1  0  0  0  0
  9  8  1  0  0  0  0
 10  3  1  0  0  0  0
 10 12  1  0  0  0  0
 11 10  1  0  0  0  0
 11 27  1  0  0  0  0
 12 31  1  0  0  0  0
 13 33  1  0  0  0  0
 13  3  1  0  0  0  0
 13 14  1  0  0  0  0
 14 36  1  0  0  0  0
 15 13  1  0  0  0  0
 16  5  1  0  0  0  0
 17  5  1  0  0  0  0
 22  8  1  0  0  0  0
 24  9  1  0  0  0  0
 25  9  1  0  0  0  0
 26 10  1  0  0  0  0
 28 11  1  0  0  0  0
 29 11  1  0  0  0  0
 30 12  1  0  0  0  0
 32 12  1  0  0  0  0
 34 14  1  0  0  0  0
 35 14  1  0  0  0  0
 37 15  1  0  0  0  0
 38 15  1  0  0  0  0
 39 15  1  0  0  0  0
M  CHG  1   3   1
M  END
