2
 OpenBabel05122313113D

  7  6  0  0  0  0  0  0  0  0999 V2000
    1.0289    4.8221    0.1543 I   0  0  0  0  0  0  0  0  0  0  0  0
    0.0229    1.8546   -0.2673 C   0  0  0  0  0  0  0  0  0  0  0  0
    1.2090    2.6069    0.4109 C   0  0  0  0  0  0  0  0  0  0  0  0
   -1.0905    2.4562    0.3297 F   0  0  0  0  0  0  0  0  0  0  0  0
    0.0093    2.2949   -1.5822 F   0  0  0  0  0  0  0  0  0  0  0  0
    2.3982    2.2541   -0.1164 F   0  0  0  0  0  0  0  0  0  0  0  0
    1.2499    2.3533    1.7318 F   0  0  0  0  0  0  0  0  0  0  0  0
  1  3  1  0  0  0  0
  2  4  1  0  0  0  0
  2  3  1  0  0  0  0
  3  7  1  0  0  0  0
  5  2  1  0  0  0  0
  6  3  1  0  0  0  0
M  END
