3
 OpenBabel05122313113D

 56 59  0  0  0  0  0  0  0  0999 V2000
    1.6583    0.4205    0.3828 P   0  0  0  0  0  4  0  0  0  0  0  0
   -2.1556    1.3698   -1.9207 O   0  0  0  0  0  0  0  0  0  0  0  0
   -1.7031    0.3855   -1.1076 C   0  0  0  0  0  3  0  0  0  0  0  0
   -1.1937    1.9516   -2.8162 C   0  0  0  0  0  0  0  0  0  0  0  0
   -1.8642    3.0875   -3.5600 C   0  0  0  0  0  0  0  0  0  0  0  0
   -0.4759   -0.1038   -1.0905 C   0  0  0  0  0  0  0  0  0  0  0  0
    0.7638   -0.5704   -0.8460 C   0  0  0  0  0  0  0  0  0  0  0  0
    1.3666   -1.7867   -1.4465 C   0  0  0  0  0  0  0  0  0  0  0  0
    2.4608   -2.4723   -0.8705 C   0  0  0  0  0  0  0  0  0  0  0  0
    2.9811   -3.6305   -1.4664 C   0  0  0  0  0  0  0  0  0  0  0  0
    2.4181   -4.1346   -2.6477 C   0  0  0  0  0  0  0  0  0  0  0  0
    1.3208   -3.4698   -3.2237 C   0  0  0  0  0  0  0  0  0  0  0  0
    0.8026   -2.3131   -2.6333 C   0  0  0  0  0  0  0  0  0  0  0  0
    3.4550    0.4427    0.0795 C   0  0  0  0  0  0  0  0  0  0  0  0
    4.3851    0.3920    1.1357 C   0  0  0  0  0  0  0  0  0  0  0  0
    5.7588    0.4210    0.8526 C   0  0  0  0  0  0  0  0  0  0  0  0
    6.2043    0.4986   -0.4766 C   0  0  0  0  0  0  0  0  0  0  0  0
    5.2760    0.5429   -1.5300 C   0  0  0  0  0  0  0  0  0  0  0  0
    3.9018    0.5108   -1.2579 C   0  0  0  0  0  0  0  0  0  0  0  0
    1.3401   -0.1704    2.0695 C   0  0  0  0  0  0  0  0  0  0  0  0
    0.8876   -1.4930    2.2506 C   0  0  0  0  0  0  0  0  0  0  0  0
    0.6190   -1.9586    3.5451 C   0  0  0  0  0  0  0  0  0  0  0  0
    0.7939   -1.1116    4.6498 C   0  0  0  0  0  0  0  0  0  0  0  0
    1.2369    0.2087    4.4669 C   0  0  0  0  0  0  0  0  0  0  0  0
    1.5093    0.6857    3.1780 C   0  0  0  0  0  0  0  0  0  0  0  0
    1.0703    2.1377    0.2680 C   0  0  0  0  0  0  0  0  0  0  0  0
    1.8171    3.1197   -0.4133 C   0  0  0  0  0  0  0  0  0  0  0  0
    1.2499    4.3818   -0.6469 C   0  0  0  0  0  0  0  0  0  0  0  0
   -0.0568    4.6615   -0.2130 C   0  0  0  0  0  0  0  0  0  0  0  0
   -0.7919    3.6888    0.4836 C   0  0  0  0  0  0  0  0  0  0  0  0
   -0.2282    2.4306    0.7356 C   0  0  0  0  0  0  0  0  0  0  0  0
   -0.8241    1.1593   -3.5081 H   0  0  0  0  0  0  0  0  0  0  0  0
   -0.3203    2.3099   -2.2264 H   0  0  0  0  0  0  0  0  0  0  0  0
   -1.1545    3.5560   -4.2705 H   0  0  0  0  0  0  0  0  0  0  0  0
   -2.2122    3.8639   -2.8500 H   0  0  0  0  0  0  0  0  0  0  0  0
   -2.7414    2.7224   -4.1300 H   0  0  0  0  0  0  0  0  0  0  0  0
    2.9107   -2.1124    0.0667 H   0  0  0  0  0  0  0  0  0  0  0  0
    3.8306   -4.1470   -0.9938 H   0  0  0  0  0  0  0  0  0  0  0  0
    2.8250   -5.0444   -3.1139 H   0  0  0  0  0  0  0  0  0  0  0  0
    0.8619   -3.8599   -4.1452 H   0  0  0  0  0  0  0  0  0  0  0  0
   -0.0631   -1.7960   -3.0749 H   0  0  0  0  0  0  0  0  0  0  0  0
    4.0352    0.3192    2.1763 H   0  0  0  0  0  0  0  0  0  0  0  0
    6.4857    0.3790    1.6776 H   0  0  0  0  0  0  0  0  0  0  0  0
    7.2829    0.5166   -0.6942 H   0  0  0  0  0  0  0  0  0  0  0  0
    5.6240    0.5899   -2.5726 H   0  0  0  0  0  0  0  0  0  0  0  0
    3.1716    0.5170   -2.0815 H   0  0  0  0  0  0  0  0  0  0  0  0
    0.7105   -2.1453    1.3829 H   0  0  0  0  0  0  0  0  0  0  0  0
    0.2471   -2.9843    3.6837 H   0  0  0  0  0  0  0  0  0  0  0  0
    0.5659   -1.4766    5.6626 H   0  0  0  0  0  0  0  0  0  0  0  0
    1.3551    0.8770    5.3329 H   0  0  0  0  0  0  0  0  0  0  0  0
    1.8292    1.7286    3.0293 H   0  0  0  0  0  0  0  0  0  0  0  0
    2.8340    2.8989   -0.7690 H   0  0  0  0  0  0  0  0  0  0  0  0
    1.8321    5.1490   -1.1789 H   0  0  0  0  0  0  0  0  0  0  0  0
   -0.5032    5.6467   -0.4159 H   0  0  0  0  0  0  0  0  0  0  0  0
   -1.8182    3.8951    0.8213 H   0  0  0  0  0  0  0  0  0  0  0  0
   -0.8059    1.6748    1.2807 H   0  0  0  0  0  0  0  0  0  0  0  0
  1 20  1  0  0  0  0
  2  3  1  0  0  0  0
  3  6  2  0  0  0  0
  4 33  1  0  0  0  0
  4  2  1  0  0  0  0
  5 35  1  0  0  0  0
  5  4  1  0  0  0  0
  6  7  2  0  0  0  0
  7  1  1  0  0  0  0
  8  9  1  0  0  0  0
  8  7  1  0  0  0  0
  9 37  1  0  0  0  0
 10 38  1  0  0  0  0
 10  9  2  0  0  0  0
 11 10  1  0  0  0  0
 12 11  2  0  0  0  0
 12 13  1  0  0  0  0
 13  8  2  0  0  0  0
 14  1  1  0  0  0  0
 14 15  1  0  0  0  0
 15 42  1  0  0  0  0
 16 15  2  0  0  0  0
 16 43  1  0  0  0  0
 17 16  1  0  0  0  0
 18 19  1  0  0  0  0
 18 17  2  0  0  0  0
 19 14  2  0  0  0  0
 20 21  2  0  0  0  0
 20 25  1  0  0  0  0
 21 22  1  0  0  0  0
 22 48  1  0  0  0  0
 22 23  2  0  0  0  0
 23 49  1  0  0  0  0
 24 23  1  0  0  0  0
 24 50  1  0  0  0  0
 25 24  2  0  0  0  0
 26  1  1  0  0  0  0
 26 31  1  0  0  0  0
 27 26  2  0  0  0  0
 28 27  1  0  0  0  0
 28 29  2  0  0  0  0
 29 30  1  0  0  0  0
 30 31  2  0  0  0  0
 30 55  1  0  0  0  0
 31 56  1  0  0  0  0
 32  4  1  0  0  0  0
 34  5  1  0  0  0  0
 36  5  1  0  0  0  0
 39 11  1  0  0  0  0
 40 12  1  0  0  0  0
 41 13  1  0  0  0  0
 44 17  1  0  0  0  0
 45 18  1  0  0  0  0
 46 19  1  0  0  0  0
 47 21  1  0  0  0  0
 51 25  1  0  0  0  0
 52 27  1  0  0  0  0
 53 28  1  0  0  0  0
 54 29  1  0  0  0  0
M  END
