3
 OpenBabel05122313113D

 58 60  0  0  0  0  0  0  0  0999 V2000
    2.5897   -0.1690   -1.0459 P   0  0  0  0  0  0  0  0  0  0  0  0
   -1.8108    1.0512   -1.6284 O   0  0  0  0  0  0  0  0  0  0  0  0
   -1.6187    0.1160   -0.7136 C   0  0  0  0  0  2  0  0  0  0  0  0
   -3.0331    1.8020   -1.7853 C   0  0  0  0  0  0  0  0  0  0  0  0
   -2.7020    3.0403   -2.5943 C   0  0  0  0  0  0  0  0  0  0  0  0
   -0.2219   -0.3031   -0.7236 C   0  0  0  0  0  0  0  0  0  0  0  0
    0.8817    0.4978   -0.9153 C   0  0  0  0  0  0  0  0  0  0  0  0
    0.8040    1.9771   -0.9855 C   0  0  0  0  0  0  0  0  0  0  0  0
    1.4549    2.7010   -2.0090 C   0  0  0  0  0  0  0  0  0  0  0  0
    1.4061    4.1025   -2.0315 C   0  0  0  0  0  0  0  0  0  0  0  0
    0.7262    4.8055   -1.0242 C   0  0  0  0  0  0  0  0  0  0  0  0
    0.0880    4.0955    0.0084 C   0  0  0  0  0  0  0  0  0  0  0  0
    0.1250    2.6965    0.0272 C   0  0  0  0  0  0  0  0  0  0  0  0
    3.3707    0.4126    0.5755 C   0  0  0  0  0  0  0  0  0  0  0  0
    3.8382    1.8787    0.5149 C   0  0  0  0  0  0  0  0  0  0  0  0
    4.5862    2.2666    1.7991 C   0  0  0  0  0  0  0  0  0  0  0  0
    3.7269    2.0137    3.0446 C   0  0  0  0  0  0  0  0  0  0  0  0
    3.2566    0.5552    3.1078 C   0  0  0  0  0  0  0  0  0  0  0  0
    2.5186    0.1460    1.8250 C   0  0  0  0  0  0  0  0  0  0  0  0
    2.3471   -2.0133   -0.7845 C   0  0  0  0  0  0  0  0  0  0  0  0
    3.6434   -2.7232   -0.3518 C   0  0  0  0  0  0  0  0  0  0  0  0
    3.4194   -4.2353   -0.1955 C   0  0  0  0  0  0  0  0  0  0  0  0
    2.8466   -4.8684   -1.4690 C   0  0  0  0  0  0  0  0  0  0  0  0
    1.5670   -4.1537   -1.9194 C   0  0  0  0  0  0  0  0  0  0  0  0
    1.7998   -2.6459   -2.0818 C   0  0  0  0  0  0  0  0  0  0  0  0
   -3.7687    1.1527   -2.3019 H   0  0  0  0  0  0  0  0  0  0  0  0
   -3.4363    2.0523   -0.7853 H   0  0  0  0  0  0  0  0  0  0  0  0
   -3.6211    3.6378   -2.7540 H   0  0  0  0  0  0  0  0  0  0  0  0
   -1.9581    3.6690   -2.0665 H   0  0  0  0  0  0  0  0  0  0  0  0
   -2.2868    2.7677   -3.5843 H   0  0  0  0  0  0  0  0  0  0  0  0
   -0.0604   -1.3578   -0.4590 H   0  0  0  0  0  0  0  0  0  0  0  0
    1.9926    2.1489   -2.7940 H   0  0  0  0  0  0  0  0  0  0  0  0
    1.9077    4.6509   -2.8433 H   0  0  0  0  0  0  0  0  0  0  0  0
    0.6974    5.9055   -1.0393 H   0  0  0  0  0  0  0  0  0  0  0  0
   -0.4410    4.6355    0.8085 H   0  0  0  0  0  0  0  0  0  0  0  0
   -0.3676    2.1427    0.8406 H   0  0  0  0  0  0  0  0  0  0  0  0
    4.2891   -0.2169    0.6307 H   0  0  0  0  0  0  0  0  0  0  0  0
    2.9597    2.5464    0.3953 H   0  0  0  0  0  0  0  0  0  0  0  0
    4.4762    2.0386   -0.3793 H   0  0  0  0  0  0  0  0  0  0  0  0
    4.8951    3.3318    1.7481 H   0  0  0  0  0  0  0  0  0  0  0  0
    5.5243    1.6710    1.8735 H   0  0  0  0  0  0  0  0  0  0  0  0
    2.8367    2.6818    3.0121 H   0  0  0  0  0  0  0  0  0  0  0  0
    4.2867    2.2819    3.9651 H   0  0  0  0  0  0  0  0  0  0  0  0
    4.1398   -0.1084    3.2494 H   0  0  0  0  0  0  0  0  0  0  0  0
    2.5987    0.3910    3.9868 H   0  0  0  0  0  0  0  0  0  0  0  0
    2.2149   -0.9195    1.8817 H   0  0  0  0  0  0  0  0  0  0  0  0
    1.5739    0.7259    1.7444 H   0  0  0  0  0  0  0  0  0  0  0  0
    1.6010   -2.1590    0.0309 H   0  0  0  0  0  0  0  0  0  0  0  0
    4.4360   -2.5378   -1.1121 H   0  0  0  0  0  0  0  0  0  0  0  0
    4.0186   -2.3061    0.6051 H   0  0  0  0  0  0  0  0  0  0  0  0
    2.7124   -4.4064    0.6472 H   0  0  0  0  0  0  0  0  0  0  0  0
    4.3716   -4.7289    0.0918 H   0  0  0  0  0  0  0  0  0  0  0  0
    2.6546   -5.9501   -1.3097 H   0  0  0  0  0  0  0  0  0  0  0  0
    3.6049   -4.8015   -2.2817 H   0  0  0  0  0  0  0  0  0  0  0  0
    0.7590   -4.3185   -1.1716 H   0  0  0  0  0  0  0  0  0  0  0  0
    1.1954   -4.5829   -2.8734 H   0  0  0  0  0  0  0  0  0  0  0  0
    2.5367   -2.4665   -2.8964 H   0  0  0  0  0  0  0  0  0  0  0  0
    0.8627   -2.1447   -2.3989 H   0  0  0  0  0  0  0  0  0  0  0  0
  1  7  1  0  0  0  0
  1 20  1  0  0  0  0
  1 14  1  0  0  0  0
  2  3  1  0  0  0  0
  4  2  1  0  0  0  0
  4 27  1  0  0  0  0
  5 29  1  0  0  0  0
  5  4  1  0  0  0  0
  6  3  1  0  0  0  0
  6 31  1  0  0  0  0
  7  6  2  0  0  0  0
  8  7  1  0  0  0  0
  8 13  1  0  0  0  0
  9  8  2  0  0  0  0
 10  9  1  0  0  0  0
 10 11  2  0  0  0  0
 11 12  1  0  0  0  0
 12 13  2  0  0  0  0
 12 35  1  0  0  0  0
 13 36  1  0  0  0  0
 14 37  1  0  0  0  0
 14 19  1  0  0  0  0
 15 14  1  0  0  0  0
 15 16  1  0  0  0  0
 16 41  1  0  0  0  0
 16 17  1  0  0  0  0
 17 18  1  0  0  0  0
 17 43  1  0  0  0  0
 18 44  1  0  0  0  0
 18 45  1  0  0  0  0
 19 46  1  0  0  0  0
 19 18  1  0  0  0  0
 20 21  1  0  0  0  0
 20 48  1  0  0  0  0
 21 22  1  0  0  0  0
 21 50  1  0  0  0  0
 22 52  1  0  0  0  0
 22 51  1  0  0  0  0
 23 53  1  0  0  0  0
 23 22  1  0  0  0  0
 24 23  1  0  0  0  0
 24 55  1  0  0  0  0
 25 24  1  0  0  0  0
 25 20  1  0  0  0  0
 26  4  1  0  0  0  0
 28  5  1  0  0  0  0
 30  5  1  0  0  0  0
 32  9  1  0  0  0  0
 33 10  1  0  0  0  0
 34 11  1  0  0  0  0
 38 15  1  0  0  0  0
 39 15  1  0  0  0  0
 40 16  1  0  0  0  0
 42 17  1  0  0  0  0
 47 19  1  0  0  0  0
 49 21  1  0  0  0  0
 54 23  1  0  0  0  0
 56 24  1  0  0  0  0
 57 25  1  0  0  0  0
 58 25  1  0  0  0  0
M  END
