15
 OpenBabel05122313113D

 49 51  0  0  1  0  0  0  0  0999 V2000
    2.4824   -0.1701   -0.2873 C   0  0  1  0  0  3  0  0  0  0  0  0
    1.0209   -0.1425   -0.4019 C   0  0  0  0  0  0  0  0  0  0  0  0
    0.3023    1.0791   -0.0646 C   0  0  0  0  0  0  0  0  0  0  0  0
    0.8928    2.3850    0.2063 C   0  0  0  0  0  0  0  0  0  0  0  0
    2.2120    2.7770    0.2214 C   0  0  0  0  0  0  0  0  0  0  0  0
    3.3191    1.8612    0.2293 C   0  0  2  0  0  3  0  0  0  0  0  0
    4.5202    2.0473   -0.4628 C   0  0  0  0  0  3  0  0  0  0  0  0
    5.2538    0.9666   -1.0082 C   0  0  0  0  0  0  0  0  0  0  0  0
    4.7118   -0.2834   -1.3727 C   0  0  0  0  0  0  0  0  0  0  0  0
    3.3564   -0.6853   -1.2454 C   0  0  0  0  0  3  0  0  0  0  0  0
    3.0755    0.5401    0.8850 C   0  0  0  0  0  0  0  0  0  0  0  0
    0.2825   -1.2866   -0.8784 C   0  0  0  0  0  0  0  0  0  0  0  0
   -1.1399   -1.2901   -0.9772 C   0  0  0  0  0  0  0  0  0  0  0  0
   -1.8826   -0.1114   -0.6085 C   0  0  2  0  0  3  0  0  0  0  0  0
   -1.1458    1.0107   -0.1412 C   0  0  1  0  0  3  0  0  0  0  0  0
    0.9394   -2.4141   -1.3034 O   0  0  0  0  0  0  0  0  0  0  0  0
    1.4841   -3.2888   -0.3132 C   0  0  0  0  0  0  0  0  0  0  0  0
   -1.8108   -2.5361   -1.5142 C   0  0  0  0  0  0  0  0  0  0  0  0
   -1.6658   -2.6644   -3.0382 C   0  0  0  0  0  0  0  0  0  0  0  0
   -3.3955   -0.0653   -0.6522 C   0  0  0  0  0  0  0  0  0  0  0  0
   -3.9745    0.1873   -2.0528 C   0  0  0  0  0  0  0  0  0  0  0  0
   -1.8556    2.1307    0.2938 O   0  0  0  0  0  0  0  0  0  0  0  0
   -2.2711    3.0354   -0.6682 C   0  0  0  0  0  0  0  0  0  0  0  0
   -2.0250    2.9083   -1.8454 O   0  0  0  0  0  0  0  0  0  0  0  0
   -3.0630    4.1374   -0.0176 C   0  0  0  0  0  0  0  0  0  0  0  0
    0.1561    3.1970    0.2556 H   0  0  0  0  0  0  0  0  0  0  0  0
    2.4232    3.8571    0.1460 H   0  0  0  0  0  0  0  0  0  0  0  0
    4.8338    3.0722   -0.7261 H   0  0  0  0  0  0  0  0  0  0  0  0
    6.2624    1.1866   -1.3963 H   0  0  0  0  0  0  0  0  0  0  0  0
    5.3518   -0.9132   -2.0129 H   0  0  0  0  0  0  0  0  0  0  0  0
    2.9553   -1.3829   -1.9972 H   0  0  0  0  0  0  0  0  0  0  0  0
    4.0188    0.0629    1.2094 H   0  0  0  0  0  0  0  0  0  0  0  0
    2.3687    0.6217    1.7290 H   0  0  0  0  0  0  0  0  0  0  0  0
    1.8993   -4.1557   -0.8609 H   0  0  0  0  0  0  0  0  0  0  0  0
    2.2930   -2.8029    0.2708 H   0  0  0  0  0  0  0  0  0  0  0  0
    0.6902   -3.6271    0.3855 H   0  0  0  0  0  0  0  0  0  0  0  0
   -2.1910   -3.5692   -3.4039 H   0  0  0  0  0  0  0  0  0  0  0  0
   -2.0912   -1.7872   -3.5653 H   0  0  0  0  0  0  0  0  0  0  0  0
   -0.5985   -2.7464   -3.3199 H   0  0  0  0  0  0  0  0  0  0  0  0
   -2.8785   -2.5384   -1.2254 H   0  0  0  0  0  0  0  0  0  0  0  0
   -1.3598   -3.4233   -1.0290 H   0  0  0  0  0  0  0  0  0  0  0  0
   -3.7352    0.7214    0.0484 H   0  0  0  0  0  0  0  0  0  0  0  0
   -3.7936   -1.0149   -0.2415 H   0  0  0  0  0  0  0  0  0  0  0  0
   -5.0771    0.2883   -2.0022 H   0  0  0  0  0  0  0  0  0  0  0  0
   -3.5583    1.1115   -2.4975 H   0  0  0  0  0  0  0  0  0  0  0  0
   -3.7486   -0.6488   -2.7431 H   0  0  0  0  0  0  0  0  0  0  0  0
   -2.5560    4.5003    0.8968 H   0  0  0  0  0  0  0  0  0  0  0  0
   -3.2157    4.9590   -0.7380 H   0  0  0  0  0  0  0  0  0  0  0  0
   -4.0489    3.7381    0.2972 H   0  0  0  0  0  0  0  0  0  0  0  0
  1 10  1  6  0  0  0
  1 11  1  0  0  0  0
  2  1  1  0  0  0  0
  2  3  2  0  0  0  0
  3  4  1  0  0  0  0
  4  5  2  0  0  0  0
  4 26  1  0  0  0  0
  5  6  1  0  0  0  0
  6  7  1  6  0  0  0
  6 11  1  0  0  0  0
  8  7  1  0  0  0  0
  9 10  1  0  0  0  0
  9  8  2  0  0  0  0
 11 32  1  0  0  0  0
 11 33  1  0  0  0  0
 12  2  1  0  0  0  0
 13 12  2  0  0  0  0
 13 14  1  0  0  0  0
 14 20  1  1  0  0  0
 14 15  1  0  0  0  0
 15  3  1  0  0  0  0
 15 22  1  1  0  0  0
 16 12  1  0  0  0  0
 16 17  1  0  0  0  0
 17 35  1  0  0  0  0
 17 36  1  0  0  0  0
 18 40  1  0  0  0  0
 18 41  1  0  0  0  0
 18 13  1  0  0  0  0
 19 18  1  0  0  0  0
 20 43  1  0  0  0  0
 20 42  1  0  0  0  0
 21 44  1  0  0  0  0
 21 20  1  0  0  0  0
 23 25  1  0  0  0  0
 23 22  1  0  0  0  0
 24 23  2  0  0  0  0
 25 49  1  0  0  0  0
 25 47  1  0  0  0  0
 27  5  1  0  0  0  0
 28  7  1  0  0  0  0
 29  8  1  0  0  0  0
 30  9  1  0  0  0  0
 31 10  1  0  0  0  0
 34 17  1  0  0  0  0
 37 19  1  0  0  0  0
 38 19  1  0  0  0  0
 39 19  1  0  0  0  0
 45 21  1  0  0  0  0
 46 21  1  0  0  0  0
 48 25  1  0  0  0  0
M  END
