4
 OpenBabel05122313113D

 18 17  0  0  1  0  0  0  0  0999 V2000
   -3.2907    2.4270   -1.1118 C   0  0  0  0  0  0  0  0  0  0  0  0
   -2.1328    1.8216   -1.4569 C   0  0  0  0  0  0  0  0  0  0  0  0
   -0.9190    1.8190   -0.6372 C   0  0  0  0  0  3  0  0  0  0  0  0
    0.3336    1.3423   -1.1406 C   0  0  0  0  0  3  0  0  0  0  0  0
    1.4791    1.2782   -0.2639 C   0  0  1  0  0  3  0  0  0  0  0  0
    2.7271    0.6341   -0.7715 C   0  0  0  0  0  0  0  0  0  0  0  0
    1.7559    2.3354    0.7887 C   0  0  0  0  0  0  0  0  0  0  0  0
    3.8070    0.6783   -0.2062 O   0  0  0  0  0  0  0  0  0  0  0  0
    2.5839   -0.0239   -1.9681 O   0  0  0  0  0  0  0  0  0  0  0  0
   -3.3915    2.9592   -0.1520 H   0  0  0  0  0  0  0  0  0  0  0  0
   -4.1717    2.3984   -1.7697 H   0  0  0  0  0  0  0  0  0  0  0  0
   -2.0731    1.2852   -2.4215 H   0  0  0  0  0  0  0  0  0  0  0  0
   -0.9082    2.5419    0.1919 H   0  0  0  0  0  0  0  0  0  0  0  0
    0.4234    0.9997   -2.1837 H   0  0  0  0  0  0  0  0  0  0  0  0
    0.8307    2.6822    1.2830 H   0  0  0  0  0  0  0  0  0  0  0  0
    2.2549    3.2102    0.3190 H   0  0  0  0  0  0  0  0  0  0  0  0
    2.4413    1.9453    1.5627 H   0  0  0  0  0  0  0  0  0  0  0  0
    3.4826   -0.3691   -2.1580 H   0  0  0  0  0  0  0  0  0  0  0  0
  1 10  1  0  0  0  0
  2  1  2  0  0  0  0
  2  3  1  0  0  0  0
  3 13  1  0  0  0  0
  4  3  1  0  0  0  0
  5  4  1  6  0  0  0
  5  7  1  0  0  0  0
  6  5  1  0  0  0  0
  6  8  2  0  0  0  0
  7 15  1  0  0  0  0
  7 17  1  0  0  0  0
  9  6  1  0  0  0  0
 11  1  1  0  0  0  0
 12  2  1  0  0  0  0
 14  4  1  0  0  0  0
 16  7  1  0  0  0  0
 18  9  1  0  0  0  0
M  END
