8
 OpenBabel05122313113D

 41 43  0  0  0  0  0  0  0  0999 V2000
    3.2047    0.0644    0.3531 P   0  0  0  0  0  0  0  0  0  0  0  0
    4.5532   -0.9656   -0.4374 C   0  0  0  0  0  0  0  0  0  0  0  0
    5.5766   -0.7529   -0.0735 H   0  0  0  0  0  0  0  0  0  0  0  0
    4.0554   -2.4177   -0.2506 C   0  0  0  0  0  0  0  0  0  0  0  0
    4.7922   -3.1179   -0.7108 H   0  0  0  0  0  0  0  0  0  0  0  0
    3.9222   -2.7332    0.7995 H   0  0  0  0  0  0  0  0  0  0  0  0
    2.7773   -2.4000   -1.0815 C   0  0  0  0  0  3  0  0  0  0  0  0
    2.9514   -1.4127   -2.1364 C   0  0  0  0  0  3  0  0  0  0  0  0
    4.3269   -0.7761   -1.9561 C   0  0  0  0  0  0  0  0  0  0  0  0
    4.3946    0.2699   -2.3055 H   0  0  0  0  0  0  0  0  0  0  0  0
    5.0959   -1.3617   -2.5132 H   0  0  0  0  0  0  0  0  0  0  0  0
    3.2079   -0.1656    2.2123 C   0  0  0  0  0  0  0  0  0  0  0  0
    2.5760    0.6831    2.5407 H   0  0  0  0  0  0  0  0  0  0  0  0
    2.6097   -1.5062    2.7362 C   0  0  0  0  0  0  0  0  0  0  0  0
    1.6940   -1.3171    3.3293 H   0  0  0  0  0  0  0  0  0  0  0  0
    2.2886   -2.1538    1.8964 H   0  0  0  0  0  0  0  0  0  0  0  0
    3.7150   -2.1616    3.6005 C   0  0  0  0  0  0  0  0  0  0  0  0
    3.7254   -3.2665    3.5144 H   0  0  0  0  0  0  0  0  0  0  0  0
    3.5425   -1.9275    4.6719 H   0  0  0  0  0  0  0  0  0  0  0  0
    5.0301   -1.5092    3.1449 C   0  0  0  0  0  0  0  0  0  0  0  0
    5.4102   -1.9983    2.2238 H   0  0  0  0  0  0  0  0  0  0  0  0
    5.8370   -1.5793    3.9016 H   0  0  0  0  0  0  0  0  0  0  0  0
    4.6251   -0.0599    2.8436 C   0  0  0  0  0  0  0  0  0  0  0  0
    5.3622    0.4763    2.2111 H   0  0  0  0  0  0  0  0  0  0  0  0
    4.5504    0.5139    3.7915 H   0  0  0  0  0  0  0  0  0  0  0  0
    3.6112    1.8764    0.2517 C   0  0  0  0  0  0  0  0  0  0  0  0
    4.5546    1.9893    0.8301 H   0  0  0  0  0  0  0  0  0  0  0  0
    3.8294    2.4946   -1.1439 C   0  0  0  0  0  0  0  0  0  0  0  0
    4.8301    2.2674   -1.5617 H   0  0  0  0  0  0  0  0  0  0  0  0
    3.0731    2.1073   -1.8586 H   0  0  0  0  0  0  0  0  0  0  0  0
    3.6022    3.9930   -0.8950 C   0  0  0  0  0  0  0  0  0  0  0  0
    4.4931    4.4213   -0.3861 H   0  0  0  0  0  0  0  0  0  0  0  0
    3.4526    4.5677   -1.8308 H   0  0  0  0  0  0  0  0  0  0  0  0
    2.3819    4.0243    0.0406 C   0  0  0  0  0  0  0  0  0  0  0  0
    1.4463    3.9777   -0.5519 H   0  0  0  0  0  0  0  0  0  0  0  0
    2.3312    4.9491    0.6480 H   0  0  0  0  0  0  0  0  0  0  0  0
    2.4974    2.7496    0.9167 C   0  0  0  0  0  0  0  0  0  0  0  0
    1.5224    2.2202    0.9518 H   0  0  0  0  0  0  0  0  0  0  0  0
    2.7708    2.9881    1.9634 H   0  0  0  0  0  0  0  0  0  0  0  0
    2.2139   -3.3391   -1.2146 H   0  0  0  0  0  0  0  0  0  0  0  0
    2.5457   -1.5367   -3.1549 H   0  0  0  0  0  0  0  0  0  0  0  0
  1 12  1  0  0  0  0
  2  4  1  0  0  0  0
  2  3  1  0  0  0  0
  2  1  1  0  0  0  0
  4  6  1  0  0  0  0
  5  4  1  0  0  0  0
  7  4  1  0  0  0  0
  8  9  1  0  0  0  0
  8  7  1  0  0  0  0
  9  2  1  0  0  0  0
 10  9  1  0  0  0  0
 11  9  1  0  0  0  0
 12 13  1  0  0  0  0
 12 14  1  0  0  0  0
 12 23  1  0  0  0  0
 14 15  1  0  0  0  0
 14 17  1  0  0  0  0
 16 14  1  0  0  0  0
 17 19  1  0  0  0  0
 18 17  1  0  0  0  0
 20 17  1  0  0  0  0
 20 22  1  0  0  0  0
 21 20  1  0  0  0  0
 23 20  1  0  0  0  0
 23 25  1  0  0  0  0
 24 23  1  0  0  0  0
 26  1  1  0  0  0  0
 26 27  1  0  0  0  0
 26 37  1  0  0  0  0
 28 31  1  0  0  0  0
 28 26  1  0  0  0  0
 29 28  1  0  0  0  0
 30 28  1  0  0  0  0
 31 32  1  0  0  0  0
 31 34  1  0  0  0  0
 33 31  1  0  0  0  0
 34 36  1  0  0  0  0
 34 37  1  0  0  0  0
 35 34  1  0  0  0  0
 37 38  1  0  0  0  0
 37 39  1  0  0  0  0
 40  7  1  0  0  0  0
 41  8  1  0  0  0  0
M  END
