9
 OpenBabel05122313113D

 54 57  0  0  1  0  0  0  0  0999 V2000
   -1.5283    0.3298    0.5922 B   0  0  1  0  0  0  0  0  0  0  0  0
   -1.2181    1.5898   -0.7729 B   0  0  0  0  0  0  0  0  0  0  0  0
   -2.1194    0.3515   -0.9805 C   0  0  1  0  0  0  0  0  0  0  0  0
   -1.4283   -0.8957   -0.6179 C   0  0  1  0  0  0  0  0  0  0  0  0
   -0.1450   -0.5102   -0.1066 C   0  0  1  0  0  0  0  0  0  0  0  0
   -0.0057    0.9279   -0.0864 C   0  0  0  0  0  0  0  0  0  0  0  0
    1.2447    1.3631    0.5927 C   0  0  0  0  0  3  0  0  0  0  0  0
    1.7576    0.6364    1.7244 C   0  0  0  0  0  3  0  0  0  0  0  0
    1.6076   -0.7784    1.6770 C   0  0  0  0  0  3  0  0  0  0  0  0
    0.9540   -1.2927    0.4977 C   0  0  0  0  0  3  0  0  0  0  0  0
   -2.1852    0.3415    2.0499 C   0  0  0  0  0  0  0  0  0  0  0  0
   -3.6796   -0.0168    1.9131 C   0  0  0  0  0  0  0  0  0  0  0  0
   -3.8172   -1.0374    1.4997 H   0  0  0  0  0  0  0  0  0  0  0  0
   -4.2092    0.6898    1.2419 H   0  0  0  0  0  0  0  0  0  0  0  0
   -4.1850    0.0132    2.9028 H   0  0  0  0  0  0  0  0  0  0  0  0
   -2.0611    1.7563    2.6536 C   0  0  0  0  0  0  0  0  0  0  0  0
   -2.5762    2.5136    2.0295 H   0  0  0  0  0  0  0  0  0  0  0  0
   -0.9998    2.0658    2.7465 H   0  0  0  0  0  0  0  0  0  0  0  0
   -2.5140    1.7928    3.6681 H   0  0  0  0  0  0  0  0  0  0  0  0
   -1.5139   -0.6619    3.0085 C   0  0  0  0  0  0  0  0  0  0  0  0
   -1.5186   -1.6920    2.6019 H   0  0  0  0  0  0  0  0  0  0  0  0
   -2.0464   -0.6814    3.9842 H   0  0  0  0  0  0  0  0  0  0  0  0
   -0.4608   -0.3884    3.2140 H   0  0  0  0  0  0  0  0  0  0  0  0
   -1.5838    3.1233   -1.0559 C   0  0  0  0  0  0  0  0  0  0  0  0
   -3.0936    3.3845   -0.8989 C   0  0  0  0  0  0  0  0  0  0  0  0
   -3.3487    4.4312   -1.1759 H   0  0  0  0  0  0  0  0  0  0  0  0
   -3.4332    3.2268    0.1462 H   0  0  0  0  0  0  0  0  0  0  0  0
   -3.6952    2.7162   -1.5488 H   0  0  0  0  0  0  0  0  0  0  0  0
   -0.7985    4.1064   -0.1681 C   0  0  0  0  0  0  0  0  0  0  0  0
    0.2952    4.0178   -0.3307 H   0  0  0  0  0  0  0  0  0  0  0  0
   -0.9937    3.9410    0.9110 H   0  0  0  0  0  0  0  0  0  0  0  0
   -1.0747    5.1587   -0.4003 H   0  0  0  0  0  0  0  0  0  0  0  0
   -1.1878    3.3630   -2.5327 C   0  0  0  0  0  0  0  0  0  0  0  0
   -0.1084    3.1673   -2.7025 H   0  0  0  0  0  0  0  0  0  0  0  0
   -1.3919    4.4151   -2.8325 H   0  0  0  0  0  0  0  0  0  0  0  0
   -1.7553    2.6997   -3.2173 H   0  0  0  0  0  0  0  0  0  0  0  0
   -2.1055   -2.6507   -0.8470 Si  0  0  0  0  0  0  0  0  0  0  0  0
   -3.8963   -2.5180   -1.4318 C   0  0  0  0  0  0  0  0  0  0  0  0
   -4.3161   -3.5273   -1.6207 H   0  0  0  0  0  0  0  0  0  0  0  0
   -3.9670   -1.9391   -2.3750 H   0  0  0  0  0  0  0  0  0  0  0  0
   -4.5368   -2.0207   -0.6753 H   0  0  0  0  0  0  0  0  0  0  0  0
   -1.0276   -3.4325   -2.1909 C   0  0  0  0  0  0  0  0  0  0  0  0
   -1.3728   -4.4585   -2.4341 H   0  0  0  0  0  0  0  0  0  0  0  0
    0.0326   -3.4967   -1.8705 H   0  0  0  0  0  0  0  0  0  0  0  0
   -1.0589   -2.8272   -3.1195 H   0  0  0  0  0  0  0  0  0  0  0  0
   -2.0154   -3.7038    0.7235 C   0  0  0  0  0  0  0  0  0  0  0  0
   -2.3070   -4.7485    0.4879 H   0  0  0  0  0  0  0  0  0  0  0  0
   -2.7032   -3.3290    1.5074 H   0  0  0  0  0  0  0  0  0  0  0  0
   -0.9926   -3.7278    1.1501 H   0  0  0  0  0  0  0  0  0  0  0  0
   -3.1920    0.3210   -1.2151 H   0  0  0  0  0  0  0  0  0  0  0  0
    0.9548   -2.3813    0.3405 H   0  0  0  0  0  0  0  0  0  0  0  0
    2.0238   -1.4314    2.4579 H   0  0  0  0  0  0  0  0  0  0  0  0
    2.3175    1.1232    2.5369 H   0  0  0  0  0  0  0  0  0  0  0  0
    1.5238    2.4230    0.5081 H   0  0  0  0  0  0  0  0  0  0  0  0
  1 11  1  1  0  0  0
  2  6  2  0  0  0  0
  3 50  1  6  0  0  0
  3  2  1  0  0  0  0
  3  4  1  0  0  0  0
  3  1  1  0  0  0  0
  4 37  1  1  0  0  0
  4  5  1  0  0  0  0
  4  1  1  0  0  0  0
  5  6  1  6  0  0  0
  5 10  1  0  0  0  0
  5  1  1  0  0  0  0
  6  7  1  0  0  0  0
  7  8  1  0  0  0  0
  8 53  1  0  0  0  0
  9  8  1  0  0  0  0
  9 52  1  0  0  0  0
 10  9  1  0  0  0  0
 11 16  1  0  0  0  0
 11 20  1  0  0  0  0
 12 11  1  0  0  0  0
 12 15  1  0  0  0  0
 13 12  1  0  0  0  0
 14 12  1  0  0  0  0
 16 18  1  0  0  0  0
 16 19  1  0  0  0  0
 17 16  1  0  0  0  0
 20 23  1  0  0  0  0
 20 22  1  0  0  0  0
 21 20  1  0  0  0  0
 24 25  1  0  0  0  0
 24  2  1  0  0  0  0
 24 29  1  0  0  0  0
 25 27  1  0  0  0  0
 26 25  1  0  0  0  0
 28 25  1  0  0  0  0
 29 31  1  0  0  0  0
 30 29  1  0  0  0  0
 32 29  1  0  0  0  0
 33 24  1  0  0  0  0
 34 33  1  0  0  0  0
 35 33  1  0  0  0  0
 36 33  1  0  0  0  0
 37 46  1  0  0  0  0
 38 37  1  0  0  0  0
 38 41  1  0  0  0  0
 39 38  1  0  0  0  0
 40 38  1  0  0  0  0
 42 44  1  0  0  0  0
 42 37  1  0  0  0  0
 43 42  1  0  0  0  0
 45 42  1  0  0  0  0
 46 49  1  0  0  0  0
 46 48  1  0  0  0  0
 47 46  1  0  0  0  0
 51 10  1  0  0  0  0
 54  7  1  0  0  0  0
M  END
