34
 OpenBabel05122313113D

 62 66  0  0  1  0  0  0  0  0999 V2000
    1.9060    2.9670   -0.7138 Si  0  0  0  0  0  0  0  0  0  0  0  0
    1.9063   -2.9669   -0.7139 Si  0  0  0  0  0  0  0  0  0  0  0  0
    3.1452    0.0001   -1.5684 O   0  0  0  0  0  0  0  0  0  0  0  0
   -1.2880    0.8005   -2.7775 C   0  0  0  0  0  0  0  0  0  0  0  0
   -0.2393    1.1508   -2.8264 H   0  0  0  0  0  0  0  0  0  0  0  0
   -1.7836    1.1491   -3.7047 H   0  0  0  0  0  0  0  0  0  0  0  0
   -1.2880   -0.8006   -2.7775 C   0  0  0  0  0  0  0  0  0  0  0  0
   -1.7837   -1.1491   -3.7046 H   0  0  0  0  0  0  0  0  0  0  0  0
   -0.2393   -1.1510   -2.8265 H   0  0  0  0  0  0  0  0  0  0  0  0
   -2.0058   -1.3915   -1.5799 C   0  0  0  0  0  0  0  0  0  0  0  0
   -1.4052   -1.3698   -0.2918 C   0  0  0  0  0  0  0  0  0  0  0  0
   -2.2245   -1.4230    0.8535 C   0  0  0  0  0  0  0  0  0  0  0  0
   -1.7583   -1.2698    1.8364 H   0  0  0  0  0  0  0  0  0  0  0  0
   -3.6274   -1.4057    0.7582 C   0  0  0  0  0  0  0  0  0  0  0  0
   -4.1913   -1.6537   -0.5096 C   0  0  0  0  0  0  0  0  0  0  0  0
   -5.2864   -1.7074   -0.6183 H   0  0  0  0  0  0  0  0  0  0  0  0
   -3.3841   -1.6799   -1.6542 C   0  0  0  0  0  0  0  0  0  0  0  0
   -3.8573   -1.7636   -2.6458 H   0  0  0  0  0  0  0  0  0  0  0  0
   -4.4412   -0.8053    1.8833 C   0  0  0  0  0  0  0  0  0  0  0  0
   -4.0492   -1.1480    2.8619 H   0  0  0  0  0  0  0  0  0  0  0  0
   -5.4917   -1.1519    1.8190 H   0  0  0  0  0  0  0  0  0  0  0  0
   -4.4414    0.8051    1.8831 C   0  0  0  0  0  0  0  0  0  0  0  0
   -5.4921    1.1513    1.8184 H   0  0  0  0  0  0  0  0  0  0  0  0
   -4.0499    1.1481    2.8617 H   0  0  0  0  0  0  0  0  0  0  0  0
   -3.6276    1.4055    0.7581 C   0  0  0  0  0  0  0  0  0  0  0  0
   -4.1914    1.6536   -0.5098 C   0  0  0  0  0  0  0  0  0  0  0  0
   -5.2865    1.7072   -0.6185 H   0  0  0  0  0  0  0  0  0  0  0  0
   -3.3841    1.6797   -1.6543 C   0  0  0  0  0  0  0  0  0  0  0  0
   -3.8573    1.7635   -2.6459 H   0  0  0  0  0  0  0  0  0  0  0  0
   -2.0059    1.3914   -1.5799 C   0  0  0  0  0  0  0  0  0  0  0  0
   -1.4053    1.3697   -0.2918 C   0  0  0  0  0  0  0  0  0  0  0  0
   -2.2246    1.4228    0.8535 C   0  0  0  0  0  0  0  0  0  0  0  0
   -1.7585    1.2696    1.8364 H   0  0  0  0  0  0  0  0  0  0  0  0
   -0.0621   -0.7323   -0.2302 C   0  0  2  0  0  3  0  0  0  0  0  0
   -0.0622    0.7323   -0.2301 C   0  0  1  0  0  3  0  0  0  0  0  0
    1.2745    1.1917   -0.5014 C   0  0  1  0  0  3  0  0  0  0  0  0
    2.0579    0.0001   -0.9918 C   0  0  0  0  0  0  0  0  0  0  0  0
    1.2746   -1.1916   -0.5015 C   0  0  2  0  0  3  0  0  0  0  0  0
    3.6136    3.0813    0.0802 C   0  0  0  0  0  0  0  0  0  0  0  0
    4.0962    4.0521   -0.1546 H   0  0  0  0  0  0  0  0  0  0  0  0
    4.2569    2.2662   -0.3080 H   0  0  0  0  0  0  0  0  0  0  0  0
    3.5550    2.9861    1.1832 H   0  0  0  0  0  0  0  0  0  0  0  0
    2.0332    3.2608   -2.5784 C   0  0  0  0  0  0  0  0  0  0  0  0
    1.0346    3.2463   -3.0610 H   0  0  0  0  0  0  0  0  0  0  0  0
    2.6581    2.4676   -3.0362 H   0  0  0  0  0  0  0  0  0  0  0  0
    2.5006    4.2439   -2.7931 H   0  0  0  0  0  0  0  0  0  0  0  0
    0.6885    4.1765    0.0751 C   0  0  0  0  0  0  0  0  0  0  0  0
    1.0374    5.2191   -0.0764 H   0  0  0  0  0  0  0  0  0  0  0  0
    0.5877    4.0085    1.1658 H   0  0  0  0  0  0  0  0  0  0  0  0
   -0.3190    4.0817   -0.3778 H   0  0  0  0  0  0  0  0  0  0  0  0
    0.6889   -4.1765    0.0749 C   0  0  0  0  0  0  0  0  0  0  0  0
   -0.3186   -4.0818   -0.3779 H   0  0  0  0  0  0  0  0  0  0  0  0
    0.5880   -4.0086    1.1656 H   0  0  0  0  0  0  0  0  0  0  0  0
    1.0378   -5.2190   -0.0767 H   0  0  0  0  0  0  0  0  0  0  0  0
    2.0336   -3.2605   -2.5785 C   0  0  0  0  0  0  0  0  0  0  0  0
    2.5011   -4.2436   -2.7932 H   0  0  0  0  0  0  0  0  0  0  0  0
    2.6584   -2.4672   -3.0362 H   0  0  0  0  0  0  0  0  0  0  0  0
    1.0351   -3.2461   -3.0612 H   0  0  0  0  0  0  0  0  0  0  0  0
    3.6139   -3.0810    0.0802 C   0  0  0  0  0  0  0  0  0  0  0  0
    3.5552   -2.9859    1.1832 H   0  0  0  0  0  0  0  0  0  0  0  0
    4.2571   -2.2658   -0.3080 H   0  0  0  0  0  0  0  0  0  0  0  0
    4.0966   -4.0518   -0.1547 H   0  0  0  0  0  0  0  0  0  0  0  0
  1 47  1  0  0  0  0
  1 39  1  0  0  0  0
  2 51  1  0  0  0  0
  2 59  1  0  0  0  0
  3 37  2  0  0  0  0
  4 30  1  0  0  0  0
  5  4  1  0  0  0  0
  6  4  1  0  0  0  0
  7  4  1  0  0  0  0
  7 10  1  0  0  0  0
  8  7  1  0  0  0  0
  9  7  1  0  0  0  0
 10 11  1  0  0  0  0
 11 12  2  0  0  0  0
 12 13  1  0  0  0  0
 14 12  1  0  0  0  0
 14 19  1  0  0  0  0
 15 14  2  0  0  0  0
 16 15  1  0  0  0  0
 17 10  2  0  0  0  0
 17 15  1  0  0  0  0
 18 17  1  0  0  0  0
 19 20  1  0  0  0  0
 21 19  1  0  0  0  0
 22 19  1  0  0  0  0
 22 24  1  0  0  0  0
 23 22  1  0  0  0  0
 25 32  1  0  0  0  0
 25 22  1  0  0  0  0
 26 25  2  0  0  0  0
 27 26  1  0  0  0  0
 28 30  2  0  0  0  0
 28 26  1  0  0  0  0
 29 28  1  0  0  0  0
 30 31  1  0  0  0  0
 31 32  2  0  0  0  0
 32 33  1  0  0  0  0
 34 11  1  6  0  0  0
 34 35  1  0  0  0  0
 35 31  1  6  0  0  0
 36  1  1  6  0  0  0
 36 35  1  0  0  0  0
 37 38  1  0  0  0  0
 37 36  1  0  0  0  0
 38  2  1  6  0  0  0
 38 34  1  0  0  0  0
 39 42  1  0  0  0  0
 40 39  1  0  0  0  0
 41 39  1  0  0  0  0
 43  1  1  0  0  0  0
 44 43  1  0  0  0  0
 45 43  1  0  0  0  0
 46 43  1  0  0  0  0
 47 49  1  0  0  0  0
 48 47  1  0  0  0  0
 50 47  1  0  0  0  0
 51 53  1  0  0  0  0
 52 51  1  0  0  0  0
 54 51  1  0  0  0  0
 55  2  1  0  0  0  0
 56 55  1  0  0  0  0
 57 55  1  0  0  0  0
 58 55  1  0  0  0  0
 59 60  1  0  0  0  0
 61 59  1  0  0  0  0
 62 59  1  0  0  0  0
M  END
