1
 OpenBabel05122313113D

 23 22  0  0  1  0  0  0  0  0999 V2000
   -0.7750   -1.0805   -1.3310 C   0  0  0  0  0  3  0  0  0  0  0  0
   -1.2009   -0.4546   -2.1393 H   0  0  0  0  0  0  0  0  0  0  0  0
   -0.1596   -1.8851   -1.7754 H   0  0  0  0  0  0  0  0  0  0  0  0
   -2.8779   -2.2617   -1.2855 O   0  0  0  0  0  0  0  0  0  0  0  0
   -1.3751   -2.7491    0.5051 C   0  0  0  0  0  0  0  0  0  0  0  0
   -0.5267   -2.3298    1.0896 H   0  0  0  0  0  0  0  0  0  0  0  0
   -0.9527   -3.5770   -0.1080 H   0  0  0  0  0  0  0  0  0  0  0  0
   -2.4508   -3.2938    1.4443 C   0  0  0  0  0  0  0  0  0  0  0  0
   -2.8502   -2.4604    2.0658 H   0  0  0  0  0  0  0  0  0  0  0  0
   -3.3040   -3.6505    0.8284 H   0  0  0  0  0  0  0  0  0  0  0  0
   -1.8815   -1.6672   -0.4476 C   0  0  1  0  0  0  0  0  0  0  0  0
   -2.3562   -0.8519    0.1499 H   0  0  0  0  0  0  0  0  0  0  0  0
   -1.9607   -4.4202    2.3577 C   0  0  0  0  0  0  0  0  0  0  0  0
   -1.0947   -4.0577    2.9564 H   0  0  0  0  0  0  0  0  0  0  0  0
   -1.5618   -5.2488    1.7304 H   0  0  0  0  0  0  0  0  0  0  0  0
   -3.0439   -4.9588    3.2929 C   0  0  0  0  0  0  0  0  0  0  0  0
   -2.6648   -5.7772    3.9379 H   0  0  0  0  0  0  0  0  0  0  0  0
   -3.9072   -5.3560    2.7190 H   0  0  0  0  0  0  0  0  0  0  0  0
   -3.4338   -4.1606    3.9590 H   0  0  0  0  0  0  0  0  0  0  0  0
   -3.8264   -1.3403   -1.7849 C   0  0  0  0  0  0  0  0  0  0  0  0
   -4.3759   -0.8246   -0.9609 H   0  0  0  0  0  0  0  0  0  0  0  0
   -4.5510   -1.9119   -2.3971 H   0  0  0  0  0  0  0  0  0  0  0  0
   -3.3711   -0.5479   -2.4233 H   0  0  0  0  0  0  0  0  0  0  0  0
  1 11  1  0  0  0  0
  2  1  1  0  0  0  0
  3  1  1  0  0  0  0
  4 11  1  0  0  0  0
  5  6  1  0  0  0  0
  5  8  1  0  0  0  0
  7  5  1  0  0  0  0
  8  9  1  0  0  0  0
  8 13  1  0  0  0  0
 10  8  1  0  0  0  0
 11 12  1  1  0  0  0
 11  5  1  0  0  0  0
 13 14  1  0  0  0  0
 13 16  1  0  0  0  0
 15 13  1  0  0  0  0
 16 17  1  0  0  0  0
 16 19  1  0  0  0  0
 18 16  1  0  0  0  0
 20  4  1  0  0  0  0
 20 21  1  0  0  0  0
 22 20  1  0  0  0  0
 23 20  1  0  0  0  0
M  END
