3
 OpenBabel05122313113D

 23 25  0  0  0  0  0  0  0  0999 V2000
    8.3100    0.2580   -0.0033 N   0  0  0  0  0  0  0  0  0  0  0  0
    6.9473   -2.1439   -0.0050 N   0  0  0  0  0  0  0  0  0  0  0  0
    1.3937    0.2155    0.0058 C   0  0  0  0  0  1  0  0  0  0  0  0
    2.6347    0.2627    0.0055 C   0  0  0  0  0  2  0  0  0  0  0  0
    6.2915   -3.2981   -0.0056 C   0  0  0  0  0  0  0  0  0  0  0  0
    6.9107   -4.2150   -0.0083 H   0  0  0  0  0  0  0  0  0  0  0  0
    4.8791   -3.4044   -0.0027 C   0  0  0  0  0  0  0  0  0  0  0  0
    4.3948   -4.3926   -0.0030 H   0  0  0  0  0  0  0  0  0  0  0  0
    4.1306   -2.2344    0.0005 C   0  0  0  0  0  0  0  0  0  0  0  0
    3.0299   -2.2465    0.0030 H   0  0  0  0  0  0  0  0  0  0  0  0
    4.7961   -0.9829    0.0010 C   0  0  0  0  0  0  0  0  0  0  0  0
    6.2302   -0.9934   -0.0017 C   0  0  0  0  0  0  0  0  0  0  0  0
    4.0580    0.2766    0.0042 C   0  0  0  0  0  0  0  0  0  0  0  0
    4.7696    1.4693    0.0053 C   0  0  0  0  0  0  0  0  0  0  0  0
    4.2188    2.4219    0.0079 H   0  0  0  0  0  0  0  0  0  0  0  0
    6.1992    1.4975    0.0030 C   0  0  0  0  0  0  0  0  0  0  0  0
    6.9567    0.2764   -0.0007 C   0  0  0  0  0  0  0  0  0  0  0  0
    6.9282    2.7177    0.0041 C   0  0  0  0  0  0  0  0  0  0  0  0
    6.3796    3.6729    0.0070 H   0  0  0  0  0  0  0  0  0  0  0  0
    8.3159    2.6832    0.0014 C   0  0  0  0  0  0  0  0  0  0  0  0
    8.9119    3.6082    0.0022 H   0  0  0  0  0  0  0  0  0  0  0  0
    8.9571    1.4184   -0.0023 C   0  0  0  0  0  0  0  0  0  0  0  0
   10.0619    1.3658   -0.0045 H   0  0  0  0  0  0  0  0  0  0  0  0
  1 22  2  0  0  0  0
  1 17  1  0  0  0  0
  2 12  1  0  0  0  0
  4  3  1  0  0  0  0
  5  2  2  0  0  0  0
  5  7  1  0  0  0  0
  6  5  1  0  0  0  0
  7  9  2  0  0  0  0
  8  7  1  0  0  0  0
  9 11  1  0  0  0  0
  9 10  1  0  0  0  0
 11 13  1  0  0  0  0
 12 17  1  0  0  0  0
 12 11  2  0  0  0  0
 13 14  2  0  0  0  0
 13  4  1  0  0  0  0
 14 15  1  0  0  0  0
 16 18  1  0  0  0  0
 16 14  1  0  0  0  0
 17 16  2  0  0  0  0
 18 19  1  0  0  0  0
 20 21  1  0  0  0  0
 20 18  2  0  0  0  0
 22 20  1  0  0  0  0
 23 22  1  0  0  0  0
M  END
