4
 OpenBabel05122313113D

 16 15  0  0  0  0  0  0  0  0999 V2000
   -3.8118   -1.8069   -0.5543 O   0  0  0  0  0  0  0  0  0  0  0  0
   -3.7085   -0.3173    1.1619 O   0  0  0  0  0  0  0  0  0  0  0  0
   -2.8450    0.3790   -0.8978 C   0  0  0  0  0  3  0  0  0  0  0  0
   -2.9252    0.3542   -2.3341 C   0  0  0  0  0  3  0  0  0  0  0  0
   -2.1426    1.3151   -3.0334 C   0  0  0  0  0  3  0  0  0  0  0  0
   -1.3044    2.1720   -2.2427 C   0  0  0  0  0  3  0  0  0  0  0  0
   -3.4903   -0.7053   -0.1336 C   0  0  0  0  0  0  0  0  0  0  0  0
   -4.3598   -1.2849    1.9874 C   0  0  0  0  0  0  0  0  0  0  0  0
   -2.8143    1.3464   -0.3732 H   0  0  0  0  0  0  0  0  0  0  0  0
   -3.5042   -0.4229   -2.8556 H   0  0  0  0  0  0  0  0  0  0  0  0
   -2.0870    1.2824   -4.1333 H   0  0  0  0  0  0  0  0  0  0  0  0
   -0.5561    2.7848   -2.7693 H   0  0  0  0  0  0  0  0  0  0  0  0
   -1.6921    2.6360   -1.3223 H   0  0  0  0  0  0  0  0  0  0  0  0
   -4.4598   -0.8205    2.9849 H   0  0  0  0  0  0  0  0  0  0  0  0
   -3.7587   -2.2129    2.0590 H   0  0  0  0  0  0  0  0  0  0  0  0
   -5.3572   -1.5454    1.5786 H   0  0  0  0  0  0  0  0  0  0  0  0
  1  7  2  0  0  0  0
  2  8  1  0  0  0  0
  3  9  1  0  0  0  0
  3  7  1  0  0  0  0
  4  3  1  0  0  0  0
  5  4  1  0  0  0  0
  5  6  1  0  0  0  0
  6 13  1  0  0  0  0
  7  2  1  0  0  0  0
  8 15  1  0  0  0  0
  8 14  1  0  0  0  0
 10  4  1  0  0  0  0
 11  5  1  0  0  0  0
 12  6  1  0  0  0  0
 16  8  1  0  0  0  0
M  END
