5
 OpenBabel05122313113D

 18 17  0  0  0  0  0  0  0  0999 V2000
   -4.0592   -0.5880   -0.8348 O   0  0  0  0  0  0  0  0  0  0  0  0
   -3.7942    0.8667    1.0586 C   0  0  0  0  0  0  0  0  0  0  0  0
   -3.4425   -0.3396    0.2006 C   0  0  0  0  0  0  0  0  0  0  0  0
   -2.3306   -1.1969    0.6867 C   0  0  0  0  0  3  0  0  0  0  0  0
   -2.2347   -2.5514    0.2041 C   0  0  0  0  0  3  0  0  0  0  0  0
   -1.0540   -3.2827    0.5222 C   0  0  0  0  0  3  0  0  0  0  0  0
   -0.0113   -2.6059    1.2351 C   0  0  0  0  0  3  0  0  0  0  0  0
    1.3355   -3.2459    1.4482 C   0  0  0  0  0  0  0  0  0  0  0  0
   -4.6589    1.3958    0.6196 H   0  0  0  0  0  0  0  0  0  0  0  0
   -2.9331    1.5650    1.1091 H   0  0  0  0  0  0  0  0  0  0  0  0
   -4.0293    0.5560    2.0979 H   0  0  0  0  0  0  0  0  0  0  0  0
   -1.9598   -0.9752    1.7008 H   0  0  0  0  0  0  0  0  0  0  0  0
   -3.0222   -2.9667   -0.4433 H   0  0  0  0  0  0  0  0  0  0  0  0
   -0.9004   -4.2871    0.0932 H   0  0  0  0  0  0  0  0  0  0  0  0
   -0.3104   -1.9173    2.0434 H   0  0  0  0  0  0  0  0  0  0  0  0
    2.1151   -2.4792    1.6345 H   0  0  0  0  0  0  0  0  0  0  0  0
    1.6543   -3.8586    0.5814 H   0  0  0  0  0  0  0  0  0  0  0  0
    1.3272   -3.9063    2.3437 H   0  0  0  0  0  0  0  0  0  0  0  0
  1  3  2  0  0  0  0
  2 10  1  0  0  0  0
  2 11  1  0  0  0  0
  3  4  1  0  0  0  0
  3  2  1  0  0  0  0
  4 12  1  0  0  0  0
  5  6  1  0  0  0  0
  5  4  1  0  0  0  0
  6  7  1  0  0  0  0
  7  8  1  0  0  0  0
  7 15  1  0  0  0  0
  8 16  1  0  0  0  0
  8 18  1  0  0  0  0
  9  2  1  0  0  0  0
 13  5  1  0  0  0  0
 14  6  1  0  0  0  0
 17  8  1  0  0  0  0
M  END
