4
 OpenBabel05122313113D

 21 20  0  0  1  0  0  0  0  0999 V2000
   -1.5377    1.3891    0.6469 O   0  0  0  0  0  0  0  0  0  0  0  0
   -6.4095   -0.6610    0.1501 N   0  0  0  0  0  0  0  0  0  0  0  0
    0.2659   -1.3755   -1.0512 C   0  0  0  0  0  3  0  0  0  0  0  0
   -0.4014   -0.6717    0.0075 C   0  0  1  0  0  3  0  0  0  0  0  0
    0.1654   -0.8046    1.3142 C   0  0  0  0  0  3  0  0  0  0  0  0
    1.3458   -1.5999    1.4506 C   0  0  0  0  0  3  0  0  0  0  0  0
   -1.5618    0.2799   -0.2325 C   0  0  1  0  0  0  0  0  0  0  0  0
   -2.8998   -0.4383   -0.0282 C   0  0  0  0  0  0  0  0  0  0  0  0
   -4.0899    0.5048   -0.2834 C   0  0  0  0  0  0  0  0  0  0  0  0
   -5.3834   -0.1310   -0.0453 C   0  0  0  0  0  0  0  0  0  0  0  0
   -0.0230   -1.1311   -2.0863 H   0  0  0  0  0  0  0  0  0  0  0  0
    0.6015   -2.4139   -0.9067 H   0  0  0  0  0  0  0  0  0  0  0  0
   -0.2264   -0.1737    2.1270 H   0  0  0  0  0  0  0  0  0  0  0  0
    1.4265   -2.5728    0.9418 H   0  0  0  0  0  0  0  0  0  0  0  0
    1.9097   -1.5307    2.3934 H   0  0  0  0  0  0  0  0  0  0  0  0
   -1.5050    0.6118   -1.3008 H   0  0  0  0  0  0  0  0  0  0  0  0
   -2.9436   -0.8218    1.0123 H   0  0  0  0  0  0  0  0  0  0  0  0
   -2.9487   -1.3162   -0.7034 H   0  0  0  0  0  0  0  0  0  0  0  0
   -4.0676    0.8815   -1.3291 H   0  0  0  0  0  0  0  0  0  0  0  0
   -3.9941    1.3946    0.3727 H   0  0  0  0  0  0  0  0  0  0  0  0
   -0.6399    1.7733    0.5796 H   0  0  0  0  0  0  0  0  0  0  0  0
  3 12  1  0  0  0  0
  4  3  1  6  0  0  0
  4  5  1  0  0  0  0
  5  6  1  0  0  0  0
  5 13  1  0  0  0  0
  6 15  1  0  0  0  0
  7 16  1  6  0  0  0
  7  8  1  0  0  0  0
  7  4  1  0  0  0  0
  7  1  1  0  0  0  0
  8 17  1  0  0  0  0
  9 10  1  0  0  0  0
  9  8  1  0  0  0  0
  9 20  1  0  0  0  0
 10  2  3  0  0  0  0
 11  3  1  0  0  0  0
 14  6  1  0  0  0  0
 18  8  1  0  0  0  0
 19  9  1  0  0  0  0
 21  1  1  0  0  0  0
M  END
