2
 OpenBabel05122313113D

 27 27  0  0  1  0  0  0  0  0999 V2000
    1.8647    1.6030   -1.4332 C   0  0  0  0  0  3  0  0  0  0  0  0
    0.6874    0.7922   -1.4122 C   0  0  0  0  0  3  0  0  0  0  0  0
    0.8651   -0.5660   -1.8358 C   0  0  0  0  0  3  0  0  0  0  0  0
   -0.5506    1.3206   -0.7447 C   0  0  0  0  0  0  0  0  0  0  0  0
   -1.7893    0.4409   -0.6976 C   0  0  0  0  0  0  0  0  0  0  0  0
   -3.0321    1.1910   -0.1662 C   0  0  1  0  0  0  0  0  0  0  0  0
   -4.2199    0.2498   -0.0971 C   0  0  0  0  0  0  0  0  0  0  0  0
   -4.6413   -0.2733    1.1385 C   0  0  0  0  0  0  0  0  0  0  0  0
   -5.7130   -1.1779    1.1961 C   0  0  0  0  0  0  0  0  0  0  0  0
   -6.3731   -1.5711    0.0214 C   0  0  0  0  0  0  0  0  0  0  0  0
   -5.9595   -1.0484   -1.2151 C   0  0  0  0  0  0  0  0  0  0  0  0
   -4.8913   -0.1416   -1.2717 C   0  0  0  0  0  0  0  0  0  0  0  0
   -0.5640    2.4696   -0.2892 O   0  0  0  0  0  0  0  0  0  0  0  0
   -2.7773    1.7372    1.1089 O   0  0  0  0  0  0  0  0  0  0  0  0
    2.5821    1.4521   -2.2549 H   0  0  0  0  0  0  0  0  0  0  0  0
    1.7896    2.6222   -1.0274 H   0  0  0  0  0  0  0  0  0  0  0  0
    0.0348   -1.2819   -1.7555 H   0  0  0  0  0  0  0  0  0  0  0  0
    1.5526   -0.7502   -2.6774 H   0  0  0  0  0  0  0  0  0  0  0  0
   -1.9801    0.0241   -1.7095 H   0  0  0  0  0  0  0  0  0  0  0  0
   -1.5962   -0.4345   -0.0413 H   0  0  0  0  0  0  0  0  0  0  0  0
   -3.2723    1.9985   -0.9044 H   0  0  0  0  0  0  0  0  0  0  0  0
   -4.1192    0.0537    2.0485 H   0  0  0  0  0  0  0  0  0  0  0  0
   -6.0374   -1.5779    2.1693 H   0  0  0  0  0  0  0  0  0  0  0  0
   -7.2144   -2.2794    0.0685 H   0  0  0  0  0  0  0  0  0  0  0  0
   -6.4786   -1.3425   -2.1404 H   0  0  0  0  0  0  0  0  0  0  0  0
   -4.5800    0.2774   -2.2429 H   0  0  0  0  0  0  0  0  0  0  0  0
   -2.0042    2.3272    0.9579 H   0  0  0  0  0  0  0  0  0  0  0  0
  1  2  1  0  0  0  0
  1 16  1  0  0  0  0
  2  4  1  0  0  0  0
  3 17  1  0  0  0  0
  3  2  1  0  0  0  0
  4  5  1  0  0  0  0
  4 13  2  0  0  0  0
  5  6  1  0  0  0  0
  5 20  1  0  0  0  0
  6 21  1  6  0  0  0
  6  7  1  0  0  0  0
  6 14  1  0  0  0  0
  7  8  1  0  0  0  0
  8  9  2  0  0  0  0
  8 22  1  0  0  0  0
  9 23  1  0  0  0  0
 10 24  1  0  0  0  0
 10  9  1  0  0  0  0
 11 10  2  0  0  0  0
 12 11  1  0  0  0  0
 12  7  2  0  0  0  0
 15  1  1  0  0  0  0
 18  3  1  0  0  0  0
 19  5  1  0  0  0  0
 25 11  1  0  0  0  0
 26 12  1  0  0  0  0
 27 14  1  0  0  0  0
M  END
