4
 OpenBabel05122313113D

 18 18  0  0  0  0  0  0  0  0999 V2000
   -7.2443   -0.1278   -1.1133 F   0  0  0  0  0  0  0  0  0  0  0  0
   -7.7341    0.5601    0.9041 F   0  0  0  0  0  0  0  0  0  0  0  0
   -7.7368   -1.5709    0.4436 F   0  0  0  0  0  0  0  0  0  0  0  0
   -0.5159   -0.6909    0.6422 C   0  0  0  0  0  1  0  0  0  0  0  0
   -1.4680   -0.9286    1.7425 C   0  0  0  0  0  0  0  0  0  0  0  0
   -1.2394   -0.2712    2.6117 H   0  0  0  0  0  0  0  0  0  0  0  0
   -1.3138   -1.9686    2.1209 H   0  0  0  0  0  0  0  0  0  0  0  0
   -2.9240   -0.7648    1.3310 C   0  0  0  0  0  0  0  0  0  0  0  0
   -3.8686   -0.2550    2.2415 C   0  0  0  0  0  0  0  0  0  0  0  0
   -3.5466    0.0477    3.2506 H   0  0  0  0  0  0  0  0  0  0  0  0
   -5.2144   -0.1203    1.8763 C   0  0  0  0  0  0  0  0  0  0  0  0
   -5.9460    0.2887    2.5877 H   0  0  0  0  0  0  0  0  0  0  0  0
   -5.6292   -0.4947    0.5872 C   0  0  0  0  0  0  0  0  0  0  0  0
   -4.6894   -0.9927   -0.3324 C   0  0  0  0  0  0  0  0  0  0  0  0
   -5.0078   -1.2596   -1.3504 H   0  0  0  0  0  0  0  0  0  0  0  0
   -3.3447   -1.1251    0.0344 C   0  0  0  0  0  0  0  0  0  0  0  0
   -2.6046   -1.4668   -0.7088 H   0  0  0  0  0  0  0  0  0  0  0  0
   -7.0859   -0.4030    0.2035 C   0  0  0  0  0  0  0  0  0  0  0  0
  1 18  1  0  0  0  0
  4  5  1  0  0  0  0
  5  7  1  0  0  0  0
  5  6  1  0  0  0  0
  8  5  1  0  0  0  0
  8  9  1  0  0  0  0
  9 10  1  0  0  0  0
 11  9  2  0  0  0  0
 11 12  1  0  0  0  0
 13 11  1  0  0  0  0
 14 16  1  0  0  0  0
 14 13  2  0  0  0  0
 15 14  1  0  0  0  0
 16  8  2  0  0  0  0
 17 16  1  0  0  0  0
 18  3  1  0  0  0  0
 18 13  1  0  0  0  0
 18  2  1  0  0  0  0
M  END
