4
 OpenBabel05122313113D

 73 78  0  0  1  0  0  0  0  0999 V2000
   -1.5580   -0.0331   -0.5663 P   0  0  1  0  0  0  0  0  0  0  0  0
    1.5835   -0.0970   -0.5329 P   0  0  2  0  0  0  0  0  0  0  0  0
    1.2226   -1.8197    2.1698 C   0  0  0  0  0  0  0  0  0  0  0  0
    0.1808   -2.5004    1.4022 C   0  0  2  0  0  3  0  0  0  0  0  0
   -1.0979   -2.0523    1.9307 C   0  0  0  0  0  0  0  0  0  0  0  0
   -0.8583   -1.0983    2.9879 C   0  0  0  0  0  0  0  0  0  0  0  0
    0.5900   -0.9689    3.1445 C   0  0  0  0  0  0  0  0  0  0  0  0
    2.6978   -2.0250    2.0386 C   0  0  0  0  0  0  0  0  0  0  0  0
    0.3689   -3.6169    0.4236 C   0  0  0  0  0  0  0  0  0  0  0  0
   -2.4361   -2.5750    1.5182 C   0  0  0  0  0  0  0  0  0  0  0  0
   -1.8680   -0.3802    3.8203 C   0  0  0  0  0  0  0  0  0  0  0  0
    1.2429   -0.0809    4.1484 C   0  0  0  0  0  0  0  0  0  0  0  0
   -2.6595    1.4122   -0.3182 C   0  0  0  0  0  0  0  0  0  0  0  0
   -2.3590    2.7210   -0.7502 C   0  0  0  0  0  0  0  0  0  0  0  0
   -3.1571    3.8204   -0.3983 C   0  0  0  0  0  0  0  0  0  0  0  0
   -4.2596    3.6382    0.4545 C   0  0  0  0  0  0  0  0  0  0  0  0
   -4.5636    2.3526    0.9368 C   0  0  0  0  0  0  0  0  0  0  0  0
   -3.7526    1.2739    0.5624 C   0  0  0  0  0  0  0  0  0  0  0  0
   -1.2864    2.9811   -1.5124 F   0  0  0  0  0  0  0  0  0  0  0  0
   -2.8520    5.0355   -0.8395 F   0  0  0  0  0  0  0  0  0  0  0  0
   -5.0093    4.6725    0.8027 F   0  0  0  0  0  0  0  0  0  0  0  0
   -5.5897    2.1699    1.7623 F   0  0  0  0  0  0  0  0  0  0  0  0
   -4.0389    0.0751    1.1078 F   0  0  0  0  0  0  0  0  0  0  0  0
   -2.6977   -1.4588   -0.8425 C   0  0  0  0  0  0  0  0  0  0  0  0
   -2.8610   -2.5503    0.0574 C   0  0  0  0  0  0  0  0  0  0  0  0
   -3.6598   -3.6318   -0.3577 C   0  0  0  0  0  0  0  0  0  0  0  0
   -4.3372   -3.6500   -1.5905 C   0  0  0  0  0  0  0  0  0  0  0  0
   -4.2326   -2.5421   -2.4429 C   0  0  0  0  0  0  0  0  0  0  0  0
   -3.4328   -1.4584   -2.0452 C   0  0  0  0  0  0  0  0  0  0  0  0
   -3.8422   -4.6836    0.4526 F   0  0  0  0  0  0  0  0  0  0  0  0
   -5.0814   -4.6904   -1.9318 F   0  0  0  0  0  0  0  0  0  0  0  0
   -4.8855   -2.5127   -3.5970 F   0  0  0  0  0  0  0  0  0  0  0  0
   -3.3953   -0.4010   -2.8736 F   0  0  0  0  0  0  0  0  0  0  0  0
    2.3527    1.5571   -0.6253 C   0  0  0  0  0  0  0  0  0  0  0  0
    3.0474    1.9712    0.5288 C   0  0  0  0  0  0  0  0  0  0  0  0
    3.5745    3.2603    0.6606 C   0  0  0  0  0  0  0  0  0  0  0  0
    3.4215    4.1705   -0.4029 C   0  0  0  0  0  0  0  0  0  0  0  0
    2.7380    3.7852   -1.5708 C   0  0  0  0  0  0  0  0  0  0  0  0
    2.2187    2.4846   -1.6734 C   0  0  0  0  0  0  0  0  0  0  0  0
    3.1979    1.1122    1.5527 F   0  0  0  0  0  0  0  0  0  0  0  0
    4.2131    3.6251    1.7673 F   0  0  0  0  0  0  0  0  0  0  0  0
    3.9198    5.3935   -0.3024 F   0  0  0  0  0  0  0  0  0  0  0  0
    2.6030    4.6440   -2.5756 F   0  0  0  0  0  0  0  0  0  0  0  0
    1.5775    2.1638   -2.8086 F   0  0  0  0  0  0  0  0  0  0  0  0
    3.0216   -1.2407   -0.4491 C   0  0  0  0  0  0  0  0  0  0  0  0
    3.3423   -2.0691    0.6626 C   0  0  0  0  0  0  0  0  0  0  0  0
    4.4511   -2.9282    0.5395 C   0  0  0  0  0  0  0  0  0  0  0  0
    5.2551   -2.9753   -0.6135 C   0  0  0  0  0  0  0  0  0  0  0  0
    4.9563   -2.1311   -1.6931 C   0  0  0  0  0  0  0  0  0  0  0  0
    3.8530   -1.2702   -1.5874 C   0  0  0  0  0  0  0  0  0  0  0  0
    4.7977   -3.7265    1.5580 F   0  0  0  0  0  0  0  0  0  0  0  0
    6.2879   -3.8013   -0.6768 F   0  0  0  0  0  0  0  0  0  0  0  0
    5.7039   -2.1444   -2.7885 F   0  0  0  0  0  0  0  0  0  0  0  0
    3.6083   -0.4619   -2.6320 F   0  0  0  0  0  0  0  0  0  0  0  0
    0.7223   -0.5014   -2.1289 C   0  0  0  0  0  0  0  0  0  0  0  0
   -0.6435    0.1766   -2.1864 C   0  0  0  0  0  0  0  0  0  0  0  0
    2.9518   -2.9741    2.5543 H   0  0  0  0  0  0  0  0  0  0  0  0
    3.2152   -1.2314    2.6163 H   0  0  0  0  0  0  0  0  0  0  0  0
    0.3701   -4.5912    0.9578 H   0  0  0  0  0  0  0  0  0  0  0  0
   -0.4531   -3.6489   -0.3168 H   0  0  0  0  0  0  0  0  0  0  0  0
    1.3299   -3.5378   -0.1174 H   0  0  0  0  0  0  0  0  0  0  0  0
   -3.2166   -2.0261    2.0839 H   0  0  0  0  0  0  0  0  0  0  0  0
   -2.5005   -3.6255    1.8674 H   0  0  0  0  0  0  0  0  0  0  0  0
   -1.9649   -0.8558    4.8191 H   0  0  0  0  0  0  0  0  0  0  0  0
   -1.5616    0.6730    3.9719 H   0  0  0  0  0  0  0  0  0  0  0  0
   -2.8638   -0.3719    3.3408 H   0  0  0  0  0  0  0  0  0  0  0  0
    0.9941   -0.4165    5.1763 H   0  0  0  0  0  0  0  0  0  0  0  0
    2.3425   -0.0656    4.0446 H   0  0  0  0  0  0  0  0  0  0  0  0
    0.8777    0.9600    4.0287 H   0  0  0  0  0  0  0  0  0  0  0  0
    0.6291   -1.6081   -2.0978 H   0  0  0  0  0  0  0  0  0  0  0  0
    1.3381   -0.2315   -3.0044 H   0  0  0  0  0  0  0  0  0  0  0  0
   -0.5299    1.2604   -2.3546 H   0  0  0  0  0  0  0  0  0  0  0  0
   -1.2520   -0.2185   -3.0179 H   0  0  0  0  0  0  0  0  0  0  0  0
  1 13  1  6  0  0  0
  2 34  1  6  0  0  0
  2 45  1  0  0  0  0
  3  7  2  0  0  0  0
  4  9  1  1  0  0  0
  4  5  1  0  0  0  0
  4  3  1  0  0  0  0
  5  6  2  0  0  0  0
  6  7  1  0  0  0  0
  6 11  1  0  0  0  0
  7 12  1  0  0  0  0
  8  3  1  0  0  0  0
  8 57  1  0  0  0  0
  8 58  1  0  0  0  0
  9 59  1  0  0  0  0
 10 63  1  0  0  0  0
 10  5  1  0  0  0  0
 10 62  1  0  0  0  0
 11 65  1  0  0  0  0
 11 64  1  0  0  0  0
 12 67  1  0  0  0  0
 13 18  1  0  0  0  0
 14 15  1  0  0  0  0
 14 13  2  0  0  0  0
 15 16  2  0  0  0  0
 16 21  1  0  0  0  0
 16 17  1  0  0  0  0
 17 22  1  0  0  0  0
 18 17  2  0  0  0  0
 18 23  1  0  0  0  0
 19 14  1  0  0  0  0
 20 15  1  0  0  0  0
 24  1  1  0  0  0  0
 24 25  1  0  0  0  0
 25 10  1  0  0  0  0
 26 25  2  0  0  0  0
 26 30  1  0  0  0  0
 27 26  1  0  0  0  0
 28 29  1  0  0  0  0
 28 27  2  0  0  0  0
 29 24  2  0  0  0  0
 31 27  1  0  0  0  0
 32 28  1  0  0  0  0
 33 29  1  0  0  0  0
 34 35  1  0  0  0  0
 35 36  2  0  0  0  0
 35 40  1  0  0  0  0
 36 41  1  0  0  0  0
 37 42  1  0  0  0  0
 37 36  1  0  0  0  0
 38 37  2  0  0  0  0
 39 38  1  0  0  0  0
 39 34  2  0  0  0  0
 43 38  1  0  0  0  0
 44 39  1  0  0  0  0
 45 46  1  0  0  0  0
 46  8  1  0  0  0  0
 47 46  2  0  0  0  0
 47 51  1  0  0  0  0
 48 47  1  0  0  0  0
 49 50  1  0  0  0  0
 49 48  2  0  0  0  0
 50 45  2  0  0  0  0
 52 48  1  0  0  0  0
 53 49  1  0  0  0  0
 54 50  1  0  0  0  0
 55 70  1  0  0  0  0
 55  2  1  0  0  0  0
 56 55  1  0  0  0  0
 56  1  1  0  0  0  0
 60  9  1  0  0  0  0
 61  9  1  0  0  0  0
 66 11  1  0  0  0  0
 68 12  1  0  0  0  0
 69 12  1  0  0  0  0
 71 55  1  0  0  0  0
 72 56  1  0  0  0  0
 73 56  1  0  0  0  0
M  END
