3
 OpenBabel05122313113D

 14 14  0  0  0  0  0  0  0  0999 V2000
    1.1728   -1.8531   -0.0000 S   0  0  0  0  0  0  0  0  0  0  0  0
    1.2315    0.6509    0.0000 N   0  0  0  0  0  0  0  0  0  0  0  0
    0.3065   -0.3550   -0.0000 C   0  0  0  0  0  2  0  0  0  0  0  0
    2.5848    0.2844    0.0000 C   0  0  0  0  0  0  0  0  0  0  0  0
    2.7312   -1.0786   -0.0000 C   0  0  0  0  0  0  0  0  0  0  0  0
    0.8092    2.0517   -0.0001 C   0  0  0  0  0  0  0  0  0  0  0  0
    3.6643    1.3183    0.0001 C   0  0  0  0  0  0  0  0  0  0  0  0
    3.6739   -1.6370   -0.0000 H   0  0  0  0  0  0  0  0  0  0  0  0
    1.1833    2.5721   -0.9036 H   0  0  0  0  0  0  0  0  0  0  0  0
    1.1846    2.5726    0.9026 H   0  0  0  0  0  0  0  0  0  0  0  0
   -0.2974    2.0648    0.0006 H   0  0  0  0  0  0  0  0  0  0  0  0
    4.6565    0.8323    0.0001 H   0  0  0  0  0  0  0  0  0  0  0  0
    3.6048    1.9739    0.8936 H   0  0  0  0  0  0  0  0  0  0  0  0
    3.6048    1.9739   -0.8935 H   0  0  0  0  0  0  0  0  0  0  0  0
  3  1  1  0  0  0  0
  3  2  1  0  0  0  0
  4  2  1  0  0  0  0
  4  7  1  0  0  0  0
  5  1  1  0  0  0  0
  5  4  2  0  0  0  0
  6  2  1  0  0  0  0
  6 11  1  0  0  0  0
  6 10  1  0  0  0  0
  7 12  1  0  0  0  0
  7 13  1  0  0  0  0
  8  5  1  0  0  0  0
  9  6  1  0  0  0  0
 14  7  1  0  0  0  0
M  END
