5
 OpenBabel05122313113D

 29 30  0  0  0  0  0  0  0  0999 V2000
    2.7486    0.7703   -2.0301 O   0  0  0  0  0  0  0  0  0  0  0  0
    3.4370    1.0294    0.1580 O   0  0  0  0  0  0  0  0  0  0  0  0
   -1.7095    4.3160    0.4589 O   0  0  0  0  0  0  0  0  0  0  0  0
    1.3647    1.7016   -0.4360 N   0  0  0  0  0  0  0  0  0  0  0  0
    0.2648    1.8030   -1.3642 C   0  0  0  0  0  3  0  0  0  0  0  0
    0.5616    1.4242   -2.3533 H   0  0  0  0  0  0  0  0  0  0  0  0
    2.5587    1.1196   -0.8808 C   0  0  0  0  0  0  0  0  0  0  0  0
    4.6857    0.4250    0.0841 C   0  0  0  0  0  0  0  0  0  0  0  0
    5.3599    0.0940   -1.1038 C   0  0  0  0  0  0  0  0  0  0  0  0
    4.8954    0.2972   -2.0740 H   0  0  0  0  0  0  0  0  0  0  0  0
    6.6216   -0.5168   -1.0097 C   0  0  0  0  0  0  0  0  0  0  0  0
    7.1517   -0.7816   -1.9373 H   0  0  0  0  0  0  0  0  0  0  0  0
    7.2086   -0.7894    0.2346 C   0  0  0  0  0  0  0  0  0  0  0  0
    8.1969   -1.2693    0.2892 H   0  0  0  0  0  0  0  0  0  0  0  0
    6.5248   -0.4391    1.4110 C   0  0  0  0  0  0  0  0  0  0  0  0
    6.9731   -0.6418    2.3954 H   0  0  0  0  0  0  0  0  0  0  0  0
    5.2653    0.1672    1.3390 C   0  0  0  0  0  0  0  0  0  0  0  0
    4.7061    0.4386    2.2456 H   0  0  0  0  0  0  0  0  0  0  0  0
    1.1497    2.1616    0.8500 C   0  0  0  0  0  3  0  0  0  0  0  0
    1.9125    1.9160    1.5961 H   0  0  0  0  0  0  0  0  0  0  0  0
    0.0132    2.8749    1.1304 C   0  0  0  0  0  0  0  0  0  0  0  0
   -0.2001    3.2040    2.1557 H   0  0  0  0  0  0  0  0  0  0  0  0
   -0.8507    3.3615    0.0684 C   0  0  0  0  0  0  0  0  0  0  0  0
   -2.5688    4.8908   -0.5280 C   0  0  0  0  0  0  0  0  0  0  0  0
   -1.9822    5.4731   -1.2717 H   0  0  0  0  0  0  0  0  0  0  0  0
   -3.2455    5.5725    0.0177 H   0  0  0  0  0  0  0  0  0  0  0  0
   -3.1593    4.0895   -1.0196 H   0  0  0  0  0  0  0  0  0  0  0  0
   -0.5805    2.9828   -1.2746 C   0  0  0  0  0  3  0  0  0  0  0  0
   -1.0000    3.4977   -2.1500 H   0  0  0  0  0  0  0  0  0  0  0  0
  1  7  2  0  0  0  0
  4 19  1  0  0  0  0
  5 28  1  0  0  0  0
  5  4  1  0  0  0  0
  6  5  1  0  0  0  0
  7  4  1  0  0  0  0
  7  2  1  0  0  0  0
  8  2  1  0  0  0  0
  8 17  1  0  0  0  0
  9 11  1  0  0  0  0
  9  8  2  0  0  0  0
 10  9  1  0  0  0  0
 11 13  2  0  0  0  0
 12 11  1  0  0  0  0
 13 14  1  0  0  0  0
 13 15  1  0  0  0  0
 15 16  1  0  0  0  0
 17 15  2  0  0  0  0
 17 18  1  0  0  0  0
 19 21  1  0  0  0  0
 19 20  1  0  0  0  0
 21 22  1  0  0  0  0
 23  3  1  0  0  0  0
 23 21  2  0  0  0  0
 24 26  1  0  0  0  0
 24  3  1  0  0  0  0
 25 24  1  0  0  0  0
 27 24  1  0  0  0  0
 28 23  1  0  0  0  0
 29 28  1  0  0  0  0
M  END
