7
 OpenBabel05122313113D

 32 33  0  0  0  0  0  0  0  0999 V2000
   -4.8610   -0.2081   -0.7913 N   0  3  0  0  0  0  0  0  0  0  0  0
   -5.2671    0.4344   -1.4980 H   0  0  0  0  0  0  0  0  0  0  0  0
   -0.9115   -1.7860   -2.0673 C   0  0  0  0  0  0  0  0  0  0  0  0
   -1.4759   -2.6314   -1.6578 H   0  0  0  0  0  0  0  0  0  0  0  0
    0.5050   -1.7871   -2.2749 C   0  0  0  0  0  0  0  0  0  0  0  0
    1.1844   -2.6238   -2.0809 H   0  0  0  0  0  0  0  0  0  0  0  0
    0.8683   -0.4944   -2.7872 C   0  0  0  0  0  3  0  0  0  0  0  0
    1.8784   -0.1763   -3.0714 H   0  0  0  0  0  0  0  0  0  0  0  0
   -0.3219    0.2955   -2.8764 C   0  0  0  0  0  0  0  0  0  0  0  0
   -0.3831    1.3359   -3.2179 H   0  0  0  0  0  0  0  0  0  0  0  0
   -1.4430   -0.5061   -2.4332 C   0  0  0  0  0  0  0  0  0  0  0  0
   -2.8727   -0.0496   -2.3478 C   0  0  0  0  0  0  0  0  0  0  0  0
   -3.3211   -0.0084   -3.3655 H   0  0  0  0  0  0  0  0  0  0  0  0
   -2.8551    0.9935   -1.9598 H   0  0  0  0  0  0  0  0  0  0  0  0
   -3.7094   -0.9449   -1.4306 C   0  0  0  0  0  0  0  0  0  0  0  0
   -4.1393   -1.8068   -1.9761 H   0  0  0  0  0  0  0  0  0  0  0  0
   -3.0963   -1.3276   -0.5855 H   0  0  0  0  0  0  0  0  0  0  0  0
   -5.9698   -1.1452   -0.3642 C   0  0  0  0  0  0  0  0  0  0  0  0
   -5.5107   -1.8337    0.3738 H   0  0  0  0  0  0  0  0  0  0  0  0
   -6.2589   -1.7354   -1.2556 H   0  0  0  0  0  0  0  0  0  0  0  0
   -7.1455   -0.3747    0.2264 C   0  0  0  0  0  0  0  0  0  0  0  0
   -7.6239    0.2342   -0.5735 H   0  0  0  0  0  0  0  0  0  0  0  0
   -7.9093   -1.1127    0.5443 H   0  0  0  0  0  0  0  0  0  0  0  0
   -6.7147    0.5246    1.3907 C   0  0  0  0  0  0  0  0  0  0  0  0
   -6.3840   -0.1057    2.2444 H   0  0  0  0  0  0  0  0  0  0  0  0
   -7.5757    1.1200    1.7526 H   0  0  0  0  0  0  0  0  0  0  0  0
   -5.5654    1.4411    0.9577 C   0  0  0  0  0  0  0  0  0  0  0  0
   -5.9229    2.1859    0.2111 H   0  0  0  0  0  0  0  0  0  0  0  0
   -5.1741    2.0315    1.8102 H   0  0  0  0  0  0  0  0  0  0  0  0
   -4.4039    0.6485    0.3783 C   0  0  0  0  0  0  0  0  0  0  0  0
   -3.5685    1.2876    0.0250 H   0  0  0  0  0  0  0  0  0  0  0  0
   -3.9653   -0.0623    1.1087 H   0  0  0  0  0  0  0  0  0  0  0  0
  1 18  1  0  0  0  0
  1 30  1  0  0  0  0
  2  1  1  0  0  0  0
  3  4  1  0  0  0  0
  5  6  1  0  0  0  0
  5  3  2  0  0  0  0
  7  5  1  0  0  0  0
  8  7  1  0  0  0  0
  9  7  1  0  0  0  0
  9 11  2  0  0  0  0
 10  9  1  0  0  0  0
 11 12  1  0  0  0  0
 11  3  1  0  0  0  0
 12 14  1  0  0  0  0
 12 15  1  0  0  0  0
 13 12  1  0  0  0  0
 15  1  1  0  0  0  0
 15 17  1  0  0  0  0
 16 15  1  0  0  0  0
 18 21  1  0  0  0  0
 18 19  1  0  0  0  0
 20 18  1  0  0  0  0
 21 23  1  0  0  0  0
 21 24  1  0  0  0  0
 22 21  1  0  0  0  0
 24 26  1  0  0  0  0
 24 25  1  0  0  0  0
 27 24  1  0  0  0  0
 27 29  1  0  0  0  0
 28 27  1  0  0  0  0
 30 27  1  0  0  0  0
 30 32  1  0  0  0  0
 31 30  1  0  0  0  0
M  CHG  1   1   1
M  END
