4
 OpenBabel05122313113D

 47 48  0  0  0  0  0  0  0  0999 V2000
   -2.9020   -0.0894    0.1168 S   0  0  0  0  0  0  0  0  0  0  0  0
   -0.8701   -1.8491   -1.6488 N   0  0  0  0  0  0  0  0  0  0  0  0
    0.9962   -1.8072   -0.5439 N   0  0  0  0  0  0  0  0  0  0  0  0
   -0.0833   -1.0244   -0.8899 C   0  0  0  0  0  2  0  0  0  0  0  0
   -0.3344   -3.1284   -1.7381 C   0  0  0  0  0  0  0  0  0  0  0  0
   -0.8188   -3.9347   -2.2972 H   0  0  0  0  0  0  0  0  0  0  0  0
    0.8427   -3.1022   -1.0396 C   0  0  0  0  0  0  0  0  0  0  0  0
    1.5902   -3.8798   -0.8595 H   0  0  0  0  0  0  0  0  0  0  0  0
   -2.1108   -1.3900   -2.2621 C   0  0  0  0  0  0  0  0  0  0  0  0
   -2.3931   -2.1080   -3.0576 H   0  0  0  0  0  0  0  0  0  0  0  0
   -1.9048   -0.4134   -2.7436 H   0  0  0  0  0  0  0  0  0  0  0  0
   -3.2614   -1.2515   -1.2685 C   0  0  0  0  0  0  0  0  0  0  0  0
   -3.5328   -2.2325   -0.8352 H   0  0  0  0  0  0  0  0  0  0  0  0
   -4.1515   -0.8550   -1.7949 H   0  0  0  0  0  0  0  0  0  0  0  0
   -3.1526   -1.2095    1.6354 C   0  0  0  0  0  0  0  0  0  0  0  0
    2.2333   -1.3374    0.0365 C   0  0  0  0  0  0  0  0  0  0  0  0
    2.2845   -0.9339    1.3889 C   0  0  0  0  0  0  0  0  0  0  0  0
    3.5074   -0.4515    1.8858 C   0  0  0  0  0  0  0  0  0  0  0  0
    3.5561   -0.1282    2.9376 H   0  0  0  0  0  0  0  0  0  0  0  0
    4.6622   -0.3684    1.0854 C   0  0  0  0  0  0  0  0  0  0  0  0
    4.5627   -0.7674   -0.2604 C   0  0  0  0  0  0  0  0  0  0  0  0
    5.4461   -0.6856   -0.9130 H   0  0  0  0  0  0  0  0  0  0  0  0
    3.3632   -1.2500   -0.8131 C   0  0  0  0  0  0  0  0  0  0  0  0
    1.0607   -0.9561    2.2588 C   0  0  0  0  0  0  0  0  0  0  0  0
    0.2717   -0.2979    1.8187 H   0  0  0  0  0  0  0  0  0  0  0  0
    1.2841   -0.5918    3.2785 H   0  0  0  0  0  0  0  0  0  0  0  0
    0.6294   -1.9737    2.3429 H   0  0  0  0  0  0  0  0  0  0  0  0
    5.9691    0.1161    1.6550 C   0  0  0  0  0  0  0  0  0  0  0  0
    6.5801    0.6371    0.8926 H   0  0  0  0  0  0  0  0  0  0  0  0
    6.5732   -0.7395    2.0261 H   0  0  0  0  0  0  0  0  0  0  0  0
    5.8156    0.8018    2.5105 H   0  0  0  0  0  0  0  0  0  0  0  0
    3.2917   -1.6117   -2.2756 C   0  0  0  0  0  0  0  0  0  0  0  0
    3.3080   -2.7095   -2.4364 H   0  0  0  0  0  0  0  0  0  0  0  0
    4.1534   -1.1886   -2.8244 H   0  0  0  0  0  0  0  0  0  0  0  0
    2.3626   -1.2344   -2.7489 H   0  0  0  0  0  0  0  0  0  0  0  0
   -4.6475   -1.5424    1.6960 C   0  0  0  0  0  0  0  0  0  0  0  0
   -4.9826   -2.1460    0.8291 H   0  0  0  0  0  0  0  0  0  0  0  0
   -5.2665   -0.6257    1.7452 H   0  0  0  0  0  0  0  0  0  0  0  0
   -4.8473   -2.1435    2.6073 H   0  0  0  0  0  0  0  0  0  0  0  0
   -2.7489   -0.3312    2.8242 C   0  0  0  0  0  0  0  0  0  0  0  0
   -2.9505   -0.8817    3.7653 H   0  0  0  0  0  0  0  0  0  0  0  0
   -3.3355    0.6088    2.8542 H   0  0  0  0  0  0  0  0  0  0  0  0
   -1.6711   -0.0802    2.8027 H   0  0  0  0  0  0  0  0  0  0  0  0
   -2.2928   -2.4697    1.5530 C   0  0  0  0  0  0  0  0  0  0  0  0
   -1.2228   -2.2248    1.4320 H   0  0  0  0  0  0  0  0  0  0  0  0
   -2.5954   -3.1400    0.7250 H   0  0  0  0  0  0  0  0  0  0  0  0
   -2.4108   -3.0494    2.4918 H   0  0  0  0  0  0  0  0  0  0  0  0
  1 15  1  0  0  0  0
  2  4  1  0  0  0  0
  3 16  1  0  0  0  0
  4  3  1  0  0  0  0
  5  2  1  0  0  0  0
  5  7  2  0  0  0  0
  6  5  1  0  0  0  0
  7  8  1  0  0  0  0
  7  3  1  0  0  0  0
  9  2  1  0  0  0  0
  9 12  1  0  0  0  0
 10  9  1  0  0  0  0
 11  9  1  0  0  0  0
 12 13  1  0  0  0  0
 12  1  1  0  0  0  0
 14 12  1  0  0  0  0
 15 36  1  0  0  0  0
 15 40  1  0  0  0  0
 16 17  1  0  0  0  0
 17 18  2  0  0  0  0
 17 24  1  0  0  0  0
 18 19  1  0  0  0  0
 20 28  1  0  0  0  0
 20 18  1  0  0  0  0
 21 20  2  0  0  0  0
 22 21  1  0  0  0  0
 23 21  1  0  0  0  0
 23 16  2  0  0  0  0
 24 27  1  0  0  0  0
 24 26  1  0  0  0  0
 25 24  1  0  0  0  0
 28 30  1  0  0  0  0
 28 31  1  0  0  0  0
 29 28  1  0  0  0  0
 32 23  1  0  0  0  0
 33 32  1  0  0  0  0
 34 32  1  0  0  0  0
 35 32  1  0  0  0  0
 36 38  1  0  0  0  0
 36 39  1  0  0  0  0
 37 36  1  0  0  0  0
 40 42  1  0  0  0  0
 40 41  1  0  0  0  0
 43 40  1  0  0  0  0
 44 15  1  0  0  0  0
 44 47  1  0  0  0  0
 45 44  1  0  0  0  0
 46 44  1  0  0  0  0
M  END
