3
 OpenBabel05122313113D

 14 14  0  0  0  0  0  0  0  0999 V2000
    2.9183    0.5269   -0.2502 O   0  0  0  0  0  0  0  0  0  0  0  0
    0.7364    1.7131   -1.3498 N   0  0  0  0  0  2  0  0  0  0  0  0
    0.1496    0.6563   -1.3689 C   0  0  0  0  0  1  0  0  0  0  0  0
    1.8282    2.4835   -1.0226 C   0  0  0  0  0  0  0  0  0  0  0  0
    2.9669    1.8680   -0.4200 C   0  0  0  0  0  0  0  0  0  0  0  0
    4.0623    2.6654   -0.0479 C   0  0  0  0  0  0  0  0  0  0  0  0
    4.0482    4.0501   -0.2764 C   0  0  0  0  0  0  0  0  0  0  0  0
    2.9366    4.6562   -0.8830 C   0  0  0  0  0  0  0  0  0  0  0  0
    1.8343    3.8739   -1.2514 C   0  0  0  0  0  0  0  0  0  0  0  0
    3.6780    0.2223    0.2810 H   0  0  0  0  0  0  0  0  0  0  0  0
    4.9359    2.1856    0.4229 H   0  0  0  0  0  0  0  0  0  0  0  0
    4.9170    4.6555    0.0221 H   0  0  0  0  0  0  0  0  0  0  0  0
    2.9250    5.7405   -1.0652 H   0  0  0  0  0  0  0  0  0  0  0  0
    0.9453    4.3225   -1.7170 H   0  0  0  0  0  0  0  0  0  0  0  0
  1 10  1  0  0  0  0
  2  4  1  0  0  0  0
  3  2  1  0  0  0  0
  4  5  1  0  0  0  0
  5  1  1  0  0  0  0
  5  6  2  0  0  0  0
  6 11  1  0  0  0  0
  7  6  1  0  0  0  0
  7 12  1  0  0  0  0
  8  7  2  0  0  0  0
  9  4  2  0  0  0  0
  9  8  1  0  0  0  0
 13  8  1  0  0  0  0
 14  9  1  0  0  0  0
M  END
