10
 OpenBabel05122313113D

 49 51  0  0  1  0  0  0  0  0999 V2000
   -1.9314    1.6095   -0.1136 C   0  0  0  0  0  0  0  0  0  0  0  0
   -0.5953    1.4852   -0.5814 C   0  0  0  0  0  0  0  0  0  0  0  0
    0.4164    2.1984    0.1153 C   0  0  0  0  0  0  0  0  0  0  0  0
    0.1004    3.0352    1.2040 C   0  0  0  0  0  0  0  0  0  0  0  0
    0.9143    3.5507    1.7317 H   0  0  0  0  0  0  0  0  0  0  0  0
   -1.2303    3.2030    1.5998 C   0  0  0  0  0  0  0  0  0  0  0  0
   -1.4835    3.8758    2.4325 H   0  0  0  0  0  0  0  0  0  0  0  0
   -2.2399    2.4835    0.9504 C   0  0  0  0  0  0  0  0  0  0  0  0
   -3.2843    2.5816    1.2803 H   0  0  0  0  0  0  0  0  0  0  0  0
   -3.0159    0.7666   -0.7034 C   0  0  0  0  0  2  0  0  0  0  0  0
   -3.5773    1.2763   -1.7991 N   0  0  0  0  0  0  0  0  0  0  0  0
   -4.6182    0.5985   -2.5728 C   0  0  0  0  0  0  0  0  0  0  0  0
   -4.6403   -0.4727   -2.3275 H   0  0  0  0  0  0  0  0  0  0  0  0
   -4.4049    0.7217   -3.6529 H   0  0  0  0  0  0  0  0  0  0  0  0
   -5.6109    1.0430   -2.3549 H   0  0  0  0  0  0  0  0  0  0  0  0
   -3.2133    2.5739   -2.3905 C   0  0  0  0  0  0  0  0  0  0  0  0
   -2.5822    3.1536   -1.6977 H   0  0  0  0  0  0  0  0  0  0  0  0
   -4.1365    3.1446   -2.6154 H   0  0  0  0  0  0  0  0  0  0  0  0
   -2.6610    2.4130   -3.3398 H   0  0  0  0  0  0  0  0  0  0  0  0
   -0.2761    0.5904   -1.7531 C   0  0  0  0  0  0  0  0  0  0  0  0
    0.0713    1.1862   -2.6202 H   0  0  0  0  0  0  0  0  0  0  0  0
   -1.1513   -0.0122   -2.0555 H   0  0  0  0  0  0  0  0  0  0  0  0
    0.5562   -0.1017   -1.5196 H   0  0  0  0  0  0  0  0  0  0  0  0
    1.8478    2.0194   -0.2796 C   0  0  0  0  0  0  0  0  0  0  0  0
    2.2561    1.8098   -1.4084 O   0  0  0  0  0  0  0  0  0  0  0  0
    2.6587    2.0742    0.8142 O   0  0  0  0  0  0  0  0  0  0  0  0
    4.0262    1.6454    0.6134 C   0  0  1  0  0  0  0  0  0  0  0  0
    4.3783    2.0848   -0.3430 H   0  0  0  0  0  0  0  0  0  0  0  0
    4.8199    2.1938    1.7952 C   0  0  0  0  0  0  0  0  0  0  0  0
    4.7632    3.2999    1.8230 H   0  0  0  0  0  0  0  0  0  0  0  0
    5.8819    1.8927    1.7174 H   0  0  0  0  0  0  0  0  0  0  0  0
    4.4168    1.7901    2.7444 H   0  0  0  0  0  0  0  0  0  0  0  0
    4.0839    0.1263    0.5064 C   0  0  0  0  0  0  0  0  0  0  0  0
    3.0418   -0.6512    1.0014 C   0  0  0  0  0  0  0  0  0  0  0  0
    2.1621   -0.1627    1.4438 H   0  0  0  0  0  0  0  0  0  0  0  0
    3.0757   -2.0675    0.9296 C   0  0  0  0  0  0  0  0  0  0  0  0
    2.2191   -2.6412    1.3135 H   0  0  0  0  0  0  0  0  0  0  0  0
    4.1695   -2.7103    0.3760 C   0  0  0  0  0  0  0  0  0  0  0  0
    4.2080   -3.8092    0.3182 H   0  0  0  0  0  0  0  0  0  0  0  0
    6.3995   -2.6022   -0.7169 C   0  0  0  0  0  0  0  0  0  0  0  0
    6.4150   -3.7029   -0.7511 H   0  0  0  0  0  0  0  0  0  0  0  0
    7.4584   -1.8686   -1.2282 C   0  0  0  0  0  0  0  0  0  0  0  0
    8.3256   -2.3812   -1.6713 H   0  0  0  0  0  0  0  0  0  0  0  0
    7.4205   -0.4504   -1.1856 C   0  0  0  0  0  0  0  0  0  0  0  0
    8.2568    0.1315   -1.6017 H   0  0  0  0  0  0  0  0  0  0  0  0
    6.3337    0.2078   -0.6277 C   0  0  0  0  0  0  0  0  0  0  0  0
    6.3274    1.3069   -0.6149 H   0  0  0  0  0  0  0  0  0  0  0  0
    5.2283   -0.5139   -0.0822 C   0  0  0  0  0  0  0  0  0  0  0  0
    5.2661   -1.9583   -0.1382 C   0  0  0  0  0  0  0  0  0  0  0  0
  1  8  1  0  0  0  0
  2  1  2  0  0  0  0
  2  3  1  0  0  0  0
  3  4  2  0  0  0  0
  4  6  1  0  0  0  0
  4  5  1  0  0  0  0
  6  7  1  0  0  0  0
  8  9  1  0  0  0  0
  8  6  2  0  0  0  0
 10  1  1  0  0  0  0
 11 10  1  0  0  0  0
 12 15  1  0  0  0  0
 12 13  1  0  0  0  0
 12 11  1  0  0  0  0
 14 12  1  0  0  0  0
 16 11  1  0  0  0  0
 16 17  1  0  0  0  0
 18 16  1  0  0  0  0
 19 16  1  0  0  0  0
 20 23  1  0  0  0  0
 20  2  1  0  0  0  0
 21 20  1  0  0  0  0
 22 20  1  0  0  0  0
 24  3  1  0  0  0  0
 24 26  1  0  0  0  0
 25 24  2  0  0  0  0
 27 28  1  6  0  0  0
 27 26  1  0  0  0  0
 27 29  1  0  0  0  0
 29 30  1  0  0  0  0
 29 32  1  0  0  0  0
 31 29  1  0  0  0  0
 33 27  1  0  0  0  0
 33 34  1  0  0  0  0
 34 35  1  0  0  0  0
 36 34  2  0  0  0  0
 36 37  1  0  0  0  0
 38 36  1  0  0  0  0
 39 38  1  0  0  0  0
 40 49  1  0  0  0  0
 41 40  1  0  0  0  0
 42 44  1  0  0  0  0
 42 40  2  0  0  0  0
 43 42  1  0  0  0  0
 44 46  2  0  0  0  0
 45 44  1  0  0  0  0
 46 47  1  0  0  0  0
 46 48  1  0  0  0  0
 48 33  2  0  0  0  0
 49 48  1  0  0  0  0
 49 38  2  0  0  0  0
M  END
