3
 OpenBabel05122313113D

 16 15  0  0  0  0  0  0  0  0999 V2000
   -1.8492    0.7090   -1.9281 S   0  0  0  0  0  0  0  0  0  0  0  0
   -2.6824   -1.3855   -0.3371 O   0  0  0  0  0  0  0  0  0  0  0  0
   -1.9601   -0.3087   -0.5624 C   0  0  0  0  0  3  0  0  0  0  0  0
   -3.6585   -1.9945   -1.2981 C   0  0  0  0  0  0  0  0  0  0  0  0
   -4.7622   -0.9842   -1.6050 C   0  0  0  0  0  0  0  0  0  0  0  0
   -4.1976   -3.1831   -0.5037 C   0  0  0  0  0  0  0  0  0  0  0  0
   -2.9026   -2.4588   -2.5426 C   0  0  0  0  0  0  0  0  0  0  0  0
   -4.3596   -0.0898   -2.1170 H   0  0  0  0  0  0  0  0  0  0  0  0
   -5.2628   -0.6590   -0.6716 H   0  0  0  0  0  0  0  0  0  0  0  0
   -5.5211   -1.4546   -2.2617 H   0  0  0  0  0  0  0  0  0  0  0  0
   -4.6983   -2.8427    0.4241 H   0  0  0  0  0  0  0  0  0  0  0  0
   -3.3761   -3.8728   -0.2269 H   0  0  0  0  0  0  0  0  0  0  0  0
   -4.9346   -3.7423   -1.1126 H   0  0  0  0  0  0  0  0  0  0  0  0
   -2.0824   -3.1483   -2.2609 H   0  0  0  0  0  0  0  0  0  0  0  0
   -2.4669   -1.6035   -3.0925 H   0  0  0  0  0  0  0  0  0  0  0  0
   -3.5972   -2.9973   -3.2178 H   0  0  0  0  0  0  0  0  0  0  0  0
  1  3  2  0  0  0  0
  3  2  1  0  0  0  0
  4  6  1  0  0  0  0
  4  2  1  0  0  0  0
  5  4  1  0  0  0  0
  5  9  1  0  0  0  0
  6 12  1  0  0  0  0
  6 11  1  0  0  0  0
  7 14  1  0  0  0  0
  7  4  1  0  0  0  0
  8  5  1  0  0  0  0
 10  5  1  0  0  0  0
 13  6  1  0  0  0  0
 15  7  1  0  0  0  0
 16  7  1  0  0  0  0
M  END
