9
 OpenBabel05122313113D

 27 27  0  0  1  0  0  0  0  0999 V2000
   -1.7009    2.9411   -0.5147 O   0  0  0  0  0  0  0  0  0  0  0  0
   -2.0359    3.2172   -1.3972 H   0  0  0  0  0  0  0  0  0  0  0  0
    0.1784    3.9745   -1.2690 O   0  0  0  0  0  0  0  0  0  0  0  0
    4.3935   -1.4299    0.8809 O   0  0  0  0  0  0  0  0  0  0  0  0
    3.4455   -3.3183    0.0627 O   0  0  0  0  0  0  0  0  0  0  0  0
    4.1515   -3.7144    0.6196 H   0  0  0  0  0  0  0  0  0  0  0  0
    1.3229    1.8909    0.4652 N   0  0  0  0  0  0  0  0  0  0  0  0
    2.3158    0.0916   -0.2353 N   0  0  0  0  0  0  0  0  0  0  0  0
    1.1075    0.5964    0.1194 C   0  0  0  0  0  2  0  0  0  0  0  0
    2.6650    2.2119    0.3010 C   0  0  0  0  0  0  0  0  0  0  0  0
    3.0618    3.2064    0.5140 H   0  0  0  0  0  0  0  0  0  0  0  0
    3.2943    1.0746   -0.1315 C   0  0  0  0  0  0  0  0  0  0  0  0
    4.3483    0.8686   -0.3280 H   0  0  0  0  0  0  0  0  0  0  0  0
    0.2403    2.8076    0.8604 C   0  0  2  0  0  0  0  0  0  0  0  0
   -0.4835    2.1937    1.4315 H   0  0  0  0  0  0  0  0  0  0  0  0
   -0.4141    3.3211   -0.4363 C   0  0  0  0  0  0  0  0  0  0  0  0
    0.7413    3.9677    1.7121 C   0  0  0  0  0  0  0  0  0  0  0  0
    1.2975    3.5952    2.5937 H   0  0  0  0  0  0  0  0  0  0  0  0
   -0.1272    4.5510    2.0729 H   0  0  0  0  0  0  0  0  0  0  0  0
    1.3815    4.6505    1.1200 H   0  0  0  0  0  0  0  0  0  0  0  0
    2.5272   -1.2810   -0.6957 C   0  0  2  0  0  0  0  0  0  0  0  0
    1.5580   -1.8035   -0.5666 H   0  0  0  0  0  0  0  0  0  0  0  0
    3.5596   -1.9819    0.1923 C   0  0  0  0  0  0  0  0  0  0  0  0
    2.9277   -1.3363   -2.1762 C   0  0  0  0  0  0  0  0  0  0  0  0
    2.1323   -0.8584   -2.7802 H   0  0  0  0  0  0  0  0  0  0  0  0
    3.0321   -2.3918   -2.4899 H   0  0  0  0  0  0  0  0  0  0  0  0
    3.8907   -0.8175   -2.3518 H   0  0  0  0  0  0  0  0  0  0  0  0
  1 16  1  0  0  0  0
  2  1  1  0  0  0  0
  3 16  2  0  0  0  0
  5 23  1  0  0  0  0
  5  6  1  0  0  0  0
  7 14  1  0  0  0  0
  8 12  1  0  0  0  0
  8  9  1  0  0  0  0
  9  7  1  0  0  0  0
 10  7  1  0  0  0  0
 10 11  1  0  0  0  0
 12 10  2  0  0  0  0
 13 12  1  0  0  0  0
 14 15  1  1  0  0  0
 14 17  1  0  0  0  0
 16 14  1  0  0  0  0
 17 19  1  0  0  0  0
 17 18  1  0  0  0  0
 20 17  1  0  0  0  0
 21 22  1  1  0  0  0
 21  8  1  0  0  0  0
 21 23  1  0  0  0  0
 23  4  2  0  0  0  0
 24 21  1  0  0  0  0
 25 24  1  0  0  0  0
 26 24  1  0  0  0  0
 27 24  1  0  0  0  0
M  END
