9
 OpenBabel05122313113D

 51 52  0  0  1  0  0  0  0  0999 V2000
   -2.0090    1.0432    1.9520 Si  0  0  0  0  0  0  0  0  0  0  0  0
   -0.6712    2.2936   -1.5519 Si  0  0  0  0  0  0  0  0  0  0  0  0
    3.9819    0.3154    0.1950 O   0  0  0  0  0  0  0  0  0  0  0  0
    3.4336   -0.3580    2.3182 O   0  0  0  0  0  0  0  0  0  0  0  0
    1.8209    0.2874    0.8105 N   0  0  0  0  0  0  0  0  0  0  0  0
    0.6913   -0.1593    1.6054 C   0  0  2  0  0  0  0  0  0  0  0  0
    0.4461   -1.6530    1.4732 C   0  0  0  0  0  3  0  0  0  0  0  0
    0.9490   -2.4682    0.4536 C   0  0  0  0  0  3  0  0  0  0  0  0
    1.3238   -2.0480   -0.8798 C   0  0  0  0  0  3  0  0  0  0  0  0
    1.2987   -0.7449   -1.3880 C   0  0  0  0  0  3  0  0  0  0  0  0
    1.3767    0.5175   -0.5519 C   0  0  1  0  0  0  0  0  0  0  0  0
   -0.0994    0.9093   -0.3675 C   0  0  1  0  0  3  0  0  0  0  0  0
   -0.5123    0.4965    0.9025 C   0  0  2  0  0  3  0  0  0  0  0  0
    3.1130    0.0355    1.2074 C   0  0  0  0  0  0  0  0  0  0  0  0
    5.3742    0.1342    0.5138 C   0  0  0  0  0  0  0  0  0  0  0  0
    6.1703    0.3424   -0.7581 C   0  0  0  0  0  0  0  0  0  0  0  0
   -3.6909    0.9170    1.0908 C   0  0  0  0  0  0  0  0  0  0  0  0
   -1.6510    2.8454    2.4289 C   0  0  0  0  0  0  0  0  0  0  0  0
   -2.0261    0.0062    3.5349 C   0  0  0  0  0  0  0  0  0  0  0  0
   -0.0510    1.9149   -3.2987 C   0  0  0  0  0  0  0  0  0  0  0  0
   -2.5114    2.6912   -1.6112 C   0  0  0  0  0  0  0  0  0  0  0  0
    0.2705    3.8113   -0.9065 C   0  0  0  0  0  0  0  0  0  0  0  0
    0.8319    0.1221    2.6684 H   0  0  0  0  0  0  0  0  0  0  0  0
   -0.0027   -2.1589    2.3417 H   0  0  0  0  0  0  0  0  0  0  0  0
    0.8984   -3.5563    0.6118 H   0  0  0  0  0  0  0  0  0  0  0  0
    1.5236   -2.8608   -1.5947 H   0  0  0  0  0  0  0  0  0  0  0  0
    1.4039   -0.6269   -2.4767 H   0  0  0  0  0  0  0  0  0  0  0  0
    2.0089    1.2830   -1.0454 H   0  0  0  0  0  0  0  0  0  0  0  0
    5.5190   -0.8814    0.9387 H   0  0  0  0  0  0  0  0  0  0  0  0
    5.6626    0.8562    1.3080 H   0  0  0  0  0  0  0  0  0  0  0  0
    7.2516    0.2116   -0.5555 H   0  0  0  0  0  0  0  0  0  0  0  0
    5.8720   -0.3884   -1.5360 H   0  0  0  0  0  0  0  0  0  0  0  0
    6.0155    1.3621   -1.1639 H   0  0  0  0  0  0  0  0  0  0  0  0
   -4.2737    0.0820    1.5250 H   0  0  0  0  0  0  0  0  0  0  0  0
   -4.2698    1.8533    1.2226 H   0  0  0  0  0  0  0  0  0  0  0  0
   -3.5936    0.7204    0.0074 H   0  0  0  0  0  0  0  0  0  0  0  0
   -2.3849    3.1945    3.1847 H   0  0  0  0  0  0  0  0  0  0  0  0
   -0.6356    2.9559    2.8611 H   0  0  0  0  0  0  0  0  0  0  0  0
   -1.7232    3.5193    1.5517 H   0  0  0  0  0  0  0  0  0  0  0  0
   -2.8286    0.3818    4.2033 H   0  0  0  0  0  0  0  0  0  0  0  0
   -2.2449   -1.0581    3.3201 H   0  0  0  0  0  0  0  0  0  0  0  0
   -1.0714    0.0696    4.0953 H   0  0  0  0  0  0  0  0  0  0  0  0
   -0.2628    2.7858   -3.9533 H   0  0  0  0  0  0  0  0  0  0  0  0
    1.0441    1.7432   -3.3245 H   0  0  0  0  0  0  0  0  0  0  0  0
   -0.5599    1.0332   -3.7334 H   0  0  0  0  0  0  0  0  0  0  0  0
   -2.6442    3.5423   -2.3118 H   0  0  0  0  0  0  0  0  0  0  0  0
   -3.1080    1.8420   -1.9951 H   0  0  0  0  0  0  0  0  0  0  0  0
   -2.9171    2.9997   -0.6292 H   0  0  0  0  0  0  0  0  0  0  0  0
    0.0849    4.6806   -1.5713 H   0  0  0  0  0  0  0  0  0  0  0  0
   -0.0525    4.0858    0.1172 H   0  0  0  0  0  0  0  0  0  0  0  0
    1.3651    3.6359   -0.8796 H   0  0  0  0  0  0  0  0  0  0  0  0
  1 18  1  0  0  0  0
  1 19  1  0  0  0  0
  2 22  1  0  0  0  0
  3 15  1  0  0  0  0
  3 14  1  0  0  0  0
  5 14  1  0  0  0  0
  5  6  1  0  0  0  0
  6 23  1  1  0  0  0
  7  6  1  0  0  0  0
  7 24  1  0  0  0  0
  8 25  1  0  0  0  0
  8  7  1  0  0  0  0
  9  8  1  0  0  0  0
 10  9  1  0  0  0  0
 10 11  1  0  0  0  0
 11 28  1  6  0  0  0
 11 12  1  0  0  0  0
 11  5  1  0  0  0  0
 12  2  1  1  0  0  0
 12 13  1  0  0  0  0
 13  6  1  0  0  0  0
 13  1  1  1  0  0  0
 14  4  2  0  0  0  0
 15 29  1  0  0  0  0
 15 30  1  0  0  0  0
 16 31  1  0  0  0  0
 16 15  1  0  0  0  0
 17 35  1  0  0  0  0
 17 34  1  0  0  0  0
 17  1  1  0  0  0  0
 18 38  1  0  0  0  0
 18 37  1  0  0  0  0
 19 42  1  0  0  0  0
 19 40  1  0  0  0  0
 20  2  1  0  0  0  0
 21  2  1  0  0  0  0
 21 48  1  0  0  0  0
 22 51  1  0  0  0  0
 22 50  1  0  0  0  0
 26  9  1  0  0  0  0
 27 10  1  0  0  0  0
 32 16  1  0  0  0  0
 33 16  1  0  0  0  0
 36 17  1  0  0  0  0
 39 18  1  0  0  0  0
 41 19  1  0  0  0  0
 43 20  1  0  0  0  0
 44 20  1  0  0  0  0
 45 20  1  0  0  0  0
 46 21  1  0  0  0  0
 47 21  1  0  0  0  0
 49 22  1  0  0  0  0
M  END
