1
 OpenBabel05122313113D

 22 22  0  0  0  0  0  0  0  0999 V2000
    0.5779    0.6973   -0.3336 C   0  0  0  0  0  2  0  0  0  0  0  0
    0.8607    2.0028   -0.4447 N   0  0  0  0  0  0  0  0  0  0  0  0
   -0.1229    3.0645   -0.2379 C   0  0  0  0  0  0  0  0  0  0  0  0
    2.1678    2.5250   -0.8703 C   0  0  0  0  0  0  0  0  0  0  0  0
    1.7736   -0.1724   -0.4185 C   0  0  0  0  0  0  0  0  0  0  0  0
    2.6953   -0.2144    0.6244 N   0  0  0  0  0  0  0  0  0  0  0  0
    3.6865   -1.1253    0.3164 C   0  0  0  0  0  0  0  0  0  0  0  0
    3.4215   -1.6548   -0.9408 C   0  0  0  0  0  0  0  0  0  0  0  0
    2.2061   -1.0704   -1.4007 C   0  0  0  0  0  0  0  0  0  0  0  0
    2.5615    0.4814    1.8901 C   0  0  0  0  0  0  0  0  0  0  0  0
    0.3774    3.9338    0.2322 H   0  0  0  0  0  0  0  0  0  0  0  0
   -0.5591    3.3884   -1.2053 H   0  0  0  0  0  0  0  0  0  0  0  0
   -0.9312    2.7131    0.4201 H   0  0  0  0  0  0  0  0  0  0  0  0
    2.0107    3.2741   -1.6727 H   0  0  0  0  0  0  0  0  0  0  0  0
    2.7971    1.7034   -1.2539 H   0  0  0  0  0  0  0  0  0  0  0  0
    2.6851    3.0298   -0.0273 H   0  0  0  0  0  0  0  0  0  0  0  0
    4.4820   -1.3445    1.0372 H   0  0  0  0  0  0  0  0  0  0  0  0
    4.0301   -2.3988   -1.4664 H   0  0  0  0  0  0  0  0  0  0  0  0
    1.6965   -1.2642   -2.3496 H   0  0  0  0  0  0  0  0  0  0  0  0
    3.2554    0.0328    2.6239 H   0  0  0  0  0  0  0  0  0  0  0  0
    2.8008    1.5621    1.8004 H   0  0  0  0  0  0  0  0  0  0  0  0
    1.5294    0.3843    2.2810 H   0  0  0  0  0  0  0  0  0  0  0  0
  2  1  1  0  0  0  0
  2  3  1  0  0  0  0
  3 11  1  0  0  0  0
  3 13  1  0  0  0  0
  4  2  1  0  0  0  0
  4 16  1  0  0  0  0
  5  1  1  0  0  0  0
  5  6  1  0  0  0  0
  6 10  1  0  0  0  0
  7  6  1  0  0  0  0
  7 17  1  0  0  0  0
  8  7  2  0  0  0  0
  9  8  1  0  0  0  0
  9  5  2  0  0  0  0
 10 22  1  0  0  0  0
 10 20  1  0  0  0  0
 12  3  1  0  0  0  0
 14  4  1  0  0  0  0
 15  4  1  0  0  0  0
 18  8  1  0  0  0  0
 19  9  1  0  0  0  0
 21 10  1  0  0  0  0
M  END
