6
 OpenBabel05122313113D

 28 30  0  0  1  0  0  0  0  0999 V2000
   -0.3778   -0.6939   -0.8099 C   0  0  0  0  0  0  0  0  0  0  0  0
    0.8015   -1.5351   -1.0602 C   0  0  0  0  0  3  0  0  0  0  0  0
    0.7365   -2.6124   -0.8442 H   0  0  0  0  0  0  0  0  0  0  0  0
    1.9056   -1.0692   -1.8087 C   0  0  0  0  0  3  0  0  0  0  0  0
    2.6745   -1.7774   -2.1521 H   0  0  0  0  0  0  0  0  0  0  0  0
    2.0852    0.3316   -2.0207 C   0  0  0  0  0  3  0  0  0  0  0  0
    2.9355    0.7240   -2.5926 H   0  0  0  0  0  0  0  0  0  0  0  0
    1.3236    2.2915   -1.4136 H   0  0  0  0  0  0  0  0  0  0  0  0
    1.1446    1.2048   -1.3919 C   0  0  0  0  0  3  0  0  0  0  0  0
    0.0524    0.7098   -0.6309 C   0  0  1  0  0  3  0  0  0  0  0  0
   -0.8452    1.6713    0.0958 C   0  0  0  0  0  0  0  0  0  0  0  0
   -0.9975    1.3350    1.1419 H   0  0  0  0  0  0  0  0  0  0  0  0
   -0.3522    2.6632    0.1435 H   0  0  0  0  0  0  0  0  0  0  0  0
   -4.7441    2.2136    0.1939 H   0  0  0  0  0  0  0  0  0  0  0  0
   -2.2225    1.7921   -0.5980 C   0  0  0  0  0  0  0  0  0  0  0  0
   -2.6558    2.7872   -0.3729 H   0  0  0  0  0  0  0  0  0  0  0  0
   -2.0677    1.7688   -1.7004 H   0  0  0  0  0  0  0  0  0  0  0  0
   -3.2206    0.7336   -0.1977 C   0  0  0  0  0  0  0  0  0  0  0  0
   -4.5133    1.1360    0.1846 C   0  0  0  0  0  0  0  0  0  0  0  0
   -5.5090    0.2156    0.5413 C   0  0  0  0  0  0  0  0  0  0  0  0
   -6.5105    0.5677    0.8304 H   0  0  0  0  0  0  0  0  0  0  0  0
   -5.2089   -1.1550    0.5214 C   0  0  0  0  0  0  0  0  0  0  0  0
   -5.9733   -1.8982    0.7944 H   0  0  0  0  0  0  0  0  0  0  0  0
   -3.9277   -1.5743    0.1561 C   0  0  0  0  0  0  0  0  0  0  0  0
   -3.6916   -2.6501    0.1468 H   0  0  0  0  0  0  0  0  0  0  0  0
   -2.8997   -0.6596   -0.2016 C   0  0  0  0  0  0  0  0  0  0  0  0
   -1.6110   -1.2423   -0.5626 C   0  0  0  0  0  0  0  0  0  0  0  0
   -1.6361   -2.3436   -0.6301 H   0  0  0  0  0  0  0  0  0  0  0  0
  1 10  1  0  0  0  0
  1 27  2  0  0  0  0
  2  3  1  0  0  0  0
  2  1  1  0  0  0  0
  4  2  1  0  0  0  0
  5  4  1  0  0  0  0
  6  4  1  0  0  0  0
  6  9  1  0  0  0  0
  7  6  1  0  0  0  0
  8  9  1  0  0  0  0
 10  9  1  6  0  0  0
 10 11  1  0  0  0  0
 11 13  1  0  0  0  0
 11 12  1  0  0  0  0
 15 16  1  0  0  0  0
 15 18  1  0  0  0  0
 15 11  1  0  0  0  0
 17 15  1  0  0  0  0
 18 19  1  0  0  0  0
 19 14  1  0  0  0  0
 19 20  2  0  0  0  0
 20 21  1  0  0  0  0
 22 20  1  0  0  0  0
 22 23  1  0  0  0  0
 24 22  2  0  0  0  0
 25 24  1  0  0  0  0
 26 18  2  0  0  0  0
 26 24  1  0  0  0  0
 27 26  1  0  0  0  0
 28 27  1  0  0  0  0
M  END
