1
 OpenBabel05122313113D

 38 39  0  0  0  0  0  0  0  0999 V2000
   -0.3830   -2.0382    0.1141 C   0  0  0  0  0  2  0  0  0  0  0  0
   -1.2655   -3.8832    1.0827 C   0  0  0  0  0  0  0  0  0  0  0  0
   -1.9916   -4.6875    1.2320 H   0  0  0  0  0  0  0  0  0  0  0  0
   -0.1038   -3.5836    1.7470 C   0  0  0  0  0  0  0  0  0  0  0  0
    0.3884   -4.0725    2.5923 H   0  0  0  0  0  0  0  0  0  0  0  0
    1.7539   -1.9064    1.3763 C   0  0  0  0  0  0  0  0  0  0  0  0
    1.9583   -1.9097    2.4644 H   0  0  0  0  0  0  0  0  0  0  0  0
    1.7412   -0.8543    1.0310 H   0  0  0  0  0  0  0  0  0  0  0  0
    2.8095   -2.7043    0.6018 C   0  0  0  0  0  0  0  0  0  0  0  0
    2.5325   -2.7619   -0.4722 H   0  0  0  0  0  0  0  0  0  0  0  0
    2.8676   -3.7460    0.9787 H   0  0  0  0  0  0  0  0  0  0  0  0
    4.5091   -0.5891   -0.2138 C   0  0  0  0  0  0  0  0  0  0  0  0
    3.6615   -0.3921   -1.3226 C   0  0  0  0  0  0  0  0  0  0  0  0
    2.8816   -1.1170   -1.6009 H   0  0  0  0  0  0  0  0  0  0  0  0
    3.7998    0.7629   -2.1096 C   0  0  0  0  0  0  0  0  0  0  0  0
    3.0936    0.9150   -2.9393 H   0  0  0  0  0  0  0  0  0  0  0  0
    4.7914    1.7127   -1.8203 C   0  0  0  0  0  0  0  0  0  0  0  0
    4.8945    2.6126   -2.4449 H   0  0  0  0  0  0  0  0  0  0  0  0
    5.6411    1.5108   -0.7189 C   0  0  0  0  0  0  0  0  0  0  0  0
    6.4203    2.2502   -0.4760 H   0  0  0  0  0  0  0  0  0  0  0  0
    5.4947    0.3766    0.0911 C   0  0  0  0  0  0  0  0  0  0  0  0
    6.1468    0.2314    0.9664 H   0  0  0  0  0  0  0  0  0  0  0  0
   -2.4688   -2.9155   -0.9341 C   0  0  0  0  0  0  0  0  0  0  0  0
   -2.8663   -3.9478   -1.0076 H   0  0  0  0  0  0  0  0  0  0  0  0
   -1.9687   -2.6799   -1.8967 H   0  0  0  0  0  0  0  0  0  0  0  0
   -3.5866   -1.9185   -0.6350 C   0  0  0  0  0  0  0  0  0  0  0  0
   -3.1381   -0.9086   -0.5206 H   0  0  0  0  0  0  0  0  0  0  0  0
   -4.0644   -2.1734    0.3377 H   0  0  0  0  0  0  0  0  0  0  0  0
   -5.7972   -0.9218   -1.4160 C   0  0  0  0  0  0  0  0  0  0  0  0
   -6.3309   -1.2346   -0.4940 H   0  0  0  0  0  0  0  0  0  0  0  0
   -6.5404   -0.8886   -2.2375 H   0  0  0  0  0  0  0  0  0  0  0  0
   -5.4288    0.1110   -1.2516 H   0  0  0  0  0  0  0  0  0  0  0  0
   -4.6448   -1.8725   -1.7398 C   0  0  0  0  0  0  0  0  0  0  0  0
   -5.0388   -2.8977   -1.9207 H   0  0  0  0  0  0  0  0  0  0  0  0
   -4.1545   -1.5640   -2.6890 H   0  0  0  0  0  0  0  0  0  0  0  0
    4.4881   -2.0403    0.8245 S   0  0  0  0  0  0  0  0  0  0  0  0
   -1.4128   -2.9315    0.0814 N   0  0  0  0  0  0  0  0  0  0  0  0
    0.4190   -2.4493    1.1384 N   0  0  0  0  0  0  0  0  0  0  0  0
  1 38  1  0  0  0  0
  2  3  1  0  0  0  0
  2  4  2  0  0  0  0
  4  5  1  0  0  0  0
  6  7  1  0  0  0  0
  8  6  1  0  0  0  0
  9 36  1  0  0  0  0
  9 11  1  0  0  0  0
  9  6  1  0  0  0  0
 10  9  1  0  0  0  0
 12 21  1  0  0  0  0
 12 36  1  0  0  0  0
 13 12  2  0  0  0  0
 14 13  1  0  0  0  0
 15 17  2  0  0  0  0
 15 13  1  0  0  0  0
 16 15  1  0  0  0  0
 17 19  1  0  0  0  0
 18 17  1  0  0  0  0
 19 20  1  0  0  0  0
 19 21  2  0  0  0  0
 21 22  1  0  0  0  0
 23 26  1  0  0  0  0
 23 37  1  0  0  0  0
 24 23  1  0  0  0  0
 25 23  1  0  0  0  0
 26 27  1  0  0  0  0
 26 28  1  0  0  0  0
 29 32  1  0  0  0  0
 29 30  1  0  0  0  0
 31 29  1  0  0  0  0
 33 29  1  0  0  0  0
 33 26  1  0  0  0  0
 34 33  1  0  0  0  0
 35 33  1  0  0  0  0
 37  1  1  0  0  0  0
 37  2  1  0  0  0  0
 38  6  1  0  0  0  0
 38  4  1  0  0  0  0
M  END
