3
 OpenBabel05122313113D

 47 49  0  0  1  0  0  0  0  0999 V2000
    1.6913    0.1801    0.4257 P   0  0  0  0  0  0  0  0  0  0  0  0
   -0.0167    0.8122    2.1661 C   0  0  1  0  0  3  0  0  0  0  0  0
   -0.5061    2.0141    1.5078 C   0  0  1  0  0  3  0  0  0  0  0  0
   -1.9223    1.7990    1.2980 C   0  0  1  0  0  3  0  0  0  0  0  0
   -2.2934    0.5282    1.9299 C   0  0  0  0  0  0  0  0  0  0  0  0
   -1.1217   -0.0649    2.4878 C   0  0  0  0  0  0  0  0  0  0  0  0
    0.2251    3.3078    1.3063 C   0  0  0  0  0  0  0  0  0  0  0  0
    0.0285    3.9935    2.1582 H   0  0  0  0  0  0  0  0  0  0  0  0
   -0.1025    3.8142    0.3789 H   0  0  0  0  0  0  0  0  0  0  0  0
    1.3183    3.1645    1.2302 H   0  0  0  0  0  0  0  0  0  0  0  0
   -2.9000    2.8110    0.7865 C   0  0  0  0  0  0  0  0  0  0  0  0
   -3.3964    3.3362    1.6309 H   0  0  0  0  0  0  0  0  0  0  0  0
   -3.6801    2.3259    0.1675 H   0  0  0  0  0  0  0  0  0  0  0  0
   -2.4004    3.5699    0.1558 H   0  0  0  0  0  0  0  0  0  0  0  0
   -3.6918    0.0263    2.0485 C   0  0  0  0  0  0  0  0  0  0  0  0
   -4.2971    0.7184    2.6709 H   0  0  0  0  0  0  0  0  0  0  0  0
   -3.7311   -0.9825    2.4983 H   0  0  0  0  0  0  0  0  0  0  0  0
   -4.1680   -0.0312    1.0453 H   0  0  0  0  0  0  0  0  0  0  0  0
   -1.0111   -1.3501    3.2409 C   0  0  0  0  0  0  0  0  0  0  0  0
   -2.0089   -1.7373    3.5177 H   0  0  0  0  0  0  0  0  0  0  0  0
   -0.4243   -1.2116    4.1720 H   0  0  0  0  0  0  0  0  0  0  0  0
   -0.5189   -2.1346    2.6233 H   0  0  0  0  0  0  0  0  0  0  0  0
    1.4539    0.4507    2.2531 C   0  0  0  0  0  0  0  0  0  0  0  0
    1.5947   -0.5060    2.7888 H   0  0  0  0  0  0  0  0  0  0  0  0
    2.0918    1.2255    2.7200 H   0  0  0  0  0  0  0  0  0  0  0  0
    2.7772   -1.2763    0.1759 C   0  0  0  0  0  0  0  0  0  0  0  0
    3.5686   -1.7949    1.2155 C   0  0  0  0  0  0  0  0  0  0  0  0
    3.4944   -1.3901    2.2359 H   0  0  0  0  0  0  0  0  0  0  0  0
    4.4676   -2.8425    0.9554 C   0  0  0  0  0  0  0  0  0  0  0  0
    5.0800   -3.2499    1.7740 H   0  0  0  0  0  0  0  0  0  0  0  0
    4.5845   -3.3640   -0.3408 C   0  0  0  0  0  0  0  0  0  0  0  0
    5.2880   -4.1858   -0.5422 H   0  0  0  0  0  0  0  0  0  0  0  0
    3.7998   -2.8388   -1.3820 C   0  0  0  0  0  0  0  0  0  0  0  0
    3.8817   -3.2512   -2.3987 H   0  0  0  0  0  0  0  0  0  0  0  0
    2.8944   -1.8022   -1.1275 C   0  0  0  0  0  0  0  0  0  0  0  0
    2.2593   -1.4111   -1.9365 H   0  0  0  0  0  0  0  0  0  0  0  0
    2.8168    1.5055   -0.1908 C   0  0  0  0  0  0  0  0  0  0  0  0
    3.7485    2.1348    0.6598 C   0  0  0  0  0  0  0  0  0  0  0  0
    3.7883    1.8834    1.7304 H   0  0  0  0  0  0  0  0  0  0  0  0
    4.6462    3.0828    0.1475 C   0  0  0  0  0  0  0  0  0  0  0  0
    5.3660    3.5716    0.8214 H   0  0  0  0  0  0  0  0  0  0  0  0
    4.6295    3.4015   -1.2197 C   0  0  0  0  0  0  0  0  0  0  0  0
    5.3322    4.1477   -1.6203 H   0  0  0  0  0  0  0  0  0  0  0  0
    3.7177    2.7625   -2.0735 C   0  0  0  0  0  0  0  0  0  0  0  0
    3.7006    3.0038   -3.1467 H   0  0  0  0  0  0  0  0  0  0  0  0
    2.8148    1.8171   -1.5651 C   0  0  0  0  0  0  0  0  0  0  0  0
    2.1027    1.3290   -2.2440 H   0  0  0  0  0  0  0  0  0  0  0  0
  1 23  1  0  0  0  0
  2 23  1  6  0  0  0
  2  6  1  0  0  0  0
  3  7  1  1  0  0  0
  3  2  1  0  0  0  0
  4 11  1  1  0  0  0
  4  3  1  0  0  0  0
  4  5  1  0  0  0  0
  5 15  1  0  0  0  0
  5  6  2  0  0  0  0
  6 19  1  0  0  0  0
  7  8  1  0  0  0  0
  9  7  1  0  0  0  0
 10  7  1  0  0  0  0
 11 12  1  0  0  0  0
 13 11  1  0  0  0  0
 14 11  1  0  0  0  0
 15 17  1  0  0  0  0
 15 16  1  0  0  0  0
 18 15  1  0  0  0  0
 19 20  1  0  0  0  0
 19 21  1  0  0  0  0
 22 19  1  0  0  0  0
 23 25  1  0  0  0  0
 23 24  1  0  0  0  0
 26  1  1  0  0  0  0
 26 27  1  0  0  0  0
 27 28  1  0  0  0  0
 29 27  2  0  0  0  0
 29 30  1  0  0  0  0
 31 29  1  0  0  0  0
 32 31  1  0  0  0  0
 33 35  1  0  0  0  0
 33 31  2  0  0  0  0
 34 33  1  0  0  0  0
 35 26  2  0  0  0  0
 36 35  1  0  0  0  0
 37  1  1  0  0  0  0
 37 38  1  0  0  0  0
 38 39  1  0  0  0  0
 40 38  2  0  0  0  0
 40 41  1  0  0  0  0
 42 40  1  0  0  0  0
 43 42  1  0  0  0  0
 44 46  1  0  0  0  0
 44 42  2  0  0  0  0
 45 44  1  0  0  0  0
 46 37  2  0  0  0  0
 47 46  1  0  0  0  0
M  END
