3
 OpenBabel05122313113D

 55 57  0  0  0  0  0  0  0  0999 V2000
    1.0886   -1.6816   -0.1646 N   0  0  0  0  0  0  0  0  0  0  0  0
   -1.0881   -1.6817    0.1649 N   0  0  0  0  0  0  0  0  0  0  0  0
    0.0002   -0.8965    0.0000 C   0  0  0  0  0  2  0  0  0  0  0  0
    0.7676   -3.1123    0.0155 C   0  0  0  0  0  0  0  0  0  0  0  0
    1.1710   -3.4724    0.9850 H   0  0  0  0  0  0  0  0  0  0  0  0
    1.2231   -3.7163   -0.7927 H   0  0  0  0  0  0  0  0  0  0  0  0
   -0.7668   -3.1124   -0.0148 C   0  0  0  0  0  0  0  0  0  0  0  0
   -1.1702   -3.4728   -0.9842 H   0  0  0  0  0  0  0  0  0  0  0  0
   -1.2222   -3.7163    0.7935 H   0  0  0  0  0  0  0  0  0  0  0  0
    2.4346   -1.2359   -0.3886 C   0  0  0  0  0  0  0  0  0  0  0  0
    3.3640   -1.2873    0.6790 C   0  0  0  0  0  0  0  0  0  0  0  0
    3.0012   -1.7715    2.0665 C   0  0  0  0  0  0  0  0  0  0  0  0
    1.9026   -1.7539    2.1995 H   0  0  0  0  0  0  0  0  0  0  0  0
    3.3794   -1.0256    2.7954 H   0  0  0  0  0  0  0  0  0  0  0  0
    3.5824   -3.1533    2.4011 C   0  0  0  0  0  0  0  0  0  0  0  0
    3.2208   -3.9348    1.7008 H   0  0  0  0  0  0  0  0  0  0  0  0
    3.3054   -3.4637    3.4291 H   0  0  0  0  0  0  0  0  0  0  0  0
    4.6895   -3.1523    2.3355 H   0  0  0  0  0  0  0  0  0  0  0  0
    4.6858   -0.8724    0.4266 C   0  0  0  0  0  0  0  0  0  0  0  0
    5.4148   -0.8924    1.2522 H   0  0  0  0  0  0  0  0  0  0  0  0
    5.0721   -0.4159   -0.8374 C   0  0  0  0  0  0  0  0  0  0  0  0
    6.1069   -0.0845   -1.0130 H   0  0  0  0  0  0  0  0  0  0  0  0
    4.1360   -0.3752   -1.8786 C   0  0  0  0  0  0  0  0  0  0  0  0
    4.4355   -0.0145   -2.8750 H   0  0  0  0  0  0  0  0  0  0  0  0
    2.8034   -0.7859   -1.6843 C   0  0  0  0  0  0  0  0  0  0  0  0
    1.8343   -0.7425   -2.8454 C   0  0  0  0  0  0  0  0  0  0  0  0
    0.9165   -0.1847   -2.5628 H   0  0  0  0  0  0  0  0  0  0  0  0
    2.3067   -0.1478   -3.6539 H   0  0  0  0  0  0  0  0  0  0  0  0
    1.4368   -2.1132   -3.4110 C   0  0  0  0  0  0  0  0  0  0  0  0
    2.3234   -2.7132   -3.7023 H   0  0  0  0  0  0  0  0  0  0  0  0
    0.7973   -1.9884   -4.3081 H   0  0  0  0  0  0  0  0  0  0  0  0
    0.8527   -2.7087   -2.6815 H   0  0  0  0  0  0  0  0  0  0  0  0
   -2.4341   -1.2361    0.3886 C   0  0  0  0  0  0  0  0  0  0  0  0
   -2.8033   -0.7858    1.6841 C   0  0  0  0  0  0  0  0  0  0  0  0
   -1.8344   -0.7422    2.8453 C   0  0  0  0  0  0  0  0  0  0  0  0
   -2.3060   -0.1456    3.6529 H   0  0  0  0  0  0  0  0  0  0  0  0
   -0.9156   -0.1862    2.5624 H   0  0  0  0  0  0  0  0  0  0  0  0
   -1.4395   -2.1129    3.4128 C   0  0  0  0  0  0  0  0  0  0  0  0
   -2.3274   -2.7107    3.7050 H   0  0  0  0  0  0  0  0  0  0  0  0
   -0.7997   -1.9883    4.3096 H   0  0  0  0  0  0  0  0  0  0  0  0
   -0.8569   -2.7107    2.6839 H   0  0  0  0  0  0  0  0  0  0  0  0
   -4.1359   -0.3753    1.8781 C   0  0  0  0  0  0  0  0  0  0  0  0
   -4.4357   -0.0144    2.8743 H   0  0  0  0  0  0  0  0  0  0  0  0
   -5.0718   -0.4165    0.8367 C   0  0  0  0  0  0  0  0  0  0  0  0
   -6.1068   -0.0852    1.0121 H   0  0  0  0  0  0  0  0  0  0  0  0
   -4.6853   -0.8732   -0.4271 C   0  0  0  0  0  0  0  0  0  0  0  0
   -5.4142   -0.8935   -1.2529 H   0  0  0  0  0  0  0  0  0  0  0  0
   -3.3634   -1.2879   -0.6792 C   0  0  0  0  0  0  0  0  0  0  0  0
   -3.0002   -1.7724   -2.0665 C   0  0  0  0  0  0  0  0  0  0  0  0
   -3.3784   -1.0268   -2.7957 H   0  0  0  0  0  0  0  0  0  0  0  0
   -1.9016   -1.7547   -2.1993 H   0  0  0  0  0  0  0  0  0  0  0  0
   -3.5811   -3.1545   -2.4008 C   0  0  0  0  0  0  0  0  0  0  0  0
   -3.2196   -3.9357   -1.7002 H   0  0  0  0  0  0  0  0  0  0  0  0
   -3.3038   -3.4651   -3.4286 H   0  0  0  0  0  0  0  0  0  0  0  0
   -4.6883   -3.1537   -2.3355 H   0  0  0  0  0  0  0  0  0  0  0  0
  1  3  1  0  0  0  0
  1  4  1  0  0  0  0
  2 33  1  0  0  0  0
  3  2  1  0  0  0  0
  4  5  1  0  0  0  0
  6  4  1  0  0  0  0
  7  4  1  0  0  0  0
  7  2  1  0  0  0  0
  7  9  1  0  0  0  0
  8  7  1  0  0  0  0
 10  1  1  0  0  0  0
 10 11  1  0  0  0  0
 11 12  1  0  0  0  0
 12 13  1  0  0  0  0
 12 15  1  0  0  0  0
 12 14  1  0  0  0  0
 15 17  1  0  0  0  0
 16 15  1  0  0  0  0
 18 15  1  0  0  0  0
 19 11  2  0  0  0  0
 19 20  1  0  0  0  0
 21 19  1  0  0  0  0
 22 21  1  0  0  0  0
 23 25  1  0  0  0  0
 23 21  2  0  0  0  0
 24 23  1  0  0  0  0
 25 10  2  0  0  0  0
 26 27  1  0  0  0  0
 26 25  1  0  0  0  0
 28 26  1  0  0  0  0
 29 26  1  0  0  0  0
 29 32  1  0  0  0  0
 30 29  1  0  0  0  0
 31 29  1  0  0  0  0
 33 34  1  0  0  0  0
 34 42  2  0  0  0  0
 34 35  1  0  0  0  0
 35 38  1  0  0  0  0
 35 36  1  0  0  0  0
 37 35  1  0  0  0  0
 38 39  1  0  0  0  0
 38 40  1  0  0  0  0
 41 38  1  0  0  0  0
 42 43  1  0  0  0  0
 44 45  1  0  0  0  0
 44 42  1  0  0  0  0
 46 44  2  0  0  0  0
 47 46  1  0  0  0  0
 48 46  1  0  0  0  0
 48 33  2  0  0  0  0
 49 48  1  0  0  0  0
 50 49  1  0  0  0  0
 51 49  1  0  0  0  0
 52 55  1  0  0  0  0
 52 49  1  0  0  0  0
 52 53  1  0  0  0  0
 54 52  1  0  0  0  0
M  END
