2
 OpenBabel05122313113D

 23 24  0  0  1  0  0  0  0  0999 V2000
   -0.9593    0.5392   -1.2123 N   0  0  0  0  0  2  0  0  0  0  0  0
    0.1201    0.2956   -0.7860 C   0  0  0  0  0  1  0  0  0  0  0  0
   -2.3310    0.8486   -1.4794 C   0  0  2  0  0  0  0  0  0  0  0  0
   -2.4868    0.7010   -2.5700 H   0  0  0  0  0  0  0  0  0  0  0  0
   -2.6163    2.3171   -1.1135 C   0  0  0  0  0  0  0  0  0  0  0  0
   -1.8575    2.9666   -1.5936 H   0  0  0  0  0  0  0  0  0  0  0  0
   -3.6029    2.5850   -1.5483 H   0  0  0  0  0  0  0  0  0  0  0  0
   -2.6398    2.4942    0.4048 C   0  0  0  0  0  0  0  0  0  0  0  0
   -2.7574    3.5644    0.6673 H   0  0  0  0  0  0  0  0  0  0  0  0
   -1.6626    2.1754    0.8283 H   0  0  0  0  0  0  0  0  0  0  0  0
   -3.7748    1.6706    1.0186 C   0  0  0  0  0  0  0  0  0  0  0  0
   -3.6881    1.6442    2.1245 H   0  0  0  0  0  0  0  0  0  0  0  0
   -4.7462    2.1748    0.8087 H   0  0  0  0  0  0  0  0  0  0  0  0
   -3.8612    0.2539    0.4852 C   0  0  0  0  0  0  0  0  0  0  0  0
   -4.6328   -0.7092    1.1686 C   0  0  0  0  0  0  0  0  0  0  0  0
   -5.1347   -0.4190    2.1056 H   0  0  0  0  0  0  0  0  0  0  0  0
   -4.7664   -2.0156    0.6849 C   0  0  0  0  0  0  0  0  0  0  0  0
   -5.3696   -2.7482    1.2421 H   0  0  0  0  0  0  0  0  0  0  0  0
   -4.1271   -2.3896   -0.5092 C   0  0  0  0  0  0  0  0  0  0  0  0
   -4.2261   -3.4142   -0.8974 H   0  0  0  0  0  0  0  0  0  0  0  0
   -3.3590   -1.4467   -1.2003 C   0  0  0  0  0  0  0  0  0  0  0  0
   -2.8462   -1.7309   -2.1333 H   0  0  0  0  0  0  0  0  0  0  0  0
   -3.2230   -0.1314   -0.7157 C   0  0  0  0  0  0  0  0  0  0  0  0
  1  2  1  0  0  0  0
  3  4  1  6  0  0  0
  3  1  1  0  0  0  0
  3  5  1  0  0  0  0
  3 23  1  0  0  0  0
  5  8  1  0  0  0  0
  6  5  1  0  0  0  0
  7  5  1  0  0  0  0
  8  9  1  0  0  0  0
  8 10  1  0  0  0  0
  8 11  1  0  0  0  0
 11 12  1  0  0  0  0
 13 11  1  0  0  0  0
 14 11  1  0  0  0  0
 14 15  1  0  0  0  0
 15 16  1  0  0  0  0
 17 15  2  0  0  0  0
 17 18  1  0  0  0  0
 19 17  1  0  0  0  0
 20 19  1  0  0  0  0
 21 23  1  0  0  0  0
 21 19  2  0  0  0  0
 22 21  1  0  0  0  0
 23 14  2  0  0  0  0
M  END
