10
 OpenBabel05122313113D

 40 42  0  0  0  0  0  0  0  0999 V2000
   -1.0419   -1.6912   -0.2184 C   0  0  0  0  0  0  0  0  0  0  0  0
   -1.0417   -2.5303    1.0858 C   0  0  0  0  0  0  0  0  0  0  0  0
   -2.4493   -2.9625    1.5108 C   0  0  0  0  0  0  0  0  0  0  0  0
   -3.1314   -3.7879    0.4133 C   0  0  0  0  0  0  0  0  0  0  0  0
   -3.1287   -3.0383   -0.9243 C   0  0  0  0  0  0  0  0  0  0  0  0
   -1.7173   -2.5810   -1.3125 C   0  0  0  0  0  0  0  0  0  0  0  0
    0.3799   -1.4356   -0.7180 C   0  0  0  0  0  0  0  0  0  0  0  0
    1.5682   -2.1635   -0.3708 C   0  0  0  0  0  0  0  0  0  0  0  0
    2.6069   -1.7918   -1.2561 C   0  0  0  0  0  0  0  0  0  0  0  0
    2.1030   -0.7887   -2.1329 C   0  0  0  0  0  3  0  0  0  0  0  0
    0.7258   -0.5872   -1.8091 C   0  0  0  0  0  0  0  0  0  0  0  0
   -1.7852   -0.3536   -0.0417 C   0  0  0  0  0  0  0  0  0  0  0  0
   -1.7683    0.3355    1.1934 C   0  0  0  0  0  0  0  0  0  0  0  0
   -2.3906    1.5746    1.3533 C   0  0  0  0  0  0  0  0  0  0  0  0
   -3.0599    2.1870    0.2720 C   0  0  0  0  0  0  0  0  0  0  0  0
   -3.0926    1.5208   -0.9687 C   0  0  0  0  0  0  0  0  0  0  0  0
   -2.4664    0.2685   -1.1049 C   0  0  0  0  0  0  0  0  0  0  0  0
   -4.3045    4.0494   -0.5377 C   0  0  0  0  0  0  0  0  0  0  0  0
   -3.6342    3.3947    0.5218 O   0  0  0  0  0  0  0  0  0  0  0  0
   -0.4396   -3.4443    0.8951 H   0  0  0  0  0  0  0  0  0  0  0  0
   -0.5120   -1.9898    1.8930 H   0  0  0  0  0  0  0  0  0  0  0  0
   -2.3889   -3.5461    2.4529 H   0  0  0  0  0  0  0  0  0  0  0  0
   -3.0644   -2.0652    1.7386 H   0  0  0  0  0  0  0  0  0  0  0  0
   -4.1692   -4.0507    0.7073 H   0  0  0  0  0  0  0  0  0  0  0  0
   -2.5864   -4.7514    0.2921 H   0  0  0  0  0  0  0  0  0  0  0  0
   -3.5441   -3.6792   -1.7305 H   0  0  0  0  0  0  0  0  0  0  0  0
   -3.7966   -2.1531   -0.8516 H   0  0  0  0  0  0  0  0  0  0  0  0
   -1.0650   -3.4691   -1.4575 H   0  0  0  0  0  0  0  0  0  0  0  0
   -1.7229   -2.0578   -2.2902 H   0  0  0  0  0  0  0  0  0  0  0  0
    1.6716   -2.8606    0.4662 H   0  0  0  0  0  0  0  0  0  0  0  0
    3.6382   -2.1536   -1.2192 H   0  0  0  0  0  0  0  0  0  0  0  0
    2.6687   -0.2815   -2.9231 H   0  0  0  0  0  0  0  0  0  0  0  0
    0.0354    0.0912   -2.3213 H   0  0  0  0  0  0  0  0  0  0  0  0
   -1.2266   -0.0912    2.0476 H   0  0  0  0  0  0  0  0  0  0  0  0
   -2.3700    2.1008    2.3189 H   0  0  0  0  0  0  0  0  0  0  0  0
   -3.6089    1.9574   -1.8341 H   0  0  0  0  0  0  0  0  0  0  0  0
   -2.5242   -0.2254   -2.0854 H   0  0  0  0  0  0  0  0  0  0  0  0
   -4.6863    5.0024   -0.1268 H   0  0  0  0  0  0  0  0  0  0  0  0
   -5.1627    3.4516   -0.9197 H   0  0  0  0  0  0  0  0  0  0  0  0
   -3.6204    4.2712   -1.3879 H   0  0  0  0  0  0  0  0  0  0  0  0
  1 12  1  0  0  0  0
  1  2  1  0  0  0  0
  2  3  1  0  0  0  0
  2 21  1  0  0  0  0
  3 23  1  0  0  0  0
  3 22  1  0  0  0  0
  4 24  1  0  0  0  0
  4  3  1  0  0  0  0
  5 27  1  0  0  0  0
  5  4  1  0  0  0  0
  6  5  1  0  0  0  0
  6  1  1  0  0  0  0
  7  8  1  0  0  0  0
  7  1  1  0  0  0  0
  8 30  1  0  0  0  0
  9 31  1  0  0  0  0
  9  8  2  0  0  0  0
 10 11  1  0  0  0  0
 10  9  1  0  0  0  0
 11  7  2  0  0  0  0
 12 13  1  0  0  0  0
 13 14  2  0  0  0  0
 13 34  1  0  0  0  0
 14 35  1  0  0  0  0
 15 19  1  0  0  0  0
 15 14  1  0  0  0  0
 16 15  2  0  0  0  0
 17 16  1  0  0  0  0
 17 12  2  0  0  0  0
 18 38  1  0  0  0  0
 18 19  1  0  0  0  0
 20  2  1  0  0  0  0
 25  4  1  0  0  0  0
 26  5  1  0  0  0  0
 28  6  1  0  0  0  0
 29  6  1  0  0  0  0
 32 10  1  0  0  0  0
 33 11  1  0  0  0  0
 36 16  1  0  0  0  0
 37 17  1  0  0  0  0
 39 18  1  0  0  0  0
 40 18  1  0  0  0  0
M  END
