5
 OpenBabel05122313113D

 36 37  0  0  1  0  0  0  0  0999 V2000
    0.7742    0.7681    1.9189 C   0  0  0  0  0  3  0  0  0  0  0  0
   -0.3885    0.0879    2.3825 C   0  0  0  0  0  0  0  0  0  0  0  0
   -0.1937   -1.3022    2.1655 C   0  0  0  0  0  0  0  0  0  0  0  0
    1.0604   -1.4746    1.5254 C   0  0  0  0  0  3  0  0  0  0  0  0
    1.6803   -0.1830    1.3625 C   0  0  2  0  0  3  0  0  0  0  0  0
    3.0478    0.1147    0.7517 C   0  0  0  0  0  0  0  0  0  0  0  0
    3.1258   -0.5978   -0.6832 C   0  0  0  0  0  0  0  0  0  0  0  0
    1.7270   -0.5936   -1.2989 C   0  0  0  0  0  0  0  0  0  0  0  0
    1.0394    0.5234   -1.8566 C   0  0  0  0  0  0  0  0  0  0  0  0
   -0.2191    0.0816   -2.3728 C   0  0  0  0  0  0  0  0  0  0  0  0
   -0.3197   -1.3105   -2.1402 C   0  0  0  0  0  0  0  0  0  0  0  0
    0.8529   -1.7253   -1.4467 C   0  0  0  0  0  3  0  0  0  0  0  0
    4.1383   -0.3993    1.7167 C   0  0  0  0  0  0  0  0  0  0  0  0
    3.2196    1.6419    0.6372 C   0  0  0  0  0  0  0  0  0  0  0  0
    3.6425   -2.0505   -0.5901 C   0  0  0  0  0  0  0  0  0  0  0  0
    4.0874    0.1340   -1.6449 C   0  0  0  0  0  0  0  0  0  0  0  0
    0.9206    1.8504    1.9537 H   0  0  0  0  0  0  0  0  0  0  0  0
   -1.2840    0.5589    2.8024 H   0  0  0  0  0  0  0  0  0  0  0  0
   -0.9003   -2.0996    2.4155 H   0  0  0  0  0  0  0  0  0  0  0  0
    1.4877   -2.4402    1.2415 H   0  0  0  0  0  0  0  0  0  0  0  0
    1.4022    1.5557   -1.8955 H   0  0  0  0  0  0  0  0  0  0  0  0
   -0.9769    0.7164   -2.8435 H   0  0  0  0  0  0  0  0  0  0  0  0
   -1.1614   -1.9519   -2.4174 H   0  0  0  0  0  0  0  0  0  0  0  0
    1.0666   -2.7507   -1.1296 H   0  0  0  0  0  0  0  0  0  0  0  0
    5.1510   -0.2514    1.2883 H   0  0  0  0  0  0  0  0  0  0  0  0
    4.0175   -1.4708    1.9622 H   0  0  0  0  0  0  0  0  0  0  0  0
    4.0910    0.1657    2.6689 H   0  0  0  0  0  0  0  0  0  0  0  0
    4.2180    1.9043    0.2420 H   0  0  0  0  0  0  0  0  0  0  0  0
    2.4496    2.1099   -0.0060 H   0  0  0  0  0  0  0  0  0  0  0  0
    3.1384    2.1068    1.6389 H   0  0  0  0  0  0  0  0  0  0  0  0
    3.5675   -2.5382   -1.5819 H   0  0  0  0  0  0  0  0  0  0  0  0
    3.0885   -2.6780    0.1315 H   0  0  0  0  0  0  0  0  0  0  0  0
    4.7078   -2.0691   -0.2923 H   0  0  0  0  0  0  0  0  0  0  0  0
    4.1630   -0.4290   -2.5966 H   0  0  0  0  0  0  0  0  0  0  0  0
    3.7549    1.1583   -1.8920 H   0  0  0  0  0  0  0  0  0  0  0  0
    5.1061    0.1981   -1.2109 H   0  0  0  0  0  0  0  0  0  0  0  0
  1 17  1  0  0  0  0
  1  2  1  0  0  0  0
  2 18  1  0  0  0  0
  3  2  2  0  0  0  0
  3 19  1  0  0  0  0
  4  3  1  0  0  0  0
  5  6  1  1  0  0  0
  5  4  1  0  0  0  0
  5  1  1  0  0  0  0
  6 13  1  0  0  0  0
  7 15  1  0  0  0  0
  7  6  1  0  0  0  0
  8  7  1  0  0  0  0
  9  8  2  0  0  0  0
 10 11  2  0  0  0  0
 10  9  1  0  0  0  0
 11 12  1  0  0  0  0
 12  8  1  0  0  0  0
 12 24  1  0  0  0  0
 13 26  1  0  0  0  0
 13 27  1  0  0  0  0
 14  6  1  0  0  0  0
 14 30  1  0  0  0  0
 15 33  1  0  0  0  0
 15 32  1  0  0  0  0
 16 36  1  0  0  0  0
 16  7  1  0  0  0  0
 20  4  1  0  0  0  0
 21  9  1  0  0  0  0
 22 10  1  0  0  0  0
 23 11  1  0  0  0  0
 25 13  1  0  0  0  0
 28 14  1  0  0  0  0
 29 14  1  0  0  0  0
 31 15  1  0  0  0  0
 34 16  1  0  0  0  0
 35 16  1  0  0  0  0
M  END
