5
 OpenBabel05122313113D

 37 39  0  0  0  0  0  0  0  0999 V2000
    0.9189   -2.5906    0.5908 N   0  0  0  0  0  0  0  0  0  0  0  0
   -1.1824   -2.3642    0.6952 N   0  0  0  0  0  0  0  0  0  0  0  0
    2.2556   -2.3247    0.5289 O   0  0  0  0  0  0  0  0  0  0  0  0
   -2.4296   -1.8091    0.7248 O   0  0  0  0  0  0  0  0  0  0  0  0
   -0.0480   -1.6290    0.4972 C   0  0  0  0  0  2  0  0  0  0  0  0
    0.4211   -3.8622    0.8429 C   0  0  0  0  0  0  0  0  0  0  0  0
    1.0762   -4.7287    0.9649 H   0  0  0  0  0  0  0  0  0  0  0  0
   -0.9425   -3.7151    0.9125 C   0  0  0  0  0  0  0  0  0  0  0  0
   -1.7490   -4.4261    1.1096 H   0  0  0  0  0  0  0  0  0  0  0  0
    2.7094   -2.0424   -0.8424 C   0  0  0  0  0  0  0  0  0  0  0  0
    1.8293   -1.7934   -1.4689 H   0  0  0  0  0  0  0  0  0  0  0  0
    3.1939   -2.9702   -1.2204 H   0  0  0  0  0  0  0  0  0  0  0  0
    3.6692   -0.8857   -0.8003 C   0  0  0  0  0  0  0  0  0  0  0  0
    4.7876   -0.9089    0.0570 C   0  0  0  0  0  0  0  0  0  0  0  0
    4.9678   -1.7888    0.6938 H   0  0  0  0  0  0  0  0  0  0  0  0
    5.6568    0.1898    0.1174 C   0  0  0  0  0  0  0  0  0  0  0  0
    6.5219    0.1679    0.7976 H   0  0  0  0  0  0  0  0  0  0  0  0
    5.4263    1.3155   -0.6920 C   0  0  0  0  0  0  0  0  0  0  0  0
    6.1110    2.1762   -0.6467 H   0  0  0  0  0  0  0  0  0  0  0  0
    4.3207    1.3382   -1.5566 C   0  0  0  0  0  0  0  0  0  0  0  0
    4.1325    2.2188   -2.1900 H   0  0  0  0  0  0  0  0  0  0  0  0
    3.4384    0.2477   -1.6036 C   0  0  0  0  0  0  0  0  0  0  0  0
    2.5465    0.2723   -2.2490 H   0  0  0  0  0  0  0  0  0  0  0  0
   -3.0192   -1.7429   -0.6244 C   0  0  0  0  0  0  0  0  0  0  0  0
   -3.4889   -2.7285   -0.8395 H   0  0  0  0  0  0  0  0  0  0  0  0
   -2.2047   -1.5369   -1.3490 H   0  0  0  0  0  0  0  0  0  0  0  0
   -4.0248   -0.6298   -0.6179 C   0  0  0  0  0  0  0  0  0  0  0  0
   -5.2617   -0.7732    0.0410 C   0  0  0  0  0  0  0  0  0  0  0  0
   -5.5121   -1.7304    0.5254 H   0  0  0  0  0  0  0  0  0  0  0  0
   -6.1688    0.2952    0.0868 C   0  0  0  0  0  0  0  0  0  0  0  0
   -7.1324    0.1764    0.6053 H   0  0  0  0  0  0  0  0  0  0  0  0
   -5.8488    1.5148   -0.5327 C   0  0  0  0  0  0  0  0  0  0  0  0
   -6.5626    2.3522   -0.4997 H   0  0  0  0  0  0  0  0  0  0  0  0
   -4.6209    1.6615   -1.1983 C   0  0  0  0  0  0  0  0  0  0  0  0
   -4.3690    2.6140   -1.6893 H   0  0  0  0  0  0  0  0  0  0  0  0
   -3.7093    0.5961   -1.2367 C   0  0  0  0  0  0  0  0  0  0  0  0
   -2.7383    0.6956   -1.7475 H   0  0  0  0  0  0  0  0  0  0  0  0
  1  6  1  0  0  0  0
  2  4  1  0  0  0  0
  2  8  1  0  0  0  0
  3  1  1  0  0  0  0
  5  1  1  0  0  0  0
  5  2  1  0  0  0  0
  6  8  2  0  0  0  0
  6  7  1  0  0  0  0
  8  9  1  0  0  0  0
 10 13  1  0  0  0  0
 10  3  1  0  0  0  0
 11 10  1  0  0  0  0
 12 10  1  0  0  0  0
 13 14  1  0  0  0  0
 14 16  2  0  0  0  0
 14 15  1  0  0  0  0
 16 17  1  0  0  0  0
 18 19  1  0  0  0  0
 18 16  1  0  0  0  0
 20 18  2  0  0  0  0
 21 20  1  0  0  0  0
 22 20  1  0  0  0  0
 22 13  2  0  0  0  0
 23 22  1  0  0  0  0
 24 27  1  0  0  0  0
 24  4  1  0  0  0  0
 25 24  1  0  0  0  0
 26 24  1  0  0  0  0
 27 28  1  0  0  0  0
 28 30  2  0  0  0  0
 28 29  1  0  0  0  0
 30 31  1  0  0  0  0
 32 33  1  0  0  0  0
 32 30  1  0  0  0  0
 34 32  2  0  0  0  0
 35 34  1  0  0  0  0
 36 34  1  0  0  0  0
 36 27  2  0  0  0  0
 37 36  1  0  0  0  0
M  END
