1
 OpenBabel05122313113D

 25 25  0  0  0  0  0  0  0  0999 V2000
    0.0751    1.2604   -0.2360 C   0  0  0  0  0  2  0  0  0  0  0  0
    0.3483    2.5618   -0.4151 N   0  0  0  0  0  0  0  0  0  0  0  0
   -0.6569    3.5273   -0.6300 N   0  0  0  0  0  0  0  0  0  0  0  0
    1.7013    3.1009   -0.4919 C   0  0  0  0  0  0  0  0  0  0  0  0
   -0.8587    4.4125    0.5180 C   0  0  0  0  0  0  0  0  0  0  0  0
   -1.3004    0.9356   -0.1816 C   0  0  0  0  0  0  0  0  0  0  0  0
   -2.4700    0.5288   -0.1296 C   0  0  0  0  0  0  0  0  0  0  0  0
   -3.7818   -0.0156   -0.0797 C   0  0  0  0  0  0  0  0  0  0  0  0
   -4.8938    0.7807    0.3012 C   0  0  0  0  0  0  0  0  0  0  0  0
   -6.1753    0.2231    0.3531 C   0  0  0  0  0  0  0  0  0  0  0  0
   -6.3730   -1.1276    0.0185 C   0  0  0  0  0  0  0  0  0  0  0  0
   -5.2805   -1.9233   -0.3670 C   0  0  0  0  0  0  0  0  0  0  0  0
   -3.9924   -1.3807   -0.4144 C   0  0  0  0  0  0  0  0  0  0  0  0
   -1.5173    2.9914   -0.8212 H   0  0  0  0  0  0  0  0  0  0  0  0
    2.0913    3.3559    0.5141 H   0  0  0  0  0  0  0  0  0  0  0  0
    1.6733    4.0053   -1.1261 H   0  0  0  0  0  0  0  0  0  0  0  0
    2.3671    2.3440   -0.9404 H   0  0  0  0  0  0  0  0  0  0  0  0
   -1.7045    5.0863    0.2808 H   0  0  0  0  0  0  0  0  0  0  0  0
    0.0353    5.0486    0.6756 H   0  0  0  0  0  0  0  0  0  0  0  0
   -1.0812    3.8714    1.4676 H   0  0  0  0  0  0  0  0  0  0  0  0
   -4.7320    1.8371    0.5604 H   0  0  0  0  0  0  0  0  0  0  0  0
   -7.0301    0.8469    0.6549 H   0  0  0  0  0  0  0  0  0  0  0  0
   -7.3835   -1.5615    0.0579 H   0  0  0  0  0  0  0  0  0  0  0  0
   -5.4345   -2.9802   -0.6316 H   0  0  0  0  0  0  0  0  0  0  0  0
   -3.1322   -1.9939   -0.7189 H   0  0  0  0  0  0  0  0  0  0  0  0
  1  6  1  0  0  0  0
  2  1  1  0  0  0  0
  3  2  1  0  0  0  0
  3  5  1  0  0  0  0
  4  2  1  0  0  0  0
  4 15  1  0  0  0  0
  5 19  1  0  0  0  0
  5 20  1  0  0  0  0
  6  7  3  0  0  0  0
  7  8  1  0  0  0  0
  8  9  1  0  0  0  0
  9 10  2  0  0  0  0
  9 21  1  0  0  0  0
 10 22  1  0  0  0  0
 11 23  1  0  0  0  0
 11 10  1  0  0  0  0
 12 11  2  0  0  0  0
 13 12  1  0  0  0  0
 13  8  2  0  0  0  0
 14  3  1  0  0  0  0
 16  4  1  0  0  0  0
 17  4  1  0  0  0  0
 18  5  1  0  0  0  0
 24 12  1  0  0  0  0
 25 13  1  0  0  0  0
M  END
