1
 OpenBabel05122313113D

 14 14  0  0  0  0  0  0  0  0999 V2000
    2.5328   -0.1839   -0.5885 C   0  0  0  0  0  3  0  0  0  0  0  0
    1.7488    0.8568   -0.8358 C   0  0  0  0  0  3  0  0  0  0  0  0
    2.1055    2.2169   -1.2137 C   0  0  0  0  0  0  0  0  0  0  0  0
    1.6035    2.6763   -2.0870 H   0  0  0  0  0  0  0  0  0  0  0  0
    2.9655    3.0067   -0.5108 C   0  0  0  0  0  0  0  0  0  0  0  0
    3.0760    4.0596   -0.8314 H   0  0  0  0  0  0  0  0  0  0  0  0
    3.7021    2.6478    0.7173 C   0  0  0  0  0  0  0  0  0  0  0  0
    3.6828    3.4289    1.5018 H   0  0  0  0  0  0  0  0  0  0  0  0
    4.4786    1.5639    0.9941 C   0  0  0  0  0  0  0  0  0  0  0  0
    4.9968    1.5915    1.9718 H   0  0  0  0  0  0  0  0  0  0  0  0
    4.8235    0.3937    0.1644 C   0  0  0  0  0  0  0  0  0  0  0  0
    5.8789    0.0707    0.2296 H   0  0  0  0  0  0  0  0  0  0  0  0
    3.9687   -0.3790   -0.5646 C   0  0  0  0  0  0  0  0  0  0  0  0
    4.3842   -1.2663   -1.0782 H   0  0  0  0  0  0  0  0  0  0  0  0
  1 13  1  0  0  0  0
  2  1  2  0  0  0  0
  3  2  1  0  0  0  0
  3  5  2  0  0  0  0
  4  3  1  0  0  0  0
  5  7  1  0  0  0  0
  6  5  1  0  0  0  0
  7  9  2  0  0  0  0
  7  8  1  0  0  0  0
  9 10  1  0  0  0  0
 11 12  1  0  0  0  0
 11  9  1  0  0  0  0
 13 11  2  0  0  0  0
 14 13  1  0  0  0  0
M  END
