19
 OpenBabel05122313113D

 42 44  0  0  0  0  0  0  0  0999 V2000
    0.6255    2.9990   -0.4753 N   0  0  0  0  0  0  0  0  0  0  0  0
    2.4247    1.9177   -1.0826 N   0  0  0  0  0  0  0  0  0  0  0  0
    6.3880   -1.5644    2.8141 N   0  0  0  0  0  0  0  0  0  0  0  0
    5.8238   -1.6979    3.8975 O   0  0  0  0  0  0  0  0  0  0  0  0
    7.5305   -1.9260    2.5465 O   0  0  0  0  0  0  0  0  0  0  0  0
    4.1415    0.2796   -0.3248 C   0  0  0  0  0  0  0  0  0  0  0  0
    5.4622   -0.1512   -0.5556 C   0  0  0  0  0  0  0  0  0  0  0  0
    5.9153   -0.0225   -1.5510 H   0  0  0  0  0  0  0  0  0  0  0  0
    6.2059   -0.7533    0.4670 C   0  0  0  0  0  0  0  0  0  0  0  0
    7.2365   -1.1022    0.3172 H   0  0  0  0  0  0  0  0  0  0  0  0
    5.6108   -0.9109    1.7231 C   0  0  0  0  0  0  0  0  0  0  0  0
    4.3067   -0.4766    1.9890 C   0  0  0  0  0  0  0  0  0  0  0  0
    3.8955   -0.6168    2.9976 H   0  0  0  0  0  0  0  0  0  0  0  0
    3.5747    0.1202    0.9561 C   0  0  0  0  0  0  0  0  0  0  0  0
    2.5490    0.4696    1.1508 H   0  0  0  0  0  0  0  0  0  0  0  0
    3.3223    0.8397   -1.4713 C   0  0  0  0  0  0  0  0  0  0  0  0
    3.9842    1.2039   -2.2825 H   0  0  0  0  0  0  0  0  0  0  0  0
    2.6866    0.0400   -1.9090 H   0  0  0  0  0  0  0  0  0  0  0  0
    1.0802    1.7775   -0.8753 C   0  0  0  0  0  2  0  0  0  0  0  0
    2.8390    3.2209   -0.7991 C   0  0  0  0  0  0  0  0  0  0  0  0
    4.0981    3.8388   -0.8292 C   0  0  0  0  0  0  0  0  0  0  0  0
    5.0083    3.2881   -1.1033 H   0  0  0  0  0  0  0  0  0  0  0  0
    4.1419    5.1935   -0.4756 C   0  0  0  0  0  0  0  0  0  0  0  0
    5.1076    5.7192   -0.4833 H   0  0  0  0  0  0  0  0  0  0  0  0
    2.9744    5.9011   -0.1028 C   0  0  0  0  0  0  0  0  0  0  0  0
    3.0561    6.9634    0.1691 H   0  0  0  0  0  0  0  0  0  0  0  0
    1.7182    5.2821   -0.0667 C   0  0  0  0  0  0  0  0  0  0  0  0
    0.8170    5.8376    0.2268 H   0  0  0  0  0  0  0  0  0  0  0  0
    1.6721    3.9244   -0.4202 C   0  0  0  0  0  0  0  0  0  0  0  0
   -0.7780    3.3265   -0.2266 C   0  0  0  0  0  0  0  0  0  0  0  0
   -0.8247    3.9576    0.6855 H   0  0  0  0  0  0  0  0  0  0  0  0
   -1.2912    2.3733    0.0106 H   0  0  0  0  0  0  0  0  0  0  0  0
   -1.4373    4.0359   -1.4145 C   0  0  0  0  0  0  0  0  0  0  0  0
   -1.3860    3.3628   -2.2989 H   0  0  0  0  0  0  0  0  0  0  0  0
   -0.8375    4.9336   -1.6732 H   0  0  0  0  0  0  0  0  0  0  0  0
   -2.8913    4.4466   -1.1475 C   0  0  0  0  0  0  0  0  0  0  0  0
   -2.9267    5.1150   -0.2588 H   0  0  0  0  0  0  0  0  0  0  0  0
   -3.2340    5.0687   -2.0001 H   0  0  0  0  0  0  0  0  0  0  0  0
   -3.8564    3.2757   -0.9535 C   0  0  0  0  0  0  0  0  0  0  0  0
   -3.8439    2.5961   -1.8320 H   0  0  0  0  0  0  0  0  0  0  0  0
   -4.8983    3.6302   -0.8288 H   0  0  0  0  0  0  0  0  0  0  0  0
   -3.6163    2.6668   -0.0580 H   0  0  0  0  0  0  0  0  0  0  0  0
  1 29  1  0  0  0  0
  1 30  1  0  0  0  0
  2 19  1  0  0  0  0
  2 20  1  0  0  0  0
  3  4  2  0  0  0  0
  5  3  2  0  0  0  0
  6 14  1  0  0  0  0
  7  6  2  0  0  0  0
  7  9  1  0  0  0  0
  8  7  1  0  0  0  0
  9 11  2  0  0  0  0
 10  9  1  0  0  0  0
 11 12  1  0  0  0  0
 11  3  1  0  0  0  0
 12 13  1  0  0  0  0
 14 15  1  0  0  0  0
 14 12  2  0  0  0  0
 16  2  1  0  0  0  0
 16  6  1  0  0  0  0
 17 16  1  0  0  0  0
 18 16  1  0  0  0  0
 19  1  1  0  0  0  0
 20 29  1  0  0  0  0
 21 20  2  0  0  0  0
 21 23  1  0  0  0  0
 22 21  1  0  0  0  0
 23 25  2  0  0  0  0
 24 23  1  0  0  0  0
 25 27  1  0  0  0  0
 25 26  1  0  0  0  0
 27 28  1  0  0  0  0
 29 27  2  0  0  0  0
 30 32  1  0  0  0  0
 30 31  1  0  0  0  0
 33 36  1  0  0  0  0
 33 30  1  0  0  0  0
 34 33  1  0  0  0  0
 35 33  1  0  0  0  0
 36 39  1  0  0  0  0
 36 37  1  0  0  0  0
 38 36  1  0  0  0  0
 39 41  1  0  0  0  0
 39 42  1  0  0  0  0
 40 39  1  0  0  0  0
M  END
