6
 OpenBabel05122313113D

 26 26  0  0  1  0  0  0  0  0999 V2000
   -1.4452    1.0910    0.3483 O   0  0  0  0  0  0  0  0  0  0  0  0
   -3.2212    1.2481   -1.0539 O   0  0  0  0  0  0  0  0  0  0  0  0
   -3.0249   -0.9732    0.9371 O   0  0  0  0  0  0  0  0  0  0  0  0
   -2.4832   -2.0554   -0.9840 O   0  0  0  0  0  0  0  0  0  0  0  0
   -0.0198   -0.7500    0.6812 C   0  0  0  0  0  3  0  0  0  0  0  0
    0.8034   -1.8399    0.2235 C   0  0  0  0  0  3  0  0  0  0  0  0
    1.3090   -1.6822   -1.0967 C   0  0  0  0  0  3  0  0  0  0  0  0
    0.8890   -0.4750   -1.7514 C   0  0  0  0  0  3  0  0  0  0  0  0
   -0.5585   -0.0349   -1.6704 C   0  0  0  0  0  0  0  0  0  0  0  0
   -1.1788   -0.6373   -2.3656 H   0  0  0  0  0  0  0  0  0  0  0  0
   -0.6524    1.0218   -1.9825 H   0  0  0  0  0  0  0  0  0  0  0  0
   -1.0977   -0.1857   -0.2363 C   0  0  2  0  0  0  0  0  0  0  0  0
   -2.5328    1.7228   -0.1697 C   0  0  0  0  0  0  0  0  0  0  0  0
   -2.7341    3.0565    0.5018 C   0  0  0  0  0  0  0  0  0  0  0  0
   -3.5757    3.5897    0.0280 H   0  0  0  0  0  0  0  0  0  0  0  0
   -1.8043    3.6550    0.4335 H   0  0  0  0  0  0  0  0  0  0  0  0
   -2.9421    2.9016    1.5794 H   0  0  0  0  0  0  0  0  0  0  0  0
   -2.2948   -1.1628   -0.1828 C   0  0  0  0  0  0  0  0  0  0  0  0
   -4.1575   -1.8405    1.0778 C   0  0  0  0  0  0  0  0  0  0  0  0
   -4.8842   -1.6587    0.2607 H   0  0  0  0  0  0  0  0  0  0  0  0
   -4.6100   -1.5982    2.0555 H   0  0  0  0  0  0  0  0  0  0  0  0
   -3.8473   -2.9039    1.0423 H   0  0  0  0  0  0  0  0  0  0  0  0
   -0.3032   -0.7260    1.7451 H   0  0  0  0  0  0  0  0  0  0  0  0
    1.1129   -2.6722    0.8724 H   0  0  0  0  0  0  0  0  0  0  0  0
    2.0473   -2.3796   -1.5201 H   0  0  0  0  0  0  0  0  0  0  0  0
    1.4098   -0.2092   -2.6858 H   0  0  0  0  0  0  0  0  0  0  0  0
  2 13  2  0  0  0  0
  3 19  1  0  0  0  0
  4 18  2  0  0  0  0
  5 23  1  0  0  0  0
  6  5  1  0  0  0  0
  6 24  1  0  0  0  0
  7  6  1  0  0  0  0
  8  9  1  0  0  0  0
  8  7  1  0  0  0  0
  9 12  1  0  0  0  0
 10  9  1  0  0  0  0
 11  9  1  0  0  0  0
 12 18  1  1  0  0  0
 12  1  1  0  0  0  0
 12  5  1  0  0  0  0
 13  1  1  0  0  0  0
 13 14  1  0  0  0  0
 14 17  1  0  0  0  0
 15 14  1  0  0  0  0
 16 14  1  0  0  0  0
 18  3  1  0  0  0  0
 19 21  1  0  0  0  0
 20 19  1  0  0  0  0
 22 19  1  0  0  0  0
 25  7  1  0  0  0  0
 26  8  1  0  0  0  0
M  END
