7
 OpenBabel05122313113D

 47 47  0  0  0  0  0  0  0  0999 V2000
   -3.6175   -2.7570   -0.3103 O   0  0  0  0  0  0  0  0  0  0  0  0
    3.6941   -2.8312    0.6926 O   0  0  0  0  0  0  0  0  0  0  0  0
   -0.9670   -1.5636   -0.5079 N   0  0  0  0  0  0  0  0  0  0  0  0
    0.8998   -1.5685    0.5832 N   0  0  0  0  0  0  0  0  0  0  0  0
   -4.3082   -0.5967   -0.0066 N   0  0  0  0  0  0  0  0  0  0  0  0
    4.0428   -0.8041   -0.3144 N   0  0  0  0  0  0  0  0  0  0  0  0
   -0.0199   -0.7281    0.0201 C   0  0  0  0  0  2  0  0  0  0  0  0
   -0.6458   -2.8967   -0.2806 C   0  0  0  0  0  0  0  0  0  0  0  0
   -1.3183   -3.7001   -0.5919 H   0  0  0  0  0  0  0  0  0  0  0  0
    0.5409   -2.8999    0.4061 C   0  0  0  0  0  0  0  0  0  0  0  0
    1.1835   -3.7102    0.7626 H   0  0  0  0  0  0  0  0  0  0  0  0
   -2.1598   -1.0908   -1.1994 C   0  0  0  0  0  0  0  0  0  0  0  0
   -2.1987   -1.5488   -2.2088 H   0  0  0  0  0  0  0  0  0  0  0  0
   -2.0352   -0.0003   -1.3145 H   0  0  0  0  0  0  0  0  0  0  0  0
   -3.4314   -1.5439   -0.4592 C   0  0  0  0  0  0  0  0  0  0  0  0
   -4.1252    0.8579   -0.0712 C   0  0  0  0  0  0  0  0  0  0  0  0
   -5.1276    1.3049   -0.2412 H   0  0  0  0  0  0  0  0  0  0  0  0
   -3.5318    1.1247   -0.9662 H   0  0  0  0  0  0  0  0  0  0  0  0
   -3.4799    1.4455    1.1829 C   0  0  0  0  0  0  0  0  0  0  0  0
   -4.0813    1.2300    2.0892 H   0  0  0  0  0  0  0  0  0  0  0  0
   -3.3749    2.5441    1.0864 H   0  0  0  0  0  0  0  0  0  0  0  0
   -2.4614    1.0316    1.3310 H   0  0  0  0  0  0  0  0  0  0  0  0
   -5.5153   -1.0808    0.6758 C   0  0  0  0  0  0  0  0  0  0  0  0
   -5.7699   -0.3507    1.4712 H   0  0  0  0  0  0  0  0  0  0  0  0
   -5.2568   -2.0403    1.1633 H   0  0  0  0  0  0  0  0  0  0  0  0
   -6.6901   -1.2804   -0.2809 C   0  0  0  0  0  0  0  0  0  0  0  0
   -6.9501   -0.3423   -0.8132 H   0  0  0  0  0  0  0  0  0  0  0  0
   -7.5896   -1.6150    0.2738 H   0  0  0  0  0  0  0  0  0  0  0  0
   -6.4445   -2.0542   -1.0345 H   0  0  0  0  0  0  0  0  0  0  0  0
    2.1180   -1.1236    1.2520 C   0  0  0  0  0  0  0  0  0  0  0  0
    2.1521   -1.5671    2.2659 H   0  0  0  0  0  0  0  0  0  0  0  0
    2.0511   -0.0252    1.3481 H   0  0  0  0  0  0  0  0  0  0  0  0
    3.3655   -1.6523    0.5177 C   0  0  0  0  0  0  0  0  0  0  0  0
    3.6396    0.5784   -0.5966 C   0  0  0  0  0  0  0  0  0  0  0  0
    2.5309    0.6458   -0.6032 H   0  0  0  0  0  0  0  0  0  0  0  0
    3.9473    0.7975   -1.6396 H   0  0  0  0  0  0  0  0  0  0  0  0
    4.2152    1.6304    0.3509 C   0  0  0  0  0  0  0  0  0  0  0  0
    3.9363    1.4187    1.4033 H   0  0  0  0  0  0  0  0  0  0  0  0
    3.8062    2.6279    0.0933 H   0  0  0  0  0  0  0  0  0  0  0  0
    5.3210    1.6777    0.2966 H   0  0  0  0  0  0  0  0  0  0  0  0
    5.2577   -1.3374   -0.9447 C   0  0  0  0  0  0  0  0  0  0  0  0
    5.4368   -0.7490   -1.8668 H   0  0  0  0  0  0  0  0  0  0  0  0
    5.0432   -2.3842   -1.2403 H   0  0  0  0  0  0  0  0  0  0  0  0
    6.4848   -1.3122   -0.0321 C   0  0  0  0  0  0  0  0  0  0  0  0
    6.7395   -0.2827    0.2891 H   0  0  0  0  0  0  0  0  0  0  0  0
    7.3638   -1.7337   -0.5603 H   0  0  0  0  0  0  0  0  0  0  0  0
    6.3015   -1.9297    0.8687 H   0  0  0  0  0  0  0  0  0  0  0  0
  3  8  1  0  0  0  0
  3  7  1  0  0  0  0
  4 30  1  0  0  0  0
  5 23  1  0  0  0  0
  6 33  1  0  0  0  0
  7  4  1  0  0  0  0
  8 10  2  0  0  0  0
  9  8  1  0  0  0  0
 10  4  1  0  0  0  0
 10 11  1  0  0  0  0
 12  3  1  0  0  0  0
 12 15  1  0  0  0  0
 13 12  1  0  0  0  0
 14 12  1  0  0  0  0
 15  1  2  0  0  0  0
 15  5  1  0  0  0  0
 16  5  1  0  0  0  0
 16 19  1  0  0  0  0
 17 16  1  0  0  0  0
 18 16  1  0  0  0  0
 19 22  1  0  0  0  0
 19 20  1  0  0  0  0
 21 19  1  0  0  0  0
 23 25  1  0  0  0  0
 23 24  1  0  0  0  0
 26 28  1  0  0  0  0
 26 23  1  0  0  0  0
 27 26  1  0  0  0  0
 29 26  1  0  0  0  0
 30 32  1  0  0  0  0
 30 31  1  0  0  0  0
 33  2  2  0  0  0  0
 33 30  1  0  0  0  0
 34  6  1  0  0  0  0
 34 37  1  0  0  0  0
 35 34  1  0  0  0  0
 36 34  1  0  0  0  0
 37 38  1  0  0  0  0
 39 37  1  0  0  0  0
 40 37  1  0  0  0  0
 41  6  1  0  0  0  0
 41 44  1  0  0  0  0
 42 41  1  0  0  0  0
 43 41  1  0  0  0  0
 44 45  1  0  0  0  0
 44 47  1  0  0  0  0
 46 44  1  0  0  0  0
M  END
