18
 OpenBabel05122313113D

 27 27  0  0  1  0  0  0  0  0999 V2000
    0.3831   -0.8405   -0.9642 O   0  0  0  0  0  0  0  0  0  0  0  0
    0.9539   -0.6499    1.2448 O   0  0  0  0  0  0  0  0  0  0  0  0
    5.9089    0.2895    0.8026 O   0  0  0  0  0  0  0  0  0  0  0  0
    5.3286    0.0599   -1.3848 O   0  0  0  0  0  0  0  0  0  0  0  0
   -0.9749   -1.0777   -0.6871 C   0  0  1  0  0  3  0  0  0  0  0  0
    1.2626   -0.6429    0.0680 C   0  0  0  0  0  0  0  0  0  0  0  0
    2.6221   -0.4115   -0.4762 C   0  0  0  0  0  0  0  0  0  0  0  0
    2.7669   -0.4305   -1.5677 H   0  0  0  0  0  0  0  0  0  0  0  0
    3.6659   -0.1740    0.3459 C   0  0  0  0  0  0  0  0  0  0  0  0
    3.5229   -0.1506    1.4376 H   0  0  0  0  0  0  0  0  0  0  0  0
    5.0266    0.0637   -0.2035 C   0  0  0  0  0  0  0  0  0  0  0  0
    7.2564    0.5343    0.3856 C   0  0  0  0  0  0  0  0  0  0  0  0
    7.6573   -0.3317   -0.1794 H   0  0  0  0  0  0  0  0  0  0  0  0
    7.8396    0.6978    1.3089 H   0  0  0  0  0  0  0  0  0  0  0  0
    7.3093    1.4264   -0.2710 H   0  0  0  0  0  0  0  0  0  0  0  0
   -1.8363   -0.6113   -1.7432 C   0  0  0  0  0  3  0  0  0  0  0  0
   -1.4393   -0.1681   -2.6680 H   0  0  0  0  0  0  0  0  0  0  0  0
   -3.2217   -0.6750   -1.4287 C   0  0  0  0  0  3  0  0  0  0  0  0
   -3.9826   -0.2542   -2.1032 H   0  0  0  0  0  0  0  0  0  0  0  0
   -3.5164   -1.2007   -0.1227 C   0  0  0  0  0  3  0  0  0  0  0  0
   -4.5528   -1.0828    0.2337 H   0  0  0  0  0  0  0  0  0  0  0  0
   -2.7848   -2.4276    0.3920 C   0  0  0  0  0  0  0  0  0  0  0  0
   -3.2524   -3.3390   -0.0440 H   0  0  0  0  0  0  0  0  0  0  0  0
   -2.9307   -2.5051    1.4878 H   0  0  0  0  0  0  0  0  0  0  0  0
   -1.2818   -2.3662    0.0543 C   0  0  0  0  0  0  0  0  0  0  0  0
   -0.6664   -2.4020    0.9725 H   0  0  0  0  0  0  0  0  0  0  0  0
   -0.9673   -3.2215   -0.5842 H   0  0  0  0  0  0  0  0  0  0  0  0
  1  6  1  0  0  0  0
  4 11  2  0  0  0  0
  5  1  1  6  0  0  0
  5 25  1  0  0  0  0
  6  2  2  0  0  0  0
  7  6  1  0  0  0  0
  7  9  2  0  0  0  0
  8  7  1  0  0  0  0
  9 10  1  0  0  0  0
 11  9  1  0  0  0  0
 11  3  1  0  0  0  0
 12  3  1  0  0  0  0
 12 14  1  0  0  0  0
 13 12  1  0  0  0  0
 15 12  1  0  0  0  0
 16 18  1  0  0  0  0
 16  5  1  0  0  0  0
 17 16  1  0  0  0  0
 18 20  1  0  0  0  0
 19 18  1  0  0  0  0
 20 21  1  0  0  0  0
 20 22  1  0  0  0  0
 22 24  1  0  0  0  0
 23 22  1  0  0  0  0
 25 22  1  0  0  0  0
 25 26  1  0  0  0  0
 27 25  1  0  0  0  0
M  END
