18
 OpenBabel05122313113D

 27 27  0  0  0  0  0  0  0  0999 V2000
    5.2511    0.4229   -2.8654 N   0  0  0  0  0  0  0  0  0  0  0  0
    6.3057    0.8888   -2.4240 O   0  0  0  0  0  0  0  0  0  0  0  0
    5.1817   -0.5305   -3.6553 O   0  0  0  0  0  0  0  0  0  0  0  0
   -2.1394    3.4994    0.3939 O   0  0  0  0  0  0  0  0  0  0  0  0
   -3.3107    2.6156   -1.3535 O   0  0  0  0  0  0  0  0  0  0  0  0
    3.9942    1.0183   -2.4118 C   0  0  0  0  0  0  0  0  0  0  0  0
    3.9986    1.8791   -1.3000 C   0  0  0  0  0  0  0  0  0  0  0  0
    4.9578    2.1356   -0.8313 H   0  0  0  0  0  0  0  0  0  0  0  0
    2.7858    2.3481   -0.8006 C   0  0  0  0  0  0  0  0  0  0  0  0
    2.7780    2.9847    0.0967 H   0  0  0  0  0  0  0  0  0  0  0  0
    1.5442    1.9767   -1.3921 C   0  0  0  0  0  0  0  0  0  0  0  0
    1.5871    1.1666   -2.5643 C   0  0  0  0  0  0  0  0  0  0  0  0
    0.6486    0.8877   -3.0645 H   0  0  0  0  0  0  0  0  0  0  0  0
    2.7936    0.6783   -3.0615 C   0  0  0  0  0  0  0  0  0  0  0  0
    2.8350    0.0165   -3.9368 H   0  0  0  0  0  0  0  0  0  0  0  0
    0.2946    2.3773   -0.7453 C   0  0  0  0  0  3  0  0  0  0  0  0
    0.3808    3.1244    0.0617 H   0  0  0  0  0  0  0  0  0  0  0  0
   -1.0208    2.1370   -1.2558 C   0  0  0  0  0  3  0  0  0  0  0  0
   -1.1923    1.7385   -2.2674 H   0  0  0  0  0  0  0  0  0  0  0  0
   -2.1674    2.8318   -0.6352 C   0  0  0  0  0  0  0  0  0  0  0  0
   -4.5187    3.1731   -0.8041 C   0  0  0  0  0  0  0  0  0  0  0  0
   -4.4857    3.0805    0.3010 H   0  0  0  0  0  0  0  0  0  0  0  0
   -5.3290    2.5262   -1.1932 H   0  0  0  0  0  0  0  0  0  0  0  0
   -4.7067    4.6247   -1.2170 C   0  0  0  0  0  0  0  0  0  0  0  0
   -3.9067    5.2561   -0.7842 H   0  0  0  0  0  0  0  0  0  0  0  0
   -5.6830    5.0040   -0.8517 H   0  0  0  0  0  0  0  0  0  0  0  0
   -4.6861    4.7291   -2.3205 H   0  0  0  0  0  0  0  0  0  0  0  0
  1  2  2  0  0  0  0
  1  6  1  0  0  0  0
  3  1  2  0  0  0  0
  5 21  1  0  0  0  0
  5 20  1  0  0  0  0
  6  7  1  0  0  0  0
  7  8  1  0  0  0  0
  7  9  2  0  0  0  0
  9 10  1  0  0  0  0
 11  9  1  0  0  0  0
 11 16  1  0  0  0  0
 12 11  2  0  0  0  0
 13 12  1  0  0  0  0
 14 12  1  0  0  0  0
 14  6  2  0  0  0  0
 15 14  1  0  0  0  0
 16 17  1  0  0  0  0
 18 16  1  0  0  0  0
 18 20  1  0  0  0  0
 19 18  1  0  0  0  0
 20  4  2  0  0  0  0
 21 22  1  0  0  0  0
 23 21  1  0  0  0  0
 24 26  1  0  0  0  0
 24 21  1  0  0  0  0
 24 25  1  0  0  0  0
 27 24  1  0  0  0  0
M  END
