5
 OpenBabel05122313113D

 27 27  0  0  1  0  0  0  0  0999 V2000
   -0.5558    0.0496   -0.5203 O   0  0  0  0  0  0  0  0  0  0  0  0
   -1.5540   -1.9209    0.0917 O   0  0  0  0  0  0  0  0  0  0  0  0
   -6.4002   -0.4528    0.2533 O   0  0  0  0  0  0  0  0  0  0  0  0
   -5.3904    1.4968   -0.3431 O   0  0  0  0  0  0  0  0  0  0  0  0
    0.6994   -0.5482   -0.4549 C   0  0  1  0  0  3  0  0  0  0  0  0
   -1.6375   -0.7429   -0.1912 C   0  0  0  0  0  0  0  0  0  0  0  0
   -2.8785    0.0648   -0.2535 C   0  0  0  0  0  0  0  0  0  0  0  0
   -2.8061    1.1314   -0.5176 H   0  0  0  0  0  0  0  0  0  0  0  0
   -4.0785   -0.4954    0.0074 C   0  0  0  0  0  0  0  0  0  0  0  0
   -4.1524   -1.5618    0.2726 H   0  0  0  0  0  0  0  0  0  0  0  0
   -5.3252    0.3140   -0.0561 C   0  0  0  0  0  0  0  0  0  0  0  0
   -7.6605    0.2274    0.2252 C   0  0  0  0  0  0  0  0  0  0  0  0
   -7.6696    1.0679    0.9485 H   0  0  0  0  0  0  0  0  0  0  0  0
   -8.4222   -0.5249    0.4955 H   0  0  0  0  0  0  0  0  0  0  0  0
   -7.8619    0.6403   -0.7840 H   0  0  0  0  0  0  0  0  0  0  0  0
    1.5723   -0.4812   -1.5756 C   0  0  0  0  0  3  0  0  0  0  0  0
    1.2779    0.0423   -2.4969 H   0  0  0  0  0  0  0  0  0  0  0  0
    2.8692   -1.0539   -1.3190 C   0  0  0  0  0  3  0  0  0  0  0  0
    3.6500   -0.8507   -2.0704 H   0  0  0  0  0  0  0  0  0  0  0  0
    2.9805   -2.3879   -0.5993 C   0  0  0  0  0  0  0  0  0  0  0  0
    4.0276   -2.5341   -0.2662 H   0  0  0  0  0  0  0  0  0  0  0  0
    2.7722   -3.2077   -1.3231 H   0  0  0  0  0  0  0  0  0  0  0  0
    2.0105   -2.4497    0.5995 C   0  0  0  0  0  0  0  0  0  0  0  0
    1.2700   -3.2711    0.4820 H   0  0  0  0  0  0  0  0  0  0  0  0
    2.5582   -2.6510    1.5416 H   0  0  0  0  0  0  0  0  0  0  0  0
    1.2466   -1.1459    0.7305 C   0  0  0  0  0  3  0  0  0  0  0  0
    0.6604   -1.0146    1.6537 H   0  0  0  0  0  0  0  0  0  0  0  0
  1  6  1  0  0  0  0
  4 11  2  0  0  0  0
  5  1  1  1  0  0  0
  5 26  1  0  0  0  0
  6  2  2  0  0  0  0
  7  6  1  0  0  0  0
  7  9  2  0  0  0  0
  8  7  1  0  0  0  0
  9 10  1  0  0  0  0
 11  9  1  0  0  0  0
 11  3  1  0  0  0  0
 12  3  1  0  0  0  0
 12 14  1  0  0  0  0
 12 13  1  0  0  0  0
 15 12  1  0  0  0  0
 16 18  1  0  0  0  0
 16  5  1  0  0  0  0
 17 16  1  0  0  0  0
 18 20  1  0  0  0  0
 19 18  1  0  0  0  0
 20 21  1  0  0  0  0
 20 23  1  0  0  0  0
 22 20  1  0  0  0  0
 23 26  1  0  0  0  0
 23 25  1  0  0  0  0
 24 23  1  0  0  0  0
 26 27  1  0  0  0  0
M  END
