2
 OpenBabel05122313113D

 21 21  0  0  1  0  0  0  0  0999 V2000
   -1.9723   -1.0706   -0.4306 N   0  0  0  0  0  0  0  0  0  0  0  0
   -1.1435    0.0056   -0.3409 C   0  0  0  0  0  2  0  0  0  0  0  0
   -3.3006   -0.6712   -0.3779 N   0  0  0  0  0  0  0  0  0  0  0  0
   -3.3193    0.6674   -0.3161 C   0  0  2  0  0  3  0  0  0  0  0  0
   -2.0297    1.0863   -0.3244 N   0  0  0  0  0  0  0  0  0  0  0  0
   -1.5913    2.4643   -0.1184 C   0  0  0  0  0  0  0  0  0  0  0  0
   -2.1663    3.1536   -0.7640 H   0  0  0  0  0  0  0  0  0  0  0  0
   -0.5155    2.4992   -0.3687 H   0  0  0  0  0  0  0  0  0  0  0  0
   -1.7056    2.7323    0.9501 H   0  0  0  0  0  0  0  0  0  0  0  0
   -4.5056    1.5510   -0.2415 C   0  0  0  0  0  0  0  0  0  0  0  0
   -5.4513    0.9826   -0.2317 H   0  0  0  0  0  0  0  0  0  0  0  0
   -4.5246    2.2470   -1.1051 H   0  0  0  0  0  0  0  0  0  0  0  0
   -4.4571    2.1650    0.6813 H   0  0  0  0  0  0  0  0  0  0  0  0
   -4.3940   -1.6268   -0.4296 C   0  0  0  0  0  0  0  0  0  0  0  0
   -5.3472   -1.0787   -0.3406 H   0  0  0  0  0  0  0  0  0  0  0  0
   -4.3126   -2.3397    0.4128 H   0  0  0  0  0  0  0  0  0  0  0  0
   -4.3814   -2.1747   -1.3919 H   0  0  0  0  0  0  0  0  0  0  0  0
   -1.5775   -2.4597   -0.2653 C   0  0  0  0  0  0  0  0  0  0  0  0
   -1.8053   -2.8070    0.7622 H   0  0  0  0  0  0  0  0  0  0  0  0
   -0.4784   -2.4649   -0.3951 H   0  0  0  0  0  0  0  0  0  0  0  0
   -2.0578   -3.1052   -1.0245 H   0  0  0  0  0  0  0  0  0  0  0  0
  1  3  1  0  0  0  0
  1  2  1  0  0  0  0
  1 18  1  0  0  0  0
  2  5  1  0  0  0  0
  3  4  1  0  0  0  0
  4 10  1  1  0  0  0
  5  4  1  0  0  0  0
  5  6  1  0  0  0  0
  6  9  1  0  0  0  0
  7  6  1  0  0  0  0
  8  6  1  0  0  0  0
 10 11  1  0  0  0  0
 10 13  1  0  0  0  0
 12 10  1  0  0  0  0
 14  3  1  0  0  0  0
 14 15  1  0  0  0  0
 14 16  1  0  0  0  0
 17 14  1  0  0  0  0
 18 19  1  0  0  0  0
 20 18  1  0  0  0  0
 21 18  1  0  0  0  0
M  END
