3
 OpenBabel05122313113D

 41 42  0  0  1  0  0  0  0  0999 V2000
   -0.3331   -0.6836    1.2102 C   0  0  0  0  0  0  0  0  0  0  0  0
    0.3016   -0.0691    0.0861 C   0  0  0  0  0  0  0  0  0  0  0  0
   -0.2272   -0.6751   -1.1291 C   0  0  2  0  0  3  0  0  0  0  0  0
   -1.1558   -1.7196   -0.7247 C   0  0  0  0  0  0  0  0  0  0  0  0
   -1.2550   -1.7040    0.7065 C   0  0  0  0  0  0  0  0  0  0  0  0
   -0.1103   -0.3925    2.6576 C   0  0  0  0  0  0  0  0  0  0  0  0
    1.3829    0.9700    0.1286 C   0  0  0  0  0  0  0  0  0  0  0  0
    0.2820   -0.4308   -2.5161 C   0  0  0  0  0  0  0  0  0  0  0  0
   -1.8439   -2.6739   -1.6525 C   0  0  0  0  0  0  0  0  0  0  0  0
   -2.0943   -2.5776    1.5821 C   0  0  0  0  0  0  0  0  0  0  0  0
    2.7925    0.4023    0.0806 C   0  0  0  0  0  0  0  0  0  0  0  0
    3.9001    1.2923    0.0440 C   0  0  0  0  0  0  0  0  0  0  0  0
    5.1986    0.7579   -0.0008 C   0  0  0  0  0  0  0  0  0  0  0  0
    5.4490   -0.6297   -0.0110 C   0  0  0  0  0  0  0  0  0  0  0  0
    4.3408   -1.4928    0.0276 C   0  0  0  0  0  0  0  0  0  0  0  0
    3.0350   -0.9813    0.0736 C   0  0  0  0  0  0  0  0  0  0  0  0
    3.6858    2.7840    0.0556 C   0  0  0  0  0  0  0  0  0  0  0  0
    6.8620   -1.1548   -0.0596 C   0  0  0  0  0  0  0  0  0  0  0  0
    0.2672   -1.2948    3.1819 H   0  0  0  0  0  0  0  0  0  0  0  0
    0.6241    0.4213    2.8028 H   0  0  0  0  0  0  0  0  0  0  0  0
   -1.0686   -0.0898    3.1317 H   0  0  0  0  0  0  0  0  0  0  0  0
    1.2605    1.5931    1.0401 H   0  0  0  0  0  0  0  0  0  0  0  0
    1.2464    1.6795   -0.7151 H   0  0  0  0  0  0  0  0  0  0  0  0
    1.1720   -1.0639   -2.7219 H   0  0  0  0  0  0  0  0  0  0  0  0
   -0.4855   -0.6611   -3.2789 H   0  0  0  0  0  0  0  0  0  0  0  0
    0.5886    0.6234   -2.6539 H   0  0  0  0  0  0  0  0  0  0  0  0
   -1.2002   -3.5609   -1.8323 H   0  0  0  0  0  0  0  0  0  0  0  0
   -2.8029   -3.0322   -1.2338 H   0  0  0  0  0  0  0  0  0  0  0  0
   -2.0545   -2.2109   -2.6350 H   0  0  0  0  0  0  0  0  0  0  0  0
   -1.4582   -3.2372    2.2091 H   0  0  0  0  0  0  0  0  0  0  0  0
   -2.7124   -1.9487    2.2570 H   0  0  0  0  0  0  0  0  0  0  0  0
   -2.7748   -3.2181    0.9906 H   0  0  0  0  0  0  0  0  0  0  0  0
    6.0527    1.4551   -0.0283 H   0  0  0  0  0  0  0  0  0  0  0  0
    4.4992   -2.5828    0.0233 H   0  0  0  0  0  0  0  0  0  0  0  0
    2.1843   -1.6790    0.1082 H   0  0  0  0  0  0  0  0  0  0  0  0
    4.6470    3.3315    0.0310 H   0  0  0  0  0  0  0  0  0  0  0  0
    3.0824    3.1207   -0.8143 H   0  0  0  0  0  0  0  0  0  0  0  0
    3.1313    3.1130    0.9602 H   0  0  0  0  0  0  0  0  0  0  0  0
    6.8862   -2.2616   -0.0699 H   0  0  0  0  0  0  0  0  0  0  0  0
    7.3962   -0.7953   -0.9639 H   0  0  0  0  0  0  0  0  0  0  0  0
    7.4509   -0.8112    0.8165 H   0  0  0  0  0  0  0  0  0  0  0  0
  1  6  1  0  0  0  0
  2  7  1  0  0  0  0
  2  1  2  0  0  0  0
  3  8  1  1  0  0  0
  3  4  1  0  0  0  0
  3  2  1  0  0  0  0
  4  5  2  0  0  0  0
  5  1  1  0  0  0  0
  5 10  1  0  0  0  0
  6 20  1  0  0  0  0
  6 21  1  0  0  0  0
  6 19  1  0  0  0  0
  7 22  1  0  0  0  0
  9 28  1  0  0  0  0
  9  4  1  0  0  0  0
 10 30  1  0  0  0  0
 10 31  1  0  0  0  0
 11  7  1  0  0  0  0
 12 17  1  0  0  0  0
 12 11  2  0  0  0  0
 13 12  1  0  0  0  0
 14 13  2  0  0  0  0
 14 15  1  0  0  0  0
 15 16  2  0  0  0  0
 16 11  1  0  0  0  0
 16 35  1  0  0  0  0
 17 38  1  0  0  0  0
 18 14  1  0  0  0  0
 18 41  1  0  0  0  0
 23  7  1  0  0  0  0
 24  8  1  0  0  0  0
 25  8  1  0  0  0  0
 26  8  1  0  0  0  0
 27  9  1  0  0  0  0
 29  9  1  0  0  0  0
 32 10  1  0  0  0  0
 33 13  1  0  0  0  0
 34 15  1  0  0  0  0
 36 17  1  0  0  0  0
 37 17  1  0  0  0  0
 39 18  1  0  0  0  0
 40 18  1  0  0  0  0
M  END
