7
 OpenBabel05122313113D

 21 20  0  0  0  0  0  0  0  0999 V2000
    2.0531    0.1929    0.7389 P   0  0  0  0  0  0  0  0  0  0  0  0
    4.9817    2.3948    0.9514 F   0  0  0  0  0  0  0  0  0  0  0  0
    2.7723    2.7637    0.3364 F   0  0  0  0  0  0  0  0  0  0  0  0
    4.2987    2.0013   -1.2246 F   0  0  0  0  0  0  0  0  0  0  0  0
    3.5924    0.5359    0.5014 O   0  0  0  0  0  0  0  0  0  0  0  0
    3.9643    1.9861    0.1283 B   0  0  0  0  0  0  0  0  0  0  0  0
    1.5303   -1.4558    0.4675 C   0  0  0  0  0  2  0  0  0  0  0  0
    2.0446   -2.7181    1.1169 C   0  0  0  0  0  0  0  0  0  0  0  0
    1.1331   -3.9510    1.0203 C   0  0  0  0  0  0  0  0  0  0  0  0
    3.3729   -3.0029    0.3582 C   0  0  0  0  0  0  0  0  0  0  0  0
    2.3697   -2.4310    2.6016 C   0  0  0  0  0  0  0  0  0  0  0  0
    1.6611    0.7363    1.9997 H   0  0  0  0  0  0  0  0  0  0  0  0
    1.6336   -4.8114    1.5110 H   0  0  0  0  0  0  0  0  0  0  0  0
    0.9151   -4.2161   -0.0296 H   0  0  0  0  0  0  0  0  0  0  0  0
    0.1649   -3.7805    1.5288 H   0  0  0  0  0  0  0  0  0  0  0  0
    3.1696   -3.2327   -0.7062 H   0  0  0  0  0  0  0  0  0  0  0  0
    3.8745   -3.8786    0.8203 H   0  0  0  0  0  0  0  0  0  0  0  0
    4.0604   -2.1353    0.4051 H   0  0  0  0  0  0  0  0  0  0  0  0
    2.7885   -3.3395    3.0807 H   0  0  0  0  0  0  0  0  0  0  0  0
    1.4602   -2.1353    3.1613 H   0  0  0  0  0  0  0  0  0  0  0  0
    3.1198   -1.6196    2.6988 H   0  0  0  0  0  0  0  0  0  0  0  0
  1 12  1  0  0  0  0
  4  6  1  0  0  0  0
  5  1  1  0  0  0  0
  6  3  1  0  0  0  0
  6  5  1  0  0  0  0
  6  2  1  0  0  0  0
  7  1  1  0  0  0  0
  7  8  1  0  0  0  0
  8 11  1  0  0  0  0
  9  8  1  0  0  0  0
  9 13  1  0  0  0  0
  9 15  1  0  0  0  0
 10 18  1  0  0  0  0
 10 17  1  0  0  0  0
 10  8  1  0  0  0  0
 11 21  1  0  0  0  0
 11 19  1  0  0  0  0
 11 20  1  0  0  0  0
 14  9  1  0  0  0  0
 16 10  1  0  0  0  0
M  END
