1
 OpenBabel05122313113D

 43 45  0  0  1  0  0  0  0  0999 V2000
   -1.1909   -0.6664    0.2805 C   0  0  0  0  0  3  0  0  0  0  0  0
   -0.7258   -1.4083    1.3100 O   0  0  0  0  0  0  0  0  0  0  0  0
    0.6919   -1.1468    1.5771 C   0  0  0  0  0  0  0  0  0  0  0  0
    1.3931   -2.5012    1.4406 C   0  0  0  0  0  0  0  0  0  0  0  0
    2.4748   -2.4414    1.6653 H   0  0  0  0  0  0  0  0  0  0  0  0
    1.2693   -2.8926    0.4130 H   0  0  0  0  0  0  0  0  0  0  0  0
    0.9273   -3.2179    2.1440 H   0  0  0  0  0  0  0  0  0  0  0  0
    0.7457   -0.5581    2.9921 C   0  0  0  0  0  0  0  0  0  0  0  0
    1.7855   -0.3666    3.3209 H   0  0  0  0  0  0  0  0  0  0  0  0
    0.2810   -1.2705    3.7003 H   0  0  0  0  0  0  0  0  0  0  0  0
    0.1814    0.3936    3.0278 H   0  0  0  0  0  0  0  0  0  0  0  0
    1.0377   -0.1198    0.5013 C   0  0  1  0  0  3  0  0  0  0  0  0
   -0.1145    0.1160   -0.2348 C   0  0  0  0  0  0  0  0  0  0  0  0
   -0.2293    0.8235   -1.0598 H   0  0  0  0  0  0  0  0  0  0  0  0
    2.2331    0.5066    0.3569 N   0  0  0  0  0  0  0  0  0  0  0  0
    3.4716    0.0921    1.0023 C   0  0  0  0  0  0  0  0  0  0  0  0
    3.2244   -0.5236    1.8879 H   0  0  0  0  0  0  0  0  0  0  0  0
    3.9881    0.9936    1.3962 H   0  0  0  0  0  0  0  0  0  0  0  0
    4.4171   -0.6757    0.0915 C   0  0  0  0  0  0  0  0  0  0  0  0
    5.8046   -0.6331    0.3282 C   0  0  0  0  0  0  0  0  0  0  0  0
    6.1981   -0.0104    1.1480 H   0  0  0  0  0  0  0  0  0  0  0  0
    6.6878   -1.3741   -0.4703 C   0  0  0  0  0  0  0  0  0  0  0  0
    7.7698   -1.3310   -0.2739 H   0  0  0  0  0  0  0  0  0  0  0  0
    6.1936   -2.1604   -1.5234 C   0  0  0  0  0  0  0  0  0  0  0  0
    6.8861   -2.7375   -2.1544 H   0  0  0  0  0  0  0  0  0  0  0  0
    4.8131   -2.1995   -1.7727 C   0  0  0  0  0  0  0  0  0  0  0  0
    4.4182   -2.8074   -2.6007 H   0  0  0  0  0  0  0  0  0  0  0  0
    3.9295   -1.4620   -0.9697 C   0  0  0  0  0  0  0  0  0  0  0  0
    2.8487   -1.4922   -1.1766 H   0  0  0  0  0  0  0  0  0  0  0  0
    2.3392    1.5671   -0.6525 C   0  0  0  0  0  0  0  0  0  0  0  0
    2.0925    1.1611   -1.6581 H   0  0  0  0  0  0  0  0  0  0  0  0
    3.4067    1.8656   -0.6958 H   0  0  0  0  0  0  0  0  0  0  0  0
    1.4599    2.7682   -0.3520 C   0  0  0  0  0  0  0  0  0  0  0  0
    0.7635    3.4146   -1.3890 C   0  0  0  0  0  0  0  0  0  0  0  0
    0.8544    3.0391   -2.4212 H   0  0  0  0  0  0  0  0  0  0  0  0
   -0.0682    4.5109   -1.1168 C   0  0  0  0  0  0  0  0  0  0  0  0
   -0.6241    4.9917   -1.9353 H   0  0  0  0  0  0  0  0  0  0  0  0
   -0.2098    4.9751    0.1992 C   0  0  0  0  0  0  0  0  0  0  0  0
   -0.8732    5.8253    0.4167 H   0  0  0  0  0  0  0  0  0  0  0  0
    0.4868    4.3397    1.2397 C   0  0  0  0  0  0  0  0  0  0  0  0
    0.3752    4.6953    2.2753 H   0  0  0  0  0  0  0  0  0  0  0  0
    1.3153    3.2427    0.9653 C   0  0  0  0  0  0  0  0  0  0  0  0
    1.8394    2.7321    1.7887 H   0  0  0  0  0  0  0  0  0  0  0  0
  1  2  1  0  0  0  0
  2  3  1  0  0  0  0
  3  8  1  0  0  0  0
  4  3  1  0  0  0  0
  4  5  1  0  0  0  0
  4  7  1  0  0  0  0
  6  4  1  0  0  0  0
  8 11  1  0  0  0  0
  8  9  1  0  0  0  0
  8 10  1  0  0  0  0
 12 15  1  1  0  0  0
 12  3  1  0  0  0  0
 13  1  2  0  0  0  0
 13 12  1  0  0  0  0
 14 13  1  0  0  0  0
 15 16  1  0  0  0  0
 16 18  1  0  0  0  0
 16 17  1  0  0  0  0
 19 20  1  0  0  0  0
 19 16  1  0  0  0  0
 20 21  1  0  0  0  0
 22 23  1  0  0  0  0
 22 20  2  0  0  0  0
 24 22  1  0  0  0  0
 25 24  1  0  0  0  0
 26 24  2  0  0  0  0
 26 28  1  0  0  0  0
 27 26  1  0  0  0  0
 28 19  2  0  0  0  0
 29 28  1  0  0  0  0
 30 33  1  0  0  0  0
 30 15  1  0  0  0  0
 31 30  1  0  0  0  0
 32 30  1  0  0  0  0
 33 42  1  0  0  0  0
 34 36  1  0  0  0  0
 34 33  2  0  0  0  0
 35 34  1  0  0  0  0
 36 38  2  0  0  0  0
 37 36  1  0  0  0  0
 38 39  1  0  0  0  0
 38 40  1  0  0  0  0
 40 41  1  0  0  0  0
 42 40  2  0  0  0  0
 42 43  1  0  0  0  0
M  END
