2
 OpenBabel05122313113D

 18 18  0  0  0  0  0  0  0  0999 V2000
   -1.0843    0.8461   -1.3984 S   0  0  0  0  0  1  0  0  0  0  0  0
   -0.4318    0.7031    1.6390 C   0  0  0  0  0  3  0  0  0  0  0  0
   -1.7871    0.7858    1.7464 C   0  0  0  0  0  0  0  0  0  0  0  0
   -2.8481    0.5388    0.7693 C   0  0  0  0  0  0  0  0  0  0  0  0
   -2.6449    0.5199   -0.6440 C   0  0  0  0  0  0  0  0  0  0  0  0
   -3.7422    0.2755   -1.5013 C   0  0  0  0  0  0  0  0  0  0  0  0
   -5.0307    0.0633   -0.9950 C   0  0  0  0  0  0  0  0  0  0  0  0
   -5.2457    0.0850    0.3934 C   0  0  0  0  0  0  0  0  0  0  0  0
   -4.1638    0.3225    1.2488 C   0  0  0  0  0  0  0  0  0  0  0  0
    0.4083    1.0057    2.8557 C   0  0  0  0  0  0  0  0  0  0  0  0
   -2.1789    1.0382    2.7534 H   0  0  0  0  0  0  0  0  0  0  0  0
   -3.5633    0.2565   -2.5877 H   0  0  0  0  0  0  0  0  0  0  0  0
   -5.8659   -0.1241   -1.6875 H   0  0  0  0  0  0  0  0  0  0  0  0
   -6.2518   -0.0821    0.8068 H   0  0  0  0  0  0  0  0  0  0  0  0
   -4.3260    0.3469    2.3389 H   0  0  0  0  0  0  0  0  0  0  0  0
   -0.2152    1.2218    3.7518 H   0  0  0  0  0  0  0  0  0  0  0  0
    1.0701    1.8856    2.6998 H   0  0  0  0  0  0  0  0  0  0  0  0
    1.0903    0.1666    3.1067 H   0  0  0  0  0  0  0  0  0  0  0  0
  1  5  1  0  0  0  0
  2  3  2  0  0  0  0
  2 10  1  0  0  0  0
  3 11  1  0  0  0  0
  4  9  1  0  0  0  0
  4  3  1  0  0  0  0
  5  4  2  0  0  0  0
  6  7  2  0  0  0  0
  6  5  1  0  0  0  0
  7  8  1  0  0  0  0
  8 14  1  0  0  0  0
  8  9  2  0  0  0  0
  9 15  1  0  0  0  0
 10 18  1  0  0  0  0
 10 16  1  0  0  0  0
 12  6  1  0  0  0  0
 13  7  1  0  0  0  0
 17 10  1  0  0  0  0
M  END
