3
 OpenBabel05122313113D

 41 42  0  0  0  0  0  0  0  0999 V2000
   -2.4010    0.3645    0.0165 C   0  0  0  0  0  0  0  0  0  0  0  0
   -1.4400    0.6238    1.0407 C   0  0  0  0  0  0  0  0  0  0  0  0
   -0.6663    1.7697    0.6714 C   0  0  0  0  0  3  0  0  0  0  0  0
   -1.1448    2.2236   -0.5904 C   0  0  0  0  0  0  0  0  0  0  0  0
   -2.1840    1.3471   -1.0064 C   0  0  0  0  0  0  0  0  0  0  0  0
   -3.5568   -0.6243    0.1239 C   0  0  0  0  0  0  0  0  0  0  0  0
   -1.3453    0.0686    1.9814 H   0  0  0  0  0  0  0  0  0  0  0  0
    0.1351    2.2282    1.2623 H   0  0  0  0  0  0  0  0  0  0  0  0
   -0.7486    3.0672   -1.1654 H   0  0  0  0  0  0  0  0  0  0  0  0
   -2.7282    1.4129   -1.9544 H   0  0  0  0  0  0  0  0  0  0  0  0
   -4.3439   -0.6874   -1.2092 C   0  0  0  0  0  0  0  0  0  0  0  0
   -3.0352   -2.0484    0.4675 C   0  0  0  0  0  0  0  0  0  0  0  0
   -4.4633   -0.1257    1.2925 C   0  0  0  0  0  0  0  0  0  0  0  0
   -5.4390   -1.7603   -1.2207 C   0  0  0  0  0  0  0  0  0  0  0  0
   -4.7807    0.3069   -1.4353 H   0  0  0  0  0  0  0  0  0  0  0  0
   -3.6202   -0.9053   -2.0217 H   0  0  0  0  0  0  0  0  0  0  0  0
   -4.1214   -3.1322    0.4432 C   0  0  0  0  0  0  0  0  0  0  0  0
   -2.5403   -2.0289    1.4627 H   0  0  0  0  0  0  0  0  0  0  0  0
   -2.2584   -2.3134   -0.2798 H   0  0  0  0  0  0  0  0  0  0  0  0
   -5.0649    1.2710    1.1276 C   0  0  0  0  0  0  0  0  0  0  0  0
   -3.8597   -0.1508    2.2270 H   0  0  0  0  0  0  0  0  0  0  0  0
   -5.2762   -0.8638    1.4444 H   0  0  0  0  0  0  0  0  0  0  0  0
   -4.8641   -3.1445   -0.8976 C   0  0  0  0  0  0  0  0  0  0  0  0
   -5.9322   -1.7702   -2.2151 H   0  0  0  0  0  0  0  0  0  0  0  0
   -6.2370   -1.5077   -0.4872 H   0  0  0  0  0  0  0  0  0  0  0  0
   -4.8481   -2.9709    1.2694 H   0  0  0  0  0  0  0  0  0  0  0  0
   -3.6553   -4.1210    0.6384 H   0  0  0  0  0  0  0  0  0  0  0  0
   -5.8028    1.8015    2.3713 C   0  0  0  0  0  0  0  0  0  0  0  0
   -5.7739    1.2815    0.2694 H   0  0  0  0  0  0  0  0  0  0  0  0
   -4.2585    1.9891    0.8631 H   0  0  0  0  0  0  0  0  0  0  0  0
   -5.6665   -3.9117   -0.8910 H   0  0  0  0  0  0  0  0  0  0  0  0
   -4.1526   -3.4349   -1.7026 H   0  0  0  0  0  0  0  0  0  0  0  0
   -6.2372    3.2565    2.1566 C   0  0  0  0  0  0  0  0  0  0  0  0
   -7.0022    0.9273    2.7607 C   0  0  0  0  0  0  0  0  0  0  0  0
   -5.0782    1.7838    3.2191 H   0  0  0  0  0  0  0  0  0  0  0  0
   -5.3732    3.9063    1.9077 H   0  0  0  0  0  0  0  0  0  0  0  0
   -6.7278    3.6732    3.0599 H   0  0  0  0  0  0  0  0  0  0  0  0
   -6.9628    3.3313    1.3184 H   0  0  0  0  0  0  0  0  0  0  0  0
   -6.7036   -0.1109    3.0087 H   0  0  0  0  0  0  0  0  0  0  0  0
   -7.7366    0.8756    1.9279 H   0  0  0  0  0  0  0  0  0  0  0  0
   -7.5297    1.3402    3.6447 H   0  0  0  0  0  0  0  0  0  0  0  0
  1  6  1  0  0  0  0
  1  2  2  0  0  0  0
  2  7  1  0  0  0  0
  3  2  1  0  0  0  0
  3  8  1  0  0  0  0
  4  3  1  0  0  0  0
  5  4  2  0  0  0  0
  5  1  1  0  0  0  0
  6 12  1  0  0  0  0
  6 13  1  0  0  0  0
  9  4  1  0  0  0  0
 10  5  1  0  0  0  0
 11  6  1  0  0  0  0
 12 18  1  0  0  0  0
 13 22  1  0  0  0  0
 13 21  1  0  0  0  0
 14 11  1  0  0  0  0
 14 23  1  0  0  0  0
 14 25  1  0  0  0  0
 15 11  1  0  0  0  0
 16 11  1  0  0  0  0
 17 12  1  0  0  0  0
 17 27  1  0  0  0  0
 17 26  1  0  0  0  0
 19 12  1  0  0  0  0
 20 13  1  0  0  0  0
 20 28  1  0  0  0  0
 23 31  1  0  0  0  0
 23 17  1  0  0  0  0
 24 14  1  0  0  0  0
 28 34  1  0  0  0  0
 28 35  1  0  0  0  0
 29 20  1  0  0  0  0
 30 20  1  0  0  0  0
 32 23  1  0  0  0  0
 33 28  1  0  0  0  0
 33 37  1  0  0  0  0
 34 39  1  0  0  0  0
 34 41  1  0  0  0  0
 36 33  1  0  0  0  0
 38 33  1  0  0  0  0
 40 34  1  0  0  0  0
M  END
