5
 OpenBabel05122313113D

 27 29  0  0  0  0  0  0  0  0999 V2000
    1.5854   -2.7264   -0.0935 N   0  0  0  0  0  0  0  0  0  0  0  0
   -5.9826    0.0799   -0.5488 O   0  0  0  0  0  0  0  0  0  0  0  0
   -5.8330   -0.9951    0.0366 N   0  0  0  0  0  0  0  0  0  0  0  0
   -0.5510   -3.0112   -0.2086 N   0  0  0  0  0  0  0  0  0  0  0  0
    0.4062   -2.0293   -0.1479 C   0  0  0  0  0  2  0  0  0  0  0  0
   -2.8100   -3.1224    0.7623 C   0  0  0  0  0  0  0  0  0  0  0  0
   -2.4500   -3.8282    1.5248 H   0  0  0  0  0  0  0  0  0  0  0  0
   -4.5073   -1.6511   -0.1139 C   0  0  0  0  0  0  0  0  0  0  0  0
   -1.9393   -2.6624   -0.2396 C   0  0  0  0  0  0  0  0  0  0  0  0
   -6.6616   -1.5523    0.7457 O   0  0  0  0  0  0  0  0  0  0  0  0
   -4.1166   -2.6181    0.8204 C   0  0  0  0  0  0  0  0  0  0  0  0
   -4.8244   -2.9266    1.6019 H   0  0  0  0  0  0  0  0  0  0  0  0
    2.4877   -5.0038   -0.0593 C   0  0  0  0  0  0  0  0  0  0  0  0
    2.3183   -6.0891   -0.0789 H   0  0  0  0  0  0  0  0  0  0  0  0
    2.8669   -2.1984   -0.0161 C   0  0  0  0  0  0  0  0  0  0  0  0
    2.9292   -1.1024   -0.0030 H   0  0  0  0  0  0  0  0  0  0  0  0
    1.3638   -4.1287   -0.1079 C   0  0  0  0  0  0  0  0  0  0  0  0
   -3.6722   -1.2371   -1.1592 C   0  0  0  0  0  0  0  0  0  0  0  0
   -4.0430   -0.5047   -1.8888 H   0  0  0  0  0  0  0  0  0  0  0  0
   -2.3774   -1.7593   -1.2283 C   0  0  0  0  0  0  0  0  0  0  0  0
   -1.6943   -1.4638   -2.0368 H   0  0  0  0  0  0  0  0  0  0  0  0
    3.7553   -4.4661    0.0151 C   0  0  0  0  0  0  0  0  0  0  0  0
    4.6325   -5.1271    0.0567 H   0  0  0  0  0  0  0  0  0  0  0  0
   -0.0167   -4.2870   -0.1751 C   0  0  0  0  0  0  0  0  0  0  0  0
   -0.6305   -5.1894   -0.2395 H   0  0  0  0  0  0  0  0  0  0  0  0
    3.9434   -3.0424    0.0405 C   0  0  0  0  0  0  0  0  0  0  0  0
    4.9482   -2.6013    0.1059 H   0  0  0  0  0  0  0  0  0  0  0  0
  1 15  1  0  0  0  0
  2  3  2  0  0  0  0
  3 10  2  0  0  0  0
  4 24  1  0  0  0  0
  4  5  1  0  0  0  0
  5  1  1  0  0  0  0
  6 11  1  0  0  0  0
  6  7  1  0  0  0  0
  8  3  1  0  0  0  0
  8 11  2  0  0  0  0
  9  4  1  0  0  0  0
  9  6  2  0  0  0  0
 11 12  1  0  0  0  0
 13 22  2  0  0  0  0
 14 13  1  0  0  0  0
 15 16  1  0  0  0  0
 15 26  2  0  0  0  0
 17  1  1  0  0  0  0
 17 13  1  0  0  0  0
 18  8  1  0  0  0  0
 19 18  1  0  0  0  0
 20 18  2  0  0  0  0
 20  9  1  0  0  0  0
 21 20  1  0  0  0  0
 22 26  1  0  0  0  0
 22 23  1  0  0  0  0
 24 17  2  0  0  0  0
 25 24  1  0  0  0  0
 26 27  1  0  0  0  0
M  END
