2
 OpenBabel05122313113D

 36 39  0  0  1  0  0  0  0  0999 V2000
    1.4564   -1.2998    0.1272 C   0  0  0  0  0  3  0  0  0  0  0  0
    1.6332   -0.8425   -1.2264 C   0  0  0  0  0  3  0  0  0  0  0  0
    1.8594    0.5566   -1.3601 C   0  0  0  0  0  3  0  0  0  0  0  0
    1.8643    1.2905   -0.1219 C   0  0  0  0  0  3  0  0  0  0  0  0
    0.7913    1.0155    0.9220 C   0  0  2  0  0  0  0  0  0  0  0  0
    0.5475   -0.5152    1.0668 C   0  0  1  0  0  0  0  0  0  0  0  0
   -0.8569   -0.7927    0.7515 N   0  0  0  0  0  0  0  0  0  0  0  0
   -1.4493    0.3265    0.4336 C   0  0  0  0  0  0  0  0  0  0  0  0
   -0.5820    1.5135    0.5287 C   0  0  0  0  0  0  0  0  0  0  0  0
   -1.0591    2.7539    0.2673 C   0  0  0  0  0  0  0  0  0  0  0  0
   -2.4660    2.9245   -0.1518 C   0  0  0  0  0  0  0  0  0  0  0  0
   -2.9141    4.0449   -0.4229 O   0  0  0  0  0  0  0  0  0  0  0  0
   -3.3420    1.7058   -0.2638 C   0  0  0  0  0  0  0  0  0  0  0  0
   -4.7361    1.9885   -0.7370 C   0  0  0  0  0  0  0  0  0  0  0  0
   -2.8576    0.4472    0.0326 C   0  0  0  0  0  0  0  0  0  0  0  0
   -3.6838   -0.7862   -0.0175 C   0  0  0  0  0  0  0  0  0  0  0  0
   -3.2390   -1.9261   -0.7250 C   0  0  0  0  0  0  0  0  0  0  0  0
   -4.0253   -3.0840   -0.7786 C   0  0  0  0  0  0  0  0  0  0  0  0
   -5.2600   -3.1341   -0.1115 C   0  0  0  0  0  0  0  0  0  0  0  0
   -5.7047   -2.0154    0.6100 C   0  0  0  0  0  0  0  0  0  0  0  0
   -4.9251   -0.8513    0.6536 C   0  0  0  0  0  0  0  0  0  0  0  0
    1.4614   -2.3887    0.2933 H   0  0  0  0  0  0  0  0  0  0  0  0
    1.7088   -1.5231   -2.0876 H   0  0  0  0  0  0  0  0  0  0  0  0
    2.1241    1.0086   -2.3278 H   0  0  0  0  0  0  0  0  0  0  0  0
    2.2320    2.3288   -0.1590 H   0  0  0  0  0  0  0  0  0  0  0  0
    1.1022    1.4654    1.8875 H   0  0  0  0  0  0  0  0  0  0  0  0
    0.7328   -0.8652    2.1055 H   0  0  0  0  0  0  0  0  0  0  0  0
   -0.4524    3.6705    0.3269 H   0  0  0  0  0  0  0  0  0  0  0  0
   -5.3690    2.3664    0.0947 H   0  0  0  0  0  0  0  0  0  0  0  0
   -5.2254    1.0912   -1.1570 H   0  0  0  0  0  0  0  0  0  0  0  0
   -4.7126    2.8063   -1.4832 H   0  0  0  0  0  0  0  0  0  0  0  0
   -2.2679   -1.8954   -1.2376 H   0  0  0  0  0  0  0  0  0  0  0  0
   -3.6686   -3.9586   -1.3436 H   0  0  0  0  0  0  0  0  0  0  0  0
   -5.8732   -4.0473   -0.1498 H   0  0  0  0  0  0  0  0  0  0  0  0
   -6.6649   -2.0495    1.1470 H   0  0  0  0  0  0  0  0  0  0  0  0
   -5.2690    0.0164    1.2354 H   0  0  0  0  0  0  0  0  0  0  0  0
  1 22  1  0  0  0  0
  1  6  1  0  0  0  0
  2  1  1  0  0  0  0
  3  2  1  0  0  0  0
  3  4  1  0  0  0  0
  4  5  1  0  0  0  0
  5  6  1  0  0  0  0
  5 26  1  1  0  0  0
  6 27  1  1  0  0  0
  7  6  1  0  0  0  0
  8  9  1  0  0  0  0
  8  7  2  0  0  0  0
  9  5  1  0  0  0  0
 10 28  1  0  0  0  0
 10  9  2  0  0  0  0
 11 10  1  0  0  0  0
 12 11  2  0  0  0  0
 13 11  1  0  0  0  0
 13 15  2  0  0  0  0
 14 13  1  0  0  0  0
 14 29  1  0  0  0  0
 15  8  1  0  0  0  0
 16 15  1  0  0  0  0
 16 21  1  0  0  0  0
 17 16  2  0  0  0  0
 18 17  1  0  0  0  0
 18 19  2  0  0  0  0
 19 20  1  0  0  0  0
 20 21  2  0  0  0  0
 20 35  1  0  0  0  0
 21 36  1  0  0  0  0
 23  2  1  0  0  0  0
 24  3  1  0  0  0  0
 25  4  1  0  0  0  0
 30 14  1  0  0  0  0
 31 14  1  0  0  0  0
 32 17  1  0  0  0  0
 33 18  1  0  0  0  0
 34 19  1  0  0  0  0
M  END
