4
 OpenBabel05122313113D

 26 27  0  0  1  0  0  0  0  0999 V2000
    0.2060    1.5936    0.7847 C   0  0  2  0  0  0  0  0  0  0  0  0
   -0.9006    2.2378   -0.1240 C   0  0  2  0  0  0  0  0  0  0  0  0
   -0.3207    2.9885    1.0438 C   0  0  0  0  0  0  0  0  0  0  0  0
    1.4942    1.2966    0.1247 C   0  0  0  0  0  2  0  0  0  0  0  0
   -2.1948    1.6263   -0.1109 C   0  0  0  0  0  0  0  0  0  0  0  0
   -3.2678    1.0255   -0.1050 C   0  0  0  0  0  0  0  0  0  0  0  0
   -4.4721    0.2584   -0.1089 C   0  0  0  0  0  0  0  0  0  0  0  0
   -4.4034   -1.1494   -0.2741 C   0  0  0  0  0  0  0  0  0  0  0  0
   -5.5747   -1.9153   -0.2785 C   0  0  0  0  0  0  0  0  0  0  0  0
   -6.8273   -1.2982   -0.1213 C   0  0  0  0  0  0  0  0  0  0  0  0
   -6.9047    0.0948    0.0425 C   0  0  0  0  0  0  0  0  0  0  0  0
   -5.7398    0.8713    0.0503 C   0  0  0  0  0  0  0  0  0  0  0  0
    1.9494    2.4230   -0.4114 O   0  0  0  0  0  0  0  0  0  0  0  0
    3.1494    2.4946   -1.1882 C   0  0  0  0  0  0  0  0  0  0  0  0
   -0.1843    0.7986    1.4318 H   0  0  0  0  0  0  0  0  0  0  0  0
   -0.5200    2.5462   -1.1140 H   0  0  0  0  0  0  0  0  0  0  0  0
   -0.9513    3.1101    1.9364 H   0  0  0  0  0  0  0  0  0  0  0  0
    0.3531    3.8236    0.8052 H   0  0  0  0  0  0  0  0  0  0  0  0
   -3.4174   -1.6214   -0.3947 H   0  0  0  0  0  0  0  0  0  0  0  0
   -5.5099   -3.0065   -0.4064 H   0  0  0  0  0  0  0  0  0  0  0  0
   -7.7457   -1.9047   -0.1262 H   0  0  0  0  0  0  0  0  0  0  0  0
   -7.8842    0.5813    0.1660 H   0  0  0  0  0  0  0  0  0  0  0  0
   -5.7947    1.9621    0.1785 H   0  0  0  0  0  0  0  0  0  0  0  0
    3.2204    3.5426   -1.5310 H   0  0  0  0  0  0  0  0  0  0  0  0
    3.0974    1.8143   -2.0580 H   0  0  0  0  0  0  0  0  0  0  0  0
    4.0285    2.2417   -0.5672 H   0  0  0  0  0  0  0  0  0  0  0  0
  1  3  1  0  0  0  0
  1 15  1  1  0  0  0
  2 16  1  6  0  0  0
  2  5  1  0  0  0  0
  2  1  1  0  0  0  0
  2  3  1  0  0  0  0
  3 17  1  0  0  0  0
  4  1  1  0  0  0  0
  5  6  3  0  0  0  0
  7  6  1  0  0  0  0
  7 12  1  0  0  0  0
  8  7  2  0  0  0  0
  9  8  1  0  0  0  0
  9 10  2  0  0  0  0
 10 11  1  0  0  0  0
 11 12  2  0  0  0  0
 11 22  1  0  0  0  0
 12 23  1  0  0  0  0
 13  4  1  0  0  0  0
 14 26  1  0  0  0  0
 14 13  1  0  0  0  0
 18  3  1  0  0  0  0
 19  8  1  0  0  0  0
 20  9  1  0  0  0  0
 21 10  1  0  0  0  0
 24 14  1  0  0  0  0
 25 14  1  0  0  0  0
M  END
