2
 OpenBabel05122313113D

 18 18  0  0  0  0  0  0  0  0999 V2000
    1.8836    2.9696   -0.6094 Se  0  0  0  0  0  0  0  0  0  0  0  0
    0.5419    1.7511   -0.1965 C   0  0  0  0  0  1  0  0  0  0  0  0
    4.2736    1.0589   -0.3808 C   0  0  0  0  0  0  0  0  0  0  0  0
    6.5621    0.2726   -0.9135 C   0  0  0  0  0  0  0  0  0  0  0  0
    6.7168    1.1584   -1.5464 H   0  0  0  0  0  0  0  0  0  0  0  0
    7.5771   -0.6795   -0.7698 C   0  0  0  0  0  0  0  0  0  0  0  0
    8.5335   -0.5311   -1.2960 H   0  0  0  0  0  0  0  0  0  0  0  0
    7.4021   -1.8268    0.0302 C   0  0  0  0  0  0  0  0  0  0  0  0
    5.3239    0.1072   -0.2454 C   0  0  0  0  0  0  0  0  0  0  0  0
    8.4961   -2.8517    0.1871 C   0  0  0  0  0  0  0  0  0  0  0  0
    8.1460   -3.8645   -0.1030 H   0  0  0  0  0  0  0  0  0  0  0  0
    8.8332   -2.9219    1.2429 H   0  0  0  0  0  0  0  0  0  0  0  0
    9.3795   -2.6064   -0.4333 H   0  0  0  0  0  0  0  0  0  0  0  0
    3.3380    1.8572   -0.4821 C   0  0  0  0  0  0  0  0  0  0  0  0
    5.1413   -1.0442    0.5665 C   0  0  0  0  0  0  0  0  0  0  0  0
    4.1862   -1.1783    1.0945 H   0  0  0  0  0  0  0  0  0  0  0  0
    6.1641   -1.9868    0.6910 C   0  0  0  0  0  0  0  0  0  0  0  0
    6.0010   -2.8740    1.3239 H   0  0  0  0  0  0  0  0  0  0  0  0
  1 14  1  0  0  0  0
  1  2  1  0  0  0  0
  3  9  1  0  0  0  0
  4  6  2  0  0  0  0
  4  9  1  0  0  0  0
  5  4  1  0  0  0  0
  6  8  1  0  0  0  0
  7  6  1  0  0  0  0
  8 10  1  0  0  0  0
  8 17  2  0  0  0  0
  9 15  2  0  0  0  0
 10 12  1  0  0  0  0
 11 10  1  0  0  0  0
 13 10  1  0  0  0  0
 14  3  3  0  0  0  0
 15 17  1  0  0  0  0
 15 16  1  0  0  0  0
 17 18  1  0  0  0  0
M  END
