4
 OpenBabel05122313113D

 39 39  0  0  0  0  0  0  0  0999 V2000
   -3.3269   -2.3573   -0.7402 Si  0  0  0  0  0  0  0  0  0  0  0  0
   -2.5085    0.3157    0.4815 C   0  0  0  0  0  0  0  0  0  0  0  0
   -1.5722   -0.1704    1.4836 C   0  0  0  0  0  0  0  0  0  0  0  0
   -0.8682   -1.3768    1.2473 C   0  0  0  0  0  2  0  0  0  0  0  0
   -1.9949    2.7629    0.8853 C   0  0  0  0  0  0  0  0  0  0  0  0
   -0.3600   -2.4646    1.8558 C   0  0  0  0  0  3  0  0  0  0  0  0
   -4.2290    2.1174    0.1782 C   0  0  0  0  0  0  0  0  0  0  0  0
   -2.8390   -0.5230   -0.6241 C   0  0  0  0  0  3  0  0  0  0  0  0
   -2.9111    1.7504    0.5226 C   0  0  0  0  0  0  0  0  0  0  0  0
   -2.3887    4.1068    0.9018 C   0  0  0  0  0  0  0  0  0  0  0  0
   -0.8576   -2.8917    3.2145 C   0  0  0  0  0  0  0  0  0  0  0  0
   -3.9233   -3.0346    0.9245 C   0  0  0  0  0  0  0  0  0  0  0  0
    0.7208   -3.3070    1.2384 C   0  0  0  0  0  0  0  0  0  0  0  0
   -3.7064    4.4607    0.5667 C   0  0  0  0  0  0  0  0  0  0  0  0
   -1.9717   -3.4399   -1.4906 C   0  0  0  0  0  0  0  0  0  0  0  0
   -4.6251    3.4623    0.2058 C   0  0  0  0  0  0  0  0  0  0  0  0
   -4.7983   -2.3530   -1.9413 C   0  0  0  0  0  0  0  0  0  0  0  0
   -3.2442    0.0512   -1.4787 H   0  0  0  0  0  0  0  0  0  0  0  0
   -1.2923    0.5184    2.3015 H   0  0  0  0  0  0  0  0  0  0  0  0
   -0.9495    2.4962    1.1015 H   0  0  0  0  0  0  0  0  0  0  0  0
   -1.6529    4.8831    1.1613 H   0  0  0  0  0  0  0  0  0  0  0  0
   -4.0154    5.5171    0.5786 H   0  0  0  0  0  0  0  0  0  0  0  0
   -5.6585    3.7329   -0.0593 H   0  0  0  0  0  0  0  0  0  0  0  0
   -4.9466    1.3321   -0.1039 H   0  0  0  0  0  0  0  0  0  0  0  0
   -1.2345   -3.9379    3.1987 H   0  0  0  0  0  0  0  0  0  0  0  0
   -1.6676   -2.2366    3.5878 H   0  0  0  0  0  0  0  0  0  0  0  0
   -0.0211   -2.8667    3.9488 H   0  0  0  0  0  0  0  0  0  0  0  0
    1.6015   -3.3677    1.9135 H   0  0  0  0  0  0  0  0  0  0  0  0
    1.0560   -2.8942    0.2688 H   0  0  0  0  0  0  0  0  0  0  0  0
    0.3692   -4.3491    1.0720 H   0  0  0  0  0  0  0  0  0  0  0  0
   -1.1266   -3.5735   -0.7893 H   0  0  0  0  0  0  0  0  0  0  0  0
   -1.5768   -2.9587   -2.4081 H   0  0  0  0  0  0  0  0  0  0  0  0
   -2.3751   -4.4398   -1.7539 H   0  0  0  0  0  0  0  0  0  0  0  0
   -4.3439   -4.0529    0.7891 H   0  0  0  0  0  0  0  0  0  0  0  0
   -4.7210   -2.3898    1.3469 H   0  0  0  0  0  0  0  0  0  0  0  0
   -3.1018   -3.0955    1.6622 H   0  0  0  0  0  0  0  0  0  0  0  0
   -5.1875   -3.3805   -2.0976 H   0  0  0  0  0  0  0  0  0  0  0  0
   -4.4937   -1.9510   -2.9298 H   0  0  0  0  0  0  0  0  0  0  0  0
   -5.6318   -1.7272   -1.5604 H   0  0  0  0  0  0  0  0  0  0  0  0
  1  8  1  0  0  0  0
  1 12  1  0  0  0  0
  2  9  1  0  0  0  0
  2  3  2  0  0  0  0
  3 19  1  0  0  0  0
  4  3  1  0  0  0  0
  4  6  1  0  0  0  0
  5 10  1  0  0  0  0
  5 20  1  0  0  0  0
  6 11  1  0  0  0  0
  7 16  2  0  0  0  0
  7  9  1  0  0  0  0
  8  2  1  0  0  0  0
  9  5  2  0  0  0  0
 10 21  1  0  0  0  0
 11 26  1  0  0  0  0
 11 27  1  0  0  0  0
 12 35  1  0  0  0  0
 12 36  1  0  0  0  0
 13  6  1  0  0  0  0
 13 28  1  0  0  0  0
 14 22  1  0  0  0  0
 14 10  2  0  0  0  0
 15 31  1  0  0  0  0
 15  1  1  0  0  0  0
 16 14  1  0  0  0  0
 17 39  1  0  0  0  0
 17  1  1  0  0  0  0
 18  8  1  0  0  0  0
 23 16  1  0  0  0  0
 24  7  1  0  0  0  0
 25 11  1  0  0  0  0
 29 13  1  0  0  0  0
 30 13  1  0  0  0  0
 32 15  1  0  0  0  0
 33 15  1  0  0  0  0
 34 12  1  0  0  0  0
 37 17  1  0  0  0  0
 38 17  1  0  0  0  0
M  END
