3
 OpenBabel05122313113D

 43 45  0  0  0  0  0  0  0  0999 V2000
   -2.9422    1.1182   -0.3187 N   0  0  0  0  0  0  0  0  0  0  0  0
   -2.9803   -1.0245    0.5993 N   0  0  0  0  0  0  0  0  0  0  0  0
   -2.2676    0.0315    0.1249 C   0  0  0  0  0  2  0  0  0  0  0  0
   -4.3512    1.3695    0.0114 C   0  0  0  0  0  0  0  0  0  0  0  0
   -4.5081    2.4664    0.0100 H   0  0  0  0  0  0  0  0  0  0  0  0
   -4.5145    1.0304    1.0549 H   0  0  0  0  0  0  0  0  0  0  0  0
   -5.3017    0.6453   -0.9415 C   0  0  0  0  0  0  0  0  0  0  0  0
   -5.3257    1.1499   -1.9297 H   0  0  0  0  0  0  0  0  0  0  0  0
   -6.3330    0.7025   -0.5326 H   0  0  0  0  0  0  0  0  0  0  0  0
   -4.8525   -0.8143   -1.1045 C   0  0  0  0  0  0  0  0  0  0  0  0
   -5.6884   -1.4354   -1.4853 H   0  0  0  0  0  0  0  0  0  0  0  0
   -4.0427   -0.8849   -1.8609 H   0  0  0  0  0  0  0  0  0  0  0  0
   -4.3475   -1.4344    0.1973 C   0  0  0  0  0  0  0  0  0  0  0  0
   -5.0628   -1.2542    1.0329 H   0  0  0  0  0  0  0  0  0  0  0  0
   -4.2931   -2.5353    0.0681 H   0  0  0  0  0  0  0  0  0  0  0  0
   -2.2825    2.1425   -1.1258 C   0  0  0  0  0  0  0  0  0  0  0  0
   -2.9803    2.4381   -1.9391 H   0  0  0  0  0  0  0  0  0  0  0  0
   -1.4200    1.6602   -1.6328 H   0  0  0  0  0  0  0  0  0  0  0  0
   -1.8182    3.3744   -0.3746 C   0  0  0  0  0  0  0  0  0  0  0  0
   -1.6222    3.3721    1.0179 C   0  0  0  0  0  0  0  0  0  0  0  0
   -1.8359    2.4644    1.6004 H   0  0  0  0  0  0  0  0  0  0  0  0
   -1.1047    4.5060    1.6647 C   0  0  0  0  0  0  0  0  0  0  0  0
   -0.9434    4.4770    2.7530 H   0  0  0  0  0  0  0  0  0  0  0  0
   -0.7784    5.6557    0.9304 C   0  0  0  0  0  0  0  0  0  0  0  0
   -0.3719    6.5432    1.4390 H   0  0  0  0  0  0  0  0  0  0  0  0
   -0.9739    5.6668   -0.4617 C   0  0  0  0  0  0  0  0  0  0  0  0
   -0.7243    6.5646   -1.0480 H   0  0  0  0  0  0  0  0  0  0  0  0
   -1.4921    4.5350   -1.1067 C   0  0  0  0  0  0  0  0  0  0  0  0
   -1.6402    4.5464   -2.1990 H   0  0  0  0  0  0  0  0  0  0  0  0
   -2.3239   -2.0022    1.4695 C   0  0  0  0  0  0  0  0  0  0  0  0
   -3.0385   -2.2616    2.2813 H   0  0  0  0  0  0  0  0  0  0  0  0
   -1.4733   -1.4887    1.9660 H   0  0  0  0  0  0  0  0  0  0  0  0
   -1.8360   -3.2724    0.8002 C   0  0  0  0  0  0  0  0  0  0  0  0
   -1.6481   -3.3654   -0.5907 C   0  0  0  0  0  0  0  0  0  0  0  0
   -1.8741   -2.5031   -1.2349 H   0  0  0  0  0  0  0  0  0  0  0  0
   -1.1215   -4.5355   -1.1616 C   0  0  0  0  0  0  0  0  0  0  0  0
   -0.9705   -4.5802   -2.2509 H   0  0  0  0  0  0  0  0  0  0  0  0
   -0.7726   -5.6262   -0.3514 C   0  0  0  0  0  0  0  0  0  0  0  0
   -0.3582   -6.5421   -0.7999 H   0  0  0  0  0  0  0  0  0  0  0  0
   -0.9559   -5.5408    1.0398 C   0  0  0  0  0  0  0  0  0  0  0  0
   -0.6870   -6.3907    1.6859 H   0  0  0  0  0  0  0  0  0  0  0  0
   -1.4872   -4.3745    1.6081 C   0  0  0  0  0  0  0  0  0  0  0  0
   -1.6269   -4.3118    2.6996 H   0  0  0  0  0  0  0  0  0  0  0  0
  1  4  1  0  0  0  0
  1  3  1  0  0  0  0
  2 30  1  0  0  0  0
  3  2  1  0  0  0  0
  4  6  1  0  0  0  0
  5  4  1  0  0  0  0
  7  9  1  0  0  0  0
  7  4  1  0  0  0  0
  8  7  1  0  0  0  0
 10  7  1  0  0  0  0
 10 13  1  0  0  0  0
 11 10  1  0  0  0  0
 12 10  1  0  0  0  0
 13  2  1  0  0  0  0
 13 14  1  0  0  0  0
 15 13  1  0  0  0  0
 16 19  1  0  0  0  0
 16  1  1  0  0  0  0
 17 16  1  0  0  0  0
 18 16  1  0  0  0  0
 19 20  1  0  0  0  0
 20 21  1  0  0  0  0
 20 22  2  0  0  0  0
 22 23  1  0  0  0  0
 24 25  1  0  0  0  0
 24 22  1  0  0  0  0
 26 24  2  0  0  0  0
 27 26  1  0  0  0  0
 28 26  1  0  0  0  0
 28 19  2  0  0  0  0
 29 28  1  0  0  0  0
 30 32  1  0  0  0  0
 30 31  1  0  0  0  0
 33 30  1  0  0  0  0
 33 42  1  0  0  0  0
 34 33  2  0  0  0  0
 35 34  1  0  0  0  0
 36 34  1  0  0  0  0
 36 38  2  0  0  0  0
 37 36  1  0  0  0  0
 38 40  1  0  0  0  0
 39 38  1  0  0  0  0
 40 42  2  0  0  0  0
 40 41  1  0  0  0  0
 42 43  1  0  0  0  0
M  END
