3
 OpenBabel05122313113D

 40 42  0  0  0  0  0  0  0  0999 V2000
    1.1623   -1.2064   -1.4009 N   0  0  0  0  0  0  0  0  0  0  0  0
   -1.1615   -1.2071   -1.4010 N   0  0  0  0  0  0  0  0  0  0  0  0
    0.0002   -0.5502   -1.1682 C   0  0  0  0  0  2  0  0  0  0  0  0
    1.2389   -2.6103   -1.8200 C   0  0  0  0  0  0  0  0  0  0  0  0
    2.1527   -3.0466   -1.3681 H   0  0  0  0  0  0  0  0  0  0  0  0
    1.3593   -2.6619   -2.9265 H   0  0  0  0  0  0  0  0  0  0  0  0
    0.0011   -3.3679   -1.3686 C   0  0  0  0  0  0  0  0  0  0  0  0
    0.0014   -4.3935   -1.7858 H   0  0  0  0  0  0  0  0  0  0  0  0
    0.0013   -3.4530   -0.2619 H   0  0  0  0  0  0  0  0  0  0  0  0
   -1.2373   -2.6111   -1.8199 C   0  0  0  0  0  0  0  0  0  0  0  0
   -1.3579   -2.6630   -2.9262 H   0  0  0  0  0  0  0  0  0  0  0  0
   -2.1506   -3.0480   -1.3676 H   0  0  0  0  0  0  0  0  0  0  0  0
    2.4614   -0.5630   -1.1765 C   0  0  0  0  0  0  0  0  0  0  0  0
    2.2688    0.5262   -1.0743 H   0  0  0  0  0  0  0  0  0  0  0  0
    3.0894   -0.7139   -2.0804 H   0  0  0  0  0  0  0  0  0  0  0  0
    3.1706   -1.1000    0.0500 C   0  0  0  0  0  0  0  0  0  0  0  0
    4.4242   -1.7309   -0.0519 C   0  0  0  0  0  0  0  0  0  0  0  0
    4.9027   -1.8282   -1.0401 H   0  0  0  0  0  0  0  0  0  0  0  0
    5.0706   -2.2277    1.0919 C   0  0  0  0  0  0  0  0  0  0  0  0
    6.0519   -2.7172    0.9980 H   0  0  0  0  0  0  0  0  0  0  0  0
    4.4640   -2.1001    2.3501 C   0  0  0  0  0  0  0  0  0  0  0  0
    4.9685   -2.4877    3.2481 H   0  0  0  0  0  0  0  0  0  0  0  0
    3.2116   -1.4713    2.4610 C   0  0  0  0  0  0  0  0  0  0  0  0
    2.7365   -1.3592    3.4474 H   0  0  0  0  0  0  0  0  0  0  0  0
    2.5684   -0.9754    1.3194 C   0  0  0  0  0  0  0  0  0  0  0  0
    1.5920   -0.4708    1.4042 H   0  0  0  0  0  0  0  0  0  0  0  0
   -2.4610   -0.5643   -1.1769 C   0  0  0  0  0  0  0  0  0  0  0  0
   -3.0888   -0.7160   -2.0809 H   0  0  0  0  0  0  0  0  0  0  0  0
   -2.2690    0.5249   -1.0752 H   0  0  0  0  0  0  0  0  0  0  0  0
   -3.1699   -1.1013    0.0497 C   0  0  0  0  0  0  0  0  0  0  0  0
   -2.5689   -0.9736    1.3194 C   0  0  0  0  0  0  0  0  0  0  0  0
   -1.5938   -0.4666    1.4042 H   0  0  0  0  0  0  0  0  0  0  0  0
   -3.2117   -1.4697    2.4612 C   0  0  0  0  0  0  0  0  0  0  0  0
   -2.7375   -1.3551    3.4477 H   0  0  0  0  0  0  0  0  0  0  0  0
   -4.4625   -2.1016    2.3502 C   0  0  0  0  0  0  0  0  0  0  0  0
   -4.9667   -2.4894    3.2483 H   0  0  0  0  0  0  0  0  0  0  0  0
   -5.0679   -2.2323    1.0917 C   0  0  0  0  0  0  0  0  0  0  0  0
   -6.0479   -2.7243    0.9978 H   0  0  0  0  0  0  0  0  0  0  0  0
   -4.4219   -1.7353   -0.0523 C   0  0  0  0  0  0  0  0  0  0  0  0
   -4.8996   -1.8350   -1.0406 H   0  0  0  0  0  0  0  0  0  0  0  0
  1 13  1  0  0  0  0
  1  3  1  0  0  0  0
  2 27  1  0  0  0  0
  2  3  1  0  0  0  0
  4  1  1  0  0  0  0
  4  7  1  0  0  0  0
  4  5  1  0  0  0  0
  6  4  1  0  0  0  0
  7  9  1  0  0  0  0
  8  7  1  0  0  0  0
 10  2  1  0  0  0  0
 10  7  1  0  0  0  0
 10 12  1  0  0  0  0
 11 10  1  0  0  0  0
 13 14  1  0  0  0  0
 13 16  1  0  0  0  0
 15 13  1  0  0  0  0
 16 25  1  0  0  0  0
 17 16  2  0  0  0  0
 17 19  1  0  0  0  0
 18 17  1  0  0  0  0
 19 21  2  0  0  0  0
 20 19  1  0  0  0  0
 21 23  1  0  0  0  0
 21 22  1  0  0  0  0
 23 24  1  0  0  0  0
 25 26  1  0  0  0  0
 25 23  2  0  0  0  0
 27 29  1  0  0  0  0
 27 30  1  0  0  0  0
 28 27  1  0  0  0  0
 30 31  1  0  0  0  0
 31 32  1  0  0  0  0
 31 33  2  0  0  0  0
 33 34  1  0  0  0  0
 35 33  1  0  0  0  0
 35 36  1  0  0  0  0
 37 35  2  0  0  0  0
 38 37  1  0  0  0  0
 39 30  2  0  0  0  0
 39 37  1  0  0  0  0
 40 39  1  0  0  0  0
M  END
