3
 OpenBabel05122313113D

 46 48  0  0  0  0  0  0  0  0999 V2000
    2.7994    0.4977    0.8422 N   0  0  0  0  0  0  0  0  0  0  0  0
    1.7070    2.3204   -0.2489 N   0  0  0  0  0  0  0  0  0  0  0  0
    1.7226    1.0583    0.2465 C   0  0  0  0  0  2  0  0  0  0  0  0
    4.1707    1.0342    0.9909 C   0  0  0  0  0  0  0  0  0  0  0  0
    4.6902    0.3528    1.6911 H   0  0  0  0  0  0  0  0  0  0  0  0
    4.1468    2.0095    1.5069 H   0  0  0  0  0  0  0  0  0  0  0  0
    4.9892    1.0903   -0.3109 C   0  0  0  0  0  0  0  0  0  0  0  0
    5.9372    1.6231   -0.0759 H   0  0  0  0  0  0  0  0  0  0  0  0
    5.2705    0.0533   -0.5874 H   0  0  0  0  0  0  0  0  0  0  0  0
    4.3040    1.7437   -1.5147 C   0  0  0  0  0  0  0  0  0  0  0  0
    5.0122    1.7274   -2.3693 H   0  0  0  0  0  0  0  0  0  0  0  0
    3.4438    1.1153   -1.8341 H   0  0  0  0  0  0  0  0  0  0  0  0
    3.8233    3.1828   -1.3036 C   0  0  0  0  0  0  0  0  0  0  0  0
    3.3993    3.5572   -2.2598 H   0  0  0  0  0  0  0  0  0  0  0  0
    4.6782    3.8531   -1.0658 H   0  0  0  0  0  0  0  0  0  0  0  0
    2.7676    3.3416   -0.1925 C   0  0  0  0  0  0  0  0  0  0  0  0
    3.2179    3.3538    0.8122 H   0  0  0  0  0  0  0  0  0  0  0  0
    2.2604    4.3224   -0.2871 H   0  0  0  0  0  0  0  0  0  0  0  0
    2.6604   -0.8570    1.4137 C   0  0  0  0  0  0  0  0  0  0  0  0
    1.5979   -1.1519    1.2824 H   0  0  0  0  0  0  0  0  0  0  0  0
    2.8380   -0.7978    2.5085 H   0  0  0  0  0  0  0  0  0  0  0  0
    3.5798   -1.8790    0.7830 C   0  0  0  0  0  0  0  0  0  0  0  0
    3.4472   -2.2048   -0.5838 C   0  0  0  0  0  0  0  0  0  0  0  0
    2.6667   -1.7113   -1.1881 H   0  0  0  0  0  0  0  0  0  0  0  0
    4.2950   -3.1561   -1.1681 C   0  0  0  0  0  0  0  0  0  0  0  0
    4.1775   -3.4041   -2.2344 H   0  0  0  0  0  0  0  0  0  0  0  0
    5.2857   -3.7933   -0.4007 C   0  0  0  0  0  0  0  0  0  0  0  0
    5.9510   -4.5383   -0.8636 H   0  0  0  0  0  0  0  0  0  0  0  0
    5.4208   -3.4779    0.9596 C   0  0  0  0  0  0  0  0  0  0  0  0
    6.1921   -3.9736    1.5689 H   0  0  0  0  0  0  0  0  0  0  0  0
    4.5710   -2.5252    1.5456 C   0  0  0  0  0  0  0  0  0  0  0  0
    4.6749   -2.2797    2.6153 H   0  0  0  0  0  0  0  0  0  0  0  0
    0.5720    2.7466   -1.0763 C   0  0  0  0  0  0  0  0  0  0  0  0
    0.0109    1.8326   -1.3682 H   0  0  0  0  0  0  0  0  0  0  0  0
    0.9688    3.1630   -2.0273 H   0  0  0  0  0  0  0  0  0  0  0  0
   -0.3696    3.7391   -0.4299 C   0  0  0  0  0  0  0  0  0  0  0  0
   -1.1250    4.6049   -1.2472 C   0  0  0  0  0  0  0  0  0  0  0  0
   -0.9601    4.6013   -2.3371 H   0  0  0  0  0  0  0  0  0  0  0  0
   -2.0865    5.4604   -0.6894 C   0  0  0  0  0  0  0  0  0  0  0  0
   -2.6677    6.1303   -1.3416 H   0  0  0  0  0  0  0  0  0  0  0  0
   -2.3006    5.4666    0.6993 C   0  0  0  0  0  0  0  0  0  0  0  0
   -3.0529    6.1386    1.1400 H   0  0  0  0  0  0  0  0  0  0  0  0
   -1.5459    4.6134    1.5196 C   0  0  0  0  0  0  0  0  0  0  0  0
   -1.7108    4.6021    2.6078 H   0  0  0  0  0  0  0  0  0  0  0  0
   -0.5862    3.7547    0.9610 C   0  0  0  0  0  0  0  0  0  0  0  0
   -0.0282    3.0607    1.6073 H   0  0  0  0  0  0  0  0  0  0  0  0
  1  4  1  0  0  0  0
  1 19  1  0  0  0  0
  2 16  1  0  0  0  0
  2  3  1  0  0  0  0
  3  1  1  0  0  0  0
  4  6  1  0  0  0  0
  4  5  1  0  0  0  0
  7  8  1  0  0  0  0
  7  4  1  0  0  0  0
  9  7  1  0  0  0  0
 10 13  1  0  0  0  0
 10  7  1  0  0  0  0
 11 10  1  0  0  0  0
 12 10  1  0  0  0  0
 13 15  1  0  0  0  0
 13 16  1  0  0  0  0
 14 13  1  0  0  0  0
 16 17  1  0  0  0  0
 18 16  1  0  0  0  0
 19 21  1  0  0  0  0
 20 19  1  0  0  0  0
 22 19  1  0  0  0  0
 22 31  1  0  0  0  0
 23 22  2  0  0  0  0
 24 23  1  0  0  0  0
 25 23  1  0  0  0  0
 25 27  2  0  0  0  0
 26 25  1  0  0  0  0
 27 29  1  0  0  0  0
 28 27  1  0  0  0  0
 29 31  2  0  0  0  0
 29 30  1  0  0  0  0
 31 32  1  0  0  0  0
 33 36  1  0  0  0  0
 33  2  1  0  0  0  0
 34 33  1  0  0  0  0
 35 33  1  0  0  0  0
 36 45  1  0  0  0  0
 37 39  1  0  0  0  0
 37 36  2  0  0  0  0
 38 37  1  0  0  0  0
 39 41  2  0  0  0  0
 40 39  1  0  0  0  0
 41 42  1  0  0  0  0
 41 43  1  0  0  0  0
 43 44  1  0  0  0  0
 45 43  2  0  0  0  0
 45 46  1  0  0  0  0
M  END
