5
 OpenBabel05122313113D

 28 30  0  0  0  0  0  0  0  0999 V2000
    1.6194    0.7201    0.0209 S   0  0  0  0  0  0  0  0  0  0  0  0
   -2.2325   -1.5468   -0.3361 N   0  0  0  0  0  0  0  0  0  0  0  0
   -0.0840   -1.4546   -0.1988 N   0  0  0  0  0  0  0  0  0  0  0  0
    2.2395   -1.8421   -0.0829 N   0  0  0  0  0  0  0  0  0  0  0  0
   -1.2076   -0.6569   -0.2242 C   0  0  0  0  0  2  0  0  0  0  0  0
   -1.7743   -2.8617   -0.3701 C   0  0  0  0  0  0  0  0  0  0  0  0
   -2.4570   -3.7137   -0.4390 H   0  0  0  0  0  0  0  0  0  0  0  0
   -0.4117   -2.8104   -0.2883 C   0  0  0  0  0  0  0  0  0  0  0  0
    0.3680   -3.5761   -0.2828 H   0  0  0  0  0  0  0  0  0  0  0  0
   -3.6504   -1.1713   -0.3841 C   0  0  0  0  0  0  0  0  0  0  0  0
   -4.0891   -1.5470   -1.3315 H   0  0  0  0  0  0  0  0  0  0  0  0
   -3.6626   -0.0605   -0.4178 H   0  0  0  0  0  0  0  0  0  0  0  0
   -4.4096   -1.6837    0.8071 C   0  0  0  0  0  0  0  0  0  0  0  0
   -4.0335   -1.3478    1.7899 H   0  0  0  0  0  0  0  0  0  0  0  0
   -5.4872   -2.4813    0.7261 C   0  0  0  0  0  0  0  0  0  0  0  0
   -5.8790   -2.8224   -0.2472 H   0  0  0  0  0  0  0  0  0  0  0  0
   -6.0288   -2.8085    1.6267 H   0  0  0  0  0  0  0  0  0  0  0  0
    1.2451   -1.0037   -0.0959 C   0  0  0  0  0  0  0  0  0  0  0  0
    3.3186    0.2587    0.0962 C   0  0  0  0  0  0  0  0  0  0  0  0
    4.4426    1.0904    0.2083 C   0  0  0  0  0  0  0  0  0  0  0  0
    4.3388    2.1836    0.2621 H   0  0  0  0  0  0  0  0  0  0  0  0
    5.7040    0.4815    0.2497 C   0  0  0  0  0  0  0  0  0  0  0  0
    6.6020    1.1111    0.3374 H   0  0  0  0  0  0  0  0  0  0  0  0
    5.8405   -0.9233    0.1808 C   0  0  0  0  0  0  0  0  0  0  0  0
    6.8449   -1.3706    0.2158 H   0  0  0  0  0  0  0  0  0  0  0  0
    4.7201   -1.7515    0.0691 C   0  0  0  0  0  0  0  0  0  0  0  0
    4.8097   -2.8457    0.0144 H   0  0  0  0  0  0  0  0  0  0  0  0
    3.4393   -1.1628    0.0255 C   0  0  0  0  0  0  0  0  0  0  0  0
  1 19  1  0  0  0  0
  2  5  1  0  0  0  0
  3 18  1  0  0  0  0
  4 28  1  0  0  0  0
  5  3  1  0  0  0  0
  6  2  1  0  0  0  0
  6  8  2  0  0  0  0
  7  6  1  0  0  0  0
  8  9  1  0  0  0  0
  8  3  1  0  0  0  0
 10  2  1  0  0  0  0
 10 13  1  0  0  0  0
 11 10  1  0  0  0  0
 12 10  1  0  0  0  0
 13 14  1  0  0  0  0
 15 13  2  0  0  0  0
 15 17  1  0  0  0  0
 16 15  1  0  0  0  0
 18  4  2  0  0  0  0
 18  1  1  0  0  0  0
 19 20  1  0  0  0  0
 20 22  2  0  0  0  0
 20 21  1  0  0  0  0
 22 23  1  0  0  0  0
 24 25  1  0  0  0  0
 24 22  1  0  0  0  0
 26 24  2  0  0  0  0
 27 26  1  0  0  0  0
 28 26  1  0  0  0  0
 28 19  2  0  0  0  0
M  END
