2
 OpenBabel05122313113D

 27 27  0  0  0  0  0  0  0  0999 V2000
   -1.2284   -0.1625   -2.2907 N   0  0  0  0  0  0  0  0  0  0  0  0
   -1.0918   -0.6947   -1.0972 C   0  0  0  0  0  2  0  0  0  0  0  0
   -2.0086   -1.7904   -0.6722 C   0  0  0  0  0  0  0  0  0  0  0  0
   -2.9984   -1.5237    0.2996 C   0  0  0  0  0  0  0  0  0  0  0  0
   -3.8604   -2.5367    0.7365 C   0  0  0  0  0  0  0  0  0  0  0  0
   -3.7317   -3.8434    0.2380 C   0  0  0  0  0  0  0  0  0  0  0  0
   -2.7362   -4.1257   -0.7094 C   0  0  0  0  0  0  0  0  0  0  0  0
   -1.8864   -3.1070   -1.1678 C   0  0  0  0  0  0  0  0  0  0  0  0
   -2.1786   -0.4070   -3.4410 C   0  0  0  0  0  0  0  0  0  0  0  0
   -3.5865   -0.8335   -3.0037 C   0  0  0  0  0  0  0  0  0  0  0  0
   -1.5329   -1.4590   -4.3607 C   0  0  0  0  0  0  0  0  0  0  0  0
   -2.2741    0.9377   -4.1875 C   0  0  0  0  0  0  0  0  0  0  0  0
   -0.5819    0.6370   -2.5203 H   0  0  0  0  0  0  0  0  0  0  0  0
   -3.0950   -0.5108    0.7168 H   0  0  0  0  0  0  0  0  0  0  0  0
   -4.6332   -2.3026    1.4837 H   0  0  0  0  0  0  0  0  0  0  0  0
   -4.4017   -4.6406    0.5916 H   0  0  0  0  0  0  0  0  0  0  0  0
   -2.6221   -5.1463   -1.1045 H   0  0  0  0  0  0  0  0  0  0  0  0
   -1.1237   -3.3427   -1.9232 H   0  0  0  0  0  0  0  0  0  0  0  0
   -3.9944   -0.1500   -2.2336 H   0  0  0  0  0  0  0  0  0  0  0  0
   -3.6349   -1.8645   -2.6142 H   0  0  0  0  0  0  0  0  0  0  0  0
   -4.2503   -0.7757   -3.8885 H   0  0  0  0  0  0  0  0  0  0  0  0
   -0.5130   -1.1499   -4.6654 H   0  0  0  0  0  0  0  0  0  0  0  0
   -2.1412   -1.5754   -5.2792 H   0  0  0  0  0  0  0  0  0  0  0  0
   -1.4737   -2.4467   -3.8657 H   0  0  0  0  0  0  0  0  0  0  0  0
   -2.7629    1.7102   -3.5618 H   0  0  0  0  0  0  0  0  0  0  0  0
   -2.8827    0.8050   -5.1018 H   0  0  0  0  0  0  0  0  0  0  0  0
   -1.2770    1.3177   -4.4801 H   0  0  0  0  0  0  0  0  0  0  0  0
  1  2  1  0  0  0  0
  2  3  1  0  0  0  0
  3  4  1  0  0  0  0
  4 14  1  0  0  0  0
  4  5  2  0  0  0  0
  5 15  1  0  0  0  0
  6 16  1  0  0  0  0
  6  5  1  0  0  0  0
  7  6  2  0  0  0  0
  8  7  1  0  0  0  0
  8  3  2  0  0  0  0
  9 10  1  0  0  0  0
  9  1  1  0  0  0  0
 10 20  1  0  0  0  0
 10 19  1  0  0  0  0
 11 24  1  0  0  0  0
 11  9  1  0  0  0  0
 12 25  1  0  0  0  0
 12  9  1  0  0  0  0
 13  1  1  0  0  0  0
 17  7  1  0  0  0  0
 18  8  1  0  0  0  0
 21 10  1  0  0  0  0
 22 11  1  0  0  0  0
 23 11  1  0  0  0  0
 26 12  1  0  0  0  0
 27 12  1  0  0  0  0
M  END
