2
 OpenBabel05122313113D

 59 63  0  0  1  0  0  0  0  0999 V2000
   -1.9092    0.6058    0.8927 P   0  0  0  0  0  4  0  0  0  0  0  0
   -0.6011    0.0836   -0.1842 C   0  0  1  0  0  3  0  0  0  0  0  0
    0.7143    0.7262   -0.2922 C   0  0  0  0  0  0  0  0  0  0  0  0
    1.5507   -0.1260   -1.0932 C   0  0  0  0  0  0  0  0  0  0  0  0
    0.7825   -1.3001   -1.4367 C   0  0  0  0  0  0  0  0  0  0  0  0
    1.1225   -2.1039   -2.0997 H   0  0  0  0  0  0  0  0  0  0  0  0
   -0.5363   -1.1928   -0.9047 C   0  0  0  0  0  0  0  0  0  0  0  0
    1.0848    2.0775    0.1958 C   0  0  0  0  0  0  0  0  0  0  0  0
    2.2268    2.2773    1.0016 C   0  0  0  0  0  0  0  0  0  0  0  0
    2.8268    1.4036    1.2938 H   0  0  0  0  0  0  0  0  0  0  0  0
    2.5768    3.5618    1.4352 C   0  0  0  0  0  0  0  0  0  0  0  0
    3.4658    3.6950    2.0698 H   0  0  0  0  0  0  0  0  0  0  0  0
    1.7926    4.6720    1.0786 C   0  0  0  0  0  0  0  0  0  0  0  0
    2.0648    5.6787    1.4302 H   0  0  0  0  0  0  0  0  0  0  0  0
    0.6607    4.4885    0.2694 C   0  0  0  0  0  0  0  0  0  0  0  0
    0.0443    5.3513   -0.0262 H   0  0  0  0  0  0  0  0  0  0  0  0
    0.3153    3.2028   -0.1754 C   0  0  0  0  0  0  0  0  0  0  0  0
   -0.5614    3.0697   -0.8253 H   0  0  0  0  0  0  0  0  0  0  0  0
    2.9064    0.1701   -1.6073 C   0  0  0  0  0  0  0  0  0  0  0  0
    3.8792   -0.8510   -1.6990 C   0  0  0  0  0  0  0  0  0  0  0  0
    3.6445   -1.8557   -1.3183 H   0  0  0  0  0  0  0  0  0  0  0  0
    5.1483   -0.5846   -2.2279 C   0  0  0  0  0  0  0  0  0  0  0  0
    5.8948   -1.3918   -2.2784 H   0  0  0  0  0  0  0  0  0  0  0  0
    5.4738    0.7066   -2.6753 C   0  0  0  0  0  0  0  0  0  0  0  0
    6.4739    0.9163   -3.0840 H   0  0  0  0  0  0  0  0  0  0  0  0
    4.5135    1.7268   -2.5961 C   0  0  0  0  0  0  0  0  0  0  0  0
    4.7541    2.7407   -2.9512 H   0  0  0  0  0  0  0  0  0  0  0  0
    3.2405    1.4623   -2.0718 C   0  0  0  0  0  0  0  0  0  0  0  0
    2.4904    2.2645   -2.0311 H   0  0  0  0  0  0  0  0  0  0  0  0
   -1.6316   -2.1448   -1.2029 C   0  0  0  0  0  0  0  0  0  0  0  0
   -2.8641   -1.6898   -1.7228 C   0  0  0  0  0  0  0  0  0  0  0  0
   -3.0152   -0.6153   -1.9003 H   0  0  0  0  0  0  0  0  0  0  0  0
   -3.8936   -2.5937   -2.0262 C   0  0  0  0  0  0  0  0  0  0  0  0
   -4.8477   -2.2175   -2.4262 H   0  0  0  0  0  0  0  0  0  0  0  0
   -3.7028   -3.9705   -1.8325 C   0  0  0  0  0  0  0  0  0  0  0  0
   -4.5100   -4.6805   -2.0679 H   0  0  0  0  0  0  0  0  0  0  0  0
   -2.4737   -4.4355   -1.3353 C   0  0  0  0  0  0  0  0  0  0  0  0
   -2.3158   -5.5126   -1.1741 H   0  0  0  0  0  0  0  0  0  0  0  0
   -1.4502   -3.5334   -1.0187 C   0  0  0  0  0  0  0  0  0  0  0  0
   -0.5003   -3.8893   -0.5920 H   0  0  0  0  0  0  0  0  0  0  0  0
   -1.3474    1.5805    2.3244 C   0  0  0  0  0  0  0  0  0  0  0  0
   -0.8776    2.5204    1.9840 H   0  0  0  0  0  0  0  0  0  0  0  0
   -0.6164    0.9878    2.9050 H   0  0  0  0  0  0  0  0  0  0  0  0
   -2.2362    1.8082    2.9445 H   0  0  0  0  0  0  0  0  0  0  0  0
   -2.9068   -0.7643    1.5548 C   0  0  0  0  0  0  0  0  0  0  0  0
   -3.3411   -1.3506    0.7250 H   0  0  0  0  0  0  0  0  0  0  0  0
   -3.7188   -0.3237    2.1652 H   0  0  0  0  0  0  0  0  0  0  0  0
   -2.2686   -1.4203    2.1751 H   0  0  0  0  0  0  0  0  0  0  0  0
   -3.0917    1.6869   -0.0106 C   0  0  0  0  0  0  0  0  0  0  0  0
   -4.2051    2.2467    0.6490 C   0  0  0  0  0  0  0  0  0  0  0  0
   -4.3841    2.0488    1.7176 H   0  0  0  0  0  0  0  0  0  0  0  0
   -5.0999    3.0665   -0.0538 C   0  0  0  0  0  0  0  0  0  0  0  0
   -5.9666    3.5008    0.4668 H   0  0  0  0  0  0  0  0  0  0  0  0
   -4.8902    3.3322   -1.4169 C   0  0  0  0  0  0  0  0  0  0  0  0
   -5.5940    3.9756   -1.9660 H   0  0  0  0  0  0  0  0  0  0  0  0
   -3.7835    2.7771   -2.0778 C   0  0  0  0  0  0  0  0  0  0  0  0
   -3.6155    2.9827   -3.1456 H   0  0  0  0  0  0  0  0  0  0  0  0
   -2.8858    1.9569   -1.3778 C   0  0  0  0  0  0  0  0  0  0  0  0
   -2.0146    1.5193   -1.8907 H   0  0  0  0  0  0  0  0  0  0  0  0
  1 45  1  0  0  0  0
  1 41  1  0  0  0  0
  2  1  1  1  0  0  0
  3  2  1  0  0  0  0
  3  8  1  0  0  0  0
  4  3  2  0  0  0  0
  5  4  1  0  0  0  0
  5  7  2  0  0  0  0
  6  5  1  0  0  0  0
  7  2  1  0  0  0  0
  8  9  1  0  0  0  0
  9 10  1  0  0  0  0
  9 11  2  0  0  0  0
 11 12  1  0  0  0  0
 13 14  1  0  0  0  0
 13 11  1  0  0  0  0
 15 13  2  0  0  0  0
 16 15  1  0  0  0  0
 17  8  2  0  0  0  0
 17 15  1  0  0  0  0
 18 17  1  0  0  0  0
 19  4  1  0  0  0  0
 20 19  1  0  0  0  0
 20 21  1  0  0  0  0
 22 20  2  0  0  0  0
 23 22  1  0  0  0  0
 24 26  2  0  0  0  0
 24 22  1  0  0  0  0
 25 24  1  0  0  0  0
 26 28  1  0  0  0  0
 27 26  1  0  0  0  0
 28 29  1  0  0  0  0
 28 19  2  0  0  0  0
 30 39  1  0  0  0  0
 30  7  1  0  0  0  0
 31 30  2  0  0  0  0
 32 31  1  0  0  0  0
 33 35  2  0  0  0  0
 33 31  1  0  0  0  0
 34 33  1  0  0  0  0
 35 37  1  0  0  0  0
 36 35  1  0  0  0  0
 37 38  1  0  0  0  0
 37 39  2  0  0  0  0
 39 40  1  0  0  0  0
 41 43  1  0  0  0  0
 41 44  1  0  0  0  0
 42 41  1  0  0  0  0
 45 47  1  0  0  0  0
 45 48  1  0  0  0  0
 46 45  1  0  0  0  0
 49 50  1  0  0  0  0
 49  1  1  0  0  0  0
 50 51  1  0  0  0  0
 52 53  1  0  0  0  0
 52 50  2  0  0  0  0
 54 52  1  0  0  0  0
 55 54  1  0  0  0  0
 56 54  2  0  0  0  0
 56 58  1  0  0  0  0
 57 56  1  0  0  0  0
 58 49  2  0  0  0  0
 59 58  1  0  0  0  0
M  END
