1
 OpenBabel05122313113D

 12 12  0  0  0  0  0  0  0  0999 V2000
    1.6224   -0.6954   -1.6439 C   0  0  0  0  0  3  0  0  0  0  0  0
    4.0108   -0.2397   -0.0611 O   0  0  0  0  0  0  0  0  0  0  0  0
    3.4162    0.8320   -0.6746 C   0  0  0  0  0  0  0  0  0  0  0  0
    2.1114    0.6069   -1.3429 C   0  0  0  0  0  3  0  0  0  0  0  0
    3.9624    1.9172   -0.6287 O   0  0  0  0  0  0  0  0  0  0  0  0
    3.4760   -1.5606   -0.1718 C   0  0  0  0  0  0  0  0  0  0  0  0
    2.0489   -1.6584   -0.6672 C   0  0  0  0  0  3  0  0  0  0  0  0
    0.9870   -0.9209   -2.5119 H   0  0  0  0  0  0  0  0  0  0  0  0
    1.7970    1.4568   -1.9622 H   0  0  0  0  0  0  0  0  0  0  0  0
    3.5930   -2.0379    0.8233 H   0  0  0  0  0  0  0  0  0  0  0  0
    4.1228   -2.1273   -0.8833 H   0  0  0  0  0  0  0  0  0  0  0  0
    1.7203   -2.7042   -0.7844 H   0  0  0  0  0  0  0  0  0  0  0  0
  1  4  1  0  0  0  0
  1  7  1  0  0  0  0
  3  5  2  0  0  0  0
  3  2  1  0  0  0  0
  4  3  1  0  0  0  0
  6  2  1  0  0  0  0
  6 10  1  0  0  0  0
  7  6  1  0  0  0  0
  8  1  1  0  0  0  0
  9  4  1  0  0  0  0
 11  6  1  0  0  0  0
 12  7  1  0  0  0  0
M  END
