8
 OpenBabel05122313113D

 23 24  0  0  1  0  0  0  0  0999 V2000
   -1.9738    0.6913   -1.6093 O   0  0  0  0  0  0  0  0  0  0  0  0
   -2.2678    0.6866    0.6759 O   0  0  0  0  0  0  0  0  0  0  0  0
   -2.5858   -2.0897    0.4462 O   0  0  0  0  0  0  0  0  0  0  0  0
   -4.7005    1.9931    0.0501 O   0  0  0  0  0  0  0  0  0  0  0  0
   -3.4569    0.0632    0.4238 N   0  0  0  0  0  0  0  0  0  0  0  0
   -1.5367    0.9286   -0.5102 C   0  0  0  0  0  0  0  0  0  0  0  0
   -0.2203    1.4791   -0.1606 C   0  0  2  0  0  3  0  0  0  0  0  0
    0.7805    1.8538   -1.1288 C   0  0  0  0  0  3  0  0  0  0  0  0
    1.9289    2.3099   -0.4009 C   0  0  0  0  0  3  0  0  0  0  0  0
    1.6389    2.2345    1.0026 C   0  0  0  0  0  0  0  0  0  0  0  0
    0.3223    1.7201    1.1546 C   0  0  0  0  0  0  0  0  0  0  0  0
   -3.5224   -1.3347    0.2959 C   0  0  0  0  0  0  0  0  0  0  0  0
   -4.9743   -1.6389   -0.0525 C   0  0  0  0  0  0  0  0  0  0  0  0
   -5.6800   -0.2758   -0.1811 C   0  0  0  0  0  0  0  0  0  0  0  0
   -4.6192    0.7869    0.0913 C   0  0  0  0  0  0  0  0  0  0  0  0
    0.6475    1.8236   -2.2159 H   0  0  0  0  0  0  0  0  0  0  0  0
    2.8613    2.6837   -0.8403 H   0  0  0  0  0  0  0  0  0  0  0  0
    2.3160    2.5175    1.8172 H   0  0  0  0  0  0  0  0  0  0  0  0
   -0.2017    1.5273    2.0965 H   0  0  0  0  0  0  0  0  0  0  0  0
   -4.9822   -2.2305   -0.9893 H   0  0  0  0  0  0  0  0  0  0  0  0
   -5.3994   -2.2889    0.7381 H   0  0  0  0  0  0  0  0  0  0  0  0
   -6.5120   -0.1363    0.5377 H   0  0  0  0  0  0  0  0  0  0  0  0
   -6.0963   -0.0883   -1.1905 H   0  0  0  0  0  0  0  0  0  0  0  0
  1  6  2  0  0  0  0
  4 15  2  0  0  0  0
  5  2  1  0  0  0  0
  6  2  1  0  0  0  0
  7  6  1  1  0  0  0
  7 11  1  0  0  0  0
  8  9  1  0  0  0  0
  8  7  1  0  0  0  0
  9 10  1  0  0  0  0
 10 11  2  0  0  0  0
 10 18  1  0  0  0  0
 11 19  1  0  0  0  0
 12  5  1  0  0  0  0
 12  3  2  0  0  0  0
 13 12  1  0  0  0  0
 13 21  1  0  0  0  0
 14 13  1  0  0  0  0
 14 15  1  0  0  0  0
 14 22  1  0  0  0  0
 15  5  1  0  0  0  0
 16  8  1  0  0  0  0
 17  9  1  0  0  0  0
 20 13  1  0  0  0  0
 23 14  1  0  0  0  0
M  END
