2
 OpenBabel05122313113D

 26 26  0  0  1  0  0  0  0  0999 V2000
   -2.2715    2.3051    0.2924 Si  0  0  0  0  0  0  0  0  0  0  0  0
   -0.4479    0.2877   -0.0858 C   0  0  0  0  0  1  0  0  0  0  0  0
   -1.7590    0.5132   -0.1409 C   0  0  1  0  0  3  0  0  0  0  0  0
   -2.7655   -0.5516   -0.3780 C   0  0  0  0  0  0  0  0  0  0  0  0
   -2.5214   -1.5651   -1.3364 C   0  0  0  0  0  0  0  0  0  0  0  0
   -1.5846   -1.5302   -1.9095 H   0  0  0  0  0  0  0  0  0  0  0  0
   -3.4516   -2.5875   -1.5639 C   0  0  0  0  0  0  0  0  0  0  0  0
   -3.2331   -3.3635   -2.3139 H   0  0  0  0  0  0  0  0  0  0  0  0
   -4.6592   -2.6210   -0.8475 C   0  0  0  0  0  0  0  0  0  0  0  0
   -5.3929   -3.4206   -1.0291 H   0  0  0  0  0  0  0  0  0  0  0  0
   -4.9209   -1.6193    0.1004 C   0  0  0  0  0  0  0  0  0  0  0  0
   -5.8613   -1.6341    0.6728 H   0  0  0  0  0  0  0  0  0  0  0  0
   -3.9880   -0.5986    0.3332 C   0  0  0  0  0  0  0  0  0  0  0  0
   -4.2016    0.1636    1.0963 H   0  0  0  0  0  0  0  0  0  0  0  0
   -2.6460    2.4069    2.1475 C   0  0  0  0  0  0  0  0  0  0  0  0
   -1.7349    2.1426    2.7225 H   0  0  0  0  0  0  0  0  0  0  0  0
   -3.4559    1.7208    2.4655 H   0  0  0  0  0  0  0  0  0  0  0  0
   -2.9436    3.4394    2.4269 H   0  0  0  0  0  0  0  0  0  0  0  0
   -3.7878    2.7655   -0.7427 C   0  0  0  0  0  0  0  0  0  0  0  0
   -4.1385    3.7852   -0.4798 H   0  0  0  0  0  0  0  0  0  0  0  0
   -4.6268    2.0594   -0.5860 H   0  0  0  0  0  0  0  0  0  0  0  0
   -3.5357    2.7554   -1.8228 H   0  0  0  0  0  0  0  0  0  0  0  0
   -0.8730    3.5209   -0.0737 C   0  0  0  0  0  0  0  0  0  0  0  0
   -1.2008    4.5490    0.1856 H   0  0  0  0  0  0  0  0  0  0  0  0
   -0.5976    3.5071   -1.1460 H   0  0  0  0  0  0  0  0  0  0  0  0
    0.0293    3.2853    0.5231 H   0  0  0  0  0  0  0  0  0  0  0  0
  1 15  1  0  0  0  0
  3  2  1  1  0  0  0
  3  1  1  0  0  0  0
  4  3  1  0  0  0  0
  4 13  1  0  0  0  0
  5  4  2  0  0  0  0
  6  5  1  0  0  0  0
  7  5  1  0  0  0  0
  7  9  2  0  0  0  0
  8  7  1  0  0  0  0
  9 11  1  0  0  0  0
 10  9  1  0  0  0  0
 11 13  2  0  0  0  0
 11 12  1  0  0  0  0
 13 14  1  0  0  0  0
 15 18  1  0  0  0  0
 15 17  1  0  0  0  0
 15 16  1  0  0  0  0
 19 21  1  0  0  0  0
 19 20  1  0  0  0  0
 19  1  1  0  0  0  0
 22 19  1  0  0  0  0
 23 24  1  0  0  0  0
 23  1  1  0  0  0  0
 23 26  1  0  0  0  0
 25 23  1  0  0  0  0
M  END
