3
 OpenBabel05122313113D

 28 29  0  0  1  0  0  0  0  0999 V2000
    0.8534   -0.1270   -0.2315 O   0  0  0  0  0  0  0  0  0  0  0  0
    2.7395   -0.4443   -1.5769 O   0  0  0  0  0  0  0  0  0  0  0  0
   -0.3210   -0.7090   -0.3153 C   0  0  0  0  0  2  0  0  0  0  0  0
   -0.1194   -2.1643   -0.6724 C   0  0  0  0  0  0  0  0  0  0  0  0
    1.3586   -2.3098   -1.0638 C   0  0  0  0  0  0  0  0  0  0  0  0
    2.0322   -1.0345   -0.5452 C   0  0  2  0  0  0  0  0  0  0  0  0
    2.8441   -1.1547    0.7596 C   0  0  1  0  0  0  0  0  0  0  0  0
    3.4666    0.2036    1.1183 C   0  0  0  0  0  0  0  0  0  0  0  0
    4.2400    0.8034   -0.0631 C   0  0  1  0  0  0  0  0  0  0  0  0
    3.3206    0.8388   -1.2833 C   0  0  0  0  0  0  0  0  0  0  0  0
    2.0488   -1.7467    1.9253 C   0  0  0  0  0  0  0  0  0  0  0  0
    4.7963    2.1942    0.2444 C   0  0  0  0  0  0  0  0  0  0  0  0
   -0.8363   -2.4729   -1.4585 H   0  0  0  0  0  0  0  0  0  0  0  0
   -0.3912   -2.7578    0.2278 H   0  0  0  0  0  0  0  0  0  0  0  0
    1.4862   -2.3189   -2.1626 H   0  0  0  0  0  0  0  0  0  0  0  0
    1.8352   -3.2182   -0.6517 H   0  0  0  0  0  0  0  0  0  0  0  0
    3.6701   -1.8539    0.4966 H   0  0  0  0  0  0  0  0  0  0  0  0
    2.6576    0.9031    1.4253 H   0  0  0  0  0  0  0  0  0  0  0  0
    4.1336    0.0848    1.9981 H   0  0  0  0  0  0  0  0  0  0  0  0
    5.0861    0.1200   -0.3043 H   0  0  0  0  0  0  0  0  0  0  0  0
    3.8719    1.1207   -2.2015 H   0  0  0  0  0  0  0  0  0  0  0  0
    2.5051    1.5813   -1.1275 H   0  0  0  0  0  0  0  0  0  0  0  0
    1.2070   -1.0876    2.2172 H   0  0  0  0  0  0  0  0  0  0  0  0
    1.6420   -2.7518    1.6952 H   0  0  0  0  0  0  0  0  0  0  0  0
    2.7032   -1.8554    2.8128 H   0  0  0  0  0  0  0  0  0  0  0  0
    5.4764    2.1653    1.1192 H   0  0  0  0  0  0  0  0  0  0  0  0
    5.3664    2.6063   -0.6131 H   0  0  0  0  0  0  0  0  0  0  0  0
    3.9778    2.9062    0.4803 H   0  0  0  0  0  0  0  0  0  0  0  0
  2 10  1  0  0  0  0
  3  1  1  0  0  0  0
  4  3  1  0  0  0  0
  4 14  1  0  0  0  0
  5  4  1  0  0  0  0
  5 16  1  0  0  0  0
  5  6  1  0  0  0  0
  6  2  1  6  0  0  0
  6  1  1  0  0  0  0
  6  7  1  0  0  0  0
  7 17  1  6  0  0  0
  7  8  1  0  0  0  0
  7 11  1  0  0  0  0
  8 18  1  0  0  0  0
  8 19  1  0  0  0  0
  9 20  1  6  0  0  0
  9 12  1  0  0  0  0
  9  8  1  0  0  0  0
 10 22  1  0  0  0  0
 10  9  1  0  0  0  0
 11 23  1  0  0  0  0
 11 25  1  0  0  0  0
 12 28  1  0  0  0  0
 12 26  1  0  0  0  0
 13  4  1  0  0  0  0
 15  5  1  0  0  0  0
 21 10  1  0  0  0  0
 24 11  1  0  0  0  0
 27 12  1  0  0  0  0
M  END
