8
 OpenBabel05122313113D

 22 21  0  0  1  0  0  0  0  0999 V2000
   -3.7779   -1.8141   -0.8933 F   0  0  0  0  0  0  0  0  0  0  0  0
    3.0124   -1.6872    1.2328 O   0  0  0  0  0  0  0  0  0  0  0  0
    3.2009   -0.4711   -0.6793 O   0  0  0  0  0  0  0  0  0  0  0  0
   -3.7424   -0.4336    1.0402 C   0  0  0  0  0  0  0  0  0  0  0  0
   -3.1415   -0.6902   -0.3305 C   0  0  1  0  0  0  0  0  0  0  0  0
   -1.6616   -0.9821   -0.3132 C   0  0  0  0  0  3  0  0  0  0  0  0
   -0.8726   -0.7790   -1.4963 C   0  0  0  0  0  3  0  0  0  0  0  0
    0.5386   -0.9030   -1.3752 C   0  0  0  0  0  3  0  0  0  0  0  0
    1.0549   -1.2588   -0.0809 C   0  0  0  0  0  3  0  0  0  0  0  0
    2.5011   -1.1844    0.2478 C   0  0  0  0  0  0  0  0  0  0  0  0
    4.5915   -0.2916   -0.3938 C   0  0  0  0  0  0  0  0  0  0  0  0
   -3.3603    0.5122    1.4703 H   0  0  0  0  0  0  0  0  0  0  0  0
   -4.8446   -0.3641    0.9623 H   0  0  0  0  0  0  0  0  0  0  0  0
   -3.4913   -1.2598    1.7354 H   0  0  0  0  0  0  0  0  0  0  0  0
   -3.3523    0.1673   -1.0096 H   0  0  0  0  0  0  0  0  0  0  0  0
   -1.4054   -1.8283    0.3479 H   0  0  0  0  0  0  0  0  0  0  0  0
   -1.3194   -0.4058   -2.4319 H   0  0  0  0  0  0  0  0  0  0  0  0
    1.2120   -0.6310   -2.2008 H   0  0  0  0  0  0  0  0  0  0  0  0
    0.5415   -2.0117    0.5350 H   0  0  0  0  0  0  0  0  0  0  0  0
    5.1102   -1.2686   -0.3211 H   0  0  0  0  0  0  0  0  0  0  0  0
    5.0014    0.3045   -1.2282 H   0  0  0  0  0  0  0  0  0  0  0  0
    4.7281    0.2463    0.5661 H   0  0  0  0  0  0  0  0  0  0  0  0
  1  5  1  0  0  0  0
  3 11  1  0  0  0  0
  3 10  1  0  0  0  0
  4 12  1  0  0  0  0
  4 14  1  0  0  0  0
  5 15  1  6  0  0  0
  5  6  1  0  0  0  0
  5  4  1  0  0  0  0
  6 16  1  0  0  0  0
  7  8  1  0  0  0  0
  7  6  1  0  0  0  0
  8  9  1  0  0  0  0
  9 10  1  0  0  0  0
  9 19  1  0  0  0  0
 10  2  2  0  0  0  0
 11 20  1  0  0  0  0
 11 22  1  0  0  0  0
 13  4  1  0  0  0  0
 17  7  1  0  0  0  0
 18  8  1  0  0  0  0
 21 11  1  0  0  0  0
M  END
