5
 OpenBabel05122313113D

 39 40  0  0  1  0  0  0  0  0999 V2000
    1.7071    2.1421   -0.6566 O   0  0  0  0  0  0  0  0  0  0  0  0
   -0.5054    3.8003   -0.2091 O   0  0  0  0  0  0  0  0  0  0  0  0
   -2.1909    1.3840    0.5147 O   0  0  0  0  0  0  0  0  0  0  0  0
    1.5021   -1.9324    2.0179 C   0  0  0  0  0  3  0  0  0  0  0  0
    2.4187   -0.8385    2.1695 C   0  0  0  0  0  3  0  0  0  0  0  0
    2.0880    0.3851    1.5177 C   0  0  0  0  0  3  0  0  0  0  0  0
    0.8655    0.4189    0.7712 C   0  0  0  0  0  3  0  0  0  0  0  0
    0.5184    1.6019   -0.0875 C   0  0  1  0  0  0  0  0  0  0  0  0
   -0.2097    2.7319    0.6869 C   0  0  2  0  0  0  0  0  0  0  0  0
    0.6699    4.3127   -0.8182 C   0  0  0  0  0  0  0  0  0  0  0  0
    1.4212    3.2071   -1.5514 C   0  0  0  0  0  0  0  0  0  0  0  0
   -1.5044    2.2884    1.3512 C   0  0  0  0  0  0  0  0  0  0  0  0
   -3.4299    0.9561    1.0381 C   0  0  0  0  0  0  0  0  0  0  0  0
   -3.9416   -0.2399    0.2701 C   0  0  0  0  0  0  0  0  0  0  0  0
   -3.0502   -1.0899   -0.4094 C   0  0  0  0  0  0  0  0  0  0  0  0
   -3.5202   -2.2307   -1.0766 C   0  0  0  0  0  0  0  0  0  0  0  0
   -4.8901   -2.5360   -1.0710 C   0  0  0  0  0  0  0  0  0  0  0  0
   -5.7872   -1.6893   -0.3990 C   0  0  0  0  0  0  0  0  0  0  0  0
   -5.3158   -0.5462    0.2633 C   0  0  0  0  0  0  0  0  0  0  0  0
    1.8317   -2.9309    2.3432 H   0  0  0  0  0  0  0  0  0  0  0  0
    0.4168   -1.7659    2.1048 H   0  0  0  0  0  0  0  0  0  0  0  0
    3.4044   -0.9598    2.6457 H   0  0  0  0  0  0  0  0  0  0  0  0
    2.8091    1.2142    1.4628 H   0  0  0  0  0  0  0  0  0  0  0  0
   -0.0270   -0.0792    1.1806 H   0  0  0  0  0  0  0  0  0  0  0  0
   -0.1852    1.2863   -0.8931 H   0  0  0  0  0  0  0  0  0  0  0  0
    0.4890    3.0954    1.4832 H   0  0  0  0  0  0  0  0  0  0  0  0
    0.3522    5.1129   -1.5172 H   0  0  0  0  0  0  0  0  0  0  0  0
    1.3423    4.7619   -0.0447 H   0  0  0  0  0  0  0  0  0  0  0  0
    2.3922    3.5690   -1.9460 H   0  0  0  0  0  0  0  0  0  0  0  0
    0.8048    2.8362   -2.4059 H   0  0  0  0  0  0  0  0  0  0  0  0
   -1.2728    1.8114    2.3363 H   0  0  0  0  0  0  0  0  0  0  0  0
   -2.1137    3.2017    1.5562 H   0  0  0  0  0  0  0  0  0  0  0  0
   -4.1808    1.7846    1.0137 H   0  0  0  0  0  0  0  0  0  0  0  0
   -3.3107    0.6779    2.1184 H   0  0  0  0  0  0  0  0  0  0  0  0
   -1.9798   -0.8460   -0.4216 H   0  0  0  0  0  0  0  0  0  0  0  0
   -2.8019   -2.8790   -1.6006 H   0  0  0  0  0  0  0  0  0  0  0  0
   -5.2612   -3.4304   -1.5942 H   0  0  0  0  0  0  0  0  0  0  0  0
   -6.8643   -1.9164   -0.3972 H   0  0  0  0  0  0  0  0  0  0  0  0
   -6.0260    0.1196    0.7803 H   0  0  0  0  0  0  0  0  0  0  0  0
  1  8  1  0  0  0  0
  2  9  1  0  0  0  0
  3 13  1  0  0  0  0
  3 12  1  0  0  0  0
  4 21  1  0  0  0  0
  4  5  1  0  0  0  0
  4 20  1  0  0  0  0
  5 22  1  0  0  0  0
  6  5  1  0  0  0  0
  7 24  1  0  0  0  0
  7  6  1  0  0  0  0
  8 25  1  6  0  0  0
  8  9  1  0  0  0  0
  8  7  1  0  0  0  0
  9 12  1  0  0  0  0
  9 26  1  1  0  0  0
 10  2  1  0  0  0  0
 10 28  1  0  0  0  0
 11 10  1  0  0  0  0
 11  1  1  0  0  0  0
 12 32  1  0  0  0  0
 12 31  1  0  0  0  0
 13 34  1  0  0  0  0
 14 13  1  0  0  0  0
 15 14  2  0  0  0  0
 16 17  2  0  0  0  0
 16 15  1  0  0  0  0
 17 18  1  0  0  0  0
 18 38  1  0  0  0  0
 18 19  2  0  0  0  0
 19 14  1  0  0  0  0
 19 39  1  0  0  0  0
 23  6  1  0  0  0  0
 27 10  1  0  0  0  0
 29 11  1  0  0  0  0
 30 11  1  0  0  0  0
 33 13  1  0  0  0  0
 35 15  1  0  0  0  0
 36 16  1  0  0  0  0
 37 17  1  0  0  0  0
M  END
