1
 OpenBabel05122313113D

 33 32  0  0  1  0  0  0  0  0999 V2000
   -0.0267    0.7444   -0.0312 C   0  0  0  0  0  3  0  0  0  0  0  0
   -1.1951    1.1992   -0.0873 C   0  0  0  0  0  0  0  0  0  0  0  0
   -2.5366    1.6115   -0.0922 C   0  0  1  0  0  3  0  0  0  0  0  0
   -3.6055    0.6679    0.0141 C   0  0  0  0  0  3  0  0  0  0  0  0
   -3.4561   -0.7310   -0.1206 C   0  0  0  0  0  3  0  0  0  0  0  0
   -2.8189    2.9552   -0.1408 N   0  0  0  0  0  0  0  0  0  0  0  0
   -1.7721    3.9528    0.0061 C   0  0  0  0  0  0  0  0  0  0  0  0
   -4.1837    3.4411   -0.1792 C   0  0  0  0  0  0  0  0  0  0  0  0
   -4.2149   -1.5799    0.6548 N   0  0  0  0  0  0  0  0  0  0  0  0
   -4.7306   -2.8406    0.1456 C   0  0  0  0  0  0  0  0  0  0  0  0
   -4.7200   -1.1694    1.9521 C   0  0  0  0  0  0  0  0  0  0  0  0
   -2.6000   -1.3234   -1.0085 N   0  0  0  0  0  0  0  0  0  0  0  0
   -2.2153   -0.6984   -2.2635 C   0  0  0  0  0  0  0  0  0  0  0  0
   -1.8537   -2.5288   -0.6667 C   0  0  0  0  0  0  0  0  0  0  0  0
   -4.5870    1.0219    0.3560 H   0  0  0  0  0  0  0  0  0  0  0  0
   -0.7884    3.4505   -0.0410 H   0  0  0  0  0  0  0  0  0  0  0  0
   -1.8393    4.7048   -0.8078 H   0  0  0  0  0  0  0  0  0  0  0  0
   -1.8572    4.4839    0.9803 H   0  0  0  0  0  0  0  0  0  0  0  0
   -4.7995    2.8225   -0.8618 H   0  0  0  0  0  0  0  0  0  0  0  0
   -4.6683    3.4392    0.8247 H   0  0  0  0  0  0  0  0  0  0  0  0
   -4.1871    4.4822   -0.5546 H   0  0  0  0  0  0  0  0  0  0  0  0
   -4.5293   -2.9174   -0.9376 H   0  0  0  0  0  0  0  0  0  0  0  0
   -4.2792   -3.7212    0.6530 H   0  0  0  0  0  0  0  0  0  0  0  0
   -5.8311   -2.8847    0.2991 H   0  0  0  0  0  0  0  0  0  0  0  0
   -4.1024   -0.3432    2.3485 H   0  0  0  0  0  0  0  0  0  0  0  0
   -5.7819   -0.8339    1.9073 H   0  0  0  0  0  0  0  0  0  0  0  0
   -4.6658   -2.0237    2.6598 H   0  0  0  0  0  0  0  0  0  0  0  0
   -2.9287    0.1077   -2.5123 H   0  0  0  0  0  0  0  0  0  0  0  0
   -1.1948   -0.2652   -2.2050 H   0  0  0  0  0  0  0  0  0  0  0  0
   -2.2329   -1.4638   -3.0682 H   0  0  0  0  0  0  0  0  0  0  0  0
   -1.9585   -2.7513    0.4094 H   0  0  0  0  0  0  0  0  0  0  0  0
   -2.1791   -3.4112   -1.2600 H   0  0  0  0  0  0  0  0  0  0  0  0
   -0.7794   -2.3514   -0.8715 H   0  0  0  0  0  0  0  0  0  0  0  0
  2  1  3  0  0  0  0
  3  2  1  1  0  0  0
  3  4  1  0  0  0  0
  4 15  1  0  0  0  0
  5  4  1  0  0  0  0
  5  9  1  0  0  0  0
  6  3  1  0  0  0  0
  6  7  1  0  0  0  0
  7 18  1  0  0  0  0
  8  6  1  0  0  0  0
  8 20  1  0  0  0  0
  9 11  1  0  0  0  0
 10 24  1  0  0  0  0
 10 23  1  0  0  0  0
 10  9  1  0  0  0  0
 11 25  1  0  0  0  0
 11 27  1  0  0  0  0
 12 14  1  0  0  0  0
 12  5  1  0  0  0  0
 13 29  1  0  0  0  0
 13 12  1  0  0  0  0
 14 31  1  0  0  0  0
 16  7  1  0  0  0  0
 17  7  1  0  0  0  0
 19  8  1  0  0  0  0
 21  8  1  0  0  0  0
 22 10  1  0  0  0  0
 26 11  1  0  0  0  0
 28 13  1  0  0  0  0
 30 13  1  0  0  0  0
 32 14  1  0  0  0  0
 33 14  1  0  0  0  0
M  END
