1
 OpenBabel05122313113D

 23 22  0  0  0  0  0  0  0  0999 V2000
   -0.2228    0.0013    0.0003 C   0  0  0  0  0  3  0  0  0  0  0  0
    1.0515    0.0018    0.0003 C   0  0  0  0  0  0  0  0  0  0  0  0
    2.3781    0.0022    0.0005 C   0  0  0  0  0  0  0  0  0  0  0  0
    3.6416    0.0015    0.0003 C   0  0  0  0  0  0  0  0  0  0  0  0
    5.0218    0.0002    0.0002 C   0  0  0  0  0  3  0  0  0  0  0  0
    5.7356   -1.1789   -0.0428 N   0  0  0  0  0  0  0  0  0  0  0  0
    5.0565   -2.4103   -0.4157 C   0  0  0  0  0  0  0  0  0  0  0  0
    6.9823   -1.3460    0.6931 C   0  0  0  0  0  0  0  0  0  0  0  0
    4.2453   -2.1915   -1.1329 H   0  0  0  0  0  0  0  0  0  0  0  0
    5.7846   -3.0986   -0.8904 H   0  0  0  0  0  0  0  0  0  0  0  0
    4.6109   -2.9209    0.4674 H   0  0  0  0  0  0  0  0  0  0  0  0
    7.2198   -0.4255    1.2551 H   0  0  0  0  0  0  0  0  0  0  0  0
    6.8719   -2.1754    1.4252 H   0  0  0  0  0  0  0  0  0  0  0  0
    7.8375   -1.5906    0.0264 H   0  0  0  0  0  0  0  0  0  0  0  0
    5.7377    1.1781    0.0427 N   0  0  0  0  0  0  0  0  0  0  0  0
    5.0610    2.4107    0.4158 C   0  0  0  0  0  0  0  0  0  0  0  0
    4.2496    2.1935    1.1333 H   0  0  0  0  0  0  0  0  0  0  0  0
    5.7905    3.0978    0.8903 H   0  0  0  0  0  0  0  0  0  0  0  0
    4.6159    2.9221   -0.4672 H   0  0  0  0  0  0  0  0  0  0  0  0
    6.9845    1.3429   -0.6936 C   0  0  0  0  0  0  0  0  0  0  0  0
    7.2201    0.4219   -1.2556 H   0  0  0  0  0  0  0  0  0  0  0  0
    6.8753    2.1724   -1.4257 H   0  0  0  0  0  0  0  0  0  0  0  0
    7.8403    1.5860   -0.0272 H   0  0  0  0  0  0  0  0  0  0  0  0
  1  2  3  0  0  0  0
  2  3  1  0  0  0  0
  4  3  3  0  0  0  0
  5  4  1  0  0  0  0
  5 15  1  0  0  0  0
  6  5  1  0  0  0  0
  6  8  1  0  0  0  0
  7  6  1  0  0  0  0
  7 11  1  0  0  0  0
  8 12  1  0  0  0  0
  8 13  1  0  0  0  0
  9  7  1  0  0  0  0
 10  7  1  0  0  0  0
 14  8  1  0  0  0  0
 15 16  1  0  0  0  0
 16 18  1  0  0  0  0
 16 17  1  0  0  0  0
 19 16  1  0  0  0  0
 20 23  1  0  0  0  0
 20 15  1  0  0  0  0
 21 20  1  0  0  0  0
 22 20  1  0  0  0  0
M  END
