1
q = -1.0, confidence = 0.0

 13 12  0  0  1  0  0  0  0  0999 V2000
    0.1175    1.5320    0.3924 C   0  0  0  0  0  3  0  0  0  0  0  0
   -1.0800    4.4635    1.8575 O   0  0  0  0  0  0  0  0  0  0  0  0
   -1.1506    3.8040    2.5719 H   0  0  0  0  0  0  0  0  0  0  0  0
    0.2016    2.7012    0.8159 C   0  0  0  0  0  0  0  0  0  0  0  0
    1.4363    4.8791   -0.9270 C   0  0  0  0  0  0  0  0  0  0  0  0
    2.3272    5.1652   -0.3288 H   0  0  0  0  0  0  0  0  0  0  0  0
    1.4144    5.5260   -1.8269 H   0  0  0  0  0  0  0  0  0  0  0  0
    1.5861    3.8314   -1.2568 H   0  0  0  0  0  0  0  0  0  0  0  0
    0.1318    4.1308    1.1397 C   0  0  1  0  0  0  0  0  0  0  0  0
    1.0151    4.4217    1.7661 H   0  0  0  0  0  0  0  0  0  0  0  0
    0.1494    5.0129   -0.1181 C   0  0  0  0  0  0  0  0  0  0  0  0
   -0.0079    6.0611    0.2155 H   0  0  0  0  0  0  0  0  0  0  0  0
   -0.7309    4.7311   -0.7337 H   0  0  0  0  0  0  0  0  0  0  0  0
  1  4  3  0  0  0  0
  2  3  1  0  0  0  0
  4  9  1  0  0  0  0
  5  6  1  0  0  0  0
  5 11  1  0  0  0  0
  7  5  1  0  0  0  0
  8  5  1  0  0  0  0
  9 10  1  1  0  0  0
  9  2  1  0  0  0  0
 11 12  1  0  0  0  0
 11  9  1  0  0  0  0
 13 11  1  0  0  0  0
M  END
