13
q = -1.0, confidence = 0.0

 35 36  0  0  1  0  0  0  0  0999 V2000
   -4.6935   -0.2882    1.8048 B   0  0  2  0  0  0  0  0  0  0  0  0
   -5.5657   -0.3270    0.2779 C   0  0  1  0  0  0  0  0  0  0  0  0
   -7.0284   -0.0835   -0.0258 C   0  0  0  0  0  0  0  0  0  0  0  0
   -7.3425   -0.3841   -1.4980 C   0  0  0  0  0  0  0  0  0  0  0  0
   -4.6008    0.7324    0.4120 C   0  0  1  0  0  0  0  0  0  0  0  0
   -4.9552    2.1977    0.2873 C   0  0  0  0  0  0  0  0  0  0  0  0
   -4.7342    2.7095   -1.1427 C   0  0  0  0  0  0  0  0  0  0  0  0
   -3.2024    0.3235    0.9791 B   0  0  0  0  0  0  0  0  0  0  0  0
   -2.2733   -0.8392    0.1994 C   0  0  2  0  0  0  0  0  0  0  0  0
   -2.6497   -1.0730   -1.2557 C   0  0  0  0  0  0  0  0  0  0  0  0
   -3.4166   -1.4465    1.3979 B   0  0  0  0  0  2  0  0  0  0  0  0
   -5.1185   -1.6947    0.8455 B   0  0  0  0  0  0  0  0  0  0  0  0
   -0.9420   -0.9343    0.6335 C   0  0  0  0  0  2  0  0  0  0  0  0
   -0.6309   -0.6248    2.0697 C   0  0  0  0  0  0  0  0  0  0  0  0
   -5.1402    0.0445    2.8786 H   0  0  0  0  0  0  0  0  0  0  0  0
   -2.5647    1.1626    1.5908 H   0  0  0  0  0  0  0  0  0  0  0  0
   -2.9435   -2.1493    2.2636 H   0  0  0  0  0  0  0  0  0  0  0  0
   -5.8579   -2.6043    1.1519 H   0  0  0  0  0  0  0  0  0  0  0  0
   -3.9948   -2.2307    0.4369 H   0  0  0  0  0  0  0  0  0  0  0  0
   -7.6425   -0.7456    0.6186 H   0  0  0  0  0  0  0  0  0  0  0  0
   -7.3281    0.9587    0.2133 H   0  0  0  0  0  0  0  0  0  0  0  0
   -8.4184   -0.2326   -1.7193 H   0  0  0  0  0  0  0  0  0  0  0  0
   -6.7604    0.2717   -2.1778 H   0  0  0  0  0  0  0  0  0  0  0  0
   -7.0835   -1.4328   -1.7490 H   0  0  0  0  0  0  0  0  0  0  0  0
   -6.0050    2.3969    0.5936 H   0  0  0  0  0  0  0  0  0  0  0  0
   -4.3099    2.7698    0.9856 H   0  0  0  0  0  0  0  0  0  0  0  0
   -3.6947    2.5134   -1.4778 H   0  0  0  0  0  0  0  0  0  0  0  0
   -5.4059    2.1993   -1.8629 H   0  0  0  0  0  0  0  0  0  0  0  0
   -4.9228    3.7998   -1.2191 H   0  0  0  0  0  0  0  0  0  0  0  0
   -3.7457   -1.1289   -1.3835 H   0  0  0  0  0  0  0  0  0  0  0  0
   -2.3001   -0.2377   -1.8924 H   0  0  0  0  0  0  0  0  0  0  0  0
   -2.2092   -2.0084   -1.6541 H   0  0  0  0  0  0  0  0  0  0  0  0
    0.3142   -1.0730    2.4212 H   0  0  0  0  0  0  0  0  0  0  0  0
   -0.5179    0.4762    2.1819 H   0  0  0  0  0  0  0  0  0  0  0  0
   -1.4555   -0.9130    2.7540 H   0  0  0  0  0  0  0  0  0  0  0  0
  1 15  1  1  0  0  0
  2  3  1  6  0  0  0
  2  5  1  0  0  0  0
  2 12  1  0  0  0  0
  2  1  1  0  0  0  0
  3 21  1  0  0  0  0
  3 20  1  0  0  0  0
  4  3  1  0  0  0  0
  5  6  1  1  0  0  0
  5  8  1  0  0  0  0
  5  1  1  0  0  0  0
  6 25  1  0  0  0  0
  6 26  1  0  0  0  0
  7  6  1  0  0  0  0
  8 16  1  0  0  0  0
  9 13  1  1  0  0  0
  9  8  1  0  0  0  0
  9 11  1  0  0  0  0
 10  9  1  0  0  0  0
 11 17  1  0  0  0  0
 12 18  1  0  0  0  0
 12  1  1  0  0  0  0
 13 14  1  0  0  0  0
 14 34  1  0  0  0  0
 14 33  1  0  0  0  0
 14 35  1  0  0  0  0
 19 12  1  0  0  0  0
 22  4  1  0  0  0  0
 23  4  1  0  0  0  0
 24  4  1  0  0  0  0
 27  7  1  0  0  0  0
 28  7  1  0  0  0  0
 29  7  1  0  0  0  0
 30 10  1  0  0  0  0
 31 10  1  0  0  0  0
 32 10  1  0  0  0  0
M  END
