1
q = -1.0, confidence = 0.002

  6  5  0  0  0  0  0  0  0  0999 V2000
   -0.2688   -1.7272   -1.0497 C   0  0  0  0  0  0  0  0  0  0  0  0
   -0.4627   -2.8801   -0.8668 N   0  0  0  0  0  0  0  0  0  0  0  0
   -0.9518   -4.2681   -0.2769 B   0  0  0  0  0  0  0  0  0  0  0  0
   -0.5515   -5.2786   -1.1259 F   0  0  0  0  0  0  0  0  0  0  0  0
   -0.3820   -4.3701    1.0005 F   0  0  0  0  0  0  0  0  0  0  0  0
   -2.3566   -4.1613   -0.1940 F   0  0  0  0  0  0  0  0  0  0  0  0
  1  2  1  0  0  0  0
  2  3  1  0  0  0  0
  3  6  1  0  0  0  0
  3  5  1  0  0  0  0
  4  3  1  0  0  0  0
M  END
