6
q = 0.0, confidence = 0.71

 27 28  0  0  1  0  0  0  0  0999 V2000
    0.7952   -2.6892    0.9026 O   0  0  0  0  0  0  0  0  0  0  0  0
   -1.1657   -0.5010   -0.7337 O   0  0  0  0  0  0  0  0  0  0  0  0
   -1.4320   -0.2084    1.5148 O   0  0  0  0  0  0  0  0  0  0  0  0
    3.3830   -1.7010   -0.9559 O   0  0  0  0  0  0  0  0  0  0  0  0
    1.5042    0.7181   -2.2462 C   0  0  0  0  0  3  0  0  0  0  0  0
    1.2436   -0.4720   -1.5451 C   0  0  2  0  0  3  0  0  0  0  0  0
    0.1742   -0.6777   -0.5585 C   0  0  2  0  0  3  0  0  0  0  0  0
    0.9801   -1.7944    0.1100 C   0  0  0  0  0  0  0  0  0  0  0  0
    2.1570   -1.2425   -0.6985 C   0  0  1  0  0  3  0  0  0  0  0  0
    4.0511   -2.2371    0.1961 C   0  0  0  0  0  0  0  0  0  0  0  0
   -1.9303   -0.3073    0.4146 C   0  0  0  0  0  0  0  0  0  0  0  0
   -3.3773   -0.2206    0.0938 C   0  0  0  0  0  0  0  0  0  0  0  0
   -3.8771   -0.3599   -1.2182 C   0  0  0  0  0  0  0  0  0  0  0  0
   -5.2551   -0.2666   -1.4517 C   0  0  0  0  0  0  0  0  0  0  0  0
   -6.1373   -0.0350   -0.3831 C   0  0  0  0  0  0  0  0  0  0  0  0
   -5.6417    0.1033    0.9249 C   0  0  0  0  0  0  0  0  0  0  0  0
   -4.2664    0.0104    1.1647 C   0  0  0  0  0  0  0  0  0  0  0  0
   -3.1789   -0.5423   -2.0464 H   0  0  0  0  0  0  0  0  0  0  0  0
   -5.6454   -0.3757   -2.4746 H   0  0  0  0  0  0  0  0  0  0  0  0
   -7.2195    0.0375   -0.5710 H   0  0  0  0  0  0  0  0  0  0  0  0
   -6.3338    0.2837    1.7610 H   0  0  0  0  0  0  0  0  0  0  0  0
   -3.8498    0.1131    2.1773 H   0  0  0  0  0  0  0  0  0  0  0  0
    4.3063   -1.4132    0.8984 H   0  0  0  0  0  0  0  0  0  0  0  0
    3.4089   -2.9759    0.7170 H   0  0  0  0  0  0  0  0  0  0  0  0
    4.9767   -2.7174   -0.1680 H   0  0  0  0  0  0  0  0  0  0  0  0
    2.4766    0.8489   -2.7436 H   0  0  0  0  0  0  0  0  0  0  0  0
    0.6613    1.3027   -2.6429 H   0  0  0  0  0  0  0  0  0  0  0  0
  2 11  1  0  0  0  0
  4 10  1  0  0  0  0
  6  5  1  1  0  0  0
  6  9  1  0  0  0  0
  6  7  1  0  0  0  0
  7  2  1  6  0  0  0
  7  8  1  0  0  0  0
  8  1  2  0  0  0  0
  9  4  1  6  0  0  0
  9  8  1  0  0  0  0
 10 24  1  0  0  0  0
 10 23  1  0  0  0  0
 11  3  2  0  0  0  0
 12 11  1  0  0  0  0
 12 17  1  0  0  0  0
 13 12  2  0  0  0  0
 14 13  1  0  0  0  0
 14 15  2  0  0  0  0
 15 16  1  0  0  0  0
 16 17  2  0  0  0  0
 16 21  1  0  0  0  0
 17 22  1  0  0  0  0
 18 13  1  0  0  0  0
 19 14  1  0  0  0  0
 20 15  1  0  0  0  0
 25 10  1  0  0  0  0
 26  5  1  0  0  0  0
 27  5  1  0  0  0  0
M  END
