19
q = -1.0, confidence = 0.02

 22 22  0  0  0  0  0  0  0  0999 V2000
    4.4672    0.7352    1.2657 O   0  0  0  0  0  0  0  0  0  0  0  0
    6.1017    1.1110   -0.2487 O   0  0  0  0  0  0  0  0  0  0  0  0
    6.3132    1.7834    0.4356 H   0  0  0  0  0  0  0  0  0  0  0  0
    0.7677   -0.9790   -0.0072 C   0  0  0  0  0  0  0  0  0  0  0  0
    4.5665   -0.6353   -0.7464 C   0  0  0  0  0  0  0  0  0  0  0  0
    5.3891   -1.3819   -0.7793 H   0  0  0  0  0  0  0  0  0  0  0  0
    4.5242   -0.2060   -1.7705 H   0  0  0  0  0  0  0  0  0  0  0  0
    5.0042    0.4600    0.2079 C   0  0  0  0  0  0  0  0  0  0  0  0
    3.2461   -1.2883   -0.3421 C   0  0  0  0  0  0  0  0  0  0  0  0
    3.3117   -1.6014    0.7203 H   0  0  0  0  0  0  0  0  0  0  0  0
    3.0921   -2.2103   -0.9400 H   0  0  0  0  0  0  0  0  0  0  0  0
    2.0360   -0.3524   -0.5143 C   0  0  0  0  0  0  0  0  0  0  0  0
    2.2238    0.5867    0.0425 H   0  0  0  0  0  0  0  0  0  0  0  0
    1.9178   -0.0814   -1.5841 H   0  0  0  0  0  0  0  0  0  0  0  0
   -0.8862   -1.7517    1.4454 C   0  0  0  0  0  0  0  0  0  0  0  0
   -1.4765   -1.9301    2.3522 H   0  0  0  0  0  0  0  0  0  0  0  0
    0.3048   -0.9437    1.3557 C   0  0  0  0  0  0  0  0  0  0  0  0
    0.7991   -0.4141    2.1788 H   0  0  0  0  0  0  0  0  0  0  0  0
   -1.1579   -2.2884    0.1492 C   0  0  0  0  0  3  0  0  0  0  0  0
   -1.9912   -2.9512   -0.1124 H   0  0  0  0  0  0  0  0  0  0  0  0
   -0.1352   -1.8150   -0.7526 C   0  0  0  0  0  0  0  0  0  0  0  0
   -0.0431   -2.0657   -1.8161 H   0  0  0  0  0  0  0  0  0  0  0  0
  2  8  1  0  0  0  0
  2  3  1  0  0  0  0
  4 17  1  0  0  0  0
  5  9  1  0  0  0  0
  5  8  1  0  0  0  0
  6  5  1  0  0  0  0
  7  5  1  0  0  0  0
  8  1  2  0  0  0  0
  9 10  1  0  0  0  0
 11  9  1  0  0  0  0
 12  9  1  0  0  0  0
 12  4  1  0  0  0  0
 12 13  1  0  0  0  0
 14 12  1  0  0  0  0
 15 16  1  0  0  0  0
 17 15  2  0  0  0  0
 17 18  1  0  0  0  0
 19 15  1  0  0  0  0
 20 19  1  0  0  0  0
 21  4  2  0  0  0  0
 21 19  1  0  0  0  0
 22 21  1  0  0  0  0
M  END
