4
q = 0.0, confidence = 0.986

 25 25  0  0  1  0  0  0  0  0999 V2000
   -2.8448    2.9657   -0.0602 N   0  0  0  0  0  0  0  0  0  0  0  0
   -3.7082    0.8044    0.0072 N   0  0  0  0  0  0  0  0  0  0  0  0
   -4.6044    1.2810    0.1166 H   0  0  0  0  0  0  0  0  0  0  0  0
   -0.1255    0.6831    0.0165 C   0  0  0  0  0  3  0  0  0  0  0  0
   -1.3054    1.1253    0.0072 C   0  0  0  0  0  0  0  0  0  0  0  0
   -2.6026    1.6136   -0.0148 C   0  0  2  0  0  3  0  0  0  0  0  0
   -1.7520    3.9198    0.0640 C   0  0  0  0  0  0  0  0  0  0  0  0
   -1.8363    4.4972    1.0099 H   0  0  0  0  0  0  0  0  0  0  0  0
   -1.7616    4.6293   -0.7892 H   0  0  0  0  0  0  0  0  0  0  0  0
   -0.7933    3.3703    0.0658 H   0  0  0  0  0  0  0  0  0  0  0  0
   -4.1938    3.4975   -0.1193 C   0  0  0  0  0  0  0  0  0  0  0  0
   -4.7836    3.0182   -0.9301 H   0  0  0  0  0  0  0  0  0  0  0  0
   -4.1453    4.5778   -0.3459 H   0  0  0  0  0  0  0  0  0  0  0  0
   -4.7449    3.3827    0.8436 H   0  0  0  0  0  0  0  0  0  0  0  0
   -3.8331   -0.6032   -0.0161 C   0  0  0  0  0  0  0  0  0  0  0  0
   -2.7756   -1.4920   -0.2961 C   0  0  0  0  0  0  0  0  0  0  0  0
   -1.7723   -1.1073   -0.5042 H   0  0  0  0  0  0  0  0  0  0  0  0
   -3.0146   -2.8733   -0.2953 C   0  0  0  0  0  0  0  0  0  0  0  0
   -2.1703   -3.5470   -0.5050 H   0  0  0  0  0  0  0  0  0  0  0  0
   -4.2924   -3.3882   -0.0307 C   0  0  0  0  0  0  0  0  0  0  0  0
   -4.4669   -4.4742   -0.0324 H   0  0  0  0  0  0  0  0  0  0  0  0
   -5.3479   -2.5012    0.2373 C   0  0  0  0  0  0  0  0  0  0  0  0
   -6.3579   -2.8848    0.4460 H   0  0  0  0  0  0  0  0  0  0  0  0
   -5.1219   -1.1208    0.2473 C   0  0  0  0  0  0  0  0  0  0  0  0
   -5.9530   -0.4298    0.4665 H   0  0  0  0  0  0  0  0  0  0  0  0
  1  6  1  0  0  0  0
  1  7  1  0  0  0  0
  2  3  1  0  0  0  0
  5  4  3  0  0  0  0
  6  2  1  0  0  0  0
  6  5  1  1  0  0  0
  7 10  1  0  0  0  0
  7  8  1  0  0  0  0
  9  7  1  0  0  0  0
 11  1  1  0  0  0  0
 11 14  1  0  0  0  0
 12 11  1  0  0  0  0
 13 11  1  0  0  0  0
 15  2  1  0  0  0  0
 15 24  1  0  0  0  0
 16 18  1  0  0  0  0
 16 15  2  0  0  0  0
 17 16  1  0  0  0  0
 18 20  2  0  0  0  0
 19 18  1  0  0  0  0
 20 22  1  0  0  0  0
 21 20  1  0  0  0  0
 22 24  2  0  0  0  0
 22 23  1  0  0  0  0
 24 25  1  0  0  0  0
M  END
