6
q = -1.0, confidence = 0.0

 48 52  0  0  1  0  0  0  0  0999 V2000
   -0.5212   -1.4351   -2.7715 O   0  0  0  0  0  0  0  0  0  0  0  0
   -0.2059   -1.9999    0.4268 O   0  0  0  0  0  0  0  0  0  0  0  0
   -3.1317    0.0398   -0.5070 O   0  0  0  0  0  0  0  0  0  0  0  0
   -0.1283    0.6163    1.4964 O   0  0  0  0  0  0  0  0  0  0  0  0
    0.3785    2.5496   -0.4090 O   0  0  0  0  0  0  0  0  0  0  0  0
    0.3309    0.3409   -1.4094 C   0  0  0  0  0  3  0  0  0  0  0  0
    0.7804    0.6838   -2.3602 H   0  0  0  0  0  0  0  0  0  0  0  0
   -0.4788   -0.8852   -1.6769 C   0  0  0  0  0  0  0  0  0  0  0  0
   -1.2359   -1.4603   -0.4419 C   0  0  2  0  0  0  0  0  0  0  0  0
   -2.0199   -0.3447    0.3247 C   0  0  1  0  0  0  0  0  0  0  0  0
   -1.1714    0.9581    0.5609 C   0  0  2  0  0  0  0  0  0  0  0  0
   -0.5058    1.4588   -0.7612 C   0  0  1  0  0  0  0  0  0  0  0  0
   -2.0852   -2.6676   -0.8674 C   0  0  0  0  0  0  0  0  0  0  0  0
   -2.8984   -2.8541   -0.1401 H   0  0  0  0  0  0  0  0  0  0  0  0
   -2.5238   -2.5097   -1.8684 H   0  0  0  0  0  0  0  0  0  0  0  0
   -1.0682   -3.8162   -0.8317 C   0  0  0  0  0  0  0  0  0  0  0  0
   -1.5381   -4.8131   -0.7229 H   0  0  0  0  0  0  0  0  0  0  0  0
   -0.4710   -3.8086   -1.7638 H   0  0  0  0  0  0  0  0  0  0  0  0
   -0.2049   -3.4376    0.3715 C   0  0  0  0  0  0  0  0  0  0  0  0
   -0.6309   -3.8340    1.3228 H   0  0  0  0  0  0  0  0  0  0  0  0
    0.8465   -3.7842    0.2985 H   0  0  0  0  0  0  0  0  0  0  0  0
   -2.6200   -0.8898    1.6453 C   0  0  0  0  0  0  0  0  0  0  0  0
   -2.4455   -1.9790    1.7236 H   0  0  0  0  0  0  0  0  0  0  0  0
   -2.1212   -0.4445    2.5228 H   0  0  0  0  0  0  0  0  0  0  0  0
   -4.1207   -0.5624    1.5543 C   0  0  0  0  0  0  0  0  0  0  0  0
   -4.7600   -1.3372    2.0213 H   0  0  0  0  0  0  0  0  0  0  0  0
   -4.3466    0.3988    2.0589 H   0  0  0  0  0  0  0  0  0  0  0  0
   -4.3566   -0.4442    0.0443 C   0  0  0  0  0  0  0  0  0  0  0  0
   -4.6249   -1.4302   -0.4019 H   0  0  0  0  0  0  0  0  0  0  0  0
   -5.1567    0.2751   -0.2272 H   0  0  0  0  0  0  0  0  0  0  0  0
   -1.9716    2.0999    1.2497 C   0  0  0  0  0  0  0  0  0  0  0  0
   -1.7754    3.0526    0.7236 H   0  0  0  0  0  0  0  0  0  0  0  0
   -3.0609    1.9262    1.2066 H   0  0  0  0  0  0  0  0  0  0  0  0
   -1.4087    2.1781    2.6771 C   0  0  0  0  0  0  0  0  0  0  0  0
   -1.4282    3.2059    3.0897 H   0  0  0  0  0  0  0  0  0  0  0  0
   -1.9777    1.5270    3.3721 H   0  0  0  0  0  0  0  0  0  0  0  0
    0.0097    1.6479    2.4817 C   0  0  0  0  0  0  0  0  0  0  0  0
    0.6876    2.4459    2.1068 H   0  0  0  0  0  0  0  0  0  0  0  0
    0.4575    1.1837    3.3826 H   0  0  0  0  0  0  0  0  0  0  0  0
   -1.4825    2.0617   -1.8031 C   0  0  0  0  0  0  0  0  0  0  0  0
   -1.8609    1.3010   -2.5096 H   0  0  0  0  0  0  0  0  0  0  0  0
   -2.3645    2.4995   -1.2978 H   0  0  0  0  0  0  0  0  0  0  0  0
   -0.6334    3.1578   -2.4575 C   0  0  0  0  0  0  0  0  0  0  0  0
    0.0444    2.7277   -3.2229 H   0  0  0  0  0  0  0  0  0  0  0  0
   -1.2393    3.9442   -2.9483 H   0  0  0  0  0  0  0  0  0  0  0  0
    0.1658    3.6788   -1.2628 C   0  0  0  0  0  0  0  0  0  0  0  0
    1.1531    4.1054   -1.5364 H   0  0  0  0  0  0  0  0  0  0  0  0
   -0.4046    4.4672   -0.7143 H   0  0  0  0  0  0  0  0  0  0  0  0
  1  8  2  0  0  0  0
  3 28  1  0  0  0  0
  4 37  1  0  0  0  0
  7  6  1  0  0  0  0
  8  6  1  0  0  0  0
  9  8  1  6  0  0  0
  9 10  1  0  0  0  0
  9  2  1  0  0  0  0
 10  3  1  6  0  0  0
 10 11  1  0  0  0  0
 10 22  1  0  0  0  0
 11 31  1  0  0  0  0
 11  4  1  1  0  0  0
 12  6  1  6  0  0  0
 12  5  1  0  0  0  0
 12 11  1  0  0  0  0
 13 16  1  0  0  0  0
 13  9  1  0  0  0  0
 13 14  1  0  0  0  0
 15 13  1  0  0  0  0
 16 17  1  0  0  0  0
 16 19  1  0  0  0  0
 18 16  1  0  0  0  0
 19  2  1  0  0  0  0
 19 20  1  0  0  0  0
 21 19  1  0  0  0  0
 22 23  1  0  0  0  0
 22 24  1  0  0  0  0
 25 22  1  0  0  0  0
 25 26  1  0  0  0  0
 25 27  1  0  0  0  0
 28 25  1  0  0  0  0
 29 28  1  0  0  0  0
 30 28  1  0  0  0  0
 31 34  1  0  0  0  0
 32 31  1  0  0  0  0
 33 31  1  0  0  0  0
 34 35  1  0  0  0  0
 34 36  1  0  0  0  0
 37 34  1  0  0  0  0
 37 39  1  0  0  0  0
 38 37  1  0  0  0  0
 40 42  1  0  0  0  0
 40 12  1  0  0  0  0
 41 40  1  0  0  0  0
 43 40  1  0  0  0  0
 43 46  1  0  0  0  0
 44 43  1  0  0  0  0
 45 43  1  0  0  0  0
 46 48  1  0  0  0  0
 46  5  1  0  0  0  0
 47 46  1  0  0  0  0
M  END
