6
q = -1.0, confidence = 0.02

 57 62  0  0  1  0  0  0  0  0999 V2000
    0.0768   -1.4179    1.4546 O   0  0  0  0  0  0  0  0  0  0  0  0
    2.4138   -2.3907    0.3421 O   0  0  0  0  0  0  0  0  0  0  0  0
    3.7706    0.1254   -0.4045 O   0  0  0  0  0  0  0  0  0  0  0  0
    2.2240    2.4555    0.5088 O   0  0  0  0  0  0  0  0  0  0  0  0
   -0.5658    2.3126   -0.5828 O   0  0  0  0  0  0  0  0  0  0  0  0
   -0.4128   -0.0643   -0.4776 C   0  0  0  0  0  3  0  0  0  0  0  0
   -0.2812   -0.0096   -1.5769 H   0  0  0  0  0  0  0  0  0  0  0  0
    0.2599   -1.3421    0.0236 C   0  0  2  0  0  0  0  0  0  0  0  0
   -0.3913   -2.6437   -0.5360 C   0  0  0  0  0  0  0  0  0  0  0  0
   -1.0495   -2.4375   -1.4032 H   0  0  0  0  0  0  0  0  0  0  0  0
    0.3952   -3.3454   -0.8666 H   0  0  0  0  0  0  0  0  0  0  0  0
   -1.1372   -3.2459    0.6633 C   0  0  0  0  0  0  0  0  0  0  0  0
   -2.1694   -2.8434    0.7458 H   0  0  0  0  0  0  0  0  0  0  0  0
   -1.2121   -4.3499    0.6132 H   0  0  0  0  0  0  0  0  0  0  0  0
   -0.2836   -2.7474    1.8268 C   0  0  0  0  0  0  0  0  0  0  0  0
   -0.8237   -2.6901    2.7932 H   0  0  0  0  0  0  0  0  0  0  0  0
    0.6263   -3.3766    1.9560 H   0  0  0  0  0  0  0  0  0  0  0  0
    1.7916   -1.2739   -0.3236 C   0  0  2  0  0  0  0  0  0  0  0  0
    2.0574   -1.5058   -1.8466 C   0  0  0  0  0  0  0  0  0  0  0  0
    1.1278   -1.4654   -2.4449 H   0  0  0  0  0  0  0  0  0  0  0  0
    2.7382   -0.7293   -2.2286 H   0  0  0  0  0  0  0  0  0  0  0  0
    2.7494   -2.8779   -1.9285 C   0  0  0  0  0  0  0  0  0  0  0  0
    2.0198   -3.6915   -2.1194 H   0  0  0  0  0  0  0  0  0  0  0  0
    3.5134   -2.9217   -2.7294 H   0  0  0  0  0  0  0  0  0  0  0  0
    3.3500   -3.0187   -0.5313 C   0  0  0  0  0  0  0  0  0  0  0  0
    3.4713   -4.0689   -0.1953 H   0  0  0  0  0  0  0  0  0  0  0  0
    4.3420   -2.5138   -0.4744 H   0  0  0  0  0  0  0  0  0  0  0  0
    2.4551    0.0504    0.2003 C   0  0  1  0  0  0  0  0  0  0  0  0
    2.7361   -0.0058    1.7316 C   0  0  0  0  0  0  0  0  0  0  0  0
    2.5934    1.0055    2.1520 H   0  0  0  0  0  0  0  0  0  0  0  0
    2.0626   -0.7161    2.2366 H   0  0  0  0  0  0  0  0  0  0  0  0
    4.2175   -0.3816    1.8371 C   0  0  0  0  0  0  0  0  0  0  0  0
    4.6878   -0.0190    2.7727 H   0  0  0  0  0  0  0  0  0  0  0  0
    4.3475   -1.4797    1.7800 H   0  0  0  0  0  0  0  0  0  0  0  0
    4.7804    0.2899    0.5910 C   0  0  0  0  0  0  0  0  0  0  0  0
    4.9762    1.3740    0.7723 H   0  0  0  0  0  0  0  0  0  0  0  0
    5.7133   -0.1709    0.2042 H   0  0  0  0  0  0  0  0  0  0  0  0
    1.6627    1.3473   -0.2270 C   0  0  2  0  0  0  0  0  0  0  0  0
    1.8741    1.7255   -1.7214 C   0  0  0  0  0  0  0  0  0  0  0  0
    2.7937    1.2356   -2.0862 H   0  0  0  0  0  0  0  0  0  0  0  0
    1.0243    1.4263   -2.3605 H   0  0  0  0  0  0  0  0  0  0  0  0
    2.0872    3.2424   -1.6980 C   0  0  0  0  0  0  0  0  0  0  0  0
    2.6758    3.6103   -2.5617 H   0  0  0  0  0  0  0  0  0  0  0  0
    1.1121    3.7651   -1.6785 H   0  0  0  0  0  0  0  0  0  0  0  0
    2.8128    3.4146   -0.3691 C   0  0  0  0  0  0  0  0  0  0  0  0
    3.9065    3.2167   -0.4785 H   0  0  0  0  0  0  0  0  0  0  0  0
    2.6881    4.4184    0.0882 H   0  0  0  0  0  0  0  0  0  0  0  0
    0.1291    1.2462    0.1137 C   0  0  1  0  0  0  0  0  0  0  0  0
   -0.1956    1.4937    1.6086 C   0  0  0  0  0  0  0  0  0  0  0  0
   -1.1033    0.9157    1.8780 H   0  0  0  0  0  0  0  0  0  0  0  0
    0.6014    1.1559    2.2884 H   0  0  0  0  0  0  0  0  0  0  0  0
   -0.4668    2.9991    1.6843 C   0  0  0  0  0  0  0  0  0  0  0  0
   -1.1205    3.2765    2.5345 H   0  0  0  0  0  0  0  0  0  0  0  0
    0.4886    3.5487    1.7714 H   0  0  0  0  0  0  0  0  0  0  0  0
   -1.1217    3.2669    0.3311 C   0  0  0  0  0  0  0  0  0  0  0  0
   -2.2288    3.1322    0.3819 H   0  0  0  0  0  0  0  0  0  0  0  0
   -0.9252    4.2865   -0.0637 H   0  0  0  0  0  0  0  0  0  0  0  0
  1 15  1  0  0  0  0
  3 35  1  0  0  0  0
  5 55  1  0  0  0  0
  6 48  1  0  0  0  0
  7  6  1  0  0  0  0
  8  6  1  6  0  0  0
  8  1  1  0  0  0  0
  9  8  1  0  0  0  0
  9 12  1  0  0  0  0
 10  9  1  0  0  0  0
 11  9  1  0  0  0  0
 12 13  1  0  0  0  0
 12 15  1  0  0  0  0
 14 12  1  0  0  0  0
 15 17  1  0  0  0  0
 15 16  1  0  0  0  0
 18  8  1  0  0  0  0
 18 28  1  0  0  0  0
 18  2  1  1  0  0  0
 19 18  1  0  0  0  0
 20 19  1  0  0  0  0
 21 19  1  0  0  0  0
 22 19  1  0  0  0  0
 22 25  1  0  0  0  0
 23 22  1  0  0  0  0
 24 22  1  0  0  0  0
 25 27  1  0  0  0  0
 25 26  1  0  0  0  0
 25  2  1  0  0  0  0
 28  3  1  6  0  0  0
 28 29  1  0  0  0  0
 29 32  1  0  0  0  0
 29 30  1  0  0  0  0
 29 31  1  0  0  0  0
 32 33  1  0  0  0  0
 34 32  1  0  0  0  0
 35 36  1  0  0  0  0
 35 32  1  0  0  0  0
 37 35  1  0  0  0  0
 38 48  1  0  0  0  0
 38 28  1  0  0  0  0
 38  4  1  1  0  0  0
 39 42  1  0  0  0  0
 39 38  1  0  0  0  0
 40 39  1  0  0  0  0
 41 39  1  0  0  0  0
 42 44  1  0  0  0  0
 42 45  1  0  0  0  0
 43 42  1  0  0  0  0
 45 47  1  0  0  0  0
 45  4  1  0  0  0  0
 46 45  1  0  0  0  0
 48  5  1  6  0  0  0
 48 49  1  0  0  0  0
 49 52  1  0  0  0  0
 49 50  1  0  0  0  0
 49 51  1  0  0  0  0
 52 54  1  0  0  0  0
 52 53  1  0  0  0  0
 55 56  1  0  0  0  0
 55 52  1  0  0  0  0
 57 55  1  0  0  0  0
M  END
