9
q = 0.0, confidence = 0.926

 14 13  0  0  0  0  0  0  0  0999 V2000
   -0.4390   -1.3517    2.4833 O   0  5  0  0  0  0  0  0  0  0  0  0
   -0.5816   -0.1319    2.9141 C   0  0  0  0  0  0  0  0  0  0  0  0
   -1.9232    0.3306    3.4277 C   0  0  0  0  0  0  0  0  0  0  0  0
   -2.7242    0.0701    2.7085 H   0  0  0  0  0  0  0  0  0  0  0  0
   -1.9418    1.4188    3.6265 H   0  0  0  0  0  0  0  0  0  0  0  0
   -2.1460   -0.2079    4.3725 H   0  0  0  0  0  0  0  0  0  0  0  0
    0.5778    0.7212    2.9181 C   0  0  0  0  0  0  0  0  0  0  0  0
    0.5033    1.7721    3.2400 H   0  0  0  0  0  0  0  0  0  0  0  0
    1.8090    0.1398    2.3881 C   0  0  0  0  0  3  0  0  0  0  0  0
    1.9384   -0.9247    2.6667 H   0  0  0  0  0  0  0  0  0  0  0  0
    3.0850    0.9465    2.4847 C   0  0  0  0  0  0  0  0  0  0  0  0
    2.9023    2.0304    2.3519 H   0  0  0  0  0  0  0  0  0  0  0  0
    3.8383    0.6355    1.7322 H   0  0  0  0  0  0  0  0  0  0  0  0
    3.5571    0.8096    3.4826 H   0  0  0  0  0  0  0  0  0  0  0  0
  1  2  1  0  0  0  0
  2  7  2  0  0  0  0
  2  3  1  0  0  0  0
  3  5  1  0  0  0  0
  3  6  1  0  0  0  0
  4  3  1  0  0  0  0
  7  8  1  0  0  0  0
  9 11  1  0  0  0  0
  9 10  1  0  0  0  0
  9  7  1  0  0  0  0
 11 14  1  0  0  0  0
 12 11  1  0  0  0  0
 13 11  1  0  0  0  0
M  CHG  1   1  -1
M  END
