10
q = 0.0, confidence = 0.97

 32 32  0  0  1  0  0  0  0  0999 V2000
   -2.0809    4.1093   -0.8843 F   0  0  0  0  0  0  0  0  0  0  0  0
   -3.9307    3.3966    0.0266 F   0  0  0  0  0  0  0  0  0  0  0  0
   -3.2496    2.5430   -1.8620 F   0  0  0  0  0  0  0  0  0  0  0  0
   -4.5391   -1.9582    1.8260 O   0  0  0  0  0  0  0  0  0  0  0  0
   -2.9675   -3.0203    0.5885 O   0  0  0  0  0  0  0  0  0  0  0  0
   -3.0238   -0.3192   -0.5809 C   0  0  0  0  0  0  0  0  0  0  0  0
   -2.0070   -0.4587   -1.4694 C   0  0  0  0  0  0  0  0  0  0  0  0
   -2.0509   -1.2407   -2.2401 H   0  0  0  0  0  0  0  0  0  0  0  0
   -0.8122    0.3888   -1.4613 C   0  0  0  0  0  3  0  0  0  0  0  0
   -0.7584    1.5793   -0.6332 C   0  0  0  0  0  3  0  0  0  0  0  0
   -2.0303    1.9456    0.1301 C   0  0  2  0  0  0  0  0  0  0  0  0
   -1.7880    2.4817    1.0732 H   0  0  0  0  0  0  0  0  0  0  0  0
   -2.9142    0.7329    0.5012 C   0  0  0  0  0  0  0  0  0  0  0  0
   -2.5000    0.2688    1.4201 H   0  0  0  0  0  0  0  0  0  0  0  0
   -3.9144    1.1061    0.7942 H   0  0  0  0  0  0  0  0  0  0  0  0
   -2.8302    2.9838   -0.6570 C   0  0  0  0  0  0  0  0  0  0  0  0
   -4.2130   -1.2867   -0.5170 C   0  0  0  0  0  0  0  0  0  0  0  0
   -3.9667   -2.1129    0.7638 C   0  0  0  0  0  0  0  0  0  0  0  0
   -5.5478   -0.5319   -0.3715 C   0  0  0  0  0  0  0  0  0  0  0  0
   -5.6174   -0.0067    0.5981 H   0  0  0  0  0  0  0  0  0  0  0  0
   -6.4000   -1.2386   -0.4175 H   0  0  0  0  0  0  0  0  0  0  0  0
   -5.6519    0.2064   -1.1911 H   0  0  0  0  0  0  0  0  0  0  0  0
   -4.2915   -2.2179   -1.7395 C   0  0  0  0  0  0  0  0  0  0  0  0
   -4.4313   -1.6194   -2.6617 H   0  0  0  0  0  0  0  0  0  0  0  0
   -5.1555   -2.9046   -1.6391 H   0  0  0  0  0  0  0  0  0  0  0  0
   -3.3836   -2.8369   -1.8561 H   0  0  0  0  0  0  0  0  0  0  0  0
   -2.5610   -3.7281    1.7691 C   0  0  0  0  0  0  0  0  0  0  0  0
   -3.4363   -4.1739    2.2813 H   0  0  0  0  0  0  0  0  0  0  0  0
   -2.0420   -3.0342    2.4598 H   0  0  0  0  0  0  0  0  0  0  0  0
   -1.8643   -4.5149    1.4267 H   0  0  0  0  0  0  0  0  0  0  0  0
   -0.2528    0.4117   -2.4137 H   0  0  0  0  0  0  0  0  0  0  0  0
   -0.2914    2.4621   -1.1029 H   0  0  0  0  0  0  0  0  0  0  0  0
  1 16  1  0  0  0  0
  3 16  1  0  0  0  0
  5 18  1  0  0  0  0
  5 27  1  0  0  0  0
  6 17  1  0  0  0  0
  6 13  1  0  0  0  0
  7  9  1  0  0  0  0
  7  6  2  0  0  0  0
  8  7  1  0  0  0  0
  9 10  1  0  0  0  0
 10 11  1  0  0  0  0
 11 13  1  0  0  0  0
 11 12  1  1  0  0  0
 13 15  1  0  0  0  0
 13 14  1  0  0  0  0
 16  2  1  0  0  0  0
 16 11  1  0  0  0  0
 17 19  1  0  0  0  0
 17 18  1  0  0  0  0
 18  4  2  0  0  0  0
 19 20  1  0  0  0  0
 21 19  1  0  0  0  0
 22 19  1  0  0  0  0
 23 25  1  0  0  0  0
 23 17  1  0  0  0  0
 24 23  1  0  0  0  0
 26 23  1  0  0  0  0
 27 28  1  0  0  0  0
 27 29  1  0  0  0  0
 30 27  1  0  0  0  0
 31  9  1  0  0  0  0
 32 10  1  0  0  0  0
M  END
