4
q = 0.0, confidence = 0.986

 25 26  0  0  1  0  0  0  0  0999 V2000
    0.2945    2.1641    0.0481 N   0  0  0  0  0  0  0  0  0  0  0  0
   -2.1038    2.1643    0.0378 N   0  0  0  0  0  0  0  0  0  0  0  0
   -2.6306    2.4738    0.8598 H   0  0  0  0  0  0  0  0  0  0  0  0
    0.3707    0.8489   -0.2483 C   0  0  0  0  0  2  0  0  0  0  0  0
   -0.8845    0.2736   -0.6893 C   0  0  0  0  0  3  0  0  0  0  0  0
   -0.8879   -0.7349   -1.1164 H   0  0  0  0  0  0  0  0  0  0  0  0
   -2.0943    0.8222   -0.2745 C   0  0  1  0  0  3  0  0  0  0  0  0
   -0.9250    2.8789   -0.3739 C   0  0  0  0  0  0  0  0  0  0  0  0
   -0.9282    3.9007    0.0459 H   0  0  0  0  0  0  0  0  0  0  0  0
   -0.9199    2.9372   -1.4880 H   0  0  0  0  0  0  0  0  0  0  0  0
   -3.3459    0.0648   -0.1070 C   0  0  0  0  0  0  0  0  0  0  0  0
   -3.3195   -1.3205    0.1801 C   0  0  0  0  0  0  0  0  0  0  0  0
   -2.3538   -1.8292    0.3167 H   0  0  0  0  0  0  0  0  0  0  0  0
   -4.5152   -2.0325    0.3327 C   0  0  0  0  0  0  0  0  0  0  0  0
   -4.4809   -3.1085    0.5603 H   0  0  0  0  0  0  0  0  0  0  0  0
   -5.7523   -1.3765    0.2153 C   0  0  0  0  0  0  0  0  0  0  0  0
   -6.6896   -1.9394    0.3410 H   0  0  0  0  0  0  0  0  0  0  0  0
   -5.7896    0.0002   -0.0598 C   0  0  0  0  0  0  0  0  0  0  0  0
   -6.7560    0.5169   -0.1612 H   0  0  0  0  0  0  0  0  0  0  0  0
   -4.5969    0.7160   -0.2223 C   0  0  0  0  0  0  0  0  0  0  0  0
   -4.6234    1.7868   -0.4749 H   0  0  0  0  0  0  0  0  0  0  0  0
    1.3235    2.9742    0.6804 C   0  0  0  0  0  0  0  0  0  0  0  0
    2.1233    2.3287    1.0710 H   0  0  0  0  0  0  0  0  0  0  0  0
    0.8889    3.5503    1.5231 H   0  0  0  0  0  0  0  0  0  0  0  0
    1.7675    3.6885   -0.0459 H   0  0  0  0  0  0  0  0  0  0  0  0
  1 22  1  0  0  0  0
  2  3  1  0  0  0  0
  4  1  1  0  0  0  0
  5  7  1  0  0  0  0
  5  4  1  0  0  0  0
  6  5  1  0  0  0  0
  7 11  1  1  0  0  0
  7  2  1  0  0  0  0
  8  2  1  0  0  0  0
  8  9  1  0  0  0  0
  8  1  1  0  0  0  0
 10  8  1  0  0  0  0
 11 12  1  0  0  0  0
 12 13  1  0  0  0  0
 12 14  2  0  0  0  0
 14 15  1  0  0  0  0
 16 14  1  0  0  0  0
 16 17  1  0  0  0  0
 18 16  2  0  0  0  0
 19 18  1  0  0  0  0
 20 11  2  0  0  0  0
 20 18  1  0  0  0  0
 21 20  1  0  0  0  0
 22 23  1  0  0  0  0
 22 24  1  0  0  0  0
 25 22  1  0  0  0  0
M  END
