9
q = 0.0, confidence = 0.648

 36 37  0  0  1  0  0  0  0  0999 V2000
   -5.3366   -1.6138    0.6368 N   0  0  0  0  0  0  0  0  0  0  0  0
   -5.3779   -2.6341    0.7110 H   0  0  0  0  0  0  0  0  0  0  0  0
   -6.0248   -1.0720    1.1676 H   0  0  0  0  0  0  0  0  0  0  0  0
   -1.3181   -0.6591   -0.2393 C   0  0  0  0  0  0  0  0  0  0  0  0
   -1.0881    0.2972    0.8033 C   0  0  0  0  0  0  0  0  0  0  0  0
   -1.2909    0.1467    1.8696 H   0  0  0  0  0  0  0  0  0  0  0  0
   -0.5281    1.4698    0.2326 C   0  0  0  0  0  0  0  0  0  0  0  0
   -0.2712    2.3828    0.7794 H   0  0  0  0  0  0  0  0  0  0  0  0
   -0.3841    1.2488   -1.1740 C   0  0  0  0  0  3  0  0  0  0  0  0
    0.0044    1.9614   -1.9103 H   0  0  0  0  0  0  0  0  0  0  0  0
   -0.8758   -0.0555   -1.4575 C   0  0  0  0  0  0  0  0  0  0  0  0
   -0.8814   -0.5234   -2.4489 H   0  0  0  0  0  0  0  0  0  0  0  0
   -2.0364   -1.9948   -0.1184 C   0  0  0  0  0  0  0  0  0  0  0  0
   -2.2481   -2.4033    1.3460 C   0  0  0  0  0  0  0  0  0  0  0  0
   -1.2634   -2.5453    1.8315 H   0  0  0  0  0  0  0  0  0  0  0  0
   -2.7991   -3.3644    1.4108 H   0  0  0  0  0  0  0  0  0  0  0  0
   -2.8035   -1.6428    1.9309 H   0  0  0  0  0  0  0  0  0  0  0  0
   -1.2827   -3.1168   -0.8589 C   0  0  0  0  0  0  0  0  0  0  0  0
   -1.1082   -2.8730   -1.9241 H   0  0  0  0  0  0  0  0  0  0  0  0
   -1.8457   -4.0702   -0.8033 H   0  0  0  0  0  0  0  0  0  0  0  0
   -0.2941   -3.2658   -0.3849 H   0  0  0  0  0  0  0  0  0  0  0  0
   -3.4598   -1.8837   -0.8480 C   0  0  0  0  0  0  0  0  0  0  0  0
   -3.2863   -1.4908   -1.8672 H   0  0  0  0  0  0  0  0  0  0  0  0
   -3.8670   -2.9097   -0.9455 H   0  0  0  0  0  0  0  0  0  0  0  0
   -4.4229   -1.0245   -0.1183 C   0  0  2  0  0  3  0  0  0  0  0  0
   -4.3232    0.4294   -0.1156 C   0  0  0  0  0  0  0  0  0  0  0  0
   -4.7049    1.1755    1.0327 C   0  0  0  0  0  0  0  0  0  0  0  0
   -5.0493    0.6628    1.9443 H   0  0  0  0  0  0  0  0  0  0  0  0
   -4.5640    2.5632    1.0496 C   0  0  0  0  0  0  0  0  0  0  0  0
   -4.8367    3.1309    1.9510 H   0  0  0  0  0  0  0  0  0  0  0  0
   -4.0530    3.2304   -0.0798 C   0  0  0  0  0  0  0  0  0  0  0  0
   -3.9428    4.3251   -0.0642 H   0  0  0  0  0  0  0  0  0  0  0  0
   -3.6813    2.5058   -1.2234 C   0  0  0  0  0  0  0  0  0  0  0  0
   -3.2887    3.0292   -2.1068 H   0  0  0  0  0  0  0  0  0  0  0  0
   -3.8073    1.1142   -1.2440 C   0  0  0  0  0  0  0  0  0  0  0  0
   -3.5354    0.5596   -2.1507 H   0  0  0  0  0  0  0  0  0  0  0  0
  1  2  1  0  0  0  0
  1  3  1  0  0  0  0
  4 13  1  0  0  0  0
  4  5  1  0  0  0  0
  5  6  1  0  0  0  0
  7  8  1  0  0  0  0
  7  5  2  0  0  0  0
  9  7  1  0  0  0  0
 10  9  1  0  0  0  0
 11  9  1  0  0  0  0
 11  4  2  0  0  0  0
 12 11  1  0  0  0  0
 13 14  1  0  0  0  0
 14 16  1  0  0  0  0
 14 15  1  0  0  0  0
 14 17  1  0  0  0  0
 18 20  1  0  0  0  0
 18 21  1  0  0  0  0
 18 13  1  0  0  0  0
 19 18  1  0  0  0  0
 22 13  1  0  0  0  0
 23 22  1  0  0  0  0
 24 22  1  0  0  0  0
 25 22  1  1  0  0  0
 25 26  1  0  0  0  0
 25  1  1  0  0  0  0
 26 27  1  0  0  0  0
 27 29  2  0  0  0  0
 27 28  1  0  0  0  0
 29 30  1  0  0  0  0
 31 32  1  0  0  0  0
 31 29  1  0  0  0  0
 33 31  2  0  0  0  0
 34 33  1  0  0  0  0
 35 33  1  0  0  0  0
 35 26  2  0  0  0  0
 36 35  1  0  0  0  0
M  END
