1
q = 0.0, confidence = 0.922

 59 62  0  0  1  0  0  0  0  0999 V2000
    0.3442    0.3275   -0.1508 C   0  0  0  0  0  2  0  0  0  0  0  0
    0.4821    1.7104    0.1538 C   0  0  0  0  0  0  0  0  0  0  0  0
    1.7670    2.3675    0.5141 C   0  0  0  0  0  0  0  0  0  0  0  0
    2.6756    2.7893   -0.4788 C   0  0  0  0  0  0  0  0  0  0  0  0
    3.8818    3.4080   -0.1198 C   0  0  0  0  0  0  0  0  0  0  0  0
    4.1968    3.6102    1.2332 C   0  0  0  0  0  0  0  0  0  0  0  0
    3.3021    3.1863    2.2282 C   0  0  0  0  0  0  0  0  0  0  0  0
    2.0954    2.5680    1.8711 C   0  0  0  0  0  0  0  0  0  0  0  0
   -0.7780    2.3652    0.0913 C   0  0  0  0  0  0  0  0  0  0  0  0
   -1.1027    3.6428    0.2506 O   0  0  0  0  0  0  0  0  0  0  0  0
   -0.1356    4.7006    0.4556 C   0  0  0  0  0  0  0  0  0  0  0  0
   -0.8934    6.0109    0.4316 C   0  0  0  0  0  0  0  0  0  0  0  0
   -1.8469    1.4320   -0.2003 C   0  0  0  0  0  0  0  0  0  0  0  0
   -3.1515    1.8449   -0.2919 C   0  0  0  0  0  0  0  0  0  0  0  0
   -4.3965    1.1267   -0.5099 C   0  0  0  0  0  0  0  0  0  0  0  0
   -5.6054    1.8556   -0.3396 C   0  0  0  0  0  0  0  0  0  0  0  0
   -6.8510    1.2416   -0.4975 C   0  0  0  0  0  0  0  0  0  0  0  0
   -6.9218   -0.1192   -0.8419 C   0  0  0  0  0  0  0  0  0  0  0  0
   -5.7375   -0.8517   -1.0321 C   0  0  0  0  0  0  0  0  0  0  0  0
   -4.4883   -0.2435   -0.8714 C   0  0  0  0  0  0  0  0  0  0  0  0
   -1.1852    0.0524   -0.3017 C   0  0  1  0  0  0  0  0  0  0  0  0
   -1.5007   -0.6262   -1.5074 O   0  0  0  0  0  0  0  0  0  0  0  0
   -1.1902    0.0660   -2.7173 C   0  0  0  0  0  0  0  0  0  0  0  0
   -1.6731   -0.7822   -3.8787 C   0  0  0  0  0  0  0  0  0  0  0  0
   -1.6095   -0.8436    0.8650 C   0  0  0  0  0  0  0  0  0  0  0  0
   -1.6203   -0.3398    2.1794 C   0  0  0  0  0  0  0  0  0  0  0  0
   -1.9518   -2.1917    0.6575 C   0  0  0  0  0  0  0  0  0  0  0  0
   -1.9570   -1.1652    3.2573 C   0  0  0  0  0  0  0  0  0  0  0  0
   -2.2945   -3.0105    1.7424 C   0  0  0  0  0  0  0  0  0  0  0  0
   -2.2943   -2.5207    3.0621 C   0  0  0  0  0  0  0  0  0  0  0  0
   -2.5980   -3.4217    4.2309 C   0  0  0  0  0  0  0  0  0  0  0  0
    2.4332    2.6226   -1.5383 H   0  0  0  0  0  0  0  0  0  0  0  0
    4.5849    3.7273   -0.9039 H   0  0  0  0  0  0  0  0  0  0  0  0
    5.1475    4.0882    1.5132 H   0  0  0  0  0  0  0  0  0  0  0  0
    3.5515    3.3266    3.2908 H   0  0  0  0  0  0  0  0  0  0  0  0
    1.3998    2.2157    2.6485 H   0  0  0  0  0  0  0  0  0  0  0  0
    0.6316    4.6482   -0.3429 H   0  0  0  0  0  0  0  0  0  0  0  0
    0.3816    4.5370    1.4223 H   0  0  0  0  0  0  0  0  0  0  0  0
   -0.1895    6.8511    0.5912 H   0  0  0  0  0  0  0  0  0  0  0  0
   -1.3997    6.1611   -0.5423 H   0  0  0  0  0  0  0  0  0  0  0  0
   -1.6585    6.0424    1.2324 H   0  0  0  0  0  0  0  0  0  0  0  0
   -3.2827    2.9309   -0.1413 H   0  0  0  0  0  0  0  0  0  0  0  0
   -5.5493    2.9217   -0.0686 H   0  0  0  0  0  0  0  0  0  0  0  0
   -7.7732    1.8247   -0.3537 H   0  0  0  0  0  0  0  0  0  0  0  0
   -7.9006   -0.6065   -0.9685 H   0  0  0  0  0  0  0  0  0  0  0  0
   -5.7873   -1.9147   -1.3130 H   0  0  0  0  0  0  0  0  0  0  0  0
   -3.5689   -0.8122   -1.0541 H   0  0  0  0  0  0  0  0  0  0  0  0
   -0.0919    0.2394   -2.7786 H   0  0  0  0  0  0  0  0  0  0  0  0
   -1.6882    1.0636   -2.7223 H   0  0  0  0  0  0  0  0  0  0  0  0
   -1.4306   -0.2870   -4.8397 H   0  0  0  0  0  0  0  0  0  0  0  0
   -1.1899   -1.7782   -3.8649 H   0  0  0  0  0  0  0  0  0  0  0  0
   -2.7711   -0.9272   -3.8304 H   0  0  0  0  0  0  0  0  0  0  0  0
   -1.3567    0.7128    2.3638 H   0  0  0  0  0  0  0  0  0  0  0  0
   -1.9462   -2.5970   -0.3623 H   0  0  0  0  0  0  0  0  0  0  0  0
   -1.9538   -0.7507    4.2778 H   0  0  0  0  0  0  0  0  0  0  0  0
   -2.5597   -4.0636    1.5572 H   0  0  0  0  0  0  0  0  0  0  0  0
   -3.2539   -4.2654    3.9391 H   0  0  0  0  0  0  0  0  0  0  0  0
   -1.6612   -3.8601    4.6381 H   0  0  0  0  0  0  0  0  0  0  0  0
   -3.0868   -2.8707    5.0588 H   0  0  0  0  0  0  0  0  0  0  0  0
  1  2  1  0  0  0  0
  2  3  1  0  0  0  0
  3  8  1  0  0  0  0
  4  5  1  0  0  0  0
  4  3  2  0  0  0  0
  5  6  2  0  0  0  0
  6 34  1  0  0  0  0
  6  7  1  0  0  0  0
  7 35  1  0  0  0  0
  8  7  2  0  0  0  0
  8 36  1  0  0  0  0
  9  2  2  0  0  0  0
  9 10  1  0  0  0  0
 10 11  1  0  0  0  0
 11 38  1  0  0  0  0
 12 11  1  0  0  0  0
 12 39  1  0  0  0  0
 12 41  1  0  0  0  0
 13  9  1  0  0  0  0
 14 13  2  0  0  0  0
 14 42  1  0  0  0  0
 15 16  1  0  0  0  0
 15 14  1  0  0  0  0
 16 43  1  0  0  0  0
 17 44  1  0  0  0  0
 17 16  2  0  0  0  0
 18 17  1  0  0  0  0
 19 20  1  0  0  0  0
 19 18  2  0  0  0  0
 20 15  2  0  0  0  0
 21 22  1  6  0  0  0
 21 13  1  0  0  0  0
 21  1  1  0  0  0  0
 21 25  1  0  0  0  0
 23 22  1  0  0  0  0
 24 51  1  0  0  0  0
 24 52  1  0  0  0  0
 24 23  1  0  0  0  0
 25 26  1  0  0  0  0
 26 53  1  0  0  0  0
 26 28  2  0  0  0  0
 27 25  2  0  0  0  0
 27 29  1  0  0  0  0
 28 55  1  0  0  0  0
 29 30  2  0  0  0  0
 30 28  1  0  0  0  0
 30 31  1  0  0  0  0
 31 58  1  0  0  0  0
 31 59  1  0  0  0  0
 32  4  1  0  0  0  0
 33  5  1  0  0  0  0
 37 11  1  0  0  0  0
 40 12  1  0  0  0  0
 45 18  1  0  0  0  0
 46 19  1  0  0  0  0
 47 20  1  0  0  0  0
 48 23  1  0  0  0  0
 49 23  1  0  0  0  0
 50 24  1  0  0  0  0
 54 27  1  0  0  0  0
 56 29  1  0  0  0  0
 57 31  1  0  0  0  0
M  END
