5
q = 0.0, confidence = 0.996

 50 52  0  0  1  0  0  0  0  0999 V2000
   -1.4138    3.3082    0.7256 Si  0  0  0  0  0  0  0  0  0  0  0  0
    1.4619    1.8316    0.7852 O   0  0  0  0  0  0  0  0  0  0  0  0
   -2.4914    0.8137    1.3295 O   0  0  0  0  0  0  0  0  0  0  0  0
   -0.8779   -0.8161    1.0754 N   0  0  0  0  0  0  0  0  0  0  0  0
    0.9977    0.6984    0.2424 C   0  0  0  0  0  2  0  0  0  0  0  0
    2.7311    2.4231    0.4338 C   0  0  0  0  0  0  0  0  0  0  0  0
    3.1783    3.3045    1.5821 C   0  0  0  0  0  0  0  0  0  0  0  0
   -2.3248   -0.6172    1.0919 C   0  0  2  0  0  0  0  0  0  0  0  0
   -0.3243    0.4700    0.8083 C   0  0  0  0  0  0  0  0  0  0  0  0
   -1.3078    1.4216    1.0124 C   0  0  0  0  0  0  0  0  0  0  0  0
   -3.0191   -0.9867   -0.2114 C   0  0  0  0  0  0  0  0  0  0  0  0
   -2.5851   -2.1109   -0.9370 C   0  0  0  0  0  0  0  0  0  0  0  0
   -3.2302   -2.4723   -2.1288 C   0  0  0  0  0  0  0  0  0  0  0  0
   -4.3113   -1.7145   -2.6045 C   0  0  0  0  0  0  0  0  0  0  0  0
   -4.7482   -0.5945   -1.8800 C   0  0  0  0  0  0  0  0  0  0  0  0
   -4.1077   -0.2323   -0.6858 C   0  0  0  0  0  0  0  0  0  0  0  0
   -0.2772   -1.6860    2.0175 C   0  0  0  0  0  0  0  0  0  0  0  0
   -0.8971   -2.9207    2.3156 C   0  0  0  0  0  0  0  0  0  0  0  0
   -0.2990   -3.8150    3.2124 C   0  0  0  0  0  0  0  0  0  0  0  0
    0.9340   -3.5127    3.8109 C   0  0  0  0  0  0  0  0  0  0  0  0
    1.5545   -2.2901    3.5105 C   0  0  0  0  0  0  0  0  0  0  0  0
    0.9555   -1.3769    2.6330 C   0  0  0  0  0  0  0  0  0  0  0  0
   -0.6707    4.2079    2.2086 C   0  0  0  0  0  0  0  0  0  0  0  0
   -3.2579    3.6840    0.5807 C   0  0  0  0  0  0  0  0  0  0  0  0
   -0.5595    3.7362   -0.9042 C   0  0  0  0  0  0  0  0  0  0  0  0
    2.5976    3.0050   -0.5010 H   0  0  0  0  0  0  0  0  0  0  0  0
    3.4563    1.6137    0.2296 H   0  0  0  0  0  0  0  0  0  0  0  0
    4.1658    3.7457    1.3430 H   0  0  0  0  0  0  0  0  0  0  0  0
    3.2790    2.7182    2.5168 H   0  0  0  0  0  0  0  0  0  0  0  0
    2.4673    4.1342    1.7625 H   0  0  0  0  0  0  0  0  0  0  0  0
   -2.7729   -1.1539    1.9545 H   0  0  0  0  0  0  0  0  0  0  0  0
   -1.7221   -2.6912   -0.5820 H   0  0  0  0  0  0  0  0  0  0  0  0
   -2.8751   -3.3466   -2.6950 H   0  0  0  0  0  0  0  0  0  0  0  0
   -4.8109   -1.9937   -3.5445 H   0  0  0  0  0  0  0  0  0  0  0  0
   -5.5923    0.0071   -2.2504 H   0  0  0  0  0  0  0  0  0  0  0  0
   -4.4401    0.6498   -0.1204 H   0  0  0  0  0  0  0  0  0  0  0  0
   -1.8360   -3.1996    1.8151 H   0  0  0  0  0  0  0  0  0  0  0  0
   -0.7982   -4.7719    3.4280 H   0  0  0  0  0  0  0  0  0  0  0  0
    1.4088   -4.2247    4.5015 H   0  0  0  0  0  0  0  0  0  0  0  0
    2.5192   -2.0317    3.9732 H   0  0  0  0  0  0  0  0  0  0  0  0
    1.4450   -0.4151    2.4323 H   0  0  0  0  0  0  0  0  0  0  0  0
    0.3627    3.8600    2.3972 H   0  0  0  0  0  0  0  0  0  0  0  0
   -1.2696    4.0143    3.1214 H   0  0  0  0  0  0  0  0  0  0  0  0
   -0.6522    5.3040    2.0370 H   0  0  0  0  0  0  0  0  0  0  0  0
   -3.6936    3.1753   -0.3031 H   0  0  0  0  0  0  0  0  0  0  0  0
   -3.4274    4.7746    0.4687 H   0  0  0  0  0  0  0  0  0  0  0  0
   -3.8067    3.3375    1.4791 H   0  0  0  0  0  0  0  0  0  0  0  0
    0.5404    3.6329   -0.8589 H   0  0  0  0  0  0  0  0  0  0  0  0
   -0.7932    4.7857   -1.1789 H   0  0  0  0  0  0  0  0  0  0  0  0
   -0.9327    3.0783   -1.7149 H   0  0  0  0  0  0  0  0  0  0  0  0
  1 10  1  0  0  0  0
  1 23  1  0  0  0  0
  4  8  1  0  0  0  0
  4 17  1  0  0  0  0
  5  2  1  0  0  0  0
  5  9  1  0  0  0  0
  6  2  1  0  0  0  0
  6  7  1  0  0  0  0
  7 30  1  0  0  0  0
  7 29  1  0  0  0  0
  8  3  1  0  0  0  0
  8 31  1  1  0  0  0
  9 10  2  0  0  0  0
  9  4  1  0  0  0  0
 10  3  1  0  0  0  0
 11  8  1  0  0  0  0
 12 32  1  0  0  0  0
 12 11  2  0  0  0  0
 13 12  1  0  0  0  0
 14 13  2  0  0  0  0
 14 15  1  0  0  0  0
 15 16  2  0  0  0  0
 16 11  1  0  0  0  0
 16 36  1  0  0  0  0
 17 18  2  0  0  0  0
 17 22  1  0  0  0  0
 18 19  1  0  0  0  0
 19 38  1  0  0  0  0
 19 20  2  0  0  0  0
 20 39  1  0  0  0  0
 21 20  1  0  0  0  0
 21 40  1  0  0  0  0
 22 21  2  0  0  0  0
 23 42  1  0  0  0  0
 23 43  1  0  0  0  0
 24  1  1  0  0  0  0
 24 47  1  0  0  0  0
 25 48  1  0  0  0  0
 25  1  1  0  0  0  0
 26  6  1  0  0  0  0
 27  6  1  0  0  0  0
 28  7  1  0  0  0  0
 33 13  1  0  0  0  0
 34 14  1  0  0  0  0
 35 15  1  0  0  0  0
 37 18  1  0  0  0  0
 41 22  1  0  0  0  0
 44 23  1  0  0  0  0
 45 24  1  0  0  0  0
 46 24  1  0  0  0  0
 49 25  1  0  0  0  0
 50 25  1  0  0  0  0
M  END
