1
q = 0.0, confidence = 0.984

 21 21  0  0  0  0  0  0  0  0999 V2000
    0.8937    1.0896    0.4774 C   0  0  0  0  0  1  0  0  0  0  0  0
    1.8115    1.9470    0.0047 C   0  0  0  0  0  0  0  0  0  0  0  0
    1.4688    3.2363   -0.6133 C   0  0  0  0  0  0  0  0  0  0  0  0
    0.3949    3.4421   -0.7477 H   0  0  0  0  0  0  0  0  0  0  0  0
    2.3641    4.1752   -1.0104 C   0  0  0  0  0  3  0  0  0  0  0  0
    3.4405    3.9824   -0.8578 H   0  0  0  0  0  0  0  0  0  0  0  0
    1.9915    5.4762   -1.6462 C   0  0  0  0  0  0  0  0  0  0  0  0
    2.4425    5.5752   -2.6576 H   0  0  0  0  0  0  0  0  0  0  0  0
    2.3817    6.3344   -1.0570 H   0  0  0  0  0  0  0  0  0  0  0  0
    0.8939    5.5944   -1.7438 H   0  0  0  0  0  0  0  0  0  0  0  0
    3.2510    1.5408    0.1453 C   0  0  0  0  0  0  0  0  0  0  0  0
    3.8452    1.4555    1.4208 C   0  0  0  0  0  0  0  0  0  0  0  0
    3.2377    1.6834    2.3097 H   0  0  0  0  0  0  0  0  0  0  0  0
    5.2022    1.1210    1.5520 C   0  0  0  0  0  0  0  0  0  0  0  0
    5.6601    1.0710    2.5515 H   0  0  0  0  0  0  0  0  0  0  0  0
    5.9758    0.8667    0.4093 C   0  0  0  0  0  0  0  0  0  0  0  0
    7.0412    0.6104    0.5099 H   0  0  0  0  0  0  0  0  0  0  0  0
    5.3876    0.9434   -0.8649 C   0  0  0  0  0  0  0  0  0  0  0  0
    5.9898    0.7386   -1.7628 H   0  0  0  0  0  0  0  0  0  0  0  0
    4.0335    1.2767   -0.9984 C   0  0  0  0  0  0  0  0  0  0  0  0
    3.5708    1.3364   -1.9946 H   0  0  0  0  0  0  0  0  0  0  0  0
  2 11  1  0  0  0  0
  2  1  1  0  0  0  0
  3  2  2  0  0  0  0
  4  3  1  0  0  0  0
  5  6  1  0  0  0  0
  5  3  1  0  0  0  0
  7  9  1  0  0  0  0
  7  5  1  0  0  0  0
  8  7  1  0  0  0  0
 10  7  1  0  0  0  0
 11 12  1  0  0  0  0
 12 14  2  0  0  0  0
 12 13  1  0  0  0  0
 14 15  1  0  0  0  0
 16 17  1  0  0  0  0
 16 14  1  0  0  0  0
 18 16  2  0  0  0  0
 19 18  1  0  0  0  0
 20 18  1  0  0  0  0
 20 11  2  0  0  0  0
 21 20  1  0  0  0  0
M  END
