4
q = 0.0, confidence = 1.0

 50 52  0  0  1  0  0  0  0  0999 V2000
    1.1622    0.3775   -0.7663 S   0  0  0  0  0  0  0  0  0  0  0  0
   -1.5024    1.0795    1.0729 N   0  0  0  0  0  0  0  0  0  0  0  0
   -3.0623   -0.0033    0.0443 N   0  0  0  0  0  0  0  0  0  0  0  0
   -1.7141   -0.0365    0.3171 C   0  0  0  0  0  2  0  0  0  0  0  0
   -2.6609    1.7944    1.3077 C   0  0  0  0  0  0  0  0  0  0  0  0
   -2.6808    2.7129    1.9001 H   0  0  0  0  0  0  0  0  0  0  0  0
   -3.6829    1.1189    0.6551 C   0  0  0  0  0  0  0  0  0  0  0  0
   -5.0837    1.3162    0.4872 C   0  0  0  0  0  0  0  0  0  0  0  0
   -5.5598    2.1806    0.9700 H   0  0  0  0  0  0  0  0  0  0  0  0
   -5.8003    0.4227   -0.2784 C   0  0  0  0  0  0  0  0  0  0  0  0
   -6.8815    0.5586   -0.4216 H   0  0  0  0  0  0  0  0  0  0  0  0
   -5.1375   -0.6858   -0.9058 C   0  0  0  0  0  0  0  0  0  0  0  0
   -5.7026   -1.3873   -1.5343 H   0  0  0  0  0  0  0  0  0  0  0  0
   -3.7920   -0.8825   -0.7427 C   0  0  0  0  0  0  0  0  0  0  0  0
   -3.2110   -1.6882   -1.2077 H   0  0  0  0  0  0  0  0  0  0  0  0
   -0.1684    1.4968    1.5411 C   0  0  1  0  0  0  0  0  0  0  0  0
   -0.3341    2.4751    2.0373 H   0  0  0  0  0  0  0  0  0  0  0  0
    0.3576    0.5191    2.5892 C   0  0  0  0  0  0  0  0  0  0  0  0
   -0.3794    0.4098    3.4079 H   0  0  0  0  0  0  0  0  0  0  0  0
    1.3065    0.8875    3.0224 H   0  0  0  0  0  0  0  0  0  0  0  0
    0.5322   -0.4821    2.1456 H   0  0  0  0  0  0  0  0  0  0  0  0
    0.7936    1.8145    0.3668 C   0  0  2  0  0  0  0  0  0  0  0  0
    1.7702    2.0413    0.8418 H   0  0  0  0  0  0  0  0  0  0  0  0
    0.3790    3.0520   -0.4812 C   0  0  0  0  0  0  0  0  0  0  0  0
    0.0391    3.8049    0.2668 H   0  0  0  0  0  0  0  0  0  0  0  0
    1.5869    3.6480   -1.2133 C   0  0  0  0  0  0  0  0  0  0  0  0
    1.9666    2.9495   -1.9863 H   0  0  0  0  0  0  0  0  0  0  0  0
    2.4199    3.8840   -0.5206 H   0  0  0  0  0  0  0  0  0  0  0  0
    1.3010    4.5862   -1.7277 H   0  0  0  0  0  0  0  0  0  0  0  0
   -0.7720    2.8096   -1.4703 C   0  0  0  0  0  0  0  0  0  0  0  0
   -0.9579    3.7319   -2.0547 H   0  0  0  0  0  0  0  0  0  0  0  0
   -1.7250    2.5395   -0.9793 H   0  0  0  0  0  0  0  0  0  0  0  0
   -0.5108    2.0106   -2.1940 H   0  0  0  0  0  0  0  0  0  0  0  0
    2.9274   -0.1123   -0.4230 C   0  0  0  0  0  0  0  0  0  0  0  0
    2.9868   -1.0055   -1.0834 H   0  0  0  0  0  0  0  0  0  0  0  0
    3.9094    0.9453   -0.9382 C   0  0  0  0  0  0  0  0  0  0  0  0
    3.8033    1.8738   -0.3358 H   0  0  0  0  0  0  0  0  0  0  0  0
    3.6708    1.2124   -1.9873 H   0  0  0  0  0  0  0  0  0  0  0  0
    5.3554    0.4328   -0.8227 C   0  0  0  0  0  0  0  0  0  0  0  0
    5.4909   -0.4280   -1.5144 H   0  0  0  0  0  0  0  0  0  0  0  0
    6.0532    1.2220   -1.1689 H   0  0  0  0  0  0  0  0  0  0  0  0
    5.6895   -0.0033    0.6078 C   0  0  0  0  0  0  0  0  0  0  0  0
    6.7219   -0.4047    0.6576 H   0  0  0  0  0  0  0  0  0  0  0  0
    5.6681    0.8845    1.2789 H   0  0  0  0  0  0  0  0  0  0  0  0
    4.6879   -1.0463    1.1160 C   0  0  0  0  0  0  0  0  0  0  0  0
    4.9057   -1.3252    2.1672 H   0  0  0  0  0  0  0  0  0  0  0  0
    4.7882   -1.9796    0.5183 H   0  0  0  0  0  0  0  0  0  0  0  0
    3.2401   -0.5371    1.0110 C   0  0  0  0  0  0  0  0  0  0  0  0
    2.5244   -1.3137    1.3465 H   0  0  0  0  0  0  0  0  0  0  0  0
    3.1147    0.3353    1.6881 H   0  0  0  0  0  0  0  0  0  0  0  0
  1 34  1  0  0  0  0
  1 22  1  0  0  0  0
  2  5  1  0  0  0  0
  2 16  1  0  0  0  0
  3  4  1  0  0  0  0
  3  7  1  0  0  0  0
  4  2  1  0  0  0  0
  5  6  1  0  0  0  0
  7  5  2  0  0  0  0
  8  7  1  0  0  0  0
  8  9  1  0  0  0  0
 10  8  2  0  0  0  0
 11 10  1  0  0  0  0
 12 14  2  0  0  0  0
 12 10  1  0  0  0  0
 13 12  1  0  0  0  0
 14  3  1  0  0  0  0
 15 14  1  0  0  0  0
 16 17  1  1  0  0  0
 16 18  1  0  0  0  0
 18 20  1  0  0  0  0
 18 19  1  0  0  0  0
 21 18  1  0  0  0  0
 22 23  1  1  0  0  0
 22 16  1  0  0  0  0
 24 25  1  0  0  0  0
 24 22  1  0  0  0  0
 26 28  1  0  0  0  0
 26 24  1  0  0  0  0
 27 26  1  0  0  0  0
 29 26  1  0  0  0  0
 30 32  1  0  0  0  0
 30 24  1  0  0  0  0
 31 30  1  0  0  0  0
 33 30  1  0  0  0  0
 34 48  1  0  0  0  0
 35 34  1  0  0  0  0
 36 39  1  0  0  0  0
 36 34  1  0  0  0  0
 36 37  1  0  0  0  0
 38 36  1  0  0  0  0
 39 42  1  0  0  0  0
 40 39  1  0  0  0  0
 41 39  1  0  0  0  0
 42 43  1  0  0  0  0
 42 45  1  0  0  0  0
 42 44  1  0  0  0  0
 45 46  1  0  0  0  0
 47 45  1  0  0  0  0
 48 45  1  0  0  0  0
 48 49  1  0  0  0  0
 48 50  1  0  0  0  0
M  END
