4
q = 0.0, confidence = 0.986

 31 33  0  0  1  0  0  0  0  0999 V2000
   -2.9031    5.5270   -0.7801 Cl  0  0  0  0  0  0  0  0  0  0  0  0
   -1.0756   -2.3382    0.4273 N   0  0  0  0  0  0  0  0  0  0  0  0
   -3.0304   -1.3191    0.2948 N   0  0  0  0  0  0  0  0  0  0  0  0
   -0.7716   -0.9926    0.1923 C   0  0  0  0  0  3  0  0  0  0  0  0
   -2.0119   -0.3646    0.1071 C   0  0  0  0  0  0  0  0  0  0  0  0
   -2.4527   -2.5377    0.4772 C   0  0  1  0  0  3  0  0  0  0  0  0
   -4.4522   -1.1321    0.0043 C   0  0  0  0  0  0  0  0  0  0  0  0
   -4.7406   -0.1299    0.3712 H   0  0  0  0  0  0  0  0  0  0  0  0
   -5.0181   -1.8677    0.6103 H   0  0  0  0  0  0  0  0  0  0  0  0
   -4.7624   -1.2695   -1.4850 C   0  0  0  0  0  0  0  0  0  0  0  0
   -4.2090   -0.5081   -2.0693 H   0  0  0  0  0  0  0  0  0  0  0  0
   -5.8458   -1.1229   -1.6644 H   0  0  0  0  0  0  0  0  0  0  0  0
   -4.4783   -2.2709   -1.8652 H   0  0  0  0  0  0  0  0  0  0  0  0
   -2.9882   -3.8231    0.6716 C   0  0  0  0  0  0  0  0  0  0  0  0
   -4.0758   -3.9707    0.6928 H   0  0  0  0  0  0  0  0  0  0  0  0
   -2.1004   -4.8826    0.8364 C   0  0  0  0  0  0  0  0  0  0  0  0
   -2.4878   -5.8989    0.9953 H   0  0  0  0  0  0  0  0  0  0  0  0
   -0.6968   -4.6554    0.8022 C   0  0  0  0  0  0  0  0  0  0  0  0
    0.0094   -5.4857    0.9343 H   0  0  0  0  0  0  0  0  0  0  0  0
   -0.2010   -3.3843    0.5986 C   0  0  0  0  0  0  0  0  0  0  0  0
    0.8602   -3.1049    0.5481 H   0  0  0  0  0  0  0  0  0  0  0  0
   -2.2707    1.0641   -0.1110 C   0  0  0  0  0  0  0  0  0  0  0  0
   -1.6162    1.7307   -1.1717 C   0  0  0  0  0  0  0  0  0  0  0  0
   -0.9494    1.1577   -1.8351 H   0  0  0  0  0  0  0  0  0  0  0  0
   -1.8078    3.1012   -1.3804 C   0  0  0  0  0  0  0  0  0  0  0  0
   -1.3019    3.6183   -2.2076 H   0  0  0  0  0  0  0  0  0  0  0  0
   -2.6577    3.8191   -0.5226 C   0  0  0  0  0  0  0  0  0  0  0  0
   -3.3064    3.1810    0.5477 C   0  0  0  0  0  0  0  0  0  0  0  0
   -3.9442    3.7649    1.2256 H   0  0  0  0  0  0  0  0  0  0  0  0
   -3.1056    1.8106    0.7508 C   0  0  0  0  0  0  0  0  0  0  0  0
   -3.5662    1.3251    1.6243 H   0  0  0  0  0  0  0  0  0  0  0  0
  1 27  1  0  0  0  0
  2  6  1  0  0  0  0
  2 20  1  0  0  0  0
  3  6  1  0  0  0  0
  4  2  1  0  0  0  0
  5  4  2  0  0  0  0
  5  3  1  0  0  0  0
  6 14  1  6  0  0  0
  7  3  1  0  0  0  0
  7  8  1  0  0  0  0
  7  9  1  0  0  0  0
 10  7  1  0  0  0  0
 11 10  1  0  0  0  0
 12 10  1  0  0  0  0
 13 10  1  0  0  0  0
 14 15  1  0  0  0  0
 14 16  2  0  0  0  0
 16 17  1  0  0  0  0
 18 16  1  0  0  0  0
 18 19  1  0  0  0  0
 20 18  2  0  0  0  0
 21 20  1  0  0  0  0
 22  5  1  0  0  0  0
 22 30  1  0  0  0  0
 23 22  2  0  0  0  0
 24 23  1  0  0  0  0
 25 23  1  0  0  0  0
 25 27  2  0  0  0  0
 26 25  1  0  0  0  0
 27 28  1  0  0  0  0
 28 30  2  0  0  0  0
 28 29  1  0  0  0  0
 30 31  1  0  0  0  0
M  END
