4
q = 0.0, confidence = 0.984

 31 33  0  0  0  0  0  0  0  0999 V2000
   -5.8013   -1.6999   -0.6159 Br  0  0  0  0  0  0  0  0  0  0  0  0
    1.3567    2.4831    0.0178 N   0  0  0  0  0  0  0  0  0  0  0  0
   -0.7080    3.2427   -0.1712 N   0  0  0  0  0  0  0  0  0  0  0  0
    0.5524    1.3418   -0.0429 C   0  0  0  0  0  3  0  0  0  0  0  0
   -0.7479    1.8339   -0.1628 C   0  0  0  0  0  0  0  0  0  0  0  0
    2.7253    2.5493    0.1319 C   0  0  0  0  0  3  0  0  0  0  0  0
    3.2265    1.5735    0.1871 H   0  0  0  0  0  0  0  0  0  0  0  0
    3.3446    3.7817    0.1541 C   0  0  0  0  0  0  0  0  0  0  0  0
    4.4382    3.8239    0.2438 H   0  0  0  0  0  0  0  0  0  0  0  0
    2.5771    4.9752    0.0573 C   0  0  0  0  0  0  0  0  0  0  0  0
    3.0789    5.9530    0.0706 H   0  0  0  0  0  0  0  0  0  0  0  0
    1.1907    4.9114   -0.0518 C   0  0  0  0  0  0  0  0  0  0  0  0
    0.5733    5.8161   -0.1249 H   0  0  0  0  0  0  0  0  0  0  0  0
    0.5880    3.6409   -0.0626 C   0  0  0  0  0  0  0  0  0  0  0  0
   -1.8240    4.1694   -0.3526 C   0  0  0  0  0  0  0  0  0  0  0  0
   -2.6611    3.5815   -0.7746 H   0  0  0  0  0  0  0  0  0  0  0  0
   -1.5282    4.9063   -1.1286 H   0  0  0  0  0  0  0  0  0  0  0  0
   -2.2434    4.8782    0.9345 C   0  0  0  0  0  0  0  0  0  0  0  0
   -2.5527    4.1533    1.7128 H   0  0  0  0  0  0  0  0  0  0  0  0
   -3.0983    5.5531    0.7320 H   0  0  0  0  0  0  0  0  0  0  0  0
   -1.4188    5.4868    1.3548 H   0  0  0  0  0  0  0  0  0  0  0  0
   -1.9773    1.0418   -0.2742 C   0  0  0  0  0  0  0  0  0  0  0  0
   -1.9834   -0.0850   -1.1301 C   0  0  0  0  0  0  0  0  0  0  0  0
   -1.0837   -0.3130   -1.7229 H   0  0  0  0  0  0  0  0  0  0  0  0
   -3.1149   -0.9012   -1.2344 C   0  0  0  0  0  0  0  0  0  0  0  0
   -3.1114   -1.7708   -1.9063 H   0  0  0  0  0  0  0  0  0  0  0  0
   -4.2582   -0.5957   -0.4778 C   0  0  0  0  0  0  0  0  0  0  0  0
   -4.2760    0.5114    0.3849 C   0  0  0  0  0  0  0  0  0  0  0  0
   -5.1680    0.7266    0.9894 H   0  0  0  0  0  0  0  0  0  0  0  0
   -3.1366    1.3198    0.4846 C   0  0  0  0  0  0  0  0  0  0  0  0
   -3.1401    2.1514    1.2032 H   0  0  0  0  0  0  0  0  0  0  0  0
  1 27  1  0  0  0  0
  2  6  1  0  0  0  0
  3  5  1  0  0  0  0
  3 14  1  0  0  0  0
  4  2  1  0  0  0  0
  5  4  2  0  0  0  0
  6  8  1  0  0  0  0
  6  7  1  0  0  0  0
  8  9  1  0  0  0  0
 10 11  1  0  0  0  0
 10  8  2  0  0  0  0
 12 10  1  0  0  0  0
 13 12  1  0  0  0  0
 14 12  2  0  0  0  0
 14  2  1  0  0  0  0
 15  3  1  0  0  0  0
 15 18  1  0  0  0  0
 16 15  1  0  0  0  0
 17 15  1  0  0  0  0
 18 21  1  0  0  0  0
 18 19  1  0  0  0  0
 20 18  1  0  0  0  0
 22  5  1  0  0  0  0
 22 30  1  0  0  0  0
 23 22  2  0  0  0  0
 24 23  1  0  0  0  0
 25 23  1  0  0  0  0
 25 27  2  0  0  0  0
 26 25  1  0  0  0  0
 27 28  1  0  0  0  0
 28 30  2  0  0  0  0
 28 29  1  0  0  0  0
 30 31  1  0  0  0  0
M  END
