1
q = -1.0, confidence = 0.0

 23 23  0  0  0  0  0  0  0  0999 V2000
   -3.0132   -1.0080   -0.3359 C   0  0  0  0  0  3  0  0  0  0  0  0
   -2.4004    1.2891   -1.1924 C   0  0  0  0  0  0  0  0  0  0  0  0
   -1.8444    3.0871    0.3906 C   0  0  0  0  0  0  0  0  0  0  0  0
   -2.7439    0.9580    1.2390 C   0  0  0  0  0  0  0  0  0  0  0  0
   -1.2789    4.4558    0.6617 C   0  0  0  0  0  0  0  0  0  0  0  0
   -2.7472    0.4118   -0.0983 C   0  0  0  0  0  0  0  0  0  0  0  0
   -1.9535    2.5909   -0.9220 C   0  0  0  0  0  0  0  0  0  0  0  0
   -2.2914    2.2672    1.4458 C   0  0  0  0  0  0  0  0  0  0  0  0
   -2.6656    0.8979   -2.6262 C   0  0  0  0  0  0  0  0  0  0  0  0
   -3.3157    0.1835    2.3982 C   0  0  0  0  0  0  0  0  0  0  0  0
   -3.5469   -1.5489    0.4602 H   0  0  0  0  0  0  0  0  0  0  0  0
   -3.4017   -1.2635   -1.3335 H   0  0  0  0  0  0  0  0  0  0  0  0
   -1.6807    3.2438   -1.7665 H   0  0  0  0  0  0  0  0  0  0  0  0
   -2.2830    2.6660    2.4728 H   0  0  0  0  0  0  0  0  0  0  0  0
   -2.4421   -0.1603   -2.8435 H   0  0  0  0  0  0  0  0  0  0  0  0
   -2.0810    1.5256   -3.3262 H   0  0  0  0  0  0  0  0  0  0  0  0
   -3.7416    1.0515   -2.8613 H   0  0  0  0  0  0  0  0  0  0  0  0
   -1.3369    5.1091   -0.2306 H   0  0  0  0  0  0  0  0  0  0  0  0
   -0.2079    4.3837    0.9500 H   0  0  0  0  0  0  0  0  0  0  0  0
   -1.8040    4.9567    1.4994 H   0  0  0  0  0  0  0  0  0  0  0  0
   -4.3488   -0.1535    2.1719 H   0  0  0  0  0  0  0  0  0  0  0  0
   -3.3562    0.8163    3.3049 H   0  0  0  0  0  0  0  0  0  0  0  0
   -2.7314   -0.7223    2.6479 H   0  0  0  0  0  0  0  0  0  0  0  0
  1  6  1  0  0  0  0
  1 11  1  0  0  0  0
  2  7  2  0  0  0  0
  2  6  1  0  0  0  0
  3  5  1  0  0  0  0
  3  8  2  0  0  0  0
  4  8  1  0  0  0  0
  4 10  1  0  0  0  0
  5 19  1  0  0  0  0
  5 20  1  0  0  0  0
  6  4  2  0  0  0  0
  7  3  1  0  0  0  0
  8 14  1  0  0  0  0
  9  2  1  0  0  0  0
 10 23  1  0  0  0  0
 10 22  1  0  0  0  0
 12  1  1  0  0  0  0
 13  7  1  0  0  0  0
 15  9  1  0  0  0  0
 16  9  1  0  0  0  0
 17  9  1  0  0  0  0
 18  5  1  0  0  0  0
 21 10  1  0  0  0  0
M  END
