1
q = 0.0, confidence = 1.0

 25 25  0  0  0  0  0  0  0  0999 V2000
    0.7165   -0.1860    0.1540 C   0  0  0  0  0  1  0  0  0  0  0  0
    1.8913   -0.3119    0.2939 N   0  0  0  0  0  2  0  0  0  0  0  0
    3.2618   -0.1903    0.2647 C   0  0  0  0  0  0  0  0  0  0  0  0
    4.0531   -1.3607    0.3801 C   0  0  0  0  0  0  0  0  0  0  0  0
    5.4486   -1.2044    0.3245 C   0  0  0  0  0  0  0  0  0  0  0  0
    6.0877   -2.0970    0.4093 H   0  0  0  0  0  0  0  0  0  0  0  0
    6.0249    0.0630    0.1630 C   0  0  0  0  0  0  0  0  0  0  0  0
    7.1200    0.1651    0.1229 H   0  0  0  0  0  0  0  0  0  0  0  0
    5.2163    1.2051    0.0493 C   0  0  0  0  0  0  0  0  0  0  0  0
    5.6854    2.1904   -0.0817 H   0  0  0  0  0  0  0  0  0  0  0  0
    3.8157    1.1110    0.0985 C   0  0  0  0  0  0  0  0  0  0  0  0
    3.4029   -2.7190    0.5013 C   0  0  0  0  0  0  0  0  0  0  0  0
    2.5792   -2.6654    1.2457 H   0  0  0  0  0  0  0  0  0  0  0  0
    4.1500   -3.4314    0.9081 H   0  0  0  0  0  0  0  0  0  0  0  0
    2.8438   -3.2530   -0.8291 C   0  0  0  0  0  0  0  0  0  0  0  0
    2.4388   -4.2765   -0.6956 H   0  0  0  0  0  0  0  0  0  0  0  0
    3.6372   -3.2981   -1.6020 H   0  0  0  0  0  0  0  0  0  0  0  0
    2.0194   -2.6216   -1.2176 H   0  0  0  0  0  0  0  0  0  0  0  0
    2.8899    2.2997   -0.0217 C   0  0  0  0  0  0  0  0  0  0  0  0
    2.2714    2.3514    0.9035 H   0  0  0  0  0  0  0  0  0  0  0  0
    2.1405    2.0961   -0.8202 H   0  0  0  0  0  0  0  0  0  0  0  0
    3.5560    3.6494   -0.2705 C   0  0  0  0  0  0  0  0  0  0  0  0
    2.7881    4.4421   -0.3610 H   0  0  0  0  0  0  0  0  0  0  0  0
    4.1420    3.6482   -1.2122 H   0  0  0  0  0  0  0  0  0  0  0  0
    4.2412    3.9385    0.5528 H   0  0  0  0  0  0  0  0  0  0  0  0
  1  2  1  0  0  0  0
  3  2  1  0  0  0  0
  3  4  1  0  0  0  0
  4 12  1  0  0  0  0
  5  4  2  0  0  0  0
  5  6  1  0  0  0  0
  7  5  1  0  0  0  0
  8  7  1  0  0  0  0
  9 11  1  0  0  0  0
  9  7  2  0  0  0  0
 10  9  1  0  0  0  0
 11  3  2  0  0  0  0
 12 14  1  0  0  0  0
 12 13  1  0  0  0  0
 15 16  1  0  0  0  0
 15 12  1  0  0  0  0
 17 15  1  0  0  0  0
 18 15  1  0  0  0  0
 19 11  1  0  0  0  0
 19 20  1  0  0  0  0
 21 19  1  0  0  0  0
 22 19  1  0  0  0  0
 22 25  1  0  0  0  0
 23 22  1  0  0  0  0
 24 22  1  0  0  0  0
M  END
