8
q = -1.0, confidence = 0.0

 21 21  0  0  0  0  0  0  0  0999 V2000
   -2.2211    1.5133   -0.6359 O   0  0  0  0  0  0  0  0  0  0  0  0
    0.3339    2.7633   -0.1081 C   0  0  0  0  0  0  0  0  0  0  0  0
    1.5974    3.2701    0.1225 C   0  0  0  0  0  0  0  0  0  0  0  0
    2.7581    2.6226   -0.4074 C   0  0  0  0  0  0  0  0  0  0  0  0
    2.6299    1.4860   -1.1810 C   0  0  0  0  0  0  0  0  0  0  0  0
    1.3334    0.9229   -1.4463 C   0  0  0  0  0  0  0  0  0  0  0  0
    0.1643    1.5848   -0.9143 C   0  0  0  0  0  0  0  0  0  0  0  0
   -1.0877    0.8969   -1.1200 C   0  0  0  0  0  3  0  0  0  0  0  0
   -3.3822    0.6926   -0.6261 C   0  0  0  0  0  0  0  0  0  0  0  0
   -4.4929    1.4357    0.0894 C   0  0  0  0  0  0  0  0  0  0  0  0
   -0.5668    3.2404    0.3030 H   0  0  0  0  0  0  0  0  0  0  0  0
    1.7167    4.1813    0.7277 H   0  0  0  0  0  0  0  0  0  0  0  0
    3.7543    3.0423   -0.2033 H   0  0  0  0  0  0  0  0  0  0  0  0
    3.5174    1.0073   -1.6219 H   0  0  0  0  0  0  0  0  0  0  0  0
    1.2189    0.2817   -2.3347 H   0  0  0  0  0  0  0  0  0  0  0  0
   -1.2235    0.4197   -2.1157 H   0  0  0  0  0  0  0  0  0  0  0  0
   -3.6741    0.4379   -1.6755 H   0  0  0  0  0  0  0  0  0  0  0  0
   -3.1494   -0.2680   -0.1080 H   0  0  0  0  0  0  0  0  0  0  0  0
   -5.4236    0.8346    0.0907 H   0  0  0  0  0  0  0  0  0  0  0  0
   -4.7022    2.4041   -0.4071 H   0  0  0  0  0  0  0  0  0  0  0  0
   -4.2009    1.6351    1.1393 H   0  0  0  0  0  0  0  0  0  0  0  0
  1  9  1  0  0  0  0
  2  3  1  0  0  0  0
  2 11  1  0  0  0  0
  3 12  1  0  0  0  0
  4 13  1  0  0  0  0
  4  3  2  0  0  0  0
  5  4  1  0  0  0  0
  6  5  2  0  0  0  0
  6  7  1  0  0  0  0
  7  2  2  0  0  0  0
  8  7  1  0  0  0  0
  8  1  1  0  0  0  0
  9 18  1  0  0  0  0
  9 10  1  0  0  0  0
 10 19  1  0  0  0  0
 10 21  1  0  0  0  0
 14  5  1  0  0  0  0
 15  6  1  0  0  0  0
 16  8  1  0  0  0  0
 17  9  1  0  0  0  0
 20 10  1  0  0  0  0
M  END
