2
q = -1.0, confidence = 0.002

 23 22  0  0  0  0  0  0  0  0999 V2000
   -0.4815    2.4273   -0.8391 Si  0  0  0  0  0  0  0  0  0  0  0  0
   -1.0437    1.2326    0.5393 C   0  0  0  0  0  3  0  0  0  0  0  0
   -1.9501    1.5821    1.4968 C   0  0  0  0  0  0  0  0  0  0  0  0
   -2.2796    0.6691    2.6524 C   0  0  0  0  0  0  0  0  0  0  0  0
   -2.7017    2.8915    1.5392 C   0  0  0  0  0  0  0  0  0  0  0  0
    1.0924    1.6092   -1.7083 C   0  0  0  0  0  0  0  0  0  0  0  0
    1.0301    2.0460   -2.7271 H   0  0  0  0  0  0  0  0  0  0  0  0
    2.0189    1.9928   -1.2365 H   0  0  0  0  0  0  0  0  0  0  0  0
    1.2941    0.5359   -1.9931 H   0  0  0  0  0  0  0  0  0  0  0  0
   -1.7477    2.7670   -2.1952 C   0  0  0  0  0  0  0  0  0  0  0  0
    0.2667    4.0270   -0.1744 C   0  0  0  0  0  0  0  0  0  0  0  0
   -1.8056   -0.3228    2.5566 H   0  0  0  0  0  0  0  0  0  0  0  0
   -1.9489    1.1391    3.6054 H   0  0  0  0  0  0  0  0  0  0  0  0
   -3.3754    0.5240    2.7509 H   0  0  0  0  0  0  0  0  0  0  0  0
   -2.4691    3.5674    0.6961 H   0  0  0  0  0  0  0  0  0  0  0  0
   -3.7964    2.7006    1.5274 H   0  0  0  0  0  0  0  0  0  0  0  0
   -2.4976    3.4354    2.4867 H   0  0  0  0  0  0  0  0  0  0  0  0
   -1.3539    3.5219   -2.9065 H   0  0  0  0  0  0  0  0  0  0  0  0
   -2.0048    1.8549   -2.7668 H   0  0  0  0  0  0  0  0  0  0  0  0
   -2.6851    3.1680   -1.7608 H   0  0  0  0  0  0  0  0  0  0  0  0
   -0.5160    4.6802    0.2579 H   0  0  0  0  0  0  0  0  0  0  0  0
    1.0142    3.8166    0.6144 H   0  0  0  0  0  0  0  0  0  0  0  0
    0.7652    4.5874   -0.9913 H   0  0  0  0  0  0  0  0  0  0  0  0
  1 11  1  0  0  0  0
  1  2  1  0  0  0  0
  2  3  2  0  0  0  0
  3  5  1  0  0  0  0
  3  4  1  0  0  0  0
  4 14  1  0  0  0  0
  4 13  1  0  0  0  0
  5 17  1  0  0  0  0
  6  8  1  0  0  0  0
  6  1  1  0  0  0  0
  7  6  1  0  0  0  0
  9  6  1  0  0  0  0
 10 20  1  0  0  0  0
 10  1  1  0  0  0  0
 11 21  1  0  0  0  0
 11 22  1  0  0  0  0
 12  4  1  0  0  0  0
 15  5  1  0  0  0  0
 16  5  1  0  0  0  0
 18 10  1  0  0  0  0
 19 10  1  0  0  0  0
 23 11  1  0  0  0  0
M  END
