24
q = 0.0, confidence = 0.992

 72 73  0  0  1  0  0  0  0  0999 V2000
    2.3569   -0.3831    0.0602 P   0  0  1  0  0  0  0  0  0  0  0  0
   -2.1684   -0.1433    0.3435 P   0  0  0  0  0  0  0  0  0  0  0  0
    0.1774   -2.1194    0.0165 C   0  0  2  0  0  3  0  0  0  0  0  0
   -1.2040   -2.8143   -0.0317 C   0  0  2  0  0  0  0  0  0  0  0  0
   -1.0897   -3.7650    0.5454 H   0  0  0  0  0  0  0  0  0  0  0  0
   -1.6572   -3.2279   -1.4421 C   0  0  0  0  0  0  0  0  0  0  0  0
   -2.5507   -3.8815   -1.3489 H   0  0  0  0  0  0  0  0  0  0  0  0
   -1.9898   -2.3275   -1.9944 H   0  0  0  0  0  0  0  0  0  0  0  0
   -0.5639   -3.9081   -2.2590 C   0  0  0  0  0  0  0  0  0  0  0  0
   -0.9427   -4.1654   -3.2703 H   0  0  0  0  0  0  0  0  0  0  0  0
   -0.2660   -4.8684   -1.7798 H   0  0  0  0  0  0  0  0  0  0  0  0
    0.6484   -2.9863   -2.3510 C   0  0  0  0  0  0  0  0  0  0  0  0
    1.4411   -3.4312   -2.9895 H   0  0  0  0  0  0  0  0  0  0  0  0
    0.3533   -2.0228   -2.8239 H   0  0  0  0  0  0  0  0  0  0  0  0
    1.2321   -2.6868   -0.9630 C   0  0  1  0  0  0  0  0  0  0  0  0
    1.5442   -3.6715   -0.5377 H   0  0  0  0  0  0  0  0  0  0  0  0
    2.5080   -1.8083   -1.1024 C   0  0  0  0  0  0  0  0  0  0  0  0
    2.5651   -1.3885   -2.1263 H   0  0  0  0  0  0  0  0  0  0  0  0
    3.4359   -2.3927   -0.9325 H   0  0  0  0  0  0  0  0  0  0  0  0
   -2.3076   -1.9974    0.6719 C   0  0  0  0  0  0  0  0  0  0  0  0
   -2.2059   -2.0917    1.7695 H   0  0  0  0  0  0  0  0  0  0  0  0
   -3.3108   -2.3971    0.4264 H   0  0  0  0  0  0  0  0  0  0  0  0
    2.0707   -1.3483    1.6640 C   0  0  0  0  0  0  0  0  0  0  0  0
    0.5939   -1.6074    1.2917 C   0  0  0  0  0  3  0  0  0  0  0  0
   -0.0693   -1.7439    2.1648 H   0  0  0  0  0  0  0  0  0  0  0  0
    2.1201   -0.4258    2.8909 C   0  0  0  0  0  0  0  0  0  0  0  0
    1.5729    0.5192    2.7012 H   0  0  0  0  0  0  0  0  0  0  0  0
    3.1618   -0.1848    3.1836 H   0  0  0  0  0  0  0  0  0  0  0  0
    1.6407   -0.9339    3.7553 H   0  0  0  0  0  0  0  0  0  0  0  0
    2.8987   -2.6122    1.9290 C   0  0  0  0  0  0  0  0  0  0  0  0
    3.9554   -2.3662    2.1591 H   0  0  0  0  0  0  0  0  0  0  0  0
    2.8883   -3.3241    1.0825 H   0  0  0  0  0  0  0  0  0  0  0  0
    2.4826   -3.1452    2.8109 H   0  0  0  0  0  0  0  0  0  0  0  0
    3.9259    0.6519   -0.0729 C   0  0  0  0  0  0  0  0  0  0  0  0
    5.1746   -0.1597    0.2984 C   0  0  0  0  0  0  0  0  0  0  0  0
    5.2951   -1.0590   -0.3388 H   0  0  0  0  0  0  0  0  0  0  0  0
    5.1503   -0.4875    1.3570 H   0  0  0  0  0  0  0  0  0  0  0  0
    6.0829    0.4668    0.1641 H   0  0  0  0  0  0  0  0  0  0  0  0
    3.9870    1.1304   -1.5368 C   0  0  0  0  0  0  0  0  0  0  0  0
    3.0564    1.6623   -1.8233 H   0  0  0  0  0  0  0  0  0  0  0  0
    4.1501    0.2936   -2.2453 H   0  0  0  0  0  0  0  0  0  0  0  0
    4.8346    1.8386   -1.6559 H   0  0  0  0  0  0  0  0  0  0  0  0
    3.7678    1.8751    0.8477 C   0  0  0  0  0  0  0  0  0  0  0  0
    2.8362    2.4313    0.6224 H   0  0  0  0  0  0  0  0  0  0  0  0
    4.6268    2.5624    0.6936 H   0  0  0  0  0  0  0  0  0  0  0  0
    3.7530    1.5919    1.9173 H   0  0  0  0  0  0  0  0  0  0  0  0
   -3.3704    0.2668   -1.1215 C   0  0  0  0  0  0  0  0  0  0  0  0
   -4.5112   -0.7563   -1.2473 C   0  0  0  0  0  0  0  0  0  0  0  0
   -4.1434   -1.7663   -1.5103 H   0  0  0  0  0  0  0  0  0  0  0  0
   -5.1980   -0.4367   -2.0604 H   0  0  0  0  0  0  0  0  0  0  0  0
   -5.1118   -0.8390   -0.3200 H   0  0  0  0  0  0  0  0  0  0  0  0
   -3.9644    1.6791   -0.9850 C   0  0  0  0  0  0  0  0  0  0  0  0
   -4.7102    1.7545   -0.1713 H   0  0  0  0  0  0  0  0  0  0  0  0
   -4.4877    1.9309   -1.9323 H   0  0  0  0  0  0  0  0  0  0  0  0
   -3.1780    2.4426   -0.8288 H   0  0  0  0  0  0  0  0  0  0  0  0
   -2.5190    0.2768   -2.4061 C   0  0  0  0  0  0  0  0  0  0  0  0
   -1.9264   -0.6459   -2.5461 H   0  0  0  0  0  0  0  0  0  0  0  0
   -1.8057    1.1209   -2.3944 H   0  0  0  0  0  0  0  0  0  0  0  0
   -3.1885    0.3935   -3.2856 H   0  0  0  0  0  0  0  0  0  0  0  0
   -2.8831    0.5825    1.9842 C   0  0  0  0  0  0  0  0  0  0  0  0
   -2.8579    2.1236    1.9571 C   0  0  0  0  0  0  0  0  0  0  0  0
   -1.9089    2.5086    1.5375 H   0  0  0  0  0  0  0  0  0  0  0  0
   -2.9499    2.5031    2.9970 H   0  0  0  0  0  0  0  0  0  0  0  0
   -3.6893    2.5589    1.3786 H   0  0  0  0  0  0  0  0  0  0  0  0
   -1.9154    0.1491    3.1038 C   0  0  0  0  0  0  0  0  0  0  0  0
   -0.8807    0.4720    2.8702 H   0  0  0  0  0  0  0  0  0  0  0  0
   -1.9053   -0.9453    3.2765 H   0  0  0  0  0  0  0  0  0  0  0  0
   -2.2314    0.6241    4.0564 H   0  0  0  0  0  0  0  0  0  0  0  0
   -4.2984    0.0694    2.2904 C   0  0  0  0  0  0  0  0  0  0  0  0
   -5.0374    0.4072    1.5379 H   0  0  0  0  0  0  0  0  0  0  0  0
   -4.6314    0.4624    3.2756 H   0  0  0  0  0  0  0  0  0  0  0  0
   -4.3432   -1.0370    2.3460 H   0  0  0  0  0  0  0  0  0  0  0  0
  1 34  1  1  0  0  0
  1 23  1  0  0  0  0
  2 20  1  0  0  0  0
  2 60  1  0  0  0  0
  3 24  1  1  0  0  0
  4  3  1  0  0  0  0
  4  5  1  1  0  0  0
  4 20  1  0  0  0  0
  6  7  1  0  0  0  0
  6  4  1  0  0  0  0
  8  6  1  0  0  0  0
  9 11  1  0  0  0  0
  9  6  1  0  0  0  0
 10  9  1  0  0  0  0
 12  9  1  0  0  0  0
 12 15  1  0  0  0  0
 13 12  1  0  0  0  0
 14 12  1  0  0  0  0
 15 16  1  1  0  0  0
 15  3  1  0  0  0  0
 17 15  1  0  0  0  0
 17 19  1  0  0  0  0
 17  1  1  0  0  0  0
 18 17  1  0  0  0  0
 20 21  1  0  0  0  0
 22 20  1  0  0  0  0
 23 30  1  0  0  0  0
 23 26  1  0  0  0  0
 24 23  1  0  0  0  0
 24 25  1  0  0  0  0
 26 28  1  0  0  0  0
 26 29  1  0  0  0  0
 27 26  1  0  0  0  0
 30 31  1  0  0  0  0
 30 33  1  0  0  0  0
 32 30  1  0  0  0  0
 34 35  1  0  0  0  0
 34 43  1  0  0  0  0
 35 37  1  0  0  0  0
 36 35  1  0  0  0  0
 38 35  1  0  0  0  0
 39 34  1  0  0  0  0
 40 39  1  0  0  0  0
 41 39  1  0  0  0  0
 42 39  1  0  0  0  0
 43 46  1  0  0  0  0
 44 43  1  0  0  0  0
 45 43  1  0  0  0  0
 47 52  1  0  0  0  0
 47  2  1  0  0  0  0
 48 47  1  0  0  0  0
 48 51  1  0  0  0  0
 49 48  1  0  0  0  0
 50 48  1  0  0  0  0
 52 55  1  0  0  0  0
 52 53  1  0  0  0  0
 54 52  1  0  0  0  0
 56 58  1  0  0  0  0
 56 47  1  0  0  0  0
 57 56  1  0  0  0  0
 59 56  1  0  0  0  0
 60 69  1  0  0  0  0
 60 65  1  0  0  0  0
 61 60  1  0  0  0  0
 61 63  1  0  0  0  0
 62 61  1  0  0  0  0
 64 61  1  0  0  0  0
 65 67  1  0  0  0  0
 65 68  1  0  0  0  0
 66 65  1  0  0  0  0
 69 72  1  0  0  0  0
 69 71  1  0  0  0  0
 70 69  1  0  0  0  0
M  END
