2
q = 0.0, confidence = 0.998

 37 37  0  0  0  0  0  0  0  0999 V2000
    2.4223   -1.3768   -0.3554 C   0  0  0  0  0  3  0  0  0  0  0  0
    2.2617   -0.8497   -1.6829 C   0  0  0  0  0  3  0  0  0  0  0  0
    1.0209   -0.2298   -1.9939 C   0  0  0  0  0  3  0  0  0  0  0  0
    0.0098   -0.1624   -0.9752 C   0  0  0  0  0  3  0  0  0  0  0  0
   -1.1829    0.6751   -1.1598 C   0  0  0  0  0  0  0  0  0  0  0  0
   -2.2712    0.6265   -0.4044 C   0  0  0  0  0  0  0  0  0  0  0  0
   -3.3475    0.6162    0.3743 C   0  0  0  0  0  0  0  0  0  0  0  0
   -3.4051    1.5322    1.5907 C   0  0  0  0  0  0  0  0  0  0  0  0
   -2.1519    2.3668    1.8415 C   0  0  0  0  0  0  0  0  0  0  0  0
   -4.5105   -0.2680    0.0792 C   0  0  0  0  0  0  0  0  0  0  0  0
   -4.4912   -1.1453   -1.0315 C   0  0  0  0  0  0  0  0  0  0  0  0
   -5.5783   -1.9770   -1.3146 C   0  0  0  0  0  0  0  0  0  0  0  0
   -6.7202   -1.9564   -0.4937 C   0  0  0  0  0  0  0  0  0  0  0  0
   -6.7559   -1.0933    0.6100 C   0  0  0  0  0  0  0  0  0  0  0  0
   -5.6643   -0.2580    0.8949 C   0  0  0  0  0  0  0  0  0  0  0  0
    3.7805   -1.7869    0.0795 C   0  0  0  0  0  0  0  0  0  0  0  0
    4.8229   -1.5287   -0.5022 O   0  0  0  0  0  0  0  0  0  0  0  0
    3.7226   -2.4964    1.2365 O   0  0  0  0  0  0  0  0  0  0  0  0
    4.9892   -2.9122    1.7576 C   0  0  0  0  0  0  0  0  0  0  0  0
    1.5997   -1.9106    0.1438 H   0  0  0  0  0  0  0  0  0  0  0  0
    3.1096   -0.8402   -2.3842 H   0  0  0  0  0  0  0  0  0  0  0  0
    0.8888    0.2902   -2.9561 H   0  0  0  0  0  0  0  0  0  0  0  0
   -0.1200   -1.0140   -0.2901 H   0  0  0  0  0  0  0  0  0  0  0  0
   -1.1461    1.4147   -1.9851 H   0  0  0  0  0  0  0  0  0  0  0  0
   -4.2894    2.1977    1.4730 H   0  0  0  0  0  0  0  0  0  0  0  0
   -3.6264    0.9050    2.4824 H   0  0  0  0  0  0  0  0  0  0  0  0
   -2.2938    3.0295    2.7178 H   0  0  0  0  0  0  0  0  0  0  0  0
   -1.9042    3.0034    0.9684 H   0  0  0  0  0  0  0  0  0  0  0  0
   -1.2721    1.7247    2.0430 H   0  0  0  0  0  0  0  0  0  0  0  0
   -3.5992   -1.1649   -1.6766 H   0  0  0  0  0  0  0  0  0  0  0  0
   -5.5369   -2.6502   -2.1846 H   0  0  0  0  0  0  0  0  0  0  0  0
   -7.5763   -2.6112   -0.7158 H   0  0  0  0  0  0  0  0  0  0  0  0
   -7.6430   -1.0659    1.2610 H   0  0  0  0  0  0  0  0  0  0  0  0
   -5.7203    0.4090    1.7662 H   0  0  0  0  0  0  0  0  0  0  0  0
    4.7736   -3.4468    2.6997 H   0  0  0  0  0  0  0  0  0  0  0  0
    5.6436   -2.0374    1.9487 H   0  0  0  0  0  0  0  0  0  0  0  0
    5.5109   -3.5813    1.0436 H   0  0  0  0  0  0  0  0  0  0  0  0
  1 16  1  0  0  0  0
  1 20  1  0  0  0  0
  2  1  1  0  0  0  0
  3  2  1  0  0  0  0
  3  4  1  0  0  0  0
  4 23  1  0  0  0  0
  5  4  1  0  0  0  0
  5  6  2  0  0  0  0
  6  7  2  0  0  0  0
  7  8  1  0  0  0  0
  8  9  1  0  0  0  0
  8 26  1  0  0  0  0
  9 29  1  0  0  0  0
  9 27  1  0  0  0  0
 10  7  1  0  0  0  0
 10 15  1  0  0  0  0
 11 10  2  0  0  0  0
 12 11  1  0  0  0  0
 12 13  2  0  0  0  0
 13 14  1  0  0  0  0
 14 15  2  0  0  0  0
 14 33  1  0  0  0  0
 15 34  1  0  0  0  0
 16 18  1  0  0  0  0
 17 16  2  0  0  0  0
 18 19  1  0  0  0  0
 19 36  1  0  0  0  0
 19 35  1  0  0  0  0
 21  2  1  0  0  0  0
 22  3  1  0  0  0  0
 24  5  1  0  0  0  0
 25  8  1  0  0  0  0
 28  9  1  0  0  0  0
 30 11  1  0  0  0  0
 31 12  1  0  0  0  0
 32 13  1  0  0  0  0
 37 19  1  0  0  0  0
M  END
