3
q = -1.0, confidence = 0.0

 24 25  0  0  1  0  0  0  0  0999 V2000
    0.5751   -0.0792   -1.9039 O   0  0  0  0  0  0  0  0  0  0  0  0
    0.9032    2.2069    0.5511 O   0  0  0  0  0  0  0  0  0  0  0  0
    0.3196    0.2388   -0.7563 C   0  0  0  0  0  3  0  0  0  0  0  0
    1.3567    0.9486    0.1210 C   0  0  2  0  0  0  0  0  0  0  0  0
    0.9965    3.2106   -0.4513 C   0  0  0  0  0  0  0  0  0  0  0  0
    2.1429    0.1828    1.1613 C   0  0  1  0  0  0  0  0  0  0  0  0
    2.0451   -1.3368    1.2869 C   0  0  0  0  0  0  0  0  0  0  0  0
    3.1608   -2.0626    0.5214 C   0  0  0  0  0  0  0  0  0  0  0  0
    3.2030   -1.6135   -0.9426 C   0  0  0  0  0  0  0  0  0  0  0  0
    3.5346   -0.1161   -1.0745 C   0  0  0  0  0  0  0  0  0  0  0  0
    2.8513    0.7843   -0.0527 C   0  0  1  0  0  0  0  0  0  0  0  0
    2.0546    3.3966   -0.7448 H   0  0  0  0  0  0  0  0  0  0  0  0
    0.5700    4.1359   -0.0200 H   0  0  0  0  0  0  0  0  0  0  0  0
    0.4217    2.9485   -1.3670 H   0  0  0  0  0  0  0  0  0  0  0  0
    2.2417    0.7485    2.1017 H   0  0  0  0  0  0  0  0  0  0  0  0
    1.0591   -1.6819    0.9064 H   0  0  0  0  0  0  0  0  0  0  0  0
    2.0667   -1.6120    2.3602 H   0  0  0  0  0  0  0  0  0  0  0  0
    3.0086   -3.1604    0.5854 H   0  0  0  0  0  0  0  0  0  0  0  0
    4.1415   -1.8519    1.0044 H   0  0  0  0  0  0  0  0  0  0  0  0
    3.9544   -2.2014   -1.5090 H   0  0  0  0  0  0  0  0  0  0  0  0
    2.2224   -1.8219   -1.4200 H   0  0  0  0  0  0  0  0  0  0  0  0
    4.6296    0.0093   -0.9271 H   0  0  0  0  0  0  0  0  0  0  0  0
    3.3087    0.2347   -2.1023 H   0  0  0  0  0  0  0  0  0  0  0  0
    3.3971    1.7203    0.1551 H   0  0  0  0  0  0  0  0  0  0  0  0
  1  3  2  0  0  0  0
  4  3  1  6  0  0  0
  4  2  1  0  0  0  0
  4  6  1  0  0  0  0
  5 13  1  0  0  0  0
  5  2  1  0  0  0  0
  6  7  1  0  0  0  0
  6 15  1  1  0  0  0
  7 17  1  0  0  0  0
  8 18  1  0  0  0  0
  8 19  1  0  0  0  0
  8  7  1  0  0  0  0
  9  8  1  0  0  0  0
 10  9  1  0  0  0  0
 10 22  1  0  0  0  0
 10 11  1  0  0  0  0
 11  4  1  0  0  0  0
 11 24  1  1  0  0  0
 11  6  1  0  0  0  0
 12  5  1  0  0  0  0
 14  5  1  0  0  0  0
 16  7  1  0  0  0  0
 20  9  1  0  0  0  0
 21  9  1  0  0  0  0
 23 10  1  0  0  0  0
M  END
