27
q = 0.0, confidence = 0.604

 50 54  0  0  1  0  0  0  0  0999 V2000
   -1.3324   -2.7259    1.2394 N   0  0  0  0  0  2  0  0  0  0  0  0
   -3.3282   -3.0734   -0.6565 N   0  0  0  0  0  2  0  0  0  0  0  0
   -0.6578   -3.2136   -1.4143 N   0  0  0  0  0  2  0  0  0  0  0  0
   -1.3409    2.7209    1.2396 N   0  0  0  0  0  2  0  0  0  0  0  0
   -3.3375    3.0624   -0.6566 N   0  0  0  0  0  2  0  0  0  0  0  0
   -0.6674    3.2119   -1.4137 N   0  0  0  0  0  2  0  0  0  0  0  0
   -0.2137   -2.7525    0.0732 P   0  0  0  0  0  4  0  0  0  0  0  0
   -2.8848   -2.7660    0.8508 P   0  0  0  0  0  4  0  0  0  0  0  0
   -2.2154   -3.2655   -1.7884 P   0  0  0  0  0  4  0  0  0  0  0  0
   -0.2221    2.7514    0.0736 P   0  0  0  0  0  4  0  0  0  0  0  0
   -2.8933    2.7578    0.8510 P   0  0  0  0  0  4  0  0  0  0  0  0
   -2.2251    3.2590   -1.7881 P   0  0  0  0  0  4  0  0  0  0  0  0
   -1.5637   -0.0026   -0.4754 O   0  0  0  0  0  0  0  0  0  0  0  0
    0.9685   -3.7158    0.5633 F   0  0  0  0  0  0  0  0  0  0  0  0
   -2.5036   -2.2683   -2.9895 F   0  0  0  0  0  0  0  0  0  0  0  0
   -2.5019   -4.6232   -2.5623 F   0  0  0  0  0  0  0  0  0  0  0  0
   -3.6043   -1.4496    1.3640 F   0  0  0  0  0  0  0  0  0  0  0  0
   -3.6133   -3.8000    1.8117 F   0  0  0  0  0  0  0  0  0  0  0  0
    0.9572    3.7179    0.5644 F   0  0  0  0  0  0  0  0  0  0  0  0
   -2.5158    4.6163   -2.5612 F   0  0  0  0  0  0  0  0  0  0  0  0
   -2.5098    2.2616   -2.9899 F   0  0  0  0  0  0  0  0  0  0  0  0
   -3.6238    3.7914    1.8109 F   0  0  0  0  0  0  0  0  0  0  0  0
   -3.6102    1.4405    1.3657 F   0  0  0  0  0  0  0  0  0  0  0  0
   -0.3533   -0.0008   -0.2681 C   0  0  0  0  0  0  0  0  0  0  0  0
    0.5641   -1.1489   -0.0152 C   0  0  2  0  0  3  0  0  0  0  0  0
    1.9376   -0.7258   -0.2128 C   0  0  2  0  0  3  0  0  0  0  0  0
    1.9354    0.7313   -0.2129 C   0  0  2  0  0  3  0  0  0  0  0  0
    0.5606    1.1503   -0.0155 C   0  0  1  0  0  3  0  0  0  0  0  0
    3.0514   -1.6290   -0.5773 C   0  0  0  0  0  0  0  0  0  0  0  0
    2.8520   -2.4846   -1.6846 C   0  0  0  0  0  0  0  0  0  0  0  0
    1.8841   -2.4822   -2.2088 H   0  0  0  0  0  0  0  0  0  0  0  0
    3.8778   -3.3364   -2.1133 C   0  0  0  0  0  0  0  0  0  0  0  0
    3.7087   -3.9957   -2.9777 H   0  0  0  0  0  0  0  0  0  0  0  0
    5.1090   -3.3549   -1.4399 C   0  0  0  0  0  0  0  0  0  0  0  0
    5.9116   -4.0293   -1.7740 H   0  0  0  0  0  0  0  0  0  0  0  0
    5.3073   -2.5215   -0.3284 C   0  0  0  0  0  0  0  0  0  0  0  0
    6.2619   -2.5457    0.2180 H   0  0  0  0  0  0  0  0  0  0  0  0
    4.2860   -1.6638    0.1010 C   0  0  0  0  0  0  0  0  0  0  0  0
    4.4365   -1.0415    0.9926 H   0  0  0  0  0  0  0  0  0  0  0  0
    3.0463    1.6379   -0.5779 C   0  0  0  0  0  0  0  0  0  0  0  0
    4.2812    1.6762    0.0997 C   0  0  0  0  0  0  0  0  0  0  0  0
    4.4340    1.0542    0.9911 H   0  0  0  0  0  0  0  0  0  0  0  0
    5.2998    2.5368   -0.3302 C   0  0  0  0  0  0  0  0  0  0  0  0
    6.2546    2.5637    0.2156 H   0  0  0  0  0  0  0  0  0  0  0  0
    5.0985    3.3697   -1.4415 C   0  0  0  0  0  0  0  0  0  0  0  0
    5.8990    4.0464   -1.7761 H   0  0  0  0  0  0  0  0  0  0  0  0
    3.8669    3.3478   -2.1142 C   0  0  0  0  0  0  0  0  0  0  0  0
    3.6954    4.0066   -2.9784 H   0  0  0  0  0  0  0  0  0  0  0  0
    2.8438    2.4931   -1.6850 C   0  0  0  0  0  0  0  0  0  0  0  0
    1.8756    2.4878   -2.2087 H   0  0  0  0  0  0  0  0  0  0  0  0
  2  8  1  0  0  0  0
  3  7  1  0  0  0  0
  5 11  1  0  0  0  0
  6 10  1  0  0  0  0
  7 14  1  0  0  0  0
  7  1  1  0  0  0  0
  8  1  1  0  0  0  0
  8 17  1  0  0  0  0
  8 18  1  0  0  0  0
  9  3  1  0  0  0  0
  9  2  1  0  0  0  0
 10 19  1  0  0  0  0
 10  4  1  0  0  0  0
 11  4  1  0  0  0  0
 11 23  1  0  0  0  0
 11 22  1  0  0  0  0
 12  6  1  0  0  0  0
 12  5  1  0  0  0  0
 13 24  2  0  0  0  0
 15  9  1  0  0  0  0
 16  9  1  0  0  0  0
 20 12  1  0  0  0  0
 21 12  1  0  0  0  0
 25 24  1  6  0  0  0
 25  7  1  0  0  0  0
 26 29  1  6  0  0  0
 26 25  1  0  0  0  0
 27 40  1  6  0  0  0
 27 26  1  0  0  0  0
 27 28  1  0  0  0  0
 28 24  1  6  0  0  0
 28 10  1  0  0  0  0
 29 38  1  0  0  0  0
 30 29  2  0  0  0  0
 31 30  1  0  0  0  0
 32 30  1  0  0  0  0
 32 34  2  0  0  0  0
 33 32  1  0  0  0  0
 34 36  1  0  0  0  0
 35 34  1  0  0  0  0
 36 38  2  0  0  0  0
 36 37  1  0  0  0  0
 38 39  1  0  0  0  0
 40 41  1  0  0  0  0
 41 42  1  0  0  0  0
 43 41  2  0  0  0  0
 43 44  1  0  0  0  0
 45 43  1  0  0  0  0
 46 45  1  0  0  0  0
 47 49  1  0  0  0  0
 47 45  2  0  0  0  0
 48 47  1  0  0  0  0
 49 40  2  0  0  0  0
 50 49  1  0  0  0  0
M  END
