6
q = 0.0, confidence = 0.882

 60 66  0  0  0  0  0  0  0  0999 V2000
    1.2693   -0.2084    0.0446 O   0  0  0  0  0  0  0  0  0  0  0  0
   -0.0826   -2.3888    0.1467 O   0  0  0  0  0  0  0  0  0  0  0  0
   -1.3351   -4.4701   -0.1009 O   0  0  0  0  0  0  0  0  0  0  0  0
   -0.5845   -3.7328    0.0269 H   0  0  0  0  0  0  0  0  0  0  0  0
   -7.2343   -2.2977   -0.3979 O   0  0  0  0  0  0  0  0  0  0  0  0
    2.5415    0.2957   -0.0261 C   0  0  0  0  0  3  0  0  0  0  0  0
    2.6168    1.7037   -0.2201 C   0  0  0  0  0  0  0  0  0  0  0  0
    3.6200    2.1527   -0.2243 H   0  0  0  0  0  0  0  0  0  0  0  0
    1.5003    2.5230   -0.3590 C   0  0  0  0  0  0  0  0  0  0  0  0
    0.1954    1.9015   -0.3468 C   0  0  0  0  0  0  0  0  0  0  0  0
    0.1319    0.5028   -0.1154 C   0  0  0  0  0  0  0  0  0  0  0  0
   -1.1021   -0.2147   -0.0652 C   0  0  0  0  0  0  0  0  0  0  0  0
   -2.3249    0.5201   -0.1991 C   0  0  0  0  0  0  0  0  0  0  0  0
   -2.2370    1.9025   -0.5472 C   0  0  0  0  0  0  0  0  0  0  0  0
   -3.1512    2.4513   -0.7954 H   0  0  0  0  0  0  0  0  0  0  0  0
   -1.0288    2.5691   -0.6224 C   0  0  0  0  0  3  0  0  0  0  0  0
   -1.0076    3.6261   -0.9206 H   0  0  0  0  0  0  0  0  0  0  0  0
   -1.1295   -1.6879    0.0176 C   0  0  0  0  0  0  0  0  0  0  0  0
   -2.4236   -2.3375   -0.1291 C   0  0  0  0  0  0  0  0  0  0  0  0
   -3.6408   -1.5922   -0.1695 C   0  0  0  0  0  0  0  0  0  0  0  0
   -3.6173   -0.1567   -0.0825 C   0  0  0  0  0  0  0  0  0  0  0  0
   -4.8628    0.5168    0.0857 C   0  0  0  0  0  0  0  0  0  0  0  0
   -6.0802   -0.1897   -0.0371 C   0  0  0  0  0  0  0  0  0  0  0  0
   -7.0130    0.3685    0.1101 H   0  0  0  0  0  0  0  0  0  0  0  0
   -6.1044   -1.5729   -0.2567 C   0  0  0  0  0  0  0  0  0  0  0  0
   -4.8785   -2.3062   -0.2774 C   0  0  0  0  0  0  0  0  0  0  0  0
   -4.8679   -3.7301   -0.3826 C   0  0  0  0  0  0  0  0  0  0  0  0
   -5.8324   -4.2466   -0.4855 H   0  0  0  0  0  0  0  0  0  0  0  0
   -3.6915   -4.4485   -0.3414 C   0  0  0  0  0  0  0  0  0  0  0  0
   -3.6748   -5.5456   -0.4061 H   0  0  0  0  0  0  0  0  0  0  0  0
   -2.4446   -3.7698   -0.1885 C   0  0  0  0  0  0  0  0  0  0  0  0
    1.6704    3.9856   -0.5171 C   0  0  0  0  0  0  0  0  0  0  0  0
    0.9209    4.9018    0.2576 C   0  0  0  0  0  0  0  0  0  0  0  0
    0.1921    4.5241    0.9900 H   0  0  0  0  0  0  0  0  0  0  0  0
    1.1313    6.2811    0.1294 C   0  0  0  0  0  0  0  0  0  0  0  0
    0.5509    6.9803    0.7502 H   0  0  0  0  0  0  0  0  0  0  0  0
    2.0839    6.7700   -0.7790 C   0  0  0  0  0  0  0  0  0  0  0  0
    2.2437    7.8539   -0.8819 H   0  0  0  0  0  0  0  0  0  0  0  0
    2.8354    5.8701   -1.5516 C   0  0  0  0  0  0  0  0  0  0  0  0
    3.5827    6.2458   -2.2666 H   0  0  0  0  0  0  0  0  0  0  0  0
    2.6364    4.4899   -1.4179 C   0  0  0  0  0  0  0  0  0  0  0  0
    3.2187    3.7862   -2.0318 H   0  0  0  0  0  0  0  0  0  0  0  0
   -4.9839    1.9369    0.5191 C   0  0  0  0  0  0  0  0  0  0  0  0
   -5.8058    2.8463   -0.1814 C   0  0  0  0  0  0  0  0  0  0  0  0
   -6.3168    2.5136   -1.0980 H   0  0  0  0  0  0  0  0  0  0  0  0
   -5.9444    4.1708    0.2603 C   0  0  0  0  0  0  0  0  0  0  0  0
   -6.5758    4.8719   -0.3065 H   0  0  0  0  0  0  0  0  0  0  0  0
   -5.2784    4.6015    1.4182 C   0  0  0  0  0  0  0  0  0  0  0  0
   -5.3890    5.6396    1.7659 H   0  0  0  0  0  0  0  0  0  0  0  0
   -4.4756    3.6980    2.1353 C   0  0  0  0  0  0  0  0  0  0  0  0
   -3.9629    4.0242    3.0529 H   0  0  0  0  0  0  0  0  0  0  0  0
   -4.3281    2.3785    1.6910 C   0  0  0  0  0  0  0  0  0  0  0  0
   -3.7008    1.6702    2.2524 H   0  0  0  0  0  0  0  0  0  0  0  0
   -8.5052   -1.6392   -0.3732 C   0  0  0  0  0  0  0  0  0  0  0  0
   -8.5295   -0.8520   -1.1606 H   0  0  0  0  0  0  0  0  0  0  0  0
   -8.6425   -1.1343    0.6100 H   0  0  0  0  0  0  0  0  0  0  0  0
   -9.5766   -2.6853   -0.6062 C   0  0  0  0  0  0  0  0  0  0  0  0
   -9.4377   -3.1796   -1.5877 H   0  0  0  0  0  0  0  0  0  0  0  0
  -10.5781   -2.2126   -0.5919 H   0  0  0  0  0  0  0  0  0  0  0  0
   -9.5466   -3.4621    0.1829 H   0  0  0  0  0  0  0  0  0  0  0  0
  3  4  1  0  0  0  0
  5 54  1  0  0  0  0
  5 25  1  0  0  0  0
  6  1  1  0  0  0  0
  7  6  2  0  0  0  0
  8  7  1  0  0  0  0
  9 10  2  0  0  0  0
  9  7  1  0  0  0  0
 10 11  1  0  0  0  0
 11 12  2  0  0  0  0
 11  1  1  0  0  0  0
 12 18  1  0  0  0  0
 13 21  1  0  0  0  0
 13 12  1  0  0  0  0
 14 13  2  0  0  0  0
 15 14  1  0  0  0  0
 16 14  1  0  0  0  0
 16 10  1  0  0  0  0
 17 16  1  0  0  0  0
 18  2  2  0  0  0  0
 19 18  1  0  0  0  0
 20 19  1  0  0  0  0
 20 21  1  0  0  0  0
 21 22  2  0  0  0  0
 22 43  1  0  0  0  0
 23 22  1  0  0  0  0
 23 24  1  0  0  0  0
 25 23  2  0  0  0  0
 26 25  1  0  0  0  0
 26 20  2  0  0  0  0
 27 29  2  0  0  0  0
 27 26  1  0  0  0  0
 28 27  1  0  0  0  0
 29 31  1  0  0  0  0
 30 29  1  0  0  0  0
 31 19  2  0  0  0  0
 31  3  1  0  0  0  0
 32  9  1  0  0  0  0
 32 33  1  0  0  0  0
 33 34  1  0  0  0  0
 35 33  2  0  0  0  0
 35 36  1  0  0  0  0
 37 35  1  0  0  0  0
 38 37  1  0  0  0  0
 39 41  1  0  0  0  0
 39 37  2  0  0  0  0
 40 39  1  0  0  0  0
 41 32  2  0  0  0  0
 42 41  1  0  0  0  0
 43 52  1  0  0  0  0
 44 46  1  0  0  0  0
 44 43  2  0  0  0  0
 45 44  1  0  0  0  0
 46 48  2  0  0  0  0
 47 46  1  0  0  0  0
 48 49  1  0  0  0  0
 48 50  1  0  0  0  0
 50 51  1  0  0  0  0
 52 50  2  0  0  0  0
 52 53  1  0  0  0  0
 54 56  1  0  0  0  0
 55 54  1  0  0  0  0
 57 59  1  0  0  0  0
 57 54  1  0  0  0  0
 57 60  1  0  0  0  0
 58 57  1  0  0  0  0
M  END
