5
q = 0.0, confidence = 1.0

 40 40  0  0  0  0  0  0  0  0999 V2000
   -4.5509   -0.9395   -1.8624 O   0  0  0  0  0  0  0  0  0  0  0  0
   -0.7446    3.0220   -0.4128 N   0  0  0  0  0  0  0  0  0  0  0  0
   -2.0124    1.6385   -1.5033 N   0  0  0  0  0  0  0  0  0  0  0  0
   -3.9547    0.2792    0.0119 N   0  0  0  0  0  0  0  0  0  0  0  0
   -0.9402    1.6889   -0.6555 C   0  0  0  0  0  2  0  0  0  0  0  0
   -1.6997    3.7803   -1.0866 C   0  0  0  0  0  0  0  0  0  0  0  0
   -1.7341    4.8695   -1.0395 H   0  0  0  0  0  0  0  0  0  0  0  0
   -2.5005    2.9077   -1.7715 C   0  0  0  0  0  0  0  0  0  0  0  0
   -3.3588    3.0804   -2.4269 H   0  0  0  0  0  0  0  0  0  0  0  0
    0.2932    3.6016    0.5085 C   0  0  0  0  0  0  0  0  0  0  0  0
   -0.2010    3.4241    1.9532 C   0  0  0  0  0  0  0  0  0  0  0  0
   -0.3946    2.3564    2.1768 H   0  0  0  0  0  0  0  0  0  0  0  0
    0.5567    3.8127    2.6621 H   0  0  0  0  0  0  0  0  0  0  0  0
   -1.1447    3.9844    2.1130 H   0  0  0  0  0  0  0  0  0  0  0  0
    1.6279    2.8823    0.2797 C   0  0  0  0  0  0  0  0  0  0  0  0
    1.9671    2.9894   -0.7688 H   0  0  0  0  0  0  0  0  0  0  0  0
    2.3986    3.3017    0.9548 H   0  0  0  0  0  0  0  0  0  0  0  0
    1.5392    1.7968    0.4791 H   0  0  0  0  0  0  0  0  0  0  0  0
    0.4768    5.0938    0.1918 C   0  0  0  0  0  0  0  0  0  0  0  0
   -0.4236    5.6932    0.4319 H   0  0  0  0  0  0  0  0  0  0  0  0
    1.3009    5.4837    0.8189 H   0  0  0  0  0  0  0  0  0  0  0  0
    0.7511    5.2579   -0.8693 H   0  0  0  0  0  0  0  0  0  0  0  0
   -2.5910    0.4121   -2.0298 C   0  0  0  0  0  0  0  0  0  0  0  0
   -2.9228    0.5779   -3.0718 H   0  0  0  0  0  0  0  0  0  0  0  0
   -1.7901   -0.3537   -2.0531 H   0  0  0  0  0  0  0  0  0  0  0  0
   -3.8089   -0.1552   -1.2675 C   0  0  0  0  0  0  0  0  0  0  0  0
   -5.0192   -0.1642    0.9433 C   0  0  0  0  0  0  0  0  0  0  0  0
   -4.8909    0.7188    2.1948 C   0  0  0  0  0  0  0  0  0  0  0  0
   -5.0558    1.7859    1.9406 H   0  0  0  0  0  0  0  0  0  0  0  0
   -5.6456    0.4218    2.9490 H   0  0  0  0  0  0  0  0  0  0  0  0
   -3.8838    0.6177    2.6475 H   0  0  0  0  0  0  0  0  0  0  0  0
   -4.8051   -1.6451    1.3095 C   0  0  0  0  0  0  0  0  0  0  0  0
   -3.8175   -1.7769    1.7941 H   0  0  0  0  0  0  0  0  0  0  0  0
   -5.5922   -1.9892    2.0105 H   0  0  0  0  0  0  0  0  0  0  0  0
   -4.8471   -2.2718    0.3978 H   0  0  0  0  0  0  0  0  0  0  0  0
   -6.3999    0.0461    0.2984 C   0  0  0  0  0  0  0  0  0  0  0  0
   -6.5063   -0.5693   -0.6133 H   0  0  0  0  0  0  0  0  0  0  0  0
   -7.1934   -0.2326    1.0203 H   0  0  0  0  0  0  0  0  0  0  0  0
   -6.5405    1.1113    0.0237 H   0  0  0  0  0  0  0  0  0  0  0  0
   -3.1191    0.6668    0.4714 H   0  0  0  0  0  0  0  0  0  0  0  0
  1 26  2  0  0  0  0
  2 10  1  0  0  0  0
  3  5  1  0  0  0  0
  4 40  1  0  0  0  0
  4 27  1  0  0  0  0
  5  2  1  0  0  0  0
  6  7  1  0  0  0  0
  6  2  1  0  0  0  0
  8  3  1  0  0  0  0
  8  6  2  0  0  0  0
  9  8  1  0  0  0  0
 10 11  1  0  0  0  0
 11 14  1  0  0  0  0
 11 12  1  0  0  0  0
 11 13  1  0  0  0  0
 15 18  1  0  0  0  0
 15 10  1  0  0  0  0
 15 17  1  0  0  0  0
 16 15  1  0  0  0  0
 19 20  1  0  0  0  0
 19 10  1  0  0  0  0
 19 21  1  0  0  0  0
 22 19  1  0  0  0  0
 23  3  1  0  0  0  0
 23 26  1  0  0  0  0
 24 23  1  0  0  0  0
 25 23  1  0  0  0  0
 26  4  1  0  0  0  0
 27 32  1  0  0  0  0
 27 28  1  0  0  0  0
 28 31  1  0  0  0  0
 28 30  1  0  0  0  0
 29 28  1  0  0  0  0
 32 33  1  0  0  0  0
 32 34  1  0  0  0  0
 35 32  1  0  0  0  0
 36 27  1  0  0  0  0
 36 38  1  0  0  0  0
 37 36  1  0  0  0  0
 39 36  1  0  0  0  0
M  END
