6
q = 0.0, confidence = 1.0

 54 56  0  0  0  0  0  0  0  0999 V2000
   -0.0452    0.1982    1.6695 N   0  0  0  0  0  0  0  0  0  0  0  0
    1.6458   -0.9697    1.0034 N   0  0  0  0  0  0  0  0  0  0  0  0
   -2.8752    0.4427    0.4045 N   0  0  0  0  0  0  0  0  0  0  0  0
   -2.2993    0.8650   -0.3324 H   0  0  0  0  0  0  0  0  0  0  0  0
   -3.1041    0.2821    2.6971 O   0  0  0  0  0  0  0  0  0  0  0  0
    1.0287    0.2415    0.8107 C   0  0  0  0  0  2  0  0  0  0  0  0
   -0.0884   -0.9960    2.3804 C   0  0  0  0  0  0  0  0  0  0  0  0
   -0.8839   -1.1983    3.1038 H   0  0  0  0  0  0  0  0  0  0  0  0
    0.9797   -1.7364    1.9574 C   0  0  0  0  0  0  0  0  0  0  0  0
    1.3306   -2.7335    2.2368 H   0  0  0  0  0  0  0  0  0  0  0  0
    2.8160   -1.4404    0.3169 C   0  0  0  0  0  0  0  0  0  0  0  0
    4.0805   -1.2257    0.9053 C   0  0  0  0  0  0  0  0  0  0  0  0
    5.2052   -1.7080    0.2166 C   0  0  0  0  0  0  0  0  0  0  0  0
    6.2035   -1.5401    0.6510 H   0  0  0  0  0  0  0  0  0  0  0  0
    5.0922   -2.3800   -1.0150 C   0  0  0  0  0  0  0  0  0  0  0  0
    3.8081   -2.5838   -1.5539 C   0  0  0  0  0  0  0  0  0  0  0  0
    3.7030   -3.1096   -2.5162 H   0  0  0  0  0  0  0  0  0  0  0  0
    2.6496   -2.1234   -0.9069 C   0  0  0  0  0  0  0  0  0  0  0  0
    4.2101   -0.4578    2.1938 C   0  0  0  0  0  0  0  0  0  0  0  0
    3.8628    0.5887    2.0626 H   0  0  0  0  0  0  0  0  0  0  0  0
    5.2610   -0.4296    2.5370 H   0  0  0  0  0  0  0  0  0  0  0  0
    3.5929   -0.8967    3.0045 H   0  0  0  0  0  0  0  0  0  0  0  0
    6.3212   -2.8313   -1.7612 C   0  0  0  0  0  0  0  0  0  0  0  0
    6.1154   -3.7162   -2.3947 H   0  0  0  0  0  0  0  0  0  0  0  0
    6.6831   -2.0236   -2.4332 H   0  0  0  0  0  0  0  0  0  0  0  0
    7.1520   -3.0798   -1.0722 H   0  0  0  0  0  0  0  0  0  0  0  0
    1.2822   -2.3001   -1.5120 C   0  0  0  0  0  0  0  0  0  0  0  0
    0.5615   -2.7386   -0.7914 H   0  0  0  0  0  0  0  0  0  0  0  0
    1.3217   -2.9538   -2.4032 H   0  0  0  0  0  0  0  0  0  0  0  0
    0.8620   -1.3208   -1.8240 H   0  0  0  0  0  0  0  0  0  0  0  0
   -1.0611    1.2360    1.8322 C   0  0  0  0  0  0  0  0  0  0  0  0
   -0.8419    2.0144    1.0762 H   0  0  0  0  0  0  0  0  0  0  0  0
   -0.9843    1.6795    2.8433 H   0  0  0  0  0  0  0  0  0  0  0  0
   -2.4685    0.6221    1.7014 C   0  0  0  0  0  0  0  0  0  0  0  0
   -4.1025   -0.1383   -0.0211 C   0  0  0  0  0  0  0  0  0  0  0  0
   -4.9111    0.6145   -0.9114 C   0  0  0  0  0  0  0  0  0  0  0  0
   -6.1136    0.0516   -1.3637 C   0  0  0  0  0  0  0  0  0  0  0  0
   -6.7449    0.6365   -2.0523 H   0  0  0  0  0  0  0  0  0  0  0  0
   -6.5368   -1.2278   -0.9540 C   0  0  0  0  0  0  0  0  0  0  0  0
   -5.7005   -1.9529   -0.0895 C   0  0  0  0  0  0  0  0  0  0  0  0
   -5.9986   -2.9676    0.2205 H   0  0  0  0  0  0  0  0  0  0  0  0
   -4.4753   -1.4430    0.3814 C   0  0  0  0  0  0  0  0  0  0  0  0
   -4.4781    1.9888   -1.3557 C   0  0  0  0  0  0  0  0  0  0  0  0
   -4.2758    2.6500   -0.4872 H   0  0  0  0  0  0  0  0  0  0  0  0
   -5.2549    2.4688   -1.9801 H   0  0  0  0  0  0  0  0  0  0  0  0
   -3.5422    1.9549   -1.9542 H   0  0  0  0  0  0  0  0  0  0  0  0
   -7.8540   -1.7909   -1.4257 C   0  0  0  0  0  0  0  0  0  0  0  0
   -8.7057   -1.3081   -0.9000 H   0  0  0  0  0  0  0  0  0  0  0  0
   -7.9241   -2.8799   -1.2378 H   0  0  0  0  0  0  0  0  0  0  0  0
   -8.0069   -1.6176   -2.5103 H   0  0  0  0  0  0  0  0  0  0  0  0
   -3.5864   -2.2849    1.2547 C   0  0  0  0  0  0  0  0  0  0  0  0
   -2.5254   -2.2076    0.9376 H   0  0  0  0  0  0  0  0  0  0  0  0
   -3.8865   -3.3494    1.2202 H   0  0  0  0  0  0  0  0  0  0  0  0
   -3.6264   -1.9295    2.3052 H   0  0  0  0  0  0  0  0  0  0  0  0
  1 31  1  0  0  0  0
  1  7  1  0  0  0  0
  2  9  1  0  0  0  0
  3 34  1  0  0  0  0
  4  3  1  0  0  0  0
  6  2  1  0  0  0  0
  6  1  1  0  0  0  0
  7  8  1  0  0  0  0
  9 10  1  0  0  0  0
  9  7  2  0  0  0  0
 11 12  1  0  0  0  0
 11  2  1  0  0  0  0
 12 19  1  0  0  0  0
 13 14  1  0  0  0  0
 13 12  2  0  0  0  0
 15 13  1  0  0  0  0
 16 15  2  0  0  0  0
 16 18  1  0  0  0  0
 17 16  1  0  0  0  0
 18 11  2  0  0  0  0
 19 21  1  0  0  0  0
 19 22  1  0  0  0  0
 20 19  1  0  0  0  0
 23 26  1  0  0  0  0
 23 15  1  0  0  0  0
 24 23  1  0  0  0  0
 25 23  1  0  0  0  0
 27 18  1  0  0  0  0
 27 28  1  0  0  0  0
 29 27  1  0  0  0  0
 30 27  1  0  0  0  0
 31 33  1  0  0  0  0
 32 31  1  0  0  0  0
 34 31  1  0  0  0  0
 34  5  2  0  0  0  0
 35 42  1  0  0  0  0
 35  3  1  0  0  0  0
 36 35  2  0  0  0  0
 37 39  2  0  0  0  0
 37 36  1  0  0  0  0
 38 37  1  0  0  0  0
 39 40  1  0  0  0  0
 40 41  1  0  0  0  0
 40 42  2  0  0  0  0
 42 51  1  0  0  0  0
 43 36  1  0  0  0  0
 43 44  1  0  0  0  0
 45 43  1  0  0  0  0
 46 43  1  0  0  0  0
 47 49  1  0  0  0  0
 47 39  1  0  0  0  0
 47 48  1  0  0  0  0
 50 47  1  0  0  0  0
 51 54  1  0  0  0  0
 52 51  1  0  0  0  0
 53 51  1  0  0  0  0
M  END
