1
q = 0.0, confidence = 0.63

 38 41  0  0  1  0  0  0  0  0999 V2000
   -2.3650    0.4545   -0.8158 C   0  0  2  0  0  3  0  0  0  0  0  0
   -3.3819    2.4441    1.2647 C   0  0  0  0  0  0  0  0  0  0  0  0
   -2.9547    3.6269    1.8921 C   0  0  0  0  0  0  0  0  0  0  0  0
   -1.8817    3.7677    2.0976 H   0  0  0  0  0  0  0  0  0  0  0  0
   -3.8961    4.6126    2.2266 C   0  0  0  0  0  0  0  0  0  0  0  0
   -3.5655    5.5403    2.7178 H   0  0  0  0  0  0  0  0  0  0  0  0
   -5.2538    4.4213    1.9244 C   0  0  0  0  0  0  0  0  0  0  0  0
   -5.9888    5.1993    2.1812 H   0  0  0  0  0  0  0  0  0  0  0  0
   -5.6758    3.2441    1.2821 C   0  0  0  0  0  0  0  0  0  0  0  0
   -6.7378    3.1016    1.0312 H   0  0  0  0  0  0  0  0  0  0  0  0
   -4.7422    2.2536    0.9498 C   0  0  0  0  0  0  0  0  0  0  0  0
   -5.0633    1.3377    0.4283 H   0  0  0  0  0  0  0  0  0  0  0  0
   -2.6897   -0.3593    1.7508 C   0  0  0  0  0  0  0  0  0  0  0  0
   -2.6803   -0.4462    3.1501 C   0  0  0  0  0  0  0  0  0  0  0  0
   -2.4068    0.4330    3.7534 H   0  0  0  0  0  0  0  0  0  0  0  0
   -3.0021   -1.6667    3.7650 C   0  0  0  0  0  0  0  0  0  0  0  0
   -2.9935   -1.7435    4.8627 H   0  0  0  0  0  0  0  0  0  0  0  0
   -3.3172   -2.7954    2.9881 C   0  0  0  0  0  0  0  0  0  0  0  0
   -3.5524   -3.7511    3.4800 H   0  0  0  0  0  0  0  0  0  0  0  0
   -3.3201   -2.7151    1.5861 C   0  0  0  0  0  0  0  0  0  0  0  0
   -3.5493   -3.5997    0.9725 H   0  0  0  0  0  0  0  0  0  0  0  0
   -3.0151   -1.4925    0.9686 C   0  0  0  0  0  0  0  0  0  0  0  0
   -4.5986   -1.5053   -1.5060 C   0  0  0  0  0  0  0  0  0  0  0  0
   -5.7405   -1.3491   -0.6918 C   0  0  0  0  0  0  0  0  0  0  0  0
   -5.6280   -1.1542    0.3860 H   0  0  0  0  0  0  0  0  0  0  0  0
   -7.0188   -1.4572   -1.2573 C   0  0  0  0  0  0  0  0  0  0  0  0
   -7.9095   -1.3443   -0.6205 H   0  0  0  0  0  0  0  0  0  0  0  0
   -7.1622   -1.7146   -2.6313 C   0  0  0  0  0  0  0  0  0  0  0  0
   -8.1672   -1.7987   -3.0720 H   0  0  0  0  0  0  0  0  0  0  0  0
   -6.0253   -1.8694   -3.4408 C   0  0  0  0  0  0  0  0  0  0  0  0
   -6.1371   -2.0729   -4.5165 H   0  0  0  0  0  0  0  0  0  0  0  0
   -4.7428   -1.7679   -2.8824 C   0  0  0  0  0  0  0  0  0  0  0  0
   -3.8404   -1.8951   -3.5007 H   0  0  0  0  0  0  0  0  0  0  0  0
   -2.1943    1.1354    0.8025 P   0  0  1  0  0  4  0  0  0  0  0  0
   -2.9217   -1.2288   -0.8416 P   0  0  1  0  0  4  0  0  0  0  0  0
   -1.7921    1.2865   -2.2598 S   0  0  0  0  0  1  0  0  0  0  0  0
   -0.2815    1.7576    1.0283 S   0  0  0  0  0  1  0  0  0  0  0  0
   -1.4977   -2.2588   -1.8382 S   0  0  0  0  0  1  0  0  0  0  0  0
  1 36  1  1  0  0  0
  1 34  1  0  0  0  0
  2  3  1  0  0  0  0
  3  4  1  0  0  0  0
  3  5  2  0  0  0  0
  5  6  1  0  0  0  0
  7  8  1  0  0  0  0
  7  5  1  0  0  0  0
  9  7  2  0  0  0  0
 10  9  1  0  0  0  0
 11  2  2  0  0  0  0
 11  9  1  0  0  0  0
 12 11  1  0  0  0  0
 13 14  1  0  0  0  0
 14 15  1  0  0  0  0
 14 16  2  0  0  0  0
 16 17  1  0  0  0  0
 18 19  1  0  0  0  0
 18 16  1  0  0  0  0
 20 18  2  0  0  0  0
 21 20  1  0  0  0  0
 22 20  1  0  0  0  0
 22 13  2  0  0  0  0
 23 35  1  0  0  0  0
 23 24  1  0  0  0  0
 24 25  1  0  0  0  0
 26 24  2  0  0  0  0
 26 27  1  0  0  0  0
 28 26  1  0  0  0  0
 29 28  1  0  0  0  0
 30 32  1  0  0  0  0
 30 28  2  0  0  0  0
 31 30  1  0  0  0  0
 32 23  2  0  0  0  0
 33 32  1  0  0  0  0
 34 37  1  1  0  0  0
 34  2  1  0  0  0  0
 34 13  1  0  0  0  0
 35 38  1  6  0  0  0
 35  1  1  0  0  0  0
 35 22  1  0  0  0  0
M  END
