2
q = 0.0, confidence = 0.98

 27 26  0  0  0  0  0  0  0  0999 V2000
   -1.3376   -1.0251   -1.0742 N   0  0  0  0  0  2  0  0  0  0  0  0
   -0.2398   -1.0689   -0.6423 C   0  0  0  0  0  1  0  0  0  0  0  0
   -2.6834   -0.9329   -1.5104 C   0  0  0  0  0  0  0  0  0  0  0  0
   -3.0250   -1.9534   -1.7893 H   0  0  0  0  0  0  0  0  0  0  0  0
   -2.7014   -0.3254   -2.4413 H   0  0  0  0  0  0  0  0  0  0  0  0
   -3.6097   -0.3232   -0.4483 C   0  0  0  0  0  0  0  0  0  0  0  0
   -3.2292    0.6843   -0.1767 H   0  0  0  0  0  0  0  0  0  0  0  0
   -3.5526   -0.9402    0.4735 H   0  0  0  0  0  0  0  0  0  0  0  0
   -5.0570   -0.2305   -0.9362 C   0  0  0  0  0  0  0  0  0  0  0  0
   -5.4189   -1.2439   -1.2217 H   0  0  0  0  0  0  0  0  0  0  0  0
   -5.0972    0.3775   -1.8681 H   0  0  0  0  0  0  0  0  0  0  0  0
   -6.0063    0.3722    0.1032 C   0  0  0  0  0  0  0  0  0  0  0  0
   -5.6424    1.3844    0.3898 H   0  0  0  0  0  0  0  0  0  0  0  0
   -5.9640   -0.2354    1.0350 H   0  0  0  0  0  0  0  0  0  0  0  0
   -7.4572    0.4698   -0.3748 C   0  0  0  0  0  0  0  0  0  0  0  0
   -7.4974    1.0773   -1.3073 H   0  0  0  0  0  0  0  0  0  0  0  0
   -7.8186   -0.5433   -0.6633 H   0  0  0  0  0  0  0  0  0  0  0  0
   -8.4091    1.0706    0.6626 C   0  0  0  0  0  0  0  0  0  0  0  0
   -8.0467    2.0834    0.9517 H   0  0  0  0  0  0  0  0  0  0  0  0
   -8.3680    0.4631    1.5952 H   0  0  0  0  0  0  0  0  0  0  0  0
   -9.8617    1.1697    0.1869 C   0  0  0  0  0  0  0  0  0  0  0  0
  -10.2193    0.1564   -0.1029 H   0  0  0  0  0  0  0  0  0  0  0  0
   -9.8984    1.7762   -0.7455 H   0  0  0  0  0  0  0  0  0  0  0  0
  -10.8046    1.7704    1.2299 C   0  0  0  0  0  0  0  0  0  0  0  0
  -10.8161    1.1641    2.1598 H   0  0  0  0  0  0  0  0  0  0  0  0
  -11.8468    1.8291    0.8568 H   0  0  0  0  0  0  0  0  0  0  0  0
  -10.4922    2.7977    1.5118 H   0  0  0  0  0  0  0  0  0  0  0  0
  1  2  1  0  0  0  0
  3  1  1  0  0  0  0
  3  6  1  0  0  0  0
  4  3  1  0  0  0  0
  5  3  1  0  0  0  0
  6  7  1  0  0  0  0
  6  8  1  0  0  0  0
  9  6  1  0  0  0  0
  9 12  1  0  0  0  0
 10  9  1  0  0  0  0
 11  9  1  0  0  0  0
 12 13  1  0  0  0  0
 12 14  1  0  0  0  0
 15 12  1  0  0  0  0
 15 18  1  0  0  0  0
 16 15  1  0  0  0  0
 17 15  1  0  0  0  0
 18 19  1  0  0  0  0
 18 20  1  0  0  0  0
 21 18  1  0  0  0  0
 21 24  1  0  0  0  0
 22 21  1  0  0  0  0
 23 21  1  0  0  0  0
 24 27  1  0  0  0  0
 24 25  1  0  0  0  0
 26 24  1  0  0  0  0
M  END
