3
q = -1.0, confidence = 0.002

 21 22  0  0  0  0  0  0  0  0999 V2000
    1.1948   -0.3660   -0.0029 N   0  0  0  0  0  0  0  0  0  0  0  0
    2.4364   -2.8663   -0.0059 N   0  0  0  0  0  0  0  0  0  0  0  0
    0.4377   -1.4845   -0.0036 C   0  0  0  0  0  3  0  0  0  0  0  0
    1.0996   -2.7451   -0.0056 C   0  0  0  0  0  0  0  0  0  0  0  0
    0.5176   -3.6827   -0.0067 H   0  0  0  0  0  0  0  0  0  0  0  0
    3.1717   -1.7293   -0.0044 C   0  0  0  0  0  0  0  0  0  0  0  0
    4.5952   -1.7903   -0.0041 C   0  0  0  0  0  0  0  0  0  0  0  0
    5.0458   -2.7950   -0.0054 H   0  0  0  0  0  0  0  0  0  0  0  0
    5.3901   -0.6512   -0.0023 C   0  0  0  0  0  0  0  0  0  0  0  0
    4.7578    0.6508   -0.0008 C   0  0  0  0  0  0  0  0  0  0  0  0
    3.3722    0.7458   -0.0011 C   0  0  0  0  0  0  0  0  0  0  0  0
    2.8859    1.7307    0.0000 H   0  0  0  0  0  0  0  0  0  0  0  0
    2.5461   -0.4155   -0.0027 C   0  0  0  0  0  0  0  0  0  0  0  0
    6.8930   -0.7588   -0.0020 C   0  0  0  0  0  0  0  0  0  0  0  0
    7.2182   -1.8166   -0.0033 H   0  0  0  0  0  0  0  0  0  0  0  0
    7.3434   -0.2672    0.8872 H   0  0  0  0  0  0  0  0  0  0  0  0
    7.3440   -0.2648   -0.8896 H   0  0  0  0  0  0  0  0  0  0  0  0
    5.6069    1.8951    0.0013 C   0  0  0  0  0  0  0  0  0  0  0  0
    4.9840    2.8101    0.0023 H   0  0  0  0  0  0  0  0  0  0  0  0
    6.2743    1.9377   -0.8860 H   0  0  0  0  0  0  0  0  0  0  0  0
    6.2736    1.9352    0.8893 H   0  0  0  0  0  0  0  0  0  0  0  0
  1 13  1  0  0  0  0
  2  4  2  0  0  0  0
  2  6  1  0  0  0  0
  3  1  2  0  0  0  0
  4  3  1  0  0  0  0
  5  4  1  0  0  0  0
  6  7  2  0  0  0  0
  6 13  1  0  0  0  0
  7  9  1  0  0  0  0
  8  7  1  0  0  0  0
  9 14  1  0  0  0  0
  9 10  2  0  0  0  0
 10 18  1  0  0  0  0
 11 10  1  0  0  0  0
 11 12  1  0  0  0  0
 13 11  2  0  0  0  0
 14 16  1  0  0  0  0
 15 14  1  0  0  0  0
 17 14  1  0  0  0  0
 18 19  1  0  0  0  0
 18 21  1  0  0  0  0
 20 18  1  0  0  0  0
M  END
