1
q = -1.0, confidence = 0.0

 25 28  0  0  0  0  0  0  0  0999 V2000
    1.7940    1.1647   -0.0171 C   0  0  0  0  0  3  0  0  0  0  0  0
    2.1528    2.5321   -0.0207 C   0  0  0  0  0  0  0  0  0  0  0  0
    1.3622    3.2990   -0.0265 H   0  0  0  0  0  0  0  0  0  0  0  0
    3.4889    2.9524   -0.0173 C   0  0  0  0  0  0  0  0  0  0  0  0
    3.7311    4.0275   -0.0203 H   0  0  0  0  0  0  0  0  0  0  0  0
    4.5444    2.0153   -0.0098 C   0  0  0  0  0  0  0  0  0  0  0  0
    5.9268    2.4117   -0.0052 C   0  0  0  0  0  0  0  0  0  0  0  0
    6.1602    3.4882   -0.0077 H   0  0  0  0  0  0  0  0  0  0  0  0
    6.9376    1.4814    0.0020 C   0  0  0  0  0  0  0  0  0  0  0  0
    7.9916    1.8010    0.0055 H   0  0  0  0  0  0  0  0  0  0  0  0
    6.6512    0.0711    0.0052 C   0  0  0  0  0  0  0  0  0  0  0  0
    5.2770   -0.3541    0.0006 C   0  0  0  0  0  0  0  0  0  0  0  0
    4.2217    0.6153   -0.0066 C   0  0  0  0  0  0  0  0  0  0  0  0
    2.8435    0.1962   -0.0110 C   0  0  0  0  0  0  0  0  0  0  0  0
    2.5790   -1.2207   -0.0094 C   0  0  0  0  0  0  0  0  0  0  0  0
    1.5231   -1.5380   -0.0163 H   0  0  0  0  0  0  0  0  0  0  0  0
    3.5865   -2.1540   -0.0026 C   0  0  0  0  0  0  0  0  0  0  0  0
    3.3500   -3.2298   -0.0029 H   0  0  0  0  0  0  0  0  0  0  0  0
    4.9691   -1.7580    0.0031 C   0  0  0  0  0  0  0  0  0  0  0  0
    6.0268   -2.6958    0.0100 C   0  0  0  0  0  0  0  0  0  0  0  0
    5.7855   -3.7704    0.0115 H   0  0  0  0  0  0  0  0  0  0  0  0
    7.3621   -2.2713    0.0147 C   0  0  0  0  0  0  0  0  0  0  0  0
    8.1725   -3.0163    0.0201 H   0  0  0  0  0  0  0  0  0  0  0  0
    7.6736   -0.9050    0.0123 C   0  0  0  0  0  0  0  0  0  0  0  0
    8.7243   -0.5751    0.0159 H   0  0  0  0  0  0  0  0  0  0  0  0
  1 14  1  0  0  0  0
  2  4  1  0  0  0  0
  2  1  2  0  0  0  0
  3  2  1  0  0  0  0
  4  6  2  0  0  0  0
  5  4  1  0  0  0  0
  6 13  1  0  0  0  0
  6  7  1  0  0  0  0
  7  9  2  0  0  0  0
  8  7  1  0  0  0  0
  9 11  1  0  0  0  0
  9 10  1  0  0  0  0
 11 24  1  0  0  0  0
 12 19  1  0  0  0  0
 12 11  2  0  0  0  0
 13 12  1  0  0  0  0
 14 15  1  0  0  0  0
 14 13  2  0  0  0  0
 15 17  2  0  0  0  0
 16 15  1  0  0  0  0
 17 19  1  0  0  0  0
 18 17  1  0  0  0  0
 19 20  2  0  0  0  0
 20 21  1  0  0  0  0
 20 22  1  0  0  0  0
 22 23  1  0  0  0  0
 24 22  2  0  0  0  0
 24 25  1  0  0  0  0
M  END
