3
q = 0.0, confidence = 0.988

 27 28  0  0  0  0  0  0  0  0999 V2000
   -1.2825    1.3163   -0.8052 N   0  0  0  0  0  0  0  0  0  0  0  0
    0.2355    2.4197    0.2689 N   0  0  0  0  0  0  0  0  0  0  0  0
   -0.0416    1.1812   -0.2461 C   0  0  0  0  0  2  0  0  0  0  0  0
   -1.7729    2.6025   -0.6302 C   0  0  0  0  0  0  0  0  0  0  0  0
   -2.7559    2.9084   -0.9999 H   0  0  0  0  0  0  0  0  0  0  0  0
   -0.8098    3.3047    0.0460 C   0  0  0  0  0  0  0  0  0  0  0  0
   -0.7639    4.3511    0.3614 H   0  0  0  0  0  0  0  0  0  0  0  0
    1.4647    2.7294    1.0084 C   0  0  0  0  0  0  0  0  0  0  0  0
    1.2568    2.6770    2.1001 H   0  0  0  0  0  0  0  0  0  0  0  0
    2.1785    1.9075    0.7811 H   0  0  0  0  0  0  0  0  0  0  0  0
    2.0245    4.0315    0.6644 C   0  0  0  0  0  0  0  0  0  0  0  0
    2.4904    5.1286    0.3981 C   0  0  0  0  0  0  0  0  0  0  0  0
    2.9162    6.0924    0.1543 H   0  0  0  0  0  0  0  0  0  0  0  0
   -2.0289    0.2189   -1.4331 C   0  0  0  0  0  0  0  0  0  0  0  0
   -1.2767   -0.5556   -1.6825 H   0  0  0  0  0  0  0  0  0  0  0  0
   -2.4639    0.5981   -2.3788 H   0  0  0  0  0  0  0  0  0  0  0  0
   -3.1072   -0.3381   -0.5282 C   0  0  0  0  0  0  0  0  0  0  0  0
   -4.4655   -0.0692   -0.7775 C   0  0  0  0  0  0  0  0  0  0  0  0
   -4.7498    0.5300   -1.6579 H   0  0  0  0  0  0  0  0  0  0  0  0
   -5.4594   -0.5682    0.0796 C   0  0  0  0  0  0  0  0  0  0  0  0
   -6.5192   -0.3558   -0.1273 H   0  0  0  0  0  0  0  0  0  0  0  0
   -5.0992   -1.3391    1.1950 C   0  0  0  0  0  0  0  0  0  0  0  0
   -5.8767   -1.7328    1.8672 H   0  0  0  0  0  0  0  0  0  0  0  0
   -3.7444   -1.6131    1.4487 C   0  0  0  0  0  0  0  0  0  0  0  0
   -3.4579   -2.2247    2.3174 H   0  0  0  0  0  0  0  0  0  0  0  0
   -2.7527   -1.1167    0.5921 C   0  0  0  0  0  0  0  0  0  0  0  0
   -1.6891   -1.3337    0.7866 H   0  0  0  0  0  0  0  0  0  0  0  0
  1  4  1  0  0  0  0
  1  3  1  0  0  0  0
  2  8  1  0  0  0  0
  3  2  1  0  0  0  0
  4  6  2  0  0  0  0
  5  4  1  0  0  0  0
  6  2  1  0  0  0  0
  6  7  1  0  0  0  0
  8  9  1  0  0  0  0
 10  8  1  0  0  0  0
 11  8  1  0  0  0  0
 12 11  3  0  0  0  0
 13 12  1  0  0  0  0
 14  1  1  0  0  0  0
 14 17  1  0  0  0  0
 15 14  1  0  0  0  0
 16 14  1  0  0  0  0
 17 26  1  0  0  0  0
 18 17  2  0  0  0  0
 18 20  1  0  0  0  0
 19 18  1  0  0  0  0
 20 22  2  0  0  0  0
 21 20  1  0  0  0  0
 22 24  1  0  0  0  0
 22 23  1  0  0  0  0
 24 25  1  0  0  0  0
 26 27  1  0  0  0  0
 26 24  2  0  0  0  0
M  END
