3
q = 0.0, confidence = 0.95

 19 19  0  0  0  0  0  0  0  0999 V2000
   -2.0286   -1.0493    0.2546 N   0  0  0  0  0  0  0  0  0  0  0  0
   -2.0288    1.0491   -0.2544 N   0  0  0  0  0  0  0  0  0  0  0  0
   -1.1872   -0.0001    0.0000 C   0  0  0  0  0  2  0  0  0  0  0  0
   -3.3596   -0.6655    0.1631 C   0  0  0  0  0  0  0  0  0  0  0  0
   -4.1806   -1.3703    0.3232 H   0  0  0  0  0  0  0  0  0  0  0  0
   -3.3597    0.6652   -0.1630 C   0  0  0  0  0  0  0  0  0  0  0  0
   -4.1807    1.3699   -0.3232 H   0  0  0  0  0  0  0  0  0  0  0  0
   -1.5571    2.3839   -0.6439 C   0  0  0  0  0  0  0  0  0  0  0  0
   -2.3147    3.4602   -0.0159 C   0  0  0  0  0  0  0  0  0  0  0  0
   -2.9552    4.3690    0.4891 C   0  0  0  0  0  0  0  0  0  0  0  0
   -3.5088    5.1781    0.9459 H   0  0  0  0  0  0  0  0  0  0  0  0
   -1.5569   -2.3840    0.6441 C   0  0  0  0  0  0  0  0  0  0  0  0
   -2.3141   -3.4605    0.0158 C   0  0  0  0  0  0  0  0  0  0  0  0
   -2.9544   -4.3693   -0.4894 C   0  0  0  0  0  0  0  0  0  0  0  0
   -0.4820    2.4269   -0.3637 H   0  0  0  0  0  0  0  0  0  0  0  0
   -1.6019    2.4773   -1.7516 H   0  0  0  0  0  0  0  0  0  0  0  0
   -3.5078   -5.1785   -0.9464 H   0  0  0  0  0  0  0  0  0  0  0  0
   -1.6020   -2.4776    1.7517 H   0  0  0  0  0  0  0  0  0  0  0  0
   -0.4816   -2.4268    0.3641 H   0  0  0  0  0  0  0  0  0  0  0  0
  1 12  1  0  0  0  0
  2  6  1  0  0  0  0
  2  3  1  0  0  0  0
  3  1  1  0  0  0  0
  4  1  1  0  0  0  0
  4  5  1  0  0  0  0
  6  4  2  0  0  0  0
  7  6  1  0  0  0  0
  8 15  1  0  0  0  0
  8  2  1  0  0  0  0
  8  9  1  0  0  0  0
  9 10  3  0  0  0  0
 10 11  1  0  0  0  0
 12 18  1  0  0  0  0
 13 12  1  0  0  0  0
 14 13  3  0  0  0  0
 16  8  1  0  0  0  0
 17 14  1  0  0  0  0
 19 12  1  0  0  0  0
M  END
