8
q = 0.0, confidence = 0.984

 23 24  0  0  0  0  0  0  0  0999 V2000
   -3.4796   -0.6260    0.0953 C   0  0  0  0  0  0  0  0  0  0  0  0
   -3.1885    0.4059    1.0043 C   0  0  0  0  0  0  0  0  0  0  0  0
   -2.2817    0.3745    1.6247 H   0  0  0  0  0  0  0  0  0  0  0  0
   -4.6025   -0.7085   -0.6165 N   0  0  0  0  0  0  0  0  0  0  0  0
   -2.5697   -1.7216   -0.0944 N   0  0  0  0  0  0  0  0  0  0  0  0
   -3.0046   -3.0220   -0.3304 C   0  0  0  0  0  0  0  0  0  0  0  0
   -4.0698   -3.2610   -0.3865 H   0  0  0  0  0  0  0  0  0  0  0  0
   -1.1998   -1.6511   -0.0955 C   0  0  0  0  0  2  0  0  0  0  0  0
   -1.8800   -3.7914   -0.4533 C   0  0  0  0  0  0  0  0  0  0  0  0
   -1.7564   -4.8671   -0.6101 H   0  0  0  0  0  0  0  0  0  0  0  0
   -4.1235    1.4453    1.1119 C   0  0  0  0  0  0  0  0  0  0  0  0
   -3.9474    2.2765    1.8112 H   0  0  0  0  0  0  0  0  0  0  0  0
    0.9503   -4.4376    0.5013 C   0  0  0  0  0  0  0  0  0  0  0  0
    1.2386   -5.3542    1.2542 C   0  0  0  0  0  0  0  0  0  0  0  0
    1.4971   -6.1631    1.9259 H   0  0  0  0  0  0  0  0  0  0  0  0
   -5.4983    0.2829   -0.4900 C   0  0  0  0  0  0  0  0  0  0  0  0
   -6.4217    0.1848   -1.0853 H   0  0  0  0  0  0  0  0  0  0  0  0
   -0.7959   -2.9354   -0.3084 N   0  0  0  0  0  0  0  0  0  0  0  0
   -5.2963    1.3946    0.3440 C   0  0  0  0  0  0  0  0  0  0  0  0
   -6.0540    2.1887    0.4060 H   0  0  0  0  0  0  0  0  0  0  0  0
    0.6097   -3.3568   -0.4161 C   0  0  0  0  0  0  0  0  0  0  0  0
    1.2256   -2.4546   -0.2152 H   0  0  0  0  0  0  0  0  0  0  0  0
    0.8071   -3.6621   -1.4673 H   0  0  0  0  0  0  0  0  0  0  0  0
  1  2  1  0  0  0  0
  2 11  2  0  0  0  0
  2  3  1  0  0  0  0
  4 16  1  0  0  0  0
  4  1  2  0  0  0  0
  5  1  1  0  0  0  0
  6  5  1  0  0  0  0
  7  6  1  0  0  0  0
  8  5  1  0  0  0  0
  9  6  2  0  0  0  0
  9 18  1  0  0  0  0
 10  9  1  0  0  0  0
 11 12  1  0  0  0  0
 13 14  3  0  0  0  0
 14 15  1  0  0  0  0
 16 19  2  0  0  0  0
 17 16  1  0  0  0  0
 18  8  1  0  0  0  0
 19 20  1  0  0  0  0
 19 11  1  0  0  0  0
 21 18  1  0  0  0  0
 21 22  1  0  0  0  0
 21 13  1  0  0  0  0
 23 21  1  0  0  0  0
M  END
