1
q = 0.0, confidence = 0.99

 73 75  0  0  0  0  0  0  0  0999 V2000
   -0.9587    0.3228    0.1801 C   0  0  0  0  0  2  0  0  0  0  0  0
   -0.5135    1.5901    0.4369 N   0  0  0  0  0  0  0  0  0  0  0  0
    0.8358    1.5900    0.7608 C   0  0  0  0  0  0  0  0  0  0  0  0
    1.4177    2.4930    0.9671 H   0  0  0  0  0  0  0  0  0  0  0  0
    1.2625    0.2835    0.7175 C   0  0  0  0  0  0  0  0  0  0  0  0
    0.1459   -0.4739    0.3492 N   0  0  0  0  0  0  0  0  0  0  0  0
    2.6101   -0.3075    0.9657 C   0  0  0  0  0  0  0  0  0  0  0  0
    2.6688   -1.3409    0.5697 H   0  0  0  0  0  0  0  0  0  0  0  0
    2.8553   -0.3575    2.0483 H   0  0  0  0  0  0  0  0  0  0  0  0
    3.9209    0.6881    0.1779 P   0  0  0  0  0  0  0  0  0  0  0  0
    3.9619    2.1476    0.5478 O   0  0  0  0  0  0  0  0  0  0  0  0
    5.3096   -0.1241    0.5046 O   0  0  0  0  0  0  0  0  0  0  0  0
    6.2818    0.4645    1.4020 C   0  0  0  0  0  0  0  0  0  0  0  0
    7.2247   -0.0791    1.1929 H   0  0  0  0  0  0  0  0  0  0  0  0
    6.4227    1.5328    1.1356 H   0  0  0  0  0  0  0  0  0  0  0  0
    5.8719    0.3263    2.8582 C   0  0  0  0  0  0  0  0  0  0  0  0
    6.6805    0.6943    3.5216 H   0  0  0  0  0  0  0  0  0  0  0  0
    4.9670    0.9325    3.0665 H   0  0  0  0  0  0  0  0  0  0  0  0
    5.6669   -0.7320    3.1167 H   0  0  0  0  0  0  0  0  0  0  0  0
    3.6294    0.3297   -1.3859 O   0  0  0  0  0  0  0  0  0  0  0  0
    4.2685    1.1082   -2.4266 C   0  0  0  0  0  0  0  0  0  0  0  0
    3.5012    1.2280   -3.2183 H   0  0  0  0  0  0  0  0  0  0  0  0
    4.5046    2.1175   -2.0264 H   0  0  0  0  0  0  0  0  0  0  0  0
    5.5049    0.4024   -2.9541 C   0  0  0  0  0  0  0  0  0  0  0  0
    5.9582    0.9903   -3.7777 H   0  0  0  0  0  0  0  0  0  0  0  0
    6.2609    0.2772   -2.1544 H   0  0  0  0  0  0  0  0  0  0  0  0
    5.2466   -0.6018   -3.3448 H   0  0  0  0  0  0  0  0  0  0  0  0
   -1.3580    2.7854    0.3215 C   0  0  0  0  0  0  0  0  0  0  0  0
   -2.3816    2.3792    0.1676 H   0  0  0  0  0  0  0  0  0  0  0  0
   -1.3454    3.6207    1.6081 C   0  0  0  0  0  0  0  0  0  0  0  0
   -0.3072    3.9627    1.8169 H   0  0  0  0  0  0  0  0  0  0  0  0
   -1.6555    2.9852    2.4633 H   0  0  0  0  0  0  0  0  0  0  0  0
   -2.2637    4.8419    1.4655 C   0  0  0  0  0  0  0  0  0  0  0  0
   -3.3159    4.4945    1.3651 H   0  0  0  0  0  0  0  0  0  0  0  0
   -2.2239    5.4530    2.3906 H   0  0  0  0  0  0  0  0  0  0  0  0
   -1.8896    5.6872    0.2406 C   0  0  0  0  0  0  0  0  0  0  0  0
   -0.8760    6.1224    0.3921 H   0  0  0  0  0  0  0  0  0  0  0  0
   -2.5858    6.5451    0.1379 H   0  0  0  0  0  0  0  0  0  0  0  0
   -1.8909    4.8431   -1.0408 C   0  0  0  0  0  0  0  0  0  0  0  0
   -1.5815    5.4544   -1.9135 H   0  0  0  0  0  0  0  0  0  0  0  0
   -2.9271    4.4981   -1.2530 H   0  0  0  0  0  0  0  0  0  0  0  0
   -0.9754    3.6192   -0.9101 C   0  0  0  0  0  0  0  0  0  0  0  0
   -1.0352    2.9773   -1.8133 H   0  0  0  0  0  0  0  0  0  0  0  0
    0.0836    3.9484   -0.8124 H   0  0  0  0  0  0  0  0  0  0  0  0
    0.1390   -1.9040    0.1869 C   0  0  0  0  0  0  0  0  0  0  0  0
    0.5240   -2.4444   -1.0651 C   0  0  0  0  0  0  0  0  0  0  0  0
    0.5131   -3.8456   -1.1919 C   0  0  0  0  0  0  0  0  0  0  0  0
    0.7973   -4.3019   -2.1513 H   0  0  0  0  0  0  0  0  0  0  0  0
    0.1361   -4.6659   -0.1208 C   0  0  0  0  0  0  0  0  0  0  0  0
    0.1302   -5.7595   -0.2449 H   0  0  0  0  0  0  0  0  0  0  0  0
   -0.2395   -4.1015    1.1034 C   0  0  0  0  0  0  0  0  0  0  0  0
   -0.5419   -4.7553    1.9355 H   0  0  0  0  0  0  0  0  0  0  0  0
   -0.2456   -2.7059    1.2865 C   0  0  0  0  0  0  0  0  0  0  0  0
    0.8662   -1.5504   -2.2505 C   0  0  0  0  0  0  0  0  0  0  0  0
    1.1428   -0.5537   -1.8510 H   0  0  0  0  0  0  0  0  0  0  0  0
   -0.6706   -2.1053    2.6193 C   0  0  0  0  0  0  0  0  0  0  0  0
   -0.5928   -1.0028    2.5327 H   0  0  0  0  0  0  0  0  0  0  0  0
    2.0725   -2.0564   -3.0541 C   0  0  0  0  0  0  0  0  0  0  0  0
    2.3346   -1.3235   -3.8441 H   0  0  0  0  0  0  0  0  0  0  0  0
    1.8595   -3.0184   -3.5639 H   0  0  0  0  0  0  0  0  0  0  0  0
    2.9633   -2.1909   -2.4098 H   0  0  0  0  0  0  0  0  0  0  0  0
   -0.3739   -1.3695   -3.1464 C   0  0  0  0  0  0  0  0  0  0  0  0
   -0.1538   -0.6750   -3.9832 H   0  0  0  0  0  0  0  0  0  0  0  0
   -1.2318   -0.9636   -2.5718 H   0  0  0  0  0  0  0  0  0  0  0  0
   -0.6917   -2.3403   -3.5797 H   0  0  0  0  0  0  0  0  0  0  0  0
    0.2661   -2.5452    3.7573 C   0  0  0  0  0  0  0  0  0  0  0  0
   -0.0225   -2.0571    4.7104 H   0  0  0  0  0  0  0  0  0  0  0  0
    1.3215   -2.2802    3.5408 H   0  0  0  0  0  0  0  0  0  0  0  0
    0.2240   -3.6422    3.9187 H   0  0  0  0  0  0  0  0  0  0  0  0
   -2.1427   -2.4296    2.9247 C   0  0  0  0  0  0  0  0  0  0  0  0
   -2.4608   -1.9406    3.8680 H   0  0  0  0  0  0  0  0  0  0  0  0
   -2.3022   -3.5216    3.0401 H   0  0  0  0  0  0  0  0  0  0  0  0
   -2.8027   -2.0716    2.1084 H   0  0  0  0  0  0  0  0  0  0  0  0
  1  6  1  0  0  0  0
  1  2  1  0  0  0  0
  2  3  1  0  0  0  0
  3  4  1  0  0  0  0
  5  3  2  0  0  0  0
  5  7  1  0  0  0  0
  6  5  1  0  0  0  0
  7  9  1  0  0  0  0
  8  7  1  0  0  0  0
 10 12  1  0  0  0  0
 10 11  2  0  0  0  0
 10  7  1  0  0  0  0
 12 13  1  0  0  0  0
 13 16  1  0  0  0  0
 14 13  1  0  0  0  0
 15 13  1  0  0  0  0
 16 18  1  0  0  0  0
 16 19  1  0  0  0  0
 16 17  1  0  0  0  0
 20 10  1  0  0  0  0
 21 23  1  0  0  0  0
 21 20  1  0  0  0  0
 22 21  1  0  0  0  0
 24 21  1  0  0  0  0
 24 26  1  0  0  0  0
 25 24  1  0  0  0  0
 27 24  1  0  0  0  0
 28  2  1  0  0  0  0
 28 30  1  0  0  0  0
 29 28  1  0  0  0  0
 30 31  1  0  0  0  0
 30 32  1  0  0  0  0
 33 30  1  0  0  0  0
 33 35  1  0  0  0  0
 34 33  1  0  0  0  0
 36 37  1  0  0  0  0
 36 33  1  0  0  0  0
 38 36  1  0  0  0  0
 39 42  1  0  0  0  0
 39 36  1  0  0  0  0
 40 39  1  0  0  0  0
 41 39  1  0  0  0  0
 42 44  1  0  0  0  0
 42 28  1  0  0  0  0
 43 42  1  0  0  0  0
 45  6  1  0  0  0  0
 45 53  1  0  0  0  0
 46 45  2  0  0  0  0
 47 46  1  0  0  0  0
 47 49  2  0  0  0  0
 48 47  1  0  0  0  0
 49 51  1  0  0  0  0
 50 49  1  0  0  0  0
 51 53  2  0  0  0  0
 51 52  1  0  0  0  0
 53 56  1  0  0  0  0
 54 55  1  0  0  0  0
 54 46  1  0  0  0  0
 56 70  1  0  0  0  0
 56 66  1  0  0  0  0
 57 56  1  0  0  0  0
 58 61  1  0  0  0  0
 58 54  1  0  0  0  0
 59 58  1  0  0  0  0
 60 58  1  0  0  0  0
 62 64  1  0  0  0  0
 62 54  1  0  0  0  0
 63 62  1  0  0  0  0
 65 62  1  0  0  0  0
 66 69  1  0  0  0  0
 66 67  1  0  0  0  0
 68 66  1  0  0  0  0
 70 72  1  0  0  0  0
 70 71  1  0  0  0  0
 73 70  1  0  0  0  0
M  END
