6
q = 0.0, confidence = 1.0

 46 47  0  0  0  0  0  0  0  0999 V2000
   -6.3204   -1.3528    0.7020 O   0  0  0  0  0  0  0  0  0  0  0  0
   -6.2470    0.4766   -1.2267 O   0  0  0  0  0  0  0  0  0  0  0  0
   -3.8888    1.5451   -2.0850 O   0  0  0  0  0  0  0  0  0  0  0  0
   -0.6152   -0.3251    1.7081 N   0  0  0  0  0  0  0  0  0  0  0  0
    0.8596    1.1887    2.1861 N   0  0  0  0  0  0  0  0  0  0  0  0
    0.6029    0.1618    1.3160 C   0  0  0  0  0  2  0  0  0  0  0  0
   -1.1192    0.3944    2.7855 C   0  0  0  0  0  0  0  0  0  0  0  0
   -2.0951    0.1707    3.2258 H   0  0  0  0  0  0  0  0  0  0  0  0
   -0.1872    1.3521    3.0863 C   0  0  0  0  0  0  0  0  0  0  0  0
   -0.1778    2.1267    3.8588 H   0  0  0  0  0  0  0  0  0  0  0  0
   -1.3445   -1.3826    1.0002 C   0  0  0  0  0  0  0  0  0  0  0  0
   -1.5218   -2.2276    1.6966 H   0  0  0  0  0  0  0  0  0  0  0  0
   -0.6498   -1.7242    0.2034 H   0  0  0  0  0  0  0  0  0  0  0  0
   -2.6483   -0.8865    0.4162 C   0  0  0  0  0  0  0  0  0  0  0  0
   -3.8718   -1.4104    0.8670 C   0  0  0  0  0  0  0  0  0  0  0  0
   -3.8750   -2.1899    1.6411 H   0  0  0  0  0  0  0  0  0  0  0  0
   -5.0827   -0.9254    0.3269 C   0  0  0  0  0  0  0  0  0  0  0  0
   -5.0635    0.0730   -0.6776 C   0  0  0  0  0  0  0  0  0  0  0  0
   -3.8172    0.5941   -1.1167 C   0  0  0  0  0  0  0  0  0  0  0  0
   -2.6122    0.1141   -0.5703 C   0  0  0  0  0  0  0  0  0  0  0  0
   -1.6403    0.5073   -0.9065 H   0  0  0  0  0  0  0  0  0  0  0  0
   -6.4040   -2.3726    1.6736 C   0  0  0  0  0  0  0  0  0  0  0  0
   -7.4808   -2.5776    1.8219 H   0  0  0  0  0  0  0  0  0  0  0  0
   -5.9603   -2.0627    2.6480 H   0  0  0  0  0  0  0  0  0  0  0  0
   -5.9021   -3.3097    1.3411 H   0  0  0  0  0  0  0  0  0  0  0  0
   -6.6526    1.8041   -0.9111 C   0  0  0  0  0  0  0  0  0  0  0  0
   -6.7792    1.9367    0.1874 H   0  0  0  0  0  0  0  0  0  0  0  0
   -7.6310    1.9625   -1.4041 H   0  0  0  0  0  0  0  0  0  0  0  0
   -5.9285    2.5572   -1.2887 H   0  0  0  0  0  0  0  0  0  0  0  0
   -2.6678    2.0788   -2.5805 C   0  0  0  0  0  0  0  0  0  0  0  0
   -2.0248    1.2926   -3.0309 H   0  0  0  0  0  0  0  0  0  0  0  0
   -2.0767    2.5785   -1.7828 H   0  0  0  0  0  0  0  0  0  0  0  0
   -2.9461    2.8178   -3.3542 H   0  0  0  0  0  0  0  0  0  0  0  0
    2.0027    2.0860    2.0364 C   0  0  0  0  0  0  0  0  0  0  0  0
    2.7530    1.5057    1.4608 H   0  0  0  0  0  0  0  0  0  0  0  0
    2.4224    2.3001    3.0419 H   0  0  0  0  0  0  0  0  0  0  0  0
    1.6383    3.3735    1.2905 C   0  0  0  0  0  0  0  0  0  0  0  0
    1.0765    3.0827    0.3768 H   0  0  0  0  0  0  0  0  0  0  0  0
    0.9516    3.9795    1.9204 H   0  0  0  0  0  0  0  0  0  0  0  0
    2.8648    4.2055    0.8919 C   0  0  0  0  0  0  0  0  0  0  0  0
    2.5080    5.1895    0.5201 H   0  0  0  0  0  0  0  0  0  0  0  0
    3.4782    4.4329    1.7936 H   0  0  0  0  0  0  0  0  0  0  0  0
    3.7340    3.5484   -0.1855 C   0  0  0  0  0  0  0  0  0  0  0  0
    4.1931    2.6013    0.1658 H   0  0  0  0  0  0  0  0  0  0  0  0
    4.5611    4.2166   -0.4987 H   0  0  0  0  0  0  0  0  0  0  0  0
    3.1285    3.2962   -1.0797 H   0  0  0  0  0  0  0  0  0  0  0  0
  1 22  1  0  0  0  0
  2 26  1  0  0  0  0
  2 18  1  0  0  0  0
  3 19  1  0  0  0  0
  4  7  1  0  0  0  0
  5  9  1  0  0  0  0
  6  4  1  0  0  0  0
  6  5  1  0  0  0  0
  7  9  2  0  0  0  0
  7  8  1  0  0  0  0
  9 10  1  0  0  0  0
 11 12  1  0  0  0  0
 11  4  1  0  0  0  0
 13 11  1  0  0  0  0
 14 15  1  0  0  0  0
 14 11  1  0  0  0  0
 15 16  1  0  0  0  0
 17  1  1  0  0  0  0
 17 15  2  0  0  0  0
 18 17  1  0  0  0  0
 19 18  2  0  0  0  0
 19 20  1  0  0  0  0
 20 14  2  0  0  0  0
 21 20  1  0  0  0  0
 22 23  1  0  0  0  0
 22 24  1  0  0  0  0
 25 22  1  0  0  0  0
 26 27  1  0  0  0  0
 28 26  1  0  0  0  0
 29 26  1  0  0  0  0
 30  3  1  0  0  0  0
 30 32  1  0  0  0  0
 31 30  1  0  0  0  0
 33 30  1  0  0  0  0
 34  5  1  0  0  0  0
 34 36  1  0  0  0  0
 35 34  1  0  0  0  0
 37 39  1  0  0  0  0
 37 34  1  0  0  0  0
 38 37  1  0  0  0  0
 40 37  1  0  0  0  0
 40 42  1  0  0  0  0
 41 40  1  0  0  0  0
 43 44  1  0  0  0  0
 43 40  1  0  0  0  0
 45 43  1  0  0  0  0
 46 43  1  0  0  0  0
M  END
