10
q = -1.0, confidence = 0.0

 22 23  0  0  0  0  0  0  0  0999 V2000
    1.6473   -0.5018    1.7085 B   0  0  0  0  0  0  0  0  0  0  0  0
    3.0402   -0.3942    0.9638 C   0  0  0  0  0  0  0  0  0  0  0  0
    3.8089   -1.5446    0.6573 C   0  0  0  0  0  0  0  0  0  0  0  0
    5.0345   -1.4602   -0.0216 C   0  0  0  0  0  0  0  0  0  0  0  0
    5.5322   -0.2080   -0.4202 C   0  0  0  0  0  0  0  0  0  0  0  0
    4.7965    0.9522   -0.1245 C   0  0  0  0  0  0  0  0  0  0  0  0
    3.5737    0.8535    0.5568 C   0  0  0  0  0  0  0  0  0  0  0  0
    0.8018   -1.7791    1.7236 C   0  0  0  0  0  0  0  0  0  0  0  0
   -0.4517   -1.8223    2.3691 C   0  0  0  0  0  0  0  0  0  0  0  0
   -1.0154   -0.6702    2.9725 C   0  0  0  0  0  3  0  0  0  0  0  0
   -0.3128    0.5614    2.9750 C   0  0  0  0  0  3  0  0  0  0  0  0
    0.9460    0.6961    2.3549 C   0  0  0  0  0  0  0  0  0  0  0  0
    3.4410   -2.5352    0.9710 H   0  0  0  0  0  0  0  0  0  0  0  0
    5.6087   -2.3746   -0.2387 H   0  0  0  0  0  0  0  0  0  0  0  0
    6.4931   -0.1359   -0.9527 H   0  0  0  0  0  0  0  0  0  0  0  0
    5.1814    1.9391   -0.4267 H   0  0  0  0  0  0  0  0  0  0  0  0
    3.0096    1.7754    0.7739 H   0  0  0  0  0  0  0  0  0  0  0  0
    1.1208   -2.7201    1.2380 H   0  0  0  0  0  0  0  0  0  0  0  0
   -1.0490   -2.7480    2.3735 H   0  0  0  0  0  0  0  0  0  0  0  0
   -2.0158   -0.7306    3.4256 H   0  0  0  0  0  0  0  0  0  0  0  0
   -0.8044    1.4326    3.4390 H   0  0  0  0  0  0  0  0  0  0  0  0
    1.3872    1.7086    2.3746 H   0  0  0  0  0  0  0  0  0  0  0  0
  1  8  1  0  0  0  0
  1 12  2  0  0  0  0
  2  1  1  0  0  0  0
  3  2  1  0  0  0  0
  3 13  1  0  0  0  0
  4  3  2  0  0  0  0
  5  6  2  0  0  0  0
  5  4  1  0  0  0  0
  6  7  1  0  0  0  0
  7 17  1  0  0  0  0
  7  2  2  0  0  0  0
  8  9  2  0  0  0  0
  9 19  1  0  0  0  0
  9 10  1  0  0  0  0
 10 11  1  0  0  0  0
 10 20  1  0  0  0  0
 11 21  1  0  0  0  0
 12 22  1  0  0  0  0
 12 11  1  0  0  0  0
 14  4  1  0  0  0  0
 15  5  1  0  0  0  0
 16  6  1  0  0  0  0
 18  8  1  0  0  0  0
M  END
