1
q = -1.0, confidence = 0.0

 31 31  0  0  0  0  0  0  0  0999 V2000
    0.0275    0.1037   -0.0304 C   0  0  0  0  0  3  0  0  0  0  0  0
    0.4461    1.3694   -0.5472 C   0  0  0  0  0  0  0  0  0  0  0  0
    1.5077    1.5954   -0.7424 H   0  0  0  0  0  0  0  0  0  0  0  0
   -0.5093    2.3646   -0.7235 C   0  0  0  0  0  0  0  0  0  0  0  0
   -2.1409    1.9833   -0.3600 S   0  0  0  0  0  0  0  0  0  0  0  0
   -0.1650    3.7620   -1.1599 C   0  0  0  0  0  0  0  0  0  0  0  0
    0.8693    3.8202   -1.5510 H   0  0  0  0  0  0  0  0  0  0  0  0
   -0.2521    4.4675   -0.3066 H   0  0  0  0  0  0  0  0  0  0  0  0
   -0.8657    4.1202   -1.9408 H   0  0  0  0  0  0  0  0  0  0  0  0
    1.0087   -0.7857    0.2965 N   0  0  0  0  0  0  0  0  0  0  0  0
    0.7657   -2.0702    0.9368 C   0  0  0  0  0  0  0  0  0  0  0  0
   -0.2368   -2.0594    1.3965 H   0  0  0  0  0  0  0  0  0  0  0  0
    1.5308   -2.2449    1.7196 H   0  0  0  0  0  0  0  0  0  0  0  0
    0.8255   -2.9148    0.2147 H   0  0  0  0  0  0  0  0  0  0  0  0
    2.4060   -0.4800    0.0949 C   0  0  0  0  0  0  0  0  0  0  0  0
    3.1138    0.1692    1.1333 C   0  0  0  0  0  0  0  0  0  0  0  0
    4.4828    0.4294    0.9325 C   0  0  0  0  0  0  0  0  0  0  0  0
    5.0532    0.9343    1.7277 H   0  0  0  0  0  0  0  0  0  0  0  0
    5.1171    0.0619   -0.2625 C   0  0  0  0  0  0  0  0  0  0  0  0
    6.1881    0.2733   -0.4024 H   0  0  0  0  0  0  0  0  0  0  0  0
    4.3897   -0.5643   -1.2840 C   0  0  0  0  0  0  0  0  0  0  0  0
    4.8868   -0.8395   -2.2273 H   0  0  0  0  0  0  0  0  0  0  0  0
    3.0191   -0.8445   -1.1247 C   0  0  0  0  0  0  0  0  0  0  0  0
    2.4009    0.5952    2.3901 C   0  0  0  0  0  0  0  0  0  0  0  0
    1.9363   -0.2627    2.9189 H   0  0  0  0  0  0  0  0  0  0  0  0
    1.5718    1.2953    2.1563 H   0  0  0  0  0  0  0  0  0  0  0  0
    3.0935    1.0953    3.0929 H   0  0  0  0  0  0  0  0  0  0  0  0
    2.2090   -1.4827   -2.2240 C   0  0  0  0  0  0  0  0  0  0  0  0
    1.8103   -2.4734   -1.9194 H   0  0  0  0  0  0  0  0  0  0  0  0
    2.8189   -1.6326   -3.1348 H   0  0  0  0  0  0  0  0  0  0  0  0
    1.3349   -0.8523   -2.4885 H   0  0  0  0  0  0  0  0  0  0  0  0
  1 10  1  0  0  0  0
  2  1  2  0  0  0  0
  3  2  1  0  0  0  0
  4  2  1  0  0  0  0
  4  5  2  0  0  0  0
  6  4  1  0  0  0  0
  6  8  1  0  0  0  0
  7  6  1  0  0  0  0
  9  6  1  0  0  0  0
 10 11  1  0  0  0  0
 11 12  1  0  0  0  0
 11 13  1  0  0  0  0
 14 11  1  0  0  0  0
 15 10  1  0  0  0  0
 15 16  1  0  0  0  0
 16 24  1  0  0  0  0
 17 16  2  0  0  0  0
 17 18  1  0  0  0  0
 19 17  1  0  0  0  0
 20 19  1  0  0  0  0
 21 23  1  0  0  0  0
 21 19  2  0  0  0  0
 22 21  1  0  0  0  0
 23 15  2  0  0  0  0
 24 25  1  0  0  0  0
 24 27  1  0  0  0  0
 26 24  1  0  0  0  0
 28 29  1  0  0  0  0
 28 23  1  0  0  0  0
 30 28  1  0  0  0  0
 31 28  1  0  0  0  0
M  END
