1
q = 0.0, confidence = 0.982

 18 17  0  0  0  0  0  0  0  0999 V2000
    1.4069   -1.7632   -0.8052 C   0  0  0  0  0  3  0  0  0  0  0  0
    1.0883   -2.2247   -1.7552 H   0  0  0  0  0  0  0  0  0  0  0  0
    1.3960   -2.4320    0.0715 H   0  0  0  0  0  0  0  0  0  0  0  0
    2.1646   -0.5769   -0.8137 C   0  0  0  0  0  3  0  0  0  0  0  0
    2.4154   -0.1351   -1.7974 H   0  0  0  0  0  0  0  0  0  0  0  0
    3.0892   -0.1231    0.3198 C   0  0  0  0  0  0  0  0  0  0  0  0
    4.4784   -0.7535    0.0692 C   0  0  0  0  0  0  0  0  0  0  0  0
    5.2012   -0.4371    0.8503 H   0  0  0  0  0  0  0  0  0  0  0  0
    4.8864   -0.4452   -0.9153 H   0  0  0  0  0  0  0  0  0  0  0  0
    4.4177   -1.8606    0.0793 H   0  0  0  0  0  0  0  0  0  0  0  0
    2.5646   -0.5616    1.6984 C   0  0  0  0  0  0  0  0  0  0  0  0
    1.5452   -0.1590    1.8779 H   0  0  0  0  0  0  0  0  0  0  0  0
    3.2301   -0.1866    2.5025 H   0  0  0  0  0  0  0  0  0  0  0  0
    2.5199   -1.6651    1.7940 H   0  0  0  0  0  0  0  0  0  0  0  0
    3.2180    1.4117    0.2986 C   0  0  0  0  0  0  0  0  0  0  0  0
    2.2477    1.8853    0.5463 H   0  0  0  0  0  0  0  0  0  0  0  0
    3.5378    1.7735   -0.7009 H   0  0  0  0  0  0  0  0  0  0  0  0
    3.9691    1.7550    1.0394 H   0  0  0  0  0  0  0  0  0  0  0  0
  1  3  1  0  0  0  0
  2  1  1  0  0  0  0
  4  1  1  0  0  0  0
  4  6  1  0  0  0  0
  5  4  1  0  0  0  0
  6 11  1  0  0  0  0
  7 10  1  0  0  0  0
  7  6  1  0  0  0  0
  7  8  1  0  0  0  0
  9  7  1  0  0  0  0
 11 14  1  0  0  0  0
 11 12  1  0  0  0  0
 11 13  1  0  0  0  0
 15  6  1  0  0  0  0
 15 16  1  0  0  0  0
 15 18  1  0  0  0  0
 17 15  1  0  0  0  0
M  END
