2
q = 0.0, confidence = 0.99

 46 48  0  0  0  0  0  0  0  0999 V2000
   -0.4904    1.2251   -0.1641 O   0  0  0  0  0  0  0  0  0  0  0  0
   -0.8915   -0.0949   -0.2593 C   0  0  0  0  0  2  0  0  0  0  0  0
    0.1510   -1.0064   -0.5441 C   0  0  0  0  0  0  0  0  0  0  0  0
   -0.1149   -2.0710   -0.6084 H   0  0  0  0  0  0  0  0  0  0  0  0
    1.4913   -0.6228   -0.7297 C   0  0  0  0  0  0  0  0  0  0  0  0
    1.7783    0.7737   -0.6806 C   0  0  0  0  0  0  0  0  0  0  0  0
    2.7804    1.1511   -0.9037 H   0  0  0  0  0  0  0  0  0  0  0  0
    0.7734    1.6666   -0.3728 C   0  0  0  0  0  0  0  0  0  0  0  0
    0.9296    3.1216   -0.2344 C   0  0  0  0  0  0  0  0  0  0  0  0
   -0.2067    3.9633   -0.1951 C   0  0  0  0  0  0  0  0  0  0  0  0
   -1.2108    3.5245   -0.2672 H   0  0  0  0  0  0  0  0  0  0  0  0
   -0.0524    5.3490   -0.0668 C   0  0  0  0  0  0  0  0  0  0  0  0
   -0.9446    5.9924   -0.0415 H   0  0  0  0  0  0  0  0  0  0  0  0
    1.2289    5.9153    0.0289 C   0  0  0  0  0  0  0  0  0  0  0  0
    1.3457    7.0048    0.1308 H   0  0  0  0  0  0  0  0  0  0  0  0
    2.3621    5.0846    0.0027 C   0  0  0  0  0  0  0  0  0  0  0  0
    3.3689    5.5196    0.0924 H   0  0  0  0  0  0  0  0  0  0  0  0
    2.2176    3.6991   -0.1247 C   0  0  0  0  0  0  0  0  0  0  0  0
    3.1132    3.0605   -0.1111 H   0  0  0  0  0  0  0  0  0  0  0  0
    2.5002   -1.6435   -1.0042 C   0  0  0  0  0  0  0  0  0  0  0  0
    2.0927   -2.5955   -1.3854 H   0  0  0  0  0  0  0  0  0  0  0  0
    3.8570   -1.5730   -0.8460 C   0  0  0  0  0  0  0  0  0  0  0  0
    4.5416   -0.4234   -0.1935 C   0  0  0  0  0  0  0  0  0  0  0  0
    5.5632    0.2876   -0.8608 C   0  0  0  0  0  0  0  0  0  0  0  0
    5.8563   -0.0097   -1.8793 H   0  0  0  0  0  0  0  0  0  0  0  0
    6.1781    1.3929   -0.2537 C   0  0  0  0  0  0  0  0  0  0  0  0
    6.9587    1.9483   -0.7954 H   0  0  0  0  0  0  0  0  0  0  0  0
    5.8002    1.7899    1.0393 C   0  0  0  0  0  0  0  0  0  0  0  0
    6.2860    2.6544    1.5164 H   0  0  0  0  0  0  0  0  0  0  0  0
    4.8064    1.0713    1.7250 C   0  0  0  0  0  0  0  0  0  0  0  0
    4.5132    1.3682    2.7432 H   0  0  0  0  0  0  0  0  0  0  0  0
    4.1832   -0.0251    1.1148 C   0  0  0  0  0  0  0  0  0  0  0  0
    3.3984   -0.5829    1.6473 H   0  0  0  0  0  0  0  0  0  0  0  0
    4.7414   -2.7215   -1.2718 C   0  0  0  0  0  0  0  0  0  0  0  0
    4.1298   -3.4845   -1.7943 H   0  0  0  0  0  0  0  0  0  0  0  0
    5.4731   -2.3436   -2.0211 H   0  0  0  0  0  0  0  0  0  0  0  0
    5.5306   -3.3557   -0.1075 C   0  0  0  0  0  0  0  0  0  0  0  0
    6.2227   -2.5947    0.3119 H   0  0  0  0  0  0  0  0  0  0  0  0
    6.1730   -4.1617   -0.5243 H   0  0  0  0  0  0  0  0  0  0  0  0
    4.6601   -3.9234    1.0218 C   0  0  0  0  0  0  0  0  0  0  0  0
    5.3318   -4.2908    1.8268 H   0  0  0  0  0  0  0  0  0  0  0  0
    4.0703   -3.0987    1.4795 H   0  0  0  0  0  0  0  0  0  0  0  0
    3.7162   -5.0493    0.5951 C   0  0  0  0  0  0  0  0  0  0  0  0
    2.9534   -4.7019   -0.1314 H   0  0  0  0  0  0  0  0  0  0  0  0
    3.1681   -5.4662    1.4634 H   0  0  0  0  0  0  0  0  0  0  0  0
    4.2719   -5.8843    0.1186 H   0  0  0  0  0  0  0  0  0  0  0  0
  2  1  1  0  0  0  0
  3  2  1  0  0  0  0
  4  3  1  0  0  0  0
  5  6  1  0  0  0  0
  5  3  2  0  0  0  0
  6  8  2  0  0  0  0
  7  6  1  0  0  0  0
  8  9  1  0  0  0  0
  8  1  1  0  0  0  0
  9 10  2  0  0  0  0
  9 18  1  0  0  0  0
 10 12  1  0  0  0  0
 11 10  1  0  0  0  0
 12 13  1  0  0  0  0
 12 14  2  0  0  0  0
 14 15  1  0  0  0  0
 16 14  1  0  0  0  0
 16 17  1  0  0  0  0
 18 19  1  0  0  0  0
 18 16  2  0  0  0  0
 20 22  2  0  0  0  0
 20  5  1  0  0  0  0
 21 20  1  0  0  0  0
 22 23  1  0  0  0  0
 23 32  1  0  0  0  0
 24 26  1  0  0  0  0
 24 23  2  0  0  0  0
 25 24  1  0  0  0  0
 26 28  2  0  0  0  0
 27 26  1  0  0  0  0
 28 29  1  0  0  0  0
 28 30  1  0  0  0  0
 30 31  1  0  0  0  0
 32 33  1  0  0  0  0
 32 30  2  0  0  0  0
 34 22  1  0  0  0  0
 34 37  1  0  0  0  0
 35 34  1  0  0  0  0
 36 34  1  0  0  0  0
 37 38  1  0  0  0  0
 37 40  1  0  0  0  0
 39 37  1  0  0  0  0
 40 42  1  0  0  0  0
 40 41  1  0  0  0  0
 43 40  1  0  0  0  0
 43 45  1  0  0  0  0
 44 43  1  0  0  0  0
 46 43  1  0  0  0  0
M  END
