4
q = 0.0, confidence = 0.994

 25 25  0  0  0  0  0  0  0  0999 V2000
    3.9677    0.5451   -0.7081 O   0  0  0  0  0  0  0  0  0  0  0  0
    1.4530   -2.8000    0.3932 N   0  0  0  0  0  0  0  0  0  0  0  0
    2.6251   -1.4278   -0.7963 N   0  0  0  0  0  0  0  0  0  0  0  0
    1.4340   -1.5442   -0.1359 C   0  0  0  0  0  2  0  0  0  0  0  0
    2.6399   -3.4548    0.0827 C   0  0  0  0  0  0  0  0  0  0  0  0
    2.8466   -4.4773    0.4122 H   0  0  0  0  0  0  0  0  0  0  0  0
    3.3859   -2.5828   -0.6654 C   0  0  0  0  0  0  0  0  0  0  0  0
    4.3819   -2.6796   -1.1064 H   0  0  0  0  0  0  0  0  0  0  0  0
    3.0806   -0.2051   -1.4728 C   0  0  0  0  0  0  0  0  0  0  0  0
    3.6188   -0.5124   -2.3909 H   0  0  0  0  0  0  0  0  0  0  0  0
    2.1531    0.3467   -1.7448 H   0  0  0  0  0  0  0  0  0  0  0  0
    3.3601    1.2303    0.3947 C   0  0  0  0  0  0  0  0  0  0  0  0
    3.0308    0.5088    1.1757 H   0  0  0  0  0  0  0  0  0  0  0  0
    2.4337    1.7468    0.0410 H   0  0  0  0  0  0  0  0  0  0  0  0
    4.3577    2.2290    0.9585 C   0  0  0  0  0  0  0  0  0  0  0  0
    5.2569    1.6710    1.2990 H   0  0  0  0  0  0  0  0  0  0  0  0
    3.9047    2.6735    1.8702 H   0  0  0  0  0  0  0  0  0  0  0  0
    4.7586    3.3189   -0.0360 C   0  0  0  0  0  0  0  0  0  0  0  0
    5.1964    2.8700   -0.9496 H   0  0  0  0  0  0  0  0  0  0  0  0
    5.5039    4.0158    0.3965 H   0  0  0  0  0  0  0  0  0  0  0  0
    3.8778    3.9191   -0.3485 H   0  0  0  0  0  0  0  0  0  0  0  0
    0.3656   -3.3541    1.1901 C   0  0  0  0  0  0  0  0  0  0  0  0
    0.6626   -4.3504    1.5645 H   0  0  0  0  0  0  0  0  0  0  0  0
   -0.5491   -3.4484    0.5729 H   0  0  0  0  0  0  0  0  0  0  0  0
    0.1612   -2.6682    2.0358 H   0  0  0  0  0  0  0  0  0  0  0  0
  1 12  1  0  0  0  0
  2 22  1  0  0  0  0
  3  7  1  0  0  0  0
  3  4  1  0  0  0  0
  4  2  1  0  0  0  0
  5  2  1  0  0  0  0
  5  6  1  0  0  0  0
  7  5  2  0  0  0  0
  8  7  1  0  0  0  0
  9  3  1  0  0  0  0
  9  1  1  0  0  0  0
 10  9  1  0  0  0  0
 11  9  1  0  0  0  0
 12 15  1  0  0  0  0
 12 13  1  0  0  0  0
 14 12  1  0  0  0  0
 15 16  1  0  0  0  0
 15 17  1  0  0  0  0
 18 20  1  0  0  0  0
 18 15  1  0  0  0  0
 19 18  1  0  0  0  0
 21 18  1  0  0  0  0
 22 23  1  0  0  0  0
 22 25  1  0  0  0  0
 24 22  1  0  0  0  0
M  END
